# generated using pymatgen
data_Li2V(PO3)5
_symmetry_space_group_name_H-M   'P 1'
_cell_length_a   13.46223800
_cell_length_b   5.17931300
_cell_length_c   8.84052826
_cell_angle_alpha   78.22907189
_cell_angle_beta   90.00000000
_cell_angle_gamma   90.00000000
_symmetry_Int_Tables_number   1
_chemical_formula_structural   Li2V(PO3)5
_chemical_formula_sum   'Li4 V2 P10 O30'
_cell_volume   603.44469794
_cell_formula_units_Z   2
loop_
 _symmetry_equiv_pos_site_id
 _symmetry_equiv_pos_as_xyz
  1  'x, y, z'
loop_
 _atom_site_type_symbol
 _atom_site_label
 _atom_site_symmetry_multiplicity
 _atom_site_fract_x
 _atom_site_fract_y
 _atom_site_fract_z
 _atom_site_occupancy
  Li  Li0  1  0.11580300  0.06055300  0.90214100  1
  Li  Li1  1  0.61580300  0.93944700  0.09785900  1
  Li  Li2  1  0.88419700  0.93944700  0.09785900  1
  Li  Li3  1  0.38419700  0.06055300  0.90214100  1
  V  V0  1  0.00000000  0.50000000  0.50000000  1
  V  V1  1  0.50000000  0.50000000  0.50000000  1
  P  P0  1  0.14086000  0.00007100  0.48428500  1
  P  P1  1  0.75000000  0.45592500  0.01371100  1
  P  P2  1  0.42305900  0.34106000  0.18445300  1
  P  P3  1  0.25000000  0.54407500  0.98628900  1
  P  P4  1  0.35914000  0.00007100  0.48428500  1
  P  P5  1  0.85914000  0.99992900  0.51571500  1
  P  P6  1  0.92305900  0.65894000  0.81554700  1
  P  P7  1  0.64086000  0.99992900  0.51571500  1
  P  P8  1  0.07694100  0.34106000  0.18445300  1
  P  P9  1  0.57694100  0.65894000  0.81554700  1
  O  O0  1  0.50991300  0.50987400  0.72511900  1
  O  O1  1  0.49008700  0.49012600  0.27488100  1
  O  O2  1  0.85473400  0.86031300  0.69387000  1
  O  O3  1  0.99008700  0.50987400  0.72511900  1
  O  O4  1  0.62707500  0.29263000  0.50387500  1
  O  O5  1  0.53173500  0.80848400  0.92563100  1
  O  O6  1  0.64526600  0.86031300  0.69387000  1
  O  O7  1  0.12707500  0.70737000  0.49612500  1
  O  O8  1  0.25000000  0.80703500  0.87794600  1
  O  O9  1  0.46826500  0.19151600  0.07436900  1
  O  O10  1  0.75000000  0.71257000  0.06653700  1
  O  O11  1  0.87292500  0.29263000  0.50387500  1
  O  O12  1  0.42670600  0.14359100  0.57541900  1
  O  O13  1  0.75000000  0.94794500  0.45926500  1
  O  O14  1  0.25000000  0.28743000  0.93346300  1
  O  O15  1  0.75000000  0.19296500  0.12205400  1
  O  O16  1  0.84291900  0.44617500  0.89552800  1
  O  O17  1  0.25000000  0.05205500  0.54073500  1
  O  O18  1  0.57329400  0.85640900  0.42458100  1
  O  O19  1  0.92670600  0.85640900  0.42458100  1
  O  O20  1  0.03173500  0.19151600  0.07436900  1
  O  O21  1  0.96826500  0.80848400  0.92563100  1
  O  O22  1  0.37292500  0.70737000  0.49612500  1
  O  O23  1  0.35473400  0.13968700  0.30613000  1
  O  O24  1  0.15708100  0.55382500  0.10447200  1
  O  O25  1  0.65708100  0.44617500  0.89552800  1
  O  O26  1  0.00991300  0.49012600  0.27488100  1
  O  O27  1  0.07329400  0.14359100  0.57541900  1
  O  O28  1  0.34291900  0.55382500  0.10447200  1
  O  O29  1  0.14526600  0.13968700  0.30613000  1
loop_
_geom_bond_atom_site_label_1
_geom_bond_atom_site_label_2
_geom_bond_distance
_geom_bond_site_symmetry_2
Li0 O20 2.116736 1_556
Li0 O14 2.203176 1_555
Li0 O8 2.268967 1_545
Li0 O21 2.362607 1_445
Li1 O5 2.116736 1_554
Li1 O10 2.203176 1_555
Li1 O15 2.268967 1_565
Li1 O9 2.362607 1_565
Li2 O21 2.116736 1_554
Li2 O10 2.203176 1_555
Li2 O15 2.268967 1_565
Li2 O20 2.362607 1_665
Li3 O9 2.116736 1_556
Li3 O14 2.203176 1_555
Li3 O8 2.268967 1_545
Li3 O5 2.362607 1_545
O0 P9 1.516976 1_555
O0 V1 2.005674 1_555
O1 P2 1.516976 1_555
O1 V1 2.005674 1_555
O2 P5 1.594466 1_555
O2 P6 1.622716 1_555
O3 P6 1.516976 1_555
O3 V0 2.005674 1_655
O4 P7 1.509596 1_545
O4 V1 2.016495 1_555
O5 P9 1.491619 1_555
O6 P7 1.594466 1_555
O6 P9 1.622716 1_555
O7 P0 1.509596 1_565
O7 V0 2.016495 1_555
O8 P3 1.496690 1_555
O9 P2 1.491619 1_555
O10 P1 1.496083 1_555
O11 P5 1.509596 1_545
O11 V0 2.016495 1_655
O12 P4 1.507764 1_555
O12 V1 2.079307 1_555
O13 P7 1.592203 1_555
O13 P5 1.592203 1_555
O14 P3 1.496083 1_555
O15 P1 1.496690 1_555
O16 P6 1.600109 1_555
O16 P1 1.637201 1_556
O17 P4 1.592203 1_555
O17 P0 1.592203 1_555
O18 P7 1.507764 1_555
O18 V1 2.079307 1_555
O19 P5 1.507764 1_555
O19 V0 2.079307 1_655
O20 P8 1.491619 1_555
O21 P6 1.491619 1_555
O22 P4 1.509596 1_565
O22 V1 2.016495 1_555
O23 P4 1.594466 1_555
O23 P2 1.622716 1_555
O24 P8 1.600109 1_555
O24 P3 1.637201 1_554
O25 P9 1.600109 1_555
O25 P1 1.637201 1_556
O26 P8 1.516976 1_555
O26 V0 2.005674 1_555
O27 P0 1.507764 1_555
O27 V0 2.079307 1_555
O28 P2 1.600109 1_555
O28 P3 1.637201 1_554
O29 P0 1.594466 1_555
O29 P8 1.622716 1_555
