# generated using pymatgen
data_BaVS3
_symmetry_space_group_name_H-M   'P 1'
_cell_length_a   8.79610836
_cell_length_b   8.79610836
_cell_length_c   11.27683370
_cell_angle_alpha   50.25078212
_cell_angle_beta   50.25078212
_cell_angle_gamma   45.74183352
_symmetry_Int_Tables_number   1
_chemical_formula_structural   BaVS3
_chemical_formula_sum   'Ba4 V4 S12'
_cell_volume   449.91305630
_cell_formula_units_Z   4
loop_
 _symmetry_equiv_pos_site_id
 _symmetry_equiv_pos_as_xyz
  1  'x, y, z'
loop_
 _atom_site_type_symbol
 _atom_site_label
 _atom_site_symmetry_multiplicity
 _atom_site_fract_x
 _atom_site_fract_y
 _atom_site_fract_z
 _atom_site_occupancy
  Ba  Ba0  1  0.66396900  0.66396900  0.21164600  1
  Ba  Ba1  1  0.33696800  0.33696800  0.28494000  1
  Ba  Ba2  1  0.66691700  0.66691700  0.70383100  1
  Ba  Ba3  1  0.34277100  0.34277100  0.78175000  1
  V  V0  1  0.02640700  0.02640700  0.73180400  1
  V  V1  1  0.97767900  0.97767900  0.52745300  1
  V  V2  1  0.02676500  0.02676500  0.22156300  1
  V  V3  1  0.98106700  0.98106700  0.02164500  1
  S  S0  1  0.17196300  0.17196300  0.71162300  1
  S  S1  1  0.83302800  0.83302800  0.79553600  1
  S  S2  1  0.17398400  0.17398400  0.19808200  1
  S  S3  1  0.83404100  0.83404100  0.29323400  1
  S  S4  1  0.16193300  0.68130700  0.94748400  1
  S  S5  1  0.68130700  0.16193300  0.94748400  1
  S  S6  1  0.84666800  0.32258600  0.53560600  1
  S  S7  1  0.32258600  0.84666800  0.53560600  1
  S  S8  1  0.16030900  0.68323800  0.44772000  1
  S  S9  1  0.68323800  0.16030900  0.44772000  1
  S  S10  1  0.83780100  0.32619900  0.03748700  1
  S  S11  1  0.32619900  0.83780100  0.03748700  1
loop_
_geom_bond_atom_site_label_1
_geom_bond_atom_site_label_2
_geom_bond_distance
_geom_bond_site_symmetry_2
Ba0 S9 3.344996 1_555
Ba0 S8 3.344996 1_555
Ba0 S1 3.417671 1_554
Ba0 S6 3.418925 1_555
Ba0 S7 3.418925 1_555
Ba0 S2 3.420898 1_655
Ba0 S2 3.420898 1_565
Ba0 S4 3.427482 1_654
Ba0 S5 3.427482 1_564
Ba0 S3 3.459250 1_555
Ba0 S11 3.507598 1_555
Ba0 S10 3.507598 1_555
Ba1 S11 3.352247 1_555
Ba1 S10 3.352247 1_555
Ba1 S7 3.364493 1_545
Ba1 S6 3.364493 1_455
Ba1 S2 3.395622 1_555
Ba1 S3 3.419371 1_545
Ba1 S3 3.419371 1_455
Ba1 S9 3.457952 1_555
Ba1 S8 3.457952 1_555
Ba1 S4 3.502756 1_554
Ba1 S5 3.502756 1_554
Ba1 S0 3.527489 1_555
Ba2 S5 3.368661 1_555
Ba2 S4 3.368661 1_555
Ba2 S3 3.371647 1_555
Ba2 S9 3.392158 1_565
Ba2 S8 3.392158 1_655
Ba2 S0 3.422228 1_565
Ba2 S0 3.422228 1_655
Ba2 S10 3.452873 1_556
Ba2 S11 3.452873 1_556
Ba2 S6 3.478519 1_555
Ba2 S7 3.478519 1_555
Ba2 S1 3.490539 1_555
Ba3 S6 3.343633 1_555
Ba3 S7 3.343633 1_555
Ba3 S0 3.365974 1_555
Ba3 S5 3.405072 1_555
Ba3 S4 3.405072 1_555
Ba3 S2 3.420385 1_556
Ba3 S1 3.420861 1_455
Ba3 S1 3.420861 1_545
Ba3 S11 3.471585 1_546
Ba3 S10 3.471585 1_456
Ba3 S8 3.511337 1_555
Ba3 S9 3.511337 1_555
S0 V0 2.207495 1_555
S0 V3 2.604261 1_446
S1 V1 2.190543 1_555
S1 V0 2.686059 1_665
S2 V2 2.210771 1_555
S2 V1 2.741644 1_445
S3 V3 2.220086 1_555
S3 V2 2.628228 1_665
S4 V3 2.333703 1_456
S4 V0 2.401330 1_565
S5 V3 2.333703 1_546
S5 V0 2.401330 1_655
S6 V0 2.352624 1_655
S6 V1 2.425276 1_545
S7 V0 2.352624 1_565
S7 V1 2.425276 1_455
S8 V1 2.328194 1_455
S8 V2 2.456883 1_565
S9 V1 2.328194 1_545
S9 V2 2.456883 1_655
S10 V2 2.306245 1_655
S10 V3 2.429404 1_545
S11 V2 2.306245 1_565
S11 V3 2.429404 1_455
