# generated using pymatgen
data_TmFeO3
_symmetry_space_group_name_H-M   'P 1'
_cell_length_a   6.00966129
_cell_length_b   6.00967199
_cell_length_c   11.61692875
_cell_angle_alpha   89.99988475
_cell_angle_beta   90.00013350
_cell_angle_gamma   119.99918965
_symmetry_Int_Tables_number   1
_chemical_formula_structural   TmFeO3
_chemical_formula_sum   'Tm6 Fe6 O18'
_cell_volume   363.35092316
_cell_formula_units_Z   6
loop_
 _symmetry_equiv_pos_site_id
 _symmetry_equiv_pos_as_xyz
  1  'x, y, z'
loop_
 _atom_site_type_symbol
 _atom_site_label
 _atom_site_symmetry_multiplicity
 _atom_site_fract_x
 _atom_site_fract_y
 _atom_site_fract_z
 _atom_site_occupancy
  Tm  Tm0  1  0.66666872  0.33333400  0.73178386  1
  Tm  Tm1  1  0.66666622  0.33333181  0.23178125  1
  Tm  Tm2  1  0.00000064  -0.00000004  0.27666051  1
  Tm  Tm3  1  0.33333196  0.66666536  0.23178117  1
  Tm  Tm4  1  0.00000012  -0.00000018  0.77666737  1
  Tm  Tm5  1  0.33333356  0.66666720  0.73178400  1
  Fe  Fe0  1  0.33399471  0.99999902  0.00053147  1
  Fe  Fe1  1  -0.00000101  0.33399506  0.00053167  1
  Fe  Fe2  1  0.00000244  0.66600623  0.50052785  1
  Fe  Fe3  1  0.66600683  0.00000142  0.50052774  1
  Fe  Fe4  1  0.66599657  0.66599666  0.00053264  1
  Fe  Fe5  1  0.33400424  0.33400331  0.50052908  1
  O  O0  1  0.00000234  0.36292252  0.83663819  1
  O  O1  1  0.30382242  0.30382229  0.66678560  1
  O  O2  1  0.66666708  0.33333251  0.02346534  1
  O  O3  1  -0.00000111  0.69617683  0.66678401  1
  O  O4  1  0.66666867  0.33333371  0.52346489  1
  O  O5  1  0.00000200  0.00000078  0.47488831  1
  O  O6  1  0.36292089  0.00000146  0.83663879  1
  O  O7  1  0.33333378  0.66666752  0.52346491  1
  O  O8  1  0.30382778  0.00000123  0.16677934  1
  O  O9  1  0.63707608  0.99999752  0.33663291  1
  O  O10  1  0.63708150  0.63708079  0.83663855  1
  O  O11  1  0.36292070  0.36292012  0.33663301  1
  O  O12  1  -0.00000183  0.63707595  0.33663358  1
  O  O13  1  0.00000176  0.30382922  0.16678049  1
  O  O14  1  0.69617623  0.99999879  0.66678443  1
  O  O15  1  0.69617157  0.69617113  0.16678106  1
  O  O16  1  -0.00000828  0.00000206  0.97490261  1
  O  O17  1  0.33333340  0.66666771  0.02346537  1
loop_
_geom_bond_atom_site_label_1
_geom_bond_atom_site_label_2
_geom_bond_distance
_geom_bond_site_symmetry_2
Fe0 O6 1.911849 1_564
Fe0 O8 1.939781 1_565
Fe0 O17 2.018884 1_555
Fe0 O2 2.018920 1_565
Fe0 O16 2.029214 1_564
Fe1 O0 1.911858 1_554
Fe1 O13 1.939791 1_555
Fe1 O2 2.018881 1_455
Fe1 O17 2.018923 1_555
Fe1 O16 2.029129 1_554
Fe2 O12 1.911869 1_555
Fe2 O3 1.939879 1_555
Fe2 O7 2.018885 1_555
Fe2 O4 2.018926 1_455
Fe2 O5 2.029178 1_565
Fe3 O9 1.911875 1_545
Fe3 O14 1.939884 1_545
Fe3 O4 2.018894 1_555
Fe3 O7 2.018928 1_545
Fe3 O5 2.029179 1_655
Fe4 O10 1.911860 1_554
Fe4 O15 1.939791 1_555
Fe4 O17 2.018868 1_555
Fe4 O2 2.018874 1_555
Fe4 O16 2.029217 1_664
Fe5 O11 1.911883 1_555
Fe5 O1 1.939889 1_555
Fe5 O4 2.018874 1_555
Fe5 O7 2.018880 1_555
Fe5 O5 2.029248 1_555
O0 Tm0 2.274212 1_455
O0 Tm5 2.274225 1_555
O0 Tm4 2.289607 1_555
O1 Tm4 2.227849 1_555
O1 Tm0 2.229307 1_555
O1 Tm5 2.229308 1_555
O2 Tm1 2.419991 1_555
O3 Tm4 2.227845 1_565
O3 Tm5 2.229303 1_555
O3 Tm0 2.229317 1_455
O4 Tm0 2.420027 1_555
O5 Tm2 2.302798 1_555
O6 Tm5 2.274228 1_545
O6 Tm0 2.274241 1_555
O6 Tm4 2.289593 1_555
O7 Tm5 2.420028 1_555
O8 Tm2 2.227848 1_555
O8 Tm3 2.229304 1_545
O8 Tm1 2.229311 1_555
O9 Tm1 2.274199 1_565
O9 Tm3 2.274211 1_555
O9 Tm2 2.289619 1_665
O10 Tm5 2.274218 1_555
O10 Tm0 2.274223 1_555
O10 Tm4 2.289615 1_665
O11 Tm3 2.274197 1_555
O11 Tm1 2.274199 1_555
O11 Tm2 2.289626 1_555
O12 Tm3 2.274204 1_555
O12 Tm1 2.274214 1_455
O12 Tm2 2.289619 1_565
O13 Tm2 2.227849 1_555
O13 Tm1 2.229292 1_455
O13 Tm3 2.229299 1_555
O14 Tm4 2.227840 1_665
O14 Tm0 2.229304 1_565
O14 Tm5 2.229318 1_555
O15 Tm2 2.227865 1_665
O15 Tm3 2.229294 1_555
O15 Tm1 2.229295 1_555
O16 Tm4 2.302885 1_555
O17 Tm3 2.419990 1_555
