# generated using pymatgen
data_Fe2PO5
_symmetry_space_group_name_H-M   'P 1'
_cell_length_a   5.44016961
_cell_length_b   5.44012906
_cell_length_c   7.37623085
_cell_angle_alpha   68.15257018
_cell_angle_beta   111.84847131
_cell_angle_gamma   89.83824978
_symmetry_Int_Tables_number   1
_chemical_formula_structural   Fe2PO5
_chemical_formula_sum   'Fe4 P2 O10'
_cell_volume   185.52092451
_cell_formula_units_Z   2
loop_
 _symmetry_equiv_pos_site_id
 _symmetry_equiv_pos_as_xyz
  1  'x, y, z'
loop_
 _atom_site_type_symbol
 _atom_site_label
 _atom_site_symmetry_multiplicity
 _atom_site_fract_x
 _atom_site_fract_y
 _atom_site_fract_z
 _atom_site_occupancy
  Fe  Fe0  1  0.50027000  0.99991600  0.50007100  1
  Fe  Fe1  1  0.99977900  0.00005900  0.49991500  1
  Fe  Fe2  1  0.49982600  0.00004600  0.99989300  1
  Fe  Fe3  1  0.50011000  0.49979500  0.00013300  1
  P  P0  1  0.87716500  0.37719500  0.75000200  1
  P  P1  1  0.12274900  0.62280800  0.24999000  1
  O  O0  1  0.64202700  0.14203600  0.24998600  1
  O  O1  1  0.35812800  0.85809200  0.74997900  1
  O  O2  1  0.82343700  0.19211000  0.62776200  1
  O  O3  1  0.69213100  0.32334900  0.87226100  1
  O  O4  1  0.18026300  0.31133000  0.89712800  1
  O  O5  1  0.17672500  0.80780300  0.37230600  1
  O  O6  1  0.81129700  0.68030200  0.60289600  1
  O  O7  1  0.81959700  0.68879000  0.10286200  1
  O  O8  1  0.30776600  0.67669100  0.12768500  1
  O  O9  1  0.18873200  0.31967700  0.39713300  1
loop_
_geom_bond_atom_site_label_1
_geom_bond_atom_site_label_2
_geom_bond_distance
_geom_bond_site_symmetry_2
Fe0 O6 2.123240 1_555
Fe0 O9 2.125423 1_565
Fe0 O2 2.140566 1_565
Fe0 O5 2.141805 1_555
Fe0 O0 2.143842 1_565
Fe0 O1 2.144079 1_555
Fe1 O0 2.011022 1_555
Fe1 O1 2.013465 1_645
Fe1 O6 2.064141 1_545
Fe1 O9 2.064886 1_655
Fe1 O2 2.074172 1_555
Fe1 O5 2.075564 1_645
Fe2 O4 2.124084 1_555
Fe2 O7 2.124389 1_546
Fe2 O8 2.141016 1_546
Fe2 O3 2.141328 1_555
Fe2 O1 2.143366 1_545
Fe2 O0 2.144748 1_556
Fe3 O0 2.010811 1_555
Fe3 O1 2.013574 1_554
Fe3 O7 2.064422 1_555
Fe3 O4 2.064458 1_554
Fe3 O3 2.074570 1_554
Fe3 O8 2.075373 1_555
O2 P0 1.547085 1_555
O3 P0 1.546953 1_555
O4 P0 1.549310 1_455
O5 P1 1.547049 1_555
O6 P0 1.549322 1_555
O7 P1 1.549529 1_655
O8 P1 1.547124 1_555
O9 P1 1.549466 1_555
