# generated using pymatgen
data_Ba7Na5Li3N3
_symmetry_space_group_name_H-M   'P 1'
_cell_length_a   12.48334373
_cell_length_b   12.48334373
_cell_length_c   12.48334373
_cell_angle_alpha   60.00000000
_cell_angle_beta   60.00000000
_cell_angle_gamma   60.00000000
_symmetry_Int_Tables_number   1
_chemical_formula_structural   Ba7Na5Li3N3
_chemical_formula_sum   'Ba14 Na10 Li6 N6'
_cell_volume   1375.55445799
_cell_formula_units_Z   2
loop_
 _symmetry_equiv_pos_site_id
 _symmetry_equiv_pos_as_xyz
  1  'x, y, z'
loop_
 _atom_site_type_symbol
 _atom_site_label
 _atom_site_symmetry_multiplicity
 _atom_site_fract_x
 _atom_site_fract_y
 _atom_site_fract_z
 _atom_site_occupancy
  Ba  Ba0  1  0.89527100  0.89527100  0.31418800  1
  Ba  Ba1  1  0.29108100  0.70891900  0.29108100  1
  Ba  Ba2  1  0.70891900  0.29108100  0.29108100  1
  Ba  Ba3  1  0.68822700  0.10392400  0.10392400  1
  Ba  Ba4  1  0.70891900  0.70891900  0.29108100  1
  Ba  Ba5  1  0.29108100  0.29108100  0.70891900  1
  Ba  Ba6  1  0.29108100  0.70891900  0.70891900  1
  Ba  Ba7  1  0.10392400  0.10392400  0.10392400  1
  Ba  Ba8  1  0.31418800  0.89527100  0.89527100  1
  Ba  Ba9  1  0.89527100  0.89527100  0.89527100  1
  Ba  Ba10  1  0.70891900  0.29108100  0.70891900  1
  Ba  Ba11  1  0.89527100  0.31418800  0.89527100  1
  Ba  Ba12  1  0.10392400  0.10392400  0.68822700  1
  Ba  Ba13  1  0.10392400  0.68822700  0.10392400  1
  Na  Na0  1  0.50836300  0.50836300  0.99163700  1
  Na  Na1  1  0.50836300  0.99163700  0.50836300  1
  Na  Na2  1  0.99163700  0.50836300  0.99163700  1
  Na  Na3  1  0.99163700  0.99163700  0.50836300  1
  Na  Na4  1  0.32924600  0.01226100  0.32924600  1
  Na  Na5  1  0.50836300  0.99163700  0.99163700  1
  Na  Na6  1  0.32924600  0.32924600  0.01226100  1
  Na  Na7  1  0.32924600  0.32924600  0.32924600  1
  Na  Na8  1  0.01226100  0.32924600  0.32924600  1
  Na  Na9  1  0.99163700  0.50836300  0.50836300  1
  Li  Li0  1  0.67876000  0.96372000  0.67876000  1
  Li  Li1  1  0.67876000  0.67876000  0.67876000  1
  Li  Li2  1  0.96372000  0.67876000  0.67876000  1
  Li  Li3  1  0.00000000  0.00000000  0.00000000  1
  Li  Li4  1  0.67876000  0.67876000  0.96372000  1
  Li  Li5  1  0.50000000  0.50000000  0.50000000  1
  N  N0  1  0.14868900  0.85131100  0.85131100  1
  N  N1  1  0.85131100  0.14868900  0.14868900  1
  N  N2  1  0.85131100  0.85131100  0.14868900  1
  N  N3  1  0.85131100  0.14868900  0.85131100  1
  N  N4  1  0.14868900  0.14868900  0.85131100  1
  N  N5  1  0.14868900  0.85131100  0.14868900  1
loop_
_geom_bond_atom_site_label_1
_geom_bond_atom_site_label_2
_geom_bond_distance
_geom_bond_site_symmetry_2
Ba0 N1 2.727482 1_565
Ba0 N5 2.727482 1_655
Ba0 N2 2.727490 1_555
Ba0 Na3 4.006101 1_555
Ba0 Na9 4.006110 1_555
Ba0 Na1 4.006110 1_555
Ba1 N5 2.513805 1_555
Ba1 Li5 3.688280 1_555
Ba1 Na4 4.316064 1_565
Ba1 Na7 4.316076 1_555
Ba1 Na9 4.475156 1_455
Ba1 Na0 4.475156 1_554
Ba1 Na3 4.475156 1_455
Ba1 Na5 4.475156 1_554
Ba2 N1 2.513805 1_555
Ba2 Li5 3.688280 1_555
Ba2 Na8 4.316064 1_655
Ba2 Na7 4.316076 1_555
Ba2 Na0 4.475156 1_554
Ba2 Na1 4.475156 1_545
Ba2 Na3 4.475156 1_545
Ba2 Na2 4.475156 1_554
Ba3 N3 2.712327 1_554
Ba3 N2 2.712327 1_545
Ba3 N1 2.712336 1_555
Ba3 Na5 4.150950 1_544
Ba3 Na1 4.150960 1_545
Ba3 Na0 4.150960 1_554
Ba3 Na6 4.313618 1_555
Ba3 Na4 4.313618 1_555
Ba3 Na7 4.313618 1_555
Ba4 N2 2.513805 1_555
Ba4 Li5 3.688280 1_555
Ba4 Na8 4.316071 1_655
Ba4 Na4 4.316071 1_565
Ba4 Na2 4.475156 1_554
Ba4 Na5 4.475156 1_554
Ba4 Na1 4.475156 1_555
Ba4 Na9 4.475156 1_555
Ba5 N4 2.513805 1_555
Ba5 Li5 3.688280 1_555
Ba5 Na6 4.316064 1_556
Ba5 Na7 4.316076 1_555
Ba5 Na9 4.475156 1_455
Ba5 Na1 4.475156 1_545
Ba5 Na2 4.475156 1_455
Ba5 Na5 4.475156 1_545
Ba6 N0 2.513805 1_555
Ba6 Li5 3.688280 1_555
Ba6 Na6 4.316071 1_556
Ba6 Na4 4.316071 1_565
Ba6 Na3 4.475156 1_455
Ba6 Na2 4.475156 1_455
Ba6 Na0 4.475156 1_555
Ba6 Na1 4.475156 1_555
Ba7 N1 2.712324 1_455
Ba7 N4 2.712324 1_554
Ba7 N5 2.712324 1_545
Ba7 Na5 4.150961 1_544
Ba7 Na3 4.150961 1_445
Ba7 Na2 4.150961 1_454
Ba7 Na6 4.313618 1_555
Ba7 Na4 4.313618 1_555
Ba7 Na8 4.313618 1_555
Ba8 N5 2.727482 1_556
Ba8 N4 2.727482 1_565
Ba8 N0 2.727490 1_555
Ba8 Na5 4.006101 1_555
Ba8 Na1 4.006110 1_555
Ba8 Na0 4.006110 1_555
Ba9 N2 2.727478 1_556
Ba9 N0 2.727478 1_655
Ba9 N3 2.727478 1_565
Ba9 Na5 4.006112 1_555
Ba9 Na2 4.006112 1_555
Ba9 Na3 4.006112 1_555
Ba10 N3 2.513805 1_555
Ba10 Li5 3.688280 1_555
Ba10 Na8 4.316071 1_655
Ba10 Na6 4.316071 1_556
Ba10 Na3 4.475156 1_545
Ba10 Na5 4.475156 1_545
Ba10 Na0 4.475156 1_555
Ba10 Na9 4.475156 1_555
Ba11 N4 2.727482 1_655
Ba11 N1 2.727482 1_556
Ba11 N3 2.727490 1_555
Ba11 Na2 4.006101 1_555
Ba11 Na9 4.006110 1_555
Ba11 Na0 4.006110 1_555
Ba12 N0 2.712327 1_545
Ba12 N3 2.712327 1_455
Ba12 N4 2.712336 1_555
Ba12 Na3 4.150950 1_445
Ba12 Na9 4.150960 1_455
Ba12 Na1 4.150960 1_545
Ba12 Na4 4.313618 1_555
Ba12 Na8 4.313618 1_555
Ba12 Na7 4.313618 1_555
Ba13 N0 2.712327 1_554
Ba13 N2 2.712327 1_455
Ba13 N5 2.712336 1_555
Ba13 Na2 4.150950 1_454
Ba13 Na9 4.150960 1_455
Ba13 Na0 4.150960 1_554
Ba13 Na8 4.313618 1_555
Ba13 Na6 4.313618 1_555
Ba13 Na7 4.313618 1_555
Na0 Na7 3.730108 1_556
Na0 Na6 3.730115 1_556
Na1 Na7 3.730108 1_565
Na1 Na4 3.730115 1_565
Na2 Na6 3.730104 1_656
Na2 Na8 3.730104 1_656
Na3 Na8 3.730104 1_665
Na3 Na4 3.730104 1_665
Na4 Na5 3.730104 1_544
Na4 Na8 3.957033 1_555
Na4 Na6 3.957033 1_555
Na4 Na7 3.957033 1_555
Na5 Na6 3.730104 1_566
Na6 Na8 3.957033 1_555
Na6 Na7 3.957033 1_555
Na7 Na9 3.730108 1_455
Na7 Na8 3.957033 1_555
Na8 Na9 3.730115 1_455
Li0 Na5 3.494686 1_555
Li0 Na3 3.494686 1_555
Li0 Na1 3.494686 1_555
Li1 Na0 3.494686 1_555
Li1 Na1 3.494686 1_555
Li1 Na9 3.494686 1_555
Li2 Na3 3.494686 1_555
Li2 Na2 3.494686 1_555
Li2 Na9 3.494686 1_555
Li3 N5 2.624973 1_545
Li3 N1 2.624973 1_455
Li3 N4 2.624973 1_554
Li3 N0 2.624973 1_544
Li3 N3 2.624973 1_454
Li3 N2 2.624973 1_445
Li4 Na5 3.494686 1_555
Li4 Na2 3.494686 1_555
Li4 Na0 3.494686 1_555
