# generated using pymatgen
data_Mg2Co12As7
_symmetry_space_group_name_H-M   'P 1'
_cell_length_a   3.65529500
_cell_length_b   12.02318200
_cell_length_c   24.88085300
_cell_angle_alpha   90.00000000
_cell_angle_beta   90.00000000
_cell_angle_gamma   90.00000000
_symmetry_Int_Tables_number   1
_chemical_formula_structural   Mg2Co12As7
_chemical_formula_sum   'Mg8 Co48 As28'
_cell_volume   1093.47062085
_cell_formula_units_Z   4
loop_
 _symmetry_equiv_pos_site_id
 _symmetry_equiv_pos_as_xyz
  1  'x, y, z'
loop_
 _atom_site_type_symbol
 _atom_site_label
 _atom_site_symmetry_multiplicity
 _atom_site_fract_x
 _atom_site_fract_y
 _atom_site_fract_z
 _atom_site_occupancy
  Mg  Mg0  1  0.75000000  0.31021300  0.88441000  1
  Mg  Mg1  1  0.25000000  0.18978700  0.38441000  1
  Mg  Mg2  1  0.25000000  0.68978700  0.11559000  1
  Mg  Mg3  1  0.25000000  0.71360300  0.82098700  1
  Mg  Mg4  1  0.75000000  0.81021300  0.61559000  1
  Mg  Mg5  1  0.75000000  0.28639700  0.17901300  1
  Mg  Mg6  1  0.75000000  0.78639700  0.32098700  1
  Mg  Mg7  1  0.25000000  0.21360300  0.67901300  1
  Co  Co0  1  0.75000000  0.79211500  0.18802700  1
  Co  Co1  1  0.25000000  0.47413600  0.18586900  1
  Co  Co2  1  0.25000000  0.66998500  0.23921600  1
  Co  Co3  1  0.25000000  0.99184600  0.60851800  1
  Co  Co4  1  0.75000000  0.29211500  0.31197300  1
  Co  Co5  1  0.75000000  0.50180700  0.27053000  1
  Co  Co6  1  0.25000000  0.97413600  0.31413100  1
  Co  Co7  1  0.25000000  0.44007800  0.62224400  1
  Co  Co8  1  0.75000000  0.33001500  0.76078400  1
  Co  Co9  1  0.25000000  0.67324400  0.95969700  1
  Co  Co10  1  0.25000000  0.19426800  0.09070000  1
  Co  Co11  1  0.25000000  0.49819400  0.72947000  1
  Co  Co12  1  0.75000000  0.32675600  0.04030300  1
  Co  Co13  1  0.75000000  0.51457900  0.54375900  1
  Co  Co14  1  0.75000000  0.00180600  0.22947000  1
  Co  Co15  1  0.75000000  0.55992200  0.37775600  1
  Co  Co16  1  0.25000000  0.17324400  0.54030300  1
  Co  Co17  1  0.25000000  0.94007800  0.87775600  1
  Co  Co18  1  0.75000000  0.08018800  0.84885600  1
  Co  Co19  1  0.25000000  0.68712300  0.51421100  1
  Co  Co20  1  0.75000000  0.01457900  0.95624100  1
  Co  Co21  1  0.75000000  0.52586400  0.81413100  1
  Co  Co22  1  0.75000000  0.31287700  0.48578900  1
  Co  Co23  1  0.75000000  0.81287700  0.01421100  1
  Co  Co24  1  0.75000000  0.05992200  0.12224400  1
  Co  Co25  1  0.75000000  0.80573200  0.90930000  1
  Co  Co26  1  0.25000000  0.51060500  0.03619200  1
  Co  Co27  1  0.75000000  0.83001500  0.73921600  1
  Co  Co28  1  0.25000000  0.18712300  0.98578900  1
  Co  Co29  1  0.25000000  0.48542100  0.45624100  1
  Co  Co30  1  0.75000000  0.00815400  0.39148200  1
  Co  Co31  1  0.25000000  0.49184600  0.89148200  1
  Co  Co32  1  0.25000000  0.01060500  0.46380800  1
  Co  Co33  1  0.25000000  0.41981200  0.34885600  1
  Co  Co34  1  0.75000000  0.50815400  0.10851800  1
  Co  Co35  1  0.25000000  0.16998500  0.26078400  1
  Co  Co36  1  0.75000000  0.58018800  0.65114400  1
  Co  Co37  1  0.75000000  0.02586400  0.68586900  1
  Co  Co38  1  0.25000000  0.98542100  0.04375900  1
  Co  Co39  1  0.25000000  0.99819300  0.77053000  1
  Co  Co40  1  0.25000000  0.91981200  0.15114400  1
  Co  Co41  1  0.25000000  0.20788500  0.81197300  1
  Co  Co42  1  0.75000000  0.48939500  0.96380800  1
  Co  Co43  1  0.75000000  0.82675600  0.45969700  1
  Co  Co44  1  0.25000000  0.70788500  0.68802700  1
  Co  Co45  1  0.25000000  0.69426800  0.40930000  1
  Co  Co46  1  0.75000000  0.30573200  0.59070000  1
  Co  Co47  1  0.75000000  0.98939500  0.53619200  1
  As  As0  1  0.75000000  0.12704400  0.47003800  1
  As  As1  1  0.75000000  0.62704400  0.02996200  1
  As  As2  1  0.75000000  0.89414900  0.82473600  1
  As  As3  1  0.25000000  0.37309600  0.53581200  1
  As  As4  1  0.25000000  0.10585100  0.17526400  1
  As  As5  1  0.25000000  0.87295600  0.52996200  1
  As  As6  1  0.25000000  0.86188800  0.23969400  1
  As  As7  1  0.75000000  0.10039700  0.31039100  1
  As  As8  1  0.75000000  0.11895100  0.60400400  1
  As  As9  1  0.25000000  0.37295600  0.97003800  1
  As  As10  1  0.25000000  0.88104900  0.39599600  1
  As  As11  1  0.75000000  0.37423300  0.40048800  1
  As  As12  1  0.75000000  0.13811200  0.76030600  1
  As  As13  1  0.25000000  0.87309600  0.96418800  1
  As  As14  1  0.25000000  0.12576700  0.90048800  1
  As  As15  1  0.75000000  0.39414900  0.67526400  1
  As  As16  1  0.75000000  0.62690400  0.46418800  1
  As  As17  1  0.25000000  0.38104900  0.10400400  1
  As  As18  1  0.25000000  0.62576700  0.59951200  1
  As  As19  1  0.25000000  0.89960300  0.68960900  1
  As  As20  1  0.75000000  0.61895100  0.89599600  1
  As  As21  1  0.25000000  0.36188800  0.26030600  1
  As  As22  1  0.75000000  0.87423300  0.09951200  1
  As  As23  1  0.25000000  0.39960300  0.81039100  1
  As  As24  1  0.75000000  0.60039700  0.18960900  1
  As  As25  1  0.75000000  0.63811200  0.73969400  1
  As  As26  1  0.25000000  0.60585100  0.32473600  1
  As  As27  1  0.75000000  0.12690400  0.03581200  1
loop_
_geom_bond_atom_site_label_1
_geom_bond_atom_site_label_2
_geom_bond_distance
_geom_bond_site_symmetry_2
Co0 Mg2 2.846440 1_655
Co0 Mg2 2.846440 1_555
Co1 Co34 2.685425 1_455
Co1 Co34 2.685425 1_555
Co1 Mg5 2.909371 1_555
Co1 Mg5 2.909371 1_455
Co1 Mg2 3.127343 1_555
Co2 Mg2 3.085121 1_555
Co3 Co47 2.565050 1_555
Co3 Co47 2.565050 1_455
Co3 Co37 2.685425 1_565
Co3 Co37 2.685425 1_465
Co3 Mg4 2.853115 1_455
Co3 Mg4 2.853115 1_555
Co3 Mg7 3.191424 1_565
Co4 Mg1 2.846440 1_555
Co4 Mg1 2.846440 1_655
Co6 Mg6 2.909371 1_455
Co6 Mg6 2.909371 1_555
Co6 Mg1 3.127343 1_565
Co8 Mg0 3.085121 1_555
Co12 Co34 2.763572 1_555
Co16 Co3 2.763572 1_545
Co18 Mg0 2.903664 1_555
Co21 Co31 2.685425 1_655
Co21 Co31 2.685425 1_555
Co21 Mg3 2.909371 1_555
Co21 Mg3 2.909371 1_655
Co21 Mg0 3.127343 1_555
Co26 Co34 2.565050 1_455
Co26 Co34 2.565050 1_555
Co26 Mg2 2.922966 1_555
Co27 Mg4 3.085121 1_555
Co30 Co32 2.565050 1_555
Co30 Co32 2.565050 1_655
Co30 Co6 2.685425 1_545
Co30 Co6 2.685425 1_645
Co30 Co43 2.763572 1_545
Co30 Mg1 2.853115 1_655
Co30 Mg1 2.853115 1_555
Co30 Mg6 3.191424 1_545
Co31 Co42 2.565050 1_455
Co31 Co42 2.565050 1_555
Co31 Co9 2.763572 1_555
Co31 Mg0 2.853115 1_555
Co31 Mg0 2.853115 1_455
Co31 Mg3 3.191424 1_555
Co32 Mg1 2.922966 1_555
Co33 Mg1 2.903664 1_555
Co34 Mg2 2.853115 1_555
Co34 Mg2 2.853115 1_655
Co34 Mg5 3.191424 1_555
Co35 Mg1 3.085121 1_555
Co36 Mg4 2.903664 1_555
Co37 Mg7 2.909371 1_655
Co37 Mg7 2.909371 1_555
Co37 Mg4 3.127343 1_545
Co40 Mg2 2.903664 1_555
Co41 Mg0 2.846440 1_455
Co41 Mg0 2.846440 1_555
Co42 Mg0 2.922966 1_555
Co44 Mg4 2.846440 1_455
Co44 Mg4 2.846440 1_555
Co47 Mg4 2.922966 1_555
As0 Co22 2.268413 1_555
As0 Co32 2.307430 1_655
As0 Co32 2.307430 1_555
As0 Co47 2.334131 1_545
As0 Co30 2.421470 1_555
As0 Co16 2.589446 1_655
As0 Co16 2.589446 1_555
As0 Mg1 2.906612 1_555
As0 Mg1 2.906612 1_655
As1 Co23 2.268413 1_555
As1 Co26 2.307430 1_555
As1 Co26 2.307430 1_655
As1 Co42 2.334131 1_554
As1 Co34 2.421470 1_555
As1 Co9 2.589446 1_654
As1 Co9 2.589446 1_554
As1 Mg2 2.906612 1_655
As1 Mg2 2.906612 1_555
As2 Co27 2.263220 1_555
As2 Co18 2.315889 1_565
As2 Co17 2.320663 1_555
As2 Co17 2.320663 1_655
As2 Co25 2.357329 1_555
As2 Co39 2.593090 1_555
As2 Co39 2.593090 1_655
As2 Mg3 2.839207 1_555
As2 Mg3 2.839207 1_655
As3 Co7 2.296351 1_555
As3 Co22 2.326708 1_455
As3 Co22 2.326708 1_555
As3 Co29 2.396549 1_555
As3 Co16 2.405454 1_555
As3 Co46 2.421014 1_555
As3 Co46 2.421014 1_455
As3 Co13 2.504606 1_555
As3 Co13 2.504606 1_455
As4 Co35 2.263220 1_555
As4 Co40 2.315889 1_545
As4 Co24 2.320663 1_555
As4 Co24 2.320663 1_455
As4 Co10 2.357329 1_555
As4 Co14 2.593096 1_455
As4 Co14 2.593096 1_555
As4 Mg5 2.839207 1_455
As4 Mg5 2.839207 1_555
As5 Co19 2.268413 1_555
As5 Co47 2.307430 1_455
As5 Co47 2.307430 1_555
As5 Co32 2.334131 1_565
As5 Co3 2.421470 1_555
As5 Co43 2.589446 1_455
As5 Co43 2.589446 1_555
As5 Mg4 2.906612 1_455
As5 Mg4 2.906612 1_555
As6 Co6 2.291609 1_555
As6 Co2 2.307315 1_555
As6 Co40 2.310650 1_555
As6 Co0 2.386754 1_555
As6 Co0 2.386754 1_455
As6 Co14 2.496999 1_565
As6 Co14 2.496999 1_465
As6 Mg6 2.873183 1_555
As6 Mg6 2.873183 1_455
As7 Co30 2.302339 1_555
As7 Co4 2.305396 1_555
As7 Co14 2.336415 1_555
As7 Co35 2.358754 1_555
As7 Co35 2.358754 1_655
As7 Co6 2.377700 1_545
As7 Co6 2.377700 1_645
As7 Mg1 2.808395 1_655
As7 Mg1 2.808395 1_555
As8 Co46 2.269967 1_555
As8 Co47 2.296316 1_545
As8 Co37 2.324103 1_555
As8 Co3 2.385021 1_645
As8 Co3 2.385021 1_545
As8 Co16 2.505679 1_555
As8 Co16 2.505679 1_655
As8 Mg7 2.849283 1_555
As8 Mg7 2.849283 1_655
As9 Co28 2.268413 1_555
As9 Co42 2.307430 1_455
As9 Co42 2.307430 1_555
As9 Co26 2.334131 1_556
As9 Co31 2.421470 1_555
As9 Co12 2.589446 1_456
As9 Co12 2.589446 1_556
As9 Mg0 2.906612 1_555
As9 Mg0 2.906612 1_455
As10 Co45 2.269967 1_555
As10 Co32 2.296316 1_565
As10 Co6 2.324103 1_555
As10 Co30 2.385021 1_465
As10 Co30 2.385021 1_565
As10 Co43 2.505679 1_455
As10 Co43 2.505679 1_555
As10 Mg6 2.849283 1_455
As10 Mg6 2.849283 1_555
As11 Co22 2.246912 1_555
As11 Co33 2.300201 1_555
As11 Co33 2.300201 1_655
As11 Co15 2.303101 1_555
As11 Co4 2.413514 1_555
As11 Co29 2.655503 1_655
As11 Co29 2.655503 1_555
As11 Mg1 2.901413 1_655
As11 Mg1 2.901413 1_555
As12 Co37 2.291609 1_555
As12 Co8 2.307315 1_555
As12 Co18 2.310650 1_555
As12 Co41 2.386754 1_555
As12 Co41 2.386754 1_655
As12 Co39 2.497007 1_645
As12 Co39 2.497007 1_545
As12 Mg7 2.873183 1_655
As12 Mg7 2.873183 1_555
As13 Co17 2.296351 1_555
As13 Co23 2.326708 1_556
As13 Co23 2.326708 1_456
As13 Co38 2.396549 1_556
As13 Co9 2.405454 1_555
As13 Co25 2.421014 1_455
As13 Co25 2.421014 1_555
As13 Co20 2.504606 1_465
As13 Co20 2.504606 1_565
As14 Co28 2.246912 1_555
As14 Co18 2.300201 1_555
As14 Co18 2.300201 1_455
As14 Co17 2.303101 1_545
As14 Co41 2.413514 1_555
As14 Co20 2.655503 1_455
As14 Co20 2.655503 1_555
As14 Mg0 2.901413 1_455
As14 Mg0 2.901413 1_555
As15 Co8 2.263220 1_555
As15 Co36 2.315889 1_555
As15 Co7 2.320663 1_655
As15 Co7 2.320663 1_555
As15 Co46 2.357329 1_555
As15 Co11 2.593096 1_555
As15 Co11 2.593096 1_655
As15 Mg7 2.839207 1_555
As15 Mg7 2.839207 1_655
As16 Co15 2.296351 1_555
As16 Co19 2.326708 1_655
As16 Co19 2.326708 1_555
As16 Co13 2.396549 1_555
As16 Co43 2.405454 1_555
As16 Co45 2.421014 1_555
As16 Co45 2.421014 1_655
As16 Co29 2.504606 1_655
As16 Co29 2.504606 1_555
As17 Co10 2.269967 1_555
As17 Co26 2.296316 1_555
As17 Co1 2.324103 1_555
As17 Co34 2.385021 1_455
As17 Co34 2.385021 1_555
As17 Co12 2.505679 1_455
As17 Co12 2.505679 1_555
As17 Mg5 2.849283 1_555
As17 Mg5 2.849283 1_455
As18 Co19 2.246912 1_555
As18 Co36 2.300201 1_455
As18 Co36 2.300201 1_555
As18 Co7 2.303101 1_555
As18 Co44 2.413514 1_555
As18 Co13 2.655503 1_555
As18 Co13 2.655503 1_455
As18 Mg4 2.901413 1_555
As18 Mg4 2.901413 1_455
As19 Co3 2.302339 1_555
As19 Co44 2.305396 1_555
As19 Co39 2.336408 1_555
As19 Co27 2.358754 1_455
As19 Co27 2.358754 1_555
As19 Co37 2.377700 1_565
As19 Co37 2.377700 1_465
As19 Mg4 2.808395 1_455
As19 Mg4 2.808395 1_555
As20 Co25 2.269967 1_555
As20 Co42 2.296316 1_555
As20 Co21 2.324103 1_555
As20 Co31 2.385021 1_655
As20 Co31 2.385021 1_555
As20 Co9 2.505679 1_655
As20 Co9 2.505679 1_555
As20 Mg3 2.849283 1_555
As20 Mg3 2.849283 1_655
As21 Co1 2.291609 1_555
As21 Co35 2.307315 1_555
As21 Co33 2.310650 1_555
As21 Co4 2.386754 1_455
As21 Co4 2.386754 1_555
As21 Co5 2.497007 1_455
As21 Co5 2.497007 1_555
As21 Mg5 2.873183 1_555
As21 Mg5 2.873183 1_455
As22 Co23 2.246912 1_555
As22 Co40 2.300201 1_555
As22 Co40 2.300201 1_655
As22 Co24 2.303101 1_565
As22 Co0 2.413514 1_555
As22 Co38 2.655503 1_655
As22 Co38 2.655503 1_555
As22 Mg2 2.901413 1_555
As22 Mg2 2.901413 1_655
As23 Co31 2.302339 1_555
As23 Co41 2.305396 1_555
As23 Co11 2.336415 1_555
As23 Co8 2.358754 1_455
As23 Co8 2.358754 1_555
As23 Co21 2.377700 1_555
As23 Co21 2.377700 1_455
As23 Mg0 2.808395 1_455
As23 Mg0 2.808395 1_555
As24 Co34 2.302339 1_555
As24 Co0 2.305396 1_555
As24 Co5 2.336408 1_555
As24 Co2 2.358754 1_555
As24 Co2 2.358754 1_655
As24 Co1 2.377700 1_555
As24 Co1 2.377700 1_655
As24 Mg2 2.808395 1_555
As24 Mg2 2.808395 1_655
As25 Co21 2.291609 1_555
As25 Co27 2.307315 1_555
As25 Co36 2.310650 1_555
As25 Co44 2.386754 1_555
As25 Co44 2.386754 1_655
As25 Co11 2.496999 1_555
As25 Co11 2.496999 1_655
As25 Mg3 2.873183 1_555
As25 Mg3 2.873183 1_655
As26 Co2 2.263220 1_555
As26 Co33 2.315889 1_555
As26 Co15 2.320663 1_555
As26 Co15 2.320663 1_455
As26 Co45 2.357329 1_555
As26 Co5 2.593090 1_455
As26 Co5 2.593090 1_555
As26 Mg6 2.839207 1_555
As26 Mg6 2.839207 1_455
As27 Co24 2.296351 1_555
As27 Co28 2.326708 1_554
As27 Co28 2.326708 1_654
As27 Co20 2.396549 1_554
As27 Co12 2.405454 1_555
As27 Co10 2.421014 1_655
As27 Co10 2.421014 1_555
As27 Co38 2.504606 1_645
As27 Co38 2.504606 1_545
