# generated using pymatgen
data_CaAl12Si4O27
_symmetry_space_group_name_H-M   'P 1'
_cell_length_a   7.30868039
_cell_length_b   7.30868039
_cell_length_c   8.69798400
_cell_angle_alpha   90.00000000
_cell_angle_beta   90.00000000
_cell_angle_gamma   120.00000354
_symmetry_Int_Tables_number   1
_chemical_formula_structural   CaAl12Si4O27
_chemical_formula_sum   'Ca1 Al12 Si4 O27'
_cell_volume   402.37145349
_cell_formula_units_Z   1
loop_
 _symmetry_equiv_pos_site_id
 _symmetry_equiv_pos_as_xyz
  1  'x, y, z'
loop_
 _atom_site_type_symbol
 _atom_site_label
 _atom_site_symmetry_multiplicity
 _atom_site_fract_x
 _atom_site_fract_y
 _atom_site_fract_z
 _atom_site_occupancy
  Ca  Ca0  1  0.00000000  0.00000000  0.00000000  1
  Al  Al0  1  0.94975200  0.74292100  0.35315300  1
  Al  Al1  1  0.45295600  0.36735700  0.86501800  1
  Al  Al2  1  0.20683100  0.94975200  0.64684700  1
  Al  Al3  1  0.36735700  0.91440100  0.13498200  1
  Al  Al4  1  0.54704400  0.63264300  0.13498200  1
  Al  Al5  1  0.74292100  0.79316900  0.64684700  1
  Al  Al6  1  0.08559900  0.45295600  0.13498200  1
  Al  Al7  1  0.91440100  0.54704400  0.86501800  1
  Al  Al8  1  0.25707900  0.20683100  0.35315300  1
  Al  Al9  1  0.63264300  0.08559900  0.86501800  1
  Al  Al10  1  0.79316900  0.05024800  0.35315300  1
  Al  Al11  1  0.05024800  0.25707900  0.64684700  1
  Si  Si0  1  0.66666700  0.33333300  0.55358000  1
  Si  Si1  1  0.33333300  0.66666700  0.44642000  1
  Si  Si2  1  0.33333300  0.66666700  0.85903100  1
  Si  Si3  1  0.66666700  0.33333300  0.14096900  1
  O  O0  1  0.45688200  0.15499200  0.00054600  1
  O  O1  1  0.30189000  0.45688200  0.99945400  1
  O  O2  1  0.61235100  0.10394200  0.23799300  1
  O  O3  1  0.84500800  0.30189000  0.00054600  1
  O  O4  1  0.57938300  0.83428000  0.49187500  1
  O  O5  1  0.10394200  0.49159100  0.76200700  1
  O  O6  1  0.16572000  0.74510400  0.49187500  1
  O  O7  1  0.25489600  0.42061700  0.49187500  1
  O  O8  1  0.83428000  0.25489600  0.50812500  1
  O  O9  1  0.42061700  0.16572000  0.50812500  1
  O  O10  1  0.22504800  0.18013500  0.75871800  1
  O  O11  1  0.74510400  0.57938300  0.50812500  1
  O  O12  1  0.95508800  0.77495200  0.75871800  1
  O  O13  1  0.81986500  0.04491200  0.75871800  1
  O  O14  1  0.18013500  0.95508800  0.24128200  1
  O  O15  1  0.49159100  0.38764900  0.23799300  1
  O  O16  1  0.54311800  0.84500800  0.99945400  1
  O  O17  1  0.77495200  0.81986500  0.24128200  1
  O  O18  1  0.69811000  0.54311800  0.00054600  1
  O  O19  1  0.50840900  0.61235100  0.76200700  1
  O  O20  1  0.38764900  0.89605800  0.76200700  1
  O  O21  1  0.89605800  0.50840900  0.23799300  1
  O  O22  1  0.33333300  0.66666700  0.24928300  1
  O  O23  1  0.66666700  0.33333300  0.75071700  1
  O  O24  1  0.15499200  0.69811000  0.99945400  1
  O  O25  1  0.04491200  0.22504800  0.24128200  1
  O  O26  1  0.00000000  0.00000000  0.50000000  1
loop_
_geom_bond_atom_site_label_1
_geom_bond_atom_site_label_2
_geom_bond_distance
_geom_bond_site_symmetry_2
Ca0 O13 2.584106 1_454
Ca0 O14 2.584106 1_545
Ca0 O17 2.584109 1_445
Ca0 O10 2.584109 1_554
Ca0 O12 2.584110 1_444
Ca0 O25 2.584110 1_555
Ca0 O1 2.941243 1_554
Ca0 O18 2.941243 1_445
Ca0 O0 2.941243 1_555
Ca0 O16 2.941243 1_444
Ca0 O24 2.941243 1_544
Ca0 O3 2.941243 1_455
Al0 O21 1.849976 1_555
Al0 O14 1.890913 1_655
Al0 O17 1.900967 1_555
Al0 O11 1.922230 1_555
Al0 O6 1.980514 1_655
Al0 O26 2.146292 1_665
Al1 O10 1.795150 1_555
Al1 O19 1.856755 1_555
Al1 O1 1.933100 1_555
Al1 O0 1.960616 1_556
Al1 O23 1.969348 1_555
Al1 O18 1.987081 1_556
Al2 O20 1.849976 1_555
Al2 O10 1.890910 1_565
Al2 O12 1.900963 1_455
Al2 O6 1.922228 1_555
Al2 O9 1.980517 1_565
Al2 O26 2.146292 1_565
Al3 O14 1.795154 1_555
Al3 O2 1.856755 1_565
Al3 O0 1.933100 1_565
Al3 O24 1.960616 1_554
Al3 O22 1.969341 1_555
Al3 O16 1.987081 1_554
Al4 O17 1.795150 1_555
Al4 O15 1.856755 1_555
Al4 O18 1.933100 1_555
Al4 O16 1.960616 1_554
Al4 O22 1.969348 1_555
Al4 O1 1.987081 1_554
Al5 O19 1.849976 1_555
Al5 O12 1.890916 1_555
Al5 O13 1.900961 1_565
Al5 O4 1.922233 1_555
Al5 O11 1.980520 1_555
Al5 O26 2.146292 1_665
Al6 O25 1.795148 1_555
Al6 O21 1.856755 1_455
Al6 O3 1.933100 1_455
Al6 O1 1.960616 1_554
Al6 O22 1.969344 1_555
Al6 O24 1.987081 1_554
Al7 O12 1.795148 1_555
Al7 O5 1.856755 1_655
Al7 O24 1.933100 1_655
Al7 O18 1.960616 1_556
Al7 O23 1.969344 1_555
Al7 O3 1.987081 1_556
Al8 O15 1.849976 1_555
Al8 O25 1.890916 1_555
Al8 O14 1.900961 1_545
Al8 O9 1.922233 1_555
Al8 O7 1.980520 1_555
Al8 O26 2.146292 1_555
Al9 O13 1.795154 1_555
Al9 O20 1.856755 1_545
Al9 O16 1.933100 1_545
Al9 O3 1.960616 1_556
Al9 O23 1.969341 1_555
Al9 O0 1.987081 1_556
Al10 O2 1.849976 1_555
Al10 O17 1.890910 1_545
Al10 O25 1.900963 1_655
Al10 O8 1.922228 1_555
Al10 O4 1.980517 1_545
Al10 O26 2.146292 1_655
Al11 O5 1.849976 1_555
Al11 O13 1.890913 1_455
Al11 O10 1.900967 1_555
Al11 O7 1.922230 1_555
Al11 O8 1.980514 1_455
Al11 O26 2.146292 1_555
O0 Si3 1.882318 1_555
O1 Si2 1.882320 1_555
O2 Si3 1.736385 1_555
O3 Si3 1.882315 1_555
O4 Si1 1.639490 1_555
O5 Si2 1.736387 1_555
O6 Si1 1.639490 1_555
O7 Si1 1.639490 1_555
O8 Si0 1.639490 1_555
O9 Si0 1.639490 1_555
O11 Si0 1.639490 1_555
O15 Si3 1.736392 1_555
O16 Si2 1.882318 1_555
O18 Si3 1.882320 1_555
O19 Si2 1.736392 1_555
O20 Si2 1.736385 1_555
O21 Si3 1.736387 1_555
O22 Si1 1.714694 1_555
O23 Si0 1.714694 1_555
O24 Si2 1.882315 1_555
