# generated using pymatgen
data_NbTe4I
_symmetry_space_group_name_H-M   'P 1'
_cell_length_a   15.91048841
_cell_length_b   8.00727222
_cell_length_c   13.53081860
_cell_angle_alpha   80.56925719
_cell_angle_beta   90.00000000
_cell_angle_gamma   90.00000000
_symmetry_Int_Tables_number   1
_chemical_formula_structural   NbTe4I
_chemical_formula_sum   'Nb8 Te32 I8'
_cell_volume   1700.52253503
_cell_formula_units_Z   8
loop_
 _symmetry_equiv_pos_site_id
 _symmetry_equiv_pos_as_xyz
  1  'x, y, z'
loop_
 _atom_site_type_symbol
 _atom_site_label
 _atom_site_symmetry_multiplicity
 _atom_site_fract_x
 _atom_site_fract_y
 _atom_site_fract_z
 _atom_site_occupancy
  Nb  Nb0  1  0.74936033  0.24530232  0.50452438  1
  Nb  Nb1  1  0.24369131  0.75663444  0.24431449  1
  Nb  Nb2  1  0.75630869  0.24336556  0.75568551  1
  Nb  Nb3  1  0.75063967  0.24530232  0.00452438  1
  Nb  Nb4  1  0.24936033  0.75469768  0.99547562  1
  Nb  Nb5  1  0.25063967  0.75469768  0.49547562  1
  Nb  Nb6  1  0.25630869  0.75663444  0.74431449  1
  Nb  Nb7  1  0.74369131  0.24336556  0.25568551  1
  Te  Te0  1  0.21960206  0.47098809  0.64875738  1
  Te  Te1  1  0.78039794  0.52901191  0.35124262  1
  Te  Te2  1  0.16644099  -0.00631691  0.83435150  1
  Te  Te3  1  0.89178174  0.25887401  0.37541322  1
  Te  Te4  1  0.66644099  0.00631691  0.66564850  1
  Te  Te5  1  0.10821826  0.74112599  0.62458678  1
  Te  Te6  1  0.66530263  0.48170179  0.60200102  1
  Te  Te7  1  0.71960206  0.52901191  0.85124262  1
  Te  Te8  1  0.79063138  0.96127590  0.91024294  1
  Te  Te9  1  0.34221766  0.52133157  0.88651720  1
  Te  Te10  1  0.34275619  0.98924675  0.85906997  1
  Te  Te11  1  0.83469737  0.48170179  0.10200102  1
  Te  Te12  1  0.60821826  0.25887401  0.87541322  1
  Te  Te13  1  0.70936862  0.96127590  0.41024294  1
  Te  Te14  1  0.29063138  0.03872410  0.58975706  1
  Te  Te15  1  0.16530263  0.51829821  0.89799898  1
  Te  Te16  1  0.33469737  0.51829821  0.39799898  1
  Te  Te17  1  0.84221766  0.47866843  0.61348280  1
  Te  Te18  1  0.15724381  0.98924675  0.35906997  1
  Te  Te19  1  0.90085251  0.23458701  0.88631744  1
  Te  Te20  1  0.39178174  0.74112599  0.12458678  1
  Te  Te21  1  0.84275619  0.01075325  0.64093003  1
  Te  Te22  1  0.65724381  0.01075325  0.14093003  1
  Te  Te23  1  0.20936862  0.03872410  0.08975706  1
  Te  Te24  1  0.33355901  -0.00631691  0.33435150  1
  Te  Te25  1  0.15778234  0.52133157  0.38651720  1
  Te  Te26  1  0.09914749  0.76541299  0.11368256  1
  Te  Te27  1  0.28039794  0.47098809  0.14875738  1
  Te  Te28  1  0.40085251  0.76541299  0.61368256  1
  Te  Te29  1  0.59914749  0.23458701  0.38631744  1
  Te  Te30  1  0.83355901  0.00631691  0.16564850  1
  Te  Te31  1  0.65778234  0.47866843  0.11348280  1
  I  I0  1  0.96928850  0.62876509  0.85756451  1
  I  I1  1  0.03398441  0.13776000  0.61453940  1
  I  I2  1  0.53071150  0.62876509  0.35756451  1
  I  I3  1  0.46601559  0.13776000  0.11453940  1
  I  I4  1  0.46928850  0.37123491  0.64243549  1
  I  I5  1  0.53398441  0.86224000  0.88546060  1
  I  I6  1  0.03071150  0.37123491  0.14243549  1
  I  I7  1  0.96601559  0.86224000  0.38546060  1
loop_
_geom_bond_atom_site_label_1
_geom_bond_atom_site_label_2
_geom_bond_distance
_geom_bond_site_symmetry_2
Nb0 Te6 2.815943 1_555
Nb0 Te21 2.829477 1_555
Nb0 Te3 2.852413 1_555
Nb0 Te13 2.855768 1_545
Nb0 Te1 2.856956 1_555
Nb0 Te29 2.884864 1_555
Nb0 Te17 2.958184 1_555
Nb0 Te4 2.964504 1_555
Nb1 Te24 2.808785 1_565
Nb1 Te25 2.816458 1_555
Nb1 Te27 2.865919 1_555
Nb1 Te23 2.868052 1_565
Nb1 Te20 2.873574 1_555
Nb1 Te26 2.894372 1_555
Nb1 Te18 2.952929 1_555
Nb1 Te16 2.960125 1_555
Nb2 Te4 2.808785 1_555
Nb2 Te17 2.816458 1_555
Nb2 Te7 2.865919 1_555
Nb2 Te8 2.868052 1_545
Nb2 Te12 2.873574 1_555
Nb2 Te19 2.894372 1_555
Nb2 Te21 2.952929 1_555
Nb2 Te6 2.960125 1_555
Nb3 Te11 2.815943 1_555
Nb3 Te22 2.829477 1_555
Nb3 Te12 2.852413 1_554
Nb3 Te8 2.855768 1_544
Nb3 Te7 2.856956 1_554
Nb3 Te19 2.884864 1_554
Nb3 Te31 2.958184 1_555
Nb3 Te30 2.964504 1_555
Nb4 Te15 2.815943 1_555
Nb4 Te10 2.829477 1_555
Nb4 Te20 2.852413 1_556
Nb4 Te23 2.855768 1_566
Nb4 Te27 2.856956 1_556
Nb4 Te26 2.884864 1_556
Nb4 Te9 2.958184 1_555
Nb4 Te2 2.964504 1_565
Nb5 Te16 2.815943 1_555
Nb5 Te18 2.829477 1_555
Nb5 Te5 2.852413 1_555
Nb5 Te14 2.855768 1_565
Nb5 Te0 2.856956 1_555
Nb5 Te28 2.884864 1_555
Nb5 Te25 2.958184 1_555
Nb5 Te24 2.964504 1_565
Nb6 Te2 2.808785 1_565
Nb6 Te9 2.816458 1_555
Nb6 Te0 2.865919 1_555
Nb6 Te14 2.868052 1_565
Nb6 Te5 2.873574 1_555
Nb6 Te28 2.894372 1_555
Nb6 Te10 2.952929 1_555
Nb6 Te15 2.960125 1_555
Nb7 Te30 2.808785 1_555
Nb7 Te31 2.816458 1_555
Nb7 Te1 2.865919 1_555
Nb7 Te13 2.868052 1_545
Nb7 Te3 2.873574 1_555
Nb7 Te29 2.894372 1_555
Nb7 Te22 2.952929 1_555
Nb7 Te11 2.960125 1_555
Te0 Te5 2.773911 1_555
Te1 Te3 2.773911 1_555
Te10 Te2 2.824663 1_565
Te11 Te31 2.818974 1_555
Te12 Te7 2.773911 1_555
Te13 Te29 2.781622 1_565
Te14 Te28 2.781622 1_545
Te15 Te9 2.818974 1_555
Te16 Te25 2.818974 1_555
Te17 Te6 2.818974 1_555
Te18 Te24 2.824663 1_565
Te19 Te8 2.781622 1_545
Te20 Te27 2.773911 1_555
Te21 Te4 2.824663 1_555
Te22 Te30 2.824663 1_555
Te23 Te26 2.781622 1_545
I0 Te15 3.263329 1_655
I0 Te19 3.301017 1_555
I1 Te21 3.209324 1_455
I1 Te5 3.370264 1_545
I2 Te16 3.263329 1_555
I2 Te29 3.301017 1_555
I3 Te22 3.209324 1_555
I3 Te20 3.370264 1_545
I4 Te6 3.263329 1_555
I4 Te28 3.301017 1_555
I5 Te10 3.209324 1_555
I5 Te12 3.370264 1_565
I6 Te11 3.263329 1_455
I6 Te26 3.301017 1_555
I7 Te18 3.209324 1_655
I7 Te3 3.370264 1_565
