# generated using pymatgen
data_Ce6B2(CBr)3
_symmetry_space_group_name_H-M   'P 1'
_cell_length_a   3.67577400
_cell_length_b   8.62788300
_cell_length_c   10.16685368
_cell_angle_alpha   65.57452217
_cell_angle_beta   90.00000000
_cell_angle_gamma   90.00000000
_symmetry_Int_Tables_number   1
_chemical_formula_structural   Ce6B2(CBr)3
_chemical_formula_sum   'Ce6 B2 C3 Br3'
_cell_volume   293.57529925
_cell_formula_units_Z   1
loop_
 _symmetry_equiv_pos_site_id
 _symmetry_equiv_pos_as_xyz
  1  'x, y, z'
loop_
 _atom_site_type_symbol
 _atom_site_label
 _atom_site_symmetry_multiplicity
 _atom_site_fract_x
 _atom_site_fract_y
 _atom_site_fract_z
 _atom_site_occupancy
  Ce  Ce0  1  0.00000000  0.71037400  0.48380300  1
  Ce  Ce1  1  0.50000000  0.05772600  0.15812200  1
  Ce  Ce2  1  0.50000000  0.63113500  0.21997000  1
  Ce  Ce3  1  0.00000000  0.28962600  0.51619700  1
  Ce  Ce4  1  0.50000000  0.94227400  0.84187800  1
  Ce  Ce5  1  0.50000000  0.36886500  0.78003000  1
  B  B0  1  0.00000000  0.89852000  0.06438300  1
  B  B1  1  0.00000000  0.10148000  0.93561700  1
  C  C0  1  0.00000000  0.83375300  0.22944400  1
  C  C1  1  0.00000000  0.16624700  0.77055600  1
  C  C2  1  0.50000000  0.50000000  0.50000000  1
  Br  Br0  1  0.00000000  0.64837800  0.81397900  1
  Br  Br1  1  0.50000000  0.00000000  0.50000000  1
  Br  Br2  1  0.00000000  0.35162200  0.18602100  1
loop_
_geom_bond_atom_site_label_1
_geom_bond_atom_site_label_2
_geom_bond_distance
_geom_bond_site_symmetry_2
B0 C0 1.533920 1_555
B0 Ce1 2.693612 1_565
B0 Ce1 2.693612 1_465
B0 Ce4 2.816295 1_554
B0 Ce4 2.816295 1_454
B0 Ce2 2.860792 1_455
B0 Ce2 2.860792 1_555
B1 C1 1.533920 1_555
B1 Ce4 2.693612 1_545
B1 Ce4 2.693612 1_445
B1 Ce1 2.816295 1_556
B1 Ce1 2.816295 1_456
B1 Ce5 2.860792 1_555
B1 Ce5 2.860792 1_455
C0 Ce0 2.354586 1_555
C0 Ce1 2.545388 1_465
C0 Ce1 2.545388 1_565
C0 Ce2 2.565627 1_455
C0 Ce2 2.565627 1_555
C1 Ce3 2.354586 1_555
C1 Ce4 2.545388 1_445
C1 Ce4 2.545388 1_545
C1 Ce5 2.565627 1_455
C1 Ce5 2.565627 1_555
C2 Ce0 2.540133 1_555
C2 Ce0 2.540133 1_655
C2 Ce3 2.540133 1_655
C2 Ce3 2.540133 1_555
C2 Ce5 2.592621 1_555
C2 Ce2 2.592621 1_555
Br0 Ce5 3.162466 1_455
Br0 Ce5 3.162466 1_555
Br0 Ce0 3.173263 1_555
Br0 Ce4 3.237728 1_455
Br0 Ce4 3.237728 1_555
Br1 Ce3 3.160626 1_655
Br1 Ce3 3.160626 1_555
Br1 Ce0 3.160626 1_645
Br1 Ce0 3.160626 1_545
Br1 Ce1 3.301169 1_555
Br1 Ce4 3.301169 1_545
Br2 Ce2 3.162466 1_455
Br2 Ce2 3.162466 1_555
Br2 Ce3 3.173263 1_555
Br2 Ce1 3.237728 1_455
Br2 Ce1 3.237728 1_555
