# generated using pymatgen
data_LiMgCr7(SO4)12
_symmetry_space_group_name_H-M   'P 1'
_cell_length_a   8.85474782
_cell_length_b   8.84715128
_cell_length_c   17.69215825
_cell_angle_alpha   55.68908754
_cell_angle_beta   55.71465675
_cell_angle_gamma   55.64606763
_symmetry_Int_Tables_number   1
_chemical_formula_structural   LiMgCr7(SO4)12
_chemical_formula_sum   'Li1 Mg1 Cr7 S12 O48'
_cell_volume   881.89461216
_cell_formula_units_Z   1
loop_
 _symmetry_equiv_pos_site_id
 _symmetry_equiv_pos_as_xyz
  1  'x, y, z'
loop_
 _atom_site_type_symbol
 _atom_site_label
 _atom_site_symmetry_multiplicity
 _atom_site_fract_x
 _atom_site_fract_y
 _atom_site_fract_z
 _atom_site_occupancy
  Li  Li0  1  0.75417900  0.18487400  0.71610800  1
  Mg  Mg0  1  0.35575900  0.36214100  0.67536300  1
  Cr  Cr0  1  0.15028400  0.15064300  0.07752700  1
  Cr  Cr1  1  0.35580900  0.35481100  0.17788000  1
  Cr  Cr2  1  0.16088500  0.15221100  0.57309900  1
  Cr  Cr3  1  0.64401300  0.64380500  0.32271700  1
  Cr  Cr4  1  0.85096200  0.84915700  0.42287600  1
  Cr  Cr5  1  0.64396200  0.64399300  0.82224000  1
  Cr  Cr6  1  0.84898400  0.84347600  0.92717100  1
  S  S0  1  0.04091900  0.74823100  0.23078800  1
  S  S1  1  0.46431200  0.04018000  0.37366000  1
  S  S2  1  0.74915500  0.45984800  0.02084900  1
  S  S3  1  0.25354200  0.54105900  0.47683000  1
  S  S4  1  0.53666300  0.95853500  0.12692600  1
  S  S5  1  0.03864800  0.75254800  0.73187100  1
  S  S6  1  0.95945900  0.25212700  0.26888600  1
  S  S7  1  0.45784000  0.03791800  0.87753400  1
  S  S8  1  0.75883500  0.46128100  0.51744600  1
  S  S9  1  0.25245500  0.53605300  0.98011800  1
  S  S10  1  0.54290600  0.95653900  0.62525300  1
  S  S11  1  0.95745600  0.24867400  0.77208900  1
  O  O0  1  0.11140300  0.29733600  0.25630400  1
  O  O1  1  0.29962700  0.51148700  0.05528800  1
  O  O2  1  0.01711400  0.95409100  0.16229800  1
  O  O3  1  0.51388500  0.11059200  0.14871200  1
  O  O4  1  0.02598200  0.71735200  0.32653500  1
  O  O5  1  0.23783000  0.61440400  0.18892300  1
  O  O6  1  0.37943000  0.23731700  0.30725100  1
  O  O7  1  0.32880400  0.01607800  0.47685400  1
  O  O8  1  0.61489900  0.37708200  0.11920100  1
  O  O9  1  0.04683800  0.67587400  0.48739600  1
  O  O10  1  0.28686900  0.34668700  0.48474900  1
  O  O11  1  0.34286700  0.97554200  0.14399400  1
  O  O12  1  0.65709700  0.02418800  0.35710400  1
  O  O13  1  0.71694900  0.65230000  0.01342300  1
  O  O14  1  0.11048600  0.29453200  0.75393400  1
  O  O15  1  0.95474000  0.32293100  0.00958300  1
  O  O16  1  0.38674200  0.62360900  0.37705800  1
  O  O17  1  0.29472600  0.51750200  0.55234500  1
  O  O18  1  0.67136500  0.98139600  0.02386900  1
  O  O19  1  0.62229000  0.76125900  0.19298900  1
  O  O20  1  0.00219300  0.96690800  0.66746100  1
  O  O21  1  0.51817900  0.10713900  0.64690000  1
  O  O22  1  0.76237500  0.38514700  0.31101900  1
  O  O23  1  0.97447400  0.28488400  0.17252600  1
  O  O24  1  0.02284800  0.71732800  0.82907100  1
  O  O25  1  0.23361100  0.63068400  0.68645900  1
  O  O26  1  0.48788100  0.88790400  0.35173600  1
  O  O27  1  0.98368600  0.04619900  0.33662200  1
  O  O28  1  0.38376200  0.23360900  0.80962900  1
  O  O29  1  0.33005200  0.01022600  0.98111100  1
  O  O30  1  0.70475900  0.48411300  0.44541300  1
  O  O31  1  0.63260700  0.37331600  0.61794700  1
  O  O32  1  0.04627400  0.67262700  0.99289400  1
  O  O33  1  0.88850300  0.70270400  0.24406100  1
  O  O34  1  0.28312000  0.34341000  0.98864200  1
  O  O35  1  0.34946500  0.97363800  0.64008700  1
  O  O36  1  0.65837900  0.01927800  0.85812900  1
  O  O37  1  0.72175700  0.65597600  0.50919300  1
  O  O38  1  0.96669100  0.32857400  0.50264400  1
  O  O39  1  0.38497400  0.61966900  0.88114700  1
  O  O40  1  0.67999500  0.97617900  0.52234300  1
  O  O41  1  0.62271100  0.75615700  0.69299000  1
  O  O42  1  0.75779500  0.38300800  0.81248100  1
  O  O43  1  0.96476100  0.27456700  0.67718400  1
  O  O44  1  0.48322600  0.88475000  0.85571000  1
  O  O45  1  0.97827900  0.04332600  0.84100500  1
  O  O46  1  0.70544700  0.48534300  0.94420000  1
  O  O47  1  0.88522800  0.70867000  0.74435400  1
loop_
_geom_bond_atom_site_label_1
_geom_bond_atom_site_label_2
_geom_bond_distance
_geom_bond_site_symmetry_2
Li0 O31 1.941903 1_555
Li0 O36 2.007645 1_555
Li0 O43 2.046468 1_555
Li0 O20 2.060177 1_645
Mg0 O17 2.008114 1_555
Mg0 O14 2.033323 1_555
Mg0 O21 2.052959 1_555
Mg0 O25 2.058986 1_555
Mg0 O28 2.073032 1_555
Mg0 O31 2.099025 1_555
Cr0 O23 1.968442 1_455
Cr0 O11 1.978560 1_545
Cr0 O34 1.980289 1_554
Cr0 O2 2.011284 1_545
Cr0 O15 2.016694 1_455
Cr0 O29 2.021130 1_554
Cr1 O1 1.980174 1_555
Cr1 O3 1.980876 1_555
Cr1 O0 1.982641 1_555
Cr1 O5 1.993049 1_555
Cr1 O6 1.993698 1_555
Cr1 O8 1.994013 1_555
Cr2 O10 1.953923 1_555
Cr2 O35 1.957108 1_545
Cr2 O7 1.999831 1_555
Cr2 O43 2.025208 1_455
Cr2 O38 2.034516 1_455
Cr2 O20 2.078636 1_545
Cr3 O26 1.979744 1_555
Cr3 O16 1.985967 1_555
Cr3 O33 1.989065 1_555
Cr3 O22 1.990155 1_555
Cr3 O19 1.991894 1_555
Cr3 O30 1.999468 1_555
Cr4 O37 1.964188 1_555
Cr4 O4 1.972795 1_655
Cr4 O12 1.979333 1_565
Cr4 O9 1.979464 1_655
Cr4 O40 1.989860 1_555
Cr4 O27 2.010346 1_565
Cr5 O44 1.991046 1_555
Cr5 O47 1.991067 1_555
Cr5 O41 1.991237 1_555
Cr5 O46 1.992245 1_555
Cr5 O39 2.000758 1_555
Cr5 O42 2.000963 1_555
Cr6 O24 1.965256 1_655
Cr6 O13 1.966783 1_556
Cr6 O36 1.994461 1_565
Cr6 O32 2.003890 1_655
Cr6 O45 2.010090 1_565
Cr6 O18 2.011317 1_556
O0 S6 1.479609 1_455
O1 S9 1.479163 1_554
O2 S0 1.481983 1_555
O3 S4 1.479781 1_545
O4 S0 1.492750 1_555
O5 S0 1.481331 1_555
O6 S1 1.480708 1_555
O7 S1 1.483332 1_555
O8 S2 1.480784 1_555
O9 S3 1.486489 1_555
O10 S3 1.505358 1_555
O11 S4 1.494841 1_555
O12 S1 1.493546 1_555
O13 S2 1.496540 1_555
O14 S11 1.444681 1_455
O15 S2 1.481762 1_555
O16 S3 1.487812 1_555
O17 S3 1.452792 1_555
O18 S4 1.481345 1_555
O19 S4 1.480636 1_555
O20 S5 1.512125 1_555
O21 S10 1.456505 1_545
O22 S6 1.480412 1_555
O23 S6 1.496393 1_555
O24 S5 1.499335 1_555
O25 S5 1.449644 1_555
O26 S1 1.479722 1_565
O27 S6 1.479369 1_555
O28 S7 1.460229 1_555
O29 S7 1.472779 1_555
O30 S8 1.477277 1_555
O31 S8 1.482958 1_555
O32 S9 1.482394 1_555
O33 S0 1.479404 1_655
O34 S9 1.495100 1_555
O35 S10 1.507165 1_555
O36 S7 1.531258 1_555
O37 S8 1.492755 1_555
O38 S8 1.483009 1_555
O39 S9 1.481461 1_555
O40 S10 1.486629 1_555
O41 S10 1.491133 1_555
O42 S11 1.487109 1_555
O43 S11 1.528621 1_555
O44 S7 1.477906 1_565
O45 S11 1.482960 1_555
O46 S2 1.479044 1_556
O47 S5 1.485091 1_655
