# generated using pymatgen
data_Li6ZrBeF12
_symmetry_space_group_name_H-M   'P 1'
_cell_length_a   10.53302016
_cell_length_b   10.53302016
_cell_length_c   10.53302016
_cell_angle_alpha   143.02084813
_cell_angle_beta   143.02084813
_cell_angle_gamma   53.29401630
_symmetry_Int_Tables_number   1
_chemical_formula_structural   Li6ZrBeF12
_chemical_formula_sum   'Li12 Zr2 Be2 F24'
_cell_volume   420.17772196
_cell_formula_units_Z   2
loop_
 _symmetry_equiv_pos_site_id
 _symmetry_equiv_pos_as_xyz
  1  'x, y, z'
loop_
 _atom_site_type_symbol
 _atom_site_label
 _atom_site_symmetry_multiplicity
 _atom_site_fract_x
 _atom_site_fract_y
 _atom_site_fract_z
 _atom_site_occupancy
  Li  Li0  1  0.97815200  0.47815200  0.50000000  1
  Li  Li1  1  0.87500000  0.35858500  0.98358500  1
  Li  Li2  1  0.52184800  0.02184800  0.50000000  1
  Li  Li3  1  0.37500000  0.89141500  0.01641500  1
  Li  Li4  1  0.64141500  0.12500000  0.01641500  1
  Li  Li5  1  0.37500000  0.35858500  0.48358500  1
  Li  Li6  1  0.64141500  0.62500000  0.51641500  1
  Li  Li7  1  0.10858500  0.62500000  0.98358500  1
  Li  Li8  1  0.87500000  0.89141500  0.51641500  1
  Li  Li9  1  0.10858500  0.12500000  0.48358500  1
  Li  Li10  1  0.22815200  0.22815200  0.00000000  1
  Li  Li11  1  0.77184800  0.77184800  0.00000000  1
  Zr  Zr0  1  0.25000000  0.75000000  0.50000000  1
  Zr  Zr1  1  0.50000000  0.50000000  0.00000000  1
  Be  Be0  1  0.00000000  0.00000000  0.00000000  1
  Be  Be1  1  0.75000000  0.25000000  0.50000000  1
  F  F0  1  0.94972400  0.75918600  0.80946200  1
  F  F1  1  0.24081400  0.05027600  0.19053800  1
  F  F2  1  0.89026100  0.19972400  0.69053800  1
  F  F3  1  0.45294100  0.16870700  0.71576600  1
  F  F4  1  0.64502400  0.41555700  0.22946700  1
  F  F5  1  0.56391100  0.83444300  0.72946700  1
  F  F6  1  0.58444300  0.81391100  0.22946700  1
  F  F7  1  0.16555700  0.43608900  0.27053300  1
  F  F8  1  0.58444300  0.35497600  0.77053300  1
  F  F9  1  0.29705900  0.08129300  0.78423400  1
  F  F10  1  0.16555700  0.89502400  0.72946700  1
  F  F11  1  0.45294100  0.73717600  0.28423400  1
  F  F12  1  0.85973900  0.05027600  0.80946200  1
  F  F13  1  0.80027600  0.10973900  0.30946200  1
  F  F14  1  0.29705900  0.51282400  0.21576600  1
  F  F15  1  0.50918600  0.19972400  0.30946200  1
  F  F16  1  0.80027600  0.49081400  0.69053800  1
  F  F17  1  0.94972400  0.14026100  0.19053800  1
  F  F18  1  0.18608900  0.41555700  0.77053300  1
  F  F19  1  0.10497600  0.83444300  0.27053300  1
  F  F20  1  0.83129300  0.54705900  0.28423400  1
  F  F21  1  0.26282400  0.54705900  0.71576600  1
  F  F22  1  0.48717600  0.70294100  0.78423400  1
  F  F23  1  0.91870700  0.70294100  0.21576600  1
loop_
_geom_bond_atom_site_label_1
_geom_bond_atom_site_label_2
_geom_bond_distance
_geom_bond_site_symmetry_2
Be0 F1 1.586332 1_555
Be0 F0 1.586332 1_444
Be0 F12 1.586335 1_454
Be0 F17 1.586335 1_455
Be1 F15 1.586332 1_555
Be1 F16 1.586332 1_555
Be1 F13 1.586335 1_555
Be1 F2 1.586335 1_555
F0 Li0 2.135594 1_555
F0 Li7 2.138342 1_655
F0 Li6 2.138342 1_555
F1 Li2 2.135594 1_555
F1 Li3 2.138342 1_545
F1 Li5 2.138342 1_555
F2 Li10 2.135599 1_656
F2 Li1 2.138334 1_555
F2 Li8 2.138339 1_545
F3 Li2 1.939365 1_555
F3 Zr1 2.095438 1_556
F3 Li9 2.318135 1_555
F3 Li4 2.318135 1_556
F4 Li4 1.852986 1_555
F4 Li6 1.852986 1_555
F4 Li0 2.157676 1_555
F4 Zr1 2.208621 1_555
F5 Li6 1.852979 1_555
F5 Li4 1.852985 1_566
F5 Li11 2.157678 1_556
F5 Zr0 2.208630 1_555
F6 Li3 1.852979 1_555
F6 Li8 1.852985 1_555
F6 Li2 2.157678 1_565
F6 Zr1 2.208630 1_555
F7 Li5 1.852979 1_555
F7 Li1 1.852985 1_454
F7 Li10 2.157678 1_555
F7 Zr0 2.208630 1_555
F8 Li5 1.852986 1_555
F8 Li1 1.852986 1_555
F8 Li2 2.157676 1_555
F8 Zr1 2.208621 1_556
F9 Li10 1.939365 1_556
F9 Zr0 2.095438 1_545
F9 Li4 2.318135 1_556
F9 Li9 2.318135 1_555
F10 Li8 1.852986 1_455
F10 Li3 1.852986 1_556
F10 Li10 2.157676 1_566
F10 Zr0 2.208621 1_555
F11 Li2 1.939356 1_565
F11 Zr1 2.095437 1_555
F11 Li7 2.318139 1_554
F11 Li6 2.318144 1_555
F12 Li2 2.135599 1_555
F12 Li8 2.138334 1_545
F12 Li1 2.138339 1_555
F13 Li11 2.135599 1_545
F13 Li4 2.138334 1_555
F13 Li9 2.138339 1_655
F14 Li10 1.939356 1_555
F14 Zr0 2.095437 1_555
F14 Li6 2.318139 1_555
F14 Li7 2.318144 1_554
F15 Li10 2.135594 1_555
F15 Li3 2.138342 1_545
F15 Li5 2.138342 1_555
F16 Li11 2.135594 1_556
F16 Li6 2.138342 1_555
F16 Li7 2.138342 1_655
F17 Li0 2.135599 1_555
F17 Li9 2.138334 1_655
F17 Li4 2.138339 1_555
F18 Li7 1.852979 1_555
F18 Li9 1.852985 1_555
F18 Li0 2.157678 1_455
F18 Zr1 2.208630 1_556
F19 Li7 1.852986 1_554
F19 Li9 1.852986 1_565
F19 Li11 2.157676 1_455
F19 Zr0 2.208621 1_555
F20 Li0 1.939365 1_555
F20 Zr1 2.095438 1_555
F20 Li8 2.318135 1_555
F20 Li1 2.318135 1_554
F21 Li0 1.939356 1_455
F21 Zr1 2.095437 1_556
F21 Li3 2.318139 1_556
F21 Li5 2.318144 1_555
F22 Li11 1.939356 1_556
F22 Zr0 2.095437 1_555
F22 Li5 2.318139 1_555
F22 Li3 2.318144 1_556
F23 Li11 1.939365 1_555
F23 Zr0 2.095438 1_655
F23 Li1 2.318135 1_554
F23 Li8 2.318135 1_555
