# generated using pymatgen
data_KPrPdO3
_symmetry_space_group_name_H-M   'P 1'
_cell_length_a   3.98975400
_cell_length_b   7.01153948
_cell_length_c   7.59068081
_cell_angle_alpha   104.47345449
_cell_angle_beta   90.00000000
_cell_angle_gamma   106.52976491
_symmetry_Int_Tables_number   1
_chemical_formula_structural   KPrPdO3
_chemical_formula_sum   'K2 Pr2 Pd2 O6'
_cell_volume   196.52862688
_cell_formula_units_Z   2
loop_
 _symmetry_equiv_pos_site_id
 _symmetry_equiv_pos_as_xyz
  1  'x, y, z'
loop_
 _atom_site_type_symbol
 _atom_site_label
 _atom_site_symmetry_multiplicity
 _atom_site_fract_x
 _atom_site_fract_y
 _atom_site_fract_z
 _atom_site_occupancy
  K  K0  1  0.64331900  0.28663800  0.56542900  1
  K  K1  1  0.35668100  0.71336200  0.43457100  1
  Pr  Pr0  1  0.35044200  0.70088400  0.92042300  1
  Pr  Pr1  1  0.64955800  0.29911600  0.07957700  1
  Pd  Pd0  1  0.99346400  0.98692800  0.22754800  1
  Pd  Pd1  1  0.00653600  0.01307200  0.77245200  1
  O  O0  1  0.16816500  0.33633000  0.86601900  1
  O  O1  1  0.15208800  0.30417600  0.28063600  1
  O  O2  1  0.50674200  0.01348400  0.80965700  1
  O  O3  1  0.84791200  0.69582400  0.71936400  1
  O  O4  1  0.83183500  0.66367000  0.13398100  1
  O  O5  1  0.49325800  0.98651600  0.19034300  1
loop_
_geom_bond_atom_site_label_1
_geom_bond_atom_site_label_2
_geom_bond_distance
_geom_bond_site_symmetry_2
K0 O3 2.693435 1_555
K0 O2 2.929635 1_555
K0 O1 2.966407 1_555
K0 O1 2.966407 1_655
K0 O0 2.983253 1_555
K0 O0 2.983253 1_655
K0 O5 3.030045 1_545
K1 O1 2.693435 1_555
K1 O5 2.929635 1_555
K1 O3 2.966407 1_555
K1 O3 2.966407 1_455
K1 O4 2.983253 1_455
K1 O4 2.983253 1_555
K1 O2 3.030045 1_565
O0 Pd1 2.102644 1_555
O0 Pr0 2.376466 1_555
O0 Pr1 2.623231 1_556
O0 Pr1 2.623231 1_456
O1 Pd0 2.064398 1_445
O1 Pr1 2.506558 1_455
O1 Pr1 2.506558 1_555
O2 Pd1 2.014669 1_655
O2 Pd1 2.014669 1_555
O2 Pr1 2.415162 1_556
O2 Pr0 2.458301 1_545
O3 Pd1 2.064398 1_665
O3 Pr0 2.506558 1_655
O3 Pr0 2.506558 1_555
O4 Pd0 2.102644 1_555
O4 Pr1 2.376466 1_555
O4 Pr0 2.623231 1_654
O4 Pr0 2.623231 1_554
O5 Pd0 2.014669 1_555
O5 Pd0 2.014669 1_455
O5 Pr0 2.415162 1_554
O5 Pr1 2.458301 1_565
