# generated using pymatgen
data_La2PBr2
_symmetry_space_group_name_H-M   'P 1'
_cell_length_a   4.26954682
_cell_length_b   4.26954597
_cell_length_c   10.20333621
_cell_angle_alpha   90.00000000
_cell_angle_beta   90.00000000
_cell_angle_gamma   119.99999838
_symmetry_Int_Tables_number   1
_chemical_formula_structural   La2PBr2
_chemical_formula_sum   'La2 P1 Br2'
_cell_volume   161.07803044
_cell_formula_units_Z   1
loop_
 _symmetry_equiv_pos_site_id
 _symmetry_equiv_pos_as_xyz
  1  'x, y, z'
loop_
 _atom_site_type_symbol
 _atom_site_label
 _atom_site_symmetry_multiplicity
 _atom_site_fract_x
 _atom_site_fract_y
 _atom_site_fract_z
 _atom_site_occupancy
  La  La0  1  0.33333300  0.66666700  0.83934045  1
  La  La1  1  0.66666700  0.33333300  0.16065955  1
  P  P0  1  -0.00000000  0.00000000  -0.00000000  1
  Br  Br0  1  0.66666700  0.33333300  0.65639730  1
  Br  Br1  1  0.33333300  0.66666700  0.34360270  1
loop_
_geom_bond_atom_site_label_1
_geom_bond_atom_site_label_2
_geom_bond_distance
_geom_bond_site_symmetry_2
La0 P0 2.960323 1_566
La0 P0 2.960326 1_556
La0 P0 2.960327 1_666
La1 P0 2.960323 1_655
La1 P0 2.960326 1_665
La1 P0 2.960327 1_555
Br0 La0 3.092028 1_545
Br0 La0 3.092029 1_655
Br0 La0 3.092034 1_555
Br1 La1 3.092028 1_565
Br1 La1 3.092029 1_455
Br1 La1 3.092034 1_555
