# generated using pymatgen
data_Li2TeSe3
_symmetry_space_group_name_H-M   'P 1'
_cell_length_a   12.09835900
_cell_length_b   5.63405600
_cell_length_c   8.29752225
_cell_angle_alpha   87.54732966
_cell_angle_beta   90.00000000
_cell_angle_gamma   90.00000000
_symmetry_Int_Tables_number   1
_chemical_formula_structural   Li2TeSe3
_chemical_formula_sum   'Li8 Te4 Se12'
_cell_volume   565.06449336
_cell_formula_units_Z   4
loop_
 _symmetry_equiv_pos_site_id
 _symmetry_equiv_pos_as_xyz
  1  'x, y, z'
loop_
 _atom_site_type_symbol
 _atom_site_label
 _atom_site_symmetry_multiplicity
 _atom_site_fract_x
 _atom_site_fract_y
 _atom_site_fract_z
 _atom_site_occupancy
  Li  Li0  1  0.77358500  0.26518200  0.14605300  1
  Li  Li1  1  0.72641500  0.26518200  0.64605300  1
  Li  Li2  1  0.41341200  0.23669400  0.13379900  1
  Li  Li3  1  0.08658800  0.23669400  0.63379900  1
  Li  Li4  1  0.58658800  0.76330600  0.86620100  1
  Li  Li5  1  0.91341200  0.76330600  0.36620100  1
  Li  Li6  1  0.22641500  0.73481800  0.85394700  1
  Li  Li7  1  0.27358500  0.73481800  0.35394700  1
  Te  Te0  1  0.08678600  0.28442000  0.18684100  1
  Te  Te1  1  0.58678600  0.71558000  0.31315900  1
  Te  Te2  1  0.91321400  0.71558000  0.81315900  1
  Te  Te3  1  0.41321400  0.28442000  0.68684100  1
  Se  Se0  1  0.92309600  0.25465800  0.37745900  1
  Se  Se1  1  0.25088500  0.22782400  0.88488300  1
  Se  Se2  1  0.74911500  0.77217600  0.11511700  1
  Se  Se3  1  0.57690400  0.25465800  0.87745900  1
  Se  Se4  1  0.90304800  0.26234900  0.87062600  1
  Se  Se5  1  0.09695200  0.73765100  0.12937400  1
  Se  Se6  1  0.40304800  0.73765100  0.62937400  1
  Se  Se7  1  0.07690400  0.74534200  0.62254100  1
  Se  Se8  1  0.75088500  0.77217600  0.61511700  1
  Se  Se9  1  0.24911500  0.22782400  0.38488300  1
  Se  Se10  1  0.59695200  0.26234900  0.37062600  1
  Se  Se11  1  0.42309600  0.74534200  0.12254100  1
loop_
_geom_bond_atom_site_label_1
_geom_bond_atom_site_label_2
_geom_bond_distance
_geom_bond_site_symmetry_2
Li0 Se0 2.636747 1_555
Li0 Se4 2.771194 1_554
Li0 Se2 2.815981 1_545
Li0 Se10 2.834891 1_555
Li0 Se2 2.872279 1_555
Li1 Se3 2.636747 1_555
Li1 Se10 2.771194 1_555
Li1 Se8 2.815981 1_545
Li1 Se4 2.834891 1_555
Li1 Se8 2.872279 1_555
Li2 Se11 2.776346 1_545
Li2 Se1 2.853686 1_554
Li2 Se11 2.865671 1_555
Li2 Se9 2.878382 1_555
Li2 Se3 2.903156 1_554
Li2 Se10 2.972793 1_555
Li3 Se7 2.776346 1_545
Li3 Se9 2.853686 1_555
Li3 Se7 2.865671 1_555
Li3 Se1 2.878382 1_555
Li3 Se0 2.903156 1_455
Li3 Se4 2.972793 1_455
Li4 Se3 2.776346 1_565
Li4 Se2 2.853686 1_556
Li4 Se3 2.865671 1_555
Li4 Se8 2.878382 1_555
Li4 Se11 2.903156 1_556
Li4 Se6 2.972793 1_555
Li5 Se0 2.776346 1_565
Li5 Se8 2.853686 1_555
Li5 Se0 2.865671 1_555
Li5 Se2 2.878382 1_555
Li5 Se7 2.903156 1_655
Li5 Se5 2.972793 1_655
Li6 Se7 2.636747 1_555
Li6 Se5 2.771194 1_556
Li6 Se1 2.815981 1_565
Li6 Se6 2.834891 1_555
Li6 Se1 2.872279 1_555
Li7 Se11 2.636747 1_555
Li7 Se6 2.771194 1_555
Li7 Se9 2.815981 1_565
Li7 Se5 2.834891 1_555
Li7 Se9 2.872279 1_555
Se0 Te0 2.535540 1_655
Se1 Te3 2.571786 1_555
Se1 Te0 3.223217 1_556
Se2 Te1 2.571786 1_555
Se2 Te2 3.223217 1_554
Se3 Te3 2.535540 1_555
Se4 Te2 2.580464 1_555
Se4 Te2 3.139724 1_545
Se5 Te0 2.580464 1_555
Se5 Te0 3.139724 1_565
Se6 Te3 2.580464 1_555
Se6 Te3 3.139724 1_565
Se7 Te2 2.535540 1_455
Se8 Te2 2.571786 1_555
Se8 Te1 3.223217 1_555
Se9 Te0 2.571786 1_555
Se9 Te3 3.223217 1_555
Se10 Te1 2.580464 1_555
Se10 Te1 3.139724 1_545
Se11 Te1 2.535540 1_555
