# generated using pymatgen
data_Sr2Co(ClO)2
_symmetry_space_group_name_H-M   'P 1'
_cell_length_a   8.21177003
_cell_length_b   8.06735121
_cell_length_c   9.28606626
_cell_angle_alpha   115.75283436
_cell_angle_beta   82.87532799
_cell_angle_gamma   75.78893274
_symmetry_Int_Tables_number   1
_chemical_formula_structural   Sr2Co(ClO)2
_chemical_formula_sum   'Sr8 Co4 Cl8 O8'
_cell_volume   518.03125307
_cell_formula_units_Z   4
loop_
 _symmetry_equiv_pos_site_id
 _symmetry_equiv_pos_as_xyz
  1  'x, y, z'
loop_
 _atom_site_type_symbol
 _atom_site_label
 _atom_site_symmetry_multiplicity
 _atom_site_fract_x
 _atom_site_fract_y
 _atom_site_fract_z
 _atom_site_occupancy
  Sr  Sr0  1  0.21208500  0.04452400  0.69716200  1
  Sr  Sr1  1  0.21279100  0.54633700  0.69678300  1
  Sr  Sr2  1  0.21335100  0.79512700  0.19679600  1
  Sr  Sr3  1  0.21286800  0.29543700  0.19702700  1
  Sr  Sr4  1  0.78705300  0.45462500  0.30312900  1
  Sr  Sr5  1  0.78657100  0.95504700  0.30324100  1
  Sr  Sr6  1  0.78730300  0.20348500  0.80311300  1
  Sr  Sr7  1  0.78795400  0.70543200  0.80275800  1
  Co  Co0  1  0.99997500  0.24968100  0.49955500  1
  Co  Co1  1  0.00002800  0.50031000  0.00043100  1
  Co  Co2  1  0.99990500  0.74952100  0.49881900  1
  Co  Co3  1  0.00014200  0.00046600  0.00119100  1
  Cl  Cl0  1  0.35675100  0.61606400  0.41038600  1
  Cl  Cl1  1  0.35869900  0.11530500  0.41006900  1
  Cl  Cl2  1  0.35875500  0.36537400  0.91062500  1
  Cl  Cl3  1  0.35667900  0.86652400  0.91094800  1
  Cl  Cl4  1  0.64320700  0.88355700  0.58917700  1
  Cl  Cl5  1  0.64118700  0.38465000  0.58938500  1
  Cl  Cl6  1  0.64136000  0.63468300  0.08994300  1
  Cl  Cl7  1  0.64330500  0.13387000  0.08948100  1
  O  O0  1  0.00001900  0.37502900  0.75003900  1
  O  O1  1  0.99996900  0.87482200  0.74978400  1
  O  O2  1  0.99998000  0.12795700  0.25628200  1
  O  O3  1  0.00007100  0.62217500  0.24387800  1
  O  O4  1  0.00002100  0.50265700  0.49913900  1
  O  O5  1  0.99997200  0.99677700  0.49972100  1
  O  O6  1  0.99997800  0.24714900  0.00080500  1
  O  O7  1  0.00003000  0.75341900  0.00033300  1
loop_
_geom_bond_atom_site_label_1
_geom_bond_atom_site_label_2
_geom_bond_distance
_geom_bond_site_symmetry_2
Co0 O2 2.034663 1_555
Co0 O5 2.040942 1_545
Co0 O4 2.042620 1_655
Co0 O0 2.095077 1_655
Co1 O3 2.036219 1_555
Co1 O7 2.042319 1_555
Co1 O6 2.043951 1_455
Co1 O0 2.094234 1_554
Co2 O5 1.991212 1_555
Co2 O4 1.992598 1_655
Co2 O1 2.099142 1_555
Co2 O3 2.131913 1_655
Co3 O7 1.989793 1_545
Co3 O6 1.991309 1_455
Co3 O1 2.103068 1_444
Co3 O2 2.133176 1_455
Cl0 Co2 2.739735 1_455
Cl0 Sr1 3.103787 1_555
Cl0 Sr3 3.104820 1_555
Cl0 Sr2 3.105040 1_555
Cl0 Sr0 3.106591 1_565
Cl0 Sr4 3.303688 1_555
Cl1 Co0 2.754138 1_455
Cl1 Sr2 3.110218 1_545
Cl1 Sr3 3.113043 1_555
Cl1 Sr1 3.119887 1_555
Cl1 Sr0 3.122043 1_555
Cl1 Sr5 3.285027 1_545
Cl2 Co1 2.754159 1_556
Cl2 Sr3 3.110011 1_556
Cl2 Sr2 3.111546 1_556
Cl2 Sr0 3.121546 1_555
Cl2 Sr1 3.124356 1_555
Cl2 Sr6 3.290222 1_555
Cl3 Co3 2.737346 1_566
Cl3 Sr0 3.104493 1_565
Cl3 Sr1 3.104978 1_555
Cl3 Sr2 3.106340 1_556
Cl3 Sr3 3.106841 1_566
Cl3 Sr7 3.311155 1_555
Cl4 Co2 2.738583 1_555
Cl4 Sr7 3.103893 1_555
Cl4 Sr6 3.104067 1_565
Cl4 Sr4 3.106847 1_555
Cl4 Sr5 3.107647 1_555
Cl4 Sr0 3.309981 1_565
Cl5 Co0 2.754627 1_555
Cl5 Sr4 3.108952 1_555
Cl5 Sr5 3.110680 1_545
Cl5 Sr7 3.121453 1_555
Cl5 Sr6 3.124910 1_555
Cl5 Sr1 3.289054 1_555
Cl6 Co1 2.753708 1_655
Cl6 Sr5 3.110515 1_555
Cl6 Sr4 3.113446 1_555
Cl6 Sr6 3.121104 1_554
Cl6 Sr7 3.122579 1_554
Cl6 Sr2 3.286079 1_555
Cl7 Co3 2.739671 1_655
Cl7 Sr6 3.103063 1_554
Cl7 Sr5 3.104806 1_545
Cl7 Sr4 3.105623 1_555
Cl7 Sr7 3.106316 1_544
Cl7 Sr3 3.304720 1_555
O0 Sr7 2.598569 1_455
O0 Sr0 2.598715 1_555
O0 Sr1 2.602398 1_555
O0 Sr6 2.602953 1_455
O1 Sr7 2.584641 1_555
O1 Sr0 2.586145 1_665
O1 Sr6 2.587695 1_565
O1 Sr1 2.588123 1_655
O2 Sr4 2.596963 1_555
O2 Sr2 2.597272 1_645
O2 Sr5 2.597379 1_545
O2 Sr3 2.598385 1_655
O3 Sr3 2.596958 1_555
O3 Sr2 2.597172 1_555
O3 Sr5 2.598319 1_455
O3 Sr4 2.599637 1_455
O4 Sr3 2.644557 1_555
O4 Sr4 2.651611 1_455
O4 Sr7 2.652036 1_455
O4 Sr1 2.661043 1_555
O5 Sr2 2.651564 1_655
O5 Sr6 2.652370 1_565
O5 Sr0 2.655516 1_665
O5 Sr5 2.657472 1_555
O6 Sr4 2.646201 1_555
O6 Sr0 2.652326 1_654
O6 Sr3 2.652520 1_655
O6 Sr6 2.660757 1_554
O7 Sr5 2.651702 1_455
O7 Sr1 2.653707 1_554
O7 Sr7 2.656174 1_454
O7 Sr2 2.656851 1_555
