# generated using pymatgen
data_Ca5W(N2O)2
_symmetry_space_group_name_H-M   'P 1'
_cell_length_a   6.79737900
_cell_length_b   6.14827700
_cell_length_c   8.52663437
_cell_angle_alpha   89.18087005
_cell_angle_beta   90.00000000
_cell_angle_gamma   90.00000000
_symmetry_Int_Tables_number   1
_chemical_formula_structural   Ca5W(N2O)2
_chemical_formula_sum   'Ca10 W2 N8 O4'
_cell_volume   356.31012786
_cell_formula_units_Z   2
loop_
 _symmetry_equiv_pos_site_id
 _symmetry_equiv_pos_as_xyz
  1  'x, y, z'
loop_
 _atom_site_type_symbol
 _atom_site_label
 _atom_site_symmetry_multiplicity
 _atom_site_fract_x
 _atom_site_fract_y
 _atom_site_fract_z
 _atom_site_occupancy
  Ca  Ca0  1  0.48948200  0.27090600  0.33313100  1
  Ca  Ca1  1  0.75000000  0.49768700  0.01665900  1
  Ca  Ca2  1  0.51051800  0.72909400  0.66686900  1
  Ca  Ca3  1  0.25000000  0.50231300  0.98334100  1
  Ca  Ca4  1  0.50000000  0.00000000  0.00000000  1
  Ca  Ca5  1  0.75000000  0.80587700  0.33014900  1
  Ca  Ca6  1  0.00000000  0.00000000  0.00000000  1
  Ca  Ca7  1  0.01051800  0.27090600  0.33313100  1
  Ca  Ca8  1  0.98948200  0.72909400  0.66686900  1
  Ca  Ca9  1  0.25000000  0.19412300  0.66985100  1
  W  W0  1  0.75000000  0.27860700  0.67727000  1
  W  W1  1  0.25000000  0.72139300  0.32273000  1
  N  N0  1  0.97562000  0.33320700  0.80946400  1
  N  N1  1  0.75000000  0.02221100  0.55577500  1
  N  N2  1  0.47562000  0.66679300  0.19053600  1
  N  N3  1  0.25000000  0.97778900  0.44422500  1
  N  N4  1  0.52438000  0.33320700  0.80946400  1
  N  N5  1  0.02438000  0.66679300  0.19053600  1
  N  N6  1  0.25000000  0.49789600  0.47670800  1
  N  N7  1  0.75000000  0.50210400  0.52329200  1
  O  O0  1  0.75000000  0.15315600  0.17161400  1
  O  O1  1  0.25000000  0.19461600  0.12622500  1
  O  O2  1  0.75000000  0.80538400  0.87377500  1
  O  O3  1  0.25000000  0.84684400  0.82838600  1
loop_
_geom_bond_atom_site_label_1
_geom_bond_atom_site_label_2
_geom_bond_distance
_geom_bond_site_symmetry_2
Ca0 O0 2.363296 1_555
Ca0 O1 2.450716 1_555
Ca0 N6 2.478946 1_555
Ca0 N3 2.597341 1_545
Ca0 N2 2.706850 1_555
Ca0 N7 2.802034 1_555
Ca0 N1 2.999133 1_555
Ca1 O2 2.235472 1_554
Ca1 O0 2.480472 1_555
Ca1 N4 2.558690 1_554
Ca1 N0 2.558690 1_554
Ca1 N2 2.607987 1_555
Ca1 N5 2.607987 1_655
Ca2 O3 2.363296 1_555
Ca2 O2 2.450716 1_555
Ca2 N7 2.478946 1_555
Ca2 N1 2.597341 1_565
Ca2 N4 2.706850 1_555
Ca2 N6 2.802034 1_555
Ca2 N3 2.999133 1_555
Ca3 O1 2.235472 1_556
Ca3 O3 2.480472 1_555
Ca3 N5 2.558690 1_556
Ca3 N2 2.558690 1_556
Ca3 N0 2.607987 1_455
Ca3 N4 2.607987 1_555
Ca4 O1 2.348340 1_555
Ca4 O2 2.348340 1_544
Ca4 O0 2.440304 1_555
Ca4 O3 2.440304 1_544
Ca4 N2 2.601670 1_545
Ca4 N4 2.601670 1_554
Ca5 N1 2.354443 1_565
Ca5 N2 2.378221 1_555
Ca5 N5 2.378221 1_655
Ca5 N7 2.472334 1_555
Ca5 O0 2.510717 1_565
Ca6 O1 2.348340 1_555
Ca6 O2 2.348340 1_444
Ca6 O0 2.440304 1_455
Ca6 O3 2.440304 1_544
Ca6 N5 2.601670 1_545
Ca6 N0 2.601670 1_454
Ca7 O0 2.363296 1_455
Ca7 O1 2.450716 1_555
Ca7 N6 2.478946 1_555
Ca7 N3 2.597341 1_545
Ca7 N5 2.706850 1_555
Ca7 N7 2.802034 1_455
Ca7 N1 2.999133 1_455
Ca8 O3 2.363296 1_655
Ca8 O2 2.450716 1_555
Ca8 N7 2.478946 1_555
Ca8 N1 2.597341 1_565
Ca8 N0 2.706850 1_555
Ca8 N6 2.802034 1_655
Ca8 N3 2.999133 1_655
Ca9 N3 2.354443 1_545
Ca9 N0 2.378221 1_455
Ca9 N4 2.378221 1_555
Ca9 N6 2.472334 1_555
Ca9 O3 2.510717 1_545
N0 W0 1.935466 1_555
N1 W0 1.898654 1_555
N2 W1 1.935466 1_555
N3 W1 1.898654 1_555
N4 W0 1.935466 1_555
N5 W1 1.935466 1_555
N6 W1 1.886894 1_555
N7 W0 1.886894 1_555
