# generated using pymatgen
data_CsMo3Br3Cl4
_symmetry_space_group_name_H-M   'P 1'
_cell_length_a   10.31268508
_cell_length_b   10.31268508
_cell_length_c   15.81032500
_cell_angle_alpha   90.00000000
_cell_angle_beta   90.00000000
_cell_angle_gamma   119.99999413
_symmetry_Int_Tables_number   1
_chemical_formula_structural   CsMo3Br3Cl4
_chemical_formula_sum   'Cs4 Mo12 Br12 Cl16'
_cell_volume   1456.17968146
_cell_formula_units_Z   4
loop_
 _symmetry_equiv_pos_site_id
 _symmetry_equiv_pos_as_xyz
  1  'x, y, z'
loop_
 _atom_site_type_symbol
 _atom_site_label
 _atom_site_symmetry_multiplicity
 _atom_site_fract_x
 _atom_site_fract_y
 _atom_site_fract_z
 _atom_site_occupancy
  Cs  Cs0  1  0.00000000  0.00000000  0.51790500  1
  Cs  Cs1  1  0.00000000  0.00000000  0.01790500  1
  Cs  Cs2  1  0.33333300  0.66666700  0.24393500  1
  Cs  Cs3  1  0.66666700  0.33333300  0.74393500  1
  Mo  Mo0  1  0.51637600  0.32755600  0.31742500  1
  Mo  Mo1  1  0.67244400  0.18882000  0.31742500  1
  Mo  Mo2  1  0.34073600  0.81758000  0.68187700  1
  Mo  Mo3  1  0.47684400  0.65926400  0.68187700  1
  Mo  Mo4  1  0.32755600  0.51637600  0.81742500  1
  Mo  Mo5  1  0.48362400  0.81118000  0.81742500  1
  Mo  Mo6  1  0.18882000  0.67244400  0.81742500  1
  Mo  Mo7  1  0.81118000  0.48362400  0.31742500  1
  Mo  Mo8  1  0.52315600  0.18242000  0.18187700  1
  Mo  Mo9  1  0.81758000  0.34073600  0.18187700  1
  Mo  Mo10  1  0.18242000  0.52315600  0.68187700  1
  Mo  Mo11  1  0.65926400  0.47684400  0.18187700  1
  Br  Br0  1  0.36015500  0.03963000  0.59263700  1
  Br  Br1  1  0.97493000  0.67094400  0.90606500  1
  Br  Br2  1  0.67094400  0.97493000  0.40606500  1
  Br  Br3  1  0.69601500  0.02507000  0.90606500  1
  Br  Br4  1  0.63984500  0.67947500  0.09263700  1
  Br  Br5  1  0.32905600  0.30398500  0.90606500  1
  Br  Br6  1  0.30398500  0.32905600  0.40606500  1
  Br  Br7  1  0.02507000  0.69601500  0.40606500  1
  Br  Br8  1  0.03963000  0.36015500  0.09263700  1
  Br  Br9  1  0.32052500  0.96037000  0.09263700  1
  Br  Br10  1  0.67947500  0.63984500  0.59263700  1
  Br  Br11  1  0.96037000  0.32052500  0.59263700  1
  Cl  Cl0  1  0.33333300  0.66666700  0.55713700  1
  Cl  Cl1  1  0.65667300  0.60703400  0.31520600  1
  Cl  Cl2  1  0.38048200  0.31838800  0.18401700  1
  Cl  Cl3  1  0.61951800  0.93790600  0.68401700  1
  Cl  Cl4  1  0.93790600  0.61951800  0.18401700  1
  Cl  Cl5  1  0.31838800  0.38048200  0.68401700  1
  Cl  Cl6  1  0.04963900  0.39296600  0.81520600  1
  Cl  Cl7  1  0.34332700  0.95036100  0.81520600  1
  Cl  Cl8  1  0.39296600  0.04963900  0.31520600  1
  Cl  Cl9  1  0.66666700  0.33333300  0.44174200  1
  Cl  Cl10  1  0.06209400  0.68161200  0.68401700  1
  Cl  Cl11  1  0.60703400  0.65667300  0.81520600  1
  Cl  Cl12  1  0.68161200  0.06209400  0.18401700  1
  Cl  Cl13  1  0.33333300  0.66666700  0.94174200  1
  Cl  Cl14  1  0.95036100  0.34332700  0.31520600  1
  Cl  Cl15  1  0.66666700  0.33333300  0.05713700  1
loop_
_geom_bond_atom_site_label_1
_geom_bond_atom_site_label_2
_geom_bond_distance
_geom_bond_site_symmetry_2
Br0 Mo2 2.610744 1_545
Br0 Cs0 3.720233 1_555
Br0 Cs3 3.913257 1_555
Br1 Mo6 2.606834 1_655
Br1 Cs1 3.719091 1_666
Br1 Cs3 4.210768 1_555
Br2 Mo1 2.606834 1_565
Br2 Cs0 3.719091 1_665
Br2 Cs2 4.210768 1_555
Br3 Mo5 2.606838 1_545
Br3 Cs1 3.719082 1_656
Br3 Cs3 4.210768 1_555
Br4 Mo11 2.610744 1_555
Br4 Cs1 3.720233 1_665
Br4 Cs2 3.913261 1_555
Br5 Mo4 2.606843 1_555
Br5 Cs1 3.719087 1_556
Br5 Cs3 4.210768 1_555
Br6 Mo0 2.606843 1_555
Br6 Cs0 3.719087 1_555
Br6 Cs2 4.210768 1_555
Br7 Mo7 2.606838 1_455
Br7 Cs0 3.719082 1_565
Br7 Cs2 4.210768 1_555
Br8 Mo9 2.610744 1_455
Br8 Cs1 3.720233 1_555
Br8 Cs2 3.913257 1_555
Br9 Mo8 2.610744 1_565
Br9 Cs1 3.720233 1_565
Br9 Cs2 3.913253 1_555
Br10 Mo3 2.610744 1_555
Br10 Cs0 3.720233 1_665
Br10 Cs3 3.913261 1_555
Br11 Mo10 2.610744 1_655
Br11 Cs0 3.720233 1_655
Br11 Cs3 3.913253 1_555
Cl0 Mo2 2.489705 1_555
Cl0 Mo10 2.489708 1_555
Cl0 Mo3 2.489711 1_555
Cl1 Mo7 2.487511 1_555
Cl1 Mo0 2.496285 1_555
Cl1 Mo11 2.506540 1_555
Cl1 Cs2 3.849347 1_555
Cl2 Mo8 2.489035 1_555
Cl2 Mo11 2.497795 1_555
Cl2 Mo0 2.507843 1_555
Cl2 Cs2 3.972467 1_555
Cl3 Mo3 2.489035 1_555
Cl3 Mo2 2.497795 1_555
Cl3 Mo5 2.507843 1_555
Cl3 Cs3 3.972457 1_565
Cl4 Mo11 2.489035 1_555
Cl4 Mo9 2.497795 1_555
Cl4 Mo7 2.507843 1_555
Cl4 Cs2 3.972457 1_655
Cl5 Mo10 2.489035 1_555
Cl5 Mo3 2.497795 1_555
Cl5 Mo4 2.507843 1_555
Cl5 Cs3 3.972467 1_555
Cl6 Mo4 2.487511 1_555
Cl6 Mo6 2.496285 1_555
Cl6 Mo10 2.506540 1_555
Cl6 Cs3 3.849337 1_455
Cl7 Mo6 2.487511 1_555
Cl7 Mo5 2.496284 1_555
Cl7 Mo2 2.506540 1_555
Cl7 Cs3 3.849341 1_565
Cl8 Mo0 2.487511 1_555
Cl8 Mo1 2.496285 1_555
Cl8 Mo8 2.506540 1_555
Cl8 Cs2 3.849337 1_545
Cl9 Mo1 2.485265 1_555
Cl9 Mo7 2.485268 1_555
Cl9 Mo0 2.485271 1_555
Cl10 Mo2 2.489035 1_555
Cl10 Mo10 2.497795 1_555
Cl10 Mo6 2.507843 1_555
Cl10 Cs3 3.972461 1_455
Cl11 Mo5 2.487511 1_555
Cl11 Mo4 2.496285 1_555
Cl11 Mo3 2.506540 1_555
Cl11 Cs3 3.849347 1_555
Cl12 Mo9 2.489035 1_555
Cl12 Mo8 2.497795 1_555
Cl12 Mo1 2.507843 1_555
Cl12 Cs2 3.972461 1_545
Cl13 Mo6 2.485265 1_555
Cl13 Mo5 2.485268 1_555
Cl13 Mo4 2.485271 1_555
Cl14 Mo1 2.487511 1_555
Cl14 Mo7 2.496284 1_555
Cl14 Mo9 2.506540 1_555
Cl14 Cs2 3.849341 1_655
Cl15 Mo9 2.489705 1_555
Cl15 Mo8 2.489708 1_555
Cl15 Mo11 2.489711 1_555
