# generated using pymatgen
data_Li2ZrF6
_symmetry_space_group_name_H-M   'P 1'
_cell_length_a   4.87508288
_cell_length_b   7.42830871
_cell_length_c   10.86695747
_cell_angle_alpha   72.82153274
_cell_angle_beta   90.00000000
_cell_angle_gamma   90.00000000
_symmetry_Int_Tables_number   1
_chemical_formula_structural   Li2ZrF6
_chemical_formula_sum   'Li8 Zr4 F24'
_cell_volume   375.97619289
_cell_formula_units_Z   4
loop_
 _symmetry_equiv_pos_site_id
 _symmetry_equiv_pos_as_xyz
  1  'x, y, z'
loop_
 _atom_site_type_symbol
 _atom_site_label
 _atom_site_symmetry_multiplicity
 _atom_site_fract_x
 _atom_site_fract_y
 _atom_site_fract_z
 _atom_site_occupancy
  Li  Li0  1  0.49914420  0.40541565  0.69489362  1
  Li  Li1  1  0.99914420  0.59458435  0.80510638  1
  Li  Li2  1  0.50085580  0.59458435  0.30510638  1
  Li  Li3  1  0.00085580  0.40541565  0.19489362  1
  Li  Li4  1  0.03528435  0.03584602  0.84077425  1
  Li  Li5  1  0.53528435  0.96415398  0.65922575  1
  Li  Li6  1  0.96471565  0.96415398  0.15922575  1
  Li  Li7  1  0.46471565  0.03584602  0.34077425  1
  Zr  Zr0  1  0.48803966  0.25474669  0.99849300  1
  Zr  Zr1  1  0.98803966  0.74525331  0.50150700  1
  Zr  Zr2  1  0.51196034  0.74525331  0.00150700  1
  Zr  Zr3  1  0.01196034  0.25474669  0.49849300  1
  F  F0  1  0.81402375  0.45507506  0.57469559  1
  F  F1  1  0.31402375  0.54492494  0.92530441  1
  F  F2  1  0.18597625  0.54492494  0.42530441  1
  F  F3  1  0.68597625  0.45507506  0.07469559  1
  F  F4  1  0.63226949  0.10147505  0.17735465  1
  F  F5  1  0.13226949  0.89852495  0.32264535  1
  F  F6  1  0.36773051  0.89852495  0.82264535  1
  F  F7  1  0.86773051  0.10147505  0.67735465  1
  F  F8  1  0.76908754  0.04458814  0.45783292  1
  F  F9  1  0.26908754  0.95541186  0.04216708  1
  F  F10  1  0.23091246  0.95541186  0.54216708  1
  F  F11  1  0.73091246  0.04458814  0.95783292  1
  F  F12  1  0.76776087  0.39962036  0.34584387  1
  F  F13  1  0.26776087  0.60037964  0.15415613  1
  F  F14  1  0.23223913  0.60037964  0.65415613  1
  F  F15  1  0.73223913  0.39962036  0.84584387  1
  F  F16  1  0.36628103  0.24685121  0.59727078  1
  F  F17  1  0.86628103  0.75314879  0.90272922  1
  F  F18  1  0.63371897  0.75314879  0.40272922  1
  F  F19  1  0.13371897  0.24685121  0.09727078  1
  F  F20  1  0.24136715  0.24917615  0.34376989  1
  F  F21  1  0.74136715  0.75082385  0.15623011  1
  F  F22  1  0.75863285  0.75082385  0.65623011  1
  F  F23  1  0.25863285  0.24917615  0.84376989  1
loop_
_geom_bond_atom_site_label_1
_geom_bond_atom_site_label_2
_geom_bond_distance
_geom_bond_site_symmetry_2
F0 Li0 1.978384 1_555
F0 Zr3 2.135235 1_655
F0 Zr1 2.232911 1_555
F1 Li1 1.978384 1_455
F1 Zr2 2.135235 1_556
F1 Zr0 2.232911 1_555
F2 Li2 1.978384 1_555
F2 Zr1 2.135235 1_455
F2 Zr3 2.232911 1_555
F3 Li3 1.978384 1_655
F3 Zr0 2.135235 1_554
F3 Zr2 2.232911 1_555
F4 Li7 1.883406 1_555
F4 Li6 1.955690 1_545
F4 Zr0 2.064313 1_554
F5 Li6 1.883406 1_455
F5 Li7 1.955690 1_565
F5 Zr1 2.064313 1_455
F6 Li5 1.883406 1_555
F6 Li4 1.955690 1_565
F6 Zr2 2.064313 1_556
F7 Li4 1.883406 1_655
F7 Li5 1.955690 1_545
F7 Zr3 2.064313 1_655
F8 Li7 1.967982 1_555
F8 Zr3 2.107535 1_655
F8 Li5 2.381891 1_545
F8 Zr1 2.384413 1_545
F9 Li6 1.967982 1_455
F9 Zr2 2.107535 1_555
F9 Li4 2.381891 1_564
F9 Zr0 2.384413 1_564
F10 Li5 1.967982 1_555
F10 Zr1 2.107535 1_455
F10 Li7 2.381891 1_565
F10 Zr3 2.384413 1_565
F11 Li4 1.967982 1_655
F11 Zr0 2.107535 1_555
F11 Li6 2.381891 1_546
F11 Zr2 2.384413 1_546
F12 Li2 1.899415 1_555
F12 Li3 1.985513 1_655
F12 Zr3 2.067033 1_655
F13 Li3 1.899415 1_555
F13 Li2 1.985513 1_555
F13 Zr2 2.067033 1_555
F14 Li0 1.899415 1_555
F14 Li1 1.985513 1_455
F14 Zr1 2.067033 1_455
F15 Li1 1.899415 1_555
F15 Li0 1.985513 1_555
F15 Zr0 2.067033 1_555
F16 Li0 1.915841 1_555
F16 Zr3 2.025384 1_555
F16 Li5 2.169516 1_545
F17 Li1 1.915841 1_555
F17 Zr2 2.025384 1_556
F17 Li4 2.169516 1_665
F18 Li2 1.915841 1_555
F18 Zr1 2.025384 1_555
F18 Li7 2.169516 1_565
F19 Li3 1.915841 1_555
F19 Zr0 2.025384 1_554
F19 Li6 2.169516 1_445
F20 Li7 1.930888 1_555
F20 Zr3 2.029921 1_555
F20 Li3 2.056702 1_555
F21 Li6 1.930888 1_555
F21 Zr2 2.029921 1_555
F21 Li2 2.056702 1_555
F22 Li5 1.930888 1_555
F22 Zr1 2.029921 1_555
F22 Li1 2.056702 1_555
F23 Li4 1.930888 1_555
F23 Zr0 2.029921 1_555
F23 Li0 2.056702 1_555
