# generated using pymatgen
data_K2Be2(Si2O5)3
_symmetry_space_group_name_H-M   'P 1'
_cell_length_a   8.56085952
_cell_length_b   8.56085995
_cell_length_c   11.51563887
_cell_angle_alpha   90.00000000
_cell_angle_beta   90.00000000
_cell_angle_gamma   128.15372949
_symmetry_Int_Tables_number   1
_chemical_formula_structural   K2Be2(Si2O5)3
_chemical_formula_sum   'K4 Be4 Si12 O30'
_cell_volume   663.65447949
_cell_formula_units_Z   2
loop_
 _symmetry_equiv_pos_site_id
 _symmetry_equiv_pos_as_xyz
  1  'x, y, z'
loop_
 _atom_site_type_symbol
 _atom_site_label
 _atom_site_symmetry_multiplicity
 _atom_site_fract_x
 _atom_site_fract_y
 _atom_site_fract_z
 _atom_site_occupancy
  K  K0  1  0.90236266  0.09763734  0.40047984  1
  K  K1  1  0.20704599  0.79295401  0.62139727  1
  K  K2  1  0.79295401  0.20704599  0.12139727  1
  K  K3  1  0.09763734  0.90236266  0.90047984  1
  Be  Be0  1  0.46708360  0.22825036  0.75497006  1
  Be  Be1  1  0.53291640  0.77174964  0.25497006  1
  Be  Be2  1  0.22825036  0.46708360  0.25497006  1
  Be  Be3  1  0.77174964  0.53291640  0.75497006  1
  Si  Si0  1  0.35103462  0.64896538  0.01906283  1
  Si  Si1  1  0.44997691  0.55002309  0.48081890  1
  Si  Si2  1  0.26154746  0.15066738  0.17137626  1
  Si  Si3  1  0.84933262  0.73845254  0.17137626  1
  Si  Si4  1  0.42028502  0.00212854  0.35022855  1
  Si  Si5  1  0.73845254  0.84933262  0.67137626  1
  Si  Si6  1  0.00212854  0.42028502  0.85022855  1
  Si  Si7  1  0.99787146  0.57971498  0.35022855  1
  Si  Si8  1  0.64896538  0.35103462  0.51906283  1
  Si  Si9  1  0.55002309  0.44997591  0.98081890  1
  Si  Si10  1  0.15066738  0.26154746  0.67137626  1
  Si  Si11  1  0.57971498  0.99787146  0.85022855  1
  O  O0  1  0.55335445  0.44664555  0.46326249  1
  O  O1  1  0.07523815  0.92476185  0.13166240  1
  O  O2  1  0.96834058  0.56576452  0.79297545  1
  O  O3  1  0.73396112  0.81621553  0.21693311  1
  O  O4  1  0.18378447  0.26603888  0.21693311  1
  O  O5  1  0.26603888  0.18378447  0.71693311  1
  O  O6  1  0.48256290  0.87827699  0.97352279  1
  O  O7  1  0.60038396  0.75594494  0.55374805  1
  O  O8  1  0.87827699  0.48256290  0.47352279  1
  O  O9  1  0.64693902  0.35306098  0.65774778  1
  O  O10  1  0.92476185  0.07523815  0.63166240  1
  O  O11  1  0.44664555  0.55335445  0.96326249  1
  O  O12  1  0.61027975  0.86573456  0.76740470  1
  O  O13  1  0.59619849  0.40380151  0.85646193  1
  O  O14  1  0.56576452  0.96834058  0.29297545  1
  O  O15  1  0.24405506  0.39961604  0.55374805  1
  O  O16  1  0.75594494  0.60038396  0.05374805  1
  O  O17  1  0.12172301  0.51743710  0.97352279  1
  O  O18  1  0.20210389  0.79789611  0.38618962  1
  O  O19  1  0.43423548  0.03165942  0.79297545  1
  O  O20  1  0.81621553  0.73396112  0.71693311  1
  O  O21  1  0.40380151  0.59619849  0.35646193  1
  O  O22  1  0.86573456  0.61027975  0.26740470  1
  O  O23  1  0.39961604  0.24405506  0.05374805  1
  O  O24  1  0.79789611  0.20210389  0.88618962  1
  O  O25  1  0.35306098  0.64693902  0.15774778  1
  O  O26  1  0.51743710  0.12172301  0.47352279  1
  O  O27  1  0.38972025  0.13426544  0.26740470  1
  O  O28  1  0.13426544  0.38972025  0.76740470  1
  O  O29  1  0.03165942  0.43423548  0.29297545  1
loop_
_geom_bond_atom_site_label_1
_geom_bond_atom_site_label_2
_geom_bond_distance
_geom_bond_site_symmetry_2
K0 O14 2.668402 1_545
K0 O29 2.668402 1_655
K0 O10 2.684467 1_555
K0 O4 2.838812 1_655
K0 O3 2.838812 1_545
K0 O15 3.001944 1_655
K0 O7 3.001944 1_545
K1 O2 2.636659 1_455
K1 O19 2.636659 1_565
K1 O18 2.709635 1_555
K1 O8 2.939685 1_455
K1 O26 2.939685 1_565
K1 O20 3.251509 1_455
K1 O5 3.251509 1_565
K2 O29 2.636659 1_655
K2 O14 2.636659 1_545
K2 O24 2.709635 1_554
K2 O17 2.939685 1_654
K2 O6 2.939685 1_544
K2 O4 3.251509 1_655
K2 O3 3.251509 1_545
K3 O19 2.668402 1_565
K3 O2 2.668402 1_455
K3 O1 2.684467 1_556
K3 O20 2.838812 1_455
K3 O5 2.838812 1_565
K3 O16 3.001944 1_456
K3 O23 3.001944 1_566
Be0 O5 1.577819 1_555
Be0 O19 1.586922 1_555
Be0 O9 1.653228 1_555
Be0 O13 1.671491 1_555
Be1 O3 1.577819 1_555
Be1 O14 1.586922 1_555
Be1 O25 1.653228 1_555
Be1 O21 1.671491 1_555
Be2 O4 1.577819 1_555
Be2 O29 1.586922 1_555
Be2 O25 1.653228 1_555
Be2 O21 1.671491 1_555
Be3 O20 1.577819 1_555
Be3 O2 1.586922 1_555
Be3 O9 1.653228 1_555
Be3 O13 1.671491 1_555
O0 Si1 1.604693 1_555
O0 Si8 1.606424 1_555
O1 Si3 1.637704 1_455
O1 Si2 1.637704 1_565
O2 Si6 1.585732 1_655
O3 Si3 1.583131 1_555
O4 Si2 1.583131 1_555
O5 Si10 1.583131 1_555
O6 Si0 1.632652 1_556
O6 Si11 1.644302 1_555
O7 Si1 1.632912 1_555
O7 Si5 1.644245 1_555
O8 Si8 1.632652 1_555
O8 Si7 1.644302 1_555
O9 Si8 1.597351 1_555
O10 Si10 1.637704 1_655
O10 Si5 1.637704 1_545
O11 Si9 1.604700 1_555
O11 Si0 1.606424 1_556
O12 Si11 1.619716 1_555
O12 Si5 1.623865 1_555
O13 Si9 1.598860 1_555
O14 Si4 1.585732 1_565
O15 Si1 1.632912 1_555
O15 Si10 1.644245 1_555
O16 Si9 1.632913 1_554
O16 Si3 1.644245 1_555
O17 Si0 1.632652 1_556
O17 Si6 1.644302 1_555
O18 Si4 1.637750 1_565
O18 Si7 1.637750 1_455
O19 Si11 1.585732 1_545
O20 Si5 1.583131 1_555
O21 Si1 1.598863 1_555
O22 Si7 1.619716 1_555
O22 Si3 1.623865 1_555
O23 Si9 1.632907 1_554
O23 Si2 1.644245 1_555
O24 Si11 1.637750 1_545
O24 Si6 1.637750 1_655
O25 Si0 1.597351 1_555
O26 Si8 1.632652 1_555
O26 Si4 1.644302 1_555
O27 Si4 1.619716 1_555
O27 Si2 1.623865 1_555
O28 Si6 1.619716 1_555
O28 Si10 1.623865 1_555
O29 Si7 1.585732 1_455
