# generated using pymatgen
data_SiO2
_symmetry_space_group_name_H-M   'P 1'
_cell_length_a   18.13657767
_cell_length_b   18.13657767
_cell_length_c   18.13657767
_cell_angle_alpha   109.47122063
_cell_angle_beta   109.47122063
_cell_angle_gamma   109.47122063
_symmetry_Int_Tables_number   1
_chemical_formula_structural   SiO2
_chemical_formula_sum   'Si48 O96'
_cell_volume   4592.44675251
_cell_formula_units_Z   48
loop_
 _symmetry_equiv_pos_site_id
 _symmetry_equiv_pos_as_xyz
  1  'x, y, z'
loop_
 _atom_site_type_symbol
 _atom_site_label
 _atom_site_symmetry_multiplicity
 _atom_site_fract_x
 _atom_site_fract_y
 _atom_site_fract_z
 _atom_site_occupancy
  Si  Si0  1  0.16811400  0.15461600  0.85791300  1
  Si  Si1  1  0.15461600  0.85791300  0.16811400  1
  Si  Si2  1  0.70329700  0.85791300  0.18979900  1
  Si  Si3  1  0.51349900  0.70329700  0.34538400  1
  Si  Si4  1  0.68979900  0.83188600  0.48650100  1
  Si  Si5  1  0.34538400  0.51349900  0.70329700  1
  Si  Si6  1  0.84538400  0.20329700  0.01349900  1
  Si  Si7  1  0.20329700  0.01349900  0.84538400  1
  Si  Si8  1  0.98650100  0.33188600  0.18979900  1
  Si  Si9  1  0.83188600  0.84538400  0.14208700  1
  Si  Si10  1  0.85791300  0.16811400  0.15461600  1
  Si  Si11  1  0.84538400  0.14208700  0.83188600  1
  Si  Si12  1  0.65461600  0.48650100  0.29670300  1
  Si  Si13  1  0.29670300  0.14208700  0.81020100  1
  Si  Si14  1  0.65461600  0.66811400  0.35791300  1
  Si  Si15  1  0.98650100  0.15461600  0.79670300  1
  Si  Si16  1  0.64208700  0.79670300  0.31020100  1
  Si  Si17  1  0.33188600  0.64208700  0.34538400  1
  Si  Si18  1  0.81020100  0.01349900  0.66811400  1
  Si  Si19  1  0.51349900  0.31020100  0.16811400  1
  Si  Si20  1  0.31020100  0.16811400  0.51349900  1
  Si  Si21  1  0.29670300  0.65461600  0.48650100  1
  Si  Si22  1  0.01349900  0.84538400  0.20329700  1
  Si  Si23  1  0.33188600  0.18979900  0.98650100  1
  Si  Si24  1  0.35791300  0.20329700  0.68979900  1
  Si  Si25  1  0.15461600  0.79670300  0.98650100  1
  Si  Si26  1  0.20329700  0.68979900  0.35791300  1
  Si  Si27  1  0.68979900  0.35791300  0.20329700  1
  Si  Si28  1  0.70329700  0.34538400  0.51349900  1
  Si  Si29  1  0.34538400  0.33188600  0.64208700  1
  Si  Si30  1  0.48650100  0.68979900  0.83188600  1
  Si  Si31  1  0.18979900  0.98650100  0.33188600  1
  Si  Si32  1  0.16811400  0.51349900  0.31020100  1
  Si  Si33  1  0.81020100  0.29670300  0.14208700  1
  Si  Si34  1  0.83188600  0.48650100  0.68979900  1
  Si  Si35  1  0.85791300  0.18979900  0.70329700  1
  Si  Si36  1  0.14208700  0.83188600  0.84538400  1
  Si  Si37  1  0.66811400  0.35791300  0.65461600  1
  Si  Si38  1  0.79670300  0.31020100  0.64208700  1
  Si  Si39  1  0.35791300  0.65461600  0.66811400  1
  Si  Si40  1  0.64208700  0.34538400  0.33188600  1
  Si  Si41  1  0.31020100  0.64208700  0.79670300  1
  Si  Si42  1  0.48650100  0.29670300  0.65461600  1
  Si  Si43  1  0.79670300  0.98650100  0.15461600  1
  Si  Si44  1  0.01349900  0.66811400  0.81020100  1
  Si  Si45  1  0.66811400  0.81020100  0.01349900  1
  Si  Si46  1  0.14208700  0.81020100  0.29670300  1
  Si  Si47  1  0.18979900  0.70329700  0.85791300  1
  O  O0  1  0.78370600  0.45292100  0.58060400  1
  O  O1  1  0.83078500  0.12768300  0.04707900  1
  O  O2  1  0.75000000  0.96488600  0.21488600  1
  O  O3  1  0.21488600  0.96488600  0.25000000  1
  O  O4  1  0.37231700  0.66921500  0.45292100  1
  O  O5  1  0.03511400  0.78511400  0.25000000  1
  O  O6  1  0.25000000  0.03511400  0.78511400  1
  O  O7  1  0.16921500  0.79689800  0.21629400  1
  O  O8  1  0.59160500  0.75000000  0.90839500  1
  O  O9  1  0.08060400  0.95292100  0.28370600  1
  O  O10  1  0.33078500  0.54707900  0.62768300  1
  O  O11  1  0.53511400  0.75000000  0.28511400  1
  O  O12  1  0.18321000  0.84160500  0.09160500  1
  O  O13  1  0.20310200  0.78370600  0.83078500  1
  O  O14  1  0.96488600  0.25000000  0.21488600  1
  O  O15  1  0.58060400  0.29689800  0.12768300  1
  O  O16  1  0.95292100  0.28370600  0.08060400  1
  O  O17  1  0.66921500  0.71629400  0.29689800  1
  O  O18  1  0.78511400  0.25000000  0.03511400  1
  O  O19  1  0.04707900  0.71629400  0.91939600  1
  O  O20  1  0.25000000  0.09160500  0.40839500  1
  O  O21  1  0.28370600  0.08060400  0.95292100  1
  O  O22  1  0.87231700  0.41939600  0.70310200  1
  O  O23  1  0.54707900  0.41939600  0.21629400  1
  O  O24  1  0.15839500  0.75000000  0.34160500  1
  O  O25  1  0.21629400  0.16921500  0.79689800  1
  O  O26  1  0.65839500  0.31679000  0.40839500  1
  O  O27  1  0.96488600  0.21488600  0.75000000  1
  O  O28  1  0.71629400  0.91939600  0.04707900  1
  O  O29  1  0.84160500  0.25000000  0.65839500  1
  O  O30  1  0.04707900  0.83078500  0.12768300  1
  O  O31  1  0.41939600  0.21629400  0.54707900  1
  O  O32  1  0.28511400  0.53511400  0.75000000  1
  O  O33  1  0.91939600  0.37231700  0.20310200  1
  O  O34  1  0.46488600  0.71488600  0.75000000  1
  O  O35  1  0.33078500  0.28370600  0.70310200  1
  O  O36  1  0.78511400  0.03511400  0.75000000  1
  O  O37  1  0.21488600  0.75000000  0.96488600  1
  O  O38  1  0.34160500  0.68321000  0.59160500  1
  O  O39  1  0.75000000  0.78511400  0.03511400  1
  O  O40  1  0.59160500  0.34160500  0.68321000  1
  O  O41  1  0.25000000  0.53511400  0.28511400  1
  O  O42  1  0.40839500  0.65839500  0.31679000  1
  O  O43  1  0.45292100  0.37231700  0.66921500  1
  O  O44  1  0.54707900  0.62768300  0.33078500  1
  O  O45  1  0.25000000  0.21488600  0.96488600  1
  O  O46  1  0.46488600  0.25000000  0.71488600  1
  O  O47  1  0.83078500  0.20310200  0.78370600  1
  O  O48  1  0.81679000  0.15839500  0.90839500  1
  O  O49  1  0.21629400  0.54707900  0.41939600  1
  O  O50  1  0.90839500  0.81679000  0.15839500  1
  O  O51  1  0.45292100  0.58060400  0.78370600  1
  O  O52  1  0.15839500  0.90839500  0.81679000  1
  O  O53  1  0.25000000  0.65839500  0.84160500  1
  O  O54  1  0.71488600  0.75000000  0.46488600  1
  O  O55  1  0.78370600  0.83078500  0.20310200  1
  O  O56  1  0.28370600  0.70310200  0.33078500  1
  O  O57  1  0.58060400  0.78370600  0.45292100  1
  O  O58  1  0.41939600  0.70310200  0.87231700  1
  O  O59  1  0.20310200  0.91939600  0.37231700  1
  O  O60  1  0.25000000  0.71488600  0.46488600  1
  O  O61  1  0.12768300  0.04707900  0.83078500  1
  O  O62  1  0.29689800  0.66921500  0.71629400  1
  O  O63  1  0.12768300  0.58060400  0.29689800  1
  O  O64  1  0.37231700  0.20310200  0.91939600  1
  O  O65  1  0.75000000  0.90839500  0.59160500  1
  O  O66  1  0.91939600  0.04707900  0.71629400  1
  O  O67  1  0.79689800  0.21629400  0.16921500  1
  O  O68  1  0.66921500  0.45292100  0.37231700  1
  O  O69  1  0.79689800  0.08060400  0.62768300  1
  O  O70  1  0.75000000  0.34160500  0.15839500  1
  O  O71  1  0.75000000  0.28511400  0.53511400  1
  O  O72  1  0.90839500  0.59160500  0.75000000  1
  O  O73  1  0.09160500  0.18321000  0.84160500  1
  O  O74  1  0.95292100  0.16921500  0.87231700  1
  O  O75  1  0.87231700  0.95292100  0.16921500  1
  O  O76  1  0.62768300  0.33078500  0.54707900  1
  O  O77  1  0.03511400  0.75000000  0.78511400  1
  O  O78  1  0.16921500  0.87231700  0.95292100  1
  O  O79  1  0.28511400  0.25000000  0.53511400  1
  O  O80  1  0.29689800  0.12768300  0.58060400  1
  O  O81  1  0.62768300  0.79689800  0.08060400  1
  O  O82  1  0.34160500  0.15839500  0.75000000  1
  O  O83  1  0.31679000  0.40839500  0.65839500  1
  O  O84  1  0.70310200  0.87231700  0.41939600  1
  O  O85  1  0.84160500  0.09160500  0.18321000  1
  O  O86  1  0.68321000  0.59160500  0.34160500  1
  O  O87  1  0.70310200  0.33078500  0.28370600  1
  O  O88  1  0.08060400  0.62768300  0.79689800  1
  O  O89  1  0.40839500  0.25000000  0.09160500  1
  O  O90  1  0.75000000  0.46488600  0.71488600  1
  O  O91  1  0.65839500  0.84160500  0.25000000  1
  O  O92  1  0.71629400  0.29689800  0.66921500  1
  O  O93  1  0.53511400  0.28511400  0.25000000  1
  O  O94  1  0.09160500  0.40839500  0.25000000  1
  O  O95  1  0.71488600  0.46488600  0.25000000  1
loop_
_geom_bond_atom_site_label_1
_geom_bond_atom_site_label_2
_geom_bond_distance
_geom_bond_site_symmetry_2
O0 Si34 1.656499 1_555
O0 Si28 1.658301 1_555
O1 Si6 1.656483 1_555
O1 Si10 1.658302 1_555
O2 Si43 1.657576 1_555
O2 Si2 1.657581 1_555
O3 Si31 1.657581 1_555
O3 Si1 1.657581 1_555
O4 Si21 1.656483 1_555
O4 Si17 1.658302 1_555
O5 Si22 1.657576 1_555
O5 Si46 1.657581 1_555
O6 Si7 1.657576 1_555
O6 Si13 1.657581 1_555
O7 Si1 1.656496 1_555
O7 Si46 1.658302 1_555
O8 Si45 1.609446 1_556
O8 Si30 1.609446 1_555
O9 Si31 1.656499 1_555
O9 Si22 1.658301 1_555
O10 Si5 1.656483 1_555
O10 Si39 1.658302 1_555
O11 Si3 1.657576 1_555
O11 Si16 1.657581 1_555
O12 Si1 1.609434 1_555
O12 Si25 1.609450 1_554
O13 Si36 1.656496 1_555
O13 Si47 1.658302 1_555
O14 Si8 1.657581 1_555
O14 Si10 1.657581 1_555
O15 Si27 1.656496 1_555
O15 Si19 1.658285 1_555
O16 Si8 1.656499 1_555
O16 Si6 1.658301 1_555
O17 Si14 1.656496 1_555
O17 Si16 1.658302 1_555
O18 Si6 1.657576 1_555
O18 Si33 1.657581 1_555
O19 Si44 1.656499 1_555
O19 Si25 1.658301 1_555
O20 Si20 1.609446 1_555
O20 Si31 1.609446 1_545
O21 Si23 1.656499 1_555
O21 Si7 1.658301 1_555
O22 Si38 1.656496 1_555
O22 Si34 1.658285 1_555
O23 Si19 1.656499 1_555
O23 Si12 1.658301 1_555
O24 Si46 1.609434 1_555
O24 Si26 1.609434 1_555
O25 Si0 1.656496 1_555
O25 Si13 1.658302 1_555
O26 Si40 1.609434 1_555
O26 Si28 1.609450 1_555
O27 Si15 1.657576 1_555
O27 Si35 1.657581 1_555
O28 Si45 1.656499 1_555
O28 Si43 1.658301 1_555
O29 Si35 1.609434 1_555
O29 Si38 1.609434 1_555
O30 Si22 1.656483 1_555
O30 Si1 1.658302 1_555
O31 Si20 1.656499 1_555
O31 Si42 1.658301 1_555
O32 Si5 1.657576 1_555
O32 Si41 1.657581 1_555
O33 Si33 1.656496 1_555
O33 Si8 1.658285 1_555
O34 Si30 1.657581 1_555
O34 Si39 1.657581 1_555
O35 Si29 1.656496 1_555
O35 Si24 1.658302 1_555
O36 Si18 1.657581 1_555
O36 Si11 1.657581 1_555
O37 Si25 1.657576 1_555
O37 Si47 1.657581 1_555
O38 Si39 1.609434 1_555
O38 Si21 1.609450 1_555
O39 Si45 1.657581 1_555
O39 Si9 1.657581 1_555
O40 Si37 1.609434 1_555
O40 Si42 1.609450 1_555
O41 Si32 1.657581 1_555
O41 Si17 1.657581 1_555
O42 Si17 1.609434 1_555
O42 Si3 1.609450 1_555
O43 Si42 1.656483 1_555
O43 Si29 1.658302 1_555
O44 Si3 1.656483 1_555
O44 Si14 1.658302 1_555
O45 Si23 1.657581 1_555
O45 Si0 1.657581 1_555
O46 Si42 1.657576 1_555
O46 Si24 1.657581 1_555
O47 Si11 1.656496 1_555
O47 Si35 1.658302 1_555
O48 Si11 1.609434 1_555
O48 Si6 1.609450 1_556
O49 Si32 1.656499 1_555
O49 Si21 1.658301 1_555
O50 Si9 1.609434 1_555
O50 Si22 1.609450 1_655
O51 Si30 1.656499 1_555
O51 Si5 1.658301 1_555
O52 Si36 1.609434 1_555
O52 Si7 1.609450 1_565
O53 Si41 1.609434 1_555
O53 Si47 1.609434 1_555
O54 Si4 1.657581 1_555
O54 Si14 1.657581 1_555
O55 Si9 1.656496 1_555
O55 Si2 1.658302 1_555
O56 Si17 1.656496 1_555
O56 Si26 1.658302 1_555
O57 Si4 1.656499 1_555
O57 Si3 1.658301 1_555
O58 Si41 1.656496 1_555
O58 Si30 1.658285 1_555
O59 Si46 1.656496 1_555
O59 Si31 1.658285 1_555
O60 Si21 1.657576 1_555
O60 Si26 1.657581 1_555
O61 Si7 1.656483 1_555
O61 Si0 1.658302 1_555
O62 Si39 1.656496 1_555
O62 Si41 1.658302 1_555
O63 Si26 1.656496 1_555
O63 Si32 1.658285 1_555
O64 Si13 1.656496 1_555
O64 Si23 1.658285 1_555
O65 Si18 1.609446 1_565
O65 Si4 1.609446 1_555
O66 Si18 1.656499 1_555
O66 Si15 1.658301 1_555
O67 Si10 1.656496 1_555
O67 Si33 1.658302 1_555
O68 Si12 1.656483 1_555
O68 Si40 1.658302 1_555
O69 Si35 1.656496 1_555
O69 Si18 1.658285 1_555
O70 Si27 1.609434 1_555
O70 Si33 1.609434 1_555
O71 Si28 1.657576 1_555
O71 Si38 1.657581 1_555
O72 Si44 1.609446 1_655
O72 Si34 1.609446 1_555
O73 Si0 1.609434 1_555
O73 Si15 1.609450 1_455
O74 Si15 1.656483 1_555
O74 Si11 1.658302 1_555
O75 Si43 1.656483 1_555
O75 Si9 1.658302 1_555
O76 Si28 1.656483 1_555
O76 Si37 1.658302 1_555
O77 Si44 1.657581 1_555
O77 Si36 1.657581 1_555
O78 Si25 1.656483 1_555
O78 Si36 1.658302 1_555
O79 Si20 1.657581 1_555
O79 Si29 1.657581 1_555
O80 Si24 1.656496 1_555
O80 Si20 1.658285 1_555
O81 Si2 1.656496 1_555
O81 Si45 1.658285 1_555
O82 Si24 1.609434 1_555
O82 Si13 1.609434 1_555
O83 Si29 1.609434 1_555
O83 Si5 1.609450 1_555
O84 Si16 1.656496 1_555
O84 Si4 1.658285 1_555
O85 Si10 1.609434 1_555
O85 Si43 1.609450 1_545
O86 Si14 1.609434 1_555
O86 Si12 1.609450 1_555
O87 Si40 1.656496 1_555
O87 Si27 1.658302 1_555
O88 Si47 1.656496 1_555
O88 Si44 1.658285 1_555
O89 Si19 1.609446 1_555
O89 Si23 1.609446 1_554
O90 Si34 1.657581 1_555
O90 Si37 1.657581 1_555
O91 Si2 1.609434 1_555
O91 Si16 1.609434 1_555
O92 Si37 1.656496 1_555
O92 Si38 1.658302 1_555
O93 Si19 1.657581 1_555
O93 Si40 1.657581 1_555
O94 Si32 1.609446 1_555
O94 Si8 1.609446 1_455
O95 Si12 1.657576 1_555
O95 Si27 1.657581 1_555
