# generated using pymatgen
data_Mn2Sb2O7
_symmetry_space_group_name_H-M   'P 1'
_cell_length_a   7.33366372
_cell_length_b   7.33366372
_cell_length_c   17.55171200
_cell_angle_alpha   90.00000000
_cell_angle_beta   90.00000000
_cell_angle_gamma   119.99999745
_symmetry_Int_Tables_number   1
_chemical_formula_structural   Mn2Sb2O7
_chemical_formula_sum   'Mn12 Sb12 O42'
_cell_volume   817.50818626
_cell_formula_units_Z   6
loop_
 _symmetry_equiv_pos_site_id
 _symmetry_equiv_pos_as_xyz
  1  'x, y, z'
loop_
 _atom_site_type_symbol
 _atom_site_label
 _atom_site_symmetry_multiplicity
 _atom_site_fract_x
 _atom_site_fract_y
 _atom_site_fract_z
 _atom_site_occupancy
  Mn  Mn0  1  0.19012900  0.19012900  0.50000000  1
  Mn  Mn1  1  0.80987100  0.00000000  0.83333300  1
  Mn  Mn2  1  0.36377100  0.48806400  0.33544400  1
  Mn  Mn3  1  0.63622900  0.12429300  0.99788900  1
  Mn  Mn4  1  0.86797800  0.00000000  0.33333300  1
  Mn  Mn5  1  0.48806400  0.36377100  0.66455600  1
  Mn  Mn6  1  0.12429300  0.63622900  0.00211100  1
  Mn  Mn7  1  0.13202200  0.13202200  0.00000000  1
  Mn  Mn8  1  0.00000000  0.80987100  0.16666700  1
  Mn  Mn9  1  0.51193600  0.87570700  0.66877800  1
  Mn  Mn10  1  0.00000000  0.86797800  0.66666700  1
  Mn  Mn11  1  0.87570700  0.51193600  0.33122200  1
  Sb  Sb0  1  0.50022200  0.83772800  0.17099200  1
  Sb  Sb1  1  0.16227200  0.66249400  0.50432500  1
  Sb  Sb2  1  0.83772800  0.50022200  0.82900800  1
  Sb  Sb3  1  0.33750600  0.49977800  0.83765800  1
  Sb  Sb4  1  0.31072300  0.00000000  0.33333300  1
  Sb  Sb5  1  0.33417300  0.00000000  0.83333300  1
  Sb  Sb6  1  0.68927700  0.68927700  0.00000000  1
  Sb  Sb7  1  0.66249400  0.16227200  0.49567500  1
  Sb  Sb8  1  0.00000000  0.33417300  0.16666700  1
  Sb  Sb9  1  0.49977800  0.33750600  0.16234200  1
  Sb  Sb10  1  0.00000000  0.31072300  0.66666700  1
  Sb  Sb11  1  0.66582700  0.66582700  0.50000000  1
  O  O0  1  0.96815200  0.77045800  0.53141000  1
  O  O1  1  0.56628900  0.82691900  0.06271500  1
  O  O2  1  0.05875800  0.37067900  0.27974000  1
  O  O3  1  0.40716100  0.56204800  0.94741600  1
  O  O4  1  0.03184800  0.80230600  0.80192300  1
  O  O5  1  0.03557900  0.85129800  0.27913900  1
  O  O6  1  0.17308100  0.73937000  0.39604800  1
  O  O7  1  0.31192000  0.94124200  0.94640700  1
  O  O8  1  0.19703700  0.64521000  0.14236000  1
  O  O9  1  0.18428100  0.14870200  0.38752700  1
  O  O10  1  0.55182600  0.35479000  0.52430700  1
  O  O11  1  0.37067900  0.05875800  0.72026000  1
  O  O12  1  0.44817400  0.80296300  0.80902600  1
  O  O13  1  0.68808000  0.62932100  0.38692600  1
  O  O14  1  0.73937000  0.17308100  0.60395200  1
  O  O15  1  0.55650400  0.61314500  0.20338400  1
  O  O16  1  0.80230600  0.03184800  0.19807700  1
  O  O17  1  0.94124200  0.31192000  0.05359300  1
  O  O18  1  0.84511300  0.43795200  0.71925000  1
  O  O19  1  0.26063000  0.43371100  0.72938200  1
  O  O20  1  0.19769400  0.22954200  0.13525700  1
  O  O21  1  0.77045800  0.96815200  0.46859000  1
  O  O22  1  0.80296300  0.44817400  0.19097400  1
  O  O23  1  0.59283900  0.15488700  0.38591700  1
  O  O24  1  0.64521000  0.19703700  0.85764000  1
  O  O25  1  0.15488700  0.59283900  0.61408300  1
  O  O26  1  0.43371100  0.26063000  0.27061800  1
  O  O27  1  0.81571900  0.96442100  0.94580600  1
  O  O28  1  0.61314500  0.55650400  0.79661600  1
  O  O29  1  0.38685500  0.94335900  0.53671800  1
  O  O30  1  0.94335900  0.38685500  0.46328200  1
  O  O31  1  0.22954200  0.19769400  0.86474300  1
  O  O32  1  0.05664100  0.44349600  0.87005100  1
  O  O33  1  0.44349600  0.05664100  0.12994900  1
  O  O34  1  0.82691900  0.56628900  0.93728500  1
  O  O35  1  0.14870200  0.18428100  0.61247300  1
  O  O36  1  0.62932100  0.68808000  0.61307400  1
  O  O37  1  0.85129800  0.03557900  0.72086100  1
  O  O38  1  0.35479000  0.55182600  0.47569300  1
  O  O39  1  0.56204800  0.40716100  0.05258400  1
  O  O40  1  0.96442100  0.81571900  0.05419400  1
  O  O41  1  0.43795200  0.84511300  0.28075000  1
loop_
_geom_bond_atom_site_label_1
_geom_bond_atom_site_label_2
_geom_bond_distance
_geom_bond_site_symmetry_2
Mn0 O9 1.994532 1_555
Mn0 O35 1.994532 1_555
Mn0 O38 2.339483 1_555
Mn0 O10 2.339483 1_555
Mn0 O21 2.723262 1_445
Mn0 O0 2.723262 1_445
Mn1 O37 1.994514 1_555
Mn1 O27 1.994532 1_545
Mn1 O12 2.339483 1_545
Mn1 O24 2.339489 1_555
Mn1 O4 2.723262 1_645
Mn1 O31 2.723262 1_655
Mn2 O2 2.185156 1_555
Mn2 O13 2.254433 1_555
Mn2 O26 2.279291 1_555
Mn2 O9 2.342287 1_555
Mn2 O38 2.512632 1_555
Mn2 O41 2.578649 1_555
Mn2 O15 2.629689 1_555
Mn3 O17 2.185155 1_556
Mn3 O7 2.254433 1_545
Mn3 O1 2.279291 1_546
Mn3 O27 2.342287 1_545
Mn3 O24 2.512633 1_555
Mn3 O39 2.578655 1_556
Mn3 O33 2.629689 1_556
Mn4 O5 2.223780 1_645
Mn4 O9 2.223780 1_655
Mn4 O16 2.456572 1_555
Mn4 O21 2.456589 1_545
Mn4 O2 2.535514 1_655
Mn4 O13 2.535514 1_545
Mn5 O11 2.185156 1_555
Mn5 O36 2.254433 1_555
Mn5 O19 2.279291 1_555
Mn5 O35 2.342287 1_555
Mn5 O10 2.512632 1_555
Mn5 O18 2.578649 1_555
Mn5 O28 2.629689 1_555
Mn6 O7 2.185155 1_554
Mn6 O17 2.254433 1_455
Mn6 O34 2.279291 1_454
Mn6 O40 2.342287 1_455
Mn6 O8 2.512633 1_555
Mn6 O3 2.578655 1_554
Mn6 O32 2.629689 1_554
Mn7 O27 2.223780 1_444
Mn7 O40 2.223780 1_445
Mn7 O31 2.456589 1_554
Mn7 O20 2.456589 1_555
Mn7 O7 2.535508 1_544
Mn7 O17 2.535508 1_455
Mn8 O5 1.994514 1_555
Mn8 O40 1.994532 1_455
Mn8 O22 2.339483 1_455
Mn8 O8 2.339489 1_555
Mn8 O16 2.723262 1_465
Mn8 O20 2.723262 1_565
Mn9 O36 2.185150 1_555
Mn9 O11 2.254427 1_565
Mn9 O14 2.279291 1_565
Mn9 O37 2.342287 1_565
Mn9 O12 2.512616 1_555
Mn9 O25 2.578655 1_555
Mn9 O29 2.629689 1_555
Mn10 O37 2.223780 1_465
Mn10 O35 2.223780 1_565
Mn10 O4 2.456572 1_555
Mn10 O0 2.456589 1_455
Mn10 O11 2.535514 1_565
Mn10 O36 2.535514 1_455
Mn11 O13 2.185150 1_555
Mn11 O2 2.254427 1_655
Mn11 O6 2.279291 1_655
Mn11 O5 2.342287 1_655
Mn11 O22 2.512616 1_555
Mn11 O23 2.578655 1_555
Mn11 O30 2.629689 1_555
O0 Sb1 2.001684 1_655
O0 Sb11 2.026622 1_555
O1 Sb0 1.972598 1_555
O1 Sb6 1.988607 1_555
O2 Sb8 2.020082 1_555
O3 Sb3 1.986803 1_555
O3 Sb6 2.018043 1_556
O4 Sb2 2.001684 1_455
O4 Sb5 2.026622 1_565
O5 Sb4 1.991260 1_565
O6 Sb1 1.972598 1_555
O6 Sb4 1.988608 1_565
O7 Sb5 2.020099 1_565
O8 Sb0 2.012572 1_555
O8 Sb8 2.043791 1_555
O9 Sb4 1.991260 1_555
O10 Sb7 2.012578 1_555
O10 Sb11 2.043790 1_555
O11 Sb5 2.020082 1_555
O12 Sb3 2.012571 1_555
O12 Sb5 2.043797 1_565
O13 Sb11 2.020100 1_555
O14 Sb7 1.972598 1_555
O14 Sb10 1.988608 1_655
O15 Sb0 1.971312 1_555
O15 Sb9 1.984256 1_555
O16 Sb0 2.001684 1_545
O16 Sb8 2.026622 1_655
O17 Sb8 2.020099 1_655
O18 Sb2 1.986803 1_555
O18 Sb10 2.018035 1_655
O19 Sb3 1.972581 1_555
O19 Sb10 1.988608 1_555
O20 Sb9 2.001684 1_555
O20 Sb8 2.026622 1_555
O21 Sb7 2.001684 1_565
O21 Sb11 2.026622 1_555
O22 Sb9 2.012571 1_555
O22 Sb8 2.043797 1_655
O23 Sb7 1.986803 1_555
O23 Sb4 2.018043 1_555
O24 Sb2 2.012572 1_555
O24 Sb5 2.043791 1_555
O25 Sb1 1.986803 1_555
O25 Sb10 2.018043 1_555
O26 Sb9 1.972581 1_555
O26 Sb4 1.988608 1_555
O27 Sb6 1.991260 1_556
O28 Sb2 1.971312 1_555
O28 Sb3 1.984256 1_555
O29 Sb1 1.971317 1_555
O29 Sb7 1.984263 1_565
O30 Sb7 1.971317 1_555
O30 Sb1 1.984263 1_655
O31 Sb3 2.001684 1_555
O31 Sb5 2.026622 1_555
O32 Sb3 1.971317 1_555
O32 Sb2 1.984263 1_455
O33 Sb9 1.971317 1_555
O33 Sb0 1.984263 1_545
O34 Sb2 1.972598 1_555
O34 Sb6 1.988607 1_556
O35 Sb10 1.991260 1_555
O36 Sb11 2.020100 1_555
O37 Sb10 1.991260 1_655
O38 Sb1 2.012578 1_555
O38 Sb11 2.043790 1_555
O39 Sb9 1.986803 1_555
O39 Sb6 2.018043 1_555
O40 Sb6 1.991260 1_555
O41 Sb0 1.986803 1_555
O41 Sb4 2.018035 1_565
