# generated using pymatgen
data_RbCuF3
_symmetry_space_group_name_H-M   'P 1'
_cell_length_a   4.06660228
_cell_length_b   4.07169097
_cell_length_c   4.07169097
_cell_angle_alpha   90.00000000
_cell_angle_beta   90.00000000
_cell_angle_gamma   90.00000000
_symmetry_Int_Tables_number   1
_chemical_formula_structural   RbCuF3
_chemical_formula_sum   'Rb1 Cu1 F3'
_cell_volume   67.41884647
_cell_formula_units_Z   1
loop_
 _symmetry_equiv_pos_site_id
 _symmetry_equiv_pos_as_xyz
  1  'x, y, z'
loop_
 _atom_site_type_symbol
 _atom_site_label
 _atom_site_symmetry_multiplicity
 _atom_site_fract_x
 _atom_site_fract_y
 _atom_site_fract_z
 _atom_site_occupancy
  Rb  Rb0  1  0.50000000  0.50000000  0.50000000  1
  Cu  Cu0  1  0.00000000  0.00000000  -0.00000000  1
  F  F0  1  0.50000000  -0.00000000  0.00000000  1
  F  F1  1  -0.00000000  0.00000000  0.50000000  1
  F  F2  1  -0.00000000  0.50000000  -0.00000000  1
loop_
_geom_bond_atom_site_label_1
_geom_bond_atom_site_label_2
_geom_bond_distance
_geom_bond_site_symmetry_2
Cu0 F0 2.033301 1_555
Cu0 F0 2.033301 1_455
Cu0 F2 2.035845 1_555
Cu0 F1 2.035845 1_554
Cu0 F2 2.035845 1_545
Cu0 F1 2.035845 1_555
F0 Rb0 2.879120 1_545
F0 Rb0 2.879120 1_544
F0 Rb0 2.879120 1_555
F0 Rb0 2.879120 1_554
F1 Rb0 2.877322 1_555
F1 Rb0 2.877322 1_545
F1 Rb0 2.877322 1_445
F1 Rb0 2.877322 1_455
F2 Rb0 2.877322 1_555
F2 Rb0 2.877322 1_554
F2 Rb0 2.877322 1_454
F2 Rb0 2.877322 1_455
