# generated using pymatgen
data_Si2Ag6O7
_symmetry_space_group_name_H-M   'P 1'
_cell_length_a   9.85129300
_cell_length_b   5.44173100
_cell_length_c   16.24155879
_cell_angle_alpha   89.33383026
_cell_angle_beta   90.00000000
_cell_angle_gamma   90.00000000
_symmetry_Int_Tables_number   1
_chemical_formula_structural   Si2Ag6O7
_chemical_formula_sum   'Si8 Ag24 O28'
_cell_volume   870.62003822
_cell_formula_units_Z   4
loop_
 _symmetry_equiv_pos_site_id
 _symmetry_equiv_pos_as_xyz
  1  'x, y, z'
loop_
 _atom_site_type_symbol
 _atom_site_label
 _atom_site_symmetry_multiplicity
 _atom_site_fract_x
 _atom_site_fract_y
 _atom_site_fract_z
 _atom_site_occupancy
  Si  Si0  1  0.45288900  0.25219900  0.93730300  1
  Si  Si1  1  0.95288900  0.74780100  0.06269700  1
  Si  Si2  1  0.73851600  0.72236700  0.19652900  1
  Si  Si3  1  0.23851600  0.27763300  0.80347100  1
  Si  Si4  1  0.43736300  0.24801900  0.46053100  1
  Si  Si5  1  0.93736300  0.75198100  0.53946900  1
  Si  Si6  1  0.74605200  0.75318100  0.69298800  1
  Si  Si7  1  0.24605200  0.24681900  0.30701200  1
  Ag  Ag0  1  0.70610900  0.28632600  0.81381900  1
  Ag  Ag1  1  0.20610900  0.71367400  0.18618100  1
  Ag  Ag2  1  0.69720700  0.28080500  0.33286500  1
  Ag  Ag3  1  0.19720700  0.71919500  0.66713500  1
  Ag  Ag4  1  0.96343100  0.26143800  0.70859100  1
  Ag  Ag5  1  0.46343100  0.73856200  0.29140900  1
  Ag  Ag6  1  0.98317800  0.26784600  0.19751300  1
  Ag  Ag7  1  0.48317800  0.73215400  0.80248700  1
  Ag  Ag8  1  0.18852600  0.28127500  0.07639300  1
  Ag  Ag9  1  0.68852600  0.71872500  0.92360700  1
  Ag  Ag10  1  0.25666400  0.71252000  0.97960800  1
  Ag  Ag11  1  0.75666400  0.28748000  0.02039200  1
  Ag  Ag12  1  0.72052900  0.28290800  0.54628300  1
  Ag  Ag13  1  0.22052900  0.71709200  0.45371700  1
  Ag  Ag14  1  0.50232500  0.27192700  0.67207000  1
  Ag  Ag15  1  0.00232500  0.72807300  0.32793000  1
  Ag  Ag16  1  0.48378500  0.32892800  0.17559700  1
  Ag  Ag17  1  0.98378500  0.67107200  0.82440300  1
  Ag  Ag18  1  0.66745100  0.71126500  0.42777000  1
  Ag  Ag19  1  0.16745100  0.28873500  0.57223000  1
  Ag  Ag20  1  0.48577200  0.72235300  0.57186200  1
  Ag  Ag21  1  0.98577200  0.27764700  0.42813800  1
  Ag  Ag22  1  0.49920000  0.83805200  0.08016600  1
  Ag  Ag23  1  0.99920000  0.16194800  0.91983400  1
  O  O0  1  0.39208300  0.15077800  0.02554700  1
  O  O1  1  0.89208300  0.84922200  0.97445300  1
  O  O2  1  0.45371900  0.55538800  0.93138700  1
  O  O3  1  0.95371900  0.44461200  0.06861300  1
  O  O4  1  0.60927700  0.14502800  0.92612600  1
  O  O5  1  0.10927700  0.85497200  0.07387400  1
  O  O6  1  0.85854100  0.86360600  0.13923400  1
  O  O7  1  0.35854100  0.13639400  0.86076600  1
  O  O8  1  0.64796300  0.92710900  0.24483100  1
  O  O9  1  0.14796300  0.07289100  0.75516900  1
  O  O10  1  0.81988800  0.53471600  0.25982700  1
  O  O11  1  0.31988800  0.46528400  0.74017300  1
  O  O12  1  0.64409600  0.56585700  0.12955100  1
  O  O13  1  0.14409600  0.43414300  0.87044900  1
  O  O14  1  0.38054500  0.15339200  0.55032500  1
  O  O15  1  0.88054500  0.84660800  0.44967500  1
  O  O16  1  0.58954300  0.13292200  0.44295800  1
  O  O17  1  0.08954300  0.86707800  0.55704200  1
  O  O18  1  0.44284500  0.55300500  0.45170300  1
  O  O19  1  0.94284500  0.44699500  0.54829700  1
  O  O20  1  0.33263400  0.14160400  0.38829600  1
  O  O21  1  0.83263400  0.85839600  0.61170400  1
  O  O22  1  0.81006000  0.86790300  0.77721700  1
  O  O23  1  0.31006000  0.13209700  0.22278300  1
  O  O24  1  0.58758100  0.85267100  0.68274200  1
  O  O25  1  0.08758100  0.14732900  0.31725800  1
  O  O26  1  0.75302600  0.44690900  0.69059600  1
  O  O27  1  0.25302600  0.55309100  0.30940400  1
loop_
_geom_bond_atom_site_label_1
_geom_bond_atom_site_label_2
_geom_bond_distance
_geom_bond_site_symmetry_2
Ag0 O4 2.189907 1_555
Ag0 O26 2.223040 1_555
Ag0 O22 2.572554 1_545
Ag1 O5 2.189907 1_555
Ag1 O27 2.223040 1_555
Ag1 O23 2.572554 1_565
Ag2 O10 2.176890 1_555
Ag2 O16 2.221783 1_555
Ag2 O8 2.459314 1_545
Ag3 O11 2.176890 1_555
Ag3 O17 2.221783 1_555
Ag3 O9 2.459314 1_565
Ag4 O9 2.216224 1_655
Ag4 O26 2.322402 1_555
Ag5 O8 2.216224 1_555
Ag5 O27 2.322402 1_555
Ag6 O25 2.289255 1_655
Ag6 O3 2.312048 1_555
Ag6 O10 2.398981 1_555
Ag6 O6 2.700168 1_545
Ag7 O24 2.289255 1_555
Ag7 O2 2.312048 1_555
Ag7 O11 2.398981 1_555
Ag7 O7 2.700168 1_565
Ag8 O0 2.284978 1_555
Ag8 O5 2.448464 1_545
Ag8 O3 2.480738 1_455
Ag9 O1 2.284978 1_555
Ag9 O4 2.448464 1_565
Ag9 O2 2.480738 1_555
Ag10 O5 2.254045 1_556
Ag10 O2 2.264626 1_555
Ag10 O13 2.594262 1_555
Ag11 O4 2.254045 1_554
Ag11 O3 2.264626 1_555
Ag11 O12 2.594262 1_555
Ag12 O16 2.275809 1_555
Ag12 O19 2.365500 1_555
Ag12 O26 2.537974 1_555
Ag12 O21 2.761890 1_545
Ag13 O17 2.275809 1_555
Ag13 O18 2.365500 1_555
Ag13 O27 2.537974 1_555
Ag13 O20 2.761890 1_565
Ag14 O11 2.363833 1_555
Ag14 O14 2.407242 1_555
Ag14 O24 2.435445 1_545
Ag14 O26 2.665230 1_555
Ag15 O10 2.363833 1_455
Ag15 O15 2.407242 1_455
Ag15 O25 2.435445 1_565
Ag15 O27 2.665230 1_555
Ag16 O23 2.155097 1_555
Ag16 O12 2.166396 1_555
Ag17 O22 2.155097 1_555
Ag17 O13 2.166396 1_655
Ag18 O15 2.254319 1_555
Ag18 O18 2.404340 1_555
Ag18 O16 2.434747 1_565
Ag19 O14 2.254319 1_555
Ag19 O19 2.404340 1_455
Ag19 O17 2.434747 1_545
Ag20 O24 2.186691 1_555
Ag20 O18 2.208738 1_555
Ag20 O14 2.584510 1_565
Ag21 O25 2.186691 1_655
Ag21 O19 2.208738 1_555
Ag21 O15 2.584510 1_545
Ag22 O0 2.182062 1_565
Ag22 O12 2.201640 1_555
Ag23 O1 2.182062 1_545
Ag23 O13 2.201640 1_655
O0 Si0 1.642909 1_554
O1 Si1 1.642909 1_556
O2 Si0 1.651573 1_555
O3 Si1 1.651573 1_555
O4 Si0 1.658028 1_555
O5 Si1 1.658028 1_455
O6 Si1 1.680615 1_555
O6 Si2 1.684668 1_555
O7 Si0 1.680615 1_555
O7 Si3 1.684668 1_555
O8 Si2 1.634893 1_555
O9 Si3 1.634893 1_555
O10 Si2 1.648583 1_555
O11 Si3 1.648583 1_555
O12 Si2 1.671968 1_555
O13 Si3 1.671968 1_555
O14 Si4 1.639484 1_555
O15 Si5 1.639484 1_555
O16 Si4 1.650882 1_555
O17 Si5 1.650882 1_455
O18 Si4 1.665048 1_555
O19 Si5 1.665048 1_555
O20 Si7 1.667521 1_555
O20 Si4 1.670925 1_555
O21 Si6 1.667521 1_555
O21 Si5 1.670925 1_555
O22 Si6 1.636659 1_555
O23 Si7 1.636659 1_555
O24 Si6 1.660085 1_555
O25 Si7 1.660085 1_555
O26 Si6 1.668969 1_555
O27 Si7 1.668969 1_555
