# generated using pymatgen
data_K8Hf(MoO4)6
_symmetry_space_group_name_H-M   'P 1'
_cell_length_a   12.05807000
_cell_length_b   10.43028800
_cell_length_c   13.35716657
_cell_angle_alpha   60.92073280
_cell_angle_beta   90.00000000
_cell_angle_gamma   90.00000000
_symmetry_Int_Tables_number   1
_chemical_formula_structural   K8Hf(MoO4)6
_chemical_formula_sum   'K16 Hf2 Mo12 O48'
_cell_volume   1468.16244145
_cell_formula_units_Z   2
loop_
 _symmetry_equiv_pos_site_id
 _symmetry_equiv_pos_as_xyz
  1  'x, y, z'
loop_
 _atom_site_type_symbol
 _atom_site_label
 _atom_site_symmetry_multiplicity
 _atom_site_fract_x
 _atom_site_fract_y
 _atom_site_fract_z
 _atom_site_occupancy
  K  K0  1  0.57038500  0.64087100  0.10809900  1
  K  K1  1  0.07038500  0.35912900  0.39190100  1
  K  K2  1  0.20259700  0.18993900  0.70667100  1
  K  K3  1  0.44404300  0.83236800  0.28135700  1
  K  K4  1  0.72087100  0.39733400  0.42286800  1
  K  K5  1  0.42961500  0.35912900  0.89190100  1
  K  K6  1  0.79740300  0.81006100  0.29332900  1
  K  K7  1  0.70259700  0.81006100  0.79332900  1
  K  K8  1  0.27912900  0.60266600  0.57713200  1
  K  K9  1  0.29740300  0.18993900  0.20667100  1
  K  K10  1  0.22087100  0.60266600  0.07713200  1
  K  K11  1  0.55595700  0.16763200  0.71864300  1
  K  K12  1  0.94404300  0.16763200  0.21864300  1
  K  K13  1  0.05595700  0.83236800  0.78135700  1
  K  K14  1  0.92961500  0.64087100  0.60809900  1
  K  K15  1  0.77912900  0.39733400  0.92286800  1
  Hf  Hf0  1  0.00000000  0.00000000  0.00000000  1
  Hf  Hf1  1  0.50000000  0.00000000  0.50000000  1
  Mo  Mo0  1  0.60691100  0.61524000  0.59821200  1
  Mo  Mo1  1  0.89541800  0.23339900  0.70643900  1
  Mo  Mo2  1  0.31957200  0.98507200  0.99377100  1
  Mo  Mo3  1  0.10458200  0.76660100  0.29356100  1
  Mo  Mo4  1  0.68042800  0.01492800  0.00622900  1
  Mo  Mo5  1  0.39308900  0.38476000  0.40178800  1
  Mo  Mo6  1  0.39541800  0.76660100  0.79356100  1
  Mo  Mo7  1  0.18042800  0.98507200  0.49377100  1
  Mo  Mo8  1  0.89308900  0.61524000  0.09821200  1
  Mo  Mo9  1  0.10691100  0.38476000  0.90178800  1
  Mo  Mo10  1  0.81957200  0.01492800  0.50622900  1
  Mo  Mo11  1  0.60458200  0.23339900  0.20643900  1
  O  O0  1  0.70423500  0.60430500  0.50196500  1
  O  O1  1  0.98449600  0.46192500  0.15117300  1
  O  O2  1  0.65400300  0.92996300  0.92133700  1
  O  O3  1  0.51550400  0.46192500  0.65117300  1
  O  O4  1  0.20423500  0.39569500  0.99803500  1
  O  O5  1  0.81969100  0.61454100  0.21413700  1
  O  O6  1  0.47498900  0.92124800  0.67504100  1
  O  O7  1  0.18030900  0.38545900  0.78586300  1
  O  O8  1  0.02472100  0.21147800  0.97864400  1
  O  O9  1  0.22447700  0.82467400  0.33968200  1
  O  O10  1  0.85355500  0.35888500  0.75243300  1
  O  O11  1  0.31969100  0.38545900  0.28586300  1
  O  O12  1  0.52501100  0.07875200  0.32495900  1
  O  O13  1  0.38147100  0.09850900  0.85722900  1
  O  O14  1  0.64644500  0.35888500  0.25243300  1
  O  O15  1  0.01550400  0.53807500  0.84882700  1
  O  O16  1  0.48811300  0.67234500  0.90924900  1
  O  O17  1  0.97498900  0.07875200  0.82495900  1
  O  O18  1  0.98811300  0.32765500  0.59075100  1
  O  O19  1  0.52472100  0.78852200  0.52135600  1
  O  O20  1  0.01188700  0.67234500  0.40924900  1
  O  O21  1  0.51188700  0.32765500  0.09075100  1
  O  O22  1  0.87742500  0.19374000  0.43149500  1
  O  O23  1  0.79576500  0.60430500  0.00196500  1
  O  O24  1  0.77552300  0.17532600  0.66031800  1
  O  O25  1  0.02501100  0.92124800  0.17504100  1
  O  O26  1  0.16674200  0.97914600  0.97469000  1
  O  O27  1  0.72447700  0.17532600  0.16031800  1
  O  O28  1  0.15400300  0.07003700  0.57866300  1
  O  O29  1  0.88147100  0.90149100  0.64277100  1
  O  O30  1  0.37742500  0.80626000  0.06850500  1
  O  O31  1  0.27552300  0.82467400  0.83968200  1
  O  O32  1  0.61852900  0.90149100  0.14277100  1
  O  O33  1  0.12257500  0.80626000  0.56850500  1
  O  O34  1  0.29576500  0.39569500  0.49803500  1
  O  O35  1  0.83325800  0.02085400  0.02531000  1
  O  O36  1  0.68030900  0.61454100  0.71413700  1
  O  O37  1  0.48449600  0.53807500  0.34882700  1
  O  O38  1  0.66674200  0.02085400  0.52531000  1
  O  O39  1  0.47527900  0.21147800  0.47864400  1
  O  O40  1  0.11852900  0.09850900  0.35722900  1
  O  O41  1  0.33325800  0.97914600  0.47469000  1
  O  O42  1  0.84599700  0.92996300  0.42133700  1
  O  O43  1  0.34599700  0.07003700  0.07866300  1
  O  O44  1  0.62257500  0.19374000  0.93149500  1
  O  O45  1  0.97527900  0.78852200  0.02135600  1
  O  O46  1  0.35355500  0.64111500  0.74756700  1
  O  O47  1  0.14644500  0.64111500  0.24756700  1
loop_
_geom_bond_atom_site_label_1
_geom_bond_atom_site_label_2
_geom_bond_distance
_geom_bond_site_symmetry_2
K0 O16 2.701680 1_554
K0 O14 2.774308 1_555
K0 O30 2.789687 1_555
K0 O2 3.003349 1_554
K0 O32 3.027307 1_555
K0 O37 3.034812 1_555
K0 O23 3.172754 1_555
K0 O5 3.277247 1_555
K1 O18 2.701680 1_455
K1 O47 2.774308 1_555
K1 O22 2.789687 1_455
K1 O28 3.003349 1_555
K1 O40 3.027307 1_555
K1 O1 3.034812 1_455
K1 O34 3.172754 1_555
K1 O11 3.277247 1_555
K2 O28 2.628574 1_555
K2 O7 2.728890 1_555
K2 O13 2.782374 1_555
K2 O34 2.796517 1_555
K2 O18 2.997928 1_455
K2 O17 3.097186 1_455
K2 O26 3.191576 1_545
K3 O32 2.660040 1_555
K3 O9 2.749923 1_555
K3 O37 2.789866 1_555
K3 O43 2.889487 1_565
K3 O12 3.058002 1_565
K3 O30 3.091149 1_555
K3 O19 3.163388 1_555
K4 O14 2.652591 1_555
K4 O22 2.801503 1_555
K4 O0 2.834382 1_555
K4 O5 2.861107 1_555
K4 O24 2.952419 1_555
K4 O37 3.137771 1_555
K5 O21 2.701680 1_556
K5 O46 2.774308 1_555
K5 O44 2.789687 1_555
K5 O43 3.003349 1_556
K5 O13 3.027307 1_555
K5 O3 3.034812 1_555
K5 O4 3.172754 1_555
K5 O7 3.277247 1_555
K6 O42 2.628574 1_555
K6 O5 2.728890 1_555
K6 O32 2.782374 1_555
K6 O0 2.796517 1_555
K6 O20 2.997928 1_655
K6 O25 3.097186 1_655
K6 O35 3.191576 1_565
K7 O2 2.628574 1_555
K7 O36 2.728890 1_555
K7 O29 2.782374 1_555
K7 O23 2.796517 1_556
K7 O16 2.997928 1_555
K7 O6 3.097186 1_555
K7 O38 3.191576 1_565
K8 O46 2.652591 1_555
K8 O33 2.801503 1_555
K8 O34 2.834382 1_555
K8 O7 2.861107 1_555
K8 O9 2.952419 1_555
K8 O3 3.137771 1_555
K9 O43 2.628574 1_555
K9 O11 2.728890 1_555
K9 O40 2.782374 1_555
K9 O4 2.796517 1_554
K9 O21 2.997928 1_555
K9 O12 3.097186 1_555
K9 O41 3.191576 1_545
K10 O47 2.652591 1_555
K10 O30 2.801503 1_555
K10 O4 2.834382 1_554
K10 O11 2.861107 1_555
K10 O31 2.952419 1_554
K10 O1 3.137771 1_455
K11 O13 2.660040 1_555
K11 O24 2.749923 1_555
K11 O3 2.789866 1_555
K11 O2 2.889487 1_545
K11 O6 3.058002 1_545
K11 O44 3.091149 1_555
K11 O39 3.163388 1_555
K12 O40 2.660040 1_655
K12 O27 2.749923 1_555
K12 O1 2.789866 1_555
K12 O42 2.889487 1_545
K12 O25 3.058002 1_645
K12 O22 3.091149 1_555
K12 O8 3.163388 1_654
K13 O29 2.660040 1_455
K13 O31 2.749923 1_555
K13 O15 2.789866 1_555
K13 O28 2.889487 1_565
K13 O17 3.058002 1_465
K13 O33 3.091149 1_555
K13 O45 3.163388 1_456
K14 O20 2.701680 1_655
K14 O10 2.774308 1_555
K14 O33 2.789687 1_655
K14 O42 3.003349 1_555
K14 O29 3.027307 1_555
K14 O15 3.034812 1_655
K14 O0 3.172754 1_555
K14 O36 3.277247 1_555
K15 O10 2.652591 1_555
K15 O44 2.801503 1_555
K15 O23 2.834382 1_556
K15 O36 2.861107 1_555
K15 O27 2.952419 1_556
K15 O15 3.137771 1_655
Hf0 O35 2.067738 1_455
Hf0 O26 2.067738 1_544
Hf0 O17 2.089344 1_454
Hf0 O25 2.089344 1_545
Hf0 O8 2.103345 1_554
Hf0 O45 2.103345 1_445
Hf1 O38 2.067738 1_555
Hf1 O41 2.067738 1_545
Hf1 O6 2.089344 1_545
Hf1 O12 2.089344 1_555
Hf1 O39 2.103345 1_555
Hf1 O19 2.103345 1_545
Mo0 O36 1.780451 1_555
Mo0 O3 1.781246 1_555
Mo0 O0 1.784787 1_555
Mo0 O19 1.870598 1_555
Mo1 O10 1.768318 1_555
Mo1 O18 1.768323 1_555
Mo1 O24 1.788625 1_555
Mo1 O17 1.883197 1_555
Mo2 O43 1.774669 1_566
Mo2 O30 1.775346 1_556
Mo2 O13 1.784864 1_565
Mo2 O26 1.865511 1_555
Mo3 O47 1.768318 1_555
Mo3 O20 1.768323 1_555
Mo3 O9 1.788625 1_555
Mo3 O25 1.883197 1_555
Mo4 O2 1.774669 1_544
Mo4 O44 1.775346 1_554
Mo4 O32 1.784864 1_545
Mo4 O35 1.865511 1_555
Mo5 O11 1.780451 1_555
Mo5 O37 1.781246 1_555
Mo5 O34 1.784787 1_555
Mo5 O39 1.870598 1_555
Mo6 O46 1.768318 1_555
Mo6 O16 1.768323 1_555
Mo6 O31 1.788625 1_555
Mo6 O6 1.883197 1_555
Mo7 O28 1.774669 1_565
Mo7 O33 1.775346 1_555
Mo7 O40 1.784864 1_565
Mo7 O41 1.865511 1_555
Mo8 O5 1.780451 1_555
Mo8 O1 1.781246 1_555
Mo8 O23 1.784787 1_555
Mo8 O45 1.870598 1_555
Mo9 O7 1.780451 1_555
Mo9 O15 1.781246 1_555
Mo9 O4 1.784787 1_555
Mo9 O8 1.870598 1_555
Mo10 O42 1.774669 1_545
Mo10 O22 1.775346 1_555
Mo10 O29 1.784864 1_545
Mo10 O38 1.865511 1_555
Mo11 O14 1.768318 1_555
Mo11 O21 1.768323 1_555
Mo11 O27 1.788625 1_555
Mo11 O12 1.883197 1_555
