# generated using pymatgen
data_Cs12Nb(In2As3)3
_symmetry_space_group_name_H-M   'P 1'
_cell_length_a   9.74877700
_cell_length_b   9.79463970
_cell_length_c   25.67041274
_cell_angle_alpha   86.83578720
_cell_angle_beta   87.14093851
_cell_angle_gamma   63.54470606
_symmetry_Int_Tables_number   1
_chemical_formula_structural   Cs12Nb(In2As3)3
_chemical_formula_sum   'Cs24 Nb2 In12 As18'
_cell_volume   2190.25637691
_cell_formula_units_Z   2
loop_
 _symmetry_equiv_pos_site_id
 _symmetry_equiv_pos_as_xyz
  1  'x, y, z'
loop_
 _atom_site_type_symbol
 _atom_site_label
 _atom_site_symmetry_multiplicity
 _atom_site_fract_x
 _atom_site_fract_y
 _atom_site_fract_z
 _atom_site_occupancy
  Cs  Cs0  1  0.06044700  0.94668700  0.30720500  1
  Cs  Cs1  1  0.85225000  0.39103200  0.25883100  1
  Cs  Cs2  1  0.66518600  0.44195700  0.43238900  1
  Cs  Cs3  1  0.46540500  0.88301500  0.38399700  1
  Cs  Cs4  1  0.37966500  0.78994000  0.17902700  1
  Cs  Cs5  1  0.20113300  0.03882500  0.53376700  1
  Cs  Cs6  1  0.17607200  0.23669400  0.13236600  1
  Cs  Cs7  1  0.71201500  0.86705400  0.25101400  1
  Cs  Cs8  1  0.47504700  0.68536500  0.81338900  1
  Cs  Cs9  1  0.93955300  0.05331300  0.69279500  1
  Cs  Cs10  1  0.75744100  0.30463300  0.06461200  1
  Cs  Cs11  1  0.28798500  0.13294600  0.74898600  1
  Cs  Cs12  1  0.33481400  0.55804300  0.56761100  1
  Cs  Cs13  1  0.53459500  0.11698500  0.61600300  1
  Cs  Cs14  1  0.46284100  0.23509300  0.98366900  1
  Cs  Cs15  1  0.14775000  0.60896800  0.74116900  1
  Cs  Cs16  1  0.62033500  0.21006000  0.82097300  1
  Cs  Cs17  1  0.00000000  0.50000000  0.50000000  1
  Cs  Cs18  1  0.24255900  0.69536700  0.93538800  1
  Cs  Cs19  1  0.53715900  0.76490700  0.01633100  1
  Cs  Cs20  1  0.79886700  0.96117500  0.46623300  1
  Cs  Cs21  1  0.52495300  0.31463500  0.18661100  1
  Cs  Cs22  1  0.00000000  0.50000000  0.00000000  1
  Cs  Cs23  1  0.82392800  0.76330600  0.86763400  1
  Nb  Nb0  1  0.75806300  0.44240600  0.61214700  1
  Nb  Nb1  1  0.24193700  0.55759400  0.38785300  1
  In  In0  1  0.47614600  0.76613200  0.66550200  1
  In  In1  1  0.17564200  0.50354000  0.26675000  1
  In  In2  1  0.92166500  0.11910400  0.94091200  1
  In  In3  1  0.70303900  0.93946200  0.10497600  1
  In  In4  1  0.52385400  0.23386800  0.33449800  1
  In  In5  1  0.07833500  0.88089600  0.05908800  1
  In  In6  1  0.12902800  0.27225800  0.37600000  1
  In  In7  1  0.87097200  0.72774200  0.62400000  1
  In  In8  1  0.05372500  0.65832800  0.15875800  1
  In  In9  1  0.82435800  0.49646000  0.73325000  1
  In  In10  1  0.94627500  0.34167200  0.84124200  1
  In  In11  1  0.29696100  0.06053800  0.89502400  1
  As  As0  1  0.15798600  0.08587700  0.00372400  1
  As  As1  1  0.79042500  0.24473800  0.55386000  1
  As  As2  1  0.58730900  0.44393900  0.69064500  1
  As  As3  1  0.20957500  0.75526200  0.44614000  1
  As  As4  1  0.36620600  0.29400300  0.43322800  1
  As  As5  1  0.29918800  0.18068700  0.27696100  1
  As  As6  1  0.01947400  0.40110800  0.64391700  1
  As  As7  1  0.71700500  0.41807100  0.91752200  1
  As  As8  1  0.63379400  0.70599700  0.56677200  1
  As  As9  1  0.19615400  0.37826600  0.86408100  1
  As  As10  1  0.04912500  0.02403400  0.84139100  1
  As  As11  1  0.70081200  0.81931300  0.72303900  1
  As  As12  1  0.28299500  0.58192900  0.08247800  1
  As  As13  1  0.84201400  0.91412300  0.99627600  1
  As  As14  1  0.41269100  0.55606100  0.30935500  1
  As  As15  1  0.95087500  0.97596600  0.15860900  1
  As  As16  1  0.98052600  0.59889200  0.35608300  1
  As  As17  1  0.80384600  0.62173400  0.13591900  1
loop_
_geom_bond_atom_site_label_1
_geom_bond_atom_site_label_2
_geom_bond_distance
_geom_bond_site_symmetry_2
Cs0 In6 4.046431 1_565
Cs1 In1 3.791990 1_655
Cs1 In6 3.912431 1_655
Cs3 In6 3.764593 1_565
Cs3 In4 3.865107 1_565
Cs6 In8 3.843949 1_555
Cs7 In3 3.774715 1_555
Cs7 In8 3.816390 1_655
Cs7 In4 3.930854 1_565
Cs8 In9 3.655041 1_555
Cs8 In0 3.835353 1_555
Cs8 In11 3.963818 1_565
Cs9 In7 4.046431 1_545
Cs10 In2 3.672380 1_554
Cs10 Cs21 3.752651 1_555
Cs10 Cs22 3.910792 1_655
Cs10 In3 3.920972 1_545
Cs10 In5 3.935002 1_645
Cs10 Cs14 3.940071 1_554
Cs10 Cs19 4.182636 1_555
Cs10 Cs6 4.276003 1_655
Cs11 In11 3.774715 1_555
Cs11 In10 3.816390 1_455
Cs11 In0 3.930854 1_545
Cs12 Cs17 4.039409 1_555
Cs13 In7 3.764593 1_545
Cs13 In0 3.865107 1_545
Cs14 In11 3.738498 1_555
Cs14 In3 4.153961 1_546
Cs14 Cs18 4.182636 1_555
Cs15 In9 3.791990 1_455
Cs15 In7 3.912431 1_455
Cs17 Nb1 3.807602 1_555
Cs17 Nb0 3.807602 1_455
Cs17 In6 3.817691 1_555
Cs17 In7 3.817691 1_455
Cs17 Cs2 4.039409 1_455
Cs17 Cs5 4.104326 1_555
Cs17 Cs20 4.104326 1_455
Cs18 In5 3.672380 1_556
Cs18 Cs8 3.752651 1_555
Cs18 Cs22 3.910792 1_556
Cs18 In11 3.920972 1_565
Cs18 In2 3.935002 1_465
Cs18 Cs19 3.940071 1_556
Cs18 Cs23 4.276003 1_455
Cs19 In3 3.738498 1_555
Cs19 In11 4.153961 1_564
Cs21 In1 3.655041 1_555
Cs21 In4 3.835353 1_555
Cs21 In3 3.963818 1_545
Cs23 In10 3.843949 1_555
As0 In5 2.760017 1_545
As0 In2 2.767320 1_454
As0 In11 3.013815 1_554
As0 Cs22 3.638616 1_555
As0 Cs19 3.647579 1_545
As0 Cs6 3.734571 1_555
As0 Cs10 3.819395 1_455
As0 Cs14 3.855912 1_554
As0 Cs18 4.021635 1_544
As1 Nb0 2.411474 1_555
As1 Cs13 3.534691 1_555
As1 Cs2 3.543837 1_555
As1 Cs5 3.616451 1_655
As1 Cs20 3.639804 1_545
As1 Cs9 3.962243 1_555
As1 Cs17 4.028003 1_655
As2 Nb0 2.545237 1_555
As2 In9 2.859141 1_555
As2 In0 2.889226 1_555
As2 Cs9 3.837044 1_555
As2 Cs8 3.858788 1_555
As2 Cs16 3.892088 1_555
As2 Cs12 3.901015 1_555
As2 Cs15 4.020320 1_555
As2 Cs13 4.053737 1_555
As3 Nb1 2.411474 1_555
As3 Cs3 3.534691 1_555
As3 Cs12 3.543837 1_555
As3 Cs20 3.616451 1_455
As3 Cs5 3.639804 1_565
As3 Cs0 3.962243 1_555
As3 Cs17 4.028003 1_555
As4 Nb1 2.551853 1_555
As4 In4 2.846396 1_555
As4 In6 2.891703 1_555
As4 Cs17 3.620447 1_555
As4 Cs3 3.963327 1_545
As5 In1 2.839984 1_555
As5 In6 2.919800 1_555
As5 In4 2.945176 1_555
As5 Cs21 3.697606 1_555
As5 Cs3 3.745172 1_545
As5 Cs7 3.875611 1_545
As5 Cs6 3.892562 1_555
As5 Cs1 3.942555 1_455
As5 Cs0 3.955871 1_545
As6 Nb0 2.564315 1_455
As6 In9 2.822705 1_455
As6 In7 2.891204 1_455
As6 Cs17 3.759519 1_555
As6 Cs11 3.849916 1_555
As6 Cs15 3.883593 1_555
As6 Cs9 3.947308 1_455
As7 In10 2.761318 1_555
As7 In2 2.763306 1_555
As7 Cs16 3.699065 1_555
As7 Cs8 3.730666 1_555
As7 Cs10 3.865504 1_556
As7 Cs14 3.928828 1_555
As7 Cs22 3.934564 1_656
As7 Cs19 4.030990 1_556
As7 Cs23 4.085351 1_555
As7 Cs18 4.208692 1_555
As8 Nb0 2.551853 1_555
As8 In0 2.846396 1_555
As8 In7 2.891703 1_555
As8 Cs17 3.620447 1_655
As8 Cs13 3.963327 1_565
As9 In10 2.711088 1_455
As9 In11 2.891622 1_555
As9 Cs15 3.700723 1_555
As9 Cs11 3.729279 1_555
As9 Cs16 3.835834 1_555
As9 Cs22 3.874836 1_556
As9 Cs18 3.894102 1_555
As9 Cs23 3.900065 1_455
As9 Cs14 3.901598 1_555
As10 In2 2.802288 1_455
As10 In10 2.811451 1_455
As10 In11 3.002795 1_555
As10 Cs11 3.683741 1_555
As10 Cs18 3.732153 1_545
As10 Cs16 3.794118 1_455
As10 Cs9 3.973238 1_455
As10 Cs23 4.056236 1_445
As10 Cs8 4.056398 1_545
As11 In9 2.839984 1_555
As11 In7 2.919800 1_555
As11 In0 2.945176 1_555
As11 Cs8 3.697606 1_555
As11 Cs13 3.745172 1_565
As11 Cs11 3.875611 1_565
As11 Cs23 3.892562 1_555
As11 Cs15 3.942555 1_655
As11 Cs9 3.955871 1_565
As12 In8 2.761318 1_555
As12 In5 2.763306 1_555
As12 Cs4 3.699065 1_555
As12 Cs21 3.730666 1_555
As12 Cs18 3.865504 1_554
As12 Cs19 3.928828 1_555
As12 Cs22 3.934564 1_555
As12 Cs14 4.030990 1_554
As12 Cs6 4.085351 1_555
As12 Cs10 4.208692 1_555
As13 In2 2.760017 1_565
As13 In5 2.767320 1_656
As13 In3 3.013815 1_556
As13 Cs22 3.638616 1_656
As13 Cs14 3.647579 1_565
As13 Cs23 3.734571 1_555
As13 Cs18 3.819395 1_655
As13 Cs19 3.855912 1_556
As13 Cs10 4.021635 1_566
As14 Nb1 2.545237 1_555
As14 In1 2.859141 1_555
As14 In4 2.889226 1_555
As14 Cs0 3.837044 1_555
As14 Cs21 3.858788 1_555
As14 Cs4 3.892088 1_555
As14 Cs2 3.901015 1_555
As14 Cs1 4.020320 1_555
As14 Cs3 4.053737 1_555
As15 In5 2.802288 1_655
As15 In8 2.811451 1_655
As15 In3 3.002795 1_555
As15 Cs7 3.683741 1_555
As15 Cs10 3.732153 1_565
As15 Cs4 3.794118 1_655
As15 Cs0 3.973238 1_655
As15 Cs6 4.056236 1_665
As15 Cs21 4.056398 1_565
As16 Nb1 2.564315 1_655
As16 In1 2.822705 1_655
As16 In6 2.891204 1_655
As16 Cs17 3.759519 1_655
As16 Cs7 3.849916 1_555
As16 Cs1 3.883593 1_555
As16 Cs0 3.947308 1_655
As17 In8 2.711088 1_655
As17 In3 2.891622 1_555
As17 Cs1 3.700723 1_555
As17 Cs7 3.729279 1_555
As17 Cs4 3.835834 1_555
As17 Cs22 3.874836 1_655
As17 Cs10 3.894102 1_555
As17 Cs6 3.900065 1_655
As17 Cs19 3.901598 1_555
