# generated using pymatgen
data_K2Mo15S19
_symmetry_space_group_name_H-M   'P 1'
_cell_length_a   19.70164897
_cell_length_b   19.70164897
_cell_length_c   19.70164884
_cell_angle_alpha   27.87906970
_cell_angle_beta   27.87906970
_cell_angle_gamma   27.87907122
_symmetry_Int_Tables_number   1
_chemical_formula_structural   K2Mo15S19
_chemical_formula_sum   'K4 Mo30 S38'
_cell_volume   1476.64622590
_cell_formula_units_Z   2
loop_
 _symmetry_equiv_pos_site_id
 _symmetry_equiv_pos_as_xyz
  1  'x, y, z'
loop_
 _atom_site_type_symbol
 _atom_site_label
 _atom_site_symmetry_multiplicity
 _atom_site_fract_x
 _atom_site_fract_y
 _atom_site_fract_z
 _atom_site_occupancy
  K  K0  1  0.88744200  0.88744200  0.88744200  1
  K  K1  1  0.38744200  0.38744200  0.38744200  1
  K  K2  1  0.11255800  0.11255800  0.11255800  1
  K  K3  1  0.61255800  0.61255800  0.61255800  1
  Mo  Mo0  1  0.13383300  0.80649000  0.99804400  1
  Mo  Mo1  1  0.78112500  0.95931000  0.63084600  1
  Mo  Mo2  1  0.49804400  0.30649000  0.63383300  1
  Mo  Mo3  1  0.86915400  0.54069000  0.71887500  1
  Mo  Mo4  1  0.75000000  0.58533900  0.91466100  1
  Mo  Mo5  1  0.58533900  0.91466100  0.75000000  1
  Mo  Mo6  1  0.19351000  0.00195600  0.86616700  1
  Mo  Mo7  1  0.45931000  0.28112500  0.13084600  1
  Mo  Mo8  1  0.80649000  0.99804400  0.13383300  1
  Mo  Mo9  1  0.04069000  0.36915400  0.21887500  1
  Mo  Mo10  1  0.95931000  0.63084600  0.78112500  1
  Mo  Mo11  1  0.30649000  0.63383300  0.49804400  1
  Mo  Mo12  1  0.41466100  0.08533900  0.25000000  1
  Mo  Mo13  1  0.91466100  0.75000000  0.58533900  1
  Mo  Mo14  1  0.25000000  0.41466100  0.08533900  1
  Mo  Mo15  1  0.00195600  0.86616700  0.19351000  1
  Mo  Mo16  1  0.69351000  0.36616700  0.50195600  1
  Mo  Mo17  1  0.71887500  0.86915400  0.54069000  1
  Mo  Mo18  1  0.54069000  0.71887500  0.86915400  1
  Mo  Mo19  1  0.28112500  0.13084600  0.45931000  1
  Mo  Mo20  1  0.50195600  0.69351000  0.36616700  1
  Mo  Mo21  1  0.21887500  0.04069000  0.36915400  1
  Mo  Mo22  1  0.63383300  0.49804400  0.30649000  1
  Mo  Mo23  1  0.63084600  0.78112500  0.95931000  1
  Mo  Mo24  1  0.36616700  0.50195600  0.69351000  1
  Mo  Mo25  1  0.36915400  0.21887500  0.04069000  1
  Mo  Mo26  1  0.86616700  0.19351000  0.00195600  1
  Mo  Mo27  1  0.08533900  0.25000000  0.41466100  1
  Mo  Mo28  1  0.99804400  0.13383300  0.80649000  1
  Mo  Mo29  1  0.13084600  0.45931000  0.28112500  1
  S  S0  1  0.19335500  0.52122900  0.92721600  1
  S  S1  1  0.07278400  0.80664500  0.47877100  1
  S  S2  1  0.92721600  0.19335500  0.52122900  1
  S  S3  1  0.94919200  0.55080800  0.25000000  1
  S  S4  1  0.30664500  0.57278400  0.97877100  1
  S  S5  1  0.45093300  0.79745300  0.20240600  1
  S  S6  1  0.55340800  0.55340800  0.55340800  1
  S  S7  1  0.94659200  0.94659200  0.94659200  1
  S  S8  1  0.95093300  0.70240600  0.29745300  1
  S  S9  1  0.20254700  0.79759400  0.54906700  1
  S  S10  1  0.32310300  0.32310300  0.32310300  1
  S  S11  1  0.17689700  0.17689700  0.17689700  1
  S  S12  1  0.82310300  0.82310300  0.82310300  1
  S  S13  1  0.70240600  0.29745300  0.95093300  1
  S  S14  1  0.80664500  0.47877100  0.07278400  1
  S  S15  1  0.29745300  0.95093300  0.70240600  1
  S  S16  1  0.57278400  0.97877100  0.30664500  1
  S  S17  1  0.04906700  0.29759400  0.70254700  1
  S  S18  1  0.70254700  0.04906700  0.29759400  1
  S  S19  1  0.42721600  0.02122900  0.69335500  1
  S  S20  1  0.52122900  0.92721600  0.19335500  1
  S  S21  1  0.69335500  0.42721600  0.02122900  1
  S  S22  1  0.55080800  0.25000000  0.94919200  1
  S  S23  1  0.44919200  0.75000000  0.05080800  1
  S  S24  1  0.25000000  0.94919200  0.55080800  1
  S  S25  1  0.54906700  0.20254700  0.79759400  1
  S  S26  1  0.79759400  0.54906700  0.20254700  1
  S  S27  1  0.79745300  0.20240600  0.45093300  1
  S  S28  1  0.05340800  0.05340800  0.05340800  1
  S  S29  1  0.02122900  0.69335500  0.42721600  1
  S  S30  1  0.97877100  0.30664500  0.57278400  1
  S  S31  1  0.47877100  0.07278400  0.80664500  1
  S  S32  1  0.05080800  0.44919200  0.75000000  1
  S  S33  1  0.29759400  0.70254700  0.04906700  1
  S  S34  1  0.20240600  0.45093300  0.79745300  1
  S  S35  1  0.67689700  0.67689700  0.67689700  1
  S  S36  1  0.75000000  0.05080800  0.44919200  1
  S  S37  1  0.44659200  0.44659200  0.44659200  1
loop_
_geom_bond_atom_site_label_1
_geom_bond_atom_site_label_2
_geom_bond_distance
_geom_bond_site_symmetry_2
K0 S2 3.236296 1_565
K0 S20 3.236296 1_556
K0 S0 3.236296 1_655
K0 S7 3.358080 1_555
K0 S12 3.652671 1_555
K0 S24 3.719705 1_655
K0 S3 3.719705 1_556
K0 S22 3.719705 1_565
K0 S26 3.792789 1_556
K0 S9 3.792789 1_655
K0 S25 3.792789 1_565
K1 S21 3.236296 1_555
K1 S19 3.236296 1_555
K1 S29 3.236296 1_555
K1 S37 3.358080 1_555
K1 S10 3.652671 1_555
K1 S23 3.719705 1_555
K1 S32 3.719705 1_555
K1 S36 3.719705 1_555
K1 S17 3.792789 1_555
K1 S33 3.792789 1_555
K1 S18 3.792789 1_555
K2 S1 3.236296 1_545
K2 S31 3.236296 1_554
K2 S14 3.236296 1_455
K2 S28 3.358080 1_555
K2 S11 3.652671 1_555
K2 S36 3.719705 1_455
K2 S32 3.719705 1_554
K2 S23 3.719705 1_545
K2 S34 3.792789 1_554
K2 S27 3.792789 1_455
K2 S5 3.792789 1_545
K3 S4 3.236296 1_555
K3 S16 3.236296 1_555
K3 S30 3.236296 1_555
K3 S6 3.358080 1_555
K3 S35 3.652671 1_555
K3 S22 3.719705 1_555
K3 S3 3.719705 1_555
K3 S24 3.719705 1_555
K3 S8 3.792789 1_555
K3 S13 3.792789 1_555
K3 S15 3.792789 1_555
Mo0 S7 2.432698 1_455
Mo0 S33 2.455088 1_556
Mo0 S4 2.455151 1_555
Mo0 S8 2.467118 1_456
Mo0 S15 2.477191 1_555
Mo1 S12 2.424342 1_555
Mo1 S1 2.445975 1_655
Mo1 S31 2.479826 1_565
Mo1 S27 2.510307 1_565
Mo1 S36 2.637070 1_565
Mo2 S37 2.432698 1_555
Mo2 S25 2.455088 1_555
Mo2 S31 2.455151 1_555
Mo2 S27 2.467118 1_555
Mo2 S34 2.477191 1_555
Mo3 S35 2.424342 1_555
Mo3 S29 2.445975 1_655
Mo3 S21 2.479825 1_556
Mo3 S17 2.510307 1_655
Mo3 S32 2.637070 1_655
Mo4 S21 2.408190 1_556
Mo4 S14 2.408190 1_556
Mo4 S32 2.476480 1_655
Mo4 S23 2.476480 1_556
Mo5 S31 2.408190 1_565
Mo5 S19 2.408190 1_565
Mo5 S36 2.476480 1_565
Mo5 S23 2.476480 1_556
Mo6 S28 2.432698 1_556
Mo6 S15 2.455088 1_545
Mo6 S19 2.455151 1_555
Mo6 S33 2.467118 1_546
Mo6 S17 2.477191 1_555
Mo7 S10 2.424342 1_555
Mo7 S4 2.445975 1_554
Mo7 S16 2.479826 1_545
Mo7 S13 2.510307 1_554
Mo7 S22 2.637070 1_554
Mo8 S7 2.432698 1_554
Mo8 S18 2.455088 1_565
Mo8 S16 2.455151 1_555
Mo8 S13 2.467118 1_564
Mo8 S8 2.477191 1_555
Mo9 S11 2.424342 1_555
Mo9 S0 2.445975 1_554
Mo9 S2 2.479825 1_455
Mo9 S26 2.510307 1_455
Mo9 S3 2.637070 1_455
Mo10 S12 2.424342 1_555
Mo10 S14 2.445975 1_556
Mo10 S1 2.479825 1_655
Mo10 S34 2.510307 1_655
Mo10 S32 2.637070 1_655
Mo11 S37 2.432698 1_555
Mo11 S9 2.455088 1_555
Mo11 S1 2.455151 1_555
Mo11 S34 2.467118 1_555
Mo11 S5 2.477191 1_555
Mo12 S16 2.408190 1_545
Mo12 S20 2.408190 1_545
Mo12 S24 2.476480 1_545
Mo12 S22 2.476480 1_554
Mo13 S1 2.408190 1_655
Mo13 S29 2.408190 1_655
Mo13 S32 2.476480 1_655
Mo13 S36 2.476480 1_565
Mo14 S4 2.408190 1_554
Mo14 S0 2.408190 1_554
Mo14 S3 2.476480 1_455
Mo14 S22 2.476480 1_554
Mo15 S28 2.432698 1_565
Mo15 S8 2.455088 1_455
Mo15 S29 2.455151 1_555
Mo15 S18 2.467118 1_465
Mo15 S33 2.477191 1_555
Mo16 S6 2.432698 1_555
Mo16 S27 2.455088 1_555
Mo16 S2 2.455151 1_555
Mo16 S26 2.467118 1_555
Mo16 S25 2.477191 1_555
Mo17 S35 2.424342 1_555
Mo17 S19 2.445975 1_565
Mo17 S29 2.479826 1_655
Mo17 S18 2.510307 1_565
Mo17 S36 2.637070 1_565
Mo18 S35 2.424342 1_555
Mo18 S21 2.445975 1_556
Mo18 S19 2.479826 1_565
Mo18 S33 2.510307 1_556
Mo18 S23 2.637070 1_556
Mo19 S10 2.424342 1_555
Mo19 S16 2.445975 1_545
Mo19 S30 2.479826 1_455
Mo19 S15 2.510307 1_545
Mo19 S24 2.637070 1_545
Mo20 S6 2.432698 1_555
Mo20 S5 2.455088 1_555
Mo20 S20 2.455151 1_555
Mo20 S9 2.467118 1_555
Mo20 S26 2.477191 1_555
Mo21 S11 2.424342 1_555
Mo21 S2 2.445975 1_455
Mo21 S20 2.479826 1_545
Mo21 S9 2.510307 1_545
Mo21 S24 2.637070 1_545
Mo22 S37 2.432698 1_555
Mo22 S26 2.455088 1_555
Mo22 S14 2.455151 1_555
Mo22 S5 2.467118 1_555
Mo22 S27 2.477191 1_555
Mo23 S12 2.424342 1_555
Mo23 S31 2.445975 1_565
Mo23 S14 2.479826 1_556
Mo23 S5 2.510307 1_556
Mo23 S23 2.637070 1_556
Mo24 S6 2.432698 1_555
Mo24 S34 2.455088 1_555
Mo24 S0 2.455151 1_555
Mo24 S25 2.467118 1_555
Mo24 S9 2.477191 1_555
Mo25 S11 2.424342 1_555
Mo25 S20 2.445975 1_545
Mo25 S0 2.479826 1_554
Mo25 S25 2.510307 1_554
Mo25 S22 2.637070 1_554
Mo26 S28 2.432698 1_655
Mo26 S13 2.455088 1_554
Mo26 S21 2.455151 1_555
Mo26 S17 2.467118 1_654
Mo26 S18 2.477191 1_555
Mo27 S2 2.408190 1_455
Mo27 S30 2.408190 1_455
Mo27 S3 2.476480 1_455
Mo27 S24 2.476480 1_545
Mo28 S7 2.432698 1_545
Mo28 S17 2.455088 1_655
Mo28 S30 2.455151 1_555
Mo28 S15 2.467118 1_645
Mo28 S13 2.477191 1_555
Mo29 S10 2.424342 1_555
Mo29 S30 2.445975 1_455
Mo29 S4 2.479825 1_554
Mo29 S8 2.510307 1_455
Mo29 S3 2.637070 1_455
