# generated using pymatgen
data_LaF3
_symmetry_space_group_name_H-M   'P 1'
_cell_length_a   6.81564086
_cell_length_b   6.81564086
_cell_length_c   4.53078400
_cell_angle_alpha   90.00000000
_cell_angle_beta   90.00000000
_cell_angle_gamma   101.45844480
_symmetry_Int_Tables_number   1
_chemical_formula_structural   LaF3
_chemical_formula_sum   'La4 F12'
_cell_volume   206.27349425
_cell_formula_units_Z   4
loop_
 _symmetry_equiv_pos_site_id
 _symmetry_equiv_pos_as_xyz
  1  'x, y, z'
loop_
 _atom_site_type_symbol
 _atom_site_label
 _atom_site_symmetry_multiplicity
 _atom_site_fract_x
 _atom_site_fract_y
 _atom_site_fract_z
 _atom_site_occupancy
  La  La0  1  0.50000000  0.00000000  0.50000000  1
  La  La1  1  0.00000000  0.50000000  0.50000000  1
  La  La2  1  0.00000000  0.00000000  0.00000000  1
  La  La3  1  0.50000000  0.50000000  0.00000000  1
  F  F0  1  0.37505200  0.12494800  0.00000000  1
  F  F1  1  0.25000000  0.75000000  0.10888300  1
  F  F2  1  0.62494800  0.87505200  0.00000000  1
  F  F3  1  0.87505200  0.62494800  0.00000000  1
  F  F4  1  0.25000000  0.25000000  0.50000000  1
  F  F5  1  0.87198900  0.12801100  0.42891600  1
  F  F6  1  0.12494800  0.37505200  0.00000000  1
  F  F7  1  0.75000000  0.75000000  0.50000000  1
  F  F8  1  0.12801100  0.87198900  0.57108400  1
  F  F9  1  0.37198900  0.62801100  0.57108400  1
  F  F10  1  0.75000000  0.25000000  0.89111700  1
  F  F11  1  0.62801100  0.37198900  0.42891600  1
loop_
_geom_bond_atom_site_label_1
_geom_bond_atom_site_label_2
_geom_bond_distance
_geom_bond_site_symmetry_2
F0 La2 2.528750 1_555
F0 La3 2.528750 1_555
F0 La0 2.621181 1_554
F0 La0 2.621181 1_555
F1 La3 2.683937 1_555
F1 La2 2.683937 1_565
F1 La0 2.791651 1_565
F1 La1 2.791651 1_555
F2 La3 2.528750 1_555
F2 La2 2.528750 1_665
F2 La0 2.621181 1_565
F2 La0 2.621181 1_564
F3 La3 2.528750 1_555
F3 La2 2.528750 1_665
F3 La1 2.621181 1_654
F3 La1 2.621181 1_655
F4 La0 2.638209 1_555
F4 La1 2.638209 1_555
F5 La2 2.366725 1_655
F5 La0 2.532595 1_555
F5 La1 2.532595 1_655
F5 La2 2.918872 1_656
F6 La2 2.528750 1_555
F6 La3 2.528750 1_555
F6 La1 2.621181 1_555
F6 La1 2.621181 1_554
F7 La1 2.638209 1_655
F7 La0 2.638209 1_565
F8 La2 2.366725 1_566
F8 La1 2.532595 1_555
F8 La0 2.532595 1_565
F8 La2 2.918872 1_565
F9 La3 2.366725 1_556
F9 La1 2.532595 1_555
F9 La0 2.532595 1_565
F9 La3 2.918872 1_555
F10 La3 2.683937 1_556
F10 La2 2.683937 1_656
F10 La1 2.791651 1_655
F10 La0 2.791651 1_555
F11 La3 2.366725 1_555
F11 La0 2.532595 1_555
F11 La1 2.532595 1_655
F11 La3 2.918872 1_556
