# generated using pymatgen
data_NaNbO3
_symmetry_space_group_name_H-M   'P 1'
_cell_length_a   4.04094934
_cell_length_b   4.04094934
_cell_length_c   15.95675700
_cell_angle_alpha   90.00000000
_cell_angle_beta   90.00000000
_cell_angle_gamma   90.47144013
_symmetry_Int_Tables_number   1
_chemical_formula_structural   NaNbO3
_chemical_formula_sum   'Na4 Nb4 O12'
_cell_volume   260.55339820
_cell_formula_units_Z   4
loop_
 _symmetry_equiv_pos_site_id
 _symmetry_equiv_pos_as_xyz
  1  'x, y, z'
loop_
 _atom_site_type_symbol
 _atom_site_label
 _atom_site_symmetry_multiplicity
 _atom_site_fract_x
 _atom_site_fract_y
 _atom_site_fract_z
 _atom_site_occupancy
  Na  Na0  1  0.45373200  0.54626800  0.75000000  1
  Na  Na1  1  0.54626800  0.45373200  0.25000000  1
  Na  Na2  1  0.50000000  0.50000000  0.50000000  1
  Na  Na3  1  0.50000000  0.50000000  0.00000000  1
  Nb  Nb0  1  0.02529300  0.97470700  0.12515700  1
  Nb  Nb1  1  0.02529300  0.97470700  0.37484300  1
  Nb  Nb2  1  0.97470700  0.02529300  0.87484300  1
  Nb  Nb3  1  0.97470700  0.02529300  0.62515700  1
  O  O0  1  0.98588500  0.01411500  0.25000000  1
  O  O1  1  0.01411400  0.98588500  0.75000000  1
  O  O2  1  0.98866500  0.50413400  0.37496800  1
  O  O3  1  0.00000000  0.00000000  0.50000000  1
  O  O4  1  0.49586600  0.01133500  0.37496800  1
  O  O5  1  0.01133500  0.49586600  0.87496800  1
  O  O6  1  0.01133500  0.49586600  0.62503200  1
  O  O7  1  0.49586600  0.01133500  0.12503200  1
  O  O8  1  0.50413400  0.98866500  0.62503200  1
  O  O9  1  0.50413400  0.98866500  0.87496800  1
  O  O10  1  0.00000000  0.00000000  0.00000000  1
  O  O11  1  0.98866500  0.50413400  0.12503200  1
loop_
_geom_bond_atom_site_label_1
_geom_bond_atom_site_label_2
_geom_bond_distance
_geom_bond_site_symmetry_2
Na0 O1 2.522625 1_555
Na0 O5 2.684725 1_555
Na0 O9 2.684725 1_555
Na0 O6 2.684725 1_555
Na0 O8 2.684725 1_555
Na0 O1 2.866617 1_655
Na0 O1 2.866623 1_545
Na0 O5 3.017038 1_655
Na0 O9 3.017038 1_545
Na0 O8 3.017038 1_545
Na0 O6 3.017038 1_655
Na1 O0 2.522623 1_555
Na1 O4 2.684725 1_555
Na1 O2 2.684725 1_555
Na1 O11 2.684725 1_555
Na1 O7 2.684725 1_555
Na1 O0 2.866620 1_565
Na1 O0 2.866620 1_455
Na1 O2 3.017038 1_455
Na1 O4 3.017038 1_565
Na1 O11 3.017038 1_455
Na1 O7 3.017038 1_565
Na2 O8 2.807046 1_555
Na2 O6 2.807046 1_555
Na2 O2 2.807046 1_555
Na2 O4 2.807046 1_555
Na2 O3 2.845603 1_665
Na2 O3 2.845603 1_555
Na2 O3 2.869114 1_655
Na2 O3 2.869114 1_565
Na2 O6 2.872421 1_655
Na2 O8 2.872421 1_545
Na2 O4 2.872421 1_565
Na2 O2 2.872421 1_455
Na3 O11 2.807046 1_555
Na3 O9 2.807046 1_554
Na3 O5 2.807046 1_554
Na3 O7 2.807046 1_555
Na3 O10 2.845603 1_665
Na3 O10 2.845603 1_555
Na3 O10 2.869114 1_655
Na3 O10 2.869114 1_565
Na3 O7 2.872421 1_565
Na3 O5 2.872421 1_654
Na3 O11 2.872421 1_455
Na3 O9 2.872421 1_544
Nb0 O7 1.906100 1_565
Nb0 O11 1.906100 1_455
Nb0 O10 2.002367 1_565
Nb0 O0 2.004883 1_465
Nb0 O11 2.145717 1_465
Nb0 O7 2.145717 1_465
Nb1 O4 1.906100 1_565
Nb1 O2 1.906100 1_455
Nb1 O3 2.002367 1_565
Nb1 O0 2.004883 1_465
Nb1 O2 2.145717 1_465
Nb1 O4 2.145717 1_465
Nb2 O5 1.906100 1_655
Nb2 O9 1.906100 1_545
Nb2 O10 2.002367 1_656
Nb2 O1 2.004883 1_645
Nb2 O5 2.145717 1_645
Nb2 O9 2.145717 1_645
Nb3 O6 1.906100 1_655
Nb3 O8 1.906100 1_545
Nb3 O3 2.002367 1_655
Nb3 O1 2.004883 1_645
Nb3 O6 2.145717 1_645
Nb3 O8 2.145717 1_645
