# generated using pymatgen
data_Ba5Re3NO18
_symmetry_space_group_name_H-M   'P 1'
_cell_length_a   11.46720625
_cell_length_b   11.46720625
_cell_length_c   7.81435000
_cell_angle_alpha   90.00000000
_cell_angle_beta   90.00000000
_cell_angle_gamma   120.00000147
_symmetry_Int_Tables_number   1
_chemical_formula_structural   Ba5Re3NO18
_chemical_formula_sum   'Ba10 Re6 N2 O36'
_cell_volume   889.89492979
_cell_formula_units_Z   2
loop_
 _symmetry_equiv_pos_site_id
 _symmetry_equiv_pos_as_xyz
  1  'x, y, z'
loop_
 _atom_site_type_symbol
 _atom_site_label
 _atom_site_symmetry_multiplicity
 _atom_site_fract_x
 _atom_site_fract_y
 _atom_site_fract_z
 _atom_site_occupancy
  Ba  Ba0  1  0.27926900  0.27926900  0.25213700  1
  Ba  Ba1  1  0.00000000  0.72073100  0.25213700  1
  Ba  Ba2  1  0.66666700  0.33333300  0.50327100  1
  Ba  Ba3  1  0.72073100  0.00000000  0.25213700  1
  Ba  Ba4  1  0.00000000  0.27926900  0.75213700  1
  Ba  Ba5  1  0.33333300  0.66666700  0.50327100  1
  Ba  Ba6  1  0.66666700  0.33333300  0.00327100  1
  Ba  Ba7  1  0.27926900  0.00000000  0.75213700  1
  Ba  Ba8  1  0.33333300  0.66666700  0.00327100  1
  Ba  Ba9  1  0.72073100  0.72073100  0.75213700  1
  Re  Re0  1  0.39562800  0.39562800  0.80235500  1
  Re  Re1  1  0.00000000  0.39562800  0.30235500  1
  Re  Re2  1  0.39562800  0.00000000  0.30235500  1
  Re  Re3  1  0.60437200  0.00000000  0.80235500  1
  Re  Re4  1  0.00000000  0.60437200  0.80235500  1
  Re  Re5  1  0.60437200  0.60437200  0.30235500  1
  N  N0  1  0.00000000  0.00000000  0.43876900  1
  N  N1  1  0.00000000  0.00000000  0.93876900  1
  O  O0  1  0.69509100  0.00000000  0.62006400  1
  O  O1  1  0.44960300  0.87238400  0.26103700  1
  O  O2  1  0.87097600  0.26807200  0.44426200  1
  O  O3  1  0.39709600  0.26807200  0.94426200  1
  O  O4  1  0.88949400  0.88949400  0.43674200  1
  O  O5  1  0.42278100  0.55039700  0.26103700  1
  O  O6  1  0.00000000  0.88949400  0.93674200  1
  O  O7  1  0.00000000  0.11050600  0.43674200  1
  O  O8  1  0.57721900  0.12761600  0.26103700  1
  O  O9  1  0.73192800  0.12902400  0.94426200  1
  O  O10  1  0.87238400  0.42278100  0.76103700  1
  O  O11  1  0.44960300  0.57721900  0.76103700  1
  O  O12  1  0.69509100  0.69509100  0.12006400  1
  O  O13  1  0.12761600  0.57721900  0.26103700  1
  O  O14  1  0.00000000  0.69509100  0.62006400  1
  O  O15  1  0.12902400  0.73192800  0.94426200  1
  O  O16  1  0.88949400  0.00000000  0.93674200  1
  O  O17  1  0.87238400  0.44960300  0.26103700  1
  O  O18  1  0.12761600  0.55039700  0.76103700  1
  O  O19  1  0.26807200  0.39709600  0.94426200  1
  O  O20  1  0.26807200  0.87097600  0.44426200  1
  O  O21  1  0.12902400  0.39709600  0.44426200  1
  O  O22  1  0.30490900  0.00000000  0.12006400  1
  O  O23  1  0.39709600  0.12902400  0.44426200  1
  O  O24  1  0.60290400  0.73192800  0.44426200  1
  O  O25  1  0.42278100  0.87238400  0.76103700  1
  O  O26  1  0.11050600  0.00000000  0.43674200  1
  O  O27  1  0.57721900  0.44960300  0.76103700  1
  O  O28  1  0.60290400  0.87097600  0.94426200  1
  O  O29  1  0.55039700  0.42278100  0.26103700  1
  O  O30  1  0.11050600  0.11050600  0.93674200  1
  O  O31  1  0.00000000  0.30490900  0.12006400  1
  O  O32  1  0.55039700  0.12761600  0.76103700  1
  O  O33  1  0.73192800  0.60290400  0.44426200  1
  O  O34  1  0.87097600  0.60290400  0.94426200  1
  O  O35  1  0.30490900  0.30490900  0.62006400  1
loop_
_geom_bond_atom_site_label_1
_geom_bond_atom_site_label_2
_geom_bond_distance
_geom_bond_site_symmetry_2
Ba0 O5 2.694982 1_555
Ba0 O29 2.694982 1_555
Ba0 O3 2.793501 1_554
Ba0 O19 2.793501 1_554
Ba0 O35 2.890105 1_555
Ba0 O21 3.061997 1_555
Ba0 O23 3.061997 1_555
Ba0 O30 3.133599 1_554
Ba0 O7 3.143925 1_555
Ba0 O26 3.143925 1_555
Ba1 O17 2.694982 1_455
Ba1 O13 2.694983 1_555
Ba1 O34 2.793501 1_454
Ba1 O15 2.793501 1_554
Ba1 O14 2.890105 1_555
Ba1 O20 3.061997 1_555
Ba1 O33 3.061997 1_455
Ba1 O6 3.133599 1_554
Ba1 O26 3.143925 1_565
Ba1 O4 3.143925 1_455
Ba2 O8 2.789334 1_555
Ba2 O17 2.789334 1_555
Ba2 O29 2.789341 1_555
Ba2 O2 2.831066 1_555
Ba2 O23 2.831074 1_555
Ba2 O33 2.831077 1_555
Ba2 O10 2.873083 1_555
Ba2 O32 2.873084 1_555
Ba2 O27 2.873090 1_555
Ba3 O1 2.694982 1_545
Ba3 O8 2.694983 1_555
Ba3 O28 2.793501 1_544
Ba3 O9 2.793501 1_554
Ba3 O0 2.890105 1_555
Ba3 O2 3.061997 1_555
Ba3 O24 3.061997 1_545
Ba3 O16 3.133599 1_554
Ba3 O7 3.143925 1_655
Ba3 O4 3.143925 1_545
Ba4 O18 2.694982 1_555
Ba4 O10 2.694983 1_455
Ba4 O21 2.793501 1_555
Ba4 O2 2.793501 1_455
Ba4 O31 2.890105 1_556
Ba4 O9 3.061997 1_455
Ba4 O19 3.061997 1_555
Ba4 O7 3.133599 1_555
Ba4 O16 3.143925 1_455
Ba4 O30 3.143925 1_555
Ba5 O13 2.789334 1_555
Ba5 O1 2.789334 1_555
Ba5 O5 2.789341 1_555
Ba5 O20 2.831066 1_555
Ba5 O21 2.831074 1_555
Ba5 O24 2.831077 1_555
Ba5 O25 2.873083 1_555
Ba5 O18 2.873084 1_555
Ba5 O11 2.873090 1_555
Ba6 O10 2.789334 1_554
Ba6 O32 2.789334 1_554
Ba6 O27 2.789341 1_554
Ba6 O9 2.831066 1_554
Ba6 O34 2.831074 1_554
Ba6 O3 2.831077 1_554
Ba6 O8 2.873083 1_555
Ba6 O17 2.873084 1_555
Ba6 O29 2.873090 1_555
Ba7 O32 2.694982 1_555
Ba7 O25 2.694983 1_545
Ba7 O23 2.793501 1_555
Ba7 O20 2.793501 1_545
Ba7 O22 2.890105 1_556
Ba7 O15 3.061997 1_545
Ba7 O3 3.061997 1_555
Ba7 O26 3.133599 1_555
Ba7 O6 3.143925 1_545
Ba7 O30 3.143925 1_555
Ba8 O25 2.789334 1_554
Ba8 O18 2.789334 1_554
Ba8 O11 2.789341 1_554
Ba8 O15 2.831066 1_554
Ba8 O28 2.831074 1_554
Ba8 O19 2.831077 1_554
Ba8 O13 2.873083 1_555
Ba8 O1 2.873084 1_555
Ba8 O5 2.873090 1_555
Ba9 O27 2.694982 1_555
Ba9 O11 2.694982 1_555
Ba9 O24 2.793501 1_555
Ba9 O33 2.793501 1_555
Ba9 O12 2.890105 1_556
Ba9 O28 3.061997 1_555
Ba9 O34 3.061997 1_555
Ba9 O4 3.133599 1_555
Ba9 O6 3.143925 1_655
Ba9 O16 3.143925 1_565
N0 O4 1.267294 1_445
N0 O26 1.267294 1_555
N0 O7 1.267294 1_555
N1 O30 1.267294 1_555
N1 O16 1.267294 1_455
N1 O6 1.267294 1_545
O0 Re3 1.763908 1_555
O1 Re2 1.880062 1_565
O2 Re1 1.842312 1_655
O3 Re0 1.842312 1_555
O5 Re5 1.880062 1_555
O8 Re2 1.880062 1_555
O9 Re3 1.842312 1_555
O10 Re4 1.880062 1_655
O11 Re0 1.880062 1_555
O12 Re5 1.763908 1_555
O13 Re1 1.880062 1_555
O14 Re4 1.763908 1_555
O15 Re4 1.842312 1_555
O17 Re1 1.880062 1_655
O18 Re4 1.880062 1_555
O19 Re0 1.842312 1_555
O20 Re2 1.842312 1_565
O21 Re1 1.842312 1_555
O22 Re2 1.763908 1_555
O23 Re2 1.842312 1_555
O24 Re5 1.842312 1_555
O25 Re3 1.880062 1_565
O27 Re0 1.880062 1_555
O28 Re3 1.842312 1_565
O29 Re5 1.880062 1_555
O31 Re1 1.763908 1_555
O32 Re3 1.880062 1_555
O33 Re5 1.842312 1_555
O34 Re4 1.842312 1_655
O35 Re0 1.763908 1_555
