# generated using pymatgen
data_Rb2In3
_symmetry_space_group_name_H-M   'P 1'
_cell_length_a   9.34811213
_cell_length_b   9.34811213
_cell_length_c   9.34811213
_cell_angle_alpha   136.58160644
_cell_angle_beta   136.58160644
_cell_angle_gamma   63.08243279
_symmetry_Int_Tables_number   1
_chemical_formula_structural   Rb2In3
_chemical_formula_sum   'Rb4 In6'
_cell_volume   381.03505267
_cell_formula_units_Z   2
loop_
 _symmetry_equiv_pos_site_id
 _symmetry_equiv_pos_as_xyz
  1  'x, y, z'
loop_
 _atom_site_type_symbol
 _atom_site_label
 _atom_site_symmetry_multiplicity
 _atom_site_fract_x
 _atom_site_fract_y
 _atom_site_fract_z
 _atom_site_occupancy
  Rb  Rb0  1  0.60980251  0.60980251  -0.00000000  1
  Rb  Rb1  1  0.39019749  0.39019749  -0.00000000  1
  Rb  Rb2  1  0.25000000  0.75000000  0.50000000  1
  Rb  Rb3  1  0.75000000  0.25000000  0.50000000  1
  In  In0  1  0.70455538  0.00000000  0.70455538  1
  In  In1  1  0.85296139  0.85296139  -0.00000000  1
  In  In2  1  0.14703861  0.14703861  0.00000000  1
  In  In3  1  -0.00000000  0.70455538  0.70455538  1
  In  In4  1  0.29544462  -0.00000000  0.29544462  1
  In  In5  1  0.00000000  0.29544462  0.29544462  1
loop_
_geom_bond_atom_site_label_1
_geom_bond_atom_site_label_2
_geom_bond_distance
_geom_bond_site_symmetry_2
Rb0 Rb1 3.499213 1_555
Rb0 Rb2 4.116672 1_554
Rb0 Rb2 4.116672 1_655
Rb0 Rb3 4.116672 1_554
Rb0 Rb3 4.116672 1_565
Rb1 Rb3 4.116672 1_454
Rb1 Rb3 4.116672 1_555
Rb1 Rb2 4.116672 1_544
Rb1 Rb2 4.116672 1_555
In0 In4 2.829270 1_555
In0 In3 2.889512 1_645
In0 In5 2.889512 1_656
In0 In1 3.108692 1_546
In0 In2 3.108692 1_656
In0 Rb1 4.125396 1_545
In0 Rb0 4.125396 1_556
In0 Rb0 4.125396 1_545
In0 Rb1 4.125396 1_556
In0 Rb3 4.227257 1_555
In0 Rb2 4.227257 1_545
In1 In3 3.108692 1_654
In1 In4 3.108692 1_665
In1 In5 3.108692 1_665
In1 Rb3 3.827289 1_554
In1 Rb3 3.827289 1_565
In1 Rb2 3.827289 1_655
In1 Rb2 3.827289 1_554
In1 Rb0 3.874523 1_555
In2 In5 3.108692 1_555
In2 In3 3.108692 1_544
In2 In4 3.108692 1_555
In2 Rb3 3.827289 1_454
In2 Rb3 3.827289 1_555
In2 Rb2 3.827289 1_555
In2 Rb2 3.827289 1_544
In2 Rb1 3.874523 1_555
In3 In5 2.829270 1_555
In3 In4 2.889512 1_566
In3 Rb0 4.125396 1_455
In3 Rb0 4.125396 1_556
In3 Rb1 4.125396 1_455
In3 Rb1 4.125396 1_556
In3 Rb3 4.227257 1_455
In3 Rb2 4.227257 1_555
In4 In5 2.889512 1_555
In4 Rb1 4.125396 1_545
In4 Rb1 4.125396 1_556
In4 Rb0 4.125396 1_556
In4 Rb0 4.125396 1_545
In4 Rb3 4.227257 1_555
In4 Rb2 4.227257 1_545
In5 Rb0 4.125396 1_455
In5 Rb1 4.125396 1_556
In5 Rb0 4.125396 1_556
In5 Rb1 4.125396 1_455
In5 Rb3 4.227257 1_455
In5 Rb2 4.227257 1_555
