# generated using pymatgen
data_Ba2Co9O14
_symmetry_space_group_name_H-M   'P 1'
_cell_length_a   10.13347366
_cell_length_b   10.13347366
_cell_length_c   10.13347347
_cell_angle_alpha   32.61114284
_cell_angle_beta   32.61114284
_cell_angle_gamma   32.61114486
_symmetry_Int_Tables_number   1
_chemical_formula_structural   Ba2Co9O14
_chemical_formula_sum   'Ba2 Co9 O14'
_cell_volume   268.79619308
_cell_formula_units_Z   1
loop_
 _symmetry_equiv_pos_site_id
 _symmetry_equiv_pos_as_xyz
  1  'x, y, z'
loop_
 _atom_site_type_symbol
 _atom_site_label
 _atom_site_symmetry_multiplicity
 _atom_site_fract_x
 _atom_site_fract_y
 _atom_site_fract_z
 _atom_site_occupancy
  Ba  Ba0  1  0.88390816  0.88390816  0.88390816  1
  Ba  Ba1  1  0.11609184  0.11609184  0.11609184  1
  Co  Co0  1  0.23224266  0.23224266  0.23224266  1
  Co  Co1  1  0.76775734  0.76775734  0.76775734  1
  Co  Co2  1  0.58715400  0.58715400  0.58715400  1
  Co  Co3  1  0.41284600  0.41284600  0.41284600  1
  Co  Co4  1  0.50000000  0.50000000  0.50000000  1
  Co  Co5  1  -0.00000000  0.50000000  0.50000000  1
  Co  Co6  1  0.50000000  -0.00000000  0.50000000  1
  Co  Co7  1  0.50000000  0.50000000  -0.00000000  1
  Co  Co8  1  -0.00000000  -0.00000000  -0.00000000  1
  O  O0  1  0.39523856  0.84249301  0.39523856  1
  O  O1  1  0.39523856  0.39523856  0.84249301  1
  O  O2  1  0.84249301  0.39523856  0.39523856  1
  O  O3  1  0.60476144  0.60476144  0.15750699  1
  O  O4  1  0.15750699  0.60476144  0.60476144  1
  O  O5  1  0.60476144  0.15750699  0.60476144  1
  O  O6  1  0.29902463  0.29902463  0.29902463  1
  O  O7  1  0.70097537  0.70097537  0.70097537  1
  O  O8  1  0.78319077  0.78319077  0.32218467  1
  O  O9  1  0.32218467  0.78319077  0.78319077  1
  O  O10  1  0.78319077  0.32218467  0.78319077  1
  O  O11  1  0.67781533  0.21680923  0.21680923  1
  O  O12  1  0.21680923  0.21680923  0.67781533  1
  O  O13  1  0.21680923  0.67781533  0.21680923  1
loop_
_geom_bond_atom_site_label_1
_geom_bond_atom_site_label_2
_geom_bond_distance
_geom_bond_site_symmetry_2
Ba0 O0 2.856011 1_556
Ba0 O2 2.856011 1_556
Ba0 O0 2.856011 1_655
Ba0 O2 2.856011 1_565
Ba0 O1 2.856011 1_655
Ba0 O1 2.856011 1_565
Ba0 O8 2.879261 1_556
Ba0 O9 2.879262 1_655
Ba0 O10 2.879262 1_565
Ba1 O4 2.856011 1_554
Ba1 O5 2.856011 1_554
Ba1 O5 2.856011 1_455
Ba1 O4 2.856011 1_545
Ba1 O3 2.856011 1_455
Ba1 O3 2.856011 1_545
Ba1 O12 2.879261 1_554
Ba1 O13 2.879262 1_545
Ba1 O11 2.879262 1_455
Co0 O1 1.915984 1_554
Co0 O2 1.915984 1_455
Co0 O0 1.915984 1_545
Co0 O6 1.920550 1_555
Co1 O3 1.915984 1_556
Co1 O5 1.915984 1_565
Co1 O4 1.915984 1_655
Co1 O7 1.920550 1_555
Co2 O1 1.917318 1_555
Co2 O2 1.917318 1_555
Co2 O0 1.917318 1_555
Co2 O8 1.943789 1_555
Co2 O9 1.943789 1_555
Co2 O10 1.943789 1_555
Co3 O3 1.917318 1_555
Co3 O5 1.917318 1_555
Co3 O4 1.917318 1_555
Co3 O12 1.943789 1_555
Co3 O11 1.943789 1_555
Co3 O13 1.943789 1_555
Co4 O3 1.945176 1_555
Co4 O1 1.945176 1_555
Co4 O5 1.945176 1_555
Co4 O0 1.945176 1_555
Co4 O2 1.945176 1_555
Co4 O4 1.945176 1_555
Co5 O10 1.909251 1_455
Co5 O13 1.909251 1_555
Co5 O8 1.909251 1_455
Co5 O12 1.909251 1_555
Co5 O7 1.916158 1_455
Co5 O6 1.916158 1_555
Co6 O9 1.909251 1_545
Co6 O11 1.909251 1_555
Co6 O8 1.909251 1_545
Co6 O12 1.909251 1_555
Co6 O7 1.916158 1_545
Co6 O6 1.916158 1_555
Co7 O9 1.909251 1_554
Co7 O10 1.909251 1_554
Co7 O11 1.909251 1_555
Co7 O13 1.909251 1_555
Co7 O7 1.916158 1_554
Co7 O6 1.916158 1_555
Co8 O12 2.067972 1_554
Co8 O8 2.067972 1_445
Co8 O10 2.067972 1_454
Co8 O9 2.067972 1_544
Co8 O13 2.067972 1_545
Co8 O11 2.067972 1_455
