# generated using pymatgen
data_CaAu5
_symmetry_space_group_name_H-M   'P 1'
_cell_length_a   5.51520958
_cell_length_b   5.51521025
_cell_length_c   5.51520887
_cell_angle_alpha   59.99998984
_cell_angle_beta   59.99998577
_cell_angle_gamma   59.99998029
_symmetry_Int_Tables_number   1
_chemical_formula_structural   CaAu5
_chemical_formula_sum   'Ca1 Au5'
_cell_volume   118.62354977
_cell_formula_units_Z   1
loop_
 _symmetry_equiv_pos_site_id
 _symmetry_equiv_pos_as_xyz
  1  'x, y, z'
loop_
 _atom_site_type_symbol
 _atom_site_label
 _atom_site_symmetry_multiplicity
 _atom_site_fract_x
 _atom_site_fract_y
 _atom_site_fract_z
 _atom_site_occupancy
  Ca  Ca0  1  0.00000000  -0.00000000  0.00000000  1
  Au  Au0  1  0.62478136  0.62478136  0.12565491  1
  Au  Au1  1  0.12565491  0.62478136  0.62478136  1
  Au  Au2  1  0.25000000  0.25000000  0.25000000  1
  Au  Au3  1  0.62478136  0.12565491  0.62478136  1
  Au  Au4  1  0.62478136  0.62478136  0.62478136  1
loop_
_geom_bond_atom_site_label_1
_geom_bond_atom_site_label_2
_geom_bond_distance
_geom_bond_site_symmetry_2
Au0 Au1 2.752786 1_555
Au0 Au3 2.752787 1_555
Au0 Au4 2.752787 1_555
Au0 Au1 2.762422 1_654
Au0 Au3 2.762422 1_564
Au0 Au4 2.762422 1_554
Au0 Au2 3.233063 1_555
Au0 Au2 3.233067 1_655
Au0 Au2 3.233067 1_565
Au0 Ca0 3.234091 1_565
Au0 Ca0 3.234091 1_655
Au0 Ca0 3.234097 1_665
Au1 Au3 2.752786 1_555
Au1 Au4 2.752787 1_555
Au1 Au3 2.762422 1_465
Au1 Au4 2.762423 1_455
Au1 Au2 3.233063 1_555
Au1 Au2 3.233067 1_556
Au1 Au2 3.233068 1_565
Au1 Ca0 3.234091 1_565
Au1 Ca0 3.234091 1_556
Au1 Ca0 3.234096 1_566
Au2 Au3 3.233063 1_555
Au2 Au4 3.233064 1_455
Au2 Au4 3.233065 1_545
Au2 Au4 3.233065 1_554
Au2 Au3 3.233067 1_554
Au2 Au3 3.233067 1_455
Au2 Ca0 3.377361 1_556
Au2 Ca0 3.377362 1_655
Au2 Ca0 3.377362 1_565
Au2 Ca0 3.377363 1_555
Au3 Au4 2.752787 1_555
Au3 Au4 2.762423 1_545
Au3 Ca0 3.234091 1_655
Au3 Ca0 3.234091 1_556
Au3 Ca0 3.234096 1_656
Au4 Ca0 3.234093 1_566
Au4 Ca0 3.234093 1_656
Au4 Ca0 3.234093 1_665
