# generated using pymatgen
data_Ca4Bi2O
_symmetry_space_group_name_H-M   'P 1'
_cell_length_a   4.75323255
_cell_length_b   4.75323248
_cell_length_c   8.92593754
_cell_angle_alpha   105.44180655
_cell_angle_beta   105.44180495
_cell_angle_gamma   90.00000139
_symmetry_Int_Tables_number   1
_chemical_formula_structural   Ca4Bi2O
_chemical_formula_sum   'Ca4 Bi2 O1'
_cell_volume   186.82250515
_cell_formula_units_Z   1
loop_
 _symmetry_equiv_pos_site_id
 _symmetry_equiv_pos_as_xyz
  1  'x, y, z'
loop_
 _atom_site_type_symbol
 _atom_site_label
 _atom_site_symmetry_multiplicity
 _atom_site_fract_x
 _atom_site_fract_y
 _atom_site_fract_z
 _atom_site_occupancy
  Ca  Ca0  1  0.33727765  0.33727765  0.67455729  1
  Ca  Ca1  1  0.00000100  0.50000100  0.00000200  1
  Ca  Ca2  1  0.66272135  0.66272135  0.32544271  1
  Ca  Ca3  1  0.49999900  0.99999900  0.99999800  1
  Bi  Bi0  1  0.14075692  0.14075692  0.28151585  1
  Bi  Bi1  1  0.85924308  0.85924308  0.71848415  1
  O  O0  1  0.50000000  0.50000000  0.00000000  1
loop_
_geom_bond_atom_site_label_1
_geom_bond_atom_site_label_2
_geom_bond_distance
_geom_bond_site_symmetry_2
Ca0 O0 2.691074 1_556
Ca1 O0 2.376616 1_555
Ca1 O0 2.376616 1_455
Ca2 O0 2.691074 1_555
Ca3 O0 2.376616 1_556
Ca3 O0 2.376616 1_566
Bi0 Ca0 3.250045 1_555
Bi0 Ca1 3.326720 1_545
Bi0 Ca1 3.326726 1_555
Bi0 Ca3 3.326743 1_444
Bi0 Ca3 3.326750 1_544
Bi0 Ca2 3.380606 1_445
Bi0 Ca2 3.380613 1_455
Bi0 Ca2 3.380613 1_545
Bi0 Ca2 3.380620 1_555
Bi1 Ca2 3.250045 1_555
Bi1 Ca3 3.326720 1_655
Bi1 Ca3 3.326726 1_555
Bi1 Ca1 3.326743 1_666
Bi1 Ca1 3.326750 1_656
Bi1 Ca0 3.380600 1_665
Bi1 Ca0 3.380613 1_655
Bi1 Ca0 3.380613 1_565
Bi1 Ca0 3.380627 1_555
