# generated using pymatgen
data_Fe2Mo4O7
_symmetry_space_group_name_H-M   'P 1'
_cell_length_a   9.97447020
_cell_length_b   9.97447020
_cell_length_c   6.23892533
_cell_angle_alpha   72.08920901
_cell_angle_beta   72.08920901
_cell_angle_gamma   36.92218710
_symmetry_Int_Tables_number   1
_chemical_formula_structural   Fe2Mo4O7
_chemical_formula_sum   'Fe4 Mo8 O14'
_cell_volume   352.73724694
_cell_formula_units_Z   2
loop_
 _symmetry_equiv_pos_site_id
 _symmetry_equiv_pos_as_xyz
  1  'x, y, z'
loop_
 _atom_site_type_symbol
 _atom_site_label
 _atom_site_symmetry_multiplicity
 _atom_site_fract_x
 _atom_site_fract_y
 _atom_site_fract_z
 _atom_site_occupancy
  Fe  Fe0  1  0.30708400  0.30708400  0.94083600  1
  Fe  Fe1  1  0.69291600  0.69291600  0.05916400  1
  Fe  Fe2  1  0.00000000  0.50000000  0.50000000  1
  Fe  Fe3  1  0.50000000  0.00000000  0.50000000  1
  Mo  Mo0  1  0.87479100  0.87479100  0.63619800  1
  Mo  Mo1  1  0.87424500  0.87424500  0.11792600  1
  Mo  Mo2  1  0.12520900  0.12520900  0.36380200  1
  Mo  Mo3  1  0.12575500  0.12575500  0.88207400  1
  Mo  Mo4  1  0.25650300  0.74223900  0.25135400  1
  Mo  Mo5  1  0.74349700  0.25776100  0.74864600  1
  Mo  Mo6  1  0.25776100  0.74349700  0.74864600  1
  Mo  Mo7  1  0.74223900  0.25650300  0.25135400  1
  O  O0  1  0.24226100  0.24226100  0.73183700  1
  O  O1  1  0.75873100  0.75873100  0.72884800  1
  O  O2  1  0.75773900  0.75773900  0.26816300  1
  O  O3  1  0.24126900  0.24126900  0.27115200  1
  O  O4  1  0.66814700  0.09288100  0.37883700  1
  O  O5  1  0.33185300  0.90711900  0.62116300  1
  O  O6  1  0.90711900  0.33185300  0.62116300  1
  O  O7  1  0.09288100  0.66814700  0.37883700  1
  O  O8  1  0.87969500  0.36231400  0.13928400  1
  O  O9  1  0.12030500  0.63768600  0.86071600  1
  O  O10  1  0.63768600  0.12030500  0.86071600  1
  O  O11  1  0.36231400  0.87969500  0.13928400  1
  O  O12  1  0.50000000  0.50000000  0.50000000  1
  O  O13  1  0.50000000  0.50000000  0.00000000  1
loop_
_geom_bond_atom_site_label_1
_geom_bond_atom_site_label_2
_geom_bond_distance
_geom_bond_site_symmetry_2
Fe0 O3 2.033152 1_556
Fe0 O0 2.059589 1_555
Fe0 O9 2.081077 1_555
Fe0 O10 2.081077 1_555
Fe1 O1 2.033152 1_554
Fe1 O2 2.059589 1_555
Fe1 O8 2.081077 1_555
Fe1 O11 2.081077 1_555
Fe2 O0 2.114302 1_555
Fe2 O2 2.114302 1_455
Fe2 O3 2.170905 1_555
Fe2 O1 2.170905 1_455
Fe2 O6 2.348716 1_455
Fe2 O7 2.348716 1_555
Fe3 O0 2.114302 1_555
Fe3 O2 2.114302 1_545
Fe3 O3 2.170905 1_555
Fe3 O1 2.170905 1_545
Fe3 O5 2.348716 1_545
Fe3 O4 2.348716 1_555
Mo0 O4 2.068046 1_565
Mo0 O7 2.068046 1_655
Mo0 O1 2.081813 1_555
Mo0 O9 2.089110 1_655
Mo0 O10 2.089110 1_565
Mo1 O2 2.097321 1_555
Mo1 O4 2.142134 1_565
Mo1 O7 2.142134 1_655
Mo1 O9 2.193931 1_654
Mo1 O10 2.193931 1_564
Mo2 O5 2.068046 1_545
Mo2 O6 2.068046 1_455
Mo2 O3 2.081813 1_555
Mo2 O8 2.089110 1_455
Mo2 O11 2.089110 1_545
Mo3 O0 2.097321 1_555
Mo3 O5 2.142134 1_545
Mo3 O6 2.142134 1_455
Mo3 O11 2.193931 1_546
Mo3 O8 2.193931 1_456
Mo4 O7 2.147293 1_555
Mo4 O11 2.180063 1_555
Mo4 O12 2.184580 1_555
Mo4 O13 2.191122 1_555
Mo5 O6 2.147293 1_555
Mo5 O10 2.180063 1_555
Mo5 O12 2.184580 1_555
Mo5 O13 2.191122 1_556
Mo6 O5 2.147293 1_555
Mo6 O9 2.180063 1_555
Mo6 O12 2.184580 1_555
Mo6 O13 2.191122 1_556
Mo7 O4 2.147293 1_555
Mo7 O8 2.180063 1_555
Mo7 O12 2.184580 1_555
Mo7 O13 2.191122 1_555
