# generated using pymatgen
data_KPr(PO3)4
_symmetry_space_group_name_H-M   'P 1'
_cell_length_a   7.34127317
_cell_length_b   7.34127257
_cell_length_c   10.64866388
_cell_angle_alpha   100.75378612
_cell_angle_beta   100.75378464
_cell_angle_gamma   115.12911465
_symmetry_Int_Tables_number   1
_chemical_formula_structural   KPr(PO3)4
_chemical_formula_sum   'K2 Pr2 P8 O24'
_cell_volume   487.12901336
_cell_formula_units_Z   2
loop_
 _symmetry_equiv_pos_site_id
 _symmetry_equiv_pos_as_xyz
  1  'x, y, z'
loop_
 _atom_site_type_symbol
 _atom_site_label
 _atom_site_symmetry_multiplicity
 _atom_site_fract_x
 _atom_site_fract_y
 _atom_site_fract_z
 _atom_site_occupancy
  K  K0  1  0.68333775  0.31666225  0.25000000  1
  K  K1  1  0.31666225  0.68333775  0.75000000  1
  Pr  Pr0  1  0.62001858  0.37998142  0.75000000  1
  Pr  Pr1  1  0.37998142  0.62001858  0.25000000  1
  P  P0  1  0.21255258  0.86917839  0.50188584  1
  P  P1  1  0.13082161  0.78744742  0.99811416  1
  P  P2  1  0.78744742  0.13082161  0.49811416  1
  P  P3  1  0.86917839  0.21255258  0.00188584  1
  P  P4  1  0.19352353  0.23711433  0.43959884  1
  P  P5  1  0.76288567  0.80647647  0.06040116  1
  P  P6  1  0.80647647  0.76288567  0.56040116  1
  P  P7  1  0.23711433  0.19352353  0.93959884  1
  O  O0  1  0.19154451  0.68095799  0.40634789  1
  O  O1  1  0.31904201  0.80845549  0.09365211  1
  O  O2  1  0.80845549  0.31904201  0.59365211  1
  O  O3  1  0.68095799  0.19154451  0.90634789  1
  O  O4  1  0.14452100  0.99677213  0.41631648  1
  O  O5  1  0.00322787  0.85547900  0.08368352  1
  O  O6  1  0.85547900  0.00322787  0.58368352  1
  O  O7  1  0.99677213  0.14452100  0.91631648  1
  O  O8  1  0.41229026  0.00489680  0.61244787  1
  O  O9  1  0.99510320  0.58770974  0.88755213  1
  O  O10  1  0.58770974  0.99510320  0.38755213  1
  O  O11  1  0.00489680  0.41229026  0.11244787  1
  O  O12  1  0.03589377  0.78644720  0.57601531  1
  O  O13  1  0.21355280  0.96410623  0.92398469  1
  O  O14  1  0.96410623  0.21355280  0.42398469  1
  O  O15  1  0.78644720  0.03589377  0.07601531  1
  O  O16  1  0.32974681  0.36126067  0.57929769  1
  O  O17  1  0.63873933  0.67025319  0.92070231  1
  O  O18  1  0.67025319  0.63873933  0.42070231  1
  O  O19  1  0.36126067  0.32974681  0.07929769  1
  O  O20  1  0.25682852  0.30208795  0.32507965  1
  O  O21  1  0.69791205  0.74317148  0.17492035  1
  O  O22  1  0.74317148  0.69791205  0.67492035  1
  O  O23  1  0.30208795  0.25682852  0.82507965  1
loop_
_geom_bond_atom_site_label_1
_geom_bond_atom_site_label_2
_geom_bond_distance
_geom_bond_site_symmetry_2
K0 O18 2.749226 1_555
K0 O19 2.749226 1_555
K0 O10 2.911627 1_545
K0 O11 2.911627 1_655
K0 O15 2.945748 1_555
K0 O14 2.945748 1_555
K1 O16 2.749226 1_555
K1 O17 2.749226 1_555
K1 O8 2.911627 1_565
K1 O9 2.911627 1_455
K1 O13 2.945748 1_555
K1 O12 2.945748 1_555
O0 P0 1.484572 1_555
O0 Pr1 2.448038 1_555
O1 P1 1.484572 1_554
O1 Pr1 2.448037 1_555
O2 P2 1.484572 1_555
O2 Pr0 2.448038 1_555
O3 P3 1.484572 1_556
O3 Pr0 2.448037 1_555
O4 P0 1.582134 1_555
O4 P4 1.602633 1_565
O5 P1 1.582134 1_554
O5 P5 1.602633 1_455
O6 P2 1.582134 1_555
O6 P6 1.602633 1_545
O7 P3 1.582134 1_556
O7 P7 1.602633 1_655
O8 P0 1.485304 1_545
O8 Pr0 2.479554 1_555
O9 P1 1.485304 1_655
O9 Pr0 2.479554 1_555
O10 P2 1.485304 1_565
O10 Pr1 2.479554 1_555
O11 P3 1.485304 1_455
O11 Pr1 2.479554 1_555
O12 P6 1.591064 1_455
O12 P0 1.601847 1_555
O13 P7 1.591064 1_565
O13 P1 1.601847 1_555
O14 P4 1.591064 1_655
O14 P2 1.601847 1_555
O15 P5 1.591064 1_545
O15 P3 1.601847 1_555
O16 P4 1.486098 1_555
O16 Pr0 2.465081 1_555
O17 P5 1.486098 1_556
O17 Pr0 2.465081 1_555
O18 P6 1.486098 1_555
O18 Pr1 2.465081 1_555
O19 P7 1.486098 1_554
O19 Pr1 2.465081 1_555
O20 P4 1.473402 1_555
O20 Pr1 2.465382 1_555
O21 P5 1.473402 1_555
O21 Pr1 2.465383 1_555
O22 P6 1.473402 1_555
O22 Pr0 2.465382 1_555
O23 P7 1.473402 1_555
O23 Pr0 2.465383 1_555
