# generated using pymatgen
data_Ag2B8O13
_symmetry_space_group_name_H-M   'P 1'
_cell_length_a   8.69355078
_cell_length_b   6.55518475
_cell_length_c   17.48214490
_cell_angle_alpha   89.44177582
_cell_angle_beta   90.00000000
_cell_angle_gamma   90.00000000
_symmetry_Int_Tables_number   1
_chemical_formula_structural   Ag2B8O13
_chemical_formula_sum   'Ag8 B32 O52'
_cell_volume   996.22224340
_cell_formula_units_Z   4
loop_
 _symmetry_equiv_pos_site_id
 _symmetry_equiv_pos_as_xyz
  1  'x, y, z'
loop_
 _atom_site_type_symbol
 _atom_site_label
 _atom_site_symmetry_multiplicity
 _atom_site_fract_x
 _atom_site_fract_y
 _atom_site_fract_z
 _atom_site_occupancy
  Ag  Ag0  1  0.97995090  0.93049359  0.61634254  1
  Ag  Ag1  1  0.05657629  0.47061796  0.90423772  1
  Ag  Ag2  1  0.44342371  0.47061796  0.40423772  1
  Ag  Ag3  1  0.47995090  0.06950641  0.88365746  1
  Ag  Ag4  1  0.52004910  0.93049359  0.11634254  1
  Ag  Ag5  1  0.94342371  0.52938204  0.09576228  1
  Ag  Ag6  1  0.02004910  0.06950641  0.38365746  1
  Ag  Ag7  1  0.55657629  0.52938204  0.59576228  1
  B  B0  1  0.82158230  0.02987536  0.23080021  1
  B  B1  1  0.62514494  0.99134352  0.59184149  1
  B  B2  1  0.08106088  0.97271547  0.18805521  1
  B  B3  1  0.72825527  0.23560764  0.49700049  1
  B  B4  1  0.67841770  0.02987536  0.73080021  1
  B  B5  1  0.27174473  0.76439236  0.50299951  1
  B  B6  1  0.12514494  0.00865648  0.90815851  1
  B  B7  1  0.37485506  0.00865648  0.40815851  1
  B  B8  1  0.75370773  0.53763148  0.76772869  1
  B  B9  1  0.19669668  0.46248888  0.59279792  1
  B  B10  1  0.25370773  0.46236852  0.73227131  1
  B  B11  1  0.69669668  0.53751112  0.90720208  1
  B  B12  1  0.80330332  0.53751112  0.40720208  1
  B  B13  1  0.27463213  0.12497007  0.01933962  1
  B  B14  1  0.58106088  0.02728453  0.31194479  1
  B  B15  1  0.22536787  0.12497007  0.51933962  1
  B  B16  1  0.17841770  0.97012464  0.76919979  1
  B  B17  1  0.87485506  0.99134352  0.09184149  1
  B  B18  1  0.22825527  0.76439236  0.00299951  1
  B  B19  1  0.24629227  0.46236852  0.23227131  1
  B  B20  1  0.50387446  0.51625582  0.18863385  1
  B  B21  1  0.77174473  0.23560764  0.99700049  1
  B  B22  1  0.74629227  0.53763148  0.26772869  1
  B  B23  1  0.00387446  0.48374418  0.31136615  1
  B  B24  1  -0.00387446  0.51625582  0.68863385  1
  B  B25  1  0.30330332  0.46248888  0.09279792  1
  B  B26  1  0.77463213  0.87502993  0.48066038  1
  B  B27  1  0.49612554  0.48374418  0.81136615  1
  B  B28  1  0.32158230  0.97012464  0.26919979  1
  B  B29  1  0.91893912  0.02728453  0.81194479  1
  B  B30  1  0.72536787  0.87502993  0.98066038  1
  B  B31  1  0.41893912  0.97271547  0.68805521  1
  O  O0  1  0.84215280  0.53693899  0.70291629  1
  O  O1  1  0.76743379  0.05946663  0.79412501  1
  O  O2  1  0.82058087  0.83130794  0.04081228  1
  O  O3  1  0.59606203  0.53664430  0.75244300  1
  O  O4  1  0.73185460  0.99615163  0.65977479  1
  O  O5  1  0.76814540  0.99615163  0.15977479  1
  O  O6  1  0.54910473  0.44877198  0.88294065  1
  O  O7  1  0.27103450  0.57381781  0.53170479  1
  O  O8  1  0.97930355  0.03498751  0.24467417  1
  O  O9  1  0.46935609  0.94036659  0.61646882  1
  O  O10  1  0.32058087  0.16869206  0.45918772  1
  O  O11  1  0.69332296  0.54104955  0.34012902  1
  O  O12  1  0.82306337  0.07982567  0.47113063  1
  O  O13  1  0.77103450  0.42618219  0.96829521  1
  O  O14  1  0.03064391  0.94036659  0.11646882  1
  O  O15  1  0.23256621  0.94053337  0.20587499  1
  O  O16  1  0.67693663  0.07982567  0.97113063  1
  O  O17  1  0.26743379  0.94053337  0.70587499  1
  O  O18  1  0.19332296  0.45895045  0.15987098  1
  O  O19  1  0.15784720  0.46306101  0.29708371  1
  O  O20  1  0.17941913  0.16869206  0.95918772  1
  O  O21  1  0.26814540  0.00384837  0.34022521  1
  O  O22  1  0.65784720  0.53693899  0.20291629  1
  O  O23  1  0.66673933  0.74682073  0.92927306  1
  O  O24  1  0.40393797  0.46335570  0.24755700  1
  O  O25  1  0.80667704  0.54104955  0.84012902  1
  O  O26  1  0.37068640  0.80755190  0.44418478  1
  O  O27  1  0.33326067  0.25317927  0.07072694  1
  O  O28  1  0.09606203  0.46335570  0.74755700  1
  O  O29  1  0.83326067  0.74682073  0.42927306  1
  O  O30  1  0.47930355  0.96501249  0.25532583  1
  O  O31  1  0.12931360  0.80755190  0.94418478  1
  O  O32  1  0.17693663  0.92017433  0.52886937  1
  O  O33  1  0.95089527  0.44877198  0.38294065  1
  O  O34  1  0.02069645  0.96501249  0.75532583  1
  O  O35  1  0.53064391  0.05963341  0.38353118  1
  O  O36  1  0.04910473  0.55122802  0.61705935  1
  O  O37  1  0.62931360  0.19244810  0.55581522  1
  O  O38  1  0.67941913  0.83130794  0.54081228  1
  O  O39  1  0.22896550  0.57381781  0.03170479  1
  O  O40  1  0.16673933  0.25317927  0.57072694  1
  O  O41  1  0.30667704  0.45895045  0.65987098  1
  O  O42  1  0.72896550  0.42618219  0.46829521  1
  O  O43  1  0.52069645  0.03498751  0.74467417  1
  O  O44  1  0.87068640  0.19244810  0.05581522  1
  O  O45  1  0.96935609  0.05963341  0.88353118  1
  O  O46  1  0.45089527  0.55122802  0.11705935  1
  O  O47  1  0.32306337  0.92017433  0.02886937  1
  O  O48  1  0.34215280  0.46306101  0.79708371  1
  O  O49  1  0.73256621  0.05946663  0.29412501  1
  O  O50  1  0.90393797  0.53664430  0.25244300  1
  O  O51  1  0.23185460  0.00384837  0.84022521  1
loop_
_geom_bond_atom_site_label_1
_geom_bond_atom_site_label_2
_geom_bond_distance
_geom_bond_site_symmetry_2
Ag0 O32 2.297341 1_655
Ag0 O4 2.328107 1_555
Ag0 O34 2.467986 1_655
Ag0 O36 2.557724 1_655
Ag1 O31 2.407451 1_555
Ag1 O20 2.437917 1_555
Ag1 O25 2.485756 1_455
Ag1 O13 2.737655 1_455
Ag1 O28 2.761412 1_555
Ag1 O39 2.774671 1_556
Ag1 O45 2.825430 1_455
Ag2 O26 2.407451 1_555
Ag2 O10 2.437917 1_555
Ag2 O11 2.485756 1_555
Ag2 O42 2.737655 1_555
Ag2 O24 2.761412 1_555
Ag2 O7 2.774671 1_555
Ag2 O35 2.825430 1_555
Ag3 O16 2.297341 1_555
Ag3 O51 2.328107 1_555
Ag3 O43 2.467986 1_555
Ag3 O6 2.557724 1_555
Ag4 O47 2.297341 1_555
Ag4 O5 2.328107 1_555
Ag4 O30 2.467986 1_555
Ag4 O46 2.557724 1_555
Ag5 O44 2.407451 1_555
Ag5 O2 2.437917 1_555
Ag5 O18 2.485756 1_655
Ag5 O39 2.737655 1_655
Ag5 O50 2.761412 1_555
Ag5 O13 2.774671 1_554
Ag5 O14 2.825430 1_655
Ag6 O12 2.297341 1_455
Ag6 O21 2.328107 1_555
Ag6 O8 2.467986 1_455
Ag6 O33 2.557724 1_455
Ag7 O37 2.407451 1_555
Ag7 O38 2.437917 1_555
Ag7 O41 2.485756 1_555
Ag7 O7 2.737655 1_555
Ag7 O3 2.761412 1_555
Ag7 O42 2.774671 1_555
Ag7 O9 2.825430 1_555
B0 O5 1.346028 1_545
B0 O49 1.366106 1_555
B0 O8 1.392905 1_555
B1 O37 1.455905 1_565
B1 O9 1.458942 1_555
B1 O38 1.461930 1_555
B1 O4 1.507569 1_555
B2 O14 1.344789 1_555
B2 O15 1.369334 1_555
B2 O8 1.391698 1_465
B3 O42 1.341747 1_555
B3 O37 1.368010 1_555
B3 O12 1.391288 1_555
B4 O4 1.346028 1_545
B4 O1 1.366106 1_555
B4 O43 1.392905 1_555
B5 O7 1.341747 1_555
B5 O26 1.368010 1_555
B5 O32 1.391288 1_555
B6 O31 1.455905 1_545
B6 O45 1.458942 1_455
B6 O20 1.461930 1_555
B6 O51 1.507569 1_555
B7 O26 1.455905 1_545
B7 O35 1.458942 1_555
B7 O10 1.461930 1_555
B7 O21 1.507569 1_555
B8 O25 1.347270 1_555
B8 O0 1.369363 1_555
B8 O3 1.396337 1_555
B9 O7 1.440747 1_555
B9 O40 1.452439 1_555
B9 O36 1.472896 1_555
B9 O41 1.512984 1_555
B10 O41 1.347270 1_555
B10 O48 1.369363 1_555
B10 O28 1.396337 1_555
B11 O13 1.440747 1_555
B11 O23 1.452439 1_555
B11 O6 1.472896 1_555
B11 O25 1.512984 1_555
B12 O42 1.440747 1_555
B12 O29 1.452439 1_555
B12 O33 1.472896 1_555
B12 O11 1.512984 1_555
B13 O27 1.337116 1_555
B13 O20 1.366474 1_554
B13 O47 1.415241 1_545
B14 O35 1.344789 1_555
B14 O49 1.369334 1_555
B14 O30 1.391698 1_545
B15 O40 1.337116 1_555
B15 O10 1.366474 1_555
B15 O32 1.415241 1_545
B16 O51 1.346028 1_565
B16 O17 1.366106 1_555
B16 O34 1.392905 1_555
B17 O44 1.455905 1_565
B17 O14 1.458942 1_655
B17 O2 1.461930 1_555
B17 O5 1.507569 1_555
B18 O39 1.341747 1_555
B18 O31 1.368010 1_554
B18 O47 1.391288 1_555
B19 O18 1.347270 1_555
B19 O19 1.369363 1_555
B19 O24 1.396337 1_555
B20 O46 1.350847 1_555
B20 O22 1.368633 1_555
B20 O24 1.388964 1_555
B21 O13 1.341747 1_555
B21 O44 1.368010 1_556
B21 O16 1.391288 1_555
B22 O11 1.347270 1_555
B22 O22 1.369363 1_555
B22 O50 1.396337 1_555
B23 O33 1.350847 1_455
B23 O19 1.368633 1_555
B23 O50 1.388964 1_455
B24 O36 1.350847 1_555
B24 O0 1.368633 1_455
B24 O28 1.388964 1_555
B25 O39 1.440747 1_555
B25 O27 1.452439 1_555
B25 O46 1.472896 1_555
B25 O18 1.512984 1_555
B26 O29 1.337116 1_555
B26 O38 1.366474 1_555
B26 O12 1.415241 1_565
B27 O6 1.350847 1_555
B27 O48 1.368633 1_555
B27 O3 1.388964 1_555
B28 O21 1.346028 1_565
B28 O15 1.366106 1_555
B28 O30 1.392905 1_555
B29 O45 1.344789 1_555
B29 O1 1.369334 1_555
B29 O34 1.391698 1_645
B30 O23 1.337116 1_555
B30 O2 1.366474 1_556
B30 O16 1.415241 1_565
B31 O9 1.344789 1_555
B31 O17 1.369334 1_555
B31 O43 1.391698 1_565
