# generated using pymatgen
data_RbHo(PO3)4
_symmetry_space_group_name_H-M   'P 1'
_cell_length_a   8.95727100
_cell_length_b   10.38659400
_cell_length_c   12.87860859
_cell_angle_alpha   55.59344269
_cell_angle_beta   90.00000000
_cell_angle_gamma   90.00000000
_symmetry_Int_Tables_number   1
_chemical_formula_structural   RbHo(PO3)4
_chemical_formula_sum   'Rb4 Ho4 P16 O48'
_cell_volume   988.54733311
_cell_formula_units_Z   4
loop_
 _symmetry_equiv_pos_site_id
 _symmetry_equiv_pos_as_xyz
  1  'x, y, z'
loop_
 _atom_site_type_symbol
 _atom_site_label
 _atom_site_symmetry_multiplicity
 _atom_site_fract_x
 _atom_site_fract_y
 _atom_site_fract_z
 _atom_site_occupancy
  Rb  Rb0  1  0.43362000  0.26683300  0.54225600  1
  Rb  Rb1  1  0.06638000  0.26683300  0.04225600  1
  Rb  Rb2  1  0.56638000  0.73316700  0.45774400  1
  Rb  Rb3  1  0.93362000  0.73316700  0.95774400  1
  Ho  Ho0  1  0.72691200  0.18346700  0.81812600  1
  Ho  Ho1  1  0.77308800  0.18346700  0.31812600  1
  Ho  Ho2  1  0.27308800  0.81653300  0.18187400  1
  Ho  Ho3  1  0.22691200  0.81653300  0.68187400  1
  P  P0  1  0.32877000  0.17484100  0.86566800  1
  P  P1  1  0.17123000  0.17484100  0.36566800  1
  P  P2  1  0.67123000  0.82515900  0.13433200  1
  P  P3  1  0.82877000  0.82515900  0.63433200  1
  P  P4  1  0.59187700  0.88862600  0.75835400  1
  P  P5  1  0.90812300  0.88862600  0.25835400  1
  P  P6  1  0.40812300  0.11137400  0.24164600  1
  P  P7  1  0.09187700  0.11137400  0.74164600  1
  P  P8  1  0.52502500  0.52520800  0.22146200  1
  P  P9  1  0.97497500  0.52520800  0.72146200  1
  P  P10  1  0.47497500  0.47479200  0.77853800  1
  P  P11  1  0.02502500  0.47479200  0.27853800  1
  P  P12  1  0.88961700  0.30151500  0.52347800  1
  P  P13  1  0.61038300  0.30151500  0.02347800  1
  P  P14  1  0.11038300  0.69848500  0.47652200  1
  P  P15  1  0.38961700  0.69848500  0.97652200  1
  O  O0  1  0.25659500  0.07043400  0.99204000  1
  O  O1  1  0.24340500  0.07043400  0.49204000  1
  O  O2  1  0.74340500  0.92956600  0.00796000  1
  O  O3  1  0.75659500  0.92956600  0.50796000  1
  O  O4  1  0.20884300  0.22129700  0.75467800  1
  O  O5  1  0.29115700  0.22129700  0.25467800  1
  O  O6  1  0.79115700  0.77870300  0.24532200  1
  O  O7  1  0.70884300  0.77870300  0.74532200  1
  O  O8  1  0.47210100  0.13160600  0.83293600  1
  O  O9  1  0.02789900  0.13160600  0.33293600  1
  O  O10  1  0.52789900  0.86839400  0.16706400  1
  O  O11  1  0.97210100  0.86839400  0.66706400  1
  O  O12  1  0.45852000  0.92430200  0.67562600  1
  O  O13  1  0.04148000  0.92430200  0.17562600  1
  O  O14  1  0.54148000  0.07569800  0.32437400  1
  O  O15  1  0.95852000  0.07569800  0.82437400  1
  O  O16  1  0.67698400  0.02051300  0.74604700  1
  O  O17  1  0.82301600  0.02051300  0.24604700  1
  O  O18  1  0.32301600  0.97948700  0.25395300  1
  O  O19  1  0.17698400  0.97948700  0.75395300  1
  O  O20  1  0.41426200  0.57162700  0.28272000  1
  O  O21  1  0.08573800  0.57162700  0.78272000  1
  O  O22  1  0.58573800  0.42837300  0.71728000  1
  O  O23  1  0.91426200  0.42837300  0.21728000  1
  O  O24  1  0.65741100  0.65492300  0.15740800  1
  O  O25  1  0.84258900  0.65492300  0.65740800  1
  O  O26  1  0.34258900  0.34507700  0.84259200  1
  O  O27  1  0.15741100  0.34507700  0.34259200  1
  O  O28  1  0.83262600  0.20205000  0.48194700  1
  O  O29  1  0.66737400  0.20205000  0.98194700  1
  O  O30  1  0.16737400  0.79795000  0.51805300  1
  O  O31  1  0.33262600  0.79795000  0.01805300  1
  O  O32  1  0.78767600  0.33712500  0.59686100  1
  O  O33  1  0.71232400  0.33712500  0.09686100  1
  O  O34  1  0.21232400  0.66287500  0.40313900  1
  O  O35  1  0.28767600  0.66287500  0.90313900  1
  O  O36  1  0.95206200  0.46203500  0.39975200  1
  O  O37  1  0.54793800  0.46203500  0.89975200  1
  O  O38  1  0.04793800  0.53796500  0.60024800  1
  O  O39  1  0.45206200  0.53796500  0.10024800  1
  O  O40  1  0.90579600  0.36656900  0.80170000  1
  O  O41  1  0.59420400  0.36656900  0.30170000  1
  O  O42  1  0.09420400  0.63343100  0.19830000  1
  O  O43  1  0.40579600  0.63343100  0.69830000  1
  O  O44  1  0.04774700  0.23442500  0.59638500  1
  O  O45  1  0.45225300  0.23442500  0.09638500  1
  O  O46  1  0.95225300  0.76557500  0.40361500  1
  O  O47  1  0.54774700  0.76557500  0.90361500  1
loop_
_geom_bond_atom_site_label_1
_geom_bond_atom_site_label_2
_geom_bond_distance
_geom_bond_site_symmetry_2
Ho0 O29 2.287590 1_555
Ho0 O8 2.328052 1_555
Ho0 O15 2.336985 1_555
Ho0 O2 2.380593 1_546
Ho0 O16 2.387880 1_555
Ho0 O40 2.402989 1_555
Ho0 O32 2.413268 1_555
Ho0 O22 2.454147 1_555
Ho1 O28 2.287590 1_555
Ho1 O9 2.328052 1_655
Ho1 O14 2.336985 1_555
Ho1 O3 2.380593 1_545
Ho1 O17 2.387880 1_555
Ho1 O41 2.402989 1_555
Ho1 O33 2.413268 1_555
Ho1 O23 2.454147 1_555
Ho2 O31 2.287590 1_555
Ho2 O10 2.328052 1_555
Ho2 O13 2.336985 1_555
Ho2 O0 2.380593 1_564
Ho2 O18 2.387880 1_555
Ho2 O42 2.402989 1_555
Ho2 O34 2.413268 1_555
Ho2 O20 2.454147 1_555
Ho3 O30 2.287590 1_555
Ho3 O11 2.328052 1_455
Ho3 O12 2.336985 1_555
Ho3 O1 2.380593 1_565
Ho3 O19 2.387880 1_555
Ho3 O43 2.402989 1_555
Ho3 O35 2.413268 1_555
Ho3 O21 2.454147 1_555
O0 P0 1.499374 1_555
O0 Rb1 2.995556 1_556
O1 P1 1.499374 1_555
O1 Rb0 2.995556 1_555
O2 P2 1.499374 1_555
O2 Rb3 2.995556 1_554
O3 P3 1.499374 1_555
O3 Rb2 2.995556 1_555
O4 P7 1.626631 1_555
O4 P0 1.628032 1_555
O4 Rb0 3.209241 1_555
O5 P6 1.626631 1_555
O5 P1 1.628032 1_555
O5 Rb1 3.209241 1_555
O6 P5 1.626631 1_555
O6 P2 1.628032 1_555
O6 Rb2 3.209241 1_555
O7 P4 1.626631 1_555
O7 P3 1.628032 1_555
O7 Rb3 3.209241 1_555
O8 P0 1.497188 1_555
O8 Rb0 3.188036 1_555
O9 P1 1.497188 1_555
O9 Rb1 3.188036 1_555
O10 P2 1.497188 1_555
O10 Rb2 3.188036 1_555
O11 P3 1.497188 1_555
O11 Rb3 3.188036 1_555
O12 P4 1.501043 1_555
O12 Rb0 2.958280 1_565
O13 P5 1.501043 1_455
O13 Rb1 2.958280 1_565
O14 P6 1.501043 1_555
O14 Rb2 2.958280 1_545
O15 P7 1.501043 1_655
O15 Rb3 2.958280 1_545
O16 P4 1.495794 1_545
O16 Rb0 3.255335 1_555
O17 P5 1.495794 1_545
O17 Rb1 3.255335 1_655
O18 P6 1.495794 1_565
O18 Rb2 3.255335 1_555
O19 P7 1.495794 1_565
O19 Rb3 3.255335 1_455
O20 P8 1.506332 1_555
O20 Rb0 3.043989 1_555
O21 P9 1.506332 1_455
O21 Rb1 3.043989 1_556
O22 P10 1.506332 1_555
O22 Rb2 3.043989 1_555
O23 P11 1.506332 1_655
O23 Rb3 3.043989 1_554
O24 P2 1.623644 1_555
O24 P8 1.626602 1_555
O24 Rb3 3.321435 1_554
O25 P3 1.623644 1_555
O25 P9 1.626602 1_555
O25 Rb2 3.321435 1_555
O26 P0 1.623644 1_555
O26 P10 1.626602 1_555
O26 Rb1 3.321435 1_556
O27 P1 1.623644 1_555
O27 P11 1.626602 1_555
O27 Rb0 3.321435 1_555
O28 P12 1.496142 1_555
O29 P13 1.496142 1_556
O30 P14 1.496142 1_555
O31 P15 1.496142 1_554
O32 P12 1.502921 1_555
O32 Rb0 3.415471 1_555
O33 P13 1.502921 1_555
O33 Rb1 3.415471 1_655
O34 P14 1.502921 1_555
O34 Rb2 3.415471 1_555
O35 P15 1.502921 1_555
O35 Rb3 3.415471 1_455
O36 P12 1.621499 1_555
O36 P11 1.627224 1_655
O37 P13 1.621499 1_556
O37 P10 1.627224 1_555
O38 P14 1.621499 1_555
O38 P9 1.627224 1_455
O39 P15 1.621499 1_554
O39 P8 1.627224 1_555
O40 P9 1.497510 1_555
O40 Rb1 3.018769 1_656
O41 P8 1.497510 1_555
O41 Rb0 3.018769 1_555
O42 P11 1.497510 1_555
O42 Rb3 3.018769 1_454
O43 P10 1.497510 1_555
O43 Rb2 3.018769 1_555
O44 P7 1.608533 1_555
O44 P12 1.622958 1_455
O45 P6 1.608533 1_555
O45 P13 1.622958 1_555
O46 P5 1.608533 1_555
O46 P14 1.622958 1_655
O47 P4 1.608533 1_555
O47 P15 1.622958 1_555
