# generated using pymatgen
data_BaSi2(BO4)2
_symmetry_space_group_name_H-M   'P 1'
_cell_length_a   8.26705000
_cell_length_b   8.31279300
_cell_length_c   9.15951300
_cell_angle_alpha   90.00000000
_cell_angle_beta   90.00000000
_cell_angle_gamma   90.00000000
_symmetry_Int_Tables_number   1
_chemical_formula_structural   BaSi2(BO4)2
_chemical_formula_sum   'Ba4 Si8 B8 O32'
_cell_volume   629.46257465
_cell_formula_units_Z   4
loop_
 _symmetry_equiv_pos_site_id
 _symmetry_equiv_pos_as_xyz
  1  'x, y, z'
loop_
 _atom_site_type_symbol
 _atom_site_label
 _atom_site_symmetry_multiplicity
 _atom_site_fract_x
 _atom_site_fract_y
 _atom_site_fract_z
 _atom_site_occupancy
  Ba  Ba0  1  0.75000000  0.60843500  0.91865000  1
  Ba  Ba1  1  0.25000000  0.39156500  0.08135000  1
  Ba  Ba2  1  0.75000000  0.10843500  0.58135000  1
  Ba  Ba3  1  0.25000000  0.89156500  0.41865000  1
  Si  Si0  1  0.43457700  0.92568800  0.81091200  1
  Si  Si1  1  0.06542300  0.92568800  0.81091200  1
  Si  Si2  1  0.93457700  0.07431200  0.18908800  1
  Si  Si3  1  0.56542300  0.07431200  0.18908800  1
  Si  Si4  1  0.56542300  0.57431200  0.31091200  1
  Si  Si5  1  0.93457700  0.57431200  0.31091200  1
  Si  Si6  1  0.43457700  0.42568800  0.68908800  1
  Si  Si7  1  0.06542300  0.42568800  0.68908800  1
  B  B0  1  0.91401500  0.22573600  0.90969200  1
  B  B1  1  0.08598500  0.27426400  0.40969200  1
  B  B2  1  0.41401500  0.77426400  0.09030800  1
  B  B3  1  0.91401500  0.72573600  0.59030800  1
  B  B4  1  0.41401500  0.27426400  0.40969200  1
  B  B5  1  0.58598500  0.72573600  0.59030800  1
  B  B6  1  0.08598500  0.77426400  0.09030800  1
  B  B7  1  0.58598500  0.22573600  0.90969200  1
  O  O0  1  0.75000000  0.78572100  0.61863600  1
  O  O1  1  0.25000000  0.71427900  0.11863600  1
  O  O2  1  0.97122700  0.64825600  0.14815900  1
  O  O3  1  0.95642800  0.21573200  0.06700100  1
  O  O4  1  0.06374200  0.92910600  0.16509500  1
  O  O5  1  0.97122700  0.14825600  0.35184100  1
  O  O6  1  0.75000000  0.50153800  0.31010100  1
  O  O7  1  0.02877300  0.35174400  0.85184100  1
  O  O8  1  0.47122700  0.35174400  0.85184100  1
  O  O9  1  0.93625800  0.07089400  0.83490500  1
  O  O10  1  0.02877300  0.85174400  0.64815900  1
  O  O11  1  0.54357200  0.21573200  0.06700100  1
  O  O12  1  0.25000000  0.21427900  0.38136400  1
  O  O13  1  0.45642800  0.28426800  0.56700100  1
  O  O14  1  0.06374200  0.42910600  0.33490500  1
  O  O15  1  0.43625800  0.92910600  0.16509500  1
  O  O16  1  0.52877300  0.14825600  0.35184100  1
  O  O17  1  0.56374200  0.57089400  0.66509500  1
  O  O18  1  0.75000000  0.28572100  0.88136400  1
  O  O19  1  0.04357200  0.28426800  0.56700100  1
  O  O20  1  0.56374200  0.07089400  0.83490500  1
  O  O21  1  0.75000000  0.00153800  0.18989900  1
  O  O22  1  0.93625800  0.57089400  0.66509500  1
  O  O23  1  0.45642800  0.78426800  0.93299900  1
  O  O24  1  0.25000000  0.99846200  0.81010100  1
  O  O25  1  0.04357200  0.78426800  0.93299900  1
  O  O26  1  0.43625800  0.42910600  0.33490500  1
  O  O27  1  0.95642800  0.71573200  0.43299900  1
  O  O28  1  0.47122700  0.85174400  0.64815900  1
  O  O29  1  0.52877300  0.64825600  0.14815900  1
  O  O30  1  0.25000000  0.49846200  0.68989900  1
  O  O31  1  0.54357200  0.71573200  0.43299900  1
loop_
_geom_bond_atom_site_label_1
_geom_bond_atom_site_label_2
_geom_bond_distance
_geom_bond_site_symmetry_2
Ba0 O18 2.704306 1_555
Ba0 O17 2.803946 1_555
Ba0 O22 2.803946 1_555
Ba0 O29 2.806000 1_556
Ba0 O2 2.806000 1_556
Ba0 O25 2.836184 1_655
Ba0 O23 2.836184 1_555
Ba0 O0 3.118224 1_555
Ba0 O7 3.199840 1_655
Ba0 O8 3.199840 1_555
Ba1 O1 2.704306 1_555
Ba1 O26 2.803946 1_555
Ba1 O14 2.803946 1_555
Ba1 O7 2.806000 1_554
Ba1 O8 2.806000 1_554
Ba1 O3 2.836184 1_455
Ba1 O11 2.836184 1_555
Ba1 O12 3.118224 1_555
Ba1 O29 3.199840 1_555
Ba1 O2 3.199840 1_455
Ba2 O0 2.704306 1_545
Ba2 O20 2.803946 1_555
Ba2 O9 2.803946 1_555
Ba2 O5 2.806000 1_555
Ba2 O16 2.806000 1_555
Ba2 O19 2.836184 1_655
Ba2 O13 2.836184 1_555
Ba2 O18 3.118224 1_555
Ba2 O10 3.199840 1_645
Ba2 O28 3.199840 1_545
Ba3 O12 2.704306 1_565
Ba3 O4 2.803946 1_555
Ba3 O15 2.803946 1_555
Ba3 O10 2.806000 1_555
Ba3 O28 2.806000 1_555
Ba3 O31 2.836184 1_555
Ba3 O27 2.836184 1_455
Ba3 O1 3.118224 1_555
Ba3 O16 3.199840 1_565
Ba3 O5 3.199840 1_465
B0 O18 1.467818 1_555
B0 O9 1.469646 1_555
B0 O3 1.485252 1_556
B0 O7 1.509318 1_655
B1 O12 1.467818 1_555
B1 O14 1.469646 1_555
B1 O19 1.485252 1_555
B1 O5 1.509318 1_455
B2 O1 1.467818 1_555
B2 O15 1.469646 1_555
B2 O23 1.485252 1_554
B2 O29 1.509318 1_555
B3 O0 1.467818 1_555
B3 O22 1.469646 1_555
B3 O27 1.485252 1_555
B3 O10 1.509318 1_655
B4 O12 1.467818 1_555
B4 O26 1.469646 1_555
B4 O13 1.485252 1_555
B4 O16 1.509318 1_555
B5 O0 1.467818 1_555
B5 O17 1.469646 1_555
B5 O31 1.485252 1_555
B5 O28 1.509318 1_555
B6 O1 1.467818 1_555
B6 O4 1.469646 1_555
B6 O25 1.485252 1_554
B6 O2 1.509318 1_455
B7 O18 1.467818 1_555
B7 O20 1.469646 1_555
B7 O11 1.485252 1_556
B7 O8 1.509318 1_555
O2 Si5 1.640712 1_555
O3 Si2 1.632530 1_555
O4 Si2 1.626510 1_465
O5 Si2 1.640712 1_555
O6 Si5 1.641469 1_555
O6 Si4 1.641469 1_555
O7 Si7 1.640712 1_555
O8 Si6 1.640712 1_555
O9 Si1 1.626510 1_645
O10 Si1 1.640712 1_555
O11 Si3 1.632530 1_555
O13 Si6 1.632530 1_555
O14 Si5 1.626510 1_455
O15 Si3 1.626510 1_565
O16 Si3 1.640712 1_555
O17 Si6 1.626510 1_555
O19 Si7 1.632530 1_555
O20 Si0 1.626510 1_545
O21 Si3 1.641469 1_555
O21 Si2 1.641469 1_555
O22 Si7 1.626510 1_655
O23 Si0 1.632530 1_555
O24 Si0 1.641469 1_555
O24 Si1 1.641469 1_555
O25 Si1 1.632530 1_555
O26 Si4 1.626510 1_555
O27 Si5 1.632530 1_555
O28 Si0 1.640712 1_555
O29 Si4 1.640712 1_555
O30 Si7 1.641469 1_555
O30 Si6 1.641469 1_555
O31 Si4 1.632530 1_555
