# generated using pymatgen
data_K2Ag4Pd3(NO2)12
_symmetry_space_group_name_H-M   'P 1'
_cell_length_a   24.07771700
_cell_length_b   7.33485800
_cell_length_c   7.82362148
_cell_angle_alpha   80.87983952
_cell_angle_beta   90.00000000
_cell_angle_gamma   90.00000000
_symmetry_Int_Tables_number   1
_chemical_formula_structural   K2Ag4Pd3(NO2)12
_chemical_formula_sum   'K4 Ag8 Pd6 N24 O48'
_cell_volume   1364.23610032
_cell_formula_units_Z   2
loop_
 _symmetry_equiv_pos_site_id
 _symmetry_equiv_pos_as_xyz
  1  'x, y, z'
loop_
 _atom_site_type_symbol
 _atom_site_label
 _atom_site_symmetry_multiplicity
 _atom_site_fract_x
 _atom_site_fract_y
 _atom_site_fract_z
 _atom_site_occupancy
  K  K0  1  0.13406500  0.90333400  0.42292500  1
  K  K1  1  0.86593500  0.09666600  0.57707500  1
  K  K2  1  0.36593500  0.40333400  0.92292500  1
  K  K3  1  0.63406500  0.59666600  0.07707500  1
  Ag  Ag0  1  0.52644200  0.62669700  0.60853300  1
  Ag  Ag1  1  0.02644200  0.87330300  0.89146700  1
  Ag  Ag2  1  0.97355800  0.12669700  0.10853300  1
  Ag  Ag3  1  0.68126100  0.10890600  0.32478700  1
  Ag  Ag4  1  0.18126100  0.39109400  0.17521300  1
  Ag  Ag5  1  0.47355800  0.37330300  0.39146700  1
  Ag  Ag6  1  0.31873900  0.89109400  0.67521300  1
  Ag  Ag7  1  0.81873900  0.60890600  0.82478700  1
  Pd  Pd0  1  0.32388100  0.88779200  0.27464200  1
  Pd  Pd1  1  0.82388100  0.61220800  0.22535800  1
  Pd  Pd2  1  0.17611900  0.38779200  0.77464200  1
  Pd  Pd3  1  0.00000000  0.50000000  0.50000000  1
  Pd  Pd4  1  0.67611900  0.11220800  0.72535800  1
  Pd  Pd5  1  0.50000000  0.00000000  0.00000000  1
  N  N0  1  0.06774400  0.38057400  0.40034600  1
  N  N1  1  0.50564900  0.79805900  0.21814800  1
  N  N2  1  0.99435100  0.29805900  0.71814800  1
  N  N3  1  0.23397000  0.21006100  0.70087700  1
  N  N4  1  0.61648300  0.93076700  0.65713500  1
  N  N5  1  0.11648300  0.56923300  0.84286500  1
  N  N6  1  0.23002300  0.60719100  0.71084300  1
  N  N7  1  0.76997700  0.39280900  0.28915700  1
  N  N8  1  0.56774400  0.11942600  0.09965400  1
  N  N9  1  0.62319100  0.33519400  0.65451600  1
  N  N10  1  0.12319100  0.16480600  0.84548400  1
  N  N11  1  0.26603000  0.71006100  0.20087700  1
  N  N12  1  0.26997700  0.10719100  0.21084300  1
  N  N13  1  0.76603000  0.78993900  0.29912300  1
  N  N14  1  0.93225600  0.61942600  0.59965400  1
  N  N15  1  0.37680900  0.66480600  0.34548400  1
  N  N16  1  0.43225600  0.88057400  0.90034600  1
  N  N17  1  0.88351700  0.43076700  0.15713500  1
  N  N18  1  0.49435100  0.20194100  0.78185200  1
  N  N19  1  0.73397000  0.28993900  0.79912300  1
  N  N20  1  0.73002300  0.89280900  0.78915700  1
  N  N21  1  0.87680900  0.83519400  0.15451600  1
  N  N22  1  0.38351700  0.06923300  0.34286500  1
  N  N23  1  0.00564900  0.70194100  0.28185200  1
  O  O0  1  0.61152600  0.91626900  0.50025600  1
  O  O1  1  0.50796000  0.16513600  0.63674800  1
  O  O2  1  0.22540000  0.65638200  0.29580400  1
  O  O3  1  0.88847400  0.41626900  0.00025600  1
  O  O4  1  0.38847400  0.08373100  0.49974400  1
  O  O5  1  0.08722600  0.66772600  0.73287300  1
  O  O6  1  0.77245800  0.84158800  0.44118800  1
  O  O7  1  0.58722600  0.83227400  0.76712700  1
  O  O8  1  0.72754200  0.34158800  0.94118800  1
  O  O9  1  0.10171600  0.08623400  0.73019800  1
  O  O10  1  0.39828400  0.58623400  0.23019800  1
  O  O11  1  0.91277400  0.33227400  0.26712700  1
  O  O12  1  0.77460000  0.34361800  0.70419600  1
  O  O13  1  0.88654000  0.53579600  0.60497600  1
  O  O14  1  0.38882500  0.61522100  0.50016800  1
  O  O15  1  0.52397000  0.64125700  0.20379000  1
  O  O16  1  0.22754200  0.15841200  0.55881200  1
  O  O17  1  0.38654000  0.96420400  0.89502400  1
  O  O18  1  0.06290400  0.23427000  0.34055100  1
  O  O19  1  0.60171600  0.41376600  0.76980200  1
  O  O20  1  0.56290400  0.26573000  0.15944900  1
  O  O21  1  0.49204000  0.83486400  0.36325200  1
  O  O22  1  0.47603000  0.35874300  0.79621000  1
  O  O23  1  0.02397000  0.85874300  0.29621000  1
  O  O24  1  0.28169600  0.58205000  0.70934200  1
  O  O25  1  0.61346000  0.03579600  0.10497600  1
  O  O26  1  0.71185000  0.73217400  0.81995300  1
  O  O27  1  0.27460000  0.15638200  0.79580400  1
  O  O28  1  0.72540000  0.84361800  0.20419600  1
  O  O29  1  0.71830400  0.41795000  0.29065800  1
  O  O30  1  0.99204000  0.66513600  0.13674800  1
  O  O31  1  0.93709600  0.76573000  0.65944900  1
  O  O32  1  0.78169600  0.91795000  0.79065800  1
  O  O33  1  0.27245800  0.65841200  0.05881200  1
  O  O34  1  0.61117500  0.38477900  0.49983200  1
  O  O35  1  0.43709600  0.73427000  0.84055100  1
  O  O36  1  0.21830400  0.08205000  0.20934200  1
  O  O37  1  0.97603000  0.14125700  0.70379000  1
  O  O38  1  0.00796000  0.33486400  0.86325200  1
  O  O39  1  0.28815000  0.26782600  0.18004700  1
  O  O40  1  0.41277400  0.16772600  0.23287300  1
  O  O41  1  0.11152600  0.58373100  0.99974400  1
  O  O42  1  0.11117500  0.11522100  0.00016800  1
  O  O43  1  0.88882500  0.88477900  0.99983200  1
  O  O44  1  0.89828400  0.91376600  0.26980200  1
  O  O45  1  0.11346000  0.46420400  0.39502400  1
  O  O46  1  0.21185000  0.76782600  0.68004700  1
  O  O47  1  0.78815000  0.23217400  0.31995300  1
loop_
_geom_bond_atom_site_label_1
_geom_bond_atom_site_label_2
_geom_bond_distance
_geom_bond_site_symmetry_2
K0 O46 2.812187 1_555
K0 O36 2.816044 1_565
K0 O23 2.866969 1_555
K0 O18 2.957576 1_565
K0 O5 2.968186 1_555
K0 O9 3.034460 1_565
K0 O2 3.110858 1_555
K0 O16 3.213565 1_565
K0 O45 3.300187 1_555
K1 O47 2.812187 1_555
K1 O32 2.816044 1_545
K1 O37 2.866969 1_555
K1 O31 2.957576 1_545
K1 O11 2.968186 1_555
K1 O44 3.034460 1_545
K1 O12 3.110858 1_555
K1 O6 3.213565 1_545
K1 O13 3.300187 1_555
K2 O39 2.812187 1_556
K2 O24 2.816044 1_555
K2 O22 2.866969 1_555
K2 O35 2.957576 1_555
K2 O40 2.968186 1_556
K2 O10 3.034460 1_556
K2 O27 3.110858 1_555
K2 O33 3.213565 1_556
K2 O17 3.300187 1_545
K3 O26 2.812187 1_554
K3 O29 2.816044 1_555
K3 O15 2.866969 1_555
K3 O20 2.957576 1_555
K3 O7 2.968186 1_554
K3 O19 3.034460 1_554
K3 O28 3.110858 1_555
K3 O8 3.213565 1_554
K3 O25 3.300187 1_565
Ag0 O21 2.402314 1_555
Ag0 O7 2.558962 1_555
Ag0 O22 2.564614 1_555
Ag0 O19 2.586771 1_555
Ag1 O30 2.402314 1_456
Ag1 O5 2.558962 1_555
Ag1 O37 2.564614 1_465
Ag1 O9 2.586771 1_565
Ag2 O38 2.402314 1_654
Ag2 O11 2.558962 1_555
Ag2 O23 2.564614 1_645
Ag2 O44 2.586771 1_545
Ag3 O29 2.411075 1_555
Ag3 O0 2.466858 1_545
Ag3 O25 2.490457 1_555
Ag3 O28 2.527429 1_545
Ag4 O36 2.411075 1_555
Ag4 O41 2.466858 1_554
Ag4 O45 2.490457 1_555
Ag4 O2 2.527429 1_555
Ag5 O1 2.402314 1_555
Ag5 O40 2.558962 1_555
Ag5 O15 2.564614 1_555
Ag5 O10 2.586771 1_555
Ag6 O24 2.411075 1_555
Ag6 O4 2.466858 1_565
Ag6 O17 2.490457 1_555
Ag6 O27 2.527429 1_565
Ag7 O32 2.411075 1_555
Ag7 O3 2.466858 1_556
Ag7 O13 2.490457 1_555
Ag7 O12 2.527429 1_555
N0 O18 1.242240 1_555
N0 O45 1.257591 1_555
N0 Pd3 2.062099 1_555
N1 O21 1.251467 1_555
N1 O15 1.253374 1_555
N1 Pd5 2.079406 1_565
N2 O38 1.251467 1_655
N2 O37 1.253374 1_555
N2 Pd3 2.079406 1_655
N3 O16 1.239477 1_555
N3 O27 1.253361 1_555
N3 Pd2 2.052130 1_555
N4 O7 1.249636 1_555
N4 O0 1.254331 1_555
N4 Pd4 2.083993 1_565
N5 O5 1.249636 1_555
N5 O41 1.254331 1_555
N5 Pd2 2.083993 1_555
N6 O46 1.244089 1_555
N6 O24 1.258087 1_555
N6 Pd2 2.066090 1_555
N7 O47 1.244089 1_555
N7 O29 1.258087 1_555
N7 Pd1 2.066090 1_555
N8 O20 1.242240 1_555
N8 O25 1.257591 1_555
N8 Pd5 2.062099 1_555
N9 O34 1.241374 1_555
N9 O19 1.256107 1_555
N9 Pd4 2.078211 1_555
N10 O42 1.241374 1_556
N10 O9 1.256107 1_555
N10 Pd2 2.078211 1_555
N11 O33 1.239477 1_555
N11 O2 1.253361 1_555
N11 Pd0 2.052130 1_555
N12 O39 1.244089 1_555
N12 O36 1.258087 1_555
N12 Pd0 2.066090 1_545
N13 O6 1.239477 1_555
N13 O28 1.253361 1_555
N13 Pd1 2.052130 1_555
N14 O31 1.242240 1_555
N14 O13 1.257591 1_555
N14 Pd3 2.062099 1_655
N15 O14 1.241374 1_555
N15 O10 1.256107 1_555
N15 Pd0 2.078211 1_555
N16 O35 1.242240 1_555
N16 O17 1.257591 1_555
N16 Pd5 2.062099 1_566
N17 O11 1.249636 1_555
N17 O3 1.254331 1_555
N17 Pd1 2.083993 1_555
N18 O1 1.251467 1_555
N18 O22 1.253374 1_555
N18 Pd5 2.079406 1_556
N19 O8 1.239477 1_555
N19 O12 1.253361 1_555
N19 Pd4 2.052130 1_555
N20 O26 1.244089 1_555
N20 O32 1.258087 1_555
N20 Pd4 2.066090 1_565
N21 O43 1.241374 1_554
N21 O44 1.256107 1_555
N21 Pd1 2.078211 1_555
N22 O40 1.249636 1_555
N22 O4 1.254331 1_555
N22 Pd0 2.083993 1_545
N23 O30 1.251467 1_455
N23 O23 1.253374 1_555
N23 Pd3 2.079406 1_555
