# generated using pymatgen
data_Np2Si4Mo3
_symmetry_space_group_name_H-M   'P 1'
_cell_length_a   6.78807721
_cell_length_b   6.89988013
_cell_length_c   6.91249138
_cell_angle_alpha   90.00000000
_cell_angle_beta   90.00000000
_cell_angle_gamma   109.49565047
_symmetry_Int_Tables_number   1
_chemical_formula_structural   Np2Si4Mo3
_chemical_formula_sum   'Np4 Si8 Mo6'
_cell_volume   305.19762318
_cell_formula_units_Z   2
loop_
 _symmetry_equiv_pos_site_id
 _symmetry_equiv_pos_as_xyz
  1  'x, y, z'
loop_
 _atom_site_type_symbol
 _atom_site_label
 _atom_site_symmetry_multiplicity
 _atom_site_fract_x
 _atom_site_fract_y
 _atom_site_fract_z
 _atom_site_occupancy
  Np  Np0  1  0.55983970  0.68617723  0.16378232  1
  Np  Np1  1  0.94016030  0.31382277  0.66378232  1
  Np  Np2  1  0.05983970  0.68617723  0.33621768  1
  Np  Np3  1  0.44016030  0.31382277  0.83621768  1
  Si  Si0  1  0.62451060  0.40885142  0.45553697  1
  Si  Si1  1  0.12451060  0.40885142  0.04446303  1
  Si  Si2  1  0.86856148  0.00137725  0.36780524  1
  Si  Si3  1  0.36856148  0.00137725  0.13219476  1
  Si  Si4  1  0.87548940  0.59114858  0.95553697  1
  Si  Si5  1  0.13143852  -0.00137725  0.63219476  1
  Si  Si6  1  0.37548940  0.59114858  0.54446303  1
  Si  Si7  1  0.63143852  -0.00137725  0.86780524  1
  Mo  Mo0  1  0.24723911  0.25064533  0.33277680  1
  Mo  Mo1  1  0.75276089  0.74935467  0.66722320  1
  Mo  Mo2  1  0.74723911  0.25064533  0.16722320  1
  Mo  Mo3  1  0.50000000  -0.00000000  0.50000000  1
  Mo  Mo4  1  0.00000000  -0.00000000  0.00000000  1
  Mo  Mo5  1  0.25276089  0.74935467  0.83277680  1
loop_
_geom_bond_atom_site_label_1
_geom_bond_atom_site_label_2
_geom_bond_distance
_geom_bond_site_symmetry_2
Np0 Si4 2.833862 1_554
Np0 Si2 2.840503 1_565
Np0 Si3 2.889346 1_565
Np0 Si7 2.893156 1_564
Np0 Si6 2.893572 1_555
Np0 Si0 2.912426 1_555
Np0 Si1 3.049574 1_555
Np1 Si0 2.833862 1_555
Np1 Si7 2.840503 1_555
Np1 Si5 2.889346 1_655
Np1 Si2 2.893156 1_555
Np1 Si1 2.893572 1_656
Np1 Si4 2.912426 1_555
Np1 Si6 3.049574 1_655
Np2 Si6 2.833862 1_555
Np2 Si3 2.840503 1_565
Np2 Si2 2.889346 1_465
Np2 Si5 2.893156 1_565
Np2 Si4 2.893572 1_454
Np2 Si1 2.912426 1_555
Np2 Si0 3.049574 1_455
Np3 Si1 2.833862 1_556
Np3 Si5 2.840503 1_555
Np3 Si7 2.889346 1_555
Np3 Si3 2.893156 1_556
Np3 Si0 2.893572 1_555
Np3 Si6 2.912426 1_555
Np3 Si4 3.049574 1_555
Si0 Si6 2.497306 1_555
Si1 Si4 2.497306 1_454
Si2 Si5 2.558764 1_655
Si3 Si7 2.558764 1_554
Mo0 Si1 2.542549 1_555
Mo0 Si3 2.550337 1_555
Mo0 Si0 2.569863 1_555
Mo0 Si2 2.583268 1_455
Mo0 Si5 2.648235 1_555
Mo0 Si6 2.655880 1_555
Mo1 Si4 2.542549 1_555
Mo1 Si7 2.550337 1_565
Mo1 Si6 2.569863 1_555
Mo1 Si5 2.583268 1_665
Mo1 Si2 2.648235 1_565
Mo1 Si0 2.655880 1_555
Mo2 Si0 2.542549 1_555
Mo2 Si2 2.550337 1_555
Mo2 Si1 2.569863 1_655
Mo2 Si3 2.583268 1_555
Mo2 Si7 2.648235 1_554
Mo2 Si4 2.655880 1_554
Mo3 Si5 2.660520 1_555
Mo3 Si2 2.660520 1_555
Mo3 Si6 2.678721 1_545
Mo3 Si0 2.678721 1_555
Mo3 Si3 2.695524 1_555
Mo3 Si7 2.695524 1_555
Mo4 Si7 2.660520 1_454
Mo4 Si3 2.660520 1_555
Mo4 Si4 2.678721 1_444
Mo4 Si1 2.678721 1_555
Mo4 Si5 2.695524 1_554
Mo4 Si2 2.695524 1_455
Mo5 Si6 2.542549 1_555
Mo5 Si5 2.550337 1_565
Mo5 Si4 2.569863 1_455
Mo5 Si7 2.583268 1_565
Mo5 Si3 2.648235 1_566
Mo5 Si1 2.655880 1_556
