# generated using pymatgen
data_Ce(CoAs)2
_symmetry_space_group_name_H-M   'P 1'
_cell_length_a   4.07326481
_cell_length_b   4.07326436
_cell_length_c   5.76204037
_cell_angle_alpha   110.69887885
_cell_angle_beta   110.69888117
_cell_angle_gamma   90.00000627
_symmetry_Int_Tables_number   1
_chemical_formula_structural   Ce(CoAs)2
_chemical_formula_sum   'Ce1 Co2 As2'
_cell_volume   82.80027944
_cell_formula_units_Z   1
loop_
 _symmetry_equiv_pos_site_id
 _symmetry_equiv_pos_as_xyz
  1  'x, y, z'
loop_
 _atom_site_type_symbol
 _atom_site_label
 _atom_site_symmetry_multiplicity
 _atom_site_fract_x
 _atom_site_fract_y
 _atom_site_fract_z
 _atom_site_occupancy
  Ce  Ce0  1  -0.00000000  -0.00000000  -0.00000000  1
  Co  Co0  1  0.25000000  0.75000000  0.50000000  1
  Co  Co1  1  0.75000000  0.25000000  0.50000000  1
  As  As0  1  0.36435310  0.36435310  0.72870821  1
  As  As1  1  0.63564690  0.63564690  0.27129179  1
loop_
_geom_bond_atom_site_label_1
_geom_bond_atom_site_label_2
_geom_bond_distance
_geom_bond_site_symmetry_2
Ce0 Co0 3.220902 1_545
Ce0 Co1 3.220902 1_454
Ce0 Co1 3.220903 1_455
Ce0 Co0 3.220903 1_544
Ce0 Co0 3.220903 1_555
Ce0 Co1 3.220903 1_444
Ce0 Co0 3.220903 1_444
Ce0 Co1 3.220903 1_555
As0 Co0 2.334650 1_545
As0 Co1 2.334650 1_455
As0 Co0 2.334657 1_555
As0 Co1 2.334657 1_555
As0 Ce0 3.182565 1_556
As0 Ce0 3.182571 1_566
As0 Ce0 3.182571 1_656
As0 Ce0 3.182577 1_666
As1 Co1 2.334650 1_565
As1 Co0 2.334650 1_655
As1 Co1 2.334657 1_555
As1 Co0 2.334657 1_555
As1 Ce0 3.182565 1_665
As1 Ce0 3.182571 1_655
As1 Ce0 3.182571 1_565
As1 Ce0 3.182577 1_555
