# generated using pymatgen
data_RbZr6CCl15
_symmetry_space_group_name_H-M   'P 1'
_cell_length_a   9.96993000
_cell_length_b   14.21674800
_cell_length_c   18.93029700
_cell_angle_alpha   90.00000000
_cell_angle_beta   90.00000000
_cell_angle_gamma   90.00000000
_symmetry_Int_Tables_number   1
_chemical_formula_structural   RbZr6CCl15
_chemical_formula_sum   'Rb4 Zr24 C4 Cl60'
_cell_volume   2683.17996337
_cell_formula_units_Z   4
loop_
 _symmetry_equiv_pos_site_id
 _symmetry_equiv_pos_as_xyz
  1  'x, y, z'
loop_
 _atom_site_type_symbol
 _atom_site_label
 _atom_site_symmetry_multiplicity
 _atom_site_fract_x
 _atom_site_fract_y
 _atom_site_fract_z
 _atom_site_occupancy
  Rb  Rb0  1  0.32606100  0.74769800  0.25000000  1
  Rb  Rb1  1  0.67393900  0.74769800  0.75000000  1
  Rb  Rb2  1  0.32606100  0.25230200  0.25000000  1
  Rb  Rb3  1  0.67393900  0.25230200  0.75000000  1
  Zr  Zr0  1  0.34633700  0.61466000  0.53009200  1
  Zr  Zr1  1  0.60989200  0.00000000  0.25000000  1
  Zr  Zr2  1  0.41962700  0.50000000  0.11248200  1
  Zr  Zr3  1  0.34633700  0.38534000  0.53009200  1
  Zr  Zr4  1  0.16374700  0.11487800  0.83634400  1
  Zr  Zr5  1  0.83625300  0.11487800  0.16365600  1
  Zr  Zr6  1  0.16374700  0.88512200  0.83634400  1
  Zr  Zr7  1  0.16374700  0.88512200  0.66365600  1
  Zr  Zr8  1  0.16374700  0.11487800  0.66365600  1
  Zr  Zr9  1  0.65366300  0.38534000  0.03009200  1
  Zr  Zr10  1  0.65366300  0.38534000  0.46990800  1
  Zr  Zr11  1  0.83625300  0.11487800  0.33634400  1
  Zr  Zr12  1  0.06508300  0.00000000  0.25000000  1
  Zr  Zr13  1  0.41962700  0.50000000  0.38751800  1
  Zr  Zr14  1  0.58037300  0.50000000  0.61248200  1
  Zr  Zr15  1  0.39010800  0.00000000  0.75000000  1
  Zr  Zr16  1  0.34633700  0.61466000  0.96990800  1
  Zr  Zr17  1  0.93491700  0.00000000  0.75000000  1
  Zr  Zr18  1  0.65366300  0.61466000  0.46990800  1
  Zr  Zr19  1  0.58037300  0.50000000  0.88751800  1
  Zr  Zr20  1  0.83625300  0.88512200  0.33634400  1
  Zr  Zr21  1  0.83625300  0.88512200  0.16365600  1
  Zr  Zr22  1  0.65366300  0.61466000  0.03009200  1
  Zr  Zr23  1  0.34633700  0.38534000  0.96990800  1
  C  C0  1  0.50000000  0.50000000  0.00000000  1
  C  C1  1  0.83788800  0.00000000  0.25000000  1
  C  C2  1  0.16211200  0.00000000  0.75000000  1
  C  C3  1  0.50000000  0.50000000  0.50000000  1
  Cl  Cl0  1  0.50000000  0.75169700  0.00000000  1
  Cl  Cl1  1  0.41912800  0.87511600  0.84451900  1
  Cl  Cl2  1  0.50000000  0.75169700  0.50000000  1
  Cl  Cl3  1  0.09268900  0.87467900  0.15401500  1
  Cl  Cl4  1  0.50000000  0.24830300  0.00000000  1
  Cl  Cl5  1  0.66320700  0.00000000  0.75000000  1
  Cl  Cl6  1  0.41912800  0.12488400  0.65548100  1
  Cl  Cl7  1  0.33679300  0.00000000  0.25000000  1
  Cl  Cl8  1  0.83138700  0.25050700  0.43512100  1
  Cl  Cl9  1  0.57956700  0.37559400  0.15869000  1
  Cl  Cl10  1  0.90731100  0.87467900  0.84598500  1
  Cl  Cl11  1  0.42043300  0.62440600  0.65869000  1
  Cl  Cl12  1  0.42043300  0.62440600  0.84131000  1
  Cl  Cl13  1  0.83769800  0.50000000  0.43402200  1
  Cl  Cl14  1  0.09268900  0.12532100  0.34598500  1
  Cl  Cl15  1  0.42043300  0.37559400  0.84131000  1
  Cl  Cl16  1  0.83138700  0.74949300  0.06487900  1
  Cl  Cl17  1  0.42043300  0.37559400  0.65869000  1
  Cl  Cl18  1  0.75935900  0.62620200  0.59345100  1
  Cl  Cl19  1  0.15556300  0.74787300  0.75000000  1
  Cl  Cl20  1  0.41912800  0.87511600  0.65548100  1
  Cl  Cl21  1  0.90731100  0.12532100  0.84598500  1
  Cl  Cl22  1  0.24064100  0.62620200  0.40654900  1
  Cl  Cl23  1  0.50000000  0.24830300  0.50000000  1
  Cl  Cl24  1  0.83138700  0.74949300  0.43512100  1
  Cl  Cl25  1  0.58087200  0.12488400  0.15548100  1
  Cl  Cl26  1  0.09268900  0.12532100  0.15401500  1
  Cl  Cl27  1  0.83769800  0.50000000  0.06597800  1
  Cl  Cl28  1  0.84443700  0.25212700  0.25000000  1
  Cl  Cl29  1  0.57956700  0.37559400  0.34131000  1
  Cl  Cl30  1  0.32161900  0.50000000  0.25000000  1
  Cl  Cl31  1  0.83138700  0.25050700  0.06487900  1
  Cl  Cl32  1  0.16230200  0.50000000  0.56597800  1
  Cl  Cl33  1  0.09268900  0.87467900  0.34598500  1
  Cl  Cl34  1  0.84443700  0.74787300  0.25000000  1
  Cl  Cl35  1  0.16230200  0.50000000  0.93402200  1
  Cl  Cl36  1  0.75935900  0.37379800  0.59345100  1
  Cl  Cl37  1  0.83694900  0.00000000  0.06046100  1
  Cl  Cl38  1  0.16861300  0.74949300  0.93512100  1
  Cl  Cl39  1  0.16861300  0.25050700  0.56487900  1
  Cl  Cl40  1  0.16305100  0.00000000  0.93953900  1
  Cl  Cl41  1  0.57956700  0.62440600  0.15869000  1
  Cl  Cl42  1  0.15556300  0.25212700  0.75000000  1
  Cl  Cl43  1  0.58087200  0.87511600  0.15548100  1
  Cl  Cl44  1  0.75935900  0.62620200  0.90654900  1
  Cl  Cl45  1  0.24064100  0.62620200  0.09345100  1
  Cl  Cl46  1  0.90731100  0.87467900  0.65401500  1
  Cl  Cl47  1  0.24064100  0.37379800  0.40654900  1
  Cl  Cl48  1  0.41912800  0.12488400  0.84451900  1
  Cl  Cl49  1  0.16305100  0.00000000  0.56046100  1
  Cl  Cl50  1  0.67838100  0.50000000  0.75000000  1
  Cl  Cl51  1  0.90731100  0.12532100  0.65401500  1
  Cl  Cl52  1  0.24064100  0.37379800  0.09345100  1
  Cl  Cl53  1  0.58087200  0.87511600  0.34451900  1
  Cl  Cl54  1  0.57956700  0.62440600  0.34131000  1
  Cl  Cl55  1  0.16861300  0.74949300  0.56487900  1
  Cl  Cl56  1  0.16861300  0.25050700  0.93512100  1
  Cl  Cl57  1  0.83694900  0.00000000  0.43953900  1
  Cl  Cl58  1  0.75935900  0.37379800  0.90654900  1
  Cl  Cl59  1  0.58087200  0.12488400  0.34451900  1
loop_
_geom_bond_atom_site_label_1
_geom_bond_atom_site_label_2
_geom_bond_distance
_geom_bond_site_symmetry_2
C0 Zr2 2.275104 1_555
C0 Zr19 2.275104 1_554
C0 Zr9 2.308410 1_555
C0 Zr22 2.308410 1_555
C0 Zr23 2.308410 1_554
C0 Zr16 2.308410 1_554
C1 Zr12 2.265118 1_655
C1 Zr1 2.273104 1_555
C1 Zr11 2.310677 1_555
C1 Zr5 2.310677 1_555
C1 Zr20 2.310677 1_545
C1 Zr21 2.310677 1_545
C2 Zr17 2.265118 1_455
C2 Zr15 2.273104 1_555
C2 Zr4 2.310677 1_555
C2 Zr7 2.310677 1_545
C2 Zr8 2.310677 1_555
C2 Zr6 2.310677 1_545
C3 Zr14 2.275104 1_555
C3 Zr13 2.275104 1_555
C3 Zr3 2.308410 1_555
C3 Zr10 2.308410 1_555
C3 Zr18 2.308410 1_555
C3 Zr0 2.308410 1_555
Cl0 Zr22 2.543053 1_555
Cl0 Zr16 2.543053 1_554
Cl1 Zr15 2.537205 1_565
Cl1 Zr6 2.554793 1_555
Cl1 Rb1 3.596776 1_555
Cl2 Zr0 2.543053 1_555
Cl2 Zr18 2.543053 1_555
Cl3 Zr12 2.559616 1_565
Cl3 Zr21 2.567451 1_455
Cl3 Rb0 3.460358 1_555
Cl4 Zr9 2.543053 1_555
Cl4 Zr23 2.543053 1_554
Cl5 Zr17 2.708930 1_555
Cl5 Zr15 2.722778 1_555
Cl5 Rb3 3.588509 1_555
Cl5 Rb1 3.588509 1_545
Cl6 Zr15 2.537205 1_555
Cl6 Zr8 2.554793 1_555
Cl6 Rb3 3.596776 1_555
Cl7 Zr12 2.708930 1_555
Cl7 Zr1 2.722778 1_555
Cl7 Rb2 3.588509 1_555
Cl7 Rb0 3.588509 1_545
Cl8 Zr11 2.686404 1_555
Cl8 Zr10 2.692161 1_555
Cl9 Zr2 2.536926 1_555
Cl9 Zr9 2.547787 1_555
Cl9 Rb2 3.528184 1_555
Cl10 Zr17 2.559616 1_565
Cl10 Zr6 2.567451 1_655
Cl10 Rb1 3.460358 1_555
Cl11 Zr14 2.536926 1_555
Cl11 Zr0 2.547787 1_555
Cl11 Rb1 3.528184 1_555
Cl12 Zr19 2.536926 1_555
Cl12 Zr16 2.547787 1_555
Cl12 Rb1 3.528184 1_555
Cl13 Zr10 2.546614 1_555
Cl13 Zr18 2.546614 1_555
Cl14 Zr12 2.559616 1_555
Cl14 Zr11 2.567451 1_455
Cl14 Rb2 3.460358 1_555
Cl15 Zr19 2.536926 1_555
Cl15 Zr23 2.547787 1_555
Cl15 Rb3 3.528184 1_555
Cl16 Zr21 2.686404 1_555
Cl16 Zr22 2.692161 1_555
Cl17 Zr14 2.536926 1_555
Cl17 Zr3 2.547787 1_555
Cl17 Rb3 3.528184 1_555
Cl18 Zr14 2.556020 1_555
Cl18 Zr18 2.570394 1_555
Cl18 Rb1 3.534291 1_555
Cl19 Zr6 2.546688 1_555
Cl19 Zr7 2.546688 1_555
Cl20 Zr15 2.537205 1_565
Cl20 Zr7 2.554793 1_555
Cl20 Rb1 3.596776 1_555
Cl21 Zr17 2.559616 1_555
Cl21 Zr4 2.567451 1_655
Cl21 Rb3 3.460358 1_555
Cl22 Zr13 2.556020 1_555
Cl22 Zr0 2.570394 1_555
Cl22 Rb0 3.534291 1_555
Cl23 Zr10 2.543053 1_555
Cl23 Zr3 2.543053 1_555
Cl24 Zr20 2.686404 1_555
Cl24 Zr18 2.692161 1_555
Cl25 Zr1 2.537205 1_555
Cl25 Zr5 2.554793 1_555
Cl25 Rb2 3.596776 1_555
Cl26 Zr12 2.559616 1_555
Cl26 Zr5 2.567451 1_455
Cl26 Rb2 3.460358 1_555
Cl27 Zr9 2.546614 1_555
Cl27 Zr22 2.546614 1_555
Cl28 Zr11 2.546688 1_555
Cl28 Zr5 2.546688 1_555
Cl29 Zr13 2.536926 1_555
Cl29 Zr10 2.547787 1_555
Cl29 Rb2 3.528184 1_555
Cl30 Zr13 2.780599 1_555
Cl30 Zr2 2.780599 1_555
Cl30 Rb0 3.521739 1_555
Cl30 Rb2 3.521739 1_555
Cl31 Zr5 2.686404 1_555
Cl31 Zr9 2.692161 1_555
Cl32 Zr3 2.546614 1_555
Cl32 Zr0 2.546614 1_555
Cl33 Zr12 2.559616 1_565
Cl33 Zr20 2.567451 1_455
Cl33 Rb0 3.460358 1_555
Cl34 Zr20 2.546688 1_555
Cl34 Zr21 2.546688 1_555
Cl35 Zr23 2.546614 1_555
Cl35 Zr16 2.546614 1_555
Cl36 Zr14 2.556020 1_555
Cl36 Zr10 2.570394 1_555
Cl36 Rb3 3.534291 1_555
Cl37 Zr5 2.546286 1_555
Cl37 Zr21 2.546286 1_545
Cl38 Zr6 2.686404 1_555
Cl38 Zr16 2.692161 1_555
Cl39 Zr8 2.686404 1_555
Cl39 Zr3 2.692161 1_555
Cl40 Zr4 2.546286 1_555
Cl40 Zr6 2.546286 1_545
Cl41 Zr2 2.536926 1_555
Cl41 Zr22 2.547787 1_555
Cl41 Rb0 3.528184 1_555
Cl42 Zr4 2.546688 1_555
Cl42 Zr8 2.546688 1_555
Cl43 Zr1 2.537205 1_565
Cl43 Zr21 2.554793 1_555
Cl43 Rb0 3.596776 1_555
Cl44 Zr19 2.556020 1_555
Cl44 Zr22 2.570394 1_556
Cl44 Rb1 3.534291 1_555
Cl45 Zr2 2.556020 1_555
Cl45 Zr16 2.570394 1_554
Cl45 Rb0 3.534291 1_555
Cl46 Zr17 2.559616 1_565
Cl46 Zr7 2.567451 1_655
Cl46 Rb1 3.460358 1_555
Cl47 Zr13 2.556020 1_555
Cl47 Zr3 2.570394 1_555
Cl47 Rb2 3.534291 1_555
Cl48 Zr15 2.537205 1_555
Cl48 Zr4 2.554793 1_555
Cl48 Rb3 3.596776 1_555
Cl49 Zr8 2.546286 1_555
Cl49 Zr7 2.546286 1_545
Cl50 Zr19 2.780599 1_555
Cl50 Zr14 2.780599 1_555
Cl50 Rb1 3.521739 1_555
Cl50 Rb3 3.521739 1_555
Cl51 Zr17 2.559616 1_555
Cl51 Zr8 2.567451 1_655
Cl51 Rb3 3.460358 1_555
Cl52 Zr2 2.556020 1_555
Cl52 Zr23 2.570394 1_554
Cl52 Rb2 3.534291 1_555
Cl53 Zr1 2.537205 1_565
Cl53 Zr20 2.554793 1_555
Cl53 Rb0 3.596776 1_555
Cl54 Zr13 2.536926 1_555
Cl54 Zr18 2.547787 1_555
Cl54 Rb0 3.528184 1_555
Cl55 Zr7 2.686404 1_555
Cl55 Zr0 2.692161 1_555
Cl56 Zr4 2.686404 1_555
Cl56 Zr23 2.692161 1_555
Cl57 Zr11 2.546286 1_555
Cl57 Zr20 2.546286 1_545
Cl58 Zr19 2.556020 1_555
Cl58 Zr9 2.570394 1_556
Cl58 Rb3 3.534291 1_555
Cl59 Zr1 2.537205 1_555
Cl59 Zr11 2.554793 1_555
Cl59 Rb2 3.596776 1_555
