# generated using pymatgen
data_LiYSiO4
_symmetry_space_group_name_H-M   'P 1'
_cell_length_a   6.25105300
_cell_length_b   5.45199700
_cell_length_c   10.94003802
_cell_angle_alpha   66.37685477
_cell_angle_beta   90.00000000
_cell_angle_gamma   90.00000000
_symmetry_Int_Tables_number   1
_chemical_formula_structural   LiYSiO4
_chemical_formula_sum   'Li4 Y4 Si4 O16'
_cell_volume   341.60038268
_cell_formula_units_Z   4
loop_
 _symmetry_equiv_pos_site_id
 _symmetry_equiv_pos_as_xyz
  1  'x, y, z'
loop_
 _atom_site_type_symbol
 _atom_site_label
 _atom_site_symmetry_multiplicity
 _atom_site_fract_x
 _atom_site_fract_y
 _atom_site_fract_z
 _atom_site_occupancy
  Li  Li0  1  0.13411100  0.91848400  0.42985700  1
  Li  Li1  1  0.63411100  0.08151600  0.07014300  1
  Li  Li2  1  0.86588900  0.08151600  0.57014300  1
  Li  Li3  1  0.36588900  0.91848400  0.92985700  1
  Y  Y0  1  0.11597000  0.44583800  0.84738200  1
  Y  Y1  1  0.88403000  0.55416200  0.15261800  1
  Y  Y2  1  0.61597000  0.55416200  0.65261800  1
  Y  Y3  1  0.38403000  0.44583800  0.34738200  1
  Si  Si0  1  0.65217700  0.90365500  0.35935500  1
  Si  Si1  1  0.34782300  0.09634500  0.64064500  1
  Si  Si2  1  0.15217700  0.09634500  0.14064500  1
  Si  Si3  1  0.84782300  0.90365500  0.85935500  1
  O  O0  1  0.85854700  0.23002900  0.77572400  1
  O  O1  1  0.64145300  0.23002900  0.27572400  1
  O  O2  1  0.16332500  0.18533900  0.52420100  1
  O  O3  1  0.83722300  0.75763400  0.75282300  1
  O  O4  1  0.14145300  0.76997100  0.22427600  1
  O  O5  1  0.57074500  0.22586300  0.55530200  1
  O  O6  1  0.66277700  0.75763400  0.25282300  1
  O  O7  1  0.42925500  0.77413700  0.44469800  1
  O  O8  1  0.07074500  0.77413700  0.94469800  1
  O  O9  1  0.66332500  0.81466100  0.97579900  1
  O  O10  1  0.16277700  0.24236600  0.24717700  1
  O  O11  1  0.92925500  0.22586300  0.05530200  1
  O  O12  1  0.33667500  0.18533900  0.02420100  1
  O  O13  1  0.33722300  0.24236600  0.74717700  1
  O  O14  1  0.35854700  0.76997100  0.72427600  1
  O  O15  1  0.83667500  0.81466100  0.47579900  1
loop_
_geom_bond_atom_site_label_1
_geom_bond_atom_site_label_2
_geom_bond_distance
_geom_bond_site_symmetry_2
Li0 O15 1.949863 1_455
Li0 O7 1.986750 1_555
Li0 O10 2.077498 1_565
Li0 O2 2.102098 1_565
Li1 O12 1.949863 1_555
Li1 O11 1.986750 1_555
Li1 O6 2.077498 1_545
Li1 O9 2.102098 1_544
Li2 O2 1.949863 1_655
Li2 O5 1.986750 1_555
Li2 O3 2.077498 1_545
Li2 O15 2.102098 1_545
Li3 O9 1.949863 1_555
Li3 O8 1.986750 1_555
Li3 O13 2.077498 1_565
Li3 O12 2.102098 1_566
O0 Si3 1.644099 1_545
O0 Y0 2.308153 1_655
O0 Y2 2.308388 1_555
O1 Si0 1.644099 1_545
O1 Y3 2.308153 1_555
O1 Y1 2.308388 1_555
O2 Si1 1.641035 1_555
O2 Y3 2.336794 1_555
O3 Si3 1.655320 1_555
O3 Y2 2.306482 1_555
O3 Y0 2.363614 1_655
O4 Si2 1.644099 1_565
O4 Y1 2.308153 1_455
O4 Y3 2.308388 1_555
O5 Si1 1.668471 1_555
O5 Y3 2.405894 1_555
O5 Y2 2.438089 1_555
O6 Si0 1.655320 1_555
O6 Y1 2.306482 1_555
O6 Y3 2.363614 1_555
O7 Si0 1.668471 1_555
O7 Y2 2.405894 1_555
O7 Y3 2.438089 1_555
O8 Si3 1.668471 1_455
O8 Y1 2.405894 1_456
O8 Y0 2.438089 1_555
O9 Si3 1.641035 1_555
O9 Y1 2.336794 1_556
O10 Si2 1.655320 1_555
O10 Y3 2.306482 1_555
O10 Y1 2.363614 1_455
O11 Si2 1.668471 1_655
O11 Y0 2.405894 1_654
O11 Y1 2.438089 1_555
O12 Si2 1.641035 1_555
O12 Y0 2.336794 1_554
O13 Si1 1.655320 1_555
O13 Y0 2.306482 1_555
O13 Y2 2.363614 1_555
O14 Si1 1.644099 1_565
O14 Y2 2.308153 1_555
O14 Y0 2.308388 1_555
O15 Si0 1.641035 1_555
O15 Y2 2.336794 1_555
