# generated using pymatgen
data_Li2NiO3
_symmetry_space_group_name_H-M   'P 1'
_cell_length_a   4.83132387
_cell_length_b   4.83132472
_cell_length_c   4.92889730
_cell_angle_alpha   99.53049172
_cell_angle_beta   99.53050265
_cell_angle_gamma   119.95893812
_symmetry_Int_Tables_number   1
_chemical_formula_structural   Li2NiO3
_chemical_formula_sum   'Li4 Ni2 O6'
_cell_volume   94.05981969
_cell_formula_units_Z   2
loop_
 _symmetry_equiv_pos_site_id
 _symmetry_equiv_pos_as_xyz
  1  'x, y, z'
loop_
 _atom_site_type_symbol
 _atom_site_label
 _atom_site_symmetry_multiplicity
 _atom_site_fract_x
 _atom_site_fract_y
 _atom_site_fract_z
 _atom_site_occupancy
  Li  Li0  1  0.33728099  0.66271901  0.50000000  1
  Li  Li1  1  0.00000000  0.00000000  0.50000000  1
  Li  Li2  1  0.66271901  0.33728099  0.50000000  1
  Li  Li3  1  0.50000000  0.50000000  -0.00000000  1
  Ni  Ni0  1  0.16681560  0.83318440  -0.00000000  1
  Ni  Ni1  1  0.83318440  0.16681560  0.00000000  1
  O  O0  1  0.57462900  0.93108876  0.22282626  1
  O  O1  1  0.42537100  0.06891124  0.77717374  1
  O  O2  1  0.78023586  0.78023586  0.77434566  1
  O  O3  1  0.93108876  0.57462900  0.22282626  1
  O  O4  1  0.06891124  0.42537100  0.77717374  1
  O  O5  1  0.21976414  0.21976414  0.22565434  1
loop_
_geom_bond_atom_site_label_1
_geom_bond_atom_site_label_2
_geom_bond_distance
_geom_bond_site_symmetry_2
Li0 O3 1.996049 1_455
Li0 O1 1.996050 1_565
Li0 O2 2.074767 1_555
Li0 O5 2.074768 1_555
Li0 O4 2.117271 1_555
Li0 O0 2.117271 1_555
Li1 O5 1.976888 1_555
Li1 O2 1.976888 1_445
Li1 O1 2.106417 1_555
Li1 O0 2.106417 1_445
Li1 O4 2.106417 1_555
Li1 O3 2.106417 1_445
Li2 O4 1.996049 1_655
Li2 O0 1.996050 1_545
Li2 O5 2.074767 1_555
Li2 O2 2.074768 1_555
Li2 O3 2.117271 1_555
Li2 O1 2.117271 1_555
Li3 O3 2.008826 1_555
Li3 O4 2.008826 1_554
Li3 O0 2.008827 1_555
Li3 O1 2.008827 1_554
Li3 O5 2.017353 1_555
Li3 O2 2.017353 1_554
Ni0 O0 1.868840 1_555
Ni0 O4 1.868841 1_554
Ni0 O1 1.873851 1_564
Ni0 O3 1.873851 1_455
Ni0 O2 1.879221 1_454
Ni0 O5 1.879222 1_565
Ni1 O1 1.868840 1_554
Ni1 O3 1.868841 1_555
Ni1 O0 1.873851 1_545
Ni1 O4 1.873851 1_654
Ni1 O5 1.879221 1_655
Ni1 O2 1.879222 1_544
