# generated using pymatgen
data_LaFe5H7
_symmetry_space_group_name_H-M   'P 1'
_cell_length_a   5.63714854
_cell_length_b   5.63714854
_cell_length_c   8.29588300
_cell_angle_alpha   90.00000000
_cell_angle_beta   90.00000000
_cell_angle_gamma   120.00000637
_symmetry_Int_Tables_number   1
_chemical_formula_structural   LaFe5H7
_chemical_formula_sum   'La2 Fe10 H14'
_cell_volume   228.30329532
_cell_formula_units_Z   2
loop_
 _symmetry_equiv_pos_site_id
 _symmetry_equiv_pos_as_xyz
  1  'x, y, z'
loop_
 _atom_site_type_symbol
 _atom_site_label
 _atom_site_symmetry_multiplicity
 _atom_site_fract_x
 _atom_site_fract_y
 _atom_site_fract_z
 _atom_site_occupancy
  La  La0  1  0.00000000  0.00000000  0.02216300  1
  La  La1  1  0.00000000  0.00000000  0.52216300  1
  Fe  Fe0  1  0.97647000  0.48823500  0.77198300  1
  Fe  Fe1  1  0.33333300  0.66666700  0.51340400  1
  Fe  Fe2  1  0.66666700  0.33333300  0.48932300  1
  Fe  Fe3  1  0.51176500  0.48823500  0.77198300  1
  Fe  Fe4  1  0.66666700  0.33333300  0.01340400  1
  Fe  Fe5  1  0.48823500  0.97647000  0.27198300  1
  Fe  Fe6  1  0.02353000  0.51176500  0.27198300  1
  Fe  Fe7  1  0.33333300  0.66666700  0.98932300  1
  Fe  Fe8  1  0.51176500  0.02353000  0.77198300  1
  Fe  Fe9  1  0.48823500  0.51176500  0.27198300  1
  H  H0  1  0.85955300  0.71910700  0.77294700  1
  H  H1  1  0.85955300  0.14044700  0.77294700  1
  H  H2  1  0.14044700  0.85955300  0.27294700  1
  H  H3  1  0.33333300  0.66666700  0.76888500  1
  H  H4  1  0.00611900  0.50306000  0.06281200  1
  H  H5  1  0.71910700  0.85955300  0.27294700  1
  H  H6  1  0.50306000  0.00611900  0.56281200  1
  H  H7  1  0.99388100  0.49694000  0.56281200  1
  H  H8  1  0.14044700  0.28089300  0.27294700  1
  H  H9  1  0.66666700  0.33333300  0.26888500  1
  H  H10  1  0.49694000  0.50306000  0.06281200  1
  H  H11  1  0.49694000  0.99388100  0.06281200  1
  H  H12  1  0.50306000  0.49694000  0.56281200  1
  H  H13  1  0.28089300  0.14044700  0.77294700  1
loop_
_geom_bond_atom_site_label_1
_geom_bond_atom_site_label_2
_geom_bond_distance
_geom_bond_site_symmetry_2
Fe0 H1 1.728002 1_555
Fe0 H0 1.728008 1_555
Fe0 H7 1.737339 1_555
Fe0 H3 1.742364 1_655
Fe1 H6 1.707113 1_565
Fe1 H7 1.707113 1_455
Fe1 H12 1.707122 1_555
Fe1 H3 2.119440 1_555
Fe2 H7 1.709814 1_555
Fe2 H6 1.709814 1_555
Fe2 H12 1.709814 1_555
Fe2 H9 1.828728 1_555
Fe3 H0 1.728003 1_555
Fe3 H13 1.728003 1_555
Fe3 H12 1.737338 1_555
Fe3 H3 1.742369 1_555
Fe4 H4 1.707113 1_655
Fe4 H11 1.707113 1_545
Fe4 H10 1.707122 1_555
Fe4 H9 2.119440 1_555
Fe5 H2 1.728002 1_555
Fe5 H5 1.728008 1_555
Fe5 H11 1.737339 1_555
Fe5 H9 1.742364 1_565
Fe6 H2 1.728002 1_555
Fe6 H8 1.728008 1_555
Fe6 H4 1.737339 1_555
Fe6 H9 1.742364 1_455
Fe7 H11 1.709814 1_556
Fe7 H4 1.709814 1_556
Fe7 H10 1.709814 1_556
Fe7 H3 1.828728 1_555
Fe8 H1 1.728002 1_555
Fe8 H13 1.728008 1_555
Fe8 H6 1.737339 1_555
Fe8 H3 1.742364 1_545
Fe9 H5 1.728003 1_555
Fe9 H8 1.728003 1_555
Fe9 H10 1.737338 1_555
Fe9 H9 1.742369 1_555
H0 La0 2.480901 1_666
H0 La1 2.491752 1_665
H1 La0 2.480904 1_656
H1 La1 2.491754 1_655
H2 La1 2.480904 1_565
H2 La0 2.491754 1_565
H4 La0 2.838830 1_565
H4 La0 2.838835 1_555
H5 La1 2.480901 1_665
H5 La0 2.491752 1_665
H6 La1 2.838830 1_655
H6 La1 2.838835 1_555
H7 La1 2.838830 1_655
H7 La1 2.838835 1_665
H8 La1 2.480901 1_555
H8 La0 2.491752 1_555
H10 La0 2.838832 1_665
H10 La0 2.838832 1_555
H11 La0 2.838830 1_565
H11 La0 2.838835 1_665
H12 La1 2.838832 1_665
H12 La1 2.838832 1_555
H13 La0 2.480901 1_556
H13 La1 2.491752 1_555
