# generated using pymatgen
data_KMnH2OF4
_symmetry_space_group_name_H-M   'P 1'
_cell_length_a   7.62016121
_cell_length_b   7.62016121
_cell_length_c   10.72694516
_cell_angle_alpha   77.41283103
_cell_angle_beta   77.41283103
_cell_angle_gamma   49.37364236
_symmetry_Int_Tables_number   1
_chemical_formula_structural   KMnH2OF4
_chemical_formula_sum   'K4 Mn4 H8 O4 F16'
_cell_volume   458.94935491
_cell_formula_units_Z   4
loop_
 _symmetry_equiv_pos_site_id
 _symmetry_equiv_pos_as_xyz
  1  'x, y, z'
loop_
 _atom_site_type_symbol
 _atom_site_label
 _atom_site_symmetry_multiplicity
 _atom_site_fract_x
 _atom_site_fract_y
 _atom_site_fract_z
 _atom_site_occupancy
  K  K0  1  0.18119800  0.66088000  0.44383200  1
  K  K1  1  0.33912000  0.81880200  0.05616800  1
  K  K2  1  0.81880200  0.33912000  0.55616800  1
  K  K3  1  0.66088000  0.18119800  0.94383200  1
  Mn  Mn0  1  0.50000000  0.00000000  0.50000000  1
  Mn  Mn1  1  0.00000000  0.50000000  0.00000000  1
  Mn  Mn2  1  0.75680500  0.24319500  0.25000000  1
  Mn  Mn3  1  0.24319500  0.75680500  0.75000000  1
  H  H0  1  0.26653100  0.09214000  0.30491400  1
  H  H1  1  0.90786000  0.73346900  0.19508600  1
  H  H2  1  0.73346900  0.90786000  0.69508600  1
  H  H3  1  0.09214000  0.26653100  0.80491400  1
  H  H4  1  0.40079700  0.19272100  0.25553800  1
  H  H5  1  0.80727900  0.59920300  0.24446200  1
  H  H6  1  0.59920300  0.80727900  0.74446200  1
  H  H7  1  0.19272100  0.40079700  0.75553800  1
  O  O0  1  0.41274200  0.06242800  0.30869000  1
  O  O1  1  0.93757200  0.58725800  0.19131000  1
  O  O2  1  0.58725800  0.93757200  0.69131000  1
  O  O3  1  0.06242800  0.41274200  0.80869000  1
  F  F0  1  0.64491400  0.15429400  0.43769900  1
  F  F1  1  0.84570600  0.35508600  0.06230100  1
  F  F2  1  0.35508600  0.84570600  0.56230100  1
  F  F3  1  0.15429400  0.64491400  0.93769900  1
  F  F4  1  0.78354300  0.71794800  0.46228700  1
  F  F5  1  0.28205200  0.21645700  0.03771300  1
  F  F6  1  0.21645700  0.28205200  0.53771300  1
  F  F7  1  0.71794800  0.78354300  0.96228700  1
  F  F8  1  0.90164900  0.96045300  0.18356600  1
  F  F9  1  0.03954700  0.09835100  0.31643400  1
  F  F10  1  0.09835100  0.03954700  0.81643400  1
  F  F11  1  0.96045300  0.90164900  0.68356600  1
  F  F12  1  0.47128700  0.37972200  0.19137500  1
  F  F13  1  0.62027800  0.52871300  0.30862500  1
  F  F14  1  0.52871300  0.62027800  0.80862500  1
  F  F15  1  0.37972200  0.47128700  0.69137500  1
loop_
_geom_bond_atom_site_label_1
_geom_bond_atom_site_label_2
_geom_bond_distance
_geom_bond_site_symmetry_2
Mn0 O0 2.153405 1_555
Mn0 O2 2.153405 1_545
Mn1 O1 2.153405 1_455
Mn1 O3 2.153405 1_554
H0 O0 0.990661 1_555
H1 O1 0.990661 1_555
H2 O2 0.990661 1_555
H3 O3 0.990661 1_555
H4 O0 0.988600 1_555
H5 O1 0.988600 1_555
H6 O2 0.988600 1_555
H7 O3 0.988600 1_555
F0 Mn0 2.018675 1_555
F0 Mn2 2.156221 1_555
F0 K2 3.049363 1_555
F0 K0 3.104543 1_555
F0 K0 3.292634 1_645
F1 Mn1 2.018675 1_655
F1 Mn2 2.156221 1_555
F1 K3 3.049363 1_554
F1 K1 3.104543 1_555
F1 K1 3.292634 1_645
F2 Mn0 2.018675 1_565
F2 Mn3 2.156221 1_555
F2 K0 3.049363 1_555
F2 K2 3.104543 1_555
F2 K2 3.292634 1_465
F3 Mn1 2.018675 1_556
F3 Mn3 2.156221 1_555
F3 K1 3.049363 1_556
F3 K3 3.104543 1_555
F3 K3 3.292634 1_465
F4 Mn0 1.844459 1_565
F4 K2 2.694514 1_555
F4 K0 2.733210 1_655
F5 Mn1 1.844459 1_555
F5 K3 2.694514 1_554
F5 K1 2.733210 1_545
F6 Mn0 1.844459 1_555
F6 K0 2.694514 1_555
F6 K2 2.733210 1_455
F7 Mn1 1.844459 1_656
F7 K1 2.694514 1_556
F7 K3 2.733210 1_565
F8 Mn2 1.896761 1_565
F8 K1 2.849041 1_655
F8 K3 2.993474 1_564
F8 K0 3.320413 1_655
F9 Mn2 1.896761 1_455
F9 K0 2.849041 1_545
F9 K2 2.993474 1_455
F9 K1 3.320413 1_545
F10 Mn3 1.896761 1_545
F10 K3 2.849041 1_455
F10 K1 2.993474 1_546
F10 K2 3.320413 1_455
F11 Mn3 1.896761 1_655
F11 K2 2.849041 1_565
F11 K0 2.993474 1_655
F11 K3 3.320413 1_565
F12 Mn2 1.890770 1_555
F12 K1 2.906204 1_555
F12 K3 2.942690 1_554
F12 K0 3.250018 1_555
F13 Mn2 1.890770 1_555
F13 K0 2.906204 1_555
F13 K2 2.942690 1_555
F13 K1 3.250018 1_555
F14 Mn3 1.890770 1_555
F14 K3 2.906204 1_555
F14 K1 2.942690 1_556
F14 K2 3.250018 1_555
F15 Mn3 1.890770 1_555
F15 K2 2.906204 1_555
F15 K0 2.942690 1_555
F15 K3 3.250018 1_555
