# generated using pymatgen
data_NaV(GeO3)2
_symmetry_space_group_name_H-M   'P 1'
_cell_length_a   5.58821713
_cell_length_b   6.77699644
_cell_length_c   13.53469758
_cell_angle_alpha   87.97665804
_cell_angle_beta   101.34398513
_cell_angle_gamma   77.49850700
_symmetry_Int_Tables_number   1
_chemical_formula_structural   NaV(GeO3)2
_chemical_formula_sum   'Na4 V4 Ge8 O24'
_cell_volume   489.02079390
_cell_formula_units_Z   4
loop_
 _symmetry_equiv_pos_site_id
 _symmetry_equiv_pos_as_xyz
  1  'x, y, z'
loop_
 _atom_site_type_symbol
 _atom_site_label
 _atom_site_symmetry_multiplicity
 _atom_site_fract_x
 _atom_site_fract_y
 _atom_site_fract_z
 _atom_site_occupancy
  Na  Na0  1  0.84788800  0.80458800  0.09728000  1
  Na  Na1  1  0.34978800  0.80563400  0.59702000  1
  Na  Na2  1  0.65299000  0.19477600  0.40244600  1
  Na  Na3  1  0.15055900  0.19434500  0.90319800  1
  V  V0  1  0.95545600  0.59530400  0.70299000  1
  V  V1  1  0.04688200  0.40590500  0.29694600  1
  V  V2  1  0.45345800  0.59363700  0.20313900  1
  V  V3  1  0.54466700  0.40716700  0.79620600  1
  Ge  Ge0  1  0.79068900  0.30664200  0.05934300  1
  Ge  Ge1  1  0.28730600  0.30656300  0.55817500  1
  Ge  Ge2  1  0.38566800  0.11680900  0.15430800  1
  Ge  Ge3  1  0.88232700  0.11830600  0.65346400  1
  Ge  Ge4  1  0.70917000  0.69298000  0.44082800  1
  Ge  Ge5  1  0.21345200  0.69258500  0.94173100  1
  Ge  Ge6  1  0.11447200  0.88264400  0.34587400  1
  Ge  Ge7  1  0.61686900  0.88279100  0.84655200  1
  O  O0  1  0.12701800  0.68980400  0.26094900  1
  O  O1  1  0.62746000  0.69039900  0.76127300  1
  O  O2  1  0.71012300  0.52202200  0.34506100  1
  O  O3  1  0.21282600  0.52378300  0.84447300  1
  O  O4  1  0.37304200  0.30991800  0.23915800  1
  O  O5  1  0.87044700  0.31167900  0.73836100  1
  O  O6  1  0.78981800  0.47739600  0.15532800  1
  O  O7  1  0.28904100  0.47609900  0.65485800  1
  O  O8  1  0.93123500  0.84551800  0.43714900  1
  O  O9  1  0.43328100  0.84688200  0.93792400  1
  O  O10  1  0.56963000  0.15339600  0.06334200  1
  O  O11  1  0.06644300  0.15354100  0.56232000  1
  O  O12  1  0.41557400  0.87616000  0.42215800  1
  O  O13  1  0.91877700  0.87530000  0.92235500  1
  O  O14  1  0.08455400  0.12366700  0.07788600  1
  O  O15  1  0.58171100  0.12378300  0.57720100  1
  O  O16  1  0.24984800  0.40736900  0.43422500  1
  O  O17  1  0.74666900  0.40706000  0.93533800  1
  O  O18  1  0.52163700  0.86781900  0.20474000  1
  O  O19  1  0.02133900  0.86923600  0.70387200  1
  O  O20  1  0.97829600  0.13157700  0.29560600  1
  O  O21  1  0.47912000  0.13195900  0.79625600  1
  O  O22  1  0.25061300  0.59091300  0.06555900  1
  O  O23  1  0.74985500  0.59404500  0.56511000  1
loop_
_geom_bond_atom_site_label_1
_geom_bond_atom_site_label_2
_geom_bond_distance
_geom_bond_site_symmetry_2
Na0 O6 2.434777 1_555
Na0 O0 2.437015 1_655
Na0 O10 2.503557 1_565
Na0 O22 2.521744 1_655
Na0 O13 2.522486 1_554
Na0 O18 2.524258 1_555
Na0 O9 2.793768 1_554
Na0 O14 2.797961 1_665
Na1 O1 2.440408 1_555
Na1 O7 2.454545 1_555
Na1 O23 2.505311 1_555
Na1 O11 2.509936 1_565
Na1 O12 2.510648 1_555
Na1 O19 2.528226 1_555
Na1 O15 2.775987 1_565
Na1 O8 2.814224 1_455
Na2 O2 2.430234 1_555
Na2 O4 2.435200 1_555
Na2 O8 2.506290 1_545
Na2 O20 2.513957 1_555
Na2 O16 2.521075 1_555
Na2 O15 2.521471 1_555
Na2 O11 2.794559 1_655
Na2 O12 2.798680 1_545
Na3 O5 2.453976 1_455
Na3 O3 2.461128 1_555
Na3 O9 2.506191 1_545
Na3 O14 2.509028 1_556
Na3 O17 2.526545 1_455
Na3 O21 2.529343 1_555
Na3 O13 2.779358 1_445
Na3 O10 2.817564 1_556
Ge0 O17 1.739257 1_554
Ge0 O6 1.770049 1_555
Ge0 O10 1.784741 1_555
Ge0 O14 1.797691 1_655
Ge1 O16 1.744697 1_555
Ge1 O7 1.771591 1_555
Ge1 O11 1.783019 1_555
Ge1 O15 1.798863 1_555
Ge2 O18 1.746467 1_545
Ge2 O4 1.770470 1_555
Ge2 O14 1.783684 1_555
Ge2 O10 1.794678 1_555
Ge3 O19 1.749458 1_645
Ge3 O5 1.772227 1_555
Ge3 O15 1.782427 1_555
Ge3 O11 1.795070 1_655
Ge4 O23 1.742032 1_555
Ge4 O2 1.768757 1_555
Ge4 O8 1.785250 1_555
Ge4 O12 1.797152 1_555
Ge5 O22 1.745385 1_556
Ge5 O3 1.774185 1_555
Ge5 O9 1.783927 1_555
Ge5 O13 1.799478 1_455
Ge6 O20 1.745708 1_465
Ge6 O0 1.769787 1_555
Ge6 O12 1.783400 1_555
Ge6 O8 1.795887 1_455
Ge7 O21 1.748515 1_565
Ge7 O1 1.770726 1_555
Ge7 O13 1.783223 1_555
Ge7 O9 1.796420 1_555
O0 V2 2.108920 1_555
O0 V1 2.128913 1_555
O1 V0 2.119075 1_555
O1 V3 2.128000 1_555
O2 V1 2.112345 1_655
O2 V2 2.128723 1_555
O3 V3 2.090147 1_555
O3 V0 2.125938 1_455
O4 V1 2.107228 1_555
O4 V2 2.128542 1_555
O5 V3 2.105352 1_555
O5 V0 2.137575 1_555
O6 V2 2.108522 1_555
O6 V1 2.126548 1_655
O7 V0 2.101187 1_455
O7 V3 2.119357 1_555
O16 V1 1.978875 1_555
O17 V3 1.995911 1_555
O18 V2 1.975947 1_555
O19 V0 1.969208 1_455
O20 V1 1.977798 1_655
O21 V3 1.976987 1_555
O22 V2 1.983381 1_555
O23 V0 1.991128 1_555
