# generated using pymatgen
data_Gd(NiSb)2
_symmetry_space_group_name_H-M   'P 1'
_cell_length_a   6.15846417
_cell_length_b   6.15846417
_cell_length_c   6.15846417
_cell_angle_alpha   138.85561780
_cell_angle_beta   138.85561780
_cell_angle_gamma   59.59507469
_symmetry_Int_Tables_number   1
_chemical_formula_structural   Gd(NiSb)2
_chemical_formula_sum   'Gd1 Ni2 Sb2'
_cell_volume   100.10652320
_cell_formula_units_Z   1
loop_
 _symmetry_equiv_pos_site_id
 _symmetry_equiv_pos_as_xyz
  1  'x, y, z'
loop_
 _atom_site_type_symbol
 _atom_site_label
 _atom_site_symmetry_multiplicity
 _atom_site_fract_x
 _atom_site_fract_y
 _atom_site_fract_z
 _atom_site_occupancy
  Gd  Gd0  1  0.00000000  0.00000000  0.00000000  1
  Ni  Ni0  1  0.25000000  0.75000000  0.50000000  1
  Ni  Ni1  1  0.75000000  0.25000000  0.50000000  1
  Sb  Sb0  1  0.36592600  0.36592600  0.00000000  1
  Sb  Sb1  1  0.63407400  0.63407400  0.00000000  1
loop_
_geom_bond_atom_site_label_1
_geom_bond_atom_site_label_2
_geom_bond_distance
_geom_bond_site_symmetry_2
Gd0 Sb0 3.379270 1_545
Gd0 Sb1 3.379270 1_545
Gd0 Sb1 3.379270 1_444
Gd0 Sb0 3.379270 1_556
Gd0 Sb0 3.379270 1_455
Gd0 Sb1 3.379270 1_455
Gd0 Sb0 3.379270 1_444
Gd0 Sb1 3.379270 1_556
Gd0 Ni0 3.438478 1_444
Gd0 Ni1 3.438478 1_555
Gd0 Ni0 3.438478 1_544
Gd0 Ni0 3.438478 1_555
Gd0 Ni0 3.438478 1_545
Gd0 Ni1 3.438478 1_444
Gd0 Ni1 3.438478 1_455
Gd0 Ni1 3.438478 1_454
Ni0 Sb0 2.493636 1_555
Ni0 Sb1 2.493636 1_455
Ni0 Sb1 2.493636 1_556
Ni0 Sb0 2.493636 1_566
Ni1 Sb0 2.493636 1_555
Ni1 Sb0 2.493636 1_656
Ni1 Sb1 2.493636 1_556
Ni1 Sb1 2.493636 1_545
Sb0 Sb1 2.866091 1_555
