# generated using pymatgen
data_Sm2AlGe3
_symmetry_space_group_name_H-M   'P 1'
_cell_length_a   4.30969700
_cell_length_b   6.87566000
_cell_length_c   18.07959400
_cell_angle_alpha   90.00000000
_cell_angle_beta   90.00000000
_cell_angle_gamma   90.00000000
_symmetry_Int_Tables_number   1
_chemical_formula_structural   Sm2AlGe3
_chemical_formula_sum   'Sm8 Al4 Ge12'
_cell_volume   535.73473326
_cell_formula_units_Z   4
loop_
 _symmetry_equiv_pos_site_id
 _symmetry_equiv_pos_as_xyz
  1  'x, y, z'
loop_
 _atom_site_type_symbol
 _atom_site_label
 _atom_site_symmetry_multiplicity
 _atom_site_fract_x
 _atom_site_fract_y
 _atom_site_fract_z
 _atom_site_occupancy
  Sm  Sm0  1  0.25000000  0.17349300  0.79597200  1
  Sm  Sm1  1  0.25000000  0.17207500  0.58435300  1
  Sm  Sm2  1  0.75000000  0.32792500  0.08435300  1
  Sm  Sm3  1  0.25000000  0.67349300  0.70402800  1
  Sm  Sm4  1  0.25000000  0.67207500  0.91564700  1
  Sm  Sm5  1  0.75000000  0.32650700  0.29597200  1
  Sm  Sm6  1  0.75000000  0.82792500  0.41564700  1
  Sm  Sm7  1  0.75000000  0.82650700  0.20402800  1
  Al  Al0  1  0.25000000  0.45122700  0.43562300  1
  Al  Al1  1  0.25000000  0.95122700  0.06437700  1
  Al  Al2  1  0.75000000  0.54877300  0.56437700  1
  Al  Al3  1  0.75000000  0.04877300  0.93562300  1
  Ge  Ge0  1  0.75000000  0.25856900  0.46467300  1
  Ge  Ge1  1  0.25000000  0.02441600  0.32439900  1
  Ge  Ge2  1  0.25000000  0.64224000  0.31183700  1
  Ge  Ge3  1  0.75000000  0.85776000  0.81183700  1
  Ge  Ge4  1  0.75000000  0.75856900  0.03532700  1
  Ge  Ge5  1  0.75000000  0.47558400  0.82439900  1
  Ge  Ge6  1  0.75000000  0.35776000  0.68816300  1
  Ge  Ge7  1  0.25000000  0.14224000  0.18816300  1
  Ge  Ge8  1  0.25000000  0.52441600  0.17560100  1
  Ge  Ge9  1  0.25000000  0.74143100  0.53532700  1
  Ge  Ge10  1  0.75000000  0.97558400  0.67560100  1
  Ge  Ge11  1  0.25000000  0.24143100  0.96467300  1
loop_
_geom_bond_atom_site_label_1
_geom_bond_atom_site_label_2
_geom_bond_distance
_geom_bond_site_symmetry_2
Al0 Ge0 2.583393 1_455
Al0 Ge0 2.583393 1_555
Al0 Ge2 2.594901 1_555
Al0 Ge9 2.689013 1_555
Al0 Sm1 3.303714 1_555
Al0 Sm6 3.388533 1_455
Al0 Sm6 3.388533 1_555
Al0 Sm5 3.428340 1_455
Al0 Sm5 3.428340 1_555
Al1 Ge4 2.583393 1_455
Al1 Ge4 2.583393 1_555
Al1 Ge7 2.594901 1_565
Al1 Ge11 2.689013 1_564
Al1 Sm4 3.303714 1_554
Al1 Sm2 3.388533 1_565
Al1 Sm2 3.388533 1_465
Al1 Sm7 3.428340 1_555
Al1 Sm7 3.428340 1_455
Al2 Ge9 2.583393 1_555
Al2 Ge9 2.583393 1_655
Al2 Ge6 2.594901 1_555
Al2 Ge0 2.689013 1_555
Al2 Sm6 3.303714 1_555
Al2 Sm1 3.388533 1_655
Al2 Sm1 3.388533 1_555
Al2 Sm3 3.428340 1_555
Al2 Sm3 3.428340 1_655
Al3 Ge11 2.583393 1_555
Al3 Ge11 2.583393 1_655
Al3 Ge3 2.594901 1_545
Al3 Ge4 2.689013 1_546
Al3 Sm2 3.303714 1_556
Al3 Sm4 3.388533 1_545
Al3 Sm4 3.388533 1_645
Al3 Sm0 3.428340 1_555
Al3 Sm0 3.428340 1_655
Ge0 Sm5 3.085608 1_555
Ge0 Sm6 3.090784 1_545
Ge0 Sm1 3.111097 1_555
Ge0 Sm1 3.111097 1_655
Ge1 Ge7 2.592896 1_555
Ge1 Ge2 2.637509 1_545
Ge1 Sm6 3.031532 1_445
Ge1 Sm6 3.031532 1_545
Ge1 Sm5 3.036734 1_455
Ge1 Sm5 3.036734 1_555
Ge1 Sm7 3.351288 1_545
Ge1 Sm7 3.351288 1_445
Ge2 Ge8 2.592896 1_555
Ge2 Sm5 3.072187 1_455
Ge2 Sm5 3.072187 1_555
Ge2 Sm6 3.129839 1_455
Ge2 Sm6 3.129839 1_555
Ge2 Sm7 3.169812 1_555
Ge2 Sm7 3.169812 1_455
Ge3 Ge5 2.637509 1_555
Ge3 Sm0 3.072187 1_565
Ge3 Sm0 3.072187 1_665
Ge3 Sm4 3.129839 1_655
Ge3 Sm4 3.129839 1_555
Ge3 Sm3 3.169812 1_655
Ge3 Sm3 3.169812 1_555
Ge4 Sm7 3.085608 1_555
Ge4 Sm2 3.090784 1_555
Ge4 Sm4 3.111097 1_554
Ge4 Sm4 3.111097 1_654
Ge5 Ge6 2.592896 1_555
Ge5 Sm4 3.031532 1_555
Ge5 Sm4 3.031532 1_655
Ge5 Sm0 3.036734 1_655
Ge5 Sm0 3.036734 1_555
Ge5 Sm3 3.351288 1_555
Ge5 Sm3 3.351288 1_655
Ge6 Sm3 3.072187 1_555
Ge6 Sm3 3.072187 1_655
Ge6 Sm1 3.129839 1_655
Ge6 Sm1 3.129839 1_555
Ge6 Sm0 3.169812 1_555
Ge6 Sm0 3.169812 1_655
Ge7 Ge8 2.637509 1_555
Ge7 Sm7 3.072187 1_545
Ge7 Sm7 3.072187 1_445
Ge7 Sm2 3.129839 1_455
Ge7 Sm2 3.129839 1_555
Ge7 Sm5 3.169812 1_455
Ge7 Sm5 3.169812 1_555
Ge8 Sm2 3.031532 1_555
Ge8 Sm2 3.031532 1_455
Ge8 Sm7 3.036734 1_555
Ge8 Sm7 3.036734 1_455
Ge8 Sm5 3.351288 1_555
Ge8 Sm5 3.351288 1_455
Ge9 Sm3 3.085608 1_555
Ge9 Sm1 3.090784 1_565
Ge9 Sm6 3.111097 1_455
Ge9 Sm6 3.111097 1_555
Ge10 Ge3 2.592896 1_555
Ge10 Ge6 2.637509 1_565
Ge10 Sm1 3.031532 1_665
Ge10 Sm1 3.031532 1_565
Ge10 Sm3 3.036734 1_555
Ge10 Sm3 3.036734 1_655
Ge10 Sm0 3.351288 1_565
Ge10 Sm0 3.351288 1_665
Ge11 Sm0 3.085608 1_555
Ge11 Sm4 3.090784 1_555
Ge11 Sm2 3.111097 1_456
Ge11 Sm2 3.111097 1_556
