# generated using pymatgen
data_NbCoTe2
_symmetry_space_group_name_H-M   'P 1'
_cell_length_a   6.34339922
_cell_length_b   7.92883154
_cell_length_c   8.50769229
_cell_angle_alpha   116.68737320
_cell_angle_beta   89.99080737
_cell_angle_gamma   90.00105440
_symmetry_Int_Tables_number   1
_chemical_formula_structural   NbCoTe2
_chemical_formula_sum   'Nb4 Co4 Te8'
_cell_volume   382.31660929
_cell_formula_units_Z   4
loop_
 _symmetry_equiv_pos_site_id
 _symmetry_equiv_pos_as_xyz
  1  'x, y, z'
loop_
 _atom_site_type_symbol
 _atom_site_label
 _atom_site_symmetry_multiplicity
 _atom_site_fract_x
 _atom_site_fract_y
 _atom_site_fract_z
 _atom_site_occupancy
  Nb  Nb0  1  0.51444782  0.80368605  0.51232902  1
  Nb  Nb1  1  0.48550361  0.19631082  0.48766267  1
  Nb  Nb2  1  0.01448009  0.69628256  0.48764748  1
  Nb  Nb3  1  0.98553401  0.30369554  0.51234724  1
  Co  Co0  1  0.14585731  0.05790798  0.60947793  1
  Co  Co1  1  0.64586177  0.44212417  0.39052221  1
  Co  Co2  1  0.35408150  0.55787548  0.60949783  1
  Co  Co3  1  0.85418730  0.94211287  0.39053180  1
  Te  Te0  1  0.74538354  0.62762441  0.71616830  1
  Te  Te1  1  0.25348671  0.40393564  0.80575492  1
  Te  Te2  1  0.75356860  0.09602131  0.19424942  1
  Te  Te3  1  0.24558241  0.87237485  0.28377474  1
  Te  Te4  1  0.24640791  0.90392934  0.80573836  1
  Te  Te5  1  0.74654170  0.59607508  0.19423704  1
  Te  Te6  1  0.75449273  0.12765822  0.71620583  1
  Te  Te7  1  0.25458200  0.37238668  0.28385419  1
loop_
_geom_bond_atom_site_label_1
_geom_bond_atom_site_label_2
_geom_bond_distance
_geom_bond_site_symmetry_2
Nb0 Te6 2.814975 1_565
Nb0 Te3 2.817573 1_555
Nb0 Te4 2.823194 1_555
Nb0 Te5 2.863263 1_555
Nb0 Te0 3.045913 1_555
Nb1 Te3 2.814387 1_545
Nb1 Te6 2.817830 1_555
Nb1 Te2 2.823273 1_555
Nb1 Te1 2.863030 1_555
Nb1 Te7 3.045747 1_555
Nb2 Te7 2.814389 1_555
Nb2 Te0 2.817727 1_455
Nb2 Te5 2.823311 1_455
Nb2 Te4 2.863173 1_555
Nb2 Te3 3.046523 1_555
Nb3 Te0 2.814771 1_555
Nb3 Te7 2.817489 1_655
Nb3 Te1 2.823318 1_655
Nb3 Te2 2.863369 1_555
Nb3 Te6 3.045932 1_555
Co0 Co3 2.490124 1_445
Co0 Te4 2.552800 1_545
Co0 Te3 2.565252 1_545
Co0 Te1 2.582042 1_555
Co0 Te6 2.615684 1_455
Co0 Nb3 2.638539 1_455
Co0 Nb2 2.705689 1_545
Co0 Nb1 2.817970 1_555
Co0 Nb0 2.952284 1_545
Co1 Co2 2.490359 1_555
Co1 Te5 2.552873 1_555
Co1 Te0 2.564717 1_555
Co1 Te2 2.582511 1_555
Co1 Te7 2.615297 1_555
Co1 Nb1 2.638727 1_555
Co1 Nb0 2.705262 1_555
Co1 Nb3 2.818540 1_555
Co1 Nb2 2.952300 1_655
Co2 Te1 2.552463 1_555
Co2 Te7 2.564657 1_555
Co2 Te4 2.582109 1_555
Co2 Te0 2.615441 1_555
Co2 Nb0 2.638884 1_555
Co2 Nb1 2.705275 1_555
Co2 Nb2 2.818219 1_555
Co2 Nb3 2.952033 1_455
Co3 Te2 2.552641 1_565
Co3 Te6 2.565008 1_565
Co3 Te5 2.582157 1_555
Co3 Te3 2.615925 1_655
Co3 Nb2 2.638680 1_655
Co3 Nb3 2.705340 1_565
Co3 Nb0 2.818445 1_555
Co3 Nb1 2.952650 1_565
