# generated using pymatgen
data_Cs2Sb2OF10
_symmetry_space_group_name_H-M   'P 1'
_cell_length_a   5.46517900
_cell_length_b   7.59680100
_cell_length_c   14.27334705
_cell_angle_alpha   79.40344051
_cell_angle_beta   90.00000000
_cell_angle_gamma   90.00000000
_symmetry_Int_Tables_number   1
_chemical_formula_structural   Cs2Sb2OF10
_chemical_formula_sum   'Cs4 Sb4 O2 F20'
_cell_volume   582.49311975
_cell_formula_units_Z   2
loop_
 _symmetry_equiv_pos_site_id
 _symmetry_equiv_pos_as_xyz
  1  'x, y, z'
loop_
 _atom_site_type_symbol
 _atom_site_label
 _atom_site_symmetry_multiplicity
 _atom_site_fract_x
 _atom_site_fract_y
 _atom_site_fract_z
 _atom_site_occupancy
  Cs  Cs0  1  0.40951000  0.23456800  0.59279800  1
  Cs  Cs1  1  0.59049000  0.23456800  0.09279800  1
  Cs  Cs2  1  0.59049000  0.76543200  0.40720200  1
  Cs  Cs3  1  0.40951000  0.76543200  0.90720200  1
  Sb  Sb0  1  0.01680400  0.29377100  0.33350700  1
  Sb  Sb1  1  0.98319600  0.29377100  0.83350700  1
  Sb  Sb2  1  0.01680400  0.70622900  0.16649300  1
  Sb  Sb3  1  0.98319600  0.70622900  0.66649300  1
  O  O0  1  0.12981900  0.50000000  0.75000000  1
  O  O1  1  0.87018100  0.50000000  0.25000000  1
  F  F0  1  0.73169300  0.84793300  0.18346500  1
  F  F1  1  0.69312300  0.58044500  0.63814300  1
  F  F2  1  0.16600500  0.78967500  0.27278200  1
  F  F3  1  0.84877800  0.08629600  0.91648700  1
  F  F4  1  0.30687700  0.41955500  0.36185700  1
  F  F5  1  0.15122200  0.91370400  0.08351300  1
  F  F6  1  0.16600500  0.21032500  0.22721800  1
  F  F7  1  0.26830700  0.84793300  0.68346500  1
  F  F8  1  0.83399500  0.21032500  0.72721800  1
  F  F9  1  0.69312300  0.41955500  0.86185700  1
  F  F10  1  0.15122200  0.08629600  0.41648700  1
  F  F11  1  0.13935600  0.35909500  0.94425700  1
  F  F12  1  0.26830700  0.15206700  0.81653500  1
  F  F13  1  0.86064400  0.64090500  0.05574300  1
  F  F14  1  0.83399500  0.78967500  0.77278200  1
  F  F15  1  0.73169300  0.15206700  0.31653500  1
  F  F16  1  0.84877800  0.91370400  0.58351300  1
  F  F17  1  0.86064400  0.35909500  0.44425700  1
  F  F18  1  0.30687700  0.58044500  0.13814300  1
  F  F19  1  0.13935600  0.64090500  0.55574300  1
loop_
_geom_bond_atom_site_label_1
_geom_bond_atom_site_label_2
_geom_bond_distance
_geom_bond_site_symmetry_2
Cs0 F8 2.994487 1_555
Cs0 F7 3.082105 1_545
Cs0 F1 3.217284 1_555
Cs0 F12 3.232723 1_555
Cs0 F10 3.261425 1_555
Cs0 F17 3.275858 1_555
Cs0 F19 3.374591 1_555
Cs0 F4 3.383994 1_555
Cs0 F16 3.441109 1_545
Cs1 F6 2.994487 1_555
Cs1 F0 3.082105 1_545
Cs1 F18 3.217284 1_555
Cs1 F15 3.232723 1_555
Cs1 F3 3.261425 1_554
Cs1 F11 3.275858 1_554
Cs1 F13 3.374591 1_555
Cs1 F9 3.383994 1_554
Cs1 F5 3.441109 1_545
Cs2 F2 2.994487 1_555
Cs2 F15 3.082105 1_565
Cs2 F4 3.217284 1_555
Cs2 F0 3.232723 1_555
Cs2 F16 3.261425 1_555
Cs2 F19 3.275858 1_555
Cs2 F17 3.374591 1_555
Cs2 F1 3.383994 1_555
Cs2 F10 3.441109 1_565
Cs3 F14 2.994487 1_555
Cs3 F12 3.082105 1_565
Cs3 F9 3.217284 1_555
Cs3 F7 3.232723 1_555
Cs3 F5 3.261425 1_556
Cs3 F13 3.275858 1_556
Cs3 F11 3.374591 1_555
Cs3 F18 3.383994 1_556
Cs3 F3 3.441109 1_565
O0 Sb3 1.957166 1_455
O0 Sb1 1.957166 1_455
O1 Sb2 1.957166 1_655
O1 Sb0 1.957166 1_655
F0 Sb2 1.934263 1_655
F1 Sb3 1.931895 1_555
F2 Sb2 1.929262 1_555
F3 Sb1 1.933942 1_555
F4 Sb0 1.931895 1_555
F5 Sb2 1.933942 1_555
F6 Sb0 1.929262 1_555
F7 Sb3 1.934263 1_455
F8 Sb1 1.929262 1_555
F9 Sb1 1.931895 1_555
F10 Sb0 1.933942 1_555
F11 Sb1 1.939585 1_455
F12 Sb1 1.934263 1_455
F13 Sb2 1.939585 1_655
F14 Sb3 1.929262 1_555
F15 Sb0 1.934263 1_655
F16 Sb3 1.933942 1_555
F17 Sb0 1.939585 1_655
F18 Sb2 1.931895 1_555
F19 Sb3 1.939585 1_455
