# generated using pymatgen
data_Pr(MnSi)2
_symmetry_space_group_name_H-M   'P 1'
_cell_length_a   4.14475696
_cell_length_b   4.14475755
_cell_length_c   6.09294483
_cell_angle_alpha   109.88466311
_cell_angle_beta   109.88465946
_cell_angle_gamma   90.00000112
_symmetry_Int_Tables_number   1
_chemical_formula_structural   Pr(MnSi)2
_chemical_formula_sum   'Pr1 Mn2 Si2'
_cell_volume   91.76625778
_cell_formula_units_Z   1
loop_
 _symmetry_equiv_pos_site_id
 _symmetry_equiv_pos_as_xyz
  1  'x, y, z'
loop_
 _atom_site_type_symbol
 _atom_site_label
 _atom_site_symmetry_multiplicity
 _atom_site_fract_x
 _atom_site_fract_y
 _atom_site_fract_z
 _atom_site_occupancy
  Pr  Pr0  1  0.00000000  -0.00000000  -0.00000000  1
  Mn  Mn0  1  0.25000000  0.75000000  0.50000000  1
  Mn  Mn1  1  0.75000000  0.25000000  0.50000000  1
  Si  Si0  1  0.61525502  0.61525502  0.23050903  1
  Si  Si1  1  0.38474498  0.38474498  0.76949097  1
loop_
_geom_bond_atom_site_label_1
_geom_bond_atom_site_label_2
_geom_bond_distance
_geom_bond_site_symmetry_2
Pr0 Si1 3.178939 1_554
Pr0 Si0 3.178939 1_445
Pr0 Si0 3.178941 1_455
Pr0 Si1 3.178941 1_544
Pr0 Si0 3.178941 1_545
Pr0 Si1 3.178941 1_454
Pr0 Si1 3.178944 1_444
Pr0 Si0 3.178944 1_555
Mn0 Si0 2.523305 1_455
Mn0 Si1 2.523305 1_565
Mn0 Si0 2.523309 1_555
Mn0 Si1 2.523309 1_555
Mn0 Pr0 3.380586 1_666
Mn0 Pr0 3.380587 1_555
Mn0 Pr0 3.380587 1_566
Mn0 Pr0 3.380587 1_565
Mn1 Si1 2.523305 1_655
Mn1 Si0 2.523305 1_545
Mn1 Si1 2.523309 1_555
Mn1 Si0 2.523309 1_555
Mn1 Pr0 3.380586 1_555
Mn1 Pr0 3.380587 1_666
Mn1 Pr0 3.380587 1_655
Mn1 Pr0 3.380587 1_656
Si0 Si1 2.462650 1_554
