# generated using pymatgen
data_EuSi6
_symmetry_space_group_name_H-M   'P 1'
_cell_length_a   5.56710449
_cell_length_b   5.56710449
_cell_length_c   11.54863300
_cell_angle_alpha   90.00000000
_cell_angle_beta   90.00000000
_cell_angle_gamma   132.33627737
_symmetry_Int_Tables_number   1
_chemical_formula_structural   EuSi6
_chemical_formula_sum   'Eu2 Si12'
_cell_volume   264.57823645
_cell_formula_units_Z   2
loop_
 _symmetry_equiv_pos_site_id
 _symmetry_equiv_pos_as_xyz
  1  'x, y, z'
loop_
 _atom_site_type_symbol
 _atom_site_label
 _atom_site_symmetry_multiplicity
 _atom_site_fract_x
 _atom_site_fract_y
 _atom_site_fract_z
 _atom_site_occupancy
  Eu  Eu0  1  0.72701400  0.27298600  0.75000000  1
  Eu  Eu1  1  0.27298600  0.72701400  0.25000000  1
  Si  Si0  1  0.75284700  0.24715300  0.46273800  1
  Si  Si1  1  0.24715300  0.75284700  0.53726200  1
  Si  Si2  1  0.24715300  0.75284700  0.96273800  1
  Si  Si3  1  0.75284700  0.24715300  0.03726200  1
  Si  Si4  1  0.44365200  0.55634800  0.64705000  1
  Si  Si5  1  0.55634800  0.44365200  0.35295000  1
  Si  Si6  1  0.55634800  0.44365200  0.14705000  1
  Si  Si7  1  0.44365200  0.55634800  0.85295000  1
  Si  Si8  1  0.97786600  0.02213400  0.39732900  1
  Si  Si9  1  0.02213400  0.97786600  0.60267100  1
  Si  Si10  1  0.02213400  0.97786600  0.89732900  1
  Si  Si11  1  0.97786600  0.02213400  0.10267100  1
loop_
_geom_bond_atom_site_label_1
_geom_bond_atom_site_label_2
_geom_bond_distance
_geom_bond_site_symmetry_2
Eu0 Si7 3.121307 1_555
Eu0 Si4 3.121307 1_555
Eu0 Si3 3.327900 1_556
Eu0 Si0 3.327900 1_555
Eu0 Si2 3.337357 1_545
Eu0 Si1 3.337357 1_545
Eu0 Si1 3.337357 1_655
Eu0 Si2 3.337357 1_655
Eu0 Si7 3.367748 1_655
Eu0 Si4 3.367748 1_655
Eu0 Si4 3.367748 1_545
Eu0 Si7 3.367748 1_545
Eu0 Si9 3.453908 1_645
Eu0 Si10 3.453908 1_645
Eu0 Si9 3.508415 1_655
Eu0 Si10 3.508415 1_655
Eu0 Si9 3.508415 1_545
Eu0 Si10 3.508415 1_545
Eu1 Si5 3.121307 1_555
Eu1 Si6 3.121307 1_555
Eu1 Si2 3.327900 1_554
Eu1 Si1 3.327900 1_555
Eu1 Si3 3.337357 1_565
Eu1 Si0 3.337357 1_565
Eu1 Si0 3.337357 1_455
Eu1 Si3 3.337357 1_455
Eu1 Si6 3.367748 1_565
Eu1 Si5 3.367748 1_565
Eu1 Si5 3.367748 1_455
Eu1 Si6 3.367748 1_455
Eu1 Si11 3.453908 1_465
Eu1 Si8 3.453908 1_465
Eu1 Si11 3.508415 1_565
Eu1 Si8 3.508415 1_455
Eu1 Si8 3.508415 1_565
Eu1 Si11 3.508415 1_455
Si0 Si5 2.369141 1_555
Si0 Si1 2.409135 1_545
Si0 Si1 2.409135 1_655
Si0 Si8 2.413066 1_555
Si1 Si4 2.369141 1_555
Si1 Si9 2.413066 1_555
Si2 Si7 2.369141 1_555
Si2 Si3 2.409135 1_456
Si2 Si3 2.409135 1_566
Si3 Si6 2.369141 1_555
Si4 Si7 2.377864 1_555
Si4 Si9 2.441608 1_545
Si4 Si9 2.441608 1_655
Si5 Si6 2.377864 1_555
Si5 Si8 2.441608 1_455
Si5 Si8 2.441608 1_565
Si8 Si9 2.413899 1_645
Si10 Si2 2.413066 1_555
Si10 Si11 2.413899 1_466
Si10 Si7 2.441608 1_565
Si10 Si7 2.441608 1_455
Si11 Si3 2.413066 1_555
Si11 Si6 2.441608 1_655
Si11 Si6 2.441608 1_545
