# generated using pymatgen
data_Ba2BiRuO6
_symmetry_space_group_name_H-M   'P 1'
_cell_length_a   6.13474970
_cell_length_b   6.13474970
_cell_length_c   20.60001900
_cell_angle_alpha   90.00000000
_cell_angle_beta   90.00000000
_cell_angle_gamma   119.99999677
_symmetry_Int_Tables_number   1
_chemical_formula_structural   Ba2BiRuO6
_chemical_formula_sum   'Ba8 Bi4 Ru4 O24'
_cell_volume   671.41642756
_cell_formula_units_Z   4
loop_
 _symmetry_equiv_pos_site_id
 _symmetry_equiv_pos_as_xyz
  1  'x, y, z'
loop_
 _atom_site_type_symbol
 _atom_site_label
 _atom_site_symmetry_multiplicity
 _atom_site_fract_x
 _atom_site_fract_y
 _atom_site_fract_z
 _atom_site_occupancy
  Ba  Ba0  1  0.66666700  0.33333300  0.64456500  1
  Ba  Ba1  1  0.66666700  0.33333300  0.25000000  1
  Ba  Ba2  1  0.33333300  0.66666700  0.75000000  1
  Ba  Ba3  1  0.00000000  0.00000000  0.50000000  1
  Ba  Ba4  1  0.33333300  0.66666700  0.14456500  1
  Ba  Ba5  1  0.33333300  0.66666700  0.35543500  1
  Ba  Ba6  1  0.66666700  0.33333300  0.85543500  1
  Ba  Ba7  1  0.00000000  0.00000000  0.00000000  1
  Bi  Bi0  1  0.66666700  0.33333300  0.43886800  1
  Bi  Bi1  1  0.33333300  0.66666700  0.56113200  1
  Bi  Bi2  1  0.66666700  0.33333300  0.06113200  1
  Bi  Bi3  1  0.33333300  0.66666700  0.93886800  1
  Ru  Ru0  1  0.00000000  0.00000000  0.68334100  1
  Ru  Ru1  1  0.00000000  0.00000000  0.31665900  1
  Ru  Ru2  1  0.00000000  0.00000000  0.81665900  1
  Ru  Ru3  1  0.00000000  0.00000000  0.18334100  1
  O  O0  1  0.15835300  0.84164700  0.63660500  1
  O  O1  1  0.84757400  0.69514900  0.75000000  1
  O  O2  1  0.15835300  0.31670500  0.86339500  1
  O  O3  1  0.84164700  0.15835300  0.36339500  1
  O  O4  1  0.15835300  0.31670500  0.63660500  1
  O  O5  1  0.50000000  0.00000000  0.00000000  1
  O  O6  1  0.68329500  0.84164700  0.63660500  1
  O  O7  1  0.15242600  0.30485100  0.25000000  1
  O  O8  1  0.15242600  0.84757400  0.25000000  1
  O  O9  1  0.84164700  0.68329500  0.13660500  1
  O  O10  1  0.30485100  0.15242600  0.75000000  1
  O  O11  1  0.31670500  0.15835300  0.13660500  1
  O  O12  1  0.50000000  0.00000000  0.50000000  1
  O  O13  1  0.69514900  0.84757400  0.25000000  1
  O  O14  1  0.31670500  0.15835300  0.36339500  1
  O  O15  1  0.84164700  0.15835300  0.13660500  1
  O  O16  1  0.84164700  0.68329500  0.36339500  1
  O  O17  1  0.00000000  0.50000000  0.50000000  1
  O  O18  1  0.50000000  0.50000000  0.50000000  1
  O  O19  1  0.68329500  0.84164700  0.86339500  1
  O  O20  1  0.84757400  0.15242600  0.75000000  1
  O  O21  1  0.00000000  0.50000000  0.00000000  1
  O  O22  1  0.15835300  0.84164700  0.86339500  1
  O  O23  1  0.50000000  0.50000000  0.00000000  1
loop_
_geom_bond_atom_site_label_1
_geom_bond_atom_site_label_2
_geom_bond_distance
_geom_bond_site_symmetry_2
Ba0 O20 2.900434 1_555
Ba0 O1 2.900441 1_555
Ba0 O10 2.900441 1_555
Ba0 O4 3.073025 1_655
Ba0 O6 3.073025 1_545
Ba0 O6 3.073025 1_555
Ba0 O4 3.073025 1_555
Ba0 O0 3.073025 1_655
Ba0 O0 3.073025 1_545
Ba0 O17 3.464822 1_655
Ba0 O12 3.464822 1_555
Ba0 O18 3.464824 1_555
Ba1 O3 2.985557 1_555
Ba1 O15 2.985557 1_555
Ba1 O16 2.985564 1_555
Ba1 O14 2.985564 1_555
Ba1 O9 2.985564 1_555
Ba1 O11 2.985564 1_555
Ba1 O7 3.071105 1_655
Ba1 O13 3.071105 1_545
Ba1 O13 3.071105 1_555
Ba1 O7 3.071105 1_555
Ba1 O8 3.071105 1_655
Ba1 O8 3.071105 1_545
Ba2 O22 2.985557 1_555
Ba2 O0 2.985557 1_555
Ba2 O19 2.985564 1_555
Ba2 O2 2.985564 1_555
Ba2 O6 2.985564 1_555
Ba2 O4 2.985564 1_555
Ba2 O10 3.071105 1_565
Ba2 O1 3.071105 1_455
Ba2 O1 3.071105 1_555
Ba2 O10 3.071105 1_555
Ba2 O20 3.071105 1_565
Ba2 O20 3.071105 1_455
Ba3 O17 3.067375 1_555
Ba3 O12 3.067375 1_455
Ba3 O17 3.067375 1_545
Ba3 O12 3.067375 1_555
Ba3 O18 3.067375 1_445
Ba3 O18 3.067375 1_555
Ba3 O4 3.278739 1_555
Ba3 O6 3.278739 1_445
Ba3 O14 3.278739 1_555
Ba3 O16 3.278739 1_445
Ba3 O0 3.278741 1_545
Ba3 O3 3.278741 1_455
Ba4 O8 2.900434 1_555
Ba4 O13 2.900441 1_555
Ba4 O7 2.900441 1_555
Ba4 O11 3.073025 1_565
Ba4 O9 3.073025 1_455
Ba4 O9 3.073025 1_555
Ba4 O11 3.073025 1_555
Ba4 O15 3.073025 1_565
Ba4 O15 3.073025 1_455
Ba4 O21 3.464822 1_555
Ba4 O5 3.464822 1_565
Ba4 O23 3.464824 1_555
Ba5 O8 2.900434 1_555
Ba5 O13 2.900441 1_555
Ba5 O7 2.900441 1_555
Ba5 O14 3.073025 1_565
Ba5 O16 3.073025 1_455
Ba5 O16 3.073025 1_555
Ba5 O14 3.073025 1_555
Ba5 O3 3.073025 1_565
Ba5 O3 3.073025 1_455
Ba5 O12 3.464822 1_565
Ba5 O17 3.464822 1_555
Ba5 O18 3.464824 1_555
Ba6 O20 2.900434 1_555
Ba6 O1 2.900441 1_555
Ba6 O10 2.900441 1_555
Ba6 O2 3.073025 1_655
Ba6 O19 3.073025 1_545
Ba6 O19 3.073025 1_555
Ba6 O2 3.073025 1_555
Ba6 O22 3.073025 1_655
Ba6 O22 3.073025 1_545
Ba6 O21 3.464822 1_656
Ba6 O5 3.464822 1_556
Ba6 O23 3.464824 1_556
Ba7 O21 3.067375 1_545
Ba7 O5 3.067375 1_455
Ba7 O21 3.067375 1_555
Ba7 O5 3.067375 1_555
Ba7 O23 3.067375 1_555
Ba7 O23 3.067375 1_445
Ba7 O11 3.278739 1_555
Ba7 O9 3.278739 1_445
Ba7 O2 3.278739 1_554
Ba7 O19 3.278739 1_444
Ba7 O15 3.278741 1_455
Ba7 O22 3.278741 1_544
Bi0 O17 2.173050 1_655
Bi0 O12 2.173050 1_555
Bi0 O18 2.173054 1_555
Bi0 O3 2.423669 1_555
Bi0 O16 2.423677 1_555
Bi0 O14 2.423677 1_555
Bi1 O12 2.173050 1_565
Bi1 O17 2.173050 1_555
Bi1 O18 2.173054 1_555
Bi1 O0 2.423669 1_555
Bi1 O6 2.423677 1_555
Bi1 O4 2.423677 1_555
Bi2 O5 2.173050 1_555
Bi2 O21 2.173050 1_655
Bi2 O23 2.173054 1_555
Bi2 O15 2.423669 1_555
Bi2 O9 2.423677 1_555
Bi2 O11 2.423677 1_555
Bi3 O21 2.173050 1_556
Bi3 O5 2.173050 1_566
Bi3 O23 2.173054 1_556
Bi3 O22 2.423669 1_555
Bi3 O19 2.423677 1_555
Bi3 O2 2.423677 1_555
O0 Ru0 1.938580 1_565
O1 Ru2 2.123395 1_665
O1 Ru0 2.123395 1_665
O2 Ru2 1.938575 1_555
O3 Ru1 1.938580 1_655
O4 Ru0 1.938575 1_555
O6 Ru0 1.938575 1_665
O7 Ru1 2.123395 1_555
O7 Ru3 2.123395 1_555
O8 Ru1 2.123399 1_565
O8 Ru3 2.123399 1_565
O9 Ru3 1.938575 1_665
O10 Ru2 2.123395 1_555
O10 Ru0 2.123395 1_555
O11 Ru3 1.938575 1_555
O13 Ru1 2.123395 1_665
O13 Ru3 2.123395 1_665
O14 Ru1 1.938575 1_555
O15 Ru3 1.938580 1_655
O16 Ru1 1.938575 1_665
O19 Ru2 1.938575 1_665
O20 Ru2 2.123399 1_655
O20 Ru0 2.123399 1_655
O22 Ru2 1.938580 1_565
