# generated using pymatgen
data_Bi17W3O34
_symmetry_space_group_name_H-M   'P 1'
_cell_length_a   10.51235300
_cell_length_b   10.69878178
_cell_length_c   10.50734013
_cell_angle_alpha   107.89461101
_cell_angle_beta   106.12561437
_cell_angle_gamma   115.52742203
_symmetry_Int_Tables_number   1
_chemical_formula_structural   Bi17W3O34
_chemical_formula_sum   'Bi17 W3 O34'
_cell_volume   891.56144171
_cell_formula_units_Z   1
loop_
 _symmetry_equiv_pos_site_id
 _symmetry_equiv_pos_as_xyz
  1  'x, y, z'
loop_
 _atom_site_type_symbol
 _atom_site_label
 _atom_site_symmetry_multiplicity
 _atom_site_fract_x
 _atom_site_fract_y
 _atom_site_fract_z
 _atom_site_occupancy
  Bi  Bi0  1  0.22871600  0.88529600  0.88858800  1
  Bi  Bi1  1  0.07935700  0.46943300  0.80885600  1
  Bi  Bi2  1  0.14014600  0.63386000  0.50162900  1
  Bi  Bi3  1  0.17387900  0.76678800  0.20551000  1
  Bi  Bi4  1  0.94693200  0.13773100  0.36298100  1
  Bi  Bi5  1  0.01739300  0.34457700  0.11335100  1
  Bi  Bi6  1  0.55950800  0.96963700  0.79989400  1
  Bi  Bi7  1  0.43493200  0.50405000  0.69630200  1
  Bi  Bi8  1  0.25432000  0.06633500  0.59545700  1
  Bi  Bi9  1  0.47246800  0.65030500  0.40994400  1
  Bi  Bi10  1  0.51378500  0.79837500  0.07481300  1
  Bi  Bi11  1  0.29170800  0.21619400  0.29955800  1
  Bi  Bi12  1  0.71797900  0.41283100  0.90707800  1
  Bi  Bi13  1  0.77429600  0.57198000  0.57779100  1
  Bi  Bi14  1  0.77768100  0.72445600  0.29424900  1
  Bi  Bi15  1  0.68846200  0.27022100  0.23301500  1
  Bi  Bi16  1  0.90962600  0.02877500  0.66943100  1
  W  W0  1  0.30503900  0.29000400  0.00168100  1
  W  W1  1  0.65676700  0.13621600  0.50605800  1
  W  W2  1  0.88446100  0.88275600  0.99705900  1
  O  O0  1  0.07725700  0.62593800  0.69689500  1
  O  O1  1  0.06511600  0.88711100  0.12084800  1
  O  O2  1  0.13398100  0.31789000  0.93944400  1
  O  O3  1  0.29836600  0.92192600  0.69457100  1
  O  O4  1  0.99135000  0.52119400  0.02527300  1
  O  O5  1  0.47418600  0.94918700  0.96131100  1
  O  O6  1  0.96952400  0.98281000  0.48043300  1
  O  O7  1  0.32178100  0.54492400  0.84506900  1
  O  O8  1  0.21417500  0.59357800  0.29786900  1
  O  O9  1  0.20392500  0.13022300  0.79451100  1
  O  O10  1  0.03773200  0.13208900  0.16994400  1
  O  O11  1  0.38044800  0.67696600  0.61931300  1
  O  O12  1  0.27774500  0.77592500  0.04914700  1
  O  O13  1  0.22278700  0.27744100  0.48879100  1
  O  O14  1  0.46782100  0.30231900  0.72682700  1
  O  O15  1  0.31389400  0.38526800  0.20690300  1
  O  O16  1  0.72648000  0.92467100  0.93172800  1
  O  O17  1  0.65351200  0.97661000  0.55277900  1
  O  O18  1  0.65220200  0.05077300  0.31015600  1
  O  O19  1  0.51657300  0.47752500  0.49565500  1
  O  O20  1  0.44519900  0.05001400  0.44200500  1
  O  O21  1  0.75076200  0.66420000  0.87968100  1
  O  O22  1  0.55364800  0.71271500  0.24793600  1
  O  O23  1  0.34438800  0.16323000  0.07333000  1
  O  O24  1  0.76438400  0.76184400  0.52036000  1
  O  O25  1  0.74214200  0.29432700  0.71080500  1
  O  O26  1  0.69918000  0.31498900  0.46096800  1
  O  O27  1  0.96368300  0.92501200  0.86994800  1
  O  O28  1  0.80584100  0.87520600  0.16506100  1
  O  O29  1  0.49311800  0.43268000  0.03142600  1
  O  O30  1  0.78335600  0.52493700  0.36315300  1
  O  O31  1  0.91994900  0.22627300  0.59397500  1
  O  O32  1  0.71749700  0.24104600  0.98146800  1
  O  O33  1  0.94054400  0.34934100  0.30917000  1
loop_
_geom_bond_atom_site_label_1
_geom_bond_atom_site_label_2
_geom_bond_distance
_geom_bond_site_symmetry_2
Bi0 O5 2.184806 1_555
Bi0 O0 2.295149 1_555
Bi0 O12 2.393936 1_556
Bi0 O3 2.432771 1_555
Bi0 O23 2.472642 1_566
Bi1 O7 2.188645 1_555
Bi1 O31 2.281462 1_455
Bi1 O0 2.327237 1_555
Bi1 O2 2.563799 1_555
Bi1 O4 2.677658 1_456
Bi1 O12 2.751306 1_556
Bi1 O25 2.863365 1_455
Bi2 O11 2.243521 1_555
Bi2 O0 2.337922 1_555
Bi2 O8 2.454119 1_555
Bi2 O33 2.472494 1_455
Bi2 O3 2.498804 1_555
Bi3 O4 2.179545 1_455
Bi3 O12 2.214557 1_555
Bi3 O1 2.272242 1_555
Bi3 O8 2.471580 1_555
Bi3 O20 2.734698 1_565
Bi4 O13 2.304660 1_655
Bi4 O28 2.349483 1_545
Bi4 O6 2.400022 1_545
Bi4 O31 2.463713 1_555
Bi4 O10 2.465493 1_655
Bi4 O33 2.519196 1_555
Bi4 O18 2.648796 1_555
Bi5 O8 2.232367 1_555
Bi5 O33 2.404804 1_455
Bi5 O4 2.425236 1_455
Bi5 O2 2.479458 1_554
Bi5 O32 2.589672 1_454
Bi5 O10 2.597413 1_555
Bi5 O15 2.781463 1_555
Bi6 O5 2.152426 1_555
Bi6 O16 2.240077 1_555
Bi6 O32 2.347093 1_565
Bi6 O3 2.403952 1_555
Bi6 O11 2.496581 1_555
Bi7 O13 2.235126 1_555
Bi7 O7 2.260666 1_555
Bi7 O14 2.426419 1_555
Bi7 O11 2.445499 1_555
Bi7 O19 2.471687 1_555
Bi7 O21 2.680692 1_555
Bi8 O14 2.137875 1_555
Bi8 O3 2.241313 1_545
Bi8 O9 2.274072 1_555
Bi8 O6 2.498599 1_445
Bi9 O22 2.255258 1_555
Bi9 O8 2.343515 1_555
Bi9 O15 2.367203 1_555
Bi9 O19 2.443959 1_555
Bi9 O24 2.490461 1_555
Bi9 O11 2.625081 1_555
Bi9 O17 2.743926 1_555
Bi10 O22 2.292714 1_555
Bi10 O12 2.315654 1_555
Bi10 O5 2.384250 1_554
Bi10 O7 2.409932 1_554
Bi10 O18 2.456662 1_565
Bi10 O28 2.594150 1_555
Bi11 O10 2.224683 1_555
Bi11 O15 2.262525 1_555
Bi11 O13 2.305761 1_555
Bi11 O19 2.389208 1_555
Bi11 O23 2.540102 1_555
Bi11 O1 2.796468 1_545
Bi12 O32 2.205861 1_555
Bi12 O25 2.210613 1_555
Bi12 O14 2.253430 1_555
Bi12 O4 2.325106 1_556
Bi12 O21 2.676986 1_555
Bi13 O30 2.193566 1_555
Bi13 O19 2.216233 1_555
Bi13 O26 2.281721 1_555
Bi13 O24 2.324226 1_555
Bi13 O0 2.792843 1_655
Bi14 O22 2.206803 1_555
Bi14 O6 2.283709 1_555
Bi14 O24 2.339389 1_555
Bi14 O28 2.385078 1_555
Bi14 O30 2.473821 1_555
Bi15 O33 2.202657 1_555
Bi15 O30 2.213734 1_555
Bi15 O26 2.253346 1_555
Bi15 O18 2.623801 1_555
Bi15 O32 2.683239 1_554
Bi16 O6 2.223359 1_545
Bi16 O24 2.259397 1_545
Bi16 O17 2.348199 1_545
Bi16 O31 2.446378 1_555
Bi16 O9 2.539172 1_655
Bi16 O27 2.703770 1_545
Bi16 O2 2.789604 1_655
O1 W2 1.953187 1_454
O2 W0 1.918158 1_556
O9 W0 1.911127 1_556
O10 W2 2.168788 1_444
O15 W0 2.037982 1_555
O16 W2 1.904784 1_555
O17 W1 1.905821 1_565
O18 W1 1.956008 1_555
O20 W1 1.808102 1_555
O21 W2 1.842932 1_555
O23 W0 1.874985 1_555
O25 W1 1.917760 1_555
O26 W1 2.005172 1_555
O27 W2 1.829264 1_555
O28 W2 2.155513 1_554
O29 W0 1.760466 1_555
O31 W1 2.274187 1_555
