# generated using pymatgen
data_SrMnV2(AgO4)2
_symmetry_space_group_name_H-M   'P 1'
_cell_length_a   5.69078600
_cell_length_b   5.75936615
_cell_length_c   13.93252017
_cell_angle_alpha   90.69661775
_cell_angle_beta   90.00000000
_cell_angle_gamma   60.39312421
_symmetry_Int_Tables_number   1
_chemical_formula_structural   SrMnV2(AgO4)2
_chemical_formula_sum   'Sr2 Mn2 V4 Ag4 O16'
_cell_volume   396.98271793
_cell_formula_units_Z   2
loop_
 _symmetry_equiv_pos_site_id
 _symmetry_equiv_pos_as_xyz
  1  'x, y, z'
loop_
 _atom_site_type_symbol
 _atom_site_label
 _atom_site_symmetry_multiplicity
 _atom_site_fract_x
 _atom_site_fract_y
 _atom_site_fract_z
 _atom_site_occupancy
  Sr  Sr0  1  0.91716900  0.00000000  0.25000000  1
  Sr  Sr1  1  0.08283100  0.00000000  0.75000000  1
  Mn  Mn0  1  0.00000000  0.00000000  0.50000000  1
  Mn  Mn1  1  0.00000000  0.00000000  0.00000000  1
  V  V0  1  0.36545200  0.34700900  0.86991400  1
  V  V1  1  0.71246000  0.65299100  0.63008600  1
  V  V2  1  0.63454800  0.65299100  0.13008600  1
  V  V3  1  0.28754000  0.34700900  0.36991400  1
  Ag  Ag0  1  0.61179500  0.67826000  0.40407900  1
  Ag  Ag1  1  0.29005500  0.32174000  0.09592100  1
  Ag  Ag2  1  0.38820500  0.32174000  0.59592100  1
  Ag  Ag3  1  0.70994500  0.67826000  0.90407900  1
  O  O0  1  0.57977400  0.22336800  0.44163400  1
  O  O1  1  0.80314200  0.77663200  0.05836600  1
  O  O2  1  0.42022600  0.77663200  0.55836600  1
  O  O3  1  0.19685800  0.22336800  0.94163400  1
  O  O4  1  0.72465100  0.67301800  0.24683000  1
  O  O5  1  0.39766800  0.32698200  0.25317000  1
  O  O6  1  0.27534900  0.32698200  0.75317000  1
  O  O7  1  0.60233200  0.67301800  0.74683000  1
  O  O8  1  0.74945700  0.31650300  0.09920700  1
  O  O9  1  0.06596000  0.68349700  0.40079300  1
  O  O10  1  0.25054300  0.68349700  0.90079300  1
  O  O11  1  0.93404000  0.31650300  0.59920700  1
  O  O12  1  0.28072600  0.85071700  0.11887200  1
  O  O13  1  0.13144300  0.14928300  0.38112800  1
  O  O14  1  0.71927400  0.14928300  0.88112800  1
  O  O15  1  0.86855700  0.85071700  0.61887200  1
loop_
_geom_bond_atom_site_label_1
_geom_bond_atom_site_label_2
_geom_bond_distance
_geom_bond_site_symmetry_2
Mn0 O11 2.153332 1_455
Mn0 O9 2.153332 1_545
Mn0 O15 2.170664 1_445
Mn0 O13 2.170664 1_555
Mn0 O2 2.240699 1_545
Mn0 O0 2.240699 1_455
Mn1 O8 2.153332 1_455
Mn1 O10 2.153332 1_544
Mn1 O12 2.170664 1_545
Mn1 O14 2.170664 1_454
Mn1 O3 2.240699 1_554
Mn1 O1 2.240699 1_445
Ag0 O4 2.278716 1_555
Ag0 O2 2.343155 1_555
Ag0 O9 2.599999 1_655
Ag0 O13 2.761832 1_565
Ag0 O0 2.770534 1_555
Ag1 O5 2.278715 1_555
Ag1 O3 2.343155 1_554
Ag1 O8 2.599999 1_555
Ag1 O12 2.761832 1_545
Ag1 O1 2.770534 1_455
Ag2 O6 2.278716 1_555
Ag2 O0 2.343155 1_555
Ag2 O11 2.599999 1_455
Ag2 O15 2.761832 1_545
Ag2 O2 2.770534 1_555
Ag3 O7 2.278715 1_555
Ag3 O1 2.343155 1_556
Ag3 O10 2.599999 1_555
Ag3 O14 2.761832 1_565
Ag3 O3 2.770534 1_655
O0 V3 1.765907 1_555
O1 V2 1.765911 1_555
O2 V1 1.765907 1_555
O3 V0 1.765911 1_555
O4 V2 1.725029 1_555
O4 Sr0 2.604867 1_565
O5 V3 1.725026 1_555
O5 Sr0 2.604872 1_555
O6 V0 1.725029 1_555
O6 Sr1 2.604867 1_555
O7 V1 1.725026 1_555
O7 Sr1 2.604872 1_565
O8 V2 1.759525 1_555
O8 Sr0 2.649846 1_555
O9 V3 1.759526 1_555
O9 Sr0 2.649846 1_465
O10 V0 1.759525 1_555
O10 Sr1 2.649846 1_565
O11 V1 1.759526 1_555
O11 Sr1 2.649846 1_655
O12 V2 1.764704 1_555
O12 Sr0 2.561555 1_465
O13 V3 1.764709 1_555
O13 Sr0 2.561555 1_455
O14 V0 1.764704 1_555
O14 Sr1 2.561555 1_655
O15 V1 1.764709 1_555
O15 Sr1 2.561555 1_665
