# generated using pymatgen
data_Rb2Ag2GeS4
_symmetry_space_group_name_H-M   'P 1'
_cell_length_a   11.91783714
_cell_length_b   11.91783714
_cell_length_c   6.40020668
_cell_angle_alpha   82.00011845
_cell_angle_beta   82.00011845
_cell_angle_gamma   142.54210803
_symmetry_Int_Tables_number   1
_chemical_formula_structural   Rb2Ag2GeS4
_chemical_formula_sum   'Rb4 Ag4 Ge2 S8'
_cell_volume   498.23531963
_cell_formula_units_Z   2
loop_
 _symmetry_equiv_pos_site_id
 _symmetry_equiv_pos_as_xyz
  1  'x, y, z'
loop_
 _atom_site_type_symbol
 _atom_site_label
 _atom_site_symmetry_multiplicity
 _atom_site_fract_x
 _atom_site_fract_y
 _atom_site_fract_z
 _atom_site_occupancy
  Rb  Rb0  1  0.80819500  0.19180500  0.75000000  1
  Rb  Rb1  1  0.06173100  0.93826900  0.75000000  1
  Rb  Rb2  1  0.19180500  0.80819500  0.25000000  1
  Rb  Rb3  1  0.93826900  0.06173100  0.25000000  1
  Ag  Ag0  1  0.68453600  0.31546400  0.25000000  1
  Ag  Ag1  1  0.53244000  0.46756000  0.25000000  1
  Ag  Ag2  1  0.46756000  0.53244000  0.75000000  1
  Ag  Ag3  1  0.31546400  0.68453600  0.75000000  1
  Ge  Ge0  1  0.37681200  0.62318800  0.25000000  1
  Ge  Ge1  1  0.62318800  0.37681200  0.75000000  1
  S  S0  1  0.51639400  0.87802200  0.34137400  1
  S  S1  1  0.76664400  0.63427700  0.45236000  1
  S  S2  1  0.23335600  0.36572300  0.54764000  1
  S  S3  1  0.48360600  0.12197800  0.65862600  1
  S  S4  1  0.36572300  0.23335600  0.04764000  1
  S  S5  1  0.12197800  0.48360600  0.15862600  1
  S  S6  1  0.87802200  0.51639400  0.84137400  1
  S  S7  1  0.63427700  0.76664400  0.95236000  1
loop_
_geom_bond_atom_site_label_1
_geom_bond_atom_site_label_2
_geom_bond_distance
_geom_bond_site_symmetry_2
Rb0 S3 3.413700 1_555
Rb0 S6 3.413700 1_555
Rb0 S5 3.486272 1_655
Rb0 S0 3.486272 1_546
Rb0 S7 3.521430 1_545
Rb0 S2 3.521430 1_655
Rb1 S6 3.429802 1_455
Rb1 S3 3.429802 1_565
Rb1 S1 3.560933 1_455
Rb1 S4 3.560933 1_566
Rb1 S7 3.563244 1_455
Rb1 S2 3.563244 1_565
Rb2 S5 3.413700 1_555
Rb2 S0 3.413700 1_555
Rb2 S6 3.486272 1_455
Rb2 S3 3.486272 1_564
Rb2 S1 3.521430 1_455
Rb2 S4 3.521430 1_565
Rb3 S0 3.429802 1_545
Rb3 S5 3.429802 1_655
Rb3 S2 3.560933 1_655
Rb3 S7 3.560933 1_544
Rb3 S1 3.563244 1_545
Rb3 S4 3.563244 1_655
Ag0 S6 2.388111 1_554
Ag0 S3 2.388111 1_555
Ag0 Rb2 3.830232 1_655
Ag0 Rb2 3.830232 1_545
Ag1 S4 2.516721 1_555
Ag1 S1 2.516721 1_555
Ag1 S2 2.899223 1_555
Ag1 S7 2.899223 1_554
Ag2 S7 2.516721 1_555
Ag2 S2 2.516721 1_555
Ag2 S1 2.899223 1_555
Ag2 S4 2.899223 1_556
Ag3 S5 2.388111 1_556
Ag3 S0 2.388111 1_555
Ag3 Rb0 3.830232 1_565
Ag3 Rb0 3.830232 1_455
Ge0 S0 2.253295 1_555
Ge0 S5 2.253295 1_555
Ge0 S2 2.259426 1_555
Ge0 S7 2.259426 1_554
Ge1 S6 2.253295 1_555
Ge1 S3 2.253295 1_555
Ge1 S4 2.259426 1_556
Ge1 S1 2.259426 1_555
