# generated using pymatgen
data_Tm2Te5O13
_symmetry_space_group_name_H-M   'P 1'
_cell_length_a   6.86643481
_cell_length_b   8.61075156
_cell_length_c   10.51448879
_cell_angle_alpha   88.54407657
_cell_angle_beta   86.72438506
_cell_angle_gamma   74.71506013
_symmetry_Int_Tables_number   1
_chemical_formula_structural   Tm2Te5O13
_chemical_formula_sum   'Tm4 Te10 O26'
_cell_volume   598.66606852
_cell_formula_units_Z   2
loop_
 _symmetry_equiv_pos_site_id
 _symmetry_equiv_pos_as_xyz
  1  'x, y, z'
loop_
 _atom_site_type_symbol
 _atom_site_label
 _atom_site_symmetry_multiplicity
 _atom_site_fract_x
 _atom_site_fract_y
 _atom_site_fract_z
 _atom_site_occupancy
  Tm  Tm0  1  0.44826844  0.46989639  0.81999301  1
  Tm  Tm1  1  0.55173156  0.53010361  0.18000699  1
  Tm  Tm2  1  -0.00020427  0.25981672  0.76114320  1
  Tm  Tm3  1  0.00020427  0.74018328  0.23885680  1
  Te  Te0  1  0.27222171  0.39638475  0.48405127  1
  Te  Te1  1  0.43812904  0.90333076  0.30159918  1
  Te  Te2  1  0.29148134  0.87847627  0.97298948  1
  Te  Te3  1  0.72777829  0.60361525  0.51594873  1
  Te  Te4  1  0.84364455  0.19656308  0.36052550  1
  Te  Te5  1  0.70851866  0.12152373  0.02701052  1
  Te  Te6  1  0.15635545  0.80343692  0.63947450  1
  Te  Te7  1  0.12667541  0.35088186  0.10499270  1
  Te  Te8  1  0.56187096  0.09666924  0.69840082  1
  Te  Te9  1  0.87332459  0.64911814  0.89500730  1
  O  O0  1  0.31424061  0.73546894  0.28823812  1
  O  O1  1  0.65354803  0.01777472  0.87646843  1
  O  O2  1  0.33600882  0.51286585  0.61745602  1
  O  O3  1  0.05938596  0.81960936  0.03809743  1
  O  O4  1  0.32616381  0.22636607  0.77768020  1
  O  O5  1  0.45868545  0.19413567  0.51995900  1
  O  O6  1  0.93609669  0.98452240  0.30496856  1
  O  O7  1  0.46821178  0.67141719  -0.00012658  1
  O  O8  1  0.06390331  0.01547760  0.69503144  1
  O  O9  1  0.12712214  0.49257564  0.89808825  1
  O  O10  1  0.67383619  0.77363393  0.22231980  1
  O  O11  1  0.95746587  0.64833817  0.43380820  1
  O  O12  1  0.94061404  0.18039064  0.96190257  1
  O  O13  1  0.93626314  0.73061914  0.72178047  1
  O  O14  1  0.53178822  0.32858281  0.00012658  1
  O  O15  1  0.87287786  0.50742436  0.10191175  1
  O  O16  1  0.04253413  0.35166183  0.56619180  1
  O  O17  1  0.66399118  0.48713415  0.38254398  1
  O  O18  1  0.34645197  0.98222528  0.12353157  1
  O  O19  1  0.66753904  0.26347599  0.22777188  1
  O  O20  1  0.06373686  0.26938086  0.27821953  1
  O  O21  1  0.76669507  0.49976153  0.81567497  1
  O  O22  1  0.23330493  0.50023847  0.18432503  1
  O  O23  1  0.54131455  0.80586433  0.48004100  1
  O  O24  1  0.68575939  0.26453106  0.71176188  1
  O  O25  1  0.33246096  0.73652401  0.77222812  1
loop_
_geom_bond_atom_site_label_1
_geom_bond_atom_site_label_2
_geom_bond_distance
_geom_bond_site_symmetry_2
O0 Te1 1.872128 1_555
O0 Tm3 2.236433 1_555
O0 Tm1 2.334766 1_555
O1 Te5 1.940093 1_556
O1 Te8 2.051298 1_555
O2 Te0 1.881132 1_555
O2 Tm0 2.294195 1_555
O2 Te6 2.490982 1_555
O3 Te2 1.883868 1_554
O3 Tm3 2.250299 1_555
O4 Te8 1.871274 1_555
O4 Tm2 2.199289 1_555
O4 Tm0 2.513009 1_555
O5 Te0 1.913354 1_555
O5 Te8 2.117772 1_555
O6 Te4 1.865099 1_565
O6 Tm3 2.157454 1_655
O7 Te2 1.898476 1_554
O7 Tm1 2.244081 1_555
O7 Tm0 2.632241 1_554
O8 Te6 1.865099 1_545
O8 Tm2 2.157454 1_555
O9 Te9 1.902810 1_455
O9 Tm0 2.269179 1_555
O9 Te7 2.467334 1_556
O9 Tm2 2.840598 1_555
O10 Te1 1.871274 1_555
O10 Tm3 2.199289 1_655
O10 Tm1 2.513009 1_555
O11 Te3 1.878625 1_555
O11 Tm3 2.210103 1_655
O12 Te5 1.883868 1_556
O12 Tm2 2.250299 1_655
O13 Te6 1.936109 1_655
O13 Te9 2.000433 1_555
O14 Te5 1.898476 1_555
O14 Tm0 2.244081 1_554
O14 Tm1 2.632241 1_555
O15 Te7 1.902810 1_655
O15 Tm1 2.269179 1_555
O15 Te9 2.467334 1_554
O15 Tm3 2.840598 1_655
O16 Te0 1.878625 1_555
O16 Tm2 2.210103 1_555
O17 Te3 1.881132 1_555
O17 Tm1 2.294195 1_555
O17 Te4 2.490982 1_555
O18 Te2 1.940093 1_554
O18 Te1 2.051298 1_555
O19 Te4 1.878090 1_555
O19 Tm1 2.275970 1_555
O19 Te5 2.431263 1_555
O20 Te4 1.936109 1_455
O20 Te7 2.000433 1_555
O21 Te9 1.872592 1_555
O21 Tm0 2.265678 1_555
O21 Tm2 2.317573 1_655
O22 Te7 1.872592 1_555
O22 Tm1 2.265678 1_555
O22 Tm3 2.317573 1_555
O23 Te3 1.913354 1_555
O23 Te1 2.117772 1_555
O24 Te8 1.872128 1_555
O24 Tm2 2.236433 1_655
O24 Tm0 2.334766 1_555
O25 Te6 1.878090 1_555
O25 Tm0 2.275970 1_555
O25 Te2 2.431263 1_555
