# generated using pymatgen
data_KV(SO4)2
_symmetry_space_group_name_H-M   'P 1'
_cell_length_a   4.88930814
_cell_length_b   13.07442732
_cell_length_c   11.09591816
_cell_angle_alpha   88.58154650
_cell_angle_beta   102.71700196
_cell_angle_gamma   100.76906150
_symmetry_Int_Tables_number   1
_chemical_formula_structural   KV(SO4)2
_chemical_formula_sum   'K4 V4 S8 O32'
_cell_volume   679.62078847
_cell_formula_units_Z   4
loop_
 _symmetry_equiv_pos_site_id
 _symmetry_equiv_pos_as_xyz
  1  'x, y, z'
loop_
 _atom_site_type_symbol
 _atom_site_label
 _atom_site_symmetry_multiplicity
 _atom_site_fract_x
 _atom_site_fract_y
 _atom_site_fract_z
 _atom_site_occupancy
  K  K0  1  0.00000300  0.99999400  0.00001100  1
  K  K1  1  0.50000600  0.24999500  0.75001600  1
  K  K2  1  0.00000900  0.49999600  0.50002100  1
  K  K3  1  0.50000600  0.74999500  0.25001600  1
  V  V0  1  0.74998100  0.12500300  0.37499400  1
  V  V1  1  0.24998700  0.37498600  0.12499600  1
  V  V2  1  0.74997800  0.62497600  0.87500200  1
  V  V3  1  0.24999000  0.87501300  0.62498900  1
  S  S0  1  0.35477000  0.29569900  0.41400400  1
  S  S1  1  0.85475600  0.54568600  0.16400800  1
  S  S2  1  0.35476800  0.79570300  0.91400900  1
  S  S3  1  0.85477100  0.04572100  0.66400500  1
  S  S4  1  0.14524400  0.95432200  0.33599800  1
  S  S5  1  0.64523000  0.20430800  0.08600200  1
  S  S6  1  0.14523000  0.45428600  0.83600100  1
  S  S7  1  0.64523200  0.70430500  0.58599600  1
  O  O0  1  0.44376100  0.36988100  0.51783400  1
  O  O1  1  0.94376200  0.61988600  0.26783300  1
  O  O2  1  0.44375400  0.86987200  0.01782600  1
  O  O3  1  0.94375400  0.11986600  0.76783000  1
  O  O4  1  0.05626500  0.88010800  0.23216800  1
  O  O5  1  0.55626500  0.13011300  0.98216700  1
  O  O6  1  0.05627200  0.38012800  0.73217100  1
  O  O7  1  0.55627300  0.63012200  0.48217500  1
  O  O8  1  0.46311400  0.48854600  0.86354900  1
  O  O9  1  0.96309000  0.73853200  0.61355200  1
  O  O10  1  0.46309300  0.98853200  0.36355200  1
  O  O11  1  0.96311500  0.23854300  0.11355600  1
  O  O12  1  0.94191700  0.59590900  0.05193800  1
  O  O13  1  0.44191500  0.84589600  0.80194700  1
  O  O14  1  0.94190400  0.09589200  0.55194600  1
  O  O15  1  0.44190900  0.34589800  0.30193800  1
  O  O16  1  0.00719200  0.54758000  0.80453800  1
  O  O17  1  0.50720600  0.79756500  0.55454400  1
  O  O18  1  0.00721000  0.04756000  0.30454500  1
  O  O19  1  0.50720000  0.29757000  0.05454700  1
  O  O20  1  0.03690500  0.76148100  0.88643800  1
  O  O21  1  0.53688100  0.01146800  0.63644100  1
  O  O22  1  0.03688000  0.26147100  0.38643400  1
  O  O23  1  0.53690300  0.51148100  0.13643800  1
  O  O24  1  0.49275200  0.70242700  0.94544700  1
  O  O25  1  0.99276600  0.95241100  0.69545300  1
  O  O26  1  0.49275800  0.20242100  0.44544500  1
  O  O27  1  0.99274800  0.45243100  0.19544600  1
  O  O28  1  0.55811300  0.65410900  0.69805400  1
  O  O29  1  0.05811100  0.90409600  0.44806300  1
  O  O30  1  0.55811900  0.15410600  0.19806300  1
  O  O31  1  0.05812400  0.40411300  0.94805500  1
loop_
_geom_bond_atom_site_label_1
_geom_bond_atom_site_label_2
_geom_bond_distance
_geom_bond_site_symmetry_2
K0 O5 2.968829 1_464
K0 O2 2.968944 1_555
K0 O4 2.969434 1_555
K0 O3 2.969561 1_464
K0 O2 2.970013 1_455
K0 O5 2.970132 1_564
K1 O6 2.968941 1_555
K1 O3 2.968997 1_555
K1 O5 2.969352 1_555
K1 O0 2.969666 1_555
K1 O3 2.970059 1_455
K1 O6 2.970224 1_655
K2 O7 2.968883 1_455
K2 O0 2.968885 1_555
K2 O6 2.969246 1_555
K2 O1 2.969749 1_455
K2 O0 2.969967 1_455
K2 O7 2.970182 1_555
K3 O4 2.968780 1_555
K3 O1 2.968841 1_555
K3 O7 2.969364 1_555
K3 O2 2.969678 1_555
K3 O1 2.969931 1_455
K3 O4 2.970100 1_655
O0 S0 1.460899 1_555
O1 S1 1.461005 1_555
O2 S2 1.460685 1_554
O3 S3 1.460554 1_555
O4 S4 1.461161 1_555
O5 S5 1.461046 1_556
O6 S6 1.460702 1_555
O7 S7 1.460833 1_555
O8 S6 1.499054 1_555
O8 V2 2.040319 1_555
O9 S7 1.498886 1_555
O9 V3 2.040919 1_655
O10 S4 1.498821 1_555
O10 V0 2.040787 1_565
O11 S5 1.499021 1_555
O11 V1 2.040475 1_655
O12 S1 1.499146 1_555
O12 V2 2.040760 1_554
O13 S2 1.498899 1_555
O13 V3 2.041113 1_555
O14 S3 1.498738 1_555
O14 V0 2.041033 1_555
O15 S0 1.498951 1_555
O15 V1 2.040862 1_555
O16 S6 1.499345 1_555
O16 V2 2.040701 1_455
O17 S7 1.498902 1_555
O17 V3 2.041019 1_555
O18 S4 1.498669 1_545
O18 V0 2.041052 1_455
O19 S5 1.498940 1_555
O19 V1 2.040771 1_555
O20 S2 1.498899 1_555
O20 V2 2.041221 1_455
O21 S3 1.499068 1_555
O21 V3 2.040631 1_545
O22 S0 1.499031 1_555
O22 V0 2.040787 1_455
O23 S1 1.498829 1_555
O23 V1 2.041092 1_555
O24 S2 1.498958 1_555
O24 V2 2.041082 1_555
O25 S3 1.499397 1_565
O25 V3 2.040756 1_655
O26 S0 1.498996 1_555
O26 V0 2.040838 1_555
O27 S1 1.498735 1_555
O27 V1 2.041113 1_655
O28 S7 1.498821 1_555
O28 V2 2.040987 1_555
O29 S4 1.499059 1_555
O29 V3 2.040634 1_555
O30 S5 1.498864 1_555
O30 V0 2.040723 1_555
O31 S6 1.498648 1_555
O31 V1 2.040898 1_556
