# generated using pymatgen
data_KNaSO4
_symmetry_space_group_name_H-M   'P 1'
_cell_length_a   5.68383208
_cell_length_b   5.68383208
_cell_length_c   7.25956800
_cell_angle_alpha   90.00000000
_cell_angle_beta   90.00000000
_cell_angle_gamma   120.00000098
_symmetry_Int_Tables_number   1
_chemical_formula_structural   KNaSO4
_chemical_formula_sum   'K2 Na2 S2 O8'
_cell_volume   203.10652858
_cell_formula_units_Z   2
loop_
 _symmetry_equiv_pos_site_id
 _symmetry_equiv_pos_as_xyz
  1  'x, y, z'
loop_
 _atom_site_type_symbol
 _atom_site_label
 _atom_site_symmetry_multiplicity
 _atom_site_fract_x
 _atom_site_fract_y
 _atom_site_fract_z
 _atom_site_occupancy
  K  K0  1  0.33333300  0.66666700  0.66429700  1
  K  K1  1  0.66666700  0.33333300  0.33570300  1
  Na  Na0  1  0.00000000  0.00000000  0.50000000  1
  Na  Na1  1  0.00000000  0.00000000  0.00000000  1
  S  S0  1  0.33333300  0.66666700  0.21546300  1
  S  S1  1  0.66666700  0.33333300  0.78453700  1
  O  O0  1  0.80989300  0.61978600  0.71139600  1
  O  O1  1  0.61978600  0.80989300  0.28860400  1
  O  O2  1  0.19010700  0.38021400  0.28860400  1
  O  O3  1  0.38021400  0.19010700  0.71139600  1
  O  O4  1  0.66666700  0.33333300  0.98616500  1
  O  O5  1  0.80989300  0.19010700  0.71139600  1
  O  O6  1  0.19010700  0.80989300  0.28860400  1
  O  O7  1  0.33333300  0.66666700  0.01383500  1
loop_
_geom_bond_atom_site_label_1
_geom_bond_atom_site_label_2
_geom_bond_distance
_geom_bond_site_symmetry_2
K0 O7 2.537495 1_556
K0 O0 2.871695 1_455
K0 O3 2.871695 1_565
K0 O5 2.871697 1_455
K0 O5 2.871697 1_565
K0 O3 2.871700 1_555
K0 O0 2.871700 1_555
K0 O6 3.070290 1_555
K0 O2 3.070293 1_555
K0 O1 3.070293 1_555
K1 O4 2.537495 1_554
K1 O2 2.871695 1_655
K1 O1 2.871695 1_545
K1 O6 2.871697 1_655
K1 O6 2.871697 1_545
K1 O2 2.871700 1_555
K1 O1 2.871700 1_555
K1 O5 3.070290 1_555
K1 O3 3.070293 1_555
K1 O0 3.070293 1_555
Na0 O3 2.420291 1_555
Na0 O0 2.420291 1_445
Na0 O1 2.420291 1_445
Na0 O2 2.420291 1_555
Na0 O5 2.420291 1_455
Na0 O6 2.420291 1_545
Na1 O1 2.809322 1_445
Na1 O2 2.809322 1_555
Na1 O3 2.809322 1_554
Na1 O0 2.809322 1_444
Na1 O6 2.809322 1_545
Na1 O5 2.809322 1_454
O0 S1 1.506681 1_555
O1 S0 1.506681 1_555
O2 S0 1.506681 1_555
O3 S1 1.506681 1_555
O4 S1 1.463732 1_555
O5 S1 1.506676 1_555
O6 S0 1.506676 1_555
O7 S0 1.463732 1_555
