# generated using pymatgen
data_Nd9Ti10O30
_symmetry_space_group_name_H-M   'P 1'
_cell_length_a   7.87284700
_cell_length_b   9.58195470
_cell_length_c   17.57725878
_cell_angle_alpha   89.71492798
_cell_angle_beta   91.08601219
_cell_angle_gamma   113.76294514
_symmetry_Int_Tables_number   1
_chemical_formula_structural   Nd9Ti10O30
_chemical_formula_sum   'Nd18 Ti20 O60'
_cell_volume   1213.34117309
_cell_formula_units_Z   2
loop_
 _symmetry_equiv_pos_site_id
 _symmetry_equiv_pos_as_xyz
  1  'x, y, z'
loop_
 _atom_site_type_symbol
 _atom_site_label
 _atom_site_symmetry_multiplicity
 _atom_site_fract_x
 _atom_site_fract_y
 _atom_site_fract_z
 _atom_site_occupancy
  Nd  Nd0  1  0.67127100  0.38198300  0.86589400  1
  Nd  Nd1  1  0.43619900  0.81144200  0.94510800  1
  Nd  Nd2  1  0.16747200  0.39177500  0.85712900  1
  Nd  Nd3  1  0.27348500  0.58435000  0.65855100  1
  Nd  Nd4  1  0.92589200  0.81038000  0.93894900  1
  Nd  Nd5  1  0.03246300  0.01193000  0.73973400  1
  Nd  Nd6  1  0.76906500  0.59088500  0.65642900  1
  Nd  Nd7  1  0.87702100  0.79110000  0.46345400  1
  Nd  Nd8  1  0.51891700  0.01398500  0.73889300  1
  Nd  Nd9  1  0.63846700  0.20806900  0.54143600  1
  Nd  Nd10  1  0.37133400  0.79345300  0.45788600  1
  Nd  Nd11  1  0.47529700  0.99320300  0.26021400  1
  Nd  Nd12  1  0.23027900  0.40203800  0.34461300  1
  Nd  Nd13  1  0.97046800  0.99599600  0.25579200  1
  Nd  Nd14  1  0.07552600  0.18860200  0.06154200  1
  Nd  Nd15  1  0.72040200  0.40991700  0.34035900  1
  Nd  Nd16  1  0.83337900  0.60663900  0.14032500  1
  Nd  Nd17  1  0.32518200  0.61018300  0.13875000  1
  Ti  Ti0  1  0.79580700  0.09975300  0.90058000  1
  Ti  Ti1  1  0.99467800  0.49746000  0.00012000  1
  Ti  Ti2  1  0.30454500  0.09904800  0.90373500  1
  Ti  Ti3  1  0.50186100  0.49507600  0.00219500  1
  Ti  Ti4  1  0.39782700  0.29725700  0.69705700  1
  Ti  Ti5  1  0.59978700  0.69916600  0.79966600  1
  Ti  Ti6  1  0.90107600  0.30064900  0.69737500  1
  Ti  Ti7  1  0.10012700  0.69935100  0.79954100  1
  Ti  Ti8  1  0.00521100  0.49649100  0.50124800  1
  Ti  Ti9  1  0.20298600  0.90786900  0.59904100  1
  Ti  Ti10  1  0.49184800  0.49279600  0.50111600  1
  Ti  Ti11  1  0.70202200  0.90267700  0.59879200  1
  Ti  Ti12  1  0.80713400  0.10000300  0.40269400  1
  Ti  Ti13  1  0.59972700  0.70005500  0.30037800  1
  Ti  Ti14  1  0.09926200  0.69981400  0.29993700  1
  Ti  Ti15  1  0.29683900  0.10194700  0.40323900  1
  Ti  Ti16  1  0.20814100  0.90684400  0.09899500  1
  Ti  Ti17  1  0.40360600  0.29807500  0.19693700  1
  Ti  Ti18  1  0.89345100  0.29687500  0.19843800  1
  Ti  Ti19  1  0.69921600  0.90645800  0.10078400  1
  O  O0  1  0.55616800  0.11226000  0.91734900  1
  O  O1  1  0.37424300  0.31932600  0.93106900  1
  O  O2  1  0.77250000  0.96336100  0.99132700  1
  O  O3  1  0.60442200  0.63644500  0.90918700  1
  O  O4  1  0.27548400  0.55379700  0.99029500  1
  O  O5  1  0.95037500  0.28909100  0.96012200  1
  O  O6  1  0.65515700  0.91100800  0.83600700  1
  O  O7  1  0.16063600  0.31825200  0.72443600  1
  O  O8  1  0.32505300  0.64676300  0.80607100  1
  O  O9  1  0.82979400  0.23780000  0.80803700  1
  O  O10  1  0.99147200  0.56467600  0.88982100  1
  O  O11  1  0.22137200  0.87774300  0.87008000  1
  O  O12  1  0.98109000  0.52033400  0.73034800  1
  O  O13  1  0.20871900  0.83169400  0.70859800  1
  O  O14  1  0.37219400  0.16780200  0.79304500  1
  O  O15  1  0.87659100  0.75341300  0.79149700  1
  O  O16  1  0.03888900  0.07995400  0.87193000  1
  O  O17  1  0.54990600  0.48603400  0.76411200  1
  O  O18  1  0.27034000  0.10767500  0.64305000  1
  O  O19  1  0.76169000  0.52145100  0.52366000  1
  O  O20  1  0.92612000  0.84933400  0.60849900  1
  O  O21  1  0.44359000  0.44337800  0.61098800  1
  O  O22  1  0.59042500  0.76180600  0.69020500  1
  O  O23  1  0.81164200  0.07795600  0.67170600  1
  O  O24  1  0.57957700  0.71725100  0.53123000  1
  O  O25  1  0.78838400  0.02280000  0.50612200  1
  O  O26  1  0.96555600  0.37666700  0.59363300  1
  O  O27  1  0.47532800  0.95005300  0.59271900  1
  O  O28  1  0.64082900  0.28116100  0.67543700  1
  O  O29  1  0.14679600  0.69008400  0.56250900  1
  O  O30  1  0.86080400  0.31318500  0.43709600  1
  O  O31  1  0.36135700  0.72149600  0.32499400  1
  O  O32  1  0.52618600  0.05018400  0.40553200  1
  O  O33  1  0.02446700  0.63808200  0.40880200  1
  O  O34  1  0.19942900  0.95689000  0.48851200  1
  O  O35  1  0.43585500  0.28504000  0.46451100  1
  O  O36  1  0.18122500  0.92083400  0.32816400  1
  O  O37  1  0.40859000  0.23356400  0.30827500  1
  O  O38  1  0.57564800  0.56773300  0.39228800  1
  O  O39  1  0.07198000  0.14349700  0.38333400  1
  O  O40  1  0.25020200  0.50102500  0.47224200  1
  O  O41  1  0.74738200  0.88675300  0.36162200  1
  O  O42  1  0.45072900  0.51159100  0.24024600  1
  O  O43  1  0.12699700  0.25315400  0.21033300  1
  O  O44  1  0.95609700  0.90999900  0.12497200  1
  O  O45  1  0.78792100  0.16486300  0.29204000  1
  O  O46  1  0.62388500  0.83379000  0.20915000  1
  O  O47  1  0.02049000  0.47793200  0.27363900  1
  O  O48  1  0.79136200  0.11452000  0.13656300  1
  O  O49  1  0.00672800  0.43524400  0.10953200  1
  O  O50  1  0.17005500  0.76234000  0.19125900  1
  O  O51  1  0.67729600  0.35885100  0.19960300  1
  O  O52  1  0.83857000  0.68062000  0.27418000  1
  O  O53  1  0.32633900  0.08518000  0.16510400  1
  O  O54  1  0.05976600  0.71266100  0.03700800  1
  O  O55  1  0.73190500  0.46568300  0.00512800  1
  O  O56  1  0.37889000  0.37824800  0.09421500  1
  O  O57  1  0.20018800  0.02225700  0.00519600  1
  O  O58  1  0.61927400  0.67992100  0.07151000  1
  O  O59  1  0.43389200  0.86933900  0.07750000  1
loop_
_geom_bond_atom_site_label_1
_geom_bond_atom_site_label_2
_geom_bond_distance
_geom_bond_site_symmetry_2
Nd0 O17 2.406838 1_555
Nd0 O9 2.439701 1_555
Nd0 O10 2.450903 1_555
Nd0 O1 2.470723 1_555
Nd0 O0 2.537528 1_555
Nd0 O55 2.554864 1_556
Nd0 O14 2.722694 1_555
Nd0 O3 2.805156 1_555
Nd1 O59 2.397083 1_556
Nd1 O11 2.403399 1_555
Nd1 O4 2.414061 1_555
Nd1 O6 2.518140 1_555
Nd1 O2 2.571614 1_555
Nd1 O3 2.606979 1_555
Nd1 O0 2.692203 1_565
Nd1 O8 2.841258 1_555
Nd2 O1 2.375412 1_555
Nd2 O8 2.427289 1_555
Nd2 O5 2.431245 1_455
Nd2 O7 2.433154 1_555
Nd2 O9 2.598773 1_455
Nd2 O10 2.623852 1_455
Nd2 O4 2.740246 1_555
Nd2 O16 2.753979 1_555
Nd3 O29 2.367416 1_555
Nd3 O21 2.414251 1_555
Nd3 O22 2.442222 1_555
Nd3 O12 2.496489 1_455
Nd3 O7 2.610679 1_555
Nd3 O8 2.650654 1_555
Nd3 O26 2.677516 1_455
Nd3 O13 2.768138 1_555
Nd4 O54 2.380927 1_656
Nd4 O2 2.436582 1_555
Nd4 O3 2.452722 1_555
Nd4 O11 2.486445 1_655
Nd4 O57 2.556555 1_666
Nd4 O15 2.640312 1_555
Nd4 O16 2.647412 1_665
Nd4 O10 2.751699 1_555
Nd5 O23 2.377494 1_455
Nd5 O16 2.410553 1_555
Nd5 O18 2.440801 1_555
Nd5 O15 2.457615 1_445
Nd5 O14 2.638576 1_555
Nd5 O13 2.679021 1_545
Nd5 O7 2.705774 1_555
Nd5 O20 2.713063 1_445
Nd6 O12 2.397912 1_555
Nd6 O19 2.423102 1_555
Nd6 O20 2.433601 1_555
Nd6 O21 2.493296 1_555
Nd6 O17 2.505362 1_555
Nd6 O22 2.628746 1_555
Nd6 O28 2.743493 1_555
Nd6 O15 2.770656 1_555
Nd7 O41 2.398725 1_555
Nd7 O33 2.418272 1_655
Nd7 O34 2.423918 1_655
Nd7 O24 2.483062 1_555
Nd7 O19 2.595905 1_555
Nd7 O20 2.600705 1_555
Nd7 O25 2.695075 1_565
Nd7 O38 2.756216 1_555
Nd8 O6 2.409293 1_545
Nd8 O13 2.412632 1_545
Nd8 O14 2.416674 1_555
Nd8 O23 2.457438 1_555
Nd8 O28 2.598302 1_555
Nd8 O27 2.628184 1_545
Nd8 O9 2.783818 1_555
Nd8 O22 2.832547 1_545
Nd9 O35 2.402728 1_555
Nd9 O27 2.457048 1_545
Nd9 O28 2.458228 1_555
Nd9 O30 2.474777 1_555
Nd9 O26 2.579804 1_555
Nd9 O25 2.580144 1_555
Nd9 O32 2.766719 1_555
Nd9 O19 2.776710 1_555
Nd10 O24 2.399633 1_555
Nd10 O31 2.429673 1_555
Nd10 O32 2.446977 1_565
Nd10 O29 2.486341 1_555
Nd10 O34 2.513568 1_555
Nd10 O40 2.583231 1_555
Nd10 O33 2.658047 1_555
Nd10 O27 2.740538 1_555
Nd11 O53 2.385538 1_565
Nd11 O45 2.402191 1_565
Nd11 O46 2.449652 1_555
Nd11 O36 2.463780 1_555
Nd11 O32 2.604193 1_565
Nd11 O31 2.646966 1_555
Nd11 O37 2.702743 1_565
Nd11 O50 2.787398 1_555
Nd12 O39 2.383437 1_555
Nd12 O47 2.386190 1_555
Nd12 O40 2.417617 1_555
Nd12 O42 2.472395 1_555
Nd12 O37 2.618253 1_555
Nd12 O38 2.657805 1_555
Nd12 O43 2.700584 1_555
Nd12 O31 2.830374 1_555
Nd12 O35 3.102764 1_555
Nd12 O30 3.162006 1_455
Nd13 O36 2.400831 1_655
Nd13 O43 2.408181 1_665
Nd13 O44 2.431701 1_555
Nd13 O41 2.502713 1_555
Nd13 O39 2.591411 1_665
Nd13 O45 2.647380 1_565
Nd13 O46 2.653894 1_555
Nd13 O52 2.790847 1_555
Nd13 O48 2.970695 1_565
Nd13 O53 3.057301 1_665
Nd14 O5 2.399340 1_454
Nd14 O56 2.407664 1_555
Nd14 O57 2.407895 1_555
Nd14 O48 2.463822 1_455
Nd14 O43 2.675950 1_555
Nd14 O44 2.690899 1_445
Nd14 O2 2.763709 1_444
Nd14 O49 2.767476 1_555
Nd15 O30 2.389761 1_555
Nd15 O37 2.411159 1_555
Nd15 O38 2.420869 1_555
Nd15 O47 2.497654 1_655
Nd15 O51 2.514395 1_555
Nd15 O52 2.648209 1_555
Nd15 O45 2.749604 1_555
Nd15 O33 2.767096 1_655
Nd16 O58 2.380250 1_555
Nd16 O51 2.430131 1_555
Nd16 O52 2.455499 1_555
Nd16 O54 2.480275 1_655
Nd16 O49 2.587624 1_655
Nd16 O50 2.605651 1_655
Nd16 O44 2.682244 1_555
Nd16 O55 2.683295 1_555
Nd17 O42 2.391875 1_555
Nd17 O49 2.435609 1_555
Nd17 O50 2.441348 1_555
Nd17 O58 2.460326 1_555
Nd17 O59 2.520616 1_555
Nd17 O56 2.552991 1_555
Nd17 O4 2.656896 1_554
Nd17 O46 2.740001 1_555
O0 Ti2 1.943664 1_555
O0 Ti0 1.965783 1_555
O1 Ti3 2.004538 1_556
O1 Ti2 2.013373 1_555
O2 Ti0 2.020654 1_565
O2 Ti19 2.027284 1_556
O3 Ti5 2.017907 1_555
O3 Ti3 2.075109 1_556
O4 Ti1 2.064070 1_456
O4 Ti3 2.080756 1_556
O5 Ti1 2.011400 1_556
O5 Ti0 2.014693 1_555
O6 Ti5 2.001906 1_555
O6 Ti0 2.035706 1_565
O7 Ti4 2.024084 1_555
O7 Ti6 2.028958 1_455
O8 Ti5 2.019037 1_555
O8 Ti7 2.028221 1_555
O9 Ti0 2.043804 1_555
O9 Ti6 2.053901 1_555
O10 Ti7 2.014109 1_655
O10 Ti1 2.042802 1_556
O11 Ti7 2.007882 1_555
O11 Ti2 2.038173 1_565
O12 Ti7 1.995460 1_655
O12 Ti6 2.023228 1_555
O13 Ti7 2.013009 1_555
O13 Ti9 2.062143 1_555
O14 Ti4 2.053388 1_555
O14 Ti2 2.060798 1_555
O15 Ti7 2.027313 1_655
O15 Ti5 2.034231 1_555
O16 Ti0 2.069323 1_455
O16 Ti2 2.090111 1_555
O17 Ti5 2.018045 1_555
O17 Ti4 2.077741 1_555
O18 Ti4 1.928762 1_555
O18 Ti9 1.930292 1_545
O19 Ti10 2.060261 1_555
O19 Ti8 2.070545 1_655
O20 Ti11 2.029176 1_555
O20 Ti9 2.030014 1_655
O21 Ti4 1.992973 1_555
O21 Ti10 1.992992 1_555
O22 Ti5 2.021471 1_555
O22 Ti11 2.062009 1_555
O23 Ti11 2.004872 1_545
O23 Ti6 2.009800 1_555
O24 Ti11 2.023278 1_555
O24 Ti10 2.045272 1_555
O25 Ti12 1.944960 1_555
O25 Ti11 1.957807 1_545
O26 Ti8 1.940224 1_655
O26 Ti6 1.958901 1_555
O27 Ti11 2.011952 1_555
O27 Ti9 2.020659 1_555
O28 Ti6 2.010951 1_555
O28 Ti4 2.023402 1_555
O29 Ti8 2.037403 1_555
O29 Ti9 2.054600 1_555
O30 Ti8 2.002726 1_655
O30 Ti12 2.005949 1_555
O31 Ti13 2.023270 1_555
O31 Ti14 2.028763 1_555
O32 Ti15 2.055884 1_555
O32 Ti12 2.067779 1_555
O33 Ti14 2.027077 1_555
O33 Ti8 2.079847 1_555
O34 Ti15 1.982532 1_565
O34 Ti9 1.998834 1_555
O35 Ti15 1.965280 1_555
O35 Ti10 1.966214 1_555
O36 Ti14 2.011127 1_555
O36 Ti15 2.070213 1_565
O37 Ti17 2.053814 1_555
O37 Ti15 2.071548 1_555
O38 Ti13 2.012700 1_555
O38 Ti10 2.064563 1_555
O39 Ti15 1.989461 1_555
O39 Ti12 1.990544 1_455
O40 Ti8 1.987847 1_555
O40 Ti10 1.991728 1_555
O41 Ti13 2.001560 1_555
O41 Ti12 2.035905 1_565
O42 Ti13 2.004768 1_555
O42 Ti17 2.072667 1_555
O43 Ti18 2.050674 1_455
O43 Ti17 2.060608 1_555
O44 Ti19 2.045532 1_555
O44 Ti16 2.056621 1_655
O45 Ti18 2.044841 1_555
O45 Ti12 2.060268 1_555
O46 Ti13 2.011045 1_555
O46 Ti19 2.039991 1_555
O47 Ti14 2.013639 1_555
O47 Ti18 2.081270 1_455
O48 Ti19 1.930285 1_545
O48 Ti18 1.932858 1_555
O49 Ti18 2.018565 1_455
O49 Ti1 2.022426 1_455
O50 Ti14 2.019540 1_555
O50 Ti16 2.073324 1_555
O51 Ti17 1.992319 1_555
O51 Ti18 2.016168 1_555
O52 Ti13 2.024456 1_555
O52 Ti14 2.027929 1_655
O53 Ti16 1.957933 1_545
O53 Ti17 1.960333 1_555
O54 Ti1 2.020934 1_455
O54 Ti16 2.057670 1_555
O55 Ti3 1.941511 1_555
O55 Ti1 1.969584 1_555
O56 Ti3 1.993622 1_555
O56 Ti17 1.995358 1_555
O57 Ti2 1.988025 1_554
O57 Ti16 1.994731 1_545
O58 Ti3 2.033539 1_555
O58 Ti19 2.066523 1_555
O59 Ti16 1.993051 1_555
O59 Ti19 2.006892 1_555
