# generated using pymatgen
data_U2AuF11
_symmetry_space_group_name_H-M   'P 1'
_cell_length_a   8.56080974
_cell_length_b   8.56080974
_cell_length_c   8.56080974
_cell_angle_alpha   97.96350333
_cell_angle_beta   97.96350333
_cell_angle_gamma   136.29571132
_symmetry_Int_Tables_number   1
_chemical_formula_structural   U2AuF11
_chemical_formula_sum   'U4 Au2 F22'
_cell_volume   402.34598156
_cell_formula_units_Z   2
loop_
 _symmetry_equiv_pos_site_id
 _symmetry_equiv_pos_as_xyz
  1  'x, y, z'
loop_
 _atom_site_type_symbol
 _atom_site_label
 _atom_site_symmetry_multiplicity
 _atom_site_fract_x
 _atom_site_fract_y
 _atom_site_fract_z
 _atom_site_occupancy
  U  U0  1  0.64452600  0.14452600  0.78905200  1
  U  U1  1  0.85547400  0.64452600  0.50000000  1
  U  U2  1  0.14452600  0.35547400  0.50000000  1
  U  U3  1  0.35547400  0.85547400  0.21094800  1
  Au  Au0  1  0.50000000  0.50000000  0.00000000  1
  Au  Au1  1  0.00000000  0.00000000  0.00000000  1
  F  F0  1  0.42830400  0.75000000  0.67830400  1
  F  F1  1  0.66935300  0.59735000  0.26670300  1
  F  F2  1  0.33064700  0.40265000  0.73329700  1
  F  F3  1  0.00000000  0.50000000  0.50000000  1
  F  F4  1  0.07169600  0.75000000  0.32169600  1
  F  F5  1  0.40265000  0.66935300  0.07200300  1
  F  F6  1  0.90265000  0.83064700  0.73329700  1
  F  F7  1  0.57169600  0.25000000  0.32169600  1
  F  F8  1  0.09735000  0.16935300  0.26670300  1
  F  F9  1  0.83064700  0.09735000  0.92799700  1
  F  F10  1  0.25000000  0.57169600  0.32169600  1
  F  F11  1  0.92830400  0.25000000  0.67830400  1
  F  F12  1  0.25000000  0.92830400  0.67830400  1
  F  F13  1  0.00000000  0.00000000  0.50000000  1
  F  F14  1  0.50000000  0.50000000  0.50000000  1
  F  F15  1  0.75000000  0.42830400  0.67830400  1
  F  F16  1  0.16935300  0.90265000  0.07200300  1
  F  F17  1  0.50000000  0.00000000  0.00000000  1
  F  F18  1  0.75000000  0.07169600  0.32169600  1
  F  F19  1  0.59735000  0.33064700  0.92799700  1
  F  F20  1  0.50000000  0.00000000  0.50000000  1
  F  F21  1  0.00000000  0.50000000  0.00000000  1
loop_
_geom_bond_atom_site_label_1
_geom_bond_atom_site_label_2
_geom_bond_distance
_geom_bond_site_symmetry_2
Au0 F1 2.195010 1_555
Au0 F5 2.195010 1_555
Au0 F2 2.195010 1_554
Au0 F19 2.195010 1_554
Au1 F8 2.195010 1_555
Au1 F16 2.195010 1_545
Au1 F6 2.195010 1_444
Au1 F9 2.195010 1_454
F0 U0 2.306486 1_565
F0 U2 2.306486 1_555
F1 U1 2.157562 1_555
F2 U2 2.157562 1_555
F3 U1 2.296719 1_455
F3 U2 2.296719 1_555
F4 U3 2.306486 1_555
F4 U1 2.306486 1_455
F5 U3 2.157562 1_555
F6 U1 2.157562 1_555
F7 U1 2.306486 1_555
F7 U3 2.306486 1_545
F8 U2 2.157562 1_555
F9 U0 2.157562 1_555
F10 U3 2.306486 1_555
F10 U2 2.306486 1_555
F11 U0 2.306486 1_555
F11 U2 2.306486 1_655
F12 U0 2.306486 1_565
F12 U1 2.306486 1_455
F13 U2 2.312522 1_555
F13 U1 2.312522 1_445
F14 U2 2.312522 1_555
F14 U1 2.312522 1_555
F15 U0 2.306486 1_555
F15 U1 2.306486 1_555
F16 U3 2.157562 1_555
F17 U0 2.312522 1_554
F17 U3 2.312522 1_545
F18 U2 2.306486 1_655
F18 U3 2.306486 1_545
F19 U0 2.157562 1_555
F20 U3 2.296719 1_545
F20 U0 2.296719 1_555
F21 U3 2.312522 1_555
F21 U0 2.312522 1_454
