# generated using pymatgen
data_RbFeF4
_symmetry_space_group_name_H-M   'P 1'
_cell_length_a   6.16375800
_cell_length_b   7.64878006
_cell_length_c   7.70423055
_cell_angle_alpha   90.00000000
_cell_angle_beta   90.00000000
_cell_angle_gamma   90.00000000
_symmetry_Int_Tables_number   1
_chemical_formula_structural   RbFeF4
_chemical_formula_sum   'Rb4 Fe4 F16'
_cell_volume   363.21771574
_cell_formula_units_Z   4
loop_
 _symmetry_equiv_pos_site_id
 _symmetry_equiv_pos_as_xyz
  1  'x, y, z'
loop_
 _atom_site_type_symbol
 _atom_site_label
 _atom_site_symmetry_multiplicity
 _atom_site_fract_x
 _atom_site_fract_y
 _atom_site_fract_z
 _atom_site_occupancy
  Rb  Rb0  1  0.48254400  0.29585531  0.25000000  1
  Rb  Rb1  1  0.48254400  0.20414469  0.75000000  1
  Rb  Rb2  1  0.51745600  0.79585531  0.25000000  1
  Rb  Rb3  1  0.51745600  0.70414469  0.75000000  1
  Fe  Fe0  1  0.00000000  -0.00000000  -0.00000000  1
  Fe  Fe1  1  0.00000000  0.50000000  -0.00000000  1
  Fe  Fe2  1  0.00000000  0.50000000  0.50000000  1
  Fe  Fe3  1  0.00000000  -0.00000000  0.50000000  1
  F  F0  1  0.71336155  0.06024349  0.45067578  1
  F  F1  1  0.71336155  0.43975651  0.54932422  1
  F  F2  1  0.28663845  0.56024349  0.04932422  1
  F  F3  1  0.28663845  0.93975651  0.95067578  1
  F  F4  1  0.28663845  0.93975651  0.54932422  1
  F  F5  1  0.28663845  0.56024349  0.45067578  1
  F  F6  1  0.71336155  0.43975651  0.95067578  1
  F  F7  1  0.71336155  0.06024349  0.04932422  1
  F  F8  1  0.09555460  0.25000000  -0.00000000  1
  F  F9  1  0.90444540  0.75000000  0.50000000  1
  F  F10  1  0.90444540  0.75000000  -0.00000000  1
  F  F11  1  0.09555460  0.25000000  0.50000000  1
  F  F12  1  0.07625142  0.98409398  0.25000000  1
  F  F13  1  0.07625142  0.51590602  0.75000000  1
  F  F14  1  0.92374858  0.48409398  0.25000000  1
  F  F15  1  0.92374858  0.01590602  0.75000000  1
loop_
_geom_bond_atom_site_label_1
_geom_bond_atom_site_label_2
_geom_bond_distance
_geom_bond_site_symmetry_2
F0 Fe3 1.864995 1_655
F0 Rb0 2.768047 1_555
F0 Rb2 2.817419 1_545
F0 Rb1 2.924634 1_555
F1 Fe2 1.864995 1_655
F1 Rb1 2.768047 1_555
F1 Rb3 2.817419 1_555
F1 Rb0 2.924634 1_555
F2 Fe1 1.864995 1_555
F2 Rb2 2.768047 1_555
F2 Rb0 2.817419 1_555
F2 Rb3 2.924634 1_554
F3 Fe0 1.864995 1_566
F3 Rb3 2.768047 1_555
F3 Rb1 2.817419 1_565
F3 Rb2 2.924634 1_556
F4 Fe3 1.864995 1_565
F4 Rb3 2.768047 1_555
F4 Rb1 2.817419 1_565
F4 Rb2 2.924634 1_555
F5 Fe2 1.864995 1_555
F5 Rb2 2.768047 1_555
F5 Rb0 2.817419 1_555
F5 Rb3 2.924634 1_555
F6 Fe1 1.864995 1_656
F6 Rb1 2.768047 1_555
F6 Rb3 2.817419 1_555
F6 Rb0 2.924634 1_556
F7 Fe0 1.864995 1_655
F7 Rb0 2.768047 1_555
F7 Rb2 2.817419 1_545
F7 Rb1 2.924634 1_554
F8 Fe1 2.000845 1_555
F8 Fe0 2.000845 1_555
F8 Rb1 3.085841 1_554
F8 Rb0 3.085841 1_555
F9 Fe3 2.000845 1_665
F9 Fe2 2.000845 1_655
F9 Rb3 3.085841 1_555
F9 Rb2 3.085841 1_555
F10 Fe0 2.000845 1_665
F10 Fe1 2.000845 1_655
F10 Rb3 3.085841 1_554
F10 Rb2 3.085841 1_555
F11 Fe2 2.000845 1_555
F11 Fe3 2.000845 1_555
F11 Rb1 3.085841 1_555
F11 Rb0 3.085841 1_555
F12 Fe0 1.986302 1_565
F12 Fe3 1.986302 1_565
F12 Rb2 3.077105 1_555
F13 Fe1 1.986302 1_556
F13 Fe2 1.986302 1_555
F13 Rb3 3.077105 1_555
F14 Fe2 1.986302 1_655
F14 Fe1 1.986302 1_655
F14 Rb0 3.077105 1_555
F15 Fe3 1.986302 1_655
F15 Fe0 1.986302 1_656
F15 Rb1 3.077105 1_555
