# generated using pymatgen
data_Cs2LiNbS4
_symmetry_space_group_name_H-M   'P 1'
_cell_length_a   7.02765400
_cell_length_b   7.45761786
_cell_length_c   9.96458384
_cell_angle_alpha   97.01506632
_cell_angle_beta   92.57388994
_cell_angle_gamma   91.32792326
_symmetry_Int_Tables_number   1
_chemical_formula_structural   Cs2LiNbS4
_chemical_formula_sum   'Cs4 Li2 Nb2 S8'
_cell_volume   517.59071327
_cell_formula_units_Z   2
loop_
 _symmetry_equiv_pos_site_id
 _symmetry_equiv_pos_as_xyz
  1  'x, y, z'
loop_
 _atom_site_type_symbol
 _atom_site_label
 _atom_site_symmetry_multiplicity
 _atom_site_fract_x
 _atom_site_fract_y
 _atom_site_fract_z
 _atom_site_occupancy
  Cs  Cs0  1  0.30144300  0.75413800  0.00626200  1
  Cs  Cs1  1  0.12914200  0.20137100  0.65687600  1
  Cs  Cs2  1  0.87085800  0.79862900  0.34312400  1
  Cs  Cs3  1  0.69855700  0.24586200  0.99373800  1
  Li  Li0  1  0.40347900  0.67748200  0.57148500  1
  Li  Li1  1  0.59652100  0.32251800  0.42851500  1
  Nb  Nb0  1  0.78338700  0.70769000  0.74994100  1
  Nb  Nb1  1  0.21661300  0.29231000  0.25005900  1
  S  S0  1  0.37885400  0.06280100  0.33053400  1
  S  S1  1  0.39489400  0.55317000  0.32517900  1
  S  S2  1  0.80156400  0.74755900  0.98109900  1
  S  S3  1  0.91620100  0.29957700  0.33123600  1
  S  S4  1  0.08379900  0.70042300  0.66876400  1
  S  S5  1  0.60510600  0.44683000  0.67482100  1
  S  S6  1  0.62114600  0.93719900  0.66946600  1
  S  S7  1  0.19843600  0.25244100  0.01890100  1
loop_
_geom_bond_atom_site_label_1
_geom_bond_atom_site_label_2
_geom_bond_distance
_geom_bond_site_symmetry_2
Cs0 S2 3.509441 1_454
Cs0 S2 3.535869 1_554
Cs0 S4 3.604222 1_554
Cs0 S1 3.714562 1_555
Cs0 S0 3.742034 1_565
Cs0 S7 3.790546 1_565
Cs0 S7 3.812637 1_555
Cs1 S7 3.590789 1_556
Cs1 S3 3.674253 1_455
Cs1 S4 3.730628 1_555
Cs1 S4 3.758813 1_545
Cs1 S5 3.762154 1_555
Cs1 S0 3.807615 1_555
Cs1 S6 4.023602 1_545
Cs1 S6 4.051748 1_445
Cs1 S5 4.151759 1_455
Cs2 S2 3.590789 1_554
Cs2 S4 3.674253 1_655
Cs2 S3 3.730628 1_555
Cs2 S3 3.758813 1_565
Cs2 S1 3.762154 1_555
Cs2 S6 3.807615 1_555
Cs2 S0 4.023602 1_565
Cs2 S0 4.051748 1_665
Cs2 S1 4.151759 1_655
Cs3 S7 3.509441 1_656
Cs3 S7 3.535869 1_556
Cs3 S3 3.604222 1_556
Cs3 S5 3.714562 1_555
Cs3 S6 3.742034 1_545
Cs3 S2 3.790546 1_545
Cs3 S2 3.812637 1_555
Li0 S4 2.487773 1_555
Li0 S6 2.512226 1_555
Li0 S1 2.513006 1_555
Li0 S5 2.537996 1_555
Li1 S3 2.487773 1_555
Li1 S0 2.512226 1_555
Li1 S5 2.513006 1_555
Li1 S1 2.537996 1_555
Nb0 S2 2.283609 1_555
Nb0 S6 2.283893 1_555
Nb0 S4 2.293982 1_655
Nb0 S5 2.315540 1_555
Nb1 S7 2.283609 1_555
Nb1 S0 2.283893 1_555
Nb1 S3 2.293982 1_455
Nb1 S1 2.315540 1_555
