# generated using pymatgen
data_Ca2AsClO4
_symmetry_space_group_name_H-M   'P 1'
_cell_length_a   6.41068800
_cell_length_b   7.18524600
_cell_length_c   11.17560400
_cell_angle_alpha   90.00000000
_cell_angle_beta   90.00000000
_cell_angle_gamma   90.00000000
_symmetry_Int_Tables_number   1
_chemical_formula_structural   Ca2AsClO4
_chemical_formula_sum   'Ca8 As4 Cl4 O16'
_cell_volume   514.77480988
_cell_formula_units_Z   4
loop_
 _symmetry_equiv_pos_site_id
 _symmetry_equiv_pos_as_xyz
  1  'x, y, z'
loop_
 _atom_site_type_symbol
 _atom_site_label
 _atom_site_symmetry_multiplicity
 _atom_site_fract_x
 _atom_site_fract_y
 _atom_site_fract_z
 _atom_site_occupancy
  Ca  Ca0  1  0.85993300  0.97637900  0.25000000  1
  Ca  Ca1  1  0.14006700  0.02362100  0.75000000  1
  Ca  Ca2  1  0.14006700  0.47637900  0.25000000  1
  Ca  Ca3  1  0.85993300  0.52362100  0.75000000  1
  Ca  Ca4  1  0.62443500  0.25000000  0.50000000  1
  Ca  Ca5  1  0.62443500  0.25000000  0.00000000  1
  Ca  Ca6  1  0.37556500  0.75000000  0.50000000  1
  Ca  Ca7  1  0.37556500  0.75000000  0.00000000  1
  As  As0  1  0.12898200  0.25000000  0.00000000  1
  As  As1  1  0.87101800  0.75000000  0.50000000  1
  As  As2  1  0.12898200  0.25000000  0.50000000  1
  As  As3  1  0.87101800  0.75000000  0.00000000  1
  Cl  Cl0  1  0.50241200  0.70083700  0.25000000  1
  Cl  Cl1  1  0.49758800  0.20083700  0.25000000  1
  Cl  Cl2  1  0.50241200  0.79916300  0.75000000  1
  Cl  Cl3  1  0.49758800  0.29916300  0.75000000  1
  O  O0  1  0.96869100  0.26340500  0.62383000  1
  O  O1  1  0.29260700  0.06609700  0.52855800  1
  O  O2  1  0.29260700  0.43390300  0.02855800  1
  O  O3  1  0.29260700  0.43390300  0.47144200  1
  O  O4  1  0.70739300  0.56609700  0.52855800  1
  O  O5  1  0.03130900  0.73659500  0.37617000  1
  O  O6  1  0.96869100  0.23659500  0.12383000  1
  O  O7  1  0.03130900  0.76340500  0.62383000  1
  O  O8  1  0.03130900  0.73659500  0.12383000  1
  O  O9  1  0.03130900  0.76340500  0.87617000  1
  O  O10  1  0.96869100  0.23659500  0.37617000  1
  O  O11  1  0.29260700  0.06609700  0.97144200  1
  O  O12  1  0.70739300  0.93390300  0.47144200  1
  O  O13  1  0.70739300  0.56609700  0.97144200  1
  O  O14  1  0.70739300  0.93390300  0.02855800  1
  O  O15  1  0.96869100  0.26340500  0.87617000  1
loop_
_geom_bond_atom_site_label_1
_geom_bond_atom_site_label_2
_geom_bond_distance
_geom_bond_site_symmetry_2
Ca0 O10 2.443382 1_565
Ca0 O6 2.443382 1_565
Ca0 O8 2.482657 1_655
Ca0 O5 2.482657 1_655
Ca0 O12 2.678393 1_555
Ca0 O14 2.678393 1_555
Ca0 Cl1 2.827871 1_565
Ca0 Cl0 3.028666 1_555
Ca1 O7 2.443382 1_545
Ca1 O9 2.443382 1_545
Ca1 O0 2.482657 1_455
Ca1 O15 2.482657 1_455
Ca1 O11 2.678393 1_555
Ca1 O1 2.678393 1_555
Ca1 Cl2 2.827871 1_545
Ca1 Cl3 3.028666 1_555
Ca2 O8 2.443382 1_555
Ca2 O5 2.443382 1_555
Ca2 O6 2.482657 1_455
Ca2 O10 2.482657 1_455
Ca2 O3 2.678393 1_555
Ca2 O2 2.678393 1_555
Ca2 Cl0 2.827871 1_555
Ca2 Cl1 3.028666 1_555
Ca3 O0 2.443382 1_555
Ca3 O15 2.443382 1_555
Ca3 O7 2.482657 1_655
Ca3 O9 2.482657 1_655
Ca3 O13 2.678393 1_555
Ca3 O4 2.678393 1_555
Ca3 Cl3 2.827871 1_555
Ca3 Cl2 3.028666 1_555
Ca4 O4 2.354399 1_555
Ca4 O12 2.354399 1_545
Ca4 O1 2.524500 1_555
Ca4 O3 2.524500 1_555
Ca4 O10 2.606698 1_555
Ca4 O0 2.606698 1_555
Ca4 Cl1 2.931198 1_555
Ca4 Cl3 2.931198 1_555
Ca5 O13 2.354399 1_554
Ca5 O14 2.354399 1_545
Ca5 O2 2.524500 1_555
Ca5 O11 2.524500 1_554
Ca5 O15 2.606698 1_554
Ca5 O6 2.606698 1_555
Ca5 Cl1 2.931198 1_555
Ca5 Cl3 2.931198 1_554
Ca6 O1 2.354399 1_565
Ca6 O3 2.354399 1_555
Ca6 O12 2.524500 1_555
Ca6 O4 2.524500 1_555
Ca6 O7 2.606698 1_555
Ca6 O5 2.606698 1_555
Ca6 Cl2 2.931198 1_555
Ca6 Cl0 2.931198 1_555
Ca7 O2 2.354399 1_555
Ca7 O11 2.354399 1_564
Ca7 O14 2.524500 1_555
Ca7 O13 2.524500 1_554
Ca7 O9 2.606698 1_554
Ca7 O8 2.606698 1_555
Ca7 Cl2 2.931198 1_554
Ca7 Cl0 2.931198 1_555
As0 O2 1.717038 1_555
As0 O11 1.717038 1_554
As0 O15 1.726354 1_454
As0 O6 1.726354 1_455
As1 O12 1.717038 1_555
As1 O4 1.717038 1_555
As1 O7 1.726354 1_655
As1 O5 1.726354 1_655
As2 O1 1.717038 1_555
As2 O3 1.717038 1_555
As2 O10 1.726354 1_455
As2 O0 1.726354 1_455
As3 O14 1.717038 1_555
As3 O13 1.717038 1_554
As3 O9 1.726354 1_654
As3 O8 1.726354 1_655
