# generated using pymatgen
data_Tl4CrI6
_symmetry_space_group_name_H-M   'P 1'
_cell_length_a   9.32967100
_cell_length_b   9.32967100
_cell_length_c   9.94190400
_cell_angle_alpha   90.00000000
_cell_angle_beta   90.00000000
_cell_angle_gamma   90.00000000
_symmetry_Int_Tables_number   1
_chemical_formula_structural   Tl4CrI6
_chemical_formula_sum   'Tl8 Cr2 I12'
_cell_volume   865.37077344
_cell_formula_units_Z   2
loop_
 _symmetry_equiv_pos_site_id
 _symmetry_equiv_pos_as_xyz
  1  'x, y, z'
loop_
 _atom_site_type_symbol
 _atom_site_label
 _atom_site_symmetry_multiplicity
 _atom_site_fract_x
 _atom_site_fract_y
 _atom_site_fract_z
 _atom_site_occupancy
  Tl  Tl0  1  0.35128700  0.14871300  0.25000000  1
  Tl  Tl1  1  0.14871300  0.64871300  0.75000000  1
  Tl  Tl2  1  0.64871300  0.85128700  0.75000000  1
  Tl  Tl3  1  0.85128700  0.35128700  0.75000000  1
  Tl  Tl4  1  0.35128700  0.14871300  0.75000000  1
  Tl  Tl5  1  0.14871300  0.64871300  0.25000000  1
  Tl  Tl6  1  0.85128700  0.35128700  0.25000000  1
  Tl  Tl7  1  0.64871300  0.85128700  0.25000000  1
  Cr  Cr0  1  0.50000000  0.50000000  0.00000000  1
  Cr  Cr1  1  0.00000000  0.00000000  0.50000000  1
  I  I0  1  0.29358900  0.86432900  0.50000000  1
  I  I1  1  0.79358900  0.63567100  0.00000000  1
  I  I2  1  0.63567100  0.20641100  0.00000000  1
  I  I3  1  0.13567100  0.29358900  0.50000000  1
  I  I4  1  0.00000000  0.00000000  0.22411700  1
  I  I5  1  0.50000000  0.50000000  0.27588300  1
  I  I6  1  0.36432900  0.79358900  0.00000000  1
  I  I7  1  0.00000000  0.00000000  0.77588300  1
  I  I8  1  0.20641100  0.36432900  0.00000000  1
  I  I9  1  0.50000000  0.50000000  0.72411700  1
  I  I10  1  0.86432900  0.70641100  0.50000000  1
  I  I11  1  0.70641100  0.13567100  0.50000000  1
loop_
_geom_bond_atom_site_label_1
_geom_bond_atom_site_label_2
_geom_bond_distance
_geom_bond_site_symmetry_2
Cr0 I9 2.742802 1_554
Cr0 I5 2.742802 1_555
Cr0 I1 3.017411 1_555
Cr0 I6 3.017411 1_555
Cr0 I2 3.017411 1_555
Cr0 I8 3.017411 1_555
Cr1 I7 2.742802 1_555
Cr1 I4 2.742802 1_555
Cr1 I3 3.017411 1_555
Cr1 I11 3.017411 1_455
Cr1 I0 3.017411 1_545
Cr1 I10 3.017411 1_445
I0 Tl1 3.471480 1_555
I0 Tl5 3.471480 1_555
I1 Tl2 3.471480 1_554
I1 Tl7 3.471480 1_555
I2 Tl3 3.471480 1_554
I2 Tl6 3.471480 1_555
I3 Tl4 3.471480 1_555
I3 Tl0 3.471480 1_555
I4 Tl0 3.568265 1_555
I4 Tl6 3.568265 1_455
I4 Tl5 3.568265 1_545
I4 Tl7 3.568265 1_445
I5 Tl7 3.568265 1_555
I5 Tl6 3.568265 1_555
I5 Tl5 3.568265 1_555
I5 Tl0 3.568265 1_555
I6 Tl1 3.471480 1_554
I6 Tl5 3.471480 1_555
I7 Tl4 3.568265 1_555
I7 Tl3 3.568265 1_455
I7 Tl1 3.568265 1_545
I7 Tl2 3.568265 1_445
I8 Tl4 3.471480 1_554
I8 Tl0 3.471480 1_555
I9 Tl2 3.568265 1_555
I9 Tl3 3.568265 1_555
I9 Tl1 3.568265 1_555
I9 Tl4 3.568265 1_555
I10 Tl2 3.471480 1_555
I10 Tl7 3.471480 1_555
I11 Tl3 3.471480 1_555
I11 Tl6 3.471480 1_555
