# generated using pymatgen
data_Na2PSe3
_symmetry_space_group_name_H-M   'P 1'
_cell_length_a   8.88756210
_cell_length_b   8.88756210
_cell_length_c   8.02166104
_cell_angle_alpha   90.00000000
_cell_angle_beta   90.00000000
_cell_angle_gamma   96.67456520
_symmetry_Int_Tables_number   1
_chemical_formula_structural   Na2PSe3
_chemical_formula_sum   'Na8 P4 Se12'
_cell_volume   629.32659424
_cell_formula_units_Z   4
loop_
 _symmetry_equiv_pos_site_id
 _symmetry_equiv_pos_as_xyz
  1  'x, y, z'
loop_
 _atom_site_type_symbol
 _atom_site_label
 _atom_site_symmetry_multiplicity
 _atom_site_fract_x
 _atom_site_fract_y
 _atom_site_fract_z
 _atom_site_occupancy
  Na  Na0  1  0.72219230  0.77780770  0.25000000  1
  Na  Na1  1  0.77780770  0.72219230  0.75000000  1
  Na  Na2  1  0.18472442  0.81527558  0.15647938  1
  Na  Na3  1  0.81527558  0.18472442  0.84352062  1
  Na  Na4  1  0.22219230  0.27780770  0.25000000  1
  Na  Na5  1  0.68472442  0.31527558  0.34352062  1
  Na  Na6  1  0.31527558  0.68472442  0.65647938  1
  Na  Na7  1  0.27780770  0.22219230  0.75000000  1
  P  P0  1  0.92180417  0.07819583  0.44620793  1
  P  P1  1  0.42180417  0.57819583  0.05379207  1
  P  P2  1  0.07819583  0.92180417  0.55379207  1
  P  P3  1  0.57819583  0.42180417  0.94620793  1
  Se  Se0  1  0.99944515  0.30694206  0.53338252  1
  Se  Se1  1  0.69305794  0.00055485  0.53338252  1
  Se  Se2  1  0.94676596  0.05323404  0.17639946  1
  Se  Se3  1  0.19305794  0.50055485  0.96661748  1
  Se  Se4  1  0.49944515  0.80694206  0.96661748  1
  Se  Se5  1  0.30694206  0.99944515  0.46661748  1
  Se  Se6  1  0.55323404  0.44676596  0.67639946  1
  Se  Se7  1  0.44676596  0.55323404  0.32360054  1
  Se  Se8  1  0.80694206  0.49944515  0.03338252  1
  Se  Se9  1  0.50055485  0.19305794  0.03338252  1
  Se  Se10  1  0.00055485  0.69305794  0.46661748  1
  Se  Se11  1  0.05323404  0.94676596  0.82360054  1
loop_
_geom_bond_atom_site_label_1
_geom_bond_atom_site_label_2
_geom_bond_distance
_geom_bond_site_symmetry_2
Na0 Se2 3.031264 1_565
Na0 Se7 3.031264 1_555
Na0 Se4 3.045122 1_554
Na0 Se1 3.045122 1_565
Na0 Se8 3.184396 1_555
Na0 Se10 3.184396 1_655
Na1 Se6 3.031264 1_555
Na1 Se11 3.031264 1_655
Na1 Se8 3.045122 1_556
Na1 Se10 3.045122 1_655
Na1 Se4 3.184396 1_555
Na1 Se1 3.184396 1_565
Na2 Se10 3.104030 1_555
Na2 Se5 3.104030 1_555
Na2 Se2 3.163954 1_465
Na2 Se11 3.190461 1_554
Na2 Se3 3.193269 1_554
Na2 Se4 3.193269 1_554
Na2 P1 3.254226 1_555
Na3 Se1 3.104030 1_555
Na3 Se0 3.104030 1_555
Na3 Se11 3.163954 1_645
Na3 Se2 3.190461 1_556
Na3 Se8 3.193269 1_556
Na3 Se9 3.193269 1_556
Na3 P3 3.254226 1_555
Na4 Se2 3.031264 1_455
Na4 Se7 3.031264 1_555
Na4 Se0 3.045122 1_455
Na4 Se3 3.045122 1_554
Na4 Se5 3.184396 1_545
Na4 Se9 3.184396 1_555
Na5 Se8 3.104030 1_555
Na5 Se9 3.104030 1_555
Na5 Se7 3.163954 1_555
Na5 Se6 3.190461 1_555
Na5 Se1 3.193269 1_555
Na5 Se0 3.193269 1_555
Na5 P0 3.254226 1_555
Na6 Se4 3.104030 1_555
Na6 Se3 3.104030 1_555
Na6 Se6 3.163954 1_555
Na6 Se7 3.190461 1_555
Na6 Se5 3.193269 1_555
Na6 Se10 3.193269 1_555
Na6 P2 3.254226 1_555
Na7 Se11 3.031264 1_545
Na7 Se6 3.031264 1_555
Na7 Se5 3.045122 1_545
Na7 Se9 3.045122 1_556
Na7 Se0 3.184396 1_455
Na7 Se3 3.184396 1_555
P0 Se0 2.184519 1_555
P0 Se1 2.184519 1_555
P0 Se2 2.189548 1_555
P1 Se4 2.184519 1_554
P1 Se3 2.184519 1_554
P1 Se7 2.189548 1_555
P2 Se5 2.184519 1_555
P2 Se10 2.184519 1_555
P2 Se11 2.189548 1_555
P3 Se9 2.184519 1_556
P3 Se8 2.184519 1_556
P3 Se6 2.189548 1_555
