# generated using pymatgen
data_Li9Al3P8O29
_symmetry_space_group_name_H-M   'P 1'
_cell_length_a   9.67060336
_cell_length_b   9.67060336
_cell_length_c   13.64591800
_cell_angle_alpha   90.00000000
_cell_angle_beta   90.00000000
_cell_angle_gamma   119.99999565
_symmetry_Int_Tables_number   1
_chemical_formula_structural   Li9Al3P8O29
_chemical_formula_sum   'Li18 Al6 P16 O58'
_cell_volume   1105.19917093
_cell_formula_units_Z   2
loop_
 _symmetry_equiv_pos_site_id
 _symmetry_equiv_pos_as_xyz
  1  'x, y, z'
loop_
 _atom_site_type_symbol
 _atom_site_label
 _atom_site_symmetry_multiplicity
 _atom_site_fract_x
 _atom_site_fract_y
 _atom_site_fract_z
 _atom_site_occupancy
  Li  Li0  1  0.89882600  0.23712100  0.06423100  1
  Li  Li1  1  0.33333300  0.66666700  0.11872000  1
  Li  Li2  1  0.23712100  0.33829400  0.93576900  1
  Li  Li3  1  0.33333300  0.66666700  0.61872000  1
  Li  Li4  1  0.10117400  0.33829400  0.43576900  1
  Li  Li5  1  0.23712100  0.89882600  0.43576900  1
  Li  Li6  1  0.33829400  0.10117400  0.06423100  1
  Li  Li7  1  0.33829400  0.23712100  0.56423100  1
  Li  Li8  1  0.66666700  0.33333300  0.38128000  1
  Li  Li9  1  0.89882600  0.66170600  0.56423100  1
  Li  Li10  1  0.66666700  0.33333300  0.88128000  1
  Li  Li11  1  0.66170600  0.76287900  0.43576900  1
  Li  Li12  1  0.00000000  0.00000000  0.50000000  1
  Li  Li13  1  0.76287900  0.10117400  0.56423100  1
  Li  Li14  1  0.10117400  0.76287900  0.93576900  1
  Li  Li15  1  0.76287900  0.66170600  0.06423100  1
  Li  Li16  1  0.00000000  0.00000000  0.00000000  1
  Li  Li17  1  0.66170600  0.89882600  0.93576900  1
  Al  Al0  1  0.56547900  0.00000000  0.75000000  1
  Al  Al1  1  0.43452100  0.43452100  0.75000000  1
  Al  Al2  1  0.56547900  0.56547900  0.25000000  1
  Al  Al3  1  0.00000000  0.43452100  0.25000000  1
  Al  Al4  1  0.43452100  0.00000000  0.25000000  1
  Al  Al5  1  0.00000000  0.56547900  0.75000000  1
  P  P0  1  0.31847300  0.09210200  0.84273300  1
  P  P1  1  0.90789800  0.22637100  0.84273300  1
  P  P2  1  0.31847300  0.22637100  0.34273300  1
  P  P3  1  0.22637100  0.90789800  0.65726700  1
  P  P4  1  0.90789800  0.68152700  0.34273300  1
  P  P5  1  0.33333300  0.66666700  0.87061700  1
  P  P6  1  0.66666700  0.33333300  0.12938300  1
  P  P7  1  0.68152700  0.90789800  0.15726700  1
  P  P8  1  0.33333300  0.66666700  0.37061700  1
  P  P9  1  0.77362900  0.09210200  0.34273300  1
  P  P10  1  0.68152700  0.77362900  0.65726700  1
  P  P11  1  0.09210200  0.31847300  0.65726700  1
  P  P12  1  0.66666700  0.33333300  0.62938300  1
  P  P13  1  0.22637100  0.31847300  0.15726700  1
  P  P14  1  0.09210200  0.77362900  0.15726700  1
  P  P15  1  0.77362900  0.68152700  0.84273300  1
  O  O0  1  0.74059600  0.66201700  0.34067400  1
  O  O1  1  0.62139500  0.10259000  0.33013700  1
  O  O2  1  0.92142200  0.25940400  0.34067400  1
  O  O3  1  0.33798300  0.07857800  0.34067400  1
  O  O4  1  0.22540700  0.99853300  0.56632200  1
  O  O5  1  0.00146700  0.77459300  0.06632200  1
  O  O6  1  0.32915000  0.81634500  0.33196100  1
  O  O7  1  0.00146700  0.22687400  0.56632200  1
  O  O8  1  0.20785800  0.20785800  0.25000000  1
  O  O9  1  0.66666700  0.33333300  0.51803000  1
  O  O10  1  0.22687400  0.00146700  0.93367800  1
  O  O11  1  0.48719600  0.67085000  0.33196100  1
  O  O12  1  0.00000000  0.79214200  0.25000000  1
  O  O13  1  0.99853300  0.77312600  0.43367800  1
  O  O14  1  0.89741000  0.51880500  0.33013700  1
  O  O15  1  0.10259000  0.62139500  0.16986300  1
  O  O16  1  0.67085000  0.48719600  0.16803900  1
  O  O17  1  0.07857800  0.74059600  0.65932600  1
  O  O18  1  0.51280400  0.18365500  0.16803900  1
  O  O19  1  0.81634500  0.48719600  0.66803900  1
  O  O20  1  0.51880500  0.89741000  0.16986300  1
  O  O21  1  0.48719600  0.81634500  0.83196100  1
  O  O22  1  0.22540700  0.22687400  0.06632200  1
  O  O23  1  0.77312600  0.77459300  0.56632200  1
  O  O24  1  0.74059600  0.07857800  0.84067400  1
  O  O25  1  0.25940400  0.33798300  0.65932600  1
  O  O26  1  0.48119500  0.37860500  0.33013700  1
  O  O27  1  0.37860500  0.48119500  0.16986300  1
  O  O28  1  0.66201700  0.74059600  0.15932600  1
  O  O29  1  0.33333300  0.66666700  0.48197000  1
  O  O30  1  0.77312600  0.99853300  0.06632200  1
  O  O31  1  0.51880500  0.62139500  0.66986300  1
  O  O32  1  0.18365500  0.67085000  0.83196100  1
  O  O33  1  0.51280400  0.32915000  0.66803900  1
  O  O34  1  0.25940400  0.92142200  0.15932600  1
  O  O35  1  0.99853300  0.22540700  0.93367800  1
  O  O36  1  0.77459300  0.00146700  0.43367800  1
  O  O37  1  0.22687400  0.22540700  0.43367800  1
  O  O38  1  0.33333300  0.66666700  0.98197000  1
  O  O39  1  0.92142200  0.66201700  0.84067400  1
  O  O40  1  0.79214200  0.00000000  0.25000000  1
  O  O41  1  0.81634500  0.32915000  0.16803900  1
  O  O42  1  0.66201700  0.92142200  0.65932600  1
  O  O43  1  0.20785800  0.00000000  0.75000000  1
  O  O44  1  0.89741000  0.37860500  0.83013700  1
  O  O45  1  0.77459300  0.77312600  0.93367800  1
  O  O46  1  0.07857800  0.33798300  0.15932600  1
  O  O47  1  0.33798300  0.25940400  0.84067400  1
  O  O48  1  0.62139500  0.51880500  0.83013700  1
  O  O49  1  0.37860500  0.89741000  0.66986300  1
  O  O50  1  0.67085000  0.18365500  0.66803900  1
  O  O51  1  0.48119500  0.10259000  0.83013700  1
  O  O52  1  0.79214200  0.79214200  0.75000000  1
  O  O53  1  0.18365500  0.51280400  0.33196100  1
  O  O54  1  0.32915000  0.51280400  0.83196100  1
  O  O55  1  0.00000000  0.20785800  0.75000000  1
  O  O56  1  0.66666700  0.33333300  0.01803000  1
  O  O57  1  0.10259000  0.48119500  0.66986300  1
loop_
_geom_bond_atom_site_label_1
_geom_bond_atom_site_label_2
_geom_bond_distance
_geom_bond_site_symmetry_2
Li0 O46 1.990351 1_655
Li0 O30 1.999335 1_545
Li0 O41 2.035878 1_555
Li0 O35 2.055625 1_554
Li1 O38 1.866079 1_554
Li1 O15 2.163573 1_555
Li1 O20 2.163576 1_555
Li1 O27 2.163582 1_555
Li2 O47 1.990351 1_555
Li2 O35 1.999336 1_455
Li2 O54 2.035878 1_555
Li2 O22 2.055620 1_556
Li3 O29 1.866079 1_555
Li3 O49 2.163573 1_555
Li3 O57 2.163576 1_555
Li3 O31 2.163582 1_555
Li4 O2 1.990351 1_455
Li4 O37 1.999327 1_555
Li4 O53 2.035878 1_555
Li4 O7 2.055622 1_555
Li5 O3 1.990351 1_565
Li5 O13 1.999335 1_455
Li5 O6 2.035878 1_555
Li5 O4 2.055625 1_555
Li6 O34 1.990351 1_545
Li6 O22 1.999327 1_555
Li6 O18 2.035878 1_555
Li6 O10 2.055622 1_554
Li7 O25 1.990351 1_555
Li7 O4 1.999336 1_545
Li7 O33 2.035878 1_555
Li7 O37 2.055620 1_555
Li8 O9 1.866079 1_555
Li8 O1 2.163573 1_555
Li8 O14 2.163576 1_555
Li8 O26 2.163582 1_555
Li9 O17 1.990351 1_655
Li9 O23 1.999327 1_555
Li9 O19 2.035878 1_555
Li9 O13 2.055622 1_555
Li10 O56 1.866079 1_556
Li10 O44 2.163573 1_555
Li10 O51 2.163576 1_555
Li10 O48 2.163582 1_555
Li11 O0 1.990351 1_555
Li11 O36 1.999336 1_565
Li11 O11 2.035878 1_555
Li11 O23 2.055620 1_555
Li12 O4 2.366816 1_545
Li12 O36 2.366816 1_455
Li12 O7 2.366816 1_555
Li12 O13 2.366816 1_445
Li12 O37 2.366816 1_555
Li12 O23 2.366816 1_445
Li13 O42 1.990351 1_545
Li13 O7 1.999335 1_655
Li13 O50 2.035878 1_555
Li13 O36 2.055625 1_555
Li14 O39 1.990351 1_455
Li14 O10 1.999335 1_565
Li14 O32 2.035878 1_555
Li14 O5 2.055625 1_556
Li15 O28 1.990351 1_555
Li15 O5 1.999336 1_655
Li15 O16 2.035878 1_555
Li15 O45 2.055620 1_554
Li16 O5 2.366816 1_545
Li16 O35 2.366816 1_454
Li16 O30 2.366816 1_445
Li16 O10 2.366816 1_554
Li16 O22 2.366816 1_555
Li16 O45 2.366816 1_444
Li17 O24 1.990351 1_565
Li17 O45 1.999327 1_555
Li17 O21 2.035878 1_555
Li17 O30 2.055622 1_556
Al0 O50 1.906259 1_555
Al0 O21 1.906260 1_545
Al0 O51 1.911310 1_555
Al0 O49 1.911310 1_545
Al0 O42 1.920788 1_545
Al0 O24 1.920795 1_555
Al1 O54 1.906253 1_555
Al1 O33 1.906253 1_555
Al1 O48 1.911310 1_555
Al1 O31 1.911310 1_555
Al1 O47 1.920794 1_555
Al1 O25 1.920794 1_555
Al2 O16 1.906253 1_555
Al2 O11 1.906253 1_555
Al2 O26 1.911310 1_555
Al2 O27 1.911310 1_555
Al2 O0 1.920794 1_555
Al2 O28 1.920794 1_555
Al3 O41 1.906259 1_455
Al3 O53 1.906260 1_555
Al3 O14 1.911310 1_455
Al3 O15 1.911310 1_555
Al3 O46 1.920788 1_555
Al3 O2 1.920795 1_455
Al4 O6 1.906259 1_545
Al4 O18 1.906260 1_555
Al4 O20 1.911310 1_545
Al4 O1 1.911310 1_555
Al4 O3 1.920788 1_555
Al4 O34 1.920795 1_545
Al5 O32 1.906259 1_555
Al5 O19 1.906260 1_455
Al5 O57 1.911310 1_555
Al5 O44 1.911310 1_455
Al5 O39 1.920788 1_455
Al5 O17 1.920795 1_555
O0 P4 1.532569 1_555
O1 P9 1.535092 1_555
O2 P9 1.532573 1_555
O3 P2 1.532578 1_555
O4 P3 1.522055 1_555
O5 P14 1.522055 1_555
O6 P8 1.560010 1_555
O7 P11 1.522055 1_555
O8 P13 1.608146 1_555
O8 P2 1.608146 1_555
O9 P12 1.519514 1_555
O10 P0 1.522055 1_555
O11 P8 1.560028 1_555
O12 P14 1.608146 1_555
O12 P4 1.608146 1_455
O13 P4 1.522055 1_555
O14 P4 1.535092 1_555
O15 P14 1.535092 1_555
O16 P6 1.560028 1_555
O17 P3 1.532573 1_555
O18 P6 1.560019 1_555
O19 P12 1.560019 1_555
O20 P7 1.535092 1_555
O21 P5 1.560019 1_555
O22 P13 1.522055 1_555
O23 P10 1.522055 1_555
O24 P1 1.532573 1_555
O25 P11 1.532569 1_555
O26 P2 1.535092 1_555
O27 P13 1.535092 1_555
O28 P7 1.532569 1_555
O29 P8 1.519514 1_555
O30 P7 1.522055 1_555
O31 P10 1.535092 1_555
O32 P5 1.560010 1_555
O33 P12 1.560028 1_555
O34 P14 1.532573 1_555
O35 P1 1.522055 1_555
O36 P9 1.522055 1_555
O37 P2 1.522055 1_555
O38 P5 1.519514 1_555
O39 P15 1.532578 1_555
O40 P9 1.608146 1_555
O40 P7 1.608146 1_545
O41 P6 1.560010 1_555
O42 P10 1.532578 1_555
O43 P3 1.608146 1_545
O43 P0 1.608146 1_555
O44 P1 1.535092 1_555
O45 P15 1.522055 1_555
O46 P13 1.532578 1_555
O47 P0 1.532569 1_555
O48 P15 1.535092 1_555
O49 P3 1.535092 1_555
O50 P12 1.560010 1_555
O51 P0 1.535092 1_555
O52 P15 1.608146 1_555
O52 P10 1.608146 1_555
O53 P8 1.560019 1_555
O54 P5 1.560028 1_555
O55 P1 1.608146 1_455
O55 P11 1.608146 1_555
O56 P6 1.519514 1_555
O57 P11 1.535092 1_555
