# generated using pymatgen
data_SrSO4
_symmetry_space_group_name_H-M   'P 1'
_cell_length_a   5.34282259
_cell_length_b   6.87054329
_cell_length_c   8.35577502
_cell_angle_alpha   90.00000000
_cell_angle_beta   90.00000000
_cell_angle_gamma   90.00000000
_symmetry_Int_Tables_number   1
_chemical_formula_structural   SrSO4
_chemical_formula_sum   'Sr4 S4 O16'
_cell_volume   306.72457400
_cell_formula_units_Z   4
loop_
 _symmetry_equiv_pos_site_id
 _symmetry_equiv_pos_as_xyz
  1  'x, y, z'
loop_
 _atom_site_type_symbol
 _atom_site_label
 _atom_site_symmetry_multiplicity
 _atom_site_fract_x
 _atom_site_fract_y
 _atom_site_fract_z
 _atom_site_occupancy
  Sr  Sr0  1  0.25000000  0.34294625  0.68360804  1
  Sr  Sr1  1  0.75000000  0.65705375  0.31639196  1
  Sr  Sr2  1  0.75000000  0.84294625  0.81639196  1
  Sr  Sr3  1  0.25000000  0.15705375  0.18360804  1
  S  S0  1  0.75000000  0.31575774  0.93774064  1
  S  S1  1  0.25000000  0.68424226  0.06225936  1
  S  S2  1  0.25000000  0.81575774  0.56225936  1
  S  S3  1  0.75000000  0.18424226  0.43774064  1
  O  O0  1  0.47487463  0.81025275  0.07798628  1
  O  O1  1  0.97487463  0.18974725  0.92201372  1
  O  O2  1  0.52512537  0.31025275  0.42201372  1
  O  O3  1  0.02512537  0.68974725  0.57798628  1
  O  O4  1  0.52512537  0.18974725  0.92201372  1
  O  O5  1  0.02512537  0.81025275  0.07798628  1
  O  O6  1  0.47487463  0.68974725  0.57798628  1
  O  O7  1  0.97487463  0.31025275  0.42201372  1
  O  O8  1  0.75000000  0.09189915  0.59498308  1
  O  O9  1  0.25000000  0.90810085  0.40501692  1
  O  O10  1  0.25000000  0.59189915  0.90501692  1
  O  O11  1  0.75000000  0.40810085  0.09498308  1
  O  O12  1  0.75000000  0.04149239  0.30637766  1
  O  O13  1  0.25000000  0.95850761  0.69362234  1
  O  O14  1  0.25000000  0.54149239  0.19362234  1
  O  O15  1  0.75000000  0.45850761  0.80637766  1
loop_
_geom_bond_atom_site_label_1
_geom_bond_atom_site_label_2
_geom_bond_distance
_geom_bond_site_symmetry_2
O0 S1 1.486717 1_555
O0 Sr2 2.643675 1_554
O0 Sr1 2.690157 1_555
O0 Sr3 2.810646 1_565
O1 S0 1.486717 1_555
O1 Sr3 2.643675 1_656
O1 Sr0 2.690157 1_655
O1 Sr2 2.810646 1_545
O2 S3 1.486717 1_555
O2 Sr0 2.643675 1_555
O2 Sr3 2.690157 1_555
O2 Sr1 2.810646 1_555
O3 S2 1.486717 1_555
O3 Sr1 2.643675 1_455
O3 Sr2 2.690157 1_455
O3 Sr0 2.810646 1_555
O4 S0 1.486717 1_555
O4 Sr3 2.643675 1_556
O4 Sr0 2.690157 1_555
O4 Sr2 2.810646 1_545
O5 S1 1.486717 1_555
O5 Sr2 2.643675 1_454
O5 Sr1 2.690157 1_455
O5 Sr3 2.810646 1_565
O6 S2 1.486717 1_555
O6 Sr1 2.643675 1_555
O6 Sr2 2.690157 1_555
O6 Sr0 2.810646 1_555
O7 S3 1.486717 1_555
O7 Sr0 2.643675 1_655
O7 Sr3 2.690157 1_655
O7 Sr1 2.810646 1_555
O8 S3 1.459044 1_555
O8 Sr2 2.519577 1_545
O9 S2 1.459044 1_555
O9 Sr3 2.519577 1_565
O10 S1 1.459044 1_556
O10 Sr0 2.519577 1_555
O11 S0 1.459044 1_554
O11 Sr1 2.519577 1_555
O12 S3 1.471978 1_555
O12 Sr1 2.642627 1_545
O12 Sr3 2.969708 1_555
O12 Sr3 2.969708 1_655
O13 S2 1.471978 1_555
O13 Sr0 2.642627 1_565
O13 Sr2 2.969708 1_555
O13 Sr2 2.969708 1_455
O14 S1 1.471978 1_555
O14 Sr3 2.642627 1_555
O14 Sr1 2.969708 1_555
O14 Sr1 2.969708 1_455
O15 S0 1.471978 1_555
O15 Sr2 2.642627 1_555
O15 Sr0 2.969708 1_655
O15 Sr0 2.969708 1_555
