# generated using pymatgen
data_ZnS
_symmetry_space_group_name_H-M   'P 1'
_cell_length_a   3.80840464
_cell_length_b   3.80840430
_cell_length_c   74.69480796
_cell_angle_alpha   90.00000000
_cell_angle_beta   90.00000000
_cell_angle_gamma   120.00002065
_symmetry_Int_Tables_number   1
_chemical_formula_structural   ZnS
_chemical_formula_sum   'Zn24 S24'
_cell_volume   938.22518958
_cell_formula_units_Z   24
loop_
 _symmetry_equiv_pos_site_id
 _symmetry_equiv_pos_as_xyz
  1  'x, y, z'
loop_
 _atom_site_type_symbol
 _atom_site_label
 _atom_site_symmetry_multiplicity
 _atom_site_fract_x
 _atom_site_fract_y
 _atom_site_fract_z
 _atom_site_occupancy
  Zn  Zn0  1  0.00000000  0.00000000  0.33344154  1
  Zn  Zn1  1  0.33333300  0.66666700  0.66668421  1
  Zn  Zn2  1  0.33333300  0.66666700  0.29168250  1
  Zn  Zn3  1  0.66666700  0.33333300  0.08321992  1
  Zn  Zn4  1  0.00000000  0.00000000  0.58342078  1
  Zn  Zn5  1  0.00000000  0.00000000  0.70841028  1
  Zn  Zn6  1  0.66666700  0.33333300  0.50003933  1
  Zn  Zn7  1  0.66666700  0.33333300  0.91664849  1
  Zn  Zn8  1  0.66666700  0.33333300  0.20825727  1
  Zn  Zn9  1  0.66666700  0.33333300  0.62501988  1
  Zn  Zn10  1  0.00000000  0.00000000  0.83340830  1
  Zn  Zn11  1  0.33333300  0.66666700  0.54172325  1
  Zn  Zn12  1  0.33333300  0.66666700  0.04164650  1
  Zn  Zn13  1  0.00000000  0.00000000  0.12490143  1
  Zn  Zn14  1  0.33333300  0.66666700  0.16660809  1
  Zn  Zn15  1  0.33333300  0.66666700  0.41672796  1
  Zn  Zn16  1  0.00000000  0.00000000  0.45842929  1
  Zn  Zn17  1  0.33333300  0.66666700  0.75005717  1
  Zn  Zn18  1  0.33333300  0.66666700  0.95825493  1
  Zn  Zn19  1  0.00000000  0.00000000  0.24992022  1
  Zn  Zn20  1  0.66666700  0.33333300  0.79171098  1
  Zn  Zn21  1  0.66666700  0.33333300  0.37504508  1
  Zn  Zn22  1  0.33333300  0.66666700  0.87498624  1
  Zn  Zn23  1  0.00000000  0.00000000  0.99992381  1
  S  S0  1  0.66666700  0.33333300  0.94788445  1
  S  S1  1  0.33333300  0.66666700  0.78128252  1
  S  S2  1  0.33333300  0.66666700  0.19784655  1
  S  S3  1  0.00000000  0.00000000  0.36465271  1
  S  S4  1  0.00000000  0.00000000  0.48964827  1
  S  S5  1  0.66666700  0.33333300  0.53127571  1
  S  S6  1  0.66666700  0.33333300  0.65625531  1
  S  S7  1  0.00000000  0.00000000  0.73967272  1
  S  S8  1  0.33333300  0.66666700  0.44797638  1
  S  S9  1  0.66666700  0.33333300  0.23949530  1
  S  S10  1  0.33333300  0.66666700  0.90619158  1
  S  S11  1  0.33333300  0.66666700  0.98944327  1
  S  S12  1  0.66666700  0.33333300  0.11445173  1
  S  S13  1  0.00000000  0.00000000  0.61463808  1
  S  S14  1  0.00000000  0.00000000  0.15616256  1
  S  S15  1  0.00000000  0.00000000  0.28117730  1
  S  S16  1  0.33333300  0.66666700  0.69791967  1
  S  S17  1  0.33333300  0.66666700  0.07283506  1
  S  S18  1  0.33333300  0.66666700  0.57297002  1
  S  S19  1  0.00000000  0.00000000  0.86461962  1
  S  S20  1  0.66666700  0.33333300  0.82296243  1
  S  S21  1  0.66666700  0.33333300  0.40628309  1
  S  S22  1  0.33333300  0.66666700  0.32298435  1
  S  S23  1  0.00000000  0.00000000  0.03120587  1
loop_
_geom_bond_atom_site_label_1
_geom_bond_atom_site_label_2
_geom_bond_distance
_geom_bond_site_symmetry_2
S0 Zn18 2.331239 1_545
S0 Zn18 2.331239 1_655
S0 Zn18 2.331246 1_555
S0 Zn7 2.333164 1_555
S1 Zn17 2.332372 1_555
S1 Zn20 2.332681 1_565
S1 Zn20 2.332681 1_455
S1 Zn20 2.332688 1_555
S2 Zn8 2.332239 1_565
S2 Zn8 2.332239 1_455
S2 Zn8 2.332246 1_555
S2 Zn14 2.333351 1_555
S3 Zn0 2.331312 1_555
S3 Zn21 2.331783 1_455
S3 Zn21 2.331786 1_445
S3 Zn21 2.331786 1_555
S4 Zn6 2.331751 1_455
S4 Zn6 2.331753 1_445
S4 Zn6 2.331753 1_555
S4 Zn16 2.331896 1_555
S5 Zn11 2.333158 1_545
S5 Zn11 2.333158 1_655
S5 Zn11 2.333165 1_555
S5 Zn6 2.333195 1_555
S6 Zn1 2.332692 1_545
S6 Zn1 2.332692 1_655
S6 Zn1 2.332699 1_555
S6 Zn9 2.333124 1_555
S7 Zn17 2.331586 1_545
S7 Zn17 2.331589 1_555
S7 Zn17 2.331589 1_445
S7 Zn5 2.335142 1_555
S8 Zn16 2.333293 1_565
S8 Zn16 2.333295 1_555
S8 Zn16 2.333295 1_665
S8 Zn15 2.334095 1_555
S9 Zn19 2.332594 1_655
S9 Zn19 2.332596 1_665
S9 Zn19 2.332596 1_555
S9 Zn8 2.333319 1_555
S10 Zn22 2.330877 1_555
S10 Zn7 2.333392 1_565
S10 Zn7 2.333392 1_455
S10 Zn7 2.333399 1_555
S11 Zn18 2.329607 1_555
S11 Zn23 2.333984 1_565
S11 Zn23 2.333986 1_555
S11 Zn23 2.333986 1_665
S12 Zn3 2.332854 1_555
S12 Zn13 2.333212 1_655
S12 Zn13 2.333215 1_665
S12 Zn13 2.333215 1_555
S13 Zn9 2.331521 1_455
S13 Zn9 2.331523 1_445
S13 Zn9 2.331523 1_555
S13 Zn4 2.331770 1_555
S14 Zn14 2.333108 1_545
S14 Zn14 2.333110 1_555
S14 Zn14 2.333111 1_445
S14 Zn13 2.335044 1_555
S15 Zn2 2.334602 1_545
S15 Zn2 2.334605 1_555
S15 Zn2 2.334605 1_445
S15 Zn19 2.334742 1_555
S16 Zn1 2.333127 1_555
S16 Zn5 2.334236 1_565
S16 Zn5 2.334239 1_555
S16 Zn5 2.334239 1_665
S17 Zn12 2.329623 1_555
S17 Zn3 2.331596 1_565
S17 Zn3 2.331596 1_455
S17 Zn3 2.331603 1_555
S18 Zn4 2.333239 1_565
S18 Zn4 2.333241 1_555
S18 Zn4 2.333241 1_665
S18 Zn11 2.333971 1_555
S19 Zn22 2.331144 1_545
S19 Zn22 2.331146 1_555
S19 Zn22 2.331146 1_445
S19 Zn10 2.331324 1_555
S20 Zn10 2.333117 1_655
S20 Zn10 2.333119 1_665
S20 Zn10 2.333119 1_555
S20 Zn20 2.334321 1_555
S21 Zn15 2.333091 1_545
S21 Zn15 2.333091 1_655
S21 Zn15 2.333098 1_555
S21 Zn21 2.333317 1_555
S22 Zn0 2.333400 1_565
S22 Zn0 2.333402 1_555
S22 Zn0 2.333402 1_665
S22 Zn2 2.338086 1_555
S23 Zn12 2.332986 1_545
S23 Zn12 2.332988 1_555
S23 Zn12 2.332988 1_445
S23 Zn23 2.336607 1_554
