# generated using pymatgen
data_KLaSi(CN2)4
_symmetry_space_group_name_H-M   'P 1'
_cell_length_a   6.98008600
_cell_length_b   7.67515600
_cell_length_c   9.52586600
_cell_angle_alpha   90.00000000
_cell_angle_beta   90.00000000
_cell_angle_gamma   90.00000000
_symmetry_Int_Tables_number   1
_chemical_formula_structural   KLaSi(CN2)4
_chemical_formula_sum   'K2 La2 Si2 C8 N16'
_cell_volume   510.33159062
_cell_formula_units_Z   2
loop_
 _symmetry_equiv_pos_site_id
 _symmetry_equiv_pos_as_xyz
  1  'x, y, z'
loop_
 _atom_site_type_symbol
 _atom_site_label
 _atom_site_symmetry_multiplicity
 _atom_site_fract_x
 _atom_site_fract_y
 _atom_site_fract_z
 _atom_site_occupancy
  K  K0  1  0.92165500  0.00000000  0.00000000  1
  K  K1  1  0.07834500  0.50000000  0.50000000  1
  La  La0  1  0.25905800  0.00000000  0.50000000  1
  La  La1  1  0.74094200  0.50000000  0.00000000  1
  Si  Si0  1  0.75178000  0.00000000  0.50000000  1
  Si  Si1  1  0.24822000  0.50000000  0.00000000  1
  C  C0  1  0.87261500  0.78557000  0.70036000  1
  C  C1  1  0.36415100  0.67249300  0.77102900  1
  C  C2  1  0.36415100  0.32750700  0.22897100  1
  C  C3  1  0.12738500  0.71443000  0.20036000  1
  C  C4  1  0.12738500  0.28557000  0.79964000  1
  C  C5  1  0.87261500  0.21443000  0.29964000  1
  C  C6  1  0.63584900  0.82750700  0.27102900  1
  C  C7  1  0.63584900  0.17249300  0.72897100  1
  N  N0  1  0.91167600  0.13517000  0.41332500  1
  N  N1  1  0.67238500  0.23968800  0.83917200  1
  N  N2  1  0.67238500  0.76031200  0.16082800  1
  N  N3  1  0.15591900  0.79110900  0.30762300  1
  N  N4  1  0.32761500  0.26031200  0.33917200  1
  N  N5  1  0.32761500  0.73968800  0.66082800  1
  N  N6  1  0.08832400  0.63517000  0.08667500  1
  N  N7  1  0.15591900  0.20889100  0.69237700  1
  N  N8  1  0.59324300  0.09997000  0.61296000  1
  N  N9  1  0.84408100  0.29110900  0.19237700  1
  N  N10  1  0.84408100  0.70889100  0.80762300  1
  N  N11  1  0.08832400  0.36483000  0.91332500  1
  N  N12  1  0.40675700  0.40003000  0.11296000  1
  N  N13  1  0.59324300  0.90003000  0.38704000  1
  N  N14  1  0.40675700  0.59997000  0.88704000  1
  N  N15  1  0.91167600  0.86483000  0.58667500  1
loop_
_geom_bond_atom_site_label_1
_geom_bond_atom_site_label_2
_geom_bond_distance
_geom_bond_site_symmetry_2
K0 N9 2.939998 1_555
K0 N10 2.939998 1_544
K0 N2 2.959515 1_545
K0 N1 2.959515 1_554
K0 N6 3.142584 1_645
K0 N11 3.142584 1_654
K1 N7 2.939998 1_555
K1 N3 2.939998 1_555
K1 N5 2.959515 1_555
K1 N4 2.959515 1_555
K1 N0 3.142584 1_455
K1 N15 3.142584 1_455
La0 N7 2.539100 1_555
La0 N3 2.539100 1_545
La0 N5 2.562780 1_545
La0 N4 2.562780 1_555
La0 N13 2.681008 1_545
La0 N8 2.681008 1_555
La0 N15 2.763594 1_445
La0 N0 2.763594 1_455
La1 N10 2.539100 1_554
La1 N9 2.539100 1_555
La1 N2 2.562780 1_555
La1 N1 2.562780 1_554
La1 N14 2.681008 1_554
La1 N12 2.681008 1_555
La1 N6 2.763594 1_655
La1 N11 2.763594 1_654
C0 N10 1.195846 1_555
C0 N15 1.271685 1_555
C0 K1 3.241737 1_655
C0 K0 3.312549 1_566
C1 N5 1.197085 1_555
C1 N14 1.272608 1_555
C2 N4 1.197085 1_555
C2 N12 1.272608 1_555
C3 N3 1.195846 1_555
C3 N6 1.271685 1_555
C3 K0 3.241737 1_465
C3 K1 3.312549 1_555
C4 N7 1.195846 1_555
C4 N11 1.271685 1_555
C4 K0 3.241737 1_456
C4 K1 3.312549 1_555
C5 N9 1.195846 1_555
C5 N0 1.271685 1_555
C5 K1 3.241737 1_655
C5 K0 3.312549 1_555
C6 N2 1.197085 1_555
C6 N13 1.272608 1_555
C7 N1 1.197085 1_555
C7 N8 1.272608 1_555
N0 Si0 1.733107 1_555
N6 Si1 1.733107 1_555
N8 Si0 1.723705 1_555
N11 Si1 1.733107 1_556
N12 Si1 1.723705 1_555
N13 Si0 1.723705 1_565
N14 Si1 1.723705 1_556
N15 Si0 1.733107 1_565
