# generated using pymatgen
data_HoMoO4F
_symmetry_space_group_name_H-M   'P 1'
_cell_length_a   12.40467100
_cell_length_b   5.25188500
_cell_length_c   6.70742217
_cell_angle_alpha   66.76494613
_cell_angle_beta   90.00000000
_cell_angle_gamma   90.00000000
_symmetry_Int_Tables_number   1
_chemical_formula_structural   HoMoO4F
_chemical_formula_sum   'Ho4 Mo4 O16 F4'
_cell_volume   401.53331772
_cell_formula_units_Z   4
loop_
 _symmetry_equiv_pos_site_id
 _symmetry_equiv_pos_as_xyz
  1  'x, y, z'
loop_
 _atom_site_type_symbol
 _atom_site_label
 _atom_site_symmetry_multiplicity
 _atom_site_fract_x
 _atom_site_fract_y
 _atom_site_fract_z
 _atom_site_occupancy
  Ho  Ho0  1  0.05100700  0.36075700  0.80028600  1
  Ho  Ho1  1  0.44899300  0.36075700  0.30028600  1
  Ho  Ho2  1  0.94899300  0.63924300  0.19971400  1
  Ho  Ho3  1  0.55100700  0.63924300  0.69971400  1
  Mo  Mo0  1  0.85661400  0.92079600  0.63047700  1
  Mo  Mo1  1  0.64338600  0.92079600  0.13047700  1
  Mo  Mo2  1  0.35661400  0.07920400  0.86952300  1
  Mo  Mo3  1  0.14338600  0.07920400  0.36952300  1
  O  O0  1  0.06867100  0.00288700  0.16181500  1
  O  O1  1  0.27808300  0.19275200  0.29529500  1
  O  O2  1  0.72191700  0.80724800  0.70470500  1
  O  O3  1  0.22191700  0.19275200  0.79529500  1
  O  O4  1  0.06512300  0.30999000  0.46206200  1
  O  O5  1  0.93132900  0.99711300  0.83818500  1
  O  O6  1  0.34735100  0.76076600  0.09385400  1
  O  O7  1  0.56867100  0.99711300  0.33818500  1
  O  O8  1  0.77808300  0.80724800  0.20470500  1
  O  O9  1  0.84735100  0.23923400  0.40614600  1
  O  O10  1  0.56512300  0.69001000  0.03793800  1
  O  O11  1  0.43132900  0.00288700  0.66181500  1
  O  O12  1  0.93487700  0.69001000  0.53793800  1
  O  O13  1  0.43487700  0.30999000  0.96206200  1
  O  O14  1  0.15264900  0.76076600  0.59385400  1
  O  O15  1  0.65264900  0.23923400  0.90614600  1
  F  F0  1  0.40238300  0.54374400  0.53628300  1
  F  F1  1  0.59761700  0.45625600  0.46371700  1
  F  F2  1  0.90238300  0.45625600  0.96371700  1
  F  F3  1  0.09761700  0.54374400  0.03628300  1
loop_
_geom_bond_atom_site_label_1
_geom_bond_atom_site_label_2
_geom_bond_distance
_geom_bond_site_symmetry_2
Ho0 O3 2.301674 1_555
Ho0 O5 2.352213 1_445
Ho0 O14 2.371745 1_555
Ho0 O4 2.392820 1_555
Ho0 O12 2.400203 1_455
Ho0 O0 2.421728 1_556
Ho1 O1 2.301674 1_555
Ho1 O7 2.352213 1_545
Ho1 O6 2.371745 1_555
Ho1 O13 2.392820 1_554
Ho1 O10 2.400203 1_555
Ho1 O11 2.421728 1_555
Ho2 O8 2.301674 1_555
Ho2 O0 2.352213 1_665
Ho2 O9 2.371745 1_555
Ho2 O12 2.392820 1_555
Ho2 O4 2.400203 1_655
Ho2 O5 2.421728 1_554
Ho3 O2 2.301674 1_555
Ho3 O11 2.352213 1_565
Ho3 O15 2.371745 1_555
Ho3 O10 2.392820 1_556
Ho3 O13 2.400203 1_555
Ho3 O7 2.421728 1_555
Mo0 O9 1.757472 1_565
Mo0 O2 1.777936 1_555
Mo0 O12 1.841319 1_555
Mo0 O5 1.844229 1_555
Mo1 O15 1.757472 1_564
Mo1 O8 1.777936 1_555
Mo1 O10 1.841319 1_555
Mo1 O7 1.844229 1_555
Mo2 O6 1.757472 1_546
Mo2 O3 1.777936 1_555
Mo2 O13 1.841319 1_555
Mo2 O11 1.844229 1_555
Mo3 O14 1.757472 1_545
Mo3 O1 1.777936 1_555
Mo3 O4 1.841319 1_555
Mo3 O0 1.844229 1_555
F0 Ho1 2.227961 1_555
F0 Ho3 2.299126 1_555
F1 Ho3 2.227961 1_555
F1 Ho1 2.299126 1_555
F2 Ho2 2.227961 1_556
F2 Ho0 2.299126 1_655
F3 Ho0 2.227961 1_554
F3 Ho2 2.299126 1_455
