# generated using pymatgen
data_GaI2
_symmetry_space_group_name_H-M   'P 1'
_cell_length_a   15.20396268
_cell_length_b   15.20396166
_cell_length_c   15.20396148
_cell_angle_alpha   117.28012628
_cell_angle_beta   117.28011831
_cell_angle_gamma   117.28011874
_symmetry_Int_Tables_number   1
_chemical_formula_structural   GaI2
_chemical_formula_sum   'Ga12 I24'
_cell_volume   1479.44133193
_cell_formula_units_Z   12
loop_
 _symmetry_equiv_pos_site_id
 _symmetry_equiv_pos_as_xyz
  1  'x, y, z'
loop_
 _atom_site_type_symbol
 _atom_site_label
 _atom_site_symmetry_multiplicity
 _atom_site_fract_x
 _atom_site_fract_y
 _atom_site_fract_z
 _atom_site_occupancy
  Ga  Ga0  1  0.25076419  0.94114958  0.10227347  1
  Ga  Ga1  1  0.29582757  0.10480316  0.91434400  1
  Ga  Ga2  1  0.79582757  0.41434400  0.60480316  1
  Ga  Ga3  1  0.10480316  0.91434400  0.29582757  1
  Ga  Ga4  1  0.44115058  0.75076419  0.60227347  1
  Ga  Ga5  1  0.75076419  0.60227347  0.44115058  1
  Ga  Ga6  1  0.60227347  0.44115058  0.75076419  1
  Ga  Ga7  1  0.41434400  0.60480316  0.79582757  1
  Ga  Ga8  1  0.94114958  0.10227347  0.25076419  1
  Ga  Ga9  1  0.60480316  0.79582757  0.41434400  1
  Ga  Ga10  1  0.10227347  0.25076419  0.94114958  1
  Ga  Ga11  1  0.91434400  0.29582757  0.10480316  1
  I  I0  1  0.14717659  0.55806567  0.21855888  1
  I  I1  1  0.04250490  0.45208549  0.38683153  1
  I  I2  1  0.59710143  0.40637225  0.50033104  1
  I  I3  1  0.21855888  0.14717659  0.55806567  1
  I  I4  1  0.34301244  0.59947211  0.09232470  1
  I  I5  1  0.00033104  0.90637225  0.09710143  1
  I  I6  1  0.38683153  0.04250490  0.45208549  1
  I  I7  1  0.95208549  0.54250490  0.88683153  1
  I  I8  1  0.64717659  0.71855888  0.05806567  1
  I  I9  1  0.50033104  0.59710143  0.40637225  1
  I  I10  1  0.09232470  0.34301244  0.59947211  1
  I  I11  1  0.84301244  0.59232470  0.09947211  1
  I  I12  1  0.55806567  0.21855888  0.14717659  1
  I  I13  1  0.45208549  0.38683153  0.04250490  1
  I  I14  1  0.90637225  0.09710143  0.00033104  1
  I  I15  1  0.40637225  0.50033104  0.59710143  1
  I  I16  1  0.09947211  0.84301244  0.59232470  1
  I  I17  1  0.59947211  0.09232470  0.34301244  1
  I  I18  1  0.09710143  0.00033104  0.90637225  1
  I  I19  1  0.05806567  0.64717659  0.71855888  1
  I  I20  1  0.54250490  0.88683153  0.95208549  1
  I  I21  1  0.59232470  0.09947211  0.84301244  1
  I  I22  1  0.88683153  0.95208549  0.54250490  1
  I  I23  1  0.71855888  0.05806567  0.64717659  1
loop_
_geom_bond_atom_site_label_1
_geom_bond_atom_site_label_2
_geom_bond_distance
_geom_bond_site_symmetry_2
Ga0 I17 3.180784 1_565
Ga0 I19 3.319807 1_554
Ga0 I7 3.319891 1_454
Ga1 I12 2.558826 1_556
Ga1 I16 2.563353 1_545
Ga1 I13 2.566418 1_556
Ga1 I18 2.599071 1_555
Ga2 I19 2.558826 1_655
Ga2 I17 2.563353 1_555
Ga2 I7 2.566418 1_555
Ga2 I2 2.599071 1_555
Ga3 I3 2.558826 1_565
Ga3 I11 2.563353 1_455
Ga3 I6 2.566418 1_565
Ga3 I5 2.599071 1_555
Ga4 I21 3.180792 1_565
Ga4 I0 3.319809 1_555
Ga4 I1 3.319903 1_555
Ga5 I16 3.180793 1_655
Ga5 I12 3.319809 1_555
Ga5 I13 3.319902 1_555
Ga6 I11 3.180792 1_556
Ga6 I3 3.319810 1_555
Ga6 I6 3.319902 1_555
Ga7 I8 2.558826 1_556
Ga7 I10 2.563353 1_555
Ga7 I20 2.566418 1_555
Ga7 I15 2.599070 1_555
Ga8 I10 3.180783 1_655
Ga8 I8 3.319807 1_545
Ga8 I20 3.319892 1_544
Ga9 I23 2.558826 1_565
Ga9 I4 2.563353 1_555
Ga9 I22 2.566418 1_555
Ga9 I9 2.599071 1_555
Ga10 I4 3.180784 1_556
Ga10 I23 3.319808 1_455
Ga10 I22 3.319891 1_445
Ga11 I0 2.558826 1_655
Ga11 I21 2.563353 1_554
Ga11 I1 2.566418 1_655
Ga11 I14 2.599070 1_555
