# generated using pymatgen
data_Na8Si6SnO18
_symmetry_space_group_name_H-M   'P 1'
_cell_length_a   7.44307872
_cell_length_b   7.44307872
_cell_length_c   7.44307891
_cell_angle_alpha   87.77516032
_cell_angle_beta   87.77516032
_cell_angle_gamma   87.77516621
_symmetry_Int_Tables_number   1
_chemical_formula_structural   Na8Si6SnO18
_chemical_formula_sum   'Na8 Si6 Sn1 O18'
_cell_volume   411.43324087
_cell_formula_units_Z   1
loop_
 _symmetry_equiv_pos_site_id
 _symmetry_equiv_pos_as_xyz
  1  'x, y, z'
loop_
 _atom_site_type_symbol
 _atom_site_label
 _atom_site_symmetry_multiplicity
 _atom_site_fract_x
 _atom_site_fract_y
 _atom_site_fract_z
 _atom_site_occupancy
  Na  Na0  1  0.00000000  0.50000000  0.50000000  1
  Na  Na1  1  0.75509000  0.75509000  0.75509000  1
  Na  Na2  1  0.24491000  0.24491000  0.24491000  1
  Na  Na3  1  0.50000000  0.50000000  0.00000000  1
  Na  Na4  1  0.00000000  0.00000000  0.50000000  1
  Na  Na5  1  0.00000000  0.50000000  0.00000000  1
  Na  Na6  1  0.50000000  0.00000000  0.00000000  1
  Na  Na7  1  0.50000000  0.00000000  0.50000000  1
  Si  Si0  1  0.27890100  0.73489100  0.27890100  1
  Si  Si1  1  0.73489100  0.27890100  0.27890100  1
  Si  Si2  1  0.26510900  0.72109900  0.72109900  1
  Si  Si3  1  0.72109900  0.26510900  0.72109900  1
  Si  Si4  1  0.72109900  0.72109900  0.26510900  1
  Si  Si5  1  0.27890100  0.27890100  0.73489100  1
  Sn  Sn0  1  0.00000000  0.00000000  0.00000000  1
  O  O0  1  0.18924300  0.18924300  0.92022500  1
  O  O1  1  0.50000000  0.75762700  0.24237300  1
  O  O2  1  0.21174600  0.21174600  0.54947400  1
  O  O3  1  0.50000000  0.24237300  0.75762700  1
  O  O4  1  0.78825400  0.45052600  0.78825400  1
  O  O5  1  0.75762700  0.50000000  0.24237300  1
  O  O6  1  0.24237300  0.75762700  0.50000000  1
  O  O7  1  0.92022500  0.18924300  0.18924300  1
  O  O8  1  0.81075700  0.81075700  0.07977500  1
  O  O9  1  0.07977500  0.81075700  0.81075700  1
  O  O10  1  0.45052600  0.78825500  0.78825400  1
  O  O11  1  0.81075700  0.07977500  0.81075700  1
  O  O12  1  0.24237300  0.50000000  0.75762700  1
  O  O13  1  0.78825500  0.78825500  0.45052600  1
  O  O14  1  0.54947400  0.21174600  0.21174600  1
  O  O15  1  0.18924300  0.92022500  0.18924300  1
  O  O16  1  0.75762700  0.24237300  0.50000000  1
  O  O17  1  0.21174600  0.54947400  0.21174500  1
loop_
_geom_bond_atom_site_label_1
_geom_bond_atom_site_label_2
_geom_bond_distance
_geom_bond_site_symmetry_2
Na0 O4 2.635118 1_455
Na0 O2 2.635118 1_555
Na0 O13 2.635120 1_455
Na0 O17 2.635124 1_555
Na0 O6 2.683273 1_555
Na0 O16 2.683273 1_455
Na0 O12 2.683273 1_555
Na0 O5 2.683273 1_455
Na1 O4 2.275634 1_555
Na1 O10 2.275634 1_555
Na1 O13 2.275635 1_555
Na1 O11 2.520394 1_565
Na1 O9 2.520394 1_655
Na1 O8 2.520394 1_556
Na2 O14 2.275634 1_555
Na2 O2 2.275634 1_555
Na2 O17 2.275634 1_555
Na2 O7 2.520394 1_455
Na2 O15 2.520394 1_545
Na2 O0 2.520394 1_554
Na3 O17 2.635114 1_555
Na3 O4 2.635118 1_554
Na3 O14 2.635118 1_555
Na3 O10 2.635124 1_554
Na3 O1 2.683273 1_555
Na3 O5 2.683273 1_555
Na3 O3 2.683273 1_554
Na3 O12 2.683273 1_554
Na4 O13 2.320850 1_445
Na4 O2 2.320861 1_555
Na4 O16 2.501232 1_455
Na4 O6 2.501232 1_545
Na4 O7 2.734088 1_455
Na4 O11 2.734088 1_455
Na4 O15 2.734088 1_545
Na4 O9 2.734088 1_545
Na5 O17 2.320855 1_555
Na5 O4 2.320861 1_454
Na5 O5 2.501232 1_455
Na5 O12 2.501232 1_554
Na5 O7 2.734088 1_455
Na5 O9 2.734088 1_554
Na5 O8 2.734088 1_455
Na5 O0 2.734088 1_554
Na6 O10 2.320855 1_544
Na6 O14 2.320861 1_555
Na6 O1 2.501232 1_545
Na6 O3 2.501232 1_554
Na6 O15 2.734088 1_545
Na6 O11 2.734088 1_554
Na6 O8 2.734088 1_545
Na6 O0 2.734088 1_554
Na7 O10 2.635114 1_545
Na7 O14 2.635118 1_555
Na7 O2 2.635118 1_555
Na7 O13 2.635120 1_545
Na7 O16 2.683273 1_555
Na7 O6 2.683273 1_545
Na7 O3 2.683273 1_555
Na7 O1 2.683273 1_545
O0 Si5 1.638655 1_555
O0 Sn0 2.084410 1_556
O1 Si0 1.671543 1_555
O1 Si4 1.671543 1_555
O2 Si5 1.590848 1_555
O3 Si3 1.671543 1_555
O3 Si5 1.671543 1_555
O4 Si3 1.590848 1_555
O5 Si1 1.671543 1_555
O5 Si4 1.671543 1_555
O6 Si2 1.671543 1_555
O6 Si0 1.671543 1_555
O7 Si1 1.638655 1_555
O7 Sn0 2.084410 1_655
O8 Si4 1.638655 1_555
O8 Sn0 2.084410 1_665
O9 Si2 1.638655 1_555
O9 Sn0 2.084410 1_566
O10 Si2 1.590851 1_555
O11 Si3 1.638655 1_555
O11 Sn0 2.084410 1_656
O12 Si2 1.671543 1_555
O12 Si5 1.671543 1_555
O13 Si4 1.590854 1_555
O14 Si1 1.590848 1_555
O15 Si0 1.638655 1_555
O15 Sn0 2.084410 1_565
O16 Si3 1.671543 1_555
O16 Si1 1.671543 1_555
O17 Si0 1.590851 1_555
