# generated using pymatgen
data_K3SnSe3
_symmetry_space_group_name_H-M   'P 1'
_cell_length_a   12.85591242
_cell_length_b   8.95014308
_cell_length_c   9.12860245
_cell_angle_alpha   64.40230497
_cell_angle_beta   90.00000000
_cell_angle_gamma   90.00000000
_symmetry_Int_Tables_number   1
_chemical_formula_structural   K3SnSe3
_chemical_formula_sum   'K12 Sn4 Se12'
_cell_volume   947.26489525
_cell_formula_units_Z   4
loop_
 _symmetry_equiv_pos_site_id
 _symmetry_equiv_pos_as_xyz
  1  'x, y, z'
loop_
 _atom_site_type_symbol
 _atom_site_label
 _atom_site_symmetry_multiplicity
 _atom_site_fract_x
 _atom_site_fract_y
 _atom_site_fract_z
 _atom_site_occupancy
  K  K0  1  0.93128719  0.71143649  0.77529103  1
  K  K1  1  0.43128719  0.78856351  0.22470897  1
  K  K2  1  0.06871281  0.28856351  0.22470897  1
  K  K3  1  0.56871281  0.21143649  0.77529103  1
  K  K4  1  0.83560291  0.98630443  0.00180214  1
  K  K5  1  0.33560291  0.51369557  0.99819786  1
  K  K6  1  0.16439709  0.01369557  0.99819786  1
  K  K7  1  0.66439709  0.48630443  0.00180214  1
  K  K8  1  0.78754292  0.18896627  0.44109039  1
  K  K9  1  0.28754292  0.31103373  0.55890961  1
  K  K10  1  0.21245708  0.81103373  0.55890961  1
  K  K11  1  0.71245708  0.68896627  0.44109039  1
  Sn  Sn0  1  0.99191417  0.37144037  0.65898823  1
  Sn  Sn1  1  0.49191417  0.12855963  0.34101177  1
  Sn  Sn2  1  0.00808583  0.62855963  0.34101177  1
  Sn  Sn3  1  0.50808583  0.87144037  0.65898823  1
  Se  Se0  1  0.80889633  0.37922402  0.75838399  1
  Se  Se1  1  0.30889633  0.12077598  0.24161601  1
  Se  Se2  1  0.19110367  0.62077598  0.24161601  1
  Se  Se3  1  0.69110367  0.87922402  0.75838399  1
  Se  Se4  1  0.02886674  0.09602127  0.65400830  1
  Se  Se5  1  0.52886674  0.40397873  0.34599170  1
  Se  Se6  1  0.97113326  0.90397873  0.34599170  1
  Se  Se7  1  0.47113326  0.59602127  0.65400830  1
  Se  Se8  1  0.12877924  0.43007006  0.82807530  1
  Se  Se9  1  0.62877924  0.06992994  0.17192470  1
  Se  Se10  1  0.87122076  0.56992994  0.17192470  1
  Se  Se11  1  0.37122076  0.93007006  0.82807530  1
loop_
_geom_bond_atom_site_label_1
_geom_bond_atom_site_label_2
_geom_bond_distance
_geom_bond_site_symmetry_2
K0 Se10 3.368596 1_556
K0 Se4 3.369639 1_665
K0 Se3 3.407799 1_555
K0 Se0 3.425915 1_555
K0 Se8 3.459995 1_655
K0 Se6 3.571320 1_555
K1 Se11 3.368596 1_554
K1 Se5 3.369639 1_555
K1 Se2 3.407799 1_555
K1 Se1 3.425915 1_565
K1 Se9 3.459995 1_565
K1 Se7 3.571320 1_555
K2 Se8 3.368596 1_554
K2 Se6 3.369639 1_445
K2 Se1 3.407799 1_555
K2 Se2 3.425915 1_555
K2 Se10 3.459995 1_455
K2 Se4 3.571320 1_555
K3 Se9 3.368596 1_556
K3 Se7 3.369639 1_555
K3 Se0 3.407799 1_555
K3 Se3 3.425915 1_545
K3 Se11 3.459995 1_545
K3 Se5 3.571320 1_555
K4 Se0 3.266528 1_564
K4 Se9 3.323569 1_565
K4 Se3 3.338743 1_554
K4 Se6 3.383824 1_555
K4 Se10 3.392375 1_555
K4 Se4 3.810942 1_664
K5 Se1 3.266528 1_556
K5 Se8 3.323569 1_555
K5 Se2 3.338743 1_556
K5 Se7 3.383824 1_555
K5 Se11 3.392375 1_555
K5 Se5 3.810942 1_556
K6 Se2 3.266528 1_546
K6 Se11 3.323569 1_545
K6 Se1 3.338743 1_556
K6 Se4 3.383824 1_555
K6 Se8 3.392375 1_555
K6 Se6 3.810942 1_446
K7 Se3 3.266528 1_554
K7 Se10 3.323569 1_555
K7 Se0 3.338743 1_554
K7 Se5 3.383824 1_555
K7 Se9 3.392375 1_555
K7 Se7 3.810942 1_554
K8 Se3 3.267024 1_545
K8 Se10 3.403110 1_555
K8 Se4 3.563390 1_655
K8 Se9 3.687865 1_555
K8 Se5 3.751323 1_555
K8 Se6 3.839740 1_545
K9 Se2 3.267024 1_555
K9 Se11 3.403110 1_545
K9 Se5 3.563390 1_555
K9 Se8 3.687865 1_555
K9 Se4 3.751323 1_555
K9 Se7 3.839740 1_555
K10 Se1 3.267024 1_565
K10 Se8 3.403110 1_555
K10 Se6 3.563390 1_455
K10 Se11 3.687865 1_555
K10 Se7 3.751323 1_555
K10 Se4 3.839740 1_565
K11 Se0 3.267024 1_555
K11 Se9 3.403110 1_565
K11 Se7 3.563390 1_555
K11 Se10 3.687865 1_555
K11 Se6 3.751323 1_555
K11 Se5 3.839740 1_555
Se0 Sn0 2.533516 1_555
Se1 Sn1 2.533516 1_555
Se2 Sn2 2.533516 1_555
Se3 Sn3 2.533516 1_555
Se4 Sn0 2.530020 1_455
Se5 Sn1 2.530020 1_555
Se6 Sn2 2.530020 1_655
Se7 Sn3 2.530020 1_555
Se8 Sn0 2.540404 1_455
Se9 Sn1 2.540404 1_555
Se10 Sn2 2.540404 1_655
Se11 Sn3 2.540404 1_555
