# generated using pymatgen
data_Hg2NO4
_symmetry_space_group_name_H-M   'P 1'
_cell_length_a   6.69697879
_cell_length_b   5.57888149
_cell_length_c   11.66386949
_cell_angle_alpha   80.29877280
_cell_angle_beta   90.00000000
_cell_angle_gamma   90.00000000
_symmetry_Int_Tables_number   1
_chemical_formula_structural   Hg2NO4
_chemical_formula_sum   'Hg8 N4 O16'
_cell_volume   429.54968594
_cell_formula_units_Z   4
loop_
 _symmetry_equiv_pos_site_id
 _symmetry_equiv_pos_as_xyz
  1  'x, y, z'
loop_
 _atom_site_type_symbol
 _atom_site_label
 _atom_site_symmetry_multiplicity
 _atom_site_fract_x
 _atom_site_fract_y
 _atom_site_fract_z
 _atom_site_occupancy
  Hg  Hg0  1  0.19203185  0.49972312  0.25945274  1
  Hg  Hg1  1  0.69203185  0.50027688  0.24054726  1
  Hg  Hg2  1  0.80796815  0.50027688  0.74054726  1
  Hg  Hg3  1  0.30796815  0.49972312  0.75945274  1
  Hg  Hg4  1  0.51276758  0.17618138  0.55647530  1
  Hg  Hg5  1  0.01276758  0.82381862  0.94352470  1
  Hg  Hg6  1  0.48723242  0.82381862  0.44352470  1
  Hg  Hg7  1  0.98723242  0.17618138  0.05647530  1
  N  N0  1  0.02136041  0.04208930  0.63881368  1
  N  N1  1  0.52136041  0.95791070  0.86118632  1
  N  N2  1  0.47863959  0.04208930  0.13881368  1
  N  N3  1  0.97863959  0.95791070  0.36118632  1
  O  O0  1  0.36837191  0.97441510  0.79499504  1
  O  O1  1  0.86837191  0.02558490  0.70500496  1
  O  O2  1  0.63162809  0.02558490  0.20500496  1
  O  O3  1  0.13162809  0.97441510  0.29499504  1
  O  O4  1  0.95315234  0.48644068  0.14594881  1
  O  O5  1  0.45315234  0.51355932  0.35405119  1
  O  O6  1  0.04684766  0.51355932  0.85405119  1
  O  O7  1  0.54684766  0.48644068  0.64594881  1
  O  O8  1  0.39814942  0.24714728  0.10803781  1
  O  O9  1  0.89814942  0.75285272  0.39196219  1
  O  O10  1  0.10185058  0.24714728  0.60803781  1
  O  O11  1  0.60185058  0.75285272  0.89196219  1
  O  O12  1  0.41227532  0.85534382  0.10584911  1
  O  O13  1  0.91227532  0.14465618  0.39415089  1
  O  O14  1  0.58772468  0.14465618  0.89415089  1
  O  O15  1  0.08772468  0.85534382  0.60584911  1
loop_
_geom_bond_atom_site_label_1
_geom_bond_atom_site_label_2
_geom_bond_distance
_geom_bond_site_symmetry_2
Hg0 O5 2.076086 1_555
Hg0 O4 2.085790 1_455
Hg1 O4 2.076086 1_555
Hg1 O5 2.085790 1_555
Hg2 O7 2.076086 1_555
Hg2 O6 2.085790 1_655
Hg3 O6 2.076086 1_555
Hg3 O7 2.085790 1_555
Hg4 O7 2.178534 1_555
Hg5 O6 2.178534 1_555
Hg6 O5 2.178534 1_555
Hg7 O4 2.178534 1_555
N0 O15 1.251310 1_545
N0 O10 1.260851 1_555
N0 O1 1.276832 1_455
N1 O14 1.251310 1_565
N1 O11 1.260851 1_555
N1 O0 1.276832 1_555
N2 O12 1.251310 1_545
N2 O8 1.260851 1_555
N2 O2 1.276832 1_555
N3 O13 1.251310 1_565
N3 O9 1.260851 1_555
N3 O3 1.276832 1_655
