# generated using pymatgen
data_TePd
_symmetry_space_group_name_H-M   'P 1'
_cell_length_a   4.18200749
_cell_length_b   4.18200774
_cell_length_c   5.73799994
_cell_angle_alpha   90.00000000
_cell_angle_beta   90.00000000
_cell_angle_gamma   119.99999792
_symmetry_Int_Tables_number   1
_chemical_formula_structural   TePd
_chemical_formula_sum   'Te2 Pd2'
_cell_volume   86.90821279
_cell_formula_units_Z   2
loop_
 _symmetry_equiv_pos_site_id
 _symmetry_equiv_pos_as_xyz
  1  'x, y, z'
loop_
 _atom_site_type_symbol
 _atom_site_label
 _atom_site_symmetry_multiplicity
 _atom_site_fract_x
 _atom_site_fract_y
 _atom_site_fract_z
 _atom_site_occupancy
  Te  Te0  1  0.33333300  0.66666700  0.25000000  1
  Te  Te1  1  0.66666700  0.33333300  0.75000000  1
  Pd  Pd0  1  0.00000000  0.00000000  -0.00000000  1
  Pd  Pd1  1  -0.00000000  -0.00000000  0.50000000  1
loop_
_geom_bond_atom_site_label_1
_geom_bond_atom_site_label_2
_geom_bond_distance
_geom_bond_site_symmetry_2
Pd0 Te1 2.808471 1_454
Pd0 Te0 2.808471 1_545
Pd0 Te1 2.808474 1_554
Pd0 Te0 2.808474 1_445
Pd0 Te1 2.808474 1_444
Pd0 Te0 2.808474 1_555
Pd0 Pd1 2.869000 1_554
Pd0 Pd1 2.869000 1_555
Pd1 Te1 2.808471 1_455
Pd1 Te0 2.808471 1_545
Pd1 Te1 2.808474 1_555
Pd1 Te0 2.808474 1_445
Pd1 Te1 2.808474 1_445
Pd1 Te0 2.808474 1_555
