# generated using pymatgen
data_KCoPO4
_symmetry_space_group_name_H-M   'P 1'
_cell_length_a   8.63193005
_cell_length_b   18.44452547
_cell_length_c   18.44436544
_cell_angle_alpha   120.00005185
_cell_angle_beta   90.00000000
_cell_angle_gamma   90.00000000
_symmetry_Int_Tables_number   1
_chemical_formula_structural   KCoPO4
_chemical_formula_sum   'K24 Co24 P24 O96'
_cell_volume   2543.13562637
_cell_formula_units_Z   24
loop_
 _symmetry_equiv_pos_site_id
 _symmetry_equiv_pos_as_xyz
  1  'x, y, z'
loop_
 _atom_site_type_symbol
 _atom_site_label
 _atom_site_symmetry_multiplicity
 _atom_site_fract_x
 _atom_site_fract_y
 _atom_site_fract_z
 _atom_site_occupancy
  K  K0  1  0.48183149  0.52045240  0.52423277  1
  K  K1  1  0.48183314  0.47576809  0.99621965  1
  K  K2  1  0.48183365  0.00378213  0.47954820  1
  K  K3  1  0.98183149  0.47954760  0.47576723  1
  K  K4  1  0.98183314  0.52423191  0.00378035  1
  K  K5  1  0.98183365  0.99621787  0.52045180  1
  K  K6  1  0.48585259  0.13755807  0.33430106  1
  K  K7  1  0.48585466  0.66569961  0.80325258  1
  K  K8  1  0.48585026  0.19674986  0.86244634  1
  K  K9  1  0.98585259  0.86244193  0.66569894  1
  K  K10  1  0.98585466  0.33430039  0.19674742  1
  K  K11  1  0.98585026  0.80325014  0.13755366  1
  K  K12  1  0.47775992  0.84884374  0.18036225  1
  K  K13  1  0.47774867  0.81963170  0.66847925  1
  K  K14  1  0.47775529  0.33151631  0.15115431  1
  K  K15  1  0.97775992  0.15115626  0.81963775  1
  K  K16  1  0.97774867  0.18036830  0.33152075  1
  K  K17  1  0.97775529  0.66848369  0.84884569  1
  K  K18  1  0.45582778  0.33338956  0.66669812  1
  K  K19  1  0.95582778  0.66661044  0.33330188  1
  K  K20  1  0.95512974  0.33339421  0.66669900  1
  K  K21  1  0.45512974  0.66660579  0.33330100  1
  K  K22  1  0.49966759  0.00000063  0.00000237  1
  K  K23  1  0.99966759  -0.00000063  0.99999763  1
  Co  Co0  1  0.29717070  0.32927610  0.33048870  1
  Co  Co1  1  0.29717134  0.66951530  0.99878859  1
  Co  Co2  1  0.29716732  0.00121162  0.67072705  1
  Co  Co3  1  0.79717070  0.67072390  0.66951130  1
  Co  Co4  1  0.79717134  0.33048470  0.00121141  1
  Co  Co5  1  0.79716732  0.99878838  0.32927295  1
  Co  Co6  1  0.16283215  0.99099931  0.16360023  1
  Co  Co7  1  0.16282148  0.83640451  0.82740674  1
  Co  Co8  1  0.16284254  0.17260099  0.00899903  1
  Co  Co9  1  0.66283215  0.00900069  0.83639977  1
  Co  Co10  1  0.66282148  0.16359549  0.17259326  1
  Co  Co11  1  0.66284254  0.82739901  0.99100097  1
  Co  Co12  1  0.17238773  0.16588406  0.51345717  1
  Co  Co13  1  0.17239901  0.48654829  0.65242657  1
  Co  Co14  1  0.17239187  0.34757549  0.83411967  1
  Co  Co15  1  0.67238773  0.83411594  0.48654283  1
  Co  Co16  1  0.67239901  0.51345171  0.34757343  1
  Co  Co17  1  0.67239187  0.65242451  0.16588033  1
  Co  Co18  1  0.17007965  0.82195082  0.32365881  1
  Co  Co19  1  0.17007672  0.67634202  0.49829334  1
  Co  Co20  1  0.17008258  0.50170361  0.17804563  1
  Co  Co21  1  0.67007965  0.17804918  0.67634119  1
  Co  Co22  1  0.67007672  0.32365798  0.50170666  1
  Co  Co23  1  0.67008258  0.49829639  0.82195437  1
  P  P0  1  0.27591538  0.15660768  0.16611667  1
  P  P1  1  0.27596663  0.83387162  0.99047225  1
  P  P2  1  0.27592823  0.00953571  0.84341168  1
  P  P3  1  0.77591538  0.84339232  0.83388333  1
  P  P4  1  0.77596663  0.16612838  0.00952775  1
  P  P5  1  0.77592823  0.99046429  0.15658832  1
  P  P6  1  0.28532749  0.31866911  0.49416435  1
  P  P7  1  0.28530890  0.50583328  0.82447460  1
  P  P8  1  0.28532093  0.17552529  0.68136431  1
  P  P9  1  0.78532749  0.68133089  0.50583565  1
  P  P10  1  0.78530890  0.49416672  0.17552540  1
  P  P11  1  0.78532093  0.82447471  0.31863569  1
  P  P12  1  0.19303391  0.00332150  0.33881625  1
  P  P13  1  0.19304591  0.66116730  0.66450070  1
  P  P14  1  0.19304207  0.33549285  0.99667610  1
  P  P15  1  0.69303391  0.99667850  0.66118375  1
  P  P16  1  0.69304591  0.33883270  0.33549930  1
  P  P17  1  0.69304207  0.66450715  0.00332390  1
  P  P18  1  0.28554793  0.65740877  0.16365634  1
  P  P19  1  0.28554522  0.83633578  0.49375285  1
  P  P20  1  0.28555695  0.50624689  0.34260055  1
  P  P21  1  0.78554793  0.34259123  0.83634366  1
  P  P22  1  0.78554522  0.16366422  0.50624715  1
  P  P23  1  0.78555695  0.49375311  0.65739945  1
  O  O0  1  0.44250794  0.14195849  0.18847483  1
  O  O1  1  0.44248894  0.81150652  0.95346724  1
  O  O2  1  0.44248105  0.04652843  0.85804273  1
  O  O3  1  0.94250794  0.85804151  0.81152517  1
  O  O4  1  0.94248894  0.18849348  0.04653276  1
  O  O5  1  0.94248105  0.95347157  0.14195727  1
  O  O6  1  0.15983468  0.10968857  0.19285757  1
  O  O7  1  0.15985285  0.80712303  0.91680839  1
  O  O8  1  0.15982911  0.08315976  0.89030746  1
  O  O9  1  0.65983468  0.89031143  0.80714243  1
  O  O10  1  0.65985285  0.19287697  0.08319161  1
  O  O11  1  0.65982911  0.91684024  0.10969254  1
  O  O12  1  0.21945870  0.28923611  0.40483009  1
  O  O13  1  0.21945540  0.59516484  0.88441109  1
  O  O14  1  0.21945928  0.11559395  0.71075615  1
  O  O15  1  0.71945870  0.71076389  0.59516991  1
  O  O16  1  0.71945540  0.40483516  0.11558891  1
  O  O17  1  0.71945928  0.88440605  0.28924385  1
  O  O18  1  0.26445357  0.92947906  0.05297085  1
  O  O19  1  0.26445310  0.94702313  0.87652313  1
  O  O20  1  0.26446019  0.12349308  0.07051421  1
  O  O21  1  0.76445357  0.07052094  0.94702915  1
  O  O22  1  0.76445310  0.05297687  0.12347687  1
  O  O23  1  0.76446019  0.87650692  0.92948579  1
  O  O24  1  0.28454084  0.41595289  0.54640702  1
  O  O25  1  0.28454132  0.45357316  0.86955804  1
  O  O26  1  0.28453732  0.13045613  0.58402362  1
  O  O27  1  0.78454084  0.58404711  0.45359298  1
  O  O28  1  0.78454132  0.54642684  0.13044196  1
  O  O29  1  0.78453732  0.86954387  0.41597638  1
  O  O30  1  0.45298342  0.28469936  0.48648989  1
  O  O31  1  0.45297436  0.51350816  0.79821862  1
  O  O32  1  0.45297101  0.20178905  0.71529608  1
  O  O33  1  0.95298342  0.71530064  0.51351011  1
  O  O34  1  0.95297436  0.48649184  0.20178138  1
  O  O35  1  0.95297101  0.79821095  0.28470392  1
  O  O36  1  0.23301228  0.78626933  0.03805383  1
  O  O37  1  0.23301654  0.96193856  0.74821250  1
  O  O38  1  0.23301865  0.25178240  0.21372610  1
  O  O39  1  0.73301228  0.21373067  0.96194617  1
  O  O40  1  0.73301654  0.03806144  0.25178750  1
  O  O41  1  0.73301865  0.74821760  0.78627390  1
  O  O42  1  0.18399647  0.28352402  0.53933987  1
  O  O43  1  0.18401527  0.46065884  0.74420413  1
  O  O44  1  0.18400638  0.25580974  0.71647159  1
  O  O45  1  0.68399647  0.71647598  0.46066013  1
  O  O46  1  0.68401527  0.53934116  0.25579587  1
  O  O47  1  0.68400638  0.74419026  0.28352841  1
  O  O48  1  0.26457210  0.97329768  0.25041883  1
  O  O49  1  0.26456480  0.74961934  0.72287174  1
  O  O50  1  0.26457567  0.27712342  0.02670001  1
  O  O51  1  0.76457210  0.02670232  0.74958117  1
  O  O52  1  0.76456480  0.25038066  0.27712826  1
  O  O53  1  0.76457567  0.72287658  0.97329999  1
  O  O54  1  0.26683862  0.08894758  0.40272718  1
  O  O55  1  0.26684462  0.59730500  0.68623183  1
  O  O56  1  0.26684525  0.31377478  0.91104827  1
  O  O57  1  0.76683862  0.91105242  0.59727282  1
  O  O58  1  0.76684462  0.40269500  0.31376817  1
  O  O59  1  0.76684525  0.68622522  0.08895173  1
  O  O60  1  0.01778641  0.01553089  0.33577049  1
  O  O61  1  0.01778816  0.66423805  0.67976684  1
  O  O62  1  0.01778512  0.32023859  0.98446524  1
  O  O63  1  0.51778641  0.98446911  0.66422951  1
  O  O64  1  0.51778816  0.33576195  0.32023316  1
  O  O65  1  0.51778512  0.67976141  0.01553476  1
  O  O66  1  0.23178157  0.93965211  0.36822242  1
  O  O67  1  0.23178150  0.63177920  0.57143186  1
  O  O68  1  0.23178169  0.42856976  0.06034311  1
  O  O69  1  0.73178157  0.06034789  0.63177758  1
  O  O70  1  0.73178150  0.36822080  0.42856814  1
  O  O71  1  0.73178169  0.57143024  0.93965689  1
  O  O72  1  0.21373169  0.63503171  0.07727129  1
  O  O73  1  0.21373588  0.92272825  0.55775911  1
  O  O74  1  0.21372307  0.44223957  0.36496297  1
  O  O75  1  0.71373169  0.36496829  0.92272871  1
  O  O76  1  0.71373588  0.07727175  0.44224089  1
  O  O77  1  0.71372307  0.55776043  0.63503703  1
  O  O78  1  0.29175399  0.75437489  0.22088615  1
  O  O79  1  0.29175230  0.77911735  0.53348537  1
  O  O80  1  0.29174804  0.46650936  0.24561702  1
  O  O81  1  0.79175399  0.24562511  0.77911385  1
  O  O82  1  0.79175230  0.22088265  0.46651463  1
  O  O83  1  0.79174804  0.53349064  0.75438298  1
  O  O84  1  0.45089734  0.61967057  0.15163567  1
  O  O85  1  0.45090750  0.84836264  0.46802855  1
  O  O86  1  0.45087051  0.53196635  0.38032633  1
  O  O87  1  0.95089734  0.38032943  0.84836433  1
  O  O88  1  0.95090750  0.15163736  0.53197145  1
  O  O89  1  0.95087051  0.46803365  0.61967367  1
  O  O90  1  0.18296566  0.62022554  0.20661814  1
  O  O91  1  0.18296484  0.79337996  0.41360551  1
  O  O92  1  0.18294758  0.58639480  0.37976979  1
  O  O93  1  0.68296566  0.37977446  0.79338186  1
  O  O94  1  0.68296484  0.20662004  0.58639449  1
  O  O95  1  0.68294758  0.41360520  0.62023021  1
loop_
_geom_bond_atom_site_label_1
_geom_bond_atom_site_label_2
_geom_bond_distance
_geom_bond_site_symmetry_2
K0 O77 2.692701 1_555
K0 O24 2.751513 1_555
K0 O86 2.779446 1_555
K0 O67 2.800959 1_555
K1 O75 2.692701 1_555
K1 O25 2.751226 1_555
K1 O84 2.779355 1_556
K1 O68 2.800910 1_556
K2 O76 2.692694 1_555
K2 O26 2.751419 1_555
K2 O85 2.779378 1_545
K2 O66 2.800955 1_545
K3 O74 2.692701 1_655
K3 O27 2.751513 1_555
K3 O89 2.779446 1_555
K3 O70 2.800959 1_555
K4 O72 2.692701 1_655
K4 O28 2.751226 1_555
K4 O87 2.779355 1_554
K4 O71 2.800910 1_554
K5 O73 2.692694 1_655
K5 O29 2.751419 1_555
K5 O88 2.779378 1_565
K5 O69 2.800955 1_565
K6 O54 2.665022 1_555
K6 O40 2.728171 1_555
K6 O0 2.756667 1_555
K6 O30 2.776199 1_555
K7 O55 2.664785 1_555
K7 O41 2.728193 1_555
K7 O1 2.756418 1_555
K7 O31 2.776391 1_555
K8 O56 2.664846 1_555
K8 O39 2.728197 1_555
K8 O2 2.756596 1_555
K8 O32 2.776284 1_555
K9 O57 2.665022 1_555
K9 O37 2.728171 1_655
K9 O3 2.756667 1_555
K9 O33 2.776199 1_555
K10 O58 2.664785 1_555
K10 O38 2.728193 1_655
K10 O4 2.756418 1_555
K10 O34 2.776391 1_555
K11 O59 2.664846 1_555
K11 O36 2.728197 1_655
K11 O5 2.756596 1_555
K11 O35 2.776284 1_555
K12 O48 2.712791 1_555
K12 O11 2.715996 1_555
K12 O78 2.734048 1_555
K12 O17 2.738399 1_555
K12 O65 3.099455 1_555
K12 O36 3.107320 1_555
K13 O49 2.712170 1_555
K13 O9 2.716033 1_555
K13 O79 2.734034 1_555
K13 O15 2.738330 1_555
K13 O63 3.099615 1_555
K13 O37 3.107225 1_555
K14 O50 2.712739 1_555
K14 O10 2.715798 1_555
K14 O80 2.734037 1_555
K14 O16 2.738435 1_555
K14 O64 3.099468 1_555
K14 O38 3.107235 1_555
K15 O51 2.712791 1_555
K15 O8 2.715996 1_655
K15 O81 2.734048 1_555
K15 O14 2.738399 1_655
K15 O62 3.099455 1_655
K15 O39 3.107320 1_555
K16 O52 2.712170 1_555
K16 O6 2.716033 1_655
K16 O82 2.734034 1_555
K16 O12 2.738330 1_655
K16 O60 3.099615 1_655
K16 O40 3.107225 1_555
K17 O53 2.712739 1_555
K17 O7 2.715798 1_655
K17 O83 2.734037 1_555
K17 O13 2.738435 1_655
K17 O61 3.099468 1_655
K17 O41 3.107235 1_555
K18 O95 2.834638 1_555
K18 O93 2.834906 1_555
K18 O94 2.835814 1_555
K18 O31 2.977104 1_555
K18 O30 2.978242 1_555
K18 O32 2.978530 1_555
K18 O43 3.114997 1_555
K18 O42 3.115948 1_555
K18 O44 3.115977 1_555
K19 O92 2.834638 1_655
K19 O90 2.834906 1_655
K19 O91 2.835814 1_655
K19 O34 2.977104 1_555
K19 O33 2.978242 1_555
K19 O35 2.978530 1_555
K19 O46 3.114997 1_555
K19 O45 3.115948 1_555
K19 O47 3.115977 1_555
K20 O43 2.846302 1_655
K20 O42 2.847151 1_655
K20 O44 2.847356 1_655
K20 O89 3.012422 1_555
K20 O87 3.012851 1_555
K20 O88 3.014039 1_555
K20 O95 3.116305 1_555
K20 O93 3.116376 1_555
K20 O94 3.117258 1_555
K21 O46 2.846302 1_555
K21 O45 2.847151 1_555
K21 O47 2.847356 1_555
K21 O86 3.012422 1_555
K21 O84 3.012851 1_555
K21 O85 3.014039 1_555
K21 O92 3.116305 1_555
K21 O90 3.116376 1_555
K21 O91 3.117258 1_555
K22 O19 2.835259 1_544
K22 O20 2.835378 1_555
K22 O18 2.835400 1_545
K22 O22 3.023253 1_555
K22 O21 3.023475 1_554
K22 O23 3.023519 1_544
K22 O0 3.175133 1_555
K22 O2 3.175369 1_554
K22 O1 3.175461 1_544
K23 O22 2.835259 1_556
K23 O23 2.835378 1_545
K23 O21 2.835400 1_555
K23 O19 3.023253 1_645
K23 O18 3.023475 1_646
K23 O20 3.023519 1_656
K23 O3 3.175133 1_545
K23 O5 3.175369 1_546
K23 O4 3.175461 1_556
Co0 O64 1.923353 1_555
Co0 O12 1.971843 1_555
Co0 O38 1.977233 1_555
Co0 O74 1.984826 1_555
Co1 O65 1.923328 1_556
Co1 O13 1.971826 1_555
Co1 O36 1.977134 1_556
Co1 O72 1.984800 1_556
Co2 O63 1.923366 1_545
Co2 O14 1.971890 1_555
Co2 O37 1.977152 1_545
Co2 O73 1.984795 1_545
Co3 O61 1.923353 1_655
Co3 O15 1.971843 1_555
Co3 O41 1.977233 1_555
Co3 O77 1.984826 1_555
Co4 O62 1.923328 1_654
Co4 O16 1.971826 1_555
Co4 O39 1.977134 1_554
Co4 O75 1.984800 1_554
Co5 O60 1.923366 1_665
Co5 O17 1.971890 1_555
Co5 O40 1.977152 1_565
Co5 O76 1.984795 1_565
Co6 O6 1.975595 1_565
Co6 O18 1.976172 1_555
Co6 O48 1.991203 1_555
Co6 O5 1.994986 1_455
Co7 O7 1.975343 1_555
Co7 O19 1.976058 1_555
Co7 O49 1.991175 1_555
Co7 O3 1.994632 1_455
Co8 O8 1.975659 1_554
Co8 O20 1.976072 1_555
Co8 O50 1.991230 1_555
Co8 O4 1.995032 1_455
Co9 O9 1.975595 1_545
Co9 O21 1.976172 1_555
Co9 O51 1.991203 1_555
Co9 O2 1.994986 1_555
Co10 O10 1.975343 1_555
Co10 O22 1.976058 1_555
Co10 O52 1.991175 1_555
Co10 O0 1.994632 1_555
Co11 O11 1.975659 1_556
Co11 O23 1.976072 1_555
Co11 O53 1.991230 1_555
Co11 O1 1.995032 1_555
Co12 O26 1.977043 1_555
Co12 O42 1.977418 1_555
Co12 O88 1.982519 1_455
Co12 O54 1.987810 1_555
Co13 O24 1.977400 1_555
Co13 O43 1.977856 1_555
Co13 O89 1.982888 1_455
Co13 O55 1.988191 1_555
Co14 O25 1.977070 1_555
Co14 O44 1.977554 1_555
Co14 O87 1.982608 1_455
Co14 O56 1.987784 1_555
Co15 O29 1.977043 1_555
Co15 O45 1.977418 1_555
Co15 O85 1.982519 1_555
Co15 O57 1.987810 1_555
Co16 O27 1.977400 1_555
Co16 O46 1.977856 1_555
Co16 O86 1.982888 1_555
Co16 O58 1.988191 1_555
Co17 O28 1.977070 1_555
Co17 O47 1.977554 1_555
Co17 O84 1.982608 1_555
Co17 O59 1.987784 1_555
Co18 O78 1.971592 1_555
Co18 O66 1.971766 1_555
Co18 O35 1.976230 1_455
Co18 O91 1.979052 1_555
Co19 O79 1.971662 1_555
Co19 O67 1.971765 1_555
Co19 O33 1.976125 1_455
Co19 O92 1.979123 1_555
Co20 O80 1.971458 1_555
Co20 O68 1.971752 1_555
Co20 O34 1.976190 1_455
Co20 O90 1.979135 1_555
Co21 O81 1.971592 1_555
Co21 O69 1.971766 1_555
Co21 O32 1.976230 1_555
Co21 O94 1.979052 1_555
Co22 O82 1.971662 1_555
Co22 O70 1.971765 1_555
Co22 O30 1.976125 1_555
Co22 O95 1.979123 1_555
Co23 O83 1.971458 1_555
Co23 O71 1.971752 1_555
Co23 O31 1.976190 1_555
Co23 O93 1.979135 1_555
O0 P0 1.556399 1_555
O1 P1 1.555831 1_555
O2 P2 1.556004 1_555
O3 P3 1.556399 1_555
O4 P4 1.555831 1_555
O5 P5 1.556004 1_555
O6 P0 1.556606 1_555
O7 P1 1.556817 1_555
O8 P2 1.556263 1_555
O9 P3 1.556606 1_555
O10 P4 1.556817 1_555
O11 P5 1.556263 1_555
O12 P6 1.561552 1_555
O13 P7 1.561597 1_555
O14 P8 1.561497 1_555
O15 P9 1.561552 1_555
O16 P10 1.561597 1_555
O17 P11 1.561497 1_555
O18 P1 1.554222 1_554
O19 P2 1.554478 1_565
O20 P0 1.554073 1_555
O21 P4 1.554222 1_556
O22 P5 1.554478 1_545
O23 P3 1.554073 1_555
O24 P6 1.555388 1_555
O25 P7 1.556327 1_555
O26 P8 1.556283 1_555
O27 P9 1.555388 1_555
O28 P10 1.556327 1_555
O29 P11 1.556283 1_555
O30 P6 1.555085 1_555
O31 P7 1.554903 1_555
O32 P8 1.554800 1_555
O33 P9 1.555085 1_555
O34 P10 1.554903 1_555
O35 P11 1.554800 1_555
O36 P1 1.564964 1_554
O37 P2 1.565107 1_565
O38 P0 1.564710 1_555
O39 P4 1.564964 1_556
O40 P5 1.565107 1_545
O41 P3 1.564710 1_555
O42 P6 1.555534 1_555
O43 P7 1.554714 1_555
O44 P8 1.555005 1_555
O45 P9 1.555534 1_555
O46 P10 1.554714 1_555
O47 P11 1.555005 1_555
O48 P12 1.563141 1_565
O49 P13 1.563782 1_555
O50 P14 1.563069 1_554
O51 P15 1.563141 1_545
O52 P16 1.563782 1_555
O53 P17 1.563069 1_556
O54 P12 1.558206 1_555
O55 P13 1.557579 1_555
O56 P14 1.558206 1_555
O57 P15 1.558206 1_555
O58 P16 1.557579 1_555
O59 P17 1.558206 1_555
O60 P12 1.534554 1_555
O61 P13 1.534649 1_555
O62 P14 1.534634 1_555
O63 P15 1.534554 1_555
O64 P16 1.534649 1_555
O65 P17 1.534634 1_555
O66 P12 1.556306 1_565
O67 P13 1.556225 1_555
O68 P14 1.556300 1_554
O69 P15 1.556306 1_545
O70 P16 1.556225 1_555
O71 P17 1.556300 1_556
O72 P18 1.560668 1_555
O73 P19 1.560733 1_555
O74 P20 1.560554 1_555
O75 P21 1.560668 1_555
O76 P22 1.560733 1_555
O77 P23 1.560554 1_555
O78 P18 1.558180 1_555
O79 P19 1.557929 1_555
O80 P20 1.558453 1_555
O81 P21 1.558180 1_555
O82 P22 1.557929 1_555
O83 P23 1.558453 1_555
O84 P18 1.554502 1_555
O85 P19 1.554683 1_555
O86 P20 1.554151 1_555
O87 P21 1.554502 1_555
O88 P22 1.554683 1_555
O89 P23 1.554151 1_555
O90 P18 1.557496 1_555
O91 P19 1.557508 1_555
O92 P20 1.557681 1_555
O93 P21 1.557496 1_555
O94 P22 1.557508 1_555
O95 P23 1.557681 1_555
