# generated using pymatgen
data_EuPH5CO7
_symmetry_space_group_name_H-M   'P 1'
_cell_length_a   6.70461200
_cell_length_b   7.08577731
_cell_length_c   7.92317112
_cell_angle_alpha   111.31674365
_cell_angle_beta   96.30125337
_cell_angle_gamma   90.16480152
_symmetry_Int_Tables_number   1
_chemical_formula_structural   EuPH5CO7
_chemical_formula_sum   'Eu2 P2 H10 C2 O14'
_cell_volume   348.16656879
_cell_formula_units_Z   2
loop_
 _symmetry_equiv_pos_site_id
 _symmetry_equiv_pos_as_xyz
  1  'x, y, z'
loop_
 _atom_site_type_symbol
 _atom_site_label
 _atom_site_symmetry_multiplicity
 _atom_site_fract_x
 _atom_site_fract_y
 _atom_site_fract_z
 _atom_site_occupancy
  Eu  Eu0  1  0.86901900  0.77794400  0.06344400  1
  Eu  Eu1  1  0.13098100  0.22205600  0.93655600  1
  P  P0  1  0.67488200  0.25036400  0.01812700  1
  P  P1  1  0.32511800  0.74963600  0.98187300  1
  H  H0  1  0.48829900  0.88449300  0.59018100  1
  H  H1  1  0.16546400  0.52131100  0.32691600  1
  H  H2  1  0.71890400  0.66844100  0.64274800  1
  H  H3  1  0.51940400  0.74089200  0.39374400  1
  H  H4  1  0.51170100  0.11550700  0.40981900  1
  H  H5  1  0.83453600  0.47868900  0.67308400  1
  H  H6  1  0.48059600  0.25910800  0.60625600  1
  H  H7  1  0.62839100  0.28745000  0.19627300  1
  H  H8  1  0.37160900  0.71255000  0.80372700  1
  H  H9  1  0.28109600  0.33155900  0.35725200  1
  C  C0  1  0.93998900  0.09327900  0.49825700  1
  C  C1  1  0.06001100  0.90672100  0.50174300  1
  O  O0  1  0.52297600  0.77601900  0.10619300  1
  O  O1  1  0.05364200  0.75682400  0.35278500  1
  O  O2  1  0.80044000  0.05782300  0.96037900  1
  O  O3  1  0.41342500  0.20089500  0.48138200  1
  O  O4  1  0.84599000  0.07819800  0.34699700  1
  O  O5  1  0.94635800  0.24317600  0.64721500  1
  O  O6  1  0.81709300  0.42566800  0.02619800  1
  O  O7  1  0.19956000  0.94217700  0.03962100  1
  O  O8  1  0.58657500  0.79910500  0.51861800  1
  O  O9  1  0.18290700  0.57433200  0.97380200  1
  O  O10  1  0.47702400  0.22398100  0.89380700  1
  O  O11  1  0.21657800  0.38516900  0.26601100  1
  O  O12  1  0.78342200  0.61483100  0.73398900  1
  O  O13  1  0.15401000  0.92180200  0.65300300  1
loop_
_geom_bond_atom_site_label_1
_geom_bond_atom_site_label_2
_geom_bond_distance
_geom_bond_site_symmetry_2
Eu0 O0 2.381885 1_555
Eu0 O6 2.424033 1_555
Eu0 O2 2.431341 1_564
Eu0 O12 2.439849 1_554
Eu0 O4 2.490084 1_565
Eu0 O1 2.537271 1_655
Eu0 O7 2.556927 1_655
Eu0 O9 2.572052 1_654
Eu1 O10 2.381885 1_555
Eu1 O9 2.424033 1_555
Eu1 O7 2.431341 1_546
Eu1 O11 2.439849 1_556
Eu1 O13 2.490084 1_545
Eu1 O5 2.537271 1_455
Eu1 O2 2.556927 1_455
Eu1 O6 2.572052 1_456
H0 O8 0.978061 1_555
H1 O11 0.990279 1_555
H2 O12 0.992967 1_555
H3 O8 0.977894 1_555
H4 O3 0.978061 1_555
H5 O12 0.990279 1_555
H6 O3 0.977894 1_555
H7 P0 1.409209 1_555
H8 P1 1.409209 1_555
H9 O11 0.992967 1_555
C0 O4 1.259211 1_555
C0 O5 1.264974 1_555
C1 O13 1.259211 1_555
C1 O1 1.264974 1_555
O0 P1 1.530627 1_554
O2 P0 1.554554 1_556
O6 P0 1.542147 1_555
O7 P1 1.554554 1_554
O9 P1 1.542147 1_555
O10 P0 1.530627 1_556
