# generated using pymatgen
data_P2O5
_symmetry_space_group_name_H-M   'P 1'
_cell_length_a   7.40797731
_cell_length_b   7.40797818
_cell_length_c   7.40797775
_cell_angle_alpha   87.28824269
_cell_angle_beta   87.28824390
_cell_angle_gamma   87.28824799
_symmetry_Int_Tables_number   1
_chemical_formula_structural   P2O5
_chemical_formula_sum   'P8 O20'
_cell_volume   405.21192807
_cell_formula_units_Z   4
loop_
 _symmetry_equiv_pos_site_id
 _symmetry_equiv_pos_as_xyz
  1  'x, y, z'
loop_
 _atom_site_type_symbol
 _atom_site_label
 _atom_site_symmetry_multiplicity
 _atom_site_fract_x
 _atom_site_fract_y
 _atom_site_fract_z
 _atom_site_occupancy
  P  P0  1  0.81158943  0.12687180  0.94398697  1
  P  P1  1  0.44398697  0.62687180  0.31158943  1
  P  P2  1  0.63164567  0.63164567  0.63164567  1
  P  P3  1  0.62687180  0.31158943  0.44398697  1
  P  P4  1  0.13164567  0.13164567  0.13164567  1
  P  P5  1  0.12687180  0.94398697  0.81158943  1
  P  P6  1  0.94398697  0.81158943  0.12687180  1
  P  P7  1  0.31158943  0.44398697  0.62687180  1
  O  O0  1  0.56237456  0.72704135  0.44794313  1
  O  O1  1  0.56038033  0.44317645  0.28089707  1
  O  O2  1  0.06038033  0.78089707  0.94317645  1
  O  O3  1  0.94794313  0.22704135  0.06237456  1
  O  O4  1  0.73842767  0.73842767  0.73842767  1
  O  O5  1  0.65123611  0.23006533  0.89456513  1
  O  O6  1  0.22704135  0.06237456  0.94794313  1
  O  O7  1  0.23006533  0.89456513  0.65123611  1
  O  O8  1  0.44317645  0.28089707  0.56038033  1
  O  O9  1  0.72704135  0.44794313  0.56237456  1
  O  O10  1  0.89456513  0.65123611  0.23006533  1
  O  O11  1  0.28089707  0.56038033  0.44317645  1
  O  O12  1  0.39456513  0.73006533  0.15123611  1
  O  O13  1  0.23842767  0.23842767  0.23842767  1
  O  O14  1  0.06237456  0.94794313  0.22704135  1
  O  O15  1  0.94317645  0.06038033  0.78089707  1
  O  O16  1  0.15123611  0.39456513  0.73006533  1
  O  O17  1  0.73006533  0.15123611  0.39456513  1
  O  O18  1  0.78089707  0.94317645  0.06038033  1
  O  O19  1  0.44794313  0.56237456  0.72704135  1
loop_
_geom_bond_atom_site_label_1
_geom_bond_atom_site_label_2
_geom_bond_distance
_geom_bond_site_symmetry_2
O0 P2 1.598580 1_555
O0 P1 1.598886 1_555
O1 P1 1.595826 1_555
O1 P3 1.597482 1_555
O2 P6 1.595826 1_456
O2 P5 1.597482 1_555
O3 P4 1.598580 1_655
O3 P0 1.598886 1_554
O4 P2 1.433477 1_555
O5 P0 1.434666 1_555
O6 P4 1.598580 1_556
O6 P5 1.598886 1_545
O7 P5 1.434666 1_555
O8 P3 1.595826 1_555
O8 P7 1.597482 1_555
O9 P2 1.598580 1_555
O9 P3 1.598886 1_555
O10 P6 1.434666 1_555
O11 P7 1.595826 1_555
O11 P1 1.597482 1_555
O12 P1 1.434666 1_555
O13 P4 1.433477 1_555
O14 P4 1.598580 1_565
O14 P6 1.598886 1_455
O15 P5 1.595826 1_645
O15 P0 1.597482 1_555
O16 P7 1.434666 1_555
O17 P3 1.434666 1_555
O18 P0 1.595826 1_564
O18 P6 1.597482 1_555
O19 P2 1.598580 1_555
O19 P7 1.598886 1_555
