# generated using pymatgen
data_Yb2Au
_symmetry_space_group_name_H-M   'P 1'
_cell_length_a   4.56493100
_cell_length_b   7.80111600
_cell_length_c   9.41600900
_cell_angle_alpha   90.00000000
_cell_angle_beta   90.00000000
_cell_angle_gamma   90.00000000
_symmetry_Int_Tables_number   1
_chemical_formula_structural   Yb2Au
_chemical_formula_sum   'Yb8 Au4'
_cell_volume   335.31873428
_cell_formula_units_Z   4
loop_
 _symmetry_equiv_pos_site_id
 _symmetry_equiv_pos_as_xyz
  1  'x, y, z'
loop_
 _atom_site_type_symbol
 _atom_site_label
 _atom_site_symmetry_multiplicity
 _atom_site_fract_x
 _atom_site_fract_y
 _atom_site_fract_z
 _atom_site_occupancy
  Yb  Yb0  1  0.75000000  0.14565200  0.06993700  1
  Yb  Yb1  1  0.75000000  0.02159500  0.66775500  1
  Yb  Yb2  1  0.25000000  0.35434800  0.56993700  1
  Yb  Yb3  1  0.25000000  0.47840500  0.16775500  1
  Yb  Yb4  1  0.25000000  0.97840500  0.33224500  1
  Yb  Yb5  1  0.75000000  0.64565200  0.43006300  1
  Yb  Yb6  1  0.25000000  0.85434800  0.93006300  1
  Yb  Yb7  1  0.75000000  0.52159500  0.83224500  1
  Au  Au0  1  0.75000000  0.25153700  0.38346200  1
  Au  Au1  1  0.75000000  0.75153700  0.11653800  1
  Au  Au2  1  0.25000000  0.74846300  0.61653800  1
  Au  Au3  1  0.25000000  0.24846300  0.88346200  1
loop_
_geom_bond_atom_site_label_1
_geom_bond_atom_site_label_2
_geom_bond_distance
_geom_bond_site_symmetry_2
Au0 Yb2 2.989302 1_555
Au0 Yb2 2.989302 1_655
Au0 Yb0 3.065538 1_555
Au0 Yb5 3.105691 1_555
Au0 Yb4 3.159470 1_645
Au0 Yb4 3.159470 1_545
Au0 Yb1 3.222353 1_555
Au0 Yb3 3.530905 1_555
Au0 Yb3 3.530905 1_655
Au1 Yb6 2.989302 1_554
Au1 Yb6 2.989302 1_654
Au1 Yb5 3.065538 1_555
Au1 Yb0 3.105691 1_565
Au1 Yb3 3.159470 1_555
Au1 Yb3 3.159470 1_655
Au1 Yb7 3.222353 1_554
Au1 Yb4 3.530905 1_555
Au1 Yb4 3.530905 1_655
Au2 Yb5 2.989302 1_555
Au2 Yb5 2.989302 1_455
Au2 Yb6 3.065538 1_555
Au2 Yb2 3.105691 1_555
Au2 Yb1 3.159470 1_465
Au2 Yb1 3.159470 1_565
Au2 Yb4 3.222353 1_555
Au2 Yb7 3.530905 1_455
Au2 Yb7 3.530905 1_555
Au3 Yb0 2.989302 1_456
Au3 Yb0 2.989302 1_556
Au3 Yb2 3.065538 1_555
Au3 Yb6 3.105691 1_545
Au3 Yb7 3.159470 1_455
Au3 Yb7 3.159470 1_555
Au3 Yb3 3.222353 1_556
Au3 Yb1 3.530905 1_455
Au3 Yb1 3.530905 1_555
