# generated using pymatgen
data_Sr2Cu(BiO3)2
_symmetry_space_group_name_H-M   'P 1'
_cell_length_a   13.01880065
_cell_length_b   13.01880065
_cell_length_c   5.13305200
_cell_angle_alpha   90.00000000
_cell_angle_beta   90.00000000
_cell_angle_gamma   155.49730522
_symmetry_Int_Tables_number   1
_chemical_formula_structural   Sr2Cu(BiO3)2
_chemical_formula_sum   'Sr4 Cu2 Bi4 O12'
_cell_volume   360.81899668
_cell_formula_units_Z   2
loop_
 _symmetry_equiv_pos_site_id
 _symmetry_equiv_pos_as_xyz
  1  'x, y, z'
loop_
 _atom_site_type_symbol
 _atom_site_label
 _atom_site_symmetry_multiplicity
 _atom_site_fract_x
 _atom_site_fract_y
 _atom_site_fract_z
 _atom_site_occupancy
  Sr  Sr0  1  0.57465100  0.93353600  0.50000000  1
  Sr  Sr1  1  0.93353600  0.57465100  0.00000000  1
  Sr  Sr2  1  0.06646400  0.42534900  0.00000000  1
  Sr  Sr3  1  0.42534900  0.06646400  0.50000000  1
  Cu  Cu0  1  0.50000000  0.00000000  0.00000000  1
  Cu  Cu1  1  0.00000000  0.50000000  0.50000000  1
  Bi  Bi0  1  0.66270400  0.79042400  0.00000000  1
  Bi  Bi1  1  0.20957600  0.33729600  0.50000000  1
  Bi  Bi2  1  0.79042400  0.66270400  0.50000000  1
  Bi  Bi3  1  0.33729600  0.20957600  0.00000000  1
  O  O0  1  0.74816400  0.25183600  0.25000000  1
  O  O1  1  0.74816400  0.25183600  0.75000000  1
  O  O2  1  0.59927100  0.73027800  0.50000000  1
  O  O3  1  0.62427600  0.91320900  0.00000000  1
  O  O4  1  0.08679100  0.37572400  0.50000000  1
  O  O5  1  0.26972200  0.40072900  0.00000000  1
  O  O6  1  0.37572400  0.08679100  0.00000000  1
  O  O7  1  0.25183600  0.74816400  0.25000000  1
  O  O8  1  0.25183600  0.74816400  0.75000000  1
  O  O9  1  0.73027800  0.59927100  0.00000000  1
  O  O10  1  0.91320900  0.62427600  0.50000000  1
  O  O11  1  0.40072900  0.26972200  0.50000000  1
loop_
_geom_bond_atom_site_label_1
_geom_bond_atom_site_label_2
_geom_bond_distance
_geom_bond_site_symmetry_2
Cu0 O7 1.885983 1_545
Cu0 O8 1.885983 1_544
Cu0 O0 1.885983 1_555
Cu0 O1 1.885983 1_554
Cu0 O3 2.687256 1_545
Cu0 O6 2.687256 1_555
Cu1 O0 1.885983 1_455
Cu1 O1 1.885983 1_455
Cu1 O8 1.885983 1_555
Cu1 O7 1.885983 1_555
Cu1 O4 2.687256 1_555
Cu1 O10 2.687256 1_455
Bi0 O3 2.064199 1_555
Bi0 O5 2.162626 1_555
Bi0 O2 2.589471 1_555
Bi0 O2 2.589471 1_554
Bi1 O4 2.064199 1_555
Bi1 O2 2.162626 1_555
Bi1 O5 2.589471 1_555
Bi1 O5 2.589471 1_556
Bi2 O10 2.064199 1_555
Bi2 O11 2.162626 1_555
Bi2 O9 2.589471 1_556
Bi2 O9 2.589471 1_555
Bi3 O6 2.064199 1_555
Bi3 O9 2.162626 1_555
Bi3 O11 2.589471 1_555
Bi3 O11 2.589471 1_554
O0 Sr1 2.583664 1_555
O0 Sr3 2.583664 1_555
O0 Sr0 2.624088 1_545
O0 Sr2 2.624088 1_655
O1 Sr1 2.583664 1_556
O1 Sr3 2.583664 1_555
O1 Sr0 2.624088 1_545
O1 Sr2 2.624088 1_656
O2 Sr0 2.940838 1_555
O3 Sr0 2.717650 1_554
O3 Sr0 2.717650 1_555
O3 Sr2 2.782579 1_665
O3 Sr2 3.022749 1_555
O4 Sr2 2.717650 1_556
O4 Sr2 2.717650 1_555
O4 Sr0 2.782579 1_445
O4 Sr0 3.022749 1_555
O5 Sr2 2.940838 1_555
O6 Sr3 2.717650 1_554
O6 Sr3 2.717650 1_555
O6 Sr1 2.782579 1_445
O6 Sr1 3.022749 1_555
O7 Sr0 2.583664 1_555
O7 Sr2 2.583664 1_555
O7 Sr1 2.624088 1_455
O7 Sr3 2.624088 1_565
O8 Sr0 2.583664 1_555
O8 Sr2 2.583664 1_556
O8 Sr1 2.624088 1_456
O8 Sr3 2.624088 1_565
O9 Sr1 2.940838 1_555
O10 Sr1 2.717650 1_555
O10 Sr1 2.717650 1_556
O10 Sr3 2.782579 1_665
O10 Sr3 3.022749 1_555
O11 Sr3 2.940838 1_555
