# generated using pymatgen
data_TlCu5Se3
_symmetry_space_group_name_H-M   'P 1'
_cell_length_a   12.92435900
_cell_length_b   12.92435900
_cell_length_c   3.94778800
_cell_angle_alpha   90.00000000
_cell_angle_beta   90.00000000
_cell_angle_gamma   90.00000000
_symmetry_Int_Tables_number   1
_chemical_formula_structural   TlCu5Se3
_chemical_formula_sum   'Tl4 Cu20 Se12'
_cell_volume   659.43477907
_cell_formula_units_Z   4
loop_
 _symmetry_equiv_pos_site_id
 _symmetry_equiv_pos_as_xyz
  1  'x, y, z'
loop_
 _atom_site_type_symbol
 _atom_site_label
 _atom_site_symmetry_multiplicity
 _atom_site_fract_x
 _atom_site_fract_y
 _atom_site_fract_z
 _atom_site_occupancy
  Tl  Tl0  1  0.10724500  0.10724500  0.00000000  1
  Tl  Tl1  1  0.60724500  0.39275500  0.50000000  1
  Tl  Tl2  1  0.39275500  0.60724500  0.50000000  1
  Tl  Tl3  1  0.89275500  0.89275500  0.00000000  1
  Cu  Cu0  1  0.18010100  0.81989900  0.00000000  1
  Cu  Cu1  1  0.31989900  0.31989900  0.50000000  1
  Cu  Cu2  1  0.68010100  0.68010100  0.50000000  1
  Cu  Cu3  1  0.81989900  0.18010100  0.00000000  1
  Cu  Cu4  1  0.42072500  0.21277100  0.00000000  1
  Cu  Cu5  1  0.71277100  0.07927500  0.50000000  1
  Cu  Cu6  1  0.28722900  0.92072500  0.50000000  1
  Cu  Cu7  1  0.57927500  0.78722900  0.00000000  1
  Cu  Cu8  1  0.07927500  0.71277100  0.50000000  1
  Cu  Cu9  1  0.92072500  0.28722900  0.50000000  1
  Cu  Cu10  1  0.21277100  0.42072500  0.00000000  1
  Cu  Cu11  1  0.78722900  0.57927500  0.00000000  1
  Cu  Cu12  1  0.39712400  0.01423000  0.00000000  1
  Cu  Cu13  1  0.51423000  0.10287600  0.50000000  1
  Cu  Cu14  1  0.48577000  0.89712400  0.50000000  1
  Cu  Cu15  1  0.60287600  0.98577000  0.00000000  1
  Cu  Cu16  1  0.10287600  0.51423000  0.50000000  1
  Cu  Cu17  1  0.89712400  0.48577000  0.50000000  1
  Cu  Cu18  1  0.01423000  0.39712400  0.00000000  1
  Cu  Cu19  1  0.98577000  0.60287600  0.00000000  1
  Se  Se0  1  0.39886800  0.39886800  0.00000000  1
  Se  Se1  1  0.89886800  0.10113200  0.50000000  1
  Se  Se2  1  0.10113200  0.89886800  0.50000000  1
  Se  Se3  1  0.60113200  0.60113200  0.00000000  1
  Se  Se4  1  0.17501600  0.61824400  0.00000000  1
  Se  Se5  1  0.11824400  0.32498400  0.50000000  1
  Se  Se6  1  0.88175600  0.67501600  0.50000000  1
  Se  Se7  1  0.82498400  0.38175600  0.00000000  1
  Se  Se8  1  0.32498400  0.11824400  0.50000000  1
  Se  Se9  1  0.67501600  0.88175600  0.50000000  1
  Se  Se10  1  0.61824400  0.17501600  0.00000000  1
  Se  Se11  1  0.38175600  0.82498400  0.00000000  1
loop_
_geom_bond_atom_site_label_1
_geom_bond_atom_site_label_2
_geom_bond_distance
_geom_bond_site_symmetry_2
Cu0 Se2 2.445323 1_554
Cu0 Se2 2.445323 1_555
Cu0 Se11 2.607090 1_555
Cu0 Se4 2.607090 1_555
Cu1 Se0 2.445323 1_556
Cu1 Se0 2.445323 1_555
Cu1 Se5 2.607090 1_555
Cu1 Se8 2.607090 1_555
Cu2 Se3 2.445323 1_556
Cu2 Se3 2.445323 1_555
Cu2 Se6 2.607090 1_555
Cu2 Se9 2.607090 1_555
Cu3 Se1 2.445323 1_555
Cu3 Se1 2.445323 1_554
Cu3 Se7 2.607090 1_555
Cu3 Se10 2.607090 1_555
Cu4 Se0 2.421717 1_555
Cu4 Se10 2.599024 1_555
Cu4 Se8 2.630579 1_554
Cu4 Se8 2.630579 1_555
Cu5 Se1 2.421717 1_555
Cu5 Se9 2.599024 1_545
Cu5 Se10 2.630579 1_555
Cu5 Se10 2.630579 1_556
Cu6 Se2 2.421717 1_555
Cu6 Se8 2.599024 1_565
Cu6 Se11 2.630579 1_556
Cu6 Se11 2.630579 1_555
Cu7 Se3 2.421717 1_555
Cu7 Se11 2.599024 1_555
Cu7 Se9 2.630579 1_555
Cu7 Se9 2.630579 1_554
Cu8 Se2 2.421717 1_555
Cu8 Se6 2.599024 1_455
Cu8 Se4 2.630579 1_556
Cu8 Se4 2.630579 1_555
Cu9 Se1 2.421717 1_555
Cu9 Se5 2.599024 1_655
Cu9 Se7 2.630579 1_555
Cu9 Se7 2.630579 1_556
Cu10 Se0 2.421717 1_555
Cu10 Se4 2.599024 1_555
Cu10 Se5 2.630579 1_554
Cu10 Se5 2.630579 1_555
Cu11 Se3 2.421717 1_555
Cu11 Se7 2.599024 1_555
Cu11 Se6 2.630579 1_555
Cu11 Se6 2.630579 1_554
Cu12 Se11 2.453935 1_545
Cu12 Se8 2.563735 1_554
Cu12 Se8 2.563735 1_555
Cu13 Se8 2.453935 1_555
Cu13 Se10 2.563735 1_555
Cu13 Se10 2.563735 1_556
Cu14 Se9 2.453935 1_555
Cu14 Se11 2.563735 1_556
Cu14 Se11 2.563735 1_555
Cu15 Se10 2.453935 1_565
Cu15 Se9 2.563735 1_554
Cu15 Se9 2.563735 1_555
Cu16 Se5 2.453935 1_555
Cu16 Se4 2.563735 1_556
Cu16 Se4 2.563735 1_555
Cu17 Se6 2.453935 1_555
Cu17 Se7 2.563735 1_555
Cu17 Se7 2.563735 1_556
Cu18 Se7 2.453935 1_455
Cu18 Se5 2.563735 1_555
Cu18 Se5 2.563735 1_554
Cu19 Se4 2.453935 1_655
Cu19 Se6 2.563735 1_554
Cu19 Se6 2.563735 1_555
Se0 Tl1 3.339985 1_555
Se0 Tl2 3.339985 1_554
Se0 Tl2 3.339985 1_555
Se0 Tl1 3.339985 1_554
Se1 Tl3 3.339985 1_546
Se1 Tl0 3.339985 1_656
Se1 Tl3 3.339985 1_545
Se1 Tl0 3.339985 1_655
Se2 Tl0 3.339985 1_566
Se2 Tl3 3.339985 1_456
Se2 Tl3 3.339985 1_455
Se2 Tl0 3.339985 1_565
Se3 Tl2 3.339985 1_555
Se3 Tl1 3.339985 1_554
Se3 Tl1 3.339985 1_555
Se3 Tl2 3.339985 1_554
Se4 Tl2 3.440324 1_554
Se4 Tl2 3.440324 1_555
Se5 Tl0 3.440324 1_555
Se5 Tl0 3.440324 1_556
Se6 Tl3 3.440324 1_555
Se6 Tl3 3.440324 1_556
Se7 Tl1 3.440324 1_554
Se7 Tl1 3.440324 1_555
Se8 Tl0 3.440324 1_555
Se8 Tl0 3.440324 1_556
Se9 Tl3 3.440324 1_555
Se9 Tl3 3.440324 1_556
Se10 Tl1 3.440324 1_554
Se10 Tl1 3.440324 1_555
Se11 Tl2 3.440324 1_554
Se11 Tl2 3.440324 1_555
