# generated using pymatgen
data_Cu5Se2(ClO4)2
_symmetry_space_group_name_H-M   'P 1'
_cell_length_a   8.13736089
_cell_length_b   5.42114034
_cell_length_c   11.08020891
_cell_angle_alpha   80.51505117
_cell_angle_beta   90.00000000
_cell_angle_gamma   90.00000000
_symmetry_Int_Tables_number   1
_chemical_formula_structural   Cu5Se2(ClO4)2
_chemical_formula_sum   'Cu10 Se4 Cl4 O16'
_cell_volume   482.10756357
_cell_formula_units_Z   2
loop_
 _symmetry_equiv_pos_site_id
 _symmetry_equiv_pos_as_xyz
  1  'x, y, z'
loop_
 _atom_site_type_symbol
 _atom_site_label
 _atom_site_symmetry_multiplicity
 _atom_site_fract_x
 _atom_site_fract_y
 _atom_site_fract_z
 _atom_site_occupancy
  Cu  Cu0  1  0.28604894  0.51712152  0.11746260  1
  Cu  Cu1  1  0.92510295  0.47686797  0.12035868  1
  Cu  Cu2  1  0.07489705  0.52313203  0.87964132  1
  Cu  Cu3  1  0.71395106  0.48287848  0.88253740  1
  Cu  Cu4  1  0.42510295  0.52313203  0.37964132  1
  Cu  Cu5  1  0.57489705  0.47686797  0.62035868  1
  Cu  Cu6  1  0.21395106  0.51712152  0.61746260  1
  Cu  Cu7  1  0.78604894  0.48287848  0.38253740  1
  Cu  Cu8  1  0.50000000  -0.00000000  0.50000000  1
  Cu  Cu9  1  0.00000000  -0.00000000  -0.00000000  1
  Se  Se0  1  0.09133105  0.86499666  0.28668385  1
  Se  Se1  1  0.40866895  0.86499666  0.78668385  1
  Se  Se2  1  0.90866895  0.13500334  0.71331615  1
  Se  Se3  1  0.59133105  0.13500334  0.21331615  1
  Cl  Cl0  1  0.65282838  0.72093752  0.02387238  1
  Cl  Cl1  1  0.34717162  0.27906248  0.97612762  1
  Cl  Cl2  1  0.84717162  0.72093752  0.52387238  1
  Cl  Cl3  1  0.15282838  0.27906248  0.47612762  1
  O  O0  1  0.55813572  0.64970971  0.76121844  1
  O  O1  1  0.56709849  0.91998611  0.34125280  1
  O  O2  1  0.23234662  0.71169053  0.75190435  1
  O  O3  1  0.05813572  0.35029029  0.73878156  1
  O  O4  1  0.06709849  0.08001389  0.15874720  1
  O  O5  1  0.94186428  0.64970971  0.26121844  1
  O  O6  1  0.39888013  0.67068933  0.52754205  1
  O  O7  1  0.60111987  0.32931067  0.47245795  1
  O  O8  1  0.43290151  0.08001389  0.65874720  1
  O  O9  1  0.93290151  0.91998611  0.84125280  1
  O  O10  1  0.26765338  0.71169053  0.25190435  1
  O  O11  1  0.44186428  0.35029029  0.23878156  1
  O  O12  1  0.76765338  0.28830947  0.24809565  1
  O  O13  1  0.73234662  0.28830947  0.74809565  1
  O  O14  1  0.89888013  0.32931067  0.97245795  1
  O  O15  1  0.10111987  0.67068933  0.02754205  1
loop_
_geom_bond_atom_site_label_1
_geom_bond_atom_site_label_2
_geom_bond_distance
_geom_bond_site_symmetry_2
Cu0 O15 1.917530 1_555
Cu0 O11 1.957524 1_555
Cu0 O10 1.967706 1_555
Cu1 O14 1.950136 1_554
Cu1 O5 1.953077 1_555
Cu1 O15 1.963946 1_655
Cu1 O12 2.052518 1_555
Cu1 O4 2.417223 1_655
Cu2 O15 1.950136 1_556
Cu2 O3 1.953077 1_555
Cu2 O14 1.963946 1_455
Cu2 O2 2.052518 1_555
Cu2 O9 2.417223 1_455
Cu3 O14 1.917530 1_555
Cu3 O0 1.957524 1_555
Cu3 O13 1.967706 1_555
Cu4 O6 1.950136 1_555
Cu4 O11 1.953077 1_555
Cu4 O7 1.963946 1_555
Cu4 O10 2.052518 1_555
Cu4 O1 2.417223 1_555
Cu5 O7 1.950136 1_555
Cu5 O0 1.953077 1_555
Cu5 O6 1.963946 1_555
Cu5 O13 2.052518 1_555
Cu5 O8 2.417223 1_555
Cu6 O6 1.917530 1_555
Cu6 O3 1.957524 1_555
Cu6 O2 1.967706 1_555
Cu7 O7 1.917530 1_555
Cu7 O5 1.957524 1_555
Cu7 O12 1.967706 1_555
Cu8 O6 1.943640 1_545
Cu8 O7 1.943640 1_555
Cu8 O1 1.957459 1_545
Cu8 O8 1.957459 1_555
Cu9 O15 1.943640 1_545
Cu9 O14 1.943640 1_454
Cu9 O9 1.957459 1_444
Cu9 O4 1.957459 1_555
Cl0 Cu3 2.243082 1_554
Cl0 Cu1 2.708561 1_555
Cl1 Cu0 2.243082 1_556
Cl1 Cu2 2.708561 1_555
Cl2 Cu7 2.243082 1_555
Cl2 Cu5 2.708561 1_555
Cl3 Cu6 2.243082 1_555
Cl3 Cu4 2.708561 1_555
O0 Se1 1.740567 1_555
O1 Se3 1.691894 1_565
O2 Se1 1.733039 1_555
O3 Se2 1.740567 1_455
O4 Se0 1.691894 1_545
O5 Se0 1.740567 1_655
O8 Se1 1.691894 1_545
O9 Se2 1.691894 1_565
O10 Se0 1.733039 1_555
O11 Se3 1.740567 1_555
O12 Se3 1.733039 1_555
O13 Se2 1.733039 1_555
