# generated using pymatgen
data_NaNp3F13
_symmetry_space_group_name_H-M   'P 1'
_cell_length_a   8.16508832
_cell_length_b   8.16508832
_cell_length_c   16.43659000
_cell_angle_alpha   90.00000000
_cell_angle_beta   90.00000000
_cell_angle_gamma   120.00000258
_symmetry_Int_Tables_number   1
_chemical_formula_structural   NaNp3F13
_chemical_formula_sum   'Na4 Np12 F52'
_cell_volume   948.99541874
_cell_formula_units_Z   4
loop_
 _symmetry_equiv_pos_site_id
 _symmetry_equiv_pos_as_xyz
  1  'x, y, z'
loop_
 _atom_site_type_symbol
 _atom_site_label
 _atom_site_symmetry_multiplicity
 _atom_site_fract_x
 _atom_site_fract_y
 _atom_site_fract_z
 _atom_site_occupancy
  Na  Na0  1  0.66666700  0.33333300  0.12435600  1
  Na  Na1  1  0.33333300  0.66666700  0.62435600  1
  Na  Na2  1  0.33333300  0.66666700  0.87564400  1
  Na  Na3  1  0.66666700  0.33333300  0.37564400  1
  Np  Np0  1  0.83381700  0.66763300  0.88689500  1
  Np  Np1  1  0.16618300  0.83381700  0.11310500  1
  Np  Np2  1  0.66763300  0.83381700  0.11310500  1
  Np  Np3  1  0.33236700  0.16618300  0.88689500  1
  Np  Np4  1  0.83381700  0.16618300  0.88689500  1
  Np  Np5  1  0.16618300  0.33236700  0.11310500  1
  Np  Np6  1  0.83381700  0.16618300  0.61310500  1
  Np  Np7  1  0.16618300  0.33236700  0.38689500  1
  Np  Np8  1  0.33236700  0.16618300  0.61310500  1
  Np  Np9  1  0.16618300  0.83381700  0.38689500  1
  Np  Np10  1  0.66763300  0.83381700  0.38689500  1
  Np  Np11  1  0.83381700  0.66763300  0.61310500  1
  F  F0  1  0.32577100  0.32577100  0.00000000  1
  F  F1  1  0.00000000  0.67422900  0.00000000  1
  F  F2  1  0.00000000  0.67422900  0.50000000  1
  F  F3  1  0.91906200  0.45953100  0.65880700  1
  F  F4  1  0.33333300  0.66666700  0.75000000  1
  F  F5  1  0.91906200  0.45953100  0.84119300  1
  F  F6  1  0.32577100  0.00000000  0.00000000  1
  F  F7  1  0.85786200  0.14213800  0.75000000  1
  F  F8  1  0.08093800  0.54046900  0.34119300  1
  F  F9  1  0.33333300  0.66666700  0.04889400  1
  F  F10  1  0.67422900  0.67422900  0.50000000  1
  F  F11  1  0.71572400  0.85786200  0.25000000  1
  F  F12  1  0.28427600  0.14213800  0.75000000  1
  F  F13  1  0.15698600  0.84301400  0.85981600  1
  F  F14  1  0.66666700  0.33333300  0.95110600  1
  F  F15  1  0.14213800  0.28427600  0.25000000  1
  F  F16  1  0.00000000  0.32577100  0.00000000  1
  F  F17  1  0.68602800  0.84301400  0.85981600  1
  F  F18  1  0.14213800  0.85786200  0.25000000  1
  F  F19  1  0.15698600  0.84301400  0.64018400  1
  F  F20  1  0.00000000  0.00000000  0.07746200  1
  F  F21  1  0.84301400  0.15698600  0.35981600  1
  F  F22  1  0.84301400  0.15698600  0.14018400  1
  F  F23  1  0.33333300  0.66666700  0.45110600  1
  F  F24  1  0.54046900  0.45953100  0.65880700  1
  F  F25  1  0.45953100  0.91906200  0.34119300  1
  F  F26  1  0.45953100  0.54046900  0.34119300  1
  F  F27  1  0.84301400  0.68602800  0.14018400  1
  F  F28  1  0.54046900  0.45953100  0.84119300  1
  F  F29  1  0.00000000  0.00000000  0.42253800  1
  F  F30  1  0.31397200  0.15698600  0.14018400  1
  F  F31  1  0.00000000  0.00000000  0.92253800  1
  F  F32  1  0.45953100  0.54046900  0.15880700  1
  F  F33  1  0.32577100  0.32577100  0.50000000  1
  F  F34  1  0.00000000  0.00000000  0.57746200  1
  F  F35  1  0.08093800  0.54046900  0.15880700  1
  F  F36  1  0.15698600  0.31397200  0.85981600  1
  F  F37  1  0.67422900  0.00000000  0.00000000  1
  F  F38  1  0.66666700  0.33333300  0.54889400  1
  F  F39  1  0.15698600  0.31397200  0.64018400  1
  F  F40  1  0.54046900  0.08093800  0.65880700  1
  F  F41  1  0.67422900  0.00000000  0.50000000  1
  F  F42  1  0.68602800  0.84301400  0.64018400  1
  F  F43  1  0.54046900  0.08093800  0.84119300  1
  F  F44  1  0.32577100  0.00000000  0.50000000  1
  F  F45  1  0.67422900  0.67422900  0.00000000  1
  F  F46  1  0.00000000  0.32577100  0.50000000  1
  F  F47  1  0.84301400  0.68602800  0.35981600  1
  F  F48  1  0.66666700  0.33333300  0.25000000  1
  F  F49  1  0.31397200  0.15698600  0.35981600  1
  F  F50  1  0.85786200  0.71572400  0.75000000  1
  F  F51  1  0.45953100  0.91906200  0.15880700  1
loop_
_geom_bond_atom_site_label_1
_geom_bond_atom_site_label_2
_geom_bond_distance
_geom_bond_site_symmetry_2
F0 Np5 2.286291 1_555
F0 Np3 2.286291 1_554
F1 Np0 2.286286 1_454
F1 Np1 2.286288 1_555
F2 Np11 2.286286 1_455
F2 Np9 2.286288 1_555
F3 Np11 2.262433 1_555
F3 Np6 2.262440 1_555
F4 Na2 2.065159 1_555
F4 Na1 2.065159 1_555
F5 Np0 2.262433 1_555
F5 Np4 2.262440 1_555
F6 Np3 2.286286 1_554
F6 Np1 2.286288 1_545
F7 Np4 2.275638 1_555
F7 Np6 2.275638 1_555
F8 Np7 2.262433 1_555
F8 Np9 2.262440 1_555
F9 Np2 2.588799 1_555
F9 Np5 2.588799 1_555
F9 Np1 2.588799 1_555
F9 Na2 2.847639 1_554
F10 Np10 2.286291 1_555
F10 Np11 2.286291 1_555
F11 Np10 2.275639 1_555
F11 Np2 2.275639 1_555
F12 Np3 2.275639 1_555
F12 Np8 2.275639 1_555
F13 Np3 2.330849 1_565
F13 Np0 2.330849 1_455
F13 Na2 2.507493 1_555
F14 Np0 2.588799 1_555
F14 Np3 2.588799 1_555
F14 Np4 2.588799 1_555
F14 Na0 2.847639 1_556
F15 Np7 2.275639 1_555
F15 Np5 2.275639 1_555
F16 Np5 2.286286 1_555
F16 Np4 2.286288 1_454
F17 Np4 2.330849 1_565
F17 Np0 2.330856 1_555
F17 Na2 2.507500 1_555
F18 Np1 2.275638 1_555
F18 Np9 2.275638 1_555
F19 Np8 2.330849 1_565
F19 Np11 2.330849 1_455
F19 Na1 2.507493 1_555
F20 Np1 2.422136 1_545
F20 Np5 2.422143 1_555
F20 Np2 2.422143 1_445
F21 Np7 2.330849 1_655
F21 Np10 2.330849 1_545
F21 Na3 2.507493 1_555
F22 Np5 2.330849 1_655
F22 Np2 2.330849 1_545
F22 Na0 2.507493 1_555
F23 Np10 2.588799 1_555
F23 Np7 2.588799 1_555
F23 Np9 2.588799 1_555
F23 Na1 2.847639 1_555
F24 Np11 2.262438 1_555
F24 Np8 2.262438 1_555
F25 Np10 2.262433 1_555
F25 Np9 2.262440 1_555
F26 Np10 2.262438 1_555
F26 Np7 2.262438 1_555
F27 Np1 2.330849 1_655
F27 Np2 2.330856 1_555
F27 Na0 2.507500 1_555
F28 Np0 2.262438 1_555
F28 Np3 2.262438 1_555
F29 Np9 2.422136 1_545
F29 Np7 2.422143 1_555
F29 Np10 2.422143 1_445
F30 Np1 2.330849 1_545
F30 Np5 2.330856 1_555
F30 Na0 2.507500 1_555
F31 Np4 2.422136 1_455
F31 Np3 2.422143 1_555
F31 Np0 2.422143 1_445
F32 Np2 2.262438 1_555
F32 Np5 2.262438 1_555
F33 Np7 2.286291 1_555
F33 Np8 2.286291 1_555
F34 Np6 2.422136 1_455
F34 Np8 2.422143 1_555
F34 Np11 2.422143 1_445
F35 Np5 2.262433 1_555
F35 Np1 2.262440 1_555
F36 Np4 2.330849 1_455
F36 Np3 2.330856 1_555
F36 Na2 2.507500 1_555
F37 Np2 2.286286 1_545
F37 Np4 2.286288 1_554
F38 Np11 2.588799 1_555
F38 Np8 2.588799 1_555
F38 Np6 2.588799 1_555
F38 Na3 2.847639 1_555
F39 Np6 2.330849 1_455
F39 Np8 2.330856 1_555
F39 Na1 2.507500 1_555
F40 Np8 2.262433 1_555
F40 Np6 2.262440 1_555
F41 Np10 2.286286 1_545
F41 Np6 2.286288 1_555
F42 Np6 2.330849 1_565
F42 Np11 2.330856 1_555
F42 Na1 2.507500 1_555
F43 Np3 2.262433 1_555
F43 Np4 2.262440 1_555
F44 Np8 2.286286 1_555
F44 Np9 2.286288 1_545
F45 Np0 2.286291 1_554
F45 Np2 2.286291 1_555
F46 Np7 2.286286 1_555
F46 Np6 2.286288 1_455
F47 Np9 2.330849 1_655
F47 Np10 2.330856 1_555
F47 Na3 2.507500 1_555
F48 Na3 2.065159 1_555
F48 Na0 2.065159 1_555
F49 Np9 2.330849 1_545
F49 Np7 2.330856 1_555
F49 Na3 2.507500 1_555
F50 Np11 2.275639 1_555
F50 Np0 2.275639 1_555
F51 Np2 2.262433 1_555
F51 Np1 2.262440 1_555
