# generated using pymatgen
data_KGe2BO6
_symmetry_space_group_name_H-M   'P 1'
_cell_length_a   4.86859600
_cell_length_b   10.33975300
_cell_length_c   10.86767000
_cell_angle_alpha   90.00000000
_cell_angle_beta   90.00000000
_cell_angle_gamma   90.00000000
_symmetry_Int_Tables_number   1
_chemical_formula_structural   KGe2BO6
_chemical_formula_sum   'K4 Ge8 B4 O24'
_cell_volume   547.07937827
_cell_formula_units_Z   4
loop_
 _symmetry_equiv_pos_site_id
 _symmetry_equiv_pos_as_xyz
  1  'x, y, z'
loop_
 _atom_site_type_symbol
 _atom_site_label
 _atom_site_symmetry_multiplicity
 _atom_site_fract_x
 _atom_site_fract_y
 _atom_site_fract_z
 _atom_site_occupancy
  K  K0  1  0.30662300  0.53064000  0.18657300  1
  K  K1  1  0.19337700  0.46936000  0.68657300  1
  K  K2  1  0.69337700  0.03064000  0.31342700  1
  K  K3  1  0.80662300  0.96936000  0.81342700  1
  Ge  Ge0  1  0.73015700  0.30168500  0.91956200  1
  Ge  Ge1  1  0.23015700  0.19831500  0.08043800  1
  Ge  Ge2  1  0.76984300  0.69831500  0.41956200  1
  Ge  Ge3  1  0.79951200  0.61516600  0.93326600  1
  Ge  Ge4  1  0.26984300  0.80168500  0.58043800  1
  Ge  Ge5  1  0.70048800  0.38483400  0.43326600  1
  Ge  Ge6  1  0.29951200  0.88483400  0.06673400  1
  Ge  Ge7  1  0.20048800  0.11516600  0.56673400  1
  B  B0  1  0.19502100  0.26568500  0.34249800  1
  B  B1  1  0.30497900  0.73431500  0.84249800  1
  B  B2  1  0.69502100  0.23431500  0.65750200  1
  B  B3  1  0.80497900  0.76568500  0.15750200  1
  O  O0  1  0.07754800  0.25075700  0.21645200  1
  O  O1  1  0.52809200  0.81872600  0.46580000  1
  O  O2  1  0.35707700  0.85897100  0.90792300  1
  O  O3  1  0.00535900  0.70781600  0.83312400  1
  O  O4  1  0.94411900  0.87677100  0.09825000  1
  O  O5  1  0.64292300  0.35897100  0.59207700  1
  O  O6  1  0.99464100  0.20781600  0.66687600  1
  O  O7  1  0.92245200  0.75075700  0.28354800  1
  O  O8  1  0.42245200  0.74924300  0.71645200  1
  O  O9  1  0.55588100  0.12322900  0.59825000  1
  O  O10  1  0.02809200  0.68127400  0.53420000  1
  O  O11  1  0.50535900  0.79218400  0.16687600  1
  O  O12  1  0.09407700  0.95078200  0.59210000  1
  O  O13  1  0.44411900  0.62322900  0.90175000  1
  O  O14  1  0.05588100  0.37677100  0.40175000  1
  O  O15  1  0.14292300  0.14102900  0.40792300  1
  O  O16  1  0.49464100  0.29218400  0.33312400  1
  O  O17  1  0.97190800  0.18127400  0.96580000  1
  O  O18  1  0.90592300  0.45078200  0.90790000  1
  O  O19  1  0.85707700  0.64102900  0.09207700  1
  O  O20  1  0.40592300  0.04921800  0.09210000  1
  O  O21  1  0.59407700  0.54921800  0.40790000  1
  O  O22  1  0.57754800  0.24924300  0.78354800  1
  O  O23  1  0.47190800  0.31872600  0.03420000  1
loop_
_geom_bond_atom_site_label_1
_geom_bond_atom_site_label_2
_geom_bond_distance
_geom_bond_site_symmetry_2
K0 O19 2.673506 1_455
K0 O21 2.789445 1_555
K0 O23 2.861953 1_555
K0 O11 2.880147 1_555
K0 O16 3.074668 1_555
K0 O14 3.080567 1_555
K0 O19 3.088605 1_555
K0 O0 3.118342 1_555
K0 O7 3.128731 1_455
K0 O13 3.308458 1_554
K1 O5 2.673506 1_555
K1 O18 2.789445 1_455
K1 O10 2.861953 1_555
K1 O6 2.880147 1_455
K1 O3 3.074668 1_555
K1 O13 3.080567 1_555
K1 O5 3.088605 1_455
K1 O8 3.118342 1_555
K1 O22 3.128731 1_555
K1 O14 3.308458 1_555
K2 O15 2.673506 1_655
K2 O20 2.789445 1_555
K2 O1 2.861953 1_545
K2 O16 2.880147 1_555
K2 O11 3.074668 1_545
K2 O4 3.080567 1_545
K2 O15 3.088605 1_555
K2 O7 3.118342 1_545
K2 O0 3.128731 1_655
K2 O9 3.308458 1_555
K3 O2 2.673506 1_555
K3 O12 2.789445 1_655
K3 O17 2.861953 1_565
K3 O3 2.880147 1_655
K3 O6 3.074668 1_565
K3 O9 3.080567 1_565
K3 O2 3.088605 1_655
K3 O22 3.118342 1_565
K3 O8 3.128731 1_555
K3 O4 3.308458 1_556
Ge0 O22 1.740977 1_555
Ge0 O18 1.767754 1_555
Ge0 O23 1.778767 1_556
Ge0 O17 1.785464 1_555
Ge1 O0 1.740977 1_555
Ge1 O20 1.767754 1_555
Ge1 O17 1.778767 1_454
Ge1 O23 1.785464 1_555
Ge2 O7 1.740977 1_555
Ge2 O21 1.767754 1_555
Ge2 O10 1.778767 1_655
Ge2 O1 1.785464 1_555
Ge3 O3 1.762532 1_655
Ge3 O13 1.765808 1_555
Ge3 O19 1.768844 1_556
Ge3 O18 1.798149 1_555
Ge4 O8 1.740977 1_555
Ge4 O12 1.767754 1_555
Ge4 O1 1.778767 1_555
Ge4 O10 1.785464 1_555
Ge5 O16 1.762532 1_555
Ge5 O14 1.765808 1_655
Ge5 O5 1.768844 1_555
Ge5 O21 1.798149 1_555
Ge6 O11 1.762532 1_555
Ge6 O4 1.765808 1_455
Ge6 O2 1.768844 1_554
Ge6 O20 1.798149 1_565
Ge7 O6 1.762532 1_455
Ge7 O9 1.765808 1_555
Ge7 O15 1.768844 1_555
Ge7 O12 1.798149 1_545
B0 O14 1.480820 1_555
B0 O16 1.487730 1_555
B0 O0 1.492431 1_555
B0 O15 1.493712 1_555
B1 O13 1.480820 1_555
B1 O3 1.487730 1_555
B1 O8 1.492431 1_555
B1 O2 1.493712 1_555
B2 O9 1.480820 1_555
B2 O6 1.487730 1_555
B2 O22 1.492431 1_555
B2 O5 1.493712 1_555
B3 O4 1.480820 1_555
B3 O11 1.487730 1_555
B3 O7 1.492431 1_555
B3 O19 1.493712 1_555
