# generated using pymatgen
data_H8C3O2
_symmetry_space_group_name_H-M   'P 1'
_cell_length_a   8.20924900
_cell_length_b   6.32754500
_cell_length_c   9.71682072
_cell_angle_alpha   69.45847325
_cell_angle_beta   90.00000000
_cell_angle_gamma   90.00000000
_symmetry_Int_Tables_number   1
_chemical_formula_structural   H8C3O2
_chemical_formula_sum   'H32 C12 O8'
_cell_volume   472.64239064
_cell_formula_units_Z   4
loop_
 _symmetry_equiv_pos_site_id
 _symmetry_equiv_pos_as_xyz
  1  'x, y, z'
loop_
 _atom_site_type_symbol
 _atom_site_label
 _atom_site_symmetry_multiplicity
 _atom_site_fract_x
 _atom_site_fract_y
 _atom_site_fract_z
 _atom_site_occupancy
  H  H0  1  0.78174000  0.88917500  0.98711000  1
  H  H1  1  0.25948900  0.68662100  0.66317500  1
  H  H2  1  0.20590100  0.35558600  0.06444900  1
  H  H3  1  0.08559000  0.96840000  0.39148400  1
  H  H4  1  0.06699300  0.62648500  0.76226500  1
  H  H5  1  0.79409900  0.64441400  0.93555100  1
  H  H6  1  0.54185900  0.11895600  0.26066500  1
  H  H7  1  0.70590100  0.64441400  0.43555100  1
  H  H8  1  0.45814100  0.88104400  0.73933500  1
  H  H9  1  0.52719400  0.31811700  0.07695000  1
  H  H10  1  0.28174000  0.11082500  0.51289000  1
  H  H11  1  0.58559000  0.03160000  0.10851600  1
  H  H12  1  0.29409900  0.35558600  0.56444900  1
  H  H13  1  0.21826000  0.11082500  0.01289000  1
  H  H14  1  0.04422600  0.29230900  0.96088300  1
  H  H15  1  0.43300700  0.62648500  0.26226500  1
  H  H16  1  0.75948900  0.31337900  0.83682500  1
  H  H17  1  0.47280600  0.68188300  0.92305000  1
  H  H18  1  0.04185900  0.88104400  0.23933500  1
  H  H19  1  0.95814100  0.11895600  0.76066500  1
  H  H20  1  0.24051100  0.68662100  0.16317500  1
  H  H21  1  0.56699300  0.37351500  0.73773500  1
  H  H22  1  0.91441000  0.03160000  0.60851600  1
  H  H23  1  0.45577400  0.29230900  0.46088300  1
  H  H24  1  0.93300700  0.37351500  0.23773500  1
  H  H25  1  0.02719400  0.68188300  0.42305000  1
  H  H26  1  0.54422600  0.70769100  0.53911700  1
  H  H27  1  0.71826000  0.88917500  0.48711000  1
  H  H28  1  0.95577400  0.70769100  0.03911700  1
  H  H29  1  0.41441000  0.96840000  0.89148400  1
  H  H30  1  0.74051100  0.31337900  0.33682500  1
  H  H31  1  0.97280600  0.31811700  0.57695000  1
  C  C0  1  0.67730900  0.71328700  0.52224000  1
  C  C1  1  0.59550600  0.17181200  0.14966500  1
  C  C2  1  0.79913900  0.37232600  0.22749400  1
  C  C3  1  0.90449400  0.17181200  0.64966500  1
  C  C4  1  0.40449400  0.82818800  0.85033500  1
  C  C5  1  0.70086100  0.37232600  0.72749400  1
  C  C6  1  0.29913900  0.62767400  0.27250600  1
  C  C7  1  0.09550600  0.82818800  0.35033500  1
  C  C8  1  0.20086100  0.62767400  0.77250600  1
  C  C9  1  0.32269100  0.28671300  0.47776000  1
  C  C10  1  0.17730900  0.28671300  0.97776000  1
  C  C11  1  0.82269100  0.71328700  0.02223900  1
  O  O0  1  0.23908000  0.40619500  0.34325600  1
  O  O1  1  0.73908000  0.59380500  0.15674400  1
  O  O2  1  0.73436900  0.22165700  0.65247200  1
  O  O3  1  0.76092000  0.59380500  0.65674400  1
  O  O4  1  0.76563100  0.22165700  0.15247200  1
  O  O5  1  0.23436900  0.77834300  0.84752800  1
  O  O6  1  0.26092000  0.40619500  0.84325600  1
  O  O7  1  0.26563100  0.77834300  0.34752800  1
loop_
_geom_bond_atom_site_label_1
_geom_bond_atom_site_label_2
_geom_bond_distance
_geom_bond_site_symmetry_2
C0 H27 1.096159 1_555
C0 H7 1.100983 1_555
C0 H26 1.103473 1_555
C0 O3 1.434366 1_555
C1 H11 1.096613 1_555
C1 H9 1.100772 1_555
C1 H6 1.102710 1_555
C1 O4 1.434135 1_555
C2 H24 1.103716 1_555
C2 H30 1.105114 1_555
C2 O1 1.415473 1_555
C2 O4 1.415519 1_555
C3 H22 1.096613 1_555
C3 H31 1.100772 1_555
C3 H19 1.102710 1_555
C3 O2 1.434135 1_555
C4 H29 1.096613 1_555
C4 H17 1.100772 1_555
C4 H8 1.102710 1_555
C4 O5 1.434135 1_555
C5 H21 1.103716 1_555
C5 H16 1.105114 1_555
C5 O3 1.415473 1_555
C5 O2 1.415519 1_555
C6 H15 1.103716 1_555
C6 H20 1.105114 1_555
C6 O0 1.415473 1_555
C6 O7 1.415519 1_555
C7 H3 1.096613 1_555
C7 H25 1.100772 1_555
C7 H18 1.102710 1_555
C7 O7 1.434135 1_555
C8 H4 1.103716 1_555
C8 H1 1.105114 1_555
C8 O6 1.415473 1_555
C8 O5 1.415519 1_555
C9 H10 1.096159 1_555
C9 H12 1.100983 1_555
C9 H23 1.103473 1_555
C9 O0 1.434366 1_555
C10 H13 1.096159 1_556
C10 H2 1.100983 1_556
C10 H14 1.103473 1_555
C10 O6 1.434366 1_555
C11 H0 1.096159 1_554
C11 H5 1.100975 1_554
C11 H28 1.103475 1_555
C11 O1 1.434373 1_555
