# generated using pymatgen
data_BaNb4O6
_symmetry_space_group_name_H-M   'P 1'
_cell_length_a   4.22626230
_cell_length_b   4.22626230
_cell_length_c   8.26808348
_cell_angle_alpha   90.00000000
_cell_angle_beta   90.00000000
_cell_angle_gamma   90.00000000
_symmetry_Int_Tables_number   1
_chemical_formula_structural   BaNb4O6
_chemical_formula_sum   'Ba1 Nb4 O6'
_cell_volume   147.67866182
_cell_formula_units_Z   1
loop_
 _symmetry_equiv_pos_site_id
 _symmetry_equiv_pos_as_xyz
  1  'x, y, z'
loop_
 _atom_site_type_symbol
 _atom_site_label
 _atom_site_symmetry_multiplicity
 _atom_site_fract_x
 _atom_site_fract_y
 _atom_site_fract_z
 _atom_site_occupancy
  Ba  Ba0  1  0.00000000  0.00000000  -0.00000000  1
  Nb  Nb0  1  0.50000000  0.00000000  0.50000000  1
  Nb  Nb1  1  0.00000000  0.50000000  0.50000000  1
  Nb  Nb2  1  0.50000000  0.50000000  0.25400643  1
  Nb  Nb3  1  0.50000000  0.50000000  0.74599357  1
  O  O0  1  0.50000000  0.50000000  -0.00000000  1
  O  O1  1  0.50000000  0.00000000  0.24264179  1
  O  O2  1  0.00000000  0.50000000  0.24264179  1
  O  O3  1  0.50000000  -0.00000000  0.75735821  1
  O  O4  1  -0.00000000  0.50000000  0.75735821  1
  O  O5  1  0.00000000  0.00000000  0.50000000  1
loop_
_geom_bond_atom_site_label_1
_geom_bond_atom_site_label_2
_geom_bond_distance
_geom_bond_site_symmetry_2
Ba0 O3 2.913776 1_454
Ba0 O2 2.913776 1_545
Ba0 O1 2.913776 1_455
Ba0 O4 2.913776 1_554
Ba0 O2 2.913776 1_555
Ba0 O4 2.913776 1_544
Ba0 O1 2.913776 1_555
Ba0 O3 2.913776 1_554
Ba0 O0 2.988419 1_545
Ba0 O0 2.988419 1_455
Ba0 O0 2.988419 1_445
Ba0 O0 2.988419 1_555
Nb0 O5 2.113131 1_555
Nb0 O5 2.113131 1_655
Nb0 O1 2.127859 1_555
Nb0 O3 2.127859 1_555
Nb1 O5 2.113131 1_555
Nb1 O5 2.113131 1_565
Nb1 O4 2.127859 1_555
Nb1 O2 2.127859 1_555
Nb2 O0 2.100146 1_555
Nb2 O2 2.115219 1_555
Nb2 O1 2.115219 1_565
Nb2 O1 2.115219 1_555
Nb2 O2 2.115219 1_655
Nb3 O0 2.100146 1_556
Nb3 O4 2.115219 1_655
Nb3 O3 2.115219 1_565
Nb3 O3 2.115219 1_555
Nb3 O4 2.115219 1_555
