# generated using pymatgen
data_MnV2O6
_symmetry_space_group_name_H-M   'P 1'
_cell_length_a   3.50601719
_cell_length_b   6.67570940
_cell_length_c   9.31712072
_cell_angle_alpha   107.61993310
_cell_angle_beta   90.00839567
_cell_angle_gamma   105.23737722
_symmetry_Int_Tables_number   1
_chemical_formula_structural   MnV2O6
_chemical_formula_sum   'Mn2 V4 O12'
_cell_volume   199.77690746
_cell_formula_units_Z   2
loop_
 _symmetry_equiv_pos_site_id
 _symmetry_equiv_pos_as_xyz
  1  'x, y, z'
loop_
 _atom_site_type_symbol
 _atom_site_label
 _atom_site_symmetry_multiplicity
 _atom_site_fract_x
 _atom_site_fract_y
 _atom_site_fract_z
 _atom_site_occupancy
  Mn  Mn0  1  0.49994810  0.00000162  0.50002388  1
  Mn  Mn1  1  0.00007914  0.00000056  -0.00000751  1
  V  V0  1  0.17606276  0.35282466  0.36384096  1
  V  V1  1  0.82369361  0.64712377  0.63614750  1
  V  V2  1  0.67627211  0.35285057  0.86383330  1
  V  V3  1  0.32393663  0.64717446  0.13617032  1
  O  O0  1  0.05563072  0.11173638  0.40214009  1
  O  O1  1  0.55581862  0.11178050  0.90216315  1
  O  O2  1  0.94414183  0.88820178  0.59783319  1
  O  O3  1  0.44438628  0.88826455  0.09787179  1
  O  O4  1  0.14280360  0.28561333  0.17271073  1
  O  O5  1  0.64274730  0.28562741  0.67269146  1
  O  O6  1  0.85726725  0.71439323  0.82728940  1
  O  O7  1  0.35720696  0.71439190  0.32730507  1
  O  O8  1  0.28194785  0.56393986  0.58939331  1
  O  O9  1  0.78216592  0.56402615  0.08943764  1
  O  O10  1  0.71783742  0.43597391  0.41056663  1
  O  O11  1  0.21805191  0.43607733  0.91058911  1
loop_
_geom_bond_atom_site_label_1
_geom_bond_atom_site_label_2
_geom_bond_distance
_geom_bond_site_symmetry_2
Mn0 O5 2.028641 1_555
Mn0 O7 2.028816 1_545
Mn0 O0 2.198232 1_655
Mn0 O2 2.198319 1_445
Mn0 O2 2.198896 1_545
Mn0 O0 2.199318 1_555
Mn1 O6 2.028731 1_444
Mn1 O4 2.028826 1_555
Mn1 O1 2.198198 1_554
Mn1 O3 2.198241 1_445
Mn1 O1 2.199092 1_454
Mn1 O3 2.199273 1_545
O0 V0 1.698949 1_555
O1 V2 1.698976 1_555
O2 V1 1.698954 1_555
O3 V3 1.698957 1_555
O4 V0 1.695529 1_555
O4 V3 2.457006 1_555
O5 V2 1.695628 1_555
O5 V1 2.456607 1_555
O6 V1 1.695606 1_555
O6 V2 2.456902 1_555
O7 V3 1.695567 1_555
O7 V0 2.457027 1_555
O8 V1 1.844498 1_455
O8 V1 1.845165 1_555
O8 V0 2.114729 1_555
O9 V3 1.844276 1_555
O9 V3 1.845229 1_655
O9 V2 2.115241 1_554
O10 V0 1.844257 1_655
O10 V0 1.845233 1_555
O10 V1 2.115013 1_555
O11 V2 1.844518 1_555
O11 V2 1.845269 1_455
O11 V3 2.114903 1_556
