# generated using pymatgen
data_Np2O5
_symmetry_space_group_name_H-M   'P 1'
_cell_length_a   6.62427544
_cell_length_b   8.08550887
_cell_length_c   9.30741057
_cell_angle_alpha   116.01572231
_cell_angle_beta   89.74196264
_cell_angle_gamma   90.00353491
_symmetry_Int_Tables_number   1
_chemical_formula_structural   Np2O5
_chemical_formula_sum   'Np8 O20'
_cell_volume   447.99303845
_cell_formula_units_Z   4
loop_
 _symmetry_equiv_pos_site_id
 _symmetry_equiv_pos_as_xyz
  1  'x, y, z'
loop_
 _atom_site_type_symbol
 _atom_site_label
 _atom_site_symmetry_multiplicity
 _atom_site_fract_x
 _atom_site_fract_y
 _atom_site_fract_z
 _atom_site_occupancy
  Np  Np0  1  0.71018295  0.75043925  0.75057427  1
  Np  Np1  1  0.25000113  0.00000644  0.75000633  1
  Np  Np2  1  0.25000352  0.50000840  0.75000447  1
  Np  Np3  1  0.21016124  0.75040547  0.25056304  1
  Np  Np4  1  0.28983655  0.24957145  0.24942248  1
  Np  Np5  1  0.74999927  -0.00000813  0.24999746  1
  Np  Np6  1  0.74999626  0.49999171  0.24999602  1
  Np  Np7  1  0.78982052  0.24957658  0.74942649  1
  O  O0  1  0.64807565  0.25059621  0.25157636  1
  O  O1  1  0.28361451  0.35715126  0.47494261  1
  O  O2  1  0.71638782  0.64289049  0.52506330  1
  O  O3  1  0.21450577  0.85828807  0.47605669  1
  O  O4  1  0.35193119  0.74940460  0.74844011  1
  O  O5  1  0.28549210  0.14168945  0.02392208  1
  O  O6  1  0.21639063  0.64282557  0.02503505  1
  O  O7  1  0.78360584  0.35715901  0.97496044  1
  O  O8  1  0.45384623  0.96568931  0.26005996  1
  O  O9  1  0.04592526  0.46610877  0.25976105  1
  O  O10  1  0.04615582  0.03430133  0.23994976  1
  O  O11  1  0.45406408  0.53387446  0.24024242  1
  O  O12  1  0.78548213  0.14168961  0.52395019  1
  O  O13  1  0.54593035  0.46612141  0.75976062  1
  O  O14  1  0.95408001  0.53388796  0.74022536  1
  O  O15  1  0.54615842  0.03430417  0.73993934  1
  O  O16  1  0.14807530  0.25060344  0.75155936  1
  O  O17  1  0.71451997  0.85831100  0.97607324  1
  O  O18  1  0.85192081  0.74939359  0.24842607  1
  O  O19  1  0.95383769  0.96571513  0.76006741  1
loop_
_geom_bond_atom_site_label_1
_geom_bond_atom_site_label_2
_geom_bond_distance
_geom_bond_site_symmetry_2
Np0 O17 1.887129 1_555
Np0 O2 1.887180 1_555
Np0 O19 2.347059 1_555
Np0 O14 2.352939 1_555
Np0 O4 2.373314 1_555
Np0 O13 2.578213 1_555
Np0 O15 2.580476 1_565
Np1 O15 1.988849 1_555
Np1 O19 1.988875 1_445
Np1 O4 2.129778 1_545
Np1 O16 2.129783 1_555
Np1 O5 2.304478 1_556
Np1 O3 2.304765 1_545
Np2 O14 1.987351 1_455
Np2 O13 1.987358 1_555
Np2 O4 2.132570 1_555
Np2 O16 2.132601 1_555
Np2 O6 2.310313 1_556
Np2 O1 2.310575 1_555
Np3 O3 1.887083 1_555
Np3 O6 1.887320 1_555
Np3 O8 2.347233 1_555
Np3 O11 2.352922 1_555
Np3 O18 2.373240 1_455
Np3 O9 2.578058 1_555
Np3 O10 2.580562 1_565
Np4 O5 1.887140 1_555
Np4 O1 1.887253 1_555
Np4 O10 2.347197 1_555
Np4 O9 2.352949 1_555
Np4 O0 2.373233 1_555
Np4 O11 2.578010 1_555
Np4 O8 2.580571 1_545
Np5 O8 1.988823 1_545
Np5 O10 1.988841 1_655
Np5 O18 2.129713 1_545
Np5 O0 2.129735 1_555
Np5 O17 2.304540 1_544
Np5 O12 2.304780 1_555
Np6 O9 1.987376 1_655
Np6 O11 1.987385 1_555
Np6 O0 2.132612 1_555
Np6 O18 2.132629 1_555
Np6 O7 2.310354 1_554
Np6 O2 2.310623 1_555
Np7 O12 1.886934 1_555
Np7 O7 1.887369 1_555
Np7 O15 2.347088 1_555
Np7 O13 2.352909 1_555
Np7 O16 2.373334 1_655
Np7 O14 2.578243 1_555
Np7 O19 2.580454 1_545
