# generated using pymatgen
data_CsBe4Al4(B3O7)4
_symmetry_space_group_name_H-M   'P 1'
_cell_length_a   7.41822000
_cell_length_b   7.41822000
_cell_length_c   7.41822000
_cell_angle_alpha   90.00000000
_cell_angle_beta   90.00000000
_cell_angle_gamma   90.00000000
_symmetry_Int_Tables_number   1
_chemical_formula_structural   CsBe4Al4(B3O7)4
_chemical_formula_sum   'Cs1 Be4 Al4 B12 O28'
_cell_volume   408.22455735
_cell_formula_units_Z   1
loop_
 _symmetry_equiv_pos_site_id
 _symmetry_equiv_pos_as_xyz
  1  'x, y, z'
loop_
 _atom_site_type_symbol
 _atom_site_label
 _atom_site_symmetry_multiplicity
 _atom_site_fract_x
 _atom_site_fract_y
 _atom_site_fract_z
 _atom_site_occupancy
  Cs  Cs0  1  0.00000000  0.00000000  0.00000000  1
  Be  Be0  1  0.73986900  0.73986900  0.73986900  1
  Be  Be1  1  0.26013100  0.73986900  0.26013100  1
  Be  Be2  1  0.26013100  0.26013100  0.73986900  1
  Be  Be3  1  0.73986900  0.26013100  0.26013100  1
  Al  Al0  1  0.36036500  0.36036500  0.36036500  1
  Al  Al1  1  0.63963500  0.36036500  0.63963500  1
  Al  Al2  1  0.63963500  0.63963500  0.36036500  1
  Al  Al3  1  0.36036500  0.63963500  0.63963500  1
  B  B0  1  0.24949400  0.50000000  0.00000000  1
  B  B1  1  0.75050600  0.00000000  0.50000000  1
  B  B2  1  0.00000000  0.50000000  0.24949400  1
  B  B3  1  0.00000000  0.50000000  0.75050600  1
  B  B4  1  0.50000000  0.75050600  0.00000000  1
  B  B5  1  0.50000000  0.24949400  0.00000000  1
  B  B6  1  0.00000000  0.24949400  0.50000000  1
  B  B7  1  0.50000000  0.00000000  0.24949400  1
  B  B8  1  0.00000000  0.75050600  0.50000000  1
  B  B9  1  0.50000000  0.00000000  0.75050600  1
  B  B10  1  0.75050600  0.50000000  0.00000000  1
  B  B11  1  0.24949400  0.00000000  0.50000000  1
  O  O0  1  0.61844400  0.61844400  0.61844400  1
  O  O1  1  0.38155600  0.61844400  0.38155600  1
  O  O2  1  0.38155600  0.38155600  0.61844400  1
  O  O3  1  0.61844400  0.38155600  0.38155600  1
  O  O4  1  0.36208900  0.36208900  0.09516300  1
  O  O5  1  0.63791100  0.09516300  0.63791100  1
  O  O6  1  0.63791100  0.90483700  0.36208900  1
  O  O7  1  0.90483700  0.63791100  0.36208900  1
  O  O8  1  0.09516300  0.63791100  0.63791100  1
  O  O9  1  0.36208900  0.63791100  0.90483700  1
  O  O10  1  0.63791100  0.36208900  0.90483700  1
  O  O11  1  0.09516300  0.36208900  0.36208900  1
  O  O12  1  0.36208900  0.09516300  0.36208900  1
  O  O13  1  0.90483700  0.36208900  0.63791100  1
  O  O14  1  0.36208900  0.90483700  0.63791100  1
  O  O15  1  0.63791100  0.63791100  0.09516300  1
  O  O16  1  0.13702800  0.13702800  0.59639900  1
  O  O17  1  0.86297200  0.59639900  0.86297200  1
  O  O18  1  0.86297200  0.40360100  0.13702800  1
  O  O19  1  0.40360100  0.86297200  0.13702800  1
  O  O20  1  0.59639900  0.86297200  0.86297200  1
  O  O21  1  0.13702800  0.86297200  0.40360100  1
  O  O22  1  0.86297200  0.13702800  0.40360100  1
  O  O23  1  0.59639900  0.13702800  0.13702800  1
  O  O24  1  0.13702800  0.59639900  0.13702800  1
  O  O25  1  0.40360100  0.13702800  0.86297200  1
  O  O26  1  0.13702800  0.40360100  0.86297200  1
  O  O27  1  0.86297200  0.86297200  0.59639900  1
loop_
_geom_bond_atom_site_label_1
_geom_bond_atom_site_label_2
_geom_bond_distance
_geom_bond_site_symmetry_2
Cs0 O23 3.321235 1_455
Cs0 O16 3.321235 1_554
Cs0 O24 3.321235 1_545
Cs0 O22 3.321235 1_455
Cs0 O25 3.321235 1_554
Cs0 O26 3.321235 1_554
Cs0 O19 3.321235 1_545
Cs0 O21 3.321235 1_545
Cs0 O18 3.321235 1_455
Cs0 O20 3.321235 1_444
Cs0 O27 3.321235 1_444
Cs0 O17 3.321235 1_444
Be0 O0 1.560158 1_555
Be0 O20 1.673501 1_555
Be0 O27 1.673501 1_555
Be0 O17 1.673501 1_555
Be1 O1 1.560158 1_555
Be1 O21 1.673501 1_555
Be1 O19 1.673501 1_555
Be1 O24 1.673501 1_555
Be2 O2 1.560158 1_555
Be2 O26 1.673501 1_555
Be2 O25 1.673501 1_555
Be2 O16 1.673501 1_555
Be3 O3 1.560158 1_555
Be3 O18 1.673501 1_555
Be3 O22 1.673501 1_555
Be3 O23 1.673501 1_555
Al0 O3 1.927351 1_555
Al0 O1 1.927351 1_555
Al0 O2 1.927351 1_555
Al0 O11 1.967410 1_555
Al0 O4 1.967410 1_555
Al0 O12 1.967410 1_555
Al1 O3 1.927351 1_555
Al1 O2 1.927351 1_555
Al1 O0 1.927351 1_555
Al1 O5 1.967410 1_555
Al1 O13 1.967410 1_555
Al1 O10 1.967410 1_555
Al2 O3 1.927351 1_555
Al2 O1 1.927351 1_555
Al2 O0 1.927351 1_555
Al2 O15 1.967410 1_555
Al2 O6 1.967410 1_555
Al2 O7 1.967410 1_555
Al3 O1 1.927351 1_555
Al3 O2 1.927351 1_555
Al3 O0 1.927351 1_555
Al3 O8 1.967410 1_555
Al3 O9 1.967410 1_555
Al3 O14 1.967410 1_555
B0 O24 1.496901 1_555
B0 O26 1.496901 1_554
B0 O4 1.497545 1_555
B0 O9 1.497545 1_554
B1 O22 1.496901 1_555
B1 O27 1.496901 1_545
B1 O5 1.497545 1_555
B1 O6 1.497545 1_545
B2 O24 1.496901 1_555
B2 O18 1.496901 1_455
B2 O7 1.497545 1_455
B2 O11 1.497545 1_555
B3 O26 1.496901 1_555
B3 O17 1.496901 1_455
B3 O8 1.497545 1_555
B3 O13 1.497545 1_455
B4 O19 1.496901 1_555
B4 O20 1.496901 1_554
B4 O9 1.497545 1_554
B4 O15 1.497545 1_555
B5 O23 1.496901 1_555
B5 O25 1.496901 1_554
B5 O4 1.497545 1_555
B5 O10 1.497545 1_554
B6 O16 1.496901 1_555
B6 O22 1.496901 1_455
B6 O13 1.497545 1_455
B6 O11 1.497545 1_555
B7 O23 1.496901 1_555
B7 O19 1.496901 1_545
B7 O6 1.497545 1_545
B7 O12 1.497545 1_555
B8 O21 1.496901 1_555
B8 O27 1.496901 1_455
B8 O7 1.497545 1_455
B8 O8 1.497545 1_555
B9 O25 1.496901 1_555
B9 O20 1.496901 1_545
B9 O5 1.497545 1_555
B9 O14 1.497545 1_545
B10 O18 1.496901 1_555
B10 O17 1.496901 1_554
B10 O10 1.497545 1_554
B10 O15 1.497545 1_555
B11 O16 1.496901 1_555
B11 O21 1.496901 1_545
B11 O14 1.497545 1_545
B11 O12 1.497545 1_555
