# generated using pymatgen
data_Ba5Ru2ClO9
_symmetry_space_group_name_H-M   'P 1'
_cell_length_a   6.18978504
_cell_length_b   6.18978504
_cell_length_c   18.32687000
_cell_angle_alpha   90.00000000
_cell_angle_beta   90.00000000
_cell_angle_gamma   120.75770975
_symmetry_Int_Tables_number   1
_chemical_formula_structural   Ba5Ru2ClO9
_chemical_formula_sum   'Ba10 Ru4 Cl2 O18'
_cell_volume   603.39714282
_cell_formula_units_Z   2
loop_
 _symmetry_equiv_pos_site_id
 _symmetry_equiv_pos_as_xyz
  1  'x, y, z'
loop_
 _atom_site_type_symbol
 _atom_site_label
 _atom_site_symmetry_multiplicity
 _atom_site_fract_x
 _atom_site_fract_y
 _atom_site_fract_z
 _atom_site_occupancy
  Ba  Ba0  1  0.15813100  0.84186900  0.01839900  1
  Ba  Ba1  1  0.84186900  0.15813100  0.51839900  1
  Ba  Ba2  1  0.83208300  0.16791700  0.74640200  1
  Ba  Ba3  1  0.16791700  0.83208300  0.24640200  1
  Ba  Ba4  1  0.49029500  0.50970500  0.34358500  1
  Ba  Ba5  1  0.50970500  0.49029500  0.84358500  1
  Ba  Ba6  1  0.49269200  0.50730800  0.64878400  1
  Ba  Ba7  1  0.82932500  0.17067500  0.97365700  1
  Ba  Ba8  1  0.50730800  0.49269200  0.14878400  1
  Ba  Ba9  1  0.17067500  0.82932500  0.47365700  1
  Ru  Ru0  1  0.17380100  0.82619900  0.67098100  1
  Ru  Ru1  1  0.16116900  0.83883100  0.82115000  1
  Ru  Ru2  1  0.82619900  0.17380100  0.17098100  1
  Ru  Ru3  1  0.83883100  0.16116900  0.32115000  1
  Cl  Cl0  1  0.45736400  0.54263600  0.99603500  1
  Cl  Cl1  1  0.54263600  0.45736400  0.49603500  1
  O  O0  1  0.46201100  0.00982900  0.88124500  1
  O  O1  1  0.00319400  0.99680600  0.87598400  1
  O  O2  1  0.68303700  0.31696300  0.25057600  1
  O  O3  1  0.31941100  0.13295400  0.74389300  1
  O  O4  1  0.00982900  0.46201100  0.38124500  1
  O  O5  1  0.99017100  0.53798900  0.88124500  1
  O  O6  1  0.03462500  0.51378700  0.61457100  1
  O  O7  1  0.02736200  0.97263800  0.60923000  1
  O  O8  1  0.51378700  0.03462500  0.11457100  1
  O  O9  1  0.86704600  0.68058900  0.74389300  1
  O  O10  1  0.68058900  0.86704600  0.24389300  1
  O  O11  1  0.13295400  0.31941100  0.24389300  1
  O  O12  1  0.99680600  0.00319400  0.37598400  1
  O  O13  1  0.31696300  0.68303700  0.75057600  1
  O  O14  1  0.48621300  0.96537500  0.61457100  1
  O  O15  1  0.96537500  0.48621300  0.11457100  1
  O  O16  1  0.53798900  0.99017100  0.38124500  1
  O  O17  1  0.97263800  0.02736200  0.10923000  1
loop_
_geom_bond_atom_site_label_1
_geom_bond_atom_site_label_2
_geom_bond_distance
_geom_bond_site_symmetry_2
Ba0 O8 2.586476 1_565
Ba0 O15 2.586476 1_455
Ba0 O17 2.599223 1_465
Ba0 O0 2.989465 1_564
Ba0 O5 2.989465 1_454
Ba0 O1 3.097159 1_554
Ba0 Cl0 3.246239 1_554
Ba1 O6 2.586476 1_655
Ba1 O14 2.586476 1_545
Ba1 O7 2.599223 1_645
Ba1 O4 2.989465 1_655
Ba1 O16 2.989465 1_545
Ba1 O12 3.097159 1_555
Ba1 Cl1 3.246239 1_555
Ba2 O1 3.005122 1_645
Ba2 O14 3.040905 1_545
Ba2 O6 3.040905 1_655
Ba2 O13 3.064659 1_545
Ba2 O13 3.064659 1_655
Ba2 O3 3.068639 1_555
Ba2 O9 3.068639 1_555
Ba2 O9 3.132994 1_545
Ba2 O3 3.132994 1_655
Ba2 O5 3.165299 1_555
Ba2 O0 3.165299 1_555
Ba2 O7 3.276632 1_645
Ba3 O12 3.005122 1_465
Ba3 O15 3.040905 1_455
Ba3 O8 3.040905 1_565
Ba3 O2 3.064659 1_455
Ba3 O2 3.064659 1_565
Ba3 O11 3.068639 1_555
Ba3 O10 3.068639 1_555
Ba3 O10 3.132994 1_455
Ba3 O11 3.132994 1_565
Ba3 O4 3.165299 1_555
Ba3 O16 3.165299 1_555
Ba3 O17 3.276632 1_465
Ba4 O10 2.636868 1_555
Ba4 O11 2.636868 1_555
Ba4 O2 2.684770 1_555
Ba4 Cl1 2.850147 1_555
Ba4 O16 2.917204 1_555
Ba4 O4 2.917204 1_555
Ba4 O12 3.117255 1_565
Ba4 O12 3.117255 1_455
Ba5 O3 2.636868 1_555
Ba5 O9 2.636868 1_555
Ba5 O13 2.684770 1_555
Ba5 Cl0 2.850147 1_555
Ba5 O5 2.917204 1_555
Ba5 O0 2.917204 1_555
Ba5 O1 3.117255 1_655
Ba5 O1 3.117255 1_545
Ba6 O3 2.648750 1_555
Ba6 O9 2.648750 1_555
Ba6 O13 2.656432 1_555
Ba6 Cl1 2.850542 1_555
Ba6 O14 2.924071 1_555
Ba6 O6 2.924071 1_555
Ba6 O7 3.166149 1_655
Ba6 O7 3.166149 1_545
Ba6 O6 3.392564 1_655
Ba6 O14 3.392564 1_545
Ba7 O1 2.589472 1_645
Ba7 O5 2.591056 1_555
Ba7 O0 2.591056 1_555
Ba7 O17 2.924389 1_556
Ba7 O15 3.083975 1_556
Ba7 O8 3.083975 1_556
Ba7 Cl0 3.380335 1_545
Ba7 Cl0 3.380335 1_655
Ba8 O11 2.648750 1_555
Ba8 O10 2.648750 1_555
Ba8 O2 2.656432 1_555
Ba8 Cl0 2.850542 1_554
Ba8 O15 2.924071 1_555
Ba8 O8 2.924071 1_555
Ba8 O17 3.166149 1_565
Ba8 O17 3.166149 1_455
Ba8 O8 3.392564 1_565
Ba8 O15 3.392564 1_455
Ba9 O12 2.589472 1_465
Ba9 O16 2.591056 1_555
Ba9 O4 2.591056 1_555
Ba9 O7 2.924389 1_555
Ba9 O14 3.083975 1_555
Ba9 O6 3.083975 1_555
Ba9 Cl1 3.380335 1_455
Ba9 Cl1 3.380335 1_565
O0 Ru1 1.945488 1_545
O1 Ru1 1.974886 1_555
O2 Ru3 2.117524 1_555
O2 Ru2 2.121685 1_555
O3 Ru0 2.110155 1_545
O3 Ru1 2.110601 1_545
O4 Ru3 1.945488 1_455
O5 Ru1 1.945488 1_655
O6 Ru0 1.961240 1_555
O7 Ru0 1.940186 1_555
O8 Ru2 1.961240 1_555
O9 Ru0 2.110155 1_655
O9 Ru1 2.110601 1_655
O10 Ru2 2.110155 1_565
O10 Ru3 2.110601 1_565
O11 Ru2 2.110155 1_455
O11 Ru3 2.110601 1_455
O12 Ru3 1.974886 1_555
O13 Ru1 2.117524 1_555
O13 Ru0 2.121685 1_555
O14 Ru0 1.961240 1_555
O15 Ru2 1.961240 1_555
O16 Ru3 1.945488 1_565
O17 Ru2 1.940186 1_555
