# generated using pymatgen
data_TlCoCl3
_symmetry_space_group_name_H-M   'P 1'
_cell_length_a   11.92393453
_cell_length_b   11.92393381
_cell_length_c   5.92586096
_cell_angle_alpha   90.00000000
_cell_angle_beta   90.00000000
_cell_angle_gamma   119.99999934
_symmetry_Int_Tables_number   1
_chemical_formula_structural   TlCoCl3
_chemical_formula_sum   'Tl6 Co6 Cl18'
_cell_volume   729.66116362
_cell_formula_units_Z   6
loop_
 _symmetry_equiv_pos_site_id
 _symmetry_equiv_pos_as_xyz
  1  'x, y, z'
loop_
 _atom_site_type_symbol
 _atom_site_label
 _atom_site_symmetry_multiplicity
 _atom_site_fract_x
 _atom_site_fract_y
 _atom_site_fract_z
 _atom_site_occupancy
  Tl  Tl0  1  0.00000000  0.66655047  0.25060834  1
  Tl  Tl1  1  0.33344953  0.00000000  0.75060834  1
  Tl  Tl2  1  0.66655047  0.66655047  0.75060834  1
  Tl  Tl3  1  0.33344953  0.33344953  0.25060834  1
  Tl  Tl4  1  0.66655047  -0.00000000  0.25060834  1
  Tl  Tl5  1  -0.00000000  0.33344953  0.75060834  1
  Co  Co0  1  0.66666700  0.33333300  0.53709782  1
  Co  Co1  1  0.33333300  0.66666700  0.03709782  1
  Co  Co2  1  0.66666700  0.33333300  0.03709782  1
  Co  Co3  1  -0.00000000  -0.00000000  0.46179032  1
  Co  Co4  1  -0.00000000  -0.00000000  0.96179032  1
  Co  Co5  1  0.33333300  0.66666700  0.53709782  1
  Cl  Cl0  1  0.16168632  0.00000000  0.21038650  1
  Cl  Cl1  1  0.17180140  0.66688966  0.78782175  1
  Cl  Cl2  1  0.82819860  0.49508826  0.78782175  1
  Cl  Cl3  1  0.50491174  0.17180140  0.28782175  1
  Cl  Cl4  1  0.33311034  0.50491174  0.78782175  1
  Cl  Cl5  1  0.49508826  0.82819860  0.78782175  1
  Cl  Cl6  1  0.50491174  0.33311034  0.78782175  1
  Cl  Cl7  1  0.49508826  0.66688966  0.28782175  1
  Cl  Cl8  1  0.16168632  0.16168632  0.71038650  1
  Cl  Cl9  1  0.17180140  0.50491174  0.28782175  1
  Cl  Cl10  1  0.33311034  0.82819860  0.28782175  1
  Cl  Cl11  1  0.00000000  0.83831368  0.71038650  1
  Cl  Cl12  1  0.83831368  0.83831368  0.21038650  1
  Cl  Cl13  1  0.66688966  0.17180140  0.78782175  1
  Cl  Cl14  1  -0.00000000  0.16168632  0.21038650  1
  Cl  Cl15  1  0.83831368  -0.00000000  0.71038650  1
  Cl  Cl16  1  0.66688966  0.49508826  0.28782175  1
  Cl  Cl17  1  0.82819860  0.33311034  0.28782175  1
loop_
_geom_bond_atom_site_label_1
_geom_bond_atom_site_label_2
_geom_bond_distance
_geom_bond_site_symmetry_2
Cl0 Co4 2.426335 1_554
Cl0 Co3 2.436472 1_555
Cl1 Co1 2.428374 1_556
Cl1 Co5 2.433602 1_555
Cl2 Co2 2.428378 1_556
Cl2 Co0 2.433607 1_555
Cl3 Co0 2.428378 1_555
Cl3 Co2 2.433607 1_555
Cl4 Co1 2.428383 1_556
Cl4 Co5 2.433612 1_555
Cl5 Co1 2.428378 1_556
Cl5 Co5 2.433607 1_555
Cl6 Co2 2.428383 1_556
Cl6 Co0 2.433612 1_555
Cl7 Co5 2.428383 1_555
Cl7 Co1 2.433612 1_555
Cl8 Co3 2.426335 1_555
Cl8 Co4 2.436472 1_555
Cl9 Co5 2.428378 1_555
Cl9 Co1 2.433607 1_555
Cl10 Co5 2.428374 1_555
Cl10 Co1 2.433602 1_555
Cl11 Co3 2.426335 1_565
Cl11 Co4 2.436472 1_565
Cl12 Co4 2.426335 1_664
Cl12 Co3 2.436472 1_665
Cl13 Co2 2.428374 1_556
Cl13 Co0 2.433602 1_555
Cl14 Co4 2.426335 1_554
Cl14 Co3 2.436472 1_555
Cl15 Co3 2.426335 1_655
Cl15 Co4 2.436472 1_655
Cl16 Co0 2.428383 1_555
Cl16 Co2 2.433612 1_555
Cl17 Co0 2.428374 1_555
Cl17 Co2 2.433602 1_555
