# generated using pymatgen
data_Ba6Nb2Ir(ClO6)2
_symmetry_space_group_name_H-M   'P 1'
_cell_length_a   6.04528219
_cell_length_b   6.04528219
_cell_length_c   14.98879600
_cell_angle_alpha   90.00000000
_cell_angle_beta   90.00000000
_cell_angle_gamma   120.00000204
_symmetry_Int_Tables_number   1
_chemical_formula_structural   Ba6Nb2Ir(ClO6)2
_chemical_formula_sum   'Ba6 Nb2 Ir1 Cl2 O12'
_cell_volume   474.38454052
_cell_formula_units_Z   1
loop_
 _symmetry_equiv_pos_site_id
 _symmetry_equiv_pos_as_xyz
  1  'x, y, z'
loop_
 _atom_site_type_symbol
 _atom_site_label
 _atom_site_symmetry_multiplicity
 _atom_site_fract_x
 _atom_site_fract_y
 _atom_site_fract_z
 _atom_site_occupancy
  Ba  Ba0  1  0.33333300  0.66666700  0.36576000  1
  Ba  Ba1  1  0.33333300  0.66666700  0.79195800  1
  Ba  Ba2  1  0.66666700  0.33333300  0.63424000  1
  Ba  Ba3  1  0.66666700  0.33333300  0.92710000  1
  Ba  Ba4  1  0.33333300  0.66666700  0.07290000  1
  Ba  Ba5  1  0.66666700  0.33333300  0.20804200  1
  Nb  Nb0  1  0.00000000  0.00000000  0.81317200  1
  Nb  Nb1  1  0.00000000  0.00000000  0.18682800  1
  Ir  Ir0  1  0.00000000  0.00000000  0.00000000  1
  Cl  Cl0  1  0.66666700  0.33333300  0.42003100  1
  Cl  Cl1  1  0.33333300  0.66666700  0.57996900  1
  O  O0  1  0.15397700  0.30795500  0.91714900  1
  O  O1  1  0.32467600  0.16233800  0.75681600  1
  O  O2  1  0.16233800  0.32467600  0.24318400  1
  O  O3  1  0.83766200  0.67532400  0.75681600  1
  O  O4  1  0.83766200  0.16233800  0.75681600  1
  O  O5  1  0.84602300  0.69204500  0.08285100  1
  O  O6  1  0.16233800  0.83766200  0.24318400  1
  O  O7  1  0.30795500  0.15397700  0.08285100  1
  O  O8  1  0.84602300  0.15397700  0.08285100  1
  O  O9  1  0.69204500  0.84602300  0.91714900  1
  O  O10  1  0.67532400  0.83766200  0.24318400  1
  O  O11  1  0.15397700  0.84602300  0.91714900  1
loop_
_geom_bond_atom_site_label_1
_geom_bond_atom_site_label_2
_geom_bond_distance
_geom_bond_site_symmetry_2
Ba0 O6 2.565392 1_555
Ba0 O10 2.565396 1_555
Ba0 O2 2.565396 1_555
Ba0 Cl1 3.210735 1_555
Ba0 Cl0 3.583783 1_455
Ba0 Cl0 3.583783 1_565
Ba0 Cl0 3.583793 1_555
Ba1 O9 2.654798 1_555
Ba1 O0 2.654798 1_555
Ba1 O11 2.654798 1_555
Ba1 O1 3.068525 1_565
Ba1 O3 3.068525 1_455
Ba1 O4 3.068528 1_565
Ba1 O4 3.068528 1_455
Ba1 O3 3.068531 1_555
Ba1 O1 3.068531 1_555
Ba1 Cl1 3.177460 1_555
Ba2 O4 2.565392 1_555
Ba2 O3 2.565396 1_555
Ba2 O1 2.565396 1_555
Ba2 Cl0 3.210735 1_555
Ba2 Cl1 3.583783 1_545
Ba2 Cl1 3.583783 1_655
Ba2 Cl1 3.583793 1_555
Ba3 O7 2.996135 1_556
Ba3 O5 2.996135 1_556
Ba3 O8 2.996135 1_556
Ba3 O0 3.029228 1_655
Ba3 O9 3.029228 1_545
Ba3 O11 3.029234 1_545
Ba3 O11 3.029234 1_655
Ba3 O9 3.029240 1_555
Ba3 O0 3.029240 1_555
Ba3 O4 3.117722 1_555
Ba3 O3 3.117725 1_555
Ba3 O1 3.117725 1_555
Ba4 O9 2.996135 1_554
Ba4 O0 2.996135 1_554
Ba4 O11 2.996135 1_554
Ba4 O7 3.029228 1_565
Ba4 O5 3.029228 1_455
Ba4 O8 3.029234 1_455
Ba4 O8 3.029234 1_565
Ba4 O7 3.029240 1_555
Ba4 O5 3.029240 1_555
Ba4 O6 3.117722 1_555
Ba4 O10 3.117725 1_555
Ba4 O2 3.117725 1_555
Ba5 O7 2.654798 1_555
Ba5 O5 2.654798 1_555
Ba5 O8 2.654798 1_555
Ba5 O2 3.068525 1_655
Ba5 O10 3.068525 1_545
Ba5 O6 3.068528 1_655
Ba5 O6 3.068528 1_545
Ba5 O10 3.068531 1_555
Ba5 O2 3.068531 1_555
Ba5 Cl0 3.177460 1_555
Nb0 O1 1.898117 1_555
Nb0 O3 1.898117 1_445
Nb0 O4 1.898117 1_455
Nb0 O11 2.242376 1_545
Nb0 O9 2.242380 1_445
Nb0 O0 2.242380 1_555
Nb1 O2 1.898117 1_555
Nb1 O10 1.898117 1_445
Nb1 O6 1.898117 1_545
Nb1 O8 2.242376 1_455
Nb1 O7 2.242380 1_555
Nb1 O5 2.242380 1_445
Ir0 O11 2.035072 1_544
Ir0 O8 2.035072 1_455
Ir0 O7 2.035076 1_555
Ir0 O5 2.035076 1_445
Ir0 O9 2.035076 1_444
Ir0 O0 2.035076 1_554
