# generated using pymatgen
data_Sr2Cu(BrO)2
_symmetry_space_group_name_H-M   'P 1'
_cell_length_a   9.87839968
_cell_length_b   9.87839968
_cell_length_c   9.87839968
_cell_angle_alpha   156.67358408
_cell_angle_beta   156.67358408
_cell_angle_gamma   33.22473598
_symmetry_Int_Tables_number   1
_chemical_formula_structural   Sr2Cu(BrO)2
_chemical_formula_sum   'Sr2 Cu1 Br2 O2'
_cell_volume   151.00361521
_cell_formula_units_Z   1
loop_
 _symmetry_equiv_pos_site_id
 _symmetry_equiv_pos_as_xyz
  1  'x, y, z'
loop_
 _atom_site_type_symbol
 _atom_site_label
 _atom_site_symmetry_multiplicity
 _atom_site_fract_x
 _atom_site_fract_y
 _atom_site_fract_z
 _atom_site_occupancy
  Sr  Sr0  1  0.58991300  0.58991300  0.00000000  1
  Sr  Sr1  1  0.41008700  0.41008700  0.00000000  1
  Cu  Cu0  1  0.00000000  0.00000000  0.00000000  1
  Br  Br0  1  0.83210800  0.83210800  0.00000000  1
  Br  Br1  1  0.16789200  0.16789200  0.00000000  1
  O  O0  1  0.00000000  0.50000000  0.50000000  1
  O  O1  1  0.50000000  0.00000000  0.50000000  1
loop_
_geom_bond_atom_site_label_1
_geom_bond_atom_site_label_2
_geom_bond_distance
_geom_bond_site_symmetry_2
Cu0 O1 1.997002 1_555
Cu0 O0 1.997002 1_555
Cu0 O0 1.997002 1_544
Cu0 O1 1.997002 1_454
Br0 Cu0 3.178560 1_665
Br0 Sr1 3.186774 1_666
Br0 Sr1 3.186774 1_565
Br0 Sr1 3.186774 1_655
Br0 Sr1 3.186774 1_554
Br1 Cu0 3.178560 1_555
Br1 Sr0 3.186774 1_556
Br1 Sr0 3.186774 1_545
Br1 Sr0 3.186774 1_444
Br1 Sr0 3.186774 1_455
O0 Sr1 2.624055 1_556
O0 Sr0 2.624055 1_455
O0 Sr0 2.624055 1_556
O0 Sr1 2.624055 1_455
O1 Sr0 2.624055 1_556
O1 Sr0 2.624055 1_545
O1 Sr1 2.624055 1_556
O1 Sr1 2.624055 1_545
