# generated using pymatgen
data_Sr2LiCBr3N2
_symmetry_space_group_name_H-M   'P 1'
_cell_length_a   10.43850971
_cell_length_b   10.43850971
_cell_length_c   10.43850971
_cell_angle_alpha   60.00000000
_cell_angle_beta   60.00000000
_cell_angle_gamma   60.00000000
_symmetry_Int_Tables_number   1
_chemical_formula_structural   Sr2LiCBr3N2
_chemical_formula_sum   'Sr8 Li4 C4 Br12 N8'
_cell_volume   804.26746493
_cell_formula_units_Z   4
loop_
 _symmetry_equiv_pos_site_id
 _symmetry_equiv_pos_as_xyz
  1  'x, y, z'
loop_
 _atom_site_type_symbol
 _atom_site_label
 _atom_site_symmetry_multiplicity
 _atom_site_fract_x
 _atom_site_fract_y
 _atom_site_fract_z
 _atom_site_occupancy
  Sr  Sr0  1  0.78915900  0.40361400  0.40361400  1
  Sr  Sr1  1  0.46084100  0.84638600  0.84638600  1
  Sr  Sr2  1  0.84638600  0.84638600  0.84638600  1
  Sr  Sr3  1  0.40361400  0.40361400  0.78915900  1
  Sr  Sr4  1  0.84638600  0.84638600  0.46084100  1
  Sr  Sr5  1  0.84638600  0.46084100  0.84638600  1
  Sr  Sr6  1  0.40361400  0.40361400  0.40361400  1
  Sr  Sr7  1  0.40361400  0.78915900  0.40361400  1
  Li  Li0  1  0.12500000  0.12500000  0.12500000  1
  Li  Li1  1  0.12500000  0.12500000  0.62500000  1
  Li  Li2  1  0.62500000  0.12500000  0.12500000  1
  Li  Li3  1  0.12500000  0.62500000  0.12500000  1
  C  C0  1  0.12500000  0.62500000  0.62500000  1
  C  C1  1  0.62500000  0.12500000  0.62500000  1
  C  C2  1  0.62500000  0.62500000  0.12500000  1
  C  C3  1  0.62500000  0.62500000  0.62500000  1
  Br  Br0  1  0.05405500  0.44594500  0.44594500  1
  Br  Br1  1  0.80405500  0.19594500  0.19594500  1
  Br  Br2  1  0.44594500  0.05405500  0.05405500  1
  Br  Br3  1  0.80405500  0.80405500  0.19594500  1
  Br  Br4  1  0.05405500  0.44594500  0.05405500  1
  Br  Br5  1  0.44594500  0.05405500  0.44594500  1
  Br  Br6  1  0.19594500  0.80405500  0.80405500  1
  Br  Br7  1  0.19594500  0.19594500  0.80405500  1
  Br  Br8  1  0.80405500  0.19594500  0.80405500  1
  Br  Br9  1  0.44594500  0.44594500  0.05405500  1
  Br  Br10  1  0.19594500  0.80405500  0.19594500  1
  Br  Br11  1  0.05405500  0.05405500  0.44594500  1
  N  N0  1  0.26984000  0.57672000  0.57672000  1
  N  N1  1  0.67328000  0.67328000  0.98016000  1
  N  N2  1  0.67328000  0.98016000  0.67328000  1
  N  N3  1  0.57672000  0.57672000  0.57672000  1
  N  N4  1  0.57672000  0.26984000  0.57672000  1
  N  N5  1  0.98016000  0.67328000  0.67328000  1
  N  N6  1  0.57672000  0.57672000  0.26984000  1
  N  N7  1  0.67328000  0.67328000  0.67328000  1
loop_
_geom_bond_atom_site_label_1
_geom_bond_atom_site_label_2
_geom_bond_distance
_geom_bond_site_symmetry_2
C0 N5 1.234472 1_455
C0 N0 1.234472 1_555
C1 N2 1.234472 1_545
C1 N4 1.234472 1_555
C2 N1 1.234472 1_554
C2 N6 1.234472 1_555
C3 N3 1.234472 1_555
C3 N7 1.234472 1_555
Br0 Li1 2.811941 1_555
Br0 Li3 2.811941 1_555
Br0 Sr0 3.267308 1_455
Br0 Sr6 3.267318 1_555
Br0 Sr5 3.667078 1_455
Br0 Sr4 3.667078 1_455
Br1 Li2 2.811941 1_555
Br1 Li0 2.811941 1_655
Br1 Sr5 3.267314 1_554
Br1 Sr4 3.267314 1_545
Br1 Sr6 3.667081 1_555
Br1 Sr0 3.667087 1_555
Br2 Li2 2.811941 1_555
Br2 Li0 2.811941 1_555
Br2 Sr3 3.267314 1_554
Br2 Sr7 3.267314 1_545
Br2 Sr2 3.667081 1_544
Br2 Sr1 3.667087 1_544
Br3 Li2 2.811941 1_565
Br3 Li3 2.811941 1_655
Br3 Sr4 3.267308 1_555
Br3 Sr2 3.267318 1_554
Br3 Sr7 3.667078 1_555
Br3 Sr0 3.667078 1_555
Br4 Li0 2.811941 1_555
Br4 Li3 2.811941 1_555
Br4 Sr0 3.267314 1_455
Br4 Sr3 3.267314 1_554
Br4 Sr2 3.667081 1_454
Br4 Sr5 3.667087 1_454
Br5 Li2 2.811941 1_555
Br5 Li1 2.811941 1_555
Br5 Sr7 3.267308 1_545
Br5 Sr6 3.267318 1_555
Br5 Sr1 3.667078 1_545
Br5 Sr4 3.667078 1_545
Br6 Li3 2.811941 1_556
Br6 Li1 2.811941 1_565
Br6 Sr1 3.267308 1_555
Br6 Sr2 3.267318 1_455
Br6 Sr7 3.667078 1_555
Br6 Sr3 3.667078 1_555
Br7 Li1 2.811941 1_555
Br7 Li0 2.811941 1_556
Br7 Sr5 3.267314 1_455
Br7 Sr1 3.267314 1_545
Br7 Sr6 3.667081 1_555
Br7 Sr3 3.667087 1_555
Br8 Li2 2.811941 1_556
Br8 Li1 2.811941 1_655
Br8 Sr5 3.267308 1_555
Br8 Sr2 3.267318 1_545
Br8 Sr3 3.667078 1_555
Br8 Sr0 3.667078 1_555
Br9 Li2 2.811941 1_555
Br9 Li3 2.811941 1_555
Br9 Sr3 3.267308 1_554
Br9 Sr6 3.267318 1_555
Br9 Sr1 3.667078 1_554
Br9 Sr5 3.667078 1_554
Br10 Li3 2.811941 1_555
Br10 Li0 2.811941 1_565
Br10 Sr1 3.267314 1_554
Br10 Sr4 3.267314 1_455
Br10 Sr6 3.667081 1_555
Br10 Sr7 3.667087 1_555
Br11 Li0 2.811941 1_555
Br11 Li1 2.811941 1_555
Br11 Sr0 3.267314 1_455
Br11 Sr7 3.267314 1_545
Br11 Sr2 3.667081 1_445
Br11 Sr4 3.667087 1_445
N0 Sr6 2.588211 1_555
N0 Sr7 2.588219 1_555
N0 Sr3 2.588219 1_555
N1 Sr2 2.588211 1_555
N1 Sr1 2.588219 1_555
N1 Sr5 2.588219 1_555
N2 Sr2 2.588211 1_555
N2 Sr1 2.588219 1_555
N2 Sr4 2.588219 1_555
N3 Sr3 2.588213 1_555
N3 Sr0 2.588213 1_555
N3 Sr7 2.588213 1_555
N4 Sr6 2.588211 1_555
N4 Sr0 2.588219 1_555
N4 Sr3 2.588219 1_555
N5 Sr2 2.588211 1_555
N5 Sr4 2.588219 1_555
N5 Sr5 2.588219 1_555
N6 Sr6 2.588211 1_555
N6 Sr0 2.588219 1_555
N6 Sr7 2.588219 1_555
N7 Sr5 2.588213 1_555
N7 Sr4 2.588213 1_555
N7 Sr1 2.588213 1_555
