# generated using pymatgen
data_BaHo2CoO5
_symmetry_space_group_name_H-M   'P 1'
_cell_length_a   5.74116300
_cell_length_b   7.10775600
_cell_length_c   12.32996100
_cell_angle_alpha   90.00000000
_cell_angle_beta   90.00000000
_cell_angle_gamma   90.00000000
_symmetry_Int_Tables_number   1
_chemical_formula_structural   BaHo2CoO5
_chemical_formula_sum   'Ba4 Ho8 Co4 O20'
_cell_volume   503.14607696
_cell_formula_units_Z   4
loop_
 _symmetry_equiv_pos_site_id
 _symmetry_equiv_pos_as_xyz
  1  'x, y, z'
loop_
 _atom_site_type_symbol
 _atom_site_label
 _atom_site_symmetry_multiplicity
 _atom_site_fract_x
 _atom_site_fract_y
 _atom_site_fract_z
 _atom_site_occupancy
  Ba  Ba0  1  0.25000000  0.92151200  0.89994700  1
  Ba  Ba1  1  0.75000000  0.07848800  0.10005300  1
  Ba  Ba2  1  0.75000000  0.42151200  0.60005300  1
  Ba  Ba3  1  0.25000000  0.57848800  0.39994700  1
  Ho  Ho0  1  0.25000000  0.11896100  0.29154500  1
  Ho  Ho1  1  0.75000000  0.88103900  0.70845500  1
  Ho  Ho2  1  0.75000000  0.61896100  0.20845500  1
  Ho  Ho3  1  0.25000000  0.38103900  0.79154500  1
  Ho  Ho4  1  0.25000000  0.40116100  0.07447400  1
  Ho  Ho5  1  0.75000000  0.59883900  0.92552600  1
  Ho  Ho6  1  0.75000000  0.90116100  0.42552600  1
  Ho  Ho7  1  0.25000000  0.09883900  0.57447400  1
  Co  Co0  1  0.25000000  0.69258600  0.65248100  1
  Co  Co1  1  0.75000000  0.30741400  0.34751900  1
  Co  Co2  1  0.75000000  0.19258600  0.84751900  1
  Co  Co3  1  0.25000000  0.80741400  0.15248100  1
  O  O0  1  0.99673200  0.16555900  0.43423100  1
  O  O1  1  0.49673200  0.83444100  0.56576900  1
  O  O2  1  0.00326800  0.66555900  0.06576900  1
  O  O3  1  0.50326800  0.33444100  0.93423100  1
  O  O4  1  0.00326800  0.83444100  0.56576900  1
  O  O5  1  0.50326800  0.16555900  0.43423100  1
  O  O6  1  0.99673200  0.33444100  0.93423100  1
  O  O7  1  0.49673200  0.66555900  0.06576900  1
  O  O8  1  0.50078600  0.36050100  0.22465700  1
  O  O9  1  0.00078600  0.63949900  0.77534300  1
  O  O10  1  0.49921400  0.86050100  0.27534300  1
  O  O11  1  0.99921400  0.13949900  0.72465700  1
  O  O12  1  0.49921400  0.63949900  0.77534300  1
  O  O13  1  0.99921400  0.36050100  0.22465700  1
  O  O14  1  0.50078600  0.13949900  0.72465700  1
  O  O15  1  0.00078600  0.86050100  0.27534300  1
  O  O16  1  0.25000000  0.07630800  0.10248700  1
  O  O17  1  0.75000000  0.92369200  0.89751300  1
  O  O18  1  0.75000000  0.57630800  0.39751300  1
  O  O19  1  0.25000000  0.42369200  0.60248700  1
loop_
_geom_bond_atom_site_label_1
_geom_bond_atom_site_label_2
_geom_bond_distance
_geom_bond_site_symmetry_2
Ba0 O16 2.728940 1_566
Ba0 O17 2.870780 1_455
Ba0 O17 2.870780 1_555
Ba0 O12 2.902667 1_555
Ba0 O9 2.902667 1_555
Ba0 O14 3.024065 1_565
Ba0 O11 3.024065 1_465
Ba0 O7 3.081644 1_556
Ba0 O2 3.081644 1_556
Ba0 O3 3.302602 1_565
Ba0 O6 3.302602 1_465
Ba1 O17 2.728940 1_544
Ba1 O16 2.870780 1_555
Ba1 O16 2.870780 1_655
Ba1 O13 2.902667 1_555
Ba1 O8 2.902667 1_555
Ba1 O15 3.024065 1_645
Ba1 O10 3.024065 1_545
Ba1 O6 3.081644 1_554
Ba1 O3 3.081644 1_554
Ba1 O2 3.302602 1_645
Ba1 O7 3.302602 1_545
Ba2 O18 2.728940 1_555
Ba2 O19 2.870780 1_655
Ba2 O19 2.870780 1_555
Ba2 O11 2.902667 1_555
Ba2 O14 2.902667 1_555
Ba2 O9 3.024065 1_655
Ba2 O12 3.024065 1_555
Ba2 O0 3.081644 1_555
Ba2 O5 3.081644 1_555
Ba2 O4 3.302602 1_655
Ba2 O1 3.302602 1_555
Ba3 O19 2.728940 1_555
Ba3 O18 2.870780 1_555
Ba3 O18 2.870780 1_455
Ba3 O10 2.902667 1_555
Ba3 O15 2.902667 1_555
Ba3 O8 3.024065 1_555
Ba3 O13 3.024065 1_455
Ba3 O1 3.081644 1_555
Ba3 O4 3.081644 1_555
Ba3 O5 3.302602 1_555
Ba3 O0 3.302602 1_455
Ho0 O5 2.306328 1_555
Ho0 O0 2.306328 1_455
Ho0 O10 2.337063 1_545
Ho0 O15 2.337063 1_545
Ho0 O16 2.350709 1_555
Ho0 O8 2.387600 1_555
Ho0 O13 2.387600 1_455
Ho1 O4 2.306328 1_655
Ho1 O1 2.306328 1_555
Ho1 O11 2.337063 1_565
Ho1 O14 2.337063 1_565
Ho1 O17 2.350709 1_555
Ho1 O9 2.387600 1_655
Ho1 O12 2.387600 1_555
Ho2 O2 2.306328 1_655
Ho2 O7 2.306328 1_555
Ho2 O13 2.337063 1_555
Ho2 O8 2.337063 1_555
Ho2 O18 2.350709 1_555
Ho2 O15 2.387600 1_655
Ho2 O10 2.387600 1_555
Ho3 O3 2.306328 1_555
Ho3 O6 2.306328 1_455
Ho3 O12 2.337063 1_555
Ho3 O9 2.337063 1_555
Ho3 O19 2.350709 1_555
Ho3 O14 2.387600 1_555
Ho3 O11 2.387600 1_455
Ho4 O3 2.308520 1_554
Ho4 O6 2.308520 1_454
Ho4 O16 2.334667 1_555
Ho4 O7 2.355792 1_555
Ho4 O2 2.355792 1_555
Ho4 O8 2.363374 1_555
Ho4 O13 2.363374 1_455
Ho5 O2 2.308520 1_656
Ho5 O7 2.308520 1_556
Ho5 O17 2.334667 1_555
Ho5 O6 2.355792 1_555
Ho5 O3 2.355792 1_555
Ho5 O9 2.363374 1_655
Ho5 O12 2.363374 1_555
Ho6 O4 2.308520 1_655
Ho6 O1 2.308520 1_555
Ho6 O18 2.334667 1_555
Ho6 O0 2.355792 1_565
Ho6 O5 2.355792 1_565
Ho6 O15 2.363374 1_655
Ho6 O10 2.363374 1_555
Ho7 O5 2.308520 1_555
Ho7 O0 2.308520 1_455
Ho7 O19 2.334667 1_555
Ho7 O1 2.355792 1_545
Ho7 O4 2.355792 1_545
Ho7 O14 2.363374 1_555
Ho7 O11 2.363374 1_455
Co0 O19 2.008181 1_555
Co0 O1 2.041141 1_555
Co0 O4 2.041141 1_555
Co0 O12 2.117635 1_555
Co0 O9 2.117635 1_555
Co1 O18 2.008181 1_555
Co1 O0 2.041141 1_555
Co1 O5 2.041141 1_555
Co1 O13 2.117635 1_555
Co1 O8 2.117635 1_555
Co2 O17 2.008181 1_545
Co2 O6 2.041141 1_555
Co2 O3 2.041141 1_555
Co2 O11 2.117635 1_555
Co2 O14 2.117635 1_555
Co3 O16 2.008181 1_565
Co3 O7 2.041141 1_555
Co3 O2 2.041141 1_555
Co3 O10 2.117635 1_555
Co3 O15 2.117635 1_555
