# generated using pymatgen
data_Eu2Si2O7
_symmetry_space_group_name_H-M   'P 1'
_cell_length_a   6.83196300
_cell_length_b   6.72051500
_cell_length_c   12.92754733
_cell_angle_alpha   71.40072281
_cell_angle_beta   90.00000000
_cell_angle_gamma   90.00000000
_symmetry_Int_Tables_number   1
_chemical_formula_structural   Eu2Si2O7
_chemical_formula_sum   'Eu8 Si8 O28'
_cell_volume   562.55924996
_cell_formula_units_Z   4
loop_
 _symmetry_equiv_pos_site_id
 _symmetry_equiv_pos_as_xyz
  1  'x, y, z'
loop_
 _atom_site_type_symbol
 _atom_site_label
 _atom_site_symmetry_multiplicity
 _atom_site_fract_x
 _atom_site_fract_y
 _atom_site_fract_z
 _atom_site_occupancy
  Eu  Eu0  1  0.89510200  0.46816100  0.36272500  1
  Eu  Eu1  1  0.39510200  0.53183900  0.13727500  1
  Eu  Eu2  1  0.10489800  0.53183900  0.63727500  1
  Eu  Eu3  1  0.60489800  0.46816100  0.86272500  1
  Eu  Eu4  1  0.66990800  0.15641400  0.65271100  1
  Eu  Eu5  1  0.16990800  0.84358600  0.84728900  1
  Eu  Eu6  1  0.33009200  0.84358600  0.34728900  1
  Eu  Eu7  1  0.83009200  0.15641400  0.15271100  1
  Si  Si0  1  0.82934200  0.89547200  0.41401800  1
  Si  Si1  1  0.32934200  0.10452800  0.08598200  1
  Si  Si2  1  0.17065800  0.10452800  0.58598200  1
  Si  Si3  1  0.67065800  0.89547200  0.91401800  1
  Si  Si4  1  0.58237100  0.70941800  0.60873100  1
  Si  Si5  1  0.08237100  0.29058200  0.89126900  1
  Si  Si6  1  0.41762900  0.29058200  0.39126900  1
  Si  Si7  1  0.91762900  0.70941800  0.10873100  1
  O  O0  1  0.71853900  0.90303800  0.52774100  1
  O  O1  1  0.21853900  0.09696200  0.97225900  1
  O  O2  1  0.28146100  0.09696200  0.47225900  1
  O  O3  1  0.78146100  0.90303800  0.02774100  1
  O  O4  1  0.01231300  0.72678700  0.44890100  1
  O  O5  1  0.51231300  0.27321300  0.05109900  1
  O  O6  1  0.98768700  0.27321300  0.55109900  1
  O  O7  1  0.48768700  0.72678700  0.94890100  1
  O  O8  1  0.72167700  0.50409300  0.66614000  1
  O  O9  1  0.22167700  0.49590700  0.83386000  1
  O  O10  1  0.27832300  0.49590700  0.33386000  1
  O  O11  1  0.77832300  0.50409300  0.16614000  1
  O  O12  1  0.51508700  0.79863800  0.70748700  1
  O  O13  1  0.01508700  0.20136200  0.79251300  1
  O  O14  1  0.48491300  0.20136200  0.29251300  1
  O  O15  1  0.98491300  0.79863800  0.20748700  1
  O  O16  1  0.90656200  0.12592600  0.34111000  1
  O  O17  1  0.40656200  0.87407400  0.15889000  1
  O  O18  1  0.09343800  0.87407400  0.65889000  1
  O  O19  1  0.59343800  0.12592600  0.84111000  1
  O  O20  1  0.67594000  0.79396500  0.34708500  1
  O  O21  1  0.17594000  0.20603500  0.15291500  1
  O  O22  1  0.32406000  0.20603500  0.65291500  1
  O  O23  1  0.82406000  0.79396500  0.84708500  1
  O  O24  1  0.39707100  0.65975700  0.54202200  1
  O  O25  1  0.89707100  0.34024300  0.95797800  1
  O  O26  1  0.60292900  0.34024300  0.45797800  1
  O  O27  1  0.10292900  0.65975700  0.04202200  1
loop_
_geom_bond_atom_site_label_1
_geom_bond_atom_site_label_2
_geom_bond_distance
_geom_bond_site_symmetry_2
Eu0 O26 2.358932 1_555
Eu0 O16 2.405027 1_555
Eu0 O6 2.451869 1_555
Eu0 O4 2.477601 1_655
Eu0 O15 2.548226 1_555
Eu0 O11 2.600364 1_555
Eu0 O20 2.606651 1_555
Eu0 O10 2.642791 1_655
Eu1 O27 2.358932 1_555
Eu1 O17 2.405027 1_555
Eu1 O7 2.451869 1_554
Eu1 O5 2.477601 1_555
Eu1 O14 2.548226 1_555
Eu1 O10 2.600364 1_555
Eu1 O21 2.606651 1_555
Eu1 O11 2.642791 1_555
Eu2 O24 2.358932 1_555
Eu2 O18 2.405027 1_555
Eu2 O4 2.451869 1_555
Eu2 O6 2.477601 1_455
Eu2 O13 2.548226 1_555
Eu2 O9 2.600364 1_555
Eu2 O22 2.606651 1_555
Eu2 O8 2.642791 1_455
Eu3 O25 2.358932 1_555
Eu3 O19 2.405027 1_555
Eu3 O5 2.451869 1_556
Eu3 O7 2.477601 1_555
Eu3 O12 2.548226 1_555
Eu3 O8 2.600364 1_555
Eu3 O23 2.606651 1_555
Eu3 O9 2.642791 1_555
Eu4 O22 2.386357 1_555
Eu4 O8 2.423551 1_555
Eu4 O19 2.434838 1_555
Eu4 O26 2.467624 1_555
Eu4 O12 2.513057 1_545
Eu4 O6 2.529311 1_555
Eu4 O0 2.715665 1_545
Eu4 O13 3.044202 1_655
Eu4 O23 3.074436 1_545
Eu5 O23 2.386357 1_455
Eu5 O9 2.423551 1_555
Eu5 O18 2.434838 1_555
Eu5 O27 2.467624 1_556
Eu5 O13 2.513057 1_565
Eu5 O7 2.529311 1_555
Eu5 O1 2.715665 1_565
Eu5 O12 3.044202 1_555
Eu5 O22 3.074436 1_565
Eu6 O20 2.386357 1_555
Eu6 O10 2.423551 1_555
Eu6 O17 2.434838 1_555
Eu6 O24 2.467624 1_555
Eu6 O14 2.513057 1_565
Eu6 O4 2.529311 1_555
Eu6 O2 2.715665 1_565
Eu6 O15 3.044202 1_455
Eu6 O21 3.074436 1_565
Eu7 O21 2.386357 1_655
Eu7 O11 2.423551 1_555
Eu7 O16 2.434838 1_555
Eu7 O25 2.467624 1_554
Eu7 O15 2.513057 1_545
Eu7 O5 2.529311 1_555
Eu7 O3 2.715665 1_545
Eu7 O14 3.044202 1_555
Eu7 O20 3.074436 1_545
O0 Si0 1.668739 1_555
O0 Si4 1.669069 1_555
O1 Si1 1.668739 1_556
O1 Si5 1.669069 1_555
O2 Si2 1.668739 1_555
O2 Si6 1.669069 1_555
O3 Si3 1.668739 1_554
O3 Si7 1.669069 1_555
O4 Si0 1.650770 1_455
O5 Si1 1.650770 1_555
O6 Si2 1.650770 1_655
O7 Si3 1.650770 1_555
O8 Si4 1.645425 1_555
O9 Si5 1.645425 1_555
O10 Si6 1.645425 1_555
O11 Si7 1.645425 1_555
O12 Si4 1.639827 1_555
O13 Si5 1.639827 1_555
O14 Si6 1.639827 1_555
O15 Si7 1.639827 1_555
O16 Si0 1.623019 1_545
O17 Si1 1.623019 1_565
O18 Si2 1.623019 1_565
O19 Si3 1.623019 1_545
O20 Si0 1.639815 1_555
O21 Si1 1.639815 1_555
O22 Si2 1.639815 1_555
O23 Si3 1.639815 1_555
O24 Si4 1.625224 1_555
O25 Si5 1.625224 1_655
O26 Si6 1.625224 1_555
O27 Si7 1.625224 1_455
