# generated using pymatgen
data_BaNb2Bi2O9
_symmetry_space_group_name_H-M   'P 1'
_cell_length_a   13.05287155
_cell_length_b   13.05287155
_cell_length_c   5.76026500
_cell_angle_alpha   90.00000000
_cell_angle_beta   90.00000000
_cell_angle_gamma   154.67017332
_symmetry_Int_Tables_number   1
_chemical_formula_structural   BaNb2Bi2O9
_chemical_formula_sum   'Ba2 Nb4 Bi4 O18'
_cell_volume   419.87909286
_cell_formula_units_Z   2
loop_
 _symmetry_equiv_pos_site_id
 _symmetry_equiv_pos_as_xyz
  1  'x, y, z'
loop_
 _atom_site_type_symbol
 _atom_site_label
 _atom_site_symmetry_multiplicity
 _atom_site_fract_x
 _atom_site_fract_y
 _atom_site_fract_z
 _atom_site_occupancy
  Ba  Ba0  1  0.75171400  0.75171400  0.53520800  1
  Ba  Ba1  1  0.24828600  0.24828600  0.03520800  1
  Nb  Nb0  1  0.33715300  0.16626100  0.52286100  1
  Nb  Nb1  1  0.83373900  0.66284700  0.02286100  1
  Nb  Nb2  1  0.16626100  0.33715300  0.52286100  1
  Nb  Nb3  1  0.66284700  0.83373900  0.02286100  1
  Bi  Bi0  1  0.47791300  0.07508300  0.92720600  1
  Bi  Bi1  1  0.92491700  0.52208700  0.42720600  1
  Bi  Bi2  1  0.52208700  0.92491700  0.42720600  1
  Bi  Bi3  1  0.07508300  0.47791300  0.92720600  1
  O  O0  1  0.73677300  0.23375800  0.23152000  1
  O  O1  1  0.42803800  0.57852900  0.79909800  1
  O  O2  1  0.13543200  0.45336600  0.56651400  1
  O  O3  1  0.42147100  0.57196200  0.29909800  1
  O  O4  1  0.08561100  0.91939500  0.80291000  1
  O  O5  1  0.91939500  0.08561100  0.80291000  1
  O  O6  1  0.54663400  0.86456800  0.06651400  1
  O  O7  1  0.86456800  0.54663400  0.06651400  1
  O  O8  1  0.08060500  0.91438900  0.30291000  1
  O  O9  1  0.91438900  0.08060500  0.30291000  1
  O  O10  1  0.57852900  0.42803800  0.79909800  1
  O  O11  1  0.57196200  0.42147100  0.29909800  1
  O  O12  1  0.26322700  0.76624200  0.73152000  1
  O  O13  1  0.23375800  0.73677300  0.23152000  1
  O  O14  1  0.76624200  0.26322700  0.73152000  1
  O  O15  1  0.45336600  0.13543200  0.56651400  1
  O  O16  1  0.76494700  0.76494700  0.05257400  1
  O  O17  1  0.23505300  0.23505300  0.55257400  1
loop_
_geom_bond_atom_site_label_1
_geom_bond_atom_site_label_2
_geom_bond_distance
_geom_bond_site_symmetry_2
Ba0 O11 2.766422 1_555
Ba0 O3 2.766422 1_555
Ba0 O17 2.768272 1_665
Ba0 O16 2.781131 1_555
Ba0 O10 2.829428 1_555
Ba0 O1 2.829428 1_555
Ba0 O8 2.872351 1_655
Ba0 O9 2.872351 1_565
Ba0 O17 2.958879 1_555
Ba0 O16 2.981128 1_556
Ba0 O4 2.986503 1_655
Ba0 O5 2.986503 1_565
Ba1 O10 2.766422 1_554
Ba1 O1 2.766422 1_554
Ba1 O16 2.768272 1_445
Ba1 O17 2.781131 1_554
Ba1 O3 2.829428 1_555
Ba1 O11 2.829428 1_555
Ba1 O4 2.872351 1_544
Ba1 O5 2.872351 1_454
Ba1 O16 2.958879 1_555
Ba1 O17 2.981128 1_555
Ba1 O8 2.986503 1_545
Ba1 O9 2.986503 1_455
Nb0 O15 1.905164 1_555
Nb0 O11 1.922352 1_555
Nb0 O8 1.930240 1_545
Nb0 O4 2.154139 1_545
Nb0 O10 2.161673 1_555
Nb0 O17 2.185158 1_555
Nb1 O7 1.905164 1_555
Nb1 O10 1.922352 1_554
Nb1 O4 1.930240 1_654
Nb1 O8 2.154139 1_655
Nb1 O11 2.161673 1_555
Nb1 O16 2.185158 1_555
Nb2 O2 1.905164 1_555
Nb2 O3 1.922352 1_555
Nb2 O9 1.930240 1_455
Nb2 O5 2.154139 1_455
Nb2 O1 2.161673 1_555
Nb2 O17 2.185158 1_555
Nb3 O6 1.905164 1_555
Nb3 O1 1.922352 1_554
Nb3 O5 1.930240 1_564
Nb3 O9 2.154139 1_565
Nb3 O3 2.161673 1_555
Nb3 O16 2.185158 1_555
Bi0 O14 2.181244 1_555
Bi0 O12 2.225565 1_545
Bi0 O15 2.344397 1_555
Bi0 O0 2.475572 1_556
Bi0 O13 2.699848 1_546
Bi0 O7 2.800889 1_556
Bi1 O0 2.181244 1_555
Bi1 O13 2.225565 1_655
Bi1 O7 2.344397 1_555
Bi1 O14 2.475572 1_555
Bi1 O12 2.699848 1_655
Bi1 O15 2.800889 1_555
Bi2 O13 2.181244 1_555
Bi2 O0 2.225565 1_565
Bi2 O6 2.344397 1_555
Bi2 O12 2.475572 1_555
Bi2 O14 2.699848 1_565
Bi2 O2 2.800889 1_555
Bi3 O12 2.181244 1_555
Bi3 O14 2.225565 1_455
Bi3 O2 2.344397 1_555
Bi3 O13 2.475572 1_556
Bi3 O0 2.699848 1_456
Bi3 O6 2.800889 1_556
