# generated using pymatgen
data_KCr2PbF9
_symmetry_space_group_name_H-M   'P 1'
_cell_length_a   5.53211400
_cell_length_b   10.01560800
_cell_length_c   14.23263800
_cell_angle_alpha   90.00000000
_cell_angle_beta   90.00000000
_cell_angle_gamma   90.00000000
_symmetry_Int_Tables_number   1
_chemical_formula_structural   KCr2PbF9
_chemical_formula_sum   'K4 Cr8 Pb4 F36'
_cell_volume   788.59467984
_cell_formula_units_Z   4
loop_
 _symmetry_equiv_pos_site_id
 _symmetry_equiv_pos_as_xyz
  1  'x, y, z'
loop_
 _atom_site_type_symbol
 _atom_site_label
 _atom_site_symmetry_multiplicity
 _atom_site_fract_x
 _atom_site_fract_y
 _atom_site_fract_z
 _atom_site_occupancy
  K  K0  1  0.25000000  0.73009900  0.29950600  1
  K  K1  1  0.25000000  0.23009900  0.20049400  1
  K  K2  1  0.75000000  0.76990100  0.79950600  1
  K  K3  1  0.75000000  0.26990100  0.70049400  1
  Cr  Cr0  1  0.25000000  0.06645100  0.84470400  1
  Cr  Cr1  1  0.25000000  0.56645100  0.65529600  1
  Cr  Cr2  1  0.75000000  0.23118700  0.99232200  1
  Cr  Cr3  1  0.75000000  0.73118700  0.50767800  1
  Cr  Cr4  1  0.25000000  0.76881300  0.00767800  1
  Cr  Cr5  1  0.75000000  0.93354900  0.15529600  1
  Cr  Cr6  1  0.25000000  0.26881300  0.49232200  1
  Cr  Cr7  1  0.75000000  0.43354900  0.34470400  1
  Pb  Pb0  1  0.25000000  0.44769700  0.88868100  1
  Pb  Pb1  1  0.25000000  0.94769700  0.61131900  1
  Pb  Pb2  1  0.75000000  0.55230300  0.11131900  1
  Pb  Pb3  1  0.75000000  0.05230300  0.38868100  1
  F  F0  1  0.00157100  0.61711400  0.56296200  1
  F  F1  1  0.25000000  0.38118800  0.60690500  1
  F  F2  1  0.49842900  0.11711400  0.93703800  1
  F  F3  1  0.48618600  0.51573600  0.74828900  1
  F  F4  1  0.98618600  0.98426400  0.24828900  1
  F  F5  1  0.00901700  0.65405000  0.95059200  1
  F  F6  1  0.00157100  0.11711400  0.93703800  1
  F  F7  1  0.25000000  0.15186900  0.38613000  1
  F  F8  1  0.50157100  0.38288600  0.43703800  1
  F  F9  1  0.75000000  0.25552300  0.29394200  1
  F  F10  1  0.99098300  0.84595000  0.45059200  1
  F  F11  1  0.25000000  0.24447700  0.79394200  1
  F  F12  1  0.75000000  0.75552300  0.20605800  1
  F  F13  1  0.49098300  0.65405000  0.95059200  1
  F  F14  1  0.50901700  0.34595000  0.04940800  1
  F  F15  1  0.99842900  0.88288600  0.06296200  1
  F  F16  1  0.50901700  0.84595000  0.45059200  1
  F  F17  1  0.50157100  0.88288600  0.06296200  1
  F  F18  1  0.51381400  0.48426400  0.25171100  1
  F  F19  1  0.75000000  0.34813100  0.88613000  1
  F  F20  1  0.75000000  0.11881200  0.10690500  1
  F  F21  1  0.51381400  0.98426400  0.24828900  1
  F  F22  1  0.00901700  0.15405000  0.54940800  1
  F  F23  1  0.01381400  0.51573600  0.74828900  1
  F  F24  1  0.25000000  0.88118800  0.89309500  1
  F  F25  1  0.99098300  0.34595000  0.04940800  1
  F  F26  1  0.99842900  0.38288600  0.43703800  1
  F  F27  1  0.49098300  0.15405000  0.54940800  1
  F  F28  1  0.25000000  0.65186900  0.11387000  1
  F  F29  1  0.75000000  0.84813100  0.61387000  1
  F  F30  1  0.25000000  0.74447700  0.70605800  1
  F  F31  1  0.75000000  0.61881200  0.39309500  1
  F  F32  1  0.48618600  0.01573500  0.75171100  1
  F  F33  1  0.49842900  0.61711400  0.56296200  1
  F  F34  1  0.01381400  0.01573500  0.75171100  1
  F  F35  1  0.98618600  0.48426400  0.25171100  1
loop_
_geom_bond_atom_site_label_1
_geom_bond_atom_site_label_2
_geom_bond_distance
_geom_bond_site_symmetry_2
Cr0 F11 1.923850 1_555
Cr0 F32 1.927949 1_555
Cr0 F34 1.927949 1_555
Cr0 F2 1.968067 1_555
Cr0 F6 1.968067 1_555
Cr0 F24 1.979220 1_545
Cr1 F30 1.923850 1_555
Cr1 F3 1.927946 1_555
Cr1 F23 1.927946 1_555
Cr1 F33 1.968067 1_555
Cr1 F0 1.968067 1_555
Cr1 F1 1.979220 1_555
Cr2 F19 1.912111 1_555
Cr2 F25 1.938705 1_556
Cr2 F14 1.938705 1_556
Cr2 F6 1.965026 1_655
Cr2 F2 1.965026 1_555
Cr2 F20 1.981496 1_556
Cr3 F29 1.912111 1_555
Cr3 F10 1.938705 1_555
Cr3 F16 1.938705 1_555
Cr3 F0 1.965026 1_655
Cr3 F33 1.965026 1_555
Cr3 F31 1.981496 1_555
Cr4 F28 1.912111 1_555
Cr4 F13 1.938705 1_554
Cr4 F5 1.938705 1_554
Cr4 F17 1.965026 1_555
Cr4 F15 1.965026 1_455
Cr4 F24 1.981496 1_554
Cr5 F12 1.923850 1_555
Cr5 F21 1.927946 1_555
Cr5 F4 1.927946 1_555
Cr5 F15 1.968067 1_555
Cr5 F17 1.968067 1_555
Cr5 F20 1.979220 1_565
Cr6 F7 1.912111 1_555
Cr6 F27 1.938705 1_555
Cr6 F22 1.938705 1_555
Cr6 F8 1.965026 1_555
Cr6 F26 1.965026 1_455
Cr6 F1 1.981496 1_555
Cr7 F9 1.923850 1_555
Cr7 F18 1.927946 1_555
Cr7 F35 1.927946 1_555
Cr7 F26 1.968067 1_555
Cr7 F8 1.968067 1_555
Cr7 F31 1.979220 1_555
F1 K3 3.266143 1_555
F1 K3 3.266143 1_455
F3 Pb0 2.482780 1_555
F3 K3 2.941954 1_555
F3 K2 3.023496 1_555
F4 Pb3 2.482780 1_565
F4 K1 2.941954 1_665
F4 K0 3.023496 1_655
F5 Pb0 2.612503 1_555
F5 K2 2.832594 1_455
F7 K1 2.755820 1_555
F9 Pb3 2.441492 1_555
F9 K1 3.079747 1_555
F9 K1 3.079747 1_655
F10 Pb3 2.612503 1_565
F10 K0 2.832594 1_655
F11 Pb0 2.441492 1_555
F11 K3 3.079747 1_455
F11 K3 3.079747 1_555
F12 Pb2 2.441492 1_555
F12 K0 3.079747 1_555
F12 K0 3.079747 1_655
F13 Pb0 2.612503 1_555
F13 K2 2.832594 1_555
F14 Pb2 2.612503 1_555
F14 K1 2.832594 1_555
F16 Pb3 2.612503 1_565
F16 K0 2.832594 1_555
F18 Pb2 2.482780 1_555
F18 K0 2.941954 1_555
F18 K1 3.023496 1_555
F19 K3 2.755820 1_555
F20 K1 3.266143 1_655
F20 K1 3.266143 1_555
F21 Pb3 2.482780 1_565
F21 K1 2.941954 1_565
F21 K0 3.023496 1_555
F22 Pb1 2.612503 1_545
F22 K3 2.832594 1_455
F23 Pb0 2.482780 1_555
F23 K3 2.941954 1_455
F23 K2 3.023496 1_455
F24 K2 3.266143 1_455
F24 K2 3.266143 1_555
F25 Pb2 2.612503 1_555
F25 K1 2.832594 1_655
F27 Pb1 2.612503 1_545
F27 K3 2.832594 1_555
F28 K0 2.755820 1_555
F29 K2 2.755820 1_555
F30 Pb1 2.441492 1_555
F30 K2 3.079747 1_455
F30 K2 3.079747 1_555
F31 K0 3.266143 1_655
F31 K0 3.266143 1_555
F32 Pb1 2.482778 1_545
F32 K2 2.941946 1_545
F32 K3 3.023505 1_555
F34 Pb1 2.482778 1_545
F34 K2 2.941946 1_445
F34 K3 3.023505 1_455
F35 Pb2 2.482780 1_555
F35 K0 2.941954 1_655
F35 K1 3.023496 1_655
