# generated using pymatgen
data_Li15Si4
_symmetry_space_group_name_H-M   'P 1'
_cell_length_a   9.14179142
_cell_length_b   9.14179220
_cell_length_c   9.14179127
_cell_angle_alpha   109.47121634
_cell_angle_beta   109.47121807
_cell_angle_gamma   109.47122460
_symmetry_Int_Tables_number   1
_chemical_formula_structural   Li15Si4
_chemical_formula_sum   'Li30 Si8'
_cell_volume   588.12830162
_cell_formula_units_Z   2
loop_
 _symmetry_equiv_pos_site_id
 _symmetry_equiv_pos_as_xyz
  1  'x, y, z'
loop_
 _atom_site_type_symbol
 _atom_site_label
 _atom_site_symmetry_multiplicity
 _atom_site_fract_x
 _atom_site_fract_y
 _atom_site_fract_z
 _atom_site_occupancy
  Li  Li0  1  0.72505165  0.33960637  0.81030460  1
  Li  Li1  1  0.87500000  0.12500000  0.75000000  1
  Li  Li2  1  0.81030460  0.72505165  0.33960637  1
  Li  Li3  1  0.58525394  0.61455571  0.77494835  1
  Li  Li4  1  0.68969540  0.02930077  0.91474606  1
  Li  Li5  1  0.11455571  0.08525394  0.27494835  1
  Li  Li6  1  0.02930077  0.91474606  0.68969540  1
  Li  Li7  1  0.08525394  0.27494835  0.11455571  1
  Li  Li8  1  0.52930077  0.18969540  0.41474606  1
  Li  Li9  1  0.61455571  0.77494835  0.58525394  1
  Li  Li10  1  0.91474606  0.68969540  0.02930077  1
  Li  Li11  1  0.41474606  0.52930077  0.18969540  1
  Li  Li12  1  0.25000000  0.62500000  0.37500000  1
  Li  Li13  1  0.88544429  0.47069923  0.16039363  1
  Li  Li14  1  0.75000000  0.87500000  0.12500000  1
  Li  Li15  1  0.66039363  0.97069923  0.38544429  1
  Li  Li16  1  0.18969540  0.41474606  0.52930077  1
  Li  Li17  1  0.27494835  0.11455571  0.08525394  1
  Li  Li18  1  0.22505165  0.31030460  0.83960637  1
  Li  Li19  1  0.12500000  0.75000000  0.87500000  1
  Li  Li20  1  0.16039363  0.88544429  0.47069923  1
  Li  Li21  1  0.77494835  0.58525394  0.61455571  1
  Li  Li22  1  0.97069923  0.38544429  0.66039363  1
  Li  Li23  1  0.33960637  0.81030460  0.72505165  1
  Li  Li24  1  0.38544429  0.66039363  0.97069923  1
  Li  Li25  1  0.47069923  0.16039363  0.88544429  1
  Li  Li26  1  0.83960637  0.22505165  0.31030460  1
  Li  Li27  1  0.62500000  0.37500000  0.25000000  1
  Li  Li28  1  0.31030460  0.83960637  0.22505165  1
  Li  Li29  1  0.37500000  0.25000000  0.62500000  1
  Si  Si0  1  0.58544493  0.50000000  0.00000000  1
  Si  Si1  1  -0.00000000  0.58544493  0.50000000  1
  Si  Si2  1  0.08544493  0.50000000  0.00000000  1
  Si  Si3  1  0.50000000  0.00000000  0.08544493  1
  Si  Si4  1  0.50000000  0.00000000  0.58544493  1
  Si  Si5  1  -0.00000000  0.08544493  0.50000000  1
  Si  Si6  1  0.41455507  0.41455507  0.41455507  1
  Si  Si7  1  0.91455507  0.91455507  0.91455507  1
loop_
_geom_bond_atom_site_label_1
_geom_bond_atom_site_label_2
_geom_bond_distance
_geom_bond_site_symmetry_2
Li0 Si4 2.600901 1_555
Li0 Si2 2.699487 1_656
Li0 Li29 2.737631 1_555
Li0 Li1 2.758199 1_555
Li0 Si0 2.795352 1_556
Li1 Li22 2.737624 1_555
Li1 Li4 2.737625 1_555
Li1 Li9 2.737629 1_545
Li1 Li18 2.737631 1_655
Li1 Li6 2.758199 1_645
Li1 Li15 2.758207 1_545
Li1 Li7 2.758208 1_656
Li1 Si5 2.850520 1_655
Li1 Si4 2.850520 1_555
Li1 Si7 2.850520 1_545
Li1 Si2 2.850520 1_656
Li2 Si0 2.600901 1_555
Li2 Si5 2.699487 1_665
Li2 Li27 2.737631 1_555
Li2 Si1 2.795352 1_655
Li3 Si0 2.600908 1_556
Li3 Si6 2.699487 1_555
Li3 Si7 2.795342 1_555
Li4 Si7 2.600894 1_545
Li4 Si3 2.699494 1_556
Li4 Si4 2.795349 1_555
Li5 Si5 2.600908 1_555
Li5 Si7 2.699487 1_444
Li5 Si6 2.795342 1_555
Li6 Si7 2.600894 1_455
Li6 Si5 2.699494 1_565
Li6 Si1 2.795349 1_555
Li7 Si2 2.600908 1_555
Li7 Si7 2.699488 1_444
Li7 Si6 2.795342 1_555
Li8 Si6 2.600894 1_555
Li8 Si4 2.699494 1_555
Li8 Si3 2.795349 1_555
Li9 Si4 2.600909 1_565
Li9 Si6 2.699488 1_555
Li9 Si7 2.795342 1_555
Li10 Si7 2.600894 1_554
Li10 Si2 2.699494 1_655
Li10 Li14 2.737626 1_555
Li10 Li19 2.758199 1_654
Li10 Si0 2.795349 1_555
Li11 Si6 2.600894 1_555
Li11 Si0 2.699494 1_555
Li11 Li12 2.737626 1_555
Li11 Li27 2.758199 1_555
Li11 Si2 2.795349 1_555
Li12 Li20 2.737624 1_555
Li12 Li7 2.737629 1_555
Li12 Li23 2.737631 1_555
Li12 Li16 2.758199 1_555
Li12 Li28 2.758199 1_555
Li12 Li13 2.758207 1_455
Li12 Li9 2.758207 1_555
Li12 Si1 2.850520 1_555
Li12 Si2 2.850520 1_555
Li12 Si6 2.850520 1_555
Li12 Si4 2.850520 1_565
Li13 Si1 2.600901 1_655
Li13 Si2 2.699494 1_655
Li13 Li27 2.737624 1_555
Li13 Si0 2.795339 1_555
Li14 Li15 2.737624 1_555
Li14 Li3 2.737629 1_554
Li14 Li26 2.737631 1_565
Li14 Li4 2.758199 1_564
Li14 Li2 2.758199 1_555
Li14 Li24 2.758207 1_554
Li14 Li5 2.758207 1_665
Li14 Si7 2.850520 1_554
Li14 Si3 2.850520 1_565
Li14 Si5 2.850520 1_665
Li14 Si0 2.850520 1_555
Li15 Si5 2.600901 1_665
Li15 Si4 2.699494 1_565
Li15 Si3 2.795339 1_565
Li16 Si6 2.600894 1_555
Li16 Si1 2.699494 1_555
Li16 Li29 2.737626 1_555
Li16 Si5 2.795349 1_555
Li17 Si3 2.600908 1_555
Li17 Si7 2.699487 1_444
Li17 Li27 2.737629 1_555
Li17 Li19 2.758208 1_544
Li17 Si6 2.795342 1_555
Li18 Si5 2.600901 1_555
Li18 Si0 2.699487 1_556
Li18 Li29 2.758199 1_555
Li18 Si2 2.795352 1_556
Li19 Li24 2.737624 1_555
Li19 Li6 2.737626 1_555
Li19 Li21 2.737629 1_455
Li19 Li28 2.737631 1_556
Li19 Li23 2.758199 1_555
Li19 Li22 2.758208 1_455
Li19 Si3 2.850520 1_566
Li19 Si2 2.850520 1_556
Li19 Si1 2.850520 1_555
Li19 Si7 2.850520 1_455
Li20 Si4 2.600901 1_565
Li20 Si5 2.699494 1_565
Li20 Li29 2.758208 1_565
Li20 Si1 2.795339 1_555
Li21 Si1 2.600908 1_655
Li21 Si6 2.699487 1_555
Li21 Li27 2.758208 1_555
Li21 Si7 2.795343 1_555
Li22 Si2 2.600901 1_656
Li22 Si1 2.699494 1_655
Li22 Si5 2.795339 1_655
Li23 Si1 2.600901 1_555
Li23 Si3 2.699487 1_566
Li23 Si4 2.795352 1_565
Li24 Si3 2.600901 1_566
Li24 Si0 2.699494 1_556
Li24 Si2 2.795339 1_556
Li25 Si0 2.600901 1_556
Li25 Si3 2.699494 1_556
Li25 Li29 2.737624 1_555
Li25 Li27 2.758208 1_556
Li25 Si4 2.795339 1_555
Li26 Si3 2.600901 1_555
Li26 Si1 2.699487 1_655
Li26 Li27 2.758199 1_555
Li26 Si5 2.795352 1_655
Li27 Li8 2.737626 1_555
Li27 Si6 2.850520 1_555
Li27 Si0 2.850520 1_555
Li27 Si1 2.850520 1_655
Li27 Si3 2.850520 1_555
Li28 Si2 2.600901 1_555
Li28 Si4 2.699487 1_565
Li28 Si3 2.795352 1_565
Li29 Li5 2.737629 1_555
Li29 Li8 2.758199 1_555
Li29 Li3 2.758208 1_555
Li29 Si6 2.850520 1_555
Li29 Si5 2.850520 1_555
Li29 Si0 2.850520 1_556
Li29 Si4 2.850520 1_555
