# generated using pymatgen
data_TmMoO4F
_symmetry_space_group_name_H-M   'P 1'
_cell_length_a   12.32380200
_cell_length_b   5.21483800
_cell_length_c   6.64847110
_cell_angle_alpha   66.65991719
_cell_angle_beta   90.00000000
_cell_angle_gamma   90.00000000
_symmetry_Int_Tables_number   1
_chemical_formula_structural   TmMoO4F
_chemical_formula_sum   'Tm4 Mo4 O16 F4'
_cell_volume   392.31070025
_cell_formula_units_Z   4
loop_
 _symmetry_equiv_pos_site_id
 _symmetry_equiv_pos_as_xyz
  1  'x, y, z'
loop_
 _atom_site_type_symbol
 _atom_site_label
 _atom_site_symmetry_multiplicity
 _atom_site_fract_x
 _atom_site_fract_y
 _atom_site_fract_z
 _atom_site_occupancy
  Tm  Tm0  1  0.05046700  0.36076500  0.80057600  1
  Tm  Tm1  1  0.94953300  0.63923500  0.19942400  1
  Tm  Tm2  1  0.55046700  0.63923500  0.69942400  1
  Tm  Tm3  1  0.44953300  0.36076500  0.30057700  1
  Mo  Mo0  1  0.85628100  0.92085600  0.63031400  1
  Mo  Mo1  1  0.64371900  0.92085600  0.13031400  1
  Mo  Mo2  1  0.35628100  0.07914400  0.86968600  1
  Mo  Mo3  1  0.14371900  0.07914400  0.36968600  1
  O  O0  1  0.06866800  0.00120800  0.16039700  1
  O  O1  1  0.56434500  0.68912700  0.03706400  1
  O  O2  1  0.34681700  0.75795200  0.09623700  1
  O  O3  1  0.27931600  0.19375600  0.29521500  1
  O  O4  1  0.65318300  0.24204800  0.90376300  1
  O  O5  1  0.77931600  0.80624400  0.20478500  1
  O  O6  1  0.56866800  0.99879200  0.33960300  1
  O  O7  1  0.43565500  0.31087300  0.96293600  1
  O  O8  1  0.93133200  0.99879200  0.83960300  1
  O  O9  1  0.72068400  0.80624400  0.70478500  1
  O  O10  1  0.06434500  0.31087300  0.46293600  1
  O  O11  1  0.22068400  0.19375600  0.79521500  1
  O  O12  1  0.15318300  0.75795200  0.59623700  1
  O  O13  1  0.93565500  0.68912700  0.53706400  1
  O  O14  1  0.43133200  0.00120800  0.66039700  1
  O  O15  1  0.84681700  0.24204800  0.40376300  1
  F  F0  1  0.09728200  0.54288700  0.03594900  1
  F  F1  1  0.40271800  0.54288700  0.53594900  1
  F  F2  1  0.59728200  0.45711300  0.46405100  1
  F  F3  1  0.90271800  0.45711300  0.96405100  1
loop_
_geom_bond_atom_site_label_1
_geom_bond_atom_site_label_2
_geom_bond_distance
_geom_bond_site_symmetry_2
Mo0 O15 1.757483 1_565
Mo0 O9 1.777740 1_555
Mo0 O13 1.842596 1_555
Mo0 O8 1.845234 1_555
Mo1 O4 1.757483 1_564
Mo1 O5 1.777740 1_555
Mo1 O1 1.842596 1_555
Mo1 O6 1.845234 1_555
Mo2 O2 1.757483 1_546
Mo2 O11 1.777740 1_555
Mo2 O7 1.842596 1_555
Mo2 O14 1.845234 1_555
Mo3 O12 1.757483 1_545
Mo3 O3 1.777740 1_555
Mo3 O10 1.842596 1_555
Mo3 O0 1.845234 1_555
O0 Tm1 2.323356 1_445
O0 Tm0 2.394726 1_554
O1 Tm2 2.366180 1_554
O1 Tm3 2.372005 1_555
O2 Tm3 2.347019 1_555
O3 Tm3 2.277019 1_555
O4 Tm2 2.347018 1_555
O5 Tm1 2.277018 1_555
O6 Tm3 2.323357 1_565
O6 Tm2 2.394726 1_555
O7 Tm3 2.366187 1_556
O7 Tm2 2.372002 1_555
O8 Tm0 2.323356 1_665
O8 Tm1 2.394726 1_556
O9 Tm2 2.277018 1_555
O10 Tm0 2.366180 1_555
O10 Tm1 2.372002 1_455
O11 Tm0 2.277018 1_555
O12 Tm0 2.347018 1_555
O13 Tm1 2.366180 1_555
O13 Tm0 2.372002 1_655
O14 Tm2 2.323356 1_545
O14 Tm3 2.394721 1_555
O15 Tm1 2.347018 1_555
F0 Tm0 2.204840 1_554
F0 Tm1 2.276363 1_455
F1 Tm3 2.204834 1_555
F1 Tm2 2.276363 1_555
F2 Tm2 2.204840 1_555
F2 Tm3 2.276359 1_555
F3 Tm1 2.204840 1_556
F3 Tm0 2.276363 1_655
