# generated using pymatgen
data_Na3Zn(BO2)5
_symmetry_space_group_name_H-M   'P 1'
_cell_length_a   18.14018515
_cell_length_b   6.46047117
_cell_length_c   7.89818032
_cell_angle_alpha   65.95251020
_cell_angle_beta   90.00000000
_cell_angle_gamma   90.00000000
_symmetry_Int_Tables_number   1
_chemical_formula_structural   Na3Zn(BO2)5
_chemical_formula_sum   'Na12 Zn4 B20 O40'
_cell_volume   845.28404132
_cell_formula_units_Z   4
loop_
 _symmetry_equiv_pos_site_id
 _symmetry_equiv_pos_as_xyz
  1  'x, y, z'
loop_
 _atom_site_type_symbol
 _atom_site_label
 _atom_site_symmetry_multiplicity
 _atom_site_fract_x
 _atom_site_fract_y
 _atom_site_fract_z
 _atom_site_occupancy
  Na  Na0  1  0.41913713  0.66473403  0.10906298  1
  Na  Na1  1  0.43114962  0.62702754  0.65796142  1
  Na  Na2  1  0.56885038  0.37297246  0.34203858  1
  Na  Na3  1  0.25922081  0.20465928  0.92000337  1
  Na  Na4  1  0.06885038  0.62702754  0.15796142  1
  Na  Na5  1  0.93114962  0.37297246  0.84203858  1
  Na  Na6  1  0.75922081  0.79534072  0.57999663  1
  Na  Na7  1  0.58086287  0.33526597  0.89093702  1
  Na  Na8  1  0.74077919  0.79534072  0.07999663  1
  Na  Na9  1  0.24077919  0.20465928  0.42000337  1
  Na  Na10  1  0.91913713  0.33526597  0.39093702  1
  Na  Na11  1  0.08086287  0.66473403  0.60906298  1
  Zn  Zn0  1  0.40474819  0.14211270  0.69944318  1
  Zn  Zn1  1  0.90474819  0.85788730  0.80055682  1
  Zn  Zn2  1  0.09525181  0.14211270  0.19944318  1
  Zn  Zn3  1  0.59525181  0.85788730  0.30055682  1
  B  B0  1  0.92324150  0.81608861  0.15786345  1
  B  B1  1  0.07675850  0.18391139  0.84213655  1
  B  B2  1  0.70286236  0.20622430  0.17003738  1
  B  B3  1  0.16598414  0.93767208  0.76955237  1
  B  B4  1  0.80508333  0.45035290  -0.00004523  1
  B  B5  1  0.29713764  0.79377570  0.82996262  1
  B  B6  1  0.57086019  0.82664698  0.96413273  1
  B  B7  1  0.69491667  0.45035290  0.49995477  1
  B  B8  1  0.83401586  0.06232792  0.23044763  1
  B  B9  1  0.19491667  0.54964710  0.00004523  1
  B  B10  1  0.92913981  0.82664698  0.46413273  1
  B  B11  1  0.07086019  0.17335302  0.53586727  1
  B  B12  1  0.20286236  0.79377570  0.32996262  1
  B  B13  1  0.42324150  0.18391139  0.34213655  1
  B  B14  1  0.30508333  0.54964710  0.50004523  1
  B  B15  1  0.57675850  0.81608861  0.65786345  1
  B  B16  1  0.42913981  0.17335302  0.03586727  1
  B  B17  1  0.66598414  0.06232792  0.73044763  1
  B  B18  1  0.33401586  0.93767208  0.26955237  1
  B  B19  1  0.79713764  0.20622430  0.67003738  1
  O  O0  1  0.35692056  0.07040245  0.37384105  1
  O  O1  1  0.12972091  0.02366840  0.58714958  1
  O  O2  1  0.53914986  0.75997719  0.13102459  1
  O  O3  1  0.64307944  0.92959755  0.62615895  1
  O  O4  1  0.62992470  0.17268547  0.19522000  1
  O  O5  1  0.27102259  0.58459784  0.96079355  1
  O  O6  1  0.32663512  0.37524866  0.65211518  1
  O  O7  1  0.46085014  0.24002281  0.86897541  1
  O  O8  1  0.95689059  0.75856734  0.03349088  1
  O  O9  1  0.04310941  0.24143266  0.96650912  1
  O  O10  1  0.64541494  0.30113431  0.62419426  1
  O  O11  1  0.14541494  0.69886569  0.87580574  1
  O  O12  1  0.62972091  0.97633160  0.91285042  1
  O  O13  1  0.22897741  0.58459784  0.46079355  1
  O  O14  1  0.87027909  0.97633160  0.41285042  1
  O  O15  1  0.45477389  0.25759339  0.16340212  1
  O  O16  1  0.72897741  0.41540216  0.03920645  1
  O  O17  1  0.82663512  0.62475134  0.84788482  1
  O  O18  1  0.03914986  0.24002281  0.36897541  1
  O  O19  1  0.37027909  0.02366840  0.08714958  1
  O  O20  1  0.85458506  0.30113431  0.12419426  1
  O  O21  1  0.14307944  0.07040245  0.87384105  1
  O  O22  1  0.67336488  0.62475134  0.34788482  1
  O  O23  1  0.45689059  0.24143266  0.46650912  1
  O  O24  1  0.54310941  0.75856734  0.53349088  1
  O  O25  1  0.77102259  0.41540216  0.53920645  1
  O  O26  1  0.95477389  0.74240661  0.33659788  1
  O  O27  1  0.85692056  0.92959755  0.12615895  1
  O  O28  1  0.04522611  0.25759339  0.66340212  1
  O  O29  1  0.54522611  0.74240661  0.83659788  1
  O  O30  1  0.74587743  0.04026135  0.76034061  1
  O  O31  1  0.87007530  0.17268547  0.69522000  1
  O  O32  1  0.17336488  0.37524866  0.15211518  1
  O  O33  1  0.12992470  0.82731453  0.30478000  1
  O  O34  1  0.75412257  0.04026135  0.26034061  1
  O  O35  1  0.37007530  0.82731453  0.80478000  1
  O  O36  1  0.35458506  0.69886569  0.37580574  1
  O  O37  1  0.25412257  0.95973865  0.23965939  1
  O  O38  1  0.24587743  0.95973865  0.73965939  1
  O  O39  1  0.96085014  0.75997719  0.63102459  1
loop_
_geom_bond_atom_site_label_1
_geom_bond_atom_site_label_2
_geom_bond_distance
_geom_bond_site_symmetry_2
Na0 O2 2.288066 1_555
Na0 O35 2.369350 1_554
Na0 O19 2.421902 1_565
Na0 O36 2.497394 1_555
Na0 O15 2.569176 1_555
Na1 O24 2.265527 1_555
Na1 O35 2.338648 1_555
Na1 O7 2.433736 1_555
Na1 O36 2.503556 1_555
Na1 O6 2.510715 1_555
Na1 O29 2.772305 1_555
Na2 O23 2.265527 1_555
Na2 O4 2.338648 1_555
Na2 O2 2.433736 1_555
Na2 O10 2.503556 1_555
Na2 O22 2.510715 1_555
Na2 O15 2.772305 1_555
Na3 O6 2.299222 1_555
Na3 O21 2.362561 1_555
Na3 O37 2.372889 1_546
Na3 O19 2.431187 1_556
Na3 O38 2.535347 1_545
Na3 O5 2.611337 1_555
Na4 O8 2.265527 1_455
Na4 O33 2.338648 1_555
Na4 O18 2.433736 1_555
Na4 O11 2.503556 1_554
Na4 O32 2.510715 1_555
Na4 O26 2.772305 1_455
Na5 O9 2.265527 1_655
Na5 O31 2.338648 1_555
Na5 O39 2.433736 1_555
Na5 O20 2.503556 1_556
Na5 O17 2.510715 1_555
Na5 O28 2.772305 1_655
Na6 O17 2.299222 1_555
Na6 O3 2.362561 1_555
Na6 O34 2.372889 1_565
Na6 O14 2.431187 1_555
Na6 O30 2.535347 1_565
Na6 O25 2.611337 1_555
Na7 O7 2.288066 1_555
Na7 O4 2.369350 1_556
Na7 O12 2.421902 1_545
Na7 O10 2.497394 1_555
Na7 O29 2.569176 1_555
Na8 O22 2.299222 1_555
Na8 O27 2.362561 1_555
Na8 O30 2.372889 1_564
Na8 O12 2.431187 1_554
Na8 O34 2.535347 1_565
Na8 O16 2.611337 1_555
Na9 O32 2.299222 1_555
Na9 O0 2.362561 1_555
Na9 O38 2.372889 1_545
Na9 O1 2.431187 1_555
Na9 O37 2.535347 1_545
Na9 O13 2.611337 1_555
Na10 O18 2.288066 1_655
Na10 O31 2.369350 1_555
Na10 O14 2.421902 1_545
Na10 O20 2.497394 1_555
Na10 O26 2.569176 1_555
Na11 O39 2.288066 1_455
Na11 O33 2.369350 1_555
Na11 O1 2.421902 1_565
Na11 O11 2.497394 1_555
Na11 O28 2.569176 1_555
B0 O8 1.331593 1_555
B0 O27 1.377750 1_555
B0 O26 1.413844 1_555
B1 O9 1.331593 1_555
B1 O21 1.377750 1_555
B1 O28 1.413844 1_555
B2 O4 1.342381 1_555
B2 O34 1.378305 1_555
B2 O16 1.407254 1_555
B3 O38 1.465962 1_555
B3 O21 1.470391 1_565
B3 O1 1.471244 1_565
B3 O11 1.472597 1_555
B4 O17 1.327401 1_554
B4 O20 1.388390 1_555
B4 O16 1.412811 1_555
B5 O35 1.342381 1_555
B5 O38 1.378305 1_555
B5 O5 1.407254 1_555
B6 O2 1.338357 1_556
B6 O12 1.385665 1_555
B6 O29 1.404933 1_555
B7 O22 1.327401 1_555
B7 O10 1.388390 1_555
B7 O25 1.412811 1_555
B8 O34 1.465962 1_555
B8 O27 1.470391 1_545
B8 O14 1.471244 1_545
B8 O20 1.472597 1_555
B9 O32 1.327401 1_555
B9 O11 1.388390 1_554
B9 O5 1.412811 1_554
B10 O39 1.338357 1_555
B10 O14 1.385665 1_555
B10 O26 1.404933 1_555
B11 O18 1.338357 1_555
B11 O1 1.385665 1_555
B11 O28 1.404933 1_555
B12 O33 1.342381 1_555
B12 O37 1.378305 1_555
B12 O13 1.407254 1_555
B13 O23 1.331593 1_555
B13 O0 1.377750 1_555
B13 O15 1.413844 1_555
B14 O6 1.327401 1_555
B14 O36 1.388390 1_555
B14 O13 1.412811 1_555
B15 O24 1.331593 1_555
B15 O3 1.377750 1_555
B15 O29 1.413844 1_555
B16 O7 1.338357 1_554
B16 O19 1.385665 1_555
B16 O15 1.404933 1_555
B17 O30 1.465962 1_555
B17 O3 1.470391 1_545
B17 O12 1.471244 1_545
B17 O10 1.472597 1_555
B18 O37 1.465962 1_555
B18 O0 1.470391 1_565
B18 O19 1.471244 1_565
B18 O36 1.472597 1_555
B19 O31 1.342381 1_555
B19 O30 1.378305 1_555
B19 O25 1.407254 1_555
O2 Zn3 1.979649 1_555
O4 Zn3 1.960849 1_545
O6 Zn0 1.989289 1_555
O7 Zn0 1.979649 1_555
O8 Zn1 1.931065 1_554
O9 Zn2 1.931065 1_556
O17 Zn1 1.989289 1_555
O18 Zn2 1.979649 1_555
O22 Zn3 1.989289 1_555
O23 Zn0 1.931065 1_555
O24 Zn3 1.931065 1_555
O31 Zn1 1.960849 1_545
O32 Zn2 1.989289 1_555
O33 Zn2 1.960849 1_565
O35 Zn0 1.960849 1_565
O39 Zn1 1.979649 1_555
