# generated using pymatgen
data_Ba4Br6O
_symmetry_space_group_name_H-M   'P 1'
_cell_length_a   10.45154849
_cell_length_b   10.45154839
_cell_length_c   7.99139200
_cell_angle_alpha   89.99999346
_cell_angle_beta   89.99998889
_cell_angle_gamma   120.00003842
_symmetry_Int_Tables_number   1
_chemical_formula_structural   Ba4Br6O
_chemical_formula_sum   'Ba8 Br12 O2'
_cell_volume   755.98673216
_cell_formula_units_Z   2
loop_
 _symmetry_equiv_pos_site_id
 _symmetry_equiv_pos_as_xyz
  1  'x, y, z'
loop_
 _atom_site_type_symbol
 _atom_site_label
 _atom_site_symmetry_multiplicity
 _atom_site_fract_x
 _atom_site_fract_y
 _atom_site_fract_z
 _atom_site_occupancy
  Ba  Ba0  1  0.19899689  0.80100234  0.00037323  1
  Ba  Ba1  1  0.33333287  0.66666750  0.41906041  1
  Ba  Ba2  1  0.60200508  0.80100271  0.00037314  1
  Ba  Ba3  1  0.80099872  0.19900030  0.50037123  1
  Ba  Ba4  1  0.39800152  0.19900071  0.50037107  1
  Ba  Ba5  1  0.80099869  0.60199833  0.50037173  1
  Ba  Ba6  1  0.66666710  0.33333270  0.91905534  1
  Ba  Ba7  1  0.19899706  0.39799477  0.00037348  1
  Br  Br0  1  0.71491204  0.85745710  0.39321309  1
  Br  Br1  1  0.53069690  0.46930435  0.20858504  1
  Br  Br2  1  0.14254256  0.28508775  0.39321334  1
  Br  Br3  1  0.28507670  0.14253789  0.89321228  1
  Br  Br4  1  0.85746187  0.71492322  0.89321232  1
  Br  Br5  1  0.85746309  0.14253564  0.89321145  1
  Br  Br6  1  0.06133933  0.53067125  0.70854978  1
  Br  Br7  1  0.46933002  0.93866232  0.70854825  1
  Br  Br8  1  0.14254182  0.85745653  0.39321264  1
  Br  Br9  1  0.53069647  0.06138837  0.20858489  1
  Br  Br10  1  0.46932967  0.53067179  0.70854962  1
  Br  Br11  1  0.93861101  0.46930457  0.20858532  1
  O  O0  1  0.33333319  0.66666667  0.10005312  1
  O  O1  1  0.66666641  0.33333317  0.60005720  1
loop_
_geom_bond_atom_site_label_1
_geom_bond_atom_site_label_2
_geom_bond_distance
_geom_bond_site_symmetry_2
Ba0 O0 2.558975 1_555
Ba0 Br8 3.301492 1_555
Ba0 Br4 3.327638 1_454
Ba0 Br3 3.327641 1_564
Ba0 Br6 3.380285 1_554
Ba0 Br7 3.380306 1_554
Ba0 Br11 3.571921 1_455
Ba0 Br9 3.571931 1_565
Ba1 O0 2.549312 1_555
Ba1 Br10 3.378286 1_555
Ba1 Br6 3.378292 1_555
Ba1 Br7 3.378293 1_555
Ba1 Br0 3.459960 1_555
Ba1 Br2 3.459965 1_555
Ba1 Br8 3.459970 1_555
Ba1 Br9 3.948867 1_565
Ba1 Br11 3.948875 1_455
Ba1 Br1 3.948921 1_555
Ba2 O0 2.558973 1_555
Ba2 Br0 3.301490 1_555
Ba2 Br5 3.327629 1_564
Ba2 Br4 3.327650 1_554
Ba2 Br10 3.380284 1_554
Ba2 Br7 3.380317 1_554
Ba2 Br9 3.571899 1_565
Ba2 Br1 3.571937 1_555
Ba3 O1 2.558932 1_555
Ba3 Br5 3.301554 1_555
Ba3 Br0 3.327692 1_545
Ba3 Br2 3.327695 1_655
Ba3 Br9 3.379889 1_555
Ba3 Br11 3.379899 1_555
Ba3 Br7 3.571472 1_545
Ba3 Br6 3.571500 1_655
Ba4 O1 2.558928 1_555
Ba4 Br3 3.301549 1_555
Ba4 Br8 3.327707 1_545
Ba4 Br2 3.327718 1_555
Ba4 Br1 3.379895 1_555
Ba4 Br9 3.379921 1_555
Ba4 Br7 3.571465 1_545
Ba4 Br10 3.571509 1_555
Ba5 O1 2.558929 1_555
Ba5 Br4 3.301545 1_555
Ba5 Br8 3.327696 1_655
Ba5 Br0 3.327715 1_555
Ba5 Br1 3.379888 1_555
Ba5 Br11 3.379915 1_555
Ba5 Br6 3.571480 1_655
Ba5 Br10 3.571492 1_555
Ba6 O1 2.549239 1_555
Ba6 Br1 3.378173 1_556
Ba6 Br9 3.378187 1_556
Ba6 Br11 3.378188 1_556
Ba6 Br3 3.460059 1_555
Ba6 Br4 3.460060 1_555
Ba6 Br5 3.460086 1_555
Ba6 Br7 3.948562 1_545
Ba6 Br6 3.948571 1_655
Ba6 Br10 3.948609 1_555
Ba7 O0 2.558972 1_555
Ba7 Br2 3.301489 1_555
Ba7 Br5 3.327641 1_454
Ba7 Br3 3.327653 1_554
Ba7 Br10 3.380296 1_554
Ba7 Br6 3.380307 1_554
Ba7 Br11 3.571910 1_455
Ba7 Br1 3.571946 1_555
