# generated using pymatgen
data_Ce2Co5B2
_symmetry_space_group_name_H-M   'P 1'
_cell_length_a   5.09179181
_cell_length_b   5.09179181
_cell_length_c   19.83956800
_cell_angle_alpha   90.00000000
_cell_angle_beta   90.00000000
_cell_angle_gamma   119.99999749
_symmetry_Int_Tables_number   1
_chemical_formula_structural   Ce2Co5B2
_chemical_formula_sum   'Ce8 Co20 B8'
_cell_volume   445.45529931
_cell_formula_units_Z   4
loop_
 _symmetry_equiv_pos_site_id
 _symmetry_equiv_pos_as_xyz
  1  'x, y, z'
loop_
 _atom_site_type_symbol
 _atom_site_label
 _atom_site_symmetry_multiplicity
 _atom_site_fract_x
 _atom_site_fract_y
 _atom_site_fract_z
 _atom_site_occupancy
  Ce  Ce0  1  0.66666700  0.33333300  0.82815500  1
  Ce  Ce1  1  0.66666700  0.33333300  0.98069900  1
  Ce  Ce2  1  0.33333300  0.66666700  0.48069900  1
  Ce  Ce3  1  0.33333300  0.66666700  0.01930100  1
  Ce  Ce4  1  0.33333300  0.66666700  0.17184500  1
  Ce  Ce5  1  0.66666700  0.33333300  0.51930100  1
  Ce  Ce6  1  0.66666700  0.33333300  0.67184500  1
  Ce  Ce7  1  0.33333300  0.66666700  0.32815500  1
  Co  Co0  1  0.16285400  0.32570700  0.89458000  1
  Co  Co1  1  0.16285400  0.83714600  0.60542000  1
  Co  Co2  1  0.83714600  0.16285400  0.39458000  1
  Co  Co3  1  0.33479100  0.16739600  0.25000000  1
  Co  Co4  1  0.32570700  0.16285400  0.39458000  1
  Co  Co5  1  0.83714600  0.67429300  0.10542000  1
  Co  Co6  1  0.83714600  0.67429300  0.39458000  1
  Co  Co7  1  0.83260400  0.66520900  0.25000000  1
  Co  Co8  1  0.67429300  0.83714600  0.60542000  1
  Co  Co9  1  0.66520900  0.83260400  0.75000000  1
  Co  Co10  1  0.83714600  0.16285400  0.10542000  1
  Co  Co11  1  0.67429300  0.83714600  0.89458000  1
  Co  Co12  1  0.00000000  0.00000000  0.00000000  1
  Co  Co13  1  0.16739600  0.33479100  0.75000000  1
  Co  Co14  1  0.16739600  0.83260400  0.75000000  1
  Co  Co15  1  0.83260400  0.16739600  0.25000000  1
  Co  Co16  1  0.32570700  0.16285400  0.10542000  1
  Co  Co17  1  0.00000000  0.00000000  0.50000000  1
  Co  Co18  1  0.16285400  0.83714600  0.89458000  1
  Co  Co19  1  0.16285400  0.32570700  0.60542000  1
  B  B0  1  0.33333300  0.66666700  0.82532300  1
  B  B1  1  0.33333300  0.66666700  0.67467700  1
  B  B2  1  0.66666700  0.33333300  0.32532300  1
  B  B3  1  0.00000000  0.00000000  0.82312200  1
  B  B4  1  0.66666700  0.33333300  0.17467700  1
  B  B5  1  0.00000000  0.00000000  0.67687800  1
  B  B6  1  0.00000000  0.00000000  0.32312200  1
  B  B7  1  0.00000000  0.00000000  0.17687800  1
loop_
_geom_bond_atom_site_label_1
_geom_bond_atom_site_label_2
_geom_bond_distance
_geom_bond_site_symmetry_2
Ce0 Co0 2.866954 1_655
Ce0 Co11 2.866954 1_545
Ce0 Co11 2.866954 1_555
Ce0 Co0 2.866954 1_555
Ce0 Co18 2.866955 1_545
Ce0 Co18 2.866955 1_655
Ce0 Co9 2.980917 1_555
Ce0 Co13 2.980917 1_555
Ce0 Co9 2.980917 1_545
Ce0 Co13 2.980917 1_655
Ce0 Co14 2.980917 1_545
Ce0 Co14 2.980917 1_655
Ce0 Ce1 3.026407 1_555
Ce0 Ce6 3.101123 1_555
Ce1 Co10 2.895377 1_556
Ce1 Co5 2.895382 1_556
Ce1 Co16 2.895382 1_556
Ce1 Co12 2.964579 1_656
Ce1 Co12 2.964583 1_556
Ce1 Co12 2.964583 1_666
Ce1 Ce3 3.037864 1_546
Ce1 Ce3 3.037864 1_656
Ce1 Ce3 3.037873 1_556
Ce1 Co11 3.066253 1_545
Ce1 Co0 3.066253 1_655
Ce1 Co0 3.066253 1_555
Ce1 Co11 3.066253 1_555
Ce1 Co18 3.066253 1_655
Ce1 Co18 3.066253 1_545
Ce2 Co1 2.895377 1_555
Ce2 Co19 2.895382 1_555
Ce2 Co8 2.895382 1_555
Ce2 Co17 2.964579 1_565
Ce2 Co17 2.964583 1_555
Ce2 Co17 2.964583 1_665
Ce2 Ce7 3.026407 1_555
Ce2 Ce5 3.037864 1_455
Ce2 Ce5 3.037864 1_565
Ce2 Ce5 3.037873 1_555
Ce2 Co6 3.066253 1_455
Ce2 Co4 3.066253 1_565
Ce2 Co6 3.066253 1_555
Ce2 Co4 3.066253 1_555
Ce2 Co2 3.066253 1_565
Ce2 Co2 3.066253 1_455
Ce3 Co18 2.895377 1_554
Ce3 Co0 2.895382 1_554
Ce3 Co11 2.895382 1_554
Ce3 Co12 2.964579 1_565
Ce3 Co12 2.964583 1_555
Ce3 Co12 2.964583 1_665
Ce3 Ce4 3.026407 1_555
Ce3 Co5 3.066253 1_455
Ce3 Co16 3.066253 1_565
Ce3 Co5 3.066253 1_555
Ce3 Co16 3.066253 1_555
Ce3 Co10 3.066253 1_565
Ce3 Co10 3.066253 1_455
Ce4 Co16 2.866954 1_565
Ce4 Co5 2.866954 1_455
Ce4 Co5 2.866954 1_555
Ce4 Co16 2.866954 1_555
Ce4 Co10 2.866955 1_565
Ce4 Co10 2.866955 1_455
Ce4 Co7 2.980917 1_555
Ce4 Co3 2.980917 1_555
Ce4 Co7 2.980917 1_455
Ce4 Co3 2.980917 1_565
Ce4 Co15 2.980917 1_455
Ce4 Co15 2.980917 1_565
Ce4 Ce7 3.101123 1_555
Ce5 Co2 2.895377 1_555
Ce5 Co6 2.895382 1_555
Ce5 Co4 2.895382 1_555
Ce5 Co17 2.964579 1_655
Ce5 Co17 2.964583 1_555
Ce5 Co17 2.964583 1_665
Ce5 Ce6 3.026407 1_555
Ce5 Co8 3.066253 1_545
Ce5 Co19 3.066253 1_655
Ce5 Co19 3.066253 1_555
Ce5 Co8 3.066253 1_555
Ce5 Co1 3.066253 1_655
Ce5 Co1 3.066253 1_545
Ce6 Co19 2.866954 1_655
Ce6 Co8 2.866954 1_545
Ce6 Co8 2.866954 1_555
Ce6 Co19 2.866954 1_555
Ce6 Co1 2.866955 1_655
Ce6 Co1 2.866955 1_545
Ce6 Co9 2.980917 1_555
Ce6 Co13 2.980917 1_555
Ce6 Co9 2.980917 1_545
Ce6 Co13 2.980917 1_655
Ce6 Co14 2.980917 1_545
Ce6 Co14 2.980917 1_655
Ce7 Co6 2.866954 1_455
Ce7 Co4 2.866954 1_565
Ce7 Co6 2.866954 1_555
Ce7 Co4 2.866954 1_555
Ce7 Co2 2.866955 1_565
Ce7 Co2 2.866955 1_455
Ce7 Co7 2.980917 1_555
Ce7 Co3 2.980917 1_555
Ce7 Co7 2.980917 1_455
Ce7 Co3 2.980917 1_565
Ce7 Co15 2.980917 1_455
Ce7 Co15 2.980917 1_565
Co0 Co12 2.537147 1_556
Co1 Co17 2.537150 1_565
Co10 Co12 2.537150 1_655
Co11 Co12 2.537147 1_666
Co12 Co5 2.537147 1_445
Co12 Co16 2.537147 1_555
Co12 Co18 2.537150 1_544
Co17 Co8 2.537147 1_445
Co17 Co19 2.537147 1_555
Co17 Co4 2.537147 1_555
Co17 Co6 2.537147 1_445
Co17 Co2 2.537150 1_455
B0 Co18 2.036776 1_555
B0 Co0 2.036782 1_555
B0 Co11 2.036782 1_555
B0 Co14 2.091605 1_555
B0 Co13 2.091611 1_555
B0 Co9 2.091611 1_555
B0 Ce0 2.940281 1_455
B0 Ce0 2.940281 1_565
B0 Ce0 2.940290 1_555
B1 Co1 2.036776 1_555
B1 Co19 2.036782 1_555
B1 Co8 2.036782 1_555
B1 Co14 2.091605 1_555
B1 Co13 2.091611 1_555
B1 Co9 2.091611 1_555
B1 Ce6 2.940281 1_455
B1 Ce6 2.940281 1_565
B1 Ce6 2.940290 1_555
B2 Co2 2.036776 1_555
B2 Co4 2.036782 1_555
B2 Co6 2.036782 1_555
B2 Co15 2.091605 1_555
B2 Co7 2.091611 1_555
B2 Co3 2.091611 1_555
B2 Ce7 2.940281 1_545
B2 Ce7 2.940281 1_655
B2 Ce7 2.940290 1_555
B3 Co11 2.018083 1_445
B3 Co0 2.018083 1_555
B3 Co18 2.018086 1_545
B3 Co9 2.069788 1_445
B3 Co13 2.069788 1_555
B3 Co14 2.069791 1_545
B3 Ce0 2.941440 1_455
B3 Ce0 2.941444 1_445
B3 Ce0 2.941444 1_555
B4 Co10 2.036776 1_555
B4 Co5 2.036782 1_555
B4 Co16 2.036782 1_555
B4 Co15 2.091605 1_555
B4 Co3 2.091611 1_555
B4 Co7 2.091611 1_555
B4 Ce4 2.940281 1_655
B4 Ce4 2.940281 1_545
B4 Ce4 2.940290 1_555
B5 Co8 2.018083 1_445
B5 Co19 2.018083 1_555
B5 Co1 2.018086 1_545
B5 Co9 2.069788 1_445
B5 Co13 2.069788 1_555
B5 Co14 2.069791 1_545
B5 Ce6 2.941440 1_455
B5 Ce6 2.941444 1_555
B5 Ce6 2.941444 1_445
B6 Co6 2.018083 1_445
B6 Co4 2.018083 1_555
B6 Co2 2.018086 1_455
B6 Co3 2.069788 1_555
B6 Co7 2.069788 1_445
B6 Co15 2.069791 1_455
B6 Ce7 2.941440 1_545
B6 Ce7 2.941444 1_445
B6 Ce7 2.941444 1_555
B7 Co5 2.018083 1_445
B7 Co16 2.018083 1_555
B7 Co10 2.018086 1_455
B7 Co7 2.069788 1_445
B7 Co3 2.069788 1_555
B7 Co15 2.069791 1_455
B7 Ce4 2.941440 1_545
B7 Ce4 2.941444 1_555
B7 Ce4 2.941444 1_445
