# generated using pymatgen
data_BiB2O4F
_symmetry_space_group_name_H-M   'P 1'
_cell_length_a   6.79458953
_cell_length_b   6.79458953
_cell_length_c   6.52522000
_cell_angle_alpha   90.00000000
_cell_angle_beta   90.00000000
_cell_angle_gamma   119.99999538
_symmetry_Int_Tables_number   1
_chemical_formula_structural   BiB2O4F
_chemical_formula_sum   'Bi3 B6 O12 F3'
_cell_volume   260.88689328
_cell_formula_units_Z   3
loop_
 _symmetry_equiv_pos_site_id
 _symmetry_equiv_pos_as_xyz
  1  'x, y, z'
loop_
 _atom_site_type_symbol
 _atom_site_label
 _atom_site_symmetry_multiplicity
 _atom_site_fract_x
 _atom_site_fract_y
 _atom_site_fract_z
 _atom_site_occupancy
  Bi  Bi0  1  0.23448500  0.29345500  0.78488700  1
  Bi  Bi1  1  0.05897000  0.76551500  0.11822100  1
  Bi  Bi2  1  0.70654500  0.94103000  0.45155400  1
  B  B0  1  0.76388500  0.31095300  0.78391800  1
  B  B1  1  0.68471600  0.95576400  0.99982000  1
  B  B2  1  0.54706800  0.23611500  0.11725100  1
  B  B3  1  0.27104800  0.31528400  0.33315400  1
  B  B4  1  0.68904700  0.45293200  0.45058500  1
  B  B5  1  0.04423600  0.72895200  0.66648700  1
  O  O0  1  0.31477400  0.17802200  0.18518200  1
  O  O1  1  0.97896400  0.53568000  0.80979800  1
  O  O2  1  0.70220500  0.27633900  0.56750600  1
  O  O3  1  0.72366100  0.42586600  0.23417300  1
  O  O4  1  0.46432000  0.44328400  0.47646500  1
  O  O5  1  0.82197800  0.13675200  0.85184900  1
  O  O6  1  0.10885400  0.92278300  0.80232200  1
  O  O7  1  0.55671600  0.02103600  0.14313200  1
  O  O8  1  0.81392800  0.89114600  0.13565500  1
  O  O9  1  0.86324800  0.68522600  0.51851500  1
  O  O10  1  0.57413400  0.29779500  0.90083900  1
  O  O11  1  0.07721700  0.18607200  0.46898900  1
  F  F0  1  0.23576800  0.47482400  0.20930000  1
  F  F1  1  0.52517600  0.76094500  0.87596700  1
  F  F2  1  0.23905500  0.76423200  0.54263300  1
loop_
_geom_bond_atom_site_label_1
_geom_bond_atom_site_label_2
_geom_bond_distance
_geom_bond_site_symmetry_2
Bi0 O6 2.221460 1_545
Bi0 O11 2.267932 1_555
Bi0 O10 2.414768 1_555
Bi0 O4 2.436296 1_555
Bi0 O5 2.489197 1_455
Bi1 O8 2.221466 1_455
Bi1 O6 2.267938 1_554
Bi1 O3 2.414769 1_455
Bi1 O1 2.436301 1_454
Bi1 O0 2.489196 1_565
Bi2 O11 2.221462 1_665
Bi2 O8 2.267936 1_555
Bi2 O2 2.414768 1_565
Bi2 O7 2.436296 1_565
Bi2 O9 2.489196 1_555
B0 O2 1.458257 1_555
B0 O10 1.461862 1_555
B0 O5 1.490118 1_555
B0 O1 1.504735 1_555
B1 O8 1.461039 1_556
B1 F1 1.464757 1_555
B1 O5 1.472225 1_565
B1 O7 1.487711 1_566
B2 O10 1.458257 1_554
B2 O3 1.461866 1_555
B2 O0 1.490118 1_555
B2 O7 1.504736 1_555
B3 O11 1.461043 1_555
B3 F0 1.464764 1_555
B3 O0 1.472229 1_555
B3 O4 1.487707 1_555
B4 O3 1.458257 1_555
B4 O2 1.461862 1_555
B4 O9 1.490116 1_555
B4 O4 1.504735 1_555
B5 O6 1.461044 1_555
B5 F2 1.464759 1_555
B5 O9 1.472229 1_455
B5 O1 1.487707 1_455
