# generated using pymatgen
data_Na2Cd(SO4)2
_symmetry_space_group_name_H-M   'P 1'
_cell_length_a   6.59680087
_cell_length_b   6.59680087
_cell_length_c   8.82700792
_cell_angle_alpha   71.16311543
_cell_angle_beta   71.16311543
_cell_angle_gamma   78.39429634
_symmetry_Int_Tables_number   1
_chemical_formula_structural   Na2Cd(SO4)2
_chemical_formula_sum   'Na4 Cd2 S4 O16'
_cell_volume   342.06635261
_cell_formula_units_Z   2
loop_
 _symmetry_equiv_pos_site_id
 _symmetry_equiv_pos_as_xyz
  1  'x, y, z'
loop_
 _atom_site_type_symbol
 _atom_site_label
 _atom_site_symmetry_multiplicity
 _atom_site_fract_x
 _atom_site_fract_y
 _atom_site_fract_z
 _atom_site_occupancy
  Na  Na0  1  0.41852500  0.30622700  0.43924900  1
  Na  Na1  1  0.58147500  0.69377300  0.56075100  1
  Na  Na2  1  0.69377300  0.58147500  0.06075100  1
  Na  Na3  1  0.30622700  0.41852500  0.93924900  1
  Cd  Cd0  1  0.06969000  0.93031000  0.25000000  1
  Cd  Cd1  1  0.93031000  0.06969000  0.75000000  1
  S  S0  1  0.97626000  0.40075200  0.31369000  1
  S  S1  1  0.59924800  0.02374000  0.18631000  1
  S  S2  1  0.02374000  0.59924800  0.68631000  1
  S  S3  1  0.40075200  0.97626000  0.81369000  1
  O  O0  1  0.11933000  0.57682400  0.25199600  1
  O  O1  1  0.95502600  0.77139700  0.54958700  1
  O  O2  1  0.99007300  0.69188900  0.82928800  1
  O  O3  1  0.88067000  0.42317600  0.74800400  1
  O  O4  1  0.77139700  0.95502600  0.04958700  1
  O  O5  1  0.51634200  0.25477500  0.13464200  1
  O  O6  1  0.74522500  0.48365800  0.36535800  1
  O  O7  1  0.25477500  0.51634200  0.63464200  1
  O  O8  1  0.22860300  0.04497400  0.95041300  1
  O  O9  1  0.30811100  0.00992700  0.67071200  1
  O  O10  1  0.42317600  0.88067000  0.24800400  1
  O  O11  1  0.00992700  0.30811100  0.17071200  1
  O  O12  1  0.57682400  0.11933000  0.75199600  1
  O  O13  1  0.69188900  0.99007300  0.32928800  1
  O  O14  1  0.48365800  0.74522500  0.86535800  1
  O  O15  1  0.04497400  0.22860300  0.45041300  1
loop_
_geom_bond_atom_site_label_1
_geom_bond_atom_site_label_2
_geom_bond_distance
_geom_bond_site_symmetry_2
Na0 O9 2.357645 1_555
Na0 O7 2.408538 1_555
Na0 O6 2.460583 1_555
Na0 O15 2.581226 1_555
Na0 O5 2.672431 1_555
Na0 O13 2.684684 1_545
Na0 O0 2.932218 1_555
Na1 O13 2.357645 1_555
Na1 O6 2.408538 1_555
Na1 O7 2.460583 1_555
Na1 O1 2.581226 1_555
Na1 O14 2.672431 1_555
Na1 O9 2.684684 1_565
Na1 O3 2.932218 1_555
Na2 O2 2.357645 1_554
Na2 O14 2.408538 1_554
Na2 O5 2.460583 1_555
Na2 O4 2.581226 1_555
Na2 O6 2.672431 1_555
Na2 O11 2.684684 1_655
Na2 O10 2.932218 1_555
Na3 O11 2.357645 1_556
Na3 O5 2.408538 1_556
Na3 O14 2.460583 1_555
Na3 O8 2.581226 1_555
Na3 O7 2.672431 1_555
Na3 O2 2.684684 1_455
Na3 O12 2.932218 1_555
Cd0 O10 2.283670 1_555
Cd0 O0 2.283670 1_555
Cd0 O11 2.348015 1_565
Cd0 O13 2.348015 1_455
Cd0 O1 2.429294 1_455
Cd0 O8 2.429294 1_564
Cd1 O3 2.283670 1_555
Cd1 O12 2.283670 1_555
Cd1 O9 2.348015 1_655
Cd1 O2 2.348015 1_545
Cd1 O4 2.429294 1_546
Cd1 O15 2.429294 1_655
O0 S0 1.495713 1_455
O1 S2 1.487531 1_655
O2 S2 1.509329 1_655
O3 S2 1.495713 1_655
O4 S1 1.487531 1_565
O5 S1 1.485533 1_555
O6 S0 1.485533 1_555
O7 S2 1.485533 1_555
O8 S3 1.487531 1_545
O9 S3 1.509329 1_545
O10 S1 1.495713 1_565
O11 S0 1.509329 1_455
O12 S3 1.495713 1_545
O13 S1 1.509329 1_565
O14 S3 1.485533 1_555
O15 S0 1.487531 1_455
