# generated using pymatgen
data_RbBi(MoO4)2
_symmetry_space_group_name_H-M   'P 1'
_cell_length_a   12.31274800
_cell_length_b   5.37833600
_cell_length_c   11.81863268
_cell_angle_alpha   87.78698539
_cell_angle_beta   90.00000000
_cell_angle_gamma   90.00000000
_symmetry_Int_Tables_number   1
_chemical_formula_structural   RbBi(MoO4)2
_chemical_formula_sum   'Rb4 Bi4 Mo8 O32'
_cell_volume   782.07089930
_cell_formula_units_Z   4
loop_
 _symmetry_equiv_pos_site_id
 _symmetry_equiv_pos_as_xyz
  1  'x, y, z'
loop_
 _atom_site_type_symbol
 _atom_site_label
 _atom_site_symmetry_multiplicity
 _atom_site_fract_x
 _atom_site_fract_y
 _atom_site_fract_z
 _atom_site_occupancy
  Rb  Rb0  1  0.37553100  0.01665200  0.62160800  1
  Rb  Rb1  1  0.12446900  0.51665200  0.62160800  1
  Rb  Rb2  1  0.87553100  0.48334800  0.37839200  1
  Rb  Rb3  1  0.62446900  0.98334800  0.37839200  1
  Bi  Bi0  1  0.87570900  0.50903000  0.87927300  1
  Bi  Bi1  1  0.37570900  0.99097000  0.12072700  1
  Bi  Bi2  1  0.12429100  0.49097000  0.12072700  1
  Bi  Bi3  1  0.62429100  0.00903000  0.87927300  1
  Mo  Mo0  1  0.14577000  0.99584800  0.34188600  1
  Mo  Mo1  1  0.11311300  0.02339500  0.88743700  1
  Mo  Mo2  1  0.88688700  0.97660500  0.11256300  1
  Mo  Mo3  1  0.38688700  0.52339500  0.88743700  1
  Mo  Mo4  1  0.85423000  0.00415200  0.65811400  1
  Mo  Mo5  1  0.35423000  0.49584800  0.34188600  1
  Mo  Mo6  1  0.61311300  0.47660500  0.11256300  1
  Mo  Mo7  1  0.64577000  0.50415200  0.65811400  1
  O  O0  1  0.80399600  0.84458300  0.00113500  1
  O  O1  1  0.54026800  0.74838800  0.05075700  1
  O  O2  1  0.93562400  0.75766200  0.73051300  1
  O  O3  1  0.70992900  0.68431700  0.77783100  1
  O  O4  1  0.05152200  0.81552300  0.41860900  1
  O  O5  1  0.43562400  0.74233800  0.26948700  1
  O  O6  1  0.69568500  0.57762000  0.22202700  1
  O  O7  1  0.19568500  0.92238000  0.77797300  1
  O  O8  1  0.55152200  0.68447700  0.58139100  1
  O  O9  1  0.69600400  0.34458300  0.00113500  1
  O  O10  1  0.02488700  0.25900800  0.82381000  1
  O  O11  1  0.56437600  0.25766200  0.73051300  1
  O  O12  1  0.45973200  0.25161200  0.94924300  1
  O  O13  1  0.97511300  0.74099200  0.17619000  1
  O  O14  1  0.44847800  0.31552300  0.41860900  1
  O  O15  1  0.52488700  0.24099200  0.17619000  1
  O  O16  1  0.30399600  0.65541700  0.99886500  1
  O  O17  1  0.77361400  0.84239900  0.56033700  1
  O  O18  1  0.29007100  0.31568300  0.22216900  1
  O  O19  1  0.79007100  0.18431700  0.77783100  1
  O  O20  1  0.72638600  0.34239900  0.56033700  1
  O  O21  1  0.27361400  0.65760100  0.43966300  1
  O  O22  1  0.95973200  0.24838800  0.05075700  1
  O  O23  1  0.80431500  0.07762000  0.22202700  1
  O  O24  1  0.19600400  0.15541700  0.99886500  1
  O  O25  1  0.22638600  0.15760100  0.43966300  1
  O  O26  1  0.30431500  0.42238000  0.77797300  1
  O  O27  1  0.94847800  0.18447700  0.58139100  1
  O  O28  1  0.47511300  0.75900800  0.82381000  1
  O  O29  1  0.06437600  0.24233800  0.26948700  1
  O  O30  1  0.20992900  0.81568300  0.22216900  1
  O  O31  1  0.04026800  0.75161200  0.94924300  1
loop_
_geom_bond_atom_site_label_1
_geom_bond_atom_site_label_2
_geom_bond_distance
_geom_bond_site_symmetry_2
Bi0 O2 2.289517 1_555
Bi0 O10 2.383228 1_655
Bi0 O19 2.400185 1_555
Bi0 O0 2.512309 1_556
Bi0 O3 2.530888 1_555
Bi0 O31 2.564129 1_655
Bi0 O22 2.631259 1_556
Bi0 O9 2.766595 1_556
Bi1 O5 2.289517 1_555
Bi1 O15 2.383228 1_565
Bi1 O18 2.400185 1_565
Bi1 O16 2.512309 1_554
Bi1 O30 2.530888 1_555
Bi1 O1 2.564129 1_555
Bi1 O12 2.631259 1_564
Bi1 O24 2.766595 1_564
Bi2 O29 2.289517 1_555
Bi2 O13 2.383228 1_455
Bi2 O30 2.400185 1_555
Bi2 O24 2.512309 1_554
Bi2 O18 2.530888 1_555
Bi2 O22 2.564129 1_455
Bi2 O31 2.631259 1_554
Bi2 O16 2.766595 1_554
Bi3 O11 2.289517 1_555
Bi3 O28 2.383228 1_545
Bi3 O3 2.400185 1_545
Bi3 O9 2.512309 1_556
Bi3 O19 2.530888 1_555
Bi3 O12 2.564129 1_555
Bi3 O1 2.631259 1_546
Bi3 O0 2.766595 1_546
Mo0 O4 1.744005 1_555
Mo0 O25 1.776268 1_565
Mo0 O29 1.845647 1_565
Mo0 O30 1.915932 1_555
Mo1 O7 1.748371 1_545
Mo1 O10 1.810457 1_555
Mo1 O24 1.830943 1_555
Mo1 O31 1.841811 1_545
Mo2 O23 1.748371 1_565
Mo2 O13 1.810457 1_555
Mo2 O0 1.830943 1_555
Mo2 O22 1.841811 1_565
Mo3 O26 1.748371 1_555
Mo3 O28 1.810457 1_555
Mo3 O16 1.830943 1_555
Mo3 O12 1.841811 1_555
Mo4 O27 1.744005 1_555
Mo4 O17 1.776268 1_545
Mo4 O2 1.845647 1_545
Mo4 O19 1.915932 1_555
Mo5 O14 1.744005 1_555
Mo5 O21 1.776268 1_555
Mo5 O5 1.845647 1_555
Mo5 O18 1.915932 1_555
Mo6 O6 1.748371 1_555
Mo6 O15 1.810457 1_555
Mo6 O9 1.830943 1_555
Mo6 O1 1.841811 1_555
Mo7 O8 1.744005 1_555
Mo7 O20 1.776268 1_555
Mo7 O11 1.845647 1_555
Mo7 O3 1.915932 1_555
O2 Rb1 2.978636 1_655
O4 Rb2 2.859870 1_455
O4 Rb1 2.974682 1_555
O5 Rb3 2.978636 1_555
O6 Rb2 2.916068 1_555
O6 Rb3 3.042573 1_555
O7 Rb0 2.916068 1_565
O7 Rb1 3.042573 1_555
O8 Rb0 2.859870 1_565
O8 Rb3 2.974682 1_555
O10 Rb1 2.979717 1_555
O11 Rb0 2.978636 1_555
O13 Rb2 2.979717 1_555
O14 Rb3 2.859870 1_545
O14 Rb0 2.974682 1_555
O15 Rb3 2.979717 1_545
O17 Rb3 2.906038 1_555
O17 Rb2 3.201331 1_555
O20 Rb2 2.906038 1_555
O20 Rb3 3.201331 1_545
O21 Rb1 2.906038 1_555
O21 Rb0 3.201331 1_565
O23 Rb3 2.916068 1_545
O23 Rb2 3.042573 1_555
O25 Rb0 2.906038 1_555
O25 Rb1 3.201331 1_555
O26 Rb1 2.916068 1_555
O26 Rb0 3.042573 1_555
O27 Rb1 2.859870 1_655
O27 Rb2 2.974682 1_555
O28 Rb0 2.979717 1_565
O29 Rb2 2.978636 1_455
