# generated using pymatgen
data_La3CuSiS7
_symmetry_space_group_name_H-M   'P 1'
_cell_length_a   10.36158403
_cell_length_b   10.36158403
_cell_length_c   5.85549200
_cell_angle_alpha   90.00000000
_cell_angle_beta   90.00000000
_cell_angle_gamma   120.00000018
_symmetry_Int_Tables_number   1
_chemical_formula_structural   La3CuSiS7
_chemical_formula_sum   'La6 Cu2 Si2 S14'
_cell_volume   544.43536683
_cell_formula_units_Z   2
loop_
 _symmetry_equiv_pos_site_id
 _symmetry_equiv_pos_as_xyz
  1  'x, y, z'
loop_
 _atom_site_type_symbol
 _atom_site_label
 _atom_site_symmetry_multiplicity
 _atom_site_fract_x
 _atom_site_fract_y
 _atom_site_fract_z
 _atom_site_occupancy
  La  La0  1  0.12276300  0.35643500  0.24935100  1
  La  La1  1  0.76632900  0.12276300  0.74935100  1
  La  La2  1  0.35643500  0.23367100  0.74935100  1
  La  La3  1  0.64356500  0.76632900  0.24935100  1
  La  La4  1  0.23367100  0.87723700  0.24935100  1
  La  La5  1  0.87723700  0.64356500  0.74935100  1
  Cu  Cu0  1  0.00000000  0.00000000  0.27543800  1
  Cu  Cu1  1  0.00000000  0.00000000  0.77543800  1
  Si  Si0  1  0.33333300  0.66666700  0.66373100  1
  Si  Si1  1  0.66666700  0.33333300  0.16373100  1
  S  S0  1  0.08454400  0.24810300  0.76222000  1
  S  S1  1  0.83644100  0.08454400  0.26222000  1
  S  S2  1  0.24810300  0.16355900  0.26222000  1
  S  S3  1  0.75189700  0.83644100  0.76222000  1
  S  S4  1  0.16355900  0.91545600  0.76222000  1
  S  S5  1  0.91545600  0.75189700  0.26222000  1
  S  S6  1  0.40997000  0.52533700  0.52302700  1
  S  S7  1  0.88463300  0.40997000  0.02302700  1
  S  S8  1  0.52533700  0.11536700  0.02302700  1
  S  S9  1  0.47466300  0.88463300  0.52302700  1
  S  S10  1  0.11536700  0.59003000  0.52302700  1
  S  S11  1  0.59003000  0.47466300  0.02302700  1
  S  S12  1  0.33333300  0.66666700  0.02503700  1
  S  S13  1  0.66666700  0.33333300  0.52503700  1
loop_
_geom_bond_atom_site_label_1
_geom_bond_atom_site_label_2
_geom_bond_distance
_geom_bond_site_symmetry_2
La0 S2 2.877821 1_555
La0 S1 2.895864 1_455
La0 S10 2.935608 1_555
La0 S0 3.018018 1_554
La0 S6 3.046115 1_555
La0 S7 3.085568 1_455
La0 S12 3.131308 1_555
La0 S0 3.160839 1_555
La1 S0 2.877812 1_655
La1 S3 2.895859 1_545
La1 S8 2.935617 1_556
La1 S1 3.018015 1_555
La1 S7 3.046116 1_556
La1 S9 3.085574 1_545
La1 S13 3.131308 1_555
La1 S1 3.160836 1_556
La2 S4 2.877813 1_545
La2 S0 2.895869 1_555
La2 S11 2.935613 1_556
La2 S2 3.018017 1_555
La2 S8 3.046108 1_556
La2 S6 3.085577 1_555
La2 S13 3.131308 1_555
La2 S2 3.160839 1_556
La3 S1 2.877813 1_565
La3 S5 2.895869 1_555
La3 S6 2.935613 1_555
La3 S3 3.018017 1_554
La3 S9 3.046108 1_555
La3 S11 3.085577 1_555
La3 S12 3.131308 1_555
La3 S3 3.160839 1_555
La4 S5 2.877812 1_455
La4 S2 2.895859 1_565
La4 S9 2.935617 1_555
La4 S4 3.018015 1_554
La4 S10 3.046116 1_555
La4 S8 3.085574 1_565
La4 S12 3.131308 1_555
La4 S4 3.160836 1_555
La5 S3 2.877821 1_555
La5 S4 2.895864 1_655
La5 S7 2.935608 1_556
La5 S5 3.018018 1_555
La5 S11 3.046115 1_556
La5 S10 3.085568 1_655
La5 S13 3.131308 1_555
La5 S5 3.160839 1_556
Cu0 S2 2.264971 1_555
Cu0 S5 2.264971 1_445
Cu0 S1 2.264971 1_455
Cu1 S3 2.264971 1_445
Cu1 S0 2.264971 1_555
Cu1 S4 2.264971 1_545
S6 Si0 2.148648 1_555
S7 Si1 2.148639 1_555
S8 Si1 2.148641 1_555
S9 Si0 2.148641 1_555
S10 Si0 2.148639 1_555
S11 Si1 2.148648 1_555
S12 Si0 2.115624 1_554
S13 Si1 2.115624 1_555
