# generated using pymatgen
data_DyTlSe2
_symmetry_space_group_name_H-M   'P 1'
_cell_length_a   8.09538939
_cell_length_b   8.09538939
_cell_length_c   8.09538981
_cell_angle_alpha   29.80892032
_cell_angle_beta   29.80892032
_cell_angle_gamma   29.80892413
_symmetry_Int_Tables_number   1
_chemical_formula_structural   DyTlSe2
_chemical_formula_sum   'Dy1 Tl1 Se2'
_cell_volume   116.09695238
_cell_formula_units_Z   1
loop_
 _symmetry_equiv_pos_site_id
 _symmetry_equiv_pos_as_xyz
  1  'x, y, z'
loop_
 _atom_site_type_symbol
 _atom_site_label
 _atom_site_symmetry_multiplicity
 _atom_site_fract_x
 _atom_site_fract_y
 _atom_site_fract_z
 _atom_site_occupancy
  Dy  Dy0  1  -0.00000000  -0.00000000  0.00000000  1
  Tl  Tl0  1  0.50000000  0.50000000  0.50000000  1
  Se  Se0  1  0.73460061  0.73460061  0.73460061  1
  Se  Se1  1  0.26539939  0.26539939  0.26539939  1
loop_
_geom_bond_atom_site_label_1
_geom_bond_atom_site_label_2
_geom_bond_distance
_geom_bond_site_symmetry_2
Dy0 Se0 2.874484 1_544
Dy0 Se0 2.874484 1_454
Dy0 Se1 2.874484 1_455
Dy0 Se1 2.874484 1_545
Dy0 Se0 2.874484 1_445
Dy0 Se1 2.874484 1_554
Se0 Tl0 3.320122 1_655
Se0 Tl0 3.320122 1_565
Se0 Tl0 3.320122 1_556
Se1 Tl0 3.320122 1_455
Se1 Tl0 3.320122 1_545
Se1 Tl0 3.320122 1_554
