# generated using pymatgen
data_SrIn2Rh
_symmetry_space_group_name_H-M   'P 1'
_cell_length_a   4.38244807
_cell_length_b   5.89420923
_cell_length_c   8.06086211
_cell_angle_alpha   90.00000000
_cell_angle_beta   90.00000000
_cell_angle_gamma   111.82413232
_symmetry_Int_Tables_number   1
_chemical_formula_structural   SrIn2Rh
_chemical_formula_sum   'Sr2 In4 Rh2'
_cell_volume   193.29734550
_cell_formula_units_Z   2
loop_
 _symmetry_equiv_pos_site_id
 _symmetry_equiv_pos_as_xyz
  1  'x, y, z'
loop_
 _atom_site_type_symbol
 _atom_site_label
 _atom_site_symmetry_multiplicity
 _atom_site_fract_x
 _atom_site_fract_y
 _atom_site_fract_z
 _atom_site_occupancy
  Sr  Sr0  1  0.05924245  0.11848391  0.75000000  1
  Sr  Sr1  1  0.94075755  0.88151609  0.25000000  1
  In  In0  1  0.34273496  0.68546792  0.94620283  1
  In  In1  1  0.65726504  0.31453208  0.05379717  1
  In  In2  1  0.65726504  0.31453208  0.44620283  1
  In  In3  1  0.34273496  0.68546792  0.55379717  1
  Rh  Rh0  1  0.78330148  0.56660295  0.75000000  1
  Rh  Rh1  1  0.21669852  0.43339705  0.25000000  1
loop_
_geom_bond_atom_site_label_1
_geom_bond_atom_site_label_2
_geom_bond_distance
_geom_bond_site_symmetry_2
In0 Rh0 2.779534 1_555
In0 Rh0 2.779541 1_455
In0 Rh1 2.810577 1_556
In0 Sr1 3.456752 1_556
In0 Sr1 3.456760 1_456
In0 Sr0 3.482278 1_555
In0 Sr0 3.593978 1_665
In0 Sr0 3.593981 1_565
In1 Rh1 2.779534 1_555
In1 Rh1 2.779541 1_655
In1 Rh0 2.810577 1_554
In1 Sr0 3.456752 1_554
In1 Sr0 3.456760 1_654
In1 Sr1 3.482278 1_555
In1 Sr1 3.593978 1_445
In1 Sr1 3.593981 1_545
In2 Rh1 2.779534 1_555
In2 Rh1 2.779541 1_655
In2 Rh0 2.810577 1_555
In2 Sr0 3.456752 1_555
In2 Sr0 3.456760 1_655
In2 Sr1 3.482278 1_555
In2 Sr1 3.593978 1_445
In2 Sr1 3.593981 1_545
In3 Rh0 2.779534 1_555
In3 Rh0 2.779541 1_455
In3 Rh1 2.810577 1_555
In3 Sr1 3.456752 1_555
In3 Sr1 3.456760 1_455
In3 Sr0 3.482278 1_555
In3 Sr0 3.593978 1_665
In3 Sr0 3.593981 1_565
Rh0 Sr0 3.019764 1_665
Rh0 Sr0 3.288430 1_555
Rh0 Sr0 3.288433 1_655
Rh1 Sr1 3.019764 1_445
Rh1 Sr1 3.288430 1_555
Rh1 Sr1 3.288433 1_455
