# generated using pymatgen
data_RbLa9(IrO6)4
_symmetry_space_group_name_H-M   'P 1'
_cell_length_a   10.51170173
_cell_length_b   10.51170173
_cell_length_c   10.51170173
_cell_angle_alpha   136.30180414
_cell_angle_beta   136.30180414
_cell_angle_gamma   63.51408487
_symmetry_Int_Tables_number   1
_chemical_formula_structural   RbLa9(IrO6)4
_chemical_formula_sum   'Rb1 La9 Ir4 O24'
_cell_volume   547.15713859
_cell_formula_units_Z   1
loop_
 _symmetry_equiv_pos_site_id
 _symmetry_equiv_pos_as_xyz
  1  'x, y, z'
loop_
 _atom_site_type_symbol
 _atom_site_label
 _atom_site_symmetry_multiplicity
 _atom_site_fract_x
 _atom_site_fract_y
 _atom_site_fract_z
 _atom_site_occupancy
  Rb  Rb0  1  0.50000000  0.50000000  0.00000000  1
  La  La0  1  0.83010600  0.96416900  0.50502900  1
  La  La1  1  0.32507700  0.83010600  0.86593700  1
  La  La2  1  0.96416900  0.45914000  0.13406300  1
  La  La3  1  0.67492300  0.16989400  0.13406300  1
  La  La4  1  0.16989400  0.03583100  0.49497100  1
  La  La5  1  0.03583100  0.54086000  0.86593700  1
  La  La6  1  0.45914000  0.32507700  0.49497100  1
  La  La7  1  0.00000000  0.00000000  0.00000000  1
  La  La8  1  0.54086000  0.67492300  0.50502900  1
  Ir  Ir0  1  0.50000000  0.00000000  0.50000000  1
  Ir  Ir1  1  0.75949000  0.75949000  0.00000000  1
  Ir  Ir2  1  0.24051000  0.24051000  0.00000000  1
  Ir  Ir3  1  0.00000000  0.50000000  0.50000000  1
  O  O0  1  0.68494400  0.22309600  0.73150100  1
  O  O1  1  0.22309600  0.49159500  0.53815300  1
  O  O2  1  0.52014500  0.82691300  0.81610100  1
  O  O3  1  0.29595600  0.47985500  0.30676800  1
  O  O4  1  0.13094700  0.71271200  0.84365900  1
  O  O5  1  0.82691300  0.01081200  0.30676800  1
  O  O6  1  0.95344300  0.68494400  0.46184700  1
  O  O7  1  0.28728800  0.13094700  0.41823500  1
  O  O8  1  0.98918800  0.29595600  0.81610100  1
  O  O9  1  0.50840500  0.04655700  0.73150100  1
  O  O10  1  0.49159500  0.95344300  0.26849900  1
  O  O11  1  0.87239500  0.87239500  0.00000000  1
  O  O12  1  0.77690400  0.50840500  0.46184700  1
  O  O13  1  0.47985500  0.17308700  0.18389900  1
  O  O14  1  0.31505600  0.77690400  0.26849900  1
  O  O15  1  0.12760500  0.12760500  0.00000000  1
  O  O16  1  0.71271200  0.86905300  0.58176500  1
  O  O17  1  0.86905300  0.28728800  0.15634100  1
  O  O18  1  0.70404400  0.52014500  0.69323200  1
  O  O19  1  0.17308700  0.98918800  0.69323200  1
  O  O20  1  0.34969400  0.34969400  0.00000000  1
  O  O21  1  0.65030600  0.65030600  0.00000000  1
  O  O22  1  0.04655700  0.31505600  0.53815300  1
  O  O23  1  0.01081200  0.70404400  0.18389900  1
loop_
_geom_bond_atom_site_label_1
_geom_bond_atom_site_label_2
_geom_bond_distance
_geom_bond_site_symmetry_2
La0 O5 2.438548 1_565
La0 O10 2.452737 1_555
La0 O6 2.456047 1_555
La0 O8 2.541130 1_565
La0 O19 2.600231 1_655
La0 O16 2.622796 1_555
La0 O0 2.753672 1_565
La0 O15 2.853359 1_666
La0 O21 2.892628 1_555
La1 O2 2.438548 1_555
La1 O1 2.452736 1_555
La1 O10 2.456050 1_556
La1 O19 2.541130 1_555
La1 O13 2.600231 1_566
La1 O4 2.622796 1_555
La1 O6 2.753673 1_455
La1 O15 2.853359 1_566
La1 O21 2.892628 1_556
La2 O23 2.438548 1_655
La2 O6 2.452729 1_555
La2 O0 2.456050 1_554
La2 O3 2.541130 1_655
La2 O8 2.600231 1_554
La2 O17 2.622796 1_555
La2 O1 2.753680 1_655
La2 O15 2.853359 1_655
La2 O21 2.892628 1_555
La3 O13 2.438548 1_555
La3 O12 2.452736 1_555
La3 O9 2.456050 1_554
La3 O5 2.541130 1_555
La3 O2 2.600231 1_544
La3 O17 2.622796 1_555
La3 O22 2.753673 1_655
La3 O11 2.853359 1_545
La3 O20 2.892628 1_555
La4 O19 2.438548 1_545
La4 O9 2.452737 1_555
La4 O22 2.456047 1_555
La4 O23 2.541130 1_545
La4 O5 2.600231 1_455
La4 O7 2.622796 1_555
La4 O14 2.753672 1_545
La4 O11 2.853359 1_445
La4 O20 2.892628 1_556
La5 O8 2.438548 1_455
La5 O22 2.452729 1_555
La5 O14 2.456050 1_556
La5 O18 2.541130 1_455
La5 O23 2.600231 1_556
La5 O4 2.622796 1_555
La5 O12 2.753680 1_455
La5 O11 2.853359 1_456
La5 O20 2.892628 1_556
La6 O18 2.438548 1_555
La6 O0 2.452737 1_555
La6 O1 2.456054 1_555
La6 O13 2.541130 1_555
La6 O3 2.600231 1_555
La6 O7 2.622796 1_555
La6 O10 2.753672 1_545
La6 O15 2.853359 1_555
La6 O21 2.892628 1_556
La7 O15 2.281059 1_555
La7 O11 2.281059 1_445
La7 O7 2.470267 1_555
La7 O17 2.470267 1_455
La7 O16 2.470267 1_444
La7 O4 2.470267 1_544
La8 O3 2.438548 1_555
La8 O14 2.452737 1_555
La8 O12 2.456054 1_555
La8 O2 2.541130 1_555
La8 O18 2.600231 1_555
La8 O16 2.622796 1_555
La8 O9 2.753672 1_565
La8 O11 2.853359 1_556
La8 O20 2.892628 1_555
Ir0 O16 1.954368 1_545
Ir0 O7 1.954368 1_555
Ir0 O10 2.043213 1_545
Ir0 O0 2.043213 1_555
Ir0 O9 2.043213 1_555
Ir0 O14 2.043213 1_545
Ir1 O21 1.951766 1_555
Ir1 O23 1.981685 1_655
Ir1 O5 1.981685 1_565
Ir1 O2 1.981685 1_554
Ir1 O18 1.981685 1_554
Ir1 O11 2.018283 1_555
Ir2 O20 1.951766 1_555
Ir2 O13 1.981685 1_555
Ir2 O3 1.981685 1_555
Ir2 O8 1.981685 1_454
Ir2 O19 1.981685 1_544
Ir2 O15 2.018283 1_555
Ir3 O4 1.954368 1_555
Ir3 O17 1.954368 1_455
Ir3 O1 2.043207 1_555
Ir3 O12 2.043207 1_455
Ir3 O22 2.043220 1_555
Ir3 O6 2.043220 1_455
O0 Rb0 3.350420 1_556
O1 Rb0 3.350412 1_556
O6 Rb0 3.350420 1_555
O9 Rb0 3.350420 1_556
O10 Rb0 3.350420 1_555
O12 Rb0 3.350412 1_555
O14 Rb0 3.350420 1_555
O20 Rb0 2.686861 1_555
O21 Rb0 2.686861 1_555
O22 Rb0 3.350420 1_556
