# generated using pymatgen
data_Li6Nd6Sb(TeO8)3
_symmetry_space_group_name_H-M   'P 1'
_cell_length_a   11.01750721
_cell_length_b   11.01750721
_cell_length_c   12.73289543
_cell_angle_alpha   54.83832042
_cell_angle_beta   54.83832042
_cell_angle_gamma   70.62754794
_symmetry_Int_Tables_number   1
_chemical_formula_structural   Li6Nd6Sb(TeO8)3
_chemical_formula_sum   'Li12 Nd12 Sb2 Te6 O48'
_cell_volume   1033.00283466
_cell_formula_units_Z   2
loop_
 _symmetry_equiv_pos_site_id
 _symmetry_equiv_pos_as_xyz
  1  'x, y, z'
loop_
 _atom_site_type_symbol
 _atom_site_label
 _atom_site_symmetry_multiplicity
 _atom_site_fract_x
 _atom_site_fract_y
 _atom_site_fract_z
 _atom_site_occupancy
  Li  Li0  1  0.87517300  0.37432100  0.87568800  1
  Li  Li1  1  0.87481300  0.12518700  0.25000000  1
  Li  Li2  1  0.75100600  0.75031800  0.37409300  1
  Li  Li3  1  0.62456000  0.37544000  0.75000000  1
  Li  Li4  1  0.75031800  0.75100600  0.87409300  1
  Li  Li5  1  0.62567900  0.12482700  0.62431200  1
  Li  Li6  1  0.37432100  0.87517300  0.37568800  1
  Li  Li7  1  0.24899400  0.24968200  0.62590700  1
  Li  Li8  1  0.24968200  0.24899400  0.12590700  1
  Li  Li9  1  0.37544000  0.62456000  0.25000000  1
  Li  Li10  1  0.12518700  0.87481300  0.75000000  1
  Li  Li11  1  0.12482700  0.62567900  0.12431200  1
  Nd  Nd0  1  0.87521300  0.12478700  0.75000000  1
  Nd  Nd1  1  0.74885200  0.74962800  0.62620400  1
  Nd  Nd2  1  0.87350900  0.37544700  0.37481500  1
  Nd  Nd3  1  0.37567500  0.62432500  0.75000000  1
  Nd  Nd4  1  0.74962800  0.74885200  0.12620400  1
  Nd  Nd5  1  0.62455300  0.12649100  0.12518500  1
  Nd  Nd6  1  0.37544700  0.87350900  0.87481500  1
  Nd  Nd7  1  0.25037200  0.25114800  0.87379600  1
  Nd  Nd8  1  0.62432500  0.37567500  0.25000000  1
  Nd  Nd9  1  0.12649100  0.62455300  0.62518500  1
  Nd  Nd10  1  0.25114800  0.25037200  0.37379600  1
  Nd  Nd11  1  0.12478700  0.87521300  0.25000000  1
  Sb  Sb0  1  0.50000000  0.50000000  0.50000000  1
  Sb  Sb1  1  0.50000000  0.50000000  0.00000000  1
  Te  Te0  1  0.00000000  0.50000000  0.00000000  1
  Te  Te1  1  0.50000000  0.00000000  0.50000000  1
  Te  Te2  1  0.50000000  0.00000000  0.00000000  1
  Te  Te3  1  0.00000000  0.50000000  0.50000000  1
  Te  Te4  1  0.00000000  0.00000000  0.50000000  1
  Te  Te5  1  0.00000000  0.00000000  0.00000000  1
  O  O0  1  0.90709200  0.80698800  0.66961500  1
  O  O1  1  0.97712900  0.92346600  0.90617400  1
  O  O2  1  0.88366700  0.16985000  0.92286800  1
  O  O3  1  0.92340300  0.52282300  0.67009700  1
  O  O4  1  0.92346600  0.97712900  0.40617400  1
  O  O5  1  0.90698000  0.69335900  0.42337400  1
  O  O6  1  0.82998700  0.38291500  0.59346000  1
  O  O7  1  0.57905500  0.52814600  0.79976300  1
  O  O8  1  0.61708500  0.17001300  0.90654000  1
  O  O9  1  0.69335900  0.90698000  0.92337400  1
  O  O10  1  0.83015000  0.11633300  0.57713200  1
  O  O11  1  0.66989600  0.11584200  0.30769400  1
  O  O12  1  0.97680600  0.57645300  0.11659300  1
  O  O13  1  0.80698800  0.90709200  0.16961500  1
  O  O14  1  0.59387100  0.80746200  0.52219200  1
  O  O15  1  0.70010800  0.59400800  0.37844500  1
  O  O16  1  0.67250000  0.37862200  0.02722600  1
  O  O17  1  0.88415800  0.33010400  0.19230600  1
  O  O18  1  0.59400800  0.70010800  0.87844500  1
  O  O19  1  0.47185400  0.42094500  0.70023700  1
  O  O20  1  0.47717700  0.07659700  0.82990300  1
  O  O21  1  0.62137800  0.32750000  0.47277400  1
  O  O22  1  0.80746200  0.59387100  0.02219200  1
  O  O23  1  0.42354700  0.02319400  0.38340700  1
  O  O24  1  0.19253800  0.40612900  0.97780800  1
  O  O25  1  0.57645300  0.97680600  0.61659300  1
  O  O26  1  0.37862200  0.67250000  0.52722600  1
  O  O27  1  0.52282300  0.92340300  0.17009700  1
  O  O28  1  0.52814600  0.57905500  0.29976300  1
  O  O29  1  0.40599200  0.29989200  0.12155500  1
  O  O30  1  0.11584200  0.66989600  0.80769400  1
  O  O31  1  0.32750000  0.62137800  0.97277400  1
  O  O32  1  0.29989200  0.40599200  0.62155500  1
  O  O33  1  0.40612900  0.19253800  0.47780800  1
  O  O34  1  0.19301200  0.09290800  0.83038500  1
  O  O35  1  0.02319400  0.42354700  0.88340700  1
  O  O36  1  0.33010400  0.88415800  0.69230600  1
  O  O37  1  0.16985000  0.88366700  0.42286800  1
  O  O38  1  0.30664100  0.09302000  0.07662600  1
  O  O39  1  0.38291500  0.82998700  0.09346000  1
  O  O40  1  0.42094500  0.47185400  0.20023700  1
  O  O41  1  0.17001300  0.61708500  0.40654000  1
  O  O42  1  0.09302000  0.30664100  0.57662600  1
  O  O43  1  0.07653400  0.02287100  0.59382600  1
  O  O44  1  0.07659700  0.47717700  0.32990300  1
  O  O45  1  0.11633300  0.83015000  0.07713200  1
  O  O46  1  0.02287100  0.07653400  0.09382600  1
  O  O47  1  0.09290800  0.19301200  0.33038500  1
loop_
_geom_bond_atom_site_label_1
_geom_bond_atom_site_label_2
_geom_bond_distance
_geom_bond_site_symmetry_2
Li0 O16 1.945261 1_556
Li0 O35 1.948374 1_655
Li0 O2 1.952114 1_555
Li0 O3 1.963054 1_555
Li1 O11 1.950440 1_555
Li1 O17 1.950440 1_555
Li1 O46 1.952971 1_655
Li1 O4 1.952971 1_545
Li2 O15 1.943784 1_555
Li2 O5 1.952844 1_555
Li2 O13 1.954517 1_555
Li2 O14 1.957990 1_555
Li3 O19 1.945714 1_555
Li3 O7 1.945714 1_555
Li3 O8 1.959811 1_555
Li3 O6 1.959811 1_555
Li4 O18 1.943784 1_555
Li4 O9 1.952844 1_555
Li4 O0 1.954517 1_555
Li4 O22 1.957990 1_556
Li5 O21 1.945261 1_555
Li5 O25 1.948374 1_545
Li5 O10 1.952114 1_555
Li5 O20 1.963054 1_555
Li6 O26 1.945261 1_555
Li6 O23 1.948374 1_565
Li6 O37 1.952114 1_555
Li6 O27 1.963054 1_555
Li7 O32 1.943784 1_555
Li7 O42 1.952844 1_555
Li7 O34 1.954517 1_555
Li7 O33 1.957990 1_555
Li8 O29 1.943784 1_555
Li8 O38 1.952844 1_555
Li8 O47 1.954517 1_555
Li8 O24 1.957990 1_554
Li9 O28 1.945714 1_555
Li9 O40 1.945714 1_555
Li9 O41 1.959811 1_555
Li9 O39 1.959811 1_555
Li10 O30 1.950440 1_555
Li10 O36 1.950440 1_555
Li10 O1 1.952971 1_455
Li10 O43 1.952971 1_565
Li11 O31 1.945261 1_554
Li11 O12 1.948374 1_455
Li11 O45 1.952114 1_555
Li11 O44 1.963054 1_555
Nd0 O1 2.444227 1_545
Nd0 O43 2.444227 1_655
Nd0 O6 2.446226 1_555
Nd0 O8 2.446226 1_555
Nd0 O2 2.574011 1_555
Nd0 O10 2.574011 1_555
Nd0 O9 2.576834 1_545
Nd0 O42 2.576834 1_655
Nd1 O18 2.410785 1_555
Nd1 O14 2.446709 1_555
Nd1 O0 2.446953 1_555
Nd1 O5 2.456564 1_555
Nd1 O7 2.528570 1_555
Nd1 O25 2.578450 1_555
Nd1 O3 2.587703 1_555
Nd1 O4 2.595345 1_555
Nd2 O21 2.403169 1_555
Nd2 O12 2.446580 1_555
Nd2 O10 2.455861 1_555
Nd2 O44 2.457950 1_655
Nd2 O15 2.534746 1_555
Nd2 O17 2.578353 1_555
Nd2 O6 2.585997 1_555
Nd2 O47 2.591224 1_655
Nd3 O19 2.414953 1_555
Nd3 O7 2.414953 1_555
Nd3 O30 2.456824 1_555
Nd3 O36 2.456824 1_555
Nd3 O26 2.549535 1_555
Nd3 O31 2.549535 1_555
Nd3 O24 2.590290 1_555
Nd3 O14 2.590290 1_555
Nd4 O15 2.410785 1_555
Nd4 O22 2.446709 1_555
Nd4 O13 2.446953 1_555
Nd4 O9 2.456564 1_554
Nd4 O28 2.528570 1_555
Nd4 O12 2.578450 1_555
Nd4 O27 2.587703 1_555
Nd4 O1 2.595345 1_554
Nd5 O16 2.403169 1_555
Nd5 O23 2.446580 1_555
Nd5 O2 2.455861 1_554
Nd5 O27 2.457950 1_545
Nd5 O29 2.534746 1_555
Nd5 O11 2.578353 1_555
Nd5 O8 2.585997 1_554
Nd5 O13 2.591224 1_545
Nd6 O31 2.403169 1_555
Nd6 O25 2.446580 1_555
Nd6 O45 2.455861 1_556
Nd6 O20 2.457950 1_565
Nd6 O18 2.534746 1_555
Nd6 O36 2.578353 1_555
Nd6 O39 2.585997 1_556
Nd6 O34 2.591224 1_565
Nd7 O32 2.410785 1_555
Nd7 O24 2.446709 1_555
Nd7 O34 2.446953 1_555
Nd7 O38 2.456564 1_556
Nd7 O19 2.528570 1_555
Nd7 O35 2.578450 1_555
Nd7 O20 2.587703 1_555
Nd7 O46 2.595345 1_556
Nd8 O28 2.414953 1_555
Nd8 O40 2.414953 1_555
Nd8 O11 2.456824 1_555
Nd8 O17 2.456824 1_555
Nd8 O16 2.549535 1_555
Nd8 O21 2.549535 1_555
Nd8 O22 2.590290 1_555
Nd8 O33 2.590290 1_555
Nd9 O26 2.403169 1_555
Nd9 O35 2.446580 1_555
Nd9 O37 2.455861 1_555
Nd9 O3 2.457950 1_455
Nd9 O32 2.534746 1_555
Nd9 O30 2.578353 1_555
Nd9 O41 2.585997 1_555
Nd9 O0 2.591224 1_455
Nd10 O29 2.410785 1_555
Nd10 O33 2.446709 1_555
Nd10 O47 2.446953 1_555
Nd10 O42 2.456564 1_555
Nd10 O40 2.528570 1_555
Nd10 O23 2.578450 1_555
Nd10 O44 2.587703 1_555
Nd10 O43 2.595345 1_555
Nd11 O4 2.444227 1_455
Nd11 O46 2.444227 1_565
Nd11 O41 2.446226 1_555
Nd11 O39 2.446226 1_555
Nd11 O45 2.574011 1_555
Nd11 O37 2.574011 1_555
Nd11 O38 2.576834 1_565
Nd11 O5 2.576834 1_455
O0 Te4 1.960187 1_665
O1 Te5 1.962065 1_666
O2 Te5 1.962397 1_656
O3 Te3 1.961514 1_655
O4 Te4 1.962065 1_665
O5 Te3 1.962108 1_655
O6 Te3 1.963759 1_655
O7 Sb1 2.016453 1_556
O8 Te2 1.963759 1_556
O9 Te2 1.962108 1_566
O10 Te4 1.962397 1_655
O11 Te1 1.958266 1_555
O12 Te0 1.959406 1_655
O13 Te5 1.960187 1_665
O14 Te1 1.959613 1_565
O15 Sb0 2.016748 1_555
O16 Sb1 2.014765 1_555
O17 Te0 1.958266 1_655
O18 Sb1 2.016748 1_556
O19 Sb0 2.016453 1_555
O20 Te2 1.961514 1_556
O21 Sb0 2.014765 1_555
O22 Te0 1.959613 1_655
O23 Te1 1.959406 1_555
O24 Te0 1.959613 1_556
O25 Te1 1.959406 1_565
O26 Sb0 2.014765 1_555
O27 Te2 1.961514 1_565
O28 Sb0 2.016453 1_555
O29 Sb1 2.016748 1_555
O30 Te0 1.958266 1_556
O31 Sb1 2.014765 1_556
O32 Sb0 2.016748 1_555
O33 Te1 1.959613 1_555
O34 Te5 1.960187 1_556
O35 Te0 1.959406 1_556
O36 Te1 1.958266 1_565
O37 Te4 1.962397 1_565
O38 Te2 1.962108 1_555
O39 Te2 1.963759 1_565
O40 Sb1 2.016453 1_555
O41 Te3 1.963759 1_555
O42 Te3 1.962108 1_555
O43 Te4 1.962065 1_555
O44 Te3 1.961514 1_555
O45 Te5 1.962397 1_565
O46 Te5 1.962065 1_555
O47 Te4 1.960187 1_555
