# generated using pymatgen
data_CdI2
_symmetry_space_group_name_H-M   'P 1'
_cell_length_a   4.28762540
_cell_length_b   4.28762529
_cell_length_c   71.54783573
_cell_angle_alpha   90.00000000
_cell_angle_beta   90.00000000
_cell_angle_gamma   119.99999288
_symmetry_Int_Tables_number   1
_chemical_formula_structural   CdI2
_chemical_formula_sum   'Cd10 I20'
_cell_volume   1139.09730000
_cell_formula_units_Z   10
loop_
 _symmetry_equiv_pos_site_id
 _symmetry_equiv_pos_as_xyz
  1  'x, y, z'
loop_
 _atom_site_type_symbol
 _atom_site_label
 _atom_site_symmetry_multiplicity
 _atom_site_fract_x
 _atom_site_fract_y
 _atom_site_fract_z
 _atom_site_occupancy
  Cd  Cd0  1  0.00000000  -0.00000000  0.72537197  1
  Cd  Cd1  1  0.00000000  -0.00000000  0.92559484  1
  Cd  Cd2  1  0.66666700  0.33333300  0.42440293  1
  Cd  Cd3  1  0.66666700  0.33333300  0.02558800  1
  Cd  Cd4  1  0.00000000  0.00000000  0.22462909  1
  Cd  Cd5  1  0.00000000  0.00000000  0.32441282  1
  Cd  Cd6  1  0.00000000  0.00000000  0.52441254  1
  Cd  Cd7  1  -0.00000000  -0.00000000  0.12500367  1
  Cd  Cd8  1  0.00000000  0.00000000  0.82559430  1
  Cd  Cd9  1  -0.00000000  -0.00000000  0.62500626  1
  I  I0  1  -0.00000000  0.00000000  0.40026540  1
  I  I1  1  0.33333300  0.66666700  0.44850866  1
  I  I2  1  0.33333300  0.66666700  0.34849903  1
  I  I3  1  0.66666700  0.33333300  0.10093214  1
  I  I4  1  0.66666700  0.33333300  0.90149645  1
  I  I5  1  0.33333300  0.66666700  0.94971664  1
  I  I6  1  0.66666700  0.33333300  0.70143221  1
  I  I7  1  0.66666700  0.33333300  0.80148409  1
  I  I8  1  0.33333300  0.66666700  0.04971888  1
  I  I9  1  0.66666700  0.33333300  0.30028282  1
  I  I10  1  -0.00000000  0.00000000  0.00148658  1
  I  I11  1  0.33333300  0.66666700  0.54851807  1
  I  I12  1  0.66666700  0.33333300  0.60093054  1
  I  I13  1  0.33333300  0.66666700  0.14906999  1
  I  I14  1  0.33333300  0.66666700  0.24857325  1
  I  I15  1  0.66666700  0.33333300  0.50027587  1
  I  I16  1  0.33333300  0.66666700  0.84971921  1
  I  I17  1  0.33333300  0.66666700  0.64906997  1
  I  I18  1  0.66666700  0.33333300  0.20069401  1
  I  I19  1  0.33333300  0.66666700  0.74930479  1
loop_
_geom_bond_atom_site_label_1
_geom_bond_atom_site_label_2
_geom_bond_distance
_geom_bond_site_symmetry_2
Cd0 I19 3.009985 1_545
Cd0 I19 3.009988 1_555
Cd0 I19 3.009989 1_445
Cd0 I6 3.010268 1_455
Cd0 I6 3.010271 1_445
Cd0 I6 3.010271 1_555
Cd1 I4 3.016740 1_455
Cd1 I4 3.016743 1_445
Cd1 I4 3.016743 1_555
Cd1 I5 3.017698 1_545
Cd1 I5 3.017701 1_555
Cd1 I5 3.017701 1_445
Cd2 I1 3.017040 1_545
Cd2 I1 3.017041 1_655
Cd2 I1 3.017046 1_555
Cd2 I0 3.018341 1_655
Cd2 I0 3.018345 1_665
Cd2 I0 3.018345 1_555
Cd3 I10 3.016864 1_655
Cd3 I10 3.016867 1_665
Cd3 I10 3.016867 1_555
Cd3 I8 3.018069 1_545
Cd3 I8 3.018070 1_655
Cd3 I8 3.018075 1_555
Cd4 I18 3.010077 1_455
Cd4 I18 3.010080 1_445
Cd4 I18 3.010081 1_555
Cd4 I14 3.010447 1_545
Cd4 I14 3.010450 1_555
Cd4 I14 3.010450 1_445
Cd5 I2 3.016242 1_545
Cd5 I2 3.016245 1_555
Cd5 I2 3.016245 1_445
Cd5 I9 3.018033 1_455
Cd5 I9 3.018036 1_445
Cd5 I9 3.018037 1_555
Cd6 I11 3.017032 1_545
Cd6 I11 3.017035 1_555
Cd6 I11 3.017035 1_445
Cd6 I15 3.018306 1_455
Cd6 I15 3.018310 1_445
Cd6 I15 3.018310 1_555
Cd7 I13 3.015429 1_545
Cd7 I13 3.015432 1_555
Cd7 I13 3.015433 1_445
Cd7 I3 3.015642 1_455
Cd7 I3 3.015645 1_445
Cd7 I3 3.015645 1_555
Cd8 I7 3.017224 1_455
Cd8 I7 3.017227 1_445
Cd8 I7 3.017227 1_555
Cd8 I16 3.017825 1_545
Cd8 I16 3.017828 1_555
Cd8 I16 3.017828 1_445
Cd9 I17 3.015323 1_545
Cd9 I17 3.015326 1_555
Cd9 I17 3.015326 1_445
Cd9 I12 3.015813 1_455
Cd9 I12 3.015817 1_445
Cd9 I12 3.015817 1_555
