# generated using pymatgen
data_Tl3PO4
_symmetry_space_group_name_H-M   'P 1'
_cell_length_a   8.46457754
_cell_length_b   8.46457742
_cell_length_c   5.10637282
_cell_angle_alpha   90.00000000
_cell_angle_beta   90.00000000
_cell_angle_gamma   120.00000054
_symmetry_Int_Tables_number   1
_chemical_formula_structural   Tl3PO4
_chemical_formula_sum   'Tl6 P2 O8'
_cell_volume   316.85000506
_cell_formula_units_Z   2
loop_
 _symmetry_equiv_pos_site_id
 _symmetry_equiv_pos_as_xyz
  1  'x, y, z'
loop_
 _atom_site_type_symbol
 _atom_site_label
 _atom_site_symmetry_multiplicity
 _atom_site_fract_x
 _atom_site_fract_y
 _atom_site_fract_z
 _atom_site_occupancy
  Tl  Tl0  1  0.73585778  0.09347547  0.99533822  1
  Tl  Tl1  1  0.90652453  0.64238131  0.99533822  1
  Tl  Tl2  1  0.64238131  0.73585778  0.49533822  1
  Tl  Tl3  1  0.26414222  0.90652453  0.49533822  1
  Tl  Tl4  1  0.09347547  0.35761869  0.49533822  1
  Tl  Tl5  1  0.35761869  0.26414222  0.99533822  1
  P  P0  1  0.33333300  0.66666700  0.98827272  1
  P  P1  1  0.66666700  0.33333300  0.48827272  1
  O  O0  1  0.59766107  0.13690187  0.58462259  1
  O  O1  1  0.46075820  0.59766107  0.08462259  1
  O  O2  1  0.13690187  0.53924180  0.08462259  1
  O  O3  1  0.86309813  0.46075820  0.58462259  1
  O  O4  1  0.33333300  0.66666700  0.68244384  1
  O  O5  1  0.40233893  0.86309813  0.08462259  1
  O  O6  1  0.66666700  0.33333300  0.18244384  1
  O  O7  1  0.53924180  0.40233893  0.58462259  1
loop_
_geom_bond_atom_site_label_1
_geom_bond_atom_site_label_2
_geom_bond_distance
_geom_bond_site_symmetry_2
O0 P1 1.541635 1_555
O0 Tl0 2.516351 1_555
O0 Tl3 2.544651 1_545
O1 P0 1.541635 1_554
O1 Tl2 2.516351 1_555
O1 Tl5 2.544654 1_554
O2 P0 1.541635 1_554
O2 Tl4 2.516351 1_555
O2 Tl1 2.544638 1_454
O3 P1 1.541635 1_555
O3 Tl1 2.516351 1_555
O3 Tl4 2.544638 1_655
O4 P0 1.561676 1_555
O4 Tl4 2.562622 1_555
O4 Tl3 2.562622 1_555
O4 Tl2 2.562622 1_555
O5 P0 1.541635 1_554
O5 Tl3 2.516351 1_555
O5 Tl0 2.544651 1_564
O6 P1 1.561676 1_555
O6 Tl1 2.562622 1_554
O6 Tl0 2.562622 1_554
O6 Tl5 2.562622 1_554
O7 P1 1.541635 1_555
O7 Tl5 2.516351 1_555
O7 Tl2 2.544654 1_555
