# generated using pymatgen
data_Pd3(PbS)2
_symmetry_space_group_name_H-M   'P 1'
_cell_length_a   7.27632829
_cell_length_b   7.27632881
_cell_length_c   7.27632837
_cell_angle_alpha   109.47122229
_cell_angle_beta   109.47122378
_cell_angle_gamma   109.47120784
_symmetry_Int_Tables_number   1
_chemical_formula_structural   Pd3(PbS)2
_chemical_formula_sum   'Pd6 Pb4 S4'
_cell_volume   296.56168670
_cell_formula_units_Z   2
loop_
 _symmetry_equiv_pos_site_id
 _symmetry_equiv_pos_as_xyz
  1  'x, y, z'
loop_
 _atom_site_type_symbol
 _atom_site_label
 _atom_site_symmetry_multiplicity
 _atom_site_fract_x
 _atom_site_fract_y
 _atom_site_fract_z
 _atom_site_occupancy
  Pd  Pd0  1  0.75000000  0.97700858  0.22700858  1
  Pd  Pd1  1  0.22700858  0.75000000  0.97700858  1
  Pd  Pd2  1  0.97700858  0.22700858  0.75000000  1
  Pd  Pd3  1  0.25000000  0.52299142  0.27299142  1
  Pd  Pd4  1  0.27299142  0.25000000  0.52299142  1
  Pd  Pd5  1  0.52299142  0.27299142  0.25000000  1
  Pb  Pb0  1  0.00000000  0.51317077  0.50000000  1
  Pb  Pb1  1  0.51317077  0.50000000  0.00000000  1
  Pb  Pb2  1  0.98682923  0.98682923  0.98682923  1
  Pb  Pb3  1  0.50000000  -0.00000000  0.51317077  1
  S  S0  1  0.94892049  0.50000000  -0.00000000  1
  S  S1  1  0.55107951  0.55107951  0.55107951  1
  S  S2  1  0.50000000  0.00000000  0.94892049  1
  S  S3  1  -0.00000000  0.94892049  0.50000000  1
loop_
_geom_bond_atom_site_label_1
_geom_bond_atom_site_label_2
_geom_bond_distance
_geom_bond_site_symmetry_2
Pd0 S3 2.325102 1_655
Pd0 S2 2.325102 1_564
Pd1 S2 2.325102 1_565
Pd1 S0 2.325102 1_456
Pd2 S0 2.325102 1_556
Pd2 S3 2.325102 1_645
Pd3 S0 2.325102 1_455
Pd3 S1 2.325102 1_555
Pd4 S3 2.325102 1_545
Pd4 S1 2.325102 1_555
Pd5 S2 2.325102 1_554
Pd5 S1 2.325102 1_555
Pb0 Pd3 2.835095 1_555
Pb0 Pd1 2.835095 1_555
Pb0 Pd5 2.835095 1_455
Pb0 S3 3.170658 1_555
Pb0 Pd4 3.188799 1_555
Pb0 Pd2 3.188799 1_455
Pb0 Pd0 3.188800 1_445
Pb1 Pd4 2.835095 1_554
Pb1 Pd5 2.835095 1_555
Pb1 Pd0 2.835095 1_555
Pb1 S0 3.170658 1_555
Pb1 Pd1 3.188799 1_554
Pb1 Pd3 3.188799 1_555
Pb1 Pd2 3.188799 1_454
Pb2 Pd1 2.835095 1_655
Pb2 Pd0 2.835095 1_556
Pb2 Pd2 2.835095 1_565
Pb2 S1 3.170659 1_555
Pb2 Pd4 3.188799 1_666
Pb2 Pd5 3.188799 1_666
Pb2 Pd3 3.188800 1_666
Pb3 Pd4 2.835095 1_555
Pb3 Pd2 2.835095 1_555
Pb3 Pd3 2.835095 1_545
Pb3 S2 3.170658 1_555
Pb3 Pd0 3.188799 1_545
Pb3 Pd1 3.188799 1_544
Pb3 Pd5 3.188799 1_555
