# generated using pymatgen
data_ScH6N2Cl3
_symmetry_space_group_name_H-M   'P 1'
_cell_length_a   6.98595100
_cell_length_b   9.96861588
_cell_length_c   11.27976037
_cell_angle_alpha   105.48116582
_cell_angle_beta   90.65249889
_cell_angle_gamma   109.75714541
_symmetry_Int_Tables_number   1
_chemical_formula_structural   ScH6N2Cl3
_chemical_formula_sum   'Sc4 H24 N8 Cl12'
_cell_volume   707.97640736
_cell_formula_units_Z   4
loop_
 _symmetry_equiv_pos_site_id
 _symmetry_equiv_pos_as_xyz
  1  'x, y, z'
loop_
 _atom_site_type_symbol
 _atom_site_label
 _atom_site_symmetry_multiplicity
 _atom_site_fract_x
 _atom_site_fract_y
 _atom_site_fract_z
 _atom_site_occupancy
  Sc  Sc0  1  0.31710300  0.22264100  0.30372900  1
  Sc  Sc1  1  0.68289700  0.77735900  0.69627100  1
  Sc  Sc2  1  0.16231700  0.80294500  0.19652300  1
  Sc  Sc3  1  0.83768300  0.19705500  0.80347700  1
  H  H0  1  0.29528300  0.79288800  0.95505700  1
  H  H1  1  0.70471700  0.20711200  0.04494300  1
  H  H2  1  0.29697600  0.55640300  0.13303700  1
  H  H3  1  0.70302400  0.44359700  0.86696300  1
  H  H4  1  0.22588800  0.72822000  0.41861800  1
  H  H5  1  0.77411200  0.27178000  0.58138200  1
  H  H6  1  0.65874800  0.47302400  0.29670700  1
  H  H7  1  0.34125200  0.52697600  0.70329300  1
  H  H8  1  0.25019700  0.90507500  0.45974100  1
  H  H9  1  0.74980300  0.09492500  0.54025900  1
  H  H10  1  0.21720100  0.93502000  0.00110200  1
  H  H11  1  0.78279900  0.06498000  0.99889800  1
  H  H12  1  0.66209200  0.46592400  0.44082400  1
  H  H13  1  0.33790800  0.53407600  0.55917600  1
  H  H14  1  0.46436500  0.68575400  0.24553700  1
  H  H15  1  0.53563500  0.31424600  0.75446300  1
  H  H16  1  0.04727600  0.76603600  0.94515400  1
  H  H17  1  0.95272400  0.23396400  0.05484600  1
  H  H18  1  0.47793200  0.69464000  0.10258300  1
  H  H19  1  0.52206800  0.30536000  0.89741700  1
  H  H20  1  0.75148400  0.35992100  0.33723700  1
  H  H21  1  0.24851600  0.64007900  0.66276300  1
  H  H22  1  0.02045400  0.77615200  0.42631100  1
  H  H23  1  0.97954600  0.22384800  0.57368900  1
  N  N0  1  0.63474100  0.40138900  0.35024100  1
  N  N1  1  0.36525900  0.59861100  0.64975900  1
  N  N2  1  0.18415500  0.82582700  0.99962100  1
  N  N3  1  0.81584500  0.17417300  0.00037900  1
  N  N4  1  0.16643300  0.80266400  0.40061300  1
  N  N5  1  0.83356700  0.19733600  0.59938700  1
  N  N6  1  0.37665200  0.66866100  0.16545800  1
  N  N7  1  0.62334800  0.33133900  0.83454200  1
  Cl  Cl0  1  0.99012200  0.99067900  0.24422800  1
  Cl  Cl1  1  0.00987800  0.00932100  0.75577200  1
  Cl  Cl2  1  0.14110800  0.40025100  0.34269400  1
  Cl  Cl3  1  0.85889200  0.59974900  0.65730600  1
  Cl  Cl4  1  0.49444000  0.02670300  0.25898500  1
  Cl  Cl5  1  0.50556000  0.97329700  0.74101500  1
  Cl  Cl6  1  0.86219400  0.58484000  0.13701200  1
  Cl  Cl7  1  0.13780600  0.41516000  0.86298800  1
  Cl  Cl8  1  0.33666800  0.22224900  0.52241500  1
  Cl  Cl9  1  0.66333200  0.77775100  0.47758500  1
  Cl  Cl10  1  0.34412800  0.22524200  0.08570100  1
  Cl  Cl11  1  0.65587200  0.77475800  0.91429900  1
loop_
_geom_bond_atom_site_label_1
_geom_bond_atom_site_label_2
_geom_bond_distance
_geom_bond_site_symmetry_2
H0 N2 1.027767 1_555
H1 N3 1.027767 1_555
H2 N6 1.025489 1_555
H3 N7 1.025489 1_555
H4 N4 1.025379 1_555
H5 N5 1.025379 1_555
H6 N0 1.026763 1_555
H7 N1 1.026763 1_555
H8 N4 1.026264 1_555
H9 N5 1.026264 1_555
H10 N2 1.028946 1_554
H11 N3 1.028946 1_556
H12 N0 1.027571 1_555
H13 N1 1.027571 1_555
H14 N6 1.027155 1_555
H15 N7 1.027155 1_555
H16 N2 1.026109 1_555
H17 N3 1.026109 1_555
H18 N6 1.027746 1_555
H19 N7 1.027746 1_555
H20 N0 1.027530 1_555
H21 N1 1.027530 1_555
H22 N4 1.029214 1_555
H23 N5 1.029214 1_555
N0 Sc0 2.274984 1_555
N1 Sc1 2.274984 1_555
N2 Sc2 2.294084 1_556
N3 Sc3 2.294084 1_554
N4 Sc2 2.302700 1_555
N5 Sc3 2.302700 1_555
N6 Sc2 2.296377 1_555
N7 Sc3 2.296377 1_555
Cl0 Sc2 2.497618 1_655
Cl0 Sc0 2.565318 1_665
Cl1 Sc3 2.497618 1_455
Cl1 Sc1 2.565318 1_445
Cl2 Sc0 2.430673 1_555
Cl3 Sc1 2.430673 1_555
Cl4 Sc2 2.545589 1_545
Cl4 Sc0 2.593945 1_555
Cl5 Sc3 2.545589 1_565
Cl5 Sc1 2.593945 1_555
Cl6 Sc2 2.383405 1_655
Cl7 Sc3 2.383405 1_455
Cl8 Sc0 2.470073 1_555
Cl9 Sc1 2.470073 1_555
Cl10 Sc0 2.475035 1_555
Cl11 Sc1 2.475035 1_555
