# generated using pymatgen
data_Ga2PbSe4
_symmetry_space_group_name_H-M   'P 1'
_cell_length_a   15.27819443
_cell_length_b   12.63287446
_cell_length_c   12.48136019
_cell_angle_alpha   74.98680587
_cell_angle_beta   52.97254709
_cell_angle_gamma   52.06560308
_symmetry_Int_Tables_number   1
_chemical_formula_structural   Ga2PbSe4
_chemical_formula_sum   'Ga16 Pb8 Se32'
_cell_volume   1493.04279957
_cell_formula_units_Z   8
loop_
 _symmetry_equiv_pos_site_id
 _symmetry_equiv_pos_as_xyz
  1  'x, y, z'
loop_
 _atom_site_type_symbol
 _atom_site_label
 _atom_site_symmetry_multiplicity
 _atom_site_fract_x
 _atom_site_fract_y
 _atom_site_fract_z
 _atom_site_occupancy
  Ga  Ga0  1  0.49005433  0.75956929  0.73715495  1
  Ga  Ga1  1  0.26381005  0.98712839  0.59496827  1
  Ga  Ga2  1  0.23672602  0.51279953  0.49047714  1
  Ga  Ga3  1  0.26286475  0.98629239  0.09588752  1
  Ga  Ga4  1  0.49051492  0.75995603  0.23672009  1
  Ga  Ga5  1  0.15402033  0.59496425  0.98723087  1
  Ga  Ga6  1  0.65519596  0.09573543  0.98615824  1
  Ga  Ga7  1  0.75995161  0.49042722  0.51283461  1
  Ga  Ga8  1  0.09598303  0.65504378  0.26276300  1
  Ga  Ga9  1  0.59480383  0.15426715  0.26384040  1
  Ga  Ga10  1  0.98618795  0.26288073  0.65503229  1
  Ga  Ga11  1  0.73719839  0.01329993  0.48992817  1
  Ga  Ga12  1  0.51280234  0.23669420  0.76007241  1
  Ga  Ga13  1  0.75949087  0.49003582  0.01328087  1
  Ga  Ga14  1  0.98714022  0.26369826  0.15411058  1
  Ga  Ga15  1  0.01326208  0.73720724  0.75953157  1
  Pb  Pb0  1  0.24767025  0.24775495  0.75230899  1
  Pb  Pb1  1  0.25001531  0.24998176  0.25000445  1
  Pb  Pb2  1  0.99998597  0.00002085  -0.00000881  1
  Pb  Pb3  1  0.75228592  0.75233980  0.24769528  1
  Pb  Pb4  1  0.00233213  0.00224605  0.49768928  1
  Pb  Pb5  1  0.49772152  0.49765709  0.00229345  1
  Pb  Pb6  1  0.49997911  0.49998950  0.50008185  1
  Pb  Pb7  1  0.75002095  0.75001245  0.74991430  1
  Se  Se0  1  0.78111326  0.96951080  0.28181110  1
  Se  Se1  1  0.21041353  0.70819394  0.54006170  1
  Se  Se2  1  0.30792145  0.43932507  0.78048008  1
  Se  Se3  1  0.20795319  0.21130217  0.54160091  1
  Se  Se4  1  0.03918983  0.54150341  0.21131387  1
  Se  Se5  1  0.54124228  0.54017203  0.70821690  1
  Se  Se6  1  0.54177265  0.03966717  0.70837597  1
  Se  Se7  1  0.04204747  0.03870295  0.70839979  1
  Se  Se8  1  0.43943784  0.30814207  0.47225668  1
  Se  Se9  1  0.70875736  0.70983148  0.54179524  1
  Se  Se10  1  0.71027307  0.70836146  0.03993461  1
  Se  Se11  1  0.78040686  0.47225453  0.30810301  1
  Se  Se12  1  0.53972409  0.54165013  0.21005196  1
  Se  Se13  1  0.81055605  0.94185617  0.77774592  1
  Se  Se14  1  0.96962065  0.78153751  0.96731338  1
  Se  Se15  1  0.46889339  0.28049404  0.96818237  1
  Se  Se16  1  0.46960159  0.77774237  0.94188396  1
  Se  Se17  1  0.28038274  0.46846067  0.28268678  1
  Se  Se18  1  0.70907281  0.21017911  0.04195051  1
  Se  Se19  1  0.96843708  0.28261109  0.46862542  1
  Se  Se20  1  0.03957213  0.54182101  0.70993909  1
  Se  Se21  1  0.21126561  0.20799133  0.03993001  1
  Se  Se22  1  0.47218930  0.78034404  0.43930310  1
  Se  Se23  1  0.77781380  0.46965527  0.81069469  1
  Se  Se24  1  0.70821595  0.21033036  0.54164622  1
  Se  Se25  1  0.21079781  0.70851886  0.03870317  1
  Se  Se26  1  0.94208456  0.81064576  0.46953022  1
  Se  Se27  1  0.54092306  0.03983402  0.20804664  1
  Se  Se28  1  0.28156771  0.96739129  0.78137042  1
  Se  Se29  1  0.03873463  0.04199048  0.21007615  1
  Se  Se30  1  0.28242924  0.96804334  0.28054585  1
  Se  Se31  1  0.96757418  0.28193600  0.96945452  1
loop_
_geom_bond_atom_site_label_1
_geom_bond_atom_site_label_2
_geom_bond_distance
_geom_bond_site_symmetry_2
Ga0 Se28 2.386378 1_555
Ga0 Se9 2.429986 1_555
Ga0 Se16 2.435965 1_555
Ga0 Se5 2.436659 1_555
Ga1 Se22 2.385122 1_555
Ga1 Se7 2.427925 1_565
Ga1 Se28 2.434160 1_555
Ga1 Se3 2.434714 1_565
Ga2 Se17 2.386364 1_555
Ga2 Se1 2.430910 1_555
Ga2 Se20 2.436356 1_555
Ga2 Se8 2.437058 1_555
Ga3 Se16 2.385847 1_554
Ga3 Se21 2.426570 1_565
Ga3 Se30 2.433982 1_555
Ga3 Se29 2.435443 1_565
Ga4 Se30 2.385745 1_555
Ga4 Se12 2.430339 1_555
Ga4 Se22 2.436020 1_555
Ga4 Se10 2.436596 1_555
Ga5 Se2 2.385427 1_555
Ga5 Se25 2.429347 1_556
Ga5 Se4 2.434117 1_556
Ga5 Se14 2.435131 1_455
Ga6 Se13 2.385311 1_545
Ga6 Se27 2.428164 1_556
Ga6 Se18 2.434715 1_556
Ga6 Se15 2.435032 1_555
Ga7 Se19 2.386366 1_555
Ga7 Se5 2.430084 1_555
Ga7 Se11 2.435975 1_555
Ga7 Se9 2.436771 1_555
Ga8 Se26 2.385344 1_455
Ga8 Se4 2.429218 1_555
Ga8 Se25 2.433959 1_555
Ga8 Se17 2.435203 1_555
Ga9 Se8 2.385304 1_555
Ga9 Se18 2.428221 1_555
Ga9 Se27 2.434663 1_555
Ga9 Se0 2.435057 1_545
Ga10 Se23 2.385039 1_555
Ga10 Se3 2.427939 1_655
Ga10 Se19 2.434172 1_555
Ga10 Se7 2.434750 1_655
Ga11 Se0 2.385934 1_545
Ga11 Se6 2.429541 1_555
Ga11 Se24 2.437462 1_555
Ga11 Se26 2.437685 1_545
Ga12 Se15 2.385940 1_555
Ga12 Se24 2.429356 1_555
Ga12 Se6 2.437419 1_555
Ga12 Se2 2.437506 1_555
Ga13 Se31 2.385779 1_554
Ga13 Se10 2.430478 1_555
Ga13 Se23 2.436054 1_554
Ga13 Se12 2.436552 1_555
Ga14 Se11 2.385837 1_555
Ga14 Se29 2.426702 1_655
Ga14 Se31 2.434002 1_554
Ga14 Se21 2.435351 1_655
Ga15 Se14 2.386343 1_455
Ga15 Se20 2.430873 1_555
Ga15 Se1 2.436413 1_555
Ga15 Se13 2.437006 1_455
Pb0 Se31 3.195382 1_455
Pb0 Se28 3.201487 1_545
Pb0 Se3 3.223325 1_555
Pb0 Se2 3.224523 1_555
Pb0 Se8 3.227432 1_555
Pb0 Se21 3.233192 1_556
Pb0 Se6 3.264594 1_555
Pb0 Se20 3.267086 1_555
Pb1 Se17 3.222580 1_555
Pb1 Se19 3.222909 1_455
Pb1 Se15 3.227943 1_554
Pb1 Se30 3.229783 1_545
Pb1 Se21 3.237767 1_555
Pb1 Se27 3.238152 1_555
Pb1 Se4 3.246243 1_555
Pb1 Se3 3.247406 1_555
Pb2 Se14 3.222586 1_544
Pb2 Se28 3.222947 1_644
Pb2 Se0 3.227880 1_545
Pb2 Se31 3.229515 1_554
Pb2 Se29 3.237754 1_655
Pb2 Se18 3.238209 1_555
Pb2 Se25 3.246163 1_645
Pb2 Se7 3.247348 1_654
Pb3 Se0 3.196686 1_555
Pb3 Se14 3.201611 1_554
Pb3 Se4 3.223190 1_655
Pb3 Se22 3.226211 1_555
Pb3 Se11 3.226676 1_555
Pb3 Se27 3.230624 1_565
Pb3 Se10 3.261069 1_555
Pb3 Se9 3.268464 1_555
Pb4 Se30 3.195263 1_545
Pb4 Se19 3.201519 1_455
Pb4 Se7 3.223358 1_555
Pb4 Se26 3.224770 1_445
Pb4 Se13 3.227528 1_445
Pb4 Se29 3.233116 1_555
Pb4 Se24 3.264623 1_455
Pb4 Se1 3.266918 1_545
Pb5 Se15 3.196571 1_554
Pb5 Se17 3.201693 1_555
Pb5 Se25 3.223266 1_555
Pb5 Se23 3.226176 1_554
Pb5 Se16 3.226683 1_554
Pb5 Se18 3.230505 1_555
Pb5 Se12 3.261013 1_555
Pb5 Se5 3.268228 1_554
Pb6 Se8 3.229417 1_555
Pb6 Se11 3.231937 1_555
Pb6 Se22 3.232087 1_555
Pb6 Se2 3.233062 1_555
Pb6 Se5 3.233089 1_555
Pb6 Se1 3.233175 1_555
Pb6 Se24 3.235969 1_555
Pb6 Se12 3.241655 1_555
Pb7 Se13 3.229333 1_555
Pb7 Se16 3.231869 1_555
Pb7 Se23 3.232101 1_555
Pb7 Se26 3.232812 1_555
Pb7 Se9 3.232892 1_555
Pb7 Se20 3.233029 1_655
Pb7 Se6 3.235860 1_565
Pb7 Se10 3.241524 1_556
