# generated using pymatgen
data_Na3Fe2Mo5O16
_symmetry_space_group_name_H-M   'P 1'
_cell_length_a   6.12318186
_cell_length_b   6.12318186
_cell_length_c   21.48574200
_cell_angle_alpha   90.00000000
_cell_angle_beta   90.00000000
_cell_angle_gamma   119.99999847
_symmetry_Int_Tables_number   1
_chemical_formula_structural   Na3Fe2Mo5O16
_chemical_formula_sum   'Na6 Fe4 Mo10 O32'
_cell_volume   697.64632546
_cell_formula_units_Z   2
loop_
 _symmetry_equiv_pos_site_id
 _symmetry_equiv_pos_as_xyz
  1  'x, y, z'
loop_
 _atom_site_type_symbol
 _atom_site_label
 _atom_site_symmetry_multiplicity
 _atom_site_fract_x
 _atom_site_fract_y
 _atom_site_fract_z
 _atom_site_occupancy
  Na  Na0  1  0.33333300  0.66666700  0.61543100  1
  Na  Na1  1  0.66666700  0.33333300  0.38456900  1
  Na  Na2  1  0.00000000  0.00000000  0.00000000  1
  Na  Na3  1  0.66666700  0.33333300  0.88878300  1
  Na  Na4  1  0.33333300  0.66666700  0.11121700  1
  Na  Na5  1  0.00000000  0.00000000  0.50000000  1
  Fe  Fe0  1  0.00000000  0.00000000  0.35249900  1
  Fe  Fe1  1  0.00000000  0.00000000  0.84930800  1
  Fe  Fe2  1  0.00000000  0.00000000  0.64750100  1
  Fe  Fe3  1  0.00000000  0.00000000  0.15069200  1
  Mo  Mo0  1  0.66666700  0.33333300  0.56897000  1
  Mo  Mo1  1  0.99754200  0.49877100  0.24765400  1
  Mo  Mo2  1  0.33333300  0.66666700  0.43103000  1
  Mo  Mo3  1  0.49877100  0.50122900  0.75234600  1
  Mo  Mo4  1  0.50122900  0.49877100  0.24765400  1
  Mo  Mo5  1  0.49877100  0.99754200  0.75234600  1
  Mo  Mo6  1  0.66666700  0.33333300  0.07604100  1
  Mo  Mo7  1  0.00245800  0.50122900  0.75234600  1
  Mo  Mo8  1  0.50122900  0.00245800  0.24765400  1
  Mo  Mo9  1  0.33333300  0.66666700  0.92395900  1
  O  O0  1  0.33360100  0.16680100  0.59007000  1
  O  O1  1  0.66639900  0.83319900  0.40993000  1
  O  O2  1  0.32356400  0.16178200  0.09072500  1
  O  O3  1  0.16178200  0.32356400  0.90927500  1
  O  O4  1  0.65996600  0.82998300  0.19465900  1
  O  O5  1  0.17707200  0.82292800  0.70183700  1
  O  O6  1  0.83319900  0.66639900  0.59007000  1
  O  O7  1  0.33333300  0.66666700  0.51292900  1
  O  O8  1  0.83821800  0.16178200  0.09072500  1
  O  O9  1  0.16680100  0.33360100  0.40993000  1
  O  O10  1  0.17001700  0.34003400  0.19465900  1
  O  O11  1  0.67643600  0.83821800  0.90927500  1
  O  O12  1  0.66666700  0.33333300  0.19179000  1
  O  O13  1  0.82292800  0.17707200  0.29816300  1
  O  O14  1  0.82998300  0.17001700  0.80534100  1
  O  O15  1  0.66666700  0.33333300  0.48707100  1
  O  O16  1  0.33333300  0.66666700  0.80821000  1
  O  O17  1  0.17707200  0.35414400  0.70183700  1
  O  O18  1  0.83319900  0.16680100  0.59007000  1
  O  O19  1  0.33333300  0.66666700  0.29839800  1
  O  O20  1  0.17001700  0.82998300  0.19465900  1
  O  O21  1  0.33333300  0.66666700  0.00574800  1
  O  O22  1  0.82998300  0.65996600  0.80534100  1
  O  O23  1  0.66666700  0.33333300  0.70160200  1
  O  O24  1  0.35414400  0.17707200  0.29816300  1
  O  O25  1  0.64585600  0.82292800  0.70183700  1
  O  O26  1  0.82292800  0.64585600  0.29816300  1
  O  O27  1  0.16680100  0.83319900  0.40993000  1
  O  O28  1  0.16178200  0.83821800  0.90927500  1
  O  O29  1  0.34003400  0.17001700  0.80534100  1
  O  O30  1  0.66666700  0.33333300  0.99425200  1
  O  O31  1  0.83821800  0.67643600  0.09072500  1
loop_
_geom_bond_atom_site_label_1
_geom_bond_atom_site_label_2
_geom_bond_distance
_geom_bond_site_symmetry_2
Na0 O7 2.202332 1_555
Na0 O5 2.488587 1_555
Na0 O25 2.488590 1_555
Na0 O17 2.488590 1_555
Na1 O15 2.202332 1_555
Na1 O13 2.488587 1_555
Na1 O26 2.488590 1_555
Na1 O24 2.488590 1_555
Na2 O8 2.596870 1_455
Na2 O28 2.596870 1_544
Na2 O2 2.596870 1_555
Na2 O31 2.596870 1_445
Na2 O3 2.596870 1_554
Na2 O11 2.596870 1_444
Na3 O30 2.266080 1_555
Na3 O14 2.492842 1_555
Na3 O22 2.492846 1_555
Na3 O29 2.492846 1_555
Na4 O21 2.266080 1_555
Na4 O20 2.492842 1_555
Na4 O4 2.492846 1_555
Na4 O10 2.492846 1_555
Na5 O9 2.621936 1_555
Na5 O1 2.621936 1_445
Na5 O0 2.621936 1_555
Na5 O6 2.621936 1_445
Na5 O27 2.621939 1_545
Na5 O18 2.621939 1_455
Fe0 O9 2.156871 1_555
Fe0 O1 2.156871 1_445
Fe0 O27 2.156875 1_545
Fe0 O13 2.211265 1_455
Fe0 O24 2.211265 1_555
Fe0 O26 2.211265 1_445
Fe1 O14 2.035611 1_455
Fe1 O29 2.035611 1_555
Fe1 O22 2.035611 1_445
Fe1 O28 2.145706 1_545
Fe1 O3 2.145706 1_555
Fe1 O11 2.145706 1_445
Fe2 O6 2.156871 1_445
Fe2 O0 2.156871 1_555
Fe2 O18 2.156875 1_455
Fe2 O5 2.211265 1_545
Fe2 O17 2.211265 1_555
Fe2 O25 2.211265 1_445
Fe3 O20 2.035611 1_545
Fe3 O10 2.035611 1_555
Fe3 O4 2.035611 1_445
Fe3 O8 2.145706 1_455
Fe3 O2 2.145706 1_555
Fe3 O31 2.145706 1_445
Mo0 O15 1.759661 1_555
Mo0 O18 1.823438 1_555
Mo0 O6 1.823448 1_555
Mo0 O0 1.823448 1_555
Mo1 O26 2.023601 1_555
Mo1 O13 2.023601 1_555
Mo1 O19 2.087914 1_655
Mo1 O10 2.093578 1_655
Mo1 O20 2.093578 1_655
Mo1 O12 2.125841 1_555
Mo2 O7 1.759661 1_555
Mo2 O27 1.823438 1_555
Mo2 O9 1.823448 1_555
Mo2 O1 1.823448 1_555
Mo3 O17 2.023601 1_555
Mo3 O25 2.023601 1_555
Mo3 O23 2.087918 1_555
Mo3 O29 2.093578 1_555
Mo3 O22 2.093578 1_555
Mo3 O16 2.125846 1_555
Mo4 O24 2.023601 1_555
Mo4 O26 2.023601 1_555
Mo4 O19 2.087918 1_555
Mo4 O10 2.093578 1_555
Mo4 O4 2.093578 1_555
Mo4 O12 2.125846 1_555
Mo5 O25 2.023601 1_555
Mo5 O5 2.023601 1_555
Mo5 O23 2.087914 1_565
Mo5 O29 2.093578 1_565
Mo5 O14 2.093578 1_565
Mo5 O16 2.125841 1_555
Mo6 O30 1.757297 1_554
Mo6 O8 1.846564 1_555
Mo6 O31 1.846569 1_555
Mo6 O2 1.846569 1_555
Mo6 O12 2.486953 1_555
Mo7 O17 2.023601 1_555
Mo7 O5 2.023601 1_555
Mo7 O23 2.087914 1_455
Mo7 O22 2.093578 1_455
Mo7 O14 2.093578 1_455
Mo7 O16 2.125841 1_555
Mo8 O24 2.023601 1_555
Mo8 O13 2.023601 1_555
Mo8 O19 2.087914 1_545
Mo8 O4 2.093578 1_545
Mo8 O20 2.093578 1_545
Mo8 O12 2.125841 1_555
Mo9 O21 1.757297 1_556
Mo9 O28 1.846564 1_555
Mo9 O11 1.846569 1_555
Mo9 O3 1.846569 1_555
Mo9 O16 2.486953 1_555
