# generated using pymatgen
data_EuCu9Sn4
_symmetry_space_group_name_H-M   'P 1'
_cell_length_a   8.74233920
_cell_length_b   8.74233920
_cell_length_c   8.74233920
_cell_angle_alpha   120.54815517
_cell_angle_beta   120.54815517
_cell_angle_gamma   89.05316089
_symmetry_Int_Tables_number   1
_chemical_formula_structural   EuCu9Sn4
_chemical_formula_sum   'Eu2 Cu18 Sn8'
_cell_volume   468.47927579
_cell_formula_units_Z   2
loop_
 _symmetry_equiv_pos_site_id
 _symmetry_equiv_pos_as_xyz
  1  'x, y, z'
loop_
 _atom_site_type_symbol
 _atom_site_label
 _atom_site_symmetry_multiplicity
 _atom_site_fract_x
 _atom_site_fract_y
 _atom_site_fract_z
 _atom_site_occupancy
  Eu  Eu0  1  0.75000000  0.75000000  0.00000000  1
  Eu  Eu1  1  0.25000000  0.25000000  0.00000000  1
  Cu  Cu0  1  0.43438900  0.71789700  0.50000000  1
  Cu  Cu1  1  0.05491500  0.79874700  0.85366200  1
  Cu  Cu2  1  0.94508500  0.20125300  0.14633800  1
  Cu  Cu3  1  0.28210300  0.78210300  0.71649100  1
  Cu  Cu4  1  0.56561100  0.28210300  0.50000000  1
  Cu  Cu5  1  0.79874700  0.94508500  0.74383100  1
  Cu  Cu6  1  0.44508500  0.29874700  0.74383100  1
  Cu  Cu7  1  0.21789700  0.93438900  0.50000000  1
  Cu  Cu8  1  0.29874700  0.55491500  0.85366200  1
  Cu  Cu9  1  0.71789700  0.21789700  0.28350900  1
  Cu  Cu10  1  0.00000000  0.50000000  0.50000000  1
  Cu  Cu11  1  0.20125300  0.05491500  0.25616900  1
  Cu  Cu12  1  0.93438900  0.43438900  0.71649100  1
  Cu  Cu13  1  0.70125300  0.44508500  0.14633800  1
  Cu  Cu14  1  0.06561100  0.56561100  0.28350900  1
  Cu  Cu15  1  0.55491500  0.70125300  0.25616900  1
  Cu  Cu16  1  0.50000000  0.00000000  0.50000000  1
  Cu  Cu17  1  0.78210300  0.06561100  0.50000000  1
  Sn  Sn0  1  0.68795500  0.55904700  0.50000000  1
  Sn  Sn1  1  0.94095300  0.81204500  0.50000000  1
  Sn  Sn2  1  0.18795500  0.68795500  0.12890800  1
  Sn  Sn3  1  0.55904700  0.05904700  0.87109200  1
  Sn  Sn4  1  0.44095300  0.94095300  0.12890800  1
  Sn  Sn5  1  0.81204500  0.31204500  0.87109200  1
  Sn  Sn6  1  0.31204500  0.44095300  0.50000000  1
  Sn  Sn7  1  0.05904700  0.18795500  0.50000000  1
loop_
_geom_bond_atom_site_label_1
_geom_bond_atom_site_label_2
_geom_bond_distance
_geom_bond_site_symmetry_2
Eu0 Sn3 3.519971 1_564
Eu0 Sn2 3.519971 1_655
Eu0 Sn7 3.519971 1_665
Eu0 Sn4 3.519971 1_555
Eu0 Sn0 3.519971 1_554
Eu0 Sn1 3.519971 1_555
Eu0 Sn6 3.519971 1_554
Eu0 Sn5 3.519971 1_554
Eu1 Sn7 3.519971 1_554
Eu1 Sn5 3.519971 1_454
Eu1 Sn0 3.519971 1_555
Eu1 Sn1 3.519971 1_444
Eu1 Sn3 3.519971 1_554
Eu1 Sn2 3.519971 1_555
Eu1 Sn6 3.519971 1_555
Eu1 Sn4 3.519971 1_545
Cu0 Cu16 2.541280 1_565
Cu0 Sn0 2.596311 1_555
Cu0 Cu7 2.654399 1_555
Cu0 Sn6 2.662984 1_555
Cu0 Cu3 2.669526 1_555
Cu0 Cu14 2.669534 1_555
Cu0 Sn3 2.699156 1_565
Cu0 Sn2 2.699156 1_555
Cu0 Cu15 2.763727 1_555
Cu0 Cu5 2.763737 1_555
Cu0 Eu0 3.649294 1_556
Cu0 Eu1 3.649294 1_555
Cu1 Cu5 2.557769 1_455
Cu1 Cu11 2.557773 1_566
Cu1 Cu10 2.633473 1_555
Cu1 Sn4 2.751030 1_556
Cu1 Sn2 2.751030 1_556
Cu1 Cu12 2.763732 1_455
Cu1 Cu3 2.763742 1_555
Cu1 Sn1 2.792101 1_455
Cu1 Sn0 2.792101 1_455
Cu1 Eu1 3.603126 1_566
Cu1 Eu0 3.603126 1_456
Cu2 Cu5 2.557773 1_544
Cu2 Sn5 2.751030 1_554
Cu2 Sn3 2.751030 1_554
Cu2 Cu9 2.763742 1_555
Cu2 Sn6 2.792101 1_655
Cu2 Sn7 2.792101 1_655
Cu2 Eu0 3.603126 1_545
Cu2 Eu1 3.603126 1_655
Cu3 Sn4 2.596318 1_556
Cu3 Sn3 2.662980 1_565
Cu3 Cu7 2.669526 1_555
Cu3 Sn6 2.699155 1_555
Cu3 Sn1 2.699155 1_455
Cu3 Cu8 2.763742 1_555
Cu3 Eu0 3.649295 1_556
Cu3 Eu1 3.649295 1_566
Cu4 Sn6 2.596311 1_555
Cu4 Sn0 2.662984 1_555
Cu4 Cu9 2.669526 1_555
Cu4 Sn5 2.699156 1_555
Cu4 Sn4 2.699156 1_545
Cu4 Cu6 2.763727 1_555
Cu4 Eu1 3.649294 1_555
Cu4 Eu0 3.649294 1_556
Cu5 Sn1 2.751024 1_555
Cu5 Sn0 2.751031 1_555
Cu5 Sn5 2.792099 1_565
Cu5 Sn3 2.792106 1_565
Cu5 Eu1 3.603123 1_666
Cu5 Eu0 3.603134 1_556
Cu6 Cu8 2.557769 1_555
Cu6 Sn6 2.751024 1_555
Cu6 Sn7 2.751031 1_555
Cu6 Cu7 2.763737 1_545
Cu6 Sn5 2.792099 1_555
Cu6 Sn3 2.792106 1_555
Cu6 Eu0 3.603123 1_556
Cu6 Eu1 3.603134 1_556
Cu7 Sn7 2.596311 1_565
Cu7 Sn1 2.662984 1_455
Cu7 Sn2 2.699156 1_555
Cu7 Sn3 2.699156 1_565
Cu7 Eu1 3.649294 1_566
Cu7 Eu0 3.649294 1_455
Cu8 Sn4 2.751030 1_556
Cu8 Sn2 2.751030 1_556
Cu8 Sn6 2.792101 1_555
Cu8 Sn7 2.792101 1_555
Cu8 Eu1 3.603126 1_556
Cu8 Eu0 3.603126 1_556
Cu9 Sn3 2.596318 1_554
Cu9 Sn4 2.662980 1_545
Cu9 Sn7 2.699155 1_655
Cu9 Sn0 2.699155 1_555
Cu9 Eu0 3.649295 1_545
Cu9 Eu1 3.649295 1_555
Cu10 Cu14 2.541271 1_555
Cu10 Cu12 2.541271 1_455
Cu10 Cu3 2.541282 1_555
Cu10 Cu9 2.541282 1_455
Cu10 Cu13 2.633473 1_455
Cu10 Cu8 2.633473 1_555
Cu10 Cu2 2.633473 1_455
Cu10 Sn6 2.768020 1_555
Cu10 Sn0 2.768020 1_455
Cu10 Sn1 2.768020 1_455
Cu10 Sn7 2.768020 1_555
Cu11 Cu2 2.557769 1_455
Cu11 Cu16 2.633470 1_555
Cu11 Sn7 2.751024 1_555
Cu11 Sn6 2.751031 1_555
Cu11 Cu7 2.763727 1_545
Cu11 Cu4 2.763737 1_555
Cu11 Sn2 2.792099 1_545
Cu11 Sn4 2.792106 1_545
Cu11 Eu0 3.603123 1_445
Cu11 Eu1 3.603134 1_555
Cu12 Sn2 2.596315 1_656
Cu12 Cu9 2.654387 1_555
Cu12 Sn5 2.662992 1_555
Cu12 Cu4 2.669534 1_555
Cu12 Cu17 2.669534 1_555
Cu12 Sn7 2.699152 1_655
Cu12 Sn0 2.699152 1_555
Cu12 Cu8 2.763732 1_655
Cu12 Eu0 3.649298 1_556
Cu12 Eu1 3.649298 1_656
Cu13 Cu15 2.557769 1_555
Cu13 Cu6 2.557773 1_554
Cu13 Sn5 2.751030 1_554
Cu13 Sn3 2.751030 1_554
Cu13 Cu14 2.763732 1_655
Cu13 Cu9 2.763742 1_555
Cu13 Sn0 2.792101 1_555
Cu13 Sn1 2.792101 1_555
Cu13 Eu1 3.603126 1_555
Cu13 Eu0 3.603126 1_555
Cu14 Sn5 2.596315 1_454
Cu14 Cu3 2.654387 1_555
Cu14 Sn2 2.662992 1_555
Cu14 Cu7 2.669534 1_555
Cu14 Sn6 2.699152 1_555
Cu14 Sn1 2.699152 1_455
Cu14 Cu2 2.763732 1_455
Cu14 Eu1 3.649298 1_555
Cu14 Eu0 3.649298 1_455
Cu15 Cu8 2.557773 1_554
Cu15 Cu16 2.633470 1_565
Cu15 Sn0 2.751024 1_555
Cu15 Sn1 2.751031 1_555
Cu15 Cu17 2.763737 1_565
Cu15 Sn2 2.792099 1_555
Cu15 Sn4 2.792106 1_555
Cu15 Eu1 3.603123 1_555
Cu15 Eu0 3.603134 1_555
Cu16 Cu17 2.541280 1_555
Cu16 Cu4 2.541280 1_555
Cu16 Cu7 2.541280 1_545
Cu16 Cu5 2.633470 1_545
Cu16 Cu6 2.633470 1_555
Cu16 Sn4 2.768020 1_545
Cu16 Sn5 2.768020 1_555
Cu16 Sn2 2.768020 1_545
Cu16 Sn3 2.768020 1_555
Cu17 Sn1 2.596311 1_545
Cu17 Cu4 2.654399 1_555
Cu17 Sn7 2.662984 1_655
Cu17 Cu9 2.669526 1_555
Cu17 Sn5 2.699156 1_555
Cu17 Sn4 2.699156 1_545
Cu17 Cu5 2.763727 1_545
Cu17 Eu0 3.649294 1_545
Cu17 Eu1 3.649294 1_656
