# generated using pymatgen
data_CsLu2Cu3Se5
_symmetry_space_group_name_H-M   'P 1'
_cell_length_a   7.55569395
_cell_length_b   7.55569395
_cell_length_c   17.08247191
_cell_angle_alpha   90.00000000
_cell_angle_beta   90.00000000
_cell_angle_gamma   148.79849579
_symmetry_Int_Tables_number   1
_chemical_formula_structural   CsLu2Cu3Se5
_chemical_formula_sum   'Cs2 Lu4 Cu6 Se10'
_cell_volume   505.20851505
_cell_formula_units_Z   2
loop_
 _symmetry_equiv_pos_site_id
 _symmetry_equiv_pos_as_xyz
  1  'x, y, z'
loop_
 _atom_site_type_symbol
 _atom_site_label
 _atom_site_symmetry_multiplicity
 _atom_site_fract_x
 _atom_site_fract_y
 _atom_site_fract_z
 _atom_site_occupancy
  Cs  Cs0  1  0.06100478  0.93899522  0.75000000  1
  Cs  Cs1  1  0.93899522  0.06100478  0.25000000  1
  Lu  Lu0  1  0.19323287  0.80676713  0.40775677  1
  Lu  Lu1  1  0.19323287  0.80676713  0.09224323  1
  Lu  Lu2  1  0.80676713  0.19323287  0.59224323  1
  Lu  Lu3  1  0.80676713  0.19323287  0.90775677  1
  Cu  Cu0  1  0.65555532  0.34444468  0.25000000  1
  Cu  Cu1  1  0.58089958  0.41910042  0.96720511  1
  Cu  Cu2  1  0.41910042  0.58089958  0.03279489  1
  Cu  Cu3  1  0.34444468  0.65555532  0.75000000  1
  Cu  Cu4  1  0.41910042  0.58089958  0.46720511  1
  Cu  Cu5  1  0.58089958  0.41910042  0.53279489  1
  Se  Se0  1  0.23811415  0.76188585  0.25000000  1
  Se  Se1  1  0.82990789  0.17009211  0.06853190  1
  Se  Se2  1  0.76188585  0.23811415  0.75000000  1
  Se  Se3  1  0.17009211  0.82990789  0.56853190  1
  Se  Se4  1  0.17009211  0.82990789  0.93146810  1
  Se  Se5  1  0.43567970  0.56432030  0.88770265  1
  Se  Se6  1  0.56432030  0.43567970  0.11229735  1
  Se  Se7  1  0.43567970  0.56432030  0.61229735  1
  Se  Se8  1  0.56432030  0.43567970  0.38770265  1
  Se  Se9  1  0.82990789  0.17009211  0.43146810  1
loop_
_geom_bond_atom_site_label_1
_geom_bond_atom_site_label_2
_geom_bond_distance
_geom_bond_site_symmetry_2
Cs0 Se4 3.482874 1_555
Cs0 Se3 3.482874 1_555
Cs0 Se2 3.560515 1_455
Cs0 Se2 3.560515 1_565
Cs0 Se7 3.604087 1_565
Cs0 Se5 3.604087 1_565
Cs0 Se7 3.604087 1_455
Cs0 Se5 3.604087 1_455
Cs0 Cu3 3.750169 1_565
Cs0 Cu3 3.750169 1_455
Cs1 Se9 3.482874 1_555
Cs1 Se1 3.482874 1_555
Cs1 Se0 3.560515 1_545
Cs1 Se0 3.560515 1_655
Cs1 Se8 3.604087 1_655
Cs1 Se6 3.604087 1_655
Cs1 Se8 3.604087 1_545
Cs1 Se6 3.604087 1_545
Cs1 Cu0 3.750169 1_655
Cs1 Cu0 3.750169 1_545
Lu0 Se3 2.767011 1_555
Lu0 Se0 2.772917 1_555
Lu0 Se8 2.786878 1_455
Lu0 Se8 2.786878 1_565
Lu0 Se9 2.872303 1_565
Lu0 Se9 2.872303 1_455
Lu1 Se4 2.767011 1_554
Lu1 Se0 2.772917 1_555
Lu1 Se6 2.786878 1_455
Lu1 Se6 2.786878 1_565
Lu1 Se1 2.872303 1_455
Lu1 Se1 2.872303 1_565
Lu2 Se9 2.767011 1_555
Lu2 Se2 2.772917 1_555
Lu2 Se7 2.786878 1_545
Lu2 Se7 2.786878 1_655
Lu2 Se3 2.872303 1_545
Lu2 Se3 2.872303 1_655
Lu3 Se1 2.767011 1_556
Lu3 Se2 2.772917 1_555
Lu3 Se5 2.786878 1_545
Lu3 Se5 2.786878 1_655
Lu3 Se4 2.872303 1_545
Lu3 Se4 2.872303 1_655
Cu0 Se0 2.360676 1_655
Cu0 Se0 2.360676 1_545
Cu0 Se8 2.701227 1_555
Cu0 Se6 2.701227 1_555
Cu1 Se4 2.487334 1_655
Cu1 Se4 2.487334 1_545
Cu1 Se6 2.490253 1_556
Cu1 Se5 2.512340 1_555
Cu2 Se1 2.487334 1_565
Cu2 Se1 2.487334 1_455
Cu2 Se5 2.490253 1_554
Cu2 Se6 2.512340 1_555
Cu3 Se2 2.360676 1_565
Cu3 Se2 2.360676 1_455
Cu3 Se5 2.701227 1_555
Cu3 Se7 2.701227 1_555
Cu4 Se9 2.487334 1_565
Cu4 Se9 2.487334 1_455
Cu4 Se7 2.490253 1_555
Cu4 Se8 2.512340 1_555
Cu5 Se3 2.487334 1_545
Cu5 Se3 2.487334 1_655
Cu5 Se8 2.490253 1_555
Cu5 Se7 2.512340 1_555
