# generated using pymatgen
data_Y3Ni2
_symmetry_space_group_name_H-M   'P 1'
_cell_length_a   7.07096300
_cell_length_b   7.07096300
_cell_length_c   36.69076600
_cell_angle_alpha   90.00000000
_cell_angle_beta   90.00000000
_cell_angle_gamma   90.00000000
_symmetry_Int_Tables_number   1
_chemical_formula_structural   Y3Ni2
_chemical_formula_sum   'Y48 Ni32'
_cell_volume   1834.48391502
_cell_formula_units_Z   16
loop_
 _symmetry_equiv_pos_site_id
 _symmetry_equiv_pos_as_xyz
  1  'x, y, z'
loop_
 _atom_site_type_symbol
 _atom_site_label
 _atom_site_symmetry_multiplicity
 _atom_site_fract_x
 _atom_site_fract_y
 _atom_site_fract_z
 _atom_site_occupancy
  Y  Y0  1  0.83632300  0.98888600  0.41068600  1
  Y  Y1  1  0.93939000  0.69200400  0.76445000  1
  Y  Y2  1  0.84024400  0.66428200  0.31861300  1
  Y  Y3  1  0.81835800  0.18164200  0.75000000  1
  Y  Y4  1  0.53474800  0.46525200  0.25000000  1
  Y  Y5  1  0.70887200  0.48486300  0.40738300  1
  Y  Y6  1  0.83571800  0.34024400  0.56861300  1
  Y  Y7  1  0.68164200  0.68164200  0.50000000  1
  Y  Y8  1  0.48888600  0.66367700  0.16068600  1
  Y  Y9  1  0.65975600  0.16428200  0.93138700  1
  Y  Y10  1  0.98888600  0.83632300  0.58931400  1
  Y  Y11  1  0.30650000  0.85690400  0.82579700  1
  Y  Y12  1  0.33632300  0.51111400  0.33931400  1
  Y  Y13  1  0.66428200  0.84024400  0.68138700  1
  Y  Y14  1  0.20887200  0.01513700  0.34261700  1
  Y  Y15  1  0.69200400  0.93939000  0.23555000  1
  Y  Y16  1  0.66367700  0.48888600  0.83931400  1
  Y  Y17  1  0.14309600  0.69350000  0.67420300  1
  Y  Y18  1  0.16428200  0.65975600  0.06861300  1
  Y  Y19  1  0.46525200  0.53474800  0.75000000  1
  Y  Y20  1  0.80650000  0.64309600  0.92420300  1
  Y  Y21  1  0.51513700  0.29112800  0.09261700  1
  Y  Y22  1  0.16367700  0.01111400  0.91068600  1
  Y  Y23  1  0.80799600  0.43939000  0.01445000  1
  Y  Y24  1  0.96525200  0.96525200  0.00000000  1
  Y  Y25  1  0.01513700  0.20887200  0.65738300  1
  Y  Y26  1  0.35690400  0.19350000  0.57579700  1
  Y  Y27  1  0.15975600  0.33571800  0.81861300  1
  Y  Y28  1  0.31835800  0.31835800  0.00000000  1
  Y  Y29  1  0.06061000  0.30799600  0.26445000  1
  Y  Y30  1  0.34024400  0.83571800  0.43138700  1
  Y  Y31  1  0.18164200  0.81835800  0.25000000  1
  Y  Y32  1  0.03474800  0.03474800  0.50000000  1
  Y  Y33  1  0.30799600  0.06061000  0.73555000  1
  Y  Y34  1  0.69350000  0.14309600  0.32579700  1
  Y  Y35  1  0.33571800  0.15975600  0.18138700  1
  Y  Y36  1  0.43939000  0.80799600  0.98555000  1
  Y  Y37  1  0.48486300  0.70887200  0.59261700  1
  Y  Y38  1  0.56061000  0.19200400  0.48555000  1
  Y  Y39  1  0.19200400  0.56061000  0.51445000  1
  Y  Y40  1  0.64309600  0.80650000  0.07579700  1
  Y  Y41  1  0.01111400  0.16367700  0.08931400  1
  Y  Y42  1  0.51111400  0.33632300  0.66068600  1
  Y  Y43  1  0.98486300  0.79112800  0.15738300  1
  Y  Y44  1  0.29112800  0.51513700  0.90738300  1
  Y  Y45  1  0.79112800  0.98486300  0.84261700  1
  Y  Y46  1  0.19350000  0.35690400  0.42420300  1
  Y  Y47  1  0.85690400  0.30650000  0.17420300  1
  Ni  Ni0  1  0.01173400  0.65353400  0.85588200  1
  Ni  Ni1  1  0.10289700  0.62580800  0.97631800  1
  Ni  Ni2  1  0.12580800  0.39710300  0.72631800  1
  Ni  Ni3  1  0.15353400  0.48826600  0.60588200  1
  Ni  Ni4  1  0.51138400  0.19083800  0.79866100  1
  Ni  Ni5  1  0.98861600  0.69083800  0.45133900  1
  Ni  Ni6  1  0.48826600  0.15353400  0.39411800  1
  Ni  Ni7  1  0.01138400  0.30916200  0.95133900  1
  Ni  Ni8  1  0.62580800  0.10289700  0.02368200  1
  Ni  Ni9  1  0.51173400  0.84646600  0.89411800  1
  Ni  Ni10  1  0.98826600  0.34646600  0.35588200  1
  Ni  Ni11  1  0.19083800  0.51138400  0.20133900  1
  Ni  Ni12  1  0.80916200  0.48861600  0.70133900  1
  Ni  Ni13  1  0.65353400  0.01173400  0.14411800  1
  Ni  Ni14  1  0.94518600  0.31914900  0.88399300  1
  Ni  Ni15  1  0.39710300  0.12580800  0.27368200  1
  Ni  Ni16  1  0.48861600  0.80916200  0.29866100  1
  Ni  Ni17  1  0.05481400  0.68085100  0.38399300  1
  Ni  Ni18  1  0.89710300  0.37419200  0.47631800  1
  Ni  Ni19  1  0.69083800  0.98861600  0.54866100  1
  Ni  Ni20  1  0.60289700  0.87419200  0.77368200  1
  Ni  Ni21  1  0.34646600  0.98826600  0.64411800  1
  Ni  Ni22  1  0.81914900  0.55481400  0.63399300  1
  Ni  Ni23  1  0.31914900  0.94518600  0.11600700  1
  Ni  Ni24  1  0.68085100  0.05481400  0.61600700  1
  Ni  Ni25  1  0.37419200  0.89710300  0.52368200  1
  Ni  Ni26  1  0.55481400  0.81914900  0.36600700  1
  Ni  Ni27  1  0.18085100  0.44518600  0.13399300  1
  Ni  Ni28  1  0.30916200  0.01138400  0.04866100  1
  Ni  Ni29  1  0.44518600  0.18085100  0.86600700  1
  Ni  Ni30  1  0.87419200  0.60289700  0.22631800  1
  Ni  Ni31  1  0.84646600  0.51173400  0.10588200  1
loop_
_geom_bond_atom_site_label_1
_geom_bond_atom_site_label_2
_geom_bond_distance
_geom_bond_site_symmetry_2
Ni0 Ni14 2.622163 1_455
Ni0 Y11 2.762353 1_555
Ni0 Y16 2.789614 1_455
Ni0 Y27 2.831175 1_555
Ni0 Y45 2.856386 1_455
Ni0 Y20 2.897452 1_455
Ni0 Y44 2.903657 1_555
Ni0 Y1 3.404372 1_455
Ni0 Y22 3.404497 1_565
Ni1 Ni7 2.504351 1_555
Ni1 Y36 2.726815 1_555
Ni1 Y24 2.731891 1_456
Ni1 Y28 2.793250 1_556
Ni1 Y23 2.836052 1_456
Ni1 Y20 2.839656 1_455
Ni1 Y44 2.963296 1_555
Ni1 Y18 3.422507 1_556
Ni1 Y22 3.661476 1_565
Ni2 Y33 2.726815 1_555
Ni2 Y19 2.731891 1_555
Ni2 Y3 2.793250 1_455
Ni2 Y1 2.836052 1_455
Ni2 Y17 2.839656 1_555
Ni2 Y25 2.963296 1_555
Ni2 Y27 3.422507 1_555
Ni2 Y42 3.661476 1_555
Ni3 Y26 2.762353 1_555
Ni3 Y10 2.789614 1_455
Ni3 Y6 2.831175 1_455
Ni3 Y37 2.856386 1_555
Ni3 Y17 2.897452 1_555
Ni3 Y25 2.903657 1_555
Ni3 Y39 3.404372 1_555
Ni3 Y42 3.404497 1_555
Ni4 Y27 2.786990 1_555
Ni4 Y16 2.797492 1_555
Ni4 Y3 2.811303 1_555
Ni4 Y33 2.877182 1_555
Ni4 Y45 2.938537 1_545
Ni4 Y11 2.943729 1_545
Ni4 Y19 3.034406 1_555
Ni5 Y30 2.786990 1_655
Ni5 Y0 2.797492 1_555
Ni5 Y7 2.811303 1_555
Ni5 Y39 2.877182 1_655
Ni5 Y5 2.938537 1_555
Ni5 Y46 2.943729 1_655
Ni5 Y32 3.034406 1_665
Ni6 Y46 2.762353 1_555
Ni6 Y0 2.789614 1_545
Ni6 Y30 2.831175 1_545
Ni6 Y5 2.856386 1_555
Ni6 Y34 2.897452 1_555
Ni6 Y14 2.903657 1_555
Ni6 Y38 3.404372 1_555
Ni6 Y12 3.404497 1_555
Ni7 Y9 2.786990 1_455
Ni7 Y22 2.797492 1_555
Ni7 Y28 2.811303 1_556
Ni7 Y23 2.877182 1_456
Ni7 Y44 2.938537 1_555
Ni7 Y20 2.943729 1_455
Ni7 Y24 3.034406 1_446
Ni8 Y23 2.726815 1_555
Ni8 Y24 2.731891 1_545
Ni8 Y28 2.793250 1_555
Ni8 Y36 2.836052 1_544
Ni8 Y40 2.839656 1_545
Ni8 Y21 2.963296 1_555
Ni8 Y9 3.422507 1_554
Ni8 Y41 3.661476 1_655
Ni9 Y20 2.762353 1_555
Ni9 Y22 2.789614 1_565
Ni9 Y9 2.831175 1_565
Ni9 Y44 2.856386 1_555
Ni9 Y11 2.897452 1_555
Ni9 Y45 2.903657 1_555
Ni9 Y36 3.404372 1_555
Ni9 Y16 3.404497 1_555
Ni10 Ni17 2.622163 1_655
Ni10 Y34 2.762353 1_555
Ni10 Y12 2.789614 1_655
Ni10 Y2 2.831175 1_555
Ni10 Y14 2.856386 1_655
Ni10 Y46 2.897452 1_655
Ni10 Y5 2.903657 1_555
Ni10 Y29 3.404372 1_655
Ni10 Y0 3.404497 1_545
Ni11 Ni30 2.504351 1_455
Ni11 Ni27 2.515912 1_555
Ni11 Y35 2.786990 1_555
Ni11 Y8 2.797492 1_555
Ni11 Y31 2.811303 1_555
Ni11 Y29 2.877182 1_555
Ni11 Y43 2.938537 1_455
Ni11 Y47 2.943729 1_455
Ni11 Y4 3.034406 1_555
Ni12 Ni2 2.504351 1_655
Ni12 Ni22 2.515912 1_555
Ni12 Y13 2.786990 1_555
Ni12 Y42 2.797492 1_555
Ni12 Y3 2.811303 1_555
Ni12 Y1 2.877182 1_555
Ni12 Y25 2.938537 1_655
Ni12 Y17 2.943729 1_655
Ni12 Y19 3.034406 1_555
Ni13 Ni23 2.622163 1_545
Ni13 Y47 2.762353 1_555
Ni13 Y8 2.789614 1_545
Ni13 Y35 2.831175 1_555
Ni13 Y43 2.856386 1_545
Ni13 Y40 2.897452 1_545
Ni13 Y21 2.903657 1_555
Ni13 Y15 3.404372 1_545
Ni13 Y41 3.404497 1_655
Ni14 Ni7 2.515912 1_655
Ni14 Y27 2.840795 1_655
Ni14 Y16 2.844304 1_555
Ni14 Y22 2.844324 1_655
Ni14 Y9 2.880347 1_555
Ni14 Y20 2.895722 1_555
Ni14 Y44 2.939494 1_655
Ni14 Y45 3.013060 1_545
Ni15 Ni16 2.504351 1_545
Ni15 Y29 2.726815 1_555
Ni15 Y4 2.731891 1_555
Ni15 Y31 2.793250 1_545
Ni15 Y15 2.836052 1_545
Ni15 Y34 2.839656 1_555
Ni15 Y14 2.963296 1_555
Ni15 Y35 3.422507 1_555
Ni15 Y12 3.661476 1_555
Ni16 Ni26 2.515912 1_555
Ni16 Y2 2.786990 1_555
Ni16 Y12 2.797492 1_555
Ni16 Y31 2.811303 1_555
Ni16 Y15 2.877182 1_555
Ni16 Y14 2.938537 1_565
Ni16 Y34 2.943729 1_565
Ni16 Y4 3.034406 1_555
Ni17 Ni5 2.515912 1_455
Ni17 Y2 2.840795 1_455
Ni17 Y12 2.844304 1_555
Ni17 Y0 2.844324 1_455
Ni17 Y30 2.880347 1_555
Ni17 Y46 2.895722 1_555
Ni17 Y5 2.939494 1_455
Ni17 Y14 3.013060 1_565
Ni18 Ni5 2.504351 1_555
Ni18 Y38 2.726815 1_555
Ni18 Y32 2.731891 1_655
Ni18 Y7 2.793250 1_555
Ni18 Y39 2.836052 1_655
Ni18 Y46 2.839656 1_655
Ni18 Y5 2.963296 1_555
Ni18 Y6 3.422507 1_555
Ni18 Y0 3.661476 1_545
Ni19 Ni25 2.504351 1_555
Ni19 Ni24 2.515912 1_565
Ni19 Y6 2.786990 1_565
Ni19 Y10 2.797492 1_555
Ni19 Y7 2.811303 1_555
Ni19 Y38 2.877182 1_565
Ni19 Y37 2.938537 1_555
Ni19 Y26 2.943729 1_565
Ni19 Y32 3.034406 1_665
Ni20 Ni4 2.504351 1_565
Ni20 Y1 2.726815 1_555
Ni20 Y19 2.731891 1_555
Ni20 Y3 2.793250 1_565
Ni20 Y33 2.836052 1_565
Ni20 Y11 2.839656 1_555
Ni20 Y45 2.963296 1_555
Ni20 Y13 3.422507 1_555
Ni20 Y16 3.661476 1_555
Ni21 Ni24 2.622163 1_565
Ni21 Y17 2.762353 1_555
Ni21 Y42 2.789614 1_565
Ni21 Y13 2.831175 1_555
Ni21 Y25 2.856386 1_565
Ni21 Y26 2.897452 1_565
Ni21 Y37 2.903657 1_555
Ni21 Y33 3.404372 1_565
Ni21 Y10 3.404497 1_455
Ni22 Ni3 2.622163 1_655
Ni22 Y6 2.840795 1_555
Ni22 Y10 2.844304 1_555
Ni22 Y42 2.844324 1_555
Ni22 Y13 2.880347 1_555
Ni22 Y17 2.895722 1_655
Ni22 Y25 2.939494 1_655
Ni22 Y37 3.013060 1_555
Ni23 Ni28 2.515912 1_565
Ni23 Y35 2.840795 1_565
Ni23 Y8 2.844304 1_555
Ni23 Y41 2.844324 1_565
Ni23 Y18 2.880347 1_555
Ni23 Y40 2.895722 1_555
Ni23 Y21 2.939494 1_565
Ni23 Y43 3.013060 1_455
Ni24 Y13 2.840795 1_545
Ni24 Y42 2.844304 1_555
Ni24 Y10 2.844324 1_545
Ni24 Y6 2.880347 1_555
Ni24 Y26 2.895722 1_555
Ni24 Y37 2.939494 1_545
Ni24 Y25 3.013060 1_655
Ni25 Y39 2.726815 1_555
Ni25 Y32 2.731891 1_565
Ni25 Y7 2.793250 1_555
Ni25 Y38 2.836052 1_565
Ni25 Y26 2.839656 1_565
Ni25 Y37 2.963296 1_555
Ni25 Y30 3.422507 1_555
Ni25 Y10 3.661476 1_455
Ni26 Ni6 2.622163 1_565
Ni26 Y30 2.840795 1_555
Ni26 Y0 2.844304 1_555
Ni26 Y12 2.844324 1_555
Ni26 Y2 2.880347 1_555
Ni26 Y34 2.895722 1_565
Ni26 Y14 2.939494 1_565
Ni26 Y5 3.013060 1_555
Ni27 Ni31 2.622163 1_455
Ni27 Y18 2.840795 1_555
Ni27 Y41 2.844304 1_555
Ni27 Y8 2.844324 1_555
Ni27 Y35 2.880347 1_555
Ni27 Y47 2.895722 1_455
Ni27 Y43 2.939494 1_455
Ni27 Y21 3.013060 1_555
Ni28 Ni8 2.504351 1_555
Ni28 Y18 2.786990 1_545
Ni28 Y41 2.797492 1_555
Ni28 Y28 2.811303 1_555
Ni28 Y36 2.877182 1_544
Ni28 Y21 2.938537 1_555
Ni28 Y40 2.943729 1_545
Ni28 Y24 3.034406 1_445
Ni29 Ni4 2.515912 1_555
Ni29 Ni9 2.622163 1_545
Ni29 Y9 2.840795 1_555
Ni29 Y22 2.844304 1_555
Ni29 Y16 2.844324 1_555
Ni29 Y27 2.880347 1_555
Ni29 Y11 2.895722 1_545
Ni29 Y45 2.939494 1_545
Ni29 Y44 3.013060 1_555
Ni30 Y15 2.726815 1_555
Ni30 Y4 2.731891 1_555
Ni30 Y31 2.793250 1_655
Ni30 Y29 2.836052 1_655
Ni30 Y47 2.839656 1_555
Ni30 Y43 2.963296 1_555
Ni30 Y2 3.422507 1_555
Ni30 Y8 3.661476 1_555
Ni31 Y40 2.762353 1_555
Ni31 Y41 2.789614 1_655
Ni31 Y18 2.831175 1_655
Ni31 Y21 2.856386 1_555
Ni31 Y47 2.897452 1_555
Ni31 Y43 2.903657 1_555
Ni31 Y23 3.404372 1_555
Ni31 Y8 3.404497 1_555
