# generated using pymatgen
data_KMo3Br7
_symmetry_space_group_name_H-M   'P 1'
_cell_length_a   14.12848200
_cell_length_b   14.35291600
_cell_length_c   14.39333700
_cell_angle_alpha   90.00000000
_cell_angle_beta   90.00000000
_cell_angle_gamma   90.00000000
_symmetry_Int_Tables_number   1
_chemical_formula_structural   KMo3Br7
_chemical_formula_sum   'K8 Mo24 Br56'
_cell_volume   2918.75162520
_cell_formula_units_Z   8
loop_
 _symmetry_equiv_pos_site_id
 _symmetry_equiv_pos_as_xyz
  1  'x, y, z'
loop_
 _atom_site_type_symbol
 _atom_site_label
 _atom_site_symmetry_multiplicity
 _atom_site_fract_x
 _atom_site_fract_y
 _atom_site_fract_z
 _atom_site_occupancy
  K  K0  1  0.50000000  0.00000000  0.00000000  1
  K  K1  1  0.00000000  0.50000000  0.00000000  1
  K  K2  1  0.75000000  0.25000000  0.25000000  1
  K  K3  1  0.25000000  0.75000000  0.25000000  1
  K  K4  1  0.50000000  0.50000000  0.50000000  1
  K  K5  1  0.00000000  0.00000000  0.50000000  1
  K  K6  1  0.75000000  0.25000000  0.75000000  1
  K  K7  1  0.25000000  0.75000000  0.75000000  1
  Mo  Mo0  1  0.62259000  0.54083200  0.02996300  1
  Mo  Mo1  1  0.87741000  0.95916800  0.02996300  1
  Mo  Mo2  1  0.53058000  0.37951000  0.04123000  1
  Mo  Mo3  1  0.96942000  0.12049000  0.04123000  1
  Mo  Mo4  1  0.45862500  0.53154200  0.11995100  1
  Mo  Mo5  1  0.04137500  0.96845800  0.11995100  1
  Mo  Mo6  1  0.45862500  0.96845800  0.38004900  1
  Mo  Mo7  1  0.04137500  0.53154200  0.38004900  1
  Mo  Mo8  1  0.53058000  0.12049000  0.45877000  1
  Mo  Mo9  1  0.96942000  0.37951000  0.45877000  1
  Mo  Mo10  1  0.87741000  0.54083200  0.47003700  1
  Mo  Mo11  1  0.62259000  0.95916800  0.47003700  1
  Mo  Mo12  1  0.37741000  0.04083200  0.52996300  1
  Mo  Mo13  1  0.12259000  0.45916800  0.52996300  1
  Mo  Mo14  1  0.03058000  0.62049000  0.54123000  1
  Mo  Mo15  1  0.46942000  0.87951000  0.54123000  1
  Mo  Mo16  1  0.95862500  0.46845800  0.61995100  1
  Mo  Mo17  1  0.54137500  0.03154200  0.61995100  1
  Mo  Mo18  1  0.95862500  0.03154200  0.88004900  1
  Mo  Mo19  1  0.54137500  0.46845800  0.88004900  1
  Mo  Mo20  1  0.46942000  0.62049000  0.95877000  1
  Mo  Mo21  1  0.03058000  0.87951000  0.95877000  1
  Mo  Mo22  1  0.12259000  0.04083200  0.97003700  1
  Mo  Mo23  1  0.37741000  0.45916800  0.97003700  1
  Br  Br0  1  0.19258200  0.88967000  0.04753500  1
  Br  Br1  1  0.30741800  0.61033000  0.04753500  1
  Br  Br2  1  0.79358500  0.59435400  0.07297600  1
  Br  Br3  1  0.70641500  0.90564600  0.07297600  1
  Br  Br4  1  0.57693000  0.20904900  0.09685000  1
  Br  Br5  1  0.92307000  0.29095100  0.09685000  1
  Br  Br6  1  0.55049900  0.68997200  0.10744800  1
  Br  Br7  1  0.94950100  0.81002800  0.10744800  1
  Br  Br8  1  0.36861800  0.37133000  0.13013900  1
  Br  Br9  1  0.13138200  0.12867000  0.13013900  1
  Br  Br10  1  0.88964300  0.04672600  0.19008000  1
  Br  Br11  1  0.61035700  0.45327400  0.19008000  1
  Br  Br12  1  0.09732900  0.57710900  0.21000600  1
  Br  Br13  1  0.40267100  0.92289100  0.21000600  1
  Br  Br14  1  0.40267100  0.57710900  0.28999400  1
  Br  Br15  1  0.09732900  0.92289100  0.28999400  1
  Br  Br16  1  0.61035700  0.04672600  0.30992000  1
  Br  Br17  1  0.88964300  0.45327400  0.30992000  1
  Br  Br18  1  0.36861800  0.12867000  0.36986100  1
  Br  Br19  1  0.13138200  0.37133000  0.36986100  1
  Br  Br20  1  0.94950100  0.68997200  0.39255200  1
  Br  Br21  1  0.55049900  0.81002800  0.39255200  1
  Br  Br22  1  0.92307000  0.20904900  0.40315000  1
  Br  Br23  1  0.57693000  0.29095100  0.40315000  1
  Br  Br24  1  0.70641500  0.59435400  0.42702400  1
  Br  Br25  1  0.79358500  0.90564600  0.42702400  1
  Br  Br26  1  0.30741800  0.88967000  0.45246500  1
  Br  Br27  1  0.19258200  0.61033000  0.45246500  1
  Br  Br28  1  0.80741800  0.38967000  0.54753500  1
  Br  Br29  1  0.69258200  0.11033000  0.54753500  1
  Br  Br30  1  0.20641500  0.09435400  0.57297600  1
  Br  Br31  1  0.29358500  0.40564600  0.57297600  1
  Br  Br32  1  0.42307000  0.70904900  0.59685000  1
  Br  Br33  1  0.07693000  0.79095100  0.59685000  1
  Br  Br34  1  0.44950100  0.18997200  0.60744800  1
  Br  Br35  1  0.05049900  0.31002800  0.60744800  1
  Br  Br36  1  0.86861800  0.62867000  0.63013900  1
  Br  Br37  1  0.63138200  0.87133000  0.63013900  1
  Br  Br38  1  0.11035700  0.54672600  0.69008000  1
  Br  Br39  1  0.38964300  0.95327400  0.69008000  1
  Br  Br40  1  0.90267100  0.07710900  0.71000600  1
  Br  Br41  1  0.59732900  0.42289100  0.71000600  1
  Br  Br42  1  0.59732900  0.07710900  0.78999400  1
  Br  Br43  1  0.90267100  0.42289100  0.78999400  1
  Br  Br44  1  0.38964300  0.54672600  0.80992000  1
  Br  Br45  1  0.11035700  0.95327400  0.80992000  1
  Br  Br46  1  0.86861800  0.87133000  0.86986100  1
  Br  Br47  1  0.63138200  0.62867000  0.86986100  1
  Br  Br48  1  0.05049900  0.18997200  0.89255200  1
  Br  Br49  1  0.44950100  0.31002800  0.89255200  1
  Br  Br50  1  0.07693000  0.70904900  0.90315000  1
  Br  Br51  1  0.42307000  0.79095100  0.90315000  1
  Br  Br52  1  0.29358500  0.09435400  0.92702400  1
  Br  Br53  1  0.20641500  0.40564600  0.92702400  1
  Br  Br54  1  0.69258200  0.38967000  0.95246500  1
  Br  Br55  1  0.80741800  0.11033000  0.95246500  1
loop_
_geom_bond_atom_site_label_1
_geom_bond_atom_site_label_2
_geom_bond_distance
_geom_bond_site_symmetry_2
Br0 Mo21 2.625336 1_554
Br0 Mo5 2.632316 1_555
Br0 Mo22 2.632367 1_564
Br0 K3 3.628919 1_555
Br1 Mo20 2.625336 1_554
Br1 Mo4 2.632316 1_555
Br1 Mo23 2.632367 1_554
Br1 K3 3.628919 1_555
Br2 Mo0 2.609595 1_555
Br2 K1 3.382642 1_655
Br3 Mo1 2.609595 1_555
Br3 K0 3.382642 1_565
Br4 Mo2 2.656245 1_555
Br4 K2 3.344199 1_555
Br4 K0 3.482436 1_555
Br5 Mo3 2.656245 1_555
Br5 K2 3.344199 1_555
Br5 K1 3.482436 1_655
Br6 Mo0 2.619805 1_555
Br6 Mo20 2.624167 1_554
Br6 Mo4 2.624512 1_555
Br7 Mo1 2.619805 1_555
Br7 Mo21 2.624167 1_654
Br7 Mo5 2.624512 1_655
Br8 Mo2 2.624428 1_555
Br8 Mo23 2.629666 1_554
Br8 Mo4 2.631800 1_555
Br9 Mo3 2.624428 1_455
Br9 Mo22 2.629666 1_554
Br9 Mo5 2.631800 1_545
Br10 Mo5 2.622303 1_645
Br10 Mo1 2.630677 1_545
Br10 Mo3 2.642235 1_555
Br10 K2 3.626095 1_555
Br11 Mo4 2.622303 1_555
Br11 Mo0 2.630677 1_555
Br11 Mo2 2.642235 1_555
Br11 K2 3.626095 1_555
Br12 Mo7 2.653845 1_555
Br12 K3 3.337941 1_555
Br12 K1 3.500348 1_555
Br13 Mo6 2.653845 1_555
Br13 K3 3.337941 1_555
Br13 K0 3.500348 1_565
Br14 Mo4 2.653845 1_555
Br14 K3 3.337941 1_555
Br14 K4 3.500348 1_555
Br15 Mo5 2.653845 1_555
Br15 K3 3.337941 1_555
Br15 K5 3.500348 1_565
Br16 Mo6 2.622303 1_545
Br16 Mo11 2.630677 1_545
Br16 Mo8 2.642235 1_555
Br16 K2 3.626095 1_555
Br17 Mo7 2.622303 1_655
Br17 Mo10 2.630677 1_555
Br17 Mo9 2.642235 1_555
Br17 K2 3.626095 1_555
Br18 Mo8 2.624428 1_555
Br18 Mo12 2.629666 1_555
Br18 Mo6 2.631800 1_545
Br19 Mo9 2.624428 1_455
Br19 Mo13 2.629666 1_555
Br19 Mo7 2.631800 1_555
Br20 Mo10 2.619805 1_555
Br20 Mo14 2.624167 1_655
Br20 Mo7 2.624512 1_655
Br21 Mo11 2.619805 1_555
Br21 Mo15 2.624167 1_555
Br21 Mo6 2.624512 1_555
Br22 Mo9 2.656245 1_555
Br22 K2 3.344199 1_555
Br22 K5 3.482436 1_655
Br23 Mo8 2.656245 1_555
Br23 K2 3.344199 1_555
Br23 K4 3.482436 1_555
Br24 Mo10 2.609595 1_555
Br24 K4 3.382642 1_555
Br25 Mo11 2.609595 1_555
Br25 K5 3.382642 1_665
Br26 Mo15 2.625336 1_555
Br26 Mo6 2.632316 1_555
Br26 Mo12 2.632367 1_565
Br26 K3 3.628919 1_555
Br27 Mo14 2.625336 1_555
Br27 Mo7 2.632316 1_555
Br27 Mo13 2.632367 1_555
Br27 K3 3.628919 1_555
Br28 Mo9 2.625336 1_555
Br28 Mo16 2.632316 1_555
Br28 Mo10 2.632367 1_555
Br28 K6 3.628919 1_555
Br29 Mo8 2.625336 1_555
Br29 Mo17 2.632316 1_555
Br29 Mo11 2.632367 1_545
Br29 K6 3.628919 1_555
Br30 Mo12 2.609595 1_555
Br30 K5 3.382642 1_555
Br31 Mo13 2.609595 1_555
Br31 K4 3.382642 1_555
Br32 Mo15 2.656245 1_555
Br32 K7 3.344199 1_555
Br32 K4 3.482436 1_555
Br33 Mo14 2.656245 1_555
Br33 K7 3.344199 1_555
Br33 K5 3.482436 1_565
Br34 Mo12 2.619805 1_555
Br34 Mo8 2.624167 1_555
Br34 Mo17 2.624512 1_555
Br35 Mo13 2.619805 1_555
Br35 Mo9 2.624167 1_455
Br35 Mo16 2.624512 1_455
Br36 Mo14 2.624428 1_655
Br36 Mo10 2.629666 1_555
Br36 Mo16 2.631800 1_555
Br37 Mo15 2.624428 1_555
Br37 Mo11 2.629666 1_555
Br37 Mo17 2.631800 1_565
Br38 Mo16 2.622303 1_455
Br38 Mo13 2.630677 1_555
Br38 Mo14 2.642235 1_555
Br38 K7 3.626095 1_555
Br39 Mo17 2.622303 1_565
Br39 Mo12 2.630677 1_565
Br39 Mo15 2.642235 1_555
Br39 K7 3.626095 1_555
Br40 Mo18 2.653845 1_555
Br40 K6 3.337941 1_555
Br40 K5 3.500348 1_655
Br41 Mo19 2.653845 1_555
Br41 K6 3.337941 1_555
Br41 K4 3.500348 1_555
Br42 Mo17 2.653845 1_555
Br42 K6 3.337941 1_555
Br42 K0 3.500348 1_556
Br43 Mo16 2.653845 1_555
Br43 K6 3.337941 1_555
Br43 K1 3.500348 1_656
Br44 Mo19 2.622303 1_555
Br44 Mo23 2.630677 1_555
Br44 Mo20 2.642235 1_555
Br44 K7 3.626095 1_555
Br45 Mo18 2.622303 1_465
Br45 Mo22 2.630677 1_565
Br45 Mo21 2.642235 1_555
Br45 K7 3.626095 1_555
Br46 Mo21 2.624428 1_655
Br46 Mo1 2.629666 1_556
Br46 Mo18 2.631800 1_565
Br47 Mo20 2.624428 1_555
Br47 Mo0 2.629666 1_556
Br47 Mo19 2.631800 1_555
Br48 Mo22 2.619805 1_555
Br48 Mo3 2.624167 1_456
Br48 Mo18 2.624512 1_455
Br49 Mo23 2.619805 1_555
Br49 Mo2 2.624167 1_556
Br49 Mo19 2.624512 1_555
Br50 Mo21 2.656245 1_555
Br50 K7 3.344199 1_555
Br50 K1 3.482436 1_556
Br51 Mo20 2.656245 1_555
Br51 K7 3.344199 1_555
Br51 K0 3.482436 1_566
Br52 Mo22 2.609595 1_555
Br52 K0 3.382642 1_556
Br53 Mo23 2.609595 1_555
Br53 K1 3.382642 1_556
Br54 Mo2 2.625336 1_556
Br54 Mo19 2.632316 1_555
Br54 Mo0 2.632367 1_556
Br54 K6 3.628919 1_555
Br55 Mo3 2.625336 1_556
Br55 Mo18 2.632316 1_555
Br55 Mo1 2.632367 1_546
Br55 K6 3.628919 1_555
