# generated using pymatgen
data_TiZn(BiO3)2
_symmetry_space_group_name_H-M   'P 1'
_cell_length_a   6.20107272
_cell_length_b   6.20107272
_cell_length_c   6.20107272
_cell_angle_alpha   129.36286177
_cell_angle_beta   129.36286177
_cell_angle_gamma   74.42741035
_symmetry_Int_Tables_number   1
_chemical_formula_structural   TiZn(BiO3)2
_chemical_formula_sum   'Ti1 Zn1 Bi2 O6'
_cell_volume   138.91922705
_cell_formula_units_Z   1
loop_
 _symmetry_equiv_pos_site_id
 _symmetry_equiv_pos_as_xyz
  1  'x, y, z'
loop_
 _atom_site_type_symbol
 _atom_site_label
 _atom_site_symmetry_multiplicity
 _atom_site_fract_x
 _atom_site_fract_y
 _atom_site_fract_z
 _atom_site_occupancy
  Ti  Ti0  1  0.80056900  0.80056900  0.00000000  1
  Zn  Zn0  1  0.26832200  0.26832200  0.00000000  1
  Bi  Bi0  1  0.99971800  0.49971800  0.50000000  1
  Bi  Bi1  1  0.49971800  0.99971800  0.50000000  1
  O  O0  1  0.07558900  0.07558900  0.00000000  1
  O  O1  1  0.61946100  0.61946100  0.00000000  1
  O  O2  1  0.61280900  0.11099800  0.00000000  1
  O  O3  1  0.61280900  0.61280900  0.50181100  1
  O  O4  1  0.11099800  0.61280900  0.00000000  1
  O  O5  1  0.11099800  0.11099800  0.49818900  1
loop_
_geom_bond_atom_site_label_1
_geom_bond_atom_site_label_2
_geom_bond_distance
_geom_bond_site_symmetry_2
Bi0 O3 2.317137 1_555
Bi0 O5 2.317137 1_655
Bi0 O2 2.317137 1_555
Bi0 O4 2.317137 1_656
Bi1 O3 2.317137 1_555
Bi1 O4 2.317137 1_555
Bi1 O2 2.317137 1_566
Bi1 O5 2.317137 1_565
O0 Zn0 1.903602 1_555
O1 Ti0 1.788783 1_555
O2 Ti0 1.964136 1_545
O2 Zn0 2.096690 1_555
O3 Ti0 1.964136 1_556
O3 Zn0 2.096690 1_555
O4 Ti0 1.964136 1_455
O4 Zn0 2.096690 1_555
O5 Ti0 1.964136 1_445
O5 Zn0 2.096690 1_556
