# generated using pymatgen
data_SbAs3(S2F3)2
_symmetry_space_group_name_H-M   'P 1'
_cell_length_a   6.19559800
_cell_length_b   10.11075500
_cell_length_c   20.81000100
_cell_angle_alpha   90.00000000
_cell_angle_beta   90.00000000
_cell_angle_gamma   90.00000000
_symmetry_Int_Tables_number   1
_chemical_formula_structural   SbAs3(S2F3)2
_chemical_formula_sum   'Sb4 As12 S16 F24'
_cell_volume   1303.58369227
_cell_formula_units_Z   4
loop_
 _symmetry_equiv_pos_site_id
 _symmetry_equiv_pos_as_xyz
  1  'x, y, z'
loop_
 _atom_site_type_symbol
 _atom_site_label
 _atom_site_symmetry_multiplicity
 _atom_site_fract_x
 _atom_site_fract_y
 _atom_site_fract_z
 _atom_site_occupancy
  Sb  Sb0  1  0.49080000  0.25000000  0.66288400  1
  Sb  Sb1  1  0.50920000  0.25000000  0.16288400  1
  Sb  Sb2  1  0.50920000  0.75000000  0.33711600  1
  Sb  Sb3  1  0.49080000  0.75000000  0.83711600  1
  As  As0  1  0.94144000  0.75000000  0.51032300  1
  As  As1  1  0.00518300  0.62479400  0.17102200  1
  As  As2  1  0.05856000  0.75000000  0.01032300  1
  As  As3  1  0.99481700  0.12479400  0.82897800  1
  As  As4  1  0.94144000  0.25000000  0.98967700  1
  As  As5  1  0.00518300  0.87520600  0.17102200  1
  As  As6  1  0.99481700  0.62479400  0.67102200  1
  As  As7  1  0.99481700  0.87520600  0.67102200  1
  As  As8  1  0.99481700  0.37520600  0.82897800  1
  As  As9  1  0.00518300  0.12479400  0.32897800  1
  As  As10  1  0.05856000  0.25000000  0.48967700  1
  As  As11  1  0.00518300  0.37520600  0.32897800  1
  S  S0  1  0.69703700  0.75000000  0.13428900  1
  S  S1  1  0.69658900  0.25000000  0.46249500  1
  S  S2  1  0.85562500  0.07892300  0.92392600  1
  S  S3  1  0.85562500  0.42107700  0.92392600  1
  S  S4  1  0.85562500  0.57892300  0.57607400  1
  S  S5  1  0.14437500  0.92107700  0.07607400  1
  S  S6  1  0.30341100  0.25000000  0.96249500  1
  S  S7  1  0.14437500  0.07892300  0.42392600  1
  S  S8  1  0.14437500  0.42107700  0.42392600  1
  S  S9  1  0.30296300  0.75000000  0.63428900  1
  S  S10  1  0.30341100  0.75000000  0.53750500  1
  S  S11  1  0.69658900  0.75000000  0.03750500  1
  S  S12  1  0.30296300  0.25000000  0.86571100  1
  S  S13  1  0.14437500  0.57892300  0.07607400  1
  S  S14  1  0.85562500  0.92107700  0.57607400  1
  S  S15  1  0.69703700  0.25000000  0.36571100  1
  F  F0  1  0.34783000  0.38457600  0.61360800  1
  F  F1  1  0.72794600  0.25000000  0.60295500  1
  F  F2  1  0.63350200  0.61669100  0.78703000  1
  F  F3  1  0.25195900  0.75000000  0.77658200  1
  F  F4  1  0.27205400  0.75000000  0.39704500  1
  F  F5  1  0.74804100  0.75000000  0.27658200  1
  F  F6  1  0.65217000  0.88457600  0.38639200  1
  F  F7  1  0.65217000  0.11542400  0.11360800  1
  F  F8  1  0.36649800  0.38330900  0.21297000  1
  F  F9  1  0.65217000  0.38457600  0.11360800  1
  F  F10  1  0.36649800  0.88330900  0.28703000  1
  F  F11  1  0.63350200  0.88330900  0.78703000  1
  F  F12  1  0.36649800  0.61669100  0.28703000  1
  F  F13  1  0.25195900  0.25000000  0.72341800  1
  F  F14  1  0.63350200  0.11669100  0.71297000  1
  F  F15  1  0.63350200  0.38330900  0.71297000  1
  F  F16  1  0.36649800  0.11669100  0.21297000  1
  F  F17  1  0.65217000  0.61542400  0.38639200  1
  F  F18  1  0.34783000  0.61542400  0.88639200  1
  F  F19  1  0.27205400  0.25000000  0.10295500  1
  F  F20  1  0.34783000  0.88457600  0.88639200  1
  F  F21  1  0.74804100  0.25000000  0.22341800  1
  F  F22  1  0.72794600  0.75000000  0.89704500  1
  F  F23  1  0.34783000  0.11542400  0.61360800  1
loop_
_geom_bond_atom_site_label_1
_geom_bond_atom_site_label_2
_geom_bond_distance
_geom_bond_site_symmetry_2
As0 S14 2.268653 1_555
As0 S4 2.268653 1_555
As0 S10 2.312865 1_655
As1 S13 2.205187 1_555
As1 S0 2.414901 1_455
As2 S13 2.268653 1_555
As2 S5 2.268653 1_555
As2 S11 2.312865 1_455
As3 S2 2.205187 1_555
As3 S12 2.414901 1_655
As4 S3 2.268653 1_555
As4 S2 2.268653 1_555
As4 S6 2.312865 1_655
As5 S5 2.205187 1_555
As5 S0 2.414901 1_455
As6 S4 2.205187 1_555
As6 S9 2.414901 1_655
As7 S14 2.205187 1_555
As7 S9 2.414901 1_655
As8 S3 2.205187 1_555
As8 S12 2.414901 1_655
As9 S7 2.205187 1_555
As9 S15 2.414901 1_455
As10 S8 2.268653 1_555
As10 S7 2.268653 1_555
As10 S1 2.312865 1_455
As11 S8 2.205187 1_555
As11 S15 2.414901 1_455
S0 S11 2.014077 1_555
S1 S15 2.014077 1_555
S10 S9 2.014077 1_555
S12 S6 2.014077 1_555
F0 Sb0 1.920296 1_555
F1 Sb0 1.927185 1_555
F2 Sb3 1.919572 1_555
F3 Sb3 1.943341 1_555
F4 Sb2 1.927185 1_555
F5 Sb2 1.943341 1_555
F6 Sb2 1.920296 1_555
F7 Sb1 1.920296 1_555
F8 Sb1 1.919572 1_555
F9 Sb1 1.920296 1_555
F10 Sb2 1.919572 1_555
F11 Sb3 1.919572 1_555
F12 Sb2 1.919572 1_555
F13 Sb0 1.943341 1_555
F14 Sb0 1.919572 1_555
F15 Sb0 1.919572 1_555
F16 Sb1 1.919572 1_555
F17 Sb2 1.920296 1_555
F18 Sb3 1.920296 1_555
F19 Sb1 1.927185 1_555
F20 Sb3 1.920296 1_555
F21 Sb1 1.943341 1_555
F22 Sb3 1.927185 1_555
F23 Sb0 1.920296 1_555
