# generated using pymatgen
data_LiSn2(PO4)3
_symmetry_space_group_name_H-M   'P 1'
_cell_length_a   8.68763966
_cell_length_b   8.68764074
_cell_length_c   8.68763938
_cell_angle_alpha   59.78013798
_cell_angle_beta   59.78013660
_cell_angle_gamma   59.78012760
_symmetry_Int_Tables_number   1
_chemical_formula_structural   LiSn2(PO4)3
_chemical_formula_sum   'Li2 Sn4 P6 O24'
_cell_volume   461.33575725
_cell_formula_units_Z   2
loop_
 _symmetry_equiv_pos_site_id
 _symmetry_equiv_pos_as_xyz
  1  'x, y, z'
loop_
 _atom_site_type_symbol
 _atom_site_label
 _atom_site_symmetry_multiplicity
 _atom_site_fract_x
 _atom_site_fract_y
 _atom_site_fract_z
 _atom_site_occupancy
  Li  Li0  1  -0.00000000  0.00000000  0.00000000  1
  Li  Li1  1  0.50000000  0.50000000  0.50000000  1
  Sn  Sn0  1  0.14197430  0.14197430  0.14197430  1
  Sn  Sn1  1  0.64197430  0.64197430  0.64197430  1
  Sn  Sn2  1  0.85802570  0.85802570  0.85802570  1
  Sn  Sn3  1  0.35802570  0.35802570  0.35802570  1
  P  P0  1  0.95539083  0.25000000  0.54460917  1
  P  P1  1  0.75000000  0.45539083  0.04460917  1
  P  P2  1  0.04460917  0.75000000  0.45539083  1
  P  P3  1  0.54460917  0.95539083  0.25000000  1
  P  P4  1  0.45539083  0.04460917  0.75000000  1
  P  P5  1  0.25000000  0.54460917  0.95539083  1
  O  O0  1  0.11204633  0.30833876  0.50705920  1
  O  O1  1  0.55970944  0.76527984  0.41202368  1
  O  O2  1  0.94029056  0.08797632  0.73472016  1
  O  O3  1  0.76527984  0.41202368  0.55970944  1
  O  O4  1  0.44029056  0.23472016  0.58797632  1
  O  O5  1  0.80833876  0.61204633  0.00705920  1
  O  O6  1  0.88795367  0.69166124  0.49294080  1
  O  O7  1  0.49294080  0.88795367  0.69166124  1
  O  O8  1  0.00705920  0.80833876  0.61204633  1
  O  O9  1  0.58797632  0.44029056  0.23472016  1
  O  O10  1  0.30833876  0.50705920  0.11204633  1
  O  O11  1  0.19166124  0.38795367  0.99294080  1
  O  O12  1  0.41202368  0.55970944  0.76527984  1
  O  O13  1  0.50705920  0.11204633  0.30833876  1
  O  O14  1  0.26527984  0.05970944  0.91202368  1
  O  O15  1  0.08797632  0.73472016  0.94029056  1
  O  O16  1  0.38795367  0.99294080  0.19166124  1
  O  O17  1  0.23472016  0.58797632  0.44029056  1
  O  O18  1  0.69166124  0.49294080  0.88795367  1
  O  O19  1  0.99294080  0.19166124  0.38795367  1
  O  O20  1  0.05970944  0.91202368  0.26527984  1
  O  O21  1  0.73472016  0.94029056  0.08797632  1
  O  O22  1  0.91202368  0.26527984  0.05970944  1
  O  O23  1  0.61204633  0.00705920  0.80833876  1
loop_
_geom_bond_atom_site_label_1
_geom_bond_atom_site_label_2
_geom_bond_distance
_geom_bond_site_symmetry_2
Li0 O20 2.279444 1_545
Li0 O2 2.279444 1_454
Li0 O14 2.279444 1_554
Li0 O21 2.279444 1_445
Li0 O22 2.279444 1_455
Li0 O15 2.279444 1_544
Li1 O17 2.279444 1_555
Li1 O3 2.279444 1_555
Li1 O12 2.279444 1_555
Li1 O9 2.279444 1_555
Li1 O4 2.279445 1_555
Li1 O1 2.279445 1_555
O0 P0 1.515427 1_455
O0 Sn3 2.002534 1_555
O1 P3 1.534247 1_555
O1 Sn1 2.039987 1_555
O2 P0 1.534247 1_555
O2 Sn2 2.039987 1_545
O3 P0 1.534247 1_555
O3 Sn1 2.039987 1_555
O4 P4 1.534247 1_555
O4 Sn3 2.039987 1_555
O5 P1 1.515427 1_555
O5 Sn2 2.002534 1_554
O6 P2 1.515427 1_655
O6 Sn1 2.002534 1_555
O7 P4 1.515427 1_565
O7 Sn1 2.002534 1_555
O8 P2 1.515427 1_555
O8 Sn2 2.002534 1_455
O9 P1 1.534247 1_555
O9 Sn3 2.039987 1_555
O10 P5 1.515426 1_554
O10 Sn3 2.002534 1_555
O11 P5 1.515427 1_555
O11 Sn0 2.002534 1_556
O12 P5 1.534247 1_555
O12 Sn1 2.039987 1_555
O13 P3 1.515427 1_545
O13 Sn3 2.002534 1_555
O14 P4 1.534247 1_555
O14 Sn0 2.039987 1_556
O15 P5 1.534247 1_555
O15 Sn2 2.039987 1_455
O16 P3 1.515426 1_555
O16 Sn0 2.002534 1_565
O17 P2 1.534247 1_555
O17 Sn3 2.039987 1_555
O18 P1 1.515426 1_556
O18 Sn1 2.002534 1_555
O19 P0 1.515427 1_555
O19 Sn0 2.002534 1_655
O20 P2 1.534247 1_555
O20 Sn0 2.039987 1_565
O21 P3 1.534247 1_555
O21 Sn2 2.039987 1_554
O22 P1 1.534247 1_555
O22 Sn0 2.039987 1_655
O23 P4 1.515426 1_555
O23 Sn2 2.002534 1_545
