# generated using pymatgen
data_Li2ZnGe
_symmetry_space_group_name_H-M   'P 1'
_cell_length_a   4.22275057
_cell_length_b   4.22275211
_cell_length_c   16.44450199
_cell_angle_alpha   89.99946516
_cell_angle_beta   90.00071082
_cell_angle_gamma   120.00117685
_symmetry_Int_Tables_number   1
_chemical_formula_structural   Li2ZnGe
_chemical_formula_sum   'Li8 Zn4 Ge4'
_cell_volume   253.94357199
_cell_formula_units_Z   4
loop_
 _symmetry_equiv_pos_site_id
 _symmetry_equiv_pos_as_xyz
  1  'x, y, z'
loop_
 _atom_site_type_symbol
 _atom_site_label
 _atom_site_symmetry_multiplicity
 _atom_site_fract_x
 _atom_site_fract_y
 _atom_site_fract_z
 _atom_site_occupancy
  Li  Li0  1  0.33333393  0.66665277  0.20882799  1
  Li  Li1  1  0.33334373  0.66665555  0.04134808  1
  Li  Li2  1  0.66666569  0.33334691  0.79117201  1
  Li  Li3  1  0.66664922  0.33333063  0.45884395  1
  Li  Li4  1  0.66666039  0.33333909  0.29153519  1
  Li  Li5  1  0.33333974  0.66666098  0.70846479  1
  Li  Li6  1  0.66665675  0.33334497  0.95865186  1
  Li  Li7  1  0.33334916  0.66666756  0.54115604  1
  Zn  Zn0  1  -0.00000024  0.00000011  0.12785145  1
  Zn  Zn1  1  0.00000351  -0.00000247  0.62210992  1
  Zn  Zn2  1  -0.00000331  0.00000277  0.37789019  1
  Zn  Zn3  1  0.00000062  0.00000026  0.87214850  1
  Ge  Ge0  1  0.66667972  0.33332180  0.62500844  1
  Ge  Ge1  1  0.66667279  0.33332716  0.12505851  1
  Ge  Ge2  1  0.33332771  0.66667335  0.87494134  1
  Ge  Ge3  1  0.33332058  0.66667857  0.37499175  1
loop_
_geom_bond_atom_site_label_1
_geom_bond_atom_site_label_2
_geom_bond_distance
_geom_bond_site_symmetry_2
Li0 Li1 2.754124 1_555
Li0 Zn0 2.777898 1_555
Li0 Zn0 2.777946 1_665
Li0 Zn0 2.778010 1_565
Li0 Li4 2.791631 1_555
Li0 Li4 2.791725 1_455
Li0 Li4 2.791760 1_565
Li1 Li6 2.791520 1_554
Li1 Li6 2.791659 1_454
Li1 Li6 2.791674 1_564
Li1 Zn0 2.822588 1_665
Li1 Zn0 2.822593 1_555
Li1 Zn0 2.822755 1_565
Li2 Li6 2.754123 1_555
Li2 Zn3 2.777900 1_665
Li2 Zn3 2.777943 1_555
Li2 Zn3 2.778010 1_655
Li2 Li5 2.791631 1_555
Li2 Li5 2.791727 1_655
Li2 Li5 2.791759 1_545
Li3 Li4 2.751309 1_555
Li3 Zn2 2.777703 1_555
Li3 Zn2 2.777773 1_665
Li3 Zn2 2.777840 1_655
Li3 Li7 2.788491 1_555
Li3 Li7 2.788518 1_545
Li3 Li7 2.788629 1_655
Li4 Zn2 2.821399 1_665
Li4 Zn2 2.821405 1_555
Li4 Zn2 2.821445 1_655
Li5 Li7 2.751309 1_555
Li5 Zn1 2.821397 1_555
Li5 Zn1 2.821404 1_665
Li5 Zn1 2.821444 1_565
Li6 Zn3 2.822588 1_555
Li6 Zn3 2.822593 1_665
Li6 Zn3 2.822755 1_655
Li7 Zn1 2.777710 1_665
Li7 Zn1 2.777767 1_555
Li7 Zn1 2.777842 1_565
Ge0 Zn1 2.438420 1_655
Ge0 Zn1 2.438477 1_665
Ge0 Zn1 2.438478 1_555
Ge0 Li2 2.732477 1_555
Ge0 Li3 2.732492 1_555
Ge0 Li5 2.797683 1_655
Ge0 Li5 2.797693 1_545
Ge0 Li5 2.797808 1_555
Ge0 Li7 2.800881 1_545
Ge0 Li7 2.800935 1_655
Ge0 Li7 2.800969 1_555
Ge1 Zn0 2.438407 1_655
Ge1 Zn0 2.438434 1_555
Ge1 Zn0 2.438434 1_665
Ge1 Li6 2.736474 1_554
Ge1 Li4 2.737626 1_555
Ge1 Li1 2.799761 1_555
Ge1 Li1 2.799788 1_545
Ge1 Li1 2.799791 1_655
Ge1 Li0 2.800216 1_655
Ge1 Li0 2.800266 1_545
Ge1 Li0 2.800291 1_555
Ge2 Zn3 2.438407 1_565
Ge2 Zn3 2.438433 1_665
Ge2 Zn3 2.438434 1_555
Ge2 Li1 2.736476 1_556
Ge2 Li5 2.737624 1_555
Ge2 Li6 2.799761 1_555
Ge2 Li6 2.799789 1_565
Ge2 Li6 2.799792 1_455
Ge2 Li2 2.800218 1_455
Ge2 Li2 2.800262 1_565
Ge2 Li2 2.800289 1_555
Ge3 Zn2 2.438420 1_565
Ge3 Zn2 2.438477 1_665
Ge3 Zn2 2.438477 1_555
Ge3 Li0 2.732480 1_555
Ge3 Li7 2.732489 1_555
Ge3 Li4 2.797685 1_455
Ge3 Li4 2.797694 1_565
Ge3 Li4 2.797810 1_555
Ge3 Li3 2.800873 1_565
Ge3 Li3 2.800940 1_455
Ge3 Li3 2.800969 1_555
