# generated using pymatgen
data_YSiNO2
_symmetry_space_group_name_H-M   'P 1'
_cell_length_a   7.08849051
_cell_length_b   7.08849051
_cell_length_c   27.54912700
_cell_angle_alpha   90.00000000
_cell_angle_beta   90.00000000
_cell_angle_gamma   120.00000473
_symmetry_Int_Tables_number   1
_chemical_formula_structural   YSiNO2
_chemical_formula_sum   'Y18 Si18 N18 O36'
_cell_volume   1198.79790767
_cell_formula_units_Z   18
loop_
 _symmetry_equiv_pos_site_id
 _symmetry_equiv_pos_as_xyz
  1  'x, y, z'
loop_
 _atom_site_type_symbol
 _atom_site_label
 _atom_site_symmetry_multiplicity
 _atom_site_fract_x
 _atom_site_fract_y
 _atom_site_fract_z
 _atom_site_occupancy
  Y  Y0  1  0.98860900  0.97721900  0.25000000  1
  Y  Y1  1  0.02278100  0.01139100  0.58333300  1
  Y  Y2  1  0.01139100  0.02278100  0.75000000  1
  Y  Y3  1  0.98860900  0.01139100  0.91666700  1
  Y  Y4  1  0.34143600  0.65856400  0.91666700  1
  Y  Y5  1  0.65856400  0.31712900  0.75000000  1
  Y  Y6  1  0.65856400  0.34143600  0.41666700  1
  Y  Y7  1  0.66089500  0.33910500  0.91666700  1
  Y  Y8  1  0.68287100  0.34143600  0.08333300  1
  Y  Y9  1  0.32179000  0.66089500  0.08333300  1
  Y  Y10  1  0.31712900  0.65856400  0.58333300  1
  Y  Y11  1  0.66089500  0.32179000  0.25000000  1
  Y  Y12  1  0.67821000  0.33910500  0.58333300  1
  Y  Y13  1  0.33910500  0.67821000  0.75000000  1
  Y  Y14  1  0.33910500  0.66089500  0.41666700  1
  Y  Y15  1  0.97721900  0.98860900  0.08333300  1
  Y  Y16  1  0.01139100  0.98860900  0.41666700  1
  Y  Y17  1  0.34143600  0.68287100  0.25000000  1
  Si  Si0  1  0.32844400  0.24562000  0.00189200  1
  Si  Si1  1  0.42680500  0.42680500  0.66666700  1
  Si  Si2  1  0.75438000  0.08282400  0.33522500  1
  Si  Si3  1  0.67155600  0.75438000  0.50189200  1
  Si  Si4  1  0.24562000  0.91717600  0.83522500  1
  Si  Si5  1  0.91717600  0.24562000  0.49810800  1
  Si  Si6  1  0.08282400  0.32844400  0.16855900  1
  Si  Si7  1  0.57319500  0.00000000  0.00000000  1
  Si  Si8  1  0.00000000  0.42680500  0.83333300  1
  Si  Si9  1  0.08282400  0.75438000  0.99810800  1
  Si  Si10  1  0.00000000  0.57319500  0.33333300  1
  Si  Si11  1  0.75438000  0.67155600  0.83144100  1
  Si  Si12  1  0.67155600  0.91717600  0.66477500  1
  Si  Si13  1  0.42680500  0.00000000  0.50000000  1
  Si  Si14  1  0.91717600  0.67155600  0.66855900  1
  Si  Si15  1  0.24562000  0.32844400  0.33144100  1
  Si  Si16  1  0.57319500  0.57319500  0.16666700  1
  Si  Si17  1  0.32844400  0.08282400  0.16477500  1
  N  N0  1  0.43429300  0.76258500  0.50125400  1
  N  N1  1  0.67170800  0.43429300  0.66792000  1
  N  N2  1  0.90898400  0.00000000  0.50000000  1
  N  N3  1  0.09101600  0.00000000  0.00000000  1
  N  N4  1  0.00000000  0.90898400  0.83333300  1
  N  N5  1  0.56570700  0.23741500  0.00125400  1
  N  N6  1  0.32829200  0.56570700  0.16792000  1
  N  N7  1  0.23741500  0.67170800  0.83458700  1
  N  N8  1  0.43429300  0.67170800  0.66541300  1
  N  N9  1  0.90898400  0.90898400  0.66666700  1
  N  N10  1  0.67170800  0.23741500  0.49874600  1
  N  N11  1  0.09101600  0.09101600  0.16666700  1
  N  N12  1  0.56570700  0.32829200  0.16541300  1
  N  N13  1  0.00000000  0.09101600  0.33333300  1
  N  N14  1  0.32829200  0.76258500  0.99874600  1
  N  N15  1  0.76258500  0.32829200  0.33458700  1
  N  N16  1  0.76258500  0.43429300  0.83208000  1
  N  N17  1  0.23741500  0.56570700  0.33208000  1
  O  O0  1  0.03061900  0.36385500  0.55042700  1
  O  O1  1  0.03061900  0.66676400  0.61624000  1
  O  O2  1  0.00182400  0.31140800  0.78137800  1
  O  O3  1  0.69041700  0.68859200  0.21862200  1
  O  O4  1  0.96938100  0.63614500  0.05042700  1
  O  O5  1  0.36385500  0.03061900  0.78290600  1
  O  O6  1  0.68859200  0.69041700  0.11471100  1
  O  O7  1  0.00182400  0.69041700  0.38528900  1
  O  O8  1  0.64171400  0.96609100  0.38761800  1
  O  O9  1  0.30958300  0.99817600  0.44804400  1
  O  O10  1  0.35828600  0.32437800  0.27904800  1
  O  O11  1  0.63614500  0.66676400  0.88376000  1
  O  O12  1  0.03390900  0.35828600  0.44571500  1
  O  O13  1  0.96938100  0.33323600  0.11624000  1
  O  O14  1  0.99817600  0.68859200  0.28137800  1
  O  O15  1  0.31140800  0.00182400  0.55195600  1
  O  O16  1  0.68859200  0.99817600  0.05195600  1
  O  O17  1  0.30958300  0.31140800  0.71862200  1
  O  O18  1  0.03390900  0.67562200  0.72095200  1
  O  O19  1  0.33323600  0.36385500  0.94957300  1
  O  O20  1  0.66676400  0.03061900  0.71709400  1
  O  O21  1  0.63614500  0.96938100  0.28290600  1
  O  O22  1  0.69041700  0.00182400  0.94804400  1
  O  O23  1  0.99817600  0.30958300  0.88528900  1
  O  O24  1  0.67562200  0.64171400  0.55428500  1
  O  O25  1  0.35828600  0.03390900  0.88761800  1
  O  O26  1  0.36385500  0.33323600  0.38376000  1
  O  O27  1  0.64171400  0.67562200  0.77904800  1
  O  O28  1  0.31140800  0.30958300  0.61471100  1
  O  O29  1  0.33323600  0.96938100  0.21709400  1
  O  O30  1  0.96609100  0.32437800  0.22095200  1
  O  O31  1  0.96609100  0.64171400  0.94571500  1
  O  O32  1  0.67562200  0.03390900  0.61238200  1
  O  O33  1  0.32437800  0.35828600  0.05428500  1
  O  O34  1  0.32437800  0.96609100  0.11238200  1
  O  O35  1  0.66676400  0.63614500  0.44957300  1
loop_
_geom_bond_atom_site_label_1
_geom_bond_atom_site_label_2
_geom_bond_distance
_geom_bond_site_symmetry_2
N0 Si13 1.710420 1_565
N0 Si3 1.711749 1_555
N0 Y10 2.394600 1_555
N0 Y14 2.432855 1_555
N1 Si1 1.710420 1_555
N1 Si14 1.711749 1_555
N1 Y5 2.394625 1_555
N1 Y12 2.432855 1_555
N2 Si3 1.713572 1_545
N2 Si5 1.713572 1_555
N2 Y1 2.421269 1_655
N2 Y16 2.421271 1_645
N3 Si0 1.713572 1_555
N3 Si9 1.713572 1_544
N3 Y15 2.421269 1_445
N3 Y3 2.421271 1_454
N4 Si11 1.713572 1_455
N4 Si4 1.713572 1_555
N4 Y2 2.421269 1_565
N4 Y3 2.421297 1_465
N5 Si7 1.710420 1_555
N5 Si0 1.711749 1_555
N5 Y8 2.394600 1_555
N5 Y7 2.432855 1_554
N6 Si16 1.710420 1_555
N6 Si6 1.711749 1_555
N6 Y17 2.394625 1_555
N6 Y9 2.432855 1_555
N7 Si8 1.710420 1_555
N7 Si4 1.711749 1_555
N7 Y4 2.394627 1_555
N7 Y13 2.432855 1_555
N8 Si1 1.710420 1_555
N8 Si12 1.711748 1_555
N8 Y10 2.394625 1_555
N8 Y13 2.432855 1_555
N9 Si14 1.713572 1_555
N9 Si12 1.713572 1_555
N9 Y2 2.421270 1_665
N9 Y1 2.421296 1_665
N10 Si13 1.710420 1_555
N10 Si5 1.711749 1_555
N10 Y6 2.394601 1_555
N10 Y12 2.432855 1_555
N11 Si17 1.713572 1_555
N11 Si6 1.713572 1_555
N11 Y0 2.421270 1_445
N11 Y15 2.421296 1_445
N12 Si16 1.710420 1_555
N12 Si17 1.711748 1_555
N12 Y8 2.394625 1_555
N12 Y11 2.432855 1_555
N13 Si15 1.713572 1_555
N13 Si2 1.713572 1_455
N13 Y0 2.421269 1_445
N13 Y16 2.421297 1_545
N14 Si7 1.710420 1_566
N14 Si9 1.711749 1_555
N14 Y4 2.394601 1_555
N14 Y9 2.432855 1_556
N15 Si10 1.710420 1_655
N15 Si2 1.711749 1_555
N15 Y6 2.394627 1_555
N15 Y11 2.432855 1_555
N16 Si8 1.710420 1_655
N16 Si11 1.711749 1_555
N16 Y5 2.394626 1_555
N16 Y7 2.432855 1_555
N17 Si10 1.710420 1_555
N17 Si15 1.711749 1_555
N17 Y17 2.394626 1_555
N17 Y14 2.432855 1_555
O0 Si5 1.659090 1_455
O0 Y10 2.251191 1_555
O0 Y12 2.579644 1_455
O0 Y1 2.632160 1_555
O1 Si14 1.659090 1_455
O1 Y10 2.251206 1_555
O1 Y12 2.579654 1_455
O1 Y1 2.632176 1_565
O2 Si8 1.651821 1_555
O2 Y2 2.253092 1_555
O2 Y5 2.601540 1_455
O2 Y13 2.647136 1_555
O3 Si16 1.651823 1_555
O3 Y0 2.253085 1_555
O3 Y17 2.601540 1_555
O3 Y11 2.647133 1_555
O4 Si9 1.659090 1_654
O4 Y8 2.251191 1_555
O4 Y9 2.579644 1_655
O4 Y15 2.632160 1_555
O5 Si4 1.659090 1_545
O5 Y5 2.251191 1_555
O5 Y13 2.579644 1_545
O5 Y2 2.632160 1_555
O6 Si16 1.651847 1_555
O6 Y15 2.253085 1_555
O6 Y8 2.601540 1_555
O6 Y9 2.647133 1_555
O7 Si10 1.651849 1_555
O7 Y16 2.253079 1_555
O7 Y6 2.601539 1_455
O7 Y14 2.647139 1_555
O8 Si2 1.656809 1_565
O8 Y14 2.298110 1_555
O8 Y16 2.667286 1_655
O8 Y6 2.723209 1_565
O9 Si13 1.651849 1_565
O9 Y16 2.253068 1_555
O9 Y6 2.601530 1_565
O9 Y14 2.647130 1_555
O10 Si15 1.656808 1_555
O10 Y11 2.298104 1_555
O10 Y0 2.667277 1_445
O10 Y17 2.723187 1_555
O11 Si11 1.659090 1_555
O11 Y4 2.251199 1_555
O11 Y7 2.579654 1_555
O11 Y3 2.632172 1_565
O12 Si5 1.656809 1_455
O12 Y14 2.298101 1_555
O12 Y16 2.667277 1_545
O12 Y6 2.723201 1_455
O13 Si6 1.659090 1_655
O13 Y8 2.251206 1_555
O13 Y9 2.579654 1_655
O13 Y15 2.632176 1_545
O14 Si10 1.651821 1_655
O14 Y0 2.253092 1_555
O14 Y17 2.601540 1_655
O14 Y11 2.647136 1_555
O15 Si13 1.651845 1_555
O15 Y1 2.253082 1_555
O15 Y10 2.601530 1_545
O15 Y12 2.647127 1_555
O16 Si7 1.651845 1_565
O16 Y15 2.253082 1_555
O16 Y8 2.601530 1_565
O16 Y9 2.647127 1_555
O17 Si1 1.651823 1_555
O17 Y2 2.253085 1_555
O17 Y5 2.601540 1_555
O17 Y13 2.647133 1_555
O18 Si14 1.656811 1_455
O18 Y13 2.298098 1_555
O18 Y2 2.667277 1_565
O18 Y5 2.723194 1_455
O19 Si0 1.659090 1_556
O19 Y4 2.251188 1_555
O19 Y7 2.579644 1_555
O19 Y3 2.632163 1_455
O20 Si12 1.659090 1_545
O20 Y5 2.251195 1_555
O20 Y13 2.579644 1_545
O20 Y2 2.632166 1_655
O21 Si2 1.659090 1_565
O21 Y17 2.251191 1_555
O21 Y11 2.579644 1_565
O21 Y0 2.632160 1_555
O22 Si7 1.651849 1_556
O22 Y3 2.253068 1_555
O22 Y4 2.601530 1_545
O22 Y7 2.647130 1_555
O23 Si8 1.651849 1_655
O23 Y3 2.253079 1_555
O23 Y4 2.601539 1_655
O23 Y7 2.647139 1_555
O24 Si3 1.656808 1_555
O24 Y12 2.298104 1_555
O24 Y1 2.667277 1_665
O24 Y10 2.723187 1_555
O25 Si4 1.656809 1_545
O25 Y7 2.298110 1_555
O25 Y3 2.667286 1_455
O25 Y4 2.723209 1_545
O26 Si15 1.659090 1_555
O26 Y6 2.251199 1_555
O26 Y14 2.579654 1_555
O26 Y16 2.632172 1_545
O27 Si11 1.656808 1_555
O27 Y13 2.298104 1_555
O27 Y2 2.667277 1_665
O27 Y5 2.723187 1_555
O28 Si1 1.651847 1_555
O28 Y1 2.253085 1_555
O28 Y10 2.601540 1_555
O28 Y12 2.647133 1_555
O29 Si17 1.659090 1_565
O29 Y17 2.251195 1_555
O29 Y11 2.579644 1_565
O29 Y0 2.632166 1_455
O30 Si6 1.656811 1_655
O30 Y11 2.298098 1_555
O30 Y0 2.667277 1_545
O30 Y17 2.723194 1_655
O31 Si9 1.656809 1_655
O31 Y7 2.298101 1_555
O31 Y3 2.667277 1_565
O31 Y4 2.723201 1_655
O32 Si12 1.656811 1_545
O32 Y12 2.298107 1_555
O32 Y1 2.667286 1_655
O32 Y10 2.723202 1_545
O33 Si0 1.656808 1_555
O33 Y9 2.298104 1_555
O33 Y15 2.667277 1_445
O33 Y8 2.723187 1_555
O34 Si17 1.656811 1_565
O34 Y9 2.298107 1_555
O34 Y15 2.667286 1_455
O34 Y8 2.723202 1_565
O35 Si3 1.659090 1_555
O35 Y6 2.251188 1_555
O35 Y14 2.579644 1_555
O35 Y16 2.632163 1_655
