# generated using pymatgen
data_CoAsSe
_symmetry_space_group_name_H-M   'P 1'
_cell_length_a   5.73336531
_cell_length_b   5.81912792
_cell_length_c   11.46488735
_cell_angle_alpha   90.00000000
_cell_angle_beta   90.00000000
_cell_angle_gamma   90.00000000
_symmetry_Int_Tables_number   1
_chemical_formula_structural   CoAsSe
_chemical_formula_sum   'Co8 As8 Se8'
_cell_volume   382.50517086
_cell_formula_units_Z   8
loop_
 _symmetry_equiv_pos_site_id
 _symmetry_equiv_pos_as_xyz
  1  'x, y, z'
loop_
 _atom_site_type_symbol
 _atom_site_label
 _atom_site_symmetry_multiplicity
 _atom_site_fract_x
 _atom_site_fract_y
 _atom_site_fract_z
 _atom_site_occupancy
  Co  Co0  1  0.00333628  0.17607509  0.37344258  1
  Co  Co1  1  0.50333628  0.32392491  0.62655742  1
  Co  Co2  1  0.99666372  0.67607509  0.12655742  1
  Co  Co3  1  0.49666372  0.82392491  0.87344258  1
  Co  Co4  1  0.99666372  0.82392491  0.62655742  1
  Co  Co5  1  0.49666372  0.67607509  0.37344258  1
  Co  Co6  1  0.00333628  0.32392491  0.87344258  1
  Co  Co7  1  0.50333628  0.17607509  0.12655742  1
  As  As0  1  0.36894770  0.31534295  0.43459080  1
  As  As1  1  0.86894770  0.18465705  0.56540920  1
  As  As2  1  0.63105230  0.81534295  0.06540920  1
  As  As3  1  0.13105230  0.68465705  0.93459080  1
  As  As4  1  0.63105230  0.68465705  0.56540920  1
  As  As5  1  0.13105230  0.81534295  0.43459080  1
  As  As6  1  0.36894770  0.18465705  0.93459080  1
  As  As7  1  0.86894770  0.31534295  0.06540920  1
  Se  Se0  1  0.12113314  0.06019471  0.17984679  1
  Se  Se1  1  0.62113314  0.43980529  0.82015321  1
  Se  Se2  1  0.87886686  0.56019471  0.32015321  1
  Se  Se3  1  0.37886686  0.93980529  0.67984679  1
  Se  Se4  1  0.87886686  0.93980529  0.82015321  1
  Se  Se5  1  0.37886686  0.56019471  0.17984679  1
  Se  Se6  1  0.12113314  0.43980529  0.67984679  1
  Se  Se7  1  0.62113314  0.06019471  0.32015321  1
loop_
_geom_bond_atom_site_label_1
_geom_bond_atom_site_label_2
_geom_bond_distance
_geom_bond_site_symmetry_2
Co0 Se7 2.372724 1_455
Co0 Se0 2.416042 1_555
Co0 Se2 2.424631 1_455
Co1 Se6 2.372724 1_555
Co1 Se1 2.416042 1_555
Co1 Se3 2.424631 1_545
Co2 Se5 2.372724 1_655
Co2 Se2 2.416042 1_555
Co2 Se0 2.424631 1_665
Co3 Se4 2.372724 1_555
Co3 Se3 2.416042 1_555
Co3 Se1 2.424631 1_555
Co4 Se3 2.372724 1_655
Co4 Se4 2.416042 1_555
Co4 Se6 2.424631 1_655
Co5 Se2 2.372724 1_555
Co5 Se5 2.416042 1_555
Co5 Se7 2.424631 1_565
Co6 Se1 2.372724 1_455
Co6 Se6 2.416042 1_555
Co6 Se4 2.424631 1_445
Co7 Se0 2.372724 1_555
Co7 Se7 2.416042 1_555
Co7 Se5 2.424631 1_555
As0 Co5 2.331111 1_555
As0 Co1 2.332384 1_555
As0 Co0 2.354197 1_555
As0 Se7 2.452831 1_555
As1 Co4 2.331111 1_545
As1 Co0 2.332384 1_655
As1 Co1 2.354197 1_555
As1 Se6 2.452831 1_655
As2 Co7 2.331111 1_565
As2 Co3 2.332384 1_554
As2 Co2 2.354197 1_555
As2 Se5 2.452831 1_555
As3 Co6 2.331111 1_555
As3 Co2 2.332384 1_456
As3 Co3 2.354197 1_555
As3 Se4 2.452831 1_455
As4 Co1 2.331111 1_555
As4 Co5 2.332384 1_555
As4 Co4 2.354197 1_555
As4 Se3 2.452831 1_555
As5 Co0 2.331111 1_565
As5 Co4 2.332384 1_455
As5 Co5 2.354197 1_555
As5 Se2 2.452831 1_455
As6 Co3 2.331111 1_545
As6 Co7 2.332384 1_556
As6 Co6 2.354197 1_555
As6 Se1 2.452831 1_555
As7 Co2 2.331111 1_555
As7 Co6 2.332384 1_654
As7 Co7 2.354197 1_555
As7 Se0 2.452831 1_655
