# generated using pymatgen
data_Tm2Ru2O7
_symmetry_space_group_name_H-M   'P 1'
_cell_length_a   7.16437762
_cell_length_b   7.16437762
_cell_length_c   7.16437762
_cell_angle_alpha   60.00000000
_cell_angle_beta   60.00000000
_cell_angle_gamma   60.00000000
_symmetry_Int_Tables_number   1
_chemical_formula_structural   Tm2Ru2O7
_chemical_formula_sum   'Tm4 Ru4 O14'
_cell_volume   260.02817528
_cell_formula_units_Z   2
loop_
 _symmetry_equiv_pos_site_id
 _symmetry_equiv_pos_as_xyz
  1  'x, y, z'
loop_
 _atom_site_type_symbol
 _atom_site_label
 _atom_site_symmetry_multiplicity
 _atom_site_fract_x
 _atom_site_fract_y
 _atom_site_fract_z
 _atom_site_occupancy
  Tm  Tm0  1  0.12500000  0.12500000  0.62500000  1
  Tm  Tm1  1  0.12500000  0.12500000  0.12500000  1
  Tm  Tm2  1  0.62500000  0.12500000  0.12500000  1
  Tm  Tm3  1  0.12500000  0.62500000  0.12500000  1
  Ru  Ru0  1  0.62500000  0.62500000  0.62500000  1
  Ru  Ru1  1  0.12500000  0.62500000  0.62500000  1
  Ru  Ru2  1  0.62500000  0.12500000  0.62500000  1
  Ru  Ru3  1  0.62500000  0.62500000  0.12500000  1
  O  O0  1  0.53740200  0.53740200  0.96259800  1
  O  O1  1  0.96259800  0.53740200  0.96259800  1
  O  O2  1  0.28740200  0.28740200  0.71259800  1
  O  O3  1  0.00000000  0.00000000  0.00000000  1
  O  O4  1  0.28740200  0.71259800  0.71259800  1
  O  O5  1  0.71259800  0.71259800  0.28740200  1
  O  O6  1  0.71259800  0.28740200  0.28740200  1
  O  O7  1  0.53740200  0.96259800  0.53740200  1
  O  O8  1  0.71259800  0.28740200  0.71259800  1
  O  O9  1  0.53740200  0.96259800  0.96259800  1
  O  O10  1  0.96259800  0.96259800  0.53740200  1
  O  O11  1  0.25000000  0.25000000  0.25000000  1
  O  O12  1  0.28740200  0.71259800  0.28740200  1
  O  O13  1  0.96259800  0.53740200  0.53740200  1
loop_
_geom_bond_atom_site_label_1
_geom_bond_atom_site_label_2
_geom_bond_distance
_geom_bond_site_symmetry_2
O0 Ru0 1.998936 1_555
O0 Ru3 1.998936 1_556
O0 Tm3 2.432186 1_556
O0 Tm2 2.432186 1_556
O1 Ru3 1.998936 1_556
O1 Ru1 1.998936 1_655
O1 Tm1 2.432186 1_656
O1 Tm3 2.432186 1_656
O2 Ru1 1.998936 1_555
O2 Ru2 1.998936 1_555
O2 Tm0 2.432186 1_555
O2 Tm1 2.432186 1_556
O3 Tm3 2.193634 1_545
O3 Tm1 2.193634 1_555
O3 Tm2 2.193634 1_455
O3 Tm0 2.193634 1_554
O4 Ru1 1.998936 1_555
O4 Ru0 1.998936 1_555
O4 Tm0 2.432186 1_565
O4 Tm3 2.432186 1_556
O5 Ru3 1.998936 1_555
O5 Ru0 1.998936 1_555
O5 Tm3 2.432186 1_655
O5 Tm2 2.432186 1_565
O6 Ru3 1.998936 1_555
O6 Ru2 1.998936 1_555
O6 Tm2 2.432186 1_555
O6 Tm1 2.432186 1_655
O7 Ru0 1.998936 1_555
O7 Ru2 1.998936 1_565
O7 Tm2 2.432186 1_565
O7 Tm0 2.432186 1_565
O8 Ru2 1.998936 1_555
O8 Ru0 1.998936 1_555
O8 Tm0 2.432186 1_655
O8 Tm2 2.432186 1_556
O9 Ru2 1.998936 1_565
O9 Ru3 1.998936 1_556
O9 Tm2 2.432186 1_566
O9 Tm1 2.432186 1_566
O10 Ru2 1.998936 1_565
O10 Ru1 1.998936 1_655
O10 Tm0 2.432186 1_665
O10 Tm1 2.432186 1_665
O11 Tm3 2.193634 1_555
O11 Tm1 2.193634 1_555
O11 Tm0 2.193634 1_555
O11 Tm2 2.193634 1_555
O12 Ru1 1.998936 1_555
O12 Ru3 1.998936 1_555
O12 Tm3 2.432186 1_555
O12 Tm1 2.432186 1_565
O13 Ru1 1.998936 1_655
O13 Ru0 1.998936 1_555
O13 Tm0 2.432186 1_655
O13 Tm3 2.432186 1_655
