# generated using pymatgen
data_Ga8Cu3Mo2
_symmetry_space_group_name_H-M   'P 1'
_cell_length_a   10.40503022
_cell_length_b   10.40503022
_cell_length_c   10.40503022
_cell_angle_alpha   109.47122063
_cell_angle_beta   109.47122063
_cell_angle_gamma   109.47122063
_symmetry_Int_Tables_number   1
_chemical_formula_structural   Ga8Cu3Mo2
_chemical_formula_sum   'Ga32 Cu12 Mo8'
_cell_volume   867.17779203
_cell_formula_units_Z   4
loop_
 _symmetry_equiv_pos_site_id
 _symmetry_equiv_pos_as_xyz
  1  'x, y, z'
loop_
 _atom_site_type_symbol
 _atom_site_label
 _atom_site_symmetry_multiplicity
 _atom_site_fract_x
 _atom_site_fract_y
 _atom_site_fract_z
 _atom_site_occupancy
  Ga  Ga0  1  0.99242100  0.49237300  0.25762400  1
  Ga  Ga1  1  0.00000000  0.71305000  0.50000000  1
  Ga  Ga2  1  0.76520400  0.49995200  0.50757900  1
  Ga  Ga3  1  0.73479600  0.24237600  0.73474800  1
  Ga  Ga4  1  0.50000000  0.00000000  0.71305000  1
  Ga  Ga5  1  0.00004800  0.76525200  0.00762700  1
  Ga  Ga6  1  0.50762700  0.26525200  0.50004800  1
  Ga  Ga7  1  0.76525200  0.00762700  0.00004800  1
  Ga  Ga8  1  0.28695000  0.28695000  0.28695000  1
  Ga  Ga9  1  0.49995200  0.50757900  0.76520400  1
  Ga  Ga10  1  0.71305000  0.50000000  0.00000000  1
  Ga  Ga11  1  0.21305000  0.50000000  0.00000000  1
  Ga  Ga12  1  0.26525200  0.50004800  0.50762700  1
  Ga  Ga13  1  0.50757900  0.76520400  0.49995200  1
  Ga  Ga14  1  0.50000000  0.00000000  0.21305000  1
  Ga  Ga15  1  0.99237300  0.49242100  0.75762400  1
  Ga  Ga16  1  0.78695000  0.78695000  0.78695000  1
  Ga  Ga17  1  0.00000000  0.21305000  0.50000000  1
  Ga  Ga18  1  0.49242100  0.75762400  0.99237300  1
  Ga  Ga19  1  0.00762700  0.00004800  0.76525200  1
  Ga  Ga20  1  0.75762400  0.99237300  0.49242100  1
  Ga  Ga21  1  0.50004800  0.50762700  0.26525200  1
  Ga  Ga22  1  0.74237600  0.23479600  0.23474800  1
  Ga  Ga23  1  0.24237600  0.73474800  0.73479600  1
  Ga  Ga24  1  0.23474800  0.74237600  0.23479600  1
  Ga  Ga25  1  0.99995200  0.26520400  0.00757900  1
  Ga  Ga26  1  0.00757900  0.99995200  0.26520400  1
  Ga  Ga27  1  0.73474800  0.73479600  0.24237600  1
  Ga  Ga28  1  0.26520400  0.00757900  0.99995200  1
  Ga  Ga29  1  0.23479600  0.23474800  0.74237600  1
  Ga  Ga30  1  0.25762400  0.99242100  0.49237300  1
  Ga  Ga31  1  0.49237300  0.25762400  0.99242100  1
  Cu  Cu0  1  0.75000000  0.23564500  0.48564500  1
  Cu  Cu1  1  0.23564500  0.48564500  0.75000000  1
  Cu  Cu2  1  0.76435500  0.75000000  0.51435500  1
  Cu  Cu3  1  0.48564500  0.75000000  0.23564500  1
  Cu  Cu4  1  0.25000000  0.98564500  0.73564500  1
  Cu  Cu5  1  0.98564500  0.73564500  0.25000000  1
  Cu  Cu6  1  0.73564500  0.25000000  0.98564500  1
  Cu  Cu7  1  0.75000000  0.51435500  0.76435500  1
  Cu  Cu8  1  0.25000000  0.26435500  0.01435500  1
  Cu  Cu9  1  0.26435500  0.01435500  0.25000000  1
  Cu  Cu10  1  0.51435500  0.76435500  0.75000000  1
  Cu  Cu11  1  0.01435500  0.25000000  0.26435500  1
  Mo  Mo0  1  0.50000000  0.00000000  0.96075200  1
  Mo  Mo1  1  0.46075200  0.50000000  0.00000000  1
  Mo  Mo2  1  0.96075200  0.50000000  0.00000000  1
  Mo  Mo3  1  0.53924800  0.53924800  0.53924800  1
  Mo  Mo4  1  0.00000000  0.46075200  0.50000000  1
  Mo  Mo5  1  0.00000000  0.96075200  0.50000000  1
  Mo  Mo6  1  0.50000000  0.00000000  0.46075200  1
  Mo  Mo7  1  0.03924800  0.03924800  0.03924800  1
loop_
_geom_bond_atom_site_label_1
_geom_bond_atom_site_label_2
_geom_bond_distance
_geom_bond_site_symmetry_2
Ga0 Mo2 2.621222 1_555
Ga0 Mo4 2.629160 1_655
Ga0 Ga1 2.743149 1_655
Ga0 Ga25 2.919211 1_555
Ga0 Ga22 2.919217 1_555
Ga0 Ga24 3.101489 1_655
Ga0 Ga12 3.101495 1_655
Ga1 Mo5 2.577347 1_555
Ga1 Mo4 2.625168 1_555
Ga1 Ga2 2.743143 1_455
Ga1 Ga23 2.743149 1_555
Ga2 Mo3 2.621232 1_555
Ga2 Mo4 2.629150 1_655
Ga2 Ga6 2.919217 1_555
Ga2 Ga21 3.101490 1_555
Ga2 Ga22 3.101495 1_555
Ga3 Mo2 2.621229 1_556
Ga3 Mo6 2.629153 1_555
Ga3 Ga4 2.743149 1_555
Ga3 Ga6 2.919211 1_555
Ga4 Mo0 2.577347 1_555
Ga4 Mo6 2.625168 1_555
Ga5 Mo2 2.621232 1_455
Ga5 Mo7 2.629150 1_565
Ga6 Mo6 2.621232 1_555
Ga6 Mo3 2.629150 1_555
Ga6 Ga8 2.743143 1_555
Ga6 Ga9 3.101490 1_555
Ga7 Mo0 2.621232 1_554
Ga7 Mo7 2.629150 1_655
Ga8 Mo7 2.577347 1_555
Ga8 Mo3 2.625168 1_555
Ga9 Mo3 2.621232 1_555
Ga9 Mo1 2.629150 1_556
Ga10 Mo2 2.577347 1_555
Ga10 Mo1 2.625168 1_555
Ga10 Ga9 2.743143 1_554
Ga10 Ga27 2.743149 1_555
Ga10 Ga31 2.743149 1_554
Ga11 Mo1 2.577347 1_555
Ga11 Mo2 2.625168 1_455
Ga11 Ga25 2.743143 1_455
Ga11 Ga24 2.743149 1_555
Ga11 Ga15 2.743149 1_454
Ga12 Mo4 2.621232 1_555
Ga12 Mo3 2.629150 1_555
Ga12 Ga8 2.743143 1_555
Ga12 Ga23 2.919211 1_555
Ga12 Ga9 2.919217 1_555
Ga12 Ga13 3.101490 1_555
Ga13 Mo3 2.621232 1_555
Ga13 Mo6 2.629150 1_565
Ga13 Ga4 2.743143 1_565
Ga13 Ga20 2.919211 1_555
Ga13 Ga21 2.919217 1_555
Ga13 Ga24 3.101495 1_555
Ga14 Mo6 2.577347 1_555
Ga14 Mo0 2.625168 1_554
Ga14 Ga28 2.743143 1_554
Ga14 Ga22 2.743149 1_555
Ga14 Ga18 2.743149 1_544
Ga15 Mo4 2.621222 1_655
Ga15 Mo2 2.629160 1_556
Ga15 Ga2 2.919211 1_555
Ga15 Ga3 2.919217 1_555
Ga15 Ga23 3.101489 1_655
Ga15 Ga5 3.101495 1_656
Ga16 Mo3 2.577347 1_555
Ga16 Mo7 2.625168 1_666
Ga16 Ga19 2.743143 1_665
Ga16 Ga7 2.743143 1_566
Ga16 Ga5 2.743143 1_656
Ga17 Mo4 2.577347 1_555
Ga17 Mo5 2.625168 1_545
Ga17 Ga26 2.743143 1_545
Ga17 Ga29 2.743149 1_555
Ga17 Ga20 2.743149 1_445
Ga18 Mo1 2.621222 1_556
Ga18 Mo0 2.629160 1_565
Ga18 Ga9 2.919211 1_555
Ga18 Ga23 2.919217 1_555
Ga18 Ga27 3.101489 1_556
Ga18 Ga7 3.101495 1_566
Ga19 Mo5 2.621232 1_545
Ga19 Mo7 2.629150 1_556
Ga19 Ga29 2.919211 1_555
Ga19 Ga28 2.919217 1_555
Ga19 Ga25 3.101490 1_456
Ga19 Ga20 3.101495 1_445
Ga20 Mo6 2.621222 1_565
Ga20 Mo5 2.629160 1_655
Ga20 Ga27 2.919217 1_555
Ga20 Ga3 3.101489 1_565
Ga21 Mo1 2.621232 1_555
Ga21 Mo3 2.629150 1_555
Ga21 Ga8 2.743143 1_555
Ga21 Ga27 2.919211 1_555
Ga21 Ga31 3.101495 1_554
Ga22 Mo4 2.621229 1_655
Ga22 Mo0 2.629153 1_554
Ga22 Ga7 2.919211 1_555
Ga22 Ga31 3.101489 1_554
Ga23 Mo0 2.621229 1_565
Ga23 Mo4 2.629153 1_555
Ga23 Ga28 3.101495 1_565
Ga24 Mo6 2.621229 1_565
Ga24 Mo2 2.629153 1_455
Ga24 Ga5 2.919211 1_555
Ga24 Ga30 2.919217 1_555
Ga25 Mo7 2.621232 1_655
Ga25 Mo2 2.629150 1_555
Ga25 Ga7 2.919217 1_555
Ga25 Ga3 3.101495 1_554
Ga26 Mo7 2.621232 1_565
Ga26 Mo5 2.629150 1_555
Ga26 Ga30 2.919211 1_555
Ga26 Ga5 2.919217 1_555
Ga26 Ga7 3.101490 1_465
Ga26 Ga27 3.101495 1_455
Ga27 Mo5 2.621229 1_655
Ga27 Mo1 2.629153 1_555
Ga28 Mo7 2.621232 1_556
Ga28 Mo0 2.629150 1_555
Ga28 Ga31 2.919211 1_555
Ga28 Ga5 3.101490 1_546
Ga29 Mo1 2.621229 1_556
Ga29 Mo5 2.629153 1_545
Ga29 Ga31 2.919217 1_555
Ga29 Ga30 3.101489 1_545
Ga29 Ga9 3.101495 1_555
Ga30 Mo5 2.621222 1_555
Ga30 Mo6 2.629160 1_565
Ga30 Ga4 2.743149 1_565
Ga30 Ga6 3.101495 1_565
Ga31 Mo0 2.621222 1_555
Ga31 Mo1 2.629160 1_556
Cu0 Ga20 2.582173 1_545
Cu0 Ga22 2.582180 1_555
Cu0 Ga3 2.628256 1_555
Cu0 Ga2 2.628259 1_555
Cu0 Ga14 2.648814 1_555
Cu0 Ga17 2.648814 1_655
Cu0 Ga15 2.686341 1_555
Cu0 Ga6 2.686345 1_555
Cu0 Mo4 2.778642 1_655
Cu0 Mo6 2.778642 1_555
Cu1 Ga15 2.582173 1_455
Cu1 Ga29 2.582180 1_555
Cu1 Ga23 2.628256 1_555
Cu1 Ga9 2.628259 1_555
Cu1 Ga11 2.648814 1_556
Cu1 Ga17 2.648814 1_555
Cu1 Ga18 2.686341 1_555
Cu1 Ga12 2.686345 1_555
Cu1 Mo4 2.778642 1_555
Cu1 Mo1 2.778642 1_556
Cu2 Ga19 2.582177 1_665
Cu2 Ga2 2.582177 1_555
Cu2 Ga21 2.628259 1_555
Cu2 Ga20 2.628262 1_555
Cu2 Ga1 2.648814 1_655
Cu2 Ga16 2.648814 1_555
Cu2 Ga27 2.686334 1_555
Cu2 Ga13 2.686345 1_555
Cu2 Mo5 2.778642 1_655
Cu2 Mo3 2.778642 1_555
Cu3 Ga18 2.582173 1_554
Cu3 Ga24 2.582180 1_555
Cu3 Ga27 2.628256 1_555
Cu3 Ga13 2.628259 1_555
Cu3 Ga14 2.648814 1_565
Cu3 Ga11 2.648814 1_555
Cu3 Ga20 2.686341 1_555
Cu3 Ga21 2.686345 1_555
Cu3 Mo6 2.778642 1_565
Cu3 Mo1 2.778642 1_555
Cu4 Ga30 2.582173 1_555
Cu4 Ga23 2.582180 1_555
Cu4 Ga29 2.628256 1_565
Cu4 Ga28 2.628259 1_565
Cu4 Ga1 2.648814 1_555
Cu4 Ga4 2.648814 1_565
Cu4 Ga31 2.686341 1_565
Cu4 Ga19 2.686345 1_565
Cu4 Mo5 2.778642 1_555
Cu4 Mo0 2.778642 1_565
Cu5 Ga0 2.582173 1_555
Cu5 Ga27 2.582180 1_555
Cu5 Ga24 2.628256 1_655
Cu5 Ga26 2.628259 1_655
Cu5 Ga1 2.648814 1_655
Cu5 Ga10 2.648814 1_555
Cu5 Ga30 2.686341 1_655
Cu5 Ga5 2.686345 1_655
Cu5 Mo5 2.778642 1_655
Cu5 Mo2 2.778642 1_555
Cu6 Ga31 2.582173 1_555
Cu6 Ga3 2.582180 1_555
Cu6 Ga22 2.628256 1_556
Cu6 Ga25 2.628259 1_556
Cu6 Ga4 2.648814 1_555
Cu6 Ga10 2.648814 1_556
Cu6 Ga0 2.686341 1_556
Cu6 Ga7 2.686345 1_556
Cu6 Mo2 2.778642 1_556
Cu6 Mo0 2.778642 1_555
Cu7 Ga5 2.582177 1_656
Cu7 Ga9 2.582177 1_555
Cu7 Ga6 2.628259 1_555
Cu7 Ga15 2.628262 1_555
Cu7 Ga10 2.648814 1_556
Cu7 Ga16 2.648814 1_555
Cu7 Ga3 2.686334 1_555
Cu7 Ga2 2.686345 1_555
Cu7 Mo2 2.778642 1_556
Cu7 Mo3 2.778642 1_555
Cu8 Ga21 2.582177 1_555
Cu8 Ga25 2.582177 1_455
Cu8 Ga19 2.628259 1_554
Cu8 Ga31 2.628262 1_554
Cu8 Ga11 2.648814 1_555
Cu8 Ga8 2.648814 1_555
Cu8 Ga29 2.686334 1_554
Cu8 Ga28 2.686345 1_554
Cu8 Mo1 2.778642 1_555
Cu8 Mo7 2.778642 1_555
Cu9 Ga6 2.582177 1_555
Cu9 Ga28 2.582177 1_554
Cu9 Ga5 2.628259 1_545
Cu9 Ga30 2.628262 1_545
Cu9 Ga14 2.648814 1_555
Cu9 Ga8 2.648814 1_555
Cu9 Ga24 2.686334 1_545
Cu9 Ga26 2.686345 1_545
Cu9 Mo7 2.778642 1_555
Cu9 Mo6 2.778642 1_555
Cu10 Ga7 2.582177 1_566
Cu10 Ga13 2.582177 1_555
Cu10 Ga12 2.628259 1_555
Cu10 Ga18 2.628262 1_555
Cu10 Ga4 2.648814 1_565
Cu10 Ga16 2.648814 1_555
Cu10 Ga23 2.686334 1_555
Cu10 Ga9 2.686345 1_555
Cu10 Mo0 2.778642 1_565
Cu10 Mo3 2.778642 1_555
Cu11 Ga12 2.582177 1_555
Cu11 Ga26 2.582177 1_545
Cu11 Ga7 2.628259 1_455
Cu11 Ga0 2.628262 1_455
Cu11 Ga17 2.648814 1_555
Cu11 Ga8 2.648814 1_555
Cu11 Ga22 2.686334 1_455
Cu11 Ga25 2.686345 1_455
Cu11 Mo7 2.778642 1_555
Cu11 Mo4 2.778642 1_555
