# generated using pymatgen
data_TmAu3
_symmetry_space_group_name_H-M   'P 1'
_cell_length_a   5.09705011
_cell_length_b   4.95824302
_cell_length_c   6.07833296
_cell_angle_alpha   90.00000000
_cell_angle_beta   90.00000000
_cell_angle_gamma   90.00000000
_symmetry_Int_Tables_number   1
_chemical_formula_structural   TmAu3
_chemical_formula_sum   'Tm2 Au6'
_cell_volume   153.61414171
_cell_formula_units_Z   2
loop_
 _symmetry_equiv_pos_site_id
 _symmetry_equiv_pos_as_xyz
  1  'x, y, z'
loop_
 _atom_site_type_symbol
 _atom_site_label
 _atom_site_symmetry_multiplicity
 _atom_site_fract_x
 _atom_site_fract_y
 _atom_site_fract_z
 _atom_site_occupancy
  Tm  Tm0  1  0.34571710  0.75000000  0.75000000  1
  Tm  Tm1  1  0.65428290  0.25000000  0.25000000  1
  Au  Au0  1  0.66436628  0.25000000  0.75000000  1
  Au  Au1  1  0.16122736  0.25000000  0.50510289  1
  Au  Au2  1  0.16122736  0.25000000  0.99489711  1
  Au  Au3  1  0.83877264  0.75000000  0.00510289  1
  Au  Au4  1  0.33563372  0.75000000  0.25000000  1
  Au  Au5  1  0.83877264  0.75000000  0.49489711  1
loop_
_geom_bond_atom_site_label_1
_geom_bond_atom_site_label_2
_geom_bond_distance
_geom_bond_site_symmetry_2
Au0 Au2 2.937604 1_655
Au0 Au1 2.937604 1_655
Au0 Tm0 2.963777 1_555
Au0 Tm0 2.963777 1_545
Au0 Au2 2.965234 1_555
Au0 Au1 2.965234 1_555
Au0 Tm1 3.039601 1_556
Au0 Tm1 3.039601 1_555
Au0 Au5 3.056248 1_555
Au0 Au5 3.056248 1_545
Au0 Au3 3.056248 1_556
Au0 Au3 3.056248 1_546
Au1 Tm1 2.952995 1_555
Au1 Au5 2.975098 1_445
Au1 Au5 2.975098 1_455
Au1 Au2 2.977132 1_555
Au1 Tm1 3.013472 1_455
Au1 Tm0 3.040746 1_555
Au1 Tm0 3.040746 1_545
Au1 Au4 3.056248 1_545
Au1 Au4 3.056248 1_555
Au1 Au2 3.101201 1_554
Au2 Tm1 2.952995 1_556
Au2 Au3 2.975098 1_446
Au2 Au3 2.975098 1_456
Au2 Tm1 3.013472 1_456
Au2 Tm0 3.040746 1_555
Au2 Tm0 3.040746 1_545
Au2 Au4 3.056248 1_556
Au2 Au4 3.056248 1_546
Au3 Au4 2.937604 1_655
Au3 Tm0 2.952995 1_554
Au3 Au4 2.965234 1_555
Au3 Au5 2.977132 1_555
Au3 Tm0 3.013472 1_654
Au3 Tm1 3.040746 1_555
Au3 Tm1 3.040746 1_565
Au3 Au5 3.101201 1_554
Au4 Au5 2.937604 1_455
Au4 Tm1 2.963777 1_565
Au4 Tm1 2.963777 1_555
Au4 Au5 2.965234 1_555
Au4 Tm0 3.039601 1_555
Au4 Tm0 3.039601 1_554
Au5 Tm0 2.952995 1_555
Au5 Tm0 3.013472 1_655
Au5 Tm1 3.040746 1_565
Au5 Tm1 3.040746 1_555
