# generated using pymatgen
data_La6S4N3Cl
_symmetry_space_group_name_H-M   'P 1'
_cell_length_a   4.11846600
_cell_length_b   11.91534200
_cell_length_c   27.23135600
_cell_angle_alpha   90.00000000
_cell_angle_beta   90.00000000
_cell_angle_gamma   90.00000000
_symmetry_Int_Tables_number   1
_chemical_formula_structural   La6S4N3Cl
_chemical_formula_sum   'La24 S16 N12 Cl4'
_cell_volume   1336.32245145
_cell_formula_units_Z   4
loop_
 _symmetry_equiv_pos_site_id
 _symmetry_equiv_pos_as_xyz
  1  'x, y, z'
loop_
 _atom_site_type_symbol
 _atom_site_label
 _atom_site_symmetry_multiplicity
 _atom_site_fract_x
 _atom_site_fract_y
 _atom_site_fract_z
 _atom_site_occupancy
  La  La0  1  0.25000000  0.73277700  0.56498900  1
  La  La1  1  0.75000000  0.55810200  0.92604600  1
  La  La2  1  0.25000000  0.40912900  0.54040500  1
  La  La3  1  0.25000000  0.73787500  0.83001000  1
  La  La4  1  0.25000000  0.88464300  0.20580100  1
  La  La5  1  0.25000000  0.94526000  0.68977400  1
  La  La6  1  0.25000000  0.44189800  0.07395400  1
  La  La7  1  0.75000000  0.11535700  0.79419900  1
  La  La8  1  0.75000000  0.05474000  0.31022600  1
  La  La9  1  0.75000000  0.05810200  0.57395400  1
  La  La10  1  0.75000000  0.26212500  0.16999000  1
  La  La11  1  0.75000000  0.59087100  0.45959500  1
  La  La12  1  0.75000000  0.61535700  0.70580100  1
  La  La13  1  0.25000000  0.94189800  0.42604600  1
  La  La14  1  0.75000000  0.76212500  0.33001000  1
  La  La15  1  0.25000000  0.23787500  0.66999000  1
  La  La16  1  0.25000000  0.38464300  0.29419900  1
  La  La17  1  0.25000000  0.23277700  0.93501100  1
  La  La18  1  0.75000000  0.09087100  0.04040500  1
  La  La19  1  0.75000000  0.76722300  0.06498900  1
  La  La20  1  0.25000000  0.90912900  0.95959500  1
  La  La21  1  0.75000000  0.26722300  0.43501100  1
  La  La22  1  0.25000000  0.44526000  0.81022600  1
  La  La23  1  0.75000000  0.55474000  0.18977400  1
  S  S0  1  0.25000000  0.71374400  0.39586200  1
  S  S1  1  0.25000000  0.54456500  0.63607100  1
  S  S2  1  0.25000000  0.14730600  0.49464700  1
  S  S3  1  0.75000000  0.31919300  0.86114700  1
  S  S4  1  0.25000000  0.68080700  0.13885300  1
  S  S5  1  0.75000000  0.78625600  0.89586200  1
  S  S6  1  0.75000000  0.81919300  0.63885300  1
  S  S7  1  0.25000000  0.21374400  0.10413800  1
  S  S8  1  0.25000000  0.18080700  0.36114700  1
  S  S9  1  0.25000000  0.64730600  0.00535300  1
  S  S10  1  0.75000000  0.45543500  0.36392900  1
  S  S11  1  0.25000000  0.04456500  0.86392900  1
  S  S12  1  0.75000000  0.85269400  0.50535300  1
  S  S13  1  0.75000000  0.35269400  0.99464700  1
  S  S14  1  0.75000000  0.95543500  0.13607100  1
  S  S15  1  0.75000000  0.28625600  0.60413800  1
  N  N0  1  0.75000000  0.40347000  0.48937400  1
  N  N1  1  0.75000000  0.93607900  0.37522100  1
  N  N2  1  0.25000000  0.61081700  0.76123500  1
  N  N3  1  0.25000000  0.06392100  0.62477900  1
  N  N4  1  0.25000000  0.11081700  0.73876500  1
  N  N5  1  0.75000000  0.90347000  0.01062600  1
  N  N6  1  0.75000000  0.43607900  0.12477900  1
  N  N7  1  0.25000000  0.59653000  0.51062600  1
  N  N8  1  0.25000000  0.09653000  0.98937400  1
  N  N9  1  0.25000000  0.56392100  0.87522100  1
  N  N10  1  0.75000000  0.38918300  0.23876500  1
  N  N11  1  0.75000000  0.88918300  0.26123500  1
  Cl  Cl0  1  0.25000000  0.63568600  0.26544200  1
  Cl  Cl1  1  0.75000000  0.86431400  0.76544200  1
  Cl  Cl2  1  0.25000000  0.13568600  0.23455800  1
  Cl  Cl3  1  0.75000000  0.36431400  0.73455800  1
loop_
_geom_bond_atom_site_label_1
_geom_bond_atom_site_label_2
_geom_bond_distance
_geom_bond_site_symmetry_2
La0 N7 2.197053 1_555
La0 S1 2.962445 1_555
La0 S12 2.986526 1_455
La0 S12 2.986526 1_555
La0 S6 3.057200 1_455
La0 S6 3.057200 1_555
La1 N9 2.482095 1_655
La1 N9 2.482095 1_555
La1 S5 2.840075 1_555
La1 S13 3.078974 1_555
La1 S9 3.167684 1_556
La1 S9 3.167684 1_656
La1 S3 3.350658 1_555
La2 N7 2.375636 1_555
La2 N0 2.485175 1_555
La2 N0 2.485175 1_455
La2 S1 3.064452 1_555
La2 S15 3.065296 1_455
La2 S15 3.065296 1_555
La2 S2 3.359351 1_555
La3 N2 2.408221 1_555
La3 N9 2.410793 1_555
La3 S5 2.790783 1_555
La3 S5 2.790783 1_455
La4 N11 2.553838 1_555
La4 N11 2.553838 1_455
La4 S14 2.925330 1_555
La4 S14 2.925330 1_455
La4 S4 3.036872 1_555
La5 N3 2.265310 1_565
La5 N4 2.381432 1_565
La5 S6 2.901660 1_455
La5 S6 2.901660 1_555
La6 N6 2.482095 1_555
La6 N6 2.482095 1_455
La6 S7 2.840075 1_555
La6 S9 3.078974 1_555
La6 S13 3.167684 1_454
La6 S13 3.167684 1_554
La6 S4 3.350658 1_555
La7 N4 2.553838 1_655
La7 N4 2.553838 1_555
La7 S11 2.925330 1_655
La7 S11 2.925330 1_555
La7 S3 3.036872 1_555
La8 N1 2.265310 1_545
La8 N11 2.381432 1_545
La8 S8 2.901660 1_655
La8 S8 2.901660 1_555
La9 N3 2.482095 1_555
La9 N3 2.482095 1_655
La9 S15 2.840075 1_555
La9 S12 3.078974 1_545
La9 S2 3.167684 1_555
La9 S2 3.167684 1_655
La9 S6 3.350658 1_545
La10 N10 2.408221 1_555
La10 N6 2.410793 1_555
La10 S7 2.790783 1_555
La10 S7 2.790783 1_655
La11 N0 2.375636 1_555
La11 N7 2.485175 1_555
La11 N7 2.485175 1_655
La11 S10 3.064452 1_555
La11 S0 3.065296 1_655
La11 S0 3.065296 1_555
La11 S12 3.359351 1_555
La12 N2 2.553838 1_655
La12 N2 2.553838 1_555
La12 S1 2.925330 1_555
La12 S1 2.925330 1_655
La12 S6 3.036872 1_555
La13 N1 2.482095 1_555
La13 N1 2.482095 1_455
La13 S0 2.840075 1_555
La13 S2 3.078974 1_565
La13 S12 3.167684 1_455
La13 S12 3.167684 1_555
La13 S8 3.350658 1_565
La14 N11 2.408221 1_555
La14 N1 2.410793 1_555
La14 S0 2.790783 1_655
La14 S0 2.790783 1_555
La15 N4 2.408221 1_555
La15 N3 2.410793 1_555
La15 S15 2.790783 1_555
La15 S15 2.790783 1_455
La16 N10 2.553838 1_455
La16 N10 2.553838 1_555
La16 S10 2.925330 1_555
La16 S10 2.925330 1_455
La16 S8 3.036872 1_555
La17 N8 2.197053 1_555
La17 S11 2.962445 1_555
La17 S13 2.986526 1_455
La17 S13 2.986526 1_555
La17 S3 3.057200 1_455
La17 S3 3.057200 1_555
La18 N5 2.375636 1_545
La18 N8 2.485175 1_554
La18 N8 2.485175 1_654
La18 S14 3.064452 1_545
La18 S7 3.065296 1_555
La18 S7 3.065296 1_655
La18 S13 3.359351 1_554
La19 N5 2.197053 1_555
La19 S14 2.962445 1_555
La19 S9 2.986526 1_555
La19 S9 2.986526 1_655
La19 S4 3.057200 1_555
La19 S4 3.057200 1_655
La20 N8 2.375636 1_565
La20 N5 2.485175 1_456
La20 N5 2.485175 1_556
La20 S11 3.064452 1_565
La20 S5 3.065296 1_555
La20 S5 3.065296 1_455
La20 S9 3.359351 1_556
La21 N0 2.197053 1_555
La21 S10 2.962445 1_555
La21 S2 2.986526 1_555
La21 S2 2.986526 1_655
La21 S8 3.057200 1_655
La21 S8 3.057200 1_555
La22 N9 2.265310 1_555
La22 N2 2.381432 1_555
La22 S3 2.901660 1_455
La22 S3 2.901660 1_555
La23 N6 2.265310 1_555
La23 N10 2.381432 1_555
La23 S4 2.901660 1_555
La23 S4 2.901660 1_655
Cl0 La23 3.068637 1_555
Cl0 La23 3.068637 1_455
Cl0 La16 3.092069 1_555
Cl0 La14 3.098662 1_455
Cl0 La14 3.098662 1_555
Cl0 La4 3.381907 1_555
Cl1 La5 3.068637 1_655
Cl1 La5 3.068637 1_555
Cl1 La7 3.092069 1_565
Cl1 La3 3.098662 1_555
Cl1 La3 3.098662 1_655
Cl1 La12 3.381907 1_555
Cl2 La8 3.068637 1_455
Cl2 La8 3.068637 1_555
Cl2 La4 3.092069 1_545
Cl2 La10 3.098662 1_455
Cl2 La10 3.098662 1_555
Cl2 La16 3.381907 1_555
Cl3 La22 3.068637 1_555
Cl3 La22 3.068637 1_655
Cl3 La12 3.092069 1_555
Cl3 La15 3.098662 1_555
Cl3 La15 3.098662 1_655
Cl3 La7 3.381907 1_555
