# generated using pymatgen
data_NdTe2BrO5
_symmetry_space_group_name_H-M   'P 1'
_cell_length_a   10.25693816
_cell_length_b   10.25693816
_cell_length_c   10.25693816
_cell_angle_alpha   149.18697094
_cell_angle_beta   149.18697094
_cell_angle_gamma   44.13616692
_symmetry_Int_Tables_number   1
_chemical_formula_structural   NdTe2BrO5
_chemical_formula_sum   'Nd2 Te4 Br2 O10'
_cell_volume   282.31976626
_cell_formula_units_Z   2
loop_
 _symmetry_equiv_pos_site_id
 _symmetry_equiv_pos_as_xyz
  1  'x, y, z'
loop_
 _atom_site_type_symbol
 _atom_site_label
 _atom_site_symmetry_multiplicity
 _atom_site_fract_x
 _atom_site_fract_y
 _atom_site_fract_z
 _atom_site_occupancy
  Nd  Nd0  1  0.75000000  0.25000000  0.50000000  1
  Nd  Nd1  1  0.25000000  0.75000000  0.50000000  1
  Te  Te0  1  0.87153300  0.87153300  0.00000000  1
  Te  Te1  1  0.39360000  0.39360000  0.00000000  1
  Te  Te2  1  0.12846700  0.12846700  0.00000000  1
  Te  Te3  1  0.60640000  0.60640000  0.00000000  1
  Br  Br0  1  0.50000000  0.00000000  0.50000000  1
  Br  Br1  1  0.00000000  0.50000000  0.50000000  1
  O  O0  1  0.57550000  0.10857200  0.00000000  1
  O  O1  1  0.10857200  0.10857200  0.53307300  1
  O  O2  1  0.89142800  0.89142800  0.46692700  1
  O  O3  1  0.76929700  0.76929700  0.00000000  1
  O  O4  1  0.57550000  0.57550000  0.46692700  1
  O  O5  1  0.23070300  0.23070300  0.00000000  1
  O  O6  1  0.42450000  0.89142800  0.00000000  1
  O  O7  1  0.42450000  0.42450000  0.53307300  1
  O  O8  1  0.89142800  0.42450000  0.00000000  1
  O  O9  1  0.10857200  0.57550000  0.00000000  1
loop_
_geom_bond_atom_site_label_1
_geom_bond_atom_site_label_2
_geom_bond_distance
_geom_bond_site_symmetry_2
Nd0 O2 2.605807 1_545
Nd0 O1 2.605807 1_655
Nd0 O6 2.605813 1_545
Nd0 O8 2.605813 1_556
Nd0 O0 2.605813 1_555
Nd0 O9 2.605813 1_656
Nd0 O7 2.605820 1_555
Nd0 O4 2.605820 1_555
Nd0 O5 2.749501 1_555
Nd0 O3 2.749501 1_556
Nd0 O3 2.749501 1_545
Nd0 O5 2.749501 1_656
Nd1 O2 2.605807 1_455
Nd1 O1 2.605807 1_565
Nd1 O8 2.605813 1_455
Nd1 O9 2.605813 1_555
Nd1 O6 2.605813 1_556
Nd1 O0 2.605813 1_566
Nd1 O7 2.605820 1_555
Nd1 O4 2.605820 1_555
Nd1 O3 2.749501 1_455
Nd1 O5 2.749501 1_555
Nd1 O3 2.749501 1_556
Nd1 O5 2.749501 1_566
O0 Te1 2.049061 1_555
O0 Te0 2.129418 1_545
O1 Te1 2.049063 1_556
O1 Te0 2.129424 1_445
O2 Te3 2.049063 1_555
O2 Te2 2.129424 1_666
O3 Te0 1.943608 1_555
O4 Te1 2.049053 1_555
O4 Te0 2.129419 1_556
O5 Te2 1.943608 1_555
O6 Te3 2.049061 1_555
O6 Te2 2.129418 1_565
O7 Te3 2.049053 1_556
O7 Te2 2.129419 1_555
O8 Te3 2.049061 1_555
O8 Te2 2.129418 1_655
O9 Te1 2.049061 1_555
O9 Te0 2.129418 1_455
