# generated using pymatgen
data_Yb2PbAu2
_symmetry_space_group_name_H-M   'P 1'
_cell_length_a   8.18857900
_cell_length_b   8.18857900
_cell_length_c   7.31990000
_cell_angle_alpha   90.00000000
_cell_angle_beta   90.00000000
_cell_angle_gamma   90.00000000
_symmetry_Int_Tables_number   1
_chemical_formula_structural   Yb2PbAu2
_chemical_formula_sum   'Yb8 Pb4 Au8'
_cell_volume   490.81998132
_cell_formula_units_Z   4
loop_
 _symmetry_equiv_pos_site_id
 _symmetry_equiv_pos_as_xyz
  1  'x, y, z'
loop_
 _atom_site_type_symbol
 _atom_site_label
 _atom_site_symmetry_multiplicity
 _atom_site_fract_x
 _atom_site_fract_y
 _atom_site_fract_z
 _atom_site_occupancy
  Yb  Yb0  1  0.67919900  0.32080100  0.00000000  1
  Yb  Yb1  1  0.82080100  0.82080100  0.50000000  1
  Yb  Yb2  1  0.17919900  0.17919900  0.50000000  1
  Yb  Yb3  1  0.32080100  0.67919900  0.00000000  1
  Yb  Yb4  1  0.16508300  0.16508300  0.00000000  1
  Yb  Yb5  1  0.66508300  0.33491700  0.50000000  1
  Yb  Yb6  1  0.33491700  0.66508300  0.50000000  1
  Yb  Yb7  1  0.83491700  0.83491700  0.00000000  1
  Pb  Pb0  1  0.50000000  0.00000000  0.25000000  1
  Pb  Pb1  1  0.50000000  0.00000000  0.75000000  1
  Pb  Pb2  1  0.00000000  0.50000000  0.25000000  1
  Pb  Pb3  1  0.00000000  0.50000000  0.75000000  1
  Au  Au0  1  0.37588000  0.37588000  0.23606900  1
  Au  Au1  1  0.87588000  0.12412000  0.73606900  1
  Au  Au2  1  0.12412000  0.87588000  0.73606900  1
  Au  Au3  1  0.62412000  0.62412000  0.23606900  1
  Au  Au4  1  0.12412000  0.87588000  0.26393100  1
  Au  Au5  1  0.87588000  0.12412000  0.26393100  1
  Au  Au6  1  0.37588000  0.37588000  0.76393100  1
  Au  Au7  1  0.62412000  0.62412000  0.76393100  1
loop_
_geom_bond_atom_site_label_1
_geom_bond_atom_site_label_2
_geom_bond_distance
_geom_bond_site_symmetry_2
Pb0 Yb2 3.521740 1_555
Pb0 Yb0 3.521740 1_555
Pb0 Yb3 3.521740 1_545
Pb0 Yb1 3.521740 1_545
Pb0 Yb6 3.563346 1_545
Pb0 Yb4 3.563346 1_555
Pb0 Yb5 3.563346 1_555
Pb0 Yb7 3.563346 1_545
Pb1 Yb3 3.521740 1_546
Pb1 Yb2 3.521740 1_555
Pb1 Yb0 3.521740 1_556
Pb1 Yb1 3.521740 1_545
Pb1 Yb6 3.563346 1_545
Pb1 Yb4 3.563346 1_556
Pb1 Yb5 3.563346 1_555
Pb1 Yb7 3.563346 1_546
Pb2 Yb0 3.521740 1_455
Pb2 Yb2 3.521740 1_555
Pb2 Yb3 3.521740 1_555
Pb2 Yb1 3.521740 1_455
Pb2 Yb4 3.563346 1_555
Pb2 Yb5 3.563346 1_455
Pb2 Yb7 3.563346 1_455
Pb2 Yb6 3.563346 1_555
Pb3 Yb2 3.521740 1_555
Pb3 Yb0 3.521740 1_456
Pb3 Yb1 3.521740 1_455
Pb3 Yb3 3.521740 1_556
Pb3 Yb7 3.563346 1_456
Pb3 Yb5 3.563346 1_455
Pb3 Yb4 3.563346 1_556
Pb3 Yb6 3.563346 1_555
Au0 Yb2 2.986652 1_555
Au0 Yb4 2.990823 1_555
Au0 Yb0 3.059155 1_555
Au0 Yb3 3.059155 1_555
Au0 Yb5 3.074594 1_555
Au0 Yb6 3.074594 1_555
Au0 Pb2 3.242994 1_555
Au0 Pb0 3.242994 1_555
Au1 Yb0 2.986652 1_556
Au1 Yb5 2.990823 1_555
Au1 Yb1 3.059155 1_545
Au1 Yb2 3.059155 1_655
Au1 Yb7 3.074594 1_546
Au1 Yb4 3.074594 1_656
Au1 Pb3 3.242994 1_655
Au1 Pb1 3.242994 1_555
Au2 Yb3 2.986652 1_556
Au2 Yb6 2.990823 1_555
Au2 Yb1 3.059155 1_455
Au2 Yb2 3.059155 1_565
Au2 Yb7 3.074594 1_456
Au2 Yb4 3.074594 1_566
Au2 Pb3 3.242994 1_555
Au2 Pb1 3.242994 1_565
Au3 Yb1 2.986652 1_555
Au3 Yb7 2.990823 1_555
Au3 Yb0 3.059155 1_555
Au3 Yb3 3.059155 1_555
Au3 Yb5 3.074594 1_555
Au3 Yb6 3.074594 1_555
Au3 Pb0 3.242994 1_565
Au3 Pb2 3.242994 1_655
Au4 Yb3 2.986652 1_555
Au4 Yb6 2.990823 1_555
Au4 Yb1 3.059155 1_455
Au4 Yb2 3.059155 1_565
Au4 Yb7 3.074594 1_455
Au4 Yb4 3.074594 1_565
Au4 Pb2 3.242994 1_555
Au4 Pb0 3.242994 1_565
Au5 Yb0 2.986652 1_555
Au5 Yb5 2.990823 1_555
Au5 Yb1 3.059155 1_545
Au5 Yb2 3.059155 1_655
Au5 Yb7 3.074594 1_545
Au5 Yb4 3.074594 1_655
Au5 Pb0 3.242994 1_555
Au5 Pb2 3.242994 1_655
Au6 Yb2 2.986652 1_555
Au6 Yb4 2.990823 1_556
Au6 Yb3 3.059155 1_556
Au6 Yb0 3.059155 1_556
Au6 Yb6 3.074594 1_555
Au6 Yb5 3.074594 1_555
Au6 Pb3 3.242994 1_555
Au6 Pb1 3.242994 1_555
Au7 Yb1 2.986652 1_555
Au7 Yb7 2.990823 1_556
Au7 Yb3 3.059155 1_556
Au7 Yb0 3.059155 1_556
Au7 Yb5 3.074594 1_555
Au7 Yb6 3.074594 1_555
Au7 Pb1 3.242994 1_565
Au7 Pb3 3.242994 1_655
