# generated using pymatgen
data_SiO2
_symmetry_space_group_name_H-M   'P 1'
_cell_length_a   11.13354990
_cell_length_b   11.13354921
_cell_length_c   11.23645913
_cell_angle_alpha   111.51181616
_cell_angle_beta   111.51180886
_cell_angle_gamma   105.06029097
_symmetry_Int_Tables_number   1
_chemical_formula_structural   SiO2
_chemical_formula_sum   'Si18 O36'
_cell_volume   1073.18204928
_cell_formula_units_Z   18
loop_
 _symmetry_equiv_pos_site_id
 _symmetry_equiv_pos_as_xyz
  1  'x, y, z'
loop_
 _atom_site_type_symbol
 _atom_site_label
 _atom_site_symmetry_multiplicity
 _atom_site_fract_x
 _atom_site_fract_y
 _atom_site_fract_z
 _atom_site_occupancy
  Si  Si0  1  0.29772179  0.54596980  0.61585126  1
  Si  Si1  1  0.70626463  0.70626463  0.63513347  1
  Si  Si2  1  0.93011754  0.68186952  0.38414874  1
  Si  Si3  1  0.31813048  0.06988246  0.61585126  1
  Si  Si4  1  0.54596980  0.29772179  0.61585126  1
  Si  Si5  1  0.06988246  0.31813048  0.61585126  1
  Si  Si6  1  0.78737789  0.78737789  0.17739734  1
  Si  Si7  1  0.60997955  0.60997955  0.82260266  1
  Si  Si8  1  0.45403020  0.70227821  0.38414874  1
  Si  Si9  1  0.29373537  0.29373537  0.36486653  1
  Si  Si10  1  0.68186952  0.93011754  0.38414874  1
  Si  Si11  1  0.92887085  0.92887085  0.63513347  1
  Si  Si12  1  0.25000000  0.75000000  0.50000000  1
  Si  Si13  1  0.70227821  0.45403020  0.38414874  1
  Si  Si14  1  0.07112915  0.07112915  0.36486653  1
  Si  Si15  1  0.39002045  0.39002045  0.17739734  1
  Si  Si16  1  0.75000000  0.25000000  0.50000000  1
  Si  Si17  1  0.21262211  0.21262211  0.82260266  1
  O  O0  1  0.92299521  0.31971197  0.60651887  1
  O  O1  1  0.31022937  0.16091022  0.75958903  1
  O  O2  1  0.97127358  0.82223731  0.53430149  1
  O  O3  1  0.83409185  0.53557855  0.36967141  1
  O  O4  1  0.28680791  0.68352266  0.60651887  1
  O  O5  1  0.56302890  0.71206518  0.53430149  1
  O  O6  1  0.82223731  0.97127358  0.53430149  1
  O  O7  1  0.46442145  0.16590815  0.63032859  1
  O  O8  1  0.83908978  0.68977063  0.24041097  1
  O  O9  1  0.53557855  0.83409185  0.36967141  1
  O  O10  1  0.15054638  0.15054638  0.30109176  1
  O  O11  1  0.68977063  0.83908978  0.24041097  1
  O  O12  1  0.43697110  0.28793582  0.46569851  1
  O  O13  1  0.71206518  0.56302890  0.53430149  1
  O  O14  1  0.55064033  0.40132219  0.24041097  1
  O  O15  1  0.16590815  0.46442145  0.63032859  1
  O  O16  1  0.30031077  0.30031077  0.22719470  1
  O  O17  1  0.84945362  0.84945362  0.69890824  1
  O  O18  1  0.31647734  0.71319209  0.39348113  1
  O  O19  1  0.16091022  0.31022937  0.75958903  1
  O  O20  1  0.28793582  0.43697110  0.46569851  1
  O  O21  1  0.02872642  0.17776269  0.46569851  1
  O  O22  1  0.07311606  0.07311606  0.77280530  1
  O  O23  1  0.69219511  0.69219511  -0.00000000  1
  O  O24  1  0.68028803  0.07700479  0.39348113  1
  O  O25  1  0.40132219  0.55064033  0.24041097  1
  O  O26  1  0.44935967  0.59867781  0.75958903  1
  O  O27  1  0.30780489  0.30780489  0.00000000  1
  O  O28  1  0.17776269  0.02872642  0.46569851  1
  O  O29  1  0.31971197  0.92299521  0.60651887  1
  O  O30  1  0.59867781  0.44935967  0.75958903  1
  O  O31  1  0.92688394  0.92688394  0.22719470  1
  O  O32  1  0.07700479  0.68028803  0.39348113  1
  O  O33  1  0.68352266  0.28680791  0.60651887  1
  O  O34  1  0.71319209  0.31647734  0.39348113  1
  O  O35  1  0.69968923  0.69968923  0.77280530  1
loop_
_geom_bond_atom_site_label_1
_geom_bond_atom_site_label_2
_geom_bond_distance
_geom_bond_site_symmetry_2
O0 Si5 1.605089 1_655
O0 Si16 1.611158 1_555
O1 Si3 1.610431 1_555
O1 Si17 1.613764 1_555
O2 Si11 1.616499 1_555
O2 Si2 1.620504 1_555
O3 Si2 1.611049 1_555
O3 Si13 1.611049 1_555
O4 Si0 1.605067 1_555
O4 Si12 1.611168 1_555
O5 Si1 1.616502 1_555
O5 Si8 1.620500 1_555
O6 Si11 1.616499 1_555
O6 Si10 1.620504 1_555
O7 Si4 1.611049 1_555
O7 Si3 1.611049 1_555
O8 Si2 1.610431 1_555
O8 Si6 1.613764 1_555
O9 Si8 1.611049 1_555
O9 Si10 1.611049 1_555
O10 Si9 1.612480 1_555
O10 Si14 1.612518 1_555
O11 Si10 1.610431 1_555
O11 Si6 1.613764 1_555
O12 Si9 1.616495 1_555
O12 Si4 1.620506 1_555
O13 Si1 1.616501 1_555
O13 Si13 1.620500 1_555
O14 Si13 1.610431 1_555
O14 Si15 1.613753 1_555
O15 Si5 1.611049 1_555
O15 Si0 1.611049 1_555
O16 Si9 1.602210 1_555
O16 Si15 1.615414 1_555
O17 Si1 1.612480 1_555
O17 Si11 1.612518 1_555
O18 Si8 1.605067 1_555
O18 Si12 1.611168 1_555
O19 Si5 1.610431 1_555
O19 Si17 1.613764 1_555
O20 Si9 1.616495 1_555
O20 Si0 1.620506 1_555
O21 Si14 1.616499 1_555
O21 Si5 1.620504 1_555
O22 Si11 1.602193 1_445
O22 Si17 1.615401 1_555
O23 Si7 1.592917 1_554
O23 Si6 1.592918 1_555
O24 Si10 1.605089 1_545
O24 Si16 1.611157 1_555
O25 Si8 1.610431 1_555
O25 Si15 1.613753 1_555
O26 Si0 1.610431 1_555
O26 Si7 1.613753 1_555
O27 Si15 1.592917 1_555
O27 Si17 1.592918 1_554
O28 Si14 1.616499 1_555
O28 Si3 1.620504 1_555
O29 Si3 1.605089 1_565
O29 Si12 1.611157 1_555
O30 Si4 1.610431 1_555
O30 Si7 1.613753 1_555
O31 Si14 1.602193 1_665
O31 Si6 1.615401 1_555
O32 Si2 1.605089 1_455
O32 Si12 1.611158 1_555
O33 Si4 1.605067 1_555
O33 Si16 1.611168 1_555
O34 Si13 1.605067 1_555
O34 Si16 1.611168 1_555
O35 Si1 1.602210 1_555
O35 Si7 1.615414 1_555
