# generated using pymatgen
data_YSiNO2
_symmetry_space_group_name_H-M   'P 1'
_cell_length_a   7.08987828
_cell_length_b   7.08987828
_cell_length_c   9.20397000
_cell_angle_alpha   90.00000000
_cell_angle_beta   90.00000000
_cell_angle_gamma   120.32818325
_symmetry_Int_Tables_number   1
_chemical_formula_structural   YSiNO2
_chemical_formula_sum   'Y6 Si6 N6 O12'
_cell_volume   399.33525815
_cell_formula_units_Z   6
loop_
 _symmetry_equiv_pos_site_id
 _symmetry_equiv_pos_as_xyz
  1  'x, y, z'
loop_
 _atom_site_type_symbol
 _atom_site_label
 _atom_site_symmetry_multiplicity
 _atom_site_fract_x
 _atom_site_fract_y
 _atom_site_fract_z
 _atom_site_occupancy
  Y  Y0  1  0.82500500  0.17499500  0.50000000  1
  Y  Y1  1  0.17499500  0.82500500  0.00000000  1
  Y  Y2  1  0.82500500  0.17499500  0.00000000  1
  Y  Y3  1  0.17499500  0.82500500  0.50000000  1
  Y  Y4  1  0.50000000  0.50000000  0.50000000  1
  Y  Y5  1  0.50000000  0.50000000  0.00000000  1
  Si  Si0  1  0.16488800  0.40934700  0.25000000  1
  Si  Si1  1  0.59065300  0.83511200  0.75000000  1
  Si  Si2  1  0.91642400  0.91642400  0.25000000  1
  Si  Si3  1  0.83511200  0.59065300  0.75000000  1
  Si  Si4  1  0.08357600  0.08357600  0.75000000  1
  Si  Si5  1  0.40934700  0.16488800  0.25000000  1
  N  N0  1  0.59813900  0.59813900  0.75000000  1
  N  N1  1  0.83660800  0.07387500  0.75000000  1
  N  N2  1  0.07387500  0.83660800  0.75000000  1
  N  N3  1  0.92612500  0.16339200  0.25000000  1
  N  N4  1  0.40186100  0.40186100  0.25000000  1
  N  N5  1  0.16339200  0.92612500  0.25000000  1
  O  O0  1  0.16585900  0.52565800  0.09428800  1
  O  O1  1  0.47434200  0.83414100  0.90571200  1
  O  O2  1  0.47434200  0.83414100  0.59428800  1
  O  O3  1  0.52565800  0.16585900  0.09428800  1
  O  O4  1  0.80338800  0.80338800  0.40857600  1
  O  O5  1  0.83414100  0.47434200  0.90571200  1
  O  O6  1  0.83414100  0.47434200  0.59428800  1
  O  O7  1  0.19661200  0.19661200  0.59142400  1
  O  O8  1  0.19661200  0.19661200  0.90857600  1
  O  O9  1  0.80338800  0.80338800  0.09142400  1
  O  O10  1  0.52565800  0.16585900  0.40571200  1
  O  O11  1  0.16585900  0.52565800  0.40571200  1
loop_
_geom_bond_atom_site_label_1
_geom_bond_atom_site_label_2
_geom_bond_distance
_geom_bond_site_symmetry_2
N0 Si3 1.707525 1_555
N0 Si1 1.707525 1_555
N0 Y4 2.402894 1_555
N0 Y5 2.402894 1_556
N1 Si1 1.710337 1_545
N1 Si4 1.717269 1_655
N1 Y0 2.423816 1_555
N1 Y2 2.423816 1_556
N2 Si3 1.710337 1_455
N2 Si4 1.717269 1_565
N2 Y1 2.423816 1_556
N2 Y3 2.423816 1_555
N3 Si0 1.710337 1_655
N3 Si2 1.717269 1_545
N3 Y0 2.423816 1_555
N3 Y2 2.423816 1_555
N4 Si0 1.707525 1_555
N4 Si5 1.707525 1_555
N4 Y4 2.402894 1_555
N4 Y5 2.402894 1_555
N5 Si5 1.710337 1_565
N5 Si2 1.717269 1_455
N5 Y1 2.423816 1_555
N5 Y3 2.423816 1_555
O0 Si0 1.651757 1_555
O0 Y1 2.263357 1_555
O0 Y2 2.589697 1_455
O0 Y5 2.614131 1_555
O1 Si1 1.651757 1_555
O1 Y1 2.263357 1_556
O1 Y2 2.589697 1_566
O1 Y5 2.614131 1_556
O2 Si1 1.651757 1_555
O2 Y3 2.263357 1_555
O2 Y0 2.589697 1_565
O2 Y4 2.614131 1_555
O3 Si5 1.651757 1_555
O3 Y2 2.263357 1_555
O3 Y1 2.589697 1_545
O3 Y5 2.614131 1_555
O4 Si2 1.663167 1_555
O4 Y4 2.299776 1_555
O4 Y0 2.695391 1_565
O4 Y3 2.695391 1_655
O5 Si3 1.651757 1_555
O5 Y2 2.263357 1_556
O5 Y1 2.589697 1_656
O5 Y5 2.614131 1_556
O6 Si3 1.651757 1_555
O6 Y0 2.263357 1_555
O6 Y3 2.589697 1_655
O6 Y4 2.614131 1_555
O7 Si4 1.663167 1_555
O7 Y4 2.299776 1_555
O7 Y3 2.695391 1_545
O7 Y0 2.695391 1_455
O8 Si4 1.663167 1_555
O8 Y5 2.299776 1_556
O8 Y2 2.695391 1_456
O8 Y1 2.695391 1_546
O9 Si2 1.663167 1_555
O9 Y5 2.299776 1_555
O9 Y2 2.695391 1_565
O9 Y1 2.695391 1_655
O10 Si5 1.651757 1_555
O10 Y0 2.263357 1_555
O10 Y3 2.589697 1_545
O10 Y4 2.614131 1_555
O11 Si0 1.651757 1_555
O11 Y3 2.263357 1_555
O11 Y0 2.589697 1_455
O11 Y4 2.614131 1_555
