# generated using pymatgen
data_ZnCuAsHO5
_symmetry_space_group_name_H-M   'P 1'
_cell_length_a   6.01506400
_cell_length_b   8.68327100
_cell_length_c   8.75111200
_cell_angle_alpha   90.00000000
_cell_angle_beta   90.00000000
_cell_angle_gamma   90.00000000
_symmetry_Int_Tables_number   1
_chemical_formula_structural   ZnCuAsHO5
_chemical_formula_sum   'Zn4 Cu4 As4 H4 O20'
_cell_volume   457.07434969
_cell_formula_units_Z   4
loop_
 _symmetry_equiv_pos_site_id
 _symmetry_equiv_pos_as_xyz
  1  'x, y, z'
loop_
 _atom_site_type_symbol
 _atom_site_label
 _atom_site_symmetry_multiplicity
 _atom_site_fract_x
 _atom_site_fract_y
 _atom_site_fract_z
 _atom_site_occupancy
  Zn  Zn0  1  0.00000000  0.63926600  0.87548100  1
  Zn  Zn1  1  0.00000000  0.36073400  0.12451900  1
  Zn  Zn2  1  0.50000000  0.13926600  0.62451900  1
  Zn  Zn3  1  0.50000000  0.86073400  0.37548100  1
  Cu  Cu0  1  0.74976100  0.00000000  0.00000000  1
  Cu  Cu1  1  0.75023900  0.50000000  0.50000000  1
  Cu  Cu2  1  0.25023900  0.00000000  0.00000000  1
  Cu  Cu3  1  0.24976100  0.50000000  0.50000000  1
  As  As0  1  0.50000000  0.76465400  0.75375600  1
  As  As1  1  0.50000000  0.23534600  0.24624400  1
  As  As2  1  0.00000000  0.26465400  0.74624400  1
  As  As3  1  0.00000000  0.73534600  0.25375600  1
  H  H0  1  0.00000000  0.92980800  0.79893300  1
  H  H1  1  0.00000000  0.07019200  0.20106700  1
  H  H2  1  0.50000000  0.42980800  0.70106700  1
  H  H3  1  0.50000000  0.57019200  0.29893300  1
  O  O0  1  0.50000000  0.87054300  0.92409100  1
  O  O1  1  0.50000000  0.12945700  0.07590900  1
  O  O2  1  0.00000000  0.37054300  0.57590900  1
  O  O3  1  0.00000000  0.62945700  0.42409100  1
  O  O4  1  0.00000000  0.88398800  0.90166200  1
  O  O5  1  0.00000000  0.11601200  0.09833800  1
  O  O6  1  0.50000000  0.38398700  0.59833800  1
  O  O7  1  0.50000000  0.61601200  0.40166200  1
  O  O8  1  0.50000000  0.89555100  0.60486700  1
  O  O9  1  0.50000000  0.10444900  0.39513300  1
  O  O10  1  0.00000000  0.39555100  0.89513300  1
  O  O11  1  0.00000000  0.60444900  0.10486700  1
  O  O12  1  0.72795500  0.64678200  0.74342900  1
  O  O13  1  0.72795500  0.35321800  0.25657100  1
  O  O14  1  0.77204500  0.14678200  0.75657100  1
  O  O15  1  0.77204500  0.85321800  0.24342900  1
  O  O16  1  0.27204500  0.35321800  0.25657100  1
  O  O17  1  0.27204500  0.64678200  0.74342900  1
  O  O18  1  0.22795500  0.85321800  0.24342900  1
  O  O19  1  0.22795500  0.14678200  0.75657100  1
loop_
_geom_bond_atom_site_label_1
_geom_bond_atom_site_label_2
_geom_bond_distance
_geom_bond_site_symmetry_2
Cu0 O1 1.990450 1_555
Cu0 O0 1.990450 1_544
Cu0 O5 2.005242 1_655
Cu0 O4 2.005242 1_644
Cu0 O15 2.486063 1_545
Cu0 O14 2.486063 1_554
Cu1 O3 1.990450 1_655
Cu1 O2 1.990450 1_655
Cu1 O7 2.005242 1_555
Cu1 O6 2.005246 1_555
Cu1 O12 2.486063 1_555
Cu1 O13 2.486063 1_555
Cu2 O1 1.990450 1_555
Cu2 O0 1.990450 1_544
Cu2 O5 2.005242 1_555
Cu2 O4 2.005242 1_544
Cu2 O18 2.486063 1_545
Cu2 O19 2.486063 1_554
Cu3 O3 1.990450 1_555
Cu3 O2 1.990450 1_555
Cu3 O7 2.005242 1_555
Cu3 O6 2.005246 1_555
Cu3 O17 2.486063 1_555
Cu3 O16 2.486063 1_555
As0 O17 1.713429 1_555
As0 O12 1.713429 1_555
As0 O8 1.729033 1_555
As0 O0 1.751389 1_555
As1 O16 1.713429 1_555
As1 O13 1.713429 1_555
As1 O9 1.729033 1_555
As1 O1 1.751389 1_555
As2 O19 1.713429 1_555
As2 O14 1.713429 1_455
As2 O10 1.729033 1_555
As2 O2 1.751389 1_555
As3 O18 1.713429 1_555
As3 O15 1.713429 1_455
As3 O11 1.729033 1_555
As3 O3 1.751389 1_555
H0 O4 0.983101 1_555
H1 O5 0.983101 1_555
H2 O6 0.983104 1_555
H3 O7 0.983101 1_555
O4 Zn0 2.137303 1_555
O5 Zn1 2.137303 1_555
O6 Zn2 2.137294 1_555
O7 Zn3 2.137303 1_555
O8 Zn3 2.030021 1_555
O8 Zn2 2.123220 1_565
O9 Zn2 2.030021 1_555
O9 Zn3 2.123220 1_545
O10 Zn1 2.030021 1_556
O10 Zn0 2.123220 1_555
O11 Zn0 2.030021 1_554
O11 Zn1 2.123220 1_555
O12 Zn0 2.004339 1_655
O13 Zn1 2.004339 1_655
O14 Zn2 2.004339 1_555
O15 Zn3 2.004339 1_555
O16 Zn1 2.004339 1_555
O17 Zn0 2.004339 1_555
O18 Zn3 2.004339 1_555
O19 Zn2 2.004339 1_555
