# generated using pymatgen
data_Li7Nb8O24
_symmetry_space_group_name_H-M   'P 1'
_cell_length_a   7.67655200
_cell_length_b   9.29253967
_cell_length_c   13.86456408
_cell_angle_alpha   89.98521453
_cell_angle_beta   104.96089022
_cell_angle_gamma   109.28112677
_symmetry_Int_Tables_number   1
_chemical_formula_structural   Li7Nb8O24
_chemical_formula_sum   'Li14 Nb16 O48'
_cell_volume   897.97890150
_cell_formula_units_Z   2
loop_
 _symmetry_equiv_pos_site_id
 _symmetry_equiv_pos_as_xyz
  1  'x, y, z'
loop_
 _atom_site_type_symbol
 _atom_site_label
 _atom_site_symmetry_multiplicity
 _atom_site_fract_x
 _atom_site_fract_y
 _atom_site_fract_z
 _atom_site_occupancy
  Li  Li0  1  0.49883400  0.35749800  0.06922600  1
  Li  Li1  1  0.24417000  0.60150600  0.32124900  1
  Li  Li2  1  0.87360500  0.97833700  0.19438400  1
  Li  Li3  1  0.99182000  0.35217200  0.06998300  1
  Li  Li4  1  0.99302600  0.85152700  0.57121300  1
  Li  Li5  1  0.11990500  0.22948800  0.44471000  1
  Li  Li6  1  0.62012100  0.22992400  0.44726100  1
  Li  Li7  1  0.74172200  0.60298600  0.32184900  1
  Li  Li8  1  0.74002900  0.10343900  0.82150000  1
  Li  Li9  1  0.87347100  0.47758900  0.69690600  1
  Li  Li10  1  0.49722300  0.85582000  0.56839200  1
  Li  Li11  1  0.62015700  0.73165000  0.94744400  1
  Li  Li12  1  0.11990600  0.72751100  0.94530300  1
  Li  Li13  1  0.24602600  0.10034800  0.82019100  1
  Nb  Nb0  1  0.99776800  0.99939100  0.99894900  1
  Nb  Nb1  1  0.74993900  0.25149400  0.24983600  1
  Nb  Nb2  1  0.87777400  0.62572800  0.12525600  1
  Nb  Nb3  1  0.37532500  0.62239400  0.12480400  1
  Nb  Nb4  1  0.50057600  0.50061500  0.50496000  1
  Nb  Nb5  1  0.62420300  0.87975900  0.37167100  1
  Nb  Nb6  1  0.12179600  0.87378200  0.37553500  1
  Nb  Nb7  1  0.25628300  0.24697700  0.24902200  1
  Nb  Nb8  1  0.25556600  0.74689800  0.74788300  1
  Nb  Nb9  1  0.37407300  0.12179300  0.62586000  1
  Nb  Nb10  1  0.87771800  0.12586200  0.62505200  1
  Nb  Nb11  1  0.99408600  0.49807100  0.49843100  1
  Nb  Nb12  1  0.12277000  0.37299000  0.87539100  1
  Nb  Nb13  1  0.62310800  0.37929000  0.87300800  1
  Nb  Nb14  1  0.75085700  0.75175000  0.74989700  1
  Nb  Nb15  1  0.49988800  0.00144200  0.00475200  1
  O  O0  1  0.75973000  0.42961800  0.01293500  1
  O  O1  1  0.93233900  0.76077000  0.02451700  1
  O  O2  1  0.10975400  0.58150800  0.16591700  1
  O  O3  1  0.36683900  0.81054700  0.07496200  1
  O  O4  1  0.55221900  0.15582700  0.10758000  1
  O  O5  1  0.51115500  0.68216700  0.26255100  1
  O  O6  1  0.73075400  0.95445900  0.04112500  1
  O  O7  1  0.69562400  0.01310200  0.27556900  1
  O  O8  1  0.95758300  0.24600900  0.20066600  1
  O  O9  1  0.85600200  0.83070900  0.41559300  1
  O  O10  1  0.11895300  0.06192100  0.13689600  1
  O  O11  1  0.12456200  0.07104700  0.33629300  1
  O  O12  1  0.31089700  0.38320900  0.14867100  1
  O  O13  1  0.29715800  0.39710900  0.35520800  1
  O  O14  1  0.25717500  0.92795100  0.51438300  1
  O  O15  1  0.57937800  0.61063500  0.07370700  1
  O  O16  1  0.49131600  0.21275900  0.29435200  1
  O  O17  1  0.43156300  0.25948600  0.52694100  1
  O  O18  1  0.74809700  0.44928500  0.21246300  1
  O  O19  1  0.69920000  0.48406600  0.44817400  1
  O  O20  1  0.60920300  0.08052100  0.66394000  1
  O  O21  1  0.92042900  0.77384400  0.23197200  1
  O  O22  1  0.88292300  0.30282600  0.38895800  1
  O  O23  1  0.86951500  0.32134100  0.58627300  1
  O  O24  1  0.04622400  0.63272400  0.39761900  1
  O  O25  1  0.04529400  0.64490000  0.60711800  1
  O  O26  1  0.01269900  0.18079200  0.76332100  1
  O  O27  1  0.32934400  0.85171100  0.33375300  1
  O  O28  1  0.22817200  0.45502500  0.52785600  1
  O  O29  1  0.16713000  0.51627300  0.77888700  1
  O  O30  1  0.50197300  0.69568700  0.46412000  1
  O  O31  1  0.45959200  0.74735200  0.69601000  1
  O  O32  1  0.35895900  0.33511500  0.91509000  1
  O  O33  1  0.66985500  0.02349900  0.48167100  1
  O  O34  1  0.65026500  0.55920600  0.63934900  1
  O  O35  1  0.63052700  0.57793900  0.84008200  1
  O  O36  1  0.80929600  0.88710800  0.64933600  1
  O  O37  1  0.79326800  0.89973700  0.85755600  1
  O  O38  1  0.07872900  0.11468300  0.57244300  1
  O  O39  1  0.98702200  0.71545900  0.79219400  1
  O  O40  1  0.23806600  0.94148000  0.70834000  1
  O  O41  1  0.20476600  0.99018800  0.95027200  1
  O  O42  1  0.42172500  0.25698900  0.73922800  1
  O  O43  1  0.39102400  0.80847400  0.88518500  1
  O  O44  1  0.55790900  0.13319700  0.90275500  1
  O  O45  1  0.82373400  0.36068700  0.82258400  1
  O  O46  1  0.99027900  0.19519000  0.95877700  1
  O  O47  1  0.16393500  0.51633800  0.98458900  1
loop_
_geom_bond_atom_site_label_1
_geom_bond_atom_site_label_2
_geom_bond_distance
_geom_bond_site_symmetry_2
Li0 O4 2.087316 1_555
Li0 O12 2.097614 1_555
Li0 O32 2.105011 1_554
Li0 O15 2.222417 1_555
Li0 O0 2.233772 1_555
Li0 O18 2.300825 1_555
Li1 O13 2.098956 1_555
Li1 O2 2.112698 1_555
Li1 O24 2.153208 1_555
Li1 O27 2.191141 1_555
Li1 O5 2.295872 1_555
Li1 O30 2.332226 1_555
Li2 O7 2.079367 1_565
Li2 O21 2.089410 1_555
Li2 O6 2.098404 1_555
Li2 O10 2.143485 1_665
Li2 O11 2.296168 1_665
Li2 O8 2.349948 1_565
Li3 O8 2.097348 1_555
Li3 O0 2.106345 1_555
Li3 O46 2.117945 1_554
Li3 O47 2.224923 1_654
Li3 O2 2.288221 1_655
Li3 O12 2.329574 1_655
Li4 O36 2.090145 1_555
Li4 O9 2.119704 1_555
Li4 O25 2.121488 1_655
Li4 O40 2.228813 1_655
Li4 O14 2.260657 1_655
Li4 O38 2.311881 1_665
Li5 O38 2.107060 1_555
Li5 O22 2.112788 1_455
Li5 O11 2.119463 1_555
Li5 O28 2.183647 1_555
Li5 O17 2.291895 1_555
Li5 O13 2.299702 1_555
Li6 O16 2.076365 1_555
Li6 O33 2.107614 1_555
Li6 O17 2.116473 1_555
Li6 O19 2.234997 1_555
Li6 O22 2.263063 1_555
Li6 O23 2.263446 1_555
Li7 O18 2.104281 1_555
Li7 O19 2.109796 1_555
Li7 O5 2.111513 1_555
Li7 O24 2.224782 1_655
Li7 O9 2.263532 1_555
Li7 O21 2.323521 1_555
Li8 O44 2.090179 1_555
Li8 O37 2.098800 1_545
Li8 O20 2.133601 1_555
Li8 O46 2.251936 1_555
Li8 O45 2.260125 1_555
Li8 O26 2.329483 1_655
Li9 O34 2.073612 1_555
Li9 O23 2.099956 1_555
Li9 O45 2.104917 1_555
Li9 O29 2.155238 1_655
Li9 O25 2.280176 1_655
Li9 O39 2.350659 1_555
Li10 O31 2.073826 1_555
Li10 O30 2.090399 1_555
Li10 O14 2.123366 1_555
Li10 O20 2.254299 1_565
Li10 O33 2.255608 1_565
Li10 O36 2.288044 1_555
Li11 O43 2.096108 1_555
Li11 O35 2.097534 1_555
Li11 O15 2.115789 1_556
Li11 O6 2.228400 1_556
Li11 O1 2.282080 1_556
Li11 O37 2.289570 1_555
Li12 O39 2.089493 1_455
Li12 O1 2.117894 1_456
Li12 O47 2.145712 1_555
Li12 O3 2.166932 1_556
Li12 O41 2.305229 1_555
Li12 O43 2.335305 1_555
Li13 O40 2.116769 1_545
Li13 O41 2.116778 1_545
Li13 O26 2.131538 1_555
Li13 O42 2.163858 1_555
Li13 O44 2.288702 1_555
Li13 O32 2.324983 1_555
Nb0 O10 1.893657 1_666
Nb0 O41 1.905593 1_655
Nb0 O46 1.917293 1_565
Nb0 O37 2.148695 1_555
Nb0 O1 2.156569 1_556
Nb0 O6 2.184322 1_556
Nb1 O8 1.903386 1_555
Nb1 O22 1.911129 1_555
Nb1 O18 1.913048 1_555
Nb1 O4 2.132659 1_555
Nb1 O16 2.147709 1_555
Nb1 O7 2.162164 1_555
Nb2 O2 1.903347 1_655
Nb2 O21 1.908933 1_555
Nb2 O1 1.911803 1_555
Nb2 O18 2.164181 1_555
Nb2 O15 2.172593 1_555
Nb2 O0 2.179345 1_555
Nb3 O3 1.894756 1_555
Nb3 O5 1.906038 1_555
Nb3 O15 1.911426 1_555
Nb3 O12 2.156936 1_555
Nb3 O47 2.167903 1_554
Nb3 O2 2.171129 1_555
Nb4 O34 1.889556 1_555
Nb4 O30 1.896426 1_555
Nb4 O19 1.934709 1_555
Nb4 O28 2.100157 1_555
Nb4 O17 2.166411 1_555
Nb4 O13 2.238191 1_555
Nb5 O7 1.881211 1_565
Nb5 O33 1.910191 1_565
Nb5 O9 1.928967 1_555
Nb5 O27 2.112772 1_555
Nb5 O5 2.164392 1_555
Nb5 O30 2.238089 1_555
Nb6 O27 1.899604 1_555
Nb6 O11 1.906945 1_565
Nb6 O14 1.913468 1_555
Nb6 O9 2.162743 1_455
Nb6 O21 2.162886 1_455
Nb6 O24 2.163616 1_555
Nb7 O16 1.882734 1_555
Nb7 O12 1.914135 1_555
Nb7 O13 1.919810 1_555
Nb7 O10 2.107894 1_555
Nb7 O11 2.167523 1_555
Nb7 O8 2.213593 1_455
Nb8 O31 1.883486 1_555
Nb8 O43 1.902126 1_555
Nb8 O40 1.926122 1_555
Nb8 O29 2.104250 1_555
Nb8 O25 2.162599 1_555
Nb8 O39 2.229038 1_455
Nb9 O42 1.892971 1_555
Nb9 O20 1.910194 1_555
Nb9 O17 1.910901 1_555
Nb9 O14 2.157903 1_545
Nb9 O40 2.159964 1_545
Nb9 O38 2.174236 1_555
Nb10 O38 1.900240 1_655
Nb10 O26 1.906531 1_655
Nb10 O23 1.910563 1_555
Nb10 O36 2.152417 1_545
Nb10 O20 2.171912 1_555
Nb10 O33 2.182562 1_555
Nb11 O25 1.904704 1_655
Nb11 O24 1.907006 1_655
Nb11 O28 1.910931 1_655
Nb11 O19 2.148932 1_555
Nb11 O22 2.152644 1_555
Nb11 O23 2.158222 1_555
Nb12 O29 1.901015 1_555
Nb12 O32 1.902704 1_555
Nb12 O47 1.908516 1_555
Nb12 O46 2.144110 1_455
Nb12 O26 2.155229 1_555
Nb12 O45 2.185791 1_455
Nb13 O35 1.887523 1_555
Nb13 O45 1.903261 1_555
Nb13 O0 1.925715 1_556
Nb13 O42 2.117096 1_555
Nb13 O32 2.163728 1_555
Nb13 O44 2.236158 1_555
Nb14 O39 1.897126 1_555
Nb14 O36 1.917456 1_555
Nb14 O37 1.918219 1_555
Nb14 O34 2.150503 1_555
Nb14 O35 2.153000 1_555
Nb14 O31 2.153211 1_555
Nb15 O4 1.891244 1_555
Nb15 O6 1.906629 1_545
Nb15 O44 1.913471 1_554
Nb15 O3 2.110305 1_545
Nb15 O41 2.161963 1_544
Nb15 O43 2.226776 1_544
