# generated using pymatgen
data_Sr14Al8Ge3
_symmetry_space_group_name_H-M   'P 1'
_cell_length_a   15.06385949
_cell_length_b   15.06385949
_cell_length_c   15.06385933
_cell_angle_alpha   46.95391026
_cell_angle_beta   46.95391026
_cell_angle_gamma   46.95390894
_symmetry_Int_Tables_number   1
_chemical_formula_structural   Sr14Al8Ge3
_chemical_formula_sum   'Sr28 Al16 Ge6'
_cell_volume   1668.65157359
_cell_formula_units_Z   2
loop_
 _symmetry_equiv_pos_site_id
 _symmetry_equiv_pos_as_xyz
  1  'x, y, z'
loop_
 _atom_site_type_symbol
 _atom_site_label
 _atom_site_symmetry_multiplicity
 _atom_site_fract_x
 _atom_site_fract_y
 _atom_site_fract_z
 _atom_site_occupancy
  Sr  Sr0  1  0.69294700  0.20557300  0.19192400  1
  Sr  Sr1  1  0.92659400  0.58683100  0.61683500  1
  Sr  Sr2  1  0.79413900  0.14681000  0.41566000  1
  Sr  Sr3  1  0.19192400  0.69294700  0.20557300  1
  Sr  Sr4  1  0.41316900  0.38316500  0.07340600  1
  Sr  Sr5  1  0.14681000  0.41566000  0.79413900  1
  Sr  Sr6  1  0.38316500  0.07340600  0.41316900  1
  Sr  Sr7  1  0.79442700  0.80807600  0.30705300  1
  Sr  Sr8  1  0.41566000  0.79413900  0.14681000  1
  Sr  Sr9  1  0.50650500  0.94586300  0.19392600  1
  Sr  Sr10  1  0.80607400  0.49349500  0.05413700  1
  Sr  Sr11  1  0.90922500  0.90922500  0.90922500  1
  Sr  Sr12  1  0.09077500  0.09077500  0.09077500  1
  Sr  Sr13  1  0.85319000  0.58434000  0.20586100  1
  Sr  Sr14  1  0.80807600  0.30705300  0.79442700  1
  Sr  Sr15  1  0.20586100  0.85319000  0.58434000  1
  Sr  Sr16  1  0.58434000  0.20586100  0.85319000  1
  Sr  Sr17  1  0.05413700  0.80607400  0.49349500  1
  Sr  Sr18  1  0.49349500  0.05413700  0.80607400  1
  Sr  Sr19  1  0.19392600  0.50650500  0.94586300  1
  Sr  Sr20  1  0.07340600  0.41316900  0.38316500  1
  Sr  Sr21  1  0.50000000  0.50000000  0.50000000  1
  Sr  Sr22  1  0.61683500  0.92659400  0.58683100  1
  Sr  Sr23  1  0.58683100  0.61683500  0.92659400  1
  Sr  Sr24  1  0.00000000  0.00000000  0.00000000  1
  Sr  Sr25  1  0.94586300  0.19392600  0.50650500  1
  Sr  Sr26  1  0.30705300  0.79442700  0.80807600  1
  Sr  Sr27  1  0.20557300  0.19192400  0.69294700  1
  Al  Al0  1  0.52826100  0.73312600  0.49194200  1
  Al  Al1  1  0.03105900  0.29003200  0.18239500  1
  Al  Al2  1  0.50805800  0.47173900  0.26687400  1
  Al  Al3  1  0.29003200  0.18239500  0.03105900  1
  Al  Al4  1  0.26687400  0.50805800  0.47173900  1
  Al  Al5  1  0.64046900  0.64046900  0.64046900  1
  Al  Al6  1  0.73312600  0.49194200  0.52826100  1
  Al  Al7  1  0.18239500  0.03105900  0.29003200  1
  Al  Al8  1  0.35953100  0.35953100  0.35953100  1
  Al  Al9  1  0.77630100  0.77630100  0.77630100  1
  Al  Al10  1  0.47173900  0.26687400  0.50805800  1
  Al  Al11  1  0.81760500  0.96894100  0.70996800  1
  Al  Al12  1  0.96894100  0.70996800  0.81760500  1
  Al  Al13  1  0.49194200  0.52826100  0.73312600  1
  Al  Al14  1  0.70996800  0.81760500  0.96894100  1
  Al  Al15  1  0.22369900  0.22369900  0.22369900  1
  Ge  Ge0  1  0.67020000  0.09587800  0.08227400  1
  Ge  Ge1  1  0.08227400  0.67020000  0.09587800  1
  Ge  Ge2  1  0.32980000  0.90412200  0.91772600  1
  Ge  Ge3  1  0.90412200  0.91772600  0.32980000  1
  Ge  Ge4  1  0.91772600  0.32980000  0.90412200  1
  Ge  Ge5  1  0.09587800  0.08227400  0.67020000  1
loop_
_geom_bond_atom_site_label_1
_geom_bond_atom_site_label_2
_geom_bond_distance
_geom_bond_site_symmetry_2
Al0 Al6 2.703293 1_555
Al0 Al13 2.703293 1_555
Al0 Al5 2.736775 1_555
Al0 Sr15 3.318429 1_555
Al0 Sr9 3.386056 1_555
Al0 Sr7 3.427823 1_555
Al0 Sr6 3.521711 1_565
Al0 Sr21 3.730555 1_555
Al1 Al7 2.704583 1_555
Al1 Al3 2.704583 1_555
Al1 Al15 2.732072 1_555
Al1 Sr10 3.359667 1_455
Al1 Sr13 3.404263 1_455
Al1 Sr25 3.451558 1_455
Al1 Sr12 3.463804 1_555
Al1 Sr19 3.531921 1_554
Al1 Sr2 3.575068 1_455
Al2 Al4 2.703293 1_555
Al2 Al8 2.736775 1_555
Al2 Sr8 3.318429 1_555
Al2 Sr10 3.386056 1_555
Al2 Sr0 3.427823 1_555
Al2 Sr23 3.521711 1_554
Al2 Sr21 3.730555 1_555
Al3 Al7 2.704583 1_555
Al3 Sr18 3.359667 1_554
Al3 Sr16 3.404263 1_554
Al3 Sr19 3.451558 1_554
Al3 Sr12 3.463804 1_555
Al3 Sr9 3.531921 1_545
Al3 Sr5 3.575068 1_554
Al4 Al8 2.736775 1_555
Al4 Sr5 3.318429 1_555
Al4 Sr17 3.386056 1_555
Al4 Sr3 3.427823 1_555
Al4 Sr1 3.521711 1_455
Al4 Sr21 3.730555 1_555
Al5 Al6 2.736775 1_555
Al5 Sr14 3.429205 1_555
Al5 Sr26 3.429205 1_555
Al5 Sr7 3.429205 1_555
Al5 Sr23 3.591728 1_555
Al5 Sr1 3.591728 1_555
Al5 Sr22 3.591728 1_555
Al6 Sr13 3.318429 1_555
Al6 Sr25 3.386056 1_555
Al6 Sr14 3.427823 1_555
Al6 Sr20 3.521711 1_655
Al6 Sr21 3.730555 1_555
Al7 Sr17 3.359667 1_545
Al7 Sr15 3.404263 1_545
Al7 Sr9 3.451558 1_545
Al7 Sr12 3.463804 1_555
Al7 Sr25 3.531921 1_455
Al7 Sr8 3.575068 1_545
Al8 Sr3 3.429205 1_555
Al8 Sr0 3.429205 1_555
Al8 Sr27 3.429205 1_555
Al8 Sr4 3.591728 1_555
Al8 Sr20 3.591728 1_555
Al8 Sr6 3.591728 1_555
Al9 Sr18 3.388191 1_565
Al9 Sr10 3.388191 1_556
Al9 Sr17 3.388191 1_655
Al9 Sr22 3.486571 1_555
Al9 Sr1 3.486571 1_555
Al9 Sr23 3.486572 1_555
Al10 Al4 2.703293 1_555
Al10 Al2 2.703293 1_555
Al10 Al8 2.736775 1_555
Al10 Sr2 3.318429 1_555
Al10 Sr18 3.386056 1_555
Al10 Sr27 3.427823 1_555
Al10 Sr22 3.521711 1_545
Al10 Sr21 3.730555 1_555
Al11 Al12 2.704583 1_555
Al11 Al14 2.704583 1_555
Al11 Al9 2.732072 1_555
Al11 Sr25 3.359667 1_565
Al11 Sr2 3.404263 1_565
Al11 Sr18 3.451558 1_565
Al11 Sr11 3.463804 1_555
Al11 Sr17 3.531921 1_655
Al11 Sr16 3.575068 1_565
Al12 Al14 2.704583 1_555
Al12 Al9 2.732072 1_555
Al12 Sr19 3.359667 1_655
Al12 Sr5 3.404263 1_655
Al12 Sr17 3.451558 1_655
Al12 Sr11 3.463804 1_555
Al12 Sr10 3.531921 1_556
Al12 Sr15 3.575068 1_655
Al13 Al6 2.703293 1_555
Al13 Al5 2.736775 1_555
Al13 Sr16 3.318429 1_555
Al13 Sr19 3.386056 1_555
Al13 Sr26 3.427823 1_555
Al13 Sr4 3.521711 1_556
Al13 Sr21 3.730555 1_555
Al14 Al9 2.732072 1_555
Al14 Sr9 3.359667 1_556
Al14 Sr8 3.404263 1_556
Al14 Sr10 3.451558 1_556
Al14 Sr11 3.463804 1_555
Al14 Sr18 3.531921 1_565
Al14 Sr13 3.575068 1_556
Al15 Al3 2.732072 1_555
Al15 Al7 2.732072 1_555
Al15 Sr9 3.388191 1_545
Al15 Sr19 3.388191 1_554
Al15 Sr25 3.388191 1_455
Al15 Sr6 3.486571 1_555
Al15 Sr20 3.486571 1_555
Al15 Sr4 3.486572 1_555
Ge0 Sr9 3.282188 1_545
Ge0 Sr4 3.283246 1_555
Ge0 Sr0 3.293628 1_555
Ge0 Sr11 3.322220 1_544
Ge0 Sr14 3.336075 1_554
Ge0 Sr7 3.361105 1_545
Ge0 Sr16 3.418930 1_554
Ge0 Sr24 3.542038 1_655
Ge0 Sr6 3.732010 1_555
Ge1 Sr19 3.282188 1_554
Ge1 Sr20 3.283246 1_555
Ge1 Sr3 3.293628 1_555
Ge1 Sr11 3.322220 1_454
Ge1 Sr7 3.336075 1_455
Ge1 Sr26 3.361106 1_554
Ge1 Sr13 3.418930 1_455
Ge1 Sr24 3.542038 1_565
Ge1 Sr4 3.732010 1_555
Ge2 Sr18 3.282188 1_565
Ge2 Sr23 3.283246 1_555
Ge2 Sr26 3.293628 1_555
Ge2 Sr12 3.322220 1_566
Ge2 Sr3 3.336075 1_556
Ge2 Sr27 3.361105 1_565
Ge2 Sr8 3.418930 1_556
Ge2 Sr24 3.542038 1_566
Ge2 Sr22 3.732010 1_555
Ge3 Sr17 3.282188 1_655
Ge3 Sr22 3.283246 1_555
Ge3 Sr7 3.293628 1_555
Ge3 Sr12 3.322220 1_665
Ge3 Sr0 3.336075 1_565
Ge3 Sr3 3.361105 1_655
Ge3 Sr2 3.418930 1_565
Ge3 Sr24 3.542038 1_665
Ge3 Sr1 3.732010 1_555
Ge4 Sr10 3.282188 1_556
Ge4 Sr1 3.283246 1_555
Ge4 Sr14 3.293628 1_555
Ge4 Sr12 3.322220 1_656
Ge4 Sr27 3.336075 1_655
Ge4 Sr0 3.361106 1_556
Ge4 Sr5 3.418930 1_655
Ge4 Sr24 3.542038 1_656
Ge4 Sr23 3.732010 1_555
Ge5 Sr25 3.282188 1_455
Ge5 Sr6 3.283246 1_555
Ge5 Sr27 3.293628 1_555
Ge5 Sr11 3.322220 1_445
Ge5 Sr26 3.336075 1_545
Ge5 Sr14 3.361105 1_455
Ge5 Sr15 3.418930 1_545
Ge5 Sr24 3.542038 1_556
Ge5 Sr20 3.732010 1_555
