# generated using pymatgen
data_Hg19(As5Br9)2
_symmetry_space_group_name_H-M   'P 1'
_cell_length_a   11.61944100
_cell_length_b   11.65408140
_cell_length_c   12.73847167
_cell_angle_alpha   106.12585392
_cell_angle_beta   106.24761080
_cell_angle_gamma   108.32467284
_symmetry_Int_Tables_number   1
_chemical_formula_structural   Hg19(As5Br9)2
_chemical_formula_sum   'Hg19 As10 Br18'
_cell_volume   1439.97094143
_cell_formula_units_Z   1
loop_
 _symmetry_equiv_pos_site_id
 _symmetry_equiv_pos_as_xyz
  1  'x, y, z'
loop_
 _atom_site_type_symbol
 _atom_site_label
 _atom_site_symmetry_multiplicity
 _atom_site_fract_x
 _atom_site_fract_y
 _atom_site_fract_z
 _atom_site_occupancy
  Hg  Hg0  1  0.00000000  0.50000000  0.00000000  1
  Hg  Hg1  1  0.30800700  0.69201300  0.89770100  1
  Hg  Hg2  1  0.69199300  0.30798700  0.10229900  1
  Hg  Hg3  1  0.30722200  0.00518600  0.78156600  1
  Hg  Hg4  1  0.69277800  0.99481400  0.21843400  1
  Hg  Hg5  1  0.63116300  0.89203700  0.82291000  1
  Hg  Hg6  1  0.36883700  0.10796300  0.17709000  1
  Hg  Hg7  1  0.32489000  0.38692000  0.00620100  1
  Hg  Hg8  1  0.67511000  0.61308000  0.99379900  1
  Hg  Hg9  1  0.92836600  0.08385300  0.72162300  1
  Hg  Hg10  1  0.07163400  0.91614700  0.27837700  1
  Hg  Hg11  1  0.87610600  0.37569100  0.59516700  1
  Hg  Hg12  1  0.12389400  0.62430900  0.40483300  1
  Hg  Hg13  1  0.20226800  0.29468400  0.58935700  1
  Hg  Hg14  1  0.79773200  0.70531600  0.41064300  1
  Hg  Hg15  1  0.07182200  0.24202200  0.18533000  1
  Hg  Hg16  1  0.92817800  0.75797800  0.81467000  1
  Hg  Hg17  1  0.48496100  0.20384600  0.57614800  1
  Hg  Hg18  1  0.51503900  0.79615400  0.42385200  1
  As  As0  1  0.44825600  0.91539000  0.89702300  1
  As  As1  1  0.55174400  0.08461000  0.10297700  1
  As  As2  1  0.16695000  0.47199200  0.90245700  1
  As  As3  1  0.83305000  0.52800800  0.09754300  1
  As  As4  1  0.21649400  0.14217400  0.28611700  1
  As  As5  1  0.78350600  0.85782600  0.71388300  1
  As  As6  1  0.04304900  0.30069600  0.69832100  1
  As  As7  1  0.95695100  0.69930400  0.30167900  1
  As  As8  1  0.36417300  0.32348300  0.48604100  1
  As  As9  1  0.63582700  0.67651700  0.51395900  1
  Br  Br0  1  0.49982400  0.40996000  0.20319500  1
  Br  Br1  1  0.50017600  0.59004000  0.79680500  1
  Br  Br2  1  0.17008700  0.09839100  0.93101400  1
  Br  Br3  1  0.82991300  0.90160900  0.06898600  1
  Br  Br4  1  0.88437000  0.20089300  0.98071700  1
  Br  Br5  1  0.11563000  0.79910700  0.01928300  1
  Br  Br6  1  0.78188200  0.48775600  0.77534400  1
  Br  Br7  1  0.21811800  0.51224400  0.22465600  1
  Br  Br8  1  0.46281400  0.28704000  0.86526900  1
  Br  Br9  1  0.53718600  0.71296000  0.13473100  1
  Br  Br10  1  0.96468700  0.34416200  0.34436300  1
  Br  Br11  1  0.03531300  0.65583800  0.65563700  1
  Br  Br12  1  0.85728900  0.01301000  0.41511700  1
  Br  Br13  1  0.14271100  0.98699000  0.58488300  1
  Br  Br14  1  0.61785400  0.09374200  0.67098900  1
  Br  Br15  1  0.38214600  0.90625800  0.32901100  1
  Br  Br16  1  0.66376600  0.32015000  0.41943900  1
  Br  Br17  1  0.33623400  0.67985000  0.58056100  1
loop_
_geom_bond_atom_site_label_1
_geom_bond_atom_site_label_2
_geom_bond_distance
_geom_bond_site_symmetry_2
As0 As1 2.467296 1_566
As0 Hg3 2.555061 1_565
As0 Hg1 2.604889 1_555
As0 Hg5 2.612644 1_555
As1 Hg4 2.555061 1_545
As1 Hg2 2.604889 1_555
As1 Hg6 2.612644 1_555
As2 As6 2.456442 1_555
As2 Hg7 2.571393 1_556
As2 Hg1 2.600781 1_555
As2 Hg0 2.633476 1_556
As3 As7 2.456442 1_555
As3 Hg8 2.571393 1_554
As3 Hg2 2.600781 1_555
As3 Hg0 2.633476 1_655
As4 As8 2.486060 1_555
As4 Hg15 2.584640 1_555
As4 Hg6 2.594822 1_555
As4 Hg10 2.599315 1_545
As5 As9 2.486060 1_555
As5 Hg16 2.584640 1_555
As5 Hg5 2.594822 1_555
As5 Hg9 2.599315 1_565
As6 Hg11 2.555580 1_455
As6 Hg9 2.602039 1_455
As6 Hg13 2.611248 1_555
As7 Hg12 2.555580 1_655
As7 Hg10 2.602039 1_655
As7 Hg14 2.611248 1_555
As8 Hg17 2.539536 1_555
As8 Hg13 2.572473 1_555
As9 Hg18 2.539536 1_555
As9 Hg14 2.572473 1_555
Br0 Hg7 2.632315 1_555
Br0 Hg6 3.242266 1_555
Br1 Hg8 2.632315 1_555
Br1 Hg5 3.242266 1_555
Br2 Hg7 2.983826 1_556
Br2 Hg3 2.996703 1_555
Br2 Hg9 3.207724 1_455
Br2 Hg6 3.280930 1_556
Br3 Hg8 2.983826 1_554
Br3 Hg4 2.996703 1_555
Br3 Hg10 3.207724 1_655
Br3 Hg5 3.280930 1_554
Br4 Hg15 2.690760 1_656
Br4 Hg0 3.226633 1_656
Br5 Hg16 2.690760 1_454
Br5 Hg0 3.226633 1_555
Br6 Hg16 2.887722 1_555
Br6 Hg11 2.968549 1_555
Br6 Hg0 3.181279 1_656
Br7 Hg15 2.887722 1_555
Br7 Hg12 2.968549 1_555
Br7 Hg0 3.181279 1_555
Br8 Hg3 2.904580 1_555
Br8 Hg7 2.961135 1_556
Br9 Hg4 2.904580 1_555
Br9 Hg8 2.961135 1_554
Br10 Hg15 2.841475 1_655
Br10 Hg12 2.946627 1_655
Br11 Hg16 2.841475 1_455
Br11 Hg11 2.946627 1_455
Br12 Hg4 2.597340 1_545
Br13 Hg3 2.597340 1_565
Br14 Hg17 2.559998 1_555
Br15 Hg18 2.559998 1_555
Br16 Hg11 2.572484 1_555
Br17 Hg12 2.572484 1_555
