# generated using pymatgen
data_K6Se2O9
_symmetry_space_group_name_H-M   'P 1'
_cell_length_a   8.11316167
_cell_length_b   8.11316167
_cell_length_c   17.41616739
_cell_angle_alpha   90.00000000
_cell_angle_beta   90.00000000
_cell_angle_gamma   90.00000000
_symmetry_Int_Tables_number   1
_chemical_formula_structural   K6Se2O9
_chemical_formula_sum   'K24 Se8 O36'
_cell_volume   1146.39121819
_cell_formula_units_Z   4
loop_
 _symmetry_equiv_pos_site_id
 _symmetry_equiv_pos_as_xyz
  1  'x, y, z'
loop_
 _atom_site_type_symbol
 _atom_site_label
 _atom_site_symmetry_multiplicity
 _atom_site_fract_x
 _atom_site_fract_y
 _atom_site_fract_z
 _atom_site_occupancy
  K  K0  1  0.45874672  0.49927837  0.64712737  1
  K  K1  1  0.79364933  0.77650999  0.25425139  1
  K  K2  1  0.29364933  0.72349001  0.49574861  1
  K  K3  1  0.00273526  0.47764006  0.37274068  1
  K  K4  1  0.50273526  0.02235994  0.37725932  1
  K  K5  1  0.22349001  0.20635067  0.24574861  1
  K  K6  1  0.27650999  0.70635067  0.00425139  1
  K  K7  1  0.97764006  0.49726474  0.12274068  1
  K  K8  1  0.04125328  0.99927837  0.60287263  1
  K  K9  1  0.95874672  0.00072163  0.10287263  1
  K  K10  1  0.99927837  0.04125328  0.39712737  1
  K  K11  1  0.49927837  0.45874672  0.35287263  1
  K  K12  1  0.47764006  0.00273526  0.62725932  1
  K  K13  1  0.77650999  0.79364933  0.74574861  1
  K  K14  1  0.02235994  0.50273526  0.62274068  1
  K  K15  1  0.50072163  0.54125328  0.85287263  1
  K  K16  1  0.49726474  0.97764006  0.87725932  1
  K  K17  1  0.99726474  0.52235994  0.87274068  1
  K  K18  1  0.54125328  0.50072163  0.14712737  1
  K  K19  1  0.72349001  0.29364933  0.50425139  1
  K  K20  1  0.00072163  0.95874672  0.89712737  1
  K  K21  1  0.70635067  0.27650999  0.99574861  1
  K  K22  1  0.20635067  0.22349001  0.75425139  1
  K  K23  1  0.52235994  0.99726474  0.12725932  1
  Se  Se0  1  0.24551517  0.75448483  0.75000000  1
  Se  Se1  1  0.73415762  0.26584238  0.75000000  1
  Se  Se2  1  0.76584238  0.76584238  0.50000000  1
  Se  Se3  1  0.75448483  0.24551517  0.25000000  1
  Se  Se4  1  0.74551517  0.74551517  0.00000000  1
  Se  Se5  1  0.23415762  0.23415762  0.00000000  1
  Se  Se6  1  0.25448483  0.25448483  0.50000000  1
  Se  Se7  1  0.26584238  0.73415762  0.25000000  1
  O  O0  1  0.96532428  0.73493940  0.48545598  1
  O  O1  1  0.40573703  0.40573703  0.50000000  1
  O  O2  1  0.75864660  0.24756735  0.14617180  1
  O  O3  1  0.09426297  0.90573703  0.75000000  1
  O  O4  1  0.54579288  0.19988367  0.24810128  1
  O  O5  1  0.03467572  0.26506060  0.98545598  1
  O  O6  1  0.53467572  0.23493940  0.76454402  1
  O  O7  1  0.20918754  0.83890552  0.17285198  1
  O  O8  1  0.24135340  0.75243265  0.64617180  1
  O  O9  1  0.74756735  0.74135340  0.89617180  1
  O  O10  1  0.23493940  0.53467572  0.23545598  1
  O  O11  1  0.83890552  0.20918754  0.82714802  1
  O  O12  1  0.24756735  0.75864660  0.85382820  1
  O  O13  1  0.33890552  0.29081246  0.92285198  1
  O  O14  1  0.25864660  0.25243265  0.60382820  1
  O  O15  1  0.76506060  0.46532428  0.73545598  1
  O  O16  1  0.70918754  0.66109448  0.57714802  1
  O  O17  1  0.26506060  0.03467572  0.01454402  1
  O  O18  1  0.79081246  0.16109448  0.67285198  1
  O  O19  1  0.45420712  0.80011633  0.74810128  1
  O  O20  1  0.30011633  0.04579288  0.49810128  1
  O  O21  1  0.04579288  0.30011633  0.50189872  1
  O  O22  1  0.59426297  0.59426297  0.00000000  1
  O  O23  1  0.25243265  0.25864660  0.39617180  1
  O  O24  1  0.69988367  0.95420712  0.99810128  1
  O  O25  1  0.46532428  0.76506060  0.26454402  1
  O  O26  1  0.73493940  0.96532428  0.51454402  1
  O  O27  1  0.29081246  0.33890552  0.07714802  1
  O  O28  1  0.74135340  0.74756735  0.10382820  1
  O  O29  1  0.80011633  0.45420712  0.25189872  1
  O  O30  1  0.16109448  0.79081246  0.32714802  1
  O  O31  1  0.75243265  0.24135340  0.35382820  1
  O  O32  1  0.19988367  0.54579288  0.75189872  1
  O  O33  1  0.66109448  0.70918754  0.42285198  1
  O  O34  1  0.90573703  0.09426297  0.25000000  1
  O  O35  1  0.95420712  0.69988367  0.00189872  1
loop_
_geom_bond_atom_site_label_1
_geom_bond_atom_site_label_2
_geom_bond_distance
_geom_bond_site_symmetry_2
K0 O14 2.686085 1_555
K0 O1 2.706804 1_555
K0 O8 2.707307 1_555
K0 O16 2.708771 1_555
K0 O32 2.807638 1_555
K0 O15 2.935726 1_555
K0 O19 3.008521 1_555
K0 O6 3.026667 1_555
K1 O29 2.615743 1_555
K1 O28 2.664298 1_555
K1 O25 2.671395 1_555
K1 O34 2.734676 1_565
K1 O33 3.174461 1_555
K1 O30 3.242299 1_655
K2 O20 2.615743 1_565
K2 O8 2.664298 1_555
K2 O0 2.671395 1_455
K2 O1 2.734676 1_555
K2 O30 3.174461 1_555
K2 O33 3.242299 1_555
K3 O29 2.677283 1_455
K3 O21 2.693772 1_555
K3 O23 2.725308 1_555
K3 O31 2.812016 1_455
K3 O0 2.881574 1_455
K3 O30 2.955836 1_555
K3 O10 3.078960 1_555
K4 O20 2.677283 1_555
K4 O4 2.693772 1_555
K4 O31 2.725308 1_555
K4 O23 2.812016 1_555
K4 O25 2.881574 1_545
K4 O33 2.955836 1_545
K4 O26 3.078960 1_545
K5 O4 2.615743 1_555
K5 O23 2.664298 1_555
K5 O10 2.671395 1_555
K5 O34 2.734676 1_455
K5 O27 3.174461 1_555
K5 O7 3.242299 1_545
K6 O35 2.615743 1_455
K6 O12 2.664298 1_554
K6 O17 2.671395 1_565
K6 O22 2.734676 1_555
K6 O7 3.174461 1_555
K6 O27 3.242299 1_555
K7 O35 2.677283 1_555
K7 O29 2.693772 1_555
K7 O2 2.725308 1_555
K7 O28 2.812016 1_555
K7 O10 2.881574 1_655
K7 O27 2.955836 1_655
K7 O5 3.078960 1_654
K8 O8 2.686085 1_555
K8 O3 2.706804 1_555
K8 O14 2.707307 1_565
K8 O18 2.708771 1_465
K8 O20 2.807638 1_565
K8 O26 2.935726 1_455
K8 O21 3.008521 1_565
K8 O0 3.026667 1_455
K9 O2 2.686085 1_555
K9 O34 2.706804 1_555
K9 O28 2.707307 1_545
K9 O7 2.708771 1_645
K9 O24 2.807638 1_544
K9 O17 2.935726 1_655
K9 O35 3.008521 1_545
K9 O5 3.026667 1_654
K10 O31 2.686085 1_555
K10 O34 2.706804 1_555
K10 O23 2.707307 1_655
K10 O30 2.708771 1_645
K10 O21 2.807638 1_655
K10 O0 2.935726 1_545
K10 O20 3.008521 1_655
K10 O26 3.026667 1_545
K11 O23 2.686085 1_555
K11 O1 2.706804 1_555
K11 O31 2.707307 1_555
K11 O33 2.708771 1_555
K11 O4 2.807638 1_555
K11 O25 2.935726 1_555
K11 O29 3.008521 1_555
K11 O10 3.026667 1_555
K12 O19 2.677283 1_545
K12 O20 2.693772 1_555
K12 O14 2.725308 1_555
K12 O8 2.812016 1_545
K12 O26 2.881574 1_545
K12 O18 2.955836 1_555
K12 O6 3.078960 1_555
K13 O19 2.615743 1_555
K13 O9 2.664298 1_555
K13 O15 2.671395 1_555
K13 O3 2.734676 1_655
K13 O16 3.174461 1_555
K13 O18 3.242299 1_565
K14 O21 2.677283 1_555
K14 O32 2.693772 1_555
K14 O8 2.725308 1_555
K14 O14 2.812016 1_555
K14 O15 2.881574 1_455
K14 O16 2.955836 1_455
K14 O0 3.078960 1_455
K15 O9 2.686085 1_555
K15 O22 2.706804 1_556
K15 O12 2.707307 1_555
K15 O13 2.708771 1_555
K15 O19 2.807638 1_555
K15 O6 2.935726 1_555
K15 O32 3.008521 1_555
K15 O15 3.026667 1_555
K16 O24 2.677283 1_555
K16 O19 2.693772 1_555
K16 O12 2.725308 1_555
K16 O9 2.812016 1_555
K16 O6 2.881574 1_565
K16 O13 2.955836 1_565
K16 O17 3.078960 1_566
K17 O32 2.677283 1_655
K17 O35 2.693772 1_556
K17 O9 2.725308 1_555
K17 O12 2.812016 1_655
K17 O5 2.881574 1_655
K17 O11 2.955836 1_555
K17 O15 3.078960 1_555
K18 O28 2.686085 1_555
K18 O22 2.706804 1_555
K18 O2 2.707307 1_555
K18 O27 2.708771 1_555
K18 O29 2.807638 1_555
K18 O10 2.935726 1_555
K18 O4 3.008521 1_555
K18 O25 3.026667 1_555
K19 O21 2.615743 1_655
K19 O31 2.664298 1_555
K19 O26 2.671395 1_545
K19 O1 2.734676 1_555
K19 O18 3.174461 1_555
K19 O16 3.242299 1_555
K20 O12 2.686085 1_555
K20 O3 2.706804 1_555
K20 O9 2.707307 1_455
K20 O11 2.708771 1_465
K20 O35 2.807638 1_456
K20 O5 2.935726 1_565
K20 O24 3.008521 1_455
K20 O17 3.026667 1_566
K21 O24 2.615743 1_545
K21 O2 2.664298 1_556
K21 O5 2.671395 1_655
K21 O22 2.734676 1_556
K21 O11 3.174461 1_555
K21 O13 3.242299 1_555
K22 O32 2.615743 1_555
K22 O14 2.664298 1_555
K22 O6 2.671395 1_555
K22 O3 2.734676 1_545
K22 O13 3.174461 1_555
K22 O11 3.242299 1_455
K23 O4 2.677283 1_565
K23 O24 2.693772 1_554
K23 O28 2.725308 1_555
K23 O2 2.812016 1_565
K23 O17 2.881574 1_565
K23 O7 2.955836 1_555
K23 O25 3.078960 1_555
O0 Se2 1.657207 1_555
O1 Se6 1.735429 1_555
O2 Se3 1.808681 1_555
O3 Se0 1.735429 1_555
O4 Se3 1.733469 1_555
O5 Se5 1.657207 1_556
O6 Se1 1.657207 1_555
O7 Se7 1.654939 1_555
O8 Se0 1.808681 1_555
O9 Se4 1.808681 1_556
O10 Se7 1.657207 1_555
O11 Se1 1.654939 1_555
O12 Se0 1.808681 1_555
O13 Se5 1.654939 1_556
O14 Se6 1.808681 1_555
O15 Se1 1.657207 1_555
O16 Se2 1.654939 1_555
O17 Se5 1.657207 1_555
O18 Se1 1.654939 1_555
O19 Se0 1.733469 1_555
O20 Se6 1.733469 1_555
O21 Se6 1.733469 1_555
O22 Se4 1.735429 1_555
O23 Se6 1.808681 1_555
O24 Se4 1.733469 1_556
O25 Se7 1.657207 1_555
O26 Se2 1.657207 1_555
O27 Se5 1.654939 1_555
O28 Se4 1.808681 1_555
O29 Se3 1.733469 1_555
O30 Se7 1.654939 1_555
O31 Se3 1.808681 1_555
O32 Se0 1.733469 1_555
O33 Se2 1.654939 1_555
O34 Se3 1.735429 1_555
O35 Se4 1.733469 1_555
