# generated using pymatgen
data_CsGa2P5O16
_symmetry_space_group_name_H-M   'P 1'
_cell_length_a   9.37008200
_cell_length_b   7.55859100
_cell_length_c   10.35815725
_cell_angle_alpha   67.72894285
_cell_angle_beta   90.00000000
_cell_angle_gamma   90.00000000
_symmetry_Int_Tables_number   1
_chemical_formula_structural   CsGa2P5O16
_chemical_formula_sum   'Cs2 Ga4 P10 O32'
_cell_volume   678.88597122
_cell_formula_units_Z   2
loop_
 _symmetry_equiv_pos_site_id
 _symmetry_equiv_pos_as_xyz
  1  'x, y, z'
loop_
 _atom_site_type_symbol
 _atom_site_label
 _atom_site_symmetry_multiplicity
 _atom_site_fract_x
 _atom_site_fract_y
 _atom_site_fract_z
 _atom_site_occupancy
  Cs  Cs0  1  0.19600300  0.98044900  0.26486000  1
  Cs  Cs1  1  0.80399700  0.98044900  0.76486000  1
  Ga  Ga0  1  0.63094300  0.91437600  0.37292300  1
  Ga  Ga1  1  0.13859200  0.35649400  0.48039300  1
  Ga  Ga2  1  0.36905700  0.91437600  0.87292300  1
  Ga  Ga3  1  0.86140800  0.35649400  0.98039300  1
  P  P0  1  0.58534900  0.10318900  0.03883900  1
  P  P1  1  0.54457000  0.50048600  0.99943100  1
  P  P2  1  0.12701100  0.26343800  0.81215800  1
  P  P3  1  0.70354000  0.55325400  0.63796200  1
  P  P4  1  0.87298900  0.26343800  0.31215800  1
  P  P5  1  0.86065000  0.59843900  0.38312000  1
  P  P6  1  0.45543000  0.50048600  0.49943100  1
  P  P7  1  0.29646000  0.55325400  0.13796200  1
  P  P8  1  0.13935000  0.59843900  0.88312000  1
  P  P9  1  0.41465100  0.10318900  0.53883900  1
  O  O0  1  0.50659400  0.31301700  0.97002500  1
  O  O1  1  0.21696900  0.47699900  0.02988200  1
  O  O2  1  0.74614300  0.13316700  0.01859900  1
  O  O3  1  0.54405700  0.46890900  0.64197700  1
  O  O4  1  0.06546600  0.27927000  0.67160000  1
  O  O5  1  0.51831100  0.67153100  0.38495300  1
  O  O6  1  0.23130900  0.45751800  0.27796700  1
  O  O7  1  0.81923800  0.48114500  0.29067700  1
  O  O8  1  0.45594300  0.46890900  0.14197700  1
  O  O9  1  0.29763300  0.50291900  0.52846800  1
  O  O10  1  0.48168900  0.67153100  0.88495300  1
  O  O11  1  0.49340600  0.31301700  0.47002500  1
  O  O12  1  0.93453400  0.27927000  0.17160000  1
  O  O13  1  0.78303100  0.47699900  0.52988200  1
  O  O14  1  0.46720800  0.99169700  0.45364800  1
  O  O15  1  0.02074100  0.59184700  0.40974600  1
  O  O16  1  0.70236700  0.50291900  0.02846800  1
  O  O17  1  0.80130000  0.79778300  0.31688900  1
  O  O18  1  0.19870000  0.79778300  0.81688900  1
  O  O19  1  0.70158800  0.76954200  0.57360800  1
  O  O20  1  0.25385700  0.13316700  0.51859900  1
  O  O21  1  0.98800500  0.21286400  0.42578300  1
  O  O22  1  0.25854800  0.13883700  0.86008500  1
  O  O23  1  0.76869100  0.45751800  0.77796700  1
  O  O24  1  0.45992400  0.02428800  0.69154600  1
  O  O25  1  0.53279200  0.99169700  0.95364800  1
  O  O26  1  0.74145200  0.13883700  0.36008500  1
  O  O27  1  0.54007600  0.02428800  0.19154600  1
  O  O28  1  0.97925900  0.59184700  0.90974600  1
  O  O29  1  0.01199500  0.21286400  0.92578300  1
  O  O30  1  0.18076200  0.48114500  0.79067700  1
  O  O31  1  0.29841200  0.76954200  0.07360800  1
loop_
_geom_bond_atom_site_label_1
_geom_bond_atom_site_label_2
_geom_bond_distance
_geom_bond_site_symmetry_2
Cs0 O31 3.127349 1_555
Cs0 O15 3.199298 1_555
Cs0 O12 3.222320 1_465
Cs0 O14 3.227224 1_555
Cs0 O20 3.291470 1_565
Cs0 O27 3.299981 1_565
Cs0 O21 3.447102 1_465
Cs0 O1 3.622858 1_565
Cs0 O6 3.674502 1_565
Cs0 O29 3.703751 1_564
Cs0 O5 3.730771 1_555
Cs0 O9 3.730989 1_555
Cs1 O19 3.127349 1_555
Cs1 O28 3.199298 1_555
Cs1 O4 3.222320 1_665
Cs1 O25 3.227224 1_555
Cs1 O2 3.291470 1_566
Cs1 O24 3.299981 1_565
Cs1 O29 3.447102 1_665
Cs1 O13 3.622858 1_565
Cs1 O23 3.674502 1_565
Cs1 O21 3.703751 1_565
Cs1 O10 3.730771 1_555
Cs1 O16 3.730989 1_556
Ga0 O27 1.939511 1_565
Ga0 O14 1.940348 1_555
Ga0 O26 1.948685 1_565
Ga0 O17 2.012282 1_555
Ga0 O19 2.057386 1_555
Ga0 O5 2.079728 1_555
Ga1 O20 1.914738 1_555
Ga1 O4 1.963804 1_555
Ga1 O15 1.983131 1_555
Ga1 O21 1.988723 1_455
Ga1 O9 2.027666 1_555
Ga1 O6 2.126183 1_555
Ga2 O24 1.939511 1_565
Ga2 O25 1.940348 1_555
Ga2 O22 1.948685 1_565
Ga2 O18 2.012282 1_555
Ga2 O31 2.057386 1_556
Ga2 O10 2.079728 1_555
Ga3 O2 1.914738 1_556
Ga3 O12 1.963804 1_556
Ga3 O28 1.983131 1_555
Ga3 O29 1.988723 1_655
Ga3 O16 2.027666 1_556
Ga3 O23 2.126183 1_555
O0 P1 1.598261 1_555
O0 P0 1.646557 1_556
O1 P8 1.620125 1_554
O1 P7 1.621541 1_555
O2 P0 1.526202 1_555
O3 P3 1.619017 1_555
O3 P6 1.630820 1_555
O4 P2 1.527917 1_555
O5 P6 1.504228 1_555
O6 P7 1.484571 1_555
O7 P5 1.580172 1_555
O7 P4 1.653332 1_555
O8 P7 1.619017 1_555
O8 P1 1.630820 1_554
O9 P6 1.510353 1_555
O10 P1 1.504228 1_555
O11 P6 1.598261 1_555
O11 P9 1.646557 1_555
O12 P4 1.527917 1_555
O13 P5 1.620125 1_555
O13 P3 1.621541 1_555
O14 P9 1.514935 1_565
O15 P5 1.522606 1_455
O16 P1 1.510353 1_554
O17 P5 1.505562 1_555
O18 P8 1.505562 1_555
O19 P3 1.513717 1_555
O20 P9 1.526202 1_555
O21 P4 1.533547 1_555
O22 P2 1.515964 1_555
O23 P3 1.484571 1_555
O24 P9 1.524000 1_555
O25 P0 1.514935 1_566
O26 P4 1.515964 1_555
O27 P0 1.524000 1_555
O28 P8 1.522606 1_655
O29 P2 1.533547 1_555
O30 P8 1.580172 1_555
O30 P2 1.653332 1_555
O31 P7 1.513717 1_555
