# generated using pymatgen
data_FeB2
_symmetry_space_group_name_H-M   'P 1'
_cell_length_a   2.76362700
_cell_length_b   3.01919786
_cell_length_c   3.01919786
_cell_angle_alpha   119.99999683
_cell_angle_beta   90.00000000
_cell_angle_gamma   90.00000000
_symmetry_Int_Tables_number   1
_chemical_formula_structural   FeB2
_chemical_formula_sum   'Fe1 B2'
_cell_volume   21.81690905
_cell_formula_units_Z   1
loop_
 _symmetry_equiv_pos_site_id
 _symmetry_equiv_pos_as_xyz
  1  'x, y, z'
loop_
 _atom_site_type_symbol
 _atom_site_label
 _atom_site_symmetry_multiplicity
 _atom_site_fract_x
 _atom_site_fract_y
 _atom_site_fract_z
 _atom_site_occupancy
  Fe  Fe0  1  0.00000000  0.00000000  0.00000000  1
  B  B0  1  0.50000000  0.33333300  0.66666700  1
  B  B1  1  0.50000000  0.66666700  0.33333300  1
loop_
_geom_bond_atom_site_label_1
_geom_bond_atom_site_label_2
_geom_bond_distance
_geom_bond_site_symmetry_2
B0 B1 1.743133 1_545
B0 B1 1.743133 1_556
B0 B1 1.743138 1_555
B0 Fe0 2.224392 1_656
B0 Fe0 2.224392 1_556
B0 Fe0 2.224394 1_655
B0 Fe0 2.224394 1_555
B0 Fe0 2.224394 1_566
B0 Fe0 2.224394 1_666
B1 Fe0 2.224392 1_665
B1 Fe0 2.224392 1_565
B1 Fe0 2.224394 1_655
B1 Fe0 2.224394 1_566
B1 Fe0 2.224394 1_555
B1 Fe0 2.224394 1_666
