# generated using pymatgen
data_Cs2MgH12(SO7)2
_symmetry_space_group_name_H-M   'P 1'
_cell_length_a   12.97004300
_cell_length_b   6.42130400
_cell_length_c   9.39430503
_cell_angle_alpha   73.33633860
_cell_angle_beta   90.00000000
_cell_angle_gamma   90.00000000
_symmetry_Int_Tables_number   1
_chemical_formula_structural   Cs2MgH12(SO7)2
_chemical_formula_sum   'Cs4 Mg2 H24 S4 O28'
_cell_volume   749.54356135
_cell_formula_units_Z   2
loop_
 _symmetry_equiv_pos_site_id
 _symmetry_equiv_pos_as_xyz
  1  'x, y, z'
loop_
 _atom_site_type_symbol
 _atom_site_label
 _atom_site_symmetry_multiplicity
 _atom_site_fract_x
 _atom_site_fract_y
 _atom_site_fract_z
 _atom_site_occupancy
  Cs  Cs0  1  0.35686100  0.64823800  0.12706600  1
  Cs  Cs1  1  0.85686100  0.35176200  0.37293400  1
  Cs  Cs2  1  0.64313900  0.35176200  0.87293400  1
  Cs  Cs3  1  0.14313900  0.64823800  0.62706600  1
  Mg  Mg0  1  0.00000000  0.00000000  0.00000000  1
  Mg  Mg1  1  0.50000000  0.00000000  0.50000000  1
  H  H0  1  0.09996200  0.68233000  0.21289400  1
  H  H1  1  0.59996200  0.31767000  0.28710600  1
  H  H2  1  0.90003800  0.31767000  0.78710600  1
  H  H3  1  0.40003800  0.68233000  0.71289400  1
  H  H4  1  0.13090200  0.91574400  0.23511900  1
  H  H5  1  0.63090200  0.08425600  0.26488100  1
  H  H6  1  0.86909800  0.08425600  0.76488100  1
  H  H7  1  0.36909800  0.91574400  0.73511900  1
  H  H8  1  0.09721900  0.07223100  0.72494900  1
  H  H9  1  0.59721900  0.92776900  0.77505100  1
  H  H10  1  0.90278100  0.92776900  0.27505100  1
  H  H11  1  0.40278100  0.07223100  0.22494900  1
  H  H12  1  0.18335800  0.01635800  0.84863300  1
  H  H13  1  0.68335800  0.98364200  0.65136700  1
  H  H14  1  0.81664200  0.98364200  0.15136700  1
  H  H15  1  0.31664200  0.01635800  0.34863300  1
  H  H16  1  0.93905700  0.66252500  0.90069300  1
  H  H17  1  0.43905700  0.33747500  0.59930700  1
  H  H18  1  0.06094300  0.33747500  0.09930700  1
  H  H19  1  0.56094300  0.66252500  0.40069300  1
  H  H20  1  0.86120400  0.68600900  0.02268600  1
  H  H21  1  0.36120400  0.31399100  0.47731400  1
  H  H22  1  0.13879600  0.31399100  0.97731400  1
  H  H23  1  0.63879600  0.68600900  0.52268600  1
  S  S0  1  0.14851900  0.25878300  0.39558500  1
  S  S1  1  0.64851900  0.74121700  0.10441500  1
  S  S2  1  0.85148100  0.74121700  0.60441500  1
  S  S3  1  0.35148100  0.25878300  0.89558500  1
  O  O0  1  0.23912800  0.38937200  0.41787300  1
  O  O1  1  0.73912800  0.61062800  0.08212700  1
  O  O2  1  0.76087200  0.61062800  0.58212700  1
  O  O3  1  0.26087200  0.38937200  0.91787300  1
  O  O4  1  0.08412200  0.19720400  0.53252400  1
  O  O5  1  0.58412200  0.80279600  0.96747600  1
  O  O6  1  0.91587800  0.80279600  0.46747600  1
  O  O7  1  0.41587800  0.19720400  0.03252400  1
  O  O8  1  0.08481500  0.39721000  0.27038900  1
  O  O9  1  0.58481500  0.60279000  0.22961100  1
  O  O10  1  0.91518500  0.60279000  0.72961100  1
  O  O11  1  0.41518500  0.39721000  0.77038900  1
  O  O12  1  0.18479500  0.05933400  0.35737300  1
  O  O13  1  0.68479500  0.94066600  0.14262700  1
  O  O14  1  0.81520500  0.94066600  0.64262700  1
  O  O15  1  0.31520500  0.05933400  0.85737300  1
  O  O16  1  0.10861200  0.84002000  0.16202700  1
  O  O17  1  0.60861200  0.15998000  0.33797300  1
  O  O18  1  0.89138800  0.15998000  0.83797300  1
  O  O19  1  0.39138800  0.84002000  0.66202700  1
  O  O20  1  0.10897100  0.99305600  0.83105600  1
  O  O21  1  0.60897100  0.00694400  0.66894400  1
  O  O22  1  0.89102900  0.00694400  0.16894400  1
  O  O23  1  0.39102900  0.99305600  0.33105600  1
  O  O24  1  0.93492500  0.70832800  0.99265700  1
  O  O25  1  0.43492500  0.29167200  0.50734300  1
  O  O26  1  0.06507500  0.29167200  0.00734300  1
  O  O27  1  0.56507500  0.70832800  0.49265700  1
loop_
_geom_bond_atom_site_label_1
_geom_bond_atom_site_label_2
_geom_bond_distance
_geom_bond_site_symmetry_2
Cs0 O9 3.097302 1_555
Cs0 O15 3.137463 1_564
Cs0 O0 3.154978 1_555
Cs0 H11 3.169946 1_565
Cs0 O3 3.169961 1_554
Cs0 O5 3.326802 1_554
Cs0 O7 3.352327 1_555
Cs1 O8 3.097302 1_655
Cs1 O14 3.137463 1_545
Cs1 O1 3.154978 1_555
Cs1 H10 3.169946 1_545
Cs1 O2 3.169961 1_555
Cs1 O4 3.326802 1_655
Cs1 O6 3.352327 1_555
Cs2 O11 3.097302 1_555
Cs2 O13 3.137463 1_546
Cs2 O2 3.154978 1_555
Cs2 H9 3.169946 1_545
Cs2 O1 3.169961 1_556
Cs2 O7 3.326802 1_556
Cs2 O5 3.352327 1_555
Cs3 O10 3.097302 1_455
Cs3 O12 3.137463 1_565
Cs3 O3 3.154978 1_555
Cs3 H8 3.169946 1_565
Cs3 O0 3.169961 1_555
Cs3 O6 3.326802 1_455
Cs3 O4 3.352327 1_555
Mg0 O26 2.073413 1_555
Mg0 O24 2.073413 1_444
Mg0 O16 2.111839 1_545
Mg0 O18 2.111839 1_454
Mg0 O20 2.135200 1_544
Mg0 O22 2.135200 1_455
Mg1 O25 2.073413 1_555
Mg1 O27 2.073413 1_545
Mg1 O19 2.111839 1_545
Mg1 O17 2.111839 1_555
Mg1 O23 2.135200 1_545
Mg1 O21 2.135200 1_555
H0 O16 0.994356 1_555
H1 O17 0.994356 1_555
H2 O18 0.994356 1_555
H3 O19 0.994356 1_555
H4 O16 0.991456 1_555
H5 O17 0.991456 1_555
H6 O18 0.991456 1_555
H7 O19 0.991456 1_555
H8 O20 0.992311 1_545
H9 O21 0.992311 1_565
H10 O22 0.992311 1_565
H11 O23 0.992311 1_545
H12 O20 0.997331 1_545
H13 O21 0.997331 1_565
H14 O22 0.997331 1_565
H15 O23 0.997331 1_545
H16 O24 0.990702 1_555
H17 O25 0.990702 1_555
H18 O26 0.990702 1_555
H19 O27 0.990702 1_555
H20 O24 0.995583 1_554
H21 O25 0.995583 1_555
H22 O26 0.995583 1_556
H23 O27 0.995583 1_555
O0 S0 1.492918 1_555
O1 S1 1.492918 1_555
O2 S2 1.492918 1_555
O3 S3 1.492918 1_555
O4 S0 1.489020 1_555
O5 S1 1.489020 1_556
O6 S2 1.489020 1_555
O7 S3 1.489020 1_554
O8 S0 1.502166 1_555
O9 S1 1.502166 1_555
O10 S2 1.502166 1_555
O11 S3 1.502166 1_555
O12 S0 1.501384 1_555
O13 S1 1.501384 1_555
O14 S2 1.501384 1_555
O15 S3 1.501384 1_555
