# generated using pymatgen
data_K2FeF5
_symmetry_space_group_name_H-M   'P 1'
_cell_length_a   7.55976100
_cell_length_b   13.05866000
_cell_length_c   20.77814300
_cell_angle_alpha   90.00000000
_cell_angle_beta   90.00000000
_cell_angle_gamma   90.00000000
_symmetry_Int_Tables_number   1
_chemical_formula_structural   K2FeF5
_chemical_formula_sum   'K32 Fe16 F80'
_cell_volume   2051.22551981
_cell_formula_units_Z   16
loop_
 _symmetry_equiv_pos_site_id
 _symmetry_equiv_pos_as_xyz
  1  'x, y, z'
loop_
 _atom_site_type_symbol
 _atom_site_label
 _atom_site_symmetry_multiplicity
 _atom_site_fract_x
 _atom_site_fract_y
 _atom_site_fract_z
 _atom_site_occupancy
  K  K0  1  0.67719200  0.01897300  0.49243300  1
  K  K1  1  0.67719200  0.48102700  0.99243300  1
  K  K2  1  0.01471100  0.46096300  0.66333500  1
  K  K3  1  0.65166600  0.48076900  0.50626700  1
  K  K4  1  0.66788400  0.21386500  0.75015300  1
  K  K5  1  0.32566300  0.22905300  0.58433700  1
  K  K6  1  0.81455300  0.96477400  0.66181400  1
  K  K7  1  0.50788100  0.76774400  0.08248000  1
  K  K8  1  0.15166600  0.51923100  0.49373300  1
  K  K9  1  0.16609300  0.32354900  0.25080300  1
  K  K10  1  0.15166600  0.98076900  0.99373300  1
  K  K11  1  0.17719200  0.51897300  0.00756700  1
  K  K12  1  0.82566300  0.72905300  0.91566300  1
  K  K13  1  0.66609300  0.82354900  0.24919700  1
  K  K14  1  0.81455300  0.53522600  0.16181400  1
  K  K15  1  0.31455300  0.46477400  0.83818600  1
  K  K16  1  0.00788100  0.26774400  0.41752000  1
  K  K17  1  0.16788400  0.71386500  0.74984700  1
  K  K18  1  0.50788100  0.73225600  0.58248000  1
  K  K19  1  0.16609300  0.17645100  0.75080300  1
  K  K20  1  0.01471100  0.03903700  0.16333500  1
  K  K21  1  0.17719200  0.98102700  0.50756700  1
  K  K22  1  0.65166600  0.01923100  0.00626700  1
  K  K23  1  0.51471100  0.53903700  0.33666500  1
  K  K24  1  0.32566300  0.27094700  0.08433700  1
  K  K25  1  0.51471100  0.96096300  0.83666500  1
  K  K26  1  0.66609300  0.67645100  0.74919700  1
  K  K27  1  0.66788400  0.28613500  0.25015300  1
  K  K28  1  0.16788400  0.78613500  0.24984700  1
  K  K29  1  0.31455300  0.03522600  0.33818600  1
  K  K30  1  0.00788100  0.23225600  0.91752000  1
  K  K31  1  0.82566300  0.77094700  0.41566300  1
  Fe  Fe0  1  0.49307500  0.24982100  0.92190900  1
  Fe  Fe1  1  0.32873000  0.94633300  0.67232600  1
  Fe  Fe2  1  0.33230500  0.75136500  0.42278100  1
  Fe  Fe3  1  0.50093800  0.05318000  0.17113600  1
  Fe  Fe4  1  0.50093800  0.44682000  0.67113600  1
  Fe  Fe5  1  0.83230500  0.24863500  0.57721900  1
  Fe  Fe6  1  0.00093800  0.55318000  0.32886400  1
  Fe  Fe7  1  0.33230500  0.74863500  0.92278100  1
  Fe  Fe8  1  0.49307500  0.25017900  0.42190900  1
  Fe  Fe9  1  0.82873000  0.44633300  0.82767400  1
  Fe  Fe10  1  0.99307500  0.75017900  0.07809100  1
  Fe  Fe11  1  0.82873000  0.05366700  0.32767400  1
  Fe  Fe12  1  0.83230500  0.25136500  0.07721900  1
  Fe  Fe13  1  0.99307500  0.74982100  0.57809100  1
  Fe  Fe14  1  0.32873000  0.55366700  0.17232600  1
  Fe  Fe15  1  0.00093800  0.94682000  0.82886400  1
  F  F0  1  0.47241200  0.55017700  0.09612500  1
  F  F1  1  0.45710500  0.67258400  0.20297700  1
  F  F2  1  0.99070300  0.33936700  0.03099200  1
  F  F3  1  0.38967900  0.37344900  0.96092500  1
  F  F4  1  0.84660900  0.54870400  0.40212900  1
  F  F5  1  0.17188100  0.92843400  0.75274600  1
  F  F6  1  0.16316100  0.65429600  0.12601600  1
  F  F7  1  0.47795100  0.74229000  0.34745900  1
  F  F8  1  0.83411900  0.73899800  0.14954800  1
  F  F9  1  0.17027700  0.75122800  0.50289400  1
  F  F10  1  0.86941500  0.45610000  0.27714300  1
  F  F11  1  0.69066400  0.36110500  0.10979400  1
  F  F12  1  0.84167300  0.83672400  0.02780000  1
  F  F13  1  0.16316100  0.84570400  0.62601600  1
  F  F14  1  0.95710500  0.17258400  0.29702300  1
  F  F15  1  0.33411900  0.26100200  0.85045200  1
  F  F16  1  0.62484500  0.36121300  0.38607300  1
  F  F17  1  0.87610100  0.67241800  0.29614900  1
  F  F18  1  0.87610100  0.82758200  0.79614900  1
  F  F19  1  0.67027700  0.25122800  0.99710600  1
  F  F20  1  0.94130000  0.37146500  0.53978100  1
  F  F21  1  0.96796000  0.54354400  0.77864500  1
  F  F22  1  0.19066400  0.86110500  0.39020600  1
  F  F23  1  0.88967900  0.87344900  0.53907500  1
  F  F24  1  0.34167300  0.33672400  0.47220000  1
  F  F25  1  0.47795100  0.75771000  0.84745900  1
  F  F26  1  0.17027700  0.74877200  0.00289400  1
  F  F27  1  0.34660900  0.45129600  0.59787100  1
  F  F28  1  0.12484500  0.86121300  0.11392700  1
  F  F29  1  0.49070300  0.83936700  0.46900800  1
  F  F30  1  0.44130000  0.62853500  0.46021900  1
  F  F31  1  0.45710500  0.82741600  0.70297700  1
  F  F32  1  0.67419200  0.94741300  0.35785300  1
  F  F33  1  0.84167300  0.66327600  0.52780000  1
  F  F34  1  0.67188100  0.07156600  0.24725400  1
  F  F35  1  0.34660900  0.04870400  0.09787100  1
  F  F36  1  0.66316100  0.15429600  0.37398400  1
  F  F37  1  0.86941500  0.04390000  0.77714300  1
  F  F38  1  0.37610100  0.17241800  0.20385100  1
  F  F39  1  0.83411900  0.76100200  0.64954800  1
  F  F40  1  0.19066400  0.63889500  0.89020600  1
  F  F41  1  0.65556100  0.15433500  0.12009900  1
  F  F42  1  0.65270100  0.94744200  0.13843500  1
  F  F43  1  0.12484500  0.63878700  0.61392700  1
  F  F44  1  0.47241200  0.94982300  0.59612500  1
  F  F45  1  0.84660900  0.95129600  0.90212900  1
  F  F46  1  0.46796000  0.04354400  0.72135500  1
  F  F47  1  0.96796000  0.95645600  0.27864500  1
  F  F48  1  0.88967900  0.62655100  0.03907500  1
  F  F49  1  0.15556100  0.84566500  0.87990100  1
  F  F50  1  0.65556100  0.34566500  0.62009900  1
  F  F51  1  0.66316100  0.34570400  0.87398400  1
  F  F52  1  0.67027700  0.24877200  0.49710600  1
  F  F53  1  0.36941500  0.95610000  0.22285700  1
  F  F54  1  0.46796000  0.45645600  0.22135500  1
  F  F55  1  0.34167300  0.16327600  0.97220000  1
  F  F56  1  0.33411900  0.23899800  0.35045200  1
  F  F57  1  0.38967900  0.12655100  0.46092500  1
  F  F58  1  0.65270100  0.55255800  0.63843500  1
  F  F59  1  0.97241200  0.05017700  0.40387500  1
  F  F60  1  0.17419200  0.44741300  0.14214700  1
  F  F61  1  0.49070300  0.66063300  0.96900800  1
  F  F62  1  0.17188100  0.57156600  0.25274600  1
  F  F63  1  0.95710500  0.32741600  0.79702300  1
  F  F64  1  0.67419200  0.55258700  0.85785300  1
  F  F65  1  0.99070300  0.16063300  0.53099200  1
  F  F66  1  0.67188100  0.42843400  0.74725400  1
  F  F67  1  0.62484500  0.13878700  0.88607300  1
  F  F68  1  0.97795100  0.24229000  0.15254100  1
  F  F69  1  0.97241200  0.44982300  0.90387500  1
  F  F70  1  0.94130000  0.12853500  0.03978100  1
  F  F71  1  0.37610100  0.32758200  0.70385100  1
  F  F72  1  0.44130000  0.87146500  0.96021900  1
  F  F73  1  0.15270100  0.44744200  0.36156500  1
  F  F74  1  0.69066400  0.13889500  0.60979400  1
  F  F75  1  0.97795100  0.25771000  0.65254100  1
  F  F76  1  0.15556100  0.65433500  0.37990100  1
  F  F77  1  0.36941500  0.54390000  0.72285700  1
  F  F78  1  0.15270100  0.05255800  0.86156500  1
  F  F79  1  0.17419200  0.05258700  0.64214700  1
loop_
_geom_bond_atom_site_label_1
_geom_bond_atom_site_label_2
_geom_bond_distance
_geom_bond_site_symmetry_2
F0 Fe14 1.920624 1_555
F0 K1 2.802496 1_554
F0 K7 2.867807 1_555
F0 K11 2.921096 1_555
F0 K14 2.931051 1_555
F1 Fe14 1.938797 1_555
F1 K13 2.702740 1_555
F1 K28 2.815621 1_555
F1 K7 2.821363 1_555
F2 Fe12 1.917578 1_555
F2 K30 2.744490 1_654
F2 K11 2.779468 1_655
F2 K24 2.904995 1_655
F2 K1 3.111465 1_554
F3 Fe0 1.968379 1_555
F3 K1 2.669525 1_555
F3 K11 2.670376 1_556
F3 K15 2.872068 1_555
F3 K24 2.932811 1_556
F4 Fe6 1.918857 1_655
F4 K3 2.764214 1_555
F4 K23 2.856845 1_555
F4 K31 2.920085 1_555
F4 K8 3.014843 1_655
F5 Fe15 2.056474 1_555
F5 Fe1 2.062228 1_555
F5 K17 2.802794 1_555
F6 Fe10 2.052479 1_455
F6 Fe14 2.054108 1_555
F6 K11 3.031713 1_555
F6 K28 3.096052 1_555
F6 K7 3.131184 1_555
F6 K14 3.149009 1_455
F7 Fe2 1.917222 1_555
F7 K23 2.678128 1_555
F7 K13 2.705090 1_555
F7 K31 3.009652 1_555
F7 K28 3.152124 1_555
F8 Fe10 1.915670 1_555
F8 K13 2.668266 1_555
F8 K14 2.677256 1_555
F8 K7 2.857522 1_555
F8 K28 3.329943 1_655
F9 Fe13 2.058189 1_455
F9 Fe2 2.066702 1_555
F9 K21 3.002892 1_555
F9 K8 3.038803 1_555
F9 K18 3.051178 1_555
F9 K31 3.184105 1_455
F10 Fe6 1.936661 1_655
F10 K14 2.642355 1_555
F10 K27 2.749887 1_555
F10 K9 2.885463 1_655
F10 K23 3.145294 1_555
F11 Fe12 1.912676 1_555
F11 K14 2.686182 1_555
F11 K1 2.899877 1_554
F11 K24 3.046272 1_555
F11 K27 3.081152 1_555
F12 Fe10 1.918129 1_555
F12 K12 2.724057 1_554
F12 K22 2.818431 1_565
F12 K7 2.910281 1_555
F12 K10 3.087265 1_654
F13 Fe13 2.052479 1_455
F13 Fe1 2.054108 1_555
F13 K21 3.031713 1_555
F13 K17 3.096052 1_555
F13 K18 3.131184 1_555
F13 K6 3.149009 1_455
F14 Fe11 1.938797 1_555
F14 K9 2.702740 1_655
F14 K27 2.815621 1_555
F14 K16 2.821363 1_655
F15 Fe0 1.915670 1_555
F15 K19 2.668266 1_555
F15 K15 2.677256 1_555
F15 K30 2.857522 1_555
F15 K4 3.329943 1_555
F16 Fe8 1.910267 1_555
F16 K23 2.671979 1_555
F16 K3 2.952225 1_555
F16 K27 3.007157 1_555
F16 K16 3.209612 1_655
F17 Fe6 1.943511 1_655
F17 K13 2.714263 1_555
F17 K31 2.822685 1_555
F17 K28 2.827786 1_655
F18 Fe15 1.943511 1_655
F18 K26 2.714263 1_555
F18 K12 2.822685 1_555
F18 K17 2.827786 1_655
F19 Fe0 2.058189 1_555
F19 Fe12 2.066702 1_556
F19 K1 3.002892 1_555
F19 K22 3.038803 1_556
F19 K30 3.051178 1_655
F19 K24 3.184105 1_556
F20 Fe5 1.963887 1_555
F20 K8 2.677315 1_655
F20 K3 2.704898 1_555
F20 K2 2.874811 1_655
F20 K16 2.922553 1_655
F21 Fe9 1.938339 1_555
F21 K2 2.651098 1_655
F21 K17 2.754853 1_655
F21 K26 2.931616 1_555
F21 K15 3.074714 1_655
F22 Fe2 1.912676 1_555
F22 K29 2.686182 1_565
F22 K21 2.899877 1_555
F22 K31 3.046272 1_455
F22 K28 3.081152 1_555
F23 Fe13 1.968379 1_555
F23 K21 2.669525 1_655
F23 K0 2.670376 1_565
F23 K6 2.872068 1_555
F23 K31 2.932811 1_555
F24 Fe8 1.918129 1_555
F24 K5 2.724057 1_555
F24 K8 2.818431 1_555
F24 K16 2.910281 1_555
F24 K3 3.087265 1_555
F25 Fe7 1.917222 1_555
F25 K25 2.678128 1_555
F25 K26 2.705090 1_555
F25 K12 3.009652 1_555
F25 K17 3.152124 1_555
F26 Fe10 2.058189 1_455
F26 Fe7 2.066702 1_554
F26 K11 3.002892 1_555
F26 K10 3.038803 1_554
F26 K7 3.051178 1_555
F26 K12 3.184105 1_454
F27 Fe4 1.918857 1_555
F27 K8 2.764214 1_555
F27 K2 2.856845 1_555
F27 K5 2.920085 1_555
F27 K3 3.014843 1_555
F28 Fe10 1.910267 1_455
F28 K20 2.671979 1_565
F28 K10 2.952225 1_554
F28 K28 3.007157 1_555
F28 K7 3.209612 1_555
F29 Fe2 1.917578 1_555
F29 K18 2.744490 1_555
F29 K0 2.779468 1_565
F29 K31 2.904995 1_555
F29 K21 3.111465 1_555
F30 Fe2 1.963887 1_555
F30 K3 2.677315 1_555
F30 K8 2.704898 1_555
F30 K23 2.874811 1_555
F30 K18 2.922553 1_555
F31 Fe1 1.938797 1_555
F31 K26 2.702740 1_555
F31 K17 2.815621 1_555
F31 K18 2.821363 1_555
F32 Fe11 1.919197 1_565
F32 K13 2.777971 1_555
F32 K31 2.839783 1_555
F32 K0 2.948420 1_565
F32 K29 2.978884 1_565
F33 Fe13 1.918129 1_555
F33 K31 2.724057 1_555
F33 K3 2.818431 1_555
F33 K18 2.910281 1_555
F33 K8 3.087265 1_655
F34 Fe3 2.056474 1_555
F34 Fe11 2.062228 1_555
F34 K27 2.802794 1_555
F35 Fe3 1.918857 1_555
F35 K10 2.764214 1_544
F35 K20 2.856845 1_555
F35 K24 2.920085 1_555
F35 K22 3.014843 1_555
F36 Fe8 2.052479 1_555
F36 Fe11 2.054108 1_555
F36 K0 3.031713 1_555
F36 K27 3.096052 1_555
F36 K16 3.131184 1_655
F36 K29 3.149009 1_555
F37 Fe15 1.936661 1_645
F37 K6 2.642355 1_545
F37 K4 2.749887 1_555
F37 K19 2.885463 1_655
F37 K25 3.145294 1_545
F38 Fe3 1.943511 1_555
F38 K9 2.714263 1_555
F38 K24 2.822685 1_555
F38 K27 2.827786 1_555
F39 Fe13 1.915670 1_555
F39 K26 2.668266 1_555
F39 K6 2.677256 1_555
F39 K18 2.857522 1_555
F39 K17 3.329943 1_655
F40 Fe7 1.912676 1_555
F40 K15 2.686182 1_555
F40 K11 2.899877 1_556
F40 K12 3.046272 1_455
F40 K17 3.081152 1_555
F41 Fe12 2.045628 1_555
F41 Fe3 2.058112 1_555
F41 K22 2.950897 1_555
F41 K24 3.015103 1_555
F41 K27 3.205198 1_555
F42 Fe3 1.919519 1_565
F42 K13 2.815022 1_555
F42 K7 2.838474 1_555
F42 K22 2.901819 1_565
F42 K20 3.031160 1_665
F43 Fe13 1.910267 1_455
F43 K2 2.671979 1_555
F43 K8 2.952225 1_555
F43 K17 3.007157 1_555
F43 K18 3.209612 1_555
F44 Fe1 1.920624 1_555
F44 K0 2.802496 1_565
F44 K18 2.867807 1_555
F44 K21 2.921096 1_555
F44 K6 2.931051 1_555
F45 Fe15 1.918857 1_655
F45 K22 2.764214 1_566
F45 K25 2.856845 1_555
F45 K12 2.920085 1_555
F45 K10 3.014843 1_655
F46 Fe1 1.938339 1_545
F46 K25 2.651098 1_545
F46 K4 2.754853 1_555
F46 K19 2.931616 1_555
F46 K6 3.074714 1_545
F47 Fe11 1.938339 1_565
F47 K20 2.651098 1_665
F47 K28 2.754853 1_655
F47 K13 2.931616 1_555
F47 K29 3.074714 1_665
F48 Fe10 1.968379 1_555
F48 K11 2.669525 1_655
F48 K1 2.670376 1_554
F48 K14 2.872068 1_555
F48 K12 2.932811 1_554
F49 Fe7 2.045628 1_555
F49 Fe15 2.058112 1_555
F49 K10 2.950897 1_555
F49 K12 3.015103 1_455
F49 K17 3.205198 1_555
F50 Fe5 2.045628 1_555
F50 Fe4 2.058112 1_555
F50 K3 2.950897 1_555
F50 K5 3.015103 1_555
F50 K4 3.205198 1_555
F51 Fe0 2.052479 1_555
F51 Fe9 2.054108 1_555
F51 K1 3.031713 1_555
F51 K4 3.096052 1_555
F51 K30 3.131184 1_655
F51 K15 3.149009 1_555
F52 Fe8 2.058189 1_555
F52 Fe5 2.066702 1_555
F52 K0 3.002892 1_555
F52 K3 3.038803 1_555
F52 K16 3.051178 1_655
F52 K5 3.184105 1_555
F53 Fe3 1.936661 1_565
F53 K29 2.642355 1_565
F53 K28 2.749887 1_555
F53 K13 2.885463 1_555
F53 K20 3.145294 1_565
F54 Fe14 1.938339 1_555
F54 K23 2.651098 1_555
F54 K27 2.754853 1_555
F54 K9 2.931616 1_555
F54 K14 3.074714 1_555
F55 Fe0 1.918129 1_555
F55 K24 2.724057 1_556
F55 K10 2.818431 1_545
F55 K30 2.910281 1_555
F55 K22 3.087265 1_556
F56 Fe8 1.915670 1_555
F56 K9 2.668266 1_555
F56 K29 2.677256 1_555
F56 K16 2.857522 1_555
F56 K27 3.329943 1_555
F57 Fe8 1.968379 1_555
F57 K0 2.669525 1_555
F57 K21 2.670376 1_545
F57 K29 2.872068 1_555
F57 K5 2.932811 1_555
F58 Fe4 1.919519 1_555
F58 K26 2.815022 1_555
F58 K18 2.838474 1_555
F58 K3 2.901819 1_555
F58 K2 3.031160 1_655
F59 Fe11 1.920624 1_555
F59 K21 2.802496 1_645
F59 K16 2.867807 1_655
F59 K0 2.921096 1_555
F59 K29 2.931051 1_655
F60 Fe14 1.919197 1_555
F60 K9 2.777971 1_555
F60 K24 2.839783 1_555
F60 K11 2.948420 1_555
F60 K14 2.978884 1_455
F61 Fe7 1.917578 1_555
F61 K7 2.744490 1_556
F61 K1 2.779468 1_555
F61 K12 2.904995 1_555
F61 K11 3.111465 1_556
F62 Fe6 2.056474 1_555
F62 Fe14 2.062228 1_555
F62 K28 2.802794 1_555
F63 Fe9 1.938797 1_555
F63 K19 2.702740 1_655
F63 K4 2.815621 1_555
F63 K30 2.821363 1_655
F64 Fe9 1.919197 1_555
F64 K26 2.777971 1_555
F64 K12 2.839783 1_555
F64 K1 2.948420 1_555
F64 K15 2.978884 1_555
F65 Fe5 1.917578 1_555
F65 K16 2.744490 1_655
F65 K21 2.779468 1_645
F65 K5 2.904995 1_655
F65 K0 3.111465 1_555
F66 Fe4 2.056474 1_555
F66 Fe9 2.062228 1_555
F66 K4 2.802794 1_555
F67 Fe0 1.910267 1_555
F67 K25 2.671979 1_545
F67 K22 2.952225 1_556
F67 K4 3.007157 1_555
F67 K30 3.209612 1_655
F68 Fe12 1.917222 1_555
F68 K20 2.678128 1_655
F68 K9 2.705090 1_655
F68 K24 3.009652 1_655
F68 K27 3.152124 1_555
F69 Fe9 1.920624 1_555
F69 K11 2.802496 1_656
F69 K30 2.867807 1_655
F69 K1 2.921096 1_555
F69 K15 2.931051 1_655
F70 Fe12 1.963887 1_555
F70 K10 2.677315 1_644
F70 K22 2.704898 1_555
F70 K20 2.874811 1_655
F70 K30 2.922553 1_654
F71 Fe4 1.943511 1_555
F71 K19 2.714263 1_555
F71 K5 2.822685 1_555
F71 K4 2.827786 1_555
F72 Fe7 1.963887 1_555
F72 K22 2.677315 1_566
F72 K10 2.704898 1_555
F72 K25 2.874811 1_555
F72 K7 2.922553 1_556
F73 Fe6 1.919519 1_555
F73 K9 2.815022 1_555
F73 K16 2.838474 1_555
F73 K8 2.901819 1_555
F73 K23 3.031160 1_555
F74 Fe5 1.912676 1_555
F74 K6 2.686182 1_545
F74 K0 2.899877 1_555
F74 K5 3.046272 1_555
F74 K4 3.081152 1_555
F75 Fe5 1.917222 1_555
F75 K2 2.678128 1_655
F75 K19 2.705090 1_655
F75 K5 3.009652 1_655
F75 K4 3.152124 1_555
F76 Fe2 2.045628 1_555
F76 Fe6 2.058112 1_555
F76 K8 2.950897 1_555
F76 K31 3.015103 1_455
F76 K28 3.205198 1_555
F77 Fe4 1.936661 1_555
F77 K15 2.642355 1_555
F77 K17 2.749887 1_555
F77 K26 2.885463 1_555
F77 K2 3.145294 1_555
F78 Fe15 1.919519 1_545
F78 K19 2.815022 1_555
F78 K30 2.838474 1_555
F78 K10 2.901819 1_545
F78 K25 3.031160 1_545
F79 Fe1 1.919197 1_545
F79 K19 2.777971 1_555
F79 K5 2.839783 1_555
F79 K21 2.948420 1_545
F79 K6 2.978884 1_445
