# generated using pymatgen
data_Na5SnAs3
_symmetry_space_group_name_H-M   'P 1'
_cell_length_a   7.60283908
_cell_length_b   8.50971839
_cell_length_c   15.95634479
_cell_angle_alpha   58.30775889
_cell_angle_beta   90.00000000
_cell_angle_gamma   90.00000000
_symmetry_Int_Tables_number   1
_chemical_formula_structural   Na5SnAs3
_chemical_formula_sum   'Na20 Sn4 As12'
_cell_volume   878.40311701
_cell_formula_units_Z   4
loop_
 _symmetry_equiv_pos_site_id
 _symmetry_equiv_pos_as_xyz
  1  'x, y, z'
loop_
 _atom_site_type_symbol
 _atom_site_label
 _atom_site_symmetry_multiplicity
 _atom_site_fract_x
 _atom_site_fract_y
 _atom_site_fract_z
 _atom_site_occupancy
  Na  Na0  1  0.15915643  0.99329212  0.58233393  1
  Na  Na1  1  0.49527297  0.90799202  0.75880160  1
  Na  Na2  1  0.99527297  0.09200798  0.74119840  1
  Na  Na3  1  0.50472703  0.09200798  0.24119840  1
  Na  Na4  1  0.00472703  0.90799202  0.25880160  1
  Na  Na5  1  0.04135575  0.58843289  0.58905454  1
  Na  Na6  1  0.54135575  0.41156711  0.91094546  1
  Na  Na7  1  0.95864425  0.41156711  0.41094546  1
  Na  Na8  1  0.45864425  0.58843289  0.08905454  1
  Na  Na9  1  0.52385957  0.74692609  0.58654743  1
  Na  Na10  1  0.02385957  0.25307391  0.91345257  1
  Na  Na11  1  0.47614043  0.25307391  0.41345257  1
  Na  Na12  1  0.85880329  0.68652004  0.74308512  1
  Na  Na13  1  0.35880329  0.31347996  0.75691488  1
  Na  Na14  1  0.14119671  0.31347996  0.25691488  1
  Na  Na15  1  0.64119671  0.68652004  0.24308512  1
  Na  Na16  1  0.84084357  0.00670788  0.41766607  1
  Na  Na17  1  0.34084357  0.99329212  0.08233393  1
  Na  Na18  1  0.65915643  0.00670788  0.91766607  1
  Na  Na19  1  0.97614043  0.74692609  0.08654743  1
  Sn  Sn0  1  0.85243354  0.33866441  0.09037921  1
  Sn  Sn1  1  0.35243354  0.66133559  0.40962079  1
  Sn  Sn2  1  0.14756646  0.66133559  0.90962079  1
  Sn  Sn3  1  0.64756646  0.33866441  0.59037921  1
  As  As0  1  0.75322501  0.36292844  0.23927213  1
  As  As1  1  0.70632546  0.66916240  0.42847877  1
  As  As2  1  0.20632546  0.33083760  0.07152123  1
  As  As3  1  0.29367454  0.33083760  0.57152123  1
  As  As4  1  0.79367454  0.66916240  0.92847877  1
  As  As5  1  0.76922605  0.05945477  0.58284203  1
  As  As6  1  0.26922605  0.94054523  0.91715797  1
  As  As7  1  0.23077395  0.94054523  0.41715797  1
  As  As8  1  0.73077395  0.05945477  0.08284203  1
  As  As9  1  0.74677499  0.36292844  0.73927213  1
  As  As10  1  0.24677499  0.63707156  0.76072787  1
  As  As11  1  0.25322501  0.63707156  0.26072787  1
loop_
_geom_bond_atom_site_label_1
_geom_bond_atom_site_label_2
_geom_bond_distance
_geom_bond_site_symmetry_2
As0 Sn0 2.602181 1_555
As0 Na15 2.913400 1_555
As0 Na16 2.944329 1_555
As0 Na3 2.968339 1_555
As0 Na14 2.971952 1_655
As0 Na8 3.100137 1_555
As0 Na11 3.210341 1_555
As0 Na19 3.334945 1_555
As0 Na7 3.362347 1_555
As1 Sn3 2.673781 1_555
As1 Sn1 2.712061 1_555
As1 Na15 2.925555 1_555
As1 Na16 2.967455 1_565
As1 Na7 3.034437 1_555
As1 Na9 3.236909 1_555
As1 Na4 3.290311 1_655
As1 Na5 3.416943 1_655
As2 Sn2 2.673781 1_554
As2 Sn0 2.712061 1_455
As2 Na14 2.925555 1_555
As2 Na17 2.967455 1_545
As2 Na8 3.034437 1_555
As2 Na10 3.236909 1_554
As2 Na3 3.290311 1_555
As2 Na6 3.416943 1_554
As3 Sn1 2.673781 1_555
As3 Sn3 2.712061 1_555
As3 Na13 2.925555 1_555
As3 Na0 2.967455 1_545
As3 Na5 3.034437 1_555
As3 Na11 3.236909 1_555
As3 Na2 3.290311 1_455
As3 Na7 3.416943 1_455
As4 Sn0 2.673781 1_556
As4 Sn2 2.712061 1_655
As4 Na12 2.925555 1_555
As4 Na18 2.967455 1_565
As4 Na6 3.034437 1_555
As4 Na19 3.236909 1_556
As4 Na1 3.290311 1_555
As4 Na8 3.416943 1_556
As5 Sn3 2.610672 1_555
As5 Na12 2.923539 1_545
As5 Na16 2.947436 1_555
As5 Na0 3.018374 1_645
As5 Na7 3.152778 1_555
As5 Na1 3.174917 1_545
As5 Na2 3.185977 1_555
As5 Na11 3.210319 1_555
As5 Na9 3.223570 1_545
As6 Sn2 2.610672 1_555
As6 Na13 2.923539 1_565
As6 Na17 2.947436 1_556
As6 Na18 3.018374 1_565
As6 Na8 3.152778 1_556
As6 Na2 3.174917 1_465
As6 Na1 3.185977 1_555
As6 Na19 3.210319 1_456
As6 Na10 3.223570 1_565
As7 Sn1 2.610672 1_555
As7 Na14 2.923539 1_565
As7 Na0 2.947436 1_555
As7 Na16 3.018374 1_465
As7 Na5 3.152778 1_555
As7 Na3 3.174917 1_565
As7 Na4 3.185977 1_555
As7 Na9 3.210319 1_555
As7 Na11 3.223570 1_565
As8 Sn0 2.610672 1_555
As8 Na15 2.923539 1_545
As8 Na18 2.947436 1_554
As8 Na17 3.018374 1_545
As8 Na6 3.152778 1_554
As8 Na4 3.174917 1_645
As8 Na3 3.185977 1_555
As8 Na10 3.210319 1_654
As8 Na19 3.223570 1_545
As9 Sn3 2.602181 1_555
As9 Na12 2.913400 1_555
As9 Na18 2.944329 1_555
As9 Na2 2.968339 1_555
As9 Na13 2.971952 1_555
As9 Na5 3.100137 1_655
As9 Na10 3.210341 1_655
As9 Na9 3.334945 1_555
As9 Na6 3.362347 1_555
As10 Sn2 2.602181 1_555
As10 Na13 2.913400 1_555
As10 Na0 2.944329 1_555
As10 Na1 2.968339 1_555
As10 Na12 2.971952 1_455
As10 Na6 3.100137 1_555
As10 Na9 3.210341 1_555
As10 Na10 3.334945 1_555
As10 Na5 3.362347 1_555
As11 Sn1 2.602181 1_555
As11 Na14 2.913400 1_555
As11 Na17 2.944329 1_555
As11 Na4 2.968339 1_555
As11 Na15 2.971952 1_555
As11 Na7 3.100137 1_455
As11 Na19 3.210341 1_455
As11 Na11 3.334945 1_555
As11 Na8 3.362347 1_555
