# generated using pymatgen
data_Na3(FeS2)2
_symmetry_space_group_name_H-M   'P 1'
_cell_length_a   6.66314200
_cell_length_b   10.49862500
_cell_length_c   10.69988800
_cell_angle_alpha   90.00000000
_cell_angle_beta   90.00000000
_cell_angle_gamma   90.00000000
_symmetry_Int_Tables_number   1
_chemical_formula_structural   Na3(FeS2)2
_chemical_formula_sum   'Na12 Fe8 S16'
_cell_volume   748.49813739
_cell_formula_units_Z   4
loop_
 _symmetry_equiv_pos_site_id
 _symmetry_equiv_pos_as_xyz
  1  'x, y, z'
loop_
 _atom_site_type_symbol
 _atom_site_label
 _atom_site_symmetry_multiplicity
 _atom_site_fract_x
 _atom_site_fract_y
 _atom_site_fract_z
 _atom_site_occupancy
  Na  Na0  1  0.08210300  0.25000000  0.76514700  1
  Na  Na1  1  0.58210300  0.25000000  0.73485300  1
  Na  Na2  1  0.91789700  0.75000000  0.23485300  1
  Na  Na3  1  0.41789700  0.75000000  0.26514700  1
  Na  Na4  1  0.04311800  0.41510400  0.14363600  1
  Na  Na5  1  0.54311800  0.08489600  0.35636400  1
  Na  Na6  1  0.95688200  0.91510400  0.85636400  1
  Na  Na7  1  0.45688200  0.58489600  0.64363600  1
  Na  Na8  1  0.95688200  0.58489600  0.85636400  1
  Na  Na9  1  0.45688200  0.91510400  0.64363600  1
  Na  Na10  1  0.04311800  0.08489600  0.14363600  1
  Na  Na11  1  0.54311800  0.41510400  0.35636400  1
  Fe  Fe0  1  0.04603800  0.37405100  0.47114700  1
  Fe  Fe1  1  0.54603800  0.12594900  0.02885300  1
  Fe  Fe2  1  0.95396200  0.87405100  0.52885300  1
  Fe  Fe3  1  0.45396200  0.62594900  0.97114700  1
  Fe  Fe4  1  0.95396200  0.62594900  0.52885300  1
  Fe  Fe5  1  0.45396200  0.87405100  0.97114700  1
  Fe  Fe6  1  0.04603800  0.12594900  0.47114700  1
  Fe  Fe7  1  0.54603800  0.37405100  0.02885300  1
  S  S0  1  0.16533500  0.55186500  0.37721000  1
  S  S1  1  0.66533500  0.94813500  0.12279000  1
  S  S2  1  0.83466500  0.05186500  0.62279000  1
  S  S3  1  0.33466500  0.44813500  0.87721000  1
  S  S4  1  0.83466500  0.44813500  0.62279000  1
  S  S5  1  0.33466500  0.05186500  0.87721000  1
  S  S6  1  0.16533500  0.94813500  0.37721000  1
  S  S7  1  0.66533500  0.55186500  0.12279000  1
  S  S8  1  0.30503800  0.25000000  0.53773400  1
  S  S9  1  0.80503800  0.25000000  0.96226600  1
  S  S10  1  0.69496200  0.75000000  0.46226600  1
  S  S11  1  0.19496200  0.75000000  0.03773400  1
  S  S12  1  0.37657000  0.25000000  0.16472200  1
  S  S13  1  0.87657000  0.25000000  0.33527800  1
  S  S14  1  0.62343000  0.75000000  0.83527800  1
  S  S15  1  0.12343000  0.75000000  0.66472200  1
loop_
_geom_bond_atom_site_label_1
_geom_bond_atom_site_label_2
_geom_bond_distance
_geom_bond_site_symmetry_2
Na0 S9 2.802979 1_455
Na0 S8 2.850872 1_555
Na0 S3 2.932023 1_555
Na0 S5 2.932023 1_555
Na0 S2 3.060296 1_455
Na0 S4 3.060296 1_455
Na1 S8 2.802979 1_555
Na1 S9 2.850872 1_555
Na1 S4 2.932023 1_555
Na1 S2 2.932023 1_555
Na1 S5 3.060296 1_555
Na1 S3 3.060296 1_555
Na2 S11 2.802979 1_655
Na2 S10 2.850872 1_555
Na2 S7 2.932023 1_555
Na2 S1 2.932023 1_555
Na2 S6 3.060296 1_655
Na2 S0 3.060296 1_655
Na3 S10 2.802979 1_555
Na3 S11 2.850872 1_555
Na3 S6 2.932023 1_555
Na3 S0 2.932023 1_555
Na3 S7 3.060296 1_555
Na3 S1 3.060296 1_555
Na4 S12 2.827016 1_555
Na4 S13 2.905307 1_455
Na4 S7 2.906490 1_455
Na4 S0 2.995125 1_555
Na4 S9 3.047486 1_454
Na5 S13 2.827016 1_555
Na5 S12 2.905307 1_555
Na5 S6 2.906490 1_545
Na5 S1 2.995125 1_545
Na5 S8 3.047486 1_555
Na6 S14 2.827016 1_555
Na6 S15 2.905307 1_655
Na6 S5 2.906490 1_665
Na6 S2 2.995125 1_565
Na6 S11 3.047486 1_656
Na7 S15 2.827016 1_555
Na7 S14 2.905307 1_555
Na7 S4 2.906490 1_555
Na7 S3 2.995125 1_555
Na7 S10 3.047486 1_555
Na8 S14 2.827016 1_555
Na8 S15 2.905307 1_655
Na8 S3 2.906490 1_655
Na8 S4 2.995125 1_555
Na8 S11 3.047486 1_656
Na9 S15 2.827016 1_555
Na9 S14 2.905307 1_555
Na9 S2 2.906490 1_565
Na9 S5 2.995125 1_565
Na9 S10 3.047486 1_555
Na10 S12 2.827016 1_555
Na10 S13 2.905307 1_455
Na10 S1 2.906490 1_445
Na10 S6 2.995125 1_545
Na10 S9 3.047486 1_454
Na11 S13 2.827016 1_555
Na11 S12 2.905307 1_555
Na11 S0 2.906490 1_555
Na11 S7 2.995125 1_555
Na11 S8 3.047486 1_555
Fe0 S13 2.254930 1_455
Fe0 S0 2.264302 1_555
Fe0 S8 2.276400 1_555
Fe0 S4 2.285009 1_455
Fe1 S12 2.254930 1_555
Fe1 S1 2.264302 1_545
Fe1 S9 2.276400 1_554
Fe1 S5 2.285009 1_554
Fe2 S15 2.254930 1_655
Fe2 S2 2.264302 1_565
Fe2 S10 2.276400 1_555
Fe2 S6 2.285009 1_655
Fe3 S14 2.254930 1_555
Fe3 S3 2.264302 1_555
Fe3 S11 2.276400 1_556
Fe3 S7 2.285009 1_556
Fe4 S15 2.254930 1_655
Fe4 S4 2.264302 1_555
Fe4 S10 2.276400 1_555
Fe4 S0 2.285009 1_655
Fe5 S14 2.254930 1_555
Fe5 S5 2.264302 1_565
Fe5 S11 2.276400 1_556
Fe5 S1 2.285009 1_556
Fe6 S13 2.254930 1_455
Fe6 S6 2.264302 1_545
Fe6 S8 2.276400 1_555
Fe6 S2 2.285009 1_455
Fe7 S12 2.254930 1_555
Fe7 S7 2.264302 1_555
Fe7 S9 2.276400 1_554
Fe7 S3 2.285009 1_554
