# generated using pymatgen
data_Dy12(MnC3)5
_symmetry_space_group_name_H-M   'P 1'
_cell_length_a   10.44770155
_cell_length_b   10.44771281
_cell_length_c   5.05175894
_cell_angle_alpha   89.99995694
_cell_angle_beta   90.00001384
_cell_angle_gamma   119.99959257
_symmetry_Int_Tables_number   1
_chemical_formula_structural   Dy12(MnC3)5
_chemical_formula_sum   'Dy12 Mn5 C15'
_cell_volume   477.54798558
_cell_formula_units_Z   1
loop_
 _symmetry_equiv_pos_site_id
 _symmetry_equiv_pos_as_xyz
  1  'x, y, z'
loop_
 _atom_site_type_symbol
 _atom_site_label
 _atom_site_symmetry_multiplicity
 _atom_site_fract_x
 _atom_site_fract_y
 _atom_site_fract_z
 _atom_site_occupancy
  Dy  Dy0  1  0.26972573  0.45553858  0.00000005  1
  Dy  Dy1  1  0.18580668  0.73026705  0.00000010  1
  Dy  Dy2  1  0.54445427  0.81417499  0.00000012  1
  Dy  Dy3  1  0.81417050  0.54444702  0.00000015  1
  Dy  Dy4  1  0.73026532  0.18581039  0.00000017  1
  Dy  Dy5  1  0.45554497  0.26972852  0.00000002  1
  Dy  Dy6  1  0.42851769  0.00000239  0.50000010  1
  Dy  Dy7  1  0.57152839  0.57152198  0.50000012  1
  Dy  Dy8  1  -0.00001209  0.42850692  0.50000029  1
  Dy  Dy9  1  0.79420718  -0.00001067  0.49999991  1
  Dy  Dy10  1  0.20578657  0.20578591  0.49999976  1
  Dy  Dy11  1  -0.00001626  0.79420435  0.50000011  1
  Mn  Mn0  1  0.15382577  -0.00001877  -0.00000003  1
  Mn  Mn1  1  0.84617224  0.84616728  0.00000020  1
  Mn  Mn2  1  -0.00001602  0.15382776  -0.00000234  1
  Mn  Mn3  1  0.33333786  0.66667125  0.50000007  1
  Mn  Mn4  1  0.66667087  0.33334225  0.50000009  1
  C  C0  1  0.28164168  0.47812045  0.49999995  1
  C  C1  1  0.19647514  0.71837412  0.50000012  1
  C  C2  1  0.52190309  0.80353641  0.50000016  1
  C  C3  1  0.80353460  0.52190232  0.50000021  1
  C  C4  1  0.71837436  0.19647114  0.50000009  1
  C  C5  1  0.47811671  0.28163925  0.50000012  1
  C  C6  1  0.32712869  -0.00000560  0.00000003  1
  C  C7  1  0.67287491  0.67287267  0.00000018  1
  C  C8  1  -0.00001140  0.32712464  -0.00000027  1
  C  C9  1  0.45604441  0.00000274  0.00000010  1
  C  C10  1  0.54397800  0.54397421  0.00000009  1
  C  C11  1  -0.00000949  0.45603829  0.00000033  1
  C  C12  1  0.79403899  -0.00000919  -0.00000002  1
  C  C13  1  0.20595454  0.20595533  -0.00000015  1
  C  C14  1  -0.00001190  0.79403500  0.00000019  1
loop_
_geom_bond_atom_site_label_1
_geom_bond_atom_site_label_2
_geom_bond_distance
_geom_bond_site_symmetry_2
C0 Mn3 1.763055 1_555
C0 Dy0 2.534138 1_555
C0 Dy0 2.534139 1_556
C0 Dy10 2.543378 1_555
C0 Dy7 2.677602 1_555
C0 Dy8 2.720752 1_555
C1 Mn3 1.763178 1_555
C1 Dy1 2.534123 1_555
C1 Dy1 2.534123 1_556
C1 Dy11 2.543300 1_555
C1 Dy8 2.677464 1_555
C1 Dy6 2.720606 1_565
C2 Mn3 1.763194 1_555
C2 Dy2 2.534116 1_556
C2 Dy2 2.534116 1_555
C2 Dy9 2.543088 1_565
C2 Dy6 2.677276 1_565
C2 Dy7 2.720561 1_555
C3 Mn4 1.763153 1_555
C3 Dy3 2.534111 1_556
C3 Dy3 2.534112 1_555
C3 Dy11 2.543064 1_655
C3 Dy8 2.677227 1_655
C3 Dy7 2.720437 1_555
C4 Mn4 1.763268 1_555
C4 Dy4 2.534116 1_555
C4 Dy4 2.534116 1_556
C4 Dy9 2.543225 1_555
C4 Dy6 2.677341 1_555
C4 Dy8 2.720482 1_655
C5 Mn4 1.763068 1_555
C5 Dy5 2.534130 1_556
C5 Dy5 2.534131 1_555
C5 Dy10 2.543335 1_555
C5 Dy7 2.677544 1_555
C5 Dy6 2.720634 1_555
C6 C9 1.346829 1_555
C6 Mn0 1.810548 1_555
C6 Dy1 2.441432 1_545
C6 Dy5 2.441490 1_555
C6 Dy6 2.738988 1_554
C6 Dy6 2.738988 1_555
C7 Mn1 1.810557 1_555
C7 Dy3 2.441353 1_555
C7 Dy2 2.441371 1_555
C7 Dy7 2.738843 1_555
C7 Dy7 2.738845 1_554
C8 Mn2 1.810532 1_555
C8 Dy4 2.441391 1_455
C8 Dy0 2.441516 1_555
C8 Dy8 2.738976 1_554
C8 Dy8 2.738982 1_555
C9 Dy4 2.532784 1_555
C9 Dy2 2.532941 1_545
C9 Dy6 2.542199 1_554
C9 Dy6 2.542199 1_555
C10 C7 1.346694 1_555
C10 Dy5 2.532984 1_555
C10 Dy0 2.533041 1_555
C10 Dy7 2.542225 1_554
C10 Dy7 2.542226 1_555
C11 C8 1.346843 1_555
C11 Dy3 2.532854 1_455
C11 Dy1 2.532865 1_555
C11 Dy8 2.542203 1_555
C11 Dy8 2.542203 1_554
C12 Mn2 1.937692 1_655
C12 Mn1 1.937727 1_545
C12 Dy2 2.346523 1_545
C12 Dy4 2.346581 1_555
C12 Dy9 2.525880 1_555
C12 Dy9 2.525880 1_554
C13 Mn2 1.937888 1_555
C13 Mn0 1.937923 1_555
C13 Dy0 2.346496 1_555
C13 Dy5 2.346560 1_555
C13 Dy10 2.525880 1_555
C13 Dy10 2.525881 1_554
C14 Mn1 1.937641 1_455
C14 Mn0 1.937705 1_565
C14 Dy1 2.346528 1_555
C14 Dy3 2.346554 1_455
C14 Dy11 2.525880 1_555
C14 Dy11 2.525881 1_554
