# generated using pymatgen
data_Pr3Si2S8I
_symmetry_space_group_name_H-M   'P 1'
_cell_length_a   8.97082761
_cell_length_b   8.97082761
_cell_length_c   10.93602657
_cell_angle_alpha   82.77270844
_cell_angle_beta   82.77270844
_cell_angle_gamma   52.35291198
_symmetry_Int_Tables_number   1
_chemical_formula_structural   Pr3Si2S8I
_chemical_formula_sum   'Pr6 Si4 S16 I2'
_cell_volume   689.95974457
_cell_formula_units_Z   2
loop_
 _symmetry_equiv_pos_site_id
 _symmetry_equiv_pos_as_xyz
  1  'x, y, z'
loop_
 _atom_site_type_symbol
 _atom_site_label
 _atom_site_symmetry_multiplicity
 _atom_site_fract_x
 _atom_site_fract_y
 _atom_site_fract_z
 _atom_site_occupancy
  Pr  Pr0  1  0.92375900  0.67853000  0.18138900  1
  Pr  Pr1  1  0.59785900  0.40214100  0.25000000  1
  Pr  Pr2  1  0.07624100  0.32147000  0.81861100  1
  Pr  Pr3  1  0.32147000  0.07624100  0.31861100  1
  Pr  Pr4  1  0.67853000  0.92375900  0.68138900  1
  Pr  Pr5  1  0.40214100  0.59785900  0.75000000  1
  Si  Si0  1  0.69667700  0.62274800  0.47059600  1
  Si  Si1  1  0.37725200  0.30332300  0.02940400  1
  Si  Si2  1  0.30332300  0.37725200  0.52940400  1
  Si  Si3  1  0.62274800  0.69667700  0.97059600  1
  S  S0  1  0.14956900  0.28783500  0.08582700  1
  S  S1  1  0.72196100  0.41508300  0.95725700  1
  S  S2  1  0.71216500  0.85043100  0.41417300  1
  S  S3  1  0.55072300  0.74849100  0.16131400  1
  S  S4  1  0.11052300  0.59950200  0.64740600  1
  S  S5  1  0.40049800  0.88947700  0.85259400  1
  S  S6  1  0.27803900  0.58491700  0.04274300  1
  S  S7  1  0.85043100  0.71216500  0.91417300  1
  S  S8  1  0.74849100  0.55072300  0.66131400  1
  S  S9  1  0.25150900  0.44927700  0.33868600  1
  S  S10  1  0.88947700  0.40049800  0.35259400  1
  S  S11  1  0.41508300  0.72196100  0.45725700  1
  S  S12  1  0.44927700  0.25150900  0.83868600  1
  S  S13  1  0.59950200  0.11052300  0.14740600  1
  S  S14  1  0.58491700  0.27803900  0.54274300  1
  S  S15  1  0.28783500  0.14956900  0.58582700  1
  I  I0  1  0.98661600  0.01338400  0.75000000  1
  I  I1  1  0.01338400  0.98661600  0.25000000  1
loop_
_geom_bond_atom_site_label_1
_geom_bond_atom_site_label_2
_geom_bond_distance
_geom_bond_site_symmetry_2
Pr0 S2 2.942446 1_555
Pr0 S9 2.971387 1_655
Pr0 S6 2.992080 1_655
Pr0 S7 3.013775 1_554
Pr0 S0 3.032417 1_655
Pr0 S3 3.037317 1_555
Pr0 S10 3.072161 1_555
Pr0 S13 3.123563 1_565
Pr1 S9 2.917742 1_555
Pr1 S3 2.917742 1_555
Pr1 S13 2.964798 1_555
Pr1 S10 2.964798 1_555
Pr1 S14 3.266459 1_555
Pr1 S1 3.266459 1_554
Pr1 S11 3.318387 1_555
Pr1 S6 3.318387 1_555
Pr2 S15 2.942446 1_555
Pr2 S8 2.971387 1_455
Pr2 S1 2.992080 1_455
Pr2 S0 3.013775 1_556
Pr2 S7 3.032417 1_455
Pr2 S12 3.037317 1_555
Pr2 S4 3.072161 1_555
Pr2 S5 3.123563 1_545
Pr3 S0 2.942446 1_555
Pr3 S3 2.971387 1_545
Pr3 S11 2.992080 1_545
Pr3 S15 3.013775 1_555
Pr3 S2 3.032417 1_545
Pr3 S9 3.037317 1_555
Pr3 S13 3.072161 1_555
Pr3 S10 3.123563 1_455
Pr4 S7 2.942446 1_555
Pr4 S12 2.971387 1_565
Pr4 S14 2.992080 1_565
Pr4 S2 3.013775 1_555
Pr4 S15 3.032417 1_565
Pr4 S8 3.037317 1_555
Pr4 S5 3.072161 1_555
Pr4 S4 3.123563 1_655
Pr5 S12 2.917742 1_555
Pr5 S8 2.917742 1_555
Pr5 S4 2.964798 1_555
Pr5 S5 2.964798 1_555
Pr5 S6 3.266459 1_556
Pr5 S11 3.266459 1_555
Pr5 S14 3.318387 1_555
Pr5 S1 3.318387 1_555
S0 Si1 2.140062 1_555
S1 Si3 2.123273 1_555
S2 Si0 2.140062 1_555
S3 Si3 2.126414 1_554
S4 Si2 2.122531 1_555
S5 Si3 2.122531 1_555
S6 Si1 2.123273 1_555
S7 Si3 2.140062 1_555
S8 Si0 2.126414 1_555
S9 Si2 2.126414 1_555
S10 Si0 2.122531 1_555
S11 Si0 2.123273 1_555
S12 Si1 2.126414 1_556
S13 Si1 2.122531 1_555
S14 Si2 2.123273 1_555
S15 Si2 2.140062 1_555
I0 Pr5 3.288768 1_645
I0 Pr4 3.498004 1_545
I0 Pr2 3.498004 1_655
I1 Pr1 3.288768 1_465
I1 Pr0 3.498004 1_455
I1 Pr3 3.498004 1_565
