# generated using pymatgen
data_CaCl2
_symmetry_space_group_name_H-M   'P 1'
_cell_length_a   6.30453286
_cell_length_b   6.93646833
_cell_length_c   7.65895266
_cell_angle_alpha   90.00000000
_cell_angle_beta   90.00000000
_cell_angle_gamma   90.00000000
_symmetry_Int_Tables_number   1
_chemical_formula_structural   CaCl2
_chemical_formula_sum   'Ca4 Cl8'
_cell_volume   334.93513327
_cell_formula_units_Z   4
loop_
 _symmetry_equiv_pos_site_id
 _symmetry_equiv_pos_as_xyz
  1  'x, y, z'
loop_
 _atom_site_type_symbol
 _atom_site_label
 _atom_site_symmetry_multiplicity
 _atom_site_fract_x
 _atom_site_fract_y
 _atom_site_fract_z
 _atom_site_occupancy
  Ca  Ca0  1  -0.00000000  0.25000000  0.15325308  1
  Ca  Ca1  1  0.50000000  0.25000000  0.65325308  1
  Ca  Ca2  1  -0.00000000  0.75000000  0.84674692  1
  Ca  Ca3  1  0.50000000  0.75000000  0.34674692  1
  Cl  Cl0  1  0.23700371  0.42160536  0.89134791  1
  Cl  Cl1  1  0.73700371  0.57839464  0.60865209  1
  Cl  Cl2  1  0.76299629  0.57839464  0.10865209  1
  Cl  Cl3  1  0.23700371  0.92160536  0.10865209  1
  Cl  Cl4  1  0.73700371  0.07839464  0.39134791  1
  Cl  Cl5  1  0.26299629  0.42160536  0.39134791  1
  Cl  Cl6  1  0.26299629  0.92160536  0.60865209  1
  Cl  Cl7  1  0.76299629  0.07839464  0.89134791  1
loop_
_geom_bond_atom_site_label_1
_geom_bond_atom_site_label_2
_geom_bond_distance
_geom_bond_site_symmetry_2
Ca0 Cl5 2.737051 1_555
Ca0 Cl4 2.737051 1_455
Ca0 Cl3 2.745567 1_545
Ca0 Cl2 2.745567 1_455
Ca0 Cl7 2.770061 1_454
Ca0 Cl0 2.770061 1_554
Ca1 Cl0 2.737051 1_555
Ca1 Cl7 2.737051 1_555
Ca1 Cl6 2.745567 1_545
Ca1 Cl1 2.745567 1_555
Ca1 Cl4 2.770061 1_555
Ca1 Cl5 2.770061 1_555
Ca2 Cl1 2.737051 1_455
Ca2 Cl6 2.737051 1_555
Ca2 Cl7 2.745567 1_465
Ca2 Cl0 2.745567 1_555
Ca2 Cl3 2.770061 1_556
Ca2 Cl2 2.770061 1_456
Ca3 Cl2 2.737051 1_555
Ca3 Cl3 2.737051 1_555
Ca3 Cl4 2.745567 1_565
Ca3 Cl5 2.745567 1_555
Ca3 Cl6 2.770061 1_555
Ca3 Cl1 2.770061 1_555
