# generated using pymatgen
data_La10C4I15
_symmetry_space_group_name_H-M   'P 1'
_cell_length_a   9.89829751
_cell_length_b   10.83135635
_cell_length_c   11.90595834
_cell_angle_alpha   93.68776208
_cell_angle_beta   114.41264780
_cell_angle_gamma   109.31119331
_symmetry_Int_Tables_number   1
_chemical_formula_structural   La10C4I15
_chemical_formula_sum   'La10 C4 I15'
_cell_volume   1066.51218764
_cell_formula_units_Z   1
loop_
 _symmetry_equiv_pos_site_id
 _symmetry_equiv_pos_as_xyz
  1  'x, y, z'
loop_
 _atom_site_type_symbol
 _atom_site_label
 _atom_site_symmetry_multiplicity
 _atom_site_fract_x
 _atom_site_fract_y
 _atom_site_fract_z
 _atom_site_occupancy
  La  La0  1  0.59860864  0.54065399  0.34323642  1
  La  La1  1  0.34318145  0.74609613  0.16563354  1
  La  La2  1  0.77972382  0.88553065  0.25889825  1
  La  La3  1  0.52852720  0.18778621  0.10393610  1
  La  La4  1  0.22027618  0.11446935  0.74110175  1
  La  La5  1  0.40139136  0.45934601  0.65676358  1
  La  La6  1  0.47147280  0.81221379  0.89606390  1
  La  La7  1  0.70570830  0.56742922  0.04451281  1
  La  La8  1  0.29429170  0.43257078  0.95548719  1
  La  La9  1  0.65681855  0.25390387  0.83436646  1
  C  C0  1  0.48169537  0.29964897  0.93666868  1
  C  C1  1  0.51830463  0.70035103  0.06333132  1
  C  C2  1  0.45215290  0.36115817  0.83305253  1
  C  C3  1  0.54784710  0.63884183  0.16694747  1
  I  I0  1  0.20610383  0.90584376  0.93703069  1
  I  I1  1  0.10297996  0.18667115  0.46438092  1
  I  I2  1  0.14790347  0.55461746  0.70223537  1
  I  I3  1  0.40563518  0.96768786  0.64549848  1
  I  I4  1  0.71685031  0.73398231  0.82146909  1
  I  I5  1  0.28314969  0.26601769  0.17853091  1
  I  I6  1  0.85209653  0.44538254  0.29776463  1
  I  I7  1  0.89702004  0.81332885  0.53561908  1
  I  I8  1  0.35872671  0.63050433  0.41541242  1
  I  I9  1  0.05787036  0.83363745  0.22206592  1
  I  I10  1  0.79389617  0.09415624  0.06296931  1
  I  I11  1  0.64127329  0.36949567  0.58458758  1
  I  I12  1  0.94212964  0.16636255  0.77793408  1
  I  I13  1  0.59436482  0.03231214  0.35450152  1
  I  I14  1  -0.00000000  0.50000000  -0.00000000  1
loop_
_geom_bond_atom_site_label_1
_geom_bond_atom_site_label_2
_geom_bond_distance
_geom_bond_site_symmetry_2
C0 C2 1.409839 1_555
C0 La3 2.359594 1_556
C0 La9 2.639973 1_555
C0 La4 2.669533 1_555
C0 La8 2.762673 1_555
C0 La7 2.809205 1_556
C1 C3 1.409839 1_555
C1 La6 2.359594 1_554
C1 La1 2.639973 1_555
C1 La2 2.669533 1_555
C1 La7 2.762673 1_555
C1 La8 2.809205 1_554
C2 La5 2.357472 1_555
C2 La9 2.643208 1_555
C2 La4 2.663905 1_555
C2 La8 2.775234 1_555
C2 La7 2.823779 1_556
C3 La0 2.357472 1_555
C3 La1 2.643208 1_555
C3 La2 2.663905 1_555
C3 La7 2.775234 1_555
C3 La8 2.823779 1_554
I0 La6 3.305026 1_555
I0 La3 3.315263 1_566
I0 La4 3.362503 1_565
I0 La1 3.368779 1_556
I1 La5 3.234394 1_555
I1 La4 3.253337 1_555
I1 La2 3.530208 1_445
I2 La5 3.227539 1_555
I2 La6 3.243446 1_555
I2 La8 3.332672 1_555
I3 La9 3.198856 1_565
I3 La4 3.257642 1_565
I3 La6 3.453288 1_555
I4 La6 3.233172 1_555
I4 La5 3.238671 1_555
I4 La7 3.323441 1_556
I5 La3 3.233172 1_555
I5 La0 3.238671 1_555
I5 La8 3.323441 1_554
I6 La0 3.227539 1_555
I6 La3 3.243446 1_555
I6 La7 3.332672 1_555
I7 La0 3.234394 1_555
I7 La2 3.253337 1_555
I7 La4 3.530208 1_665
I8 La0 3.229680 1_555
I8 La1 3.265452 1_555
I8 La5 3.474520 1_555
I9 La2 3.174588 1_455
I9 La7 3.377968 1_455
I9 La1 3.547335 1_555
I10 La3 3.305026 1_555
I10 La6 3.315263 1_544
I10 La2 3.362503 1_545
I10 La9 3.368779 1_554
I11 La5 3.229680 1_555
I11 La9 3.265452 1_555
I11 La0 3.474520 1_555
I12 La4 3.174588 1_655
I12 La8 3.377968 1_655
I12 La9 3.547335 1_555
I13 La1 3.198856 1_545
I13 La2 3.257642 1_545
I13 La3 3.453288 1_555
I14 La1 3.214166 1_555
I14 La9 3.214166 1_454
I14 La8 3.454448 1_554
I14 La7 3.454448 1_455
