# generated using pymatgen
data_Cr3(PO4)2
_symmetry_space_group_name_H-M   'P 1'
_cell_length_a   8.63171100
_cell_length_b   10.54104000
_cell_length_c   14.46616300
_cell_angle_alpha   90.00000000
_cell_angle_beta   90.00000000
_cell_angle_gamma   90.00000000
_symmetry_Int_Tables_number   1
_chemical_formula_structural   Cr3(PO4)2
_chemical_formula_sum   'Cr24 P16 O64'
_cell_volume   1316.23582408
_cell_formula_units_Z   8
loop_
 _symmetry_equiv_pos_site_id
 _symmetry_equiv_pos_as_xyz
  1  'x, y, z'
loop_
 _atom_site_type_symbol
 _atom_site_label
 _atom_site_symmetry_multiplicity
 _atom_site_fract_x
 _atom_site_fract_y
 _atom_site_fract_z
 _atom_site_occupancy
  Cr  Cr0  1  0.96716700  0.49493300  0.45983000  1
  Cr  Cr1  1  0.20356900  0.41967000  0.08954600  1
  Cr  Cr2  1  0.15435800  0.73391400  0.76235600  1
  Cr  Cr3  1  0.84564200  0.23391400  0.73764400  1
  Cr  Cr4  1  0.70356900  0.08033000  0.91045400  1
  Cr  Cr5  1  0.79643100  0.91967000  0.41045400  1
  Cr  Cr6  1  0.65435800  0.76608600  0.23764400  1
  Cr  Cr7  1  0.60542800  0.41819400  0.61111600  1
  Cr  Cr8  1  0.69145800  0.16690200  0.14390300  1
  Cr  Cr9  1  0.84328400  0.65656600  0.86892100  1
  Cr  Cr10  1  0.30854200  0.66690200  0.35609700  1
  Cr  Cr11  1  0.34564200  0.26608600  0.26235600  1
  Cr  Cr12  1  0.34328400  0.84343400  0.13107900  1
  Cr  Cr13  1  0.10542800  0.08180600  0.38888400  1
  Cr  Cr14  1  0.39457200  0.91819400  0.88888400  1
  Cr  Cr15  1  0.19145800  0.33309800  0.85609700  1
  Cr  Cr16  1  0.29643100  0.58033000  0.58954600  1
  Cr  Cr17  1  0.80854200  0.83309800  0.64390300  1
  Cr  Cr18  1  0.89457200  0.58180600  0.11111600  1
  Cr  Cr19  1  0.53283300  0.50506700  0.95983000  1
  Cr  Cr20  1  0.65671600  0.34343400  0.36892100  1
  Cr  Cr21  1  0.03283300  0.99493300  0.04017000  1
  Cr  Cr22  1  0.46716700  0.00506700  0.54017000  1
  Cr  Cr23  1  0.15671600  0.15656600  0.63107900  1
  P  P0  1  0.14865300  0.82407300  0.53597600  1
  P  P1  1  0.53167900  0.50122400  0.18863100  1
  P  P2  1  0.85134700  0.32407300  0.96402400  1
  P  P3  1  0.96832100  0.49877600  0.68863100  1
  P  P4  1  0.79950500  0.15669200  0.52893800  1
  P  P5  1  0.46832100  0.00122400  0.31136900  1
  P  P6  1  0.96407700  0.32785900  0.26078000  1
  P  P7  1  0.35134700  0.17592700  0.03597600  1
  P  P8  1  0.29950500  0.34330800  0.47106200  1
  P  P9  1  0.03167900  0.99877600  0.81136900  1
  P  P10  1  0.70049500  0.84330800  0.02893800  1
  P  P11  1  0.46407700  0.17214100  0.73922000  1
  P  P12  1  0.64865300  0.67592700  0.46402400  1
  P  P13  1  0.20049500  0.65669200  0.97106200  1
  P  P14  1  0.53592300  0.67214100  0.76078000  1
  P  P15  1  0.03592300  0.82785900  0.23922000  1
  O  O0  1  0.54967700  0.97652900  0.40600800  1
  O  O1  1  0.57748100  0.80903900  0.10378200  1
  O  O2  1  0.47783800  0.63688700  0.45313000  1
  O  O3  1  0.80751300  0.94797100  0.06610100  1
  O  O4  1  0.93267400  0.90996600  0.75221100  1
  O  O5  1  0.21565900  0.75931900  0.62667500  1
  O  O6  1  0.74309600  0.55374900  0.48483500  1
  O  O7  1  0.24309600  0.94625100  0.51516500  1
  O  O8  1  0.11722500  0.90741900  0.15941400  1
  O  O9  1  0.25690400  0.05374900  0.01516500  1
  O  O10  1  0.88288600  0.10120200  0.44162200  1
  O  O11  1  0.06732600  0.40996600  0.74778900  1
  O  O12  1  0.99452600  0.91954700  0.32107600  1
  O  O13  1  0.30910000  0.06307400  0.32383000  1
  O  O14  1  0.38700300  0.73482400  0.79840500  1
  O  O15  1  0.05421200  0.13131900  0.76290000  1
  O  O16  1  0.61299700  0.23482400  0.70159500  1
  O  O17  1  0.34858900  0.27632200  0.76338800  1
  O  O18  1  0.21162100  0.21951100  0.49789100  1
  O  O19  1  0.52216200  0.13688700  0.04687000  1
  O  O20  1  0.38277500  0.09258100  0.65941400  1
  O  O21  1  0.00547400  0.41954700  0.17892400  1
  O  O22  1  0.02216200  0.36311300  0.95313000  1
  O  O23  1  0.94578800  0.63131900  0.73710000  1
  O  O24  1  0.80910000  0.43692600  0.67617000  1
  O  O25  1  0.71565900  0.74068100  0.37332500  1
  O  O26  1  0.19090000  0.93692600  0.82383000  1
  O  O27  1  0.43267400  0.59003400  0.24778900  1
  O  O28  1  0.75690400  0.44625100  0.98483500  1
  O  O29  1  0.45032300  0.47652900  0.09399200  1
  O  O30  1  0.69248700  0.05202900  0.56610100  1
  O  O31  1  0.16573200  0.72097700  0.46130200  1
  O  O32  1  0.33426800  0.27902300  0.96130200  1
  O  O33  1  0.04967700  0.52347100  0.59399200  1
  O  O34  1  0.65141100  0.77632200  0.73661200  1
  O  O35  1  0.78837900  0.71951100  0.00210900  1
  O  O36  1  0.71162100  0.28048900  0.50210900  1
  O  O37  1  0.11299700  0.26517600  0.29840500  1
  O  O38  1  0.56732600  0.09003400  0.25221100  1
  O  O39  1  0.28434100  0.24068100  0.12667500  1
  O  O40  1  0.11711400  0.60120200  0.05837800  1
  O  O41  1  0.61722500  0.59258100  0.84058600  1
  O  O42  1  0.50547400  0.08045300  0.82107600  1
  O  O43  1  0.69090000  0.56307400  0.17617000  1
  O  O44  1  0.84858900  0.22367800  0.23661200  1
  O  O45  1  0.83426800  0.22097700  0.03869800  1
  O  O46  1  0.88277500  0.40741900  0.34058600  1
  O  O47  1  0.61711400  0.89879800  0.94162200  1
  O  O48  1  0.19248700  0.44797100  0.43389900  1
  O  O49  1  0.66573200  0.77902300  0.53869800  1
  O  O50  1  0.88700300  0.76517600  0.20159500  1
  O  O51  1  0.97783800  0.86311300  0.54687000  1
  O  O52  1  0.49452600  0.58045300  0.67892400  1
  O  O53  1  0.78434100  0.25931900  0.87332500  1
  O  O54  1  0.38288600  0.39879800  0.55837800  1
  O  O55  1  0.15141100  0.72367800  0.26338800  1
  O  O56  1  0.55421200  0.36868100  0.23710000  1
  O  O57  1  0.44578800  0.86868100  0.26290000  1
  O  O58  1  0.95032300  0.02347100  0.90600800  1
  O  O59  1  0.28837900  0.78048900  0.99789100  1
  O  O60  1  0.42251900  0.30903900  0.39621800  1
  O  O61  1  0.30751300  0.55202900  0.93389900  1
  O  O62  1  0.07748100  0.69096100  0.89621800  1
  O  O63  1  0.92251900  0.19096100  0.60378200  1
loop_
_geom_bond_atom_site_label_1
_geom_bond_atom_site_label_2
_geom_bond_distance
_geom_bond_site_symmetry_2
Cr0 O48 2.041665 1_655
Cr0 O6 2.063014 1_555
Cr0 O46 2.087404 1_555
Cr0 O33 2.089130 1_655
Cr1 O39 2.081906 1_555
Cr1 O40 2.102810 1_555
Cr1 O21 2.143710 1_555
Cr1 O29 2.213566 1_555
Cr1 O22 2.588761 1_554
Cr1 O32 2.629163 1_554
Cr2 O5 2.050418 1_555
Cr2 O14 2.074755 1_555
Cr2 O62 2.096486 1_555
Cr2 O23 2.131707 1_455
Cr2 O26 2.338750 1_555
Cr2 O4 2.669636 1_455
Cr3 O53 2.050418 1_555
Cr3 O16 2.074755 1_555
Cr3 O63 2.096486 1_555
Cr3 O15 2.131707 1_655
Cr3 O24 2.338750 1_555
Cr3 O11 2.669636 1_655
Cr4 O53 2.081906 1_555
Cr4 O47 2.102810 1_545
Cr4 O42 2.143710 1_555
Cr4 O58 2.213566 1_555
Cr4 O19 2.588761 1_556
Cr4 O45 2.629163 1_556
Cr5 O25 2.081906 1_555
Cr5 O10 2.102810 1_565
Cr5 O12 2.143710 1_555
Cr5 O0 2.213566 1_555
Cr5 O51 2.588761 1_555
Cr5 O49 2.629163 1_555
Cr6 O25 2.050418 1_555
Cr6 O50 2.074755 1_555
Cr6 O1 2.096486 1_555
Cr6 O57 2.131707 1_555
Cr6 O43 2.338750 1_555
Cr6 O27 2.669636 1_555
Cr7 O24 2.003826 1_555
Cr7 O54 2.076962 1_555
Cr7 O52 2.191797 1_555
Cr7 O36 2.331066 1_555
Cr7 O16 2.335292 1_555
Cr7 O6 2.605957 1_555
Cr8 O44 1.999104 1_555
Cr8 O45 2.039770 1_555
Cr8 O19 2.050829 1_555
Cr8 O38 2.063844 1_555
Cr9 O62 2.091394 1_655
Cr9 O35 2.092150 1_556
Cr9 O41 2.104852 1_555
Cr9 O23 2.118987 1_555
Cr10 O55 1.999104 1_555
Cr10 O31 2.039770 1_555
Cr10 O2 2.050829 1_555
Cr10 O27 2.063844 1_555
Cr11 O39 2.050418 1_555
Cr11 O37 2.074755 1_555
Cr11 O60 2.096486 1_555
Cr11 O56 2.131707 1_555
Cr11 O13 2.338750 1_555
Cr11 O38 2.669636 1_555
Cr12 O1 2.091394 1_555
Cr12 O59 2.092150 1_554
Cr12 O8 2.104852 1_555
Cr12 O57 2.118987 1_555
Cr13 O13 2.003826 1_555
Cr13 O10 2.076962 1_455
Cr13 O12 2.191797 1_445
Cr13 O18 2.331066 1_555
Cr13 O37 2.335292 1_555
Cr13 O7 2.605957 1_545
Cr14 O26 2.003826 1_555
Cr14 O47 2.076962 1_555
Cr14 O42 2.191797 1_565
Cr14 O59 2.331066 1_555
Cr14 O14 2.335292 1_555
Cr14 O9 2.605957 1_566
Cr15 O17 1.999104 1_555
Cr15 O32 2.039770 1_555
Cr15 O22 2.050829 1_555
Cr15 O11 2.063844 1_555
Cr16 O5 2.081906 1_555
Cr16 O54 2.102810 1_555
Cr16 O52 2.143710 1_555
Cr16 O33 2.213566 1_555
Cr16 O2 2.588761 1_555
Cr16 O31 2.629163 1_555
Cr17 O34 1.999104 1_555
Cr17 O49 2.039770 1_555
Cr17 O51 2.050829 1_555
Cr17 O4 2.063844 1_555
Cr18 O43 2.003826 1_555
Cr18 O40 2.076962 1_655
Cr18 O21 2.191797 1_655
Cr18 O35 2.331066 1_555
Cr18 O50 2.335292 1_555
Cr18 O28 2.605957 1_554
Cr19 O61 2.041665 1_555
Cr19 O28 2.063014 1_555
Cr19 O41 2.087404 1_555
Cr19 O29 2.089130 1_556
Cr20 O60 2.091394 1_555
Cr20 O36 2.092150 1_555
Cr20 O46 2.104852 1_555
Cr20 O56 2.118987 1_555
Cr21 O3 2.041665 1_455
Cr21 O9 2.063014 1_565
Cr21 O8 2.087404 1_555
Cr21 O58 2.089130 1_464
Cr22 O30 2.041665 1_555
Cr22 O7 2.063014 1_545
Cr22 O20 2.087404 1_555
Cr22 O0 2.089130 1_545
Cr23 O63 2.091394 1_455
Cr23 O18 2.092150 1_555
Cr23 O20 2.104852 1_555
Cr23 O15 2.118987 1_555
O0 P5 1.560525 1_565
O1 P10 1.558911 1_555
O2 P12 1.538869 1_555
O3 P10 1.536069 1_555
O4 P9 1.529400 1_655
O5 P0 1.588064 1_555
O6 P12 1.553652 1_555
O7 P0 1.553652 1_555
O8 P15 1.590174 1_555
O9 P7 1.553652 1_555
O10 P4 1.567043 1_555
O11 P3 1.529400 1_455
O12 P15 1.569705 1_655
O13 P5 1.531792 1_555
O14 P14 1.544401 1_555
O15 P9 1.575265 1_545
O16 P11 1.544401 1_555
O17 P11 1.523795 1_555
O18 P8 1.558519 1_555
O19 P7 1.538869 1_555
O20 P11 1.590174 1_555
O21 P6 1.569705 1_455
O22 P2 1.538869 1_455
O23 P3 1.575265 1_555
O24 P3 1.531792 1_555
O25 P12 1.588064 1_555
O26 P9 1.531792 1_555
O27 P1 1.529400 1_555
O28 P2 1.553652 1_555
O29 P1 1.560525 1_555
O30 P4 1.536069 1_555
O31 P0 1.539372 1_555
O32 P7 1.539372 1_556
O33 P3 1.560525 1_455
O34 P14 1.523795 1_555
O35 P10 1.558519 1_555
O36 P4 1.558519 1_555
O37 P6 1.544401 1_455
O38 P5 1.529400 1_555
O39 P7 1.588064 1_555
O40 P13 1.567043 1_554
O41 P14 1.590174 1_555
O42 P11 1.569705 1_555
O43 P1 1.531792 1_555
O44 P6 1.523795 1_555
O45 P2 1.539372 1_554
O46 P6 1.590174 1_555
O47 P10 1.567043 1_556
O48 P8 1.536069 1_555
O49 P12 1.539372 1_555
O50 P15 1.544401 1_655
O51 P0 1.538869 1_655
O52 P14 1.569705 1_555
O53 P2 1.588064 1_555
O54 P8 1.567043 1_555
O55 P15 1.523795 1_555
O56 P1 1.575265 1_555
O57 P5 1.575265 1_565
O58 P9 1.560525 1_645
O59 P13 1.558519 1_555
O60 P8 1.558911 1_555
O61 P13 1.536069 1_555
O62 P13 1.558911 1_555
O63 P4 1.558911 1_555
