# generated using pymatgen
data_Sr25Cl52
_symmetry_space_group_name_H-M   'P 1'
_cell_length_a   25.02087074
_cell_length_b   27.82750539
_cell_length_c   8.65363687
_cell_angle_alpha   28.22138263
_cell_angle_beta   54.82461864
_cell_angle_gamma   51.11532280
_symmetry_Int_Tables_number   1
_chemical_formula_structural   Sr25Cl52
_chemical_formula_sum   'Sr25 Cl52'
_cell_volume   2213.54960658
_cell_formula_units_Z   1
loop_
 _symmetry_equiv_pos_site_id
 _symmetry_equiv_pos_as_xyz
  1  'x, y, z'
loop_
 _atom_site_type_symbol
 _atom_site_label
 _atom_site_symmetry_multiplicity
 _atom_site_fract_x
 _atom_site_fract_y
 _atom_site_fract_z
 _atom_site_occupancy
  Cl  Cl0  1  0.01044030  0.19876578  0.25194608  1
  Cl  Cl1  1  0.10986814  0.19995418  0.75089690  1
  Cl  Cl2  1  0.20967909  0.19299107  0.27582258  1
  Cl  Cl3  1  0.06424193  0.39996990  0.75818895  1
  Cl  Cl4  1  0.16816383  0.40008068  0.24208126  1
  Cl  Cl5  1  0.02995972  0.59957126  0.75202069  1
  Cl  Cl6  1  0.12700831  0.60699134  0.24063914  1
  Cl  Cl7  1  0.31314095  0.19281378  0.75967812  1
  Cl  Cl8  1  0.40998622  0.20014065  0.24938138  1
  Cl  Cl9  1  0.22013997  0.39988161  0.49988808  1
  Cl  Cl10  1  0.37596870  0.39987178  0.24174775  1
  Cl  Cl11  1  0.27184198  0.39993441  0.75794248  1
  Cl  Cl12  1  0.08996829  0.80027410  0.24971078  1
  Cl  Cl13  1  0.60990079  0.20016142  0.24982901  1
  Cl  Cl14  1  0.33011621  0.60004609  0.24923161  1
  Cl  Cl15  1  0.50999558  0.19966637  0.75083777  1
  Cl  Cl16  1  0.23031819  0.60707803  0.72393892  1
  Cl  Cl17  1  0.04999768  0.00031331  0.24927310  1
  Cl  Cl18  1  0.28948239  0.79981274  0.25201574  1
  Cl  Cl19  1  0.46967637  0.40082182  0.74834043  1
  Cl  Cl20  1  0.57007459  0.40010865  0.24995111  1
  Cl  Cl21  1  0.19072503  0.79945862  0.75060867  1
  Cl  Cl22  1  0.53023194  0.59963550  0.25027844  1
  Cl  Cl23  1  0.42976806  0.60036450  0.74972156  1
  Cl  Cl24  1  0.81015645  0.19974348  0.25102204  1
  Cl  Cl25  1  0.71015036  0.19945602  0.75164193  1
  Cl  Cl26  1  0.24984964  0.00054398  0.24835807  1
  Cl  Cl27  1  0.14984355  0.00025652  0.74897796  1
  Cl  Cl28  1  0.76927497  0.40054138  0.24939133  1
  Cl  Cl29  1  0.67051761  0.40018726  0.74798426  1
  Cl  Cl30  1  0.49032363  0.79917818  0.25165957  1
  Cl  Cl31  1  0.38992541  0.79989135  0.75004889  1
  Cl  Cl32  1  0.62988379  0.59995391  0.75076839  1
  Cl  Cl33  1  0.45000442  0.00033363  0.24916223  1
  Cl  Cl34  1  0.72968181  0.59292197  0.27606108  1
  Cl  Cl35  1  0.35009921  -0.00016142  0.75017099  1
  Cl  Cl36  1  0.91000232  0.19968669  0.75072690  1
  Cl  Cl37  1  0.68815802  0.80006559  0.24205752  1
  Cl  Cl38  1  0.58403130  0.80012822  0.75825225  1
  Cl  Cl39  1  0.97003621  0.39989886  0.25114336  1
  Cl  Cl40  1  0.87003171  0.39972590  0.75028922  1
  Cl  Cl41  1  0.73986003  0.80011839  0.50011192  1
  Cl  Cl42  1  0.64685905  0.00718622  0.24032188  1
  Cl  Cl43  1  0.55001378  0.99985935  0.75061862  1
  Cl  Cl44  1  0.93004028  0.60042874  0.24797931  1
  Cl  Cl45  1  0.83299169  0.59300866  0.75936086  1
  Cl  Cl46  1  0.89575807  0.80003010  0.24181105  1
  Cl  Cl47  1  0.79183617  0.79991932  0.75791874  1
  Cl  Cl48  1  0.85013186  1.00004582  0.24910310  1
  Cl  Cl49  1  0.75032091  0.00700893  0.72417742  1
  Cl  Cl50  1  0.98996379  0.80010114  0.74885664  1
  Cl  Cl51  1  0.94955970  0.00123422  0.74805392  1
  Sr  Sr0  1  0.99994009  0.99948948  0.00162832  1
  Sr  Sr1  1  0.16019681  0.20099750  0.99737301  1
  Sr  Sr2  1  0.11937181  0.40002641  0.99326156  1
  Sr  Sr3  1  0.35976543  0.20057127  0.99806916  1
  Sr  Sr4  1  0.08017334  0.59942607  0.00159066  1
  Sr  Sr5  1  0.32023722  0.40012856  0.00728058  1
  Sr  Sr6  1  0.04087313  0.80364854  0.99166347  1
  Sr  Sr7  1  0.55797520  0.20344368  0.99654882  1
  Sr  Sr8  1  0.28018549  0.59818182  0.00429047  1
  Sr  Sr9  1  0.52269729  0.40001405  0.99576087  1
  Sr  Sr10  1  0.24021190  0.80353714  0.98707772  1
  Sr  Sr11  1  0.76032746  0.20282767  0.98884540  1
  Sr  Sr12  1  0.48000000  0.60000000  0.00000000  1
  Sr  Sr13  1  0.19967254  0.99717233  0.01115460  1
  Sr  Sr14  1  0.71978810  0.39646286  0.01292228  1
  Sr  Sr15  1  0.43730271  0.79998595  0.00423913  1
  Sr  Sr16  1  0.67981451  0.60181818  0.99570953  1
  Sr  Sr17  1  0.96005991  0.20051052  0.99837168  1
  Sr  Sr18  1  0.40202480  0.99655632  0.00345118  1
  Sr  Sr19  1  0.63976278  0.79987144  0.99271942  1
  Sr  Sr20  1  0.91912687  0.39635146  0.00833653  1
  Sr  Sr21  1  0.60023457  0.99942873  0.00193084  1
  Sr  Sr22  1  0.87982666  0.60057393  0.99840934  1
  Sr  Sr23  1  0.84062819  0.79997359  0.00673844  1
  Sr  Sr24  1  0.79980319  0.99900250  0.00262699  1
loop_
_geom_bond_atom_site_label_1
_geom_bond_atom_site_label_2
_geom_bond_distance
_geom_bond_site_symmetry_2
Cl0 Sr20 3.040829 1_455
Cl0 Sr17 3.054327 1_454
Cl0 Sr0 3.061863 1_446
Cl0 Sr1 3.072074 1_554
Cl1 Sr17 3.061594 1_455
Cl1 Sr1 3.063585 1_555
Cl1 Sr13 3.078776 1_546
Cl1 Sr2 3.094905 1_554
Cl2 Sr13 3.003228 1_546
Cl2 Sr2 3.077806 1_554
Cl2 Sr1 3.087641 1_554
Cl2 Sr3 3.102479 1_554
Cl3 Sr20 2.983061 1_456
Cl3 Sr2 3.046669 1_555
Cl3 Sr1 3.089512 1_555
Cl3 Sr4 3.092459 1_555
Cl4 Sr2 3.027101 1_554
Cl4 Sr1 3.086396 1_555
Cl4 Sr4 3.090562 1_555
Cl4 Sr5 3.114560 1_555
Cl5 Sr4 3.057338 1_556
Cl5 Sr22 3.066435 1_455
Cl5 Sr2 3.090784 1_555
Cl5 Sr6 3.105929 1_554
Cl6 Sr6 2.999827 1_554
Cl6 Sr2 3.077352 1_555
Cl6 Sr4 3.093059 1_555
Cl6 Sr8 3.099143 1_555
Cl7 Sr18 3.012634 1_546
Cl7 Sr5 3.076737 1_555
Cl7 Sr3 3.088211 1_555
Cl7 Sr1 3.096665 1_555
Cl8 Sr7 3.040556 1_554
Cl8 Sr3 3.064708 1_554
Cl8 Sr18 3.080241 1_546
Cl8 Sr5 3.096223 1_555
Cl9 Sr5 3.480458 1_555
Cl9 Sr2 3.492900 1_555
Cl9 Sr8 3.518569 1_555
Cl9 Sr1 3.522467 1_555
Cl9 Sr3 3.527161 1_555
Cl9 Sr4 3.532789 1_555
Cl10 Sr9 3.001474 1_554
Cl10 Sr5 3.046826 1_555
Cl10 Sr8 3.083089 1_555
Cl10 Sr3 3.091559 1_555
Cl11 Sr5 3.026699 1_556
Cl11 Sr8 3.079770 1_555
Cl11 Sr3 3.092549 1_555
Cl11 Sr2 3.121980 1_555
Cl12 Sr6 3.024967 1_554
Cl12 Sr0 3.055430 1_455
Cl12 Sr4 3.070820 1_556
Cl12 Sr10 3.086500 1_554
Cl13 Sr9 3.044380 1_554
Cl13 Sr7 3.046218 1_554
Cl13 Sr21 3.071714 1_546
Cl13 Sr11 3.087693 1_554
Cl14 Sr8 3.063082 1_555
Cl14 Sr12 3.065217 1_555
Cl14 Sr10 3.085595 1_554
Cl14 Sr5 3.096614 1_556
Cl15 Sr21 3.064019 1_546
Cl15 Sr3 3.068809 1_555
Cl15 Sr7 3.076794 1_555
Cl15 Sr9 3.084395 1_554
Cl16 Sr10 3.009471 1_554
Cl16 Sr5 3.073034 1_556
Cl16 Sr8 3.089549 1_556
Cl16 Sr4 3.103937 1_556
Cl17 Sr6 3.032399 1_545
Cl17 Sr13 3.048600 1_545
Cl17 Sr0 3.062184 1_445
Cl17 Sr17 3.063955 1_454
Cl18 Sr15 3.023926 1_555
Cl18 Sr13 3.047188 1_555
Cl18 Sr8 3.072506 1_556
Cl18 Sr10 3.076393 1_554
Cl19 Sr7 3.017388 1_555
Cl19 Sr12 3.056365 1_555
Cl19 Sr5 3.059954 1_556
Cl19 Sr9 3.081410 1_555
Cl20 Sr9 3.043387 1_554
Cl20 Sr14 3.047399 1_555
Cl20 Sr7 3.049713 1_555
Cl20 Sr12 3.061595 1_555
Cl21 Sr13 3.020092 1_555
Cl21 Sr10 3.039484 1_555
Cl21 Sr6 3.048199 1_555
Cl21 Sr8 3.074696 1_556
Cl22 Sr9 3.045005 1_555
Cl22 Sr12 3.058124 1_555
Cl22 Sr16 3.068301 1_554
Cl22 Sr15 3.087476 1_555
Cl23 Sr15 3.045005 1_555
Cl23 Sr12 3.058124 1_556
Cl23 Sr8 3.068301 1_556
Cl23 Sr9 3.087476 1_555
Cl24 Sr14 3.045559 1_555
Cl24 Sr17 3.068967 1_554
Cl24 Sr24 3.069748 1_546
Cl24 Sr11 3.080701 1_554
Cl25 Sr14 3.017055 1_555
Cl25 Sr11 3.042201 1_555
Cl25 Sr24 3.068853 1_546
Cl25 Sr7 3.096447 1_555
Cl26 Sr10 3.017055 1_545
Cl26 Sr13 3.042201 1_545
Cl26 Sr1 3.068853 1_554
Cl26 Sr18 3.096447 1_545
Cl27 Sr10 3.045559 1_545
Cl27 Sr0 3.068967 1_446
Cl27 Sr1 3.069748 1_554
Cl27 Sr13 3.080701 1_546
Cl28 Sr11 3.020092 1_555
Cl28 Sr14 3.039484 1_555
Cl28 Sr20 3.048199 1_555
Cl28 Sr16 3.074696 1_554
Cl29 Sr9 3.023926 1_555
Cl29 Sr11 3.047188 1_555
Cl29 Sr16 3.072506 1_554
Cl29 Sr14 3.076393 1_556
Cl30 Sr18 3.017388 1_555
Cl30 Sr12 3.056365 1_556
Cl30 Sr19 3.059954 1_554
Cl30 Sr15 3.081410 1_555
Cl31 Sr15 3.043387 1_556
Cl31 Sr10 3.047399 1_555
Cl31 Sr18 3.049713 1_555
Cl31 Sr12 3.061595 1_556
Cl32 Sr16 3.063082 1_555
Cl32 Sr12 3.065217 1_556
Cl32 Sr14 3.085595 1_556
Cl32 Sr19 3.096614 1_554
Cl33 Sr3 3.064019 1_554
Cl33 Sr21 3.068809 1_545
Cl33 Sr18 3.076794 1_545
Cl33 Sr15 3.084395 1_546
Cl34 Sr14 3.009471 1_556
Cl34 Sr19 3.073034 1_554
Cl34 Sr16 3.089549 1_554
Cl34 Sr22 3.103937 1_554
Cl35 Sr15 3.044380 1_546
Cl35 Sr18 3.046218 1_546
Cl35 Sr3 3.071714 1_554
Cl35 Sr13 3.087693 1_546
Cl36 Sr20 3.032399 1_555
Cl36 Sr11 3.048600 1_555
Cl36 Sr17 3.062184 1_555
Cl36 Sr0 3.063955 1_546
Cl37 Sr19 3.026699 1_554
Cl37 Sr16 3.079770 1_555
Cl37 Sr21 3.092549 1_555
Cl37 Sr23 3.121980 1_555
Cl38 Sr15 3.001474 1_556
Cl38 Sr19 3.046826 1_555
Cl38 Sr16 3.083089 1_555
Cl38 Sr21 3.091559 1_555
Cl39 Sr17 3.051817 1_555
Cl39 Sr2 3.055659 1_654
Cl39 Sr22 3.066267 1_554
Cl39 Sr20 3.107134 1_555
Cl40 Sr20 3.024967 1_556
Cl40 Sr17 3.055430 1_555
Cl40 Sr22 3.070820 1_554
Cl40 Sr14 3.086500 1_556
Cl41 Sr19 3.480458 1_555
Cl41 Sr23 3.492900 1_555
Cl41 Sr16 3.518569 1_555
Cl41 Sr24 3.522467 1_555
Cl41 Sr21 3.527161 1_555
Cl41 Sr22 3.532789 1_555
Cl42 Sr7 3.012634 1_554
Cl42 Sr19 3.076737 1_545
Cl42 Sr21 3.088211 1_545
Cl42 Sr24 3.096665 1_545
Cl43 Sr18 3.040556 1_556
Cl43 Sr21 3.064708 1_556
Cl43 Sr7 3.080241 1_564
Cl43 Sr19 3.096223 1_555
Cl44 Sr22 3.057338 1_554
Cl44 Sr4 3.066435 1_655
Cl44 Sr23 3.090784 1_555
Cl44 Sr20 3.105929 1_556
Cl45 Sr20 2.999827 1_556
Cl45 Sr23 3.077352 1_555
Cl45 Sr22 3.093059 1_555
Cl45 Sr16 3.099143 1_555
Cl46 Sr6 2.983061 1_654
Cl46 Sr23 3.046669 1_555
Cl46 Sr24 3.089512 1_555
Cl46 Sr22 3.092459 1_555
Cl47 Sr23 3.027101 1_556
Cl47 Sr24 3.086396 1_555
Cl47 Sr22 3.090562 1_555
Cl47 Sr19 3.114560 1_555
Cl48 Sr0 3.061594 1_555
Cl48 Sr24 3.063585 1_555
Cl48 Sr11 3.078776 1_564
Cl48 Sr23 3.094905 1_556
Cl49 Sr11 3.003228 1_554
Cl49 Sr23 3.077806 1_546
Cl49 Sr24 3.087641 1_546
Cl49 Sr21 3.102479 1_546
Cl50 Sr0 3.051817 1_555
Cl50 Sr23 3.055659 1_556
Cl50 Sr4 3.066267 1_656
Cl50 Sr6 3.107134 1_655
Cl51 Sr6 3.040829 1_645
Cl51 Sr0 3.054327 1_546
Cl51 Sr17 3.061863 1_554
Cl51 Sr24 3.072074 1_546
