# generated using pymatgen
data_Ga(BiBr)4
_symmetry_space_group_name_H-M   'P 1'
_cell_length_a   10.56218600
_cell_length_b   14.18828600
_cell_length_c   19.01542000
_cell_angle_alpha   90.00000000
_cell_angle_beta   90.00000000
_cell_angle_gamma   90.00000000
_symmetry_Int_Tables_number   1
_chemical_formula_structural   Ga(BiBr)4
_chemical_formula_sum   'Ga8 Bi32 Br32'
_cell_volume   2849.63782996
_cell_formula_units_Z   8
loop_
 _symmetry_equiv_pos_site_id
 _symmetry_equiv_pos_as_xyz
  1  'x, y, z'
loop_
 _atom_site_type_symbol
 _atom_site_label
 _atom_site_symmetry_multiplicity
 _atom_site_fract_x
 _atom_site_fract_y
 _atom_site_fract_z
 _atom_site_occupancy
  Ga  Ga0  1  0.47830200  0.79714700  0.17494700  1
  Ga  Ga1  1  0.99391200  0.98486800  0.00186300  1
  Ga  Ga2  1  0.49391200  0.48486800  0.49813700  1
  Ga  Ga3  1  0.97830200  0.29714700  0.32505300  1
  Ga  Ga4  1  0.02169800  0.79714700  0.67494700  1
  Ga  Ga5  1  0.50608800  0.98486800  0.50186300  1
  Ga  Ga6  1  0.52169800  0.29714700  0.82505300  1
  Ga  Ga7  1  0.00608800  0.48486800  0.99813700  1
  Bi  Bi0  1  0.04198700  0.37012800  0.56779900  1
  Bi  Bi1  1  0.03763100  0.72709500  0.20307400  1
  Bi  Bi2  1  0.61248300  0.08612100  0.17905700  1
  Bi  Bi3  1  0.70938600  0.24773100  0.08378100  1
  Bi  Bi4  1  0.29061400  0.74773100  0.91621900  1
  Bi  Bi5  1  0.45801300  0.37012800  0.06779900  1
  Bi  Bi6  1  0.46236900  0.72709500  0.70307400  1
  Bi  Bi7  1  0.88751700  0.08612100  0.67905700  1
  Bi  Bi8  1  0.95801300  0.87012800  0.43220100  1
  Bi  Bi9  1  0.66149000  0.85410900  0.78407200  1
  Bi  Bi10  1  0.53763100  0.22709500  0.29692600  1
  Bi  Bi11  1  0.63657200  0.38810600  0.20134900  1
  Bi  Bi12  1  0.36342800  0.88810600  0.79865100  1
  Bi  Bi13  1  0.13657200  0.88810600  0.29865100  1
  Bi  Bi14  1  0.11248300  0.58612100  0.32094300  1
  Bi  Bi15  1  0.94120000  0.65277100  0.44841800  1
  Bi  Bi16  1  0.44120000  0.15277100  0.05158200  1
  Bi  Bi17  1  0.79061400  0.24773100  0.58378100  1
  Bi  Bi18  1  0.17760400  0.13768500  0.69979900  1
  Bi  Bi19  1  0.16149000  0.35410900  0.71592800  1
  Bi  Bi20  1  0.32239600  0.13768500  0.19979900  1
  Bi  Bi21  1  0.54198700  0.87012800  0.93220100  1
  Bi  Bi22  1  0.96236900  0.22709500  0.79692600  1
  Bi  Bi23  1  0.86342800  0.38810600  0.70134900  1
  Bi  Bi24  1  0.55880000  0.65277100  0.94841800  1
  Bi  Bi25  1  0.33851000  0.35410900  0.21592800  1
  Bi  Bi26  1  0.83851000  0.85410900  0.28407200  1
  Bi  Bi27  1  0.20938600  0.74773100  0.41621900  1
  Bi  Bi28  1  0.38751700  0.58612100  0.82094300  1
  Bi  Bi29  1  0.05880000  0.15277100  0.55158200  1
  Bi  Bi30  1  0.82239600  0.63768500  0.30020100  1
  Bi  Bi31  1  0.67760400  0.63768500  0.80020100  1
  Br  Br0  1  0.83102200  0.81768400  0.61090600  1
  Br  Br1  1  0.68777700  0.37610600  0.88415800  1
  Br  Br2  1  0.81413800  0.05129700  0.94483600  1
  Br  Br3  1  0.68586200  0.05129700  0.44483600  1
  Br  Br4  1  0.66897800  0.81768400  0.11090600  1
  Br  Br5  1  0.93974900  0.13439500  0.31370000  1
  Br  Br6  1  0.99683200  0.04096100  0.11933200  1
  Br  Br7  1  0.49840300  0.36488800  0.71142800  1
  Br  Br8  1  0.51989600  0.81881900  0.49901700  1
  Br  Br9  1  0.33102200  0.31768400  0.88909400  1
  Br  Br10  1  0.06025100  0.63439500  0.68630000  1
  Br  Br11  1  0.43974900  0.63439500  0.18630000  1
  Br  Br12  1  0.48010400  0.31881900  0.50098300  1
  Br  Br13  1  0.18777700  0.87610600  0.61584200  1
  Br  Br14  1  0.49683200  0.54096100  0.38066800  1
  Br  Br15  1  0.18586200  0.55129700  0.05516400  1
  Br  Br16  1  0.81222300  0.37610600  0.38415800  1
  Br  Br17  1  0.98010400  0.81881900  0.99901700  1
  Br  Br18  1  0.67936500  0.53511900  0.55842400  1
  Br  Br19  1  0.99840300  0.86488800  0.78857200  1
  Br  Br20  1  0.82063500  0.53511900  0.05842400  1
  Br  Br21  1  0.00316800  0.54096100  0.88066800  1
  Br  Br22  1  0.16897800  0.31768400  0.38909400  1
  Br  Br23  1  0.56025100  0.13439500  0.81370000  1
  Br  Br24  1  0.50316800  0.04096100  0.61933200  1
  Br  Br25  1  0.32063500  0.03511900  0.44157600  1
  Br  Br26  1  0.01989600  0.31881900  0.00098300  1
  Br  Br27  1  0.50159700  0.86488800  0.28857200  1
  Br  Br28  1  0.17936500  0.03511900  0.94157600  1
  Br  Br29  1  0.31413800  0.55129700  0.55516400  1
  Br  Br30  1  0.31222300  0.87610600  0.11584200  1
  Br  Br31  1  0.00159700  0.36488800  0.21142800  1
loop_
_geom_bond_atom_site_label_1
_geom_bond_atom_site_label_2
_geom_bond_distance
_geom_bond_site_symmetry_2
Bi0 Bi19 3.094969 1_555
Bi0 Bi29 3.104386 1_555
Bi0 Bi23 3.173495 1_455
Bi0 Bi17 3.187073 1_455
Bi1 Bi13 3.100641 1_555
Bi1 Bi14 3.106336 1_555
Bi1 Bi26 3.169086 1_455
Bi1 Bi30 3.191942 1_455
Bi2 Bi3 3.096382 1_555
Bi2 Bi20 3.174684 1_555
Bi3 Bi5 3.187073 1_555
Bi6 Bi9 3.169086 1_555
Bi10 Bi11 3.100641 1_555
Bi10 Bi2 3.106336 1_555
Bi10 Bi25 3.169086 1_555
Bi10 Bi20 3.191942 1_555
Bi11 Bi3 3.091310 1_555
Bi11 Bi5 3.173495 1_555
Bi11 Bi25 3.196968 1_555
Bi12 Bi4 3.091310 1_555
Bi12 Bi6 3.100641 1_555
Bi12 Bi21 3.173495 1_555
Bi12 Bi9 3.196968 1_555
Bi13 Bi27 3.091310 1_555
Bi13 Bi8 3.173495 1_455
Bi13 Bi26 3.196968 1_455
Bi14 Bi27 3.096382 1_555
Bi14 Bi15 3.169055 1_455
Bi14 Bi30 3.174684 1_455
Bi15 Bi30 3.092546 1_555
Bi15 Bi8 3.104386 1_555
Bi15 Bi27 3.195927 1_655
Bi16 Bi20 3.092546 1_555
Bi16 Bi5 3.104386 1_555
Bi16 Bi2 3.169055 1_555
Bi16 Bi3 3.195927 1_555
Bi17 Bi23 3.091310 1_555
Bi17 Bi7 3.096382 1_555
Bi17 Bi29 3.195927 1_655
Bi18 Bi19 3.090654 1_555
Bi18 Bi29 3.092546 1_555
Bi18 Bi7 3.174684 1_455
Bi18 Bi22 3.191942 1_455
Bi19 Bi22 3.169086 1_455
Bi19 Bi23 3.196968 1_455
Bi20 Bi25 3.090654 1_555
Bi21 Bi9 3.094969 1_555
Bi21 Bi24 3.104386 1_555
Bi21 Bi4 3.187073 1_555
Bi22 Bi23 3.100641 1_555
Bi22 Bi7 3.106336 1_555
Bi24 Bi31 3.092546 1_555
Bi24 Bi28 3.169055 1_555
Bi24 Bi4 3.195927 1_555
Bi25 Bi5 3.094969 1_555
Bi26 Bi30 3.090654 1_555
Bi26 Bi8 3.094969 1_555
Bi27 Bi8 3.187073 1_455
Bi28 Bi4 3.096382 1_555
Bi28 Bi6 3.106336 1_555
Bi28 Bi31 3.174684 1_555
Bi29 Bi7 3.169055 1_455
Bi31 Bi9 3.090654 1_555
Bi31 Bi6 3.191942 1_555
Br0 Ga4 2.371471 1_655
Br1 Ga6 2.365436 1_555
Br2 Ga1 2.381114 1_546
Br3 Ga5 2.381114 1_545
Br4 Ga0 2.371471 1_555
Br5 Ga3 2.354718 1_555
Br6 Ga1 2.371469 1_545
Br7 Ga6 2.377523 1_555
Br8 Ga5 2.361081 1_555
Br9 Ga6 2.371471 1_555
Br10 Ga4 2.354718 1_555
Br11 Ga0 2.354718 1_555
Br12 Ga2 2.361081 1_555
Br13 Ga4 2.365436 1_555
Br14 Ga2 2.371469 1_555
Br15 Ga7 2.381114 1_554
Br16 Ga3 2.365436 1_555
Br17 Ga1 2.361081 1_556
Br18 Ga2 2.378946 1_555
Br19 Ga4 2.377523 1_655
Br20 Ga7 2.378946 1_654
Br21 Ga7 2.371469 1_555
Br22 Ga3 2.371471 1_455
Br23 Ga6 2.354718 1_555
Br24 Ga5 2.371469 1_545
Br25 Ga5 2.378946 1_545
Br26 Ga7 2.361081 1_554
Br27 Ga0 2.377523 1_555
Br28 Ga1 2.378946 1_446
Br29 Ga2 2.381114 1_555
Br30 Ga0 2.365436 1_555
Br31 Ga3 2.377523 1_455
