# generated using pymatgen
data_CuP4Se4I
_symmetry_space_group_name_H-M   'P 1'
_cell_length_a   9.83523970
_cell_length_b   9.83523970
_cell_length_c   12.60900500
_cell_angle_alpha   90.00000000
_cell_angle_beta   90.00000000
_cell_angle_gamma   98.75043239
_symmetry_Int_Tables_number   1
_chemical_formula_structural   CuP4Se4I
_chemical_formula_sum   'Cu4 P16 Se16 I4'
_cell_volume   1205.49672299
_cell_formula_units_Z   4
loop_
 _symmetry_equiv_pos_site_id
 _symmetry_equiv_pos_as_xyz
  1  'x, y, z'
loop_
 _atom_site_type_symbol
 _atom_site_label
 _atom_site_symmetry_multiplicity
 _atom_site_fract_x
 _atom_site_fract_y
 _atom_site_fract_z
 _atom_site_occupancy
  Cu  Cu0  1  0.09914700  0.90085300  0.50000000  1
  Cu  Cu1  1  0.40085300  0.59914700  0.00000000  1
  Cu  Cu2  1  0.59914700  0.40085300  0.00000000  1
  Cu  Cu3  1  0.90085300  0.09914700  0.50000000  1
  P  P0  1  0.72148900  0.35604900  0.14537300  1
  P  P1  1  0.22148900  0.85604900  0.35462700  1
  P  P2  1  0.85604900  0.22148900  0.35462700  1
  P  P3  1  0.25397100  0.03590300  0.24505800  1
  P  P4  1  0.14395100  0.77851100  0.64537300  1
  P  P5  1  0.96409700  0.74602900  0.75494200  1
  P  P6  1  0.27851100  0.64395100  0.85462700  1
  P  P7  1  0.64395100  0.27851100  0.85462700  1
  P  P8  1  0.74602900  0.96409700  0.75494200  1
  P  P9  1  0.24602900  0.46409700  0.74505800  1
  P  P10  1  0.35604900  0.72148900  0.14537300  1
  P  P11  1  0.46409700  0.24602900  0.74505800  1
  P  P12  1  0.75397100  0.53590300  0.25494200  1
  P  P13  1  0.03590300  0.25397100  0.24505800  1
  P  P14  1  0.53590200  0.75397100  0.25494200  1
  P  P15  1  0.77851100  0.14395100  0.64537300  1
  Se  Se0  1  0.33339200  0.83339200  0.75000000  1
  Se  Se1  1  0.16660800  0.66660800  0.25000000  1
  Se  Se2  1  0.47028800  0.47028800  0.69113100  1
  Se  Se3  1  0.05381400  0.64801600  0.90008200  1
  Se  Se4  1  0.64801600  0.05381400  0.90008200  1
  Se  Se5  1  0.52971200  0.52971200  0.30886900  1
  Se  Se6  1  0.83339200  0.33339200  0.75000000  1
  Se  Se7  1  0.66660800  0.16660800  0.25000000  1
  Se  Se8  1  0.97028800  0.97028800  0.80886900  1
  Se  Se9  1  0.85198400  0.44618600  0.40008200  1
  Se  Se10  1  0.35198400  0.94618600  0.09991800  1
  Se  Se11  1  0.55381400  0.14801600  0.59991800  1
  Se  Se12  1  0.02971200  0.02971200  0.19113100  1
  Se  Se13  1  0.94618600  0.35198400  0.09991800  1
  Se  Se14  1  0.14801600  0.55381400  0.59991800  1
  Se  Se15  1  0.44618600  0.85198400  0.40008200  1
  I  I0  1  0.82984400  0.82984400  0.47590900  1
  I  I1  1  0.17015600  0.17015600  0.52409100  1
  I  I2  1  0.32984400  0.32984400  0.02409100  1
  I  I3  1  0.67015600  0.67015600  0.97590900  1
loop_
_geom_bond_atom_site_label_1
_geom_bond_atom_site_label_2
_geom_bond_distance
_geom_bond_site_symmetry_2
Cu0 P4 2.272283 1_555
Cu0 P1 2.272283 1_555
Cu0 I1 2.651904 1_565
Cu0 I0 2.651904 1_455
Cu1 P10 2.272283 1_555
Cu1 P6 2.272283 1_554
Cu1 I2 2.651904 1_555
Cu1 I3 2.651904 1_554
Cu2 P0 2.272283 1_555
Cu2 P7 2.272283 1_554
Cu2 I2 2.651904 1_555
Cu2 I3 2.651904 1_554
Cu3 P15 2.272283 1_555
Cu3 P2 2.272283 1_555
Cu3 I1 2.651904 1_655
Cu3 I0 2.651904 1_545
P0 P12 2.228867 1_555
P0 Se7 2.279750 1_555
P0 Se13 2.289290 1_555
P1 P3 2.228867 1_565
P1 Se1 2.279750 1_555
P1 Se15 2.289290 1_555
P2 Se7 2.279750 1_555
P2 Se9 2.289290 1_555
P3 Se12 2.300011 1_555
P3 Se10 2.305610 1_545
P4 P5 2.228867 1_455
P4 Se0 2.279750 1_555
P4 Se14 2.289290 1_555
P5 Se8 2.300011 1_555
P5 Se3 2.305610 1_655
P6 P9 2.228867 1_555
P6 Se0 2.279750 1_555
P6 Se3 2.289290 1_555
P7 Se6 2.279750 1_555
P7 Se4 2.289290 1_555
P8 Se8 2.300011 1_555
P8 Se4 2.305610 1_565
P9 Se2 2.300011 1_555
P9 Se14 2.305610 1_555
P10 P14 2.228860 1_555
P10 Se1 2.279750 1_555
P10 Se10 2.289290 1_555
P11 P7 2.228867 1_555
P11 Se2 2.300011 1_555
P11 Se11 2.305610 1_555
P12 Se5 2.300011 1_555
P12 Se9 2.305610 1_555
P13 P2 2.228867 1_455
P13 Se12 2.300011 1_555
P13 Se13 2.305610 1_455
P14 Se5 2.300012 1_555
P14 Se15 2.305605 1_555
P15 P8 2.228867 1_545
P15 Se6 2.279750 1_555
P15 Se11 2.289290 1_555
