# generated using pymatgen
data_Li6V3P8O29
_symmetry_space_group_name_H-M   'P 1'
_cell_length_a   9.81949787
_cell_length_b   9.81949787
_cell_length_c   13.99994835
_cell_angle_alpha   89.17341269
_cell_angle_beta   89.17341269
_cell_angle_gamma   60.29606834
_symmetry_Int_Tables_number   1
_chemical_formula_structural   Li6V3P8O29
_chemical_formula_sum   'Li12 V6 P16 O58'
_cell_volume   1172.36577522
_cell_formula_units_Z   2
loop_
 _symmetry_equiv_pos_site_id
 _symmetry_equiv_pos_as_xyz
  1  'x, y, z'
loop_
 _atom_site_type_symbol
 _atom_site_label
 _atom_site_symmetry_multiplicity
 _atom_site_fract_x
 _atom_site_fract_y
 _atom_site_fract_z
 _atom_site_occupancy
  Li  Li0  1  0.08188100  0.69423800  0.43873500  1
  Li  Li1  1  0.34424900  0.33251100  0.61316800  1
  Li  Li2  1  0.33251100  0.34424900  0.11316800  1
  Li  Li3  1  0.69423800  0.08188100  0.93873500  1
  Li  Li4  1  0.77515900  0.91136400  0.56112500  1
  Li  Li5  1  0.08643200  0.22419500  0.93666800  1
  Li  Li6  1  0.91136400  0.77515900  0.06112500  1
  Li  Li7  1  0.22419500  0.08643200  0.43666800  1
  Li  Li8  1  0.32220300  0.90753600  0.05455800  1
  Li  Li9  1  0.32936100  0.77046700  0.56203700  1
  Li  Li10  1  0.90753600  0.32220300  0.55455800  1
  Li  Li11  1  0.77046700  0.32936100  0.06203700  1
  V  V0  1  0.56458500  0.43429700  0.25335100  1
  V  V1  1  0.57022100  0.99721300  0.75099600  1
  V  V2  1  0.43387700  0.99830200  0.24934900  1
  V  V3  1  0.99721300  0.57022100  0.25099600  1
  V  V4  1  0.99830200  0.43387700  0.74934900  1
  V  V5  1  0.43429700  0.56458500  0.75335100  1
  P  P0  1  0.22905500  0.68524100  0.16187700  1
  P  P1  1  0.09249900  0.67887200  0.65935800  1
  P  P2  1  0.68524100  0.22905500  0.66187700  1
  P  P3  1  0.33360800  0.32868800  0.87245300  1
  P  P4  1  0.32868800  0.33360800  0.37245300  1
  P  P5  1  0.67887200  0.09249900  0.15935800  1
  P  P6  1  0.76412300  0.91337400  0.34366100  1
  P  P7  1  0.09312800  0.23254000  0.15543600  1
  P  P8  1  0.91337400  0.76412300  0.84366100  1
  P  P9  1  0.23254000  0.09312800  0.65543600  1
  P  P10  1  0.31597000  0.91121000  0.83849800  1
  P  P11  1  0.66412100  0.67049100  0.12699900  1
  P  P12  1  0.67049100  0.66412100  0.62699900  1
  P  P13  1  0.31969200  0.76474800  0.34604500  1
  P  P14  1  0.91121000  0.31597000  0.33849800  1
  P  P15  1  0.76474800  0.31969200  0.84604500  1
  O  O0  1  0.20461000  0.77577000  0.26176400  1
  O  O1  1  0.24659400  0.75239900  0.43880400  1
  O  O2  1  0.25487600  0.66652800  0.65663200  1
  O  O3  1  0.00558700  0.78263400  0.75154800  1
  O  O4  1  0.37374900  0.51820900  0.17124900  1
  O  O5  1  0.08133800  0.66346400  0.16034900  1
  O  O6  1  0.33609200  0.47479200  0.82609200  1
  O  O7  1  0.51820900  0.37374900  0.67124900  1
  O  O8  1  0.75239900  0.24659400  0.93880400  1
  O  O9  1  0.77577000  0.20461000  0.76176400  1
  O  O10  1  0.66652800  0.25487500  0.15663200  1
  O  O11  1  0.17998600  0.48746200  0.33711300  1
  O  O12  1  0.11788800  0.51021200  0.67584300  1
  O  O13  1  0.47479200  0.33609200  0.32609200  1
  O  O14  1  0.33083700  0.33167700  0.97941800  1
  O  O15  1  0.33167700  0.33083700  0.47941800  1
  O  O16  1  0.48746200  0.17998600  0.83711300  1
  O  O17  1  0.11850800  0.37360900  0.17387800  1
  O  O18  1  0.18435300  0.32667100  0.83368500  1
  O  O19  1  0.66346400  0.08133800  0.66034900  1
  O  O20  1  0.78263400  0.00558700  0.25154800  1
  O  O21  1  0.76074200  0.99100200  0.43452900  1
  O  O22  1  0.75576500  0.99811000  0.07124600  1
  O  O23  1  0.51021200  0.11788800  0.17584300  1
  O  O24  1  0.32667100  0.18435300  0.33368500  1
  O  O25  1  0.37360900  0.11850800  0.67387800  1
  O  O26  1  0.08208600  0.25431600  0.65377200  1
  O  O27  1  0.74886000  0.91415900  0.83714800  1
  O  O28  1  0.99811000  0.75576500  0.57124600  1
  O  O29  1  0.99100200  0.76074200  0.93452900  1
  O  O30  1  0.00273200  0.24349500  0.42775300  1
  O  O31  1  0.00457700  0.21024300  0.24736700  1
  O  O32  1  0.61563900  0.90110500  0.32637300  1
  O  O33  1  0.91415900  0.74886000  0.33714800  1
  O  O34  1  0.25431600  0.08208600  0.15377200  1
  O  O35  1  0.67328400  0.81168600  0.66395300  1
  O  O36  1  0.47685900  0.90338900  0.81780400  1
  O  O37  1  0.24349500  0.00273200  0.92775300  1
  O  O38  1  0.25190400  0.99819500  0.56761800  1
  O  O39  1  0.21024300  0.00457700  0.74736700  1
  O  O40  1  0.32679700  0.91802400  0.33982600  1
  O  O41  1  0.81168600  0.67328400  0.16395300  1
  O  O42  1  0.51343800  0.82066800  0.17089600  1
  O  O43  1  0.90110500  0.61563900  0.82637300  1
  O  O44  1  0.65284600  0.67731700  0.02091300  1
  O  O45  1  0.67731700  0.65284600  0.52091300  1
  O  O46  1  0.90338900  0.47685900  0.31780400  1
  O  O47  1  0.52009300  0.66301200  0.67006500  1
  O  O48  1  0.33545100  0.74853600  0.83701700  1
  O  O49  1  0.82066800  0.51343800  0.67089600  1
  O  O50  1  0.23332400  0.78118900  0.08081800  1
  O  O51  1  0.48146800  0.62134200  0.32679500  1
  O  O52  1  0.66301200  0.52009300  0.17006500  1
  O  O53  1  0.62134200  0.48146800  0.82679500  1
  O  O54  1  0.91802400  0.32679700  0.83982600  1
  O  O55  1  0.99819500  0.25190400  0.06761800  1
  O  O56  1  0.74853600  0.33545100  0.33701700  1
  O  O57  1  0.78118900  0.23332400  0.58081800  1
loop_
_geom_bond_atom_site_label_1
_geom_bond_atom_site_label_2
_geom_bond_distance
_geom_bond_site_symmetry_2
Li0 O1 1.964089 1_555
Li0 O28 1.994749 1_455
Li0 O33 2.047666 1_455
Li0 O11 2.275986 1_555
Li1 O15 1.879178 1_555
Li1 O7 2.116173 1_555
Li1 O25 2.139283 1_555
Li1 O12 2.213469 1_555
Li2 O14 1.879178 1_554
Li2 O4 2.116173 1_555
Li2 O17 2.139283 1_555
Li2 O23 2.213469 1_555
Li3 O8 1.964089 1_555
Li3 O22 1.994749 1_546
Li3 O27 2.047666 1_545
Li3 O16 2.275986 1_555
Li4 O21 1.905332 1_555
Li4 O28 1.958355 1_555
Li4 O19 2.031534 1_565
Li4 O35 2.217954 1_555
Li5 O37 1.949806 1_555
Li5 O55 1.980062 1_456
Li5 O54 1.990476 1_455
Li5 O18 2.211969 1_555
Li6 O29 1.905332 1_554
Li6 O22 1.958355 1_555
Li6 O5 2.031534 1_655
Li6 O41 2.217954 1_555
Li7 O30 1.949806 1_555
Li7 O38 1.980062 1_545
Li7 O40 1.990476 1_545
Li7 O24 2.211969 1_555
Li8 O50 1.867286 1_555
Li8 O37 1.974442 1_564
Li8 O34 2.054528 1_565
Li8 O42 2.316751 1_555
Li9 O1 1.964867 1_555
Li9 O38 1.975561 1_555
Li9 O2 2.000833 1_555
Li9 O47 2.232845 1_555
Li10 O57 1.867286 1_555
Li10 O30 1.974442 1_655
Li10 O26 2.054528 1_655
Li10 O49 2.316751 1_555
Li11 O8 1.964867 1_554
Li11 O55 1.975561 1_555
Li11 O10 2.000839 1_555
Li11 O52 2.232845 1_555
O0 P13 1.610755 1_555
O0 P0 1.618061 1_555
O1 P13 1.507037 1_555
O2 P1 1.537952 1_555
O2 V5 2.054619 1_555
O3 P1 1.605203 1_555
O3 P8 1.624381 1_455
O4 P0 1.554277 1_555
O4 V0 2.004062 1_555
O5 P0 1.567985 1_555
O5 V3 1.953714 1_455
O6 P3 1.577178 1_555
O6 V5 1.879584 1_555
O7 P2 1.554277 1_555
O7 V5 2.004062 1_555
O8 P15 1.507037 1_555
O9 P15 1.610755 1_555
O9 P2 1.618061 1_555
O10 P5 1.537942 1_555
O10 V0 2.054625 1_555
O11 P4 1.572383 1_555
O11 V3 1.980854 1_455
O12 P1 1.561958 1_555
O12 V4 1.953196 1_455
O13 P4 1.577178 1_555
O13 V0 1.879584 1_555
O14 P3 1.497806 1_555
O15 P4 1.497806 1_555
O16 P3 1.572383 1_555
O16 V1 1.980854 1_545
O17 P7 1.549816 1_555
O17 V3 2.013889 1_455
O18 P3 1.579560 1_555
O18 V4 1.990051 1_455
O19 P2 1.567985 1_555
O19 V1 1.953714 1_545
O20 P5 1.605203 1_555
O20 P6 1.624381 1_545
O21 P6 1.483979 1_555
O22 P5 1.504461 1_565
O23 P5 1.561958 1_555
O23 V2 1.953196 1_545
O24 P4 1.579560 1_555
O24 V2 1.990051 1_545
O25 P9 1.549816 1_555
O25 V1 2.013889 1_545
O26 P9 1.539780 1_555
O26 V4 2.043250 1_455
O27 P8 1.558920 1_555
O27 V1 1.952377 1_555
O28 P1 1.504461 1_655
O29 P8 1.483979 1_555
O30 P14 1.499482 1_455
O31 P14 1.614713 1_455
O31 P7 1.615150 1_555
O32 P6 1.544045 1_555
O32 V2 1.896553 1_555
O33 P6 1.558920 1_555
O33 V3 1.952377 1_555
O34 P7 1.539780 1_555
O34 V2 2.043250 1_545
O35 P12 1.558677 1_555
O35 V1 2.007330 1_555
O36 P10 1.566190 1_555
O36 V1 1.830715 1_555
O37 P10 1.499482 1_545
O38 P9 1.505769 1_565
O39 P10 1.614713 1_545
O39 P9 1.615150 1_555
O40 P13 1.542032 1_555
O40 V2 2.021300 1_555
O41 P11 1.558677 1_555
O41 V3 2.007330 1_555
O42 P11 1.605967 1_555
O42 V2 1.881280 1_555
O43 P8 1.544045 1_555
O43 V4 1.896553 1_555
O44 P11 1.488987 1_555
O45 P12 1.488987 1_555
O46 P14 1.566190 1_555
O46 V3 1.830715 1_555
O47 P12 1.592083 1_555
O47 V5 1.936374 1_555
O48 P10 1.512167 1_555
O48 V5 1.966610 1_555
O49 P12 1.605967 1_555
O49 V4 1.881280 1_555
O50 P0 1.477892 1_555
O51 P13 1.536485 1_555
O51 V0 1.908256 1_555
O52 P11 1.592083 1_555
O52 V0 1.936374 1_555
O53 P15 1.536485 1_555
O53 V5 1.908256 1_555
O54 P15 1.542032 1_555
O54 V4 2.021300 1_555
O55 P7 1.505769 1_655
O56 P14 1.512167 1_555
O56 V0 1.966610 1_555
O57 P2 1.477892 1_555
