# generated using pymatgen
data_K3VO4
_symmetry_space_group_name_H-M   'P 1'
_cell_length_a   8.27666017
_cell_length_b   8.27666017
_cell_length_c   8.27666017
_cell_angle_alpha   90.00000000
_cell_angle_beta   90.00000000
_cell_angle_gamma   90.00000000
_symmetry_Int_Tables_number   1
_chemical_formula_structural   K3VO4
_chemical_formula_sum   'K12 V4 O16'
_cell_volume   566.97690884
_cell_formula_units_Z   4
loop_
 _symmetry_equiv_pos_site_id
 _symmetry_equiv_pos_as_xyz
  1  'x, y, z'
loop_
 _atom_site_type_symbol
 _atom_site_label
 _atom_site_symmetry_multiplicity
 _atom_site_fract_x
 _atom_site_fract_y
 _atom_site_fract_z
 _atom_site_occupancy
  K  K0  1  0.46429092  0.53570908  0.03570908  1
  K  K1  1  0.51188888  0.98811112  0.01188888  1
  K  K2  1  0.48811112  0.48811112  0.48811112  1
  K  K3  1  0.96429092  0.96429092  0.96429092  1
  K  K4  1  0.53570908  0.03570908  0.46429092  1
  K  K5  1  0.03570908  0.46429092  0.53570908  1
  K  K6  1  0.21576599  0.78423401  0.28423401  1
  K  K7  1  0.28423401  0.21576599  0.78423401  1
  K  K8  1  0.01188888  0.51188888  0.98811112  1
  K  K9  1  0.98811112  0.01188888  0.51188888  1
  K  K10  1  0.78423401  0.28423401  0.21576599  1
  K  K11  1  0.71576599  0.71576599  0.71576599  1
  V  V0  1  0.73615163  0.76384837  0.23615163  1
  V  V1  1  0.76384837  0.23615163  0.73615163  1
  V  V2  1  0.26384837  0.26384837  0.26384837  1
  V  V3  1  0.23615163  0.73615163  0.76384837  1
  O  O0  1  0.53516497  0.74553557  0.29035777  1
  O  O1  1  0.35521995  0.85521995  0.64478005  1
  O  O2  1  0.85521995  0.64478005  0.35521995  1
  O  O3  1  0.74553557  0.29035777  0.53516497  1
  O  O4  1  0.03516497  0.75446443  0.70964223  1
  O  O5  1  0.24553557  0.20964223  0.46483503  1
  O  O6  1  0.20964223  0.46483503  0.24553557  1
  O  O7  1  0.96483503  0.25446443  0.79035777  1
  O  O8  1  0.29035777  0.53516497  0.74553557  1
  O  O9  1  0.46483503  0.24553557  0.20964223  1
  O  O10  1  0.79035777  0.96483503  0.25446443  1
  O  O11  1  0.64478005  0.35521995  0.85521995  1
  O  O12  1  0.75446443  0.70964223  0.03516497  1
  O  O13  1  0.70964223  0.03516497  0.75446443  1
  O  O14  1  0.14478005  0.14478005  0.14478005  1
  O  O15  1  0.25446443  0.79035777  0.96483503  1
loop_
_geom_bond_atom_site_label_1
_geom_bond_atom_site_label_2
_geom_bond_distance
_geom_bond_site_symmetry_2
K0 O11 2.587419 1_554
K0 O15 2.793250 1_554
K0 O6 2.793250 1_555
K0 O0 2.793250 1_555
K0 O9 2.800077 1_555
K0 O8 2.800077 1_554
K0 O12 2.800077 1_555
K1 O9 2.714792 1_565
K1 O15 2.714792 1_554
K1 O13 2.714792 1_564
K1 O10 3.062695 1_555
K1 O0 3.062695 1_555
K1 O12 3.062695 1_555
K2 O3 2.714792 1_555
K2 O8 2.714792 1_555
K2 O0 2.714792 1_555
K2 O6 3.062695 1_555
K2 O9 3.062695 1_555
K2 O5 3.062695 1_555
K3 O14 2.587419 1_666
K3 O12 2.793250 1_556
K3 O13 2.793250 1_565
K3 O4 2.793250 1_655
K3 O7 2.800077 1_565
K3 O10 2.800077 1_556
K3 O15 2.800077 1_655
K4 O1 2.587419 1_545
K4 O10 2.793250 1_545
K4 O9 2.793250 1_555
K4 O3 2.793250 1_555
K4 O5 2.800077 1_555
K4 O0 2.800077 1_545
K4 O13 2.800077 1_555
K5 O2 2.587419 1_455
K5 O7 2.793250 1_455
K5 O5 2.793250 1_555
K5 O8 2.793250 1_555
K5 O6 2.800077 1_555
K5 O3 2.800077 1_455
K5 O4 2.800077 1_555
K6 O15 2.663372 1_554
K6 O0 2.663372 1_555
K6 O6 2.663372 1_555
K6 O14 3.253052 1_565
K6 O2 3.253052 1_455
K6 O1 3.253052 1_555
K7 O7 2.663372 1_455
K7 O8 2.663372 1_555
K7 O5 2.663372 1_555
K7 O14 3.253052 1_556
K7 O1 3.253052 1_545
K7 O11 3.253052 1_555
K8 O6 2.714792 1_556
K8 O7 2.714792 1_455
K8 O12 2.714792 1_456
K8 O8 3.062695 1_555
K8 O4 3.062695 1_555
K8 O15 3.062695 1_555
K9 O10 2.714792 1_545
K9 O5 2.714792 1_655
K9 O4 2.714792 1_645
K9 O13 3.062695 1_555
K9 O7 3.062695 1_555
K9 O3 3.062695 1_555
K10 O10 2.663372 1_545
K10 O3 2.663372 1_555
K10 O9 2.663372 1_555
K10 O11 3.253052 1_554
K10 O14 3.253052 1_655
K10 O2 3.253052 1_555
K11 O13 2.663372 1_565
K11 O4 2.663372 1_655
K11 O12 2.663372 1_556
K11 O2 3.253052 1_555
K11 O11 3.253052 1_555
K11 O1 3.253052 1_555
O0 V0 1.729590 1_555
O1 V3 1.706915 1_555
O2 V0 1.706915 1_555
O3 V1 1.729590 1_555
O4 V3 1.729590 1_555
O5 V2 1.729590 1_555
O6 V2 1.729590 1_555
O7 V1 1.729590 1_555
O8 V3 1.729590 1_555
O9 V2 1.729590 1_555
O10 V0 1.729590 1_555
O11 V1 1.706915 1_555
O12 V0 1.729590 1_555
O13 V1 1.729590 1_555
O14 V2 1.706915 1_555
O15 V3 1.729590 1_555
