# generated using pymatgen
data_Nb2O5
_symmetry_space_group_name_H-M   'P 1'
_cell_length_a   14.71132806
_cell_length_b   14.71132806
_cell_length_c   14.71132806
_cell_angle_alpha   90.97627693
_cell_angle_beta   90.97627693
_cell_angle_gamma   164.99940875
_symmetry_Int_Tables_number   1
_chemical_formula_structural   Nb2O5
_chemical_formula_sum   'Nb16 O40'
_cell_volume   817.02786389
_cell_formula_units_Z   8
loop_
 _symmetry_equiv_pos_site_id
 _symmetry_equiv_pos_as_xyz
  1  'x, y, z'
loop_
 _atom_site_type_symbol
 _atom_site_label
 _atom_site_symmetry_multiplicity
 _atom_site_fract_x
 _atom_site_fract_y
 _atom_site_fract_z
 _atom_site_occupancy
  Nb  Nb0  1  0.26647158  0.86483928  0.13131087  1
  Nb  Nb1  1  -0.00000000  0.86844801  0.86844801  1
  Nb  Nb2  1  0.00000000  0.40077054  0.40077054  1
  Nb  Nb3  1  0.40077054  -0.00000000  0.40077054  1
  Nb  Nb4  1  0.86483928  0.73352842  0.59836870  1
  Nb  Nb5  1  0.59922946  -0.00000000  0.59922946  1
  Nb  Nb6  1  0.13516072  0.26647158  0.40163130  1
  Nb  Nb7  1  0.13155199  -0.00000000  0.13155199  1
  Nb  Nb8  1  -0.00000000  0.13155199  0.13155199  1
  Nb  Nb9  1  0.86844801  -0.00000000  0.86844801  1
  Nb  Nb10  1  0.86483928  0.26647158  0.13131087  1
  Nb  Nb11  1  -0.00000000  0.59922946  0.59922946  1
  Nb  Nb12  1  0.73352842  0.86483928  0.59836870  1
  Nb  Nb13  1  0.73352842  0.13516072  0.86868913  1
  Nb  Nb14  1  0.26647158  0.13516072  0.40163130  1
  Nb  Nb15  1  0.13516072  0.73352842  0.86868913  1
  O  O0  1  0.06914396  0.79023570  0.85937966  1
  O  O1  1  0.20649881  0.20649881  0.41299662  1
  O  O2  1  0.93085604  0.20976430  0.14062034  1
  O  O3  1  0.35141697  0.79001847  0.14143443  1
  O  O4  1  0.79350119  0.79350119  0.58700338  1
  O  O5  1  0.79023570  0.06914396  0.85937966  1
  O  O6  1  0.20976430  0.93085604  0.14062034  1
  O  O7  1  0.79001847  0.35141697  0.14143443  1
  O  O8  1  0.20998153  0.35141697  0.56139850  1
  O  O9  1  0.93018909  0.06981091  -0.00000000  1
  O  O10  1  0.50000000  0.64497484  0.14497484  1
  O  O11  1  0.06981091  0.06981091  0.13962383  1
  O  O12  1  0.93105319  0.34766003  0.27871322  1
  O  O13  1  0.50000000  0.06605456  0.56605456  1
  O  O14  1  0.20649881  0.79350119  0.00000000  1
  O  O15  1  0.93018909  0.93018909  0.86037617  1
  O  O16  1  0.50000000  0.35502516  0.85502516  1
  O  O17  1  0.93105319  0.65233997  0.58339416  1
  O  O18  1  0.64858303  0.79001847  0.43860150  1
  O  O19  1  0.79001847  0.64858303  0.43860150  1
  O  O20  1  0.64497484  0.50000000  0.14497484  1
  O  O21  1  0.34766003  0.93105319  0.27871322  1
  O  O22  1  0.06894681  0.65233997  0.72128678  1
  O  O23  1  0.65233997  0.06894681  0.72128678  1
  O  O24  1  0.93394544  0.50000000  0.43394544  1
  O  O25  1  0.06894681  0.34766003  0.41660584  1
  O  O26  1  0.06981091  0.93018909  -0.00000000  1
  O  O27  1  0.93085604  0.79023570  0.72109274  1
  O  O28  1  0.35141697  0.20998153  0.56139850  1
  O  O29  1  0.79023570  0.93085604  0.72109274  1
  O  O30  1  0.50000000  0.93394544  0.43394544  1
  O  O31  1  0.06914396  0.20976430  0.27890726  1
  O  O32  1  0.65233997  0.93105319  0.58339416  1
  O  O33  1  0.79350119  0.20649881  -0.00000000  1
  O  O34  1  0.20998153  0.64858303  0.85856557  1
  O  O35  1  0.06605456  0.50000000  0.56605456  1
  O  O36  1  0.20976430  0.06914396  0.27890726  1
  O  O37  1  0.34766003  0.06894681  0.41660584  1
  O  O38  1  0.64858303  0.20998153  0.85856557  1
  O  O39  1  0.35502516  0.50000000  0.85502516  1
loop_
_geom_bond_atom_site_label_1
_geom_bond_atom_site_label_2
_geom_bond_distance
_geom_bond_site_symmetry_2
Nb0 O6 1.795129 1_555
Nb0 O14 1.922390 1_555
Nb0 O7 2.000014 1_455
Nb0 O7 2.000017 1_565
Nb0 O21 2.160997 1_555
Nb0 O3 2.334937 1_555
Nb1 O26 1.922353 1_556
Nb1 O15 1.922355 1_455
Nb1 O16 1.940146 1_455
Nb1 O16 1.940146 1_565
Nb1 O27 2.153311 1_455
Nb1 O0 2.153325 1_555
Nb2 O25 1.795182 1_555
Nb2 O12 1.795184 1_455
Nb2 O30 2.038571 1_555
Nb2 O30 2.038571 1_445
Nb2 O35 2.458824 1_555
Nb2 O24 2.458824 1_455
Nb3 O37 1.795182 1_555
Nb3 O21 1.795184 1_545
Nb3 O24 2.038571 1_555
Nb3 O24 2.038571 1_445
Nb3 O13 2.458824 1_555
Nb3 O30 2.458824 1_545
Nb4 O27 1.795129 1_555
Nb4 O4 1.922390 1_555
Nb4 O28 2.000019 1_555
Nb4 O28 2.000022 1_665
Nb4 O17 2.160997 1_555
Nb4 O19 2.334953 1_555
Nb5 O32 1.795182 1_545
Nb5 O23 1.795184 1_555
Nb5 O35 2.038571 1_655
Nb5 O35 2.038571 1_545
Nb5 O30 2.458824 1_545
Nb5 O13 2.458824 1_555
Nb6 O31 1.795129 1_555
Nb6 O1 1.922390 1_555
Nb6 O18 2.000019 1_555
Nb6 O18 2.000022 1_445
Nb6 O25 2.160997 1_555
Nb6 O8 2.334953 1_555
Nb7 O26 1.922353 1_545
Nb7 O11 1.922355 1_555
Nb7 O20 1.940146 1_555
Nb7 O20 1.940146 1_445
Nb7 O36 2.153311 1_555
Nb7 O6 2.153325 1_545
Nb8 O9 1.922353 1_455
Nb8 O11 1.922355 1_555
Nb8 O10 1.940146 1_555
Nb8 O10 1.940146 1_445
Nb8 O31 2.153311 1_555
Nb8 O2 2.153325 1_455
Nb9 O9 1.922353 1_556
Nb9 O15 1.922355 1_545
Nb9 O39 1.940146 1_545
Nb9 O39 1.940146 1_655
Nb9 O29 2.153311 1_545
Nb9 O5 2.153325 1_555
Nb10 O2 1.795129 1_555
Nb10 O33 1.922390 1_555
Nb10 O3 2.000014 1_545
Nb10 O3 2.000017 1_655
Nb10 O12 2.160997 1_555
Nb10 O7 2.334937 1_555
Nb11 O17 1.795182 1_455
Nb11 O22 1.795184 1_555
Nb11 O13 2.038571 1_565
Nb11 O13 2.038571 1_455
Nb11 O24 2.458824 1_455
Nb11 O35 2.458824 1_555
Nb12 O29 1.795129 1_555
Nb12 O4 1.922390 1_555
Nb12 O8 2.000019 1_555
Nb12 O8 2.000022 1_665
Nb12 O32 2.160997 1_555
Nb12 O18 2.334953 1_555
Nb13 O5 1.795129 1_555
Nb13 O33 1.922390 1_556
Nb13 O34 2.000014 1_655
Nb13 O34 2.000017 1_545
Nb13 O23 2.160997 1_555
Nb13 O38 2.334937 1_555
Nb14 O36 1.795129 1_555
Nb14 O1 1.922390 1_555
Nb14 O19 2.000019 1_555
Nb14 O19 2.000022 1_445
Nb14 O37 2.160997 1_555
Nb14 O28 2.334953 1_555
Nb15 O0 1.795129 1_555
Nb15 O14 1.922390 1_556
Nb15 O38 2.000014 1_565
Nb15 O38 2.000017 1_455
Nb15 O22 2.160997 1_555
Nb15 O34 2.334937 1_555
