# generated using pymatgen
data_Eu2(Ga3Ir)3
_symmetry_space_group_name_H-M   'P 1'
_cell_length_a   7.53278963
_cell_length_b   7.53278963
_cell_length_c   9.72802467
_cell_angle_alpha   90.00000000
_cell_angle_beta   90.00000000
_cell_angle_gamma   119.63049694
_symmetry_Int_Tables_number   1
_chemical_formula_structural   Eu2(Ga3Ir)3
_chemical_formula_sum   'Eu4 Ga18 Ir6'
_cell_volume   479.81298226
_cell_formula_units_Z   2
loop_
 _symmetry_equiv_pos_site_id
 _symmetry_equiv_pos_as_xyz
  1  'x, y, z'
loop_
 _atom_site_type_symbol
 _atom_site_label
 _atom_site_symmetry_multiplicity
 _atom_site_fract_x
 _atom_site_fract_y
 _atom_site_fract_z
 _atom_site_occupancy
  Eu  Eu0  1  0.00213420  0.33128022  0.75000000  1
  Eu  Eu1  1  0.99786580  0.66871978  0.25000000  1
  Eu  Eu2  1  0.33128022  0.00213420  0.75000000  1
  Eu  Eu3  1  0.66871978  0.99786580  0.25000000  1
  Ga  Ga0  1  0.66402255  0.66402255  0.44056940  1
  Ga  Ga1  1  0.33597745  0.33597745  0.94056940  1
  Ga  Ga2  1  0.66402255  0.66402255  0.05943060  1
  Ga  Ga3  1  0.33597745  0.33597745  0.55943060  1
  Ga  Ga4  1  0.00383771  0.33450758  0.42737353  1
  Ga  Ga5  1  0.99616229  0.66549242  0.92737353  1
  Ga  Ga6  1  0.33450758  0.00383771  0.07262647  1
  Ga  Ga7  1  0.66549242  0.99616229  0.57262647  1
  Ga  Ga8  1  0.99616229  0.66549242  0.57262647  1
  Ga  Ga9  1  0.00383771  0.33450758  0.07262647  1
  Ga  Ga10  1  0.66549242  0.99616229  0.92737353  1
  Ga  Ga11  1  0.33450758  0.00383771  0.42737353  1
  Ga  Ga12  1  0.13066434  0.13066434  0.25000000  1
  Ga  Ga13  1  0.86933566  0.86933566  0.75000000  1
  Ga  Ga14  1  0.66488138  0.45825795  0.75000000  1
  Ga  Ga15  1  0.33511862  0.54174205  0.25000000  1
  Ga  Ga16  1  0.45825795  0.66488138  0.75000000  1
  Ga  Ga17  1  0.54174205  0.33511862  0.25000000  1
  Ir  Ir0  1  -0.00000000  -0.00000000  0.50000000  1
  Ir  Ir1  1  -0.00000000  -0.00000000  -0.00000000  1
  Ir  Ir2  1  0.67045044  0.32954956  0.50000000  1
  Ir  Ir3  1  0.32954956  0.67045044  -0.00000000  1
  Ir  Ir4  1  0.32954956  0.67045044  0.50000000  1
  Ir  Ir5  1  0.67045044  0.32954956  -0.00000000  1
loop_
_geom_bond_atom_site_label_1
_geom_bond_atom_site_label_2
_geom_bond_distance
_geom_bond_site_symmetry_2
Eu0 Ga5 3.070732 1_455
Eu0 Ga8 3.070732 1_455
Eu0 Ga7 3.074172 1_445
Eu0 Ga10 3.074172 1_445
Eu0 Ga16 3.095583 1_555
Eu0 Ga13 3.109219 1_445
Eu0 Ga1 3.110330 1_555
Eu0 Ga3 3.110330 1_555
Eu0 Ga14 3.125946 1_455
Eu0 Ga9 3.138590 1_556
Eu0 Ga4 3.138590 1_555
Eu1 Ga4 3.070732 1_655
Eu1 Ga9 3.070732 1_655
Eu1 Ga6 3.074172 1_665
Eu1 Ga11 3.074172 1_665
Eu1 Ga17 3.095583 1_555
Eu1 Ga12 3.109219 1_665
Eu1 Ga2 3.110330 1_555
Eu1 Ga0 3.110330 1_555
Eu1 Ga15 3.125946 1_655
Eu1 Ga5 3.138590 1_554
Eu1 Ga8 3.138590 1_555
Eu2 Ga10 3.070732 1_545
Eu2 Ga7 3.070732 1_545
Eu2 Ga5 3.074172 1_445
Eu2 Ga8 3.074172 1_445
Eu2 Ga14 3.095583 1_555
Eu2 Ga13 3.109219 1_445
Eu2 Ga1 3.110330 1_555
Eu2 Ga3 3.110330 1_555
Eu2 Ga16 3.125946 1_545
Eu2 Ga6 3.138590 1_556
Eu2 Ga11 3.138590 1_555
Eu3 Ga11 3.070732 1_565
Eu3 Ga6 3.070732 1_565
Eu3 Ga9 3.074172 1_665
Eu3 Ga4 3.074172 1_665
Eu3 Ga15 3.095583 1_555
Eu3 Ga12 3.109219 1_665
Eu3 Ga2 3.110330 1_555
Eu3 Ga0 3.110330 1_555
Eu3 Ga17 3.125946 1_565
Eu3 Ga7 3.138590 1_555
Eu3 Ga10 3.138590 1_554
Ga0 Ir4 2.608673 1_555
Ga0 Ir2 2.608673 1_555
Ga0 Ir0 2.609812 1_665
Ga0 Ga3 2.740737 1_555
Ga0 Ga7 2.807626 1_555
Ga0 Ga8 2.807626 1_555
Ga0 Ga17 2.857797 1_555
Ga0 Ga15 2.857797 1_555
Ga1 Ir5 2.608673 1_556
Ga1 Ir3 2.608673 1_556
Ga1 Ir1 2.609812 1_556
Ga1 Ga2 2.740737 1_556
Ga1 Ga6 2.807626 1_556
Ga1 Ga9 2.807626 1_556
Ga1 Ga14 2.857797 1_555
Ga1 Ga16 2.857797 1_555
Ga2 Ir3 2.608673 1_555
Ga2 Ir5 2.608673 1_555
Ga2 Ir1 2.609812 1_665
Ga2 Ga5 2.807626 1_554
Ga3 Ir4 2.608673 1_555
Ga3 Ir2 2.608673 1_555
Ga3 Ir0 2.609812 1_555
Ga3 Ga4 2.807626 1_555
Ga4 Ir2 2.591258 1_455
Ga4 Ir0 2.603312 1_555
Ga4 Ir4 2.604501 1_555
Ga4 Ga8 2.891152 1_455
Ga4 Ga7 2.926623 1_445
Ga5 Ir3 2.591258 1_656
Ga5 Ir1 2.603312 1_666
Ga5 Ir5 2.604501 1_556
Ga5 Ga9 2.891152 1_656
Ga5 Ga6 2.926623 1_666
Ga6 Ir3 2.591258 1_545
Ga6 Ir1 2.603312 1_555
Ga6 Ir5 2.604501 1_555
Ga7 Ir2 2.591258 1_565
Ga7 Ir0 2.603312 1_665
Ga7 Ir4 2.604501 1_555
Ga8 Ir4 2.591258 1_655
Ga8 Ir0 2.603312 1_665
Ga8 Ir2 2.604501 1_555
Ga9 Ir5 2.591258 1_455
Ga9 Ir1 2.603312 1_555
Ga9 Ir3 2.604501 1_555
Ga10 Ir5 2.591258 1_566
Ga10 Ir1 2.603312 1_666
Ga10 Ir3 2.604501 1_556
Ga10 Ga13 2.774593 1_555
Ga10 Ga16 2.790989 1_555
Ga10 Ga2 2.807626 1_556
Ga10 Ga6 2.891152 1_566
Ga10 Ga9 2.926623 1_666
Ga11 Ir4 2.591258 1_545
Ga11 Ir0 2.603312 1_555
Ga11 Ir2 2.604501 1_555
Ga11 Ga12 2.774593 1_555
Ga11 Ga17 2.790989 1_555
Ga11 Ga3 2.807626 1_555
Ga11 Ga7 2.891152 1_545
Ga11 Ga8 2.926623 1_445
Ga12 Ir0 2.625696 1_555
Ga12 Ir1 2.625696 1_555
Ga12 Ga15 2.691646 1_555
Ga12 Ga17 2.691646 1_555
Ga12 Ga4 2.774593 1_555
Ga12 Ga6 2.774593 1_555
Ga12 Ga9 2.774593 1_555
Ga13 Ir0 2.625696 1_665
Ga13 Ir1 2.625696 1_666
Ga13 Ga16 2.691646 1_555
Ga13 Ga14 2.691646 1_555
Ga13 Ga7 2.774593 1_555
Ga13 Ga8 2.774593 1_555
Ga13 Ga5 2.774593 1_555
Ga14 Ir5 2.626143 1_556
Ga14 Ir2 2.626143 1_555
Ga14 Ga16 2.690819 1_555
Ga14 Ga8 2.790989 1_555
Ga14 Ga5 2.790989 1_555
Ga14 Ga3 2.857797 1_555
Ga15 Ir4 2.626143 1_555
Ga15 Ir3 2.626143 1_555
Ga15 Ga17 2.690819 1_555
Ga15 Ga9 2.790989 1_555
Ga15 Ga4 2.790989 1_555
Ga15 Ga2 2.857797 1_555
Ga16 Ir4 2.626143 1_555
Ga16 Ir3 2.626143 1_556
Ga16 Ga7 2.790989 1_555
Ga16 Ga3 2.857797 1_555
Ga17 Ir5 2.626143 1_555
Ga17 Ir2 2.626143 1_555
Ga17 Ga6 2.790989 1_555
Ga17 Ga2 2.857797 1_555
