# generated using pymatgen
data_CsNb(CuTe2)2
_symmetry_space_group_name_H-M   'P 1'
_cell_length_a   6.05765200
_cell_length_b   8.34499600
_cell_length_c   21.03435100
_cell_angle_alpha   90.00000000
_cell_angle_beta   90.00000000
_cell_angle_gamma   90.00000000
_symmetry_Int_Tables_number   1
_chemical_formula_structural   CsNb(CuTe2)2
_chemical_formula_sum   'Cs4 Nb4 Cu8 Te16'
_cell_volume   1063.30919611
_cell_formula_units_Z   4
loop_
 _symmetry_equiv_pos_site_id
 _symmetry_equiv_pos_as_xyz
  1  'x, y, z'
loop_
 _atom_site_type_symbol
 _atom_site_label
 _atom_site_symmetry_multiplicity
 _atom_site_fract_x
 _atom_site_fract_y
 _atom_site_fract_z
 _atom_site_occupancy
  Cs  Cs0  1  0.01481700  0.70357200  0.43835900  1
  Cs  Cs1  1  0.51481700  0.29642800  0.56164100  1
  Cs  Cs2  1  0.51481700  0.79642800  0.93835900  1
  Cs  Cs3  1  0.01481700  0.20357200  0.06164100  1
  Nb  Nb0  1  0.25911600  0.70355400  0.14725900  1
  Nb  Nb1  1  0.75911600  0.29644600  0.85274100  1
  Nb  Nb2  1  0.75911600  0.79644600  0.64725900  1
  Nb  Nb3  1  0.25911600  0.20355400  0.35274100  1
  Cu  Cu0  1  0.26661000  0.96141100  0.24716800  1
  Cu  Cu1  1  0.76661000  0.03858900  0.75283200  1
  Cu  Cu2  1  0.76661000  0.53858900  0.74716800  1
  Cu  Cu3  1  0.26661000  0.46141100  0.25283200  1
  Cu  Cu4  1  0.25933800  0.79573200  0.64700200  1
  Cu  Cu5  1  0.75933800  0.20426800  0.35299800  1
  Cu  Cu6  1  0.75933800  0.70426800  0.14700200  1
  Cu  Cu7  1  0.25933800  0.29573200  0.85299800  1
  Te  Te0  1  0.51213200  0.96304300  0.14409300  1
  Te  Te1  1  0.01213200  0.03695700  0.85590700  1
  Te  Te2  1  0.01213200  0.53695700  0.64409300  1
  Te  Te3  1  0.51213200  0.46304300  0.35590700  1
  Te  Te4  1  0.51336100  0.94635600  0.34904500  1
  Te  Te5  1  0.01336100  0.05364400  0.65095500  1
  Te  Te6  1  0.01336100  0.55364400  0.84904500  1
  Te  Te7  1  0.51336100  0.44635600  0.15095500  1
  Te  Te8  1  0.00220200  0.71103700  0.25044900  1
  Te  Te9  1  0.50220200  0.28896300  0.74955100  1
  Te  Te10  1  0.50220200  0.78896300  0.75044900  1
  Te  Te11  1  0.00220200  0.21103700  0.24955100  1
  Te  Te12  1  0.00692300  0.69073400  0.04519900  1
  Te  Te13  1  0.50692300  0.30926600  0.95480100  1
  Te  Te14  1  0.50692300  0.80926600  0.54519900  1
  Te  Te15  1  0.00692300  0.19073400  0.45480100  1
loop_
_geom_bond_atom_site_label_1
_geom_bond_atom_site_label_2
_geom_bond_distance
_geom_bond_site_symmetry_2
Cs0 Te14 3.835982 1_555
Cs0 Te14 3.910767 1_455
Cs0 Te8 3.953794 1_555
Cs0 Te3 4.014014 1_555
Cs0 Te3 4.038485 1_455
Cs0 Te15 4.080329 1_565
Cs0 Te4 4.093240 1_555
Cs0 Te4 4.106272 1_455
Cs0 Te15 4.293849 1_555
Cs1 Te15 3.835982 1_655
Cs1 Te15 3.910767 1_555
Cs1 Te9 3.953794 1_555
Cs1 Te2 4.014014 1_655
Cs1 Te2 4.038485 1_555
Cs1 Te14 4.080329 1_545
Cs1 Te5 4.093240 1_655
Cs1 Te5 4.106272 1_555
Cs1 Te14 4.293849 1_555
Cs2 Te12 3.835982 1_656
Cs2 Te12 3.910767 1_556
Cs2 Te10 3.953794 1_555
Cs2 Te1 4.014014 1_665
Cs2 Te1 4.038485 1_565
Cs2 Te13 4.080329 1_555
Cs2 Te6 4.093240 1_655
Cs2 Te6 4.106272 1_555
Cs2 Te13 4.293849 1_565
Cs3 Te13 3.835982 1_554
Cs3 Te13 3.910767 1_454
Cs3 Te11 3.953794 1_555
Cs3 Te0 4.014014 1_545
Cs3 Te0 4.038485 1_445
Cs3 Te12 4.080329 1_555
Cs3 Te7 4.093240 1_555
Cs3 Te7 4.106272 1_455
Cs3 Te12 4.293849 1_545
Nb0 Te12 2.637026 1_555
Nb0 Te7 2.642860 1_555
Nb0 Te0 2.653801 1_555
Nb0 Te8 2.671549 1_555
Nb1 Te13 2.637026 1_555
Nb1 Te6 2.642860 1_655
Nb1 Te1 2.653801 1_655
Nb1 Te9 2.671549 1_555
Nb2 Te14 2.637026 1_555
Nb2 Te5 2.642860 1_665
Nb2 Te2 2.653801 1_655
Nb2 Te10 2.671549 1_555
Nb3 Te15 2.637026 1_555
Nb3 Te4 2.642860 1_545
Nb3 Te3 2.653801 1_555
Nb3 Te11 2.671549 1_555
Cu0 Te4 2.615740 1_555
Cu0 Te11 2.628184 1_565
Cu0 Te0 2.629246 1_555
Cu0 Te8 2.633561 1_555
Cu0 Nb3 3.002757 1_565
Cu0 Nb0 3.008116 1_555
Cu1 Te5 2.615740 1_655
Cu1 Te10 2.628184 1_545
Cu1 Te1 2.629246 1_655
Cu1 Te9 2.633561 1_555
Cu1 Nb2 3.002757 1_545
Cu1 Nb1 3.008116 1_555
Cu2 Te6 2.615740 1_655
Cu2 Te9 2.628184 1_555
Cu2 Te2 2.629246 1_655
Cu2 Te10 2.633561 1_555
Cu2 Nb1 3.002757 1_555
Cu2 Nb2 3.008116 1_555
Cu3 Te7 2.615740 1_555
Cu3 Te8 2.628184 1_555
Cu3 Te3 2.629246 1_555
Cu3 Te11 2.633561 1_555
Cu3 Nb0 3.002757 1_555
Cu3 Nb3 3.008116 1_555
Cu4 Te14 2.616779 1_555
Cu4 Te5 2.619051 1_565
Cu4 Te10 2.627222 1_555
Cu4 Te2 2.628603 1_555
Cu4 Nb2 3.027492 1_555
Cu4 Nb2 3.030181 1_455
Cu5 Te15 2.616779 1_655
Cu5 Te4 2.619051 1_545
Cu5 Te11 2.627222 1_655
Cu5 Te3 2.628603 1_555
Cu5 Nb3 3.027492 1_655
Cu5 Nb3 3.030181 1_555
Cu6 Te12 2.616779 1_655
Cu6 Te7 2.619051 1_555
Cu6 Te8 2.627222 1_655
Cu6 Te0 2.628603 1_555
Cu6 Nb0 3.027492 1_655
Cu6 Nb0 3.030181 1_555
Cu7 Te13 2.616779 1_555
Cu7 Te6 2.619051 1_555
Cu7 Te9 2.627222 1_555
Cu7 Te1 2.628603 1_555
Cu7 Nb1 3.027492 1_555
Cu7 Nb1 3.030181 1_455
