# generated using pymatgen
data_KCrF3
_symmetry_space_group_name_H-M   'P 1'
_cell_length_a   5.91409105
_cell_length_b   5.91409105
_cell_length_c   5.91409105
_cell_angle_alpha   121.02082467
_cell_angle_beta   121.02082467
_cell_angle_gamma   88.24079061
_symmetry_Int_Tables_number   1
_chemical_formula_structural   KCrF3
_chemical_formula_sum   'K2 Cr2 F6'
_cell_volume   143.93737201
_cell_formula_units_Z   2
loop_
 _symmetry_equiv_pos_site_id
 _symmetry_equiv_pos_as_xyz
  1  'x, y, z'
loop_
 _atom_site_type_symbol
 _atom_site_label
 _atom_site_symmetry_multiplicity
 _atom_site_fract_x
 _atom_site_fract_y
 _atom_site_fract_z
 _atom_site_occupancy
  K  K0  1  0.25000000  0.75000000  0.50000000  1
  K  K1  1  0.75000000  0.25000000  0.50000000  1
  Cr  Cr0  1  0.50000000  0.50000000  -0.00000000  1
  Cr  Cr1  1  -0.00000000  -0.00000000  -0.00000000  1
  F  F0  1  0.23164595  0.23164595  -0.00000000  1
  F  F1  1  0.76835405  0.76835405  -0.00000000  1
  F  F2  1  0.26575695  0.75037119  0.01613014  1
  F  F3  1  0.73424305  0.24962881  0.98386986  1
  F  F4  1  0.24962881  0.26575695  0.51538576  1
  F  F5  1  0.75037119  0.73424305  0.48461424  1
loop_
_geom_bond_atom_site_label_1
_geom_bond_atom_site_label_2
_geom_bond_distance
_geom_bond_site_symmetry_2
Cr0 F4 1.996360 1_554
Cr0 F5 1.996360 1_555
Cr0 F2 1.996360 1_555
Cr0 F3 1.996360 1_554
Cr0 F0 2.278647 1_555
Cr0 F1 2.278647 1_555
Cr1 F1 1.966952 1_445
Cr1 F0 1.966952 1_555
Cr1 F4 2.122987 1_555
Cr1 F5 2.122987 1_444
Cr1 F2 2.122987 1_545
Cr1 F3 2.122987 1_454
F0 K1 2.915471 1_454
F0 K1 2.915471 1_555
F0 K0 2.915471 1_555
F0 K0 2.915471 1_544
F1 K0 2.915471 1_554
F1 K1 2.915471 1_554
F1 K0 2.915471 1_655
F1 K1 2.915471 1_565
F2 K0 2.911886 1_555
F2 K1 2.911898 1_565
F2 K1 3.004319 1_454
F2 K0 3.004331 1_554
F3 K1 2.911886 1_555
F3 K0 2.911898 1_545
F3 K0 3.004319 1_656
F3 K1 3.004331 1_556
F4 K0 2.911897 1_555
F4 K1 2.911897 1_455
F4 K1 3.004319 1_555
F4 K0 3.004319 1_545
F5 K1 2.911897 1_555
F5 K0 2.911897 1_655
F5 K0 3.004319 1_555
F5 K1 3.004319 1_565
