# generated using pymatgen
data_Sr2YCoCu2O7
_symmetry_space_group_name_H-M   'P 1'
_cell_length_a   12.20372934
_cell_length_b   12.20372934
_cell_length_c   12.20372934
_cell_angle_alpha   154.30781056
_cell_angle_beta   154.00753389
_cell_angle_gamma   36.87106171
_symmetry_Int_Tables_number   1
_chemical_formula_structural   Sr2YCoCu2O7
_chemical_formula_sum   'Sr4 Y2 Co2 Cu4 O14'
_cell_volume   344.84634110
_cell_formula_units_Z   2
loop_
 _symmetry_equiv_pos_site_id
 _symmetry_equiv_pos_as_xyz
  1  'x, y, z'
loop_
 _atom_site_type_symbol
 _atom_site_label
 _atom_site_symmetry_multiplicity
 _atom_site_fract_x
 _atom_site_fract_y
 _atom_site_fract_z
 _atom_site_occupancy
  Sr  Sr0  1  0.64056500  0.63912700  0.97479800  1
  Sr  Sr1  1  0.35943500  0.33423300  0.99856100  1
  Sr  Sr2  1  0.16432800  0.13912700  0.99856100  1
  Sr  Sr3  1  0.83567200  0.83423300  0.97479800  1
  Y  Y0  1  0.00000000  0.98666100  0.98666100  1
  Y  Y1  1  0.50000000  0.48666100  0.98666100  1
  Co  Co0  1  0.18554600  0.76980800  0.45535400  1
  Co  Co1  1  0.81445400  0.26980800  0.58426100  1
  Cu  Cu0  1  0.57310900  0.05672800  0.48577200  1
  Cu  Cu1  1  0.42689100  0.91266300  0.48361900  1
  Cu  Cu2  1  0.07095600  0.55672800  0.48361900  1
  Cu  Cu3  1  0.92904400  0.41266300  0.48577200  1
  O  O0  1  0.86237000  0.62900300  0.99137200  1
  O  O1  1  0.13763000  0.12900300  0.76663300  1
  O  O2  1  0.31741700  0.30194800  0.49530100  1
  O  O3  1  0.68258300  0.17788400  0.98453100  1
  O  O4  1  0.30664700  0.80194800  0.98453100  1
  O  O5  1  0.69335300  0.67788400  0.49530100  1
  O  O6  1  0.81011700  0.79675800  0.47769100  1
  O  O7  1  0.18988300  0.66757400  0.98664100  1
  O  O8  1  0.81906700  0.29675800  0.98664100  1
  O  O9  1  0.18093300  0.16757400  0.47769100  1
  O  O10  1  0.21135600  0.64109500  0.50022400  1
  O  O11  1  0.78864400  0.28886800  0.42974000  1
  O  O12  1  0.64087200  0.14109500  0.42974000  1
  O  O13  1  0.35912800  0.78886800  0.50022400  1
loop_
_geom_bond_atom_site_label_1
_geom_bond_atom_site_label_2
_geom_bond_distance
_geom_bond_site_symmetry_2
Co0 O13 1.820681 1_555
Co0 O10 1.820693 1_555
Co0 O0 1.931456 1_454
Co0 O1 1.966865 1_565
Co1 O11 1.820668 1_555
Co1 O12 1.820701 1_555
Co1 O1 1.931454 1_655
Co1 O0 1.966865 1_555
Cu0 O6 1.925595 1_545
Cu0 O8 1.941049 1_555
Cu0 O2 1.946907 1_555
Cu0 O4 1.949270 1_544
Cu0 O12 2.420578 1_555
Cu1 O7 1.925595 1_554
Cu1 O9 1.941049 1_565
Cu1 O3 1.946907 1_565
Cu1 O5 1.949270 1_555
Cu1 O13 2.420589 1_555
Cu2 O8 1.925595 1_454
Cu2 O6 1.941049 1_455
Cu2 O4 1.946907 1_555
Cu2 O2 1.949270 1_555
Cu2 O10 2.420578 1_555
Cu3 O9 1.925595 1_655
Cu3 O7 1.941049 1_655
Cu3 O5 1.946907 1_555
Cu3 O3 1.949270 1_554
Cu3 O11 2.420589 1_555
O0 Sr3 2.430814 1_555
O0 Sr0 2.430826 1_555
O1 Sr2 2.430814 1_555
O1 Sr1 2.430825 1_555
O2 Y1 2.378807 1_555
O2 Y0 2.432450 1_544
O2 Sr0 2.794276 1_555
O2 Sr2 2.838629 1_554
O3 Y1 2.378807 1_555
O3 Y0 2.432450 1_645
O3 Sr1 2.794267 1_555
O3 Sr3 2.838620 1_545
O4 Y0 2.378807 1_555
O4 Y1 2.432450 1_555
O4 Sr2 2.794278 1_565
O4 Sr0 2.838626 1_555
O5 Y0 2.378807 1_655
O5 Y1 2.432450 1_554
O5 Sr3 2.794267 1_555
O5 Sr1 2.838620 1_554
O6 Y1 2.414121 1_554
O6 Y0 2.468841 1_655
O6 Sr0 2.812318 1_554
O6 Sr2 2.860642 1_665
O7 Y1 2.414121 1_555
O7 Y0 2.468841 1_555
O7 Sr1 2.812309 1_555
O7 Sr3 2.860634 1_455
O8 Y0 2.414121 1_645
O8 Y1 2.468841 1_555
O8 Sr2 2.812315 1_655
O8 Sr0 2.860645 1_555
O9 Y0 2.414121 1_544
O9 Y1 2.468841 1_555
O9 Sr3 2.812309 1_444
O9 Sr1 2.860634 1_555
O10 Sr0 2.548206 1_555
O10 Sr2 2.655858 1_554
O10 Sr2 2.886438 1_565
O10 Sr0 3.054981 1_454
O11 Sr1 2.548216 1_554
O11 Sr3 2.655868 1_544
O11 Sr3 2.886437 1_555
O11 Sr1 3.054979 1_655
O12 Sr2 2.548216 1_554
O12 Sr0 2.655857 1_544
O12 Sr0 2.886438 1_555
O12 Sr2 3.054970 1_655
O13 Sr3 2.548216 1_555
O13 Sr1 2.655868 1_554
O13 Sr1 2.886437 1_565
O13 Sr3 3.054979 1_454
