# generated using pymatgen
data_CoH18C4N7O8
_symmetry_space_group_name_H-M   'P 1'
_cell_length_a   18.57689500
_cell_length_b   6.31748400
_cell_length_c   6.38107669
_cell_angle_alpha   88.11591712
_cell_angle_beta   90.00000000
_cell_angle_gamma   90.00000000
_symmetry_Int_Tables_number   1
_chemical_formula_structural   CoH18C4N7O8
_chemical_formula_sum   'Co2 H36 C8 N14 O16'
_cell_volume   748.47343816
_cell_formula_units_Z   2
loop_
 _symmetry_equiv_pos_site_id
 _symmetry_equiv_pos_as_xyz
  1  'x, y, z'
loop_
 _atom_site_type_symbol
 _atom_site_label
 _atom_site_symmetry_multiplicity
 _atom_site_fract_x
 _atom_site_fract_y
 _atom_site_fract_z
 _atom_site_occupancy
  Co  Co0  1  0.50000000  0.50000000  0.50000000  1
  Co  Co1  1  0.00000000  0.50000000  0.50000000  1
  H  H0  1  0.68464900  0.79521200  0.11633800  1
  H  H1  1  0.20183800  0.85306700  0.79122300  1
  H  H2  1  0.01413600  0.14955600  0.32966100  1
  H  H3  1  0.81394500  0.75481800  0.83818000  1
  H  H4  1  0.79814700  0.07055300  0.63670800  1
  H  H5  1  0.79816200  0.14693300  0.20877700  1
  H  H6  1  0.86374900  0.97185100  0.93872600  1
  H  H7  1  0.29816200  0.85306700  0.79122300  1
  H  H8  1  0.20185300  0.92944700  0.36329200  1
  H  H9  1  0.57057400  0.18146000  0.39456900  1
  H  H10  1  0.63625100  0.97185100  0.93872600  1
  H  H11  1  0.70183800  0.14693300  0.20877700  1
  H  H12  1  0.96069000  0.30418700  0.17963300  1
  H  H13  1  0.98586400  0.85044400  0.67033900  1
  H  H14  1  0.13625100  0.02814900  0.06127400  1
  H  H15  1  0.25000000  0.66802100  0.95378300  1
  H  H16  1  0.18464900  0.20478800  0.88366200  1
  H  H17  1  0.68605500  0.75481800  0.83818000  1
  H  H18  1  0.36374900  0.02814900  0.06127400  1
  H  H19  1  0.25000000  0.70871300  0.26537100  1
  H  H20  1  0.81535100  0.79521200  0.11633800  1
  H  H21  1  0.18605500  0.24518200  0.16182000  1
  H  H22  1  0.31535100  0.20478800  0.88366200  1
  H  H23  1  0.51413600  0.85044400  0.67033900  1
  H  H24  1  0.53931000  0.30418700  0.17963300  1
  H  H25  1  0.31394500  0.24518200  0.16182000  1
  H  H26  1  0.92942600  0.18146000  0.39456900  1
  H  H27  1  0.42942600  0.81854000  0.60543100  1
  H  H28  1  0.03931000  0.69581300  0.82036700  1
  H  H29  1  0.07057400  0.81854000  0.60543100  1
  H  H30  1  0.75000000  0.33197900  0.04621700  1
  H  H31  1  0.46069000  0.69581300  0.82036700  1
  H  H32  1  0.70185300  0.07055300  0.63670800  1
  H  H33  1  0.48586400  0.14955600  0.32966100  1
  H  H34  1  0.75000000  0.29128700  0.73462900  1
  H  H35  1  0.29814700  0.92944700  0.36329200  1
  C  C0  1  0.68425500  0.87258600  0.96015700  1
  C  C1  1  0.31574500  0.12741400  0.03984300  1
  C  C2  1  0.25000000  0.88052100  0.27896400  1
  C  C3  1  0.18425500  0.12741400  0.03984300  1
  C  C4  1  0.75000000  0.17066200  0.11256200  1
  C  C5  1  0.25000000  0.82933800  0.88743800  1
  C  C6  1  0.75000000  0.11947900  0.72103600  1
  C  C7  1  0.81574500  0.87258600  0.96015700  1
  N  N0  1  0.95654800  0.36498400  0.75126700  1
  N  N1  1  0.04345200  0.63501600  0.24873300  1
  N  N2  1  0.52690700  0.25801000  0.33118100  1
  N  N3  1  0.90407400  0.62494200  0.44095100  1
  N  N4  1  0.75000000  0.01141500  0.93820900  1
  N  N5  1  0.40407400  0.37505800  0.55904900  1
  N  N6  1  0.02690700  0.74199000  0.66881900  1
  N  N7  1  0.59592600  0.62494200  0.44095100  1
  N  N8  1  0.97309300  0.25801000  0.33118100  1
  N  N9  1  0.47309300  0.74199000  0.66881900  1
  N  N10  1  0.09592600  0.37505800  0.55904900  1
  N  N11  1  0.54345200  0.36498400  0.75126700  1
  N  N12  1  0.45654800  0.63501600  0.24873300  1
  N  N13  1  0.25000000  0.98858500  0.06179100  1
  O  O0  1  0.10550900  0.17964000  0.54643700  1
  O  O1  1  0.42835000  0.52258100  0.11306400  1
  O  O2  1  0.89449100  0.82036000  0.45356300  1
  O  O3  1  0.85265600  0.50695700  0.39731800  1
  O  O4  1  0.39449100  0.17964000  0.54643700  1
  O  O5  1  0.92835000  0.47741900  0.88693600  1
  O  O6  1  0.95589500  0.16792800  0.77466800  1
  O  O7  1  0.60550900  0.82036000  0.45356300  1
  O  O8  1  0.57165000  0.47741900  0.88693600  1
  O  O9  1  0.14734400  0.49304300  0.60268200  1
  O  O10  1  0.07165000  0.52258100  0.11306400  1
  O  O11  1  0.54410500  0.16792800  0.77466800  1
  O  O12  1  0.64734400  0.50695700  0.39731800  1
  O  O13  1  0.04410500  0.83207200  0.22533200  1
  O  O14  1  0.45589500  0.83207200  0.22533200  1
  O  O15  1  0.35265600  0.49304300  0.60268200  1
loop_
_geom_bond_atom_site_label_1
_geom_bond_atom_site_label_2
_geom_bond_distance
_geom_bond_site_symmetry_2
Co0 N9 1.963601 1_555
Co0 N2 1.963601 1_555
Co0 N11 1.964672 1_555
Co0 N12 1.964672 1_555
Co0 N7 1.980150 1_555
Co0 N5 1.980150 1_555
Co1 N6 1.963601 1_555
Co1 N8 1.963601 1_455
Co1 N0 1.964672 1_455
Co1 N1 1.964672 1_555
Co1 N10 1.980150 1_555
Co1 N3 1.980150 1_455
H2 N8 1.025331 1_455
H9 N2 1.021106 1_555
H12 N8 1.027037 1_555
H13 N6 1.025331 1_655
H23 N9 1.025331 1_555
H24 N2 1.027037 1_555
H26 N8 1.021106 1_555
H27 N9 1.021106 1_555
H28 N6 1.027037 1_555
H29 N6 1.021106 1_555
H31 N9 1.027037 1_555
H33 N2 1.025331 1_555
C0 H17 1.094782 1_555
C0 H0 1.095524 1_556
C0 H10 1.096161 1_555
C0 N4 1.507455 1_565
C1 H25 1.094782 1_555
C1 H22 1.095524 1_554
C1 H18 1.096161 1_555
C1 N13 1.507455 1_545
C2 H19 1.091694 1_555
C2 H35 1.093626 1_555
C2 H8 1.093626 1_555
C2 N13 1.524564 1_555
C3 H21 1.094782 1_555
C3 H16 1.095524 1_554
C3 H14 1.096161 1_555
C3 N13 1.507455 1_545
C4 H30 1.090623 1_555
C4 H5 1.092635 1_555
C4 H11 1.092635 1_555
C4 N4 1.524305 1_554
C5 H15 1.090623 1_555
C5 H7 1.092635 1_555
C5 H1 1.092635 1_555
C5 N13 1.524305 1_556
C6 H34 1.091694 1_555
C6 H4 1.093626 1_555
C6 H32 1.093626 1_555
C6 N4 1.524564 1_555
C7 H3 1.094782 1_555
C7 H20 1.095524 1_556
C7 H6 1.096161 1_555
C7 N4 1.507455 1_565
N0 O6 1.248997 1_555
N0 O5 1.252529 1_555
N1 O13 1.248997 1_555
N1 O10 1.252529 1_555
N3 O3 1.248648 1_555
N3 O2 1.252524 1_555
N5 O15 1.248648 1_555
N5 O4 1.252524 1_555
N7 O12 1.248648 1_555
N7 O7 1.252524 1_555
N10 O9 1.248648 1_555
N10 O0 1.252524 1_555
N11 O11 1.248997 1_555
N11 O8 1.252529 1_555
N12 O14 1.248997 1_555
N12 O1 1.252529 1_555
