# generated using pymatgen
data_Nd3NCl6
_symmetry_space_group_name_H-M   'P 1'
_cell_length_a   10.57950400
_cell_length_b   11.36032900
_cell_length_c   16.51251000
_cell_angle_alpha   90.00000000
_cell_angle_beta   90.00000000
_cell_angle_gamma   90.00000000
_symmetry_Int_Tables_number   1
_chemical_formula_structural   Nd3NCl6
_chemical_formula_sum   'Nd24 N8 Cl48'
_cell_volume   1984.58319554
_cell_formula_units_Z   8
loop_
 _symmetry_equiv_pos_site_id
 _symmetry_equiv_pos_as_xyz
  1  'x, y, z'
loop_
 _atom_site_type_symbol
 _atom_site_label
 _atom_site_symmetry_multiplicity
 _atom_site_fract_x
 _atom_site_fract_y
 _atom_site_fract_z
 _atom_site_occupancy
  Nd  Nd0  1  0.98775400  0.71264200  0.54814700  1
  Nd  Nd1  1  0.65564800  0.46243100  0.67691100  1
  Nd  Nd2  1  0.48775400  0.71264200  0.95185300  1
  Nd  Nd3  1  0.84435200  0.96243100  0.67691100  1
  Nd  Nd4  1  0.51224600  0.21264200  0.54814700  1
  Nd  Nd5  1  0.64024300  0.02069800  0.93880100  1
  Nd  Nd6  1  0.51224600  0.28735800  0.04814700  1
  Nd  Nd7  1  0.34435200  0.96243100  0.82308900  1
  Nd  Nd8  1  0.85975700  0.52069800  0.93880100  1
  Nd  Nd9  1  0.35975700  0.97930200  0.06119900  1
  Nd  Nd10  1  0.34435200  0.53756900  0.32308900  1
  Nd  Nd11  1  0.64024300  0.47930200  0.43880100  1
  Nd  Nd12  1  0.01224600  0.21264200  0.95185300  1
  Nd  Nd13  1  0.85975700  0.97930200  0.43880100  1
  Nd  Nd14  1  0.14024300  0.47930200  0.06119900  1
  Nd  Nd15  1  0.01224600  0.28735800  0.45185300  1
  Nd  Nd16  1  0.48775400  0.78735800  0.45185300  1
  Nd  Nd17  1  0.65564800  0.03756900  0.17691100  1
  Nd  Nd18  1  0.15564800  0.03756900  0.32308900  1
  Nd  Nd19  1  0.98775400  0.78735800  0.04814700  1
  Nd  Nd20  1  0.84435200  0.53756900  0.17691100  1
  Nd  Nd21  1  0.35975700  0.52069800  0.56119900  1
  Nd  Nd22  1  0.15564800  0.46243100  0.82308900  1
  Nd  Nd23  1  0.14024300  0.02069800  0.56119900  1
  N  N0  1  0.95149500  0.59257600  0.06048700  1
  N  N1  1  0.45149500  0.59257600  0.43951300  1
  N  N2  1  0.04850500  0.40742400  0.93951300  1
  N  N3  1  0.04850500  0.09257600  0.43951300  1
  N  N4  1  0.54850500  0.40742400  0.56048700  1
  N  N5  1  0.95149500  0.90742400  0.56048700  1
  N  N6  1  0.54850500  0.09257600  0.06048700  1
  N  N7  1  0.45149500  0.90742400  0.93951300  1
  Cl  Cl0  1  0.47137800  0.31608200  0.37490300  1
  Cl  Cl1  1  0.63118100  0.93372100  0.33985000  1
  Cl  Cl2  1  0.25152300  0.78555800  0.54425100  1
  Cl  Cl3  1  0.89600300  0.42342000  0.77230500  1
  Cl  Cl4  1  0.02862200  0.68391800  0.87490300  1
  Cl  Cl5  1  0.83403500  0.78359700  0.18558100  1
  Cl  Cl6  1  0.47137800  0.18391800  0.87490300  1
  Cl  Cl7  1  0.33403500  0.71640300  0.81441900  1
  Cl  Cl8  1  0.52862200  0.68391800  0.62509700  1
  Cl  Cl9  1  0.52862200  0.81608200  0.12509700  1
  Cl  Cl10  1  0.97137800  0.18391800  0.62509700  1
  Cl  Cl11  1  0.35602000  0.47081700  0.94573800  1
  Cl  Cl12  1  0.39600300  0.42342000  0.72769500  1
  Cl  Cl13  1  0.36881900  0.43372100  0.16015000  1
  Cl  Cl14  1  0.13118100  0.56627900  0.66015000  1
  Cl  Cl15  1  0.36881900  0.06627900  0.66015000  1
  Cl  Cl16  1  0.97137800  0.31608200  0.12509700  1
  Cl  Cl17  1  0.25152300  0.71444200  0.04425100  1
  Cl  Cl18  1  0.64398000  0.52918300  0.05426200  1
  Cl  Cl19  1  0.16596500  0.21640300  0.81441900  1
  Cl  Cl20  1  0.60399700  0.57658000  0.27230500  1
  Cl  Cl21  1  0.89600300  0.07658000  0.27230500  1
  Cl  Cl22  1  0.10399700  0.57658000  0.22769500  1
  Cl  Cl23  1  0.16596500  0.28359700  0.31441900  1
  Cl  Cl24  1  0.74847700  0.21444200  0.45574900  1
  Cl  Cl25  1  0.74847700  0.28555800  0.95574900  1
  Cl  Cl26  1  0.86881900  0.43372100  0.33985000  1
  Cl  Cl27  1  0.83403500  0.71640300  0.68558100  1
  Cl  Cl28  1  0.35602000  0.02918300  0.44573800  1
  Cl  Cl29  1  0.02862200  0.81608200  0.37490300  1
  Cl  Cl30  1  0.75152300  0.71444200  0.45574900  1
  Cl  Cl31  1  0.60399700  0.92342000  0.77230500  1
  Cl  Cl32  1  0.64398000  0.97081700  0.55426200  1
  Cl  Cl33  1  0.85602000  0.02918300  0.05426200  1
  Cl  Cl34  1  0.66596500  0.28359700  0.18558100  1
  Cl  Cl35  1  0.63118100  0.56627900  0.83985000  1
  Cl  Cl36  1  0.13118100  0.93372100  0.16015000  1
  Cl  Cl37  1  0.86881900  0.06627900  0.83985000  1
  Cl  Cl38  1  0.75152300  0.78555800  0.95574900  1
  Cl  Cl39  1  0.24847700  0.28555800  0.54425100  1
  Cl  Cl40  1  0.14398000  0.52918300  0.44573800  1
  Cl  Cl41  1  0.14398000  0.97081700  0.94573800  1
  Cl  Cl42  1  0.33403500  0.78359700  0.31441900  1
  Cl  Cl43  1  0.10399700  0.92342000  0.72769500  1
  Cl  Cl44  1  0.66596500  0.21640300  0.68558100  1
  Cl  Cl45  1  0.39600300  0.07658000  0.22769500  1
  Cl  Cl46  1  0.85602000  0.47081700  0.55426200  1
  Cl  Cl47  1  0.24847700  0.21444200  0.04425100  1
loop_
_geom_bond_atom_site_label_1
_geom_bond_atom_site_label_2
_geom_bond_distance
_geom_bond_site_symmetry_2
N0 Nd19 2.255017 1_555
N0 Nd20 2.317582 1_555
N0 Nd14 2.375609 1_655
N0 Nd8 2.376167 1_554
N1 Nd16 2.255017 1_555
N1 Nd10 2.317582 1_555
N1 Nd11 2.375609 1_555
N1 Nd21 2.376167 1_555
N2 Nd12 2.255017 1_555
N2 Nd22 2.317582 1_555
N2 Nd8 2.375609 1_455
N2 Nd14 2.376167 1_556
N3 Nd15 2.255017 1_555
N3 Nd18 2.317582 1_555
N3 Nd13 2.375609 1_445
N3 Nd23 2.376167 1_555
N4 Nd4 2.255017 1_555
N4 Nd1 2.317582 1_555
N4 Nd21 2.375609 1_555
N4 Nd11 2.376167 1_555
N5 Nd0 2.255017 1_555
N5 Nd3 2.317582 1_555
N5 Nd23 2.375609 1_665
N5 Nd13 2.376167 1_555
N6 Nd6 2.255017 1_555
N6 Nd17 2.317582 1_555
N6 Nd9 2.375609 1_545
N6 Nd5 2.376167 1_554
N7 Nd2 2.255017 1_555
N7 Nd7 2.317582 1_555
N7 Nd5 2.375609 1_565
N7 Nd9 2.376167 1_556
Cl0 Nd11 2.782636 1_555
Cl0 Nd10 2.978103 1_555
Cl0 Nd4 3.122722 1_555
Cl1 Nd16 2.913350 1_555
Cl1 Nd17 2.949198 1_565
Cl1 Nd13 2.964060 1_555
Cl2 Nd0 2.911605 1_455
Cl2 Nd16 2.928188 1_555
Cl2 Nd23 2.932575 1_565
Cl2 Nd21 3.231555 1_555
Cl3 Nd22 2.906054 1_655
Cl3 Nd8 2.987772 1_555
Cl3 Nd1 3.023849 1_555
Cl4 Nd8 2.782636 1_455
Cl4 Nd22 2.978103 1_555
Cl4 Nd19 3.122722 1_456
Cl5 Nd19 2.792252 1_555
Cl5 Nd20 2.800751 1_555
Cl5 Nd17 3.450595 1_565
Cl6 Nd5 2.782636 1_555
Cl6 Nd7 2.978103 1_545
Cl6 Nd6 3.122722 1_556
Cl7 Nd2 2.792252 1_555
Cl7 Nd7 2.800751 1_555
Cl7 Nd22 3.450595 1_555
Cl8 Nd21 2.782636 1_555
Cl8 Nd1 2.978103 1_555
Cl8 Nd16 3.122722 1_555
Cl9 Nd9 2.782636 1_555
Cl9 Nd17 2.978103 1_565
Cl9 Nd2 3.122722 1_554
Cl10 Nd23 2.782636 1_655
Cl10 Nd3 2.978103 1_545
Cl10 Nd15 3.122722 1_655
Cl11 Nd22 2.933324 1_555
Cl11 Nd14 2.975813 1_556
Cl11 Nd2 3.082160 1_555
Cl11 Nd6 3.151985 1_556
Cl12 Nd1 2.906054 1_555
Cl12 Nd21 2.987772 1_555
Cl12 Nd22 3.023849 1_555
Cl13 Nd6 2.913350 1_555
Cl13 Nd10 2.949198 1_555
Cl13 Nd14 2.964060 1_555
Cl14 Nd0 2.913350 1_455
Cl14 Nd22 2.949198 1_555
Cl14 Nd21 2.964060 1_555
Cl15 Nd4 2.913350 1_555
Cl15 Nd7 2.949198 1_545
Cl15 Nd23 2.964060 1_555
Cl16 Nd14 2.782636 1_655
Cl16 Nd20 2.978103 1_555
Cl16 Nd12 3.122722 1_654
Cl17 Nd19 2.911605 1_455
Cl17 Nd2 2.928188 1_554
Cl17 Nd14 2.932575 1_555
Cl17 Nd9 3.231555 1_555
Cl18 Nd20 2.933324 1_555
Cl18 Nd8 2.975813 1_554
Cl18 Nd6 3.082160 1_555
Cl18 Nd2 3.151985 1_554
Cl19 Nd12 2.792252 1_555
Cl19 Nd22 2.800751 1_555
Cl19 Nd7 3.450595 1_545
Cl20 Nd10 2.906054 1_555
Cl20 Nd11 2.987772 1_555
Cl20 Nd20 3.023849 1_555
Cl21 Nd18 2.906054 1_655
Cl21 Nd13 2.987772 1_545
Cl21 Nd17 3.023849 1_555
Cl22 Nd20 2.906054 1_455
Cl22 Nd14 2.987772 1_555
Cl22 Nd10 3.023849 1_555
Cl23 Nd15 2.792252 1_555
Cl23 Nd18 2.800751 1_555
Cl23 Nd10 3.450595 1_555
Cl24 Nd15 2.911605 1_655
Cl24 Nd4 2.928188 1_555
Cl24 Nd13 2.932575 1_545
Cl24 Nd11 3.231555 1_555
Cl25 Nd12 2.911605 1_655
Cl25 Nd6 2.928188 1_556
Cl25 Nd8 2.932575 1_555
Cl25 Nd5 3.231555 1_555
Cl26 Nd15 2.913350 1_655
Cl26 Nd20 2.949198 1_555
Cl26 Nd11 2.964060 1_555
Cl27 Nd0 2.792252 1_555
Cl27 Nd3 2.800751 1_555
Cl27 Nd1 3.450595 1_555
Cl28 Nd18 2.933324 1_555
Cl28 Nd23 2.975813 1_555
Cl28 Nd16 3.082160 1_545
Cl28 Nd4 3.151985 1_555
Cl29 Nd13 2.782636 1_455
Cl29 Nd18 2.978103 1_565
Cl29 Nd0 3.122722 1_455
Cl30 Nd16 2.911605 1_555
Cl30 Nd0 2.928188 1_555
Cl30 Nd11 2.932575 1_555
Cl30 Nd13 3.231555 1_555
Cl31 Nd7 2.906054 1_555
Cl31 Nd5 2.987772 1_565
Cl31 Nd3 3.023849 1_555
Cl32 Nd3 2.933324 1_555
Cl32 Nd13 2.975813 1_555
Cl32 Nd4 3.082160 1_565
Cl32 Nd16 3.151985 1_555
Cl33 Nd17 2.933324 1_555
Cl33 Nd5 2.975813 1_554
Cl33 Nd19 3.082160 1_545
Cl33 Nd12 3.151985 1_654
Cl34 Nd6 2.792252 1_555
Cl34 Nd17 2.800751 1_555
Cl34 Nd20 3.450595 1_555
Cl35 Nd2 2.913350 1_555
Cl35 Nd1 2.949198 1_555
Cl35 Nd8 2.964060 1_555
Cl36 Nd19 2.913350 1_455
Cl36 Nd18 2.949198 1_565
Cl36 Nd9 2.964060 1_555
Cl37 Nd12 2.913350 1_655
Cl37 Nd3 2.949198 1_545
Cl37 Nd5 2.964060 1_555
Cl38 Nd2 2.911605 1_555
Cl38 Nd19 2.928188 1_556
Cl38 Nd5 2.932575 1_565
Cl38 Nd8 3.231555 1_555
Cl39 Nd4 2.911605 1_555
Cl39 Nd15 2.928188 1_555
Cl39 Nd21 2.932575 1_555
Cl39 Nd23 3.231555 1_555
Cl40 Nd10 2.933324 1_555
Cl40 Nd21 2.975813 1_555
Cl40 Nd15 3.082160 1_555
Cl40 Nd0 3.151985 1_455
Cl41 Nd7 2.933324 1_555
Cl41 Nd9 2.975813 1_556
Cl41 Nd12 3.082160 1_565
Cl41 Nd19 3.151985 1_456
Cl42 Nd16 2.792252 1_555
Cl42 Nd10 2.800751 1_555
Cl42 Nd18 3.450595 1_565
Cl43 Nd3 2.906054 1_455
Cl43 Nd23 2.987772 1_565
Cl43 Nd7 3.023849 1_555
Cl44 Nd4 2.792252 1_555
Cl44 Nd1 2.800751 1_555
Cl44 Nd3 3.450595 1_545
Cl45 Nd17 2.906054 1_555
Cl45 Nd9 2.987772 1_545
Cl45 Nd18 3.023849 1_555
Cl46 Nd1 2.933324 1_555
Cl46 Nd11 2.975813 1_555
Cl46 Nd0 3.082160 1_555
Cl46 Nd15 3.151985 1_655
Cl47 Nd6 2.911605 1_555
Cl47 Nd12 2.928188 1_554
Cl47 Nd9 2.932575 1_545
Cl47 Nd14 3.231555 1_555
