# generated using pymatgen
data_MgAl2O4
_symmetry_space_group_name_H-M   'P 1'
_cell_length_a   18.94873871
_cell_length_b   18.94873871
_cell_length_c   18.94873812
_cell_angle_alpha   17.33170004
_cell_angle_beta   17.33170004
_cell_angle_gamma   17.33169960
_symmetry_Int_Tables_number   1
_chemical_formula_structural   MgAl2O4
_chemical_formula_sum   'Mg8 Al16 O32'
_cell_volume   526.89009372
_cell_formula_units_Z   8
loop_
 _symmetry_equiv_pos_site_id
 _symmetry_equiv_pos_as_xyz
  1  'x, y, z'
loop_
 _atom_site_type_symbol
 _atom_site_label
 _atom_site_symmetry_multiplicity
 _atom_site_fract_x
 _atom_site_fract_y
 _atom_site_fract_z
 _atom_site_occupancy
  Mg  Mg0  1  0.15518742  0.15518742  0.15518742  1
  Mg  Mg1  1  0.49911824  0.49911824  0.49911824  1
  Mg  Mg2  1  0.40585878  0.40585878  0.40585878  1
  Mg  Mg3  1  0.65636905  0.65636905  0.65636905  1
  Mg  Mg4  1  0.09465964  0.09465964  0.09465964  1
  Mg  Mg5  1  0.90626859  0.90626859  0.90626859  1
  Mg  Mg6  1  0.34388170  0.34388170  0.34388170  1
  Mg  Mg7  1  0.59347675  0.59347675  0.59347675  1
  Al  Al0  1  0.62206482  0.12999278  0.62206482  1
  Al  Al1  1  0.75009052  0.75009052  0.75009052  1
  Al  Al2  1  0.12999278  0.62206482  0.62206482  1
  Al  Al3  1  0.87513359  0.37521830  0.87513359  1
  Al  Al4  1  0.62206482  0.62206482  0.12999278  1
  Al  Al5  1  0.00019095  0.00019095  0.00019095  1
  Al  Al6  1  0.37521830  0.87513359  0.87513359  1
  Al  Al7  1  0.12486206  0.62570142  0.12486206  1
  Al  Al8  1  0.87513359  0.87513359  0.37521830  1
  Al  Al9  1  0.25043251  0.25043251  0.25043251  1
  Al  Al10  1  0.62570142  0.12486206  0.12486206  1
  Al  Al11  1  0.12486206  0.12486206  0.62570142  1
  Al  Al12  1  0.37300511  0.87955402  0.37300511  1
  Al  Al13  1  0.87955402  0.37300511  0.37300511  1
  Al  Al14  1  0.37300511  0.37300511  0.87955402  1
  Al  Al15  1  0.84430188  0.84430188  0.84430188  1
  O  O0  1  0.32226972  0.78378447  0.32226972  1
  O  O1  1  0.44005927  0.44005927  0.44005927  1
  O  O2  1  0.78378447  0.32226972  0.32226972  1
  O  O3  1  0.32226972  0.32226972  0.78378447  1
  O  O4  1  0.91801745  0.91801745  0.48034558  1
  O  O5  1  0.57963282  0.02450527  0.57963282  1
  O  O6  1  0.48034558  0.91801745  0.91801745  1
  O  O7  1  0.69088945  0.69088945  0.69088945  1
  O  O8  1  0.81205478  0.81205478  0.81205478  1
  O  O9  1  0.02450527  0.57963282  0.57963282  1
  O  O10  1  0.57963282  0.57963282  0.02450527  1
  O  O11  1  0.91801745  0.48034558  0.91801745  1
  O  O12  1  0.82956639  0.27490471  0.82956639  1
  O  O13  1  0.17029691  0.17029691  0.72538922  1
  O  O14  1  0.05940828  0.05940828  0.05940828  1
  O  O15  1  0.72538922  0.17029691  0.17029691  1
  O  O16  1  0.94088291  0.94088291  0.94088291  1
  O  O17  1  0.27490471  0.82956639  0.82956639  1
  O  O18  1  0.82956639  0.82956639  0.27490471  1
  O  O19  1  0.17029691  0.72538922  0.17029691  1
  O  O20  1  0.08089971  0.52337199  0.08089971  1
  O  O21  1  0.42082747  0.42082747  0.97429286  1
  O  O22  1  0.97429286  0.42082747  0.42082747  1
  O  O23  1  0.30906470  0.30906470  0.30906470  1
  O  O24  1  0.19073524  0.19073524  0.19073524  1
  O  O25  1  0.52337199  0.08089971  0.08089971  1
  O  O26  1  0.08089971  0.08089971  0.52337199  1
  O  O27  1  0.42082747  0.97429286  0.42082747  1
  O  O28  1  0.68604726  0.68604726  0.19663174  1
  O  O29  1  0.55812735  0.55812735  0.55812735  1
  O  O30  1  0.19663174  0.68604726  0.68604726  1
  O  O31  1  0.68604726  0.19663174  0.68604726  1
loop_
_geom_bond_atom_site_label_1
_geom_bond_atom_site_label_2
_geom_bond_distance
_geom_bond_site_symmetry_2
Mg0 O3 1.906377 1_554
Mg0 O2 1.906377 1_455
Mg0 O0 1.906377 1_545
Mg0 O24 1.989941 1_555
Mg1 O2 1.993515 1_555
Mg1 O0 1.993515 1_555
Mg1 O3 1.993515 1_555
Mg1 O30 2.092101 1_555
Mg1 O31 2.092101 1_555
Mg1 O28 2.092101 1_555
Mg2 O1 1.914518 1_555
Mg2 O10 1.935759 1_555
Mg2 O5 1.935759 1_555
Mg2 O9 1.935759 1_555
Mg3 O7 1.932426 1_555
Mg3 O18 1.942128 1_555
Mg3 O17 1.942128 1_555
Mg3 O12 1.942128 1_555
Mg4 O4 1.949936 1_445
Mg4 O6 1.949936 1_544
Mg4 O11 1.949936 1_454
Mg4 O14 1.973345 1_555
Mg5 O16 1.937684 1_555
Mg5 O26 1.942207 1_665
Mg5 O20 1.942207 1_656
Mg5 O25 1.942207 1_566
Mg6 O13 1.938910 1_555
Mg6 O15 1.938910 1_555
Mg6 O19 1.938910 1_555
Mg6 O23 1.949030 1_555
Mg7 O21 1.941252 1_555
Mg7 O27 1.941253 1_555
Mg7 O22 1.941253 1_555
Mg7 O29 1.978833 1_555
Al0 O3 1.871157 1_555
Al0 O2 1.871157 1_555
Al0 O4 1.905422 1_545
Al0 O6 1.905422 1_545
Al0 O1 1.909143 1_555
Al0 O8 2.035722 1_545
Al1 O11 1.898317 1_555
Al1 O6 1.898317 1_555
Al1 O4 1.898317 1_555
Al1 O5 1.921136 1_565
Al1 O9 1.921136 1_655
Al1 O10 1.921136 1_556
Al2 O3 1.871157 1_555
Al2 O0 1.871157 1_555
Al2 O4 1.905422 1_455
Al2 O11 1.905422 1_455
Al2 O1 1.909143 1_555
Al2 O8 2.035722 1_455
Al3 O10 1.906012 1_556
Al3 O9 1.906012 1_655
Al3 O13 1.919366 1_655
Al3 O15 1.919366 1_556
Al3 O14 1.920015 1_656
Al3 O7 1.920280 1_555
Al4 O2 1.871157 1_555
Al4 O0 1.871157 1_555
Al4 O11 1.905422 1_554
Al4 O6 1.905422 1_554
Al4 O1 1.909143 1_555
Al4 O8 2.035722 1_554
Al5 O19 1.908145 1_545
Al5 O15 1.908145 1_455
Al5 O13 1.908145 1_554
Al5 O12 1.922726 1_454
Al5 O17 1.922726 1_544
Al5 O18 1.922727 1_445
Al6 O10 1.906012 1_556
Al6 O5 1.906012 1_565
Al6 O13 1.919366 1_565
Al6 O19 1.919366 1_556
Al6 O14 1.920015 1_566
Al6 O7 1.920280 1_555
Al7 O18 1.908823 1_455
Al7 O17 1.908823 1_554
Al7 O23 1.912941 1_555
Al7 O16 1.917759 1_454
Al7 O21 1.922084 1_554
Al7 O22 1.922085 1_455
Al8 O5 1.906012 1_565
Al8 O9 1.906012 1_655
Al8 O15 1.919366 1_565
Al8 O19 1.919366 1_655
Al8 O14 1.920016 1_665
Al8 O7 1.920280 1_555
Al9 O27 1.903252 1_545
Al9 O22 1.903252 1_455
Al9 O21 1.903252 1_554
Al9 O20 1.910581 1_555
Al9 O25 1.910581 1_555
Al9 O26 1.910581 1_555
Al10 O18 1.908823 1_545
Al10 O12 1.908823 1_554
Al10 O23 1.912941 1_555
Al10 O16 1.917759 1_544
Al10 O21 1.922084 1_554
Al10 O27 1.922085 1_545
Al11 O12 1.908823 1_455
Al11 O17 1.908823 1_545
Al11 O23 1.912941 1_555
Al11 O16 1.917759 1_445
Al11 O22 1.922084 1_455
Al11 O27 1.922084 1_545
Al12 O29 1.902238 1_555
Al12 O24 1.907276 1_565
Al12 O26 1.907440 1_565
Al12 O25 1.907440 1_565
Al12 O28 1.955101 1_555
Al12 O30 1.955102 1_555
Al13 O29 1.902238 1_555
Al13 O24 1.907276 1_655
Al13 O26 1.907440 1_655
Al13 O20 1.907440 1_655
Al13 O28 1.955101 1_555
Al13 O31 1.955102 1_555
Al14 O29 1.902239 1_555
Al14 O24 1.907276 1_556
Al14 O25 1.907440 1_556
Al14 O20 1.907440 1_556
Al14 O31 1.955101 1_555
Al14 O30 1.955101 1_555
Al15 O8 1.805169 1_555
Al15 O28 1.811103 1_556
Al15 O30 1.811104 1_655
Al15 O31 1.811104 1_565
