# generated using pymatgen
data_YbAu3
_symmetry_space_group_name_H-M   'P 1'
_cell_length_a   5.07578000
_cell_length_b   5.33798600
_cell_length_c   5.83009000
_cell_angle_alpha   90.00000000
_cell_angle_beta   90.00000000
_cell_angle_gamma   90.00000000
_symmetry_Int_Tables_number   1
_chemical_formula_structural   YbAu3
_chemical_formula_sum   'Yb2 Au6'
_cell_volume   157.96303874
_cell_formula_units_Z   2
loop_
 _symmetry_equiv_pos_site_id
 _symmetry_equiv_pos_as_xyz
  1  'x, y, z'
loop_
 _atom_site_type_symbol
 _atom_site_label
 _atom_site_symmetry_multiplicity
 _atom_site_fract_x
 _atom_site_fract_y
 _atom_site_fract_z
 _atom_site_occupancy
  Yb  Yb0  1  0.00000000  0.34372500  0.00000000  1
  Yb  Yb1  1  0.50000000  0.65627500  0.50000000  1
  Au  Au0  1  0.50000000  0.16311100  0.75233300  1
  Au  Au1  1  0.00000000  0.83688900  0.25233300  1
  Au  Au2  1  0.00000000  0.83688900  0.74766700  1
  Au  Au3  1  0.50000000  0.16311100  0.24766700  1
  Au  Au4  1  0.00000000  0.32995200  0.50000000  1
  Au  Au5  1  0.50000000  0.67004800  0.00000000  1
loop_
_geom_bond_atom_site_label_1
_geom_bond_atom_site_label_2
_geom_bond_distance
_geom_bond_site_symmetry_2
Au0 Yb1 3.015672 1_555
Au0 Yb0 3.074949 1_656
Au0 Yb0 3.074949 1_556
Au0 Yb1 3.079586 1_545
Au1 Yb0 3.015672 1_555
Au1 Yb1 3.074949 1_455
Au1 Yb1 3.074949 1_555
Au1 Yb0 3.079586 1_565
Au2 Yb0 3.015672 1_556
Au2 Yb1 3.074949 1_455
Au2 Yb1 3.074949 1_555
Au2 Yb0 3.079586 1_566
Au3 Yb1 3.015672 1_555
Au3 Yb0 3.074949 1_555
Au3 Yb0 3.074949 1_655
Au3 Yb1 3.079586 1_545
Au4 Yb0 2.915972 1_555
Au4 Yb0 2.915972 1_556
Au4 Yb1 3.078170 1_555
Au4 Yb1 3.078170 1_455
Au5 Yb1 2.915972 1_555
Au5 Yb1 2.915972 1_554
Au5 Yb0 3.078170 1_655
Au5 Yb0 3.078170 1_555
