# generated using pymatgen
data_SrIn4
_symmetry_space_group_name_H-M   'P 1'
_cell_length_a   6.74672732
_cell_length_b   6.74672732
_cell_length_c   9.96732113
_cell_angle_alpha   67.27130226
_cell_angle_beta   67.27130226
_cell_angle_gamma   43.99372505
_symmetry_Int_Tables_number   1
_chemical_formula_structural   SrIn4
_chemical_formula_sum   'Sr2 In8'
_cell_volume   286.46478526
_cell_formula_units_Z   2
loop_
 _symmetry_equiv_pos_site_id
 _symmetry_equiv_pos_as_xyz
  1  'x, y, z'
loop_
 _atom_site_type_symbol
 _atom_site_label
 _atom_site_symmetry_multiplicity
 _atom_site_fract_x
 _atom_site_fract_y
 _atom_site_fract_z
 _atom_site_occupancy
  Sr  Sr0  1  0.84488715  0.84488715  0.71086618  1
  Sr  Sr1  1  0.15511285  0.15511285  0.28913382  1
  In  In0  1  0.16884536  0.16884536  0.63436317  1
  In  In1  1  0.56982740  0.56982740  0.09220618  1
  In  In2  1  0.83115464  0.83115464  0.36563683  1
  In  In3  1  0.43055712  0.43055712  0.41407710  1
  In  In4  1  0.43017260  0.43017260  0.90779382  1
  In  In5  1  0.84362768  0.84362768  0.06228013  1
  In  In6  1  0.56944288  0.56944288  0.58592290  1
  In  In7  1  0.15637232  0.15637232  0.93771987  1
loop_
_geom_bond_atom_site_label_1
_geom_bond_atom_site_label_2
_geom_bond_distance
_geom_bond_site_symmetry_2
In0 In6 2.943815 1_545
In0 In6 2.943815 1_455
In0 In7 2.962025 1_555
In0 In3 3.090394 1_555
In0 Sr1 3.516076 1_555
In0 Sr0 3.635651 1_545
In0 Sr0 3.635651 1_455
In0 Sr0 3.799127 1_445
In1 In7 2.922291 1_564
In1 In7 2.922291 1_654
In1 In3 2.944450 1_555
In1 In4 3.017954 1_554
In1 In5 3.312389 1_555
In1 Sr1 3.622516 1_655
In1 Sr1 3.622516 1_565
In1 Sr0 3.922843 1_554
In2 In3 2.943815 1_655
In2 In3 2.943815 1_565
In2 In5 2.962025 1_555
In2 In6 3.090394 1_555
In2 Sr0 3.516076 1_555
In2 Sr1 3.635651 1_565
In2 Sr1 3.635651 1_655
In2 Sr1 3.799127 1_665
In3 In6 2.904069 1_555
In3 Sr1 3.593597 1_655
In3 Sr1 3.593597 1_565
In3 Sr0 3.693660 1_455
In3 Sr0 3.693660 1_545
In4 In5 2.922291 1_456
In4 In5 2.922291 1_546
In4 In6 2.944450 1_555
In4 In7 3.312389 1_555
In4 Sr0 3.622516 1_455
In4 Sr0 3.622516 1_545
In4 Sr1 3.922843 1_556
In5 Sr0 3.496119 1_554
In5 Sr1 3.552008 1_655
In5 Sr1 3.552008 1_565
In6 Sr0 3.593597 1_545
In6 Sr0 3.593597 1_455
In6 Sr1 3.693660 1_655
In6 Sr1 3.693660 1_565
In7 Sr1 3.496119 1_556
In7 Sr0 3.552008 1_455
In7 Sr0 3.552008 1_545
