# generated using pymatgen
data_Sb3As2S14(IF8)3
_symmetry_space_group_name_H-M   'P 1'
_cell_length_a   8.47230500
_cell_length_b   9.54615041
_cell_length_c   13.46502806
_cell_angle_alpha   71.59999402
_cell_angle_beta   85.04888241
_cell_angle_gamma   85.32118785
_symmetry_Int_Tables_number   1
_chemical_formula_structural   Sb3As2S14(IF8)3
_chemical_formula_sum   'Sb3 As2 S14 I3 F24'
_cell_volume   1027.79072451
_cell_formula_units_Z   1
loop_
 _symmetry_equiv_pos_site_id
 _symmetry_equiv_pos_as_xyz
  1  'x, y, z'
loop_
 _atom_site_type_symbol
 _atom_site_label
 _atom_site_symmetry_multiplicity
 _atom_site_fract_x
 _atom_site_fract_y
 _atom_site_fract_z
 _atom_site_occupancy
  Sb  Sb0  1  0.46828500  0.21602500  0.66456600  1
  Sb  Sb1  1  0.53171500  0.78397500  0.33543400  1
  Sb  Sb2  1  0.00000000  0.00000000  0.00000000  1
  As  As0  1  0.51920500  0.23036600  0.00287800  1
  As  As1  1  0.48079500  0.76963400  0.99712200  1
  S  S0  1  0.91016300  0.93393800  0.69320400  1
  S  S1  1  0.74209800  0.62784800  0.70936500  1
  S  S2  1  0.25790200  0.37215200  0.29063500  1
  S  S3  1  0.96408200  0.40655700  0.13531700  1
  S  S4  1  0.03591800  0.59344300  0.86468300  1
  S  S5  1  0.15847500  0.17997800  0.39605000  1
  S  S6  1  0.88400600  0.45518600  0.69616200  1
  S  S7  1  0.87180900  0.16869700  0.24439000  1
  S  S8  1  0.08983700  0.06606200  0.30679600  1
  S  S9  1  0.11599400  0.54481400  0.30383800  1
  S  S10  1  0.84152500  0.82002200  0.60395000  1
  S  S11  1  0.12819100  0.83130300  0.75561000  1
  S  S12  1  0.89856600  0.54173600  0.21042600  1
  S  S13  1  0.10143400  0.45826400  0.78957400  1
  I  I0  1  0.28365900  0.76015100  0.62517100  1
  I  I1  1  0.00000000  0.50000000  0.50000000  1
  I  I2  1  0.71634100  0.23984900  0.37482900  1
  F  F0  1  0.44233000  0.25304600  0.51641400  1
  F  F1  1  0.43829400  0.42339500  0.64695000  1
  F  F2  1  0.24369700  0.19641700  0.69157400  1
  F  F3  1  0.50206900  0.00865300  0.68270500  1
  F  F4  1  0.65331700  0.35854700  0.92250000  1
  F  F5  1  0.30799200  0.76220900  0.37151600  1
  F  F6  1  0.56170600  0.57660500  0.35305000  1
  F  F7  1  0.49793100  0.99134700  0.31729500  1
  F  F8  1  0.50114400  0.82241300  0.18914400  1
  F  F9  1  0.34668300  0.64145300  0.07750000  1
  F  F10  1  0.65075800  0.64557000  0.02230600  1
  F  F11  1  0.96040800  0.10495000  0.85654900  1
  F  F12  1  0.55775400  0.26808800  0.11976900  1
  F  F13  1  0.34924200  0.35443000  0.97769400  1
  F  F14  1  0.22492800  0.00116600  0.96503900  1
  F  F15  1  0.03959200  0.89505000  0.14345100  1
  F  F16  1  0.44224600  0.73191200  0.88023100  1
  F  F17  1  0.49885600  0.17758700  0.81085600  1
  F  F18  1  0.00472000  0.18399600  0.03037800  1
  F  F19  1  0.55767000  0.74695400  0.48358600  1
  F  F20  1  0.69200800  0.23779100  0.62848400  1
  F  F21  1  0.75630300  0.80358300  0.30842600  1
  F  F22  1  0.77507200  0.99883400  0.03496100  1
  F  F23  1  0.99528000  0.81600400  0.96962200  1
loop_
_geom_bond_atom_site_label_1
_geom_bond_atom_site_label_2
_geom_bond_distance
_geom_bond_site_symmetry_2
As0 F4 1.771491 1_554
As0 F13 1.773049 1_554
As0 F12 1.783073 1_555
As1 F9 1.771491 1_556
As1 F10 1.773049 1_556
As1 F16 1.783073 1_555
S0 S10 2.003480 1_555
S0 S11 2.128643 1_655
S1 S6 2.004658 1_555
S1 S10 2.119354 1_555
S2 S9 2.004658 1_555
S2 S5 2.119354 1_555
S3 S7 2.431074 1_555
S5 S8 2.003480 1_555
S7 S8 2.128643 1_655
S11 S4 2.431074 1_555
S12 S3 1.899025 1_555
S12 S9 2.325598 1_655
S13 S4 1.899025 1_555
S13 S6 2.325598 1_455
I0 S11 2.342851 1_555
I1 S6 2.651902 1_455
I1 S9 2.651902 1_555
I2 S7 2.342851 1_555
F0 Sb0 1.941838 1_555
F1 Sb0 1.916115 1_555
F2 Sb0 1.919255 1_555
F3 Sb0 1.916979 1_555
F5 Sb1 1.927047 1_555
F6 Sb1 1.916115 1_555
F7 Sb1 1.916979 1_555
F8 Sb1 1.923044 1_555
F11 Sb2 1.919001 1_656
F14 Sb2 1.923166 1_556
F15 Sb2 1.919001 1_565
F17 Sb0 1.923044 1_555
F18 Sb2 1.929219 1_555
F19 Sb1 1.941838 1_555
F20 Sb0 1.927047 1_555
F21 Sb1 1.919255 1_555
F22 Sb2 1.923166 1_665
F23 Sb2 1.929219 1_666
