# generated using pymatgen
data_Yb3CeS6
_symmetry_space_group_name_H-M   'P 1'
_cell_length_a   4.17109400
_cell_length_b   11.25795000
_cell_length_c   11.41132699
_cell_angle_alpha   72.61054034
_cell_angle_beta   90.00000000
_cell_angle_gamma   90.00000000
_symmetry_Int_Tables_number   1
_chemical_formula_structural   Yb3CeS6
_chemical_formula_sum   'Yb6 Ce2 S12'
_cell_volume   511.36174964
_cell_formula_units_Z   2
loop_
 _symmetry_equiv_pos_site_id
 _symmetry_equiv_pos_as_xyz
  1  'x, y, z'
loop_
 _atom_site_type_symbol
 _atom_site_label
 _atom_site_symmetry_multiplicity
 _atom_site_fract_x
 _atom_site_fract_y
 _atom_site_fract_z
 _atom_site_occupancy
  Yb  Yb0  1  0.25000000  0.65347800  0.95299000  1
  Yb  Yb1  1  0.25000000  0.42662200  0.67529000  1
  Yb  Yb2  1  0.75000000  0.57337800  0.32471000  1
  Yb  Yb3  1  0.25000000  0.95293600  0.15116300  1
  Yb  Yb4  1  0.75000000  0.04706400  0.84883700  1
  Yb  Yb5  1  0.75000000  0.34652200  0.04701000  1
  Ce  Ce0  1  0.75000000  0.17458300  0.47189200  1
  Ce  Ce1  1  0.25000000  0.82541700  0.52810800  1
  S  S0  1  0.25000000  0.25216600  0.28016700  1
  S  S1  1  0.75000000  0.96015000  0.39394200  1
  S  S2  1  0.75000000  0.74783400  0.71983300  1
  S  S3  1  0.25000000  0.43301400  0.89753600  1
  S  S4  1  0.75000000  0.63362100  0.60509500  1
  S  S5  1  0.75000000  0.10194800  0.06716400  1
  S  S6  1  0.75000000  0.56698600  0.10246400  1
  S  S7  1  0.25000000  0.36637900  0.39490500  1
  S  S8  1  0.25000000  0.89805200  0.93283600  1
  S  S9  1  0.25000000  0.03985000  0.60605800  1
  S  S10  1  0.25000000  0.72177000  0.33990800  1
  S  S11  1  0.75000000  0.27823000  0.66009200  1
loop_
_geom_bond_atom_site_label_1
_geom_bond_atom_site_label_2
_geom_bond_distance
_geom_bond_site_symmetry_2
Ce0 S11 2.733434 1_555
Ce0 S9 2.757925 1_655
Ce0 S9 2.757925 1_555
Ce0 S1 2.811145 1_545
Ce0 S7 2.941042 1_655
Ce0 S7 2.941042 1_555
Ce0 S0 2.959189 1_655
Ce0 S0 2.959189 1_555
Ce1 S10 2.733434 1_555
Ce1 S1 2.757925 1_455
Ce1 S1 2.757925 1_555
Ce1 S9 2.811145 1_565
Ce1 S4 2.941042 1_455
Ce1 S4 2.941042 1_555
Ce1 S2 2.959189 1_555
Ce1 S2 2.959189 1_455
S0 S7 2.091383 1_555
S0 Yb5 3.296589 1_455
S0 Yb5 3.296589 1_555
S1 Yb3 3.487962 1_555
S1 Yb3 3.487962 1_655
S2 S4 2.091383 1_555
S2 Yb0 3.296589 1_555
S2 Yb0 3.296589 1_655
S3 Yb1 2.558550 1_555
S3 Yb5 2.685943 1_456
S3 Yb5 2.685943 1_556
S3 Yb0 2.738508 1_555
S4 Yb1 3.050583 1_555
S4 Yb1 3.050583 1_655
S4 Yb2 3.463272 1_555
S5 Yb3 2.668592 1_645
S5 Yb3 2.668592 1_545
S5 Yb5 2.693624 1_555
S5 Yb4 2.740255 1_554
S6 Yb2 2.558550 1_555
S6 Yb0 2.685943 1_554
S6 Yb0 2.685943 1_654
S6 Yb5 2.738508 1_555
S7 Yb2 3.050583 1_455
S7 Yb2 3.050583 1_555
S7 Yb1 3.463272 1_555
S8 Yb4 2.668592 1_565
S8 Yb4 2.668592 1_465
S8 Yb0 2.693624 1_555
S8 Yb3 2.740255 1_556
S9 Yb4 3.487962 1_455
S9 Yb4 3.487962 1_555
S10 Yb2 2.709914 1_555
S10 Yb2 2.709914 1_455
S10 Yb3 2.839249 1_555
S11 Yb1 2.709914 1_655
S11 Yb1 2.709914 1_555
S11 Yb4 2.839249 1_555
