# generated using pymatgen
data_H16C3NF7
_symmetry_space_group_name_H-M   'P 1'
_cell_length_a   10.05749374
_cell_length_b   10.05749374
_cell_length_c   6.05895700
_cell_angle_alpha   90.00000000
_cell_angle_beta   90.00000000
_cell_angle_gamma   119.99999828
_symmetry_Int_Tables_number   1
_chemical_formula_structural   H16C3NF7
_chemical_formula_sum   'H32 C6 N2 F14'
_cell_volume   530.77205740
_cell_formula_units_Z   2
loop_
 _symmetry_equiv_pos_site_id
 _symmetry_equiv_pos_as_xyz
  1  'x, y, z'
loop_
 _atom_site_type_symbol
 _atom_site_label
 _atom_site_symmetry_multiplicity
 _atom_site_fract_x
 _atom_site_fract_y
 _atom_site_fract_z
 _atom_site_occupancy
  H  H0  1  0.85567800  0.97959000  0.97034500  1
  H  H1  1  0.81146000  0.61627600  0.42843300  1
  H  H2  1  0.19518400  0.81146000  0.92843300  1
  H  H3  1  0.80481600  0.18854000  0.42843300  1
  H  H4  1  0.90699100  0.48189700  0.00957100  1
  H  H5  1  0.38372400  0.19518400  0.42843300  1
  H  H6  1  0.33333300  0.66666700  0.68381000  1
  H  H7  1  0.14432200  0.02041000  0.47034500  1
  H  H8  1  0.97959000  0.12391300  0.47034500  1
  H  H9  1  0.51810300  0.42509400  0.00957100  1
  H  H10  1  0.15443200  0.71903200  0.49490500  1
  H  H11  1  0.28096800  0.43540000  0.49490500  1
  H  H12  1  0.82667500  0.37792500  0.75791000  1
  H  H13  1  0.57490600  0.09300900  0.00957100  1
  H  H14  1  0.48189700  0.57490600  0.50957100  1
  H  H15  1  0.02041000  0.87608700  0.97034500  1
  H  H16  1  0.42509400  0.90699100  0.50957100  1
  H  H17  1  0.71903200  0.56460000  0.99490500  1
  H  H18  1  0.18854000  0.38372400  0.92843300  1
  H  H19  1  0.66666700  0.33333300  0.18381000  1
  H  H20  1  0.17332500  0.62207500  0.25791000  1
  H  H21  1  0.62207500  0.44875000  0.75791000  1
  H  H22  1  0.61627600  0.80481600  0.92843300  1
  H  H23  1  0.37792500  0.55125000  0.25791000  1
  H  H24  1  0.43540000  0.15443200  0.99490500  1
  H  H25  1  0.84556800  0.28096800  0.99490500  1
  H  H26  1  0.55125000  0.17332500  0.75791000  1
  H  H27  1  0.12391300  0.14432200  0.97034500  1
  H  H28  1  0.87608700  0.85567800  0.47034500  1
  H  H29  1  0.56460000  0.84556800  0.49490500  1
  H  H30  1  0.44875000  0.82667500  0.25791000  1
  H  H31  1  0.09300900  0.51810300  0.50957100  1
  C  C0  1  0.62862500  0.45209000  0.93838900  1
  C  C1  1  0.54791000  0.17653500  0.93838900  1
  C  C2  1  0.82346500  0.37137500  0.93838900  1
  C  C3  1  0.45209000  0.82346500  0.43838900  1
  C  C4  1  0.17653500  0.62862500  0.43838900  1
  C  C5  1  0.37137500  0.54791000  0.43838900  1
  N  N0  1  0.33333300  0.66666700  0.51304900  1
  N  N1  1  0.66666700  0.33333300  0.01304900  1
  F  F0  1  0.78233800  0.74925600  0.45808600  1
  F  F1  1  0.00000000  0.00000000  0.48811600  1
  F  F2  1  0.00000000  0.00000000  0.98811600  1
  F  F3  1  0.52865500  0.70225200  0.90676900  1
  F  F4  1  0.29774800  0.82640200  0.90676900  1
  F  F5  1  0.96691800  0.21766200  0.45808600  1
  F  F6  1  0.70225200  0.17359800  0.40676900  1
  F  F7  1  0.74925600  0.96691800  0.95808600  1
  F  F8  1  0.21766200  0.25074400  0.95808600  1
  F  F9  1  0.03308200  0.78233800  0.95808600  1
  F  F10  1  0.82640200  0.52865500  0.40676900  1
  F  F11  1  0.47134500  0.29774800  0.40676900  1
  F  F12  1  0.17359800  0.47134500  0.90676900  1
  F  F13  1  0.25074400  0.03308200  0.45808600  1
loop_
_geom_bond_atom_site_label_1
_geom_bond_atom_site_label_2
_geom_bond_distance
_geom_bond_site_symmetry_2
H6 N0 1.034634 1_555
H19 N1 1.034634 1_555
C0 H9 1.092484 1_556
C0 H17 1.093423 1_555
C0 H21 1.095002 1_555
C0 N1 1.494855 1_556
C1 H13 1.092484 1_556
C1 H24 1.093423 1_555
C1 H26 1.095002 1_555
C1 N1 1.494848 1_556
C2 H4 1.092484 1_556
C2 H25 1.093423 1_555
C2 H12 1.095002 1_555
C2 N1 1.494845 1_556
C3 H16 1.092484 1_555
C3 H29 1.093423 1_555
C3 H30 1.095002 1_555
C3 N0 1.494848 1_555
C4 H31 1.092484 1_555
C4 H10 1.093423 1_555
C4 H20 1.095002 1_555
C4 N0 1.494845 1_555
C5 H14 1.092484 1_555
C5 H11 1.093423 1_555
C5 H23 1.095002 1_555
C5 N0 1.494855 1_555
F0 H28 1.015364 1_555
F0 H1 1.516100 1_555
F1 H7 1.364799 1_555
F1 H28 1.364803 1_445
F1 H8 1.364809 1_455
F2 H0 1.364799 1_445
F2 H27 1.364803 1_555
F2 H15 1.364809 1_545
F3 H22 0.974092 1_555
F4 H2 0.974096 1_555
F5 H8 1.015358 1_555
F5 H3 1.516100 1_555
F6 H3 0.974096 1_555
F7 H0 1.015368 1_555
F7 H22 1.516100 1_555
F8 H27 1.015364 1_555
F8 H18 1.516100 1_555
F9 H15 1.015358 1_555
F9 H2 1.516100 1_555
F10 H1 0.974086 1_555
F11 H5 0.974092 1_555
F12 H18 0.974086 1_555
F13 H7 1.015368 1_555
F13 H5 1.516100 1_555
