# generated using pymatgen
data_K3Na(MoO4)2
_symmetry_space_group_name_H-M   'P 1'
_cell_length_a   6.15585675
_cell_length_b   6.15585675
_cell_length_c   15.51974102
_cell_angle_alpha   89.94647205
_cell_angle_beta   89.94647205
_cell_angle_gamma   59.90303109
_symmetry_Int_Tables_number   1
_chemical_formula_structural   K3Na(MoO4)2
_chemical_formula_sum   'K6 Na2 Mo4 O16'
_cell_volume   508.82292449
_cell_formula_units_Z   2
loop_
 _symmetry_equiv_pos_site_id
 _symmetry_equiv_pos_as_xyz
  1  'x, y, z'
loop_
 _atom_site_type_symbol
 _atom_site_label
 _atom_site_symmetry_multiplicity
 _atom_site_fract_x
 _atom_site_fract_y
 _atom_site_fract_z
 _atom_site_occupancy
  K  K0  1  0.69143300  0.65001600  0.08461700  1
  K  K1  1  0.30856700  0.34998400  0.91538300  1
  K  K2  1  0.05543800  0.94456200  0.25000000  1
  K  K3  1  0.94456200  0.05543800  0.75000000  1
  K  K4  1  0.34998400  0.30856700  0.41538300  1
  K  K5  1  0.65001600  0.69143300  0.58461700  1
  Na  Na0  1  0.00000000  0.00000000  0.00000000  1
  Na  Na1  1  0.00000000  0.00000000  0.50000000  1
  Mo  Mo0  1  0.64252900  0.68246000  0.86099800  1
  Mo  Mo1  1  0.35747100  0.31754000  0.13900200  1
  Mo  Mo2  1  0.31754000  0.35747100  0.63900200  1
  Mo  Mo3  1  0.68246000  0.64252900  0.36099800  1
  O  O0  1  0.37948900  0.27731300  0.75053600  1
  O  O1  1  0.22357800  0.14414600  0.09106400  1
  O  O2  1  0.69141300  0.15080700  0.12039700  1
  O  O3  1  0.38682800  0.77606500  0.41774200  1
  O  O4  1  0.77642200  0.85585400  0.90893600  1
  O  O5  1  0.84919300  0.30858700  0.37960300  1
  O  O6  1  0.85585400  0.77642200  0.40893600  1
  O  O7  1  0.15080700  0.69141300  0.62039700  1
  O  O8  1  0.61317200  0.22393500  0.58225800  1
  O  O9  1  0.62051100  0.72268700  0.24946400  1
  O  O10  1  0.30858700  0.84919300  0.87960300  1
  O  O11  1  0.22393500  0.61317200  0.08225800  1
  O  O12  1  0.72268700  0.62051100  0.74946400  1
  O  O13  1  0.27731300  0.37948900  0.25053600  1
  O  O14  1  0.77606500  0.38682800  0.91774200  1
  O  O15  1  0.14414600  0.22357800  0.59106400  1
loop_
_geom_bond_atom_site_label_1
_geom_bond_atom_site_label_2
_geom_bond_distance
_geom_bond_site_symmetry_2
K0 O9 2.596194 1_555
K0 O14 2.960141 1_554
K0 O1 2.961595 1_565
K0 O11 2.998274 1_555
K0 O2 3.122377 1_555
K0 O2 3.132860 1_565
K0 O4 3.157366 1_554
K0 O11 3.170528 1_655
K0 O1 3.194900 1_655
K1 O0 2.596194 1_555
K1 O11 2.960141 1_556
K1 O4 2.961595 1_545
K1 O14 2.998274 1_555
K1 O10 3.122377 1_555
K1 O10 3.132860 1_545
K1 O1 3.157366 1_556
K1 O14 3.170528 1_455
K1 O4 3.194900 1_455
K2 O2 2.798123 1_465
K2 O5 2.798123 1_465
K2 O13 3.033245 1_555
K2 O9 3.033245 1_555
K2 O3 3.146010 1_555
K2 O11 3.146010 1_555
K2 O1 3.151207 1_565
K2 O6 3.151207 1_455
K3 O10 2.798123 1_645
K3 O7 2.798123 1_645
K3 O0 3.033245 1_555
K3 O12 3.033245 1_555
K3 O8 3.146010 1_555
K3 O14 3.146010 1_555
K3 O4 3.151207 1_545
K3 O15 3.151207 1_655
K4 O13 2.596194 1_555
K4 O8 2.960141 1_555
K4 O6 2.961595 1_455
K4 O3 2.998274 1_555
K4 O5 3.122377 1_555
K4 O5 3.132860 1_455
K4 O15 3.157366 1_555
K4 O3 3.170528 1_545
K4 O6 3.194900 1_545
K5 O12 2.596194 1_555
K5 O3 2.960141 1_555
K5 O15 2.961595 1_655
K5 O8 2.998274 1_555
K5 O7 3.122377 1_555
K5 O7 3.132860 1_655
K5 O6 3.157366 1_555
K5 O8 3.170528 1_565
K5 O15 3.194900 1_565
Na0 O11 2.430195 1_545
Na0 O14 2.430195 1_454
Na0 O1 2.431013 1_555
Na0 O4 2.431013 1_444
Na0 O10 2.487914 1_544
Na0 O2 2.487914 1_455
Na1 O3 2.430195 1_545
Na1 O8 2.430195 1_455
Na1 O6 2.431013 1_445
Na1 O15 2.431013 1_555
Na1 O7 2.487914 1_545
Na1 O5 2.487914 1_455
Mo0 O12 1.787767 1_555
Mo0 O10 1.801683 1_555
Mo0 O4 1.804760 1_555
Mo0 O14 1.805877 1_555
Mo1 O13 1.787767 1_555
Mo1 O2 1.801683 1_555
Mo1 O1 1.804760 1_555
Mo1 O11 1.805877 1_555
Mo2 O0 1.787767 1_555
Mo2 O7 1.801683 1_555
Mo2 O15 1.804760 1_555
Mo2 O8 1.805877 1_555
Mo3 O9 1.787767 1_555
Mo3 O5 1.801683 1_555
Mo3 O6 1.804760 1_555
Mo3 O3 1.805877 1_555
