# generated using pymatgen
data_SiB3
_symmetry_space_group_name_H-M   'P 1'
_cell_length_a   6.20633755
_cell_length_b   8.15371629
_cell_length_c   8.15371661
_cell_angle_alpha   61.69076513
_cell_angle_beta   67.63018849
_cell_angle_gamma   67.63017527
_symmetry_Int_Tables_number   1
_chemical_formula_structural   SiB3
_chemical_formula_sum   'Si8 B24'
_cell_volume   325.62657184
_cell_formula_units_Z   8
loop_
 _symmetry_equiv_pos_site_id
 _symmetry_equiv_pos_as_xyz
  1  'x, y, z'
loop_
 _atom_site_type_symbol
 _atom_site_label
 _atom_site_symmetry_multiplicity
 _atom_site_fract_x
 _atom_site_fract_y
 _atom_site_fract_z
 _atom_site_occupancy
  Si  Si0  1  0.31392497  0.48163702  0.01836298  1
  Si  Si1  1  0.68607503  0.98163702  0.51836298  1
  Si  Si2  1  0.84794541  0.15457319  0.15457319  1
  Si  Si3  1  0.31392497  0.01836298  0.48163702  1
  Si  Si4  1  0.68607503  0.51836298  0.98163702  1
  Si  Si5  1  0.65709179  0.34542681  0.34542681  1
  Si  Si6  1  0.34290821  0.65457319  0.65457319  1
  Si  Si7  1  0.15205459  0.84542681  0.84542681  1
  B  B0  1  0.14928890  0.57449046  0.57449046  1
  B  B1  1  0.11532019  0.49814714  0.27648756  1
  B  B2  1  0.61004412  0.99814714  0.77648756  1
  B  B3  1  0.88467981  0.50185286  0.72351244  1
  B  B4  1  0.85071110  0.42550954  0.42550954  1
  B  B5  1  0.88467981  0.72351244  0.50185286  1
  B  B6  1  0.15359836  0.67658330  0.32660438  1
  B  B7  1  0.65678603  0.82341670  0.17339562  1
  B  B8  1  0.34321397  0.17658330  0.82660438  1
  B  B9  1  0.20173118  0.07449046  0.07449046  1
  B  B10  1  0.61004412  0.77648756  0.99814714  1
  B  B11  1  0.84640164  0.67339562  0.32341670  1
  B  B12  1  0.84640164  0.32341670  0.67339562  1
  B  B13  1  0.11532019  0.27648756  0.49814714  1
  B  B14  1  0.34059632  0.93070296  0.93070296  1
  B  B15  1  0.70200323  0.56929704  0.56929704  1
  B  B16  1  0.65678603  0.17339562  0.82341670  1
  B  B17  1  0.38995588  0.00185286  0.22351244  1
  B  B18  1  0.15359836  0.32660438  0.67658330  1
  B  B19  1  0.65940368  0.06929704  0.06929704  1
  B  B20  1  0.29799677  0.43070296  0.43070296  1
  B  B21  1  0.38995588  0.22351244  0.00185286  1
  B  B22  1  0.79826882  0.92550954  0.92550954  1
  B  B23  1  0.34321397  0.82660438  0.17658330  1
loop_
_geom_bond_atom_site_label_1
_geom_bond_atom_site_label_2
_geom_bond_distance
_geom_bond_site_symmetry_2
Si0 Si4 2.330012 1_554
Si0 Si7 2.576650 1_554
Si0 Si6 2.576650 1_554
Si1 Si3 2.330012 1_565
Si1 Si5 2.576650 1_565
Si1 Si2 2.576650 1_565
Si2 Si4 2.576650 1_554
Si3 Si6 2.576650 1_545
Si3 Si7 2.576650 1_545
Si4 Si5 2.576650 1_556
B0 B5 1.750172 1_455
B0 B3 1.750172 1_455
B0 B18 1.777326 1_555
B0 B6 1.777326 1_555
B0 B20 1.804801 1_555
B0 Si6 1.973740 1_555
B1 B4 1.750172 1_455
B1 B20 1.767385 1_555
B1 B11 1.786338 1_455
B1 B6 1.800302 1_555
B1 B13 1.853339 1_555
B1 Si0 2.033440 1_555
B2 B22 1.750172 1_555
B2 B8 1.800298 1_565
B2 Si1 2.033438 1_555
B3 B5 1.853339 1_555
B3 Si4 2.033440 1_555
B4 Si5 1.973740 1_555
B5 B6 1.786338 1_655
B5 Si1 2.033439 1_555
B8 B9 1.777325 1_556
B9 Si2 1.973746 1_455
B10 B22 1.750172 1_555
B10 B14 1.767385 1_555
B10 B7 1.786341 1_556
B10 B23 1.800299 1_556
B10 B2 1.853339 1_555
B10 Si4 2.033438 1_555
B11 B7 1.719974 1_555
B11 B15 1.772116 1_555
B11 B4 1.777326 1_555
B11 B5 1.800302 1_555
B11 B6 1.926766 1_655
B12 B16 1.719974 1_555
B12 B15 1.772115 1_555
B12 B4 1.777326 1_555
B12 B13 1.786338 1_655
B12 B3 1.800302 1_555
B12 B18 1.926766 1_655
B13 B4 1.750172 1_455
B13 B20 1.767385 1_555
B13 B18 1.800302 1_555
B13 Si3 2.033439 1_555
B14 B2 1.767385 1_555
B14 B8 1.772117 1_565
B14 B23 1.772117 1_556
B14 B9 1.804801 1_566
B14 Si7 2.008321 1_555
B15 B3 1.767385 1_555
B15 B5 1.767385 1_555
B15 B4 1.804801 1_555
B15 Si6 2.008327 1_555
B16 B19 1.772117 1_556
B16 B22 1.777324 1_545
B16 B2 1.786341 1_545
B16 B21 1.800299 1_556
B16 B8 1.926766 1_555
B17 B9 1.750172 1_555
B17 B19 1.767385 1_555
B17 B23 1.786341 1_545
B17 B7 1.800298 1_545
B17 B21 1.853339 1_555
B17 Si3 2.033438 1_555
B18 B8 1.719974 1_555
B18 B20 1.772116 1_555
B18 B3 1.786338 1_455
B19 B21 1.767385 1_555
B19 B7 1.772117 1_545
B19 B22 1.804801 1_544
B19 Si2 2.008321 1_555
B20 B6 1.772115 1_555
B20 Si5 2.008327 1_555
B21 B9 1.750172 1_555
B21 B8 1.786341 1_554
B21 Si0 2.033438 1_555
B22 B7 1.777325 1_556
B22 Si7 1.973746 1_655
B23 B6 1.719974 1_555
B23 B9 1.777324 1_565
B23 B7 1.926766 1_555
