# generated using pymatgen
data_Ba6Na16N
_symmetry_space_group_name_H-M   'P 1'
_cell_length_a   10.74624250
_cell_length_b   10.74624250
_cell_length_c   10.74624250
_cell_angle_alpha   109.47122063
_cell_angle_beta   109.47122063
_cell_angle_gamma   109.47122063
_symmetry_Int_Tables_number   1
_chemical_formula_structural   Ba6Na16N
_chemical_formula_sum   'Ba6 Na16 N1'
_cell_volume   955.31812845
_cell_formula_units_Z   1
loop_
 _symmetry_equiv_pos_site_id
 _symmetry_equiv_pos_as_xyz
  1  'x, y, z'
loop_
 _atom_site_type_symbol
 _atom_site_label
 _atom_site_symmetry_multiplicity
 _atom_site_fract_x
 _atom_site_fract_y
 _atom_site_fract_z
 _atom_site_occupancy
  Ba  Ba0  1  0.22908400  0.22908400  0.00000000  1
  Ba  Ba1  1  0.00000000  0.22908400  0.22908400  1
  Ba  Ba2  1  0.00000000  0.77091600  0.77091600  1
  Ba  Ba3  1  0.77091600  0.00000000  0.77091600  1
  Ba  Ba4  1  0.22908400  0.00000000  0.22908400  1
  Ba  Ba5  1  0.77091600  0.77091600  0.00000000  1
  Na  Na0  1  0.50000000  0.50000000  0.50000000  1
  Na  Na1  1  0.00000000  0.00000000  0.50000000  1
  Na  Na2  1  0.50000000  0.00000000  0.00000000  1
  Na  Na3  1  0.00000000  0.50000000  0.00000000  1
  Na  Na4  1  0.34761800  0.69523500  0.34761800  1
  Na  Na5  1  0.65238200  0.00000000  0.34761800  1
  Na  Na6  1  0.34761800  0.00000000  0.65238200  1
  Na  Na7  1  0.65238200  0.34761800  0.00000000  1
  Na  Na8  1  0.34761800  0.34761800  0.69523500  1
  Na  Na9  1  0.69523500  0.34761800  0.34761800  1
  Na  Na10  1  0.00000000  0.34761800  0.65238200  1
  Na  Na11  1  0.30476500  0.65238200  0.65238200  1
  Na  Na12  1  0.34761800  0.65238200  0.00000000  1
  Na  Na13  1  0.00000000  0.65238200  0.34761800  1
  Na  Na14  1  0.65238200  0.65238200  0.30476500  1
  Na  Na15  1  0.65238200  0.30476500  0.65238200  1
  N  N0  1  0.00000000  0.00000000  0.00000000  1
loop_
_geom_bond_atom_site_label_1
_geom_bond_atom_site_label_2
_geom_bond_distance
_geom_bond_site_symmetry_2
Ba0 N0 2.842633 1_555
Ba0 Na12 4.295559 1_555
Ba0 Na7 4.295559 1_555
Ba0 Na14 4.295560 1_555
Ba0 Na8 4.295569 1_554
Ba0 Na2 4.394806 1_555
Ba0 Na1 4.394806 1_554
Ba0 Na0 4.394806 1_555
Ba0 Na3 4.394806 1_555
Ba1 N0 2.842633 1_555
Ba1 Na13 4.295559 1_555
Ba1 Na10 4.295559 1_555
Ba1 Na11 4.295560 1_555
Ba1 Na9 4.295569 1_455
Ba1 Na0 4.394806 1_555
Ba1 Na2 4.394806 1_455
Ba1 Na1 4.394806 1_555
Ba1 Na3 4.394806 1_555
Ba2 N0 2.842633 1_566
Ba2 Na13 4.295559 1_555
Ba2 Na10 4.295559 1_555
Ba2 Na9 4.295560 1_455
Ba2 Na11 4.295569 1_555
Ba2 Na2 4.394806 1_566
Ba2 Na3 4.394806 1_556
Ba2 Na1 4.394806 1_565
Ba2 Na0 4.394806 1_455
Ba3 N0 2.842633 1_656
Ba3 Na6 4.295559 1_555
Ba3 Na5 4.295559 1_555
Ba3 Na4 4.295560 1_545
Ba3 Na15 4.295569 1_555
Ba3 Na3 4.394806 1_656
Ba3 Na0 4.394806 1_545
Ba3 Na2 4.394806 1_556
Ba3 Na1 4.394806 1_655
Ba4 N0 2.842633 1_555
Ba4 Na5 4.295559 1_555
Ba4 Na6 4.295559 1_555
Ba4 Na15 4.295560 1_555
Ba4 Na4 4.295569 1_545
Ba4 Na0 4.394806 1_555
Ba4 Na1 4.394806 1_555
Ba4 Na2 4.394806 1_555
Ba4 Na3 4.394806 1_545
Ba5 N0 2.842633 1_665
Ba5 Na7 4.295559 1_555
Ba5 Na12 4.295559 1_555
Ba5 Na8 4.295560 1_554
Ba5 Na14 4.295569 1_555
Ba5 Na0 4.394806 1_554
Ba5 Na3 4.394806 1_655
Ba5 Na1 4.394806 1_665
Ba5 Na2 4.394806 1_565
Na0 Na9 3.543721 1_555
Na0 Na4 3.543721 1_555
Na0 Na8 3.543721 1_555
Na0 Na11 3.543721 1_555
Na0 Na15 3.543721 1_555
Na0 Na14 3.543721 1_555
Na1 Na13 3.543731 1_545
Na1 Na5 3.543731 1_455
Na1 Na6 3.543731 1_555
Na1 Na10 3.543731 1_555
Na1 Na14 3.543732 1_445
Na1 Na8 3.543732 1_555
Na2 Na5 3.543731 1_555
Na2 Na7 3.543731 1_555
Na2 Na6 3.543731 1_554
Na2 Na9 3.543732 1_555
Na3 Na7 3.543731 1_455
Na3 Na4 3.543732 1_555
Na4 Na6 3.781729 1_565
Na4 Na5 3.781729 1_565
Na5 Na9 3.608301 1_555
Na6 Na7 3.608298 1_556
Na6 Na8 3.608301 1_555
Na7 Na9 3.608301 1_555
Na7 Na8 3.781729 1_554
Na10 Na3 3.543731 1_556
Na10 Na12 3.608298 1_556
Na10 Na5 3.608298 1_455
Na10 Na15 3.608301 1_455
Na10 Na8 3.608301 1_555
Na10 Na11 3.781729 1_555
Na10 Na9 3.781729 1_455
Na11 Na2 3.543732 1_566
Na11 Na8 3.608290 1_555
Na11 Na4 3.608290 1_555
Na11 Na6 3.608301 1_565
Na11 Na12 3.608301 1_556
Na11 Na13 3.781729 1_555
Na12 Na2 3.543731 1_565
Na12 Na3 3.543731 1_555
Na12 Na5 3.608298 1_565
Na12 Na4 3.608301 1_555
Na12 Na14 3.781729 1_555
Na12 Na8 3.781729 1_554
Na13 Na3 3.543731 1_555
Na13 Na7 3.608298 1_455
Na13 Na6 3.608298 1_565
Na13 Na14 3.608301 1_455
Na13 Na4 3.608301 1_555
Na13 Na9 3.781729 1_455
Na14 Na9 3.608290 1_555
Na14 Na4 3.608290 1_555
Na14 Na5 3.608301 1_565
Na14 Na7 3.781729 1_555
Na15 Na3 3.543732 1_656
Na15 Na8 3.608290 1_555
Na15 Na9 3.608290 1_555
Na15 Na7 3.608301 1_556
Na15 Na5 3.781729 1_555
Na15 Na6 3.781729 1_555
