# generated using pymatgen
data_Tl2SiF6
_symmetry_space_group_name_H-M   'P 1'
_cell_length_a   5.93361001
_cell_length_b   5.93361030
_cell_length_c   5.93361101
_cell_angle_alpha   60.00000714
_cell_angle_beta   60.00000552
_cell_angle_gamma   60.00000852
_symmetry_Int_Tables_number   1
_chemical_formula_structural   Tl2SiF6
_chemical_formula_sum   'Tl2 Si1 F6'
_cell_volume   147.72097388
_cell_formula_units_Z   1
loop_
 _symmetry_equiv_pos_site_id
 _symmetry_equiv_pos_as_xyz
  1  'x, y, z'
loop_
 _atom_site_type_symbol
 _atom_site_label
 _atom_site_symmetry_multiplicity
 _atom_site_fract_x
 _atom_site_fract_y
 _atom_site_fract_z
 _atom_site_occupancy
  Tl  Tl0  1  0.75000000  0.75000000  0.75000000  1
  Tl  Tl1  1  0.25000000  0.25000000  0.25000000  1
  Si  Si0  1  -0.00000000  -0.00000000  -0.00000000  1
  F  F0  1  0.20296133  0.79703867  0.79703867  1
  F  F1  1  0.20296133  0.79703867  0.20296133  1
  F  F2  1  0.79703867  0.20296133  0.79703867  1
  F  F3  1  0.79703867  0.20296133  0.20296133  1
  F  F4  1  0.79703867  0.79703867  0.20296133  1
  F  F5  1  0.20296133  0.20296133  0.79703867  1
loop_
_geom_bond_atom_site_label_1
_geom_bond_atom_site_label_2
_geom_bond_distance
_geom_bond_site_symmetry_2
F0 Si0 1.703128 1_566
F1 Si0 1.703128 1_565
F2 Si0 1.703128 1_656
F3 Si0 1.703128 1_655
F4 Si0 1.703128 1_665
F5 Si0 1.703128 1_556
