# generated using pymatgen
data_GdRh5
_symmetry_space_group_name_H-M   'P 1'
_cell_length_a   5.26490347
_cell_length_b   5.26490347
_cell_length_c   4.33308700
_cell_angle_alpha   90.00000000
_cell_angle_beta   90.00000000
_cell_angle_gamma   119.99999333
_symmetry_Int_Tables_number   1
_chemical_formula_structural   GdRh5
_chemical_formula_sum   'Gd1 Rh5'
_cell_volume   104.01809497
_cell_formula_units_Z   1
loop_
 _symmetry_equiv_pos_site_id
 _symmetry_equiv_pos_as_xyz
  1  'x, y, z'
loop_
 _atom_site_type_symbol
 _atom_site_label
 _atom_site_symmetry_multiplicity
 _atom_site_fract_x
 _atom_site_fract_y
 _atom_site_fract_z
 _atom_site_occupancy
  Gd  Gd0  1  0.00000000  0.00000000  0.00000000  1
  Rh  Rh0  1  0.50000000  0.00000000  0.50000000  1
  Rh  Rh1  1  0.00000000  0.50000000  0.50000000  1
  Rh  Rh2  1  0.66666700  0.33333300  0.00000000  1
  Rh  Rh3  1  0.50000000  0.50000000  0.50000000  1
  Rh  Rh4  1  0.33333300  0.66666700  0.00000000  1
loop_
_geom_bond_atom_site_label_1
_geom_bond_atom_site_label_2
_geom_bond_distance
_geom_bond_site_symmetry_2
Gd0 Rh2 3.039690 1_455
Gd0 Rh4 3.039690 1_545
Gd0 Rh4 3.039695 1_445
Gd0 Rh2 3.039695 1_555
Gd0 Rh2 3.039695 1_445
Gd0 Rh4 3.039695 1_555
Gd0 Rh0 3.409357 1_455
Gd0 Rh0 3.409357 1_454
Gd0 Rh0 3.409357 1_554
Gd0 Rh1 3.409357 1_545
Gd0 Rh1 3.409357 1_555
Gd0 Rh0 3.409357 1_555
Gd0 Rh1 3.409357 1_554
Gd0 Rh1 3.409357 1_544
Gd0 Rh3 3.409357 1_445
Gd0 Rh3 3.409357 1_555
Gd0 Rh3 3.409357 1_554
Gd0 Rh3 3.409357 1_444
Rh0 Rh3 2.632452 1_555
Rh0 Rh3 2.632452 1_545
Rh0 Rh1 2.632452 1_655
Rh0 Rh1 2.632452 1_545
Rh0 Rh2 2.646477 1_555
Rh0 Rh4 2.646477 1_545
Rh0 Rh4 2.646477 1_546
Rh0 Rh2 2.646477 1_556
Rh1 Rh3 2.632452 1_555
Rh1 Rh3 2.632452 1_455
Rh1 Rh4 2.646477 1_555
Rh1 Rh2 2.646477 1_456
Rh1 Rh4 2.646477 1_556
Rh1 Rh2 2.646477 1_455
Rh2 Rh3 2.646480 1_555
Rh2 Rh3 2.646480 1_554
Rh2 Rh4 3.039691 1_545
Rh2 Rh4 3.039691 1_655
Rh2 Rh4 3.039699 1_555
Rh3 Rh4 2.646480 1_555
Rh3 Rh4 2.646480 1_556
