# generated using pymatgen
data_Li2Ni(WO4)2
_symmetry_space_group_name_H-M   'P 1'
_cell_length_a   5.68855381
_cell_length_b   7.82685894
_cell_length_c   6.71255841
_cell_angle_alpha   76.99969094
_cell_angle_beta   75.91007131
_cell_angle_gamma   87.12845818
_symmetry_Int_Tables_number   1
_chemical_formula_structural   Li2Ni(WO4)2
_chemical_formula_sum   'Li4 Ni2 W4 O16'
_cell_volume   282.44191460
_cell_formula_units_Z   2
loop_
 _symmetry_equiv_pos_site_id
 _symmetry_equiv_pos_as_xyz
  1  'x, y, z'
loop_
 _atom_site_type_symbol
 _atom_site_label
 _atom_site_symmetry_multiplicity
 _atom_site_fract_x
 _atom_site_fract_y
 _atom_site_fract_z
 _atom_site_occupancy
  Li  Li0  1  0.31574500  0.64543500  0.60694000  1
  Li  Li1  1  0.81574100  0.14543900  0.10694300  1
  Li  Li2  1  0.68425900  0.35456100  0.39305600  1
  Li  Li3  1  0.18425500  0.85456500  0.89305900  1
  Ni  Ni0  1  0.25000000  0.24999900  0.75000300  1
  Ni  Ni1  1  0.74999800  0.75000000  0.25000300  1
  W  W0  1  0.72868800  0.53946100  0.79680300  1
  W  W1  1  0.77131200  0.96053900  0.70319600  1
  W  W2  1  0.22867500  0.03946400  0.29678900  1
  W  W3  1  0.27132400  0.46053600  0.20321100  1
  O  O0  1  0.59548800  0.15821600  0.65045700  1
  O  O1  1  0.09547900  0.65821700  0.15046300  1
  O  O2  1  0.40452000  0.84178400  0.34953600  1
  O  O3  1  0.90451300  0.34178400  0.84954200  1
  O  O4  1  0.71925500  0.55619100  0.51975200  1
  O  O5  1  0.21923700  0.05615900  0.01973200  1
  O  O6  1  0.28076400  0.44384100  0.48026800  1
  O  O7  1  0.78074600  0.94381000  0.98024700  1
  O  O8  1  0.88801300  0.94035500  0.39031300  1
  O  O9  1  0.38800800  0.44034200  0.89035800  1
  O  O10  1  0.11199200  0.05965800  0.60964100  1
  O  O11  1  0.61198600  0.55964500  0.10968700  1
  O  O12  1  0.52607400  0.78981200  0.75272100  1
  O  O13  1  0.02607400  0.28981400  0.25271900  1
  O  O14  1  0.47392700  0.21018600  0.24728000  1
  O  O15  1  0.97392900  0.71018800  0.74727800  1
loop_
_geom_bond_atom_site_label_1
_geom_bond_atom_site_label_2
_geom_bond_distance
_geom_bond_site_symmetry_2
Li0 O6 1.992400 1_555
Li0 O2 2.015055 1_555
Li0 O15 2.036993 1_455
Li0 O12 2.206603 1_555
Li0 O9 2.303428 1_555
Li0 O4 2.338468 1_555
Li1 O7 1.992765 1_544
Li1 O3 2.015023 1_554
Li1 O14 2.036967 1_555
Li1 O13 2.206586 1_655
Li1 O8 2.303181 1_545
Li1 O5 2.338494 1_655
Li2 O4 1.992774 1_555
Li2 O0 2.015022 1_555
Li2 O13 2.036972 1_655
Li2 O14 2.206582 1_555
Li2 O11 2.303178 1_555
Li2 O6 2.338490 1_555
Li3 O5 1.992406 1_566
Li3 O1 2.015051 1_556
Li3 O12 2.037007 1_555
Li3 O15 2.206592 1_455
Li3 O10 2.303428 1_565
Li3 O7 2.338465 1_455
Ni0 O5 2.060830 1_556
Ni0 O6 2.060866 1_555
Ni0 O3 2.064013 1_455
Ni0 O0 2.064020 1_555
Ni0 O9 2.198233 1_555
Ni0 O10 2.198252 1_555
Ni1 O4 2.060802 1_555
Ni1 O7 2.060836 1_554
Ni1 O2 2.063959 1_555
Ni1 O1 2.063979 1_655
Ni1 O8 2.198125 1_555
Ni1 O11 2.198144 1_555
O0 W1 1.813949 1_545
O1 W3 1.814048 1_555
O2 W2 1.814041 1_565
O3 W0 1.813952 1_555
O4 W0 1.848489 1_555
O5 W2 1.848579 1_555
O6 W3 1.848583 1_555
O7 W1 1.848491 1_555
O8 W2 2.022469 1_665
O8 W1 2.082454 1_555
O9 W0 2.022588 1_555
O9 W3 2.082278 1_556
O10 W1 2.022588 1_445
O10 W2 2.082272 1_555
O11 W3 2.022469 1_555
O11 W0 2.082460 1_554
O12 W1 1.898254 1_555
O12 W0 2.221351 1_555
O13 W3 1.898295 1_555
O13 W2 2.221302 1_555
O14 W2 1.898302 1_555
O14 W3 2.221308 1_555
O15 W0 1.898267 1_555
O15 W1 2.221360 1_555
