# generated using pymatgen
data_K6U2Mo4O21
_symmetry_space_group_name_H-M   'P 1'
_cell_length_a   7.81769324
_cell_length_b   7.90298356
_cell_length_c   10.36534550
_cell_angle_alpha   72.22080081
_cell_angle_beta   84.09396702
_cell_angle_gamma   80.55566420
_symmetry_Int_Tables_number   1
_chemical_formula_structural   K6U2Mo4O21
_chemical_formula_sum   'K6 U2 Mo4 O21'
_cell_volume   600.60113576
_cell_formula_units_Z   1
loop_
 _symmetry_equiv_pos_site_id
 _symmetry_equiv_pos_as_xyz
  1  'x, y, z'
loop_
 _atom_site_type_symbol
 _atom_site_label
 _atom_site_symmetry_multiplicity
 _atom_site_fract_x
 _atom_site_fract_y
 _atom_site_fract_z
 _atom_site_occupancy
  K  K0  1  0.93010499  0.39339966  0.27702031  1
  K  K1  1  0.70160554  0.83804813  0.02817676  1
  K  K2  1  0.59424136  0.27614671  0.66075072  1
  K  K3  1  0.06989501  0.60660034  0.72297969  1
  K  K4  1  0.29839446  0.16195187  0.97182324  1
  K  K5  1  0.40575864  0.72385329  0.33924928  1
  U  U0  1  0.48570546  0.21711250  0.31421351  1
  U  U1  1  0.51429454  0.78288750  0.68578649  1
  Mo  Mo0  1  0.25483883  0.63486345  0.03225397  1
  Mo  Mo1  1  0.84999104  0.84704586  0.39209943  1
  Mo  Mo2  1  0.15000896  0.15295414  0.60790057  1
  Mo  Mo3  1  0.74516117  0.36513655  0.96774603  1
  O  O0  1  0.20648437  0.23137510  0.42923213  1
  O  O1  1  0.53942376  0.37493725  0.39672488  1
  O  O2  1  0.03340039  0.69952913  0.01056482  1
  O  O3  1  0.46057624  0.62506275  0.60327512  1
  O  O4  1  0.92687183  0.20152510  0.62367332  1
  O  O5  1  0.72199022  0.56656406  0.82882273  1
  O  O6  1  0.65310710  0.19893130  0.93118497  1
  O  O7  1  0.34689290  0.80106870  0.06881503  1
  O  O8  1  0.64253663  0.40711872  0.12021113  1
  O  O9  1  0.27800978  0.43343594  0.17117727  1
  O  O10  1  0.23940054  0.27315917  0.69497286  1
  O  O11  1  0.07312817  0.79847490  0.37632668  1
  O  O12  1  0.96659961  0.30047087  0.98943518  1
  O  O13  1  0.79351563  0.76862490  0.57076787  1
  O  O14  1  0.78305913  0.08453710  0.31810117  1
  O  O15  1  0.44439634  0.06933331  0.21794334  1
  O  O16  1  0.55560366  0.93066669  0.78205666  1
  O  O17  1  0.35746337  0.59288128  0.87978887  1
  O  O18  1  0.21694087  0.91546290  0.68189883  1
  O  O19  1  0.76059946  0.72684083  0.30502714  1
  O  O20  1  0.50000000  -0.00000000  0.50000000  1
loop_
_geom_bond_atom_site_label_1
_geom_bond_atom_site_label_2
_geom_bond_distance
_geom_bond_site_symmetry_2
K0 O0 2.712392 1_655
K0 O14 2.765204 1_555
K0 O19 2.833102 1_555
K0 O9 2.856130 1_655
K0 O8 2.876115 1_555
K0 O1 3.185110 1_555
K0 O2 3.199203 1_655
K0 O12 3.255736 1_554
K1 O2 2.655674 1_655
K1 O6 2.694661 1_564
K1 O16 2.744350 1_554
K1 O19 2.796271 1_555
K1 O7 2.811220 1_555
K2 O4 2.585933 1_555
K2 O1 2.666371 1_555
K2 O16 2.687533 1_545
K2 O3 2.688825 1_555
K2 O6 2.751445 1_555
K2 O10 2.763248 1_555
K3 O13 2.712392 1_455
K3 O18 2.765204 1_555
K3 O10 2.833102 1_555
K3 O5 2.856130 1_455
K3 O17 2.876115 1_555
K3 O3 3.185110 1_555
K3 O12 3.199203 1_455
K3 O2 3.255736 1_556
K4 O12 2.655674 1_455
K4 O7 2.694661 1_546
K4 O15 2.744350 1_556
K4 O10 2.796271 1_555
K4 O6 2.811220 1_555
K5 O11 2.585933 1_555
K5 O3 2.666371 1_555
K5 O15 2.687533 1_565
K5 O1 2.688825 1_555
K5 O7 2.751445 1_555
K5 O19 2.763248 1_555
Mo0 O2 1.740156 1_555
Mo0 O7 1.748479 1_555
Mo0 O9 1.788744 1_555
Mo0 O17 1.795325 1_554
Mo1 O11 1.725384 1_655
Mo1 O19 1.754045 1_555
Mo1 O13 1.797046 1_555
Mo1 O14 1.807194 1_565
Mo2 O4 1.725384 1_455
Mo2 O10 1.754045 1_555
Mo2 O0 1.797046 1_555
Mo2 O18 1.807194 1_545
Mo3 O12 1.740156 1_555
Mo3 O6 1.748479 1_555
Mo3 O5 1.788744 1_555
Mo3 O8 1.795325 1_556
O0 U0 2.380067 1_555
O1 U0 1.833257 1_555
O3 U1 1.833257 1_555
O5 U1 2.407032 1_555
O8 U0 2.460598 1_555
O9 U0 2.407032 1_555
O13 U1 2.380067 1_555
O14 U0 2.386928 1_555
O15 U0 1.834622 1_555
O16 U1 1.834622 1_555
O17 U1 2.460598 1_555
O18 U1 2.386928 1_555
O20 U1 2.151399 1_545
O20 U0 2.151399 1_555
