# generated using pymatgen
data_CaFe3P3O13
_symmetry_space_group_name_H-M   'P 1'
_cell_length_a   6.40859800
_cell_length_b   7.67636000
_cell_length_c   10.29249125
_cell_angle_alpha   80.12739308
_cell_angle_beta   90.00000000
_cell_angle_gamma   90.00000000
_symmetry_Int_Tables_number   1
_chemical_formula_structural   CaFe3P3O13
_chemical_formula_sum   'Ca2 Fe6 P6 O26'
_cell_volume   498.83795259
_cell_formula_units_Z   2
loop_
 _symmetry_equiv_pos_site_id
 _symmetry_equiv_pos_as_xyz
  1  'x, y, z'
loop_
 _atom_site_type_symbol
 _atom_site_label
 _atom_site_symmetry_multiplicity
 _atom_site_fract_x
 _atom_site_fract_y
 _atom_site_fract_z
 _atom_site_occupancy
  Ca  Ca0  1  0.75000000  0.34452800  0.19472800  1
  Ca  Ca1  1  0.25000000  0.65547200  0.80527200  1
  Fe  Fe0  1  0.25000000  0.64637600  0.20273300  1
  Fe  Fe1  1  0.75000000  0.35362400  0.79726700  1
  Fe  Fe2  1  0.25000000  0.21261200  0.43775000  1
  Fe  Fe3  1  0.50000000  0.00000000  0.00000000  1
  Fe  Fe4  1  0.75000000  0.78738800  0.56225000  1
  Fe  Fe5  1  0.00000000  0.00000000  0.00000000  1
  P  P0  1  0.25000000  0.78313900  0.48965000  1
  P  P1  1  0.75000000  0.21686100  0.51035000  1
  P  P2  1  0.25000000  0.26319500  0.76140200  1
  P  P3  1  0.75000000  0.73680500  0.23859800  1
  P  P4  1  0.75000000  0.68395600  0.88596700  1
  P  P5  1  0.25000000  0.31604400  0.11403300  1
  O  O0  1  0.75000000  0.64026300  0.74278200  1
  O  O1  1  0.56049300  0.24950700  0.41420600  1
  O  O2  1  0.25000000  0.21030500  0.62503000  1
  O  O3  1  0.54888200  0.78949300  0.90423700  1
  O  O4  1  0.75000000  0.34651200  0.60751300  1
  O  O5  1  0.75000000  0.12345800  0.90798000  1
  O  O6  1  0.25000000  0.65348800  0.39248700  1
  O  O7  1  0.04888200  0.21050700  0.09576300  1
  O  O8  1  0.25000000  0.97443200  0.41152400  1
  O  O9  1  0.75000000  0.02556800  0.58847600  1
  O  O10  1  0.06199000  0.37895800  0.78614800  1
  O  O11  1  0.25000000  0.87654200  0.09202000  1
  O  O12  1  0.56199000  0.62104200  0.21385200  1
  O  O13  1  0.75000000  0.49517600  0.96716500  1
  O  O14  1  0.75000000  0.78969500  0.37497000  1
  O  O15  1  0.45111800  0.21050700  0.09576300  1
  O  O16  1  0.93950700  0.24950700  0.41420600  1
  O  O17  1  0.43950700  0.75049300  0.58579400  1
  O  O18  1  0.43801000  0.37895800  0.78614800  1
  O  O19  1  0.25000000  0.35973700  0.25721800  1
  O  O20  1  0.75000000  0.91184700  0.13235800  1
  O  O21  1  0.25000000  0.08815300  0.86764200  1
  O  O22  1  0.93801000  0.62104200  0.21385200  1
  O  O23  1  0.95111800  0.78949300  0.90423700  1
  O  O24  1  0.06049300  0.75049300  0.58579400  1
  O  O25  1  0.25000000  0.50482400  0.03283500  1
loop_
_geom_bond_atom_site_label_1
_geom_bond_atom_site_label_2
_geom_bond_distance
_geom_bond_site_symmetry_2
Ca0 O13 2.427832 1_554
Ca0 O7 2.474696 1_655
Ca0 O15 2.474696 1_555
Ca0 O12 2.477755 1_555
Ca0 O22 2.477755 1_555
Ca0 O16 2.558306 1_555
Ca0 O1 2.558306 1_555
Ca1 O25 2.427832 1_556
Ca1 O3 2.474696 1_555
Ca1 O23 2.474696 1_455
Ca1 O10 2.477755 1_555
Ca1 O18 2.477755 1_555
Ca1 O17 2.558306 1_555
Ca1 O24 2.558306 1_555
Fe0 O11 1.931268 1_555
Fe0 O6 1.963139 1_555
Fe0 O22 2.010214 1_455
Fe0 O12 2.010214 1_555
Fe0 O19 2.175515 1_555
Fe0 O25 2.211368 1_555
Fe1 O5 1.931268 1_555
Fe1 O4 1.963139 1_555
Fe1 O10 2.010214 1_655
Fe1 O18 2.010214 1_555
Fe1 O0 2.175515 1_555
Fe1 O13 2.211368 1_555
Fe2 O8 1.893406 1_545
Fe2 O2 1.924620 1_555
Fe2 O19 2.002127 1_555
Fe2 O1 2.018614 1_555
Fe2 O16 2.018614 1_455
Fe3 O5 2.013520 1_554
Fe3 O11 2.013520 1_545
Fe3 O3 2.055970 1_544
Fe3 O15 2.055970 1_555
Fe3 O20 2.136474 1_545
Fe3 O21 2.136474 1_554
Fe4 O9 1.893406 1_565
Fe4 O14 1.924620 1_555
Fe4 O0 2.002127 1_555
Fe4 O24 2.018614 1_655
Fe4 O17 2.018614 1_555
Fe5 O5 2.013520 1_454
Fe5 O11 2.013520 1_545
Fe5 O7 2.055970 1_555
Fe5 O23 2.055970 1_444
Fe5 O20 2.136474 1_445
Fe5 O21 2.136474 1_554
O0 P4 1.566486 1_555
O1 P1 1.559469 1_555
O2 P2 1.526555 1_555
O3 P4 1.550855 1_555
O4 P1 1.527063 1_555
O6 P0 1.527063 1_555
O7 P5 1.550855 1_555
O8 P0 1.548542 1_555
O9 P1 1.548542 1_555
O10 P2 1.543988 1_555
O12 P3 1.543988 1_555
O13 P4 1.543748 1_555
O14 P3 1.526555 1_555
O15 P5 1.550855 1_555
O16 P1 1.559469 1_555
O17 P0 1.559469 1_555
O18 P2 1.543988 1_555
O19 P5 1.566486 1_555
O20 P3 1.580296 1_555
O21 P2 1.580296 1_555
O22 P3 1.543988 1_555
O23 P4 1.550855 1_555
O24 P0 1.559469 1_555
O25 P5 1.543748 1_555
