# generated using pymatgen
data_K4W2Cl10O
_symmetry_space_group_name_H-M   'P 1'
_cell_length_a   7.35071299
_cell_length_b   7.35071234
_cell_length_c   10.40763512
_cell_angle_alpha   110.67951339
_cell_angle_beta   110.67951329
_cell_angle_gamma   90.00000296
_symmetry_Int_Tables_number   1
_chemical_formula_structural   K4W2Cl10O
_chemical_formula_sum   'K4 W2 Cl10 O1'
_cell_volume   487.20365685
_cell_formula_units_Z   1
loop_
 _symmetry_equiv_pos_site_id
 _symmetry_equiv_pos_as_xyz
  1  'x, y, z'
loop_
 _atom_site_type_symbol
 _atom_site_label
 _atom_site_symmetry_multiplicity
 _atom_site_fract_x
 _atom_site_fract_y
 _atom_site_fract_z
 _atom_site_occupancy
  K  K0  1  0.75000000  0.25000000  0.50000000  1
  K  K1  1  0.00000000  0.50000000  0.00000000  1
  K  K2  1  0.25000000  0.75000000  0.50000000  1
  K  K3  1  0.50000000  0.00000000  0.00000000  1
  W  W0  1  0.10658600  0.10658600  0.21317200  1
  W  W1  1  0.89341400  0.89341400  0.78682800  1
  Cl  Cl0  1  0.12551100  0.65055900  0.77607200  1
  Cl  Cl1  1  0.34944100  0.34944100  0.22392800  1
  Cl  Cl2  1  0.75786600  0.75786600  0.51573300  1
  Cl  Cl3  1  0.24213400  0.24213400  0.48426700  1
  Cl  Cl4  1  0.65055900  0.12551100  0.77607200  1
  Cl  Cl5  1  0.34944100  0.87448900  0.22392800  1
  Cl  Cl6  1  0.65055900  0.65055900  0.77607200  1
  Cl  Cl7  1  0.87448900  0.87448900  0.22392800  1
  Cl  Cl8  1  0.12551100  0.12551100  0.77607200  1
  Cl  Cl9  1  0.87448900  0.34944100  0.22392800  1
  O  O0  1  0.00000000  0.00000000  0.00000000  1
loop_
_geom_bond_atom_site_label_1
_geom_bond_atom_site_label_2
_geom_bond_distance
_geom_bond_site_symmetry_2
Cl0 W1 2.470581 1_455
Cl0 K1 3.293603 1_556
Cl0 K3 3.293620 1_566
Cl0 K0 3.601047 1_455
Cl0 K2 3.601062 1_555
Cl1 W0 2.470591 1_555
Cl1 K3 3.293611 1_555
Cl1 K1 3.293611 1_555
Cl1 K2 3.601054 1_555
Cl1 K0 3.601054 1_555
Cl2 W1 2.444405 1_555
Cl2 K0 3.678089 1_555
Cl2 K2 3.678090 1_555
Cl2 K0 3.678097 1_565
Cl2 K2 3.678097 1_655
Cl3 W0 2.444405 1_555
Cl3 K2 3.678089 1_555
Cl3 K0 3.678090 1_555
Cl3 K2 3.678097 1_545
Cl3 K0 3.678097 1_455
Cl4 W1 2.470581 1_545
Cl4 K3 3.293603 1_556
Cl4 K1 3.293620 1_656
Cl4 K2 3.601047 1_545
Cl4 K0 3.601062 1_555
Cl5 W0 2.470581 1_565
Cl5 K3 3.293603 1_565
Cl5 K1 3.293620 1_555
Cl5 K0 3.601047 1_565
Cl5 K2 3.601062 1_555
Cl6 W1 2.470591 1_555
Cl6 K3 3.293611 1_566
Cl6 K1 3.293611 1_656
Cl6 K0 3.601054 1_555
Cl6 K2 3.601054 1_555
Cl7 W0 2.470570 1_665
Cl7 K1 3.293612 1_655
Cl7 K3 3.293612 1_565
Cl7 K0 3.601055 1_565
Cl7 K2 3.601055 1_655
Cl8 W1 2.470570 1_445
Cl8 K1 3.293612 1_556
Cl8 K3 3.293612 1_556
Cl8 K2 3.601055 1_545
Cl8 K0 3.601055 1_455
Cl9 W0 2.470581 1_655
Cl9 K1 3.293603 1_655
Cl9 K3 3.293620 1_555
Cl9 K2 3.601047 1_655
Cl9 K0 3.601062 1_555
O0 W0 1.922126 1_555
O0 W1 1.922126 1_444
