# generated using pymatgen
data_Ba3Zr2S7
_symmetry_space_group_name_H-M   'P 1'
_cell_length_a   13.39937406
_cell_length_b   13.39937406
_cell_length_c   7.12167000
_cell_angle_alpha   90.00000000
_cell_angle_beta   90.00000000
_cell_angle_gamma   149.05272139
_symmetry_Int_Tables_number   1
_chemical_formula_structural   Ba3Zr2S7
_chemical_formula_sum   'Ba6 Zr4 S14'
_cell_volume   657.54340887
_cell_formula_units_Z   2
loop_
 _symmetry_equiv_pos_site_id
 _symmetry_equiv_pos_as_xyz
  1  'x, y, z'
loop_
 _atom_site_type_symbol
 _atom_site_label
 _atom_site_symmetry_multiplicity
 _atom_site_fract_x
 _atom_site_fract_y
 _atom_site_fract_z
 _atom_site_occupancy
  Ba  Ba0  1  0.83216600  0.69359400  0.00000000  1
  Ba  Ba1  1  0.16783400  0.30640600  0.00000000  1
  Ba  Ba2  1  0.30640600  0.16783400  0.50000000  1
  Ba  Ba3  1  0.69359400  0.83216600  0.50000000  1
  Ba  Ba4  1  0.50000000  0.00000000  0.50000000  1
  Ba  Ba5  1  0.00000000  0.50000000  0.00000000  1
  Zr  Zr0  1  0.60031000  0.89944400  0.00000000  1
  Zr  Zr1  1  0.89944400  0.60031000  0.50000000  1
  Zr  Zr2  1  0.39969000  0.10055600  0.00000000  1
  Zr  Zr3  1  0.10055600  0.39969000  0.50000000  1
  S  S0  1  0.65141600  0.34858400  0.75000000  1
  S  S1  1  0.65141600  0.34858400  0.25000000  1
  S  S2  1  0.50000000  0.00000000  0.00000000  1
  S  S3  1  0.15575900  0.84424100  0.75000000  1
  S  S4  1  0.71454700  0.81803900  0.00000000  1
  S  S5  1  0.34858400  0.65141600  0.25000000  1
  S  S6  1  0.84424100  0.15575900  0.25000000  1
  S  S7  1  0.18196100  0.28545300  0.50000000  1
  S  S8  1  0.00000000  0.50000000  0.50000000  1
  S  S9  1  0.34858400  0.65141600  0.75000000  1
  S  S10  1  0.28545300  0.18196100  0.00000000  1
  S  S11  1  0.15575900  0.84424100  0.25000000  1
  S  S12  1  0.84424100  0.15575900  0.75000000  1
  S  S13  1  0.81803900  0.71454700  0.50000000  1
loop_
_geom_bond_atom_site_label_1
_geom_bond_atom_site_label_2
_geom_bond_distance
_geom_bond_site_symmetry_2
Ba0 S4 3.126035 1_555
Ba0 S11 3.321454 1_655
Ba0 S3 3.321454 1_654
Ba0 S1 3.346943 1_555
Ba0 S0 3.346943 1_554
Ba0 S10 3.396650 1_665
Ba0 S13 3.589619 1_555
Ba0 S13 3.589619 1_554
Ba0 S10 3.810490 1_555
Ba1 S10 3.126035 1_555
Ba1 S12 3.321454 1_454
Ba1 S6 3.321454 1_455
Ba1 S5 3.346943 1_555
Ba1 S9 3.346943 1_554
Ba1 S4 3.396650 1_445
Ba1 S7 3.589619 1_555
Ba1 S7 3.589619 1_554
Ba1 S4 3.810490 1_555
Ba2 S7 3.126035 1_555
Ba2 S3 3.321454 1_545
Ba2 S11 3.321454 1_545
Ba2 S1 3.346943 1_555
Ba2 S0 3.346943 1_555
Ba2 S13 3.396650 1_445
Ba2 S10 3.589619 1_555
Ba2 S10 3.589619 1_556
Ba2 S13 3.810490 1_555
Ba3 S13 3.126035 1_555
Ba3 S6 3.321454 1_565
Ba3 S12 3.321454 1_565
Ba3 S5 3.346943 1_555
Ba3 S9 3.346943 1_555
Ba3 S7 3.396650 1_665
Ba3 S4 3.589619 1_555
Ba3 S4 3.589619 1_556
Ba3 S7 3.810490 1_555
Ba4 S6 3.505594 1_555
Ba4 S12 3.505594 1_555
Ba4 S3 3.505594 1_545
Ba4 S11 3.505594 1_545
Ba4 S2 3.560835 1_555
Ba4 S2 3.560835 1_556
Ba4 S8 3.574886 1_655
Ba4 S8 3.574886 1_545
Ba4 S1 3.584383 1_555
Ba4 S5 3.584383 1_545
Ba4 S0 3.584383 1_555
Ba4 S9 3.584383 1_545
Ba5 S6 3.505594 1_455
Ba5 S3 3.505594 1_554
Ba5 S11 3.505594 1_555
Ba5 S12 3.505594 1_454
Ba5 S8 3.560835 1_554
Ba5 S8 3.560835 1_555
Ba5 S2 3.574886 1_455
Ba5 S2 3.574886 1_565
Ba5 S5 3.584383 1_555
Ba5 S0 3.584383 1_454
Ba5 S9 3.584383 1_554
Ba5 S1 3.584383 1_455
S0 Zr2 2.522692 1_556
S0 Zr1 2.522692 1_555
S1 Zr2 2.522692 1_555
S1 Zr1 2.522692 1_555
S2 Zr0 2.593922 1_545
S2 Zr2 2.593922 1_555
S3 Zr2 2.528549 1_566
S3 Zr1 2.528549 1_455
S4 Zr0 2.529185 1_555
S5 Zr3 2.522692 1_555
S5 Zr0 2.522692 1_555
S6 Zr0 2.528549 1_545
S6 Zr3 2.528549 1_655
S7 Zr3 2.529185 1_555
S8 Zr3 2.593922 1_555
S8 Zr1 2.593922 1_455
S9 Zr0 2.522692 1_556
S9 Zr3 2.522692 1_555
S10 Zr2 2.529185 1_555
S11 Zr2 2.528549 1_565
S11 Zr1 2.528549 1_455
S12 Zr0 2.528549 1_546
S12 Zr3 2.528549 1_655
S13 Zr1 2.529185 1_555
