# generated using pymatgen
data_Ba12Na15Li8N6
_symmetry_space_group_name_H-M   'P 1'
_cell_length_a   13.11325935
_cell_length_b   13.11325935
_cell_length_c   13.11325897
_cell_angle_alpha   56.35117540
_cell_angle_beta   56.35117540
_cell_angle_gamma   56.35117416
_symmetry_Int_Tables_number   1
_chemical_formula_structural   Ba12Na15Li8N6
_chemical_formula_sum   'Ba12 Na15 Li8 N6'
_cell_volume   1459.90450784
_cell_formula_units_Z   1
loop_
 _symmetry_equiv_pos_site_id
 _symmetry_equiv_pos_as_xyz
  1  'x, y, z'
loop_
 _atom_site_type_symbol
 _atom_site_label
 _atom_site_symmetry_multiplicity
 _atom_site_fract_x
 _atom_site_fract_y
 _atom_site_fract_z
 _atom_site_occupancy
  Ba  Ba0  1  0.98017200  0.32217400  0.98017200  1
  Ba  Ba1  1  0.72648000  0.72648000  0.36138900  1
  Ba  Ba2  1  0.72648000  0.36138900  0.72648000  1
  Ba  Ba3  1  0.67782600  0.01982800  0.01982800  1
  Ba  Ba4  1  0.98017200  0.98017200  0.32217400  1
  Ba  Ba5  1  0.36138900  0.72648000  0.72648000  1
  Ba  Ba6  1  0.63861100  0.27352000  0.27352000  1
  Ba  Ba7  1  0.27352000  0.27352000  0.63861100  1
  Ba  Ba8  1  0.01982800  0.01982800  0.67782600  1
  Ba  Ba9  1  0.32217400  0.98017200  0.98017200  1
  Ba  Ba10  1  0.01982800  0.67782600  0.01982800  1
  Ba  Ba11  1  0.27352000  0.63861100  0.27352000  1
  Na  Na0  1  0.35358000  0.35358000  0.85524300  1
  Na  Na1  1  0.39756600  0.08477300  0.39756600  1
  Na  Na2  1  0.60243400  0.60243400  0.91522700  1
  Na  Na3  1  0.35358000  0.85524300  0.35358000  1
  Na  Na4  1  0.91522700  0.60243400  0.60243400  1
  Na  Na5  1  0.20200800  0.20200800  0.20200800  1
  Na  Na6  1  0.85524300  0.35358000  0.35358000  1
  Na  Na7  1  0.50000000  0.50000000  0.50000000  1
  Na  Na8  1  0.08477300  0.39756600  0.39756600  1
  Na  Na9  1  0.14475700  0.64642000  0.64642000  1
  Na  Na10  1  0.39756600  0.39756600  0.08477300  1
  Na  Na11  1  0.60243400  0.91522700  0.60243400  1
  Na  Na12  1  0.64642000  0.64642000  0.14475700  1
  Na  Na13  1  0.64642000  0.14475700  0.64642000  1
  Na  Na14  1  0.79799200  0.79799200  0.79799200  1
  Li  Li0  1  0.03847800  0.03847800  0.03847800  1
  Li  Li1  1  0.96152200  0.96152200  0.96152200  1
  Li  Li2  1  0.20292800  0.00000000  0.79707200  1
  Li  Li3  1  0.79707200  0.20292800  0.00000000  1
  Li  Li4  1  0.20292800  0.79707200  0.00000000  1
  Li  Li5  1  0.00000000  0.79707200  0.20292800  1
  Li  Li6  1  0.00000000  0.20292800  0.79707200  1
  Li  Li7  1  0.79707200  0.00000000  0.20292800  1
  N  N0  1  0.85440600  0.85440600  0.14470600  1
  N  N1  1  0.14559400  0.14559400  0.85529400  1
  N  N2  1  0.14470600  0.85440600  0.85440600  1
  N  N3  1  0.14559400  0.85529400  0.14559400  1
  N  N4  1  0.85529400  0.14559400  0.14559400  1
  N  N5  1  0.85440600  0.14470600  0.85440600  1
loop_
_geom_bond_atom_site_label_1
_geom_bond_atom_site_label_2
_geom_bond_distance
_geom_bond_site_symmetry_2
Ba0 N1 2.729095 1_655
Ba0 N4 2.729095 1_556
Ba0 Na5 4.315742 1_656
Ba0 Na6 4.407658 1_556
Ba0 Na0 4.407658 1_655
Ba0 Na4 4.449736 1_555
Ba0 Na2 4.449736 1_555
Ba1 N0 2.501165 1_555
Ba1 Na4 4.156142 1_555
Ba1 Na11 4.156142 1_555
Ba1 Na6 4.241018 1_555
Ba1 Na3 4.241018 1_555
Ba1 Na12 4.255088 1_555
Ba1 Na1 4.318345 1_565
Ba1 Na8 4.318345 1_655
Ba1 Na7 4.330630 1_555
Ba2 N5 2.501165 1_555
Ba2 Na2 4.156142 1_555
Ba2 Na4 4.156142 1_555
Ba2 Na6 4.241018 1_555
Ba2 Na0 4.241018 1_555
Ba2 Na13 4.255088 1_555
Ba2 Na10 4.318345 1_556
Ba2 Na8 4.318345 1_655
Ba2 Na7 4.330630 1_555
Ba3 N0 2.729095 1_545
Ba3 N5 2.729095 1_554
Ba3 Na14 4.315742 1_544
Ba3 Na13 4.407658 1_554
Ba3 Na12 4.407658 1_545
Ba3 Na1 4.449736 1_555
Ba3 Na10 4.449736 1_555
Ba4 N3 2.729095 1_655
Ba4 N4 2.729095 1_565
Ba4 Na5 4.315742 1_665
Ba4 Na6 4.407658 1_565
Ba4 Na3 4.407658 1_655
Ba4 Na4 4.449736 1_555
Ba4 Na11 4.449736 1_555
Ba5 N2 2.501165 1_555
Ba5 Na2 4.156142 1_555
Ba5 Na11 4.156142 1_555
Ba5 Na3 4.241018 1_555
Ba5 Na0 4.241018 1_555
Ba5 Na9 4.255088 1_555
Ba5 Na10 4.318345 1_556
Ba5 Na1 4.318345 1_565
Ba5 Na7 4.330630 1_555
Ba6 N4 2.501165 1_555
Ba6 Na10 4.156142 1_555
Ba6 Na1 4.156142 1_555
Ba6 Na13 4.241018 1_555
Ba6 Na12 4.241018 1_555
Ba6 Na6 4.255088 1_555
Ba6 Na2 4.318345 1_554
Ba6 Na11 4.318345 1_545
Ba6 Na7 4.330630 1_555
Ba7 N1 2.501165 1_555
Ba7 Na8 4.156142 1_555
Ba7 Na1 4.156142 1_555
Ba7 Na13 4.241018 1_555
Ba7 Na9 4.241018 1_555
Ba7 Na0 4.255088 1_555
Ba7 Na11 4.318345 1_545
Ba7 Na4 4.318345 1_455
Ba7 Na7 4.330630 1_555
Ba8 N5 2.729095 1_455
Ba8 N2 2.729095 1_545
Ba8 Na14 4.315742 1_445
Ba8 Na13 4.407658 1_455
Ba8 Na9 4.407658 1_545
Ba8 Na8 4.449736 1_555
Ba8 Na1 4.449736 1_555
Ba9 N1 2.729095 1_565
Ba9 N3 2.729095 1_556
Ba9 Na5 4.315742 1_566
Ba9 Na3 4.407658 1_556
Ba9 Na0 4.407658 1_565
Ba9 Na11 4.449736 1_555
Ba9 Na2 4.449736 1_555
Ba10 N0 2.729095 1_455
Ba10 N2 2.729095 1_554
Ba10 Na14 4.315742 1_454
Ba10 Na9 4.407658 1_554
Ba10 Na12 4.407658 1_455
Ba10 Na8 4.449736 1_555
Ba10 Na10 4.449736 1_555
Ba11 N3 2.501165 1_555
Ba11 Na10 4.156142 1_555
Ba11 Na8 4.156142 1_555
Ba11 Na9 4.241018 1_555
Ba11 Na12 4.241018 1_555
Ba11 Na3 4.255088 1_555
Ba11 Na2 4.318345 1_554
Ba11 Na4 4.318345 1_455
Ba11 Na7 4.330630 1_555
Na0 Na5 3.595045 1_556
Na0 Na7 3.651712 1_555
Na0 Na10 3.733820 1_556
Na0 Na13 3.840144 1_555
Na0 Na9 3.840144 1_555
Na1 Na3 3.733820 1_545
Na1 Na5 3.750415 1_555
Na1 Na11 3.759964 1_545
Na1 Na8 3.873476 1_555
Na1 Na10 3.873476 1_555
Na2 Na4 3.873476 1_555
Na3 Na5 3.595045 1_565
Na3 Na7 3.651712 1_555
Na3 Na9 3.840144 1_555
Na4 Na9 3.733820 1_655
Na4 Na8 3.759964 1_655
Na5 Na6 3.595045 1_455
Na5 Na8 3.750415 1_555
Na6 Na7 3.651712 1_555
Na6 Na8 3.733820 1_655
Na7 Na9 3.651712 1_555
Na10 Na5 3.750415 1_555
Na10 Na2 3.759964 1_554
Na10 Na8 3.873476 1_555
Na11 Na13 3.733820 1_565
Na11 Na14 3.750415 1_555
Na11 Na4 3.873476 1_555
Na11 Na2 3.873476 1_555
Na12 Na14 3.595045 1_554
Na12 Na7 3.651712 1_555
Na12 Na2 3.733820 1_554
Na12 Na3 3.840144 1_555
Na12 Na6 3.840144 1_555
Na13 Na14 3.595045 1_545
Na13 Na7 3.651712 1_555
Na13 Na6 3.840144 1_555
Na14 Na9 3.595045 1_655
Na14 Na4 3.750415 1_555
Na14 Na2 3.750415 1_555
Li0 N4 2.103411 1_455
Li0 N3 2.103411 1_545
Li0 N1 2.103411 1_554
Li1 N5 2.103411 1_565
Li1 N2 2.103411 1_655
Li1 N0 2.103411 1_556
Li2 N1 2.044936 1_555
Li2 N2 2.044937 1_545
Li3 N4 2.044936 1_555
Li3 N5 2.044936 1_554
Li4 N2 2.044936 1_554
Li4 N3 2.044936 1_555
Li5 N0 2.044936 1_455
Li5 N3 2.044937 1_555
Li6 N1 2.044936 1_555
Li6 N5 2.044937 1_455
Li7 N0 2.044936 1_545
Li7 N4 2.044937 1_555
