# generated using pymatgen
data_Er2Co7
_symmetry_space_group_name_H-M   'P 1'
_cell_length_a   12.35086006
_cell_length_b   12.35085984
_cell_length_c   12.35085956
_cell_angle_alpha   23.06778219
_cell_angle_beta   23.06778496
_cell_angle_gamma   23.06778498
_symmetry_Int_Tables_number   1
_chemical_formula_structural   Er2Co7
_chemical_formula_sum   'Er4 Co14'
_cell_volume   253.87465172
_cell_formula_units_Z   2
loop_
 _symmetry_equiv_pos_site_id
 _symmetry_equiv_pos_as_xyz
  1  'x, y, z'
loop_
 _atom_site_type_symbol
 _atom_site_label
 _atom_site_symmetry_multiplicity
 _atom_site_fract_x
 _atom_site_fract_y
 _atom_site_fract_z
 _atom_site_occupancy
  Er  Er0  1  0.94853200  0.94853200  0.94853200  1
  Er  Er1  1  0.14806400  0.14806400  0.14806400  1
  Er  Er2  1  0.05146800  0.05146800  0.05146800  1
  Er  Er3  1  0.85193600  0.85193600  0.85193600  1
  Co  Co0  1  0.61121000  0.61121000  0.61121000  1
  Co  Co1  1  0.38879000  0.38879000  0.38879000  1
  Co  Co2  1  0.10808500  0.61027400  0.61027400  1
  Co  Co3  1  0.38972600  0.38972600  0.89191500  1
  Co  Co4  1  0.61027400  0.61027400  0.10808500  1
  Co  Co5  1  0.61027400  0.10808500  0.61027400  1
  Co  Co6  1  0.38972600  0.89191500  0.38972600  1
  Co  Co7  1  0.50000000  0.00000000  0.50000000  1
  Co  Co8  1  0.72156200  0.72156200  0.72156200  1
  Co  Co9  1  0.50000000  0.50000000  0.50000000  1
  Co  Co10  1  0.89191500  0.38972600  0.38972600  1
  Co  Co11  1  0.00000000  0.50000000  0.50000000  1
  Co  Co12  1  0.27843800  0.27843800  0.27843800  1
  Co  Co13  1  0.50000000  0.50000000  0.00000000  1
loop_
_geom_bond_atom_site_label_1
_geom_bond_atom_site_label_2
_geom_bond_distance
_geom_bond_site_symmetry_2
Co0 Co6 2.419289 1_555
Co0 Co10 2.419289 1_555
Co0 Co3 2.419290 1_555
Co0 Co13 2.455613 1_556
Co0 Co7 2.455613 1_565
Co0 Co11 2.455613 1_655
Co0 Er0 2.855184 1_554
Co0 Er0 2.855184 1_545
Co0 Er0 2.855185 1_455
Co1 Co5 2.419289 1_555
Co1 Co2 2.419289 1_555
Co1 Co4 2.419290 1_555
Co1 Co13 2.455613 1_555
Co1 Co7 2.455613 1_555
Co1 Co11 2.455613 1_555
Co1 Er2 2.855184 1_556
Co1 Er2 2.855184 1_565
Co1 Er2 2.855185 1_655
Co2 Co8 2.428311 1_455
Co2 Co4 2.458713 1_456
Co2 Co5 2.458713 1_465
Co2 Co4 2.480336 1_555
Co2 Co5 2.480336 1_555
Co2 Co9 2.508305 1_555
Co2 Er1 2.833205 1_556
Co2 Er1 2.833205 1_565
Co2 Er3 3.077010 1_455
Co2 Er2 3.237643 1_565
Co2 Er2 3.237643 1_556
Co3 Co6 2.458712 1_546
Co3 Co6 2.480336 1_555
Co3 Co9 2.508305 1_555
Co3 Er3 2.833206 1_545
Co3 Er3 2.833206 1_455
Co3 Er1 3.077010 1_556
Co3 Er0 3.237643 1_455
Co3 Er0 3.237643 1_545
Co4 Co8 2.428311 1_554
Co4 Co5 2.458712 1_564
Co4 Co5 2.480336 1_555
Co4 Co9 2.508305 1_555
Co4 Er1 2.833206 1_565
Co4 Er1 2.833206 1_655
Co4 Er3 3.077010 1_554
Co4 Er2 3.237643 1_655
Co4 Er2 3.237643 1_565
Co5 Co8 2.428311 1_545
Co5 Co9 2.508305 1_555
Co5 Er1 2.833206 1_556
Co5 Er1 2.833206 1_655
Co5 Er3 3.077010 1_545
Co5 Er2 3.237643 1_655
Co5 Er2 3.237643 1_556
Co6 Co9 2.508305 1_555
Co6 Er3 2.833206 1_554
Co6 Er3 2.833206 1_455
Co6 Er1 3.077010 1_565
Co6 Er0 3.237643 1_455
Co6 Er0 3.237643 1_554
Co7 Co8 2.439165 1_545
Co7 Er2 3.088920 1_556
Co7 Er0 3.088920 1_544
Co7 Er2 3.088920 1_655
Co7 Er0 3.088920 1_445
Co8 Er2 2.854236 1_665
Co8 Er2 2.854237 1_656
Co8 Er2 2.854237 1_566
Co9 Er3 2.929364 1_545
Co9 Er1 2.929364 1_565
Co9 Er3 2.929364 1_554
Co9 Er1 2.929364 1_556
Co9 Er3 2.929365 1_455
Co9 Er1 2.929365 1_655
Co10 Co12 2.428311 1_655
Co10 Co3 2.458713 1_654
Co10 Co6 2.458713 1_645
Co10 Co3 2.480336 1_555
Co10 Co6 2.480336 1_555
Co10 Co9 2.508305 1_555
Co10 Er3 2.833205 1_554
Co10 Er3 2.833205 1_545
Co10 Er1 3.077010 1_655
Co10 Er0 3.237643 1_545
Co10 Er0 3.237643 1_554
Co11 Co8 2.439165 1_455
Co11 Co12 2.439165 1_555
Co11 Co13 2.469524 1_555
Co11 Co13 2.469524 1_456
Co11 Co7 2.469524 1_555
Co11 Co7 2.469524 1_465
Co11 Er2 3.088920 1_556
Co11 Er0 3.088920 1_454
Co11 Er2 3.088920 1_565
Co11 Er0 3.088920 1_445
Co12 Co3 2.428311 1_554
Co12 Co6 2.428311 1_545
Co12 Co7 2.439165 1_555
Co12 Co13 2.439165 1_555
Co12 Er0 2.854236 1_445
Co12 Er0 2.854237 1_454
Co12 Er0 2.854237 1_544
Co13 Co8 2.439165 1_554
Co13 Co7 2.469524 1_564
Co13 Co7 2.469524 1_555
Co13 Er2 3.088920 1_565
Co13 Er0 3.088920 1_544
Co13 Er2 3.088920 1_655
Co13 Er0 3.088920 1_454
