# generated using pymatgen
data_Yb(NiP)2
_symmetry_space_group_name_H-M   'P 1'
_cell_length_a   5.34924481
_cell_length_b   5.34924481
_cell_length_c   5.34924481
_cell_angle_alpha   138.20325797
_cell_angle_beta   138.20325797
_cell_angle_gamma   60.59184183
_symmetry_Int_Tables_number   1
_chemical_formula_structural   Yb(NiP)2
_chemical_formula_sum   'Yb1 Ni2 P2'
_cell_volume   67.26658146
_cell_formula_units_Z   1
loop_
 _symmetry_equiv_pos_site_id
 _symmetry_equiv_pos_as_xyz
  1  'x, y, z'
loop_
 _atom_site_type_symbol
 _atom_site_label
 _atom_site_symmetry_multiplicity
 _atom_site_fract_x
 _atom_site_fract_y
 _atom_site_fract_z
 _atom_site_occupancy
  Yb  Yb0  1  0.00000000  0.00000000  0.00000000  1
  Ni  Ni0  1  0.25000000  0.75000000  0.50000000  1
  Ni  Ni1  1  0.75000000  0.25000000  0.50000000  1
  P  P0  1  0.37803581  0.37803581  0.00000000  1
  P  P1  1  0.62196419  0.62196419  0.00000000  1
loop_
_geom_bond_atom_site_label_1
_geom_bond_atom_site_label_2
_geom_bond_distance
_geom_bond_site_symmetry_2
Ni0 P0 2.244953 1_566
Ni0 P0 2.244953 1_555
Ni0 P1 2.244953 1_556
Ni0 P1 2.244953 1_455
Ni0 Yb0 2.995680 1_566
Ni0 Yb0 2.995680 1_666
Ni0 Yb0 2.995680 1_565
Ni0 Yb0 2.995680 1_555
Ni1 P0 2.244953 1_656
Ni1 P0 2.244953 1_555
Ni1 P1 2.244953 1_556
Ni1 P1 2.244953 1_545
Ni1 Yb0 2.995680 1_666
Ni1 Yb0 2.995680 1_655
Ni1 Yb0 2.995680 1_656
Ni1 Yb0 2.995680 1_555
P0 P1 2.253267 1_555
P0 Yb0 2.924256 1_554
P0 Yb0 2.924256 1_655
P0 Yb0 2.924256 1_565
P0 Yb0 2.924256 1_666
P1 Yb0 2.924256 1_554
P1 Yb0 2.924256 1_655
P1 Yb0 2.924256 1_565
P1 Yb0 2.924256 1_666
