# generated using pymatgen
data_Nd23Cd4Rh7
_symmetry_space_group_name_H-M   'P 1'
_cell_length_a   9.97379031
_cell_length_b   9.97374543
_cell_length_c   22.55705910
_cell_angle_alpha   90.00000000
_cell_angle_beta   90.00000000
_cell_angle_gamma   119.99985478
_symmetry_Int_Tables_number   1
_chemical_formula_structural   Nd23Cd4Rh7
_chemical_formula_sum   'Nd46 Cd8 Rh14'
_cell_volume   1943.26602076
_cell_formula_units_Z   2
loop_
 _symmetry_equiv_pos_site_id
 _symmetry_equiv_pos_as_xyz
  1  'x, y, z'
loop_
 _atom_site_type_symbol
 _atom_site_label
 _atom_site_symmetry_multiplicity
 _atom_site_fract_x
 _atom_site_fract_y
 _atom_site_fract_z
 _atom_site_occupancy
  Nd  Nd0  1  0.25344885  0.12672443  0.63515798  1
  Nd  Nd1  1  0.45896285  0.91792237  0.85573857  1
  Nd  Nd2  1  0.74655115  0.87327557  0.13515798  1
  Nd  Nd3  1  0.79235975  0.20760435  0.94697541  1
  Nd  Nd4  1  0.08208662  0.54104331  0.85573581  1
  Nd  Nd5  1  0.45971464  0.91941324  0.58573690  1
  Nd  Nd6  1  0.54028536  0.08058676  0.08573690  1
  Nd  Nd7  1  0.87327087  0.12671669  0.63515811  1
  Nd  Nd8  1  0.79861475  0.20136391  0.78271784  1
  Nd  Nd9  1  0.41524499  0.20762300  0.94697408  1
  Nd  Nd10  1  0.45896285  0.54104048  0.85573857  1
  Nd  Nd11  1  0.58657980  0.79328940  0.72106964  1
  Nd  Nd12  1  0.54103715  0.08207763  0.35573857  1
  Nd  Nd13  1  0.91938474  0.45969287  0.08573569  1
  Nd  Nd14  1  0.79135853  0.58275648  0.48896513  1
  Nd  Nd15  1  0.79328435  0.58658056  0.22107129  1
  Nd  Nd16  1  0.79135853  0.20860305  0.48896513  1
  Nd  Nd17  1  0.91791338  0.45895669  0.35573581  1
  Nd  Nd18  1  0.20764025  0.41524360  0.44697541  1
  Nd  Nd19  1  0.40272326  0.20136163  0.78272282  1
  Nd  Nd20  1  0.41342020  0.20671060  0.22106964  1
  Nd  Nd21  1  0.54103715  0.45895952  0.35573857  1
  Nd  Nd22  1  0.66665786  0.33332843  0.64673329  1
  Nd  Nd23  1  0.00001256  0.00000628  0.49513506  1
  Nd  Nd24  1  0.79861475  0.59725084  0.78271784  1
  Nd  Nd25  1  0.20764025  0.79239565  0.44697541  1
  Nd  Nd26  1  0.79235975  0.58475640  0.94697541  1
  Nd  Nd27  1  0.12672913  0.25344581  0.13515811  1
  Nd  Nd28  1  0.87327087  0.74655419  0.63515811  1
  Nd  Nd29  1  0.08061526  0.54030713  0.58573569  1
  Nd  Nd30  1  0.20864147  0.79139695  0.98896513  1
  Nd  Nd31  1  0.59727674  0.79863837  0.28272282  1
  Nd  Nd32  1  0.58475501  0.79237700  0.44697408  1
  Nd  Nd33  1  0.20671565  0.41341944  0.72107129  1
  Nd  Nd34  1  0.54028536  0.45969960  0.08573690  1
  Nd  Nd35  1  0.20671565  0.79329521  0.72107129  1
  Nd  Nd36  1  0.41724861  0.20862480  0.48897299  1
  Nd  Nd37  1  0.45971464  0.54030040  0.58573690  1
  Nd  Nd38  1  0.20864147  0.41724352  0.98896513  1
  Nd  Nd39  1  -0.00001256  -0.00000628  0.99513506  1
  Nd  Nd40  1  0.58275139  0.79137520  0.98897299  1
  Nd  Nd41  1  0.20138525  0.79863609  0.28271784  1
  Nd  Nd42  1  0.20138525  0.40274916  0.28271784  1
  Nd  Nd43  1  0.79328435  0.20670479  0.22107129  1
  Nd  Nd44  1  0.12672913  0.87328331  0.13515811  1
  Nd  Nd45  1  0.33334214  0.66667157  0.14673329  1
  Cd  Cd0  1  0.21162508  0.10581304  0.36282712  1
  Cd  Cd1  1  0.78837492  0.89418696  0.86282712  1
  Cd  Cd2  1  0.10580718  0.89422427  0.86283283  1
  Cd  Cd3  1  0.10580718  0.21158191  0.86283283  1
  Cd  Cd4  1  0.89419282  0.10577573  0.36283283  1
  Cd  Cd5  1  0.89419282  0.78841809  0.36283283  1
  Cd  Cd6  1  0.00004206  0.00002103  0.25039402  1
  Cd  Cd7  1  -0.00004206  -0.00002103  0.75039402  1
  Rh  Rh0  1  0.52084124  0.04170643  0.71165795  1
  Rh  Rh1  1  0.28548968  0.14274534  0.06255268  1
  Rh  Rh2  1  0.85723148  0.14269390  0.06255056  1
  Rh  Rh3  1  0.14276852  0.28546142  0.56255056  1
  Rh  Rh4  1  0.04172854  0.52086427  0.21165825  1
  Rh  Rh5  1  0.47915876  0.95829357  0.21165795  1
  Rh  Rh6  1  0.85723148  0.71453858  0.06255056  1
  Rh  Rh7  1  0.33338506  0.66669303  0.36320336  1
  Rh  Rh8  1  0.14276852  0.85730610  0.56255056  1
  Rh  Rh9  1  0.47915876  0.52086519  0.21165795  1
  Rh  Rh10  1  0.52084124  0.47913481  0.71165795  1
  Rh  Rh11  1  0.71451032  0.85725466  0.56255268  1
  Rh  Rh12  1  0.95827146  0.47913573  0.71165825  1
  Rh  Rh13  1  0.66661494  0.33330697  0.86320336  1
loop_
_geom_bond_atom_site_label_1
_geom_bond_atom_site_label_2
_geom_bond_distance
_geom_bond_site_symmetry_2
Nd0 Rh3 2.855739 1_555
Nd0 Rh8 2.855746 1_545
Nd0 Nd36 3.588214 1_555
Nd0 Rh10 3.615328 1_555
Nd0 Rh0 3.615328 1_555
Nd1 Rh0 3.421387 1_565
Nd1 Nd8 3.550227 1_565
Nd1 Nd19 3.550303 1_565
Nd1 Rh13 3.591846 1_565
Nd1 Nd30 3.702213 1_555
Nd1 Nd40 3.702424 1_555
Nd1 Nd35 3.738317 1_555
Nd1 Nd11 3.738355 1_555
Nd1 Nd3 3.746060 1_565
Nd1 Nd9 3.746199 1_565
Nd1 Nd4 3.758898 1_555
Nd1 Nd10 3.758924 1_555
Nd2 Rh6 2.855739 1_555
Nd2 Rh2 2.855746 1_565
Nd2 Nd40 3.588214 1_554
Nd2 Rh9 3.615328 1_555
Nd2 Rh5 3.615328 1_555
Nd3 Rh2 2.837828 1_556
Nd3 Rh13 2.878865 1_555
Nd3 Nd40 3.717941 1_545
Nd3 Nd38 3.718350 1_655
Nd3 Nd4 3.746448 1_655
Nd4 Rh12 3.421407 1_455
Nd4 Nd8 3.550443 1_455
Nd4 Rh13 3.592616 1_455
Nd5 Rh11 2.948119 1_555
Nd5 Rh8 2.948221 1_555
Nd5 Rh0 3.030464 1_565
Nd6 Rh1 2.948119 1_555
Nd6 Rh2 2.948221 1_555
Nd6 Rh5 3.030464 1_545
Nd7 Rh11 2.856031 1_545
Nd7 Rh3 2.856288 1_655
Nd7 Rh12 3.615439 1_555
Nd7 Rh0 3.615516 1_555
Nd8 Rh12 2.892863 1_555
Nd8 Rh0 2.892887 1_555
Nd8 Rh13 2.914388 1_555
Nd9 Rh1 2.837810 1_556
Nd9 Rh13 2.878348 1_555
Nd10 Rh10 3.421387 1_555
Nd10 Nd24 3.550227 1_555
Nd10 Nd19 3.550303 1_555
Nd10 Rh13 3.591855 1_555
Nd10 Nd38 3.702213 1_555
Nd10 Nd40 3.702419 1_555
Nd10 Nd33 3.738317 1_555
Nd10 Nd11 3.738350 1_555
Nd10 Nd26 3.746057 1_555
Nd10 Nd9 3.746191 1_555
Nd10 Nd4 3.758899 1_555
Nd11 Rh10 2.870217 1_555
Nd11 Rh0 2.870226 1_565
Nd12 Rh5 3.421387 1_545
Nd12 Nd41 3.550227 1_545
Nd12 Nd31 3.550303 1_545
Nd12 Rh7 3.591846 1_545
Nd12 Nd16 3.702213 1_555
Nd12 Nd36 3.702424 1_555
Nd12 Nd43 3.738317 1_555
Nd12 Nd20 3.738355 1_555
Nd12 Nd25 3.746060 1_545
Nd12 Nd32 3.746199 1_545
Nd12 Nd17 3.758898 1_555
Nd12 Nd21 3.758924 1_555
Nd13 Rh2 2.948562 1_555
Nd13 Rh6 2.948562 1_555
Nd13 Rh4 3.030650 1_655
Nd13 Nd30 3.806393 1_654
Nd13 Nd38 3.806403 1_654
Nd14 Nd28 3.588370 1_555
Nd14 Rh11 3.596752 1_555
Nd14 Rh8 3.597261 1_655
Nd14 Nd23 3.606694 1_665
Nd14 Nd21 3.702213 1_555
Nd14 Nd17 3.702426 1_555
Nd14 Nd32 3.717861 1_555
Nd14 Nd25 3.718350 1_655
Nd14 Nd36 3.731402 1_555
Nd14 Nd16 3.731711 1_555
Nd14 Nd37 3.805896 1_555
Nd14 Nd29 3.806403 1_655
Nd14 Nd22 4.160117 1_555
Nd15 Rh9 2.870025 1_555
Nd15 Rh4 2.870356 1_655
Nd15 Nd17 3.738289 1_555
Nd15 Nd21 3.738317 1_555
Nd16 Nd7 3.588373 1_555
Nd16 Rh11 3.596769 1_545
Nd16 Rh3 3.597267 1_655
Nd16 Nd23 3.606703 1_655
Nd16 Nd17 3.702421 1_555
Nd16 Nd32 3.717878 1_545
Nd16 Nd18 3.718350 1_655
Nd16 Nd36 3.731402 1_555
Nd16 Nd5 3.805902 1_545
Nd16 Nd29 3.806393 1_655
Nd16 Nd22 4.160109 1_555
Nd17 Rh4 3.421407 1_655
Nd17 Nd41 3.550443 1_655
Nd17 Nd42 3.550443 1_655
Nd17 Rh7 3.592616 1_655
Nd17 Nd43 3.738284 1_555
Nd17 Nd25 3.746448 1_655
Nd17 Nd18 3.746453 1_655
Nd17 Nd21 3.758899 1_555
Nd18 Rh3 2.837828 1_555
Nd18 Rh7 2.878878 1_555
Nd18 Nd36 3.717924 1_555
Nd18 Nd21 3.746057 1_555
Nd19 Rh10 2.892935 1_555
Nd19 Rh0 2.892935 1_555
Nd19 Rh13 2.913980 1_555
Nd20 Rh9 2.870217 1_555
Nd20 Rh5 2.870226 1_545
Nd20 Nd21 3.738350 1_555
Nd21 Rh9 3.421387 1_555
Nd21 Nd42 3.550227 1_555
Nd21 Nd31 3.550303 1_555
Nd21 Rh7 3.591855 1_555
Nd21 Nd36 3.702419 1_555
Nd21 Nd32 3.746191 1_555
Nd22 Rh12 2.913645 1_555
Nd22 Rh0 2.913694 1_555
Nd22 Rh10 2.913702 1_555
Nd22 Nd36 4.159887 1_555
Nd23 Rh3 2.896866 1_555
Nd23 Rh8 2.896873 1_545
Nd23 Rh11 2.897247 1_445
Nd23 Nd36 3.606584 1_555
Nd24 Rh12 2.892863 1_555
Nd24 Rh10 2.892887 1_555
Nd24 Rh13 2.914394 1_555
Nd24 Nd4 3.550443 1_655
Nd25 Rh8 2.837828 1_555
Nd25 Rh7 2.878865 1_555
Nd25 Nd36 3.717941 1_565
Nd26 Rh6 2.837828 1_556
Nd26 Rh13 2.878878 1_555
Nd26 Nd40 3.717924 1_555
Nd26 Nd30 3.718350 1_655
Nd26 Nd4 3.746453 1_655
Nd27 Rh1 2.856024 1_555
Nd27 Rh2 2.856289 1_455
Nd27 Nd38 3.588370 1_554
Nd27 Rh4 3.615439 1_555
Nd27 Rh9 3.615516 1_555
Nd28 Rh11 2.856024 1_555
Nd28 Rh8 2.856289 1_655
Nd28 Rh12 3.615439 1_555
Nd28 Rh10 3.615516 1_555
Nd29 Rh8 2.948562 1_555
Nd29 Rh3 2.948562 1_555
Nd29 Rh12 3.030650 1_455
Nd30 Nd44 3.588373 1_556
Nd30 Rh1 3.596769 1_566
Nd30 Rh6 3.597267 1_456
Nd30 Nd39 3.606703 1_565
Nd30 Nd4 3.702421 1_555
Nd30 Nd9 3.717878 1_565
Nd30 Nd40 3.731402 1_555
Nd30 Nd38 3.731711 1_555
Nd30 Nd6 3.805902 1_566
Nd30 Nd45 4.160109 1_556
Nd31 Rh9 2.892935 1_555
Nd31 Rh5 2.892935 1_555
Nd31 Rh7 2.913980 1_555
Nd32 Rh11 2.837810 1_555
Nd32 Rh7 2.878348 1_555
Nd33 Rh10 2.870025 1_555
Nd33 Rh12 2.870356 1_455
Nd33 Nd4 3.738289 1_555
Nd34 Rh1 2.948119 1_555
Nd34 Rh6 2.948221 1_555
Nd34 Rh9 3.030461 1_555
Nd34 Nd38 3.805896 1_554
Nd34 Nd40 3.806006 1_554
Nd35 Rh0 2.870028 1_565
Nd35 Rh12 2.870349 1_455
Nd35 Nd4 3.738284 1_555
Nd36 Rh3 3.596431 1_555
Nd36 Rh8 3.596443 1_545
Nd36 Nd37 3.806006 1_555
Nd36 Nd5 3.806023 1_545
Nd37 Rh11 2.948119 1_555
Nd37 Rh3 2.948221 1_555
Nd37 Rh10 3.030461 1_555
Nd38 Rh1 3.596752 1_556
Nd38 Rh2 3.597261 1_456
Nd38 Nd39 3.606694 1_555
Nd38 Nd4 3.702426 1_555
Nd38 Nd9 3.717861 1_555
Nd38 Nd40 3.731402 1_555
Nd38 Nd45 4.160117 1_556
Nd39 Rh6 2.896866 1_446
Nd39 Rh2 2.896873 1_456
Nd39 Rh1 2.897247 1_556
Nd39 Nd40 3.606584 1_445
Nd40 Rh6 3.596431 1_556
Nd40 Rh2 3.596443 1_566
Nd40 Nd6 3.806023 1_566
Nd40 Nd45 4.159887 1_556
Nd41 Rh4 2.892863 1_555
Nd41 Rh5 2.892887 1_555
Nd41 Rh7 2.914388 1_555
Nd42 Rh4 2.892863 1_555
Nd42 Rh9 2.892887 1_555
Nd42 Rh7 2.914394 1_555
Nd43 Rh5 2.870028 1_545
Nd43 Rh4 2.870349 1_655
Nd44 Rh1 2.856031 1_565
Nd44 Rh6 2.856288 1_455
Nd44 Rh4 3.615439 1_555
Nd44 Rh5 3.615516 1_555
Nd45 Rh4 2.913645 1_555
Nd45 Rh5 2.913694 1_555
Nd45 Rh9 2.913702 1_555
Cd0 Cd6 3.126035 1_555
Cd0 Cd5 3.165817 1_445
Cd0 Cd4 3.165817 1_455
Cd0 Nd36 3.354287 1_555
Cd0 Nd21 3.413761 1_555
Cd0 Nd12 3.413767 1_555
Cd0 Nd23 3.499718 1_555
Cd0 Nd42 3.514131 1_555
Cd0 Nd41 3.514140 1_545
Cd0 Nd18 3.640286 1_555
Cd0 Nd25 3.640303 1_545
Cd0 Nd20 3.641835 1_555
Cd1 Cd7 3.126035 1_665
Cd1 Cd3 3.165817 1_665
Cd1 Cd2 3.165817 1_655
Cd1 Nd40 3.354287 1_555
Cd1 Nd10 3.413761 1_555
Cd1 Nd1 3.413767 1_555
Cd1 Nd39 3.499718 1_665
Cd1 Nd24 3.514131 1_555
Cd1 Nd8 3.514140 1_565
Cd1 Nd26 3.640286 1_555
Cd1 Nd3 3.640303 1_565
Cd1 Nd11 3.641835 1_555
Cd2 Cd7 3.126240 1_565
Cd2 Cd3 3.165244 1_565
Cd2 Nd30 3.354197 1_555
Cd2 Nd1 3.414023 1_555
Cd2 Nd4 3.414161 1_555
Cd2 Nd39 3.499499 1_565
Cd2 Nd19 3.513896 1_565
Cd2 Nd24 3.514435 1_455
Cd2 Nd9 3.640173 1_565
Cd2 Nd26 3.640525 1_455
Cd2 Nd35 3.642087 1_555
Cd3 Cd7 3.126235 1_555
Cd3 Nd38 3.354197 1_555
Cd3 Nd10 3.414027 1_555
Cd3 Nd4 3.414171 1_555
Cd3 Nd39 3.499494 1_555
Cd3 Nd19 3.513892 1_555
Cd3 Nd8 3.514439 1_455
Cd3 Nd9 3.640164 1_555
Cd3 Nd3 3.640534 1_455
Cd3 Nd33 3.642087 1_555
Cd4 Cd6 3.126240 1_655
Cd4 Cd5 3.165244 1_545
Cd4 Nd16 3.354197 1_555
Cd4 Nd12 3.414023 1_555
Cd4 Nd17 3.414161 1_555
Cd4 Nd23 3.499499 1_655
Cd4 Nd31 3.513896 1_545
Cd4 Nd42 3.514435 1_655
Cd4 Nd32 3.640173 1_545
Cd4 Nd18 3.640525 1_655
Cd4 Nd43 3.642087 1_555
Cd5 Cd6 3.126235 1_665
Cd5 Nd14 3.354197 1_555
Cd5 Nd21 3.414027 1_555
Cd5 Nd17 3.414171 1_555
Cd5 Nd23 3.499494 1_665
Cd5 Nd31 3.513892 1_555
Cd5 Nd41 3.514439 1_655
Cd5 Nd32 3.640164 1_555
Cd5 Nd25 3.640534 1_655
Cd5 Nd15 3.642087 1_555
Cd6 Nd27 3.398287 1_555
Cd6 Nd44 3.398287 1_545
Cd6 Nd2 3.398664 1_445
Cd6 Nd42 3.554170 1_555
Cd6 Nd41 3.554170 1_545
Cd6 Nd31 3.554523 1_445
Cd6 Nd20 3.631336 1_555
Cd6 Nd15 3.631843 1_445
Cd6 Nd43 3.631851 1_455
Cd7 Nd28 3.398287 1_445
Cd7 Nd7 3.398287 1_455
Cd7 Nd0 3.398664 1_555
Cd7 Nd24 3.554170 1_445
Cd7 Nd8 3.554170 1_455
Cd7 Nd19 3.554523 1_555
Cd7 Nd11 3.631336 1_445
Cd7 Nd33 3.631843 1_555
Cd7 Nd35 3.631851 1_545
