# generated using pymatgen
data_CaSb10(S3O5)2
_symmetry_space_group_name_H-M   'P 1'
_cell_length_a   13.27253478
_cell_length_b   13.27253478
_cell_length_c   17.24906491
_cell_angle_alpha   62.98633803
_cell_angle_beta   62.98633803
_cell_angle_gamma   25.08866844
_symmetry_Int_Tables_number   1
_chemical_formula_structural   CaSb10(S3O5)2
_chemical_formula_sum   'Ca2 Sb20 S12 O20'
_cell_volume   1140.44820694
_cell_formula_units_Z   2
loop_
 _symmetry_equiv_pos_site_id
 _symmetry_equiv_pos_as_xyz
  1  'x, y, z'
loop_
 _atom_site_type_symbol
 _atom_site_label
 _atom_site_symmetry_multiplicity
 _atom_site_fract_x
 _atom_site_fract_y
 _atom_site_fract_z
 _atom_site_occupancy
  Ca  Ca0  1  0.54975800  0.45024200  0.75000000  1
  Ca  Ca1  1  0.45024200  0.54975800  0.25000000  1
  Sb  Sb0  1  0.95720400  0.94716600  0.91075800  1
  Sb  Sb1  1  0.05283400  0.04279600  0.58924200  1
  Sb  Sb2  1  0.04279600  0.05283400  0.08924200  1
  Sb  Sb3  1  0.94716600  0.95720400  0.41075800  1
  Sb  Sb4  1  0.61759300  0.50235300  0.91533500  1
  Sb  Sb5  1  0.49764700  0.38240700  0.58466500  1
  Sb  Sb6  1  0.38240700  0.49764700  0.08466500  1
  Sb  Sb7  1  0.50235300  0.61759300  0.41533500  1
  Sb  Sb8  1  0.01364600  0.79110100  0.75209200  1
  Sb  Sb9  1  0.20889900  0.98635400  0.74790800  1
  Sb  Sb10  1  0.98635400  0.20889900  0.24790800  1
  Sb  Sb11  1  0.79110100  0.01364600  0.25209200  1
  Sb  Sb12  1  0.78120300  0.54873100  0.54790300  1
  Sb  Sb13  1  0.45126900  0.21879700  0.95209700  1
  Sb  Sb14  1  0.21879700  0.45126900  0.45209700  1
  Sb  Sb15  1  0.54873100  0.78120300  0.04790300  1
  Sb  Sb16  1  0.13396400  0.32085700  0.86616400  1
  Sb  Sb17  1  0.67914300  0.86603600  0.63383600  1
  Sb  Sb18  1  0.86603600  0.67914300  0.13383600  1
  Sb  Sb19  1  0.32085700  0.13396400  0.36616400  1
  S  S0  1  0.81409900  0.77466600  0.97469800  1
  S  S1  1  0.22533400  0.18590100  0.52530200  1
  S  S2  1  0.18590100  0.22533400  0.02530200  1
  S  S3  1  0.77466600  0.81409900  0.47469800  1
  S  S4  1  0.74295900  0.60035100  0.68834100  1
  S  S5  1  0.39964900  0.25704100  0.81165900  1
  S  S6  1  0.25704100  0.39964900  0.31165900  1
  S  S7  1  0.60035100  0.74295900  0.18834100  1
  S  S8  1  0.06612900  0.58220800  0.64360100  1
  S  S9  1  0.41779200  0.93387100  0.85639900  1
  S  S10  1  0.93387100  0.41779200  0.35639900  1
  S  S11  1  0.58220800  0.06612900  0.14360100  1
  O  O0  1  0.69675100  0.35156100  0.51765300  1
  O  O1  1  0.64843900  0.30324900  0.98234700  1
  O  O2  1  0.30324900  0.64843900  0.48234700  1
  O  O3  1  0.35156100  0.69675100  0.01765300  1
  O  O4  1  0.82873200  0.33687800  0.62771900  1
  O  O5  1  0.66312200  0.17126800  0.87228100  1
  O  O6  1  0.17126800  0.66312200  0.37228100  1
  O  O7  1  0.33687800  0.82873200  0.12771900  1
  O  O8  1  0.31185600  0.60094800  0.66471000  1
  O  O9  1  0.39905200  0.68814400  0.83529000  1
  O  O10  1  0.68814400  0.39905200  0.33529000  1
  O  O11  1  0.60094800  0.31185600  0.16471000  1
  O  O12  1  0.15879400  0.71768700  0.82682400  1
  O  O13  1  0.28231300  0.84120600  0.67317600  1
  O  O14  1  0.84120600  0.28231300  0.17317600  1
  O  O15  1  0.71768700  0.15879400  0.32682400  1
  O  O16  1  0.91112700  0.15050500  0.82104800  1
  O  O17  1  0.84949500  0.08887300  0.67895200  1
  O  O18  1  0.08887300  0.84949500  0.17895200  1
  O  O19  1  0.15050500  0.91112700  0.32104800  1
loop_
_geom_bond_atom_site_label_1
_geom_bond_atom_site_label_2
_geom_bond_distance
_geom_bond_site_symmetry_2
Ca0 O12 2.438415 1_555
Ca0 O13 2.438415 1_555
Ca0 O4 2.473868 1_555
Ca0 O5 2.473868 1_555
Ca0 O9 2.498431 1_555
Ca0 O8 2.498431 1_555
Ca0 O16 2.584986 1_555
Ca0 O17 2.584986 1_555
Ca1 O14 2.438415 1_555
Ca1 O15 2.438415 1_555
Ca1 O7 2.473868 1_555
Ca1 O6 2.473868 1_555
Ca1 O10 2.498431 1_555
Ca1 O11 2.498431 1_555
Ca1 O19 2.584986 1_555
Ca1 O18 2.584986 1_555
S0 Sb13 2.508134 1_565
S0 Sb18 2.567485 1_556
S0 Sb15 3.084341 1_556
S1 Sb12 2.508134 1_455
S1 Sb19 2.567485 1_555
S1 Sb14 3.084341 1_555
S2 Sb15 2.508134 1_545
S2 Sb16 2.567485 1_554
S2 Sb13 3.084341 1_554
S3 Sb14 2.508134 1_655
S3 Sb17 2.567485 1_555
S3 Sb12 3.084341 1_555
S4 Sb17 2.517529 1_555
S4 Sb12 2.521101 1_555
S5 Sb16 2.517529 1_555
S5 Sb13 2.521101 1_555
S6 Sb19 2.517529 1_555
S6 Sb14 2.521101 1_555
S7 Sb18 2.517529 1_555
S7 Sb15 2.521101 1_555
S8 Sb17 2.400737 1_455
S9 Sb16 2.400737 1_565
S10 Sb19 2.400737 1_655
S11 Sb18 2.400737 1_545
O0 Sb5 2.045128 1_555
O0 Sb7 2.052695 1_555
O0 Sb1 2.505674 1_655
O1 Sb4 2.045128 1_555
O1 Sb6 2.052695 1_556
O1 Sb0 2.505674 1_545
O2 Sb7 2.045128 1_555
O2 Sb5 2.052695 1_555
O2 Sb3 2.505674 1_455
O3 Sb6 2.045128 1_555
O3 Sb4 2.052695 1_554
O3 Sb2 2.505674 1_565
O4 Sb1 2.013419 1_655
O4 Sb12 2.063790 1_555
O5 Sb0 2.013419 1_545
O5 Sb13 2.063790 1_555
O6 Sb3 2.013419 1_455
O6 Sb14 2.063790 1_555
O7 Sb2 2.013419 1_565
O7 Sb15 2.063790 1_555
O8 Sb5 1.997530 1_555
O8 Sb8 2.061541 1_555
O9 Sb4 1.997530 1_555
O9 Sb9 2.061541 1_555
O10 Sb7 1.997530 1_555
O10 Sb10 2.061541 1_555
O11 Sb6 1.997530 1_555
O11 Sb11 2.061541 1_555
O12 Sb8 2.009289 1_555
O12 Sb0 2.063405 1_455
O13 Sb9 2.009289 1_555
O13 Sb1 2.063405 1_565
O14 Sb10 2.009289 1_555
O14 Sb2 2.063405 1_655
O15 Sb11 2.009289 1_555
O15 Sb3 2.063405 1_545
O16 Sb0 2.031890 1_545
O16 Sb9 2.080668 1_645
O17 Sb1 2.031890 1_655
O17 Sb8 2.080668 1_645
O18 Sb2 2.031890 1_565
O18 Sb11 2.080668 1_465
O19 Sb3 2.031890 1_455
O19 Sb10 2.080668 1_465
