# generated using pymatgen
data_CeNiSb3
_symmetry_space_group_name_H-M   'P 1'
_cell_length_a   6.26032000
_cell_length_b   12.47588300
_cell_length_c   18.48736100
_cell_angle_alpha   90.00000000
_cell_angle_beta   90.00000000
_cell_angle_gamma   90.00000000
_symmetry_Int_Tables_number   1
_chemical_formula_structural   CeNiSb3
_chemical_formula_sum   'Ce12 Ni12 Sb36'
_cell_volume   1443.91872339
_cell_formula_units_Z   12
loop_
 _symmetry_equiv_pos_site_id
 _symmetry_equiv_pos_as_xyz
  1  'x, y, z'
loop_
 _atom_site_type_symbol
 _atom_site_label
 _atom_site_symmetry_multiplicity
 _atom_site_fract_x
 _atom_site_fract_y
 _atom_site_fract_z
 _atom_site_occupancy
  Ce  Ce0  1  0.93936200  0.30513700  0.25000000  1
  Ce  Ce1  1  0.47314600  0.29992900  0.41645100  1
  Ce  Ce2  1  0.52685400  0.70007100  0.58354900  1
  Ce  Ce3  1  0.47314600  0.29992900  0.08354900  1
  Ce  Ce4  1  0.02685400  0.29992900  0.91645100  1
  Ce  Ce5  1  0.43936200  0.69486300  0.25000000  1
  Ce  Ce6  1  0.97314600  0.70007100  0.08354900  1
  Ce  Ce7  1  0.02685400  0.29992900  0.58354900  1
  Ce  Ce8  1  0.97314600  0.70007100  0.41645100  1
  Ce  Ce9  1  0.56063800  0.30513700  0.75000000  1
  Ce  Ce10  1  0.52685400  0.70007100  0.91645100  1
  Ce  Ce11  1  0.06063800  0.69486300  0.75000000  1
  Ni  Ni0  1  0.82618600  0.89946300  0.82394400  1
  Ni  Ni1  1  0.17381400  0.10053700  0.17605600  1
  Ni  Ni2  1  0.67381400  0.89946300  0.17605600  1
  Ni  Ni3  1  0.25000000  0.89499400  0.00000000  1
  Ni  Ni4  1  0.17381400  0.10053700  0.32394400  1
  Ni  Ni5  1  0.32618600  0.10053700  0.67605600  1
  Ni  Ni6  1  0.32618600  0.10053700  0.82394400  1
  Ni  Ni7  1  0.75000000  0.10500600  0.00000000  1
  Ni  Ni8  1  0.75000000  0.10500600  0.50000000  1
  Ni  Ni9  1  0.25000000  0.89499400  0.50000000  1
  Ni  Ni10  1  0.67381400  0.89946300  0.32394400  1
  Ni  Ni11  1  0.82618600  0.89946300  0.67605600  1
  Sb  Sb0  1  0.70481800  0.50326100  0.33389400  1
  Sb  Sb1  1  0.02546800  0.77035800  0.58439100  1
  Sb  Sb2  1  0.79518200  0.50326100  0.66610600  1
  Sb  Sb3  1  0.95915100  0.97184300  0.41332400  1
  Sb  Sb4  1  0.47453200  0.77035800  0.08439100  1
  Sb  Sb5  1  0.04084900  0.02815700  0.58667600  1
  Sb  Sb6  1  0.20481800  0.49673900  0.16610600  1
  Sb  Sb7  1  0.47453200  0.77035800  0.41560900  1
  Sb  Sb8  1  0.31713200  0.94067000  0.25000000  1
  Sb  Sb9  1  0.52546800  0.22964200  0.58439100  1
  Sb  Sb10  1  0.25000000  0.50362700  0.50000000  1
  Sb  Sb11  1  0.54084900  0.97184300  0.91332400  1
  Sb  Sb12  1  0.29518200  0.49673900  0.66610600  1
  Sb  Sb13  1  0.06086800  0.22989200  0.75000000  1
  Sb  Sb14  1  0.68286800  0.05933000  0.75000000  1
  Sb  Sb15  1  0.95915100  0.97184300  0.08667600  1
  Sb  Sb16  1  0.43913200  0.22989200  0.25000000  1
  Sb  Sb17  1  0.56086800  0.77010800  0.75000000  1
  Sb  Sb18  1  0.93913200  0.77010800  0.25000000  1
  Sb  Sb19  1  0.02546800  0.77035800  0.91560900  1
  Sb  Sb20  1  0.20481800  0.49673900  0.33389400  1
  Sb  Sb21  1  0.29518200  0.49673900  0.83389400  1
  Sb  Sb22  1  0.54084900  0.97184300  0.58667600  1
  Sb  Sb23  1  0.52546800  0.22964200  0.91560900  1
  Sb  Sb24  1  0.75000000  0.49637300  0.00000000  1
  Sb  Sb25  1  0.18286800  0.94067000  0.75000000  1
  Sb  Sb26  1  0.97453200  0.22964200  0.08439100  1
  Sb  Sb27  1  0.04084900  0.02815700  0.91332400  1
  Sb  Sb28  1  0.97453200  0.22964200  0.41560900  1
  Sb  Sb29  1  0.45915100  0.02815700  0.41332400  1
  Sb  Sb30  1  0.25000000  0.50362700  0.00000000  1
  Sb  Sb31  1  0.81713200  0.05933000  0.25000000  1
  Sb  Sb32  1  0.79518200  0.50326100  0.83389400  1
  Sb  Sb33  1  0.70481800  0.50326100  0.16610600  1
  Sb  Sb34  1  0.75000000  0.49637300  0.50000000  1
  Sb  Sb35  1  0.45915100  0.02815700  0.08667600  1
loop_
_geom_bond_atom_site_label_1
_geom_bond_atom_site_label_2
_geom_bond_distance
_geom_bond_site_symmetry_2
Ce0 Sb31 3.160685 1_555
Ce0 Sb26 3.210831 1_555
Ce0 Sb28 3.210831 1_555
Ce0 Ni1 3.246326 1_655
Ce0 Ni4 3.246326 1_655
Ce0 Sb16 3.266518 1_655
Ce0 Sb0 3.266674 1_555
Ce0 Sb33 3.266674 1_555
Ce0 Sb16 3.269276 1_555
Ce0 Sb6 3.298678 1_655
Ce0 Sb20 3.298678 1_655
Ce1 Sb16 3.205967 1_555
Ce1 Sb28 3.242351 1_455
Ce1 Sb9 3.242809 1_555
Ce1 Sb28 3.259061 1_555
Ce1 Sb10 3.285662 1_555
Ce1 Sb0 3.296671 1_555
Ce1 Sb20 3.343673 1_555
Ce1 Ni8 3.362080 1_555
Ce1 Sb34 3.375831 1_555
Ce1 Sb29 3.392220 1_555
Ce1 Ni4 3.553095 1_555
Ce2 Sb17 3.205967 1_555
Ce2 Sb1 3.242351 1_655
Ce2 Sb7 3.242809 1_555
Ce2 Sb1 3.259061 1_555
Ce2 Sb34 3.285662 1_555
Ce2 Sb12 3.296671 1_555
Ce2 Sb2 3.343673 1_555
Ce2 Ni9 3.362080 1_555
Ce2 Sb10 3.375831 1_555
Ce2 Sb22 3.392220 1_555
Ce2 Ni11 3.553095 1_555
Ce3 Sb16 3.205967 1_555
Ce3 Sb26 3.242351 1_455
Ce3 Sb23 3.242809 1_554
Ce3 Sb26 3.259061 1_555
Ce3 Sb30 3.285662 1_555
Ce3 Sb33 3.296671 1_555
Ce3 Sb6 3.343673 1_555
Ce3 Ni7 3.362080 1_555
Ce3 Sb24 3.375831 1_555
Ce3 Sb35 3.392220 1_555
Ce3 Ni1 3.553095 1_555
Ce4 Sb13 3.205967 1_555
Ce4 Sb23 3.242351 1_555
Ce4 Sb26 3.242809 1_456
Ce4 Sb23 3.259061 1_455
Ce4 Sb30 3.285662 1_556
Ce4 Sb32 3.296671 1_455
Ce4 Sb21 3.343673 1_555
Ce4 Ni7 3.362080 1_456
Ce4 Sb24 3.375831 1_456
Ce4 Sb27 3.392220 1_555
Ce4 Ni6 3.553095 1_555
Ce5 Sb8 3.160685 1_555
Ce5 Sb7 3.210831 1_555
Ce5 Sb4 3.210831 1_555
Ce5 Ni2 3.246326 1_555
Ce5 Ni10 3.246326 1_555
Ce5 Sb18 3.266518 1_555
Ce5 Sb6 3.266674 1_555
Ce5 Sb20 3.266674 1_555
Ce5 Sb18 3.269276 1_455
Ce5 Sb33 3.298678 1_555
Ce5 Sb0 3.298678 1_555
Ce6 Sb18 3.205967 1_555
Ce6 Sb4 3.242351 1_555
Ce6 Sb19 3.242809 1_654
Ce6 Sb4 3.259061 1_655
Ce6 Sb24 3.285662 1_555
Ce6 Sb6 3.296671 1_655
Ce6 Sb33 3.343673 1_555
Ce6 Ni3 3.362080 1_655
Ce6 Sb30 3.375831 1_655
Ce6 Sb15 3.392220 1_555
Ce6 Ni2 3.553095 1_555
Ce7 Sb13 3.205967 1_555
Ce7 Sb9 3.242351 1_555
Ce7 Sb28 3.242809 1_455
Ce7 Sb9 3.259061 1_455
Ce7 Sb10 3.285662 1_555
Ce7 Sb2 3.296671 1_455
Ce7 Sb12 3.343673 1_555
Ce7 Ni8 3.362080 1_455
Ce7 Sb34 3.375831 1_455
Ce7 Sb5 3.392220 1_555
Ce7 Ni5 3.553095 1_555
Ce8 Sb18 3.205967 1_555
Ce8 Sb7 3.242351 1_555
Ce8 Sb1 3.242809 1_655
Ce8 Sb7 3.259061 1_655
Ce8 Sb34 3.285662 1_555
Ce8 Sb20 3.296671 1_655
Ce8 Sb0 3.343673 1_555
Ce8 Ni9 3.362080 1_655
Ce8 Sb10 3.375831 1_655
Ce8 Sb3 3.392220 1_555
Ce8 Ni10 3.553095 1_555
Ce9 Sb14 3.160685 1_555
Ce9 Sb23 3.210831 1_555
Ce9 Sb9 3.210831 1_555
Ce9 Ni6 3.246326 1_555
Ce9 Ni5 3.246326 1_555
Ce9 Sb13 3.266518 1_555
Ce9 Sb2 3.266674 1_555
Ce9 Sb32 3.266674 1_555
Ce9 Sb13 3.269276 1_655
Ce9 Sb12 3.298678 1_555
Ce9 Sb21 3.298678 1_555
Ce10 Sb17 3.205967 1_555
Ce10 Sb19 3.242351 1_655
Ce10 Sb4 3.242809 1_556
Ce10 Sb19 3.259061 1_555
Ce10 Sb24 3.285662 1_556
Ce10 Sb21 3.296671 1_555
Ce10 Sb32 3.343673 1_555
Ce10 Ni3 3.362080 1_556
Ce10 Sb30 3.375831 1_556
Ce10 Sb11 3.392220 1_555
Ce10 Ni0 3.553095 1_555
Ce11 Sb25 3.160685 1_555
Ce11 Sb1 3.210831 1_555
Ce11 Sb19 3.210831 1_555
Ce11 Ni0 3.246326 1_455
Ce11 Ni11 3.246326 1_455
Ce11 Sb17 3.266518 1_455
Ce11 Sb21 3.266674 1_555
Ce11 Sb12 3.266674 1_555
Ce11 Sb17 3.269276 1_555
Ce11 Sb2 3.298678 1_455
Ce11 Sb32 3.298678 1_455
Ni0 Sb14 2.579094 1_565
Ni0 Sb11 2.595518 1_555
Ni0 Sb19 2.650018 1_655
Ni0 Sb27 2.667254 1_665
Ni0 Sb25 2.668164 1_655
Ni0 Sb17 2.689241 1_555
Ni0 Ni11 2.734059 1_555
Ni1 Sb8 2.579094 1_545
Ni1 Sb35 2.595518 1_555
Ni1 Sb26 2.650018 1_455
Ni1 Sb15 2.667254 1_445
Ni1 Sb31 2.668164 1_455
Ni1 Sb16 2.689241 1_555
Ni1 Ni4 2.734059 1_555
Ni2 Sb31 2.579094 1_565
Ni2 Sb15 2.595518 1_555
Ni2 Sb4 2.650018 1_555
Ni2 Sb35 2.667254 1_565
Ni2 Sb8 2.668164 1_555
Ni2 Sb18 2.689241 1_555
Ni3 Sb11 2.608118 1_554
Ni3 Sb15 2.608118 1_455
Ni3 Sb19 2.613006 1_554
Ni3 Sb4 2.613006 1_555
Ni3 Sb27 2.653701 1_564
Ni3 Sb35 2.653701 1_565
Ni4 Sb8 2.579094 1_545
Ni4 Sb29 2.595518 1_555
Ni4 Sb28 2.650018 1_455
Ni4 Sb3 2.667254 1_445
Ni4 Sb31 2.668164 1_455
Ni4 Sb16 2.689241 1_555
Ni5 Sb25 2.579094 1_545
Ni5 Sb5 2.595518 1_555
Ni5 Sb9 2.650018 1_555
Ni5 Sb22 2.667254 1_545
Ni5 Sb14 2.668164 1_555
Ni5 Sb13 2.689241 1_555
Ni5 Ni6 2.734059 1_555
Ni6 Sb25 2.579094 1_545
Ni6 Sb27 2.595518 1_555
Ni6 Sb23 2.650018 1_555
Ni6 Sb11 2.667254 1_545
Ni6 Sb14 2.668164 1_555
Ni6 Sb13 2.689241 1_555
Ni7 Sb27 2.608118 1_654
Ni7 Sb35 2.608118 1_555
Ni7 Sb23 2.613006 1_554
Ni7 Sb26 2.613006 1_555
Ni7 Sb11 2.653701 1_544
Ni7 Sb15 2.653701 1_545
Ni8 Sb5 2.608118 1_655
Ni8 Sb29 2.608118 1_555
Ni8 Sb9 2.613006 1_555
Ni8 Sb28 2.613006 1_555
Ni8 Sb22 2.653701 1_545
Ni8 Sb3 2.653701 1_545
Ni9 Sb22 2.608118 1_555
Ni9 Sb3 2.608118 1_455
Ni9 Sb7 2.613006 1_555
Ni9 Sb1 2.613006 1_555
Ni9 Sb29 2.653701 1_565
Ni9 Sb5 2.653701 1_565
Ni10 Sb31 2.579094 1_565
Ni10 Sb3 2.595518 1_555
Ni10 Sb7 2.650018 1_555
Ni10 Sb29 2.667254 1_565
Ni10 Sb8 2.668164 1_555
Ni10 Sb18 2.689241 1_555
Ni10 Ni2 2.734059 1_555
Ni11 Sb14 2.579094 1_565
Ni11 Sb22 2.595518 1_555
Ni11 Sb1 2.650018 1_655
Ni11 Sb5 2.667254 1_665
Ni11 Sb25 2.668164 1_655
Ni11 Sb17 2.689241 1_555
Sb0 Sb34 3.085058 1_555
Sb0 Sb33 3.101957 1_555
Sb0 Sb20 3.131217 1_555
Sb0 Sb20 3.131217 1_655
Sb2 Sb34 3.085058 1_555
Sb2 Sb32 3.101957 1_555
Sb10 Sb20 3.085058 1_555
Sb10 Sb12 3.085058 1_555
Sb10 Sb34 3.131468 1_555
Sb10 Sb34 3.131468 1_455
Sb12 Sb21 3.101957 1_555
Sb12 Sb2 3.131217 1_455
Sb12 Sb2 3.131217 1_555
Sb13 Sb14 3.182430 1_455
Sb16 Sb31 3.182430 1_555
Sb17 Sb25 3.182430 1_555
Sb18 Sb8 3.182430 1_655
Sb20 Sb6 3.101957 1_555
Sb21 Sb30 3.085058 1_556
Sb21 Sb32 3.131217 1_455
Sb21 Sb32 3.131217 1_555
Sb24 Sb32 3.085058 1_554
Sb24 Sb33 3.085058 1_555
Sb24 Sb30 3.131468 1_555
Sb24 Sb30 3.131468 1_655
Sb30 Sb6 3.085058 1_555
Sb33 Sb6 3.131217 1_555
Sb33 Sb6 3.131217 1_655
