# generated using pymatgen
data_BaLa2Te5O14
_symmetry_space_group_name_H-M   'P 1'
_cell_length_a   10.18076844
_cell_length_b   10.18076844
_cell_length_c   13.42786067
_cell_angle_alpha   73.05347115
_cell_angle_beta   73.05347115
_cell_angle_gamma   34.84693638
_symmetry_Int_Tables_number   1
_chemical_formula_structural   BaLa2Te5O14
_chemical_formula_sum   'Ba2 La4 Te10 O28'
_cell_volume   757.22115791
_cell_formula_units_Z   2
loop_
 _symmetry_equiv_pos_site_id
 _symmetry_equiv_pos_as_xyz
  1  'x, y, z'
loop_
 _atom_site_type_symbol
 _atom_site_label
 _atom_site_symmetry_multiplicity
 _atom_site_fract_x
 _atom_site_fract_y
 _atom_site_fract_z
 _atom_site_occupancy
  Ba  Ba0  1  0.50000000  0.00000000  0.00000000  1
  Ba  Ba1  1  0.00000000  0.50000000  0.50000000  1
  La  La0  1  0.89638700  0.45193400  0.83167100  1
  La  La1  1  0.10361300  0.54806600  0.16832900  1
  La  La2  1  0.54806600  0.10361300  0.66832900  1
  La  La3  1  0.45193400  0.89638700  0.33167100  1
  Te  Te0  1  0.69916600  0.19271200  0.02951400  1
  Te  Te1  1  0.88987100  0.39686000  0.16057700  1
  Te  Te2  1  0.60314000  0.11012900  0.33942300  1
  Te  Te3  1  0.30083400  0.80728800  0.97048600  1
  Te  Te4  1  0.80728800  0.30083400  0.47048600  1
  Te  Te5  1  0.19271200  0.69916600  0.52951400  1
  Te  Te6  1  0.78837300  0.21162700  0.75000000  1
  Te  Te7  1  0.21162700  0.78837300  0.25000000  1
  Te  Te8  1  0.39686000  0.88987100  0.66057700  1
  Te  Te9  1  0.11012900  0.60314000  0.83942300  1
  O  O0  1  0.97331800  0.89680600  0.08831900  1
  O  O1  1  0.53173700  0.34811300  0.70673900  1
  O  O2  1  0.21696900  0.18800100  0.68045900  1
  O  O3  1  0.46826300  0.65188700  0.29326100  1
  O  O4  1  0.31786900  0.25675400  0.32861800  1
  O  O5  1  0.34811300  0.53173700  0.20673900  1
  O  O6  1  0.12715100  0.70837400  0.40447400  1
  O  O7  1  0.51165700  0.19192700  0.10769700  1
  O  O8  1  0.70837400  0.12715100  0.90447400  1
  O  O9  1  0.78303100  0.81199900  0.31954100  1
  O  O10  1  0.80807300  0.48834300  0.39230300  1
  O  O11  1  0.42742400  0.90922400  0.51378500  1
  O  O12  1  0.68213100  0.74324600  0.67138200  1
  O  O13  1  0.81199900  0.78303100  0.81954100  1
  O  O14  1  0.29162600  0.87284900  0.09552600  1
  O  O15  1  0.18800100  0.21696900  0.18045900  1
  O  O16  1  0.02668200  0.10319400  0.91168100  1
  O  O17  1  0.87284900  0.29162600  0.59552600  1
  O  O18  1  0.25675400  0.31786900  0.82861800  1
  O  O19  1  0.89680600  0.97331800  0.58831900  1
  O  O20  1  0.10319400  0.02668200  0.41168100  1
  O  O21  1  0.65188700  0.46826300  0.79326100  1
  O  O22  1  0.57257600  0.09077600  0.48621500  1
  O  O23  1  0.74324600  0.68213100  0.17138200  1
  O  O24  1  0.19192700  0.51165700  0.60769700  1
  O  O25  1  0.48834300  0.80807300  0.89230300  1
  O  O26  1  0.90922400  0.42742400  0.01378500  1
  O  O27  1  0.09077600  0.57257600  0.98621500  1
loop_
_geom_bond_atom_site_label_1
_geom_bond_atom_site_label_2
_geom_bond_distance
_geom_bond_site_symmetry_2
Ba0 O23 2.779941 1_545
Ba0 O18 2.779941 1_554
Ba0 O15 2.820898 1_555
Ba0 O13 2.820898 1_544
Ba0 O7 2.837485 1_555
Ba0 O25 2.837485 1_544
Ba0 O8 3.126430 1_554
Ba0 O14 3.126430 1_545
Ba0 O27 3.366064 1_554
Ba0 O26 3.366064 1_545
Ba0 O27 3.465100 1_644
Ba0 O26 3.465100 1_455
Ba1 O12 2.779941 1_455
Ba1 O4 2.779941 1_555
Ba1 O2 2.820898 1_555
Ba1 O9 2.820898 1_455
Ba1 O24 2.837485 1_555
Ba1 O10 2.837485 1_455
Ba1 O6 3.126430 1_555
Ba1 O17 3.126430 1_455
Ba1 O22 3.366064 1_555
Ba1 O11 3.366064 1_455
Ba1 O22 3.465100 1_465
Ba1 O11 3.465100 1_545
La0 O26 2.415863 1_556
La0 O25 2.468430 1_555
La0 O16 2.529100 1_655
La0 O21 2.551271 1_555
La0 O12 2.565886 1_555
La0 O2 2.630192 1_655
La0 O18 2.655294 1_655
La0 O13 2.671184 1_555
La1 O27 2.415863 1_554
La1 O7 2.468430 1_555
La1 O0 2.529100 1_455
La1 O5 2.551271 1_555
La1 O4 2.565886 1_555
La1 O9 2.630192 1_455
La1 O23 2.655294 1_455
La1 O15 2.671184 1_555
La2 O22 2.415863 1_555
La2 O24 2.468430 1_555
La2 O19 2.529100 1_545
La2 O1 2.551271 1_555
La2 O18 2.565886 1_555
La2 O13 2.630192 1_545
La2 O12 2.655294 1_545
La2 O2 2.671184 1_555
La3 O11 2.415863 1_555
La3 O10 2.468430 1_555
La3 O20 2.529100 1_565
La3 O3 2.551271 1_555
La3 O23 2.565886 1_555
La3 O15 2.630192 1_565
La3 O4 2.655294 1_565
La3 O9 2.671184 1_555
O0 Te0 1.893707 1_565
O0 Te3 2.688743 1_654
O1 Te6 1.884139 1_555
O2 Te8 1.923860 1_545
O3 Te7 1.884139 1_555
O4 Te2 1.920328 1_555
O5 Te7 1.884139 1_555
O6 Te5 1.931904 1_555
O6 Te7 2.197823 1_555
O7 Te0 1.896911 1_555
O8 Te0 1.931904 1_556
O8 Te6 2.197823 1_555
O9 Te2 1.923860 1_565
O10 Te4 1.896911 1_555
O11 Te8 1.880842 1_555
O12 Te8 1.920328 1_555
O13 Te9 1.923860 1_655
O14 Te3 1.931904 1_554
O14 Te7 2.197823 1_555
O15 Te1 1.923860 1_455
O16 Te3 1.893707 1_545
O16 Te0 2.688743 1_456
O17 Te4 1.931904 1_555
O17 Te6 2.197823 1_555
O18 Te9 1.920328 1_555
O19 Te5 1.893707 1_655
O19 Te4 2.688743 1_565
O20 Te4 1.893707 1_455
O20 Te5 2.688743 1_545
O21 Te6 1.884139 1_555
O22 Te2 1.880842 1_555
O23 Te1 1.920328 1_555
O24 Te5 1.896911 1_555
O25 Te3 1.896911 1_555
O26 Te1 1.880842 1_555
O27 Te9 1.880842 1_555
