# generated using pymatgen
data_TbVO3
_symmetry_space_group_name_H-M   'P 1'
_cell_length_a   5.27539823
_cell_length_b   5.67600385
_cell_length_c   7.56295853
_cell_angle_alpha   90.00000000
_cell_angle_beta   90.00000000
_cell_angle_gamma   90.00000000
_symmetry_Int_Tables_number   1
_chemical_formula_structural   TbVO3
_chemical_formula_sum   'Tb4 V4 O12'
_cell_volume   226.45903362
_cell_formula_units_Z   4
loop_
 _symmetry_equiv_pos_site_id
 _symmetry_equiv_pos_as_xyz
  1  'x, y, z'
loop_
 _atom_site_type_symbol
 _atom_site_label
 _atom_site_symmetry_multiplicity
 _atom_site_fract_x
 _atom_site_fract_y
 _atom_site_fract_z
 _atom_site_occupancy
  Tb  Tb0  1  0.51918225  0.56962480  0.75000000  1
  Tb  Tb1  1  0.98081775  0.06962480  0.75000000  1
  Tb  Tb2  1  0.48081775  0.43037520  0.25000000  1
  Tb  Tb3  1  0.01918225  0.93037520  0.25000000  1
  V  V0  1  0.00000000  0.50000000  0.00000000  1
  V  V1  1  0.50000000  -0.00000000  0.50000000  1
  V  V2  1  0.00000000  0.50000000  0.50000000  1
  V  V3  1  0.50000000  -0.00000000  0.00000000  1
  O  O0  1  0.69571255  0.30887853  0.94442107  1
  O  O1  1  0.30428745  0.69112147  0.44442107  1
  O  O2  1  0.80428745  0.80887853  0.55557893  1
  O  O3  1  0.19571255  0.19112147  0.44442107  1
  O  O4  1  0.69571255  0.30887853  0.55557893  1
  O  O5  1  0.88841578  0.54171361  0.25000000  1
  O  O6  1  0.19571255  0.19112147  0.05557893  1
  O  O7  1  0.38841578  0.95828639  0.75000000  1
  O  O8  1  0.80428745  0.80887853  0.94442107  1
  O  O9  1  0.61158422  0.04171361  0.25000000  1
  O  O10  1  0.30428745  0.69112147  0.05557893  1
  O  O11  1  0.11158422  0.45828639  0.75000000  1
loop_
_geom_bond_atom_site_label_1
_geom_bond_atom_site_label_2
_geom_bond_distance
_geom_bond_site_symmetry_2
O0 V0 1.982493 1_656
O0 V3 2.077585 1_556
O0 Tb0 2.284671 1_555
O0 Tb1 2.503677 1_555
O0 Tb2 2.664928 1_556
O1 V2 1.982493 1_555
O1 V1 2.077585 1_565
O1 Tb2 2.284671 1_555
O1 Tb3 2.503677 1_555
O1 Tb0 2.664928 1_555
O2 V1 1.982493 1_565
O2 V2 2.077585 1_655
O2 Tb1 2.284671 1_565
O2 Tb0 2.503677 1_555
O2 Tb3 2.664928 1_655
O3 V1 1.982493 1_555
O3 V2 2.077585 1_555
O3 Tb3 2.284671 1_545
O3 Tb2 2.503677 1_555
O3 Tb1 2.664928 1_455
O4 V2 1.982493 1_655
O4 V1 2.077585 1_555
O4 Tb0 2.284671 1_555
O4 Tb1 2.503677 1_555
O4 Tb2 2.664928 1_555
O5 V0 1.994358 1_655
O5 V2 1.994358 1_655
O5 Tb2 2.241185 1_555
O5 Tb3 2.311389 1_655
O6 V3 1.982493 1_555
O6 V0 2.077585 1_555
O6 Tb3 2.284671 1_545
O6 Tb2 2.503677 1_555
O6 Tb1 2.664928 1_454
O7 V1 1.994358 1_565
O7 V3 1.994358 1_566
O7 Tb1 2.241185 1_465
O7 Tb0 2.311389 1_555
O8 V3 1.982493 1_566
O8 V0 2.077585 1_656
O8 Tb1 2.284671 1_565
O8 Tb0 2.503677 1_555
O8 Tb3 2.664928 1_656
O9 V1 1.994358 1_555
O9 V3 1.994358 1_555
O9 Tb3 2.241185 1_645
O9 Tb2 2.311389 1_555
O10 V0 1.982493 1_555
O10 V3 2.077585 1_565
O10 Tb2 2.284671 1_555
O10 Tb3 2.503677 1_555
O10 Tb0 2.664928 1_554
O11 V0 1.994358 1_556
O11 V2 1.994358 1_555
O11 Tb0 2.241185 1_555
O11 Tb1 2.311389 1_455
