# generated using pymatgen
data_V2Ni3O8
_symmetry_space_group_name_H-M   'P 1'
_cell_length_a   5.88335220
_cell_length_b   6.40692238
_cell_length_c   8.18429802
_cell_angle_alpha   90.00018308
_cell_angle_beta   89.99991863
_cell_angle_gamma   62.63750467
_symmetry_Int_Tables_number   1
_chemical_formula_structural   V2Ni3O8
_chemical_formula_sum   'V4 Ni6 O16'
_cell_volume   273.98428335
_cell_formula_units_Z   2
loop_
 _symmetry_equiv_pos_site_id
 _symmetry_equiv_pos_as_xyz
  1  'x, y, z'
loop_
 _atom_site_type_symbol
 _atom_site_label
 _atom_site_symmetry_multiplicity
 _atom_site_fract_x
 _atom_site_fract_y
 _atom_site_fract_z
 _atom_site_occupancy
  V  V0  1  0.12458737  0.75081653  0.61828907  1
  V  V1  1  0.87542181  0.24918243  0.38170991  1
  V  V2  1  0.37542186  0.24918138  0.11828710  1
  V  V3  1  0.62458756  0.75081838  0.88171494  1
  Ni  Ni0  1  0.49997026  0.00000025  0.49999885  1
  Ni  Ni1  1  0.99997386  -0.00000221  0.99999915  1
  Ni  Ni2  1  0.11952353  0.26096562  0.75004873  1
  Ni  Ni3  1  0.38046024  0.73903134  0.25003148  1
  Ni  Ni4  1  0.88045584  0.73903373  0.24995809  1
  Ni  Ni5  1  0.61951769  0.26096743  0.74996311  1
  O  O0  1  0.50020733  0.99961349  0.74559895  1
  O  O1  1  0.49980112  0.00038465  0.25439990  1
  O  O2  1  0.00020727  0.99961092  0.75440564  1
  O  O3  1  0.99980102  0.00038712  0.24559377  1
  O  O4  1  0.75269939  0.49458796  0.76843103  1
  O  O5  1  0.24730477  0.50541251  0.23156702  1
  O  O6  1  0.74730668  0.50541057  0.26844186  1
  O  O7  1  0.25269645  0.49459123  0.73155928  1
  O  O8  1  0.35596344  0.76299908  0.49704849  1
  O  O9  1  0.11889257  0.23708793  0.50302612  1
  O  O10  1  0.14404133  0.23701775  0.99705174  1
  O  O11  1  0.38112653  0.76290452  0.00302316  1
  O  O12  1  0.64404538  0.23701520  0.50295130  1
  O  O13  1  0.88112738  0.76290301  0.49697611  1
  O  O14  1  0.85596629  0.76299473  0.00294957  1
  O  O15  1  0.61889304  0.23708546  0.99697661  1
loop_
_geom_bond_atom_site_label_1
_geom_bond_atom_site_label_2
_geom_bond_distance
_geom_bond_site_symmetry_2
Ni0 O1 2.010056 1_555
Ni0 O0 2.010066 1_545
Ni0 O9 2.050374 1_555
Ni0 O13 2.050740 1_545
Ni0 O8 2.051020 1_545
Ni0 O12 2.051405 1_555
Ni1 O2 2.010012 1_645
Ni1 O3 2.010021 1_556
Ni1 O15 2.050387 1_555
Ni1 O11 2.050714 1_646
Ni1 O14 2.051034 1_546
Ni1 O10 2.051400 1_655
Ni2 O4 1.987773 1_455
Ni2 O7 1.988793 1_555
Ni2 O10 2.027475 1_555
Ni2 O9 2.027618 1_555
Ni2 O0 2.091408 1_545
Ni2 O2 2.092474 1_545
Ni3 O6 1.987886 1_555
Ni3 O5 1.988661 1_555
Ni3 O11 2.027508 1_555
Ni3 O8 2.027589 1_555
Ni3 O3 2.091312 1_465
Ni3 O1 2.092568 1_565
Ni4 O5 1.987884 1_655
Ni4 O6 1.988672 1_555
Ni4 O14 2.027518 1_555
Ni4 O13 2.027585 1_555
Ni4 O1 2.091285 1_565
Ni4 O3 2.092586 1_565
Ni5 O7 1.987777 1_555
Ni5 O4 1.988787 1_555
Ni5 O15 2.027545 1_555
Ni5 O12 2.027549 1_555
Ni5 O2 2.091440 1_645
Ni5 O0 2.092445 1_545
O0 V3 1.801431 1_555
O1 V2 1.801423 1_555
O2 V0 1.801424 1_555
O3 V1 1.801426 1_555
O4 V3 1.727798 1_555
O5 V2 1.727784 1_555
O6 V1 1.727724 1_555
O7 V0 1.727720 1_555
O8 V0 1.715052 1_555
O9 V1 1.715122 1_455
O10 V2 1.715001 1_556
O11 V3 1.715053 1_554
O12 V1 1.715017 1_555
O13 V0 1.715072 1_655
O14 V3 1.715022 1_554
O15 V2 1.715091 1_556
