# generated using pymatgen
data_K2SeO4
_symmetry_space_group_name_H-M   'P 1'
_cell_length_a   6.14655000
_cell_length_b   10.65273400
_cell_length_c   23.36993700
_cell_angle_alpha   90.00000000
_cell_angle_beta   90.00000000
_cell_angle_gamma   90.00000000
_symmetry_Int_Tables_number   1
_chemical_formula_structural   K2SeO4
_chemical_formula_sum   'K24 Se12 O48'
_cell_volume   1530.20650277
_cell_formula_units_Z   12
loop_
 _symmetry_equiv_pos_site_id
 _symmetry_equiv_pos_as_xyz
  1  'x, y, z'
loop_
 _atom_site_type_symbol
 _atom_site_label
 _atom_site_symmetry_multiplicity
 _atom_site_fract_x
 _atom_site_fract_y
 _atom_site_fract_z
 _atom_site_occupancy
  K  K0  1  0.76762400  0.29421400  0.33345400  1
  K  K1  1  0.26762400  0.70578600  0.66654600  1
  K  K2  1  0.25108900  0.42177700  0.10986800  1
  K  K3  1  0.23237800  0.70586700  0.00022900  1
  K  K4  1  0.73237800  0.20586700  0.49977100  1
  K  K5  1  0.26762400  0.79421400  0.16654600  1
  K  K6  1  0.23237800  0.79413300  0.50022900  1
  K  K7  1  0.75108900  0.57822300  0.89013200  1
  K  K8  1  0.75653500  0.20653700  0.16689500  1
  K  K9  1  0.75653500  0.29346300  0.66689500  1
  K  K10  1  0.73427200  0.92327300  0.05660900  1
  K  K11  1  0.73427200  0.57672700  0.55660900  1
  K  K12  1  0.23427200  0.07672700  0.94339100  1
  K  K13  1  0.26562200  0.07997700  0.27672600  1
  K  K14  1  0.26562200  0.42002300  0.77672600  1
  K  K15  1  0.76562200  0.57997700  0.22327400  1
  K  K16  1  0.25108900  0.07822300  0.60986800  1
  K  K17  1  0.76762400  0.20578600  0.83345400  1
  K  K18  1  0.25653500  0.79346300  0.83310500  1
  K  K19  1  0.23427200  0.42327300  0.44339100  1
  K  K20  1  0.76562200  0.92002300  0.72327400  1
  K  K21  1  0.25653500  0.70653700  0.33310500  1
  K  K22  1  0.73237800  0.29413300  0.99977100  1
  K  K23  1  0.75108900  0.92177700  0.39013200  1
  Se  Se0  1  0.25445600  0.41804000  0.25925200  1
  Se  Se1  1  0.23588000  0.08213000  0.09285000  1
  Se  Se2  1  0.25348500  0.08135400  0.42591900  1
  Se  Se3  1  0.73588000  0.58213000  0.40715000  1
  Se  Se4  1  0.25348500  0.41864600  0.92591900  1
  Se  Se5  1  0.75445600  0.91804000  0.24074800  1
  Se  Se6  1  0.23588000  0.41787000  0.59285000  1
  Se  Se7  1  0.75348500  0.58135400  0.07408100  1
  Se  Se8  1  0.75445600  0.58196000  0.74074800  1
  Se  Se9  1  0.73588000  0.91787000  0.90715000  1
  Se  Se10  1  0.25445600  0.08196000  0.75925200  1
  Se  Se11  1  0.75348500  0.91864600  0.57408100  1
  O  O0  1  0.52913500  0.64405800  0.77006500  1
  O  O1  1  0.01841300  0.33972100  0.56790800  1
  O  O2  1  0.97402000  0.84795400  0.60187500  1
  O  O3  1  0.46375500  0.33920900  0.57600300  1
  O  O4  1  0.24421400  0.55932100  0.56053500  1
  O  O5  1  0.52990600  0.83585300  0.59066200  1
  O  O6  1  0.96375500  0.83920900  0.92399700  1
  O  O7  1  0.28267600  0.42967500  0.99665300  1
  O  O8  1  0.02913500  0.35594200  0.22993500  1
  O  O9  1  0.01841300  0.16027900  0.06790800  1
  O  O10  1  0.78267600  0.57032500  0.00334700  1
  O  O11  1  0.74421400  0.05932100  0.93946500  1
  O  O12  1  0.23234600  0.93771600  0.39635100  1
  O  O13  1  0.97402000  0.65204600  0.10187500  1
  O  O14  1  0.46375500  0.16079100  0.07600300  1
  O  O15  1  0.71389200  0.93498000  0.83651400  1
  O  O16  1  0.79557800  0.44031800  0.77089900  1
  O  O17  1  0.71389200  0.56502000  0.33651400  1
  O  O18  1  0.47402000  0.15204600  0.39812500  1
  O  O19  1  0.96375500  0.66079100  0.42399700  1
  O  O20  1  0.29557800  0.94031800  0.72910100  1
  O  O21  1  0.74421400  0.44067900  0.43946500  1
  O  O22  1  0.24421400  0.94067900  0.06053500  1
  O  O23  1  0.02913500  0.14405800  0.72993500  1
  O  O24  1  0.28267600  0.07032500  0.49665300  1
  O  O25  1  0.02990600  0.33585300  0.90933800  1
  O  O26  1  0.21389200  0.43498000  0.66348600  1
  O  O27  1  0.71618900  0.93218300  0.17040400  1
  O  O28  1  0.46816800  0.17488500  0.74490300  1
  O  O29  1  0.79557800  0.05968200  0.27089900  1
  O  O30  1  0.51841300  0.83972100  0.93209200  1
  O  O31  1  0.52990600  0.66414700  0.09066200  1
  O  O32  1  0.21618900  0.06781700  0.82959600  1
  O  O33  1  0.73234500  0.06228400  0.60364900  1
  O  O34  1  0.73234500  0.43771600  0.10364900  1
  O  O35  1  0.46816800  0.32511500  0.24490300  1
  O  O36  1  0.21389200  0.06502000  0.16348600  1
  O  O37  1  0.52913500  0.85594200  0.27006500  1
  O  O38  1  0.71618900  0.56781700  0.67040400  1
  O  O39  1  0.29557800  0.55968200  0.22910100  1
  O  O40  1  0.02990600  0.16414700  0.40933800  1
  O  O41  1  0.78267600  0.92967500  0.50334700  1
  O  O42  1  0.51841300  0.66027900  0.43209200  1
  O  O43  1  0.21618900  0.43218300  0.32959600  1
  O  O44  1  0.47402000  0.34795400  0.89812500  1
  O  O45  1  0.23234600  0.56228400  0.89635100  1
  O  O46  1  0.96816800  0.67488500  0.75509700  1
  O  O47  1  0.96816800  0.82511500  0.25509700  1
loop_
_geom_bond_atom_site_label_1
_geom_bond_atom_site_label_2
_geom_bond_distance
_geom_bond_site_symmetry_2
K0 O40 2.768344 1_655
K0 O35 2.789049 1_555
K0 O18 2.799038 1_555
K0 O29 2.899781 1_555
K0 O17 2.904548 1_555
K0 O21 2.931374 1_555
K0 O8 2.978052 1_655
K0 O43 3.125706 1_655
K1 O5 2.768344 1_555
K1 O46 2.789049 1_455
K1 O2 2.799038 1_455
K1 O20 2.899781 1_555
K1 O26 2.904548 1_555
K1 O4 2.931374 1_555
K1 O0 2.978052 1_555
K1 O38 3.125706 1_555
K2 O7 2.654275 1_554
K2 O34 2.966496 1_555
K2 O13 2.992047 1_455
K2 O31 3.131240 1_555
K2 O39 3.161856 1_555
K2 O14 3.172478 1_555
K2 O34 3.196310 1_455
K2 O8 3.197880 1_555
K2 O9 3.281291 1_555
K3 O30 2.767642 1_554
K3 O6 2.813844 1_454
K3 O31 2.829919 1_555
K3 O45 2.869299 1_554
K3 O22 2.872021 1_555
K3 O13 2.914328 1_455
K3 O7 2.959578 1_554
K3 O10 3.119371 1_455
K4 O1 2.767642 1_655
K4 O3 2.813844 1_555
K4 O40 2.829919 1_655
K4 O33 2.869299 1_555
K4 O21 2.872021 1_555
K4 O18 2.914328 1_555
K4 O41 2.959578 1_545
K4 O24 3.119371 1_555
K5 O31 2.768344 1_555
K5 O47 2.789049 1_455
K5 O13 2.799038 1_455
K5 O39 2.899781 1_555
K5 O36 2.904548 1_565
K5 O22 2.931374 1_555
K5 O37 2.978052 1_555
K5 O27 3.125706 1_555
K6 O42 2.767642 1_555
K6 O19 2.813844 1_455
K6 O5 2.829919 1_555
K6 O12 2.869299 1_555
K6 O4 2.872021 1_555
K6 O2 2.914328 1_455
K6 O24 2.959578 1_565
K6 O41 3.119371 1_455
K7 O10 2.654275 1_556
K7 O45 2.966502 1_655
K7 O44 2.992047 1_555
K7 O25 3.131240 1_655
K7 O16 3.161856 1_555
K7 O6 3.172478 1_555
K7 O45 3.196304 1_555
K7 O0 3.197880 1_555
K7 O30 3.281291 1_555
K8 O8 2.740621 1_655
K8 O14 2.826299 1_555
K8 O35 2.839142 1_555
K8 O9 2.860985 1_655
K8 O34 2.876037 1_555
K8 O29 2.900451 1_555
K8 O27 2.934269 1_545
K8 O36 3.190877 1_655
K9 O23 2.740621 1_655
K9 O3 2.826299 1_555
K9 O28 2.839142 1_555
K9 O1 2.860985 1_655
K9 O33 2.876037 1_555
K9 O16 2.900451 1_555
K9 O38 2.934269 1_555
K9 O26 3.190877 1_655
K10 O27 2.663395 1_555
K10 O22 3.019262 1_555
K10 O11 3.098205 1_564
K10 O31 3.135448 1_555
K10 O22 3.141204 1_655
K11 O38 2.663395 1_555
K11 O4 3.019262 1_555
K11 O21 3.098205 1_555
K11 O5 3.135448 1_555
K11 O4 3.141204 1_655
K12 O32 2.663395 1_555
K12 O11 3.019262 1_455
K12 O22 3.098205 1_546
K12 O25 3.135448 1_555
K12 O11 3.141204 1_555
K13 O36 2.670202 1_555
K13 O37 2.888501 1_545
K13 O29 2.900425 1_455
K13 O35 2.987034 1_555
K13 O12 3.186537 1_545
K13 O18 3.206127 1_555
K13 O29 3.267407 1_555
K13 O47 3.311999 1_445
K14 O26 2.670202 1_555
K14 O0 2.888501 1_555
K14 O16 2.900425 1_455
K14 O28 2.987034 1_555
K14 O45 3.186537 1_555
K14 O44 3.206127 1_555
K14 O16 3.267407 1_555
K14 O46 3.311999 1_455
K15 O17 2.670202 1_555
K15 O8 2.888501 1_655
K15 O39 2.900425 1_555
K15 O47 2.987034 1_555
K15 O34 3.186537 1_555
K15 O13 3.206127 1_555
K15 O39 3.267407 1_655
K15 O35 3.311999 1_555
K16 O24 2.654275 1_555
K16 O33 2.966496 1_555
K16 O2 2.992047 1_445
K16 O5 3.131240 1_545
K16 O20 3.161856 1_545
K16 O3 3.172478 1_555
K16 O33 3.196310 1_455
K16 O23 3.197880 1_555
K16 O1 3.281291 1_555
K17 O25 2.768344 1_655
K17 O28 2.789049 1_555
K17 O44 2.799038 1_555
K17 O16 2.899781 1_555
K17 O15 2.904548 1_545
K17 O11 2.931374 1_555
K17 O23 2.978052 1_655
K17 O32 3.125706 1_655
K18 O0 2.740621 1_555
K18 O6 2.826299 1_455
K18 O46 2.839142 1_455
K18 O30 2.860985 1_555
K18 O45 2.876037 1_555
K18 O20 2.900451 1_555
K18 O32 2.934269 1_565
K18 O15 3.190877 1_555
K19 O43 2.663395 1_555
K19 O21 3.019262 1_455
K19 O4 3.098205 1_555
K19 O40 3.135448 1_555
K19 O21 3.141204 1_555
K20 O15 2.670202 1_555
K20 O23 2.888501 1_665
K20 O20 2.900425 1_555
K20 O46 2.987034 1_555
K20 O33 3.186537 1_565
K20 O2 3.206127 1_555
K20 O20 3.267407 1_655
K20 O28 3.311999 1_565
K21 O37 2.740621 1_555
K21 O19 2.826299 1_455
K21 O47 2.839142 1_455
K21 O42 2.860985 1_555
K21 O12 2.876037 1_555
K21 O39 2.900451 1_555
K21 O43 2.934269 1_555
K21 O17 3.190877 1_555
K22 O9 2.767642 1_656
K22 O14 2.813844 1_556
K22 O25 2.829919 1_655
K22 O34 2.869299 1_556
K22 O11 2.872021 1_555
K22 O44 2.914328 1_555
K22 O10 2.959578 1_556
K22 O7 3.119371 1_555
K23 O41 2.654275 1_555
K23 O12 2.966502 1_655
K23 O18 2.992047 1_565
K23 O40 3.131240 1_665
K23 O29 3.161856 1_565
K23 O19 3.172478 1_555
K23 O12 3.196304 1_555
K23 O37 3.197880 1_555
K23 O42 3.281291 1_555
O0 Se8 1.680800 1_555
O1 Se6 1.679140 1_555
O2 Se11 1.681211 1_555
O3 Se6 1.678983 1_555
O4 Se6 1.686273 1_555
O5 Se11 1.678262 1_555
O6 Se9 1.678983 1_555
O7 Se4 1.666904 1_555
O8 Se0 1.680800 1_555
O9 Se1 1.679140 1_555
O10 Se7 1.666904 1_555
O11 Se9 1.686273 1_545
O12 Se2 1.683950 1_565
O13 Se7 1.681211 1_555
O14 Se1 1.678983 1_555
O15 Se9 1.666281 1_555
O16 Se8 1.684366 1_555
O17 Se3 1.666281 1_555
O18 Se2 1.681211 1_555
O19 Se3 1.678983 1_555
O20 Se10 1.684366 1_565
O21 Se3 1.686273 1_555
O22 Se1 1.686273 1_565
O23 Se10 1.680800 1_555
O24 Se2 1.666904 1_555
O25 Se4 1.678262 1_555
O26 Se6 1.666281 1_555
O27 Se5 1.667496 1_555
O28 Se10 1.678656 1_555
O29 Se5 1.684366 1_545
O30 Se9 1.679140 1_555
O31 Se7 1.678262 1_555
O32 Se10 1.667496 1_555
O33 Se11 1.683950 1_545
O34 Se7 1.683950 1_555
O35 Se0 1.678656 1_555
O36 Se1 1.666281 1_555
O37 Se5 1.680800 1_555
O38 Se8 1.667496 1_555
O39 Se0 1.684366 1_555
O40 Se2 1.678262 1_555
O41 Se11 1.666904 1_555
O42 Se3 1.679140 1_555
O43 Se0 1.667496 1_555
O44 Se4 1.681211 1_555
O45 Se4 1.683950 1_555
O46 Se8 1.678656 1_555
O47 Se5 1.678656 1_555
