# generated using pymatgen
data_NaLi3SiO4
_symmetry_space_group_name_H-M   'P 1'
_cell_length_a   9.98410102
_cell_length_b   9.98410102
_cell_length_c   9.98410102
_cell_angle_alpha   114.00610549
_cell_angle_beta   114.00610549
_cell_angle_gamma   100.73880210
_symmetry_Int_Tables_number   1
_chemical_formula_structural   NaLi3SiO4
_chemical_formula_sum   'Na8 Li24 Si8 O32'
_cell_volume   753.08113304
_cell_formula_units_Z   8
loop_
 _symmetry_equiv_pos_site_id
 _symmetry_equiv_pos_as_xyz
  1  'x, y, z'
loop_
 _atom_site_type_symbol
 _atom_site_label
 _atom_site_symmetry_multiplicity
 _atom_site_fract_x
 _atom_site_fract_y
 _atom_site_fract_z
 _atom_site_occupancy
  Na  Na0  1  0.45589800  0.99908200  0.01410900  1
  Na  Na1  1  0.98497400  0.44178900  0.98589100  1
  Na  Na2  1  0.00091800  0.01502600  0.45681500  1
  Na  Na3  1  0.29410200  0.25091800  0.48589100  1
  Na  Na4  1  0.19178900  0.70589800  0.95681500  1
  Na  Na5  1  0.74908200  0.23497400  0.04318500  1
  Na  Na6  1  0.55821100  0.54410200  0.54318500  1
  Na  Na7  1  0.76502600  0.80821100  0.51410900  1
  Li  Li0  1  0.84188300  0.47158400  0.68993200  1
  Li  Li1  1  0.29858800  0.66105600  0.32137000  1
  Li  Li2  1  0.45141200  0.58894400  0.17863000  1
  Li  Li3  1  0.69810200  0.56274200  0.86701800  1
  Li  Li4  1  0.33894400  0.66031400  0.63753200  1
  Li  Li5  1  0.96834800  0.09804900  0.18993200  1
  Li  Li6  1  0.84804900  0.15811700  0.62970100  1
  Li  Li7  1  0.52841600  0.21834800  0.37029900  1
  Li  Li8  1  0.22158400  0.03165200  0.12970100  1
  Li  Li9  1  0.31274200  0.94572400  0.36464000  1
  Li  Li10  1  0.33968600  0.97721800  0.67863000  1
  Li  Li11  1  0.78165200  0.15195100  0.31006800  1
  Li  Li12  1  0.02278200  0.70141200  0.36246800  1
  Li  Li13  1  0.90195100  0.09188300  0.87029900  1
  Li  Li14  1  0.16891600  0.30189800  0.86464000  1
  Li  Li15  1  0.69572400  0.83108500  0.13298200  1
  Li  Li16  1  0.72721800  0.54858800  0.13753200  1
  Li  Li17  1  0.90811700  0.77841600  0.81006800  1
  Li  Li18  1  0.41105600  0.58968600  0.86246800  1
  Li  Li19  1  0.41031400  0.27278200  0.82137000  1
  Li  Li20  1  0.05427600  0.41891500  0.36701800  1
  Li  Li21  1  0.43725800  0.30427600  0.13536000  1
  Li  Li22  1  0.58108500  0.94810200  0.63536000  1
  Li  Li23  1  0.05189800  0.68725800  0.63298200  1
  Si  Si0  1  0.00133700  0.78101100  0.14263800  1
  Si  Si1  1  0.63837300  0.85869900  0.85736200  1
  Si  Si2  1  0.21898900  0.36162700  0.22032600  1
  Si  Si3  1  0.60869900  0.25133700  0.72032600  1
  Si  Si4  1  0.11162700  0.39130100  0.64263800  1
  Si  Si5  1  0.74866300  0.46898900  0.35736200  1
  Si  Si6  1  0.53101100  0.88837300  0.27967400  1
  Si  Si7  1  0.14130100  0.99866300  0.77967400  1
  O  O0  1  0.64030700  0.38496500  0.90906300  1
  O  O1  1  0.18604700  0.57689700  0.68637900  1
  O  O2  1  0.99948800  0.37695700  0.72452400  1
  O  O3  1  0.24966800  0.43604700  0.10915000  1
  O  O4  1  0.62304300  0.34756700  0.62253100  1
  O  O5  1  0.89051800  0.49966800  0.31362100  1
  O  O6  1  0.92490100  0.66472700  0.93205400  1
  O  O7  1  0.72503600  0.00051200  0.37746900  1
  O  O8  1  0.61503500  0.52409700  0.25534200  1
  O  O9  1  0.75051200  0.87304300  0.77547600  1
  O  O10  1  0.41472700  0.98267300  0.23982700  1
  O  O11  1  0.00715400  0.07509900  0.73982700  1
  O  O12  1  0.82509900  0.58527300  0.56794600  1
  O  O13  1  0.01732700  0.25715400  0.43205400  1
  O  O14  1  0.32689700  0.14051800  0.89085000  1
  O  O15  1  0.65243300  0.27496400  0.27547600  1
  O  O16  1  0.10969300  0.86503500  0.59093700  1
  O  O17  1  0.50033200  0.81395300  0.39085000  1
  O  O18  1  0.09756700  0.97503600  0.22452400  1
  O  O19  1  0.13496500  0.72590300  0.24465800  1
  O  O20  1  0.33527300  0.26732700  0.26017300  1
  O  O21  1  0.02496400  0.24948800  0.12253100  1
  O  O22  1  0.12695700  0.90243300  0.87746900  1
  O  O23  1  0.27409700  0.51875500  0.40906300  1
  O  O24  1  0.47590300  0.73124500  0.09093700  1
  O  O25  1  0.26875500  0.35969300  0.74465800  1
  O  O26  1  0.85948200  0.75033200  0.18637900  1
  O  O27  1  0.48124500  0.89030700  0.75534200  1
  O  O28  1  0.74284600  0.17490100  0.76017300  1
  O  O29  1  0.56395300  0.67310300  0.81362100  1
  O  O30  1  0.73267300  0.99284600  0.06794600  1
  O  O31  1  0.42310300  0.10948200  0.60915000  1
loop_
_geom_bond_atom_site_label_1
_geom_bond_atom_site_label_2
_geom_bond_distance
_geom_bond_site_symmetry_2
Na0 O14 2.443245 1_564
Na0 O15 2.493559 1_565
Na0 O27 2.503930 1_554
Na0 O10 2.510684 1_555
Na0 O30 2.609918 1_555
Na0 O22 2.771359 1_554
Na1 O3 2.443236 1_656
Na1 O2 2.493554 1_555
Na1 O19 2.503931 1_656
Na1 O28 2.510683 1_555
Na1 O6 2.609918 1_555
Na1 O21 2.771358 1_656
Na2 O26 2.443235 1_445
Na2 O7 2.493563 1_455
Na2 O16 2.503921 1_545
Na2 O13 2.510689 1_555
Na2 O11 2.609928 1_555
Na2 O18 2.771351 1_545
Na3 O31 2.443245 1_555
Na3 O18 2.493559 1_545
Na3 O25 2.503930 1_555
Na3 O20 2.510684 1_555
Na3 O13 2.609918 1_555
Na3 O4 2.771359 1_555
Na4 O1 2.443236 1_555
Na4 O22 2.493554 1_555
Na4 O24 2.503930 1_556
Na4 O6 2.510678 1_455
Na4 O10 2.609921 1_556
Na4 O2 2.771358 1_455
Na5 O5 2.443235 1_555
Na5 O21 2.493563 1_655
Na5 O0 2.503921 1_554
Na5 O30 2.510689 1_545
Na5 O28 2.609928 1_554
Na5 O15 2.771351 1_555
Na6 O29 2.443236 1_555
Na6 O4 2.493554 1_555
Na6 O23 2.503930 1_555
Na6 O12 2.510678 1_555
Na6 O20 2.609921 1_555
Na6 O9 2.771358 1_555
Na7 O17 2.443236 1_555
Na7 O9 2.493554 1_555
Na7 O8 2.503931 1_555
Na7 O11 2.510683 1_665
Na7 O12 2.609918 1_555
Na7 O7 2.771358 1_565
Li0 O12 1.956909 1_555
Li0 O2 1.966016 1_555
Li0 O4 1.969097 1_555
Li0 O6 2.056779 1_555
Li1 O19 1.858520 1_555
Li1 O17 1.929832 1_555
Li1 O23 1.975283 1_555
Li1 O3 2.156574 1_555
Li2 O8 1.858520 1_555
Li2 O3 1.929832 1_555
Li2 O24 1.975283 1_555
Li2 O17 2.156574 1_555
Li3 O29 1.933682 1_555
Li3 O6 1.998072 1_555
Li3 O0 2.020216 1_555
Li3 O4 2.186326 1_555
Li3 O26 2.471181 1_556
Li4 O23 1.858513 1_555
Li4 O1 1.929832 1_555
Li4 O27 1.975275 1_555
Li4 O29 2.156574 1_555
Li5 O30 1.956910 1_545
Li5 O18 1.966016 1_645
Li5 O21 1.969097 1_655
Li5 O13 2.056781 1_655
Li6 O28 1.956909 1_555
Li6 O7 1.966016 1_555
Li6 O2 1.969097 1_555
Li6 O11 2.056789 1_655
Li7 O10 1.956910 1_545
Li7 O4 1.966016 1_555
Li7 O15 1.969097 1_555
Li7 O20 2.056781 1_555
Li8 O20 1.956910 1_555
Li8 O22 1.966016 1_544
Li8 O18 1.969097 1_545
Li8 O10 2.056781 1_545
Li9 O31 1.933682 1_565
Li9 O10 1.998063 1_555
Li9 O19 2.020209 1_555
Li9 O18 2.186326 1_555
Li9 O17 2.471181 1_555
Li10 O27 1.858520 1_555
Li10 O31 1.929832 1_565
Li10 O16 1.975272 1_555
Li10 O14 2.156574 1_565
Li11 O13 1.956910 1_655
Li11 O15 1.966016 1_555
Li11 O7 1.969097 1_555
Li11 O30 2.056781 1_545
Li12 O16 1.858514 1_555
Li12 O5 1.929832 1_455
Li12 O19 1.975275 1_555
Li12 O26 2.156574 1_455
Li13 O11 1.956909 1_655
Li13 O21 1.966016 1_656
Li13 O9 1.969097 1_545
Li13 O28 2.056789 1_555
Li14 O3 1.933682 1_556
Li14 O11 1.998070 1_555
Li14 O25 2.020209 1_555
Li14 O2 2.186326 1_455
Li14 O14 2.471181 1_555
Li15 O26 1.933689 1_555
Li15 O30 1.998054 1_555
Li15 O24 2.020207 1_555
Li15 O7 2.186323 1_565
Li15 O29 2.471181 1_554
Li16 O0 1.858514 1_554
Li16 O26 1.929832 1_555
Li16 O8 1.975275 1_555
Li16 O5 2.156574 1_555
Li17 O6 1.956909 1_555
Li17 O9 1.966016 1_555
Li17 O22 1.969097 1_655
Li17 O12 2.056779 1_555
Li18 O24 1.858513 1_556
Li18 O29 1.929832 1_555
Li18 O25 1.975275 1_555
Li18 O1 2.156574 1_555
Li19 O25 1.858520 1_555
Li19 O14 1.929832 1_555
Li19 O0 1.975272 1_555
Li19 O31 2.156574 1_555
Li20 O5 1.933689 1_455
Li20 O13 1.998054 1_555
Li20 O23 2.020207 1_555
Li20 O21 2.186323 1_555
Li20 O1 2.471181 1_555
Li21 O14 1.933682 1_554
Li21 O20 1.998063 1_555
Li21 O8 2.020209 1_555
Li21 O15 2.186326 1_555
Li21 O3 2.471181 1_555
Li22 O17 1.933680 1_555
Li22 O28 1.998067 1_565
Li22 O27 2.020216 1_555
Li22 O9 2.186321 1_555
Li22 O31 2.471188 1_565
Li23 O1 1.933682 1_555
Li23 O12 1.998072 1_455
Li23 O16 2.020216 1_555
Li23 O22 2.186326 1_555
Li23 O5 2.471181 1_455
O0 Si3 1.656518 1_555
O1 Si4 1.655558 1_555
O2 Si4 1.650070 1_655
O3 Si2 1.655558 1_555
O4 Si3 1.650070 1_555
O5 Si5 1.655558 1_555
O6 Si0 1.651939 1_656
O7 Si6 1.650070 1_545
O8 Si5 1.656510 1_555
O9 Si1 1.650070 1_555
O10 Si6 1.651937 1_555
O11 Si7 1.651930 1_545
O12 Si5 1.651939 1_555
O13 Si4 1.651937 1_555
O14 Si7 1.655558 1_545
O15 Si5 1.650070 1_555
O16 Si7 1.656518 1_555
O17 Si6 1.655558 1_555
O18 Si0 1.650070 1_555
O19 Si0 1.656510 1_555
O20 Si2 1.651937 1_555
O21 Si2 1.650070 1_555
O22 Si7 1.650070 1_555
O23 Si2 1.656516 1_555
O24 Si6 1.656516 1_555
O25 Si4 1.656510 1_555
O26 Si0 1.655558 1_655
O27 Si1 1.656510 1_555
O28 Si3 1.651930 1_555
O29 Si1 1.655558 1_555
O30 Si1 1.651937 1_554
O31 Si3 1.655558 1_555
