# generated using pymatgen
data_Na3In2Au
_symmetry_space_group_name_H-M   'P 1'
_cell_length_a   9.55988241
_cell_length_b   9.55989760
_cell_length_c   9.55989044
_cell_angle_alpha   59.97428164
_cell_angle_beta   59.97440937
_cell_angle_gamma   59.97421212
_symmetry_Int_Tables_number   1
_chemical_formula_structural   Na3In2Au
_chemical_formula_sum   'Na12 In8 Au4'
_cell_volume   617.43400923
_cell_formula_units_Z   4
loop_
 _symmetry_equiv_pos_site_id
 _symmetry_equiv_pos_as_xyz
  1  'x, y, z'
loop_
 _atom_site_type_symbol
 _atom_site_label
 _atom_site_symmetry_multiplicity
 _atom_site_fract_x
 _atom_site_fract_y
 _atom_site_fract_z
 _atom_site_occupancy
  Na  Na0  1  0.45484383  0.04517231  0.04517398  1
  Na  Na1  1  0.79516974  0.20484972  0.79517268  1
  Na  Na2  1  0.45482897  0.45482778  0.04515242  1
  Na  Na3  1  0.79517048  0.79517158  0.20484885  1
  Na  Na4  1  0.20484991  0.79517025  0.79517177  1
  Na  Na5  1  0.04515049  0.45483034  0.45482847  1
  Na  Na6  1  0.04517195  0.04517220  0.45484328  1
  Na  Na7  1  0.20482805  0.20482820  0.79515646  1
  Na  Na8  1  0.45483081  0.04515076  0.45482758  1
  Na  Na9  1  0.79515635  0.20482560  0.20482757  1
  Na  Na10  1  0.04517219  0.45484360  0.04517366  1
  Na  Na11  1  0.20482580  0.79515653  0.20482780  1
  In  In0  1  0.41677786  0.41677702  0.41677750  1
  In  In1  1  0.74968724  0.41676826  0.41676759  1
  In  In2  1  0.83322235  0.83322312  0.83322195  1
  In  In3  1  0.41676721  0.41676818  0.74968795  1
  In  In4  1  0.83323256  0.83323161  0.50031248  1
  In  In5  1  0.41676832  0.74968711  0.41676822  1
  In  In6  1  0.83323160  0.50031309  0.83323172  1
  In  In7  1  0.50031295  0.83323160  0.83323252  1
  Au  Au0  1  0.62500008  0.62499996  0.12499974  1
  Au  Au1  1  0.62500033  0.12499988  0.62499987  1
  Au  Au2  1  0.12499966  0.62500023  0.62499994  1
  Au  Au3  1  0.62500027  0.62500005  0.62500000  1
loop_
_geom_bond_atom_site_label_1
_geom_bond_atom_site_label_2
_geom_bond_distance
_geom_bond_site_symmetry_2
Na0 Na3 3.487776 1_545
Na0 Na1 3.487795 1_554
Na0 Na7 3.488611 1_554
Na0 Na11 3.488629 1_545
Na0 Na10 3.914887 1_555
Na0 Na6 3.914889 1_555
Na0 Na8 3.916078 1_555
Na0 Na2 3.916090 1_555
Na1 Na2 3.487207 1_556
Na1 Na5 3.487238 1_655
Na1 Na6 3.487822 1_655
Na1 Na3 3.914948 1_546
Na1 Na4 3.914967 1_645
Na1 Na9 3.916076 1_556
Na1 Na7 3.916105 1_655
Na2 Na4 3.487213 1_554
Na2 Na9 3.487783 1_555
Na2 Na8 3.914937 1_555
Na2 Na5 3.914953 1_555
Na3 Na8 3.487205 1_565
Na3 Na5 3.487210 1_655
Na3 Na4 3.914963 1_654
Na3 Na9 3.916081 1_565
Na4 Na8 3.487238 1_565
Na4 Na6 3.487809 1_565
Na4 Na7 3.916110 1_565
Na5 Na7 3.487803 1_555
Na5 Na8 3.914969 1_555
Na5 Na6 3.916116 1_555
Na6 Na9 3.488601 1_455
Na6 Na8 3.916113 1_555
Na7 Na8 3.487818 1_555
Na7 Na9 3.914897 1_456
Na8 Na9 3.487778 1_555
Na10 Na3 3.487797 1_455
Na10 Na4 3.487803 1_554
Na10 Na7 3.488614 1_554
Na10 Na9 3.488629 1_455
Na10 Na6 3.914884 1_555
Na10 Na5 3.916088 1_555
Na10 Na2 3.916093 1_555
Na11 Na5 3.487786 1_555
Na11 Na2 3.487804 1_555
Na11 Na6 3.488608 1_565
Na11 Na9 3.914866 1_465
Na11 Na7 3.914894 1_564
Na11 Na3 3.916084 1_455
Na11 Na4 3.916086 1_554
In0 In1 3.182485 1_555
In0 In3 3.182494 1_555
In0 In5 3.182496 1_555
In0 Na2 3.229866 1_555
In0 Na8 3.229874 1_555
In0 Na5 3.229875 1_555
In0 Na7 3.276331 1_555
In0 Na9 3.276334 1_555
In0 Na11 3.276335 1_555
In1 In5 3.181427 1_555
In1 In3 3.181448 1_555
In1 Na10 3.228606 1_655
In1 Na6 3.228609 1_655
In1 Na5 3.229978 1_655
In1 Na3 3.276863 1_555
In1 Na1 3.276870 1_555
In1 Na9 3.277960 1_555
In2 In7 3.182484 1_555
In2 In4 3.182489 1_555
In2 In6 3.182495 1_555
In2 Na3 3.229878 1_556
In2 Na4 3.229882 1_655
In2 Na1 3.229882 1_565
In2 Na6 3.276329 1_665
In2 Na0 3.276333 1_566
In2 Na10 3.276334 1_656
In3 In5 3.181436 1_555
In3 Na10 3.228614 1_556
In3 Na0 3.228616 1_556
In3 Na2 3.229982 1_556
In3 Na4 3.276852 1_555
In3 Na1 3.276852 1_555
In3 Na7 3.277933 1_555
In4 In6 3.181432 1_555
In4 In7 3.181445 1_555
In4 Na11 3.228600 1_655
In4 Na9 3.228602 1_565
In4 Na3 3.229978 1_555
In4 Na5 3.276846 1_655
In4 Na8 3.276847 1_565
In4 Na6 3.277937 1_665
In5 Na0 3.228605 1_565
In5 Na6 3.228612 1_565
In5 Na8 3.229979 1_565
In5 Na3 3.276857 1_555
In5 Na4 3.276865 1_555
In5 Na11 3.277954 1_555
In6 In7 3.181424 1_555
In6 Na7 3.228612 1_655
In6 Na9 3.228623 1_556
In6 Na1 3.229971 1_555
In6 Na5 3.276861 1_655
In6 Na2 3.276863 1_556
In6 Na10 3.277951 1_656
In7 Na7 3.228613 1_565
In7 Na11 3.228622 1_556
In7 Na4 3.229971 1_555
In7 Na8 3.276867 1_565
In7 Na2 3.276869 1_556
In7 Na0 3.277956 1_566
Au0 In0 2.925300 1_555
Au0 In2 2.925302 1_554
Au0 In7 2.925650 1_554
Au0 In1 2.925655 1_555
Au0 In6 2.925661 1_554
Au0 In5 2.925666 1_555
Au0 Na10 3.316413 1_655
Au0 Na0 3.316418 1_565
Au0 Na11 3.316428 1_555
Au0 Na9 3.316432 1_555
Au0 Na2 3.318121 1_555
Au0 Na3 3.318123 1_555
Au1 In2 2.925282 1_545
Au1 In0 2.925287 1_555
Au1 In4 2.925664 1_545
Au1 In1 2.925665 1_555
Au1 In7 2.925667 1_545
Au1 In3 2.925668 1_555
Au1 Na6 3.316410 1_655
Au1 Na7 3.316415 1_555
Au1 Na9 3.316422 1_555
Au1 Na0 3.316435 1_556
Au1 Na8 3.318119 1_555
Au1 Na1 3.318127 1_555
Au2 In2 2.925295 1_455
Au2 In0 2.925301 1_555
Au2 In4 2.925648 1_455
Au2 In3 2.925654 1_555
Au2 In6 2.925663 1_455
Au2 In5 2.925667 1_555
Au2 Na7 3.316414 1_555
Au2 Na6 3.316414 1_565
Au2 Na11 3.316419 1_555
Au2 Na10 3.316430 1_556
Au2 Na5 3.318118 1_555
Au2 Na4 3.318129 1_555
Au3 In6 2.926224 1_555
Au3 In5 2.926229 1_555
Au3 In4 2.926236 1_555
Au3 In7 2.926238 1_555
Au3 In1 2.926240 1_555
Au3 In3 2.926244 1_555
Au3 Na5 3.316017 1_655
Au3 Na1 3.316018 1_555
Au3 Na4 3.316019 1_555
Au3 Na8 3.316020 1_565
Au3 Na3 3.316029 1_555
Au3 Na2 3.316040 1_556
