# generated using pymatgen
data_SrMn(SeO3)2
_symmetry_space_group_name_H-M   'P 1'
_cell_length_a   15.09303400
_cell_length_b   4.50411100
_cell_length_c   10.47096434
_cell_angle_alpha   68.70524853
_cell_angle_beta   90.00000000
_cell_angle_gamma   90.00000000
_symmetry_Int_Tables_number   1
_chemical_formula_structural   SrMn(SeO3)2
_chemical_formula_sum   'Sr4 Mn4 Se8 O24'
_cell_volume   663.22338467
_cell_formula_units_Z   4
loop_
 _symmetry_equiv_pos_site_id
 _symmetry_equiv_pos_as_xyz
  1  'x, y, z'
loop_
 _atom_site_type_symbol
 _atom_site_label
 _atom_site_symmetry_multiplicity
 _atom_site_fract_x
 _atom_site_fract_y
 _atom_site_fract_z
 _atom_site_occupancy
  Sr  Sr0  1  0.88332600  0.70730800  0.53500200  1
  Sr  Sr1  1  0.38332600  0.29269200  0.96499800  1
  Sr  Sr2  1  0.11667400  0.29269200  0.46499800  1
  Sr  Sr3  1  0.61667400  0.70730800  0.03500200  1
  Mn  Mn0  1  0.34705800  0.48514300  0.29120900  1
  Mn  Mn1  1  0.65294200  0.51485700  0.70879100  1
  Mn  Mn2  1  0.15294200  0.48514300  0.79120900  1
  Mn  Mn3  1  0.84705800  0.51485700  0.20879100  1
  Se  Se0  1  0.79900100  0.35680400  0.92217600  1
  Se  Se1  1  0.20099900  0.64319600  0.07782400  1
  Se  Se2  1  0.49983700  0.95614400  0.28065500  1
  Se  Se3  1  0.00016300  0.95614400  0.78065500  1
  Se  Se4  1  0.70099900  0.35680400  0.42217600  1
  Se  Se5  1  0.29900100  0.64319600  0.57782400  1
  Se  Se6  1  0.50016300  0.04385600  0.71934500  1
  Se  Se7  1  0.99983700  0.04385600  0.21934500  1
  O  O0  1  0.30021200  0.37073900  0.49635200  1
  O  O1  1  0.99003500  0.42893700  0.21529900  1
  O  O2  1  0.31483100  0.72695400  0.06676000  1
  O  O3  1  0.49003500  0.57106300  0.28470100  1
  O  O4  1  0.11451100  0.03752400  0.77029500  1
  O  O5  1  0.29606200  0.41018100  0.75027800  1
  O  O6  1  0.68516900  0.27304600  0.93324000  1
  O  O7  1  0.70393800  0.58981900  0.24972200  1
  O  O8  1  0.96826700  0.15311900  0.61179800  1
  O  O9  1  0.46826700  0.84688100  0.88820200  1
  O  O10  1  0.20393800  0.41018100  0.25027800  1
  O  O11  1  0.53173300  0.15311900  0.11179800  1
  O  O12  1  0.03173300  0.84688100  0.38820200  1
  O  O13  1  0.69978800  0.62926100  0.50364800  1
  O  O14  1  0.19978800  0.37073900  0.99635200  1
  O  O15  1  0.00996500  0.57106300  0.78470100  1
  O  O16  1  0.88548900  0.96247600  0.22970500  1
  O  O17  1  0.61451100  0.96247600  0.72970500  1
  O  O18  1  0.80021200  0.62926100  0.00364800  1
  O  O19  1  0.79606200  0.58981900  0.74972200  1
  O  O20  1  0.38548900  0.03752400  0.27029500  1
  O  O21  1  0.81483100  0.27304600  0.43324000  1
  O  O22  1  0.18516900  0.72695400  0.56676000  1
  O  O23  1  0.50996500  0.42893700  0.71529900  1
loop_
_geom_bond_atom_site_label_1
_geom_bond_atom_site_label_2
_geom_bond_distance
_geom_bond_site_symmetry_2
Mn0 O0 2.139062 1_555
Mn0 O20 2.183998 1_555
Mn0 O3 2.189071 1_555
Mn0 O10 2.251419 1_555
Mn0 O2 2.255450 1_555
Mn0 O20 2.485707 1_565
Mn1 O13 2.139062 1_555
Mn1 O17 2.183998 1_555
Mn1 O23 2.189071 1_555
Mn1 O19 2.251419 1_555
Mn1 O6 2.255450 1_555
Mn1 O17 2.485707 1_545
Mn2 O14 2.139062 1_555
Mn2 O4 2.183998 1_555
Mn2 O15 2.189071 1_555
Mn2 O5 2.251419 1_555
Mn2 O22 2.255450 1_555
Mn2 O4 2.485707 1_565
Mn3 O18 2.139062 1_555
Mn3 O16 2.183998 1_555
Mn3 O1 2.189071 1_555
Mn3 O7 2.251419 1_555
Mn3 O21 2.255450 1_555
Mn3 O16 2.485707 1_545
O0 Se5 1.730448 1_555
O0 Sr2 2.826463 1_555
O1 Se7 1.725867 1_555
O1 Sr2 3.114579 1_655
O2 Se1 1.753786 1_555
O2 Sr1 2.593273 1_564
O2 Sr1 2.746584 1_554
O3 Se2 1.725867 1_555
O3 Sr3 3.114579 1_555
O4 Se3 1.759497 1_545
O4 Sr2 2.978696 1_555
O5 Se5 1.728497 1_555
O5 Sr1 2.491089 1_555
O6 Se0 1.753786 1_555
O6 Sr3 2.593273 1_546
O6 Sr3 2.746584 1_556
O7 Se4 1.728497 1_555
O7 Sr3 2.491089 1_555
O8 Se3 1.733688 1_645
O8 Sr0 2.657621 1_555
O8 Sr2 2.659573 1_655
O8 Sr0 2.737695 1_545
O9 Se6 1.733688 1_565
O9 Sr1 2.657621 1_555
O9 Sr3 2.659573 1_556
O9 Sr1 2.737695 1_565
O10 Se1 1.728497 1_555
O10 Sr2 2.491089 1_555
O11 Se2 1.733688 1_545
O11 Sr3 2.657621 1_555
O11 Sr1 2.659573 1_554
O11 Sr3 2.737695 1_545
O12 Se7 1.733688 1_465
O12 Sr2 2.657621 1_555
O12 Sr0 2.659573 1_455
O12 Sr2 2.737695 1_565
O13 Se4 1.730448 1_555
O13 Sr0 2.826463 1_555
O14 Se1 1.730448 1_556
O14 Sr1 2.826463 1_555
O15 Se3 1.725867 1_555
O15 Sr0 3.114579 1_455
O16 Se7 1.759497 1_565
O16 Sr0 2.978696 1_555
O17 Se6 1.759497 1_565
O17 Sr3 2.978696 1_556
O18 Se0 1.730448 1_554
O18 Sr3 2.826463 1_555
O19 Se0 1.728497 1_555
O19 Sr0 2.491089 1_555
O20 Se2 1.759497 1_545
O20 Sr1 2.978696 1_554
O21 Se4 1.753786 1_555
O21 Sr0 2.593273 1_545
O21 Sr0 2.746584 1_555
O22 Se5 1.753786 1_555
O22 Sr2 2.593273 1_565
O22 Sr2 2.746584 1_555
O23 Se6 1.725867 1_555
O23 Sr1 3.114579 1_555
