# generated using pymatgen
data_KZr6CCl15
_symmetry_space_group_name_H-M   'P 1'
_cell_length_a   9.91430900
_cell_length_b   14.13258300
_cell_length_c   18.88891600
_cell_angle_alpha   90.00000000
_cell_angle_beta   90.00000000
_cell_angle_gamma   90.00000000
_symmetry_Int_Tables_number   1
_chemical_formula_structural   KZr6CCl15
_chemical_formula_sum   'K4 Zr24 C4 Cl60'
_cell_volume   2646.61658990
_cell_formula_units_Z   4
loop_
 _symmetry_equiv_pos_site_id
 _symmetry_equiv_pos_as_xyz
  1  'x, y, z'
loop_
 _atom_site_type_symbol
 _atom_site_label
 _atom_site_symmetry_multiplicity
 _atom_site_fract_x
 _atom_site_fract_y
 _atom_site_fract_z
 _atom_site_occupancy
  K  K0  1  0.66899600  0.25258800  0.75000000  1
  K  K1  1  0.66899600  0.74741200  0.75000000  1
  K  K2  1  0.33100400  0.25258800  0.25000000  1
  K  K3  1  0.33100400  0.74741200  0.25000000  1
  Zr  Zr0  1  0.34519000  0.38473200  0.97025000  1
  Zr  Zr1  1  0.15839100  0.11555100  0.83649800  1
  Zr  Zr2  1  0.84160900  0.88444900  0.16350200  1
  Zr  Zr3  1  0.65481000  0.61526800  0.47025000  1
  Zr  Zr4  1  0.65481000  0.38473200  0.47025000  1
  Zr  Zr5  1  0.65481000  0.38473200  0.02975000  1
  Zr  Zr6  1  0.58022900  0.50000000  0.61285400  1
  Zr  Zr7  1  0.34519000  0.38473200  0.52975000  1
  Zr  Zr8  1  0.34519000  0.61526800  0.52975000  1
  Zr  Zr9  1  0.65481000  0.61526800  0.02975000  1
  Zr  Zr10  1  0.84160900  0.88444900  0.33649800  1
  Zr  Zr11  1  0.15839100  0.11555100  0.66350200  1
  Zr  Zr12  1  0.58022900  0.50000000  0.88714600  1
  Zr  Zr13  1  0.92847900  0.00000000  0.75000000  1
  Zr  Zr14  1  0.84160900  0.11555100  0.16350200  1
  Zr  Zr15  1  0.41977100  0.50000000  0.11285400  1
  Zr  Zr16  1  0.34519000  0.61526800  0.97025000  1
  Zr  Zr17  1  0.15839100  0.88444900  0.66350200  1
  Zr  Zr18  1  0.07152100  0.00000000  0.25000000  1
  Zr  Zr19  1  0.61433700  0.00000000  0.25000000  1
  Zr  Zr20  1  0.41977100  0.50000000  0.38714600  1
  Zr  Zr21  1  0.84160900  0.11555100  0.33649800  1
  Zr  Zr22  1  0.38566300  0.00000000  0.75000000  1
  Zr  Zr23  1  0.15839100  0.88444900  0.83649800  1
  C  C0  1  0.15664700  0.00000000  0.75000000  1
  C  C1  1  0.50000000  0.50000000  0.50000000  1
  C  C2  1  0.50000000  0.50000000  0.00000000  1
  C  C3  1  0.84335300  0.00000000  0.25000000  1
  Cl  Cl0  1  0.41534000  0.12571100  0.65550600  1
  Cl  Cl1  1  0.50000000  0.24687800  0.50000000  1
  Cl  Cl2  1  0.16421500  0.25068400  0.93605000  1
  Cl  Cl3  1  0.50000000  0.75312200  0.50000000  1
  Cl  Cl4  1  0.58466000  0.87428900  0.34449400  1
  Cl  Cl5  1  0.58056300  0.62531800  0.15886000  1
  Cl  Cl6  1  0.83990400  0.50000000  0.06546000  1
  Cl  Cl7  1  0.09982900  0.12677700  0.34568900  1
  Cl  Cl8  1  0.75948900  0.62750700  0.59453900  1
  Cl  Cl9  1  0.90017100  0.12677700  0.84568900  1
  Cl  Cl10  1  0.84206200  0.00000000  0.06018200  1
  Cl  Cl11  1  0.24051100  0.37249300  0.40546100  1
  Cl  Cl12  1  0.50000000  0.24687800  0.00000000  1
  Cl  Cl13  1  0.16009600  0.50000000  0.93454000  1
  Cl  Cl14  1  0.32017300  0.50000000  0.25000000  1
  Cl  Cl15  1  0.50000000  0.75312200  0.00000000  1
  Cl  Cl16  1  0.15793800  0.00000000  0.56018200  1
  Cl  Cl17  1  0.41943700  0.37468200  0.65886000  1
  Cl  Cl18  1  0.41534000  0.87428900  0.84449400  1
  Cl  Cl19  1  0.24051100  0.37249300  0.09453900  1
  Cl  Cl20  1  0.84206200  0.00000000  0.43981800  1
  Cl  Cl21  1  0.90017100  0.87322300  0.84568900  1
  Cl  Cl22  1  0.09982900  0.12677700  0.15431100  1
  Cl  Cl23  1  0.83990400  0.50000000  0.43454000  1
  Cl  Cl24  1  0.58056300  0.62531800  0.34114000  1
  Cl  Cl25  1  0.16421500  0.74931600  0.56395000  1
  Cl  Cl26  1  0.58466000  0.87428900  0.15550600  1
  Cl  Cl27  1  0.65777100  0.00000000  0.75000000  1
  Cl  Cl28  1  0.84943800  0.74631200  0.25000000  1
  Cl  Cl29  1  0.41943700  0.62531800  0.84114000  1
  Cl  Cl30  1  0.83578500  0.25068400  0.06395000  1
  Cl  Cl31  1  0.75948900  0.37249300  0.90546100  1
  Cl  Cl32  1  0.58466000  0.12571100  0.34449400  1
  Cl  Cl33  1  0.83578500  0.74931600  0.06395000  1
  Cl  Cl34  1  0.34222900  0.00000000  0.25000000  1
  Cl  Cl35  1  0.58056300  0.37468200  0.34114000  1
  Cl  Cl36  1  0.75948900  0.37249300  0.59453900  1
  Cl  Cl37  1  0.84943800  0.25368800  0.25000000  1
  Cl  Cl38  1  0.67982700  0.50000000  0.75000000  1
  Cl  Cl39  1  0.16421500  0.25068400  0.56395000  1
  Cl  Cl40  1  0.16009600  0.50000000  0.56546000  1
  Cl  Cl41  1  0.09982900  0.87322300  0.34568900  1
  Cl  Cl42  1  0.24051100  0.62750700  0.40546100  1
  Cl  Cl43  1  0.90017100  0.87322300  0.65431100  1
  Cl  Cl44  1  0.41534000  0.12571100  0.84449400  1
  Cl  Cl45  1  0.24051100  0.62750700  0.09453900  1
  Cl  Cl46  1  0.41943700  0.62531800  0.65886000  1
  Cl  Cl47  1  0.09982900  0.87322300  0.15431100  1
  Cl  Cl48  1  0.16421500  0.74931600  0.93605000  1
  Cl  Cl49  1  0.41534000  0.87428900  0.65550600  1
  Cl  Cl50  1  0.15793800  0.00000000  0.93981800  1
  Cl  Cl51  1  0.15056200  0.74631200  0.75000000  1
  Cl  Cl52  1  0.75948900  0.62750700  0.90546100  1
  Cl  Cl53  1  0.58056300  0.37468200  0.15886000  1
  Cl  Cl54  1  0.90017100  0.12677700  0.65431100  1
  Cl  Cl55  1  0.83578500  0.74931600  0.43605000  1
  Cl  Cl56  1  0.41943700  0.37468200  0.84114000  1
  Cl  Cl57  1  0.58466000  0.12571100  0.15550600  1
  Cl  Cl58  1  0.15056200  0.25368800  0.75000000  1
  Cl  Cl59  1  0.83578500  0.25068400  0.43605000  1
loop_
_geom_bond_atom_site_label_1
_geom_bond_atom_site_label_2
_geom_bond_distance
_geom_bond_site_symmetry_2
C0 Zr13 2.262128 1_455
C0 Zr22 2.270535 1_555
C0 Zr23 2.310103 1_545
C0 Zr17 2.310103 1_545
C0 Zr11 2.310103 1_555
C0 Zr1 2.310103 1_555
C1 Zr20 2.275255 1_555
C1 Zr6 2.275255 1_555
C1 Zr4 2.307651 1_555
C1 Zr7 2.307651 1_555
C1 Zr8 2.307651 1_555
C1 Zr3 2.307651 1_555
C2 Zr15 2.275255 1_555
C2 Zr12 2.275255 1_554
C2 Zr5 2.307651 1_555
C2 Zr0 2.307651 1_554
C2 Zr16 2.307651 1_554
C2 Zr9 2.307651 1_555
C3 Zr18 2.262128 1_655
C3 Zr19 2.270535 1_555
C3 Zr2 2.310103 1_545
C3 Zr14 2.310103 1_555
C3 Zr10 2.310103 1_545
C3 Zr21 2.310103 1_555
Cl0 Zr22 2.535504 1_555
Cl0 Zr11 2.555982 1_555
Cl0 K0 3.567264 1_555
Cl1 Zr4 2.543051 1_555
Cl1 Zr7 2.543051 1_555
Cl2 Zr1 2.680784 1_555
Cl2 Zr0 2.688037 1_555
Cl3 Zr8 2.543051 1_555
Cl3 Zr3 2.543051 1_555
Cl4 Zr19 2.535504 1_565
Cl4 Zr10 2.555982 1_555
Cl4 K3 3.567264 1_555
Cl5 Zr15 2.536362 1_555
Cl5 Zr9 2.551376 1_555
Cl5 K3 3.473145 1_555
Cl6 Zr5 2.544848 1_555
Cl6 Zr9 2.544848 1_555
Cl7 Zr18 2.560434 1_555
Cl7 Zr21 2.570853 1_455
Cl7 K2 3.417794 1_555
Cl8 Zr6 2.554501 1_555
Cl8 Zr3 2.572666 1_555
Cl8 K1 3.507058 1_555
Cl9 Zr13 2.560434 1_555
Cl9 Zr1 2.570853 1_655
Cl9 K0 3.417794 1_555
Cl10 Zr2 2.544715 1_545
Cl10 Zr14 2.544715 1_555
Cl11 Zr20 2.554501 1_555
Cl11 Zr7 2.572666 1_555
Cl11 K2 3.507058 1_555
Cl12 Zr5 2.543051 1_555
Cl12 Zr0 2.543051 1_554
Cl13 Zr0 2.544848 1_555
Cl13 Zr16 2.544848 1_555
Cl14 Zr20 2.772353 1_555
Cl14 Zr15 2.772353 1_555
Cl14 K3 3.498219 1_555
Cl14 K2 3.498219 1_555
Cl15 Zr9 2.543051 1_555
Cl15 Zr16 2.543051 1_554
Cl16 Zr17 2.544715 1_545
Cl16 Zr11 2.544715 1_555
Cl17 Zr6 2.536362 1_555
Cl17 Zr7 2.551376 1_555
Cl17 K0 3.473145 1_555
Cl18 Zr22 2.535504 1_565
Cl18 Zr23 2.555982 1_555
Cl18 K1 3.567264 1_555
Cl19 Zr15 2.554501 1_555
Cl19 Zr0 2.572666 1_554
Cl19 K2 3.507058 1_555
Cl20 Zr10 2.544715 1_545
Cl20 Zr21 2.544715 1_555
Cl21 Zr13 2.560434 1_565
Cl21 Zr23 2.570853 1_655
Cl21 K1 3.417794 1_555
Cl22 Zr18 2.560434 1_555
Cl22 Zr14 2.570853 1_455
Cl22 K2 3.417794 1_555
Cl23 Zr4 2.544848 1_555
Cl23 Zr3 2.544848 1_555
Cl24 Zr20 2.536362 1_555
Cl24 Zr3 2.551376 1_555
Cl24 K3 3.473145 1_555
Cl25 Zr17 2.680784 1_555
Cl25 Zr8 2.688037 1_555
Cl26 Zr19 2.535504 1_565
Cl26 Zr2 2.555982 1_555
Cl26 K3 3.567264 1_555
Cl27 Zr13 2.683883 1_555
Cl27 Zr22 2.697763 1_555
Cl27 K0 3.571455 1_555
Cl27 K1 3.571455 1_545
Cl28 Zr2 2.546903 1_555
Cl28 Zr10 2.546903 1_555
Cl29 Zr12 2.536362 1_555
Cl29 Zr16 2.551376 1_555
Cl29 K1 3.473145 1_555
Cl30 Zr14 2.680784 1_555
Cl30 Zr5 2.688037 1_555
Cl31 Zr12 2.554501 1_555
Cl31 Zr5 2.572666 1_556
Cl31 K0 3.507058 1_555
Cl32 Zr19 2.535504 1_555
Cl32 Zr21 2.555982 1_555
Cl32 K2 3.567264 1_555
Cl33 Zr2 2.680784 1_555
Cl33 Zr9 2.688037 1_555
Cl34 Zr18 2.683883 1_555
Cl34 Zr19 2.697763 1_555
Cl34 K2 3.571455 1_555
Cl34 K3 3.571455 1_545
Cl35 Zr20 2.536362 1_555
Cl35 Zr4 2.551376 1_555
Cl35 K2 3.473145 1_555
Cl36 Zr6 2.554501 1_555
Cl36 Zr4 2.572666 1_555
Cl36 K0 3.507058 1_555
Cl37 Zr14 2.546903 1_555
Cl37 Zr21 2.546903 1_555
Cl38 Zr12 2.772353 1_555
Cl38 Zr6 2.772353 1_555
Cl38 K1 3.498219 1_555
Cl38 K0 3.498219 1_555
Cl39 Zr11 2.680784 1_555
Cl39 Zr7 2.688037 1_555
Cl40 Zr7 2.544848 1_555
Cl40 Zr8 2.544848 1_555
Cl41 Zr18 2.560434 1_565
Cl41 Zr10 2.570853 1_455
Cl41 K3 3.417794 1_555
Cl42 Zr20 2.554501 1_555
Cl42 Zr8 2.572666 1_555
Cl42 K3 3.507058 1_555
Cl43 Zr13 2.560434 1_565
Cl43 Zr17 2.570853 1_655
Cl43 K1 3.417794 1_555
Cl44 Zr22 2.535504 1_555
Cl44 Zr1 2.555982 1_555
Cl44 K0 3.567264 1_555
Cl45 Zr15 2.554501 1_555
Cl45 Zr16 2.572666 1_554
Cl45 K3 3.507058 1_555
Cl46 Zr6 2.536362 1_555
Cl46 Zr8 2.551376 1_555
Cl46 K1 3.473145 1_555
Cl47 Zr18 2.560434 1_565
Cl47 Zr2 2.570853 1_455
Cl47 K3 3.417794 1_555
Cl48 Zr23 2.680784 1_555
Cl48 Zr16 2.688037 1_555
Cl49 Zr22 2.535504 1_565
Cl49 Zr17 2.555982 1_555
Cl49 K1 3.567264 1_555
Cl50 Zr23 2.544715 1_545
Cl50 Zr1 2.544715 1_555
Cl51 Zr17 2.546903 1_555
Cl51 Zr23 2.546903 1_555
Cl52 Zr12 2.554501 1_555
Cl52 Zr9 2.572666 1_556
Cl52 K1 3.507058 1_555
Cl53 Zr15 2.536362 1_555
Cl53 Zr5 2.551376 1_555
Cl53 K2 3.473145 1_555
Cl54 Zr13 2.560434 1_555
Cl54 Zr11 2.570853 1_655
Cl54 K0 3.417794 1_555
Cl55 Zr10 2.680784 1_555
Cl55 Zr3 2.688037 1_555
Cl56 Zr12 2.536362 1_555
Cl56 Zr0 2.551376 1_555
Cl56 K0 3.473145 1_555
Cl57 Zr19 2.535504 1_555
Cl57 Zr14 2.555982 1_555
Cl57 K2 3.567264 1_555
Cl58 Zr1 2.546903 1_555
Cl58 Zr11 2.546903 1_555
Cl59 Zr21 2.680784 1_555
Cl59 Zr4 2.688037 1_555
