# generated using pymatgen
data_Mn2O3
_symmetry_space_group_name_H-M   'P 1'
_cell_length_a   9.59898300
_cell_length_b   9.61929200
_cell_length_c   9.62191800
_cell_angle_alpha   90.00000000
_cell_angle_beta   90.00000000
_cell_angle_gamma   90.00000000
_symmetry_Int_Tables_number   1
_chemical_formula_structural   Mn2O3
_chemical_formula_sum   'Mn32 O48'
_cell_volume   888.44384339
_cell_formula_units_Z   16
loop_
 _symmetry_equiv_pos_site_id
 _symmetry_equiv_pos_as_xyz
  1  'x, y, z'
loop_
 _atom_site_type_symbol
 _atom_site_label
 _atom_site_symmetry_multiplicity
 _atom_site_fract_x
 _atom_site_fract_y
 _atom_site_fract_z
 _atom_site_occupancy
  Mn  Mn0  1  0.75287400  0.28582400  0.49884000  1
  Mn  Mn1  1  0.00521900  0.24499000  0.28527800  1
  Mn  Mn2  1  0.50521900  0.25501000  0.71472200  1
  Mn  Mn3  1  0.24712600  0.78582400  0.00116000  1
  Mn  Mn4  1  0.00000000  0.00000000  0.50000000  1
  Mn  Mn5  1  0.25287400  0.28582400  0.00116000  1
  Mn  Mn6  1  0.50521900  0.24499000  0.21472200  1
  Mn  Mn7  1  0.00521900  0.25501000  0.78527800  1
  Mn  Mn8  1  0.74712600  0.78582400  0.49884000  1
  Mn  Mn9  1  0.24712600  0.71417600  0.50116000  1
  Mn  Mn10  1  0.00000000  0.00000000  0.00000000  1
  Mn  Mn11  1  0.49478100  0.74499000  0.28527800  1
  Mn  Mn12  1  0.75287400  0.21417600  0.99884000  1
  Mn  Mn13  1  0.74712600  0.71417600  0.99884000  1
  Mn  Mn14  1  0.28448800  0.99346100  0.25222800  1
  Mn  Mn15  1  0.28448800  0.50653900  0.75222800  1
  Mn  Mn16  1  0.21551200  0.49346100  0.25222800  1
  Mn  Mn17  1  0.78448800  0.50653900  0.74777200  1
  Mn  Mn18  1  0.99478100  0.75501000  0.71472200  1
  Mn  Mn19  1  0.99478100  0.74499000  0.21472200  1
  Mn  Mn20  1  0.71551200  0.49346100  0.24777200  1
  Mn  Mn21  1  0.00000000  0.50000000  0.00000000  1
  Mn  Mn22  1  0.00000000  0.50000000  0.50000000  1
  Mn  Mn23  1  0.21551200  0.00653900  0.75222800  1
  Mn  Mn24  1  0.78448800  0.99346100  0.24777200  1
  Mn  Mn25  1  0.50000000  0.50000000  0.00000000  1
  Mn  Mn26  1  0.71551200  0.00653900  0.74777200  1
  Mn  Mn27  1  0.50000000  0.00000000  0.00000000  1
  Mn  Mn28  1  0.25287400  0.21417600  0.50116000  1
  Mn  Mn29  1  0.49478100  0.75501000  0.78527800  1
  Mn  Mn30  1  0.50000000  0.50000000  0.50000000  1
  Mn  Mn31  1  0.50000000  0.00000000  0.50000000  1
  O  O0  1  0.86423800  0.64971300  0.58744400  1
  O  O1  1  0.59095800  0.13657600  0.85350600  1
  O  O2  1  0.86423800  0.85028700  0.08744400  1
  O  O3  1  0.87488100  0.35892600  0.91541000  1
  O  O4  1  0.35916200  0.08776200  0.62981100  1
  O  O5  1  0.91786700  0.12420200  0.14368400  1
  O  O6  1  0.40904200  0.63657600  0.64649400  1
  O  O7  1  0.35916200  0.41223800  0.12981100  1
  O  O8  1  0.14660700  0.41816600  0.87181000  1
  O  O9  1  0.58213300  0.62420200  0.14368400  1
  O  O10  1  0.85916200  0.41223800  0.37018900  1
  O  O11  1  0.13576200  0.35028700  0.41255600  1
  O  O12  1  0.09095800  0.36342400  0.14649400  1
  O  O13  1  0.14083800  0.91223800  0.12981100  1
  O  O14  1  0.85339300  0.91816600  0.62819000  1
  O  O15  1  0.14660700  0.08183400  0.37181000  1
  O  O16  1  0.64083800  0.58776200  0.87018900  1
  O  O17  1  0.90904200  0.86342400  0.35350600  1
  O  O18  1  0.09095800  0.13657600  0.64649400  1
  O  O19  1  0.63576200  0.35028700  0.08744400  1
  O  O20  1  0.64083800  0.91223800  0.37018900  1
  O  O21  1  0.87488100  0.14107400  0.41541000  1
  O  O22  1  0.08213300  0.62420200  0.35631600  1
  O  O23  1  0.58213300  0.87579800  0.64368400  1
  O  O24  1  0.35339300  0.58183400  0.37181000  1
  O  O25  1  0.35339300  0.91816600  0.87181000  1
  O  O26  1  0.85339300  0.58183400  0.12819000  1
  O  O27  1  0.90904200  0.63657600  0.85350600  1
  O  O28  1  0.41786700  0.12420200  0.35631600  1
  O  O29  1  0.14083800  0.58776200  0.62981100  1
  O  O30  1  0.63576200  0.14971300  0.58744400  1
  O  O31  1  0.85916200  0.08776200  0.87018900  1
  O  O32  1  0.12511900  0.85892600  0.58459000  1
  O  O33  1  0.62511900  0.64107400  0.41541000  1
  O  O34  1  0.62511900  0.85892600  0.91541000  1
  O  O35  1  0.37488100  0.35892600  0.58459000  1
  O  O36  1  0.64660700  0.08183400  0.12819000  1
  O  O37  1  0.40904200  0.86342400  0.14649400  1
  O  O38  1  0.59095800  0.36342400  0.35350600  1
  O  O39  1  0.91786700  0.37579800  0.64368400  1
  O  O40  1  0.13576200  0.14971300  0.91255600  1
  O  O41  1  0.41786700  0.37579800  0.85631600  1
  O  O42  1  0.36423800  0.85028700  0.41255600  1
  O  O43  1  0.12511900  0.64107400  0.08459000  1
  O  O44  1  0.37488100  0.14107400  0.08459000  1
  O  O45  1  0.64660700  0.41816600  0.62819000  1
  O  O46  1  0.08213300  0.87579800  0.85631600  1
  O  O47  1  0.36423800  0.64971300  0.91255600  1
loop_
_geom_bond_atom_site_label_1
_geom_bond_atom_site_label_2
_geom_bond_distance
_geom_bond_site_symmetry_2
Mn0 O30 1.924785 1_555
Mn0 O21 1.988656 1_555
Mn0 O10 2.012941 1_555
Mn0 O45 2.051865 1_555
Mn0 O38 2.219983 1_555
Mn0 O39 2.280288 1_555
Mn1 O12 1.938670 1_555
Mn1 O5 1.977174 1_455
Mn1 O11 2.023840 1_555
Mn1 O21 2.032801 1_455
Mn1 O15 2.235694 1_555
Mn1 O10 2.285030 1_455
Mn2 O1 1.938670 1_555
Mn2 O41 1.977174 1_555
Mn2 O30 2.023840 1_555
Mn2 O35 2.032801 1_555
Mn2 O45 2.235694 1_555
Mn2 O4 2.285030 1_555
Mn3 O47 1.924785 1_554
Mn3 O43 1.988656 1_555
Mn3 O13 2.012941 1_555
Mn3 O25 2.051865 1_554
Mn3 O37 2.219983 1_555
Mn3 O46 2.280288 1_554
Mn4 O21 1.986564 1_455
Mn4 O32 1.986564 1_545
Mn4 O14 2.030136 1_445
Mn4 O15 2.030136 1_555
Mn4 O18 2.115450 1_555
Mn4 O17 2.115450 1_445
Mn5 O40 1.924785 1_554
Mn5 O44 1.988656 1_555
Mn5 O7 2.012941 1_555
Mn5 O8 2.051865 1_554
Mn5 O12 2.219983 1_555
Mn5 O41 2.280288 1_554
Mn6 O38 1.938670 1_555
Mn6 O28 1.977174 1_555
Mn6 O19 2.023840 1_555
Mn6 O44 2.032801 1_555
Mn6 O36 2.235694 1_555
Mn6 O7 2.285030 1_555
Mn7 O18 1.938670 1_555
Mn7 O39 1.977174 1_455
Mn7 O40 2.023840 1_555
Mn7 O3 2.032801 1_455
Mn7 O8 2.235694 1_555
Mn7 O31 2.285030 1_455
Mn8 O0 1.924785 1_555
Mn8 O33 1.988656 1_555
Mn8 O20 2.012941 1_555
Mn8 O14 2.051865 1_555
Mn8 O17 2.219983 1_555
Mn8 O23 2.280288 1_555
Mn9 O42 1.924785 1_555
Mn9 O32 1.988656 1_555
Mn9 O29 2.012941 1_555
Mn9 O24 2.051865 1_555
Mn9 O6 2.219983 1_555
Mn9 O22 2.280288 1_555
Mn10 O5 1.990052 1_455
Mn10 O46 1.990052 1_544
Mn10 O13 2.024945 1_545
Mn10 O31 2.024945 1_454
Mn10 O2 2.116642 1_445
Mn10 O40 2.116642 1_554
Mn11 O37 1.938670 1_555
Mn11 O9 1.977174 1_555
Mn11 O42 2.023840 1_555
Mn11 O33 2.032801 1_555
Mn11 O24 2.235694 1_555
Mn11 O20 2.285030 1_555
Mn12 O19 1.924785 1_556
Mn12 O3 1.988656 1_555
Mn12 O31 2.012941 1_555
Mn12 O36 2.051865 1_556
Mn12 O1 2.219983 1_555
Mn12 O5 2.280288 1_556
Mn13 O2 1.924785 1_556
Mn13 O34 1.988656 1_555
Mn13 O16 2.012941 1_555
Mn13 O26 2.051865 1_556
Mn13 O27 2.219983 1_555
Mn13 O9 2.280288 1_556
Mn14 O15 1.948908 1_565
Mn14 O13 1.974641 1_555
Mn14 O37 2.007269 1_555
Mn14 O28 2.055207 1_565
Mn14 O42 2.205130 1_555
Mn14 O44 2.317508 1_565
Mn15 O8 1.948908 1_555
Mn15 O29 1.974641 1_555
Mn15 O6 2.007269 1_555
Mn15 O41 2.055207 1_555
Mn15 O47 2.205130 1_555
Mn15 O35 2.317508 1_555
Mn16 O24 1.948908 1_555
Mn16 O7 1.974641 1_555
Mn16 O12 2.007269 1_555
Mn16 O22 2.055207 1_555
Mn16 O11 2.205130 1_555
Mn16 O43 2.317508 1_555
Mn17 O45 1.948908 1_555
Mn17 O16 1.974641 1_555
Mn17 O27 2.007269 1_555
Mn17 O39 2.055207 1_555
Mn17 O0 2.205130 1_555
Mn17 O3 2.317508 1_555
Mn18 O27 1.938670 1_555
Mn18 O46 1.977174 1_655
Mn18 O0 2.023840 1_555
Mn18 O32 2.032801 1_655
Mn18 O14 2.235694 1_555
Mn18 O29 2.285030 1_655
Mn19 O17 1.938670 1_555
Mn19 O22 1.977174 1_655
Mn19 O2 2.023840 1_555
Mn19 O43 2.032801 1_655
Mn19 O26 2.235694 1_555
Mn19 O13 2.285030 1_655
Mn20 O26 1.948908 1_555
Mn20 O10 1.974641 1_555
Mn20 O38 2.007269 1_555
Mn20 O9 2.055207 1_555
Mn20 O19 2.205130 1_555
Mn20 O33 2.317508 1_555
Mn21 O3 1.986564 1_454
Mn21 O43 1.986564 1_555
Mn21 O26 2.030136 1_455
Mn21 O8 2.030136 1_554
Mn21 O12 2.115450 1_555
Mn21 O27 2.115450 1_454
Mn22 O39 1.990052 1_455
Mn22 O22 1.990052 1_555
Mn22 O29 2.024945 1_555
Mn22 O10 2.024945 1_455
Mn22 O11 2.116642 1_555
Mn22 O0 2.116642 1_455
Mn23 O25 1.948908 1_545
Mn23 O4 1.974641 1_555
Mn23 O18 2.007269 1_555
Mn23 O46 2.055207 1_545
Mn23 O40 2.205130 1_555
Mn23 O32 2.317508 1_545
Mn24 O36 1.948908 1_565
Mn24 O20 1.974641 1_555
Mn24 O17 2.007269 1_555
Mn24 O5 2.055207 1_565
Mn24 O2 2.205130 1_555
Mn24 O21 2.317508 1_565
Mn25 O41 1.990052 1_554
Mn25 O9 1.990052 1_555
Mn25 O16 2.024945 1_554
Mn25 O7 2.024945 1_555
Mn25 O19 2.116642 1_555
Mn25 O47 2.116642 1_554
Mn26 O14 1.948908 1_545
Mn26 O31 1.974641 1_555
Mn26 O1 2.007269 1_555
Mn26 O23 2.055207 1_545
Mn26 O30 2.205130 1_555
Mn26 O34 2.317508 1_545
Mn27 O44 1.986564 1_555
Mn27 O34 1.986564 1_544
Mn27 O25 2.030136 1_544
Mn27 O36 2.030136 1_555
Mn27 O1 2.115450 1_554
Mn27 O37 2.115450 1_545
Mn28 O11 1.924785 1_555
Mn28 O35 1.988656 1_555
Mn28 O4 2.012941 1_555
Mn28 O15 2.051865 1_555
Mn28 O18 2.219983 1_555
Mn28 O28 2.280288 1_555
Mn29 O6 1.938670 1_555
Mn29 O23 1.977174 1_555
Mn29 O47 2.023840 1_555
Mn29 O34 2.032801 1_555
Mn29 O25 2.235694 1_555
Mn29 O16 2.285030 1_555
Mn30 O33 1.986564 1_555
Mn30 O35 1.986564 1_555
Mn30 O24 2.030136 1_555
Mn30 O45 2.030136 1_555
Mn30 O38 2.115450 1_555
Mn30 O6 2.115450 1_555
Mn31 O28 1.990052 1_555
Mn31 O23 1.990052 1_545
Mn31 O20 2.024945 1_545
Mn31 O4 2.024945 1_555
Mn31 O30 2.116642 1_555
Mn31 O42 2.116642 1_545
