# generated using pymatgen
data_Ba14Na7CaN6
_symmetry_space_group_name_H-M   'P 1'
_cell_length_a   22.10833217
_cell_length_b   22.10833235
_cell_length_c   22.10833154
_cell_angle_alpha   29.88911339
_cell_angle_beta   29.88911255
_cell_angle_gamma   29.88911233
_symmetry_Int_Tables_number   1
_chemical_formula_structural   Ba14Na7CaN6
_chemical_formula_sum   'Ba28 Na14 Ca2 N12'
_cell_volume   2376.54134824
_cell_formula_units_Z   2
loop_
 _symmetry_equiv_pos_site_id
 _symmetry_equiv_pos_as_xyz
  1  'x, y, z'
loop_
 _atom_site_type_symbol
 _atom_site_label
 _atom_site_symmetry_multiplicity
 _atom_site_fract_x
 _atom_site_fract_y
 _atom_site_fract_z
 _atom_site_occupancy
  Ba  Ba0  1  0.13047740  0.84427499  0.38523415  1
  Ba  Ba1  1  0.15572501  0.61476585  0.86952260  1
  Ba  Ba2  1  0.84427499  0.38523415  0.13047740  1
  Ba  Ba3  1  0.55269331  0.55269331  0.55269331  1
  Ba  Ba4  1  0.05269331  0.05269331  0.05269331  1
  Ba  Ba5  1  0.44730669  0.44730669  0.44730669  1
  Ba  Ba6  1  0.86952260  0.15572501  0.61476585  1
  Ba  Ba7  1  0.34427499  0.63047740  0.88523415  1
  Ba  Ba8  1  0.63047740  0.88523415  0.34427499  1
  Ba  Ba9  1  0.18759390  0.53137222  0.72924330  1
  Ba  Ba10  1  0.72924330  0.18759390  0.53137222  1
  Ba  Ba11  1  0.88523415  0.34427499  0.63047740  1
  Ba  Ba12  1  0.22924330  0.03137222  0.68759390  1
  Ba  Ba13  1  0.68759390  0.22924330  0.03137222  1
  Ba  Ba14  1  0.81240610  0.46862778  0.27075670  1
  Ba  Ba15  1  0.94730669  0.94730669  0.94730669  1
  Ba  Ba16  1  0.36952260  0.11476585  0.65572501  1
  Ba  Ba17  1  0.65572501  0.36952260  0.11476585  1
  Ba  Ba18  1  0.53137222  0.72924330  0.18759390  1
  Ba  Ba19  1  0.61476585  0.86952260  0.15572501  1
  Ba  Ba20  1  0.96862778  0.31240610  0.77075670  1
  Ba  Ba21  1  0.27075670  0.81240610  0.46862778  1
  Ba  Ba22  1  0.46862778  0.27075670  0.81240610  1
  Ba  Ba23  1  0.11476585  0.65572501  0.36952260  1
  Ba  Ba24  1  0.03137222  0.68759390  0.22924330  1
  Ba  Ba25  1  0.38523415  0.13047740  0.84427499  1
  Ba  Ba26  1  0.77075670  0.96862778  0.31240610  1
  Ba  Ba27  1  0.31240610  0.77075670  0.96862778  1
  Na  Na0  1  0.66472787  0.66472787  0.66472787  1
  Na  Na1  1  0.95931179  0.54068821  0.25000000  1
  Na  Na2  1  0.45931179  0.75000000  0.04068821  1
  Na  Na3  1  0.22169077  0.22169077  0.22169077  1
  Na  Na4  1  0.72169077  0.72169077  0.72169077  1
  Na  Na5  1  0.54068821  0.25000000  0.95931179  1
  Na  Na6  1  0.16472787  0.16472787  0.16472787  1
  Na  Na7  1  0.83527213  0.83527213  0.83527213  1
  Na  Na8  1  0.27830923  0.27830923  0.27830923  1
  Na  Na9  1  0.33527213  0.33527213  0.33527213  1
  Na  Na10  1  0.25000000  0.95931179  0.54068821  1
  Na  Na11  1  0.77830923  0.77830923  0.77830923  1
  Na  Na12  1  0.75000000  0.04068821  0.45931179  1
  Na  Na13  1  0.04068821  0.45931179  0.75000000  1
  Ca  Ca0  1  0.00000000  0.00000000  0.00000000  1
  Ca  Ca1  1  0.50000000  0.50000000  0.50000000  1
  N  N0  1  0.05755195  0.82530720  0.18777881  1
  N  N1  1  0.68777881  0.32530720  0.55755195  1
  N  N2  1  0.44244805  0.31222119  0.67469280  1
  N  N3  1  0.82530720  0.18777881  0.05755195  1
  N  N4  1  0.67469280  0.44244805  0.31222119  1
  N  N5  1  0.32530720  0.55755195  0.68777881  1
  N  N6  1  0.18777881  0.05755195  0.82530720  1
  N  N7  1  0.55755195  0.68777881  0.32530720  1
  N  N8  1  0.31222119  0.67469280  0.44244805  1
  N  N9  1  0.94244805  0.17469280  0.81222119  1
  N  N10  1  0.81222119  0.94244805  0.17469280  1
  N  N11  1  0.17469280  0.81222119  0.94244805  1
loop_
_geom_bond_atom_site_label_1
_geom_bond_atom_site_label_2
_geom_bond_distance
_geom_bond_site_symmetry_2
Ba0 N8 2.503874 1_555
Ba0 Na12 4.171618 1_465
Ba0 Na6 4.188668 1_565
Ba0 Na11 4.319344 1_455
Ba0 Na2 4.522349 1_555
Ba1 N5 2.503874 1_555
Ba1 Na1 4.171618 1_456
Ba1 Na7 4.188667 1_455
Ba1 Na3 4.319344 1_556
Ba1 Na10 4.522349 1_555
Ba2 N4 2.503874 1_555
Ba2 Na13 4.171618 1_654
Ba2 Na6 4.188667 1_655
Ba2 Na11 4.319344 1_554
Ba2 Na12 4.522349 1_555
Ba3 N7 2.790955 1_555
Ba3 N1 2.790955 1_555
Ba3 N5 2.790955 1_555
Ba3 Na5 4.505044 1_555
Ba3 Na10 4.505044 1_555
Ba3 Na1 4.505044 1_555
Ba4 N6 2.790955 1_554
Ba4 N3 2.790955 1_455
Ba4 N0 2.790955 1_545
Ba4 Na12 4.505044 1_455
Ba4 Na2 4.505044 1_545
Ba4 Na13 4.505045 1_554
Ba5 N2 2.790955 1_555
Ba5 N8 2.790955 1_555
Ba5 N4 2.790955 1_555
Ba5 Na2 4.505044 1_555
Ba5 Na12 4.505044 1_555
Ba5 Na13 4.505044 1_555
Ba6 N1 2.503874 1_555
Ba6 Na10 4.171618 1_645
Ba6 Na7 4.188668 1_545
Ba6 Na3 4.319344 1_655
Ba6 Na5 4.522349 1_555
Ba7 N11 2.503874 1_555
Ba7 Na5 4.171618 1_555
Ba7 Na0 4.188668 1_555
Ba7 Na8 4.319345 1_556
Ba7 Na10 4.522349 1_555
Ba8 N10 2.503874 1_555
Ba8 Na10 4.171618 1_555
Ba8 Na0 4.188667 1_555
Ba8 Na8 4.319344 1_565
Ba8 Na1 4.522349 1_555
Ba9 N2 2.772881 1_555
Ba9 N5 2.782267 1_555
Ba9 N8 2.800534 1_555
Ba9 Na7 4.026323 1_455
Ba9 Na13 4.291520 1_555
Ba10 N4 2.772881 1_555
Ba10 N1 2.782267 1_555
Ba10 N2 2.800534 1_555
Ba10 Na7 4.026323 1_545
Ba10 Na12 4.291520 1_555
Ba11 N9 2.503874 1_555
Ba11 Na1 4.171618 1_555
Ba11 Na0 4.188668 1_555
Ba11 Na8 4.319344 1_655
Ba11 Na5 4.522349 1_555
Ba12 N11 2.772881 1_545
Ba12 N6 2.782267 1_555
Ba12 N9 2.800534 1_455
Ba12 Na9 4.026323 1_555
Ba12 Na10 4.291520 1_545
Ba13 N9 2.772881 1_554
Ba13 N3 2.782267 1_555
Ba13 N10 2.800535 1_545
Ba13 Na9 4.026322 1_555
Ba13 Na5 4.291520 1_554
Ba14 N7 2.772881 1_555
Ba14 N4 2.782267 1_555
Ba14 N1 2.800534 1_555
Ba14 Na6 4.026323 1_655
Ba14 Na1 4.291520 1_555
Ba15 N10 2.790955 1_556
Ba15 N11 2.790955 1_655
Ba15 N9 2.790955 1_565
Ba15 Na10 4.505044 1_655
Ba15 Na5 4.505044 1_565
Ba15 Na1 4.505045 1_556
Ba16 N6 2.503874 1_555
Ba16 Na12 4.171618 1_555
Ba16 Na9 4.188667 1_555
Ba16 Na4 4.319344 1_545
Ba16 Na13 4.522349 1_555
Ba17 N3 2.503874 1_555
Ba17 Na2 4.171618 1_555
Ba17 Na9 4.188668 1_555
Ba17 Na4 4.319345 1_554
Ba17 Na12 4.522349 1_555
Ba18 N8 2.772881 1_555
Ba18 N7 2.782267 1_555
Ba18 N4 2.800535 1_555
Ba18 Na7 4.026323 1_554
Ba18 Na2 4.291520 1_555
Ba19 N7 2.503874 1_555
Ba19 Na5 4.171618 1_564
Ba19 Na7 4.188667 1_554
Ba19 Na3 4.319344 1_565
Ba19 Na1 4.522349 1_555
Ba20 N6 2.772881 1_655
Ba20 N9 2.782267 1_555
Ba20 N3 2.800534 1_556
Ba20 Na0 4.026323 1_555
Ba20 Na13 4.291520 1_655
Ba21 N5 2.772881 1_555
Ba21 N8 2.782267 1_555
Ba21 N7 2.800534 1_555
Ba21 Na6 4.026323 1_565
Ba21 Na10 4.291520 1_555
Ba22 N1 2.772881 1_555
Ba22 N2 2.782267 1_555
Ba22 N5 2.800535 1_555
Ba22 Na6 4.026323 1_556
Ba22 Na5 4.291520 1_555
Ba23 N0 2.503874 1_555
Ba23 Na13 4.171618 1_555
Ba23 Na9 4.188668 1_555
Ba23 Na4 4.319344 1_455
Ba23 Na2 4.522349 1_555
Ba24 N10 2.772881 1_455
Ba24 N0 2.782267 1_555
Ba24 N11 2.800534 1_554
Ba24 Na9 4.026323 1_555
Ba24 Na1 4.291520 1_455
Ba25 N2 2.503874 1_555
Ba25 Na2 4.171618 1_546
Ba25 Na6 4.188667 1_556
Ba25 Na11 4.319344 1_545
Ba25 Na13 4.522349 1_555
Ba26 N3 2.772881 1_565
Ba26 N10 2.782267 1_555
Ba26 N0 2.800534 1_655
Ba26 Na0 4.026323 1_555
Ba26 Na12 4.291520 1_565
Ba27 N0 2.772881 1_556
Ba27 N11 2.782267 1_555
Ba27 N6 2.800535 1_565
Ba27 Na0 4.026322 1_555
Ba27 Na2 4.291520 1_556
Na0 Na4 3.606672 1_555
Na1 Na8 3.768254 1_655
Na1 Na3 3.768254 1_655
Na2 Na4 3.768254 1_554
Na3 Na8 3.584863 1_555
Na3 Na6 3.606672 1_555
Na3 Na5 3.768254 1_554
Na5 Na8 3.768254 1_556
Na8 Na9 3.606672 1_555
Na10 Na3 3.768254 1_565
Na10 Na8 3.768254 1_565
Na11 Na4 3.584863 1_555
Na11 Na7 3.606672 1_555
Na11 Na12 3.768254 1_565
Na11 Na13 3.768254 1_655
Na11 Na2 3.768254 1_556
Na12 Na4 3.768254 1_545
Na13 Na4 3.768254 1_455
Ca0 N0 2.570249 1_545
Ca0 N9 2.570249 1_454
Ca0 N3 2.570249 1_455
Ca0 N11 2.570249 1_544
Ca0 N6 2.570249 1_554
Ca0 N10 2.570249 1_445
Ca1 N5 2.570249 1_555
Ca1 N4 2.570249 1_555
Ca1 N1 2.570249 1_555
Ca1 N8 2.570249 1_555
Ca1 N7 2.570249 1_555
Ca1 N2 2.570249 1_555
