# generated using pymatgen
data_La2AlNi9H2
_symmetry_space_group_name_H-M   'P 1'
_cell_length_a   5.03022900
_cell_length_b   5.05424298
_cell_length_c   8.11158448
_cell_angle_alpha   88.97292196
_cell_angle_beta   89.02220846
_cell_angle_gamma   61.36678559
_symmetry_Int_Tables_number   1
_chemical_formula_structural   La2AlNi9H2
_chemical_formula_sum   'La2 Al1 Ni9 H2'
_cell_volume   180.97070090
_cell_formula_units_Z   1
loop_
 _symmetry_equiv_pos_site_id
 _symmetry_equiv_pos_as_xyz
  1  'x, y, z'
loop_
 _atom_site_type_symbol
 _atom_site_label
 _atom_site_symmetry_multiplicity
 _atom_site_fract_x
 _atom_site_fract_y
 _atom_site_fract_z
 _atom_site_occupancy
  La  La0  1  0.00337200  0.00383600  0.00868200  1
  La  La1  1  0.99532600  0.99377300  0.48455300  1
  Al  Al0  1  0.50256600  0.50290800  0.75279100  1
  Ni  Ni0  1  0.66917500  0.67035900  0.99999900  1
  Ni  Ni1  1  0.66379100  0.65878400  0.50070700  1
  Ni  Ni2  1  0.49113900  0.51514700  0.24864300  1
  Ni  Ni3  1  0.32739200  0.34257800  0.00079100  1
  Ni  Ni4  1  0.99206300  0.52119100  0.75417900  1
  Ni  Ni5  1  0.49343200  0.99276900  0.25029000  1
  Ni  Ni6  1  0.99655900  0.50149500  0.25002800  1
  Ni  Ni7  1  0.32964000  0.34661000  0.49927200  1
  Ni  Ni8  1  0.51286500  0.99705300  0.75320100  1
  H  H0  1  0.68795500  0.16110000  0.24832800  1
  H  H1  1  0.20512500  0.21549700  0.65483600  1
loop_
_geom_bond_atom_site_label_1
_geom_bond_atom_site_label_2
_geom_bond_distance
_geom_bond_site_symmetry_2
La0 Ni3 2.873819 1_555
La0 Ni0 2.897533 1_444
La0 Ni3 2.934965 1_545
La0 Ni0 2.940861 1_544
La0 Ni0 2.957624 1_454
La0 Ni3 2.986907 1_455
La0 Ni6 3.191074 1_445
La0 Ni6 3.201885 1_455
La1 Ni1 2.890633 1_555
La1 Ni1 2.954949 1_565
La1 Ni1 2.956550 1_655
La1 Ni6 3.156604 1_555
La1 Ni6 3.169230 1_565
Al0 Ni1 2.440823 1_555
Al0 Ni3 2.458729 1_556
Al0 Ni0 2.497535 1_555
Al0 Ni4 2.508097 1_555
Al0 Ni8 2.522827 1_555
Al0 Ni4 2.524806 1_455
Al0 Ni7 2.527353 1_555
Al0 Ni8 2.532240 1_545
Ni0 Ni4 2.439713 1_555
Ni0 Ni2 2.457695 1_556
Ni0 Ni8 2.458310 1_555
Ni0 Ni5 2.497110 1_556
Ni0 Ni6 2.501725 1_556
Ni0 Ni3 2.903354 1_556
Ni0 Ni3 2.906977 1_656
Ni0 Ni3 2.983522 1_566
Ni1 Ni2 2.485947 1_555
Ni1 Ni6 2.497016 1_555
Ni1 Ni5 2.502006 1_555
Ni1 Ni4 2.530173 1_555
Ni1 Ni8 2.553962 1_555
Ni2 Ni3 2.507812 1_555
Ni2 Ni6 2.510258 1_555
Ni2 Ni6 2.521473 1_455
Ni3 Ni6 2.482782 1_455
Ni3 Ni4 2.500574 1_454
Ni3 Ni5 2.536442 1_545
Ni3 Ni8 2.540462 1_544
Ni5 Ni6 2.558875 1_555
Ni5 Ni6 2.588236 1_465
Ni6 Ni7 2.511849 1_655
H0 Ni5 1.574289 1_545
H0 Ni2 1.576209 1_555
H0 La1 2.359509 1_545
H0 La0 2.381049 1_655
H1 Ni4 1.616579 1_455
H1 Ni8 1.620027 1_545
H1 Ni7 1.662709 1_555
H1 La1 2.348656 1_445
