# generated using pymatgen
data_LiH4SNO4
_symmetry_space_group_name_H-M   'P 1'
_cell_length_a   5.30718300
_cell_length_b   8.88744400
_cell_length_c   9.30868700
_cell_angle_alpha   90.00000000
_cell_angle_beta   90.00000000
_cell_angle_gamma   90.00000000
_symmetry_Int_Tables_number   1
_chemical_formula_structural   LiH4SNO4
_chemical_formula_sum   'Li4 H16 S4 N4 O16'
_cell_volume   439.06555517
_cell_formula_units_Z   4
loop_
 _symmetry_equiv_pos_site_id
 _symmetry_equiv_pos_as_xyz
  1  'x, y, z'
loop_
 _atom_site_type_symbol
 _atom_site_label
 _atom_site_symmetry_multiplicity
 _atom_site_fract_x
 _atom_site_fract_y
 _atom_site_fract_z
 _atom_site_occupancy
  Li  Li0  1  0.26224600  0.82103600  0.41329200  1
  Li  Li1  1  0.26224600  0.32103600  0.08670800  1
  Li  Li2  1  0.76224600  0.17896400  0.58670800  1
  Li  Li3  1  0.76224600  0.67896400  0.91329200  1
  H  H0  1  0.71281600  0.59621700  0.34810100  1
  H  H1  1  0.93078900  0.97939400  0.23023700  1
  H  H2  1  0.93078900  0.47939400  0.26976300  1
  H  H3  1  0.71281600  0.09621700  0.15189900  1
  H  H4  1  0.21281600  0.90378300  0.84810100  1
  H  H5  1  0.16293700  0.09363400  0.83906400  1
  H  H6  1  0.21281600  0.40378300  0.65189900  1
  H  H7  1  0.66293700  0.90636600  0.16093600  1
  H  H8  1  0.15281600  0.48757000  0.81116400  1
  H  H9  1  0.15281600  0.98757000  0.68883600  1
  H  H10  1  0.66293700  0.40636600  0.33906400  1
  H  H11  1  0.65281600  0.01243000  0.31116400  1
  H  H12  1  0.16293700  0.59363400  0.66093600  1
  H  H13  1  0.65281600  0.51243000  0.18883600  1
  H  H14  1  0.43078900  0.52060600  0.73023700  1
  H  H15  1  0.43078900  0.02060600  0.76976300  1
  S  S0  1  0.26116200  0.70577800  0.08427000  1
  S  S1  1  0.76116200  0.29422200  0.91573000  1
  S  S2  1  0.76116200  0.79422200  0.58427000  1
  S  S3  1  0.26116200  0.20577800  0.41573000  1
  N  N0  1  0.24176900  0.50074400  0.71371500  1
  N  N1  1  0.74176900  0.49925600  0.28628500  1
  N  N2  1  0.24176900  0.00074400  0.78628500  1
  N  N3  1  0.74176900  0.99925600  0.21371500  1
  O  O0  1  0.66094700  0.22408100  0.78310900  1
  O  O1  1  0.25737800  0.03960500  0.40214200  1
  O  O2  1  0.52733500  0.75713800  0.05961300  1
  O  O3  1  0.60400700  0.74732600  0.45805300  1
  O  O4  1  0.10400700  0.25267400  0.54194700  1
  O  O5  1  0.02733500  0.74286200  0.55961300  1
  O  O6  1  0.60400700  0.24732600  0.04194700  1
  O  O7  1  0.16094700  0.77591900  0.21689100  1
  O  O8  1  0.75737800  0.96039500  0.59785800  1
  O  O9  1  0.75737800  0.46039500  0.90214200  1
  O  O10  1  0.10400700  0.75267400  0.95805300  1
  O  O11  1  0.02733500  0.24286200  0.94038700  1
  O  O12  1  0.16094700  0.27591900  0.28310900  1
  O  O13  1  0.66094700  0.72408100  0.71689100  1
  O  O14  1  0.25737800  0.53960500  0.09785800  1
  O  O15  1  0.52733500  0.25713800  0.44038700  1
loop_
_geom_bond_atom_site_label_1
_geom_bond_atom_site_label_2
_geom_bond_distance
_geom_bond_site_symmetry_2
Li0 O1 1.945462 1_565
Li0 O7 1.947371 1_555
Li0 O5 1.972866 1_555
Li0 O3 1.972964 1_555
Li1 O14 1.945462 1_555
Li1 O12 1.947371 1_555
Li1 O11 1.972866 1_554
Li1 O6 1.972964 1_555
Li2 O8 1.945462 1_545
Li2 O0 1.947371 1_555
Li2 O15 1.972866 1_555
Li2 O4 1.972964 1_655
Li3 O9 1.945462 1_555
Li3 O13 1.947371 1_555
Li3 O2 1.972866 1_556
Li3 O10 1.972964 1_655
H0 N1 1.047528 1_555
H1 N3 1.030122 1_555
H2 N1 1.030122 1_555
H3 N3 1.047528 1_545
H4 N2 1.047528 1_565
H5 N2 1.047835 1_555
H6 N0 1.047528 1_555
H7 N3 1.047835 1_555
H8 N0 1.029295 1_555
H9 N2 1.029295 1_565
H10 N1 1.047835 1_555
H11 N3 1.029295 1_545
H12 N0 1.047835 1_555
H13 N1 1.029295 1_555
H14 N0 1.030122 1_555
H15 N2 1.030122 1_555
O0 S1 1.481731 1_555
O1 S3 1.482396 1_555
O2 S0 1.502184 1_555
O3 S2 1.499925 1_555
O4 S3 1.499925 1_555
O5 S2 1.502184 1_455
O6 S1 1.499925 1_554
O7 S0 1.481731 1_555
O8 S2 1.482396 1_555
O9 S1 1.482396 1_555
O10 S0 1.499925 1_556
O11 S1 1.502184 1_455
O12 S3 1.481731 1_555
O13 S2 1.481731 1_555
O14 S0 1.482396 1_555
O15 S3 1.502184 1_555
