# generated using pymatgen
data_Mg2SiO4
_symmetry_space_group_name_H-M   'P 1'
_cell_length_a   6.08091100
_cell_length_b   4.80034800
_cell_length_c   10.48072846
_cell_angle_alpha   89.91906984
_cell_angle_beta   90.00000000
_cell_angle_gamma   90.00000000
_symmetry_Int_Tables_number   1
_chemical_formula_structural   Mg2SiO4
_chemical_formula_sum   'Mg8 Si4 O16'
_cell_volume   305.93728304
_cell_formula_units_Z   4
loop_
 _symmetry_equiv_pos_site_id
 _symmetry_equiv_pos_as_xyz
  1  'x, y, z'
loop_
 _atom_site_type_symbol
 _atom_site_label
 _atom_site_symmetry_multiplicity
 _atom_site_fract_x
 _atom_site_fract_y
 _atom_site_fract_z
 _atom_site_occupancy
  Mg  Mg0  1  0.74307900  0.49738100  0.74153500  1
  Mg  Mg1  1  0.25692100  0.50261900  0.25846500  1
  Mg  Mg2  1  0.00000000  0.50000000  0.50000000  1
  Mg  Mg3  1  0.25692100  0.49738100  0.74153500  1
  Mg  Mg4  1  0.74307900  0.50261900  0.25846500  1
  Mg  Mg5  1  0.50000000  0.00000000  0.50000000  1
  Mg  Mg6  1  0.00000000  0.50000000  0.00000000  1
  Mg  Mg7  1  0.50000000  0.50000000  0.00000000  1
  Si  Si0  1  0.50000000  0.09267800  0.16523200  1
  Si  Si1  1  0.50000000  0.90732200  0.83476800  1
  Si  Si2  1  0.00000000  0.91824800  0.33065500  1
  Si  Si3  1  0.00000000  0.08175200  0.66934500  1
  O  O0  1  0.28510400  0.74183000  0.90283200  1
  O  O1  1  0.50000000  0.75485900  0.16642800  1
  O  O2  1  0.71489600  0.74183000  0.90283200  1
  O  O3  1  0.00000000  0.74412100  0.19147700  1
  O  O4  1  0.71489600  0.25817000  0.09716800  1
  O  O5  1  0.78411600  0.77525800  0.40653300  1
  O  O6  1  0.28510400  0.25817000  0.09716800  1
  O  O7  1  0.21588400  0.77525800  0.40653300  1
  O  O8  1  0.78411600  0.22474200  0.59346700  1
  O  O9  1  0.00000000  0.25666000  0.33313500  1
  O  O10  1  0.50000000  0.77204300  0.68662400  1
  O  O11  1  0.00000000  0.74334000  0.66686500  1
  O  O12  1  0.50000000  0.24514100  0.83357200  1
  O  O13  1  0.50000000  0.22795700  0.31337600  1
  O  O14  1  0.00000000  0.25587900  0.80852300  1
  O  O15  1  0.21588400  0.22474200  0.59346700  1
loop_
_geom_bond_atom_site_label_1
_geom_bond_atom_site_label_2
_geom_bond_distance
_geom_bond_site_symmetry_2
Mg0 O8 2.046738 1_555
Mg0 O10 2.062120 1_555
Mg0 O2 2.066340 1_555
Mg0 O14 2.067706 1_655
Mg0 O11 2.108245 1_655
Mg0 O12 2.139677 1_555
Mg1 O7 2.046738 1_555
Mg1 O13 2.062120 1_555
Mg1 O6 2.066340 1_555
Mg1 O3 2.067706 1_555
Mg1 O9 2.108245 1_555
Mg1 O1 2.139677 1_555
Mg2 O8 2.103629 1_455
Mg2 O5 2.103629 1_455
Mg2 O7 2.103629 1_555
Mg2 O15 2.103629 1_555
Mg2 O9 2.104472 1_555
Mg2 O11 2.104472 1_555
Mg3 O15 2.046738 1_555
Mg3 O10 2.062120 1_555
Mg3 O0 2.066340 1_555
Mg3 O14 2.067706 1_555
Mg3 O11 2.108245 1_555
Mg3 O12 2.139677 1_555
Mg4 O5 2.046738 1_555
Mg4 O13 2.062120 1_555
Mg4 O4 2.066340 1_555
Mg4 O3 2.067706 1_655
Mg4 O9 2.108245 1_655
Mg4 O1 2.139677 1_555
Mg5 O13 2.239899 1_555
Mg5 O10 2.239899 1_545
Mg5 O15 2.260839 1_555
Mg5 O8 2.260839 1_555
Mg5 O5 2.260839 1_545
Mg5 O7 2.260839 1_545
Mg6 O0 2.321009 1_554
Mg6 O2 2.321009 1_454
Mg6 O4 2.321009 1_455
Mg6 O6 2.321009 1_555
Mg6 O3 2.325346 1_555
Mg6 O14 2.325346 1_554
Mg7 O6 2.022134 1_555
Mg7 O4 2.022134 1_555
Mg7 O2 2.022134 1_554
Mg7 O0 2.022134 1_554
Mg7 O1 2.131971 1_555
Mg7 O12 2.131971 1_554
O0 Si1 1.687013 1_555
O1 Si0 1.621680 1_565
O2 Si1 1.687013 1_555
O3 Si2 1.682228 1_555
O4 Si0 1.687013 1_555
O5 Si2 1.680895 1_655
O6 Si0 1.687013 1_555
O7 Si2 1.680895 1_555
O8 Si3 1.680895 1_655
O9 Si2 1.624740 1_545
O10 Si1 1.683833 1_555
O11 Si3 1.624740 1_565
O12 Si1 1.621680 1_545
O13 Si0 1.683833 1_555
O14 Si3 1.682228 1_555
O15 Si3 1.680895 1_555
