# generated using pymatgen
data_Nd2Cu(GeO4)2
_symmetry_space_group_name_H-M   'P 1'
_cell_length_a   9.17752356
_cell_length_b   9.17752356
_cell_length_c   5.21112308
_cell_angle_alpha   73.98113141
_cell_angle_beta   73.98113141
_cell_angle_gamma   114.53967839
_symmetry_Int_Tables_number   1
_chemical_formula_structural   Nd2Cu(GeO4)2
_chemical_formula_sum   'Nd4 Cu2 Ge4 O16'
_cell_volume   343.35292723
_cell_formula_units_Z   2
loop_
 _symmetry_equiv_pos_site_id
 _symmetry_equiv_pos_as_xyz
  1  'x, y, z'
loop_
 _atom_site_type_symbol
 _atom_site_label
 _atom_site_symmetry_multiplicity
 _atom_site_fract_x
 _atom_site_fract_y
 _atom_site_fract_z
 _atom_site_occupancy
  Nd  Nd0  1  0.11880800  0.36117600  0.29015400  1
  Nd  Nd1  1  0.86331300  0.62177700  0.79873600  1
  Nd  Nd2  1  0.62177700  0.86331300  0.79873600  1
  Nd  Nd3  1  0.36117600  0.11880800  0.29015400  1
  Cu  Cu0  1  0.82274100  0.23644400  0.99155500  1
  Cu  Cu1  1  0.23644400  0.82274100  0.99155500  1
  Ge  Ge0  1  0.00039900  0.00039900  0.98855800  1
  Ge  Ge1  1  0.69416800  0.27327000  0.53317100  1
  Ge  Ge2  1  0.49563900  0.49563900  0.58904200  1
  Ge  Ge3  1  0.27327000  0.69416800  0.53317100  1
  O  O0  1  0.40689300  0.88899200  0.17239000  1
  O  O1  1  0.66472700  0.66472700  0.62287900  1
  O  O2  1  0.33169300  0.33169300  0.95636800  1
  O  O3  1  0.83084000  0.83084000  0.95244900  1
  O  O4  1  0.16223000  0.81507300  0.68699900  1
  O  O5  1  0.40447700  0.58865600  0.37326800  1
  O  O6  1  0.91274200  0.09925300  0.18996700  1
  O  O7  1  0.32195300  0.66676100  0.85275000  1
  O  O8  1  0.16120500  0.16120500  0.61189700  1
  O  O9  1  0.81507300  0.16223000  0.68699900  1
  O  O10  1  0.58865600  0.40447700  0.37326800  1
  O  O11  1  0.53894000  0.07242300  0.54147600  1
  O  O12  1  0.66676100  0.32195300  0.85275000  1
  O  O13  1  0.09925300  0.91274200  0.18996700  1
  O  O14  1  0.07242300  0.53894000  0.54147600  1
  O  O15  1  0.88899200  0.40689300  0.17239000  1
loop_
_geom_bond_atom_site_label_1
_geom_bond_atom_site_label_2
_geom_bond_distance
_geom_bond_site_symmetry_2
Nd0 O8 2.363387 1_555
Nd0 O2 2.395659 1_554
Nd0 O9 2.426432 1_455
Nd0 O14 2.450804 1_555
Nd0 O15 2.511661 1_455
Nd0 O7 2.513974 1_554
Nd0 O6 2.662487 1_455
Nd0 O5 2.828227 1_555
Nd1 O4 2.348986 1_655
Nd1 O3 2.367113 1_555
Nd1 O1 2.374016 1_555
Nd1 O12 2.464550 1_555
Nd1 O15 2.501229 1_556
Nd1 O14 2.532322 1_655
Nd1 O10 2.767429 1_556
Nd1 O13 2.934929 1_655
Nd2 O9 2.348986 1_565
Nd2 O3 2.367113 1_555
Nd2 O1 2.374016 1_555
Nd2 O7 2.464550 1_555
Nd2 O0 2.501229 1_556
Nd2 O11 2.532322 1_565
Nd2 O5 2.767429 1_556
Nd2 O6 2.934929 1_565
Nd3 O8 2.363387 1_555
Nd3 O2 2.395659 1_554
Nd3 O4 2.426432 1_545
Nd3 O11 2.450804 1_555
Nd3 O0 2.511661 1_545
Nd3 O12 2.513974 1_554
Nd3 O13 2.662487 1_545
Nd3 O10 2.828227 1_555
Cu0 O9 1.898970 1_555
Cu0 O6 1.988287 1_556
Cu0 O15 2.011097 1_556
Cu0 O12 2.092752 1_555
Cu1 O4 1.898970 1_555
Cu1 O13 1.988287 1_556
Cu1 O0 2.011097 1_556
Cu1 O7 2.092752 1_555
Ge0 O3 1.786131 1_445
Ge0 O8 1.789430 1_555
Ge0 O13 1.799338 1_546
Ge0 O6 1.799338 1_456
Ge1 O11 1.780383 1_555
Ge1 O15 1.812848 1_555
Ge1 O12 1.819106 1_555
Ge1 O9 1.972728 1_555
Ge1 O10 1.985479 1_555
Ge2 O2 1.769816 1_555
Ge2 O1 1.774559 1_555
Ge2 O10 1.809900 1_555
Ge2 O5 1.809900 1_555
Ge3 O14 1.780383 1_555
Ge3 O0 1.812848 1_555
Ge3 O7 1.819106 1_555
Ge3 O4 1.972728 1_555
Ge3 O5 1.985479 1_555
