# generated using pymatgen
data_Mn3Ag2(P2O7)2
_symmetry_space_group_name_H-M   'P 1'
_cell_length_a   5.46161100
_cell_length_b   6.67433010
_cell_length_c   16.69377859
_cell_angle_alpha   80.77788015
_cell_angle_beta   81.92487652
_cell_angle_gamma   72.63077292
_symmetry_Int_Tables_number   1
_chemical_formula_structural   Mn3Ag2(P2O7)2
_chemical_formula_sum   'Mn6 Ag4 P8 O28'
_cell_volume   570.49817049
_cell_formula_units_Z   2
loop_
 _symmetry_equiv_pos_site_id
 _symmetry_equiv_pos_as_xyz
  1  'x, y, z'
loop_
 _atom_site_type_symbol
 _atom_site_label
 _atom_site_symmetry_multiplicity
 _atom_site_fract_x
 _atom_site_fract_y
 _atom_site_fract_z
 _atom_site_occupancy
  Mn  Mn0  1  0.25165500  0.96846500  0.33852700  1
  Mn  Mn1  1  0.74834500  0.03153500  0.66147300  1
  Mn  Mn2  1  0.82800600  0.71171900  0.42284500  1
  Mn  Mn3  1  0.17199400  0.28828100  0.57715500  1
  Mn  Mn4  1  0.97244300  0.37617700  0.19622000  1
  Mn  Mn5  1  0.02755700  0.62382300  0.80378000  1
  Ag  Ag0  1  0.89327400  0.74258300  0.02138900  1
  Ag  Ag1  1  0.10672600  0.25741700  0.97861100  1
  Ag  Ag2  1  0.40782800  0.72855600  0.12853200  1
  Ag  Ag3  1  0.59217200  0.27144400  0.87146800  1
  P  P0  1  0.57594200  0.24052300  0.08553500  1
  P  P1  1  0.42405800  0.75947700  0.91446500  1
  P  P2  1  0.82482400  0.90832600  0.22004800  1
  P  P3  1  0.17517600  0.09167400  0.77995200  1
  P  P4  1  0.71602700  0.21860100  0.46017100  1
  P  P5  1  0.28397300  0.78139900  0.53982900  1
  P  P6  1  0.37015800  0.44035100  0.32255200  1
  P  P7  1  0.62984200  0.55964900  0.67744800  1
  O  O0  1  0.72953000  0.39042600  0.09871100  1
  O  O1  1  0.27047000  0.60957400  0.90128900  1
  O  O2  1  0.69106400  0.12947900  0.00932300  1
  O  O3  1  0.30893600  0.87052100  0.99067700  1
  O  O4  1  0.28339800  0.34295500  0.09010800  1
  O  O5  1  0.71660200  0.65704500  0.90989200  1
  O  O6  1  0.60245200  0.05531300  0.16356200  1
  O  O7  1  0.39754800  0.94468700  0.83643800  1
  O  O8  1  0.95897200  0.71391900  0.17441400  1
  O  O9  1  0.04102800  0.28608100  0.82558600  1
  O  O10  1  0.01614900  0.03296100  0.22652600  1
  O  O11  1  0.98385100  0.96703900  0.77347400  1
  O  O12  1  0.66733100  0.86134400  0.30040600  1
  O  O13  1  0.33266900  0.13865600  0.69959400  1
  O  O14  1  0.85697900  0.38457100  0.46113000  1
  O  O15  1  0.14302100  0.61542900  0.53887000  1
  O  O16  1  0.88810500  0.02464400  0.42083800  1
  O  O17  1  0.11189500  0.97535600  0.57916200  1
  O  O18  1  0.58131200  0.15896000  0.54421700  1
  O  O19  1  0.41868800  0.84104000  0.45578300  1
  O  O20  1  0.46823600  0.31674700  0.40868100  1
  O  O21  1  0.53176400  0.68325300  0.59131900  1
  O  O22  1  0.59657600  0.46760900  0.26289200  1
  O  O23  1  0.40342400  0.53239100  0.73710800  1
  O  O24  1  0.22122300  0.30122200  0.29668500  1
  O  O25  1  0.77877700  0.69877800  0.70331500  1
  O  O26  1  0.18596300  0.65391800  0.34365000  1
  O  O27  1  0.81403700  0.34608200  0.65635000  1
loop_
_geom_bond_atom_site_label_1
_geom_bond_atom_site_label_2
_geom_bond_distance
_geom_bond_site_symmetry_2
Mn0 O24 2.182440 1_565
Mn0 O12 2.200242 1_555
Mn0 O19 2.211785 1_555
Mn0 O16 2.219302 1_465
Mn0 O26 2.219692 1_555
Mn0 O10 2.328660 1_565
Mn1 O25 2.182440 1_545
Mn1 O13 2.200242 1_555
Mn1 O18 2.211785 1_555
Mn1 O17 2.219302 1_645
Mn1 O27 2.219692 1_555
Mn1 O11 2.328660 1_545
Mn2 O14 2.139155 1_555
Mn2 O19 2.167875 1_555
Mn2 O26 2.169290 1_655
Mn2 O16 2.203351 1_565
Mn2 O12 2.296001 1_555
Mn2 O15 2.646079 1_655
Mn3 O15 2.139155 1_555
Mn3 O18 2.167875 1_555
Mn3 O27 2.169290 1_455
Mn3 O17 2.203351 1_545
Mn3 O13 2.296001 1_555
Mn3 O14 2.646079 1_455
Mn4 O22 2.157123 1_555
Mn4 O8 2.205638 1_555
Mn4 O24 2.207869 1_655
Mn4 O10 2.212780 1_655
Mn4 O0 2.213741 1_555
Mn4 O4 2.264333 1_655
Mn5 O23 2.157123 1_555
Mn5 O9 2.205638 1_555
Mn5 O25 2.207869 1_455
Mn5 O11 2.212780 1_455
Mn5 O1 2.213741 1_555
Mn5 O5 2.264333 1_455
Ag0 O5 2.428072 1_554
Ag0 O2 2.474157 1_565
Ag0 O8 2.598276 1_555
Ag0 O3 2.614541 1_654
Ag0 O1 2.714773 1_654
Ag0 O0 2.819331 1_555
Ag1 O4 2.428072 1_556
Ag1 O3 2.474157 1_545
Ag1 O9 2.598276 1_555
Ag1 O2 2.614541 1_456
Ag1 O0 2.714773 1_456
Ag1 O1 2.819331 1_555
Ag2 O3 2.414606 1_554
Ag2 O0 2.484943 1_555
Ag2 O8 2.489465 1_455
Ag2 O22 2.729924 1_555
Ag3 O2 2.414606 1_556
Ag3 O1 2.484943 1_555
Ag3 O9 2.489465 1_655
Ag3 O23 2.729924 1_555
O0 P0 1.541588 1_555
O1 P1 1.541588 1_555
O2 P0 1.537061 1_555
O3 P1 1.537061 1_555
O4 P0 1.535039 1_555
O5 P1 1.535039 1_555
O6 P2 1.624964 1_545
O6 P0 1.635768 1_555
O7 P3 1.624964 1_565
O7 P1 1.635768 1_555
O8 P2 1.546987 1_555
O9 P3 1.546987 1_555
O10 P2 1.541152 1_445
O11 P3 1.541152 1_665
O12 P2 1.529644 1_555
O13 P3 1.529644 1_555
O14 P4 1.529139 1_555
O15 P5 1.529139 1_555
O16 P4 1.537176 1_555
O17 P5 1.537176 1_555
O18 P4 1.540834 1_555
O19 P5 1.540834 1_555
O20 P6 1.614676 1_555
O20 P4 1.617564 1_555
O21 P7 1.614676 1_555
O21 P5 1.617564 1_555
O22 P6 1.511440 1_555
O23 P7 1.511440 1_555
O24 P6 1.545509 1_555
O25 P7 1.545509 1_555
O26 P6 1.540490 1_555
O27 P7 1.540490 1_555
