# generated using pymatgen
data_K6Na3AlSb4
_symmetry_space_group_name_H-M   'P 1'
_cell_length_a   10.29181454
_cell_length_b   10.29181454
_cell_length_c   10.59554700
_cell_angle_alpha   90.00000000
_cell_angle_beta   90.00000000
_cell_angle_gamma   120.00000348
_symmetry_Int_Tables_number   1
_chemical_formula_structural   K6Na3AlSb4
_chemical_formula_sum   'K12 Na6 Al2 Sb8'
_cell_volume   971.93652258
_cell_formula_units_Z   2
loop_
 _symmetry_equiv_pos_site_id
 _symmetry_equiv_pos_as_xyz
  1  'x, y, z'
loop_
 _atom_site_type_symbol
 _atom_site_label
 _atom_site_symmetry_multiplicity
 _atom_site_fract_x
 _atom_site_fract_y
 _atom_site_fract_z
 _atom_site_occupancy
  K  K0  1  0.20738300  0.41476600  0.54212000  1
  K  K1  1  0.79261700  0.20738300  0.04212000  1
  K  K2  1  0.41476600  0.20738300  0.04212000  1
  K  K3  1  0.58523400  0.79261700  0.54212000  1
  K  K4  1  0.20738300  0.79261700  0.54212000  1
  K  K5  1  0.79261700  0.58523400  0.45788000  1
  K  K6  1  0.79261700  0.20738300  0.45788000  1
  K  K7  1  0.79261700  0.58523400  0.04212000  1
  K  K8  1  0.41476600  0.20738300  0.45788000  1
  K  K9  1  0.58523400  0.79261700  0.95788000  1
  K  K10  1  0.20738300  0.41476600  0.95788000  1
  K  K11  1  0.20738300  0.79261700  0.95788000  1
  Na  Na0  1  0.11590700  0.23181400  0.25000000  1
  Na  Na1  1  0.88409300  0.11590700  0.75000000  1
  Na  Na2  1  0.23181400  0.11590700  0.75000000  1
  Na  Na3  1  0.76818600  0.88409300  0.25000000  1
  Na  Na4  1  0.11590700  0.88409300  0.25000000  1
  Na  Na5  1  0.88409300  0.76818600  0.75000000  1
  Al  Al0  1  0.33333300  0.66666700  0.25000000  1
  Al  Al1  1  0.66666700  0.33333300  0.75000000  1
  Sb  Sb0  1  0.48160000  0.51840000  0.25000000  1
  Sb  Sb1  1  0.96320100  0.48160000  0.75000000  1
  Sb  Sb2  1  0.51840000  0.03679900  0.75000000  1
  Sb  Sb3  1  0.48160000  0.96320100  0.25000000  1
  Sb  Sb4  1  0.03679900  0.51840000  0.25000000  1
  Sb  Sb5  1  0.51840000  0.48160000  0.75000000  1
  Sb  Sb6  1  0.00000000  0.00000000  0.00000000  1
  Sb  Sb7  1  0.00000000  0.00000000  0.50000000  1
loop_
_geom_bond_atom_site_label_1
_geom_bond_atom_site_label_2
_geom_bond_distance
_geom_bond_site_symmetry_2
K0 Na0 3.498441 1_555
K0 Sb1 3.656328 1_455
K0 Sb5 3.656336 1_555
K0 Sb7 3.723639 1_555
K0 Sb0 3.958831 1_555
K0 Sb4 3.958837 1_555
K1 Na1 3.498441 1_554
K1 Sb3 3.656334 1_545
K1 Sb4 3.656334 1_655
K1 Sb6 3.723639 1_655
K1 Sb2 3.958832 1_554
K1 Sb1 3.958832 1_554
K2 Na2 3.498441 1_554
K2 Sb3 3.656328 1_545
K2 Sb0 3.656336 1_555
K2 Sb6 3.723639 1_555
K2 Sb5 3.958831 1_554
K2 Sb2 3.958837 1_554
K3 Na3 3.498441 1_555
K3 Sb2 3.656328 1_565
K3 Sb5 3.656336 1_555
K3 Sb7 3.723639 1_665
K3 Sb0 3.958831 1_555
K3 Sb3 3.958837 1_555
K4 Na4 3.498441 1_555
K4 Sb1 3.656334 1_455
K4 Sb2 3.656334 1_565
K4 Sb7 3.723639 1_565
K4 Sb4 3.958832 1_555
K4 Sb3 3.958832 1_555
K5 Na5 3.498441 1_555
K5 Sb4 3.656328 1_655
K5 Sb0 3.656336 1_555
K5 Sb7 3.723639 1_665
K5 Sb5 3.958831 1_555
K5 Sb1 3.958837 1_555
K6 Na1 3.498441 1_555
K6 Sb3 3.656334 1_545
K6 Sb4 3.656334 1_655
K6 Sb7 3.723639 1_655
K6 Sb2 3.958832 1_555
K6 Sb1 3.958832 1_555
K7 Na5 3.498441 1_554
K7 Sb4 3.656328 1_655
K7 Sb0 3.656336 1_555
K7 Sb6 3.723639 1_665
K7 Sb5 3.958831 1_554
K7 Sb1 3.958837 1_554
K8 Na2 3.498441 1_555
K8 Sb3 3.656328 1_545
K8 Sb0 3.656336 1_555
K8 Sb7 3.723639 1_555
K8 Sb5 3.958831 1_555
K8 Sb2 3.958837 1_555
K9 Na3 3.498441 1_556
K9 Sb2 3.656328 1_565
K9 Sb5 3.656336 1_555
K9 Sb6 3.723639 1_666
K9 Sb0 3.958831 1_556
K9 Sb3 3.958837 1_556
K10 Na0 3.498441 1_556
K10 Sb1 3.656328 1_455
K10 Sb5 3.656336 1_555
K10 Sb6 3.723639 1_556
K10 Sb0 3.958831 1_556
K10 Sb4 3.958837 1_556
K11 Na4 3.498441 1_556
K11 Sb1 3.656334 1_455
K11 Sb2 3.656334 1_565
K11 Sb6 3.723639 1_566
K11 Sb4 3.958832 1_556
K11 Sb3 3.958832 1_556
Na0 Sb6 3.359402 1_555
Na0 Sb7 3.359402 1_555
Na0 Sb0 3.429822 1_555
Na0 Sb4 3.429829 1_555
Na1 Sb6 3.359402 1_656
Na1 Sb7 3.359402 1_655
Na1 Sb2 3.429819 1_555
Na1 Sb1 3.429819 1_555
Na2 Sb6 3.359402 1_556
Na2 Sb7 3.359402 1_555
Na2 Sb5 3.429822 1_555
Na2 Sb2 3.429829 1_555
Na3 Sb7 3.359402 1_665
Na3 Sb6 3.359402 1_665
Na3 Sb0 3.429822 1_555
Na3 Sb3 3.429829 1_555
Na4 Sb6 3.359402 1_565
Na4 Sb7 3.359402 1_565
Na4 Sb4 3.429819 1_555
Na4 Sb3 3.429819 1_555
Na5 Sb7 3.359402 1_665
Na5 Sb6 3.359402 1_666
Na5 Sb5 3.429822 1_555
Na5 Sb1 3.429829 1_555
Al0 Sb3 2.642999 1_555
Al0 Sb4 2.642999 1_555
Al0 Sb0 2.643000 1_555
Al0 K11 3.823730 1_554
Al0 K4 3.823730 1_555
Al0 K9 3.823735 1_554
Al0 K3 3.823735 1_555
Al0 K10 3.823735 1_554
Al0 K0 3.823735 1_555
Al1 Sb1 2.642999 1_555
Al1 Sb2 2.642999 1_555
Al1 Sb5 2.643000 1_555
Al1 K6 3.823730 1_555
Al1 K1 3.823730 1_556
Al1 K5 3.823735 1_555
Al1 K7 3.823735 1_556
Al1 K2 3.823735 1_556
Al1 K8 3.823735 1_555
