# generated using pymatgen
data_BaLi2(MgGe)2
_symmetry_space_group_name_H-M   'P 1'
_cell_length_a   4.62126333
_cell_length_b   4.62126333
_cell_length_c   9.16271733
_cell_angle_alpha   75.39359126
_cell_angle_beta   75.39359126
_cell_angle_gamma   60.00000959
_symmetry_Int_Tables_number   1
_chemical_formula_structural   BaLi2(MgGe)2
_chemical_formula_sum   'Ba1 Li2 Mg2 Ge2'
_cell_volume   162.11994288
_cell_formula_units_Z   1
loop_
 _symmetry_equiv_pos_site_id
 _symmetry_equiv_pos_as_xyz
  1  'x, y, z'
loop_
 _atom_site_type_symbol
 _atom_site_label
 _atom_site_symmetry_multiplicity
 _atom_site_fract_x
 _atom_site_fract_y
 _atom_site_fract_z
 _atom_site_occupancy
  Ba  Ba0  1  0.00000000  0.00000000  0.00000000  1
  Li  Li0  1  0.57024400  0.57024400  0.28926800  1
  Li  Li1  1  0.42975600  0.42975600  0.71073200  1
  Mg  Mg0  1  0.13581600  0.13581600  0.59255200  1
  Mg  Mg1  1  0.86418400  0.86418400  0.40744800  1
  Ge  Ge0  1  0.75694000  0.75694000  0.72918000  1
  Ge  Ge1  1  0.24306000  0.24306000  0.27082000  1
loop_
_geom_bond_atom_site_label_1
_geom_bond_atom_site_label_2
_geom_bond_distance
_geom_bond_site_symmetry_2
Ba0 Ge0 3.571297 1_444
Ba0 Ge1 3.571297 1_555
Ba0 Ge0 3.571297 1_544
Ba0 Ge1 3.571297 1_545
Ba0 Ge0 3.571297 1_454
Ba0 Ge1 3.571297 1_455
Ba0 Mg1 3.571548 1_445
Ba0 Mg0 3.571548 1_554
Ba0 Li0 3.680771 1_445
Ba0 Li1 3.680771 1_554
Ba0 Li0 3.680772 1_455
Ba0 Li0 3.680772 1_545
Ba0 Li1 3.680772 1_544
Ba0 Li1 3.680772 1_454
Li0 Mg1 2.862138 1_555
Li0 Mg1 2.862138 1_455
Li0 Mg1 2.862138 1_545
Li1 Mg0 2.862138 1_555
Li1 Mg0 2.862138 1_655
Li1 Mg0 2.862138 1_565
Ge0 Li1 2.672983 1_555
Ge0 Li1 2.672984 1_565
Ge0 Li1 2.672984 1_655
Ge0 Mg1 2.820191 1_555
Ge0 Mg0 2.924554 1_665
Ge0 Mg0 2.924555 1_565
Ge0 Mg0 2.924555 1_655
Ge1 Li0 2.672983 1_555
Ge1 Li0 2.672984 1_545
Ge1 Li0 2.672984 1_455
Ge1 Mg0 2.820191 1_555
Ge1 Mg1 2.924554 1_445
Ge1 Mg1 2.924555 1_545
Ge1 Mg1 2.924555 1_455
