# generated using pymatgen
data_K4Ru2Cl10O
_symmetry_space_group_name_H-M   'P 1'
_cell_length_a   10.09637457
_cell_length_b   10.09637457
_cell_length_c   10.09637457
_cell_angle_alpha   137.55544250
_cell_angle_beta   137.55544250
_cell_angle_gamma   61.58454567
_symmetry_Int_Tables_number   1
_chemical_formula_structural   K4Ru2Cl10O
_chemical_formula_sum   'K4 Ru2 Cl10 O1'
_cell_volume   463.39384037
_cell_formula_units_Z   1
loop_
 _symmetry_equiv_pos_site_id
 _symmetry_equiv_pos_as_xyz
  1  'x, y, z'
loop_
 _atom_site_type_symbol
 _atom_site_label
 _atom_site_symmetry_multiplicity
 _atom_site_fract_x
 _atom_site_fract_y
 _atom_site_fract_z
 _atom_site_occupancy
  K  K0  1  0.00000000  0.50000000  0.50000000  1
  K  K1  1  0.75000000  0.25000000  0.50000000  1
  K  K2  1  0.25000000  0.75000000  0.50000000  1
  K  K3  1  0.50000000  0.00000000  0.50000000  1
  Ru  Ru0  1  0.89562100  0.89562100  0.00000000  1
  Ru  Ru1  1  0.10437900  0.10437900  0.00000000  1
  Cl  Cl0  1  0.34487400  0.88135500  0.00000000  1
  Cl  Cl1  1  0.11864500  0.65512600  0.00000000  1
  Cl  Cl2  1  0.65512600  0.11864500  0.00000000  1
  Cl  Cl3  1  0.88135500  0.88135500  0.53648000  1
  Cl  Cl4  1  0.11864500  0.11864500  0.46352000  1
  Cl  Cl5  1  0.76092500  0.76092500  0.00000000  1
  Cl  Cl6  1  0.88135500  0.34487400  0.00000000  1
  Cl  Cl7  1  0.34487400  0.34487400  0.46352000  1
  Cl  Cl8  1  0.23907500  0.23907500  0.00000000  1
  Cl  Cl9  1  0.65512600  0.65512600  0.53648000  1
  O  O0  1  0.00000000  0.00000000  0.00000000  1
loop_
_geom_bond_atom_site_label_1
_geom_bond_atom_site_label_2
_geom_bond_distance
_geom_bond_site_symmetry_2
Cl0 Ru1 2.400535 1_565
Cl0 K0 3.250234 1_554
Cl0 K3 3.250234 1_565
Cl0 K2 3.514560 1_554
Cl0 K1 3.514560 1_565
Cl1 Ru0 2.400535 1_455
Cl1 K0 3.250234 1_554
Cl1 K3 3.250234 1_565
Cl1 K2 3.514560 1_555
Cl1 K1 3.514560 1_454
Cl2 Ru0 2.400535 1_545
Cl2 K0 3.250234 1_655
Cl2 K3 3.250234 1_554
Cl2 K2 3.514560 1_544
Cl2 K1 3.514560 1_555
Cl3 Ru1 2.400540 1_666
Cl3 K0 3.250239 1_655
Cl3 K3 3.250239 1_565
Cl3 K1 3.514554 1_565
Cl3 K2 3.514554 1_655
Cl4 Ru0 2.400540 1_445
Cl4 K3 3.250239 1_555
Cl4 K0 3.250239 1_555
Cl4 K2 3.514554 1_545
Cl4 K1 3.514554 1_455
Cl5 Ru0 2.336458 1_555
Cl5 K1 3.659667 1_554
Cl5 K2 3.659667 1_554
Cl5 K1 3.659667 1_565
Cl5 K2 3.659667 1_655
Cl6 Ru1 2.400535 1_655
Cl6 K0 3.250234 1_655
Cl6 K3 3.250234 1_554
Cl6 K1 3.514560 1_554
Cl6 K2 3.514560 1_655
Cl7 Ru1 2.400539 1_555
Cl7 K3 3.250228 1_555
Cl7 K0 3.250228 1_555
Cl7 K2 3.514565 1_555
Cl7 K1 3.514565 1_555
Cl8 Ru1 2.336458 1_555
Cl8 K2 3.659667 1_555
Cl8 K1 3.659667 1_454
Cl8 K2 3.659667 1_544
Cl8 K1 3.659667 1_555
Cl9 Ru0 2.400539 1_556
Cl9 K3 3.250228 1_565
Cl9 K0 3.250228 1_655
Cl9 K1 3.514565 1_555
Cl9 K2 3.514565 1_555
O0 Ru0 1.810574 1_445
O0 Ru1 1.810574 1_555
