# generated using pymatgen
data_K4MnMo4O15
_symmetry_space_group_name_H-M   'P 1'
_cell_length_a   10.56859050
_cell_length_b   10.56859050
_cell_length_c   8.35687000
_cell_angle_alpha   90.00000000
_cell_angle_beta   90.00000000
_cell_angle_gamma   120.00000313
_symmetry_Int_Tables_number   1
_chemical_formula_structural   K4MnMo4O15
_chemical_formula_sum   'K8 Mn2 Mo8 O30'
_cell_volume   808.36668297
_cell_formula_units_Z   2
loop_
 _symmetry_equiv_pos_site_id
 _symmetry_equiv_pos_as_xyz
  1  'x, y, z'
loop_
 _atom_site_type_symbol
 _atom_site_label
 _atom_site_symmetry_multiplicity
 _atom_site_fract_x
 _atom_site_fract_y
 _atom_site_fract_z
 _atom_site_occupancy
  K  K0  1  0.91173500  0.60690700  0.14031000  1
  K  K1  1  0.39309300  0.30482800  0.14031000  1
  K  K2  1  0.08826500  0.39309300  0.85969000  1
  K  K3  1  0.60690700  0.69517200  0.85969000  1
  K  K4  1  0.00000000  0.00000000  0.00000000  1
  K  K5  1  0.30482800  0.91173500  0.85969000  1
  K  K6  1  0.69517200  0.08826500  0.14031000  1
  K  K7  1  0.00000000  0.00000000  0.50000000  1
  Mn  Mn0  1  0.66666700  0.33333300  0.46658500  1
  Mn  Mn1  1  0.33333300  0.66666700  0.53341500  1
  Mo  Mo0  1  0.01711800  0.34201600  0.36021600  1
  Mo  Mo1  1  0.67510200  0.01711800  0.63978400  1
  Mo  Mo2  1  0.33333300  0.66666700  0.14220900  1
  Mo  Mo3  1  0.65798400  0.67510200  0.36021600  1
  Mo  Mo4  1  0.66666700  0.33333300  0.85779100  1
  Mo  Mo5  1  0.34201600  0.32489800  0.63978400  1
  Mo  Mo6  1  0.32489800  0.98288200  0.36021600  1
  Mo  Mo7  1  0.98288200  0.65798400  0.63978400  1
  O  O0  1  0.47986400  0.82249700  0.04963100  1
  O  O1  1  0.21835900  0.21110700  0.79127100  1
  O  O2  1  0.52013600  0.17750300  0.95036900  1
  O  O3  1  0.66570900  0.18650000  0.66226800  1
  O  O4  1  0.18650000  0.52079100  0.33773200  1
  O  O5  1  0.27521900  0.25844500  0.44637800  1
  O  O6  1  0.49407000  0.85734500  0.66043000  1
  O  O7  1  0.78164100  0.78889300  0.20872900  1
  O  O8  1  0.50593000  0.14265500  0.33957000  1
  O  O9  1  0.81350000  0.47920900  0.66226800  1
  O  O10  1  0.98322600  0.72478100  0.44637800  1
  O  O11  1  0.47920900  0.66570900  0.33773200  1
  O  O12  1  0.85734500  0.36327500  0.33957000  1
  O  O13  1  0.65736700  0.47986400  0.95036900  1
  O  O14  1  0.34263300  0.52013600  0.04963100  1
  O  O15  1  0.17750300  0.65736700  0.04963100  1
  O  O16  1  0.36327500  0.50593000  0.66043000  1
  O  O17  1  0.63672500  0.49407000  0.33957000  1
  O  O18  1  0.01677400  0.27521900  0.55362200  1
  O  O19  1  0.21110700  0.99274800  0.20872900  1
  O  O20  1  0.14265500  0.63672500  0.66043000  1
  O  O21  1  0.25844500  0.98322600  0.55362200  1
  O  O22  1  0.00725200  0.21835900  0.20872900  1
  O  O23  1  0.78889300  0.00725200  0.79127100  1
  O  O24  1  0.82249700  0.34263300  0.95036900  1
  O  O25  1  0.52079100  0.33429100  0.66226800  1
  O  O26  1  0.74155500  0.01677400  0.44637800  1
  O  O27  1  0.72478100  0.74155500  0.55362200  1
  O  O28  1  0.33429100  0.81350000  0.33773200  1
  O  O29  1  0.99274800  0.78164100  0.79127100  1
loop_
_geom_bond_atom_site_label_1
_geom_bond_atom_site_label_2
_geom_bond_distance
_geom_bond_site_symmetry_2
K0 O15 2.692594 1_655
K0 O10 2.779161 1_555
K0 O13 2.817770 1_554
K0 O12 2.872809 1_555
K0 O7 2.925907 1_555
K0 O24 2.928441 1_554
K0 O17 3.029273 1_555
K0 O29 3.327216 1_554
K1 O14 2.692594 1_555
K1 O5 2.779161 1_555
K1 O2 2.817770 1_554
K1 O17 2.872809 1_555
K1 O19 2.925907 1_545
K1 O13 2.928441 1_554
K1 O8 3.029273 1_555
K1 O1 3.327216 1_554
K2 O24 2.692594 1_455
K2 O18 2.779161 1_555
K2 O14 2.817770 1_556
K2 O20 2.872809 1_555
K2 O1 2.925907 1_555
K2 O15 2.928441 1_556
K2 O16 3.029273 1_555
K2 O22 3.327216 1_556
K3 O13 2.692594 1_555
K3 O27 2.779161 1_555
K3 O0 2.817770 1_556
K3 O16 2.872809 1_555
K3 O23 2.925907 1_565
K3 O14 2.928441 1_556
K3 O6 3.029273 1_555
K3 O7 3.327216 1_556
K4 O7 2.863102 1_445
K4 O1 2.863102 1_554
K4 O22 2.863102 1_555
K4 O29 2.863102 1_444
K4 O19 2.863102 1_545
K4 O23 2.863102 1_454
K5 O2 2.692594 1_565
K5 O21 2.779161 1_555
K5 O15 2.817770 1_556
K5 O6 2.872809 1_555
K5 O29 2.925907 1_455
K5 O0 2.928441 1_556
K5 O20 3.029273 1_555
K5 O19 3.327216 1_556
K6 O0 2.692594 1_545
K6 O26 2.779161 1_555
K6 O24 2.817770 1_554
K6 O8 2.872809 1_555
K6 O22 2.925907 1_655
K6 O2 2.928441 1_554
K6 O12 3.029273 1_555
K6 O23 3.327216 1_554
K7 O5 2.859544 1_555
K7 O27 2.859544 1_445
K7 O18 2.859544 1_555
K7 O10 2.859544 1_445
K7 O21 2.859544 1_545
K7 O26 2.859544 1_455
K7 O1 3.328604 1_555
K7 O7 3.328604 1_445
K7 O29 3.328604 1_445
K7 O22 3.328604 1_555
K7 O23 3.328604 1_455
K7 O19 3.328604 1_545
Mn0 O12 2.156416 1_555
Mn0 O8 2.156420 1_555
Mn0 O17 2.156426 1_555
Mn0 O3 2.250939 1_555
Mn0 O9 2.250943 1_555
Mn0 O25 2.250946 1_555
Mn1 O20 2.156416 1_555
Mn1 O6 2.156420 1_555
Mn1 O16 2.156426 1_555
Mn1 O28 2.250939 1_555
Mn1 O4 2.250943 1_555
Mn1 O11 2.250946 1_555
Mo0 O18 1.762991 1_555
Mo0 O22 1.784709 1_555
Mo0 O12 1.819594 1_455
Mo0 O4 1.851332 1_555
Mo1 O26 1.762991 1_555
Mo1 O23 1.784709 1_555
Mo1 O6 1.819593 1_545
Mo1 O3 1.851332 1_555
Mo2 O15 1.777255 1_555
Mo2 O0 1.777259 1_555
Mo2 O14 1.777264 1_555
Mo2 O28 2.249968 1_555
Mo2 O4 2.249971 1_555
Mo2 O11 2.249975 1_555
Mo3 O27 1.762991 1_555
Mo3 O7 1.784709 1_555
Mo3 O17 1.819594 1_555
Mo3 O11 1.851332 1_555
Mo4 O24 1.777255 1_555
Mo4 O2 1.777259 1_555
Mo4 O13 1.777264 1_555
Mo4 O3 2.249968 1_555
Mo4 O9 2.249971 1_555
Mo4 O25 2.249975 1_555
Mo5 O5 1.762991 1_555
Mo5 O1 1.784709 1_555
Mo5 O16 1.819594 1_555
Mo5 O25 1.851332 1_555
Mo6 O21 1.762991 1_555
Mo6 O19 1.784709 1_555
Mo6 O8 1.819593 1_565
Mo6 O28 1.851332 1_555
Mo7 O10 1.762991 1_555
Mo7 O29 1.784709 1_555
Mo7 O20 1.819594 1_655
Mo7 O9 1.851332 1_555
