# generated using pymatgen
data_Sr2Fe2O5
_symmetry_space_group_name_H-M   'P 1'
_cell_length_a   8.89716542
_cell_length_b   8.89711865
_cell_length_c   8.89548986
_cell_angle_alpha   144.39616254
_cell_angle_beta   143.31515956
_cell_angle_gamma   52.06893375
_symmetry_Int_Tables_number   1
_chemical_formula_structural   Sr2Fe2O5
_chemical_formula_sum   'Sr4 Fe4 O10'
_cell_volume   243.49371123
_cell_formula_units_Z   2
loop_
 _symmetry_equiv_pos_site_id
 _symmetry_equiv_pos_as_xyz
  1  'x, y, z'
loop_
 _atom_site_type_symbol
 _atom_site_label
 _atom_site_symmetry_multiplicity
 _atom_site_fract_x
 _atom_site_fract_y
 _atom_site_fract_z
 _atom_site_occupancy
  Sr  Sr0  1  0.12430077  0.61223449  0.51675674  1
  Sr  Sr1  1  0.87581072  0.39254775  0.48816185  1
  Sr  Sr2  1  0.59560598  0.11234860  0.48814881  1
  Sr  Sr3  1  0.40453111  0.89245580  0.51676837  1
  Fe  Fe0  1  0.00022430  0.99856015  0.99888619  1
  Fe  Fe1  1  0.50032591  0.49866518  0.99888610  1
  Fe  Fe2  1  0.18289372  0.29111952  0.97396588  1
  Fe  Fe3  1  0.81666683  0.79033902  0.10705295  1
  O  O0  1  0.24594654  0.74396871  0.00165208  1
  O  O1  1  0.75421841  0.75584587  0.49792550  1
  O  O2  1  0.24204712  0.24363276  0.49781737  1
  O  O3  1  0.75768480  0.25566267  0.00160823  1
  O  O4  1  0.18350415  0.12793572  0.02920494  1
  O  O5  1  0.81623733  0.84427693  0.94281985  1
  O  O6  1  0.59854850  0.62659381  0.94280484  1
  O  O7  1  0.40126986  0.34567297  0.02921508  1
  O  O8  1  0.12643236  0.64116927  0.26759844  1
  O  O9  1  0.87375260  0.14061177  0.51436777  1
loop_
_geom_bond_atom_site_label_1
_geom_bond_atom_site_label_2
_geom_bond_distance
_geom_bond_site_symmetry_2
Fe0 O2 1.948615 1_566
Fe0 O3 1.953149 1_466
Fe0 O0 1.956309 1_556
Fe0 O1 1.957343 1_455
Fe0 O5 2.269911 1_455
Fe0 O4 2.270298 1_566
Fe1 O1 1.949037 1_556
Fe1 O0 1.953306 1_556
Fe1 O3 1.956490 1_556
Fe1 O2 1.957763 1_555
Fe1 O6 2.270133 1_555
Fe1 O7 2.270626 1_556
Fe2 O7 1.868709 1_556
Fe2 O4 1.869632 1_556
Fe2 O9 1.913949 1_455
Fe2 O8 1.930611 1_556
Fe3 O6 1.868201 1_554
Fe3 O5 1.869088 1_554
Fe3 O8 1.915490 1_655
Fe3 O9 1.931571 1_565
O0 Sr1 2.606567 1_454
O0 Sr3 2.609808 1_555
O0 Sr0 2.646041 1_554
O0 Sr2 2.650736 1_565
O1 Sr0 2.606423 1_655
O1 Sr2 2.609280 1_565
O1 Sr1 2.649686 1_555
O1 Sr3 2.653518 1_555
O2 Sr3 2.606350 1_545
O2 Sr1 2.609384 1_455
O2 Sr2 2.649579 1_555
O2 Sr0 2.653624 1_555
O3 Sr2 2.606427 1_554
O3 Sr0 2.609927 1_655
O3 Sr3 2.645975 1_544
O3 Sr1 2.650838 1_555
O4 Sr2 2.533262 1_555
O4 Sr0 2.686696 1_544
O4 Sr0 2.852847 1_555
O4 Sr2 3.157953 1_454
O5 Sr3 2.531907 1_555
O5 Sr1 2.679189 1_555
O5 Sr1 2.860727 1_566
O5 Sr3 3.160033 1_656
O6 Sr0 2.531981 1_555
O6 Sr2 2.679238 1_555
O6 Sr2 2.860761 1_566
O6 Sr0 3.160057 1_656
O7 Sr1 2.533292 1_555
O7 Sr3 2.686683 1_544
O7 Sr3 2.852964 1_555
O7 Sr1 3.158040 1_454
O8 Sr3 2.445446 1_555
O8 Sr0 2.445454 1_555
O9 Sr2 2.446595 1_555
O9 Sr1 2.446635 1_555
