# generated using pymatgen
data_CePt5
_symmetry_space_group_name_H-M   'P 1'
_cell_length_a   5.36853902
_cell_length_b   5.36853964
_cell_length_c   4.41707814
_cell_angle_alpha   90.00000000
_cell_angle_beta   90.00000000
_cell_angle_gamma   119.99999156
_symmetry_Int_Tables_number   1
_chemical_formula_structural   CePt5
_chemical_formula_sum   'Ce1 Pt5'
_cell_volume   110.24985553
_cell_formula_units_Z   1
loop_
 _symmetry_equiv_pos_site_id
 _symmetry_equiv_pos_as_xyz
  1  'x, y, z'
loop_
 _atom_site_type_symbol
 _atom_site_label
 _atom_site_symmetry_multiplicity
 _atom_site_fract_x
 _atom_site_fract_y
 _atom_site_fract_z
 _atom_site_occupancy
  Ce  Ce0  1  -0.00000000  0.00000000  0.00000000  1
  Pt  Pt0  1  0.33333300  0.66666700  -0.00000000  1
  Pt  Pt1  1  0.66666700  0.33333300  0.00000000  1
  Pt  Pt2  1  0.50000000  0.00000000  0.50000000  1
  Pt  Pt3  1  0.50000000  0.50000000  0.50000000  1
  Pt  Pt4  1  -0.00000000  0.50000000  0.50000000  1
loop_
_geom_bond_atom_site_label_1
_geom_bond_atom_site_label_2
_geom_bond_distance
_geom_bond_site_symmetry_2
Ce0 Pt0 3.099524 1_545
Ce0 Pt1 3.099524 1_455
Ce0 Pt0 3.099529 1_445
Ce0 Pt1 3.099529 1_555
Ce0 Pt0 3.099530 1_555
Ce0 Pt1 3.099530 1_445
Ce0 Pt2 3.476053 1_555
Ce0 Pt2 3.476053 1_554
Ce0 Pt2 3.476053 1_454
Ce0 Pt2 3.476053 1_455
Ce0 Pt4 3.476054 1_544
Ce0 Pt4 3.476054 1_545
Ce0 Pt4 3.476054 1_554
Ce0 Pt4 3.476054 1_555
Ce0 Pt3 3.476054 1_555
Ce0 Pt3 3.476054 1_554
Ce0 Pt3 3.476054 1_444
Ce0 Pt3 3.476054 1_445
Pt0 Pt4 2.698038 1_555
Pt0 Pt4 2.698038 1_554
Pt0 Pt2 2.698038 1_564
Pt0 Pt2 2.698038 1_565
Pt0 Pt3 2.698040 1_555
Pt0 Pt3 2.698040 1_554
Pt0 Pt1 3.099525 1_455
Pt0 Pt1 3.099525 1_565
Pt0 Pt1 3.099534 1_555
Pt1 Pt4 2.698038 1_655
Pt1 Pt4 2.698038 1_654
Pt1 Pt2 2.698038 1_554
Pt1 Pt2 2.698038 1_555
Pt1 Pt3 2.698040 1_555
Pt1 Pt3 2.698040 1_554
Pt2 Pt3 2.684270 1_555
Pt2 Pt3 2.684270 1_545
Pt2 Pt4 2.684270 1_545
Pt2 Pt4 2.684270 1_655
Pt3 Pt4 2.684270 1_555
Pt3 Pt4 2.684270 1_655
