# generated using pymatgen
data_Sb8Cl2O11
_symmetry_space_group_name_H-M   'P 1'
_cell_length_a   10.48448297
_cell_length_b   11.27308037
_cell_length_c   13.98811103
_cell_angle_alpha   78.59215372
_cell_angle_beta   76.25168415
_cell_angle_gamma   72.99441778
_symmetry_Int_Tables_number   1
_chemical_formula_structural   Sb8Cl2O11
_chemical_formula_sum   'Sb32 Cl8 O44'
_cell_volume   1520.98726268
_cell_formula_units_Z   4
loop_
 _symmetry_equiv_pos_site_id
 _symmetry_equiv_pos_as_xyz
  1  'x, y, z'
loop_
 _atom_site_type_symbol
 _atom_site_label
 _atom_site_symmetry_multiplicity
 _atom_site_fract_x
 _atom_site_fract_y
 _atom_site_fract_z
 _atom_site_occupancy
  Sb  Sb0  1  0.36521103  0.88532423  0.72792444  1
  Sb  Sb1  1  0.29563927  0.63370673  0.39119261  1
  Sb  Sb2  1  0.99325866  0.37660277  0.81393477  1
  Sb  Sb3  1  0.30611206  0.86839409  0.13457222  1
  Sb  Sb4  1  0.83933937  0.85444284  0.68505167  1
  Sb  Sb5  1  0.31283631  0.12662688  0.86109844  1
  Sb  Sb6  1  0.27826901  0.38041929  0.63745101  1
  Sb  Sb7  1  0.37054777  0.64917099  0.97474079  1
  Sb  Sb8  1  0.01406206  0.61295766  0.55868382  1
  Sb  Sb9  1  0.69388794  0.13160591  0.86542778  1
  Sb  Sb10  1  0.17802410  0.90486964  0.55767019  1
  Sb  Sb11  1  0.84160832  0.58333171  0.96938865  1
  Sb  Sb12  1  0.15839168  0.41666829  0.03061135  1
  Sb  Sb13  1  0.00517342  0.10353038  0.06777798  1
  Sb  Sb14  1  0.97533970  0.14707244  0.68920336  1
  Sb  Sb15  1  0.65857239  0.85916596  0.50807573  1
  Sb  Sb16  1  0.66360601  0.59753257  0.75604539  1
  Sb  Sb17  1  0.00674134  0.62339723  0.18606523  1
  Sb  Sb18  1  0.99482658  0.89646962  0.93222202  1
  Sb  Sb19  1  0.34142761  0.14083404  0.49192427  1
  Sb  Sb20  1  0.68716369  0.87337312  0.13890156  1
  Sb  Sb21  1  0.70436073  0.36629327  0.60880739  1
  Sb  Sb22  1  0.62945223  0.35082901  0.02525921  1
  Sb  Sb23  1  0.98593794  0.38704234  0.44131618  1
  Sb  Sb24  1  0.19068603  0.65933626  0.79775499  1
  Sb  Sb25  1  0.72173099  0.61958071  0.36254899  1
  Sb  Sb26  1  0.02466030  0.85292756  0.31079664  1
  Sb  Sb27  1  0.33639399  0.40246743  0.24395461  1
  Sb  Sb28  1  0.82197590  0.09513036  0.44232981  1
  Sb  Sb29  1  0.80931397  0.34066374  0.20224501  1
  Sb  Sb30  1  0.63478897  0.11467577  0.27207556  1
  Sb  Sb31  1  0.16066063  0.14555716  0.31494833  1
  Cl  Cl0  1  0.53209745  0.82067036  0.91291978  1
  Cl  Cl1  1  0.48420162  0.89454828  0.35151977  1
  Cl  Cl2  1  0.51579838  0.10545172  0.64848023  1
  Cl  Cl3  1  0.50307552  0.64224565  0.16764397  1
  Cl  Cl4  1  0.49687758  0.37078933  0.40430764  1
  Cl  Cl5  1  0.49692448  0.35775435  0.83235603  1
  Cl  Cl6  1  0.46790255  0.17932964  0.08708022  1
  Cl  Cl7  1  0.50312242  0.62921067  0.59569236  1
  O  O0  1  0.21916541  0.27033375  0.57146506  1
  O  O1  1  0.98877554  0.24484906  0.13950014  1
  O  O2  1  0.78872021  0.17603346  0.29845791  1
  O  O3  1  0.24138000  0.01206106  0.80904357  1
  O  O4  1  0.75862000  0.98793894  0.19095643  1
  O  O5  1  0.22539018  0.53805372  0.32076533  1
  O  O6  1  0.18328705  0.09248881  0.45663434  1
  O  O7  1  0.98274698  0.26380411  0.35693701  1
  O  O8  1  0.21499199  0.57292630  0.96443653  1
  O  O9  1  0.82599102  0.86875521  0.01616032  1
  O  O10  1  0.77460982  0.46194628  0.67923467  1
  O  O11  1  0.79498556  0.71797241  0.20902526  1
  O  O12  1  0.90689068  0.27032244  0.56782608  1
  O  O13  1  0.01122446  0.75515094  0.86049986  1
  O  O14  1  0.97321491  0.52711753  0.08910183  1
  O  O15  1  0.78500801  0.42707370  0.03556347  1
  O  O16  1  0.00721823  0.00040469  0.37818843  1
  O  O17  1  0.78083459  0.72966625  0.42853494  1
  O  O18  1  0.92357669  0.53280737  0.31166074  1
  O  O19  1  0.25708765  0.27153237  0.33414372  1
  O  O20  1  0.77158578  0.19967357  0.72735759  1
  O  O21  1  0.74291235  0.72846763  0.66585628  1
  O  O22  1  0.69339220  0.25942513  0.15011744  1
  O  O23  1  0.10209342  0.97277943  0.16215385  1
  O  O24  1  0.24482185  0.76977747  0.06025105  1
  O  O25  1  0.22841422  0.80032643  0.27264241  1
  O  O26  1  0.09310932  0.72967756  0.43217392  1
  O  O27  1  0.20501444  0.28202759  0.79097474  1
  O  O28  1  0.78367279  0.46045046  0.46934105  1
  O  O29  1  0.99278177  0.99959531  0.62181157  1
  O  O30  1  0.21127979  0.82396654  0.70154209  1
  O  O31  1  0.30660780  0.74057487  0.84988256  1
  O  O32  1  0.07642331  0.46719263  0.68833926  1
  O  O33  1  0.18068448  0.45396719  0.16765269  1
  O  O34  1  0.75517815  0.23022253  0.93974895  1
  O  O35  1  0.81671295  0.90751119  0.54336566  1
  O  O36  1  0.81931552  0.54603281  0.83234731  1
  O  O37  1  0.70842347  0.00139601  0.40036516  1
  O  O38  1  0.29157653  0.99860399  0.59963484  1
  O  O39  1  0.01725302  0.73619589  0.64306299  1
  O  O40  1  0.02678509  0.47288247  0.91089817  1
  O  O41  1  0.17400898  0.13124479  0.98383968  1
  O  O42  1  0.21632721  0.53954954  0.53065895  1
  O  O43  1  0.89790658  0.02722057  0.83784615  1
loop_
_geom_bond_atom_site_label_1
_geom_bond_atom_site_label_2
_geom_bond_distance
_geom_bond_site_symmetry_2
Cl0 Sb7 2.812873 1_555
Cl1 Sb15 3.070508 1_555
Cl2 Sb19 3.070508 1_555
Cl3 Sb3 2.808195 1_555
Cl4 Sb27 3.019171 1_555
Cl4 Sb1 3.095310 1_555
Cl5 Sb9 2.808195 1_555
Cl6 Sb22 2.812873 1_555
Cl7 Sb16 3.019171 1_555
Cl7 Sb21 3.095310 1_555
O0 Sb19 1.970360 1_555
O0 Sb6 1.987676 1_555
O1 Sb29 1.969412 1_555
O1 Sb13 1.991006 1_655
O2 Sb30 2.063080 1_555
O2 Sb29 2.100104 1_555
O2 Sb28 2.103557 1_555
O3 Sb0 1.967348 1_545
O3 Sb5 1.989156 1_555
O4 Sb30 1.967348 1_565
O4 Sb20 1.989156 1_555
O5 Sb27 1.964663 1_555
O5 Sb1 1.976202 1_555
O6 Sb31 2.003399 1_555
O6 Sb19 2.076957 1_555
O6 Sb10 2.307077 1_545
O7 Sb31 1.983906 1_655
O7 Sb23 2.004730 1_555
O8 Sb12 2.004305 1_556
O8 Sb7 2.097651 1_555
O8 Sb24 2.385113 1_555
O9 Sb18 1.949394 1_554
O9 Sb20 1.967817 1_555
O10 Sb16 1.964663 1_555
O10 Sb21 1.976202 1_555
O11 Sb20 1.999491 1_555
O11 Sb17 2.140302 1_655
O11 Sb25 2.281228 1_555
O12 Sb21 2.081109 1_555
O12 Sb14 2.095440 1_555
O12 Sb23 2.137621 1_555
O13 Sb24 1.969412 1_555
O13 Sb18 1.991006 1_455
O14 Sb17 2.042877 1_655
O14 Sb12 2.055000 1_655
O14 Sb11 2.297102 1_554
O15 Sb11 2.004305 1_554
O15 Sb22 2.097651 1_555
O15 Sb29 2.385113 1_555
O16 Sb26 2.011534 1_545
O16 Sb28 2.013693 1_455
O16 Sb31 2.517725 1_555
O17 Sb15 1.970360 1_555
O17 Sb25 1.987676 1_555
O18 Sb17 1.993159 1_655
O18 Sb25 2.071387 1_555
O18 Sb23 2.274469 1_555
O19 Sb27 1.986027 1_555
O19 Sb31 2.056849 1_555
O19 Sb19 2.589018 1_555
O20 Sb9 2.003510 1_555
O20 Sb14 2.010562 1_555
O20 Sb21 2.307335 1_555
O21 Sb16 1.986027 1_555
O21 Sb4 2.056849 1_555
O21 Sb15 2.589018 1_555
O22 Sb22 2.000518 1_555
O22 Sb29 2.045480 1_555
O22 Sb30 2.222057 1_555
O23 Sb13 1.984868 1_565
O23 Sb3 2.103341 1_555
O23 Sb26 2.352815 1_555
O24 Sb7 1.965302 1_554
O24 Sb3 1.980461 1_555
O25 Sb3 2.003510 1_555
O25 Sb26 2.010562 1_555
O25 Sb1 2.307335 1_555
O26 Sb1 2.081109 1_555
O26 Sb26 2.095440 1_555
O26 Sb8 2.137621 1_555
O27 Sb5 1.999491 1_555
O27 Sb2 2.140302 1_455
O27 Sb6 2.281228 1_555
O28 Sb23 2.010552 1_555
O28 Sb21 2.133092 1_555
O28 Sb25 2.142638 1_555
O29 Sb14 2.011534 1_565
O29 Sb10 2.013693 1_655
O29 Sb4 2.517725 1_555
O30 Sb0 2.063080 1_555
O30 Sb24 2.100104 1_555
O30 Sb10 2.103557 1_555
O31 Sb7 2.000518 1_555
O31 Sb24 2.045480 1_555
O31 Sb0 2.222057 1_555
O32 Sb2 1.993159 1_455
O32 Sb6 2.071387 1_555
O32 Sb8 2.274469 1_555
O33 Sb27 2.042079 1_555
O33 Sb12 2.120241 1_555
O33 Sb17 2.230291 1_555
O34 Sb22 1.965302 1_556
O34 Sb9 1.980461 1_555
O35 Sb4 2.003399 1_555
O35 Sb15 2.076957 1_555
O35 Sb28 2.307077 1_565
O36 Sb16 2.042079 1_555
O36 Sb11 2.120241 1_555
O36 Sb2 2.230291 1_555
O37 Sb28 2.047416 1_555
O37 Sb15 2.067432 1_545
O37 Sb30 2.149980 1_555
O38 Sb10 2.047416 1_555
O38 Sb19 2.067432 1_565
O38 Sb0 2.149980 1_555
O39 Sb4 1.983906 1_455
O39 Sb8 2.004730 1_555
O40 Sb2 2.042877 1_455
O40 Sb11 2.055000 1_455
O40 Sb12 2.297102 1_556
O41 Sb13 1.949394 1_556
O41 Sb5 1.967817 1_555
O42 Sb8 2.010552 1_555
O42 Sb1 2.133092 1_555
O42 Sb6 2.142638 1_555
O43 Sb18 1.984868 1_545
O43 Sb9 2.103341 1_555
O43 Sb14 2.352815 1_555
