# generated using pymatgen
data_Ba3NaRu2O9
_symmetry_space_group_name_H-M   'P 1'
_cell_length_a   11.92612284
_cell_length_b   11.91036496
_cell_length_c   14.60253563
_cell_angle_alpha   90.00000000
_cell_angle_beta   90.00000000
_cell_angle_gamma   120.04377545
_symmetry_Int_Tables_number   1
_chemical_formula_structural   Ba3NaRu2O9
_chemical_formula_sum   'Ba24 Na8 Ru16 O72'
_cell_volume   1795.52523430
_cell_formula_units_Z   8
loop_
 _symmetry_equiv_pos_site_id
 _symmetry_equiv_pos_as_xyz
  1  'x, y, z'
loop_
 _atom_site_type_symbol
 _atom_site_label
 _atom_site_symmetry_multiplicity
 _atom_site_fract_x
 _atom_site_fract_y
 _atom_site_fract_z
 _atom_site_occupancy
  Ba  Ba0  1  0.99868407  0.99736815  0.75000000  1
  Ba  Ba1  1  0.00131593  0.00263185  0.25000000  1
  Ba  Ba2  1  0.66184072  0.82389155  0.59621986  1
  Ba  Ba3  1  0.83199801  0.66399603  0.41435591  1
  Ba  Ba4  1  0.16205083  0.82389155  0.59621986  1
  Ba  Ba5  1  0.99482231  0.49144353  0.75000000  1
  Ba  Ba6  1  0.16205083  0.82389155  0.90378014  1
  Ba  Ba7  1  0.66184072  0.82389155  0.90378014  1
  Ba  Ba8  1  0.49850645  0.99701289  0.75000000  1
  Ba  Ba9  1  0.33815928  0.17610845  0.09621986  1
  Ba  Ba10  1  0.33203509  0.66407018  0.08469541  1
  Ba  Ba11  1  0.83794917  0.17610845  0.09621986  1
  Ba  Ba12  1  0.16800199  0.33600397  0.91435591  1
  Ba  Ba13  1  0.50149355  0.00298711  0.25000000  1
  Ba  Ba14  1  0.00517769  0.50855647  0.25000000  1
  Ba  Ba15  1  0.83794917  0.17610845  0.40378014  1
  Ba  Ba16  1  0.66796491  0.33592982  0.58469541  1
  Ba  Ba17  1  0.83199801  0.66399603  0.08564409  1
  Ba  Ba18  1  0.33203509  0.66407018  0.41530459  1
  Ba  Ba19  1  0.66796491  0.33592982  0.91530459  1
  Ba  Ba20  1  0.49662122  0.49144353  0.75000000  1
  Ba  Ba21  1  0.50337878  0.50855647  0.25000000  1
  Ba  Ba22  1  0.33815928  0.17610845  0.40378014  1
  Ba  Ba23  1  0.16800199  0.33600397  0.58564409  1
  Na  Na0  1  0.50000000  0.50000000  0.00000000  1
  Na  Na1  1  0.00000000  0.00000000  0.00000000  1
  Na  Na2  1  0.00000000  0.50000000  0.50000000  1
  Na  Na3  1  0.00000000  0.00000000  0.50000000  1
  Na  Na4  1  0.50000000  0.00000000  0.00000000  1
  Na  Na5  1  0.00000000  0.50000000  0.00000000  1
  Na  Na6  1  0.50000000  0.00000000  0.50000000  1
  Na  Na7  1  0.50000000  0.50000000  0.50000000  1
  Ru  Ru0  1  0.83098828  0.16187155  0.65375789  1
  Ru  Ru1  1  0.16893363  0.33786726  0.33662971  1
  Ru  Ru2  1  0.66911673  0.83812845  0.15375789  1
  Ru  Ru3  1  0.66881755  0.33763510  0.33654093  1
  Ru  Ru4  1  0.16893363  0.33786726  0.16337029  1
  Ru  Ru5  1  0.16901172  0.83812845  0.34624211  1
  Ru  Ru6  1  0.66881755  0.33763510  0.16345907  1
  Ru  Ru7  1  0.33118245  0.66236490  0.83654093  1
  Ru  Ru8  1  0.33088327  0.16187155  0.84624211  1
  Ru  Ru9  1  0.83106637  0.66213274  0.83662971  1
  Ru  Ru10  1  0.66911673  0.83812845  0.34624211  1
  Ru  Ru11  1  0.83106637  0.66213274  0.66337029  1
  Ru  Ru12  1  0.33088327  0.16187155  0.65375789  1
  Ru  Ru13  1  0.33118245  0.66236490  0.66345907  1
  Ru  Ru14  1  0.83098828  0.16187155  0.84624211  1
  Ru  Ru15  1  0.16901172  0.83812845  0.15375789  1
  O  O0  1  0.09448215  0.68375761  0.41440862  1
  O  O1  1  0.59222512  0.41588698  0.40635757  1
  O  O2  1  0.58927546  0.68375761  0.41440862  1
  O  O3  1  0.17436429  0.08775209  0.59143448  1
  O  O4  1  0.91338779  0.08775209  0.59143448  1
  O  O5  1  0.49053748  0.74506750  0.75000000  1
  O  O6  1  0.74801450  0.49602900  0.25000000  1
  O  O7  1  0.17633814  0.58411302  0.59364243  1
  O  O8  1  0.40697679  0.81395358  0.58968691  1
  O  O9  1  0.58927546  0.68375761  0.08559138  1
  O  O10  1  0.90739751  0.58447882  0.90738128  1
  O  O11  1  0.24771962  0.25766075  0.25000000  1
  O  O12  1  0.40777488  0.58411302  0.90635757  1
  O  O13  1  0.32291869  0.41552118  0.40738128  1
  O  O14  1  0.82366186  0.41588698  0.09364243  1
  O  O15  1  0.40798151  0.08186591  0.90792004  1
  O  O16  1  0.40798151  0.08186591  0.59207996  1
  O  O17  1  0.73753599  0.75978723  0.25000000  1
  O  O18  1  0.74546997  0.25493250  0.25000000  1
  O  O19  1  0.74601146  0.98617795  0.25000000  1
  O  O20  1  0.40777488  0.58411302  0.59364243  1
  O  O21  1  0.32611559  0.91813409  0.09207996  1
  O  O22  1  0.90739751  0.58447882  0.59261872  1
  O  O23  1  0.82563571  0.91224791  0.09143448  1
  O  O24  1  0.24016649  0.98617795  0.25000000  1
  O  O25  1  0.40697679  0.81395358  0.91031309  1
  O  O26  1  0.25398854  0.01382205  0.75000000  1
  O  O27  1  0.75827737  0.23570255  0.75000000  1
  O  O28  1  0.59302321  0.18604642  0.41031309  1
  O  O29  1  0.17633814  0.58411302  0.90635757  1
  O  O30  1  0.00994113  0.25766075  0.25000000  1
  O  O31  1  0.91338779  0.08775209  0.90856552  1
  O  O32  1  0.99005887  0.74233925  0.75000000  1
  O  O33  1  0.17436429  0.08775209  0.90856552  1
  O  O34  1  0.75983351  0.01382205  0.75000000  1
  O  O35  1  0.67388441  0.08186591  0.59207996  1
  O  O36  1  0.09260249  0.41552118  0.40738128  1
  O  O37  1  0.25198550  0.50397100  0.75000000  1
  O  O38  1  0.59201849  0.91813409  0.09207996  1
  O  O39  1  0.41072454  0.31624239  0.91440862  1
  O  O40  1  0.32291869  0.41552118  0.09261872  1
  O  O41  1  0.67708131  0.58447882  0.90738128  1
  O  O42  1  0.97774876  0.24021277  0.75000000  1
  O  O43  1  0.08661221  0.91224791  0.09143448  1
  O  O44  1  0.24842373  0.49684746  0.25000000  1
  O  O45  1  0.09228679  0.18457358  0.09160889  1
  O  O46  1  0.09448215  0.68375761  0.08559138  1
  O  O47  1  0.82563571  0.91224791  0.40856552  1
  O  O48  1  0.59222512  0.41588698  0.09364243  1
  O  O49  1  0.75228038  0.74233925  0.75000000  1
  O  O50  1  0.75157627  0.50315254  0.75000000  1
  O  O51  1  0.09228679  0.18457358  0.40839111  1
  O  O52  1  0.90551785  0.31624239  0.58559138  1
  O  O53  1  0.90771321  0.81542642  0.59160889  1
  O  O54  1  0.32611559  0.91813409  0.40792004  1
  O  O55  1  0.09260249  0.41552118  0.09261872  1
  O  O56  1  0.52257482  0.76429745  0.25000000  1
  O  O57  1  0.02225124  0.75978723  0.25000000  1
  O  O58  1  0.82366186  0.41588698  0.40635757  1
  O  O59  1  0.90771321  0.81542642  0.90839111  1
  O  O60  1  0.90551785  0.31624239  0.91440862  1
  O  O61  1  0.59302321  0.18604642  0.08968691  1
  O  O62  1  0.08661221  0.91224791  0.40856552  1
  O  O63  1  0.24172263  0.76429745  0.25000000  1
  O  O64  1  0.59201849  0.91813409  0.40792004  1
  O  O65  1  0.47742518  0.23570255  0.75000000  1
  O  O66  1  0.67388441  0.08186591  0.90792004  1
  O  O67  1  0.67708131  0.58447882  0.59261872  1
  O  O68  1  0.41072454  0.31624239  0.58559138  1
  O  O69  1  0.26246401  0.24021277  0.75000000  1
  O  O70  1  0.50946252  0.25493250  0.25000000  1
  O  O71  1  0.25453003  0.74506750  0.75000000  1
loop_
_geom_bond_atom_site_label_1
_geom_bond_atom_site_label_2
_geom_bond_distance
_geom_bond_site_symmetry_2
Ba0 O33 2.941351 1_665
Ba0 O31 2.941351 1_565
Ba0 O3 2.941351 1_665
Ba0 O4 2.941351 1_565
Ba0 O34 2.951556 1_565
Ba0 O26 2.951556 1_665
Ba0 O59 2.977977 1_555
Ba0 O53 2.977977 1_555
Ba0 O49 2.987314 1_555
Ba0 O32 2.987314 1_555
Ba0 O42 3.025102 1_565
Ba0 O69 3.025103 1_665
Ba1 O43 2.941351 1_545
Ba1 O23 2.941351 1_445
Ba1 O47 2.941351 1_445
Ba1 O62 2.941351 1_545
Ba1 O24 2.951556 1_545
Ba1 O19 2.951556 1_445
Ba1 O51 2.977977 1_555
Ba1 O45 2.977977 1_555
Ba1 O11 2.987314 1_555
Ba1 O30 2.987314 1_555
Ba1 O57 3.025102 1_545
Ba1 O17 3.025103 1_445
Ba2 O5 2.859591 1_555
Ba2 O49 2.863302 1_555
Ba2 O20 2.945095 1_555
Ba2 O67 2.947167 1_555
Ba2 O34 2.979683 1_565
Ba2 O8 2.983564 1_555
Ba2 O53 2.984820 1_555
Ba2 O35 3.003840 1_565
Ba2 O2 3.022723 1_555
Ba2 O4 3.072578 1_565
Ba2 O47 3.220838 1_555
Ba2 O64 3.232623 1_555
Ba3 O1 2.908915 1_555
Ba3 O58 2.908915 1_555
Ba3 O6 2.959571 1_555
Ba3 O47 2.996673 1_555
Ba3 O62 2.996673 1_655
Ba3 O2 3.019460 1_555
Ba3 O0 3.019461 1_655
Ba3 O53 3.022759 1_555
Ba3 O67 3.055224 1_555
Ba3 O22 3.055225 1_555
Ba3 O17 3.101273 1_555
Ba3 O57 3.101273 1_655
Ba4 O71 2.859591 1_555
Ba4 O32 2.863302 1_455
Ba4 O7 2.945095 1_555
Ba4 O22 2.947167 1_455
Ba4 O26 2.979683 1_565
Ba4 O8 2.983564 1_555
Ba4 O53 2.984820 1_455
Ba4 O16 3.003840 1_565
Ba4 O0 3.022723 1_555
Ba4 O3 3.072578 1_565
Ba4 O62 3.220838 1_555
Ba4 O54 3.232623 1_555
Ba5 O42 2.895674 1_555
Ba5 O27 2.938041 1_555
Ba5 O29 2.953824 1_655
Ba5 O7 2.953824 1_655
Ba5 O22 2.958610 1_555
Ba5 O10 2.958610 1_555
Ba5 O50 2.973255 1_555
Ba5 O37 2.995044 1_655
Ba5 O60 3.004506 1_555
Ba5 O52 3.004506 1_555
Ba5 O32 3.017103 1_555
Ba5 O71 3.057725 1_655
Ba6 O71 2.859591 1_555
Ba6 O32 2.863302 1_455
Ba6 O29 2.945095 1_555
Ba6 O10 2.947167 1_455
Ba6 O26 2.979683 1_565
Ba6 O25 2.983564 1_555
Ba6 O59 2.984820 1_455
Ba6 O15 3.003840 1_565
Ba6 O46 3.022723 1_556
Ba6 O33 3.072578 1_565
Ba6 O43 3.220838 1_556
Ba6 O21 3.232623 1_556
Ba7 O5 2.859591 1_555
Ba7 O49 2.863302 1_555
Ba7 O12 2.945095 1_555
Ba7 O41 2.947167 1_555
Ba7 O34 2.979683 1_565
Ba7 O25 2.983564 1_555
Ba7 O59 2.984820 1_555
Ba7 O66 3.003840 1_565
Ba7 O9 3.022723 1_556
Ba7 O31 3.072578 1_565
Ba7 O23 3.220838 1_556
Ba7 O38 3.232623 1_556
Ba8 O66 2.932108 1_565
Ba8 O35 2.932108 1_565
Ba8 O15 2.932108 1_565
Ba8 O16 2.932108 1_565
Ba8 O71 2.954325 1_555
Ba8 O5 2.954325 1_555
Ba8 O27 2.976723 1_565
Ba8 O65 2.976723 1_565
Ba8 O8 3.007045 1_555
Ba8 O25 3.007045 1_555
Ba8 O34 3.021359 1_565
Ba8 O26 3.021359 1_565
Ba9 O70 2.859591 1_555
Ba9 O11 2.863302 1_555
Ba9 O48 2.945095 1_555
Ba9 O40 2.947167 1_555
Ba9 O24 2.979683 1_545
Ba9 O61 2.983564 1_555
Ba9 O45 2.984820 1_555
Ba9 O21 3.003840 1_545
Ba9 O39 3.022723 1_554
Ba9 O43 3.072578 1_545
Ba9 O33 3.220838 1_554
Ba9 O15 3.232623 1_554
Ba10 O55 2.909701 1_555
Ba10 O40 2.909701 1_555
Ba10 O9 2.957486 1_555
Ba10 O46 2.957486 1_555
Ba10 O44 2.966349 1_555
Ba10 O25 2.978637 1_554
Ba10 O29 3.060385 1_554
Ba10 O12 3.060385 1_554
Ba10 O38 3.063847 1_555
Ba10 O21 3.063847 1_555
Ba10 O56 3.114374 1_555
Ba10 O63 3.114374 1_555
Ba11 O18 2.859591 1_555
Ba11 O30 2.863302 1_655
Ba11 O14 2.945095 1_555
Ba11 O55 2.947167 1_655
Ba11 O19 2.979683 1_545
Ba11 O61 2.983564 1_555
Ba11 O45 2.984820 1_655
Ba11 O38 3.003840 1_545
Ba11 O60 3.022723 1_554
Ba11 O23 3.072578 1_545
Ba11 O31 3.220838 1_554
Ba11 O66 3.232623 1_554
Ba12 O12 2.908915 1_555
Ba12 O29 2.908915 1_555
Ba12 O37 2.959571 1_555
Ba12 O33 2.996673 1_555
Ba12 O31 2.996673 1_455
Ba12 O39 3.019460 1_555
Ba12 O60 3.019461 1_455
Ba12 O45 3.022759 1_556
Ba12 O40 3.055224 1_556
Ba12 O55 3.055225 1_556
Ba12 O69 3.101273 1_555
Ba12 O42 3.101273 1_455
Ba13 O21 2.932108 1_545
Ba13 O54 2.932108 1_545
Ba13 O38 2.932108 1_545
Ba13 O64 2.932108 1_545
Ba13 O70 2.954325 1_555
Ba13 O18 2.954325 1_555
Ba13 O63 2.976723 1_545
Ba13 O56 2.976723 1_545
Ba13 O61 3.007045 1_555
Ba13 O28 3.007045 1_555
Ba13 O24 3.021359 1_545
Ba13 O19 3.021359 1_545
Ba14 O57 2.895674 1_555
Ba14 O63 2.938041 1_555
Ba14 O14 2.953824 1_455
Ba14 O58 2.953824 1_455
Ba14 O36 2.958610 1_555
Ba14 O55 2.958610 1_555
Ba14 O44 2.973255 1_555
Ba14 O6 2.995044 1_455
Ba14 O0 3.004506 1_555
Ba14 O46 3.004506 1_555
Ba14 O30 3.017103 1_555
Ba14 O18 3.057725 1_455
Ba15 O18 2.859591 1_555
Ba15 O30 2.863302 1_655
Ba15 O58 2.945095 1_555
Ba15 O36 2.947167 1_655
Ba15 O19 2.979683 1_545
Ba15 O28 2.983564 1_555
Ba15 O51 2.984820 1_655
Ba15 O64 3.003840 1_545
Ba15 O52 3.022723 1_555
Ba15 O47 3.072578 1_545
Ba15 O4 3.220838 1_555
Ba15 O35 3.232623 1_555
Ba16 O22 2.909701 1_555
Ba16 O67 2.909701 1_555
Ba16 O52 2.957486 1_555
Ba16 O68 2.957486 1_555
Ba16 O50 2.966349 1_555
Ba16 O28 2.978637 1_555
Ba16 O58 3.060385 1_555
Ba16 O1 3.060385 1_555
Ba16 O16 3.063847 1_555
Ba16 O35 3.063847 1_555
Ba16 O27 3.114374 1_555
Ba16 O65 3.114374 1_555
Ba17 O48 2.908915 1_555
Ba17 O14 2.908915 1_555
Ba17 O6 2.959571 1_555
Ba17 O23 2.996673 1_555
Ba17 O43 2.996673 1_655
Ba17 O9 3.019460 1_555
Ba17 O46 3.019461 1_655
Ba17 O59 3.022759 1_554
Ba17 O41 3.055224 1_554
Ba17 O10 3.055225 1_554
Ba17 O17 3.101273 1_555
Ba17 O57 3.101273 1_655
Ba18 O13 2.909701 1_555
Ba18 O36 2.909701 1_555
Ba18 O2 2.957486 1_555
Ba18 O0 2.957486 1_555
Ba18 O44 2.966349 1_555
Ba18 O8 2.978637 1_555
Ba18 O7 3.060385 1_555
Ba18 O20 3.060385 1_555
Ba18 O64 3.063847 1_555
Ba18 O54 3.063847 1_555
Ba18 O56 3.114374 1_555
Ba18 O63 3.114374 1_555
Ba19 O10 2.909701 1_555
Ba19 O41 2.909701 1_555
Ba19 O60 2.957486 1_555
Ba19 O39 2.957486 1_555
Ba19 O50 2.966349 1_555
Ba19 O61 2.978637 1_556
Ba19 O14 3.060385 1_556
Ba19 O48 3.060385 1_556
Ba19 O15 3.063847 1_555
Ba19 O66 3.063847 1_555
Ba19 O27 3.114374 1_555
Ba19 O65 3.114374 1_555
Ba20 O69 2.895674 1_555
Ba20 O65 2.938041 1_555
Ba20 O12 2.953824 1_555
Ba20 O20 2.953824 1_555
Ba20 O41 2.958610 1_555
Ba20 O67 2.958610 1_555
Ba20 O50 2.973255 1_555
Ba20 O37 2.995044 1_555
Ba20 O68 3.004506 1_555
Ba20 O39 3.004506 1_555
Ba20 O49 3.017103 1_555
Ba20 O5 3.057725 1_555
Ba21 O17 2.895674 1_555
Ba21 O56 2.938041 1_555
Ba21 O1 2.953824 1_555
Ba21 O48 2.953824 1_555
Ba21 O13 2.958610 1_555
Ba21 O40 2.958610 1_555
Ba21 O44 2.973255 1_555
Ba21 O6 2.995044 1_555
Ba21 O2 3.004506 1_555
Ba21 O9 3.004506 1_555
Ba21 O11 3.017103 1_555
Ba21 O70 3.057725 1_555
Ba22 O70 2.859591 1_555
Ba22 O11 2.863302 1_555
Ba22 O1 2.945095 1_555
Ba22 O13 2.947167 1_555
Ba22 O24 2.979683 1_545
Ba22 O28 2.983564 1_555
Ba22 O51 2.984820 1_555
Ba22 O54 3.003840 1_545
Ba22 O68 3.022723 1_555
Ba22 O62 3.072578 1_545
Ba22 O3 3.220838 1_555
Ba22 O16 3.232623 1_555
Ba23 O20 2.908915 1_555
Ba23 O7 2.908915 1_555
Ba23 O37 2.959571 1_555
Ba23 O3 2.996673 1_555
Ba23 O4 2.996673 1_455
Ba23 O68 3.019460 1_555
Ba23 O52 3.019461 1_455
Ba23 O51 3.022759 1_555
Ba23 O13 3.055224 1_555
Ba23 O36 3.055225 1_555
Ba23 O69 3.101273 1_555
Ba23 O42 3.101273 1_455
Na0 O39 2.269904 1_554
Na0 O9 2.269904 1_555
Na0 O40 2.274622 1_555
Na0 O41 2.274622 1_554
Na0 O48 2.277403 1_555
Na0 O12 2.277403 1_554
Na1 O33 2.241217 1_554
Na1 O23 2.241217 1_445
Na1 O43 2.241218 1_545
Na1 O31 2.241218 1_454
Na1 O45 2.326117 1_555
Na1 O59 2.326117 1_444
Na2 O0 2.269904 1_555
Na2 O52 2.269904 1_455
Na2 O22 2.274622 1_455
Na2 O36 2.274622 1_555
Na2 O7 2.277403 1_555
Na2 O58 2.277403 1_455
Na3 O47 2.241217 1_445
Na3 O3 2.241217 1_555
Na3 O62 2.241218 1_545
Na3 O4 2.241218 1_455
Na3 O51 2.326117 1_555
Na3 O53 2.326117 1_445
Na4 O38 2.243765 1_545
Na4 O15 2.243765 1_554
Na4 O66 2.243765 1_554
Na4 O21 2.243765 1_545
Na4 O61 2.322616 1_555
Na4 O25 2.322616 1_544
Na5 O60 2.269904 1_454
Na5 O46 2.269904 1_555
Na5 O10 2.274622 1_454
Na5 O55 2.274622 1_555
Na5 O29 2.277403 1_554
Na5 O14 2.277403 1_455
Na6 O64 2.243765 1_545
Na6 O16 2.243765 1_555
Na6 O35 2.243765 1_555
Na6 O54 2.243765 1_545
Na6 O8 2.322616 1_545
Na6 O28 2.322616 1_555
Na7 O2 2.269904 1_555
Na7 O68 2.269904 1_555
Na7 O13 2.274622 1_555
Na7 O67 2.274622 1_555
Na7 O1 2.277403 1_555
Na7 O20 2.277403 1_555
O0 Ru5 1.877490 1_555
O1 Ru3 1.896017 1_555
O2 Ru10 1.877490 1_555
O3 Ru12 1.855249 1_555
O4 Ru0 1.855248 1_555
O5 Ru13 2.074754 1_555
O5 Ru7 2.074754 1_555
O6 Ru6 2.064914 1_555
O6 Ru3 2.064914 1_555
O7 Ru13 1.896017 1_555
O8 Ru13 1.898194 1_555
O9 Ru2 1.877490 1_555
O10 Ru9 1.895942 1_555
O11 Ru4 2.072316 1_555
O11 Ru1 2.072316 1_555
O12 Ru7 1.896017 1_555
O13 Ru1 1.895942 1_555
O14 Ru6 1.896017 1_555
O15 Ru8 1.855255 1_555
O16 Ru12 1.855255 1_555
O17 Ru10 2.067342 1_555
O17 Ru2 2.067342 1_555
O18 Ru6 2.074754 1_555
O18 Ru3 2.074754 1_555
O19 Ru10 2.075135 1_555
O19 Ru2 2.075135 1_555
O20 Ru13 1.896017 1_555
O21 Ru15 1.855255 1_555
O22 Ru11 1.895942 1_555
O23 Ru2 1.855249 1_555
O24 Ru15 2.075135 1_555
O24 Ru5 2.075135 1_555
O25 Ru7 1.898194 1_555
O26 Ru8 2.075135 1_555
O26 Ru12 2.075135 1_555
O27 Ru0 2.064913 1_555
O27 Ru14 2.064913 1_555
O28 Ru3 1.898194 1_555
O29 Ru7 1.896017 1_555
O30 Ru4 2.072316 1_555
O30 Ru1 2.072316 1_555
O31 Ru14 1.855248 1_555
O32 Ru11 2.072316 1_555
O32 Ru9 2.072316 1_555
O33 Ru8 1.855249 1_555
O34 Ru0 2.075135 1_555
O34 Ru14 2.075135 1_555
O35 Ru0 1.855255 1_555
O36 Ru1 1.895942 1_555
O37 Ru13 2.064914 1_555
O37 Ru7 2.064914 1_555
O38 Ru2 1.855255 1_555
O39 Ru8 1.877490 1_555
O40 Ru4 1.895942 1_555
O41 Ru9 1.895942 1_555
O42 Ru0 2.067342 1_555
O42 Ru14 2.067342 1_555
O43 Ru15 1.855248 1_555
O44 Ru4 2.070490 1_555
O44 Ru1 2.070490 1_555
O45 Ru4 1.896312 1_555
O46 Ru15 1.877490 1_555
O47 Ru10 1.855249 1_555
O48 Ru6 1.896017 1_555
O49 Ru11 2.072316 1_555
O49 Ru9 2.072316 1_555
O50 Ru11 2.070490 1_555
O50 Ru9 2.070490 1_555
O51 Ru1 1.896312 1_555
O52 Ru0 1.877490 1_555
O53 Ru11 1.896312 1_555
O54 Ru5 1.855255 1_555
O55 Ru4 1.895942 1_555
O56 Ru10 2.064913 1_555
O56 Ru2 2.064913 1_555
O57 Ru5 2.067342 1_555
O57 Ru15 2.067342 1_555
O58 Ru3 1.896017 1_555
O59 Ru9 1.896312 1_555
O60 Ru14 1.877490 1_555
O61 Ru6 1.898194 1_555
O62 Ru5 1.855248 1_555
O63 Ru5 2.064913 1_555
O63 Ru15 2.064913 1_555
O64 Ru10 1.855255 1_555
O65 Ru8 2.064913 1_555
O65 Ru12 2.064913 1_555
O66 Ru14 1.855255 1_555
O67 Ru11 1.895942 1_555
O68 Ru12 1.877490 1_555
O69 Ru8 2.067342 1_555
O69 Ru12 2.067342 1_555
O70 Ru6 2.074754 1_555
O70 Ru3 2.074754 1_555
O71 Ru13 2.074754 1_555
O71 Ru7 2.074754 1_555
