# generated using pymatgen
data_SrTiGeO5
_symmetry_space_group_name_H-M   'P 1'
_cell_length_a   9.16686000
_cell_length_b   6.89623300
_cell_length_c   7.34878232
_cell_angle_alpha   66.03555016
_cell_angle_beta   90.00000000
_cell_angle_gamma   90.00000000
_symmetry_Int_Tables_number   1
_chemical_formula_structural   SrTiGeO5
_chemical_formula_sum   'Sr4 Ti4 Ge4 O20'
_cell_volume   424.51979341
_cell_formula_units_Z   4
loop_
 _symmetry_equiv_pos_site_id
 _symmetry_equiv_pos_as_xyz
  1  'x, y, z'
loop_
 _atom_site_type_symbol
 _atom_site_label
 _atom_site_symmetry_multiplicity
 _atom_site_fract_x
 _atom_site_fract_y
 _atom_site_fract_z
 _atom_site_occupancy
  Sr  Sr0  1  0.92163000  0.25003000  0.25749300  1
  Sr  Sr1  1  0.57837000  0.25003000  0.75749300  1
  Sr  Sr2  1  0.07837000  0.74997000  0.74250700  1
  Sr  Sr3  1  0.42163000  0.74997000  0.24250700  1
  Ti  Ti0  1  0.24587100  0.25329100  0.01429500  1
  Ti  Ti1  1  0.25412900  0.25329100  0.51429500  1
  Ti  Ti2  1  0.74587100  0.74670900  0.48570500  1
  Ti  Ti3  1  0.75412900  0.74670900  0.98570500  1
  Ge  Ge0  1  0.56358100  0.24745400  0.25361100  1
  Ge  Ge1  1  0.43641900  0.75254600  0.74638900  1
  Ge  Ge2  1  0.06358100  0.75254600  0.24638900  1
  Ge  Ge3  1  0.93641900  0.24745400  0.75361100  1
  O  O0  1  0.81471000  0.44056100  0.58831500  1
  O  O1  1  0.54224400  0.65252100  0.60076500  1
  O  O2  1  0.31471000  0.55943900  0.91168500  1
  O  O3  1  0.68395000  0.04998700  0.41567300  1
  O  O4  1  0.18395000  0.95001300  0.08432700  1
  O  O5  1  0.30831500  0.25509400  0.74803000  1
  O  O6  1  0.80831500  0.74490600  0.75197000  1
  O  O7  1  0.04224400  0.34747900  0.89923500  1
  O  O8  1  0.95775600  0.65252100  0.10076500  1
  O  O9  1  0.18529000  0.55943900  0.41168500  1
  O  O10  1  0.19168500  0.25509400  0.24803000  1
  O  O11  1  0.45404900  0.15355300  0.10589200  1
  O  O12  1  0.81605000  0.04998700  0.91567300  1
  O  O13  1  0.95404900  0.84644700  0.39410800  1
  O  O14  1  0.45775600  0.34747900  0.39923500  1
  O  O15  1  0.69168500  0.74490600  0.25197000  1
  O  O16  1  0.04595100  0.15355300  0.60589200  1
  O  O17  1  0.31605000  0.95001300  0.58432700  1
  O  O18  1  0.54595100  0.84644700  0.89410800  1
  O  O19  1  0.68529000  0.44056100  0.08831500  1
loop_
_geom_bond_atom_site_label_1
_geom_bond_atom_site_label_2
_geom_bond_distance
_geom_bond_site_symmetry_2
Ge0 O14 1.778140 1_555
Ge0 O3 1.781252 1_555
Ge0 O11 1.782403 1_555
Ge0 O19 1.783166 1_555
Ge1 O1 1.778140 1_555
Ge1 O17 1.781252 1_555
Ge1 O18 1.782403 1_555
Ge1 O2 1.783166 1_555
Ge2 O8 1.778140 1_455
Ge2 O4 1.781252 1_555
Ge2 O13 1.782403 1_455
Ge2 O9 1.783166 1_555
Ge3 O7 1.778140 1_655
Ge3 O12 1.781252 1_555
Ge3 O16 1.782403 1_655
Ge3 O0 1.783166 1_555
O0 Ti2 2.032487 1_555
O0 Sr1 2.576591 1_555
O1 Ti2 2.043276 1_555
O1 Sr1 2.558046 1_555
O1 Sr3 2.677358 1_555
O2 Ti0 2.032487 1_556
O2 Sr2 2.576591 1_555
O3 Ti2 2.021619 1_545
O3 Sr0 2.588200 1_555
O4 Ti0 2.021619 1_565
O4 Sr3 2.588200 1_555
O5 Ti1 1.792934 1_555
O5 Ti0 2.033917 1_556
O5 Sr1 2.476381 1_555
O6 Ti3 1.792934 1_555
O6 Ti2 2.033917 1_555
O6 Sr2 2.476381 1_655
O7 Ti0 2.043276 1_556
O7 Sr2 2.558046 1_555
O7 Sr0 2.677358 1_456
O8 Ti3 2.043276 1_554
O8 Sr0 2.558046 1_555
O8 Sr2 2.677358 1_654
O9 Ti1 2.032487 1_555
O9 Sr3 2.576591 1_555
O10 Ti0 1.792934 1_555
O10 Ti1 2.033917 1_555
O10 Sr0 2.476381 1_455
O11 Ti0 2.047399 1_555
O11 Sr3 2.563710 1_545
O11 Sr1 2.629226 1_554
O12 Ti3 2.021619 1_545
O12 Sr1 2.588200 1_555
O13 Ti2 2.047399 1_555
O13 Sr0 2.563710 1_565
O13 Sr2 2.629226 1_655
O14 Ti1 2.043276 1_555
O14 Sr3 2.558046 1_555
O14 Sr1 2.677358 1_555
O15 Ti2 1.792934 1_555
O15 Ti3 2.033917 1_554
O15 Sr3 2.476381 1_555
O16 Ti1 2.047399 1_555
O16 Sr2 2.563710 1_545
O16 Sr0 2.629226 1_455
O17 Ti1 2.021619 1_565
O17 Sr2 2.588200 1_555
O18 Ti3 2.047399 1_555
O18 Sr1 2.563710 1_565
O18 Sr3 2.629226 1_556
O19 Ti3 2.032487 1_554
O19 Sr0 2.576591 1_555
