# generated using pymatgen
data_VZnSe2O7
_symmetry_space_group_name_H-M   'P 1'
_cell_length_a   12.79076100
_cell_length_b   7.57666200
_cell_length_c   7.88841066
_cell_angle_alpha   58.98008364
_cell_angle_beta   90.00000000
_cell_angle_gamma   90.00000000
_symmetry_Int_Tables_number   1
_chemical_formula_structural   VZnSe2O7
_chemical_formula_sum   'V4 Zn4 Se8 O28'
_cell_volume   655.14685486
_cell_formula_units_Z   4
loop_
 _symmetry_equiv_pos_site_id
 _symmetry_equiv_pos_as_xyz
  1  'x, y, z'
loop_
 _atom_site_type_symbol
 _atom_site_label
 _atom_site_symmetry_multiplicity
 _atom_site_fract_x
 _atom_site_fract_y
 _atom_site_fract_z
 _atom_site_occupancy
  V  V0  1  0.75444800  0.03709200  0.22297300  1
  V  V1  1  0.25444800  0.96290800  0.27702700  1
  V  V2  1  0.74555200  0.03709200  0.72297300  1
  V  V3  1  0.24555200  0.96290800  0.77702700  1
  Zn  Zn0  1  0.99225400  0.71590500  0.48709600  1
  Zn  Zn1  1  0.50774600  0.71590500  0.98709600  1
  Zn  Zn2  1  0.49225400  0.28409500  0.01290400  1
  Zn  Zn3  1  0.00774600  0.28409500  0.51290400  1
  Se  Se0  1  0.48828500  0.16170800  0.66095900  1
  Se  Se1  1  0.01171500  0.16170800  0.16095900  1
  Se  Se2  1  0.98828500  0.83829200  0.83904100  1
  Se  Se3  1  0.23049400  0.46352400  0.60827400  1
  Se  Se4  1  0.51171500  0.83829200  0.33904100  1
  Se  Se5  1  0.76950600  0.53647600  0.39172600  1
  Se  Se6  1  0.26950600  0.46352400  0.10827400  1
  Se  Se7  1  0.73049400  0.53647600  0.89172600  1
  O  O0  1  0.90459900  0.05810700  0.71263400  1
  O  O1  1  0.22836800  0.66193100  0.88062400  1
  O  O2  1  0.26910600  0.96645900  0.48551700  1
  O  O3  1  0.72836800  0.33806900  0.61937600  1
  O  O4  1  0.46315700  0.31638800  0.75208200  1
  O  O5  1  0.73089400  0.03354100  0.51448300  1
  O  O6  1  0.03684300  0.31638800  0.25208200  1
  O  O7  1  0.59343900  0.53264600  0.92310900  1
  O  O8  1  0.77163200  0.33806900  0.11937600  1
  O  O9  1  0.26334100  0.26402000  0.57278500  1
  O  O10  1  0.76910600  0.03354100  0.01448300  1
  O  O11  1  0.90656100  0.53264600  0.42310900  1
  O  O12  1  0.76334100  0.73598000  0.92721500  1
  O  O13  1  0.96315700  0.68361200  0.74791800  1
  O  O14  1  0.53684300  0.68361200  0.24791800  1
  O  O15  1  0.23665900  0.26402000  0.07278500  1
  O  O16  1  0.40459900  0.94189300  0.78736600  1
  O  O17  1  0.59540100  0.05810700  0.21263400  1
  O  O18  1  0.27163200  0.66193100  0.38062400  1
  O  O19  1  0.90792300  0.00325300  0.30656700  1
  O  O20  1  0.40656100  0.46735400  0.07689100  1
  O  O21  1  0.73665900  0.73598000  0.42721500  1
  O  O22  1  0.09540100  0.94189300  0.28736600  1
  O  O23  1  0.09207700  0.99674700  0.69343300  1
  O  O24  1  0.23089400  0.96645900  0.98551700  1
  O  O25  1  0.59207700  0.00325300  0.80656700  1
  O  O26  1  0.40792300  0.99674700  0.19343300  1
  O  O27  1  0.09343900  0.46735400  0.57689100  1
loop_
_geom_bond_atom_site_label_1
_geom_bond_atom_site_label_2
_geom_bond_distance
_geom_bond_site_symmetry_2
O0 Se2 1.789468 1_545
O0 V2 2.038903 1_555
O0 Zn3 2.091478 1_655
O1 Se6 1.726036 1_556
O1 V3 1.998910 1_555
O2 V1 1.669243 1_555
O2 V3 2.305571 1_555
O3 Se5 1.726036 1_555
O3 V2 1.998910 1_555
O4 Se0 1.691669 1_555
O4 Zn2 1.978059 1_556
O5 V2 1.669243 1_555
O5 V0 2.305571 1_555
O6 Se1 1.691669 1_555
O6 Zn3 1.978059 1_555
O7 Se7 1.768577 1_555
O7 Zn1 2.026431 1_555
O7 Zn2 2.085264 1_556
O8 Se7 1.726036 1_554
O8 V0 1.998910 1_555
O9 Se3 1.725078 1_555
O9 V3 2.015939 1_545
O10 V0 1.669243 1_555
O10 V2 2.305571 1_554
O11 Se5 1.768577 1_555
O11 Zn0 2.026431 1_555
O11 Zn3 2.085264 1_655
O12 Se7 1.725078 1_555
O12 V2 2.015939 1_565
O13 Se2 1.691669 1_555
O13 Zn0 1.978059 1_555
O14 Se4 1.691669 1_555
O14 Zn1 1.978059 1_554
O15 Se6 1.725078 1_555
O15 V1 2.015939 1_545
O16 Se0 1.789468 1_565
O16 V3 2.038903 1_555
O16 Zn1 2.091478 1_555
O17 Se4 1.789468 1_545
O17 V0 2.038903 1_555
O17 Zn2 2.091478 1_555
O18 Se3 1.726036 1_555
O18 V1 1.998910 1_555
O19 Se1 1.761207 1_655
O19 V0 2.044489 1_555
O19 Zn0 2.176219 1_545
O20 Se6 1.768577 1_555
O20 Zn2 2.026431 1_555
O20 Zn1 2.085264 1_554
O21 Se5 1.725078 1_555
O21 V0 2.015939 1_565
O22 Se1 1.789468 1_565
O22 V1 2.038903 1_555
O22 Zn0 2.091478 1_455
O23 Se2 1.761207 1_455
O23 V3 2.044489 1_555
O23 Zn3 2.176219 1_565
O24 V3 1.669243 1_555
O24 V1 2.305571 1_556
O25 Se0 1.761207 1_555
O25 V2 2.044489 1_555
O25 Zn1 2.176219 1_545
O26 Se4 1.761207 1_555
O26 V1 2.044489 1_555
O26 Zn2 2.176219 1_565
O27 Se3 1.768577 1_555
O27 Zn3 2.026431 1_555
O27 Zn0 2.085264 1_455
