# generated using pymatgen
data_UV2O8
_symmetry_space_group_name_H-M   'P 1'
_cell_length_a   5.75209139
_cell_length_b   10.55320186
_cell_length_c   11.98145044
_cell_angle_alpha   90.00000000
_cell_angle_beta   90.00000000
_cell_angle_gamma   90.00000000
_symmetry_Int_Tables_number   1
_chemical_formula_structural   UV2O8
_chemical_formula_sum   'U4 V8 O32'
_cell_volume   727.30976507
_cell_formula_units_Z   4
loop_
 _symmetry_equiv_pos_site_id
 _symmetry_equiv_pos_as_xyz
  1  'x, y, z'
loop_
 _atom_site_type_symbol
 _atom_site_label
 _atom_site_symmetry_multiplicity
 _atom_site_fract_x
 _atom_site_fract_y
 _atom_site_fract_z
 _atom_site_occupancy
  U  U0  1  0.92713029  0.89962877  0.25000000  1
  U  U1  1  0.42713029  0.60037123  0.25000000  1
  U  U2  1  0.57286971  0.39962877  0.75000000  1
  U  U3  1  0.07286971  0.10037123  0.75000000  1
  V  V0  1  0.68402488  0.33398580  0.07089715  1
  V  V1  1  0.18402488  0.16601420  0.42910285  1
  V  V2  1  0.81597512  0.83398580  0.92910285  1
  V  V3  1  0.31597512  0.66601420  0.57089715  1
  V  V4  1  0.31597512  0.66601420  0.92910285  1
  V  V5  1  0.81597512  0.83398580  0.57089715  1
  V  V6  1  0.18402488  0.16601420  0.07089715  1
  V  V7  1  0.68402488  0.33398580  0.42910285  1
  O  O0  1  0.45209407  0.23485564  0.11270428  1
  O  O1  1  0.95209407  0.26514436  0.38729572  1
  O  O2  1  0.04790593  0.73485564  0.88729572  1
  O  O3  1  0.54790593  0.76514436  0.61270428  1
  O  O4  1  0.54790593  0.76514436  0.88729572  1
  O  O5  1  0.04790593  0.73485564  0.61270428  1
  O  O6  1  0.95209407  0.26514436  0.11270428  1
  O  O7  1  0.45209407  0.23485564  0.38729572  1
  O  O8  1  0.64986133  0.47516637  0.13189336  1
  O  O9  1  0.14986133  0.02483363  0.36810664  1
  O  O10  1  0.85013867  0.97516637  0.86810664  1
  O  O11  1  0.35013867  0.52483363  0.63189336  1
  O  O12  1  0.35013867  0.52483363  0.86810664  1
  O  O13  1  0.85013867  0.97516637  0.63189336  1
  O  O14  1  0.14986133  0.02483363  0.13189336  1
  O  O15  1  0.64986133  0.47516637  0.36810664  1
  O  O16  1  0.82092428  0.84928326  0.06718456  1
  O  O17  1  0.32092428  0.65071674  0.43281544  1
  O  O18  1  0.67907572  0.34928326  0.93281544  1
  O  O19  1  0.17907572  0.15071674  0.56718456  1
  O  O20  1  0.17907572  0.15071674  0.93281544  1
  O  O21  1  0.67907572  0.34928326  0.56718456  1
  O  O22  1  0.32092428  0.65071674  0.06718456  1
  O  O23  1  0.82092428  0.84928326  0.43281544  1
  O  O24  1  0.70253555  0.01585438  0.25000000  1
  O  O25  1  0.20253555  0.48414562  0.25000000  1
  O  O26  1  0.79746445  0.51585438  0.75000000  1
  O  O27  1  0.29746445  0.98414562  0.75000000  1
  O  O28  1  0.15522828  0.77777696  0.25000000  1
  O  O29  1  0.65522828  0.72222304  0.25000000  1
  O  O30  1  0.34477172  0.27777696  0.75000000  1
  O  O31  1  0.84477172  0.22222304  0.75000000  1
loop_
_geom_bond_atom_site_label_1
_geom_bond_atom_site_label_2
_geom_bond_distance
_geom_bond_site_symmetry_2
O0 V0 1.767798 1_555
O0 V6 1.776611 1_555
O1 V1 1.767798 1_655
O1 V7 1.776611 1_555
O2 V2 1.767798 1_455
O2 V4 1.776611 1_555
O3 V3 1.767798 1_555
O3 V5 1.776611 1_555
O4 V4 1.767798 1_555
O4 V2 1.776611 1_555
O5 V5 1.767798 1_455
O5 V3 1.776611 1_555
O6 V6 1.767798 1_655
O6 V0 1.776611 1_555
O7 V7 1.767798 1_555
O7 V1 1.776611 1_555
O8 V0 1.671090 1_555
O8 U1 2.321581 1_555
O9 V1 1.671090 1_555
O9 U0 2.321581 1_445
O10 V2 1.671090 1_555
O10 U3 2.321581 1_665
O11 V3 1.671090 1_555
O11 U2 2.321581 1_555
O12 V4 1.671090 1_555
O12 U2 2.321581 1_555
O13 V5 1.671090 1_555
O13 U3 2.321581 1_665
O14 V6 1.671090 1_555
O14 U0 2.321581 1_445
O15 V7 1.671090 1_555
O15 U1 2.321581 1_555
O16 V2 1.662521 1_554
O16 U0 2.335234 1_555
O17 V3 1.662521 1_555
O17 U1 2.335234 1_555
O18 V0 1.662521 1_556
O18 U2 2.335234 1_555
O19 V1 1.662521 1_555
O19 U3 2.335234 1_555
O20 V6 1.662521 1_556
O20 U3 2.335234 1_555
O21 V7 1.662521 1_555
O21 U2 2.335234 1_555
O22 V4 1.662521 1_554
O22 U1 2.335234 1_555
O23 V5 1.662521 1_555
O23 U0 2.335234 1_555
O24 U0 1.781406 1_545
O25 U1 1.781406 1_555
O26 U2 1.781406 1_555
O27 U3 1.781406 1_565
O28 U0 1.837133 1_455
O28 U1 2.439516 1_555
O29 U1 1.837133 1_555
O29 U0 2.439516 1_555
O30 U2 1.837133 1_555
O30 U3 2.439516 1_555
O31 U3 1.837133 1_655
O31 U2 2.439516 1_555
