# generated using pymatgen
data_Rb2Li14Tb3O14
_symmetry_space_group_name_H-M   'P 1'
_cell_length_a   8.61871515
_cell_length_b   8.61871515
_cell_length_c   8.61871515
_cell_angle_alpha   128.54709815
_cell_angle_beta   123.25657566
_cell_angle_gamma   80.12222594
_symmetry_Int_Tables_number   1
_chemical_formula_structural   Rb2Li14Tb3O14
_chemical_formula_sum   'Rb2 Li14 Tb3 O14'
_cell_volume   404.28197976
_cell_formula_units_Z   1
loop_
 _symmetry_equiv_pos_site_id
 _symmetry_equiv_pos_as_xyz
  1  'x, y, z'
loop_
 _atom_site_type_symbol
 _atom_site_label
 _atom_site_symmetry_multiplicity
 _atom_site_fract_x
 _atom_site_fract_y
 _atom_site_fract_z
 _atom_site_occupancy
  Rb  Rb0  1  0.50000000  0.23481000  0.73481000  1
  Rb  Rb1  1  0.50000000  0.76519000  0.26519000  1
  Li  Li0  1  0.71125200  0.59258600  0.57111800  1
  Li  Li1  1  0.97853200  0.85986600  0.57111800  1
  Li  Li2  1  0.28874800  0.40741400  0.42888200  1
  Li  Li3  1  0.71125200  0.14013400  0.11866600  1
  Li  Li4  1  0.97853200  0.40741400  0.11866600  1
  Li  Li5  1  0.02146800  0.59258600  0.88133400  1
  Li  Li6  1  0.12229600  0.76845900  0.35383700  1
  Li  Li7  1  0.15451800  0.50000000  0.65451800  1
  Li  Li8  1  0.58537900  0.23154100  0.35383700  1
  Li  Li9  1  0.02146800  0.14013400  0.42888200  1
  Li  Li10  1  0.41462100  0.76845900  0.64616300  1
  Li  Li11  1  0.84548200  0.50000000  0.34548200  1
  Li  Li12  1  0.87770400  0.23154100  0.64616300  1
  Li  Li13  1  0.28874800  0.85986600  0.88133400  1
  Tb  Tb0  1  0.00000000  0.00000000  0.00000000  1
  Tb  Tb1  1  0.27043600  0.27043600  0.00000000  1
  Tb  Tb2  1  0.72956400  0.72956400  0.00000000  1
  O  O0  1  0.24836100  0.94994100  0.70158100  1
  O  O1  1  0.00000000  0.70202600  0.70202600  1
  O  O2  1  0.75163900  0.05005900  0.29841900  1
  O  O3  1  0.84796700  0.62747400  0.22049400  1
  O  O4  1  0.15203300  0.37252600  0.77950600  1
  O  O5  1  0.31566300  0.13127800  0.18438500  1
  O  O6  1  0.75163900  0.45322000  0.70158100  1
  O  O7  1  0.68433700  0.86872200  0.81561500  1
  O  O8  1  0.24836100  0.54678000  0.29841900  1
  O  O9  1  0.05310700  0.86872200  0.18438500  1
  O  O10  1  0.40698000  0.62747400  0.77950600  1
  O  O11  1  0.94689300  0.13127800  0.81561500  1
  O  O12  1  0.00000000  0.29797400  0.29797400  1
  O  O13  1  0.59302000  0.37252600  0.22049400  1
loop_
_geom_bond_atom_site_label_1
_geom_bond_atom_site_label_2
_geom_bond_distance
_geom_bond_site_symmetry_2
Li0 O13 1.977399 1_555
Li0 O6 1.984648 1_555
Li0 O7 2.062694 1_555
Li0 O1 2.180695 1_655
Li1 O3 1.977399 1_555
Li1 O0 1.984646 1_655
Li1 O11 2.062694 1_565
Li1 O1 2.180695 1_655
Li2 O10 1.977399 1_555
Li2 O8 1.984648 1_555
Li2 O5 2.062694 1_555
Li2 O12 2.180695 1_555
Li3 O13 1.977399 1_555
Li3 O2 1.984641 1_555
Li3 O7 2.062694 1_544
Li3 O12 2.180695 1_655
Li4 O3 1.977405 1_555
Li4 O8 1.984648 1_655
Li4 O11 2.062694 1_554
Li4 O12 2.180695 1_655
Li5 O4 1.977405 1_555
Li5 O6 1.984648 1_455
Li5 O9 2.062694 1_556
Li5 O1 2.180695 1_555
Li6 O9 1.917338 1_555
Li6 O8 1.943868 1_555
Li6 O0 1.943868 1_555
Li6 O3 2.156973 1_455
Li7 O4 1.968850 1_555
Li7 O10 1.968853 1_555
Li7 O1 1.971528 1_555
Li7 O12 1.971528 1_555
Li8 O5 1.917346 1_555
Li8 O2 1.943857 1_555
Li8 O6 1.943867 1_555
Li8 O13 2.156962 1_555
Li9 O4 1.977399 1_555
Li9 O2 1.984646 1_455
Li9 O9 2.062694 1_545
Li9 O12 2.180695 1_555
Li10 O7 1.917346 1_555
Li10 O0 1.943857 1_555
Li10 O8 1.943867 1_555
Li10 O10 2.156962 1_555
Li11 O3 1.968850 1_555
Li11 O13 1.968853 1_555
Li11 O1 1.971528 1_655
Li11 O12 1.971528 1_655
Li12 O11 1.917338 1_555
Li12 O6 1.943868 1_555
Li12 O2 1.943868 1_555
Li12 O4 2.156973 1_655
Li13 O10 1.977399 1_555
Li13 O0 1.984641 1_555
Li13 O5 2.062694 1_566
Li13 O1 2.180695 1_555
O0 Tb1 2.251789 1_566
O0 Rb0 3.329130 1_565
O1 Tb0 2.229542 1_566
O2 Tb2 2.251789 1_545
O2 Rb1 3.329130 1_545
O3 Tb2 2.252984 1_555
O3 Rb1 3.166596 1_555
O3 Rb0 3.166601 1_554
O4 Tb1 2.252984 1_556
O4 Rb0 3.166596 1_555
O4 Rb1 3.166601 1_556
O5 Tb0 2.297955 1_555
O5 Tb1 2.377289 1_555
O6 Tb2 2.251784 1_556
O6 Rb0 3.329123 1_555
O7 Tb0 2.297955 1_666
O7 Tb2 2.377289 1_556
O8 Tb1 2.251784 1_555
O8 Rb1 3.329123 1_555
O9 Tb0 2.297955 1_565
O9 Tb2 2.377289 1_455
O10 Tb2 2.252983 1_556
O10 Rb0 3.166604 1_555
O10 Rb1 3.166604 1_556
O11 Tb0 2.297955 1_656
O11 Tb1 2.377289 1_656
O12 Tb0 2.229542 1_555
O13 Tb1 2.252983 1_555
O13 Rb0 3.166604 1_554
O13 Rb1 3.166604 1_555
