# generated using pymatgen
data_ZnCdC4(SN)4
_symmetry_space_group_name_H-M   'P 1'
_cell_length_a   8.28244547
_cell_length_b   8.28244547
_cell_length_c   8.28244547
_cell_angle_alpha   94.66887421
_cell_angle_beta   94.66887421
_cell_angle_gamma   146.84622974
_symmetry_Int_Tables_number   1
_chemical_formula_structural   ZnCdC4(SN)4
_chemical_formula_sum   'Zn1 Cd1 C4 S4 N4'
_cell_volume   297.80910812
_cell_formula_units_Z   1
loop_
 _symmetry_equiv_pos_site_id
 _symmetry_equiv_pos_as_xyz
  1  'x, y, z'
loop_
 _atom_site_type_symbol
 _atom_site_label
 _atom_site_symmetry_multiplicity
 _atom_site_fract_x
 _atom_site_fract_y
 _atom_site_fract_z
 _atom_site_occupancy
  Zn  Zn0  1  0.25000000  0.75000000  0.50000000  1
  Cd  Cd0  1  0.00000000  0.00000000  0.00000000  1
  C  C0  1  0.38303700  0.03321100  0.20136700  1
  C  C1  1  0.96678900  0.16815600  0.34982500  1
  C  C2  1  0.81833100  0.61696300  0.65017500  1
  C  C3  1  0.83184400  0.18166900  0.79863300  1
  S  S0  1  0.44771600  0.17281100  0.04220900  1
  S  S1  1  0.82718900  0.86939900  0.27490500  1
  S  S2  1  0.59449400  0.55228400  0.72509500  1
  S  S3  1  0.13060100  0.40550600  0.95779100  1
  N  N0  1  0.34369600  0.93520500  0.31514900  1
  N  N1  1  0.06479500  0.37994300  0.40849100  1
  N  N2  1  0.97145300  0.65630400  0.59150900  1
  N  N3  1  0.62005700  0.02854700  0.68485100  1
loop_
_geom_bond_atom_site_label_1
_geom_bond_atom_site_label_2
_geom_bond_distance
_geom_bond_site_symmetry_2
Cd0 S3 2.596532 1_554
Cd0 S2 2.596534 1_444
Cd0 S1 2.596534 1_445
Cd0 S0 2.596535 1_555
C0 N0 1.176788 1_545
C0 S0 1.639361 1_555
C1 N1 1.176783 1_655
C1 S1 1.639352 1_545
C2 N2 1.176786 1_555
C2 S2 1.639357 1_555
C3 N3 1.176786 1_555
C3 S3 1.639357 1_655
N0 Zn0 1.970223 1_555
N1 Zn0 1.970230 1_555
N2 Zn0 1.970223 1_655
N3 Zn0 1.970227 1_545
