# generated using pymatgen
data_Ba9LiSi10C(ClO4)7
_symmetry_space_group_name_H-M   'P 1'
_cell_length_a   9.56890400
_cell_length_b   11.74482400
_cell_length_c   17.99327100
_cell_angle_alpha   90.00000000
_cell_angle_beta   90.00000000
_cell_angle_gamma   90.00000000
_symmetry_Int_Tables_number   1
_chemical_formula_structural   Ba9LiSi10C(ClO4)7
_chemical_formula_sum   'Ba18 Li2 Si20 C2 Cl14 O56'
_cell_volume   2022.17544106
_cell_formula_units_Z   2
loop_
 _symmetry_equiv_pos_site_id
 _symmetry_equiv_pos_as_xyz
  1  'x, y, z'
loop_
 _atom_site_type_symbol
 _atom_site_label
 _atom_site_symmetry_multiplicity
 _atom_site_fract_x
 _atom_site_fract_y
 _atom_site_fract_z
 _atom_site_occupancy
  Ba  Ba0  1  0.00559600  0.95935400  0.25000000  1
  Ba  Ba1  1  0.60060000  0.54532700  0.39387500  1
  Ba  Ba2  1  0.29261900  0.25000000  0.39002900  1
  Ba  Ba3  1  0.26846100  0.75000000  0.75000000  1
  Ba  Ba4  1  0.60060000  0.95467300  0.39387500  1
  Ba  Ba5  1  0.70738100  0.75000000  0.89002900  1
  Ba  Ba6  1  0.73153900  0.25000000  0.25000000  1
  Ba  Ba7  1  0.70738100  0.75000000  0.60997100  1
  Ba  Ba8  1  0.99440400  0.45935400  0.75000000  1
  Ba  Ba9  1  0.00559600  0.54064600  0.25000000  1
  Ba  Ba10  1  0.39940000  0.45467300  0.60612500  1
  Ba  Ba11  1  0.39940000  0.04532700  0.89387500  1
  Ba  Ba12  1  0.60060000  0.95467300  0.10612500  1
  Ba  Ba13  1  0.29261900  0.25000000  0.10997100  1
  Ba  Ba14  1  0.39940000  0.04532700  0.60612500  1
  Ba  Ba15  1  0.99440400  0.04064600  0.75000000  1
  Ba  Ba16  1  0.39940000  0.45467300  0.89387500  1
  Ba  Ba17  1  0.60060000  0.54532700  0.10612500  1
  Li  Li0  1  0.53964100  0.75000000  0.25000000  1
  Li  Li1  1  0.46035900  0.25000000  0.75000000  1
  Si  Si0  1  0.71572600  0.25000000  0.83799000  1
  Si  Si1  1  0.06870700  0.88514900  0.59123800  1
  Si  Si2  1  0.79768300  0.03352300  0.56553300  1
  Si  Si3  1  0.20231700  0.53352300  0.06553300  1
  Si  Si4  1  0.20231700  0.96647700  0.06553300  1
  Si  Si5  1  0.93129300  0.11485100  0.40876200  1
  Si  Si6  1  0.28427400  0.75000000  0.16201000  1
  Si  Si7  1  0.93129300  0.11485100  0.09123800  1
  Si  Si8  1  0.28427400  0.75000000  0.33799000  1
  Si  Si9  1  0.79768300  0.03352300  0.93446700  1
  Si  Si10  1  0.71572600  0.25000000  0.66201000  1
  Si  Si11  1  0.79768300  0.46647700  0.93446700  1
  Si  Si12  1  0.93129300  0.38514900  0.40876200  1
  Si  Si13  1  0.06870700  0.61485100  0.59123800  1
  Si  Si14  1  0.93129300  0.38514900  0.09123800  1
  Si  Si15  1  0.06870700  0.61485100  0.90876200  1
  Si  Si16  1  0.06870700  0.88514900  0.90876200  1
  Si  Si17  1  0.20231700  0.96647700  0.43446700  1
  Si  Si18  1  0.20231700  0.53352300  0.43446700  1
  Si  Si19  1  0.79768300  0.46647700  0.56553300  1
  C  C0  1  0.77936800  0.75000000  0.25000000  1
  C  C1  1  0.22063200  0.25000000  0.75000000  1
  Cl  Cl0  1  0.54683100  0.91718600  0.75000000  1
  Cl  Cl1  1  0.45316900  0.41718600  0.25000000  1
  Cl  Cl2  1  0.59996100  0.25000000  0.07679000  1
  Cl  Cl3  1  0.21160100  0.25000000  0.94059500  1
  Cl  Cl4  1  0.21160100  0.25000000  0.55940500  1
  Cl  Cl5  1  0.45316900  0.08281400  0.25000000  1
  Cl  Cl6  1  0.54683100  0.58281400  0.75000000  1
  Cl  Cl7  1  0.90108400  0.75000000  0.75000000  1
  Cl  Cl8  1  0.78839900  0.75000000  0.05940500  1
  Cl  Cl9  1  0.40003900  0.75000000  0.92321000  1
  Cl  Cl10  1  0.40003900  0.75000000  0.57679000  1
  Cl  Cl11  1  0.59996100  0.25000000  0.42321000  1
  Cl  Cl12  1  0.09891600  0.25000000  0.25000000  1
  Cl  Cl13  1  0.78839900  0.75000000  0.44059500  1
  O  O0  1  0.13210900  0.92452300  0.51175400  1
  O  O1  1  0.35000500  0.02768300  0.44721100  1
  O  O2  1  0.08906700  0.05658800  0.10434200  1
  O  O3  1  0.20526000  0.86301200  0.12736300  1
  O  O4  1  0.86789100  0.07547700  0.01175400  1
  O  O5  1  0.28898300  0.15357400  0.75000000  1
  O  O6  1  0.45081500  0.75000000  0.34610200  1
  O  O7  1  0.83373500  0.07633100  0.34073300  1
  O  O8  1  0.16626500  0.57633100  0.84073300  1
  O  O9  1  0.91093300  0.55658800  0.60434200  1
  O  O10  1  0.71101700  0.84642600  0.25000000  1
  O  O11  1  0.79474000  0.36301200  0.62736300  1
  O  O12  1  0.96902100  0.25000000  0.41299600  1
  O  O13  1  0.91093300  0.55658800  0.89565800  1
  O  O14  1  0.79474000  0.13698800  0.87263700  1
  O  O15  1  0.64999500  0.52768300  0.94721100  1
  O  O16  1  0.35000500  0.47231700  0.05278900  1
  O  O17  1  0.79474000  0.36301200  0.87263700  1
  O  O18  1  0.64999500  0.52768300  0.55278900  1
  O  O19  1  0.71101700  0.65357400  0.25000000  1
  O  O20  1  0.13210900  0.92452300  0.98824600  1
  O  O21  1  0.20526000  0.63698800  0.37263700  1
  O  O22  1  0.83373500  0.42366900  0.34073300  1
  O  O23  1  0.54918500  0.25000000  0.84610200  1
  O  O24  1  0.08906700  0.44341200  0.39565800  1
  O  O25  1  0.35000500  0.47231700  0.44721100  1
  O  O26  1  0.16626500  0.92366900  0.84073300  1
  O  O27  1  0.03097900  0.75000000  0.58700400  1
  O  O28  1  0.28898300  0.34642600  0.75000000  1
  O  O29  1  0.83373500  0.07633100  0.15926700  1
  O  O30  1  0.45081500  0.75000000  0.15389800  1
  O  O31  1  0.08906700  0.05658800  0.39565800  1
  O  O32  1  0.20526000  0.63698800  0.12736300  1
  O  O33  1  0.86789100  0.42452300  0.01175400  1
  O  O34  1  0.13210900  0.57547700  0.98824600  1
  O  O35  1  0.91093300  0.94341200  0.60434200  1
  O  O36  1  0.64999500  0.97231700  0.55278900  1
  O  O37  1  0.76906900  0.25000000  0.75000000  1
  O  O38  1  0.86789100  0.07547700  0.48824600  1
  O  O39  1  0.64999500  0.97231700  0.94721100  1
  O  O40  1  0.91093300  0.94341200  0.89565800  1
  O  O41  1  0.79474000  0.13698800  0.62736300  1
  O  O42  1  0.96902100  0.25000000  0.08700400  1
  O  O43  1  0.13210900  0.57547700  0.51175400  1
  O  O44  1  0.08557200  0.25000000  0.75000000  1
  O  O45  1  0.83373500  0.42366900  0.15926700  1
  O  O46  1  0.23093100  0.75000000  0.25000000  1
  O  O47  1  0.35000500  0.02768300  0.05278900  1
  O  O48  1  0.20526000  0.86301200  0.37263700  1
  O  O49  1  0.91442800  0.75000000  0.25000000  1
  O  O50  1  0.03097900  0.75000000  0.91299600  1
  O  O51  1  0.16626500  0.92366900  0.65926700  1
  O  O52  1  0.86789100  0.42452300  0.48824600  1
  O  O53  1  0.08906700  0.44341200  0.10434200  1
  O  O54  1  0.54918500  0.25000000  0.65389800  1
  O  O55  1  0.16626500  0.57633100  0.65926700  1
loop_
_geom_bond_atom_site_label_1
_geom_bond_atom_site_label_2
_geom_bond_distance
_geom_bond_site_symmetry_2
Ba0 O49 2.608997 1_455
Ba0 O29 2.693939 1_465
Ba0 O7 2.693939 1_465
Ba0 O2 2.968341 1_565
Ba0 O31 2.968341 1_565
Ba0 O10 3.115244 1_455
Ba0 O48 3.130473 1_555
Ba0 O3 3.130473 1_555
Ba0 O46 3.270331 1_555
Ba0 Cl12 3.528451 1_565
Ba1 O25 2.721454 1_555
Ba1 O22 2.816489 1_555
Ba1 O18 2.905583 1_555
Ba1 O6 2.927742 1_555
Ba1 O19 3.071554 1_555
Ba1 Cl13 3.116808 1_555
Ba1 Cl1 3.310139 1_555
Ba1 O52 3.382032 1_555
Ba1 Cl11 3.508501 1_555
Ba2 O25 2.859696 1_555
Ba2 O1 2.859696 1_555
Ba2 O24 2.994025 1_555
Ba2 O31 2.994025 1_555
Ba2 Cl11 3.000916 1_555
Ba2 O12 3.123932 1_455
Ba2 Cl12 3.127913 1_555
Ba2 Cl4 3.144687 1_555
Ba2 Cl1 3.544583 1_555
Ba2 Cl5 3.544583 1_555
Ba3 O26 2.789632 1_555
Ba3 O51 2.789632 1_555
Ba3 O8 2.789632 1_555
Ba3 O55 2.789632 1_555
Ba3 Cl0 3.309212 1_555
Ba3 Cl6 3.309212 1_555
Ba3 Cl10 3.361326 1_555
Ba3 Cl9 3.361326 1_555
Ba3 Cl7 3.515395 1_455
Ba4 O1 2.721454 1_565
Ba4 O7 2.816489 1_565
Ba4 O36 2.905583 1_555
Ba4 O6 2.927742 1_555
Ba4 O10 3.071554 1_555
Ba4 Cl13 3.116808 1_555
Ba4 Cl5 3.310139 1_565
Ba4 O38 3.382032 1_565
Ba4 Cl11 3.508501 1_565
Ba5 O15 2.859696 1_555
Ba5 O39 2.859696 1_555
Ba5 O13 2.994025 1_555
Ba5 O40 2.994025 1_555
Ba5 Cl9 3.000916 1_555
Ba5 O50 3.123932 1_655
Ba5 Cl7 3.127913 1_555
Ba5 Cl8 3.144687 1_556
Ba5 Cl0 3.544583 1_555
Ba5 Cl6 3.544583 1_555
Ba6 O45 2.789632 1_555
Ba6 O22 2.789632 1_555
Ba6 O29 2.789632 1_555
Ba6 O7 2.789632 1_555
Ba6 Cl1 3.309212 1_555
Ba6 Cl5 3.309212 1_555
Ba6 Cl11 3.361326 1_555
Ba6 Cl2 3.361326 1_555
Ba6 Cl12 3.515395 1_655
Ba7 O36 2.859696 1_555
Ba7 O18 2.859696 1_555
Ba7 O9 2.994025 1_555
Ba7 O35 2.994025 1_555
Ba7 Cl10 3.000916 1_555
Ba7 O27 3.123932 1_655
Ba7 Cl7 3.127913 1_555
Ba7 Cl13 3.144687 1_555
Ba7 Cl0 3.544583 1_555
Ba7 Cl6 3.544583 1_555
Ba8 O44 2.608997 1_655
Ba8 O55 2.693939 1_655
Ba8 O8 2.693939 1_655
Ba8 O9 2.968341 1_555
Ba8 O13 2.968341 1_555
Ba8 O28 3.115244 1_655
Ba8 O17 3.130473 1_555
Ba8 O11 3.130473 1_555
Ba8 O37 3.270331 1_555
Ba8 Cl7 3.528451 1_555
Ba9 O49 2.608997 1_455
Ba9 O22 2.693939 1_455
Ba9 O45 2.693939 1_455
Ba9 O53 2.968341 1_555
Ba9 O24 2.968341 1_555
Ba9 O19 3.115244 1_455
Ba9 O32 3.130473 1_555
Ba9 O21 3.130473 1_555
Ba9 O46 3.270331 1_555
Ba9 Cl12 3.528451 1_555
Ba10 O18 2.721454 1_555
Ba10 O55 2.816489 1_555
Ba10 O25 2.905583 1_555
Ba10 O54 2.927742 1_555
Ba10 O28 3.071554 1_555
Ba10 Cl4 3.116808 1_555
Ba10 Cl6 3.310139 1_555
Ba10 O43 3.382032 1_555
Ba10 Cl10 3.508501 1_555
Ba11 O39 2.721454 1_545
Ba11 O26 2.816489 1_545
Ba11 O47 2.905583 1_556
Ba11 O23 2.927742 1_555
Ba11 O5 3.071554 1_555
Ba11 Cl3 3.116808 1_555
Ba11 Cl0 3.310139 1_545
Ba11 O20 3.382032 1_545
Ba11 Cl9 3.508501 1_545
Ba12 O47 2.721454 1_565
Ba12 O29 2.816489 1_565
Ba12 O39 2.905583 1_554
Ba12 O30 2.927742 1_555
Ba12 O10 3.071554 1_555
Ba12 Cl8 3.116808 1_555
Ba12 Cl5 3.310139 1_565
Ba12 O4 3.382032 1_565
Ba12 Cl2 3.508501 1_565
Ba13 O47 2.859696 1_555
Ba13 O16 2.859696 1_555
Ba13 O2 2.994025 1_555
Ba13 O53 2.994025 1_555
Ba13 Cl2 3.000916 1_555
Ba13 O42 3.123932 1_455
Ba13 Cl12 3.127913 1_555
Ba13 Cl3 3.144687 1_554
Ba13 Cl1 3.544583 1_555
Ba13 Cl5 3.544583 1_555
Ba14 O36 2.721454 1_545
Ba14 O51 2.816489 1_545
Ba14 O1 2.905583 1_555
Ba14 O54 2.927742 1_555
Ba14 O5 3.071554 1_555
Ba14 Cl4 3.116808 1_555
Ba14 Cl0 3.310139 1_545
Ba14 O0 3.382032 1_545
Ba14 Cl10 3.508501 1_545
Ba15 O44 2.608997 1_655
Ba15 O51 2.693939 1_645
Ba15 O26 2.693939 1_645
Ba15 O40 2.968341 1_545
Ba15 O35 2.968341 1_545
Ba15 O5 3.115244 1_655
Ba15 O41 3.130473 1_555
Ba15 O14 3.130473 1_555
Ba15 O37 3.270331 1_555
Ba15 Cl7 3.528451 1_545
Ba16 O15 2.721454 1_555
Ba16 O8 2.816489 1_555
Ba16 O16 2.905583 1_556
Ba16 O23 2.927742 1_555
Ba16 O28 3.071554 1_555
Ba16 Cl3 3.116808 1_555
Ba16 Cl6 3.310139 1_555
Ba16 O34 3.382032 1_555
Ba16 Cl9 3.508501 1_555
Ba17 O16 2.721454 1_555
Ba17 O45 2.816489 1_555
Ba17 O15 2.905583 1_554
Ba17 O30 2.927742 1_555
Ba17 O19 3.071554 1_555
Ba17 Cl8 3.116808 1_555
Ba17 Cl1 3.310139 1_555
Ba17 O33 3.382032 1_555
Ba17 Cl2 3.508501 1_555
Li0 O30 1.926795 1_555
Li0 O6 1.926795 1_555
Li0 O19 1.992932 1_555
Li0 O10 1.992932 1_555
Li1 O54 1.926795 1_555
Li1 O23 1.926795 1_555
Li1 O5 1.992932 1_555
Li1 O28 1.992932 1_555
C0 O49 1.292376 1_555
C0 O19 1.307801 1_555
C0 O10 1.307801 1_555
C1 O44 1.292376 1_555
C1 O28 1.307801 1_555
C1 O5 1.307801 1_555
O0 Si1 1.620903 1_555
O0 Si17 1.621118 1_555
O1 Si17 1.602030 1_545
O2 Si4 1.667951 1_545
O2 Si7 1.674250 1_455
O3 Si4 1.647774 1_555
O3 Si6 1.649860 1_555
O4 Si7 1.620903 1_555
O4 Si9 1.621118 1_554
O6 Si8 1.600285 1_555
O7 Si5 1.604517 1_555
O8 Si15 1.604517 1_555
O9 Si19 1.667951 1_555
O9 Si13 1.674250 1_655
O11 Si19 1.647774 1_555
O11 Si10 1.649860 1_555
O12 Si5 1.629620 1_555
O12 Si12 1.629620 1_555
O13 Si11 1.667951 1_555
O13 Si15 1.674250 1_655
O14 Si9 1.647774 1_555
O14 Si0 1.649860 1_555
O15 Si11 1.602030 1_555
O16 Si3 1.602030 1_555
O17 Si11 1.647774 1_555
O17 Si0 1.649860 1_555
O18 Si19 1.602030 1_555
O20 Si16 1.620903 1_555
O20 Si4 1.621118 1_556
O21 Si18 1.647774 1_555
O21 Si8 1.649860 1_555
O22 Si12 1.604517 1_555
O23 Si0 1.600285 1_555
O24 Si18 1.667951 1_555
O24 Si12 1.674250 1_455
O25 Si18 1.602030 1_555
O26 Si16 1.604517 1_555
O27 Si13 1.629620 1_555
O27 Si1 1.629620 1_555
O29 Si7 1.604517 1_555
O30 Si6 1.600285 1_555
O31 Si17 1.667951 1_545
O31 Si5 1.674250 1_455
O32 Si3 1.647774 1_555
O32 Si6 1.649860 1_555
O33 Si14 1.620903 1_555
O33 Si11 1.621118 1_554
O34 Si15 1.620903 1_555
O34 Si3 1.621118 1_556
O35 Si2 1.667951 1_565
O35 Si1 1.674250 1_655
O36 Si2 1.602030 1_565
O37 Si0 1.663476 1_555
O37 Si10 1.663476 1_555
O38 Si5 1.620903 1_555
O38 Si2 1.621118 1_555
O39 Si9 1.602030 1_565
O40 Si9 1.667951 1_565
O40 Si16 1.674250 1_655
O41 Si2 1.647774 1_555
O41 Si10 1.649860 1_555
O42 Si7 1.629620 1_555
O42 Si14 1.629620 1_555
O43 Si13 1.620903 1_555
O43 Si18 1.621118 1_555
O45 Si14 1.604517 1_555
O46 Si8 1.663476 1_555
O46 Si6 1.663476 1_555
O47 Si4 1.602030 1_545
O48 Si17 1.647774 1_555
O48 Si8 1.649860 1_555
O50 Si15 1.629620 1_555
O50 Si16 1.629620 1_555
O51 Si1 1.604517 1_555
O52 Si12 1.620903 1_555
O52 Si19 1.621118 1_555
O53 Si3 1.667951 1_555
O53 Si14 1.674250 1_455
O54 Si10 1.600285 1_555
O55 Si13 1.604517 1_555
