# generated using pymatgen
data_Gd3Se4O12F
_symmetry_space_group_name_H-M   'P 1'
_cell_length_a   10.45715244
_cell_length_b   10.45715244
_cell_length_c   6.90766669
_cell_angle_alpha   90.00000000
_cell_angle_beta   90.00000000
_cell_angle_gamma   120.00000150
_symmetry_Int_Tables_number   1
_chemical_formula_structural   Gd3Se4O12F
_chemical_formula_sum   'Gd6 Se8 O24 F2'
_cell_volume   654.16736857
_cell_formula_units_Z   2
loop_
 _symmetry_equiv_pos_site_id
 _symmetry_equiv_pos_as_xyz
  1  'x, y, z'
loop_
 _atom_site_type_symbol
 _atom_site_label
 _atom_site_symmetry_multiplicity
 _atom_site_fract_x
 _atom_site_fract_y
 _atom_site_fract_z
 _atom_site_occupancy
  Gd  Gd0  1  0.07523954  0.53762027  0.41617784  1
  Gd  Gd1  1  0.53762027  0.46237973  0.91617784  1
  Gd  Gd2  1  0.53762027  0.07523954  0.91617784  1
  Gd  Gd3  1  0.92476046  0.46237973  0.91617784  1
  Gd  Gd4  1  0.46237973  0.53762027  0.41617784  1
  Gd  Gd5  1  0.46237973  0.92476046  0.41617784  1
  Se  Se0  1  0.69000206  0.84500103  0.64768269  1
  Se  Se1  1  0.30999794  0.15499897  0.14768269  1
  Se  Se2  1  0.33333300  0.66666700  0.98161872  1
  Se  Se3  1  0.84500103  0.15499897  0.14768269  1
  Se  Se4  1  0.15499897  0.30999794  0.64768269  1
  Se  Se5  1  0.15499897  0.84500103  0.64768269  1
  Se  Se6  1  0.66666700  0.33333300  0.48161872  1
  Se  Se7  1  0.84500103  0.69000206  0.14768269  1
  O  O0  1  0.91804393  0.33355562  0.21950090  1
  O  O1  1  0.58206084  0.41793916  0.59348216  1
  O  O2  1  0.58448830  0.91804393  0.71950090  1
  O  O3  1  0.63488980  0.81744440  0.41155054  1
  O  O4  1  0.66644438  0.08195607  0.21950090  1
  O  O5  1  0.33355562  0.91804393  0.71950090  1
  O  O6  1  0.41551170  0.08195607  0.21950090  1
  O  O7  1  0.81744440  0.63488980  0.91155054  1
  O  O8  1  0.66644438  0.58448830  0.21950090  1
  O  O9  1  0.18255560  0.81744440  0.41155054  1
  O  O10  1  0.08195607  0.41551170  0.71950090  1
  O  O11  1  0.41793916  0.58206084  0.09348216  1
  O  O12  1  0.58206084  0.16412167  0.59348216  1
  O  O13  1  0.81744440  0.18255560  0.91155054  1
  O  O14  1  0.33355562  0.41551170  0.71950090  1
  O  O15  1  0.36511020  0.18255560  0.91155054  1
  O  O16  1  0.41793916  0.83587833  0.09348216  1
  O  O17  1  0.08195607  0.66644438  0.71950090  1
  O  O18  1  0.41551170  0.33355562  0.21950090  1
  O  O19  1  0.16412167  0.58206084  0.09348216  1
  O  O20  1  0.58448830  0.66644438  0.71950090  1
  O  O21  1  0.18255560  0.36511020  0.41155054  1
  O  O22  1  0.83587833  0.41793916  0.59348216  1
  O  O23  1  0.91804393  0.58448830  0.21950090  1
  F  F0  1  0.33333300  0.66666700  0.46382419  1
  F  F1  1  0.66666700  0.33333300  0.96382419  1
loop_
_geom_bond_atom_site_label_1
_geom_bond_atom_site_label_2
_geom_bond_distance
_geom_bond_site_symmetry_2
Gd0 O23 2.365106 1_455
Gd0 O0 2.365112 1_455
Gd0 O19 2.369955 1_555
Gd0 O17 2.472888 1_555
Gd0 O10 2.472894 1_555
Gd0 O22 2.489765 1_455
Gd0 O9 2.557153 1_555
Gd0 O21 2.557173 1_555
Gd1 O20 2.365114 1_555
Gd1 O14 2.365114 1_555
Gd1 O1 2.369952 1_555
Gd1 O8 2.472891 1_556
Gd1 O18 2.472891 1_556
Gd1 O11 2.489773 1_556
Gd1 O15 2.557156 1_555
Gd1 O7 2.557156 1_555
Gd2 O2 2.365106 1_545
Gd2 O5 2.365112 1_545
Gd2 O12 2.369955 1_555
Gd2 O4 2.472888 1_556
Gd2 O6 2.472894 1_556
Gd2 O16 2.489765 1_546
Gd2 O13 2.557153 1_555
Gd2 O15 2.557173 1_555
Gd3 O10 2.365106 1_655
Gd3 O17 2.365112 1_655
Gd3 O22 2.369955 1_555
Gd3 O0 2.472888 1_556
Gd3 O23 2.472894 1_556
Gd3 O19 2.489765 1_656
Gd3 O13 2.557153 1_555
Gd3 O7 2.557173 1_555
Gd4 O8 2.365114 1_555
Gd4 O18 2.365114 1_555
Gd4 O11 2.369952 1_555
Gd4 O20 2.472891 1_555
Gd4 O14 2.472891 1_555
Gd4 O1 2.489773 1_555
Gd4 O21 2.557156 1_555
Gd4 O3 2.557156 1_555
Gd5 O6 2.365106 1_565
Gd5 O4 2.365112 1_565
Gd5 O16 2.369955 1_555
Gd5 O5 2.472888 1_555
Gd5 O2 2.472894 1_555
Gd5 O12 2.489765 1_565
Gd5 O9 2.557153 1_555
Gd5 O3 2.557173 1_555
O0 Se3 1.699925 1_555
O1 Se6 1.716211 1_555
O2 Se0 1.699925 1_555
O3 Se0 1.705774 1_555
O4 Se3 1.699925 1_555
O5 Se5 1.699925 1_555
O6 Se1 1.699925 1_555
O7 Se7 1.705774 1_556
O8 Se7 1.699925 1_555
O9 Se5 1.705777 1_555
O10 Se4 1.699925 1_555
O11 Se2 1.716211 1_554
O12 Se6 1.716203 1_555
O13 Se3 1.705777 1_556
O14 Se4 1.699925 1_555
O15 Se1 1.705774 1_556
O16 Se2 1.716203 1_554
O17 Se5 1.699925 1_555
O18 Se1 1.699925 1_555
O19 Se2 1.716203 1_554
O20 Se0 1.699925 1_555
O21 Se4 1.705774 1_555
O22 Se6 1.716203 1_555
O23 Se7 1.699925 1_555
F0 Gd5 2.360394 1_555
F0 Gd0 2.360394 1_555
F0 Gd4 2.360394 1_555
F1 Gd3 2.360394 1_555
F1 Gd2 2.360394 1_555
F1 Gd1 2.360394 1_555
