# generated using pymatgen
data_MnH10SO9
_symmetry_space_group_name_H-M   'P 1'
_cell_length_a   6.17986400
_cell_length_b   6.33266860
_cell_length_c   10.96004170
_cell_angle_alpha   75.46148197
_cell_angle_beta   81.58809454
_cell_angle_gamma   70.04753956
_symmetry_Int_Tables_number   1
_chemical_formula_structural   MnH10SO9
_chemical_formula_sum   'Mn2 H20 S2 O18'
_cell_volume   389.39864086
_cell_formula_units_Z   2
loop_
 _symmetry_equiv_pos_site_id
 _symmetry_equiv_pos_as_xyz
  1  'x, y, z'
loop_
 _atom_site_type_symbol
 _atom_site_label
 _atom_site_symmetry_multiplicity
 _atom_site_fract_x
 _atom_site_fract_y
 _atom_site_fract_z
 _atom_site_occupancy
  Mn  Mn0  1  0.00000000  0.00000000  0.00000000  1
  Mn  Mn1  1  0.00000000  0.50000000  0.50000000  1
  H  H0  1  0.72947100  0.89809000  0.85218500  1
  H  H1  1  0.27052900  0.10191000  0.14781500  1
  H  H2  1  0.76477200  0.70922300  0.98243200  1
  H  H3  1  0.23522800  0.29077700  0.01756800  1
  H  H4  1  0.63934900  0.36059900  0.87213500  1
  H  H5  1  0.36065100  0.63940100  0.12786500  1
  H  H6  1  0.87950800  0.34407600  0.79262000  1
  H  H7  1  0.12049200  0.65592400  0.20738000  1
  H  H8  1  0.62128900  0.33741900  0.62854000  1
  H  H9  1  0.37871100  0.66258100  0.37146000  1
  H  H10  1  0.54449400  0.61283400  0.61336900  1
  H  H11  1  0.45550600  0.38716600  0.38663100  1
  H  H12  1  0.81874900  0.87247000  0.62547700  1
  H  H13  1  0.18125100  0.12753000  0.37452300  1
  H  H14  1  0.09208900  0.82444200  0.60572000  1
  H  H15  1  0.90791100  0.17555800  0.39428000  1
  H  H16  1  0.28613100  0.61364400  0.86793700  1
  H  H17  1  0.71386900  0.38635600  0.13206300  1
  H  H18  1  0.26946200  0.41933500  0.80773100  1
  H  H19  1  0.73053800  0.58066500  0.19226900  1
  S  S0  1  0.34316600  0.02573600  0.71426500  1
  S  S1  1  0.65683400  0.97426400  0.28573500  1
  O  O0  1  0.28578700  0.91940700  0.84788600  1
  O  O1  1  0.71421300  0.08059300  0.15211400  1
  O  O2  1  0.17269800  0.26228200  0.67950100  1
  O  O3  1  0.82730200  0.73771800  0.32049900  1
  O  O4  1  0.33767900  0.87916200  0.62884300  1
  O  O5  1  0.66232100  0.12083800  0.37115700  1
  O  O6  1  0.57931300  0.04838400  0.70474600  1
  O  O7  1  0.42068700  0.95161600  0.29525400  1
  O  O8  1  0.83410400  0.81667300  0.92101600  1
  O  O9  1  0.16589600  0.18332700  0.07898400  1
  O  O10  1  0.80846600  0.32082200  0.87893200  1
  O  O11  1  0.19153400  0.67917800  0.12106800  1
  O  O12  1  0.67405500  0.47357000  0.60071400  1
  O  O13  1  0.32594500  0.52643000  0.39928600  1
  O  O14  1  0.96520000  0.77023500  0.59391900  1
  O  O15  1  0.03480000  0.22976500  0.40608100  1
  O  O16  1  0.33971800  0.44530800  0.87504300  1
  O  O17  1  0.66028200  0.55469200  0.12495700  1
loop_
_geom_bond_atom_site_label_1
_geom_bond_atom_site_label_2
_geom_bond_distance
_geom_bond_site_symmetry_2
Mn0 O9 2.173657 1_555
Mn0 O8 2.173657 1_444
Mn0 O11 2.180413 1_545
Mn0 O10 2.180413 1_454
Mn0 O1 2.260463 1_455
Mn0 O0 2.260463 1_544
Mn1 O14 2.145428 1_455
Mn1 O15 2.145428 1_555
Mn1 O12 2.188755 1_455
Mn1 O13 2.188755 1_555
Mn1 O2 2.303594 1_555
Mn1 O3 2.303594 1_455
H0 O8 0.986387 1_555
H1 O9 0.986387 1_555
H2 O8 0.992127 1_555
H3 O9 0.992127 1_555
H4 O10 0.997479 1_555
H5 O11 0.997479 1_555
H6 O10 0.980810 1_555
H7 O11 0.980810 1_555
H8 O12 0.986660 1_555
H9 O13 0.986660 1_555
H10 O12 0.992515 1_555
H11 O13 0.992515 1_555
H12 O14 0.989362 1_555
H13 O15 0.989362 1_555
H14 O14 0.992544 1_455
H15 O15 0.992544 1_655
H16 O16 0.988461 1_555
H17 O17 0.988461 1_555
H18 O16 0.981426 1_555
H19 O17 0.981426 1_555
O0 S0 1.496595 1_565
O1 S1 1.496595 1_545
O2 S0 1.500921 1_555
O3 S1 1.500921 1_555
O4 S0 1.485363 1_565
O5 S1 1.485363 1_545
O6 S0 1.500654 1_555
O7 S1 1.500654 1_555
