# generated using pymatgen
data_Tm3(CuGe)4
_symmetry_space_group_name_H-M   'P 1'
_cell_length_a   4.12482572
_cell_length_b   6.57155033
_cell_length_c   7.86453033
_cell_angle_alpha   114.68165629
_cell_angle_beta   105.21518773
_cell_angle_gamma   89.99452333
_symmetry_Int_Tables_number   1
_chemical_formula_structural   Tm3(CuGe)4
_chemical_formula_sum   'Tm3 Cu4 Ge4'
_cell_volume   185.45103057
_cell_formula_units_Z   1
loop_
 _symmetry_equiv_pos_site_id
 _symmetry_equiv_pos_as_xyz
  1  'x, y, z'
loop_
 _atom_site_type_symbol
 _atom_site_label
 _atom_site_symmetry_multiplicity
 _atom_site_fract_x
 _atom_site_fract_y
 _atom_site_fract_z
 _atom_site_occupancy
  Tm  Tm0  1  0.13012655  0.13008430  0.25983149  1
  Tm  Tm1  1  0.86987345  0.86991570  0.74016851  1
  Tm  Tm2  1  0.00000000  0.50000000  0.00000000  1
  Cu  Cu0  1  0.67206933  0.47940236  0.33969752  1
  Cu  Cu1  1  0.67184889  0.86075898  0.34075406  1
  Cu  Cu2  1  0.32815111  0.13924102  0.65924594  1
  Cu  Cu3  1  0.32793067  0.52059764  0.66030248  1
  Ge  Ge0  1  0.78200788  0.28356336  0.56643561  1
  Ge  Ge1  1  0.21799212  0.71643664  0.43356439  1
  Ge  Ge2  1  0.49982950  0.19195725  0.99965797  1
  Ge  Ge3  1  0.50017050  0.80804275  0.00034203  1
loop_
_geom_bond_atom_site_label_1
_geom_bond_atom_site_label_2
_geom_bond_distance
_geom_bond_site_symmetry_2
Cu0 Ge2 2.451269 1_554
Cu0 Ge1 2.491963 1_655
Cu0 Ge1 2.498855 1_555
Cu0 Cu1 2.502647 1_555
Cu0 Ge0 2.556115 1_555
Cu0 Tm0 2.941409 1_655
Cu0 Tm0 2.953140 1_555
Cu0 Tm1 3.012039 1_555
Cu1 Ge3 2.453398 1_555
Cu1 Ge1 2.494352 1_655
Cu1 Ge1 2.496532 1_555
Cu1 Ge0 2.556368 1_565
Cu1 Tm0 2.946798 1_665
Cu1 Tm0 2.953653 1_565
Cu1 Tm1 3.005559 1_555
Cu2 Ge2 2.453398 1_555
Cu2 Ge0 2.494352 1_455
Cu2 Ge0 2.496532 1_555
Cu2 Cu3 2.502647 1_555
Cu2 Ge1 2.556368 1_545
Cu2 Tm1 2.946798 1_445
Cu2 Tm1 2.953653 1_545
Cu2 Tm0 3.005559 1_555
Cu3 Ge3 2.451269 1_556
Cu3 Ge0 2.491963 1_455
Cu3 Ge0 2.498855 1_555
Cu3 Ge1 2.556115 1_555
Cu3 Tm1 2.941409 1_455
Cu3 Tm1 2.953140 1_555
Cu3 Tm0 3.012039 1_555
Ge0 Tm0 2.937337 1_555
Ge0 Tm0 2.946104 1_655
Ge0 Tm2 2.966265 1_656
Ge1 Tm1 2.937337 1_555
Ge1 Tm1 2.946104 1_455
Ge1 Tm2 2.966265 1_555
Ge2 Ge3 2.525164 1_546
Ge2 Tm2 2.888959 1_556
Ge2 Tm2 2.889231 1_656
Ge2 Tm1 3.000124 1_545
Ge2 Tm1 3.001032 1_445
Ge2 Tm0 3.001711 1_556
Ge2 Tm0 3.002280 1_656
Ge3 Tm2 2.888959 1_655
Ge3 Tm2 2.889231 1_555
Ge3 Tm0 3.000124 1_565
Ge3 Tm0 3.001032 1_665
Ge3 Tm1 3.001711 1_554
Ge3 Tm1 3.002280 1_454
