# generated using pymatgen
data_CdI2
_symmetry_space_group_name_H-M   'P 1'
_cell_length_a   4.28316740
_cell_length_b   4.28316855
_cell_length_c   57.35720557
_cell_angle_alpha   90.00000000
_cell_angle_beta   90.00000000
_cell_angle_gamma   119.99999913
_symmetry_Int_Tables_number   1
_chemical_formula_structural   CdI2
_chemical_formula_sum   'Cd8 I16'
_cell_volume   911.27369329
_cell_formula_units_Z   8
loop_
 _symmetry_equiv_pos_site_id
 _symmetry_equiv_pos_as_xyz
  1  'x, y, z'
loop_
 _atom_site_type_symbol
 _atom_site_label
 _atom_site_symmetry_multiplicity
 _atom_site_fract_x
 _atom_site_fract_y
 _atom_site_fract_z
 _atom_site_occupancy
  Cd  Cd0  1  0.33333300  0.66666700  0.65628606  1
  Cd  Cd1  1  0.00000000  -0.00000000  0.78124266  1
  Cd  Cd2  1  0.33333300  0.66666700  0.90624390  1
  Cd  Cd3  1  0.66666700  0.33333300  0.03123929  1
  Cd  Cd4  1  0.33333300  0.66666700  0.40626639  1
  Cd  Cd5  1  0.33333300  0.66666700  0.53125766  1
  Cd  Cd6  1  0.66666700  0.33333300  0.28124033  1
  Cd  Cd7  1  0.33333300  0.66666700  0.15621240  1
  I  I0  1  0.33333300  0.66666700  0.75120417  1
  I  I1  1  -0.00000000  -0.00000000  0.62620134  1
  I  I2  1  0.66666700  0.33333300  0.18629675  1
  I  I3  1  0.00000000  -0.00000000  0.25119881  1
  I  I4  1  0.66666700  0.33333300  0.43630271  1
  I  I5  1  0.33333300  0.66666700  0.31130250  1
  I  I6  1  0.33333300  0.66666700  0.06129646  1
  I  I7  1  0.00000000  -0.00000000  0.12619424  1
  I  I8  1  0.66666700  0.33333300  0.68630759  1
  I  I9  1  0.66666700  0.33333300  0.81130667  1
  I  I10  1  0.00000000  -0.00000000  0.87619176  1
  I  I11  1  0.66666700  0.33333300  0.56130390  1
  I  I12  1  0.00000000  -0.00000000  0.37619496  1
  I  I13  1  0.66666700  0.33333300  0.93630880  1
  I  I14  1  0.00000000  -0.00000000  0.00120542  1
  I  I15  1  0.00000000  -0.00000000  0.50119422  1
loop_
_geom_bond_atom_site_label_1
_geom_bond_atom_site_label_2
_geom_bond_distance
_geom_bond_site_symmetry_2
Cd0 I8 3.013350 1_455
Cd0 I8 3.013350 1_565
Cd0 I8 3.013356 1_555
Cd0 I1 3.015423 1_565
Cd0 I1 3.015426 1_665
Cd0 I1 3.015426 1_555
Cd1 I0 3.013906 1_545
Cd1 I0 3.013909 1_445
Cd1 I0 3.013909 1_555
Cd1 I9 3.014743 1_455
Cd1 I9 3.014746 1_555
Cd1 I9 3.014746 1_445
Cd2 I10 3.014354 1_565
Cd2 I10 3.014357 1_665
Cd2 I10 3.014357 1_555
Cd2 I13 3.014772 1_455
Cd2 I13 3.014773 1_565
Cd2 I13 3.014778 1_555
Cd3 I14 3.013755 1_655
Cd3 I14 3.013757 1_555
Cd3 I14 3.013758 1_665
Cd3 I6 3.014519 1_655
Cd3 I6 3.014519 1_545
Cd3 I6 3.014525 1_555
Cd4 I4 3.013835 1_455
Cd4 I4 3.013835 1_565
Cd4 I4 3.013841 1_555
Cd4 I12 3.014987 1_565
Cd4 I12 3.014989 1_665
Cd4 I12 3.014990 1_555
Cd5 I11 3.014160 1_455
Cd5 I11 3.014161 1_565
Cd5 I11 3.014166 1_555
Cd5 I15 3.014724 1_565
Cd5 I15 3.014727 1_665
Cd5 I15 3.014728 1_555
Cd6 I3 3.014005 1_655
Cd6 I3 3.014008 1_555
Cd6 I3 3.014009 1_665
Cd6 I5 3.014683 1_655
Cd6 I5 3.014683 1_545
Cd6 I5 3.014689 1_555
Cd7 I7 3.013240 1_565
Cd7 I7 3.013243 1_665
Cd7 I7 3.013243 1_555
Cd7 I2 3.015410 1_455
Cd7 I2 3.015411 1_565
Cd7 I2 3.015417 1_555
