# generated using pymatgen
data_Ce2Ga12Ni
_symmetry_space_group_name_H-M   'P 1'
_cell_length_a   6.00782890
_cell_length_b   6.00782890
_cell_length_c   15.35249508
_cell_angle_alpha   90.00000000
_cell_angle_beta   90.00000000
_cell_angle_gamma   90.00124704
_symmetry_Int_Tables_number   1
_chemical_formula_structural   Ce2Ga12Ni
_chemical_formula_sum   'Ce4 Ga24 Ni2'
_cell_volume   554.13308158
_cell_formula_units_Z   2
loop_
 _symmetry_equiv_pos_site_id
 _symmetry_equiv_pos_as_xyz
  1  'x, y, z'
loop_
 _atom_site_type_symbol
 _atom_site_label
 _atom_site_symmetry_multiplicity
 _atom_site_fract_x
 _atom_site_fract_y
 _atom_site_fract_z
 _atom_site_occupancy
  Ce  Ce0  1  -0.00000000  0.50000000  0.75642397  1
  Ce  Ce1  1  -0.00000000  0.50000000  0.24359344  1
  Ce  Ce2  1  0.50000000  0.00000000  0.24358831  1
  Ce  Ce3  1  0.50000000  0.00000000  0.75642022  1
  Ga  Ga0  1  0.67372927  0.17372927  0.42891486  1
  Ga  Ga1  1  0.17371677  0.67371677  0.57108064  1
  Ga  Ga2  1  -0.00000000  0.00000000  0.34067460  1
  Ga  Ga3  1  0.74968420  0.75031580  0.08338867  1
  Ga  Ga4  1  0.74948180  0.24948180  0.91665373  1
  Ga  Ga5  1  0.75033719  0.25033719  0.08339219  1
  Ga  Ga6  1  0.24949354  0.25050646  0.91665927  1
  Ga  Ga7  1  0.50000000  0.50000000  0.81815203  1
  Ga  Ga8  1  0.82628323  0.32628323  0.57108064  1
  Ga  Ga9  1  0.25051820  0.75051820  0.91665373  1
  Ga  Ga10  1  -0.00000000  0.00000000  0.81815203  1
  Ga  Ga11  1  0.82626773  0.67373227  0.42891013  1
  Ga  Ga12  1  0.32627073  0.82627073  0.42891486  1
  Ga  Ga13  1  0.50000000  0.50000000  0.34067460  1
  Ga  Ga14  1  0.50000000  0.50000000  0.18186060  1
  Ga  Ga15  1  0.24966281  0.74966281  0.08339219  1
  Ga  Ga16  1  0.67372371  0.82627629  0.57108327  1
  Ga  Ga17  1  0.75050646  0.74949354  0.91665927  1
  Ga  Ga18  1  0.32627629  0.17372371  0.57108327  1
  Ga  Ga19  1  0.25031580  0.24968420  0.08338867  1
  Ga  Ga20  1  0.50000000  0.50000000  0.65922985  1
  Ga  Ga21  1  0.17373227  0.32626773  0.42891013  1
  Ga  Ga22  1  -0.00000000  0.00000000  0.18186060  1
  Ga  Ga23  1  -0.00000000  0.00000000  0.65922985  1
  Ni  Ni0  1  -0.00000000  0.50000000  0.99996924  1
  Ni  Ni1  1  0.50000000  0.00000000  0.00000617  1
loop_
_geom_bond_atom_site_label_1
_geom_bond_atom_site_label_2
_geom_bond_distance
_geom_bond_site_symmetry_2
Ce0 Ga10 3.149857 1_555
Ce0 Ga7 3.149857 1_455
Ce0 Ga10 3.149857 1_565
Ce0 Ga7 3.149857 1_555
Ce0 Ga1 3.205492 1_555
Ce0 Ga8 3.205492 1_455
Ce0 Ga6 3.247344 1_555
Ce0 Ga17 3.247344 1_455
Ce0 Ga9 3.252939 1_555
Ce0 Ga4 3.252939 1_455
Ce0 Ga23 3.354114 1_565
Ce0 Ga23 3.354114 1_555
Ce0 Ga20 3.354114 1_455
Ce0 Ga20 3.354114 1_555
Ce1 Ga14 3.149879 1_455
Ce1 Ga22 3.149879 1_565
Ce1 Ga14 3.149879 1_555
Ce1 Ga22 3.149879 1_555
Ce1 Ga21 3.205204 1_555
Ce1 Ga11 3.205204 1_455
Ce1 Ga15 3.247857 1_555
Ce1 Ga5 3.247857 1_455
Ce1 Ga19 3.251554 1_555
Ce1 Ga3 3.251554 1_455
Ce1 Ga2 3.353343 1_555
Ce1 Ga2 3.353343 1_565
Ce1 Ga13 3.353343 1_555
Ce1 Ga13 3.353343 1_455
Ce2 Ga22 3.149855 1_555
Ce2 Ga14 3.149855 1_555
Ce2 Ga14 3.149855 1_545
Ce2 Ga22 3.149855 1_655
Ce2 Ga12 3.205312 1_545
Ce2 Ga0 3.205312 1_555
Ce2 Ga3 3.247987 1_545
Ce2 Ga19 3.247987 1_555
Ce2 Ga5 3.251543 1_555
Ce2 Ga15 3.251543 1_545
Ce2 Ga2 3.353378 1_555
Ce2 Ga2 3.353378 1_655
Ce2 Ga13 3.353378 1_545
Ce2 Ga13 3.353378 1_555
Ce3 Ga7 3.149874 1_545
Ce3 Ga10 3.149874 1_555
Ce3 Ga10 3.149874 1_655
Ce3 Ga7 3.149874 1_555
Ce3 Ga18 3.205447 1_555
Ce3 Ga16 3.205447 1_545
Ce3 Ga4 3.247228 1_555
Ce3 Ga9 3.247228 1_545
Ce3 Ga17 3.253012 1_545
Ce3 Ga6 3.253012 1_555
Ce3 Ga20 3.354088 1_555
Ce3 Ga20 3.354088 1_545
Ce3 Ga23 3.354088 1_555
Ce3 Ga23 3.354088 1_655
Ga0 Ga8 2.538447 1_555
Ga0 Ga2 2.601347 1_655
Ga0 Ga13 2.601347 1_555
Ga1 Ga12 2.538447 1_555
Ga1 Ga23 2.600646 1_565
Ga1 Ga20 2.600646 1_555
Ga2 Ga22 2.438191 1_555
Ga2 Ga21 2.601269 1_555
Ga3 Ni1 2.477739 1_565
Ga3 Ni0 2.482627 1_654
Ga4 Ni1 2.475988 1_556
Ga4 Ni0 2.483239 1_655
Ga4 Ga5 2.559862 1_556
Ga4 Ga7 2.607443 1_555
Ga5 Ni0 2.477864 1_654
Ga5 Ni1 2.482479 1_555
Ga6 Ni0 2.475776 1_555
Ga6 Ni1 2.483441 1_556
Ga6 Ga7 2.607455 1_555
Ga7 Ga9 2.607443 1_555
Ga9 Ni1 2.475988 1_566
Ga9 Ni0 2.483239 1_555
Ga10 Ga23 2.439852 1_555
Ga10 Ga4 2.607443 1_455
Ga10 Ga9 2.607443 1_545
Ga10 Ga17 2.607455 1_445
Ga10 Ga6 2.607455 1_555
Ga11 Ga16 2.538516 1_555
Ga11 Ga2 2.601269 1_665
Ga11 Ga13 2.601269 1_555
Ga12 Ga2 2.601347 1_565
Ga12 Ga13 2.601347 1_555
Ga13 Ga14 2.438191 1_555
Ga13 Ga21 2.601269 1_555
Ga14 Ga3 2.607138 1_555
Ga14 Ga19 2.607138 1_555
Ga14 Ga5 2.607145 1_555
Ga14 Ga15 2.607145 1_555
Ga15 Ni0 2.477864 1_554
Ga15 Ni1 2.482479 1_565
Ga15 Ga9 2.559862 1_554
Ga15 Ga22 2.607145 1_565
Ga16 Ga20 2.600576 1_555
Ga16 Ga23 2.600576 1_665
Ga17 Ni0 2.475776 1_655
Ga17 Ni1 2.483441 1_566
Ga17 Ga3 2.559722 1_556
Ga17 Ga7 2.607455 1_555
Ga18 Ga21 2.538516 1_555
Ga18 Ga20 2.600576 1_555
Ga18 Ga23 2.600576 1_555
Ga19 Ni1 2.477739 1_555
Ga19 Ni0 2.482627 1_554
Ga19 Ga6 2.559722 1_554
Ga19 Ga22 2.607138 1_555
Ga20 Ga7 2.439852 1_555
Ga20 Ga8 2.600646 1_555
Ga22 Ga3 2.607138 1_445
Ga22 Ga5 2.607145 1_455
Ga23 Ga8 2.600646 1_455
