# generated using pymatgen
data_Li2UBr6
_symmetry_space_group_name_H-M   'P 1'
_cell_length_a   6.96711062
_cell_length_b   6.96711029
_cell_length_c   41.24561583
_cell_angle_alpha   90.00000000
_cell_angle_beta   90.00000000
_cell_angle_gamma   120.00000155
_symmetry_Int_Tables_number   1
_chemical_formula_structural   Li2UBr6
_chemical_formula_sum   'Li12 U6 Br36'
_cell_volume   1733.85912739
_cell_formula_units_Z   6
loop_
 _symmetry_equiv_pos_site_id
 _symmetry_equiv_pos_as_xyz
  1  'x, y, z'
loop_
 _atom_site_type_symbol
 _atom_site_label
 _atom_site_symmetry_multiplicity
 _atom_site_fract_x
 _atom_site_fract_y
 _atom_site_fract_z
 _atom_site_occupancy
  Br  Br0  1  1.00008601  0.66728089  0.28778084  1
  Br  Br1  1  0.99916053  0.66595011  0.62114417  1
  Br  Br2  1  -0.00043961  0.66599447  0.95445521  1
  Br  Br3  1  0.33271911  -0.00008601  0.21221916  1
  Br  Br4  1  0.33400553  1.00043961  0.54554479  1
  Br  Br5  1  0.33404989  0.00083947  0.87885583  1
  Br  Br6  1  1.00008601  0.33280512  0.21221916  1
  Br  Br7  1  -0.00043961  0.33356592  0.54554479  1
  Br  Br8  1  0.99916053  0.33321042  0.87885583  1
  Br  Br9  1  0.33271911  0.33280512  0.28778084  1
  Br  Br10  1  0.33404989  0.33321042  0.62114417  1
  Br  Br11  1  0.33400553  0.33356592  0.95445521  1
  Br  Br12  1  0.33321042  0.33404989  0.12114417  1
  Br  Br13  1  0.33356592  0.33400553  0.45445521  1
  Br  Br14  1  0.33280512  0.33271911  0.78778084  1
  Br  Br15  1  0.66719488  -0.00008601  0.28778084  1
  Br  Br16  1  0.66643408  1.00043961  0.95445521  1
  Br  Br17  1  0.66678958  0.00083947  0.62114417  1
  Br  Br18  1  0.33356592  -0.00043961  0.04554479  1
  Br  Br19  1  0.33321042  0.99916053  0.37885583  1
  Br  Br20  1  0.33280512  1.00008601  0.71221916  1
  Br  Br21  1  0.66643408  0.66599447  0.54554479  1
  Br  Br22  1  0.66719488  0.66728089  0.21221916  1
  Br  Br23  1  0.66678958  0.66595011  0.87885583  1
  Br  Br24  1  0.66599447  0.66643408  0.04554479  1
  Br  Br25  1  0.66595011  0.66678958  0.37885583  1
  Br  Br26  1  0.66728089  0.66719488  0.71221916  1
  Br  Br27  1  0.00083947  0.66678958  0.12114417  1
  Br  Br28  1  1.00043961  0.66643408  0.45445521  1
  Br  Br29  1  -0.00008601  0.66719488  0.78778084  1
  Br  Br30  1  0.66595011  0.99916053  0.12114417  1
  Br  Br31  1  0.66599447  -0.00043961  0.45445521  1
  Br  Br32  1  0.66728089  1.00008601  0.78778084  1
  Br  Br33  1  1.00043961  0.33400553  0.04554479  1
  Br  Br34  1  0.00083947  0.33404989  0.37885583  1
  Br  Br35  1  -0.00008601  0.33271911  0.71221916  1
  Li  Li0  1  0.33333300  0.66666700  0.75000000  1
  Li  Li1  1  0.33333300  0.66666700  0.91595254  1
  Li  Li2  1  0.33333300  0.66666700  0.58404746  1
  Li  Li3  1  0.33333300  0.66666700  0.25000000  1
  Li  Li4  1  0.66666700  0.33333300  0.25000000  1
  Li  Li5  1  0.66666700  0.33333300  0.08404746  1
  Li  Li6  1  0.66666700  0.33333300  0.41595254  1
  Li  Li7  1  0.66666700  0.33333300  0.75000000  1
  Li  Li8  1  0.00000000  0.00000000  0.08270731  1
  Li  Li9  1  0.00000000  0.00000000  0.41729269  1
  Li  Li10  1  0.00000000  0.00000000  0.58270731  1
  Li  Li11  1  0.00000000  0.00000000  0.91729269  1
  U  U0  1  0.00000000  0.00000000  0.25000000  1
  U  U1  1  0.33333300  0.66666700  0.08331683  1
  U  U2  1  0.33333300  0.66666700  0.41668317  1
  U  U3  1  0.66666700  0.33333300  0.58331683  1
  U  U4  1  0.66666700  0.33333300  0.91668317  1
  U  U5  1  0.00000000  0.00000000  0.75000000  1
loop_
_geom_bond_atom_site_label_1
_geom_bond_atom_site_label_2
_geom_bond_distance
_geom_bond_site_symmetry_2
Br0 U0 2.793423 1_665
Br0 Li3 2.798006 1_655
Br0 Li4 2.798755 1_555
Br1 Li2 2.783904 1_655
Br1 U3 2.793299 1_555
Br1 Li10 2.813606 1_665
Br2 Li11 2.785230 1_565
Br2 U4 2.793310 1_455
Br2 Li1 2.814020 1_555
Br3 U0 2.793423 1_555
Br3 Li3 2.798006 1_545
Br3 Li4 2.798755 1_555
Br4 Li10 2.785230 1_565
Br4 U3 2.793310 1_565
Br4 Li2 2.814020 1_555
Br5 Li1 2.783904 1_545
Br5 U4 2.793299 1_555
Br5 Li11 2.813606 1_555
Br6 U0 2.793423 1_655
Br6 Li3 2.798009 1_655
Br6 Li4 2.798752 1_555
Br7 Li10 2.785230 1_555
Br7 U3 2.793307 1_455
Br7 Li2 2.814023 1_555
Br8 Li1 2.783907 1_655
Br8 U4 2.793296 1_555
Br8 Li11 2.813606 1_655
Br9 U0 2.793423 1_555
Br9 Li3 2.798012 1_555
Br9 Li4 2.798758 1_555
Br10 Li2 2.783910 1_555
Br10 U3 2.793302 1_555
Br10 Li10 2.813606 1_555
Br11 Li11 2.785230 1_555
Br11 U4 2.793313 1_555
Br11 Li1 2.814026 1_555
Br12 Li5 2.783910 1_555
Br12 U1 2.793302 1_555
Br12 Li8 2.813606 1_555
Br13 Li9 2.785230 1_555
Br13 U2 2.793313 1_555
Br13 Li6 2.814026 1_555
Br14 U5 2.793423 1_555
Br14 Li7 2.798012 1_555
Br14 Li0 2.798758 1_555
Br15 U0 2.793423 1_655
Br15 Li3 2.798009 1_545
Br15 Li4 2.798752 1_555
Br16 Li11 2.785230 1_665
Br16 U4 2.793307 1_565
Br16 Li1 2.814023 1_555
Br17 Li2 2.783907 1_545
Br17 U3 2.793296 1_555
Br17 Li10 2.813606 1_655
Br18 Li8 2.785230 1_555
Br18 U1 2.793307 1_545
Br18 Li5 2.814023 1_555
Br19 Li6 2.783907 1_565
Br19 U2 2.793296 1_555
Br19 Li9 2.813606 1_565
Br20 U5 2.793423 1_565
Br20 Li7 2.798009 1_565
Br20 Li0 2.798752 1_555
Br21 Li10 2.785230 1_665
Br21 U3 2.793313 1_555
Br21 Li2 2.814026 1_555
Br22 U0 2.793423 1_665
Br22 Li3 2.798012 1_555
Br22 Li4 2.798758 1_555
Br23 Li1 2.783910 1_555
Br23 U4 2.793302 1_555
Br23 Li11 2.813606 1_665
Br24 Li8 2.785230 1_665
Br24 U1 2.793313 1_555
Br24 Li5 2.814026 1_555
Br25 Li6 2.783910 1_555
Br25 U2 2.793302 1_555
Br25 Li9 2.813606 1_665
Br26 U5 2.793423 1_665
Br26 Li7 2.798012 1_555
Br26 Li0 2.798758 1_555
Br27 Li5 2.783907 1_455
Br27 U1 2.793296 1_555
Br27 Li8 2.813606 1_565
Br28 Li9 2.785230 1_665
Br28 U2 2.793307 1_655
Br28 Li6 2.814023 1_555
Br29 U5 2.793423 1_565
Br29 Li7 2.798009 1_455
Br29 Li0 2.798752 1_555
Br30 Li5 2.783904 1_565
Br30 U1 2.793299 1_555
Br30 Li8 2.813606 1_665
Br31 Li9 2.785230 1_655
Br31 U2 2.793310 1_545
Br31 Li6 2.814020 1_555
Br32 U5 2.793423 1_665
Br32 Li7 2.798006 1_565
Br32 Li0 2.798755 1_555
Br33 Li8 2.785230 1_655
Br33 U1 2.793310 1_655
Br33 Li5 2.814020 1_555
Br34 Li6 2.783904 1_455
Br34 U2 2.793299 1_555
Br34 Li9 2.813606 1_555
Br35 U5 2.793423 1_555
Br35 Li7 2.798006 1_455
Br35 Li0 2.798755 1_555
