# generated using pymatgen
data_Ta3(BiS3)2
_symmetry_space_group_name_H-M   'P 1'
_cell_length_a   5.75018869
_cell_length_b   5.75018861
_cell_length_c   17.43846724
_cell_angle_alpha   89.99997953
_cell_angle_beta   90.00001110
_cell_angle_gamma   119.99998552
_symmetry_Int_Tables_number   1
_chemical_formula_structural   Ta3(BiS3)2
_chemical_formula_sum   'Ta6 Bi4 S12'
_cell_volume   499.34785797
_cell_formula_units_Z   2
loop_
 _symmetry_equiv_pos_site_id
 _symmetry_equiv_pos_as_xyz
  1  'x, y, z'
loop_
 _atom_site_type_symbol
 _atom_site_label
 _atom_site_symmetry_multiplicity
 _atom_site_fract_x
 _atom_site_fract_y
 _atom_site_fract_z
 _atom_site_occupancy
  Ta  Ta0  1  0.67364290  0.67364290  0.75003147  1
  Ta  Ta1  1  0.32635761  0.00000009  0.75003150  1
  Ta  Ta2  1  0.00000015  0.32635797  0.75003143  1
  Ta  Ta3  1  0.32637068  0.32637055  0.24996831  1
  Ta  Ta4  1  0.67362920  0.99999957  0.24996833  1
  Ta  Ta5  1  -0.00000017  0.67362961  0.24996833  1
  Bi  Bi0  1  0.66666666  0.33333312  0.00001206  1
  Bi  Bi1  1  0.33333326  0.66666676  0.00001202  1
  Bi  Bi2  1  0.33333304  0.66666669  0.49998841  1
  Bi  Bi3  1  0.66666666  0.33333310  0.49998837  1
  S  S0  1  0.00000016  0.00000058  0.84136147  1
  S  S1  1  0.00000019  0.00000041  0.15863656  1
  S  S2  1  0.00000007  0.00000050  0.34131381  1
  S  S3  1  0.00000015  0.00000050  0.65868974  1
  S  S4  1  0.66666620  0.33333319  0.83804706  1
  S  S5  1  0.33333374  0.66666676  0.83804690  1
  S  S6  1  0.33333272  0.66666635  0.16194608  1
  S  S7  1  0.66666647  0.33333305  0.16194595  1
  S  S8  1  0.33333303  0.66666673  0.33800441  1
  S  S9  1  0.66666673  0.33333315  0.33800435  1
  S  S10  1  0.66666614  0.33333308  0.66200173  1
  S  S11  1  0.33333340  0.66666636  0.66200170  1
loop_
_geom_bond_atom_site_label_1
_geom_bond_atom_site_label_2
_geom_bond_distance
_geom_bond_site_symmetry_2
Bi0 S7 2.823879 1_555
Bi0 S4 2.824421 1_554
Bi1 S6 2.823882 1_555
Bi1 S5 2.824423 1_554
Bi2 S8 2.824753 1_555
Bi2 S11 2.825263 1_555
Bi3 S9 2.824753 1_555
Bi3 S10 2.825265 1_555
S0 Ta2 2.461349 1_555
S0 Ta0 2.461350 1_445
S0 Ta1 2.461351 1_555
S1 Ta3 2.461426 1_555
S1 Ta5 2.461427 1_545
S1 Ta4 2.461427 1_445
S2 Ta4 2.461581 1_445
S2 Ta3 2.461581 1_555
S2 Ta5 2.461583 1_545
S3 Ta0 2.461482 1_445
S3 Ta2 2.461482 1_555
S3 Ta1 2.461483 1_555
S4 Ta1 2.471462 1_555
S4 Ta0 2.471464 1_555
S4 Ta2 2.471465 1_655
S5 Ta0 2.471461 1_555
S5 Ta1 2.471462 1_565
S5 Ta2 2.471462 1_555
S6 Ta5 2.471505 1_555
S6 Ta3 2.471505 1_555
S6 Ta4 2.471506 1_555
S7 Ta3 2.471506 1_555
S7 Ta4 2.471507 1_545
S7 Ta5 2.471508 1_655
S8 Ta4 2.471654 1_555
S8 Ta5 2.471654 1_555
S8 Ta3 2.471657 1_555
S9 Ta3 2.471655 1_555
S9 Ta5 2.471655 1_655
S9 Ta4 2.471655 1_545
S10 Ta1 2.471615 1_555
S10 Ta2 2.471617 1_655
S10 Ta0 2.471618 1_555
S11 Ta2 2.471615 1_555
S11 Ta0 2.471617 1_555
S11 Ta1 2.471619 1_565
