# generated using pymatgen
data_LiUPO6
_symmetry_space_group_name_H-M   'P 1'
_cell_length_a   5.12258300
_cell_length_b   10.07427770
_cell_length_c   10.97159215
_cell_angle_alpha   64.33192558
_cell_angle_beta   77.06522383
_cell_angle_gamma   77.28831481
_symmetry_Int_Tables_number   1
_chemical_formula_structural   LiUPO6
_chemical_formula_sum   'Li4 U4 P4 O24'
_cell_volume   492.47361061
_cell_formula_units_Z   4
loop_
 _symmetry_equiv_pos_site_id
 _symmetry_equiv_pos_as_xyz
  1  'x, y, z'
loop_
 _atom_site_type_symbol
 _atom_site_label
 _atom_site_symmetry_multiplicity
 _atom_site_fract_x
 _atom_site_fract_y
 _atom_site_fract_z
 _atom_site_occupancy
  Li  Li0  1  0.56520700  0.90724000  0.69532100  1
  Li  Li1  1  0.55303800  0.38333500  0.76382400  1
  Li  Li2  1  0.44696200  0.61666500  0.23617600  1
  Li  Li3  1  0.43479300  0.09276000  0.30467900  1
  U  U0  1  0.48966300  0.27886700  0.48358100  1
  U  U1  1  0.51033700  0.72113300  0.51641900  1
  U  U2  1  0.99083300  0.79329200  0.97932600  1
  U  U3  1  0.00916700  0.20670800  0.02067400  1
  P  P0  1  0.07704000  0.88936900  0.26490000  1
  P  P1  1  0.92296000  0.11063100  0.73510000  1
  P  P2  1  0.94626000  0.58546700  0.77856800  1
  P  P3  1  0.05374000  0.41453300  0.22143200  1
  O  O0  1  0.16563900  0.03956900  0.23411800  1
  O  O1  1  0.67460000  0.18343000  0.12134700  1
  O  O2  1  0.24191600  0.29665400  0.32463000  1
  O  O3  1  0.34178000  0.23350000  0.91816100  1
  O  O4  1  0.24215900  0.56795400  0.70446000  1
  O  O5  1  0.31478800  0.89054100  0.52965200  1
  O  O6  1  0.32540000  0.81657000  0.87865300  1
  O  O7  1  0.20775300  0.12570400  0.64850300  1
  O  O8  1  0.75808400  0.70334600  0.67537000  1
  O  O9  1  0.06590800  0.89839700  0.12108800  1
  O  O10  1  0.75784100  0.43204600  0.29554000  1
  O  O11  1  0.94046900  0.64177500  0.88941100  1
  O  O12  1  0.72066700  0.55442700  0.50956000  1
  O  O13  1  0.65822000  0.76650000  0.08183900  1
  O  O14  1  0.93409200  0.10160300  0.87891200  1
  O  O15  1  0.15970500  0.56789600  0.15635600  1
  O  O16  1  0.05953100  0.35822500  0.11058900  1
  O  O17  1  0.84029500  0.43210400  0.84364400  1
  O  O18  1  0.79224700  0.87429600  0.35149700  1
  O  O19  1  0.83436100  0.96043100  0.76588200  1
  O  O20  1  0.27933300  0.44557300  0.49044000  1
  O  O21  1  0.28536900  0.75620200  0.33857400  1
  O  O22  1  0.68521200  0.10945900  0.47034800  1
  O  O23  1  0.71463100  0.24379800  0.66142600  1
loop_
_geom_bond_atom_site_label_1
_geom_bond_atom_site_label_2
_geom_bond_distance
_geom_bond_site_symmetry_2
Li0 O19 1.987426 1_555
Li0 O6 2.045787 1_555
Li0 O8 2.154742 1_555
Li0 O7 2.475620 1_565
Li0 O22 2.477157 1_565
Li0 O5 2.526153 1_555
Li1 O3 2.000299 1_555
Li1 O23 2.088830 1_555
Li1 O17 2.107479 1_555
Li1 O4 2.128597 1_555
Li2 O13 2.000299 1_555
Li2 O21 2.088830 1_555
Li2 O15 2.107479 1_555
Li2 O10 2.128597 1_555
Li3 O0 1.987426 1_555
Li3 O1 2.045787 1_555
Li3 O2 2.154742 1_555
Li3 O18 2.475620 1_545
Li3 O5 2.477157 1_545
Li3 O22 2.526153 1_555
O0 P0 1.549382 1_545
O0 U3 2.406686 1_555
O1 U3 1.821343 1_655
O2 P3 1.562507 1_555
O2 U0 2.303066 1_555
O3 U3 1.822748 1_556
O4 P2 1.563528 1_455
O4 U1 2.330460 1_555
O5 U1 1.826031 1_555
O6 U2 1.821343 1_455
O7 P1 1.551147 1_455
O7 U0 2.265506 1_555
O8 P2 1.562507 1_555
O8 U1 2.303066 1_555
O9 P0 1.553963 1_555
O9 U2 2.358375 1_454
O9 U3 2.779774 1_565
O10 P3 1.563528 1_655
O10 U0 2.330460 1_555
O11 P2 1.541332 1_555
O11 U2 2.227445 1_555
O12 U1 1.806628 1_555
O13 U2 1.822748 1_554
O14 P1 1.553963 1_555
O14 U3 2.358375 1_656
O14 U2 2.779774 1_545
O15 P3 1.559309 1_555
O15 U2 2.396645 1_454
O16 P3 1.541332 1_555
O16 U3 2.227445 1_555
O17 P2 1.559309 1_555
O17 U3 2.396645 1_656
O18 P0 1.551147 1_655
O18 U1 2.265506 1_555
O19 P1 1.549382 1_565
O19 U2 2.406686 1_555
O20 U0 1.806628 1_555
O21 P0 1.552004 1_555
O21 U1 2.343187 1_555
O22 U0 1.826031 1_555
O23 P1 1.552004 1_555
O23 U0 2.343187 1_555
