# generated using pymatgen
data_CdI2
_symmetry_space_group_name_H-M   'P 1'
_cell_length_a   4.28498851
_cell_length_b   4.28498892
_cell_length_c   50.61570053
_cell_angle_alpha   90.00001864
_cell_angle_beta   89.99997624
_cell_angle_gamma   119.99982886
_symmetry_Int_Tables_number   1
_chemical_formula_structural   CdI2
_chemical_formula_sum   'Cd7 I14'
_cell_volume   804.85194348
_cell_formula_units_Z   7
loop_
 _symmetry_equiv_pos_site_id
 _symmetry_equiv_pos_as_xyz
  1  'x, y, z'
loop_
 _atom_site_type_symbol
 _atom_site_label
 _atom_site_symmetry_multiplicity
 _atom_site_fract_x
 _atom_site_fract_y
 _atom_site_fract_z
 _atom_site_occupancy
  Cd  Cd0  1  0.66666700  0.33333300  0.32176264  1
  Cd  Cd1  1  0.66666700  0.33333300  0.46451066  1
  Cd  Cd2  1  0.00000000  -0.00000000  0.60731362  1
  Cd  Cd3  1  -0.00000000  0.00000000  0.75003923  1
  Cd  Cd4  1  0.66666800  0.33333300  0.89273220  1
  Cd  Cd5  1  0.66666700  0.33333300  0.17826151  1
  Cd  Cd6  1  0.66666700  0.33333300  0.03547191  1
  I  I0  1  -0.00000000  0.00000000  0.14418738  1
  I  I1  1  0.66666700  0.33333300  0.57340334  1
  I  I2  1  -0.00000000  0.00000000  0.43050398  1
  I  I3  1  0.33333300  0.66666700  0.06946964  1
  I  I4  1  0.33333300  0.66666700  0.21230366  1
  I  I5  1  0.33333300  0.66666700  0.35582239  1
  I  I6  1  -0.00000000  0.00000000  0.85873691  1
  I  I7  1  0.33333300  0.66666700  0.64126930  1
  I  I8  1  -0.00000000  0.00000000  0.00153763  1
  I  I9  1  0.33333300  0.66666700  0.78407291  1
  I  I10  1  0.33333300  0.66666700  0.92659961  1
  I  I11  1  0.33333300  0.66666700  0.49835895  1
  I  I12  1  0.66666700  0.33333300  0.71594364  1
  I  I13  1  -0.00000000  0.00000000  0.28770188  1
loop_
_geom_bond_atom_site_label_1
_geom_bond_atom_site_label_2
_geom_bond_distance
_geom_bond_site_symmetry_2
Cd0 I5 3.015364 1_555
Cd0 I5 3.015364 1_545
Cd0 I5 3.015364 1_655
Cd0 I13 3.015387 1_655
Cd0 I13 3.015396 1_665
Cd0 I13 3.015396 1_555
Cd1 I11 3.009257 1_555
Cd1 I11 3.009257 1_545
Cd1 I11 3.009257 1_655
Cd1 I2 3.013823 1_655
Cd1 I2 3.013832 1_665
Cd1 I2 3.013832 1_555
Cd2 I1 3.011040 1_455
Cd2 I1 3.011047 1_555
Cd2 I1 3.011047 1_445
Cd2 I7 3.012350 1_545
Cd2 I7 3.012357 1_445
Cd2 I7 3.012358 1_555
Cd3 I9 3.014605 1_545
Cd3 I9 3.014612 1_445
Cd3 I9 3.014612 1_555
Cd3 I12 3.016396 1_455
Cd3 I12 3.016403 1_555
Cd3 I12 3.016404 1_445
Cd4 I10 3.009805 1_655
Cd4 I10 3.009808 1_545
Cd4 I10 3.009811 1_555
Cd4 I6 3.013490 1_655
Cd4 I6 3.013503 1_665
Cd4 I6 3.013506 1_555
Cd5 I4 3.014854 1_555
Cd5 I4 3.014854 1_545
Cd5 I4 3.014855 1_655
Cd5 I0 3.015774 1_655
Cd5 I0 3.015783 1_665
Cd5 I0 3.015783 1_555
Cd6 I8 3.011731 1_655
Cd6 I8 3.011740 1_665
Cd6 I8 3.011740 1_555
Cd6 I3 3.013570 1_555
Cd6 I3 3.013570 1_545
Cd6 I3 3.013570 1_655
