# generated using pymatgen
data_Sr3Cu3(PO4)4
_symmetry_space_group_name_H-M   'P 1'
_cell_length_a   5.01746500
_cell_length_b   9.35665600
_cell_length_c   17.44428117
_cell_angle_alpha   60.45479188
_cell_angle_beta   90.00000000
_cell_angle_gamma   90.00000000
_symmetry_Int_Tables_number   1
_chemical_formula_structural   Sr3Cu3(PO4)4
_chemical_formula_sum   'Sr6 Cu6 P8 O32'
_cell_volume   712.46053992
_cell_formula_units_Z   2
loop_
 _symmetry_equiv_pos_site_id
 _symmetry_equiv_pos_as_xyz
  1  'x, y, z'
loop_
 _atom_site_type_symbol
 _atom_site_label
 _atom_site_symmetry_multiplicity
 _atom_site_fract_x
 _atom_site_fract_y
 _atom_site_fract_z
 _atom_site_occupancy
  Sr  Sr0  1  0.53479600  0.80587000  0.73606100  1
  Sr  Sr1  1  0.46520400  0.19413000  0.26393900  1
  Sr  Sr2  1  0.96520400  0.80587000  0.23606100  1
  Sr  Sr3  1  0.00000000  0.50000000  0.50000000  1
  Sr  Sr4  1  0.03479600  0.19413000  0.76393900  1
  Sr  Sr5  1  0.50000000  0.50000000  0.00000000  1
  Cu  Cu0  1  0.03641700  0.70613900  0.62101500  1
  Cu  Cu1  1  0.46358300  0.70613900  0.12101500  1
  Cu  Cu2  1  0.53641700  0.29386100  0.87898500  1
  Cu  Cu3  1  0.96358300  0.29386100  0.37898500  1
  Cu  Cu4  1  0.50000000  0.00000000  0.50000000  1
  Cu  Cu5  1  0.00000000  0.00000000  0.00000000  1
  P  P0  1  0.52061400  0.46693500  0.66307500  1
  P  P1  1  0.97938600  0.46693500  0.16307500  1
  P  P2  1  0.02061400  0.53306500  0.83692500  1
  P  P3  1  0.00987200  0.93870800  0.41225100  1
  P  P4  1  0.99012800  0.06129200  0.58774900  1
  P  P5  1  0.50987200  0.06129200  0.08774900  1
  P  P6  1  0.49012800  0.93870800  0.91225100  1
  P  P7  1  0.47938600  0.53306500  0.33692500  1
  O  O0  1  0.30832200  0.07212000  0.91847100  1
  O  O1  1  0.21407500  0.00401200  0.09384800  1
  O  O2  1  0.56031300  0.23033200  0.00471700  1
  O  O3  1  0.02047400  0.32643100  0.26181800  1
  O  O4  1  0.43968700  0.76966800  0.99528300  1
  O  O5  1  0.97952600  0.67356900  0.73818200  1
  O  O6  1  0.82448800  0.47718600  0.64338500  1
  O  O7  1  0.92410000  0.36376700  0.85058400  1
  O  O8  1  0.91457700  0.06522300  0.67159800  1
  O  O9  1  0.13617000  0.40722100  0.10898100  1
  O  O10  1  0.28592500  0.00401200  0.59384800  1
  O  O11  1  0.71407500  0.99598800  0.40615200  1
  O  O12  1  0.63617000  0.59277900  0.39101900  1
  O  O13  1  0.93968700  0.23033200  0.50471700  1
  O  O14  1  0.52047400  0.67356900  0.23818200  1
  O  O15  1  0.69167800  0.92788000  0.08152900  1
  O  O16  1  0.42410000  0.63623300  0.64941600  1
  O  O17  1  0.06031300  0.76966800  0.49528300  1
  O  O18  1  0.17551200  0.52281400  0.35661500  1
  O  O19  1  0.78592500  0.99598800  0.90615200  1
  O  O20  1  0.58542300  0.06522300  0.17159800  1
  O  O21  1  0.47952600  0.32643100  0.76181800  1
  O  O22  1  0.86383000  0.59277900  0.89101900  1
  O  O23  1  0.67551200  0.47718600  0.14338500  1
  O  O24  1  0.41457700  0.93477700  0.82840200  1
  O  O25  1  0.80832200  0.92788000  0.58152900  1
  O  O26  1  0.07590000  0.63623300  0.14941600  1
  O  O27  1  0.32448800  0.52281400  0.85661500  1
  O  O28  1  0.36383000  0.40722100  0.60898100  1
  O  O29  1  0.57590000  0.36376700  0.35058400  1
  O  O30  1  0.08542300  0.93477700  0.32840200  1
  O  O31  1  0.19167800  0.07212000  0.41847100  1
loop_
_geom_bond_atom_site_label_1
_geom_bond_atom_site_label_2
_geom_bond_distance
_geom_bond_site_symmetry_2
Cu0 O5 1.933279 1_455
Cu0 O17 1.972946 1_555
Cu0 O16 2.034070 1_555
Cu0 O25 2.163200 1_455
Cu0 O6 2.246711 1_455
Cu1 O14 1.933279 1_555
Cu1 O4 1.972946 1_554
Cu1 O26 2.034070 1_555
Cu1 O15 2.163200 1_555
Cu1 O23 2.246711 1_555
Cu2 O21 1.933279 1_555
Cu2 O2 1.972946 1_556
Cu2 O7 2.034070 1_555
Cu2 O0 2.163200 1_555
Cu2 O27 2.246711 1_555
Cu3 O3 1.933279 1_655
Cu3 O13 1.972946 1_555
Cu3 O29 2.034070 1_555
Cu3 O31 2.163200 1_655
Cu3 O18 2.246711 1_655
Cu4 O11 1.973796 1_545
Cu4 O10 1.973796 1_555
Cu4 O25 1.981100 1_545
Cu4 O31 1.981100 1_555
Cu5 O1 1.973796 1_555
Cu5 O19 1.973796 1_444
Cu5 O0 1.981100 1_554
Cu5 O15 1.981100 1_445
O0 P6 1.592387 1_545
O0 Sr4 2.723700 1_555
O1 P5 1.563659 1_555
O1 Sr2 2.571937 1_445
O2 P5 1.550574 1_555
O2 Sr5 2.502015 1_555
O3 P1 1.582571 1_455
O3 Sr1 2.543188 1_555
O3 Sr1 3.041487 1_455
O4 P6 1.550574 1_555
O4 Sr5 2.502015 1_556
O5 P2 1.582571 1_655
O5 Sr0 2.543188 1_555
O5 Sr0 3.041487 1_655
O6 P0 1.555418 1_555
O6 Sr3 2.559442 1_655
O6 Sr4 2.656580 1_655
O7 P2 1.558299 1_655
O7 Sr4 2.734647 1_655
O8 P4 1.528907 1_555
O8 Sr4 2.515843 1_655
O8 Sr0 2.844844 1_545
O9 P1 1.530165 1_455
O9 Sr5 2.464270 1_555
O9 Sr1 2.948299 1_555
O10 P4 1.563659 1_455
O10 Sr0 2.571937 1_545
O11 P3 1.563659 1_655
O11 Sr1 2.571937 1_565
O12 P7 1.530165 1_555
O12 Sr3 2.464270 1_655
O12 Sr2 2.948299 1_555
O13 P4 1.550574 1_555
O13 Sr3 2.502015 1_655
O14 P7 1.582571 1_555
O14 Sr2 2.543188 1_555
O14 Sr2 3.041487 1_455
O15 P5 1.592387 1_565
O15 Sr2 2.723700 1_555
O16 P0 1.558299 1_555
O16 Sr0 2.734647 1_555
O17 P3 1.550574 1_555
O17 Sr3 2.502015 1_555
O18 P7 1.555418 1_555
O18 Sr3 2.559442 1_555
O18 Sr2 2.656580 1_455
O19 P6 1.563659 1_555
O19 Sr4 2.571937 1_665
O20 P5 1.528907 1_555
O20 Sr1 2.515843 1_555
O20 Sr2 2.844844 1_545
O21 P0 1.582571 1_555
O21 Sr4 2.543188 1_555
O21 Sr4 3.041487 1_655
O22 P2 1.530165 1_655
O22 Sr5 2.464270 1_556
O22 Sr0 2.948299 1_555
O23 P1 1.555418 1_555
O23 Sr5 2.559442 1_555
O23 Sr1 2.656580 1_555
O24 P6 1.528907 1_555
O24 Sr0 2.515843 1_555
O24 Sr4 2.844844 1_565
O25 P4 1.592387 1_565
O25 Sr0 2.723700 1_555
O26 P1 1.558299 1_455
O26 Sr2 2.734647 1_455
O27 P2 1.555418 1_555
O27 Sr5 2.559442 1_556
O27 Sr0 2.656580 1_555
O28 P0 1.530165 1_555
O28 Sr3 2.464270 1_555
O28 Sr4 2.948299 1_555
O29 P7 1.558299 1_555
O29 Sr1 2.734647 1_555
O30 P3 1.528907 1_555
O30 Sr2 2.515843 1_455
O30 Sr1 2.844844 1_565
O31 P3 1.592387 1_545
O31 Sr1 2.723700 1_555
