# generated using pymatgen
data_Na2CrF4
_symmetry_space_group_name_H-M   'P 1'
_cell_length_a   3.33884153
_cell_length_b   5.62849359
_cell_length_c   9.32625594
_cell_angle_alpha   90.00000000
_cell_angle_beta   90.00000000
_cell_angle_gamma   92.49667872
_symmetry_Int_Tables_number   1
_chemical_formula_structural   Na2CrF4
_chemical_formula_sum   'Na4 Cr2 F8'
_cell_volume   175.09867599
_cell_formula_units_Z   2
loop_
 _symmetry_equiv_pos_site_id
 _symmetry_equiv_pos_as_xyz
  1  'x, y, z'
loop_
 _atom_site_type_symbol
 _atom_site_label
 _atom_site_symmetry_multiplicity
 _atom_site_fract_x
 _atom_site_fract_y
 _atom_site_fract_z
 _atom_site_occupancy
  Na  Na0  1  0.48786933  0.57837655  0.81791339  1
  Na  Na1  1  0.51213067  0.92162345  0.31791339  1
  Na  Na2  1  0.48786933  0.07837655  0.68208661  1
  Na  Na3  1  0.51213067  0.42162345  0.18208661  1
  Cr  Cr0  1  0.00000000  0.00000000  0.00000000  1
  Cr  Cr1  1  0.00000000  0.50000000  0.50000000  1
  F  F0  1  0.99160036  0.36766460  0.69635432  1
  F  F1  1  0.00839964  0.13233540  0.19635432  1
  F  F2  1  0.00839964  0.63233540  0.30364568  1
  F  F3  1  0.99160036  0.86766460  0.80364568  1
  F  F4  1  0.42929870  0.24281695  0.95139873  1
  F  F5  1  0.57070130  0.25718305  0.45139873  1
  F  F6  1  0.42929870  0.74281695  0.54860127  1
  F  F7  1  0.57070130  0.75718305  0.04860127  1
loop_
_geom_bond_atom_site_label_1
_geom_bond_atom_site_label_2
_geom_bond_distance
_geom_bond_site_symmetry_2
Cr0 F3 1.976675 1_444
Cr0 F1 1.976675 1_555
Cr0 F7 1.989260 1_445
Cr0 F4 1.989260 1_554
Cr0 F7 2.435374 1_545
Cr0 F4 2.435374 1_454
Cr1 F0 1.976675 1_455
Cr1 F2 1.976675 1_555
Cr1 F5 1.989260 1_455
Cr1 F6 1.989260 1_555
Cr1 F5 2.435374 1_555
Cr1 F6 2.435374 1_455
F0 Na2 2.293262 1_555
F0 Na0 2.294809 1_655
F0 Na2 2.376869 1_655
F0 Na0 2.386279 1_555
F1 Na3 2.293262 1_555
F1 Na1 2.294809 1_445
F1 Na3 2.376869 1_455
F1 Na1 2.386279 1_545
F2 Na1 2.293262 1_555
F2 Na3 2.294809 1_455
F2 Na1 2.376869 1_455
F2 Na3 2.386279 1_555
F3 Na0 2.293262 1_555
F3 Na2 2.294809 1_665
F3 Na0 2.376869 1_655
F3 Na2 2.386279 1_565
F4 Na0 2.263417 1_555
F4 Na3 2.386180 1_556
F4 Na2 2.686850 1_555
F5 Na1 2.263417 1_545
F5 Na2 2.386180 1_555
F5 Na3 2.686850 1_555
F6 Na2 2.263417 1_565
F6 Na1 2.386180 1_555
F6 Na0 2.686850 1_555
F7 Na3 2.263417 1_555
F7 Na0 2.386180 1_554
F7 Na1 2.686850 1_555
