# generated using pymatgen
data_Y6Zr22O53
_symmetry_space_group_name_H-M   'P 1'
_cell_length_a   3.62743900
_cell_length_b   3.73140900
_cell_length_c   74.42937500
_cell_angle_alpha   90.00000000
_cell_angle_beta   90.00000000
_cell_angle_gamma   90.00000000
_symmetry_Int_Tables_number   1
_chemical_formula_structural   Y6Zr22O53
_chemical_formula_sum   'Y6 Zr22 O53'
_cell_volume   1007.43571884
_cell_formula_units_Z   1
loop_
 _symmetry_equiv_pos_site_id
 _symmetry_equiv_pos_as_xyz
  1  'x, y, z'
loop_
 _atom_site_type_symbol
 _atom_site_label
 _atom_site_symmetry_multiplicity
 _atom_site_fract_x
 _atom_site_fract_y
 _atom_site_fract_z
 _atom_site_occupancy
  Y  Y0  1  0.50000000  0.50000000  0.60407400  1
  Y  Y1  1  0.50000000  0.50000000  0.74797300  1
  Y  Y2  1  0.50000000  0.50000000  0.68100600  1
  Y  Y3  1  0.50000000  0.50000000  0.89120000  1
  Y  Y4  1  0.50000000  0.50000000  0.82423900  1
  Y  Y5  1  0.50000000  0.50000000  0.96686900  1
  Zr  Zr0  1  0.00000000  0.00000000  0.00136600  1
  Zr  Zr1  1  0.50000000  0.50000000  0.10729800  1
  Zr  Zr2  1  0.50000000  0.50000000  0.03632000  1
  Zr  Zr3  1  0.50000000  0.50000000  0.25008000  1
  Zr  Zr4  1  0.50000000  0.50000000  0.17862700  1
  Zr  Zr5  1  0.50000000  0.50000000  0.39313800  1
  Zr  Zr6  1  0.50000000  0.50000000  0.32159000  1
  Zr  Zr7  1  0.50000000  0.50000000  0.46456800  1
  Zr  Zr8  1  0.50000000  0.50000000  0.53538300  1
  Zr  Zr9  1  0.00000000  0.00000000  0.07209100  1
  Zr  Zr10  1  0.00000000  0.00000000  0.14330900  1
  Zr  Zr11  1  0.00000000  0.00000000  0.28621100  1
  Zr  Zr12  1  0.00000000  0.00000000  0.35774500  1
  Zr  Zr13  1  0.00000000  0.00000000  0.21472200  1
  Zr  Zr14  1  0.00000000  0.00000000  0.50039700  1
  Zr  Zr15  1  0.00000000  0.00000000  0.57047000  1
  Zr  Zr16  1  0.00000000  0.00000000  0.42925700  1
  Zr  Zr17  1  0.00000000  0.00000000  0.63919900  1
  Zr  Zr18  1  0.00000000  0.00000000  0.71459300  1
  Zr  Zr19  1  0.00000000  0.00000000  0.78285300  1
  Zr  Zr20  1  0.00000000  0.00000000  0.92612200  1
  Zr  Zr21  1  0.00000000  0.00000000  0.85780700  1
  O  O0  1  0.00000000  0.50000000  0.01483100  1
  O  O1  1  0.00000000  0.50000000  0.05008500  1
  O  O2  1  0.00000000  0.50000000  0.08530600  1
  O  O3  1  0.00000000  0.50000000  0.12094600  1
  O  O4  1  0.00000000  0.50000000  0.15645400  1
  O  O5  1  0.00000000  0.50000000  0.19224300  1
  O  O6  1  0.00000000  0.50000000  0.26368500  1
  O  O7  1  0.00000000  0.50000000  0.29933000  1
  O  O8  1  0.00000000  0.50000000  0.33519700  1
  O  O9  1  0.00000000  0.50000000  0.37087900  1
  O  O10  1  0.00000000  0.50000000  0.40679100  1
  O  O11  1  0.00000000  0.50000000  0.47845800  1
  O  O12  1  0.00000000  0.50000000  0.55027300  1
  O  O13  1  0.00000000  0.50000000  0.62913000  1
  O  O14  1  0.00000000  0.50000000  0.69597700  1
  O  O15  1  0.00000000  0.50000000  0.77304600  1
  O  O16  1  0.00000000  0.50000000  0.83910200  1
  O  O17  1  0.00000000  0.50000000  0.91614500  1
  O  O18  1  0.00000000  0.50000000  0.98038600  1
  O  O19  1  0.50000000  0.00000000  0.02225400  1
  O  O20  1  0.50000000  0.00000000  0.09343500  1
  O  O21  1  0.50000000  0.00000000  0.16482100  1
  O  O22  1  0.50000000  0.00000000  0.23629100  1
  O  O23  1  0.50000000  0.00000000  0.30780400  1
  O  O24  1  0.50000000  0.00000000  0.37932800  1
  O  O25  1  0.50000000  0.00000000  0.52072600  1
  O  O26  1  0.50000000  0.00000000  0.58832800  1
  O  O27  1  0.50000000  0.00000000  0.65972400  1
  O  O28  1  0.50000000  0.00000000  0.45060200  1
  O  O29  1  0.50000000  0.00000000  0.73164900  1
  O  O30  1  0.50000000  0.00000000  0.80314900  1
  O  O31  1  0.50000000  0.00000000  0.87496600  1
  O  O32  1  0.50000000  0.00000000  0.94659600  1
  O  O33  1  0.50000000  0.00000000  0.12899800  1
  O  O34  1  0.50000000  0.00000000  0.05768400  1
  O  O35  1  0.50000000  0.00000000  0.20044000  1
  O  O36  1  0.50000000  0.00000000  0.27193800  1
  O  O37  1  0.50000000  0.00000000  0.34346600  1
  O  O38  1  0.50000000  0.00000000  0.48575000  1
  O  O39  1  0.50000000  0.00000000  0.62447800  1
  O  O40  1  0.50000000  0.00000000  0.41492100  1
  O  O41  1  0.50000000  0.00000000  0.55462700  1
  O  O42  1  0.50000000  0.00000000  0.76798100  1
  O  O43  1  0.50000000  0.00000000  0.69793700  1
  O  O44  1  0.50000000  0.00000000  0.84123900  1
  O  O45  1  0.50000000  0.00000000  0.91135900  1
  O  O46  1  0.50000000  0.00000000  0.98661100  1
  O  O47  1  0.00000000  0.50000000  0.22784500  1
  O  O48  1  0.00000000  0.50000000  0.44250900  1
  O  O49  1  0.00000000  0.50000000  0.51418800  1
  O  O50  1  0.00000000  0.50000000  0.58601800  1
  O  O51  1  0.00000000  0.50000000  0.73079900  1
  O  O52  1  0.00000000  0.50000000  0.87390900  1
loop_
_geom_bond_atom_site_label_1
_geom_bond_atom_site_label_2
_geom_bond_distance
_geom_bond_site_symmetry_2
O0 Zr0 2.117839 1_565
O0 Zr0 2.117839 1_555
O0 Zr2 2.418202 1_455
O0 Zr2 2.418202 1_555
O1 Zr2 2.083080 1_455
O1 Zr2 2.083080 1_555
O1 Zr9 2.482649 1_565
O1 Zr9 2.482649 1_555
O2 Zr9 2.109097 1_565
O2 Zr9 2.109097 1_555
O2 Zr1 2.443125 1_555
O2 Zr1 2.443125 1_455
O3 Zr1 2.078810 1_455
O3 Zr1 2.078810 1_555
O3 Zr10 2.500259 1_565
O3 Zr10 2.500259 1_555
O4 Zr10 2.106673 1_565
O4 Zr10 2.106673 1_555
O4 Zr4 2.452171 1_555
O4 Zr4 2.452171 1_455
O5 Zr4 2.077648 1_555
O5 Zr4 2.077648 1_455
O5 Zr13 2.506015 1_565
O5 Zr13 2.506015 1_555
O6 Zr3 2.077248 1_555
O6 Zr3 2.077248 1_455
O6 Zr11 2.508352 1_555
O6 Zr11 2.508352 1_565
O7 Zr11 2.105775 1_555
O7 Zr11 2.105775 1_565
O7 Zr6 2.456534 1_555
O7 Zr6 2.456534 1_455
O8 Zr6 2.077321 1_555
O8 Zr6 2.077321 1_455
O8 Zr12 2.509446 1_565
O8 Zr12 2.509446 1_555
O9 Zr12 2.106292 1_555
O9 Zr12 2.106292 1_565
O9 Zr5 2.456483 1_455
O9 Zr5 2.456483 1_555
O10 Zr5 2.078992 1_555
O10 Zr5 2.078992 1_455
O10 Zr16 2.505369 1_555
O10 Zr16 2.505369 1_565
O11 Zr7 2.087671 1_455
O11 Zr7 2.087671 1_555
O11 Zr14 2.479362 1_565
O11 Zr14 2.479362 1_555
O12 Zr8 2.125513 1_455
O12 Zr8 2.125513 1_555
O12 Zr15 2.395958 1_555
O12 Zr15 2.395958 1_565
O13 Zr17 2.010596 1_565
O13 Zr17 2.010596 1_555
O13 Y0 2.601430 1_455
O13 Y0 2.601430 1_555
O14 Y2 2.128662 1_455
O14 Y2 2.128662 1_555
O14 Zr18 2.323936 1_565
O14 Zr18 2.323936 1_555
O15 Zr19 2.003409 1_555
O15 Zr19 2.003409 1_565
O15 Y1 2.602337 1_555
O15 Y1 2.602337 1_455
O16 Y4 2.124466 1_555
O16 Y4 2.124466 1_455
O16 Zr21 2.327891 1_555
O16 Zr21 2.327891 1_565
O17 Zr20 2.008054 1_555
O17 Zr20 2.008054 1_565
O17 Y3 2.595514 1_455
O17 Y3 2.595514 1_555
O18 Y5 2.074063 1_555
O18 Y5 2.074063 1_455
O18 Zr0 2.432946 1_566
O18 Zr0 2.432946 1_556
O19 Zr2 2.139370 1_555
O19 Zr2 2.139370 1_545
O19 Zr0 2.388851 1_555
O19 Zr0 2.388851 1_655
O20 Zr1 2.132016 1_555
O20 Zr1 2.132016 1_545
O20 Zr9 2.411077 1_555
O20 Zr9 2.411077 1_655
O21 Zr4 2.129967 1_545
O21 Zr4 2.129967 1_555
O21 Zr10 2.419334 1_555
O21 Zr10 2.419334 1_655
O22 Zr3 2.129356 1_555
O22 Zr3 2.129356 1_545
O22 Zr13 2.422144 1_655
O22 Zr13 2.422144 1_555
O23 Zr6 2.129249 1_545
O23 Zr6 2.129249 1_555
O23 Zr11 2.423328 1_655
O23 Zr11 2.423328 1_555
O24 Zr5 2.130110 1_555
O24 Zr5 2.130110 1_545
O24 Zr12 2.422835 1_555
O24 Zr12 2.422835 1_655
O25 Zr8 2.161236 1_545
O25 Zr8 2.161236 1_555
O25 Zr14 2.361985 1_655
O25 Zr14 2.361985 1_555
O26 Y0 2.203260 1_555
O26 Y0 2.203260 1_545
O26 Zr15 2.248609 1_655
O26 Zr15 2.248609 1_555
O27 Zr17 2.371357 1_555
O27 Zr17 2.371357 1_655
O27 Y2 2.447433 1_545
O27 Y2 2.447433 1_555
O28 Zr7 2.135737 1_555
O28 Zr7 2.135737 1_545
O28 Zr16 2.411126 1_655
O28 Zr16 2.411126 1_555
O29 Zr18 2.213849 1_555
O29 Zr18 2.213849 1_655
O29 Y1 2.226442 1_545
O29 Y1 2.226442 1_555
O30 Zr19 2.360412 1_555
O30 Zr19 2.360412 1_655
O30 Y4 2.438208 1_555
O30 Y4 2.438208 1_545
O31 Zr21 2.218254 1_555
O31 Zr21 2.218254 1_655
O31 Y3 2.222793 1_545
O31 Y3 2.222793 1_555
O32 Zr20 2.368913 1_555
O32 Zr20 2.368913 1_655
O32 Y5 2.399511 1_545
O32 Y5 2.399511 1_555
O33 Zr10 2.103364 1_555
O33 Zr10 2.103364 1_655
O33 Zr1 2.467683 1_555
O33 Zr1 2.467683 1_545
O34 Zr9 2.106992 1_555
O34 Zr9 2.106992 1_655
O34 Zr2 2.451387 1_545
O34 Zr2 2.451387 1_555
O35 Zr13 2.102272 1_555
O35 Zr13 2.102272 1_655
O35 Zr4 2.473196 1_545
O35 Zr4 2.473196 1_555
O36 Zr11 2.101934 1_655
O36 Zr11 2.101934 1_555
O36 Zr3 2.475396 1_545
O36 Zr3 2.475396 1_555
O37 Zr12 2.102159 1_555
O37 Zr12 2.102159 1_655
O37 Zr6 2.476276 1_545
O37 Zr6 2.476276 1_555
O38 Zr14 2.116139 1_555
O38 Zr14 2.116139 1_655
O38 Zr7 2.442622 1_545
O38 Zr7 2.442622 1_555
O39 Zr17 2.118981 1_655
O39 Zr17 2.118981 1_555
O39 Y0 2.405654 1_555
O39 Y0 2.405654 1_545
O40 Zr16 2.104307 1_655
O40 Zr16 2.104307 1_555
O40 Zr5 2.471730 1_555
O40 Zr5 2.471730 1_545
O41 Zr15 2.163343 1_655
O41 Zr15 2.163343 1_555
O41 Zr8 2.352103 1_545
O41 Zr8 2.352103 1_555
O42 Zr19 2.124814 1_655
O42 Zr19 2.124814 1_555
O42 Y1 2.387157 1_545
O42 Y1 2.387157 1_555
O43 Zr18 2.196912 1_555
O43 Zr18 2.196912 1_655
O43 Y2 2.251414 1_545
O43 Y2 2.251414 1_555
O44 Zr21 2.193223 1_555
O44 Zr21 2.193223 1_655
O44 Y4 2.254293 1_545
O44 Y4 2.254293 1_555
O45 Zr20 2.120599 1_655
O45 Zr20 2.120599 1_555
O45 Y3 2.394184 1_545
O45 Y3 2.394184 1_555
O46 Zr0 2.120291 1_656
O46 Zr0 2.120291 1_556
O46 Y5 2.374857 1_545
O46 Y5 2.374857 1_555
O47 Zr13 2.105913 1_555
O47 Zr13 2.105913 1_565
O47 Zr3 2.455279 1_455
O47 Zr3 2.455279 1_555
O48 Zr16 2.110383 1_565
O48 Zr16 2.110383 1_555
O48 Zr7 2.446469 1_455
O48 Zr7 2.446469 1_555
O49 Zr14 2.129428 1_555
O49 Zr14 2.129428 1_565
O49 Zr8 2.403785 1_555
O49 Zr8 2.403785 1_455
O50 Zr15 2.195457 1_555
O50 Zr15 2.195457 1_565
O50 Y0 2.257352 1_555
O50 Y0 2.257352 1_455
O51 Y1 2.218897 1_555
O51 Y1 2.218897 1_455
O51 Zr18 2.221661 1_565
O51 Zr18 2.221661 1_555
O52 Zr21 2.217468 1_555
O52 Zr21 2.217468 1_565
O52 Y3 2.223924 1_455
O52 Y3 2.223924 1_555
