# generated using pymatgen
data_NaPH4O5
_symmetry_space_group_name_H-M   'P 1'
_cell_length_a   7.55652800
_cell_length_b   7.64628800
_cell_length_c   7.87713700
_cell_angle_alpha   90.00000000
_cell_angle_beta   90.00000000
_cell_angle_gamma   90.00000000
_symmetry_Int_Tables_number   1
_chemical_formula_structural   NaPH4O5
_chemical_formula_sum   'Na4 P4 H16 O20'
_cell_volume   455.13616583
_cell_formula_units_Z   4
loop_
 _symmetry_equiv_pos_site_id
 _symmetry_equiv_pos_as_xyz
  1  'x, y, z'
loop_
 _atom_site_type_symbol
 _atom_site_label
 _atom_site_symmetry_multiplicity
 _atom_site_fract_x
 _atom_site_fract_y
 _atom_site_fract_z
 _atom_site_occupancy
  Na  Na0  1  0.98348000  0.50407500  0.48551100  1
  Na  Na1  1  0.48348000  0.99592500  0.98551100  1
  Na  Na2  1  0.98348000  0.00407500  0.01448900  1
  Na  Na3  1  0.48348000  0.49592500  0.51448900  1
  P  P0  1  0.74546900  0.38001000  0.87867100  1
  P  P1  1  0.24546900  0.11999000  0.37867100  1
  P  P2  1  0.74546900  0.88001000  0.62132900  1
  P  P3  1  0.24546900  0.61999000  0.12132900  1
  H  H0  1  0.21151600  0.18977100  0.72834200  1
  H  H1  1  0.71151600  0.81022900  0.27165800  1
  H  H2  1  0.34124300  0.78437400  0.33917300  1
  H  H3  1  0.34124300  0.28437400  0.16082700  1
  H  H4  1  0.22798300  0.27661700  0.90505300  1
  H  H5  1  0.71151600  0.31022900  0.22834200  1
  H  H6  1  0.72798300  0.22338300  0.40505300  1
  H  H7  1  0.46381300  0.94821800  0.60339100  1
  H  H8  1  0.72798300  0.72338300  0.09494700  1
  H  H9  1  0.96381300  0.55178200  0.10339100  1
  H  H10  1  0.21151600  0.68977100  0.77165800  1
  H  H11  1  0.96381300  0.05178200  0.39660900  1
  H  H12  1  0.84124300  0.71562600  0.83917300  1
  H  H13  1  0.22798300  0.77661700  0.59494700  1
  H  H14  1  0.84124300  0.21562600  0.66082700  1
  H  H15  1  0.46381300  0.44821800  0.89660900  1
  O  O0  1  0.23542300  0.77296100  0.00040300  1
  O  O1  1  0.05554600  0.57069700  0.19708600  1
  O  O2  1  0.21238800  0.16177100  0.85094200  1
  O  O3  1  0.85642300  0.83770700  0.78728800  1
  O  O4  1  0.73542300  0.22703900  0.99959700  1
  O  O5  1  0.82701600  0.04802700  0.54649400  1
  O  O6  1  0.71238800  0.33822900  0.35094200  1
  O  O7  1  0.05554600  0.07069700  0.30291400  1
  O  O8  1  0.71238800  0.83822900  0.14905800  1
  O  O9  1  0.23542300  0.27296100  0.49959700  1
  O  O10  1  0.32701600  0.95197300  0.45350600  1
  O  O11  1  0.73542300  0.72703900  0.50040300  1
  O  O12  1  0.82701600  0.54802700  0.95350600  1
  O  O13  1  0.85642300  0.33770700  0.71271200  1
  O  O14  1  0.55554600  0.92930300  0.69708600  1
  O  O15  1  0.35642300  0.16229300  0.21271200  1
  O  O16  1  0.55554600  0.42930300  0.80291400  1
  O  O17  1  0.21238800  0.66177100  0.64905800  1
  O  O18  1  0.35642300  0.66229300  0.28728800  1
  O  O19  1  0.32701600  0.45197300  0.04649400  1
loop_
_geom_bond_atom_site_label_1
_geom_bond_atom_site_label_2
_geom_bond_distance
_geom_bond_site_symmetry_2
Na0 O1 2.391207 1_655
Na0 O13 2.396465 1_555
Na0 O17 2.470958 1_655
Na0 O11 2.536499 1_555
Na0 O9 2.599940 1_655
Na0 O6 2.632137 1_555
Na1 O14 2.391207 1_555
Na1 O15 2.396465 1_566
Na1 O8 2.470958 1_556
Na1 O0 2.536499 1_556
Na1 O4 2.599940 1_565
Na1 O2 2.632137 1_565
Na2 O7 2.391207 1_655
Na2 O3 2.396465 1_544
Na2 O2 2.470958 1_654
Na2 O4 2.536499 1_554
Na2 O0 2.599940 1_645
Na2 O8 2.632137 1_545
Na3 O16 2.391207 1_555
Na3 O18 2.396465 1_555
Na3 O6 2.470958 1_555
Na3 O9 2.536499 1_555
Na3 O11 2.599940 1_555
Na3 O17 2.632137 1_555
H0 O2 0.989206 1_555
H1 O8 0.989206 1_555
H2 O18 1.025455 1_555
H2 O10 1.570012 1_555
H3 O15 1.025455 1_555
H3 O19 1.570012 1_555
H4 O2 0.983213 1_555
H5 O6 0.989206 1_555
H6 O6 0.983213 1_555
H7 O14 1.022808 1_555
H7 O10 1.569506 1_555
H8 O8 0.983213 1_555
H9 O1 1.022808 1_655
H9 O12 1.569506 1_554
H10 O17 0.989206 1_555
H11 O7 1.022808 1_655
H11 O5 1.569506 1_555
H12 O3 1.025455 1_555
H12 O12 1.570012 1_555
H13 O17 0.983213 1_555
H14 O13 1.025455 1_555
H14 O5 1.570012 1_555
H15 O16 1.022808 1_555
H15 O19 1.569506 1_556
O0 P3 1.510371 1_555
O1 P3 1.599327 1_555
O3 P2 1.586371 1_555
O4 P0 1.510371 1_555
O5 P2 1.541973 1_545
O7 P1 1.599327 1_555
O9 P1 1.510371 1_555
O10 P1 1.541973 1_565
O11 P2 1.510371 1_555
O12 P0 1.541973 1_555
O13 P0 1.586371 1_555
O14 P2 1.599327 1_555
O15 P1 1.586371 1_555
O16 P0 1.599327 1_555
O18 P3 1.586371 1_555
O19 P3 1.541973 1_555
