# generated using pymatgen
data_LaWClO4
_symmetry_space_group_name_H-M   'P 1'
_cell_length_a   3.93963200
_cell_length_b   6.05769100
_cell_length_c   19.54150100
_cell_angle_alpha   90.00000000
_cell_angle_beta   90.00000000
_cell_angle_gamma   90.00000000
_symmetry_Int_Tables_number   1
_chemical_formula_structural   LaWClO4
_chemical_formula_sum   'La4 W4 Cl4 O16'
_cell_volume   466.35935395
_cell_formula_units_Z   4
loop_
 _symmetry_equiv_pos_site_id
 _symmetry_equiv_pos_as_xyz
  1  'x, y, z'
loop_
 _atom_site_type_symbol
 _atom_site_label
 _atom_site_symmetry_multiplicity
 _atom_site_fract_x
 _atom_site_fract_y
 _atom_site_fract_z
 _atom_site_occupancy
  La  La0  1  0.25557900  0.75000000  0.10287200  1
  La  La1  1  0.74442100  0.25000000  0.89712800  1
  La  La2  1  0.24442100  0.75000000  0.60287200  1
  La  La3  1  0.75557900  0.25000000  0.39712800  1
  W  W0  1  0.70885300  0.25000000  0.67945600  1
  W  W1  1  0.79114700  0.25000000  0.17945600  1
  W  W2  1  0.29114700  0.75000000  0.32054400  1
  W  W3  1  0.20885300  0.75000000  0.82054400  1
  Cl  Cl0  1  0.74745300  0.75000000  0.48783700  1
  Cl  Cl1  1  0.75254700  0.75000000  0.98783700  1
  Cl  Cl2  1  0.25254700  0.25000000  0.51216300  1
  Cl  Cl3  1  0.24745300  0.25000000  0.01216300  1
  O  O0  1  0.25484100  0.01961900  0.36624300  1
  O  O1  1  0.75484100  0.51961900  0.13375700  1
  O  O2  1  0.75384700  0.25000000  0.27137100  1
  O  O3  1  0.75484100  0.98038100  0.13375700  1
  O  O4  1  0.26535600  0.25000000  0.17477300  1
  O  O5  1  0.24515900  0.48038100  0.86624300  1
  O  O6  1  0.74615300  0.25000000  0.77137100  1
  O  O7  1  0.24615300  0.75000000  0.72862900  1
  O  O8  1  0.25384700  0.75000000  0.22862900  1
  O  O9  1  0.25484100  0.48038100  0.36624300  1
  O  O10  1  0.23464400  0.25000000  0.67477300  1
  O  O11  1  0.76535600  0.75000000  0.32522700  1
  O  O12  1  0.73464400  0.75000000  0.82522700  1
  O  O13  1  0.74515900  0.98038100  0.63375700  1
  O  O14  1  0.24515900  0.01961900  0.86624300  1
  O  O15  1  0.74515900  0.51961900  0.63375700  1
loop_
_geom_bond_atom_site_label_1
_geom_bond_atom_site_label_2
_geom_bond_distance
_geom_bond_site_symmetry_2
La0 O8 2.457490 1_555
La0 O3 2.486086 1_555
La0 O1 2.486086 1_555
La0 O1 2.490689 1_455
La0 O3 2.490689 1_455
La1 O6 2.457490 1_555
La1 O14 2.486086 1_555
La1 O5 2.486086 1_555
La1 O5 2.490689 1_655
La1 O14 2.490689 1_655
La2 O7 2.457490 1_555
La2 O15 2.486086 1_455
La2 O13 2.486086 1_455
La2 O15 2.490689 1_555
La2 O13 2.490689 1_555
La3 O2 2.457490 1_555
La3 O0 2.486086 1_655
La3 O9 2.486086 1_655
La3 O9 2.490689 1_555
La3 O0 2.490689 1_555
Cl0 La2 2.981035 1_655
Cl0 La2 2.996779 1_555
Cl0 La3 3.509559 1_555
Cl0 La3 3.509559 1_565
Cl1 La0 2.981035 1_556
Cl1 La0 2.996779 1_656
Cl1 La1 3.509559 1_565
Cl1 La1 3.509559 1_555
Cl2 La3 2.981035 1_455
Cl2 La3 2.996779 1_555
Cl2 La2 3.509559 1_555
Cl2 La2 3.509559 1_545
Cl3 La1 2.981035 1_554
Cl3 La1 2.996779 1_454
Cl3 La0 3.509559 1_545
Cl3 La0 3.509559 1_555
O0 W2 1.866955 1_545
O1 W1 1.866955 1_555
O2 W1 1.802158 1_555
O3 W1 1.866955 1_565
O4 W1 1.870449 1_455
O4 W1 2.073444 1_555
O5 W3 1.866955 1_555
O6 W0 1.802158 1_555
O7 W3 1.802158 1_555
O8 W2 1.802158 1_555
O9 W2 1.866955 1_555
O10 W0 1.870449 1_555
O10 W0 2.073444 1_455
O11 W2 1.870449 1_555
O11 W2 2.073444 1_655
O12 W3 1.870449 1_655
O12 W3 2.073444 1_555
O13 W0 1.866955 1_565
O14 W3 1.866955 1_545
O15 W0 1.866955 1_555
