# generated using pymatgen
data_CsYZnSe3
_symmetry_space_group_name_H-M   'P 1'
_cell_length_a   8.37413678
_cell_length_b   8.37413678
_cell_length_c   11.03437800
_cell_angle_alpha   90.00000000
_cell_angle_beta   90.00000000
_cell_angle_gamma   151.08714853
_symmetry_Int_Tables_number   1
_chemical_formula_structural   CsYZnSe3
_chemical_formula_sum   'Cs2 Y2 Zn2 Se6'
_cell_volume   374.11518622
_cell_formula_units_Z   2
loop_
 _symmetry_equiv_pos_site_id
 _symmetry_equiv_pos_as_xyz
  1  'x, y, z'
loop_
 _atom_site_type_symbol
 _atom_site_label
 _atom_site_symmetry_multiplicity
 _atom_site_fract_x
 _atom_site_fract_y
 _atom_site_fract_z
 _atom_site_occupancy
  Cs  Cs0  1  0.74177200  0.25822800  0.25000000  1
  Cs  Cs1  1  0.25822800  0.74177200  0.75000000  1
  Y  Y0  1  0.00000000  0.00000000  0.00000000  1
  Y  Y1  1  0.00000000  0.00000000  0.50000000  1
  Zn  Zn0  1  0.46015400  0.53984600  0.25000000  1
  Zn  Zn1  1  0.53984600  0.46015400  0.75000000  1
  Se  Se0  1  0.38317800  0.61682200  0.05860600  1
  Se  Se1  1  0.94592100  0.05407900  0.75000000  1
  Se  Se2  1  0.38317800  0.61682200  0.44139400  1
  Se  Se3  1  0.05407900  0.94592100  0.25000000  1
  Se  Se4  1  0.61682200  0.38317800  0.94139400  1
  Se  Se5  1  0.61682200  0.38317800  0.55860600  1
loop_
_geom_bond_atom_site_label_1
_geom_bond_atom_site_label_2
_geom_bond_distance
_geom_bond_site_symmetry_2
Cs0 Se3 3.692743 1_655
Cs0 Se3 3.692743 1_545
Cs0 Se2 3.753651 1_655
Cs0 Se2 3.753651 1_545
Cs0 Se0 3.753651 1_655
Cs0 Se0 3.753651 1_545
Cs0 Se5 3.962619 1_555
Cs0 Se4 3.962619 1_554
Cs1 Se1 3.692743 1_565
Cs1 Se1 3.692743 1_455
Cs1 Se4 3.753651 1_565
Cs1 Se4 3.753651 1_455
Cs1 Se5 3.753651 1_565
Cs1 Se5 3.753651 1_455
Cs1 Se0 3.962619 1_556
Cs1 Se2 3.962619 1_555
Se0 Zn0 2.453298 1_555
Se0 Y0 2.894507 1_555
Se0 Y0 2.894507 1_665
Se1 Zn1 2.586651 1_655
Se1 Zn1 2.586651 1_545
Se1 Y1 2.894661 1_655
Se1 Y0 2.894661 1_656
Se2 Zn0 2.453298 1_555
Se2 Y1 2.894507 1_555
Se2 Y1 2.894507 1_665
Se3 Zn0 2.586651 1_565
Se3 Zn0 2.586651 1_455
Se3 Y0 2.894661 1_565
Se3 Y1 2.894661 1_565
Se4 Zn1 2.453298 1_555
Se4 Y0 2.894507 1_556
Se4 Y0 2.894507 1_666
Se5 Zn1 2.453298 1_555
Se5 Y1 2.894507 1_555
Se5 Y1 2.894507 1_665
