# generated using pymatgen
data_Ce3CCl5
_symmetry_space_group_name_H-M   'P 1'
_cell_length_a   8.24559266
_cell_length_b   8.24623153
_cell_length_c   15.85848000
_cell_angle_alpha   83.62282091
_cell_angle_beta   83.59984562
_cell_angle_gamma   63.78814334
_symmetry_Int_Tables_number   1
_chemical_formula_structural   Ce3CCl5
_chemical_formula_sum   'Ce12 C4 Cl20'
_cell_volume   959.06932263
_cell_formula_units_Z   4
loop_
 _symmetry_equiv_pos_site_id
 _symmetry_equiv_pos_as_xyz
  1  'x, y, z'
loop_
 _atom_site_type_symbol
 _atom_site_label
 _atom_site_symmetry_multiplicity
 _atom_site_fract_x
 _atom_site_fract_y
 _atom_site_fract_z
 _atom_site_occupancy
  Ce  Ce0  1  0.99802122  0.28596676  0.04624084  1
  Ce  Ce1  1  0.00197878  0.71403324  0.95375916  1
  Ce  Ce2  1  0.90925544  0.65542978  0.20237064  1
  Ce  Ce3  1  0.54056527  0.71488332  0.06241685  1
  Ce  Ce4  1  0.28632254  0.99811036  0.54617210  1
  Ce  Ce5  1  0.09074456  0.34457022  0.79762936  1
  Ce  Ce6  1  0.45943473  0.28511668  0.93758315  1
  Ce  Ce7  1  0.71367746  0.00188964  0.45382790  1
  Ce  Ce8  1  0.28527195  0.45957034  0.43757449  1
  Ce  Ce9  1  0.34451692  0.09058918  0.29751812  1
  Ce  Ce10  1  0.71472805  0.54042966  0.56242551  1
  Ce  Ce11  1  0.65548308  0.90941082  0.70248188  1
  C  C0  1  0.15150922  0.38928049  0.92980745  1
  C  C1  1  0.38931332  0.15147851  0.42975562  1
  C  C2  1  0.61068668  0.84852149  0.57024438  1
  C  C3  1  0.84849078  0.61071951  0.07019255  1
  Cl  Cl0  1  0.10096292  0.85037048  0.09870746  1
  Cl  Cl1  1  0.09994206  0.37896808  0.59516353  1
  Cl  Cl2  1  0.85037107  0.10080750  0.59861030  1
  Cl  Cl3  1  0.01529556  0.71994713  0.76521818  1
  Cl  Cl4  1  0.98470444  0.28005287  0.23478182  1
  Cl  Cl5  1  0.37979639  0.65502974  0.91854459  1
  Cl  Cl6  1  0.62020361  0.34497026  0.08145541  1
  Cl  Cl7  1  0.46367080  0.28308590  0.75657503  1
  Cl  Cl8  1  0.27997793  0.98481043  0.73488272  1
  Cl  Cl9  1  0.37909910  0.10018960  0.09517926  1
  Cl  Cl10  1  0.34472414  0.62032268  0.58154674  1
  Cl  Cl11  1  0.72002207  0.01518957  0.26511728  1
  Cl  Cl12  1  0.65527586  0.37967732  0.41845326  1
  Cl  Cl13  1  0.71717383  0.53648888  0.74325546  1
  Cl  Cl14  1  0.53632920  0.71691410  0.24342497  1
  Cl  Cl15  1  0.62090090  0.89981040  0.90482074  1
  Cl  Cl16  1  0.89903708  0.14962952  0.90129254  1
  Cl  Cl17  1  0.90005794  0.62103192  0.40483647  1
  Cl  Cl18  1  0.28282617  0.46351112  0.25674454  1
  Cl  Cl19  1  0.14962893  0.89919250  0.40138970  1
loop_
_geom_bond_atom_site_label_1
_geom_bond_atom_site_label_2
_geom_bond_distance
_geom_bond_site_symmetry_2
Ce0 Cl6 2.930420 1_555
Ce0 Cl9 2.974878 1_655
Ce0 Cl4 2.975486 1_555
Ce0 Cl16 3.002821 1_554
Ce0 Cl0 3.334000 1_645
Ce1 Cl5 2.930420 1_555
Ce1 Cl15 2.974878 1_455
Ce1 Cl3 2.975486 1_555
Ce1 Cl0 3.002821 1_556
Ce1 Cl16 3.334000 1_465
Ce2 Cl4 2.872226 1_555
Ce2 Cl14 2.895910 1_555
Ce2 Cl11 2.906261 1_565
Ce2 Cl18 2.952811 1_655
Ce2 Cl0 2.977207 1_655
Ce2 Cl17 3.187137 1_555
Ce3 Cl6 2.810223 1_555
Ce3 Cl14 2.868651 1_555
Ce3 Cl9 2.934877 1_565
Ce3 Cl15 2.947382 1_554
Ce3 Cl5 2.951110 1_554
Ce3 Cl0 3.289185 1_555
Ce4 Cl10 2.932335 1_555
Ce4 Cl1 2.973412 1_565
Ce4 Cl8 2.977928 1_555
Ce4 Cl19 3.002115 1_555
Ce4 Cl2 3.336351 1_465
Ce5 Cl3 2.872226 1_555
Ce5 Cl7 2.895910 1_555
Ce5 Cl8 2.906261 1_545
Ce5 Cl13 2.952811 1_455
Ce5 Cl16 2.977207 1_455
Ce5 Cl1 3.187137 1_555
Ce6 Cl5 2.810223 1_555
Ce6 Cl7 2.868651 1_555
Ce6 Cl15 2.934877 1_545
Ce6 Cl9 2.947382 1_556
Ce6 Cl6 2.951110 1_556
Ce6 Cl16 3.289185 1_555
Ce7 Cl12 2.932335 1_555
Ce7 Cl17 2.973412 1_545
Ce7 Cl11 2.977928 1_555
Ce7 Cl2 3.002115 1_555
Ce7 Cl19 3.336351 1_645
Ce8 Cl12 2.810077 1_555
Ce8 Cl18 2.866481 1_555
Ce8 Cl17 2.934189 1_455
Ce8 Cl1 2.949488 1_555
Ce8 Cl10 2.950657 1_555
Ce8 Cl19 3.289626 1_555
Ce9 Cl11 2.872820 1_555
Ce9 Cl18 2.895419 1_555
Ce9 Cl4 2.907079 1_455
Ce9 Cl14 2.951601 1_545
Ce9 Cl19 2.976509 1_545
Ce9 Cl9 3.184872 1_555
Ce10 Cl10 2.810077 1_555
Ce10 Cl13 2.866481 1_555
Ce10 Cl1 2.934189 1_655
Ce10 Cl17 2.949488 1_555
Ce10 Cl12 2.950657 1_555
Ce10 Cl2 3.289626 1_555
Ce11 Cl8 2.872820 1_555
Ce11 Cl13 2.895419 1_555
Ce11 Cl3 2.907079 1_655
Ce11 Cl7 2.951601 1_565
Ce11 Cl2 2.976509 1_565
Ce11 Cl15 3.184872 1_555
C0 Ce6 2.306375 1_555
C0 Ce5 2.312965 1_555
C0 Ce0 2.412261 1_456
C0 Ce1 2.457811 1_555
C1 Ce8 2.308002 1_555
C1 Ce9 2.314467 1_555
C1 Ce4 2.410316 1_545
C1 Ce7 2.455457 1_555
C2 Ce10 2.308002 1_555
C2 Ce11 2.314467 1_555
C2 Ce7 2.410316 1_565
C2 Ce4 2.455457 1_555
C3 Ce3 2.306375 1_555
C3 Ce2 2.312965 1_555
C3 Ce1 2.412261 1_654
C3 Ce0 2.457811 1_555
