# generated using pymatgen
data_GdInPt
_symmetry_space_group_name_H-M   'P 1'
_cell_length_a   4.30823900
_cell_length_b   8.23750783
_cell_length_c   8.23750783
_cell_angle_alpha   119.99999867
_cell_angle_beta   90.00000000
_cell_angle_gamma   90.00000000
_symmetry_Int_Tables_number   1
_chemical_formula_structural   GdInPt
_chemical_formula_sum   'Gd3 In3 Pt3'
_cell_volume   253.17575081
_cell_formula_units_Z   3
loop_
 _symmetry_equiv_pos_site_id
 _symmetry_equiv_pos_as_xyz
  1  'x, y, z'
loop_
 _atom_site_type_symbol
 _atom_site_label
 _atom_site_symmetry_multiplicity
 _atom_site_fract_x
 _atom_site_fract_y
 _atom_site_fract_z
 _atom_site_occupancy
  Gd  Gd0  1  0.50000000  0.40755500  0.00000000  1
  Gd  Gd1  1  0.50000000  0.00000000  0.40755500  1
  Gd  Gd2  1  0.50000000  0.59244500  0.59244500  1
  In  In0  1  0.00000000  0.74951800  0.00000000  1
  In  In1  1  0.00000000  0.00000000  0.74951800  1
  In  In2  1  0.00000000  0.25048200  0.25048200  1
  Pt  Pt0  1  0.50000000  0.00000000  0.00000000  1
  Pt  Pt1  1  0.00000000  0.66666700  0.33333300  1
  Pt  Pt2  1  0.00000000  0.33333300  0.66666700  1
loop_
_geom_bond_atom_site_label_1
_geom_bond_atom_site_label_2
_geom_bond_distance
_geom_bond_site_symmetry_2
Gd0 Pt2 3.297701 1_654
Gd0 Pt2 3.297701 1_554
Gd0 Pt1 3.297703 1_555
Gd0 Pt1 3.297703 1_655
Gd0 Pt0 3.357238 1_555
Gd0 In0 3.546165 1_655
Gd0 In0 3.546165 1_555
Gd0 In2 3.638891 1_555
Gd0 In2 3.638891 1_655
Gd0 In1 3.638891 1_654
Gd0 In1 3.638891 1_554
Gd1 Pt1 3.297701 1_545
Gd1 Pt1 3.297701 1_645
Gd1 Pt2 3.297703 1_655
Gd1 Pt2 3.297703 1_555
Gd1 Pt0 3.357238 1_555
Gd1 In1 3.546165 1_655
Gd1 In1 3.546165 1_555
Gd1 In2 3.638891 1_555
Gd1 In2 3.638891 1_655
Gd1 In0 3.638891 1_545
Gd1 In0 3.638891 1_645
Gd2 Pt1 3.297707 1_555
Gd2 Pt2 3.297707 1_555
Gd2 Pt1 3.297707 1_655
Gd2 Pt2 3.297707 1_655
Gd2 Pt0 3.357238 1_566
Gd2 In2 3.546165 1_655
Gd2 In2 3.546165 1_555
Gd2 In0 3.638891 1_656
Gd2 In0 3.638891 1_556
Gd2 In1 3.638891 1_565
Gd2 In1 3.638891 1_665
In0 Pt0 2.982890 1_465
In0 Pt0 2.982890 1_565
In0 Pt1 3.143148 1_555
In0 Pt2 3.143153 1_554
In1 Pt0 2.982890 1_456
In1 Pt0 2.982890 1_556
In1 Pt2 3.143148 1_555
In1 Pt1 3.143153 1_545
In2 Pt0 2.982890 1_555
In2 Pt0 2.982890 1_455
In2 Pt1 3.143156 1_555
In2 Pt2 3.143156 1_555
