# generated using pymatgen
data_NaP(WO4)2
_symmetry_space_group_name_H-M   'P 1'
_cell_length_a   5.46769200
_cell_length_b   6.84767700
_cell_length_c   9.15564499
_cell_angle_alpha   80.80590455
_cell_angle_beta   90.00000000
_cell_angle_gamma   90.00000000
_symmetry_Int_Tables_number   1
_chemical_formula_structural   NaP(WO4)2
_chemical_formula_sum   'Na2 P2 W4 O16'
_cell_volume   338.39240516
_cell_formula_units_Z   2
loop_
 _symmetry_equiv_pos_site_id
 _symmetry_equiv_pos_as_xyz
  1  'x, y, z'
loop_
 _atom_site_type_symbol
 _atom_site_label
 _atom_site_symmetry_multiplicity
 _atom_site_fract_x
 _atom_site_fract_y
 _atom_site_fract_z
 _atom_site_occupancy
  Na  Na0  1  0.25000000  0.27501700  0.56379800  1
  Na  Na1  1  0.75000000  0.72498300  0.43620200  1
  P  P0  1  0.25000000  0.77778000  0.62339800  1
  P  P1  1  0.75000000  0.22222000  0.37660200  1
  W  W0  1  0.75000000  0.05043900  0.75313500  1
  W  W1  1  0.25000000  0.35983900  0.90811300  1
  W  W2  1  0.75000000  0.64016100  0.09188700  1
  W  W3  1  0.25000000  0.94956100  0.24686500  1
  O  O0  1  0.48521100  0.89004900  0.65125400  1
  O  O1  1  0.98521100  0.10995100  0.34874600  1
  O  O2  1  0.25000000  0.56570900  0.70929200  1
  O  O3  1  0.49189300  0.21849600  0.80284400  1
  O  O4  1  0.00810700  0.21849600  0.80284400  1
  O  O5  1  0.75000000  0.43429100  0.29070800  1
  O  O6  1  0.51478900  0.10995100  0.34874600  1
  O  O7  1  0.50000000  0.50000000  0.00000000  1
  O  O8  1  0.25000000  0.75408600  0.45613600  1
  O  O9  1  0.01478900  0.89004900  0.65125400  1
  O  O10  1  0.75000000  0.85863400  0.91921700  1
  O  O11  1  0.99189300  0.78150400  0.19715600  1
  O  O12  1  0.50810700  0.78150400  0.19715600  1
  O  O13  1  0.00000000  0.50000000  0.00000000  1
  O  O14  1  0.75000000  0.24591400  0.54386400  1
  O  O15  1  0.25000000  0.14136600  0.08078300  1
loop_
_geom_bond_atom_site_label_1
_geom_bond_atom_site_label_2
_geom_bond_distance
_geom_bond_site_symmetry_2
Na0 O3 2.533461 1_555
Na0 O4 2.533461 1_555
Na0 O2 2.565962 1_555
Na0 O14 2.749284 1_555
Na0 O14 2.749284 1_455
Na0 O6 2.821633 1_555
Na0 O1 2.821633 1_455
Na0 O0 2.927421 1_545
Na0 O9 2.927421 1_545
Na1 O11 2.533461 1_555
Na1 O12 2.533461 1_555
Na1 O5 2.565962 1_555
Na1 O8 2.749284 1_555
Na1 O8 2.749284 1_655
Na1 O9 2.821633 1_655
Na1 O0 2.821633 1_555
Na1 O1 2.927421 1_565
Na1 O6 2.927421 1_565
O0 P0 1.540351 1_555
O0 W0 2.121276 1_565
O1 P1 1.540351 1_555
O1 W3 2.121276 1_645
O2 P0 1.537000 1_555
O2 W1 2.116817 1_555
O3 W0 1.921059 1_555
O3 W1 1.978144 1_555
O4 W0 1.921059 1_455
O4 W1 1.978144 1_555
O5 P1 1.537000 1_555
O5 W2 2.116817 1_555
O6 P1 1.540351 1_555
O6 W3 2.121276 1_545
O7 W2 1.937895 1_555
O7 W1 1.937895 1_554
O8 P0 1.565530 1_555
O8 W3 2.154820 1_555
O9 P0 1.540351 1_555
O9 W0 2.121276 1_465
O10 W0 1.843649 1_565
O10 W2 1.995392 1_556
O11 W3 1.921059 1_655
O11 W2 1.978144 1_555
O12 W3 1.921059 1_555
O12 W2 1.978144 1_555
O13 W2 1.937895 1_455
O13 W1 1.937895 1_554
O14 P1 1.565530 1_555
O14 W0 2.154820 1_555
O15 W3 1.843649 1_545
O15 W1 1.995392 1_554
