# generated using pymatgen
data_Yb4Ge3(O3F2)3
_symmetry_space_group_name_H-M   'P 1'
_cell_length_a   9.37337054
_cell_length_b   9.37337054
_cell_length_c   7.09978100
_cell_angle_alpha   90.00000000
_cell_angle_beta   90.00000000
_cell_angle_gamma   108.62254947
_symmetry_Int_Tables_number   1
_chemical_formula_structural   Yb4Ge3(O3F2)3
_chemical_formula_sum   'Yb8 Ge6 O18 F12'
_cell_volume   591.12754039
_cell_formula_units_Z   2
loop_
 _symmetry_equiv_pos_site_id
 _symmetry_equiv_pos_as_xyz
  1  'x, y, z'
loop_
 _atom_site_type_symbol
 _atom_site_label
 _atom_site_symmetry_multiplicity
 _atom_site_fract_x
 _atom_site_fract_y
 _atom_site_fract_z
 _atom_site_occupancy
  Yb  Yb0  1  0.91110800  0.18001700  0.25000000  1
  Yb  Yb1  1  0.85004600  0.60606200  0.25000000  1
  Yb  Yb2  1  0.39393800  0.14995400  0.75000000  1
  Yb  Yb3  1  0.60606200  0.85004600  0.25000000  1
  Yb  Yb4  1  0.81998300  0.08889200  0.75000000  1
  Yb  Yb5  1  0.18001700  0.91110800  0.25000000  1
  Yb  Yb6  1  0.14995400  0.39393800  0.75000000  1
  Yb  Yb7  1  0.08889200  0.81998300  0.75000000  1
  Ge  Ge0  1  0.76819600  0.46548600  0.75000000  1
  Ge  Ge1  1  0.46548600  0.76819600  0.75000000  1
  Ge  Ge2  1  0.50000000  0.50000000  0.50000000  1
  Ge  Ge3  1  0.53451400  0.23180400  0.25000000  1
  Ge  Ge4  1  0.50000000  0.50000000  0.00000000  1
  Ge  Ge5  1  0.23180400  0.53451400  0.25000000  1
  O  O0  1  0.55794600  0.55794600  0.25000000  1
  O  O1  1  0.03161000  0.45556500  0.25000000  1
  O  O2  1  0.71096700  0.53578800  0.54046600  1
  O  O3  1  0.45556500  0.03161000  0.25000000  1
  O  O4  1  0.53578800  0.71096700  0.54046600  1
  O  O5  1  0.67662500  0.26853400  0.75000000  1
  O  O6  1  0.54443500  0.96839000  0.75000000  1
  O  O7  1  0.46421200  0.28903300  0.45953400  1
  O  O8  1  0.46421200  0.28903300  0.04046600  1
  O  O9  1  0.44205400  0.44205400  0.75000000  1
  O  O10  1  0.73146600  0.32337500  0.25000000  1
  O  O11  1  0.26853400  0.67662500  0.75000000  1
  O  O12  1  0.32337500  0.73146600  0.25000000  1
  O  O13  1  0.96839000  0.54443500  0.75000000  1
  O  O14  1  0.28903300  0.46421200  0.45953400  1
  O  O15  1  0.71096700  0.53578800  0.95953400  1
  O  O16  1  0.28903300  0.46421200  0.04046600  1
  O  O17  1  0.53578800  0.71096700  0.95953400  1
  F  F0  1  0.17292000  0.17292000  0.75000000  1
  F  F1  1  0.27507300  0.96269500  0.94969300  1
  F  F2  1  0.82708000  0.82708000  0.25000000  1
  F  F3  1  0.03730500  0.72492700  0.44969300  1
  F  F4  1  0.03730500  0.72492700  0.05030700  1
  F  F5  1  0.96269500  0.27507300  0.94969300  1
  F  F6  1  0.27507300  0.96269500  0.55030700  1
  F  F7  1  0.96269500  0.27507300  0.55030700  1
  F  F8  1  0.72492700  0.03730500  0.44969300  1
  F  F9  1  0.89662400  0.89662400  0.75000000  1
  F  F10  1  0.10337600  0.10337600  0.25000000  1
  F  F11  1  0.72492700  0.03730500  0.05030700  1
loop_
_geom_bond_atom_site_label_1
_geom_bond_atom_site_label_2
_geom_bond_distance
_geom_bond_site_symmetry_2
Ge0 O5 1.769978 1_555
Ge0 O2 1.777876 1_555
Ge0 O15 1.777876 1_555
Ge0 O13 1.783810 1_555
Ge1 O11 1.769978 1_555
Ge1 O4 1.777876 1_555
Ge1 O17 1.777876 1_555
Ge1 O6 1.783810 1_555
Ge2 O9 1.884686 1_555
Ge2 O0 1.884686 1_555
Ge2 O4 1.918803 1_555
Ge2 O14 1.918803 1_555
Ge2 O2 1.918803 1_555
Ge2 O7 1.918803 1_555
Ge3 O10 1.769978 1_555
Ge3 O8 1.777876 1_555
Ge3 O7 1.777876 1_555
Ge3 O3 1.783810 1_555
Ge4 O9 1.884686 1_554
Ge4 O0 1.884686 1_555
Ge4 O17 1.918803 1_554
Ge4 O16 1.918803 1_555
Ge4 O15 1.918803 1_554
Ge4 O8 1.918803 1_555
Ge5 O12 1.769978 1_555
Ge5 O14 1.777876 1_555
Ge5 O16 1.777876 1_555
Ge5 O1 1.783810 1_555
O0 Yb3 2.628914 1_555
O0 Yb1 2.628914 1_555
O1 Yb0 2.466482 1_455
O1 Yb1 2.533694 1_455
O2 Yb1 2.416152 1_555
O3 Yb5 2.466482 1_545
O3 Yb3 2.533694 1_545
O4 Yb3 2.416152 1_555
O5 Yb4 2.467002 1_555
O5 Yb2 2.524979 1_555
O6 Yb4 2.466482 1_565
O6 Yb2 2.533694 1_565
O7 Yb2 2.416152 1_555
O8 Yb2 2.416152 1_554
O9 Yb6 2.628914 1_555
O9 Yb2 2.628914 1_555
O10 Yb0 2.467002 1_555
O10 Yb1 2.524979 1_555
O11 Yb7 2.467002 1_555
O11 Yb6 2.524979 1_555
O12 Yb5 2.467002 1_555
O12 Yb3 2.524979 1_555
O13 Yb7 2.466482 1_655
O13 Yb6 2.533694 1_655
O14 Yb6 2.416152 1_555
O15 Yb1 2.416152 1_556
O16 Yb6 2.416152 1_554
O17 Yb3 2.416152 1_556
F0 Yb2 2.150125 1_555
F0 Yb6 2.150125 1_555
F1 Yb2 2.254630 1_565
F1 Yb5 2.301834 1_556
F1 Yb7 2.313892 1_555
F2 Yb1 2.150125 1_555
F2 Yb3 2.150125 1_555
F3 Yb1 2.254630 1_455
F3 Yb7 2.301834 1_555
F3 Yb5 2.313892 1_555
F4 Yb1 2.254630 1_455
F4 Yb7 2.301834 1_554
F4 Yb5 2.313892 1_555
F5 Yb6 2.254630 1_655
F5 Yb0 2.301834 1_556
F5 Yb4 2.313892 1_555
F6 Yb2 2.254630 1_565
F6 Yb5 2.301834 1_555
F6 Yb7 2.313892 1_555
F7 Yb6 2.254630 1_655
F7 Yb0 2.301834 1_555
F7 Yb4 2.313892 1_555
F8 Yb3 2.254630 1_545
F8 Yb4 2.301834 1_555
F8 Yb0 2.313892 1_555
F9 Yb7 2.142629 1_655
F9 Yb4 2.142629 1_565
F10 Yb5 2.142629 1_545
F10 Yb0 2.142629 1_455
F11 Yb3 2.254630 1_545
F11 Yb4 2.301834 1_554
F11 Yb0 2.313892 1_555
