# generated using pymatgen
data_Nd3U(ClO2)3
_symmetry_space_group_name_H-M   'P 1'
_cell_length_a   9.46061035
_cell_length_b   9.46061035
_cell_length_c   5.58107000
_cell_angle_alpha   90.00000000
_cell_angle_beta   90.00000000
_cell_angle_gamma   120.00000245
_symmetry_Int_Tables_number   1
_chemical_formula_structural   Nd3U(ClO2)3
_chemical_formula_sum   'Nd6 U2 Cl6 O12'
_cell_volume   432.59988751
_cell_formula_units_Z   2
loop_
 _symmetry_equiv_pos_site_id
 _symmetry_equiv_pos_as_xyz
  1  'x, y, z'
loop_
 _atom_site_type_symbol
 _atom_site_label
 _atom_site_symmetry_multiplicity
 _atom_site_fract_x
 _atom_site_fract_y
 _atom_site_fract_z
 _atom_site_occupancy
  Nd  Nd0  1  0.59482100  0.90965100  0.75000000  1
  Nd  Nd1  1  0.40517900  0.09034900  0.25000000  1
  Nd  Nd2  1  0.09034900  0.68517000  0.75000000  1
  Nd  Nd3  1  0.31483000  0.40517900  0.75000000  1
  Nd  Nd4  1  0.68517000  0.59482100  0.25000000  1
  Nd  Nd5  1  0.90965100  0.31483000  0.25000000  1
  U  U0  1  0.66666700  0.33333300  0.75000000  1
  U  U1  1  0.33333300  0.66666700  0.25000000  1
  Cl  Cl0  1  0.18841800  0.24766800  0.25000000  1
  Cl  Cl1  1  0.94075000  0.18841800  0.75000000  1
  Cl  Cl2  1  0.24766800  0.05925000  0.75000000  1
  Cl  Cl3  1  0.05925000  0.81158200  0.25000000  1
  Cl  Cl4  1  0.75233200  0.94075000  0.25000000  1
  Cl  Cl5  1  0.81158200  0.75233200  0.75000000  1
  O  O0  1  0.63450600  0.15077300  0.50567500  1
  O  O1  1  0.15077300  0.51626700  0.00567500  1
  O  O2  1  0.51626700  0.36549400  0.99432500  1
  O  O3  1  0.84922700  0.48373300  0.99432500  1
  O  O4  1  0.36549400  0.84922700  0.00567500  1
  O  O5  1  0.48373300  0.63450600  0.49432500  1
  O  O6  1  0.36549400  0.84922700  0.49432500  1
  O  O7  1  0.48373300  0.63450600  0.00567500  1
  O  O8  1  0.84922700  0.48373300  0.50567500  1
  O  O9  1  0.15077300  0.51626700  0.49432500  1
  O  O10  1  0.51626700  0.36549400  0.50567500  1
  O  O11  1  0.63450600  0.15077300  0.99432500  1
loop_
_geom_bond_atom_site_label_1
_geom_bond_atom_site_label_2
_geom_bond_distance
_geom_bond_site_symmetry_2
Nd0 O6 2.414489 1_555
Nd0 O4 2.414489 1_556
Nd0 O11 2.519444 1_565
Nd0 O0 2.519444 1_565
Nd0 O5 2.679701 1_555
Nd0 O7 2.679701 1_556
Nd1 O0 2.414489 1_555
Nd1 O11 2.414489 1_554
Nd1 O6 2.519444 1_545
Nd1 O4 2.519444 1_545
Nd1 O2 2.679701 1_554
Nd1 O10 2.679701 1_555
Nd2 O9 2.414489 1_555
Nd2 O1 2.414489 1_556
Nd2 O3 2.519444 1_455
Nd2 O8 2.519444 1_455
Nd2 O6 2.679701 1_555
Nd2 O4 2.679701 1_556
Nd3 O5 2.414489 1_555
Nd3 O7 2.414489 1_556
Nd3 O10 2.519444 1_555
Nd3 O2 2.519444 1_555
Nd3 O9 2.679701 1_555
Nd3 O1 2.679701 1_556
Nd4 O10 2.414489 1_555
Nd4 O2 2.414489 1_554
Nd4 O5 2.519444 1_555
Nd4 O7 2.519444 1_555
Nd4 O8 2.679701 1_555
Nd4 O3 2.679701 1_554
Nd5 O8 2.414489 1_555
Nd5 O3 2.414489 1_554
Nd5 O1 2.519444 1_655
Nd5 O9 2.519444 1_655
Nd5 O0 2.679701 1_555
Nd5 O11 2.679701 1_554
Cl0 Nd5 3.005800 1_455
Cl0 Nd1 3.077757 1_555
Cl0 Nd3 3.107374 1_554
Cl0 Nd3 3.107374 1_555
Cl1 Nd0 3.005800 1_545
Cl1 Nd3 3.077757 1_655
Cl1 Nd5 3.107374 1_556
Cl1 Nd5 3.107374 1_555
Cl2 Nd3 3.005800 1_555
Cl2 Nd2 3.077757 1_545
Cl2 Nd1 3.107374 1_555
Cl2 Nd1 3.107374 1_556
Cl3 Nd1 3.005800 1_565
Cl3 Nd4 3.077757 1_455
Cl3 Nd2 3.107374 1_555
Cl3 Nd2 3.107374 1_554
Cl4 Nd4 3.005800 1_555
Cl4 Nd5 3.077757 1_565
Cl4 Nd0 3.107374 1_555
Cl4 Nd0 3.107374 1_554
Cl5 Nd2 3.005800 1_655
Cl5 Nd0 3.077757 1_555
Cl5 Nd4 3.107374 1_556
Cl5 Nd4 3.107374 1_555
O0 U0 2.099867 1_555
O1 U1 2.099869 1_555
O2 U0 2.099874 1_555
O3 U0 2.099869 1_555
O4 U1 2.099867 1_555
O5 U1 2.099874 1_555
O6 U1 2.099867 1_555
O7 U1 2.099874 1_555
O8 U0 2.099869 1_555
O9 U1 2.099869 1_555
O10 U0 2.099874 1_555
O11 U0 2.099867 1_555
