# generated using pymatgen
data_Li3Fe2(PO4)3
_symmetry_space_group_name_H-M   'P 1'
_cell_length_a   8.44448538
_cell_length_b   8.44448538
_cell_length_c   8.67384066
_cell_angle_alpha   61.48212663
_cell_angle_beta   61.48212663
_cell_angle_gamma   63.10444139
_symmetry_Int_Tables_number   1
_chemical_formula_structural   Li3Fe2(PO4)3
_chemical_formula_sum   'Li6 Fe4 P6 O24'
_cell_volume   456.91745890
_cell_formula_units_Z   2
loop_
 _symmetry_equiv_pos_site_id
 _symmetry_equiv_pos_as_xyz
  1  'x, y, z'
loop_
 _atom_site_type_symbol
 _atom_site_label
 _atom_site_symmetry_multiplicity
 _atom_site_fract_x
 _atom_site_fract_y
 _atom_site_fract_z
 _atom_site_occupancy
  Li  Li0  1  0.23540700  0.16028100  0.35821500  1
  Li  Li1  1  0.16028100  0.23540700  0.85821500  1
  Li  Li2  1  0.00000000  0.50000000  0.50000000  1
  Li  Li3  1  0.83971900  0.76459300  0.14178500  1
  Li  Li4  1  0.50000000  0.00000000  0.00000000  1
  Li  Li5  1  0.76459300  0.83972000  0.64178500  1
  Fe  Fe0  1  0.63732600  0.14804000  0.14705900  1
  Fe  Fe1  1  0.14804000  0.63732600  0.64705900  1
  Fe  Fe2  1  0.85196000  0.36267400  0.35294100  1
  Fe  Fe3  1  0.36267400  0.85196000  0.85294100  1
  P  P0  1  0.25534200  0.44002300  0.03197400  1
  P  P1  1  0.95519800  0.04480200  0.75000000  1
  P  P2  1  0.44002300  0.25534200  0.53197400  1
  P  P3  1  0.55997700  0.74465800  0.46802600  1
  P  P4  1  0.04480200  0.95519800  0.25000000  1
  P  P5  1  0.74465800  0.55997700  0.96802600  1
  O  O0  1  0.12219300  0.01399700  0.80076700  1
  O  O1  1  0.01399700  0.12219300  0.30076700  1
  O  O2  1  0.09941200  0.43883300  0.22639400  1
  O  O3  1  0.40789800  0.24594100  0.06994000  1
  O  O4  1  0.18658000  0.44631200  0.89263400  1
  O  O5  1  0.76972400  0.05261500  0.91933200  1
  O  O6  1  0.32307600  0.61097600  0.95687100  1
  O  O7  1  0.43883300  0.09941200  0.72639400  1
  O  O8  1  0.24594100  0.40789800  0.56994000  1
  O  O9  1  0.44631200  0.18658000  0.39263400  1
  O  O10  1  0.38902400  0.67692400  0.54312900  1
  O  O11  1  0.05261500  0.76972400  0.41933200  1
  O  O12  1  0.94738500  0.23027600  0.58066800  1
  O  O13  1  0.61097600  0.32307600  0.45687100  1
  O  O14  1  0.55368800  0.81342000  0.60736600  1
  O  O15  1  0.75405900  0.59210200  0.43006000  1
  O  O16  1  0.56116700  0.90058800  0.27360600  1
  O  O17  1  0.67692400  0.38902400  0.04312900  1
  O  O18  1  0.23027600  0.94738500  0.08066800  1
  O  O19  1  0.81342000  0.55368800  0.10736600  1
  O  O20  1  0.59210200  0.75405900  0.93006000  1
  O  O21  1  0.90058800  0.56116700  0.77360600  1
  O  O22  1  0.98600300  0.87780700  0.69923300  1
  O  O23  1  0.87780700  0.98600300  0.19923300  1
loop_
_geom_bond_atom_site_label_1
_geom_bond_atom_site_label_2
_geom_bond_distance
_geom_bond_site_symmetry_2
Li0 O9 2.058934 1_555
Li0 O2 2.097829 1_555
Li0 O3 2.155363 1_555
Li0 O12 2.301132 1_455
Li0 O1 2.331139 1_555
Li1 O4 2.058934 1_555
Li1 O7 2.097829 1_555
Li1 O8 2.155363 1_555
Li1 O18 2.301132 1_546
Li1 O0 2.331139 1_555
Li2 O8 2.139472 1_555
Li2 O15 2.139472 1_455
Li2 O11 2.229749 1_555
Li2 O12 2.229749 1_455
Li2 O21 2.340837 1_455
Li2 O2 2.340837 1_555
Li3 O19 2.058934 1_555
Li3 O16 2.097829 1_555
Li3 O15 2.155363 1_555
Li3 O5 2.301132 1_564
Li3 O23 2.331139 1_555
Li4 O3 2.139472 1_555
Li4 O20 2.139472 1_544
Li4 O5 2.229749 1_554
Li4 O18 2.229749 1_545
Li4 O16 2.340837 1_545
Li4 O7 2.340837 1_554
Li5 O14 2.058939 1_555
Li5 O21 2.097834 1_555
Li5 O20 2.155364 1_555
Li5 O11 2.301133 1_655
Li5 O22 2.331134 1_555
Fe0 O17 1.908338 1_555
Fe0 O23 1.993306 1_545
Fe0 O3 2.035869 1_555
Fe0 O9 2.037449 1_555
Fe0 O16 2.082436 1_545
Fe0 O5 2.096912 1_554
Fe1 O10 1.908338 1_555
Fe1 O22 1.993306 1_455
Fe1 O8 2.035869 1_555
Fe1 O4 2.037449 1_555
Fe1 O21 2.082436 1_455
Fe1 O11 2.096912 1_555
Fe2 O13 1.908338 1_555
Fe2 O1 1.993306 1_655
Fe2 O15 2.035869 1_555
Fe2 O19 2.037449 1_555
Fe2 O2 2.082436 1_655
Fe2 O12 2.096912 1_555
Fe3 O6 1.908338 1_555
Fe3 O0 1.993306 1_565
Fe3 O20 2.035869 1_555
Fe3 O14 2.037449 1_555
Fe3 O7 2.082436 1_565
Fe3 O18 2.096912 1_556
O0 P1 1.549799 1_455
O1 P4 1.549799 1_545
O2 P0 1.566287 1_555
O3 P0 1.560015 1_555
O4 P0 1.543263 1_556
O5 P1 1.554715 1_555
O6 P0 1.526049 1_556
O7 P2 1.566287 1_555
O8 P2 1.560015 1_555
O9 P2 1.543263 1_555
O10 P3 1.526049 1_555
O11 P4 1.554715 1_555
O12 P1 1.554715 1_555
O13 P2 1.526049 1_555
O14 P3 1.543263 1_555
O15 P3 1.560015 1_555
O16 P3 1.566287 1_555
O17 P5 1.526049 1_554
O18 P4 1.554715 1_555
O19 P5 1.543263 1_554
O20 P5 1.560015 1_555
O21 P5 1.566287 1_555
O22 P1 1.549799 1_565
O23 P4 1.549799 1_655
