# generated using pymatgen
data_Sb2POF13
_symmetry_space_group_name_H-M   'P 1'
_cell_length_a   15.04660000
_cell_length_b   7.46993600
_cell_length_c   10.57379950
_cell_angle_alpha   82.54533754
_cell_angle_beta   90.00000000
_cell_angle_gamma   90.00000000
_symmetry_Int_Tables_number   1
_chemical_formula_structural   Sb2POF13
_chemical_formula_sum   'Sb8 P4 O4 F52'
_cell_volume   1178.41971144
_cell_formula_units_Z   4
loop_
 _symmetry_equiv_pos_site_id
 _symmetry_equiv_pos_as_xyz
  1  'x, y, z'
loop_
 _atom_site_type_symbol
 _atom_site_label
 _atom_site_symmetry_multiplicity
 _atom_site_fract_x
 _atom_site_fract_y
 _atom_site_fract_z
 _atom_site_occupancy
  Sb  Sb0  1  0.25657000  0.13788700  0.03992800  1
  Sb  Sb1  1  0.74343000  0.86211300  0.96007200  1
  Sb  Sb2  1  0.56263000  0.21659200  0.78931200  1
  Sb  Sb3  1  0.93737000  0.21659200  0.28931200  1
  Sb  Sb4  1  0.24343000  0.13788700  0.53992800  1
  Sb  Sb5  1  0.75657000  0.86211300  0.46007200  1
  Sb  Sb6  1  0.43737000  0.78340800  0.21068800  1
  Sb  Sb7  1  0.06263000  0.78340800  0.71068800  1
  P  P0  1  0.87049300  0.23635500  0.83754200  1
  P  P1  1  0.62950700  0.23635500  0.33754200  1
  P  P2  1  0.37049300  0.76364500  0.66245800  1
  P  P3  1  0.12950700  0.76364500  0.16245800  1
  O  O0  1  0.32051900  0.93537200  0.64099800  1
  O  O1  1  0.67948100  0.06462800  0.35900200  1
  O  O2  1  0.17948100  0.93537200  0.14099800  1
  O  O3  1  0.82051900  0.06462800  0.85900200  1
  F  F0  1  0.72505400  0.03004000  0.07633600  1
  F  F1  1  0.99459000  0.58136600  0.78087400  1
  F  F2  1  0.63462400  0.32335000  0.19974400  1
  F  F3  1  0.63995700  0.98657900  0.86034000  1
  F  F4  1  0.41628400  0.86280600  0.37230400  1
  F  F5  1  0.33902800  0.61936600  0.58322400  1
  F  F6  1  0.13462400  0.67665000  0.30025600  1
  F  F7  1  0.03432000  0.05269000  0.31240700  1
  F  F8  1  0.82606200  0.33908700  0.27459600  1
  F  F9  1  0.77494600  0.03004000  0.57633600  1
  F  F10  1  0.83709600  0.68971300  0.53902300  1
  F  F11  1  0.16290400  0.31028700  0.46097700  1
  F  F12  1  0.96568000  0.94731000  0.68759300  1
  F  F13  1  0.91628400  0.13719400  0.12769600  1
  F  F14  1  0.46568000  0.05269000  0.81240700  1
  F  F15  1  0.08371600  0.86280600  0.87230400  1
  F  F16  1  0.83902800  0.38063400  0.91677600  1
  F  F17  1  0.58371600  0.13719400  0.62769600  1
  F  F18  1  0.50541000  0.58136600  0.28087400  1
  F  F19  1  0.74157000  0.74283500  0.31501600  1
  F  F20  1  0.86004300  0.98657900  0.36034000  1
  F  F21  1  0.17393800  0.66091300  0.72540400  1
  F  F22  1  0.96918500  0.21342100  0.86645000  1
  F  F23  1  0.33709600  0.31028700  0.96097700  1
  F  F24  1  0.46918500  0.78657900  0.63355000  1
  F  F25  1  0.66290400  0.68971300  0.03902300  1
  F  F26  1  0.00541000  0.41863400  0.21912600  1
  F  F27  1  0.22505400  0.96996000  0.42366400  1
  F  F28  1  0.05288500  0.73930600  0.53928300  1
  F  F29  1  0.84761000  0.76227600  0.03948100  1
  F  F30  1  0.36004300  0.01342100  0.13966000  1
  F  F31  1  0.55288500  0.26069400  0.96071700  1
  F  F32  1  0.34761000  0.23772400  0.46051900  1
  F  F33  1  0.03081500  0.78657900  0.13355000  1
  F  F34  1  0.36537600  0.67665000  0.80025600  1
  F  F35  1  0.16097200  0.61936600  0.08322400  1
  F  F36  1  0.44711500  0.73930600  0.03928300  1
  F  F37  1  0.65239000  0.76227600  0.53948100  1
  F  F38  1  0.13995700  0.01342100  0.63966000  1
  F  F39  1  0.27494600  0.96996000  0.92366400  1
  F  F40  1  0.67393800  0.33908700  0.77459600  1
  F  F41  1  0.25843000  0.25716500  0.68498400  1
  F  F42  1  0.94711500  0.26069400  0.46071700  1
  F  F43  1  0.86537600  0.32335000  0.69974400  1
  F  F44  1  0.66097200  0.38063400  0.41677600  1
  F  F45  1  0.53081500  0.21342100  0.36645000  1
  F  F46  1  0.75843000  0.74283500  0.81501600  1
  F  F47  1  0.32606200  0.66091300  0.22540400  1
  F  F48  1  0.24157000  0.25716500  0.18498400  1
  F  F49  1  0.49459000  0.41863400  0.71912600  1
  F  F50  1  0.15239000  0.23772400  0.96051900  1
  F  F51  1  0.53432000  0.94731000  0.18759300  1
loop_
_geom_bond_atom_site_label_1
_geom_bond_atom_site_label_2
_geom_bond_distance
_geom_bond_site_symmetry_2
O0 P2 1.478824 1_555
O0 Sb4 2.087228 1_565
O1 P1 1.478824 1_555
O1 Sb5 2.087228 1_545
O2 P3 1.478824 1_555
O2 Sb0 2.087228 1_565
O3 P0 1.478824 1_555
O3 Sb1 2.087228 1_545
F0 Sb1 1.887177 1_544
F1 Sb7 1.893684 1_655
F2 P1 1.518396 1_555
F3 Sb1 2.036193 1_555
F3 Sb2 2.129581 1_565
F4 Sb6 1.906764 1_555
F5 P2 1.523784 1_555
F6 P3 1.518396 1_555
F7 Sb3 1.899752 1_455
F8 Sb3 1.905131 1_555
F9 Sb5 1.887177 1_545
F10 Sb5 1.882683 1_555
F11 Sb4 1.882683 1_555
F12 Sb7 1.899752 1_655
F13 Sb3 1.906764 1_555
F14 Sb2 1.899752 1_555
F15 Sb7 1.906764 1_555
F16 P0 1.523784 1_555
F17 Sb2 1.906764 1_555
F18 Sb6 1.893684 1_555
F19 Sb5 1.884662 1_555
F20 Sb5 2.036193 1_555
F20 Sb3 2.129581 1_565
F21 Sb7 1.905131 1_555
F22 P0 1.521301 1_555
F23 Sb0 1.882683 1_556
F24 P2 1.521301 1_555
F25 Sb1 1.882683 1_554
F26 Sb3 1.893684 1_455
F27 Sb4 1.887177 1_565
F28 Sb7 1.889382 1_555
F29 Sb1 1.885721 1_554
F30 Sb0 2.036193 1_555
F30 Sb6 2.129581 1_545
F31 Sb2 1.889382 1_555
F32 Sb4 1.885721 1_555
F33 P3 1.521301 1_555
F34 P2 1.518396 1_555
F35 P3 1.523784 1_555
F36 Sb6 1.889382 1_555
F37 Sb5 1.885721 1_555
F38 Sb4 2.036193 1_555
F38 Sb7 2.129581 1_545
F39 Sb0 1.887177 1_566
F40 Sb2 1.905131 1_555
F41 Sb4 1.884662 1_555
F42 Sb3 1.889382 1_555
F43 P0 1.518396 1_555
F44 P1 1.523784 1_555
F45 P1 1.521301 1_555
F46 Sb1 1.884662 1_555
F47 Sb6 1.905131 1_555
F48 Sb0 1.884662 1_555
F49 Sb2 1.893684 1_555
F50 Sb0 1.885721 1_556
F51 Sb6 1.899752 1_555
