# generated using pymatgen
data_Zr6Fe23
_symmetry_space_group_name_H-M   'P 1'
_cell_length_a   8.30117716
_cell_length_b   8.30078138
_cell_length_c   8.30155736
_cell_angle_alpha   60.00195694
_cell_angle_beta   59.99664709
_cell_angle_gamma   60.00585137
_symmetry_Int_Tables_number   1
_chemical_formula_structural   Zr6Fe23
_chemical_formula_sum   'Zr6 Fe23'
_cell_volume   404.49937144
_cell_formula_units_Z   1
loop_
 _symmetry_equiv_pos_site_id
 _symmetry_equiv_pos_as_xyz
  1  'x, y, z'
loop_
 _atom_site_type_symbol
 _atom_site_label
 _atom_site_symmetry_multiplicity
 _atom_site_fract_x
 _atom_site_fract_y
 _atom_site_fract_z
 _atom_site_occupancy
  Zr  Zr0  1  0.79542192  0.20456922  0.20456738  1
  Zr  Zr1  1  0.79545056  0.79547243  0.20454161  1
  Zr  Zr2  1  0.79545881  0.20453951  0.79547470  1
  Zr  Zr3  1  0.20454944  0.20452757  0.79545839  1
  Zr  Zr4  1  0.20454119  0.79546049  0.20452530  1
  Zr  Zr5  1  0.20457808  0.79543078  0.79543262  1
  Fe  Fe0  1  0.82674226  0.51984688  0.82671826  1
  Fe  Fe1  1  0.17325774  0.48015312  0.17328174  1
  Fe  Fe2  1  -0.00000000  0.50000000  0.00000000  1
  Fe  Fe3  1  0.37842766  0.37850997  0.37841461  1
  Fe  Fe4  1  0.17328190  0.17327475  0.48016424  1
  Fe  Fe5  1  0.13536855  0.62156539  0.62151540  1
  Fe  Fe6  1  0.50000000  0.00000000  0.00000000  1
  Fe  Fe7  1  0.82672824  0.82670903  0.82673547  1
  Fe  Fe8  1  0.51987320  0.82673054  0.82669365  1
  Fe  Fe9  1  0.62159087  0.13536400  0.62155355  1
  Fe  Fe10  1  0.50000000  0.50000000  0.50000000  1
  Fe  Fe11  1  0.48012680  0.17326946  0.17330635  1
  Fe  Fe12  1  0.86463145  0.37843461  0.37848460  1
  Fe  Fe13  1  0.17327176  0.17329097  0.17326453  1
  Fe  Fe14  1  0.50000000  0.00000000  0.50000000  1
  Fe  Fe15  1  -0.00000000  0.00000000  0.50000000  1
  Fe  Fe16  1  0.62150983  0.62153932  0.13536646  1
  Fe  Fe17  1  0.82671810  0.82672525  0.51983576  1
  Fe  Fe18  1  0.62157234  0.62149003  0.62158539  1
  Fe  Fe19  1  0.37840913  0.86463600  0.37844645  1
  Fe  Fe20  1  0.50000000  0.50000000  0.00000000  1
  Fe  Fe21  1  0.37849017  0.37846068  0.86463354  1
  Fe  Fe22  1  -0.00000000  0.50000000  0.50000000  1
loop_
_geom_bond_atom_site_label_1
_geom_bond_atom_site_label_2
_geom_bond_distance
_geom_bond_site_symmetry_2
Fe0 Fe2 2.400052 1_656
Fe0 Fe22 2.400146 1_655
Fe0 Fe20 2.400194 1_556
Fe0 Fe7 2.547209 1_555
Fe0 Fe17 2.547542 1_555
Fe0 Fe8 2.547600 1_555
Fe0 Fe5 2.557004 1_655
Fe0 Fe16 2.557229 1_556
Fe0 Fe18 2.557290 1_555
Fe0 Zr2 2.900120 1_555
Fe0 Zr0 2.900316 1_556
Fe0 Zr3 2.900349 1_655
Fe1 Fe2 2.400052 1_555
Fe1 Fe22 2.400146 1_555
Fe1 Fe20 2.400194 1_555
Fe1 Fe13 2.547209 1_555
Fe1 Fe4 2.547542 1_555
Fe1 Fe11 2.547600 1_555
Fe1 Fe12 2.557004 1_455
Fe1 Fe21 2.557229 1_554
Fe1 Fe3 2.557290 1_555
Fe1 Zr4 2.900120 1_555
Fe1 Zr5 2.900316 1_554
Fe1 Zr1 2.900349 1_455
Fe2 Fe7 2.400188 1_454
Fe2 Fe5 2.566222 1_554
Fe2 Fe21 2.566243 1_554
Fe2 Zr5 2.982792 1_554
Fe2 Zr0 2.982792 1_455
Fe2 Zr3 2.983113 1_554
Fe2 Zr1 2.983113 1_455
Fe3 Fe4 2.557139 1_555
Fe3 Fe5 2.853658 1_555
Fe3 Fe9 2.854812 1_555
Fe3 Zr4 2.870393 1_555
Fe3 Zr0 2.870571 1_555
Fe3 Zr3 2.870908 1_555
Fe4 Zr2 2.900142 1_455
Fe4 Zr3 2.900236 1_555
Fe4 Zr5 2.900260 1_545
Fe5 Fe7 2.557315 1_455
Fe5 Zr5 2.870473 1_555
Fe5 Zr4 2.870666 1_555
Fe5 Zr3 2.870854 1_555
Fe6 Fe8 2.400057 1_544
Fe6 Fe7 2.400172 1_544
Fe6 Fe9 2.565975 1_554
Fe6 Zr4 2.982810 1_545
Fe6 Zr2 2.982810 1_554
Fe6 Zr3 2.983282 1_554
Fe6 Zr1 2.983282 1_545
Fe7 Fe8 2.547342 1_555
Fe7 Fe9 2.557400 1_565
Fe7 Zr2 2.900101 1_565
Fe7 Zr1 2.900213 1_556
Fe7 Zr5 2.900218 1_655
Fe8 Fe9 2.557060 1_565
Fe8 Zr4 2.900261 1_556
Fe8 Zr5 2.900316 1_555
Fe8 Zr3 2.900320 1_565
Fe9 Zr2 2.870395 1_555
Fe9 Zr0 2.870518 1_555
Fe9 Zr3 2.870884 1_555
Fe10 Fe5 2.471464 1_555
Fe10 Fe12 2.471464 1_555
Fe10 Fe21 2.471494 1_555
Fe10 Fe16 2.471494 1_555
Fe10 Fe19 2.471509 1_555
Fe10 Fe9 2.471509 1_555
Fe10 Fe3 2.471511 1_555
Fe10 Fe18 2.471511 1_555
Fe11 Fe6 2.400057 1_555
Fe11 Fe14 2.400190 1_555
Fe11 Fe20 2.400196 1_555
Fe11 Fe4 2.547157 1_555
Fe11 Fe13 2.547342 1_555
Fe11 Fe19 2.557060 1_545
Fe11 Fe3 2.557235 1_555
Fe11 Fe21 2.557393 1_554
Fe11 Zr2 2.900261 1_554
Fe11 Zr0 2.900316 1_555
Fe11 Zr1 2.900320 1_545
Fe12 Fe13 2.557315 1_655
Fe12 Fe4 2.557405 1_655
Fe12 Fe15 2.565902 1_655
Fe12 Fe22 2.565911 1_655
Fe12 Fe2 2.566222 1_655
Fe12 Fe9 2.853160 1_555
Fe12 Fe18 2.853658 1_555
Fe12 Fe16 2.854445 1_555
Fe12 Zr0 2.870473 1_555
Fe12 Zr2 2.870666 1_555
Fe12 Zr1 2.870854 1_555
Fe13 Fe15 2.400122 1_555
Fe13 Fe6 2.400172 1_555
Fe13 Fe2 2.400188 1_555
Fe13 Fe4 2.547720 1_555
Fe13 Fe21 2.557223 1_554
Fe13 Fe19 2.557400 1_545
Fe13 Zr4 2.900101 1_545
Fe13 Zr3 2.900213 1_554
Fe13 Zr0 2.900218 1_455
Fe14 Fe8 2.400190 1_545
Fe14 Fe17 2.400247 1_545
Fe14 Fe4 2.400247 1_555
Fe14 Fe9 2.566298 1_555
Fe14 Fe19 2.566298 1_545
Fe14 Fe18 2.566386 1_545
Fe14 Fe3 2.566386 1_555
Fe14 Zr0 2.982710 1_555
Fe14 Zr5 2.982710 1_545
Fe14 Zr1 2.982971 1_545
Fe14 Zr3 2.982971 1_555
Fe15 Fe17 2.399967 1_445
Fe15 Fe4 2.399967 1_555
Fe15 Fe7 2.400122 1_445
Fe15 Fe19 2.565715 1_545
Fe15 Fe9 2.565715 1_455
Fe15 Fe5 2.565902 1_545
Fe15 Zr4 2.983143 1_545
Fe15 Zr2 2.983143 1_455
Fe15 Zr0 2.983340 1_455
Fe15 Zr5 2.983340 1_545
Fe16 Fe7 2.557223 1_554
Fe16 Fe8 2.557393 1_554
Fe16 Fe20 2.565693 1_555
Fe16 Fe6 2.566069 1_565
Fe16 Fe2 2.566243 1_655
Fe16 Fe3 2.853162 1_555
Fe16 Fe19 2.853778 1_555
Fe16 Zr0 2.870407 1_555
Fe16 Zr4 2.870511 1_555
Fe16 Zr1 2.870856 1_555
Fe17 Fe22 2.400163 1_655
Fe17 Fe8 2.547157 1_555
Fe17 Fe7 2.547720 1_555
Fe17 Fe18 2.557139 1_555
Fe17 Fe9 2.557267 1_565
Fe17 Fe5 2.557405 1_655
Fe17 Zr4 2.900142 1_655
Fe17 Zr1 2.900236 1_555
Fe17 Zr0 2.900260 1_565
Fe18 Fe8 2.557235 1_555
Fe18 Fe20 2.565765 1_556
Fe18 Fe22 2.565828 1_655
Fe18 Fe21 2.853162 1_555
Fe18 Fe19 2.854812 1_555
Fe18 Zr2 2.870393 1_555
Fe18 Zr5 2.870571 1_555
Fe18 Zr1 2.870908 1_555
Fe19 Fe4 2.557267 1_565
Fe19 Fe6 2.565975 1_565
Fe19 Fe5 2.853160 1_555
Fe19 Zr4 2.870395 1_555
Fe19 Zr5 2.870518 1_555
Fe19 Zr1 2.870884 1_555
Fe20 Fe8 2.400196 1_554
Fe20 Fe21 2.565693 1_554
Fe20 Fe3 2.565765 1_555
Fe20 Zr4 2.982999 1_555
Fe20 Zr2 2.982999 1_554
Fe20 Zr5 2.983236 1_554
Fe20 Zr0 2.983236 1_555
Fe21 Fe6 2.566069 1_556
Fe21 Fe9 2.853778 1_555
Fe21 Fe5 2.854445 1_555
Fe21 Zr5 2.870407 1_555
Fe21 Zr2 2.870511 1_555
Fe21 Zr3 2.870856 1_555
Fe22 Fe4 2.400163 1_555
Fe22 Fe3 2.565828 1_555
Fe22 Fe5 2.565911 1_555
Fe22 Zr4 2.982859 1_555
Fe22 Zr2 2.982859 1_455
Fe22 Zr1 2.983403 1_455
Fe22 Zr3 2.983403 1_555
