# generated using pymatgen
data_Ce3Ni2Sn7
_symmetry_space_group_name_H-M   'P 1'
_cell_length_a   13.85771326
_cell_length_b   13.85771326
_cell_length_c   4.58867786
_cell_angle_alpha   90.00000000
_cell_angle_beta   90.00000000
_cell_angle_gamma   160.95271943
_symmetry_Int_Tables_number   1
_chemical_formula_structural   Ce3Ni2Sn7
_chemical_formula_sum   'Ce3 Ni2 Sn7'
_cell_volume   287.57560939
_cell_formula_units_Z   1
loop_
 _symmetry_equiv_pos_site_id
 _symmetry_equiv_pos_as_xyz
  1  'x, y, z'
loop_
 _atom_site_type_symbol
 _atom_site_label
 _atom_site_symmetry_multiplicity
 _atom_site_fract_x
 _atom_site_fract_y
 _atom_site_fract_z
 _atom_site_occupancy
  Ce  Ce0  1  0.50000000  0.50000000  0.50000000  1
  Ce  Ce1  1  0.81547356  0.18452644  -0.00000000  1
  Ce  Ce2  1  0.18452644  0.81547356  0.00000000  1
  Ni  Ni0  1  0.62713884  0.37286116  0.50000000  1
  Ni  Ni1  1  0.37286116  0.62713884  0.50000000  1
  Sn  Sn0  1  -0.00000000  0.00000000  0.00000000  1
  Sn  Sn1  1  0.58830985  0.41169015  -0.00000000  1
  Sn  Sn2  1  0.41169015  0.58830985  0.00000000  1
  Sn  Sn3  1  0.91150534  0.08849466  0.50000000  1
  Sn  Sn4  1  0.08849466  0.91150534  0.50000000  1
  Sn  Sn5  1  0.71826790  0.28173210  0.50000000  1
  Sn  Sn6  1  0.28173210  0.71826790  0.50000000  1
loop_
_geom_bond_atom_site_label_1
_geom_bond_atom_site_label_2
_geom_bond_distance
_geom_bond_site_symmetry_2
Ce0 Sn0 3.243612 1_555
Ce0 Sn0 3.243612 1_666
Ce0 Sn0 3.243612 1_556
Ce0 Sn0 3.243612 1_665
Ce0 Sn1 3.330237 1_555
Ce0 Sn1 3.330237 1_556
Ce0 Sn2 3.330237 1_555
Ce0 Sn2 3.330237 1_556
Ce0 Sn4 3.332856 1_545
Ce0 Sn3 3.332856 1_455
Ce0 Sn3 3.332856 1_565
Ce0 Sn4 3.332856 1_655
Ce0 Ni0 3.475141 1_555
Ce0 Ni1 3.475141 1_555
Ce1 Sn6 3.372181 1_655
Ce1 Sn6 3.372181 1_654
Ce1 Sn6 3.372181 1_545
Ce1 Sn6 3.372181 1_544
Ce1 Sn3 3.486256 1_554
Ce1 Sn3 3.486256 1_555
Ce1 Sn2 3.489063 1_545
Ce1 Sn2 3.489063 1_655
Ce1 Sn5 3.510478 1_554
Ce1 Sn5 3.510478 1_555
Ce1 Ni1 3.602989 1_544
Ce1 Ni1 3.602989 1_545
Ce1 Ni1 3.602989 1_654
Ce1 Ni1 3.602989 1_655
Ce2 Sn5 3.372181 1_565
Ce2 Sn5 3.372181 1_564
Ce2 Sn5 3.372181 1_454
Ce2 Sn5 3.372181 1_455
Ce2 Sn4 3.486256 1_554
Ce2 Sn4 3.486256 1_555
Ce2 Sn1 3.489063 1_565
Ce2 Sn1 3.489063 1_455
Ce2 Sn6 3.510478 1_554
Ce2 Sn6 3.510478 1_555
Ce2 Ni0 3.602989 1_455
Ce2 Ni0 3.602989 1_454
Ce2 Ni0 3.602989 1_565
Ce2 Ni0 3.602989 1_564
Ni0 Sn5 2.490870 1_555
Ni0 Sn4 2.524431 1_545
Ni0 Sn4 2.524431 1_655
Ni0 Sn1 2.527926 1_555
Ni0 Sn1 2.527926 1_556
Ni1 Sn6 2.490870 1_555
Ni1 Sn3 2.524431 1_565
Ni1 Sn3 2.524431 1_455
Ni1 Sn2 2.527926 1_555
Ni1 Sn2 2.527926 1_556
Sn5 Sn6 2.875099 1_655
Sn5 Sn6 2.875099 1_545
