# generated using pymatgen
data_Cs3Mo2(O2F)3
_symmetry_space_group_name_H-M   'P 1'
_cell_length_a   6.51839418
_cell_length_b   6.51839418
_cell_length_c   15.78607200
_cell_angle_alpha   90.00000000
_cell_angle_beta   90.00000000
_cell_angle_gamma   120.00000179
_symmetry_Int_Tables_number   1
_chemical_formula_structural   Cs3Mo2(O2F)3
_chemical_formula_sum   'Cs6 Mo4 O12 F6'
_cell_volume   580.87935540
_cell_formula_units_Z   2
loop_
 _symmetry_equiv_pos_site_id
 _symmetry_equiv_pos_as_xyz
  1  'x, y, z'
loop_
 _atom_site_type_symbol
 _atom_site_label
 _atom_site_symmetry_multiplicity
 _atom_site_fract_x
 _atom_site_fract_y
 _atom_site_fract_z
 _atom_site_occupancy
  Cs  Cs0  1  0.66666700  0.33333300  0.94061100  1
  Cs  Cs1  1  0.33333300  0.66666700  0.05938900  1
  Cs  Cs2  1  0.33333300  0.66666700  0.44061100  1
  Cs  Cs3  1  0.66666700  0.33333300  0.25000000  1
  Cs  Cs4  1  0.66666700  0.33333300  0.55938900  1
  Cs  Cs5  1  0.33333300  0.66666700  0.75000000  1
  Mo  Mo0  1  0.00000000  0.00000000  0.85746100  1
  Mo  Mo1  1  0.00000000  0.00000000  0.35746100  1
  Mo  Mo2  1  0.00000000  0.00000000  0.64253900  1
  Mo  Mo3  1  0.00000000  0.00000000  0.14253900  1
  O  O0  1  0.85641500  0.14358500  0.09773500  1
  O  O1  1  0.71282900  0.85641500  0.59773500  1
  O  O2  1  0.14358500  0.28717100  0.90226500  1
  O  O3  1  0.85641500  0.71282900  0.09773500  1
  O  O4  1  0.14358500  0.85641500  0.59773500  1
  O  O5  1  0.28717100  0.14358500  0.09773500  1
  O  O6  1  0.28717100  0.14358500  0.40226500  1
  O  O7  1  0.14358500  0.85641500  0.90226500  1
  O  O8  1  0.85641500  0.71282900  0.40226500  1
  O  O9  1  0.71282900  0.85641500  0.90226500  1
  O  O10  1  0.14358500  0.28717100  0.59773500  1
  O  O11  1  0.85641500  0.14358500  0.40226500  1
  F  F0  1  0.74378000  0.87189000  0.25000000  1
  F  F1  1  0.12811000  0.87189000  0.25000000  1
  F  F2  1  0.12811000  0.25622000  0.25000000  1
  F  F3  1  0.87189000  0.74378000  0.75000000  1
  F  F4  1  0.87189000  0.12811000  0.75000000  1
  F  F5  1  0.25622000  0.12811000  0.75000000  1
loop_
_geom_bond_atom_site_label_1
_geom_bond_atom_site_label_2
_geom_bond_distance
_geom_bond_site_symmetry_2
Cs0 O3 3.277446 1_556
Cs0 O5 3.277446 1_556
Cs0 O0 3.277446 1_556
Cs0 O2 3.325155 1_655
Cs0 O9 3.325155 1_545
Cs0 O7 3.325162 1_655
Cs0 O7 3.325162 1_545
Cs0 O9 3.325168 1_555
Cs0 O2 3.325168 1_555
Cs1 O9 3.277446 1_554
Cs1 O2 3.277446 1_554
Cs1 O7 3.277446 1_554
Cs1 O5 3.325155 1_565
Cs1 O3 3.325155 1_455
Cs1 O0 3.325162 1_565
Cs1 O0 3.325162 1_455
Cs1 O3 3.325168 1_555
Cs1 O5 3.325168 1_555
Cs2 O1 3.277446 1_555
Cs2 O10 3.277446 1_555
Cs2 O4 3.277446 1_555
Cs2 O6 3.325155 1_565
Cs2 O8 3.325155 1_455
Cs2 O11 3.325162 1_565
Cs2 O11 3.325162 1_455
Cs2 O8 3.325168 1_555
Cs2 O6 3.325168 1_555
Cs3 O8 3.219786 1_555
Cs3 O3 3.219786 1_555
Cs3 O6 3.219786 1_555
Cs3 O5 3.219786 1_555
Cs3 O11 3.219786 1_555
Cs3 O0 3.219786 1_555
Cs3 F0 3.288136 1_545
Cs3 F2 3.288136 1_655
Cs3 F1 3.288140 1_545
Cs3 F1 3.288140 1_655
Cs3 F2 3.288143 1_555
Cs3 F0 3.288143 1_555
Cs4 O8 3.277446 1_555
Cs4 O6 3.277446 1_555
Cs4 O11 3.277446 1_555
Cs4 O10 3.325155 1_655
Cs4 O1 3.325155 1_545
Cs4 O4 3.325162 1_655
Cs4 O4 3.325162 1_545
Cs4 O1 3.325168 1_555
Cs4 O10 3.325168 1_555
Cs5 O1 3.219786 1_555
Cs5 O9 3.219786 1_555
Cs5 O10 3.219786 1_555
Cs5 O2 3.219786 1_555
Cs5 O7 3.219786 1_555
Cs5 O4 3.219786 1_555
Cs5 F3 3.288136 1_455
Cs5 F5 3.288136 1_565
Cs5 F4 3.288140 1_455
Cs5 F4 3.288140 1_565
Cs5 F5 3.288143 1_555
Cs5 F3 3.288143 1_555
Mo0 O7 1.768676 1_545
Mo0 O2 1.768681 1_555
Mo0 O9 1.768681 1_445
Mo1 O11 1.768676 1_455
Mo1 O6 1.768681 1_555
Mo1 O8 1.768681 1_445
Mo2 O4 1.768676 1_545
Mo2 O10 1.768681 1_555
Mo2 O1 1.768681 1_445
Mo3 O0 1.768676 1_455
Mo3 O5 1.768681 1_555
Mo3 O3 1.768681 1_445
F0 Mo1 2.229296 1_665
F0 Mo3 2.229296 1_665
F1 Mo1 2.229296 1_565
F1 Mo3 2.229296 1_565
F2 Mo1 2.229296 1_555
F2 Mo3 2.229296 1_555
F3 Mo0 2.229296 1_665
F3 Mo2 2.229296 1_665
F4 Mo0 2.229296 1_655
F4 Mo2 2.229296 1_655
F5 Mo0 2.229296 1_555
F5 Mo2 2.229296 1_555
