# generated using pymatgen
data_K4U(PO5)2
_symmetry_space_group_name_H-M   'P 1'
_cell_length_a   6.95722400
_cell_length_b   6.95722400
_cell_length_c   12.08247100
_cell_angle_alpha   90.00000000
_cell_angle_beta   90.00000000
_cell_angle_gamma   90.00000000
_symmetry_Int_Tables_number   1
_chemical_formula_structural   K4U(PO5)2
_chemical_formula_sum   'K8 U2 P4 O20'
_cell_volume   584.82743043
_cell_formula_units_Z   2
loop_
 _symmetry_equiv_pos_site_id
 _symmetry_equiv_pos_as_xyz
  1  'x, y, z'
loop_
 _atom_site_type_symbol
 _atom_site_label
 _atom_site_symmetry_multiplicity
 _atom_site_fract_x
 _atom_site_fract_y
 _atom_site_fract_z
 _atom_site_occupancy
  K  K0  1  0.00000000  0.25120100  0.67109300  1
  K  K1  1  0.50000000  0.24879900  0.82890700  1
  K  K2  1  0.00000000  0.74879900  0.67109300  1
  K  K3  1  0.25120100  0.00000000  0.32890700  1
  K  K4  1  0.50000000  0.75120100  0.82890700  1
  K  K5  1  0.74879900  0.00000000  0.32890700  1
  K  K6  1  0.24879900  0.50000000  0.17109300  1
  K  K7  1  0.75120100  0.50000000  0.17109300  1
  U  U0  1  0.00000000  0.00000000  0.00000000  1
  U  U1  1  0.50000000  0.50000000  0.50000000  1
  P  P0  1  0.00000000  0.50000000  0.41707200  1
  P  P1  1  0.50000000  0.00000000  0.58292800  1
  P  P2  1  0.50000000  0.00000000  0.08292800  1
  P  P3  1  0.00000000  0.50000000  0.91707200  1
  O  O0  1  0.81645000  0.50000000  0.84685600  1
  O  O1  1  0.00000000  0.32438200  0.00142600  1
  O  O2  1  0.17561800  0.50000000  0.50142600  1
  O  O3  1  0.00000000  0.67561800  0.00142600  1
  O  O4  1  0.68355000  0.00000000  0.65314400  1
  O  O5  1  0.00000000  0.00000000  0.15323100  1
  O  O6  1  0.50000000  0.82438200  0.49857400  1
  O  O7  1  0.50000000  0.50000000  0.34676900  1
  O  O8  1  0.82438200  0.50000000  0.50142600  1
  O  O9  1  0.50000000  0.18355000  0.15314400  1
  O  O10  1  0.18355000  0.50000000  0.84685600  1
  O  O11  1  0.67561800  0.00000000  0.99857400  1
  O  O12  1  0.50000000  0.17561800  0.49857400  1
  O  O13  1  0.32438200  0.00000000  0.99857400  1
  O  O14  1  0.50000000  0.81645000  0.15314400  1
  O  O15  1  0.31645000  0.00000000  0.65314400  1
  O  O16  1  0.50000000  0.50000000  0.65323100  1
  O  O17  1  0.00000000  0.00000000  0.84676900  1
  O  O18  1  0.00000000  0.31645000  0.34685600  1
  O  O19  1  0.00000000  0.68355000  0.34685600  1
loop_
_geom_bond_atom_site_label_1
_geom_bond_atom_site_label_2
_geom_bond_distance
_geom_bond_site_symmetry_2
K0 O17 2.749500 1_555
K0 O15 2.819300 1_555
K0 O4 2.819300 1_455
K0 O2 2.948136 1_555
K0 O8 2.948136 1_455
K0 O0 3.022716 1_455
K0 O10 3.022716 1_555
K1 O16 2.749500 1_555
K1 O0 2.819300 1_555
K1 O10 2.819300 1_555
K1 O13 2.948136 1_555
K1 O11 2.948136 1_555
K1 O4 3.022716 1_555
K1 O15 3.022716 1_555
K2 O17 2.749500 1_565
K2 O15 2.819300 1_565
K2 O4 2.819300 1_465
K2 O2 2.948136 1_555
K2 O8 2.948136 1_455
K2 O0 3.022716 1_455
K2 O10 3.022716 1_555
K3 O5 2.749500 1_555
K3 O19 2.819300 1_545
K3 O18 2.819300 1_555
K3 O12 2.948136 1_555
K3 O6 2.948136 1_545
K3 O14 3.022716 1_545
K3 O9 3.022716 1_555
K4 O16 2.749500 1_555
K4 O0 2.819300 1_555
K4 O10 2.819300 1_555
K4 O13 2.948136 1_565
K4 O11 2.948136 1_565
K4 O15 3.022716 1_565
K4 O4 3.022716 1_565
K5 O5 2.749500 1_655
K5 O19 2.819300 1_645
K5 O18 2.819300 1_655
K5 O12 2.948136 1_555
K5 O6 2.948136 1_545
K5 O14 3.022716 1_545
K5 O9 3.022716 1_555
K6 O7 2.749500 1_555
K6 O9 2.819300 1_555
K6 O14 2.819300 1_555
K6 O1 2.948136 1_555
K6 O3 2.948136 1_555
K6 O19 3.022716 1_555
K6 O18 3.022716 1_555
K7 O7 2.749500 1_555
K7 O9 2.819300 1_555
K7 O14 2.819300 1_555
K7 O1 2.948136 1_655
K7 O3 2.948136 1_655
K7 O18 3.022716 1_655
K7 O19 3.022716 1_655
O0 P3 1.533127 1_655
O1 P3 1.591103 1_554
O1 U0 2.256864 1_555
O2 P0 1.591103 1_555
O2 U1 2.256864 1_555
O3 P3 1.591103 1_554
O3 U0 2.256864 1_565
O4 P1 1.533127 1_555
O5 U0 1.851409 1_555
O6 P1 1.591103 1_565
O6 U1 2.256864 1_555
O7 U1 1.851409 1_555
O8 P0 1.591103 1_655
O8 U1 2.256864 1_555
O9 P2 1.533127 1_555
O10 P3 1.533127 1_555
O11 P2 1.591103 1_556
O11 U0 2.256864 1_656
O12 P1 1.591103 1_555
O12 U1 2.256864 1_555
O13 P2 1.591103 1_556
O13 U0 2.256864 1_556
O14 P2 1.533127 1_565
O15 P1 1.533127 1_555
O16 U1 1.851409 1_555
O17 U0 1.851409 1_556
O18 P0 1.533127 1_555
O19 P0 1.533127 1_555
