# generated using pymatgen
data_K2Al2Sb2O7
_symmetry_space_group_name_H-M   'P 1'
_cell_length_a   5.71611765
_cell_length_b   5.71611765
_cell_length_c   8.23475200
_cell_angle_alpha   90.00000000
_cell_angle_beta   90.00000000
_cell_angle_gamma   119.99999600
_symmetry_Int_Tables_number   1
_chemical_formula_structural   K2Al2Sb2O7
_chemical_formula_sum   'K2 Al2 Sb2 O7'
_cell_volume   233.01479241
_cell_formula_units_Z   1
loop_
 _symmetry_equiv_pos_site_id
 _symmetry_equiv_pos_as_xyz
  1  'x, y, z'
loop_
 _atom_site_type_symbol
 _atom_site_label
 _atom_site_symmetry_multiplicity
 _atom_site_fract_x
 _atom_site_fract_y
 _atom_site_fract_z
 _atom_site_occupancy
  K  K0  1  0.66666700  0.33333300  0.59069400  1
  K  K1  1  0.33333300  0.66666700  0.40930600  1
  Al  Al0  1  0.00000000  0.00000000  0.78956800  1
  Al  Al1  1  0.00000000  0.00000000  0.21043200  1
  Sb  Sb0  1  0.66666700  0.33333300  0.15598200  1
  Sb  Sb1  1  0.33333300  0.66666700  0.84401800  1
  O  O0  1  0.16794200  0.83205800  0.71026600  1
  O  O1  1  0.83205800  0.16794200  0.28973400  1
  O  O2  1  0.83205800  0.66411600  0.28973400  1
  O  O3  1  0.66411600  0.83205800  0.71026600  1
  O  O4  1  0.00000000  0.00000000  0.00000000  1
  O  O5  1  0.16794200  0.33588400  0.71026600  1
  O  O6  1  0.33588400  0.16794200  0.28973400  1
loop_
_geom_bond_atom_site_label_1
_geom_bond_atom_site_label_2
_geom_bond_distance
_geom_bond_site_symmetry_2
K0 O1 2.970427 1_555
K0 O2 2.970430 1_555
K0 O6 2.970430 1_555
K0 O5 3.022941 1_655
K0 O3 3.022941 1_545
K0 O0 3.022944 1_545
K0 O0 3.022944 1_655
K0 O5 3.022946 1_555
K0 O3 3.022946 1_555
K1 O0 2.970427 1_555
K1 O5 2.970430 1_555
K1 O3 2.970430 1_555
K1 O2 3.022941 1_455
K1 O6 3.022941 1_565
K1 O1 3.022944 1_455
K1 O1 3.022944 1_565
K1 O6 3.022946 1_555
K1 O2 3.022946 1_555
Al0 O4 1.732855 1_556
Al0 O0 1.786369 1_545
Al0 O3 1.786369 1_445
Al0 O5 1.786369 1_555
Al1 O4 1.732855 1_555
Al1 O1 1.786369 1_455
Al1 O2 1.786369 1_445
Al1 O6 1.786369 1_555
O0 Sb1 1.973430 1_555
O1 Sb0 1.973430 1_555
O2 Sb0 1.973434 1_555
O3 Sb1 1.973434 1_555
O5 Sb1 1.973434 1_555
O6 Sb0 1.973434 1_555
