# generated using pymatgen
data_Na2Sr7Al6F34
_symmetry_space_group_name_H-M   'P 1'
_cell_length_a   9.81563566
_cell_length_b   9.81563566
_cell_length_c   7.37441972
_cell_angle_alpha   80.62980261
_cell_angle_beta   80.62980261
_cell_angle_gamma   68.15814525
_symmetry_Int_Tables_number   1
_chemical_formula_structural   Na2Sr7Al6F34
_chemical_formula_sum   'Na2 Sr7 Al6 F34'
_cell_volume   646.63017169
_cell_formula_units_Z   1
loop_
 _symmetry_equiv_pos_site_id
 _symmetry_equiv_pos_as_xyz
  1  'x, y, z'
loop_
 _atom_site_type_symbol
 _atom_site_label
 _atom_site_symmetry_multiplicity
 _atom_site_fract_x
 _atom_site_fract_y
 _atom_site_fract_z
 _atom_site_occupancy
  Na  Na0  1  0.50000000  0.50000000  0.00000000  1
  Na  Na1  1  0.50000000  0.50000000  0.50000000  1
  Sr  Sr0  1  0.55180500  0.15692700  0.30272400  1
  Sr  Sr1  1  0.73974600  0.73974600  0.11825800  1
  Sr  Sr2  1  0.26025400  0.26025400  0.88174200  1
  Sr  Sr3  1  0.84307300  0.44819500  0.69727600  1
  Sr  Sr4  1  0.15692700  0.55180500  0.30272400  1
  Sr  Sr5  1  0.44819500  0.84307300  0.69727600  1
  Sr  Sr6  1  0.00000000  0.00000000  0.00000000  1
  Al  Al0  1  0.13256700  0.64702100  0.79817900  1
  Al  Al1  1  0.16831300  0.16831300  0.45657400  1
  Al  Al2  1  0.86743300  0.35297900  0.20182100  1
  Al  Al3  1  0.64702100  0.13256700  0.79817900  1
  Al  Al4  1  0.83168700  0.83168700  0.54342600  1
  Al  Al5  1  0.35297900  0.86743300  0.20182100  1
  F  F0  1  0.77837500  0.22190000  0.79496400  1
  F  F1  1  0.98934100  0.22302500  0.37069800  1
  F  F2  1  0.22162500  0.77810000  0.20503600  1
  F  F3  1  0.88595800  0.65199400  0.45790700  1
  F  F4  1  0.03780100  0.51774300  0.81190500  1
  F  F5  1  0.34800600  0.11404200  0.54209300  1
  F  F6  1  0.75413100  0.75413100  0.76289100  1
  F  F7  1  0.24586900  0.24586900  0.23710900  1
  F  F8  1  0.25274400  0.51418300  0.96438300  1
  F  F9  1  0.44479900  0.74437200  0.39135900  1
  F  F10  1  0.22302500  0.98934100  0.37069800  1
  F  F11  1  0.99860600  0.26221100  0.00718100  1
  F  F12  1  0.77697500  0.01065900  0.62930200  1
  F  F13  1  0.74725600  0.48581700  0.03561700  1
  F  F14  1  0.73778900  0.00139400  0.99281900  1
  F  F15  1  0.26221100  0.99860600  0.00718100  1
  F  F16  1  0.51774300  0.03780100  0.81190500  1
  F  F17  1  0.01065900  0.77697500  0.62930200  1
  F  F18  1  0.11404200  0.34800600  0.54209300  1
  F  F19  1  0.25562800  0.55520100  0.60864100  1
  F  F20  1  0.77810000  0.22162500  0.20503600  1
  F  F21  1  0.10131000  0.10131000  0.68351200  1
  F  F22  1  0.96219900  0.48225700  0.18809500  1
  F  F23  1  0.89869000  0.89869000  0.31648800  1
  F  F24  1  0.74437200  0.44479900  0.39135900  1
  F  F25  1  0.00139400  0.73778900  0.99281900  1
  F  F26  1  0.65199400  0.88595800  0.45790700  1
  F  F27  1  0.48225700  0.96219900  0.18809500  1
  F  F28  1  0.48581700  0.74725600  0.03561700  1
  F  F29  1  0.51418300  0.25274400  0.96438300  1
  F  F30  1  0.22190000  0.77837500  0.79496400  1
  F  F31  1  0.55520100  0.25562800  0.60864100  1
  F  F32  1  0.42277800  0.42277800  0.28060000  1
  F  F33  1  0.57722200  0.57722200  0.71940000  1
loop_
_geom_bond_atom_site_label_1
_geom_bond_atom_site_label_2
_geom_bond_distance
_geom_bond_site_symmetry_2
Al0 F30 1.804526 1_555
Al0 F19 1.809803 1_555
Al0 F4 1.814258 1_555
Al0 F8 1.843848 1_555
Al0 F17 1.855298 1_555
Al0 F25 1.863564 1_555
Al1 F21 1.808550 1_555
Al1 F10 1.823475 1_545
Al1 F1 1.823475 1_455
Al1 F18 1.829253 1_555
Al1 F5 1.829253 1_555
Al1 F7 1.845857 1_555
Al2 F20 1.804526 1_555
Al2 F24 1.809803 1_555
Al2 F22 1.814258 1_555
Al2 F13 1.843848 1_555
Al2 F1 1.855298 1_555
Al2 F11 1.863564 1_555
Al3 F0 1.804526 1_555
Al3 F31 1.809803 1_555
Al3 F16 1.814258 1_555
Al3 F29 1.843848 1_555
Al3 F12 1.855298 1_555
Al3 F14 1.863564 1_555
Al4 F23 1.808550 1_555
Al4 F17 1.823475 1_655
Al4 F12 1.823475 1_565
Al4 F26 1.829253 1_555
Al4 F3 1.829253 1_555
Al4 F6 1.845857 1_555
Al5 F2 1.804526 1_555
Al5 F9 1.809803 1_555
Al5 F27 1.814258 1_555
Al5 F28 1.843848 1_555
Al5 F10 1.855298 1_555
Al5 F15 1.863564 1_555
F0 Sr3 2.497140 1_555
F0 Sr6 2.869778 1_656
F2 Sr4 2.497140 1_555
F2 Sr6 2.869778 1_565
F3 Sr3 2.555308 1_555
F3 Sr4 2.603838 1_655
F3 Sr1 2.936560 1_555
F4 Sr3 2.553213 1_455
F4 Sr2 2.693837 1_555
F5 Sr0 2.555308 1_555
F5 Sr5 2.603838 1_545
F5 Sr2 2.936560 1_555
F6 Sr1 2.584842 1_556
F6 Sr3 2.898085 1_555
F6 Sr5 2.898085 1_555
F7 Sr2 2.584842 1_554
F7 Sr4 2.898085 1_555
F7 Sr0 2.898085 1_555
F8 Na0 2.433687 1_556
F8 Sr4 2.554165 1_556
F8 Sr2 2.632973 1_555
F9 Na1 2.288571 1_555
F9 Sr5 2.605623 1_555
F11 Sr6 2.577831 1_655
F11 Sr2 2.578258 1_654
F11 Sr3 2.930874 1_554
F13 Na0 2.433687 1_555
F13 Sr3 2.554165 1_554
F13 Sr1 2.632973 1_555
F14 Sr6 2.577831 1_656
F14 Sr1 2.578258 1_546
F14 Sr0 2.930874 1_556
F15 Sr6 2.577831 1_565
F15 Sr2 2.578258 1_564
F15 Sr5 2.930874 1_554
F16 Sr5 2.553213 1_545
F16 Sr2 2.693837 1_555
F18 Sr4 2.555308 1_555
F18 Sr3 2.603838 1_455
F18 Sr2 2.936560 1_555
F19 Na1 2.288571 1_555
F19 Sr4 2.605623 1_555
F20 Sr0 2.497140 1_555
F20 Sr6 2.869778 1_655
F21 Sr6 2.578612 1_556
F22 Sr4 2.553213 1_655
F22 Sr1 2.693837 1_555
F23 Sr6 2.578612 1_665
F24 Na1 2.288571 1_555
F24 Sr3 2.605623 1_555
F25 Sr6 2.577831 1_566
F25 Sr1 2.578258 1_456
F25 Sr4 2.930874 1_556
F26 Sr5 2.555308 1_555
F26 Sr0 2.603838 1_565
F26 Sr1 2.936560 1_555
F27 Sr0 2.553213 1_565
F27 Sr1 2.693837 1_555
F28 Na0 2.433687 1_555
F28 Sr5 2.554165 1_554
F28 Sr1 2.632973 1_555
F29 Na0 2.433687 1_556
F29 Sr0 2.554165 1_556
F29 Sr2 2.632973 1_555
F30 Sr5 2.497140 1_555
F30 Sr6 2.869778 1_566
F31 Na1 2.288571 1_555
F31 Sr0 2.605623 1_555
F32 Na0 2.199311 1_555
F32 Na1 2.234507 1_555
F32 Sr4 2.430963 1_555
F32 Sr0 2.430963 1_555
F33 Na0 2.199311 1_556
F33 Na1 2.234507 1_555
F33 Sr5 2.430963 1_555
F33 Sr3 2.430963 1_555
