# generated using pymatgen
data_KNaMn(Si2O5)2
_symmetry_space_group_name_H-M   'P 1'
_cell_length_a   7.06690100
_cell_length_b   8.31912200
_cell_length_c   10.11105417
_cell_angle_alpha   105.75106039
_cell_angle_beta   99.60749530
_cell_angle_gamma   114.36577466
_symmetry_Int_Tables_number   1
_chemical_formula_structural   KNaMn(Si2O5)2
_chemical_formula_sum   'K2 Na2 Mn2 Si8 O20'
_cell_volume   494.08320570
_cell_formula_units_Z   2
loop_
 _symmetry_equiv_pos_site_id
 _symmetry_equiv_pos_as_xyz
  1  'x, y, z'
loop_
 _atom_site_type_symbol
 _atom_site_label
 _atom_site_symmetry_multiplicity
 _atom_site_fract_x
 _atom_site_fract_y
 _atom_site_fract_z
 _atom_site_occupancy
  K  K0  1  0.15767900  0.79919800  0.98965100  1
  K  K1  1  0.84232100  0.20080200  0.01034900  1
  Na  Na0  1  0.83608700  0.86244500  0.58933500  1
  Na  Na1  1  0.16391300  0.13755500  0.41066500  1
  Mn  Mn0  1  0.65811600  0.10643800  0.40710700  1
  Mn  Mn1  1  0.34188400  0.89356200  0.59289300  1
  Si  Si0  1  0.29285500  0.17651300  0.86818900  1
  Si  Si1  1  0.46389300  0.30013700  0.21138400  1
  Si  Si2  1  0.06296700  0.36389600  0.73037300  1
  Si  Si3  1  0.93703300  0.63610400  0.26962700  1
  Si  Si4  1  0.53610700  0.69986300  0.78861600  1
  Si  Si5  1  0.70714500  0.82348700  0.13181100  1
  Si  Si6  1  0.37110500  0.63835200  0.26856800  1
  Si  Si7  1  0.62889500  0.36164800  0.73143200  1
  O  O0  1  0.11010400  0.57621200  0.20690600  1
  O  O1  1  0.87678800  0.73829300  0.16187600  1
  O  O2  1  0.53545100  0.32450200  0.86588900  1
  O  O3  1  0.62478500  0.55245900  0.71576700  1
  O  O4  1  0.57756800  0.85668400  0.71860700  1
  O  O5  1  0.49799600  0.17595800  0.58340700  1
  O  O6  1  0.37521500  0.44754100  0.28423300  1
  O  O7  1  0.32336200  0.18723700  0.03616400  1
  O  O8  1  0.96837100  0.22559400  0.56355500  1
  O  O9  1  0.88989600  0.42378800  0.79309400  1
  O  O10  1  0.72294000  0.42688300  0.22755700  1
  O  O11  1  0.12321200  0.26170700  0.83812400  1
  O  O12  1  0.67663800  0.81276300  0.96383600  1
  O  O13  1  0.50200400  0.82404200  0.41659300  1
  O  O14  1  0.80329000  0.03800100  0.24169000  1
  O  O15  1  0.19671000  0.96199900  0.75831000  1
  O  O16  1  0.46454900  0.67549800  0.13411100  1
  O  O17  1  0.03162900  0.77440600  0.43644500  1
  O  O18  1  0.27706000  0.57311700  0.77244300  1
  O  O19  1  0.42243200  0.14331600  0.28139300  1
loop_
_geom_bond_atom_site_label_1
_geom_bond_atom_site_label_2
_geom_bond_distance
_geom_bond_site_symmetry_2
K0 O9 2.789774 1_455
K0 O7 2.808245 1_566
K0 O1 2.834153 1_456
K0 O18 2.959323 1_555
K0 O15 3.001474 1_555
K0 O16 3.081481 1_556
K0 O19 3.090461 1_566
K0 O0 3.213081 1_556
K1 O0 2.789774 1_655
K1 O12 2.808245 1_544
K1 O11 2.834153 1_654
K1 O10 2.959323 1_555
K1 O14 3.001474 1_555
K1 O2 3.081481 1_554
K1 O4 3.090461 1_544
K1 O9 3.213081 1_554
Na0 O17 2.401917 1_655
Na0 O4 2.409825 1_555
Na0 O15 2.477209 1_655
Na0 O13 2.534745 1_555
Na0 O8 2.871820 1_565
Na1 O8 2.401917 1_455
Na1 O19 2.409825 1_555
Na1 O14 2.477209 1_455
Na1 O5 2.534745 1_555
Na1 O17 2.871820 1_545
Mn0 O19 2.100133 1_555
Mn0 O8 2.118911 1_555
Mn0 O14 2.170667 1_555
Mn0 O13 2.182789 1_545
Mn0 O5 2.333675 1_555
Mn1 O4 2.100133 1_555
Mn1 O17 2.118911 1_555
Mn1 O15 2.170667 1_555
Mn1 O5 2.182789 1_565
Mn1 O13 2.333675 1_555
O0 Si6 1.646944 1_555
O0 Si3 1.654245 1_455
O1 Si5 1.651777 1_555
O1 Si3 1.654564 1_555
O2 Si7 1.655051 1_555
O2 Si0 1.656114 1_555
O3 Si7 1.648853 1_555
O3 Si4 1.654327 1_555
O4 Si4 1.595036 1_555
O5 Si7 1.607994 1_555
O6 Si6 1.648853 1_555
O6 Si1 1.654327 1_555
O7 Si0 1.648836 1_554
O7 Si1 1.657364 1_555
O8 Si2 1.597191 1_655
O9 Si7 1.646944 1_555
O9 Si2 1.654245 1_655
O10 Si1 1.644263 1_555
O10 Si3 1.646162 1_555
O11 Si0 1.651777 1_555
O11 Si2 1.654564 1_555
O12 Si5 1.648836 1_556
O12 Si4 1.657364 1_555
O13 Si6 1.607994 1_555
O14 Si5 1.597430 1_545
O15 Si0 1.597430 1_565
O16 Si6 1.655051 1_555
O16 Si5 1.656114 1_555
O17 Si3 1.597191 1_455
O18 Si4 1.644263 1_555
O18 Si2 1.646162 1_555
O19 Si1 1.595036 1_555
