# generated using pymatgen
data_Nb3Se12I
_symmetry_space_group_name_H-M   'P 1'
_cell_length_a   9.78490400
_cell_length_b   9.78490400
_cell_length_c   19.41691400
_cell_angle_alpha   90.00000000
_cell_angle_beta   90.00000000
_cell_angle_gamma   90.00000000
_symmetry_Int_Tables_number   1
_chemical_formula_structural   Nb3Se12I
_chemical_formula_sum   'Nb12 Se48 I4'
_cell_volume   1859.05973788
_cell_formula_units_Z   4
loop_
 _symmetry_equiv_pos_site_id
 _symmetry_equiv_pos_as_xyz
  1  'x, y, z'
loop_
 _atom_site_type_symbol
 _atom_site_label
 _atom_site_symmetry_multiplicity
 _atom_site_fract_x
 _atom_site_fract_y
 _atom_site_fract_z
 _atom_site_occupancy
  Nb  Nb0  1  0.00000000  0.50000000  0.58940500  1
  Nb  Nb1  1  0.00000000  0.50000000  0.08940500  1
  Nb  Nb2  1  0.50000000  0.00000000  0.57210700  1
  Nb  Nb3  1  0.00000000  0.50000000  0.76043700  1
  Nb  Nb4  1  0.50000000  0.00000000  0.73956300  1
  Nb  Nb5  1  0.50000000  0.00000000  0.07210700  1
  Nb  Nb6  1  0.00000000  0.50000000  0.26043700  1
  Nb  Nb7  1  0.00000000  0.50000000  0.42789300  1
  Nb  Nb8  1  0.50000000  0.00000000  0.23956300  1
  Nb  Nb9  1  0.00000000  0.50000000  0.92789300  1
  Nb  Nb10  1  0.50000000  0.00000000  0.91059500  1
  Nb  Nb11  1  0.50000000  0.00000000  0.41059500  1
  Se  Se0  1  0.54522100  0.21020500  0.31872900  1
  Se  Se1  1  0.95074600  0.71111900  0.83773700  1
  Se  Se2  1  0.54925400  0.21111900  0.66226300  1
  Se  Se3  1  0.81868400  0.37422700  0.84826300  1
  Se  Se4  1  0.37422700  0.18131600  0.15173700  1
  Se  Se5  1  0.78096800  0.48242700  0.50897500  1
  Se  Se6  1  0.45074600  0.78888100  0.66226300  1
  Se  Se7  1  0.04522100  0.28979500  0.18127100  1
  Se  Se8  1  0.95477900  0.71020500  0.18127100  1
  Se  Se9  1  0.04925400  0.28888100  0.83773700  1
  Se  Se10  1  0.45477900  0.78979500  0.31872900  1
  Se  Se11  1  0.12577300  0.68131600  0.34826300  1
  Se  Se12  1  0.89502800  0.69552600  0.50910500  1
  Se  Se13  1  0.12285500  0.68317700  0.66918200  1
  Se  Se14  1  0.98242700  0.28096800  0.00897500  1
  Se  Se15  1  0.28096800  0.01757300  0.99102500  1
  Se  Se16  1  0.78979500  0.54522100  0.68127100  1
  Se  Se17  1  0.31682300  0.12285500  0.33081800  1
  Se  Se18  1  0.71903200  0.98242700  0.99102500  1
  Se  Se19  1  0.28979500  0.95477900  0.81872900  1
  Se  Se20  1  0.51757300  0.78096800  0.49102500  1
  Se  Se21  1  0.31868400  0.12577300  0.65173700  1
  Se  Se22  1  0.21903200  0.51757300  0.50897500  1
  Se  Se23  1  0.71020500  0.04522100  0.81872900  1
  Se  Se24  1  0.62285500  0.81682300  0.83081800  1
  Se  Se25  1  0.18131600  0.62577300  0.84826300  1
  Se  Se26  1  0.81682300  0.37714500  0.16918200  1
  Se  Se27  1  0.21020500  0.45477900  0.68127100  1
  Se  Se28  1  0.18317700  0.62285500  0.16918200  1
  Se  Se29  1  0.39502800  0.80447400  0.99089500  1
  Se  Se30  1  0.68131600  0.87422700  0.65173700  1
  Se  Se31  1  0.19552600  0.39502800  0.00910500  1
  Se  Se32  1  0.48242700  0.21903200  0.49102500  1
  Se  Se33  1  0.21111900  0.45074600  0.33773700  1
  Se  Se34  1  0.87714500  0.31682300  0.66918200  1
  Se  Se35  1  0.60497200  0.19552600  0.99089500  1
  Se  Se36  1  0.28888100  0.95074600  0.16226300  1
  Se  Se37  1  0.71111900  0.04925400  0.16226300  1
  Se  Se38  1  0.87422700  0.31868400  0.34826300  1
  Se  Se39  1  0.62577300  0.81868400  0.15173700  1
  Se  Se40  1  0.01757300  0.71903200  0.00897500  1
  Se  Se41  1  0.69552600  0.10497200  0.49089500  1
  Se  Se42  1  0.10497200  0.30447400  0.50910500  1
  Se  Se43  1  0.37714500  0.18317700  0.83081800  1
  Se  Se44  1  0.78888100  0.54925400  0.33773700  1
  Se  Se45  1  0.30447400  0.89502800  0.49089500  1
  Se  Se46  1  0.80447400  0.60497200  0.00910500  1
  Se  Se47  1  0.68317700  0.87714500  0.33081800  1
  I  I0  1  0.50000000  0.50000000  0.86999600  1
  I  I1  1  0.00000000  0.00000000  0.36999600  1
  I  I2  1  0.50000000  0.50000000  0.13000400  1
  I  I3  1  0.00000000  0.00000000  0.63000400  1
loop_
_geom_bond_atom_site_label_1
_geom_bond_atom_site_label_2
_geom_bond_distance
_geom_bond_site_symmetry_2
Nb0 Se34 2.656532 1_455
Nb0 Se13 2.656532 1_555
Nb0 Se22 2.657408 1_555
Nb0 Se5 2.657408 1_455
Nb0 Se12 2.673275 1_455
Nb0 Se42 2.673275 1_555
Nb0 Se16 2.758286 1_455
Nb0 Se27 2.758286 1_555
Nb1 Se26 2.656532 1_455
Nb1 Se28 2.656532 1_555
Nb1 Se40 2.657408 1_555
Nb1 Se14 2.657408 1_455
Nb1 Se46 2.673275 1_455
Nb1 Se31 2.673275 1_555
Nb1 Se7 2.758286 1_555
Nb1 Se8 2.758286 1_455
Nb2 Se21 2.655719 1_555
Nb2 Se30 2.655719 1_545
Nb2 Se20 2.664868 1_545
Nb2 Se32 2.664868 1_555
Nb2 Se45 2.683642 1_545
Nb2 Se41 2.683642 1_555
Nb2 Se6 2.750299 1_545
Nb2 Se2 2.750299 1_555
Nb3 Se1 2.598557 1_455
Nb3 Se9 2.598557 1_555
Nb3 Se16 2.605614 1_455
Nb3 Se27 2.605614 1_555
Nb3 Se25 2.751416 1_555
Nb3 Se3 2.751416 1_455
Nb3 Se13 2.792362 1_555
Nb3 Se34 2.792362 1_455
Nb4 Se6 2.598557 1_545
Nb4 Se2 2.598557 1_555
Nb4 Se23 2.605614 1_555
Nb4 Se19 2.605614 1_545
Nb4 Se21 2.751416 1_555
Nb4 Se30 2.751416 1_545
Nb4 Se43 2.792362 1_555
Nb4 Se24 2.792362 1_545
Nb5 Se39 2.655719 1_545
Nb5 Se4 2.655719 1_555
Nb5 Se18 2.664868 1_544
Nb5 Se15 2.664868 1_554
Nb5 Se35 2.683642 1_554
Nb5 Se29 2.683642 1_544
Nb5 Se37 2.750299 1_555
Nb5 Se36 2.750299 1_545
Nb6 Se44 2.598557 1_455
Nb6 Se33 2.598557 1_555
Nb6 Se7 2.605614 1_555
Nb6 Se8 2.605614 1_455
Nb6 Se11 2.751416 1_555
Nb6 Se38 2.751416 1_455
Nb6 Se28 2.792362 1_555
Nb6 Se26 2.792362 1_455
Nb7 Se38 2.655719 1_455
Nb7 Se11 2.655719 1_555
Nb7 Se5 2.664868 1_455
Nb7 Se22 2.664868 1_555
Nb7 Se12 2.683642 1_455
Nb7 Se42 2.683642 1_555
Nb7 Se44 2.750299 1_455
Nb7 Se33 2.750299 1_555
Nb8 Se37 2.598557 1_555
Nb8 Se36 2.598557 1_545
Nb8 Se10 2.605614 1_545
Nb8 Se0 2.605614 1_555
Nb8 Se39 2.751416 1_545
Nb8 Se4 2.751416 1_555
Nb8 Se17 2.792362 1_555
Nb8 Se47 2.792362 1_545
Nb9 Se25 2.655719 1_555
Nb9 Se3 2.655719 1_455
Nb9 Se14 2.664868 1_456
Nb9 Se40 2.664868 1_556
Nb9 Se46 2.683642 1_456
Nb9 Se31 2.683642 1_556
Nb9 Se1 2.750299 1_455
Nb9 Se9 2.750299 1_555
Nb10 Se43 2.656532 1_555
Nb10 Se24 2.656532 1_545
Nb10 Se15 2.657408 1_555
Nb10 Se18 2.657408 1_545
Nb10 Se35 2.673275 1_555
Nb10 Se29 2.673275 1_545
Nb10 Se19 2.758286 1_545
Nb10 Se23 2.758286 1_555
Nb11 Se17 2.656532 1_555
Nb11 Se47 2.656532 1_545
Nb11 Se20 2.657408 1_545
Nb11 Se32 2.657408 1_555
Nb11 Se45 2.673275 1_545
Nb11 Se41 2.673275 1_555
Nb11 Se10 2.758286 1_545
Nb11 Se0 2.758286 1_555
Se0 Se17 2.404204 1_555
Se1 Se25 2.414369 1_655
Se2 Se21 2.414369 1_555
Se3 Se9 2.414369 1_655
Se10 Se47 2.404204 1_555
Se11 Se33 2.414369 1_555
Se12 Se5 2.365053 1_555
Se13 Se27 2.404204 1_555
Se14 Se31 2.365053 1_655
Se15 Se29 2.365053 1_545
Se16 Se34 2.404204 1_555
Se18 Se35 2.365053 1_565
Se19 Se43 2.404204 1_565
Se20 Se45 2.365053 1_555
Se22 Se42 2.365053 1_555
Se23 Se24 2.404204 1_545
Se26 Se7 2.404204 1_655
Se28 Se8 2.404204 1_455
Se30 Se6 2.414369 1_555
Se32 Se41 2.365053 1_555
Se36 Se4 2.414369 1_565
Se37 Se39 2.414369 1_545
Se38 Se44 2.414369 1_555
Se40 Se46 2.365053 1_455
