# generated using pymatgen
data_La2GaN3
_symmetry_space_group_name_H-M   'P 1'
_cell_length_a   6.16749154
_cell_length_b   6.16749154
_cell_length_c   11.98818969
_cell_angle_alpha   88.36409190
_cell_angle_beta   88.36409190
_cell_angle_gamma   124.84312407
_symmetry_Int_Tables_number   1
_chemical_formula_structural   La2GaN3
_chemical_formula_sum   'La8 Ga4 N12'
_cell_volume   373.54091567
_cell_formula_units_Z   4
loop_
 _symmetry_equiv_pos_site_id
 _symmetry_equiv_pos_as_xyz
  1  'x, y, z'
loop_
 _atom_site_type_symbol
 _atom_site_label
 _atom_site_symmetry_multiplicity
 _atom_site_fract_x
 _atom_site_fract_y
 _atom_site_fract_z
 _atom_site_occupancy
  La  La0  1  0.96775158  0.55405642  0.84910989  1
  La  La1  1  0.44594358  0.03224842  0.65089011  1
  La  La2  1  0.65542014  0.86625577  0.92530264  1
  La  La3  1  0.13374423  0.34457986  0.57469736  1
  La  La4  1  0.03224842  0.44594358  0.15089011  1
  La  La5  1  0.86625577  0.65542014  0.42530264  1
  La  La6  1  0.55405642  0.96775158  0.34910989  1
  La  La7  1  0.34457986  0.13374423  0.07469736  1
  Ga  Ga0  1  0.73207034  0.72896893  0.66275613  1
  Ga  Ga1  1  0.27103107  0.26792966  0.83724387  1
  Ga  Ga2  1  0.72896893  0.73207034  0.16275613  1
  Ga  Ga3  1  0.26792966  0.27103107  0.33724387  1
  N  N0  1  0.11764820  0.31858159  0.97181217  1
  N  N1  1  0.99176463  0.00823537  0.25000000  1
  N  N2  1  0.00823537  0.99176463  0.75000000  1
  N  N3  1  0.40091217  0.59908783  0.75000000  1
  N  N4  1  0.59908783  0.40091217  0.25000000  1
  N  N5  1  0.68141841  0.88235180  0.52818783  1
  N  N6  1  0.88235180  0.68141841  0.02818783  1
  N  N7  1  0.14860182  0.50349467  0.37036718  1
  N  N8  1  0.50349467  0.14860182  0.87036718  1
  N  N9  1  0.85139818  0.49650533  0.62963282  1
  N  N10  1  0.31858159  0.11764820  0.47181217  1
  N  N11  1  0.49650533  0.85139818  0.12963282  1
loop_
_geom_bond_atom_site_label_1
_geom_bond_atom_site_label_2
_geom_bond_distance
_geom_bond_site_symmetry_2
La0 N6 2.451070 1_556
La0 N8 2.501404 1_555
La0 N0 2.572436 1_655
La0 N9 2.726515 1_555
La0 N3 2.752805 1_655
La0 N2 2.791308 1_655
La1 N10 2.451070 1_555
La1 N9 2.501404 1_555
La1 N5 2.572436 1_545
La1 N8 2.726515 1_555
La1 N3 2.752805 1_545
La1 N2 2.791308 1_545
La2 N8 2.485606 1_565
La2 N6 2.573161 1_556
La2 N11 2.591675 1_556
La2 N3 2.650693 1_555
La2 N0 2.704159 1_665
La2 N2 2.733497 1_655
La2 N0 3.115495 1_555
La3 N9 2.485606 1_455
La3 N10 2.573161 1_555
La3 N7 2.591675 1_555
La3 N3 2.650693 1_555
La3 N5 2.704159 1_445
La3 N2 2.733497 1_545
La3 N5 3.115495 1_555
La4 N0 2.451070 1_554
La4 N11 2.501404 1_555
La4 N6 2.572436 1_455
La4 N7 2.726515 1_555
La4 N4 2.752805 1_455
La4 N1 2.791308 1_455
La5 N7 2.485606 1_655
La5 N5 2.573161 1_555
La5 N9 2.591675 1_555
La5 N4 2.650693 1_555
La5 N10 2.704159 1_665
La5 N1 2.733497 1_565
La5 N10 3.115495 1_555
La6 N5 2.451070 1_555
La6 N7 2.501404 1_555
La6 N10 2.572436 1_565
La6 N11 2.726515 1_555
La6 N4 2.752805 1_565
La6 N1 2.791308 1_565
La7 N11 2.485606 1_545
La7 N0 2.573161 1_554
La7 N8 2.591675 1_554
La7 N4 2.650693 1_555
La7 N6 2.704159 1_445
La7 N1 2.733497 1_455
La7 N6 3.115495 1_555
Ga0 N2 1.914671 1_655
Ga0 N3 1.966662 1_555
Ga0 N5 1.968329 1_555
Ga0 N9 1.994079 1_555
Ga1 N2 1.914671 1_545
Ga1 N3 1.966662 1_555
Ga1 N0 1.968329 1_555
Ga1 N8 1.994079 1_555
Ga2 N1 1.914671 1_565
Ga2 N4 1.966662 1_555
Ga2 N6 1.968329 1_555
Ga2 N11 1.994079 1_555
Ga3 N1 1.914671 1_455
Ga3 N4 1.966662 1_555
Ga3 N10 1.968329 1_555
Ga3 N7 1.994079 1_555
