# generated using pymatgen
data_V2P2PbO10
_symmetry_space_group_name_H-M   'P 1'
_cell_length_a   8.78720100
_cell_length_b   5.28343900
_cell_length_c   17.05588910
_cell_angle_alpha   88.94339450
_cell_angle_beta   90.00000000
_cell_angle_gamma   90.00000000
_symmetry_Int_Tables_number   1
_chemical_formula_structural   V2P2PbO10
_chemical_formula_sum   'V8 P8 Pb4 O40'
_cell_volume   791.71298914
_cell_formula_units_Z   4
loop_
 _symmetry_equiv_pos_site_id
 _symmetry_equiv_pos_as_xyz
  1  'x, y, z'
loop_
 _atom_site_type_symbol
 _atom_site_label
 _atom_site_symmetry_multiplicity
 _atom_site_fract_x
 _atom_site_fract_y
 _atom_site_fract_z
 _atom_site_occupancy
  V  V0  1  0.33459400  0.85452400  0.56855400  1
  V  V1  1  0.53686400  0.53719900  0.84873300  1
  V  V2  1  0.96313600  0.53719900  0.34873300  1
  V  V3  1  0.46313600  0.46280100  0.15126700  1
  V  V4  1  0.66540600  0.14547600  0.43144600  1
  V  V5  1  0.16540600  0.85452400  0.06855400  1
  V  V6  1  0.83459400  0.14547600  0.93144600  1
  V  V7  1  0.03686400  0.46280100  0.65126700  1
  P  P0  1  0.58857400  0.63283100  0.32241200  1
  P  P1  1  0.28223300  0.35747600  0.98159900  1
  P  P2  1  0.41142600  0.36716900  0.67758800  1
  P  P3  1  0.71776700  0.64252400  0.01840100  1
  P  P4  1  0.21776700  0.35747600  0.48159900  1
  P  P5  1  0.08857400  0.36716900  0.17758800  1
  P  P6  1  0.78223300  0.64252400  0.51840100  1
  P  P7  1  0.91142600  0.63283100  0.82241200  1
  Pb  Pb0  1  0.29698200  0.04828500  0.32027000  1
  Pb  Pb1  1  0.20301800  0.04828500  0.82027000  1
  Pb  Pb2  1  0.79698200  0.95171500  0.17973000  1
  Pb  Pb3  1  0.70301800  0.95171500  0.67973000  1
  O  O0  1  0.99095300  0.32042300  0.25198200  1
  O  O1  1  0.45889700  0.62118700  0.63735100  1
  O  O2  1  0.31611000  0.59796300  0.48729300  1
  O  O3  1  0.93853200  0.21330200  0.68519700  1
  O  O4  1  0.32979600  0.80885600  0.11344400  1
  O  O5  1  0.67020400  0.19114400  0.88655600  1
  O  O6  1  0.25920100  0.36891200  0.20163100  1
  O  O7  1  0.75920100  0.63108800  0.29836900  1
  O  O8  1  0.81893900  0.88854400  0.02077600  1
  O  O9  1  0.54110300  0.37881300  0.36264900  1
  O  O10  1  0.64045100  0.64595600  0.10139600  1
  O  O11  1  0.00904700  0.67957700  0.74801800  1
  O  O12  1  0.14045100  0.35404400  0.39860400  1
  O  O13  1  0.18106100  0.11145600  0.97922400  1
  O  O14  1  0.17020400  0.80885600  0.61344400  1
  O  O15  1  0.94387000  0.86352900  0.87519600  1
  O  O16  1  0.10186100  0.33694800  0.54802400  1
  O  O17  1  0.60186100  0.66305200  0.95197600  1
  O  O18  1  0.31893900  0.11145600  0.47922400  1
  O  O19  1  0.05613000  0.13647100  0.12480400  1
  O  O20  1  0.68106100  0.88854400  0.52077600  1
  O  O21  1  0.24079900  0.36891200  0.70163100  1
  O  O22  1  0.06146800  0.78669800  0.31480300  1
  O  O23  1  0.95889700  0.37881300  0.86264900  1
  O  O24  1  0.18389000  0.59796300  0.98729300  1
  O  O25  1  0.68389000  0.40203700  0.51270700  1
  O  O26  1  0.82979600  0.19114400  0.38655600  1
  O  O27  1  0.04110300  0.62118700  0.13735100  1
  O  O28  1  0.44387000  0.13647100  0.62480400  1
  O  O29  1  0.50904700  0.32042300  0.75198200  1
  O  O30  1  0.49095300  0.67957700  0.24801800  1
  O  O31  1  0.43853200  0.78669800  0.81480300  1
  O  O32  1  0.35954900  0.35404400  0.89860400  1
  O  O33  1  0.74079900  0.63108800  0.79836900  1
  O  O34  1  0.89813900  0.66305200  0.45197600  1
  O  O35  1  0.39813900  0.33694800  0.04802400  1
  O  O36  1  0.56146800  0.21330200  0.18519700  1
  O  O37  1  0.81611000  0.40203700  0.01270700  1
  O  O38  1  0.55613000  0.86352900  0.37519600  1
  O  O39  1  0.85954900  0.64595600  0.60139600  1
loop_
_geom_bond_atom_site_label_1
_geom_bond_atom_site_label_2
_geom_bond_distance
_geom_bond_site_symmetry_2
O0 P5 1.547670 1_655
O0 V2 2.040659 1_555
O0 Pb2 2.882226 1_545
O1 P2 1.553130 1_555
O1 V0 2.009084 1_555
O1 Pb3 2.867104 1_555
O2 P4 1.541160 1_555
O2 V0 1.963174 1_555
O3 V7 1.670645 1_655
O3 Pb3 2.491276 1_545
O4 V5 1.650536 1_555
O4 V3 2.255750 1_555
O5 V6 1.650536 1_555
O5 V1 2.255750 1_555
O6 P5 1.554473 1_555
O6 V3 2.044400 1_555
O6 Pb0 2.635907 1_555
O7 P0 1.554473 1_555
O7 V2 2.044400 1_555
O7 Pb2 2.635907 1_555
O8 P3 1.575912 1_555
O8 V6 2.026518 1_564
O8 Pb2 2.744461 1_555
O9 P0 1.553130 1_555
O9 V4 2.009084 1_555
O9 Pb0 2.867104 1_555
O10 P3 1.570554 1_555
O10 V3 2.014264 1_555
O10 Pb2 2.523147 1_555
O11 P7 1.547670 1_455
O11 V7 2.040659 1_555
O11 Pb1 2.882226 1_565
O12 P4 1.570554 1_555
O12 V2 2.014264 1_455
O12 Pb0 2.523147 1_555
O13 P1 1.575912 1_555
O13 V5 2.026518 1_546
O13 Pb1 2.744461 1_555
O14 V0 1.650536 1_555
O14 V7 2.255750 1_555
O15 P7 1.554964 1_555
O15 V6 2.028360 1_565
O15 Pb1 2.642409 1_665
O16 P4 1.525811 1_555
O16 V7 1.977953 1_555
O17 P3 1.525811 1_556
O17 V1 1.977953 1_555
O18 P4 1.575912 1_555
O18 V0 2.026518 1_545
O18 Pb0 2.744461 1_555
O19 P5 1.554964 1_555
O19 V5 2.028360 1_545
O19 Pb2 2.642409 1_445
O20 P6 1.575912 1_555
O20 V4 2.026518 1_565
O20 Pb3 2.744461 1_555
O21 P2 1.554473 1_555
O21 V7 2.044400 1_555
O21 Pb1 2.635907 1_555
O22 V2 1.670645 1_455
O22 Pb0 2.491276 1_565
O23 P7 1.553130 1_555
O23 V6 2.009084 1_555
O23 Pb1 2.867104 1_655
O24 P1 1.541160 1_555
O24 V5 1.963174 1_556
O25 P6 1.541160 1_555
O25 V4 1.963174 1_555
O26 V4 1.650536 1_555
O26 V2 2.255750 1_555
O27 P5 1.553130 1_555
O27 V5 2.009084 1_555
O27 Pb2 2.867104 1_455
O28 P2 1.554964 1_555
O28 V0 2.028360 1_545
O28 Pb3 2.642409 1_545
O29 P2 1.547670 1_555
O29 V1 2.040659 1_555
O29 Pb3 2.882226 1_545
O30 P0 1.547670 1_555
O30 V3 2.040659 1_555
O30 Pb0 2.882226 1_565
O31 V1 1.670645 1_555
O31 Pb1 2.491276 1_565
O32 P1 1.570554 1_555
O32 V1 2.014264 1_555
O32 Pb1 2.523147 1_555
O33 P7 1.554473 1_555
O33 V1 2.044400 1_555
O33 Pb3 2.635907 1_555
O34 P6 1.525811 1_555
O34 V2 1.977953 1_555
O35 P1 1.525811 1_554
O35 V3 1.977953 1_555
O36 V3 1.670645 1_555
O36 Pb2 2.491276 1_545
O37 P3 1.541160 1_555
O37 V6 1.963174 1_554
O38 P0 1.554964 1_555
O38 V4 2.028360 1_565
O38 Pb0 2.642409 1_565
O39 P6 1.570554 1_555
O39 V7 2.014264 1_655
O39 Pb3 2.523147 1_555
