# generated using pymatgen
data_MnH6SO6
_symmetry_space_group_name_H-M   'P 1'
_cell_length_a   5.67462100
_cell_length_b   9.60686300
_cell_length_c   9.92404600
_cell_angle_alpha   90.00000000
_cell_angle_beta   90.00000000
_cell_angle_gamma   90.00000000
_symmetry_Int_Tables_number   1
_chemical_formula_structural   MnH6SO6
_chemical_formula_sum   'Mn4 H24 S4 O24'
_cell_volume   541.01240965
_cell_formula_units_Z   4
loop_
 _symmetry_equiv_pos_site_id
 _symmetry_equiv_pos_as_xyz
  1  'x, y, z'
loop_
 _atom_site_type_symbol
 _atom_site_label
 _atom_site_symmetry_multiplicity
 _atom_site_fract_x
 _atom_site_fract_y
 _atom_site_fract_z
 _atom_site_occupancy
  Mn  Mn0  1  0.24612000  0.19050600  0.27504200  1
  Mn  Mn1  1  0.25388000  0.80949400  0.77504200  1
  Mn  Mn2  1  0.74612000  0.30949400  0.72495800  1
  Mn  Mn3  1  0.75388000  0.69050600  0.22495800  1
  H  H0  1  0.98730500  0.09867000  0.86968800  1
  H  H1  1  0.61806500  0.46792500  0.40578400  1
  H  H2  1  0.10364900  0.96715500  0.10130200  1
  H  H3  1  0.89635100  0.46715500  0.39869800  1
  H  H4  1  0.51917200  0.09924300  0.87297100  1
  H  H5  1  0.01269500  0.59867000  0.63031200  1
  H  H6  1  0.68369500  0.70977200  0.64871100  1
  H  H7  1  0.98082800  0.90075700  0.37297100  1
  H  H8  1  0.60364900  0.53284500  0.89869800  1
  H  H9  1  0.81630500  0.29022800  0.14871100  1
  H  H10  1  0.49736300  0.26370900  0.03957000  1
  H  H11  1  0.11806500  0.03207500  0.59421600  1
  H  H12  1  0.01917200  0.40075700  0.12702900  1
  H  H13  1  0.48082800  0.59924300  0.62702900  1
  H  H14  1  0.48730500  0.40133000  0.13031200  1
  H  H15  1  0.38193500  0.96792500  0.09421600  1
  H  H16  1  0.31630500  0.20977200  0.85128900  1
  H  H17  1  0.51269500  0.90133000  0.36968800  1
  H  H18  1  0.50263700  0.76370900  0.46043000  1
  H  H19  1  0.88193500  0.53207500  0.90578400  1
  H  H20  1  0.39635100  0.03284500  0.60130200  1
  H  H21  1  0.99736300  0.23629100  0.96043000  1
  H  H22  1  0.00263700  0.73629100  0.53957000  1
  H  H23  1  0.18369500  0.79022800  0.35128900  1
  S  S0  1  0.25476500  0.65794100  0.06509400  1
  S  S1  1  0.24523500  0.34205900  0.56509400  1
  S  S2  1  0.74523500  0.15794100  0.43490600  1
  S  S3  1  0.75476500  0.84205900  0.93490600  1
  O  O0  1  0.98951700  0.29741400  0.13128100  1
  O  O1  1  0.25445000  0.98597200  0.63516000  1
  O  O2  1  0.99046300  0.70280000  0.63469500  1
  O  O3  1  0.02940000  0.42399300  0.61980900  1
  O  O4  1  0.74555000  0.48597200  0.86484000  1
  O  O5  1  0.53641000  0.92377500  0.88270000  1
  O  O6  1  0.48951700  0.20258600  0.86871900  1
  O  O7  1  0.47060000  0.57600700  0.11980900  1
  O  O8  1  0.50953700  0.29720000  0.13469500  1
  O  O9  1  0.25764700  0.62917500  0.91133200  1
  O  O10  1  0.24555000  0.01402800  0.13516000  1
  O  O11  1  0.52940000  0.07600700  0.38019100  1
  O  O12  1  0.51048300  0.70258600  0.63128100  1
  O  O13  1  0.75445000  0.51402800  0.36484000  1
  O  O14  1  0.46359000  0.42377500  0.61730000  1
  O  O15  1  0.75764700  0.87082500  0.08866800  1
  O  O16  1  0.74235300  0.12917500  0.58866800  1
  O  O17  1  0.01048300  0.79741400  0.36871900  1
  O  O18  1  0.00953700  0.20280000  0.86530500  1
  O  O19  1  0.03641000  0.57622500  0.11730000  1
  O  O20  1  0.49046300  0.79720000  0.36530500  1
  O  O21  1  0.96359000  0.07622500  0.38270000  1
  O  O22  1  0.97060000  0.92399300  0.88019100  1
  O  O23  1  0.24235300  0.37082500  0.41133200  1
loop_
_geom_bond_atom_site_label_1
_geom_bond_atom_site_label_2
_geom_bond_distance
_geom_bond_site_symmetry_2
Mn0 O10 2.191228 1_555
Mn0 O23 2.197887 1_555
Mn0 O11 2.209734 1_555
Mn0 O21 2.217486 1_455
Mn0 O0 2.282669 1_455
Mn0 O8 2.285812 1_555
Mn1 O1 2.191228 1_555
Mn1 O9 2.197887 1_555
Mn1 O22 2.209734 1_455
Mn1 O5 2.217486 1_555
Mn1 O12 2.282669 1_555
Mn1 O2 2.285812 1_455
Mn2 O4 2.191228 1_555
Mn2 O16 2.197887 1_555
Mn2 O3 2.209734 1_655
Mn2 O14 2.217486 1_555
Mn2 O6 2.282669 1_555
Mn2 O18 2.285812 1_655
Mn3 O13 2.191228 1_555
Mn3 O15 2.197887 1_555
Mn3 O7 2.209734 1_555
Mn3 O19 2.217486 1_655
Mn3 O17 2.282669 1_655
Mn3 O20 2.285812 1_555
H0 O18 1.009224 1_655
H0 O22 1.684002 1_545
H1 O13 0.979919 1_555
H2 O10 0.981874 1_565
H3 O13 0.981874 1_555
H4 O6 1.007847 1_555
H4 O5 1.691291 1_545
H5 O2 1.009224 1_455
H5 O3 1.684002 1_555
H6 O12 1.000402 1_555
H7 O17 1.007847 1_655
H7 O21 1.691291 1_565
H8 O4 0.981874 1_555
H9 O0 1.000402 1_555
H10 O8 0.999737 1_555
H11 O1 0.979919 1_545
H12 O0 1.007847 1_455
H12 O19 1.691291 1_555
H13 O12 1.007847 1_555
H13 O14 1.691291 1_555
H14 O8 1.009224 1_555
H14 O7 1.684002 1_555
H15 O10 0.979919 1_565
H16 O6 1.000402 1_555
H17 O20 1.009224 1_555
H17 O11 1.684002 1_565
H18 O20 0.999737 1_555
H19 O4 0.979919 1_555
H20 O1 0.981874 1_545
H21 O18 0.999737 1_655
H22 O2 0.999737 1_455
H23 O17 1.000402 1_555
O3 S1 1.553868 1_555
O5 S3 1.555643 1_555
O7 S0 1.553868 1_555
O9 S0 1.550849 1_556
O11 S2 1.553868 1_555
O14 S1 1.555643 1_555
O15 S3 1.550849 1_554
O16 S2 1.550849 1_555
O19 S0 1.555643 1_555
O21 S2 1.555643 1_555
O22 S3 1.553868 1_555
O23 S1 1.550849 1_555
