# generated using pymatgen
data_Cs2WBr6
_symmetry_space_group_name_H-M   'P 1'
_cell_length_a   7.67233582
_cell_length_b   7.67233582
_cell_length_c   7.67234334
_cell_angle_alpha   59.99996759
_cell_angle_beta   59.99996759
_cell_angle_gamma   60.00006482
_symmetry_Int_Tables_number   1
_chemical_formula_structural   Cs2WBr6
_chemical_formula_sum   'Cs2 W1 Br6'
_cell_volume   319.35096932
_cell_formula_units_Z   1
loop_
 _symmetry_equiv_pos_site_id
 _symmetry_equiv_pos_as_xyz
  1  'x, y, z'
loop_
 _atom_site_type_symbol
 _atom_site_label
 _atom_site_symmetry_multiplicity
 _atom_site_fract_x
 _atom_site_fract_y
 _atom_site_fract_z
 _atom_site_occupancy
  Cs  Cs0  1  0.75000000  0.75000000  0.75000000  1
  Cs  Cs1  1  0.25000000  0.25000000  0.25000000  1
  W  W0  1  0.00000000  -0.00000000  0.00000000  1
  Br  Br0  1  0.23478310  0.23478310  0.76521690  1
  Br  Br1  1  0.23478310  0.76521690  0.76521690  1
  Br  Br2  1  0.76521690  0.23478310  0.23478310  1
  Br  Br3  1  0.23478310  0.76521690  0.23478310  1
  Br  Br4  1  0.76521690  0.23478310  0.76521690  1
  Br  Br5  1  0.76521690  0.76521690  0.23478310  1
loop_
_geom_bond_atom_site_label_1
_geom_bond_atom_site_label_2
_geom_bond_distance
_geom_bond_site_symmetry_2
Br0 W0 2.547470 1_556
Br0 Cs0 3.839723 1_545
Br0 Cs1 3.839723 1_555
Br0 Cs1 3.839723 1_556
Br0 Cs0 3.839723 1_455
Br1 W0 2.547475 1_566
Br1 Cs0 3.839719 1_455
Br1 Cs1 3.839719 1_556
Br1 Cs0 3.839719 1_555
Br1 Cs1 3.839719 1_565
Br2 W0 2.547475 1_655
Br2 Cs1 3.839719 1_655
Br2 Cs1 3.839719 1_555
Br2 Cs0 3.839719 1_545
Br2 Cs0 3.839719 1_554
Br3 W0 2.547475 1_565
Br3 Cs0 3.839719 1_455
Br3 Cs1 3.839719 1_555
Br3 Cs1 3.839719 1_565
Br3 Cs0 3.839719 1_554
Br4 W0 2.547475 1_656
Br4 Cs1 3.839719 1_655
Br4 Cs1 3.839719 1_556
Br4 Cs0 3.839719 1_555
Br4 Cs0 3.839719 1_545
Br5 W0 2.547470 1_665
Br5 Cs0 3.839723 1_555
Br5 Cs0 3.839723 1_554
Br5 Cs1 3.839723 1_565
Br5 Cs1 3.839723 1_655
