# generated using pymatgen
data_Cs3Nd(MoO4)3
_symmetry_space_group_name_H-M   'P 1'
_cell_length_a   6.52583700
_cell_length_b   9.53602500
_cell_length_c   26.42226400
_cell_angle_alpha   90.00000000
_cell_angle_beta   90.00000000
_cell_angle_gamma   90.00000000
_symmetry_Int_Tables_number   1
_chemical_formula_structural   Cs3Nd(MoO4)3
_chemical_formula_sum   'Cs12 Nd4 Mo12 O48'
_cell_volume   1644.27188299
_cell_formula_units_Z   4
loop_
 _symmetry_equiv_pos_site_id
 _symmetry_equiv_pos_as_xyz
  1  'x, y, z'
loop_
 _atom_site_type_symbol
 _atom_site_label
 _atom_site_symmetry_multiplicity
 _atom_site_fract_x
 _atom_site_fract_y
 _atom_site_fract_z
 _atom_site_occupancy
  Cs  Cs0  1  0.25000000  0.02471700  0.40788200  1
  Cs  Cs1  1  0.25000000  0.52471700  0.09211800  1
  Cs  Cs2  1  0.75000000  0.97528300  0.59211800  1
  Cs  Cs3  1  0.75000000  0.47528300  0.90788200  1
  Cs  Cs4  1  0.25000000  0.10385400  0.82009800  1
  Cs  Cs5  1  0.25000000  0.60385400  0.67990200  1
  Cs  Cs6  1  0.75000000  0.89614600  0.17990200  1
  Cs  Cs7  1  0.75000000  0.39614600  0.32009800  1
  Cs  Cs8  1  0.25000000  0.18842500  0.24101500  1
  Cs  Cs9  1  0.25000000  0.68842500  0.25898500  1
  Cs  Cs10  1  0.75000000  0.81157500  0.75898500  1
  Cs  Cs11  1  0.75000000  0.31157500  0.74101500  1
  Nd  Nd0  1  0.25000000  0.31852500  0.54075400  1
  Nd  Nd1  1  0.25000000  0.81852500  0.95924600  1
  Nd  Nd2  1  0.75000000  0.68147500  0.45924600  1
  Nd  Nd3  1  0.75000000  0.18147500  0.04075400  1
  Mo  Mo0  1  0.25000000  0.75271600  0.52419500  1
  Mo  Mo1  1  0.25000000  0.25271600  0.97580500  1
  Mo  Mo2  1  0.75000000  0.24728400  0.47580500  1
  Mo  Mo3  1  0.75000000  0.74728400  0.02419500  1
  Mo  Mo4  1  0.25000000  0.48061300  0.40055000  1
  Mo  Mo5  1  0.25000000  0.98061300  0.09945000  1
  Mo  Mo6  1  0.75000000  0.51938700  0.59945000  1
  Mo  Mo7  1  0.75000000  0.01938700  0.90055000  1
  Mo  Mo8  1  0.25000000  0.11524100  0.67430600  1
  Mo  Mo9  1  0.25000000  0.61524100  0.82569400  1
  Mo  Mo10  1  0.75000000  0.88475900  0.32569400  1
  Mo  Mo11  1  0.75000000  0.38475900  0.17430600  1
  O  O0  1  0.25000000  0.80169700  0.58848100  1
  O  O1  1  0.25000000  0.30169700  0.91151900  1
  O  O2  1  0.75000000  0.19830300  0.41151900  1
  O  O3  1  0.75000000  0.69830300  0.08848100  1
  O  O4  1  0.47393800  0.82165400  0.49214400  1
  O  O5  1  0.02606200  0.32165400  0.00785600  1
  O  O6  1  0.97393800  0.17834600  0.50785600  1
  O  O7  1  0.52606200  0.67834600  0.99214400  1
  O  O8  1  0.52606200  0.17834600  0.50785600  1
  O  O9  1  0.97393800  0.67834600  0.99214400  1
  O  O10  1  0.02606200  0.82165400  0.49214400  1
  O  O11  1  0.47393800  0.32165400  0.00785600  1
  O  O12  1  0.25000000  0.56409500  0.51875400  1
  O  O13  1  0.25000000  0.06409500  0.98124600  1
  O  O14  1  0.75000000  0.43590500  0.48124600  1
  O  O15  1  0.75000000  0.93590500  0.01875400  1
  O  O16  1  0.25000000  0.40399500  0.33871400  1
  O  O17  1  0.25000000  0.90399500  0.16128600  1
  O  O18  1  0.75000000  0.59600500  0.66128600  1
  O  O19  1  0.75000000  0.09600500  0.83871400  1
  O  O20  1  0.25000000  0.34181700  0.44641700  1
  O  O21  1  0.25000000  0.84181700  0.05358300  1
  O  O22  1  0.75000000  0.65818300  0.55358300  1
  O  O23  1  0.75000000  0.15818300  0.94641700  1
  O  O24  1  0.47904200  0.58581100  0.40587500  1
  O  O25  1  0.02095800  0.08581100  0.09412500  1
  O  O26  1  0.97904200  0.41418900  0.59412500  1
  O  O27  1  0.52095800  0.91418900  0.90587500  1
  O  O28  1  0.52095800  0.41418900  0.59412500  1
  O  O29  1  0.97904200  0.91418900  0.90587500  1
  O  O30  1  0.02095800  0.58581100  0.40587500  1
  O  O31  1  0.47904200  0.08581100  0.09412500  1
  O  O32  1  0.02408000  0.02142400  0.69332500  1
  O  O33  1  0.47592000  0.52142400  0.80667500  1
  O  O34  1  0.52408000  0.97857600  0.30667500  1
  O  O35  1  0.97592000  0.47857600  0.19332500  1
  O  O36  1  0.97592000  0.97857600  0.30667500  1
  O  O37  1  0.52408000  0.47857600  0.19332500  1
  O  O38  1  0.47592000  0.02142400  0.69332500  1
  O  O39  1  0.02408000  0.52142400  0.80667500  1
  O  O40  1  0.25000000  0.27911800  0.70784300  1
  O  O41  1  0.25000000  0.77911800  0.79215700  1
  O  O42  1  0.75000000  0.72088200  0.29215700  1
  O  O43  1  0.75000000  0.22088200  0.20784300  1
  O  O44  1  0.25000000  0.14733100  0.60615300  1
  O  O45  1  0.25000000  0.64733100  0.89384700  1
  O  O46  1  0.75000000  0.85266900  0.39384700  1
  O  O47  1  0.75000000  0.35266900  0.10615300  1
loop_
_geom_bond_atom_site_label_1
_geom_bond_atom_site_label_2
_geom_bond_distance
_geom_bond_site_symmetry_2
Cs0 O20 3.190690 1_555
Cs0 O36 3.247092 1_445
Cs0 O34 3.247092 1_545
Cs0 O4 3.292744 1_545
Cs0 O10 3.292744 1_545
Cs0 O8 3.517032 1_555
Cs0 O6 3.517032 1_455
Cs0 O2 3.660049 1_555
Cs0 O2 3.660049 1_455
Cs0 O46 3.670954 1_545
Cs0 O46 3.670954 1_445
Cs1 O21 3.190690 1_555
Cs1 O35 3.247092 1_455
Cs1 O37 3.247092 1_555
Cs1 O11 3.292744 1_555
Cs1 O5 3.292744 1_555
Cs1 O7 3.517032 1_554
Cs1 O9 3.517032 1_454
Cs1 O3 3.660049 1_455
Cs1 O3 3.660049 1_555
Cs1 O47 3.670954 1_555
Cs1 O47 3.670954 1_455
Cs2 O22 3.190690 1_555
Cs2 O38 3.247092 1_565
Cs2 O32 3.247092 1_665
Cs2 O6 3.292744 1_565
Cs2 O8 3.292744 1_565
Cs2 O10 3.517032 1_655
Cs2 O4 3.517032 1_555
Cs2 O0 3.660049 1_655
Cs2 O0 3.660049 1_555
Cs2 O44 3.670954 1_565
Cs2 O44 3.670954 1_665
Cs3 O23 3.190690 1_555
Cs3 O33 3.247092 1_555
Cs3 O39 3.247092 1_655
Cs3 O7 3.292744 1_555
Cs3 O9 3.292744 1_555
Cs3 O5 3.517032 1_656
Cs3 O11 3.517032 1_556
Cs3 O1 3.660049 1_655
Cs3 O1 3.660049 1_555
Cs3 O45 3.670954 1_655
Cs3 O45 3.670954 1_555
Cs4 O1 3.065008 1_555
Cs4 O41 3.183477 1_545
Cs4 O19 3.300634 1_555
Cs4 O19 3.300634 1_455
Cs4 O27 3.396250 1_545
Cs4 O29 3.396250 1_445
Cs4 O40 3.404506 1_555
Cs5 O0 3.065008 1_555
Cs5 O40 3.183477 1_555
Cs5 O18 3.300634 1_455
Cs5 O18 3.300634 1_555
Cs5 O28 3.396250 1_555
Cs5 O26 3.396250 1_455
Cs5 O41 3.404506 1_555
Cs6 O3 3.065008 1_555
Cs6 O43 3.183477 1_565
Cs6 O17 3.300634 1_555
Cs6 O17 3.300634 1_655
Cs6 O25 3.396250 1_665
Cs6 O31 3.396250 1_565
Cs6 O42 3.404506 1_555
Cs7 O2 3.065008 1_555
Cs7 O42 3.183477 1_555
Cs7 O16 3.300634 1_655
Cs7 O16 3.300634 1_555
Cs7 O30 3.396250 1_655
Cs7 O24 3.396250 1_555
Cs7 O43 3.404506 1_555
Cs8 O34 3.195845 1_545
Cs8 O36 3.195845 1_445
Cs8 O16 3.299939 1_555
Cs8 O43 3.392735 1_455
Cs8 O43 3.392735 1_555
Cs8 O17 3.434326 1_545
Cs8 O35 3.527401 1_455
Cs8 O37 3.527401 1_555
Cs9 O37 3.195845 1_555
Cs9 O35 3.195845 1_455
Cs9 O17 3.299939 1_555
Cs9 O42 3.392735 1_455
Cs9 O42 3.392735 1_555
Cs9 O16 3.434326 1_555
Cs9 O36 3.527401 1_455
Cs9 O34 3.527401 1_555
Cs10 O38 3.195845 1_565
Cs10 O32 3.195845 1_665
Cs10 O18 3.299939 1_555
Cs10 O41 3.392735 1_655
Cs10 O41 3.392735 1_555
Cs10 O19 3.434326 1_565
Cs10 O33 3.527401 1_555
Cs10 O39 3.527401 1_655
Cs11 O33 3.195845 1_555
Cs11 O39 3.195845 1_655
Cs11 O19 3.299939 1_555
Cs11 O40 3.392735 1_655
Cs11 O40 3.392735 1_555
Cs11 O18 3.434326 1_555
Cs11 O38 3.527401 1_555
Cs11 O32 3.527401 1_655
Nd0 O44 2.377191 1_555
Nd0 O8 2.405828 1_555
Nd0 O6 2.405828 1_455
Nd0 O12 2.412829 1_555
Nd0 O28 2.438740 1_555
Nd0 O26 2.438740 1_455
Nd0 O20 2.502474 1_555
Nd1 O45 2.377191 1_555
Nd1 O7 2.405828 1_555
Nd1 O9 2.405828 1_455
Nd1 O13 2.412829 1_565
Nd1 O27 2.438740 1_555
Nd1 O29 2.438740 1_455
Nd1 O21 2.502474 1_556
Nd2 O46 2.377191 1_555
Nd2 O10 2.405828 1_655
Nd2 O4 2.405828 1_555
Nd2 O14 2.412829 1_555
Nd2 O30 2.438740 1_655
Nd2 O24 2.438740 1_555
Nd2 O22 2.502474 1_555
Nd3 O47 2.377191 1_555
Nd3 O5 2.405828 1_655
Nd3 O11 2.405828 1_555
Nd3 O15 2.412829 1_545
Nd3 O25 2.438740 1_655
Nd3 O31 2.438740 1_555
Nd3 O23 2.502474 1_554
Mo0 O0 1.761632 1_555
Mo0 O12 1.804431 1_555
Mo0 O4 1.812451 1_555
Mo0 O10 1.812451 1_555
Mo1 O1 1.761632 1_555
Mo1 O13 1.804431 1_555
Mo1 O11 1.812451 1_556
Mo1 O5 1.812451 1_556
Mo2 O2 1.761632 1_555
Mo2 O14 1.804431 1_555
Mo2 O8 1.812451 1_555
Mo2 O6 1.812451 1_555
Mo3 O3 1.761632 1_555
Mo3 O15 1.804431 1_555
Mo3 O9 1.812451 1_554
Mo3 O7 1.812451 1_554
Mo4 O16 1.789770 1_555
Mo4 O20 1.794587 1_555
Mo4 O24 1.805616 1_555
Mo4 O30 1.805616 1_555
Mo5 O17 1.789770 1_555
Mo5 O21 1.794587 1_555
Mo5 O31 1.805616 1_565
Mo5 O25 1.805616 1_565
Mo6 O18 1.789770 1_555
Mo6 O22 1.794587 1_555
Mo6 O26 1.805616 1_555
Mo6 O28 1.805616 1_555
Mo7 O19 1.789770 1_555
Mo7 O23 1.794587 1_555
Mo7 O29 1.805616 1_545
Mo7 O27 1.805616 1_545
Mo8 O32 1.796253 1_555
Mo8 O38 1.796253 1_555
Mo8 O40 1.796484 1_555
Mo8 O44 1.826572 1_555
Mo9 O33 1.796253 1_555
Mo9 O39 1.796253 1_555
Mo9 O41 1.796484 1_555
Mo9 O45 1.826572 1_555
Mo10 O34 1.796253 1_555
Mo10 O36 1.796253 1_555
Mo10 O42 1.796484 1_555
Mo10 O46 1.826572 1_555
Mo11 O37 1.796253 1_555
Mo11 O35 1.796253 1_555
Mo11 O43 1.796484 1_555
Mo11 O47 1.826572 1_555
