# generated using pymatgen
data_Ag3N5O6
_symmetry_space_group_name_H-M   'P 1'
_cell_length_a   7.38748687
_cell_length_b   7.38748687
_cell_length_c   9.32769600
_cell_angle_alpha   90.00000000
_cell_angle_beta   90.00000000
_cell_angle_gamma   130.66298577
_symmetry_Int_Tables_number   1
_chemical_formula_structural   Ag3N5O6
_chemical_formula_sum   'Ag6 N10 O12'
_cell_volume   386.14921757
_cell_formula_units_Z   2
loop_
 _symmetry_equiv_pos_site_id
 _symmetry_equiv_pos_as_xyz
  1  'x, y, z'
loop_
 _atom_site_type_symbol
 _atom_site_label
 _atom_site_symmetry_multiplicity
 _atom_site_fract_x
 _atom_site_fract_y
 _atom_site_fract_z
 _atom_site_occupancy
  Ag  Ag0  1  0.57649000  0.57649000  0.04418100  1
  Ag  Ag1  1  0.77554500  0.04797300  0.60632400  1
  Ag  Ag2  1  0.42351000  0.42351000  0.54418100  1
  Ag  Ag3  1  0.22445500  0.95202700  0.10632400  1
  Ag  Ag4  1  0.04797300  0.77554500  0.60632400  1
  Ag  Ag5  1  0.95202700  0.22445500  0.10632400  1
  N  N0  1  0.18178300  0.18178300  0.83346000  1
  N  N1  1  0.43437100  0.83069100  0.87615800  1
  N  N2  1  0.56562900  0.16930900  0.37615800  1
  N  N3  1  0.81821700  0.81821700  0.33346000  1
  N  N4  1  0.85228300  0.85228300  0.20808300  1
  N  N5  1  0.78791200  0.78791200  0.45949600  1
  N  N6  1  0.21208800  0.21208800  0.95949600  1
  N  N7  1  0.16930900  0.56562900  0.37615800  1
  N  N8  1  0.14771700  0.14771700  0.70808300  1
  N  N9  1  0.83069100  0.43437100  0.87615800  1
  O  O0  1  0.37345900  0.77344600  0.00822100  1
  O  O1  1  0.44277700  0.21575500  0.31934100  1
  O  O2  1  0.06741000  0.62226000  0.30694000  1
  O  O3  1  0.21575500  0.44277700  0.31934100  1
  O  O4  1  0.62654100  0.22655400  0.50822100  1
  O  O5  1  0.78424500  0.55722300  0.81934100  1
  O  O6  1  0.93259000  0.37774000  0.80694000  1
  O  O7  1  0.77344600  0.37345900  0.00822100  1
  O  O8  1  0.37774000  0.93259000  0.80694000  1
  O  O9  1  0.55722300  0.78424500  0.81934100  1
  O  O10  1  0.22655400  0.62654100  0.50822100  1
  O  O11  1  0.62226000  0.06741000  0.30694000  1
loop_
_geom_bond_atom_site_label_1
_geom_bond_atom_site_label_2
_geom_bond_distance
_geom_bond_site_symmetry_2
Ag0 N4 2.286856 1_555
Ag0 N6 2.381914 1_554
Ag0 O5 2.656866 1_554
Ag0 O9 2.656866 1_554
Ag0 O0 2.706161 1_555
Ag0 O7 2.706161 1_555
Ag1 O4 2.383703 1_555
Ag1 N5 2.409108 1_545
Ag1 O9 2.500004 1_545
Ag1 N8 2.522491 1_655
Ag1 O6 2.664429 1_555
Ag2 N8 2.286856 1_555
Ag2 N5 2.381914 1_555
Ag2 O1 2.656866 1_555
Ag2 O3 2.656866 1_555
Ag2 O4 2.706161 1_555
Ag2 O10 2.706161 1_555
Ag3 O0 2.383703 1_555
Ag3 N6 2.409108 1_564
Ag3 O1 2.500004 1_565
Ag3 N4 2.522491 1_455
Ag3 O2 2.664429 1_555
Ag4 O10 2.383703 1_555
Ag4 N5 2.409108 1_455
Ag4 O5 2.500004 1_455
Ag4 N8 2.522491 1_565
Ag4 O8 2.664429 1_555
Ag5 O7 2.383703 1_555
Ag5 N6 2.409108 1_654
Ag5 O3 2.500004 1_655
Ag5 N4 2.522491 1_545
Ag5 O11 2.664429 1_555
N0 N8 1.188196 1_555
N0 N6 1.190386 1_555
N1 O8 1.252590 1_555
N1 O9 1.275973 1_555
N1 O0 1.284822 1_556
N2 O11 1.252590 1_555
N2 O1 1.275973 1_555
N2 O4 1.284822 1_555
N3 N4 1.188196 1_555
N3 N5 1.190386 1_555
N7 O2 1.252590 1_555
N7 O3 1.275973 1_555
N7 O10 1.284822 1_555
N9 O6 1.252590 1_555
N9 O5 1.275973 1_555
N9 O7 1.284822 1_556
