# generated using pymatgen
data_Ba2P7Cl
_symmetry_space_group_name_H-M   'P 1'
_cell_length_a   6.92966900
_cell_length_b   6.42156500
_cell_length_c   11.87969171
_cell_angle_alpha   84.76765860
_cell_angle_beta   90.00000000
_cell_angle_gamma   90.00000000
_symmetry_Int_Tables_number   1
_chemical_formula_structural   Ba2P7Cl
_chemical_formula_sum   'Ba4 P14 Cl2'
_cell_volume   526.43540943
_cell_formula_units_Z   2
loop_
 _symmetry_equiv_pos_site_id
 _symmetry_equiv_pos_as_xyz
  1  'x, y, z'
loop_
 _atom_site_type_symbol
 _atom_site_label
 _atom_site_symmetry_multiplicity
 _atom_site_fract_x
 _atom_site_fract_y
 _atom_site_fract_z
 _atom_site_occupancy
  Ba  Ba0  1  0.25000000  0.22926400  0.95433800  1
  Ba  Ba1  1  0.25000000  0.43275700  0.34693700  1
  Ba  Ba2  1  0.75000000  0.77073600  0.04566200  1
  Ba  Ba3  1  0.75000000  0.56724300  0.65306300  1
  P  P0  1  0.25000000  0.00890300  0.55050900  1
  P  P1  1  0.99397000  0.11701800  0.19523800  1
  P  P2  1  0.75000000  0.32156300  0.22236600  1
  P  P3  1  0.25000000  0.67446700  0.59347700  1
  P  P4  1  0.41970100  0.14471700  0.68688700  1
  P  P5  1  0.08029900  0.14471700  0.68688700  1
  P  P6  1  0.91970100  0.85528300  0.31311300  1
  P  P7  1  0.00603000  0.88298200  0.80476200  1
  P  P8  1  0.25000000  0.67843700  0.77763400  1
  P  P9  1  0.49397000  0.88298200  0.80476200  1
  P  P10  1  0.58029900  0.85528300  0.31311300  1
  P  P11  1  0.75000000  0.32553300  0.40652300  1
  P  P12  1  0.50603000  0.11701800  0.19523800  1
  P  P13  1  0.75000000  0.99109700  0.44949100  1
  Cl  Cl0  1  0.75000000  0.36504100  0.91101300  1
  Cl  Cl1  1  0.25000000  0.63495900  0.08898700  1
loop_
_geom_bond_atom_site_label_1
_geom_bond_atom_site_label_2
_geom_bond_distance
_geom_bond_site_symmetry_2
Ba0 Cl1 3.178961 1_556
Ba0 P1 3.388379 1_456
Ba0 P12 3.388379 1_556
Ba0 P8 3.409102 1_555
Ba0 P7 3.417756 1_545
Ba0 P9 3.417756 1_545
Ba0 P4 3.476654 1_555
Ba0 P5 3.476654 1_555
Ba0 Cl0 3.598381 1_555
Ba0 Cl0 3.598381 1_455
Ba1 Cl1 3.217236 1_555
Ba1 P1 3.342580 1_455
Ba1 P12 3.342580 1_555
Ba1 P3 3.437486 1_555
Ba1 P0 3.472205 1_555
Ba1 P10 3.544486 1_555
Ba1 P6 3.544486 1_455
Ba1 P11 3.590452 1_455
Ba1 P11 3.590452 1_555
Ba2 Cl0 3.178961 1_554
Ba2 P7 3.388379 1_654
Ba2 P9 3.388379 1_554
Ba2 P2 3.409102 1_555
Ba2 P12 3.417756 1_565
Ba2 P1 3.417756 1_565
Ba2 P10 3.476654 1_555
Ba2 P6 3.476654 1_555
Ba2 Cl1 3.598381 1_555
Ba2 Cl1 3.598381 1_655
Ba3 Cl0 3.217236 1_555
Ba3 P7 3.342580 1_655
Ba3 P9 3.342580 1_555
Ba3 P11 3.437486 1_555
Ba3 P13 3.472205 1_555
Ba3 P5 3.544486 1_655
Ba3 P4 3.544486 1_555
Ba3 P3 3.590452 1_655
Ba3 P3 3.590452 1_555
P0 P3 2.161668 1_545
P0 P5 2.241888 1_555
P0 P4 2.241888 1_555
P1 P6 2.149747 1_545
P1 P2 2.182792 1_555
P3 P8 2.190200 1_555
P4 P9 2.149747 1_545
P4 P5 2.351944 1_555
P5 P7 2.149747 1_545
P7 P8 2.182792 1_555
P8 P9 2.182792 1_555
P10 P12 2.149747 1_565
P10 P13 2.241888 1_555
P10 P6 2.351944 1_555
P11 P13 2.161668 1_545
P11 P2 2.190200 1_555
P12 P2 2.182792 1_555
P13 P6 2.241888 1_555
