# generated using pymatgen
data_BaMo2(PO6)2
_symmetry_space_group_name_H-M   'P 1'
_cell_length_a   7.33288300
_cell_length_b   6.47283600
_cell_length_c   10.17176861
_cell_angle_alpha   84.90740386
_cell_angle_beta   90.00000000
_cell_angle_gamma   90.00000000
_symmetry_Int_Tables_number   1
_chemical_formula_structural   BaMo2(PO6)2
_chemical_formula_sum   'Ba2 Mo4 P4 O24'
_cell_volume   480.89258475
_cell_formula_units_Z   2
loop_
 _symmetry_equiv_pos_site_id
 _symmetry_equiv_pos_as_xyz
  1  'x, y, z'
loop_
 _atom_site_type_symbol
 _atom_site_label
 _atom_site_symmetry_multiplicity
 _atom_site_fract_x
 _atom_site_fract_y
 _atom_site_fract_z
 _atom_site_occupancy
  Ba  Ba0  1  0.00000000  0.00000000  0.00000000  1
  Ba  Ba1  1  0.50000000  0.00000000  0.50000000  1
  Mo  Mo0  1  0.96612500  0.72748900  0.67415200  1
  Mo  Mo1  1  0.46612500  0.27251100  0.82584800  1
  Mo  Mo2  1  0.03387500  0.27251100  0.32584800  1
  Mo  Mo3  1  0.53387500  0.72748900  0.17415200  1
  P  P0  1  0.55670500  0.76501600  0.84371100  1
  P  P1  1  0.94329500  0.76501600  0.34371100  1
  P  P2  1  0.05670500  0.23498400  0.65628900  1
  P  P3  1  0.44329500  0.23498400  0.15628900  1
  O  O0  1  0.33614200  0.21980000  0.02727700  1
  O  O1  1  0.17825700  0.24698700  0.77971500  1
  O  O2  1  0.43110500  0.56884700  0.85587900  1
  O  O3  1  0.83614200  0.78020000  0.47272300  1
  O  O4  1  0.93110500  0.43115300  0.64412100  1
  O  O5  1  0.18014900  0.76713200  0.60282000  1
  O  O6  1  0.56889500  0.43115300  0.14412100  1
  O  O7  1  0.31985100  0.76713200  0.10282000  1
  O  O8  1  0.66385800  0.78020000  0.97272300  1
  O  O9  1  0.51881600  0.31538000  0.65918600  1
  O  O10  1  0.68014900  0.23286800  0.89718000  1
  O  O11  1  0.81985100  0.23286800  0.39718000  1
  O  O12  1  0.48118400  0.68462000  0.34081400  1
  O  O13  1  0.42758000  0.95581100  0.81558100  1
  O  O14  1  0.92758000  0.04418900  0.68441900  1
  O  O15  1  0.06889500  0.56884700  0.35587900  1
  O  O16  1  0.82174300  0.75301300  0.22028500  1
  O  O17  1  0.57242000  0.04418900  0.18441900  1
  O  O18  1  0.98118400  0.31538000  0.15918600  1
  O  O19  1  0.07242000  0.95581100  0.31558100  1
  O  O20  1  0.01881600  0.68462000  0.84081400  1
  O  O21  1  0.32174300  0.24698700  0.27971500  1
  O  O22  1  0.16385800  0.21980000  0.52727700  1
  O  O23  1  0.67825700  0.75301300  0.72028500  1
loop_
_geom_bond_atom_site_label_1
_geom_bond_atom_site_label_2
_geom_bond_distance
_geom_bond_site_symmetry_2
Ba0 O18 2.719375 1_455
Ba0 O20 2.719375 1_544
Ba0 O8 2.871742 1_444
Ba0 O0 2.871742 1_555
Ba0 O7 2.930359 1_545
Ba0 O10 2.930359 1_454
Ba0 O1 2.940952 1_554
Ba0 O16 2.940952 1_445
Ba1 O12 2.719375 1_545
Ba1 O9 2.719375 1_555
Ba1 O22 2.871742 1_555
Ba1 O3 2.871742 1_545
Ba1 O11 2.930359 1_555
Ba1 O5 2.930359 1_545
Ba1 O23 2.940952 1_545
Ba1 O21 2.940952 1_555
Mo0 O20 1.736847 1_655
Mo0 O5 1.738478 1_655
Mo0 O4 1.985577 1_555
Mo0 O14 2.081126 1_565
Mo0 O23 2.171904 1_555
Mo0 O3 2.258041 1_555
Mo1 O9 1.736847 1_555
Mo1 O10 1.738478 1_555
Mo1 O2 1.985577 1_555
Mo1 O13 2.081126 1_545
Mo1 O1 2.171904 1_555
Mo1 O0 2.258041 1_556
Mo2 O18 1.736847 1_455
Mo2 O11 1.738478 1_455
Mo2 O15 1.985577 1_555
Mo2 O19 2.081126 1_545
Mo2 O21 2.171904 1_555
Mo2 O22 2.258041 1_555
Mo3 O12 1.736847 1_555
Mo3 O7 1.738478 1_555
Mo3 O6 1.985577 1_555
Mo3 O17 2.081126 1_565
Mo3 O16 2.171904 1_555
Mo3 O8 2.258041 1_554
O0 P3 1.540138 1_555
O1 P2 1.547255 1_555
O2 P0 1.564606 1_555
O3 P1 1.540138 1_555
O4 P2 1.564606 1_655
O6 P3 1.564606 1_555
O8 P0 1.540138 1_555
O13 P0 1.562327 1_555
O14 P2 1.562327 1_655
O15 P1 1.564606 1_455
O16 P1 1.547255 1_555
O17 P3 1.562327 1_555
O19 P1 1.562327 1_455
O21 P3 1.547255 1_555
O22 P2 1.540138 1_555
O23 P0 1.547255 1_555
