# generated using pymatgen
data_Sr3V4CdO14
_symmetry_space_group_name_H-M   'P 1'
_cell_length_a   7.17169700
_cell_length_b   7.17169700
_cell_length_c   25.95954800
_cell_angle_alpha   90.00000000
_cell_angle_beta   90.00000000
_cell_angle_gamma   90.00000000
_symmetry_Int_Tables_number   1
_chemical_formula_structural   Sr3V4CdO14
_chemical_formula_sum   'Sr12 V16 Cd4 O56'
_cell_volume   1335.18360702
_cell_formula_units_Z   4
loop_
 _symmetry_equiv_pos_site_id
 _symmetry_equiv_pos_as_xyz
  1  'x, y, z'
loop_
 _atom_site_type_symbol
 _atom_site_label
 _atom_site_symmetry_multiplicity
 _atom_site_fract_x
 _atom_site_fract_y
 _atom_site_fract_z
 _atom_site_occupancy
  Sr  Sr0  1  0.27327800  0.27327800  0.00000000  1
  Sr  Sr1  1  0.33764300  0.39980300  0.38008700  1
  Sr  Sr2  1  0.22672200  0.77327800  0.25000000  1
  Sr  Sr3  1  0.66235700  0.60019700  0.88008700  1
  Sr  Sr4  1  0.39980300  0.33764300  0.61991300  1
  Sr  Sr5  1  0.10019700  0.83764300  0.63008700  1
  Sr  Sr6  1  0.89980300  0.16235700  0.13008700  1
  Sr  Sr7  1  0.16235700  0.89980300  0.86991300  1
  Sr  Sr8  1  0.72672200  0.72672200  0.50000000  1
  Sr  Sr9  1  0.77327800  0.22672200  0.75000000  1
  Sr  Sr10  1  0.83764300  0.10019700  0.36991300  1
  Sr  Sr11  1  0.60019700  0.66235700  0.11991300  1
  V  V0  1  0.24867800  0.64033800  0.50167500  1
  V  V1  1  0.59094000  0.83299700  0.64711700  1
  V  V2  1  0.66700300  0.09094000  0.89711700  1
  V  V3  1  0.74867800  0.85966200  0.24832500  1
  V  V4  1  0.90906000  0.33299700  0.60288300  1
  V  V5  1  0.64033800  0.24867800  0.49832500  1
  V  V6  1  0.09094000  0.66700300  0.10288300  1
  V  V7  1  0.16700300  0.40906000  0.85288300  1
  V  V8  1  0.40906000  0.16700300  0.14711700  1
  V  V9  1  0.75132200  0.35966200  0.00167500  1
  V  V10  1  0.25132200  0.14033800  0.74832500  1
  V  V11  1  0.33299700  0.90906000  0.39711700  1
  V  V12  1  0.85966200  0.74867800  0.75167500  1
  V  V13  1  0.83299700  0.59094000  0.35288300  1
  V  V14  1  0.35966200  0.75132200  0.99832500  1
  V  V15  1  0.14033800  0.25132200  0.25167500  1
  Cd  Cd0  1  0.87825100  0.87825100  0.00000000  1
  Cd  Cd1  1  0.12174900  0.12174900  0.50000000  1
  Cd  Cd2  1  0.62174900  0.37825100  0.25000000  1
  Cd  Cd3  1  0.37825100  0.62174900  0.75000000  1
  O  O0  1  0.24234700  0.70989900  0.15202200  1
  O  O1  1  0.56126300  0.84602900  0.02284000  1
  O  O2  1  0.04501500  0.14226200  0.58482400  1
  O  O3  1  0.49874700  0.07012700  0.38217800  1
  O  O4  1  0.35773800  0.54501500  0.83482400  1
  O  O5  1  0.59788400  0.40262400  0.04997500  1
  O  O6  1  0.43873700  0.15397100  0.52284000  1
  O  O7  1  0.09788400  0.09737600  0.70002500  1
  O  O8  1  0.40262400  0.59788400  0.95002500  1
  O  O9  1  0.76197500  0.39176900  0.54695400  1
  O  O10  1  0.84602900  0.56126300  0.97716000  1
  O  O11  1  0.14226200  0.04501500  0.41517600  1
  O  O12  1  0.23802500  0.60823100  0.04695400  1
  O  O13  1  0.00125300  0.57012700  0.86782200  1
  O  O14  1  0.26197500  0.10823100  0.20304600  1
  O  O15  1  0.34602900  0.93873700  0.77284000  1
  O  O16  1  0.20559000  0.92329700  0.97744200  1
  O  O17  1  0.74234700  0.79010100  0.59797800  1
  O  O18  1  0.42987300  0.99874700  0.63217800  1
  O  O19  1  0.65397100  0.06126300  0.27284000  1
  O  O20  1  0.89176900  0.73802500  0.29695400  1
  O  O21  1  0.09737600  0.09788400  0.29997500  1
  O  O22  1  0.60823100  0.23802500  0.95304600  1
  O  O23  1  0.93873700  0.34602900  0.22716000  1
  O  O24  1  0.57012700  0.00125300  0.13217800  1
  O  O25  1  0.57670300  0.70559000  0.22744200  1
  O  O26  1  0.92329700  0.20559000  0.02255800  1
  O  O27  1  0.73802500  0.89176900  0.70304600  1
  O  O28  1  0.85773800  0.95498500  0.91517600  1
  O  O29  1  0.70989900  0.24234700  0.84797800  1
  O  O30  1  0.59737600  0.40211600  0.45002500  1
  O  O31  1  0.92987300  0.50125300  0.11782200  1
  O  O32  1  0.75765300  0.29010100  0.65202200  1
  O  O33  1  0.40211600  0.59737600  0.54997500  1
  O  O34  1  0.07012700  0.49874700  0.61782200  1
  O  O35  1  0.15397100  0.43873700  0.47716000  1
  O  O36  1  0.64226200  0.45498500  0.33482400  1
  O  O37  1  0.79441000  0.07670300  0.47744200  1
  O  O38  1  0.25765300  0.20989900  0.09797800  1
  O  O39  1  0.29441000  0.42329700  0.27255800  1
  O  O40  1  0.95498500  0.85773800  0.08482400  1
  O  O41  1  0.42329700  0.29441000  0.72744200  1
  O  O42  1  0.79010100  0.74234700  0.40202200  1
  O  O43  1  0.29010100  0.75765300  0.34797800  1
  O  O44  1  0.39176900  0.76197500  0.45304600  1
  O  O45  1  0.07670300  0.79441000  0.52255800  1
  O  O46  1  0.90211600  0.90262400  0.20002500  1
  O  O47  1  0.90262400  0.90211600  0.79997500  1
  O  O48  1  0.10823100  0.26197500  0.79695400  1
  O  O49  1  0.20989900  0.25765300  0.90202200  1
  O  O50  1  0.54501500  0.35773800  0.16517600  1
  O  O51  1  0.70559000  0.57670300  0.77255800  1
  O  O52  1  0.50125300  0.92987300  0.88217800  1
  O  O53  1  0.99874700  0.42987300  0.36782200  1
  O  O54  1  0.06126300  0.65397100  0.72716000  1
  O  O55  1  0.45498500  0.64226200  0.66517600  1
loop_
_geom_bond_atom_site_label_1
_geom_bond_atom_site_label_2
_geom_bond_distance
_geom_bond_site_symmetry_2
Cd0 O40 2.274480 1_555
Cd0 O28 2.274480 1_554
Cd0 O10 2.360727 1_554
Cd0 O1 2.360727 1_555
Cd0 O16 2.440984 1_654
Cd0 O26 2.440984 1_565
Cd1 O11 2.274480 1_555
Cd1 O2 2.274480 1_555
Cd1 O6 2.360727 1_555
Cd1 O35 2.360727 1_555
Cd1 O45 2.440984 1_545
Cd1 O37 2.440984 1_455
Cd2 O36 2.274480 1_555
Cd2 O50 2.274480 1_555
Cd2 O19 2.360727 1_555
Cd2 O23 2.360727 1_555
Cd2 O39 2.440984 1_555
Cd2 O25 2.440984 1_555
Cd3 O4 2.274480 1_555
Cd3 O55 2.274480 1_555
Cd3 O54 2.360727 1_555
Cd3 O15 2.360727 1_555
Cd3 O41 2.440984 1_555
Cd3 O51 2.440984 1_555
O0 V6 1.703209 1_555
O0 Sr2 2.586189 1_555
O0 Sr11 2.719816 1_555
O1 V14 1.719514 1_554
O1 Sr11 2.857156 1_555
O2 V4 1.744015 1_455
O2 Sr5 2.511949 1_545
O2 Sr4 3.044218 1_555
O3 V11 1.702274 1_545
O3 Sr10 2.460694 1_555
O3 Sr1 2.632101 1_555
O4 V7 1.744015 1_555
O4 Sr3 2.511949 1_555
O4 Sr7 3.044218 1_555
O5 V9 1.696457 1_555
O5 Sr11 2.601207 1_555
O5 Sr0 2.821884 1_555
O6 V5 1.719514 1_555
O6 Sr4 2.857156 1_555
O7 V10 1.696457 1_555
O7 Sr5 2.601207 1_545
O7 Sr9 2.821884 1_455
O8 V14 1.696457 1_555
O8 Sr3 2.601207 1_555
O8 Sr0 2.821884 1_556
O9 V4 1.843462 1_555
O9 V5 1.845996 1_555
O9 Sr8 2.705573 1_555
O9 Sr4 3.237943 1_555
O10 V9 1.719514 1_556
O10 Sr3 2.857156 1_555
O11 V11 1.744015 1_545
O11 Sr10 2.511949 1_455
O11 Sr1 3.044218 1_555
O12 V6 1.843462 1_555
O12 V14 1.845996 1_554
O12 Sr0 2.705573 1_555
O12 Sr11 3.237943 1_555
O13 V7 1.702274 1_555
O13 Sr3 2.460694 1_455
O13 Sr7 2.632101 1_555
O14 V8 1.843462 1_555
O14 V15 1.845996 1_555
O14 Sr2 2.705573 1_545
O14 Sr6 3.237943 1_455
O15 V10 1.719514 1_565
O15 Sr7 2.857156 1_555
O16 V14 1.742405 1_555
O16 Sr0 2.622682 1_566
O16 Sr7 2.813621 1_555
O17 V1 1.703209 1_555
O17 Sr8 2.586189 1_555
O17 Sr5 2.719816 1_655
O18 V1 1.702274 1_555
O18 Sr4 2.460694 1_565
O18 Sr5 2.632101 1_555
O19 V3 1.719514 1_545
O19 Sr10 2.857156 1_555
O20 V13 1.843462 1_555
O20 V3 1.845996 1_555
O20 Sr2 2.705573 1_655
O20 Sr10 3.237943 1_565
O21 V15 1.696457 1_555
O21 Sr10 2.601207 1_455
O21 Sr2 2.821884 1_545
O22 V2 1.843462 1_555
O22 V9 1.845996 1_556
O22 Sr0 2.705573 1_556
O22 Sr3 3.237943 1_555
O23 V15 1.719514 1_655
O23 Sr6 2.857156 1_555
O24 V8 1.702274 1_555
O24 Sr11 2.460694 1_545
O24 Sr6 2.632101 1_555
O25 V3 1.742405 1_555
O25 Sr2 2.622682 1_555
O25 Sr11 2.813621 1_555
O26 V9 1.742405 1_555
O26 Sr0 2.622682 1_655
O26 Sr6 2.813621 1_555
O27 V1 1.843462 1_555
O27 V12 1.845996 1_555
O27 Sr9 2.705573 1_565
O27 Sr5 3.237943 1_655
O28 V2 1.744015 1_565
O28 Sr7 2.511949 1_655
O28 Sr3 3.044218 1_555
O29 V2 1.703209 1_555
O29 Sr9 2.586189 1_555
O29 Sr3 2.719816 1_555
O30 V5 1.696457 1_555
O30 Sr1 2.601207 1_555
O30 Sr8 2.821884 1_555
O31 V6 1.702274 1_655
O31 Sr6 2.460694 1_555
O31 Sr11 2.632101 1_555
O32 V4 1.703209 1_555
O32 Sr9 2.586189 1_555
O32 Sr4 2.719816 1_555
O33 V0 1.696457 1_555
O33 Sr4 2.601207 1_555
O33 Sr8 2.821884 1_555
O34 V4 1.702274 1_455
O34 Sr5 2.460694 1_555
O34 Sr4 2.632101 1_555
O35 V0 1.719514 1_555
O35 Sr1 2.857156 1_555
O36 V13 1.744015 1_555
O36 Sr1 2.511949 1_555
O36 Sr10 3.044218 1_555
O37 V5 1.742405 1_555
O37 Sr8 2.622682 1_545
O37 Sr10 2.813621 1_555
O38 V8 1.703209 1_555
O38 Sr0 2.586189 1_555
O38 Sr6 2.719816 1_455
O39 V15 1.742405 1_555
O39 Sr2 2.622682 1_555
O39 Sr1 2.813621 1_555
O40 V6 1.744015 1_655
O40 Sr6 2.511949 1_565
O40 Sr11 3.044218 1_555
O41 V10 1.742405 1_555
O41 Sr9 2.622682 1_555
O41 Sr4 2.813621 1_555
O42 V13 1.703209 1_555
O42 Sr8 2.586189 1_555
O42 Sr10 2.719816 1_565
O43 V11 1.703209 1_555
O43 Sr2 2.586189 1_555
O43 Sr1 2.719816 1_555
O44 V11 1.843462 1_555
O44 V0 1.845996 1_555
O44 Sr8 2.705573 1_555
O44 Sr1 3.237943 1_555
O45 V0 1.742405 1_555
O45 Sr8 2.622682 1_455
O45 Sr5 2.813621 1_555
O46 V3 1.696457 1_555
O46 Sr6 2.601207 1_565
O46 Sr2 2.821884 1_655
O47 V12 1.696457 1_555
O47 Sr7 2.601207 1_655
O47 Sr9 2.821884 1_565
O48 V7 1.843462 1_555
O48 V10 1.845996 1_555
O48 Sr9 2.705573 1_455
O48 Sr7 3.237943 1_545
O49 V7 1.703209 1_555
O49 Sr0 2.586189 1_556
O49 Sr7 2.719816 1_545
O50 V8 1.744015 1_555
O50 Sr11 2.511949 1_555
O50 Sr6 3.044218 1_555
O51 V12 1.742405 1_555
O51 Sr9 2.622682 1_555
O51 Sr3 2.813621 1_555
O52 V2 1.702274 1_565
O52 Sr7 2.460694 1_555
O52 Sr3 2.632101 1_555
O53 V13 1.702274 1_555
O53 Sr1 2.460694 1_655
O53 Sr10 2.632101 1_555
O54 V12 1.719514 1_455
O54 Sr5 2.857156 1_555
O55 V1 1.744015 1_555
O55 Sr4 2.511949 1_555
O55 Sr5 3.044218 1_555
