# generated using pymatgen
data_NaBi2AuO5
_symmetry_space_group_name_H-M   'P 1'
_cell_length_a   12.56700300
_cell_length_b   12.56700300
_cell_length_c   3.62009800
_cell_angle_alpha   90.00000000
_cell_angle_beta   90.00000000
_cell_angle_gamma   90.00000000
_symmetry_Int_Tables_number   1
_chemical_formula_structural   NaBi2AuO5
_chemical_formula_sum   'Na4 Bi8 Au4 O20'
_cell_volume   571.72050023
_cell_formula_units_Z   4
loop_
 _symmetry_equiv_pos_site_id
 _symmetry_equiv_pos_as_xyz
  1  'x, y, z'
loop_
 _atom_site_type_symbol
 _atom_site_label
 _atom_site_symmetry_multiplicity
 _atom_site_fract_x
 _atom_site_fract_y
 _atom_site_fract_z
 _atom_site_occupancy
  Na  Na0  1  0.30073300  0.80073300  0.50000000  1
  Na  Na1  1  0.80073300  0.69926700  0.50000000  1
  Na  Na2  1  0.69926700  0.19926700  0.50000000  1
  Na  Na3  1  0.19926700  0.30073300  0.50000000  1
  Bi  Bi0  1  0.05022900  0.76798400  0.00000000  1
  Bi  Bi1  1  0.26798400  0.55022900  0.00000000  1
  Bi  Bi2  1  0.76798400  0.94977100  0.00000000  1
  Bi  Bi3  1  0.44977100  0.26798400  0.00000000  1
  Bi  Bi4  1  0.94977100  0.23201600  0.00000000  1
  Bi  Bi5  1  0.55022900  0.73201600  0.00000000  1
  Bi  Bi6  1  0.23201600  0.05022900  0.00000000  1
  Bi  Bi7  1  0.73201600  0.44977100  0.00000000  1
  Au  Au0  1  0.00000000  0.50000000  0.50000000  1
  Au  Au1  1  0.00000000  0.00000000  0.50000000  1
  Au  Au2  1  0.50000000  0.50000000  0.50000000  1
  Au  Au3  1  0.50000000  0.00000000  0.50000000  1
  O  O0  1  0.50426700  0.16146400  0.50000000  1
  O  O1  1  0.21225300  0.71225300  0.00000000  1
  O  O2  1  0.11591100  0.11407800  0.50000000  1
  O  O3  1  0.61591100  0.38592200  0.50000000  1
  O  O4  1  0.33853600  0.99573300  0.50000000  1
  O  O5  1  0.16146400  0.49573300  0.50000000  1
  O  O6  1  0.88592200  0.11591100  0.50000000  1
  O  O7  1  0.49573300  0.83853600  0.50000000  1
  O  O8  1  0.99573300  0.66146400  0.50000000  1
  O  O9  1  0.28774700  0.21225300  0.00000000  1
  O  O10  1  0.78774700  0.28774700  0.00000000  1
  O  O11  1  0.83853600  0.50426700  0.50000000  1
  O  O12  1  0.61407800  0.61591100  0.50000000  1
  O  O13  1  0.38408900  0.61407800  0.50000000  1
  O  O14  1  0.38592200  0.38408900  0.50000000  1
  O  O15  1  0.11407800  0.88408900  0.50000000  1
  O  O16  1  0.71225300  0.78774700  0.00000000  1
  O  O17  1  0.88408900  0.88592200  0.50000000  1
  O  O18  1  0.00426700  0.33853600  0.50000000  1
  O  O19  1  0.66146400  0.00426700  0.50000000  1
loop_
_geom_bond_atom_site_label_1
_geom_bond_atom_site_label_2
_geom_bond_distance
_geom_bond_site_symmetry_2
Na0 O1 2.397717 1_555
Na0 O1 2.397717 1_556
Na0 O4 2.496190 1_555
Na0 O7 2.496190 1_555
Na0 O15 2.568971 1_555
Na0 O13 2.568971 1_555
Na1 O16 2.397717 1_555
Na1 O16 2.397717 1_556
Na1 O11 2.496190 1_555
Na1 O8 2.496190 1_555
Na1 O12 2.568971 1_555
Na1 O17 2.568971 1_555
Na2 O10 2.397717 1_555
Na2 O10 2.397717 1_556
Na2 O0 2.496190 1_555
Na2 O19 2.496190 1_555
Na2 O3 2.568971 1_555
Na2 O6 2.568971 1_555
Na3 O9 2.397717 1_556
Na3 O9 2.397717 1_555
Na3 O18 2.496190 1_555
Na3 O5 2.496190 1_555
Na3 O2 2.568971 1_555
Na3 O14 2.568971 1_555
Bi0 O1 2.153242 1_555
Bi0 O8 2.353136 1_454
Bi0 O8 2.353136 1_455
Bi0 O15 2.459483 1_554
Bi0 O15 2.459483 1_555
Bi1 O1 2.153242 1_555
Bi1 O5 2.353136 1_554
Bi1 O5 2.353136 1_555
Bi1 O13 2.459483 1_554
Bi1 O13 2.459483 1_555
Bi2 O16 2.153242 1_555
Bi2 O19 2.353136 1_564
Bi2 O19 2.353136 1_565
Bi2 O17 2.459483 1_555
Bi2 O17 2.459483 1_554
Bi3 O9 2.153242 1_555
Bi3 O0 2.353136 1_555
Bi3 O0 2.353136 1_554
Bi3 O14 2.459483 1_554
Bi3 O14 2.459483 1_555
Bi4 O10 2.153242 1_555
Bi4 O18 2.353136 1_655
Bi4 O18 2.353136 1_654
Bi4 O6 2.459483 1_554
Bi4 O6 2.459483 1_555
Bi5 O16 2.153242 1_555
Bi5 O7 2.353136 1_555
Bi5 O7 2.353136 1_554
Bi5 O12 2.459483 1_554
Bi5 O12 2.459483 1_555
Bi6 O9 2.153242 1_555
Bi6 O4 2.353136 1_545
Bi6 O4 2.353136 1_544
Bi6 O2 2.459483 1_554
Bi6 O2 2.459483 1_555
Bi7 O10 2.153242 1_555
Bi7 O11 2.353136 1_554
Bi7 O11 2.353136 1_555
Bi7 O3 2.459483 1_555
Bi7 O3 2.459483 1_554
Au0 O18 2.029827 1_555
Au0 O5 2.029827 1_555
Au0 O11 2.029827 1_455
Au0 O8 2.029827 1_455
Au1 O17 2.043796 1_445
Au1 O6 2.043796 1_455
Au1 O15 2.043796 1_545
Au1 O2 2.043796 1_555
Au2 O12 2.043796 1_555
Au2 O3 2.043796 1_555
Au2 O14 2.043796 1_555
Au2 O13 2.043796 1_555
Au3 O0 2.029827 1_555
Au3 O4 2.029827 1_545
Au3 O19 2.029827 1_555
Au3 O7 2.029827 1_545
