# generated using pymatgen
data_Gd2Mo(SeO4)3
_symmetry_space_group_name_H-M   'P 1'
_cell_length_a   6.66175300
_cell_length_b   7.21906252
_cell_length_c   10.99860837
_cell_angle_alpha   85.18584604
_cell_angle_beta   73.05095821
_cell_angle_gamma   86.42163580
_symmetry_Int_Tables_number   1
_chemical_formula_structural   Gd2Mo(SeO4)3
_chemical_formula_sum   'Gd4 Mo2 Se6 O24'
_cell_volume   503.78126224
_cell_formula_units_Z   2
loop_
 _symmetry_equiv_pos_site_id
 _symmetry_equiv_pos_as_xyz
  1  'x, y, z'
loop_
 _atom_site_type_symbol
 _atom_site_label
 _atom_site_symmetry_multiplicity
 _atom_site_fract_x
 _atom_site_fract_y
 _atom_site_fract_z
 _atom_site_occupancy
  Gd  Gd0  1  0.76806300  0.86108500  0.99046100  1
  Gd  Gd1  1  0.29399900  0.32050100  0.33297700  1
  Gd  Gd2  1  0.23193700  0.13891500  0.00953900  1
  Gd  Gd3  1  0.70600100  0.67949900  0.66702300  1
  Mo  Mo0  1  0.77798900  0.60885800  0.29226300  1
  Mo  Mo1  1  0.22201100  0.39114200  0.70773700  1
  Se  Se0  1  0.29893000  0.84070600  0.28383100  1
  Se  Se1  1  0.71048000  0.36037200  0.00753400  1
  Se  Se2  1  0.83980100  0.14092500  0.35854100  1
  Se  Se3  1  0.70107000  0.15929400  0.71616900  1
  Se  Se4  1  0.16019900  0.85907500  0.64145900  1
  Se  Se5  1  0.28952000  0.63962800  0.99246600  1
  O  O0  1  0.21939700  0.46136400  0.91617000  1
  O  O1  1  0.67718000  0.33219100  0.32082900  1
  O  O2  1  0.39982200  0.00312300  0.35033800  1
  O  O3  1  0.71725900  0.66936600  0.45236800  1
  O  O4  1  0.32282000  0.66780900  0.67917100  1
  O  O5  1  0.04733900  0.52770400  0.26469500  1
  O  O6  1  0.78060300  0.53863600  0.08383000  1
  O  O7  1  0.45834300  0.31057700  0.10730800  1
  O  O8  1  0.05490000  0.76791000  0.53724600  1
  O  O9  1  0.28274100  0.33063400  0.54763200  1
  O  O10  1  0.80611200  0.82748000  0.20070300  1
  O  O11  1  0.85710700  0.16349900  0.04059900  1
  O  O12  1  0.07166100  0.15229900  0.23179300  1
  O  O13  1  0.55709000  0.37011300  0.69531200  1
  O  O14  1  0.94510000  0.23209000  0.46275400  1
  O  O15  1  0.14289300  0.83650100  0.95940100  1
  O  O16  1  0.54165700  0.68942300  0.89269200  1
  O  O17  1  0.44291000  0.62988700  0.30468800  1
  O  O18  1  0.58334700  0.10249200  0.88136900  1
  O  O19  1  0.41665300  0.89750800  0.11863100  1
  O  O20  1  0.60017800  0.99687700  0.64966200  1
  O  O21  1  0.95266100  0.47229600  0.73530500  1
  O  O22  1  0.19388800  0.17252000  0.79929700  1
  O  O23  1  0.92833900  0.84770100  0.76820700  1
loop_
_geom_bond_atom_site_label_1
_geom_bond_atom_site_label_2
_geom_bond_distance
_geom_bond_site_symmetry_2
Gd0 O19 2.366001 1_556
Gd0 O23 2.372736 1_555
Gd0 O10 2.389572 1_556
Gd0 O15 2.416783 1_655
Gd0 O11 2.444696 1_566
Gd0 O6 2.470755 1_556
Gd0 O18 2.496631 1_565
Gd0 O16 2.523784 1_555
Gd1 O9 2.347322 1_555
Gd1 O2 2.363543 1_555
Gd1 O5 2.392836 1_555
Gd1 O7 2.408321 1_555
Gd1 O14 2.438231 1_455
Gd1 O17 2.459528 1_555
Gd1 O12 2.513794 1_555
Gd1 O1 2.523326 1_555
Gd2 O18 2.366001 1_554
Gd2 O12 2.372736 1_555
Gd2 O22 2.389572 1_554
Gd2 O11 2.416783 1_455
Gd2 O15 2.444696 1_544
Gd2 O0 2.470755 1_554
Gd2 O19 2.496631 1_545
Gd2 O7 2.523784 1_555
Gd3 O3 2.347322 1_555
Gd3 O20 2.363543 1_555
Gd3 O21 2.392836 1_555
Gd3 O16 2.408321 1_555
Gd3 O8 2.438231 1_655
Gd3 O13 2.459528 1_555
Gd3 O23 2.513794 1_555
Gd3 O4 2.523326 1_555
Mo0 O3 1.773990 1_555
Mo0 O10 1.788914 1_555
Mo0 O5 1.798948 1_655
Mo0 O1 2.116107 1_555
Mo0 O17 2.192675 1_555
Mo0 O6 2.383989 1_555
Mo1 O9 1.773990 1_555
Mo1 O22 1.788914 1_555
Mo1 O21 1.798948 1_455
Mo1 O4 2.116107 1_555
Mo1 O13 2.192675 1_555
Mo1 O0 2.383989 1_555
O0 Se5 1.750245 1_555
O1 Se2 1.797585 1_555
O2 Se0 1.700159 1_545
O4 Se4 1.797585 1_555
O6 Se1 1.750245 1_555
O7 Se1 1.757622 1_555
O8 Se4 1.700586 1_555
O11 Se1 1.747388 1_555
O12 Se2 1.754161 1_455
O13 Se3 1.782219 1_555
O14 Se2 1.700586 1_555
O15 Se5 1.747388 1_555
O16 Se5 1.757622 1_555
O17 Se0 1.782219 1_555
O18 Se3 1.780125 1_555
O19 Se0 1.780125 1_555
O20 Se3 1.700159 1_565
O23 Se4 1.754161 1_655
