# generated using pymatgen
data_SnSO4
_symmetry_space_group_name_H-M   'P 1'
_cell_length_a   5.35788567
_cell_length_b   7.17818266
_cell_length_c   8.87570981
_cell_angle_alpha   90.00000000
_cell_angle_beta   90.00000000
_cell_angle_gamma   90.00000000
_symmetry_Int_Tables_number   1
_chemical_formula_structural   SnSO4
_chemical_formula_sum   'Sn4 S4 O16'
_cell_volume   341.35875205
_cell_formula_units_Z   4
loop_
 _symmetry_equiv_pos_site_id
 _symmetry_equiv_pos_as_xyz
  1  'x, y, z'
loop_
 _atom_site_type_symbol
 _atom_site_label
 _atom_site_symmetry_multiplicity
 _atom_site_fract_x
 _atom_site_fract_y
 _atom_site_fract_z
 _atom_site_occupancy
  Sn  Sn0  1  0.75000000  0.72017443  0.28591422  1
  Sn  Sn1  1  0.25000000  0.27982557  0.71408578  1
  Sn  Sn2  1  0.25000000  0.22017443  0.21408578  1
  Sn  Sn3  1  0.75000000  0.77982557  0.78591422  1
  S  S0  1  0.75000000  0.32415431  0.91969185  1
  S  S1  1  0.25000000  0.67584569  0.08030815  1
  S  S2  1  0.25000000  0.82415431  0.58030815  1
  S  S3  1  0.75000000  0.17584569  0.41969185  1
  O  O0  1  0.75000000  0.40036820  0.07087015  1
  O  O1  1  0.25000000  0.59963180  0.92912985  1
  O  O2  1  0.25000000  0.90036820  0.42912985  1
  O  O3  1  0.75000000  0.09963180  0.57087015  1
  O  O4  1  0.75000000  0.46963499  0.79973879  1
  O  O5  1  0.25000000  0.53036501  0.20026121  1
  O  O6  1  0.25000000  0.96963499  0.70026121  1
  O  O7  1  0.75000000  0.03036501  0.29973879  1
  O  O8  1  0.97557095  0.20654168  0.89566522  1
  O  O9  1  0.47557095  0.79345832  0.10433478  1
  O  O10  1  0.02442905  0.70654168  0.60433478  1
  O  O11  1  0.52442905  0.29345832  0.39566522  1
  O  O12  1  0.02442905  0.79345832  0.10433478  1
  O  O13  1  0.52442905  0.20654168  0.89566522  1
  O  O14  1  0.97557095  0.29345832  0.39566522  1
  O  O15  1  0.47557095  0.70654168  0.60433478  1
loop_
_geom_bond_atom_site_label_1
_geom_bond_atom_site_label_2
_geom_bond_distance
_geom_bond_site_symmetry_2
O0 S0 1.449055 1_554
O1 S1 1.449055 1_556
O2 S2 1.449055 1_555
O3 S3 1.449055 1_555
O4 S0 1.491326 1_555
O4 Sn3 2.229983 1_555
O5 S1 1.491326 1_555
O5 Sn2 2.229983 1_555
O6 S2 1.491326 1_555
O6 Sn1 2.229983 1_565
O7 S3 1.491326 1_555
O7 Sn0 2.229983 1_545
O8 S0 1.489597 1_555
O8 Sn1 2.244122 1_655
O9 S1 1.489597 1_555
O9 Sn0 2.244122 1_555
O10 S2 1.489597 1_555
O10 Sn3 2.244122 1_455
O11 S3 1.489597 1_555
O11 Sn2 2.244122 1_555
O12 S1 1.489597 1_555
O12 Sn0 2.244122 1_455
O13 S0 1.489597 1_555
O13 Sn1 2.244122 1_555
O14 S3 1.489597 1_555
O14 Sn2 2.244122 1_655
O15 S2 1.489597 1_555
O15 Sn3 2.244122 1_555
