# generated using pymatgen
data_Nd4GeO8
_symmetry_space_group_name_H-M   'P 1'
_cell_length_a   5.75248136
_cell_length_b   7.48288881
_cell_length_c   18.05234084
_cell_angle_alpha   90.00000000
_cell_angle_beta   90.00000000
_cell_angle_gamma   90.00000000
_symmetry_Int_Tables_number   1
_chemical_formula_structural   Nd4GeO8
_chemical_formula_sum   'Nd16 Ge4 O32'
_cell_volume   777.06623197
_cell_formula_units_Z   4
loop_
 _symmetry_equiv_pos_site_id
 _symmetry_equiv_pos_as_xyz
  1  'x, y, z'
loop_
 _atom_site_type_symbol
 _atom_site_label
 _atom_site_symmetry_multiplicity
 _atom_site_fract_x
 _atom_site_fract_y
 _atom_site_fract_z
 _atom_site_occupancy
  Nd  Nd0  1  0.02254127  0.49114277  0.39718210  1
  Nd  Nd1  1  0.45777004  0.75000000  0.71797874  1
  Nd  Nd2  1  0.48116955  0.75000000  0.51411791  1
  Nd  Nd3  1  0.52254127  0.99114277  0.10281790  1
  Nd  Nd4  1  0.95777004  0.25000000  0.78202126  1
  Nd  Nd5  1  0.97745873  0.50885723  0.60281790  1
  Nd  Nd6  1  0.47745873  0.00885723  0.89718210  1
  Nd  Nd7  1  0.97745873  0.99114277  0.60281790  1
  Nd  Nd8  1  0.98116955  0.25000000  0.98588209  1
  Nd  Nd9  1  0.47745873  0.49114277  0.89718210  1
  Nd  Nd10  1  0.01883045  0.75000000  0.01411791  1
  Nd  Nd11  1  0.54222996  0.25000000  0.28202126  1
  Nd  Nd12  1  0.04222996  0.75000000  0.21797874  1
  Nd  Nd13  1  0.02254127  0.00885723  0.39718210  1
  Nd  Nd14  1  0.52254127  0.50885723  0.10281790  1
  Nd  Nd15  1  0.51883045  0.25000000  0.48588209  1
  Ge  Ge0  1  0.50874442  0.75000000  0.30869386  1
  Ge  Ge1  1  0.49125558  0.25000000  0.69130614  1
  Ge  Ge2  1  0.00874442  0.25000000  0.19130614  1
  Ge  Ge3  1  0.99125558  0.75000000  0.80869386  1
  O  O0  1  0.22194354  0.25000000  0.87422284  1
  O  O1  1  0.19787760  0.25000000  0.66187590  1
  O  O2  1  0.27110564  0.75000000  0.11627536  1
  O  O3  1  0.42527900  0.93884354  0.25598470  1
  O  O4  1  0.75865023  0.98071688  0.49385579  1
  O  O5  1  0.22889436  0.75000000  0.61627536  1
  O  O6  1  0.25865023  0.01928312  0.00614421  1
  O  O7  1  0.69264869  0.25000000  0.61624494  1
  O  O8  1  0.27805646  0.25000000  0.37422284  1
  O  O9  1  0.24134977  0.01928312  0.50614421  1
  O  O10  1  0.77110564  0.25000000  0.38372464  1
  O  O11  1  0.07472100  0.56115646  0.75598470  1
  O  O12  1  0.30735131  0.75000000  0.38375506  1
  O  O13  1  0.72194354  0.75000000  0.62577716  1
  O  O14  1  0.57472100  0.43884354  0.74401530  1
  O  O15  1  0.74134977  0.98071688  0.99385579  1
  O  O16  1  0.74134977  0.51928312  0.99385579  1
  O  O17  1  0.42527900  0.56115646  0.25598470  1
  O  O18  1  0.72889436  0.25000000  0.88372464  1
  O  O19  1  0.07472100  0.93884354  0.75598470  1
  O  O20  1  0.69787760  0.75000000  0.83812410  1
  O  O21  1  0.24134977  0.48071688  0.50614421  1
  O  O22  1  0.75865023  0.51928312  0.49385579  1
  O  O23  1  0.92527900  0.06115646  0.24401530  1
  O  O24  1  0.19264869  0.75000000  0.88375506  1
  O  O25  1  0.77805646  0.75000000  0.12577716  1
  O  O26  1  0.80735131  0.25000000  0.11624494  1
  O  O27  1  0.92527900  0.43884354  0.24401530  1
  O  O28  1  0.80212240  0.75000000  0.33812410  1
  O  O29  1  0.25865023  0.48071688  0.00614421  1
  O  O30  1  0.57472100  0.06115646  0.74401530  1
  O  O31  1  0.30212240  0.25000000  0.16187590  1
loop_
_geom_bond_atom_site_label_1
_geom_bond_atom_site_label_2
_geom_bond_distance
_geom_bond_site_symmetry_2
Nd0 O22 2.322590 1_455
Nd0 O10 2.325307 1_455
Nd0 O21 2.336571 1_555
Nd0 O8 2.363948 1_555
Nd0 O12 2.548521 1_555
Nd0 O28 2.548789 1_455
Nd0 O27 2.848074 1_455
Nd1 O13 2.253831 1_555
Nd1 O5 2.259266 1_555
Nd1 O14 2.468751 1_555
Nd1 O30 2.468751 1_565
Nd1 O20 2.571362 1_555
Nd1 O11 2.706086 1_555
Nd1 O19 2.706086 1_555
Nd2 O5 2.346702 1_555
Nd2 O22 2.379540 1_555
Nd2 O4 2.379540 1_555
Nd2 O13 2.445700 1_555
Nd2 O21 2.446260 1_555
Nd2 O9 2.446260 1_565
Nd2 O12 2.556961 1_555
Nd3 O6 2.322590 1_565
Nd3 O2 2.325307 1_555
Nd3 O15 2.336571 1_554
Nd3 O25 2.363948 1_555
Nd3 O26 2.548521 1_565
Nd3 O31 2.548789 1_565
Nd3 O3 2.848074 1_555
Nd4 O0 2.253831 1_655
Nd4 O18 2.259266 1_555
Nd4 O19 2.468751 1_645
Nd4 O11 2.468751 1_655
Nd4 O1 2.571362 1_655
Nd4 O14 2.706086 1_555
Nd4 O30 2.706086 1_555
Nd5 O21 2.322590 1_655
Nd5 O5 2.325307 1_655
Nd5 O22 2.336571 1_555
Nd5 O13 2.363948 1_555
Nd5 O7 2.548521 1_555
Nd5 O1 2.548789 1_655
Nd5 O11 2.848074 1_655
Nd6 O15 2.322590 1_545
Nd6 O18 2.325307 1_555
Nd6 O6 2.336571 1_556
Nd6 O0 2.363948 1_555
Nd6 O24 2.548521 1_545
Nd6 O20 2.548789 1_545
Nd6 O30 2.848074 1_555
Nd7 O9 2.322590 1_665
Nd7 O5 2.325307 1_655
Nd7 O4 2.336571 1_555
Nd7 O13 2.363948 1_555
Nd7 O7 2.548521 1_565
Nd7 O1 2.548789 1_665
Nd7 O19 2.848074 1_655
Nd8 O18 2.346702 1_555
Nd8 O6 2.379540 1_656
Nd8 O29 2.379540 1_656
Nd8 O0 2.445700 1_655
Nd8 O15 2.446260 1_545
Nd8 O16 2.446260 1_555
Nd8 O26 2.556961 1_556
Nd9 O16 2.322590 1_555
Nd9 O18 2.325307 1_555
Nd9 O29 2.336571 1_556
Nd9 O0 2.363948 1_555
Nd9 O24 2.548521 1_555
Nd9 O20 2.548789 1_555
Nd9 O14 2.848074 1_555
Nd10 O2 2.346702 1_555
Nd10 O16 2.379540 1_454
Nd10 O15 2.379540 1_454
Nd10 O25 2.445700 1_455
Nd10 O29 2.446260 1_555
Nd10 O6 2.446260 1_565
Nd10 O24 2.556961 1_554
Nd11 O8 2.253831 1_555
Nd11 O10 2.259266 1_555
Nd11 O3 2.468751 1_545
Nd11 O17 2.468751 1_555
Nd11 O31 2.571362 1_555
Nd11 O23 2.706086 1_555
Nd11 O27 2.706086 1_555
Nd12 O25 2.253831 1_455
Nd12 O2 2.259266 1_555
Nd12 O27 2.468751 1_455
Nd12 O23 2.468751 1_465
Nd12 O28 2.571362 1_455
Nd12 O3 2.706086 1_555
Nd12 O17 2.706086 1_555
Nd13 O4 2.322590 1_445
Nd13 O10 2.325307 1_455
Nd13 O9 2.336571 1_555
Nd13 O8 2.363948 1_555
Nd13 O12 2.548521 1_545
Nd13 O28 2.548789 1_445
Nd13 O23 2.848074 1_455
Nd14 O29 2.322590 1_555
Nd14 O2 2.325307 1_555
Nd14 O16 2.336571 1_554
Nd14 O25 2.363948 1_555
Nd14 O26 2.548521 1_555
Nd14 O31 2.548789 1_555
Nd14 O17 2.848074 1_555
Nd15 O10 2.346702 1_555
Nd15 O9 2.379540 1_555
Nd15 O21 2.379540 1_555
Nd15 O8 2.445700 1_555
Nd15 O4 2.446260 1_545
Nd15 O22 2.446260 1_555
Nd15 O7 2.556961 1_555
Ge0 O28 1.769302 1_555
Ge0 O17 1.769961 1_555
Ge0 O3 1.769961 1_555
Ge0 O12 1.782766 1_555
Ge1 O1 1.769302 1_555
Ge1 O14 1.769961 1_555
Ge1 O30 1.769961 1_555
Ge1 O7 1.782766 1_555
Ge2 O31 1.769302 1_555
Ge2 O27 1.769961 1_455
Ge2 O23 1.769961 1_455
Ge2 O26 1.782766 1_455
Ge3 O20 1.769302 1_555
Ge3 O19 1.769961 1_655
Ge3 O11 1.769961 1_655
Ge3 O24 1.782766 1_655
