# generated using pymatgen
data_Na3Ca(BO2)5
_symmetry_space_group_name_H-M   'P 1'
_cell_length_a   7.34661399
_cell_length_b   9.74409151
_cell_length_c   12.73408842
_cell_angle_alpha   90.31830410
_cell_angle_beta   90.73672431
_cell_angle_gamma   109.54823429
_symmetry_Int_Tables_number   1
_chemical_formula_structural   Na3Ca(BO2)5
_chemical_formula_sum   'Na12 Ca4 B20 O40'
_cell_volume   858.92190019
_cell_formula_units_Z   4
loop_
 _symmetry_equiv_pos_site_id
 _symmetry_equiv_pos_as_xyz
  1  'x, y, z'
loop_
 _atom_site_type_symbol
 _atom_site_label
 _atom_site_symmetry_multiplicity
 _atom_site_fract_x
 _atom_site_fract_y
 _atom_site_fract_z
 _atom_site_occupancy
  Na  Na0  1  0.50876805  0.26813140  0.22913268  1
  Na  Na1  1  0.49123195  0.73186860  0.77086732  1
  Na  Na2  1  0.13245675  0.05733474  0.11077601  1
  Na  Na3  1  0.86754325  0.94266526  0.88922399  1
  Na  Na4  1  0.18521214  0.68675087  0.00121678  1
  Na  Na5  1  0.81478786  0.31324913  0.99878322  1
  Na  Na6  1  0.38435418  0.95778424  0.38662505  1
  Na  Na7  1  0.61564582  0.04221576  0.61337495  1
  Na  Na8  1  0.00090068  0.77152539  0.25957210  1
  Na  Na9  1  0.99909932  0.22847461  0.74042790  1
  Na  Na10  1  0.68475419  0.66498112  0.51947758  1
  Na  Na11  1  0.31524581  0.33501888  0.48052242  1
  Ca  Ca0  1  0.47130894  0.61084143  0.26849563  1
  Ca  Ca1  1  0.52869106  0.38915857  0.73150437  1
  Ca  Ca2  1  0.99848589  0.36747411  0.24309346  1
  Ca  Ca3  1  0.00151411  0.63252589  0.75690654  1
  B  B0  1  0.83360545  0.36690216  0.58830628  1
  B  B1  1  0.16639455  0.63309784  0.41169372  1
  B  B2  1  0.69808851  0.40591129  0.41895948  1
  B  B3  1  0.30191149  0.59408871  0.58104052  1
  B  B4  1  0.83959592  0.20109379  0.43732850  1
  B  B5  1  0.16040408  0.79890621  0.56267150  1
  B  B6  1  0.74300739  0.93462904  0.38602583  1
  B  B7  1  0.25699261  0.06537096  0.61397417  1
  B  B8  1  0.07614418  0.09626125  0.34940820  1
  B  B9  1  0.92385582  0.90373875  0.65059180  1
  B  B10  1  0.28549985  0.37047817  0.07664419  1
  B  B11  1  0.71450015  0.62952183  0.92335581  1
  B  B12  1  0.22615721  0.44397230  0.90009978  1
  B  B13  1  0.77384279  0.55602770  0.09990022  1
  B  B14  1  0.33623502  0.22407987  0.92316166  1
  B  B15  1  0.66376498  0.77592013  0.07683834  1
  B  B16  1  0.24466346  0.95811704  0.87519887  1
  B  B17  1  0.75533654  0.04188396  0.12480113  1
  B  B18  1  0.58631237  0.11367515  0.86461409  1
  B  B19  1  0.41368763  0.88632485  0.13538591  1
  O  O0  1  0.84988904  0.39822761  0.69069567  1
  O  O1  1  0.15011096  0.60177239  0.30930433  1
  O  O2  1  0.87024773  0.24780975  0.54767419  1
  O  O3  1  0.12975227  0.75219025  0.45232581  1
  O  O4  1  0.76478747  0.45214071  0.52137256  1
  O  O5  1  0.23521253  0.54785929  0.47862744  1
  O  O6  1  0.75420872  0.29510663  0.37584642  1
  O  O7  1  0.24579128  0.70489337  0.62415358  1
  O  O8  1  0.58192665  0.46521353  0.37199532  1
  O  O9  1  0.41807335  0.53478647  0.62800468  1
  O  O10  1  0.70653883  0.05165418  0.43327946  1
  O  O11  1  0.29346117  0.94834582  0.56672054  1
  O  O12  1  0.02472097  0.21350635  0.38888844  1
  O  O13  1  0.97527903  0.78649365  0.61111156  1
  O  O14  1  0.92684793  0.95982621  0.34496381  1
  O  O15  1  0.07315207  0.04017379  0.65503619  1
  O  O16  1  0.60629692  0.80416793  0.38136440  1
  O  O17  1  0.39370308  0.19583207  0.61863560  1
  O  O18  1  0.25214287  0.11381093  0.31880141  1
  O  O19  1  0.74785713  0.88618907  0.68119859  1
  O  O20  1  0.30261092  0.40231494  0.17867780  1
  O  O21  1  0.69738908  0.59768506  0.82132220  1
  O  O22  1  0.35489596  0.26812673  0.03416091  1
  O  O23  1  0.64510404  0.73187327  0.96583909  1
  O  O24  1  0.19458588  0.44224512  0.00922953  1
  O  O25  1  0.80541412  0.55775488  0.99077047  1
  O  O26  1  0.27219786  0.32768246  0.85817239  1
  O  O27  1  0.72780214  0.67231754  0.14182761  1
  O  O28  1  0.20965160  0.55242402  0.84442197  1
  O  O29  1  0.79034840  0.44757598  0.15557803  1
  O  O30  1  0.19966322  0.07724307  0.91266580  1
  O  O31  1  0.80033678  0.92275693  0.08733420  1
  O  O32  1  0.52606039  0.23420139  0.88317491  1
  O  O33  1  0.47393961  0.76579861  0.11682509  1
  O  O34  1  0.43816513  0.97798768  0.85053321  1
  O  O35  1  0.56183487  0.02201232  0.14946679  1
  O  O36  1  0.10681608  0.82913031  0.86567335  1
  O  O37  1  0.89318392  0.17086969  0.13432665  1
  O  O38  1  0.77175838  0.13240977  0.86183396  1
  O  O39  1  0.22824062  0.86759023  0.13816604  1
loop_
_geom_bond_atom_site_label_1
_geom_bond_atom_site_label_2
_geom_bond_distance
_geom_bond_site_symmetry_2
Na0 O18 2.301454 1_555
Na0 O20 2.392853 1_555
Na0 O29 2.421048 1_555
Na0 O6 2.530143 1_555
Na0 O8 2.555712 1_555
Na0 O22 2.714759 1_555
Na0 O35 2.746154 1_555
Na1 O19 2.301454 1_555
Na1 O21 2.392853 1_555
Na1 O28 2.421048 1_555
Na1 O7 2.530143 1_555
Na1 O9 2.555712 1_555
Na1 O23 2.714759 1_555
Na1 O34 2.746154 1_555
Na2 O39 2.215113 1_545
Na2 O31 2.365977 1_445
Na2 O22 2.378706 1_555
Na2 O37 2.390629 1_455
Na2 O30 2.572755 1_554
Na2 O18 2.773689 1_555
Na3 O38 2.215117 1_565
Na3 O30 2.365977 1_665
Na3 O23 2.378706 1_555
Na3 O36 2.390629 1_655
Na3 O31 2.572755 1_556
Na3 O19 2.773689 1_555
Na4 O36 2.402372 1_554
Na4 O24 2.409089 1_555
Na4 O39 2.413538 1_555
Na4 O28 2.422696 1_554
Na4 O33 2.464479 1_555
Na4 O25 2.650394 1_454
Na5 O37 2.402372 1_556
Na5 O25 2.409089 1_555
Na5 O38 2.413537 1_555
Na5 O29 2.422696 1_556
Na5 O32 2.464479 1_555
Na5 O24 2.650394 1_656
Na6 O18 2.232045 1_565
Na6 O10 2.302411 1_565
Na6 O11 2.390491 1_555
Na6 O3 2.400663 1_555
Na6 O16 2.557080 1_555
Na7 O19 2.232045 1_545
Na7 O11 2.302411 1_545
Na7 O10 2.390491 1_555
Na7 O2 2.400663 1_555
Na7 O17 2.557080 1_555
Na8 O39 2.256562 1_555
Na8 O14 2.346486 1_455
Na8 O1 2.354970 1_555
Na8 O27 2.411772 1_455
Na8 O3 2.649737 1_555
Na9 O38 2.256566 1_555
Na9 O15 2.346486 1_655
Na9 O0 2.354970 1_555
Na9 O26 2.411772 1_655
Na9 O2 2.649737 1_555
Na10 O4 2.337463 1_555
Na10 O13 2.355525 1_555
Na10 O9 2.404913 1_555
Na10 O16 2.405909 1_555
Na10 O8 2.612599 1_555
Na11 O5 2.337463 1_555
Na11 O12 2.355525 1_555
Na11 O8 2.404913 1_555
Na11 O17 2.405909 1_555
Na11 O9 2.612599 1_555
Ca0 O8 2.275087 1_555
Ca0 O20 2.285892 1_555
Ca0 O16 2.298045 1_555
Ca0 O1 2.395542 1_555
Ca0 O27 2.417628 1_555
Ca0 O33 2.454447 1_555
Ca1 O9 2.275087 1_555
Ca1 O21 2.285892 1_555
Ca1 O17 2.298045 1_555
Ca1 O0 2.395542 1_555
Ca1 O26 2.417628 1_555
Ca1 O32 2.454447 1_555
Ca2 O29 2.225727 1_555
Ca2 O37 2.266725 1_555
Ca2 O20 2.307114 1_655
Ca2 O1 2.327340 1_655
Ca2 O6 2.412472 1_555
Ca2 O12 2.439276 1_655
Ca3 O28 2.225727 1_555
Ca3 O36 2.266725 1_555
Ca3 O21 2.307114 1_455
Ca3 O0 2.327340 1_455
Ca3 O7 2.412472 1_555
Ca3 O13 2.439276 1_455
B0 O0 1.332141 1_555
B0 O2 1.375784 1_555
B0 O4 1.396330 1_555
B1 O1 1.332141 1_555
B1 O3 1.375784 1_555
B1 O5 1.396330 1_555
B2 O8 1.319307 1_555
B2 O6 1.390775 1_555
B2 O4 1.404681 1_555
B3 O9 1.319307 1_555
B3 O7 1.390775 1_555
B3 O5 1.404681 1_555
B4 O10 1.457361 1_555
B4 O2 1.465787 1_555
B4 O12 1.468726 1_655
B4 O6 1.491830 1_555
B5 O11 1.457361 1_555
B5 O3 1.465787 1_555
B5 O13 1.468726 1_455
B5 O7 1.491830 1_555
B6 O16 1.330973 1_555
B6 O10 1.391088 1_565
B6 O14 1.398394 1_555
B7 O17 1.330973 1_555
B7 O11 1.391088 1_545
B7 O15 1.398394 1_555
B8 O18 1.310998 1_555
B8 O12 1.409961 1_555
B8 O14 1.412583 1_445
B9 O19 1.310998 1_555
B9 O13 1.409961 1_555
B9 O15 1.412583 1_665
B10 O20 1.328705 1_555
B10 O22 1.374263 1_555
B10 O24 1.405909 1_555
B11 O21 1.328705 1_555
B11 O23 1.374263 1_555
B11 O25 1.405909 1_555
B12 O28 1.313777 1_555
B12 O26 1.392077 1_555
B12 O24 1.411097 1_556
B13 O29 1.313777 1_555
B13 O27 1.392077 1_555
B13 O25 1.411097 1_554
B14 O30 1.451021 1_555
B14 O32 1.463086 1_555
B14 O22 1.466225 1_556
B14 O26 1.497474 1_555
B15 O31 1.451021 1_555
B15 O33 1.463086 1_555
B15 O23 1.466225 1_554
B15 O27 1.497474 1_555
B16 O36 1.327914 1_555
B16 O30 1.392492 1_565
B16 O34 1.408901 1_555
B17 O37 1.327908 1_555
B17 O31 1.392501 1_545
B17 O35 1.408899 1_555
B18 O38 1.313617 1_555
B18 O32 1.406611 1_555
B18 O34 1.412152 1_545
B19 O39 1.313624 1_555
B19 O33 1.406611 1_555
B19 O35 1.412152 1_565
