# generated using pymatgen
data_Co3Bi(CO)9
_symmetry_space_group_name_H-M   'P 1'
_cell_length_a   11.28500524
_cell_length_b   11.28500524
_cell_length_c   7.62511300
_cell_angle_alpha   90.00000000
_cell_angle_beta   90.00000000
_cell_angle_gamma   119.99999554
_symmetry_Int_Tables_number   1
_chemical_formula_structural   Co3Bi(CO)9
_chemical_formula_sum   'Co6 Bi2 C18 O18'
_cell_volume   840.96992632
_cell_formula_units_Z   2
loop_
 _symmetry_equiv_pos_site_id
 _symmetry_equiv_pos_as_xyz
  1  'x, y, z'
loop_
 _atom_site_type_symbol
 _atom_site_label
 _atom_site_symmetry_multiplicity
 _atom_site_fract_x
 _atom_site_fract_y
 _atom_site_fract_z
 _atom_site_occupancy
  Co  Co0  1  0.25757000  0.51513900  0.31440900  1
  Co  Co1  1  0.74243000  0.48486100  0.81440900  1
  Co  Co2  1  0.51513900  0.25757000  0.81440900  1
  Co  Co3  1  0.74243000  0.25757000  0.81440900  1
  Co  Co4  1  0.25757000  0.74243000  0.31440900  1
  Co  Co5  1  0.48486100  0.74243000  0.31440900  1
  Bi  Bi0  1  0.66666700  0.33333300  0.52817100  1
  Bi  Bi1  1  0.33333300  0.66666700  0.02817100  1
  C  C0  1  0.44436100  0.55563900  0.32872400  1
  C  C1  1  0.18729000  0.81271000  0.17300700  1
  C  C2  1  0.43712300  0.21856100  0.02221500  1
  C  C3  1  0.81271000  0.62542000  0.67300700  1
  C  C4  1  0.21856100  0.78143900  0.52221500  1
  C  C5  1  0.78143900  0.56287700  0.02221500  1
  C  C6  1  0.62542000  0.81271000  0.17300700  1
  C  C7  1  0.88872100  0.44436100  0.82872400  1
  C  C8  1  0.78143900  0.21856100  0.02221500  1
  C  C9  1  0.18729000  0.37458000  0.17300700  1
  C  C10  1  0.37458000  0.18729000  0.67300700  1
  C  C11  1  0.11127900  0.55563900  0.32872400  1
  C  C12  1  0.81271000  0.18729000  0.67300700  1
  C  C13  1  0.55563900  0.44436100  0.82872400  1
  C  C14  1  0.55563900  0.11127900  0.82872400  1
  C  C15  1  0.21856100  0.43712300  0.52221500  1
  C  C16  1  0.56287700  0.78143900  0.52221500  1
  C  C17  1  0.44436100  0.88872100  0.32872400  1
  O  O0  1  0.86309900  0.72619800  0.59235500  1
  O  O1  1  0.49552800  0.99105600  0.84350500  1
  O  O2  1  0.13690100  0.86309900  0.09235500  1
  O  O3  1  0.27380200  0.13690100  0.59235500  1
  O  O4  1  0.00894400  0.50447200  0.84350500  1
  O  O5  1  0.61662500  0.80831200  0.65759500  1
  O  O6  1  0.50447200  0.49552800  0.34350500  1
  O  O7  1  0.86309900  0.13690100  0.59235500  1
  O  O8  1  0.49552800  0.50447200  0.84350500  1
  O  O9  1  0.19168800  0.80831200  0.65759500  1
  O  O10  1  0.13690100  0.27380200  0.09235500  1
  O  O11  1  0.72619800  0.86309900  0.09235500  1
  O  O12  1  0.19168800  0.38337500  0.65759500  1
  O  O13  1  0.50447200  0.00894400  0.34350500  1
  O  O14  1  0.38337500  0.19168800  0.15759500  1
  O  O15  1  0.80831200  0.19168800  0.15759500  1
  O  O16  1  0.80831200  0.61662500  0.15759500  1
  O  O17  1  0.99105600  0.49552800  0.34350500  1
loop_
_geom_bond_atom_site_label_1
_geom_bond_atom_site_label_2
_geom_bond_distance
_geom_bond_site_symmetry_2
Bi0 Co3 2.637562 1_555
Bi0 Co2 2.637573 1_555
Bi0 Co1 2.637573 1_555
Bi1 Co4 2.637562 1_555
Bi1 Co5 2.637573 1_555
Bi1 Co0 2.637573 1_555
C0 O6 1.180335 1_555
C0 Co0 1.923743 1_555
C0 Co5 1.923743 1_555
C1 O2 1.161144 1_555
C1 Co4 1.746310 1_555
C2 O14 1.158250 1_555
C2 Co2 1.758443 1_554
C3 O0 1.161144 1_555
C3 Co1 1.746303 1_555
C4 O9 1.158241 1_555
C4 Co4 1.758452 1_555
C5 O16 1.158250 1_555
C5 Co1 1.758443 1_554
C6 O11 1.161144 1_555
C6 Co5 1.746303 1_555
C7 O4 1.180345 1_655
C7 Co1 1.923742 1_555
C7 Co3 1.923743 1_555
C8 O15 1.158241 1_555
C8 Co3 1.758452 1_554
C9 O10 1.161144 1_555
C9 Co0 1.746303 1_555
C10 O3 1.161144 1_555
C10 Co2 1.746303 1_555
C11 O17 1.180345 1_455
C11 Co0 1.923742 1_555
C11 Co4 1.923743 1_555
C12 O7 1.161144 1_555
C12 Co3 1.746310 1_555
C13 O8 1.180335 1_555
C13 Co2 1.923743 1_555
C13 Co1 1.923743 1_555
C14 O1 1.180345 1_545
C14 Co2 1.923742 1_555
C14 Co3 1.923743 1_555
C15 O12 1.158250 1_555
C15 Co0 1.758443 1_555
C16 O5 1.158250 1_555
C16 Co5 1.758443 1_555
C17 O13 1.180345 1_565
C17 Co5 1.923742 1_555
C17 Co4 1.923743 1_555
