# generated using pymatgen
data_Sm2Mo2O7
_symmetry_space_group_name_H-M   'P 1'
_cell_length_a   7.35524749
_cell_length_b   7.35524749
_cell_length_c   7.35524749
_cell_angle_alpha   60.00000000
_cell_angle_beta   60.00000000
_cell_angle_gamma   60.00000000
_symmetry_Int_Tables_number   1
_chemical_formula_structural   Sm2Mo2O7
_chemical_formula_sum   'Sm4 Mo4 O14'
_cell_volume   281.36940634
_cell_formula_units_Z   2
loop_
 _symmetry_equiv_pos_site_id
 _symmetry_equiv_pos_as_xyz
  1  'x, y, z'
loop_
 _atom_site_type_symbol
 _atom_site_label
 _atom_site_symmetry_multiplicity
 _atom_site_fract_x
 _atom_site_fract_y
 _atom_site_fract_z
 _atom_site_occupancy
  Sm  Sm0  1  0.12500000  0.12500000  0.62500000  1
  Sm  Sm1  1  0.12500000  0.12500000  0.12500000  1
  Sm  Sm2  1  0.62500000  0.12500000  0.12500000  1
  Sm  Sm3  1  0.12500000  0.62500000  0.12500000  1
  Mo  Mo0  1  0.62500000  0.62500000  0.62500000  1
  Mo  Mo1  1  0.12500000  0.62500000  0.62500000  1
  Mo  Mo2  1  0.62500000  0.12500000  0.62500000  1
  Mo  Mo3  1  0.62500000  0.62500000  0.12500000  1
  O  O0  1  0.29157905  0.29157905  0.70842095  1
  O  O1  1  0.29157905  0.70842095  0.29157905  1
  O  O2  1  0.95842095  0.54157905  0.95842095  1
  O  O3  1  0.70842095  0.29157905  0.29157905  1
  O  O4  1  0.00000000  0.00000000  0.00000000  1
  O  O5  1  0.54157905  0.54157905  0.95842095  1
  O  O6  1  0.29157905  0.70842095  0.70842095  1
  O  O7  1  0.54157905  0.95842095  0.54157905  1
  O  O8  1  0.54157905  0.95842095  0.95842095  1
  O  O9  1  0.70842095  0.70842095  0.29157905  1
  O  O10  1  0.25000000  0.25000000  0.25000000  1
  O  O11  1  0.95842095  0.95842095  0.54157905  1
  O  O12  1  0.95842095  0.54157905  0.54157905  1
  O  O13  1  0.70842095  0.29157905  0.70842095  1
loop_
_geom_bond_atom_site_label_1
_geom_bond_atom_site_label_2
_geom_bond_distance
_geom_bond_site_symmetry_2
Mo0 O9 2.033272 1_555
Mo0 O6 2.033272 1_555
Mo0 O13 2.033272 1_555
Mo0 O7 2.033272 1_555
Mo0 O5 2.033272 1_555
Mo0 O12 2.033272 1_555
Mo1 O0 2.033272 1_555
Mo1 O1 2.033272 1_555
Mo1 O12 2.033272 1_455
Mo1 O2 2.033272 1_455
Mo1 O11 2.033272 1_455
Mo1 O6 2.033272 1_555
Mo2 O3 2.033272 1_555
Mo2 O0 2.033272 1_555
Mo2 O7 2.033272 1_545
Mo2 O11 2.033272 1_545
Mo2 O8 2.033272 1_545
Mo2 O13 2.033272 1_555
Mo3 O3 2.033272 1_555
Mo3 O1 2.033272 1_555
Mo3 O2 2.033272 1_554
Mo3 O8 2.033272 1_554
Mo3 O5 2.033272 1_554
Mo3 O9 2.033272 1_555
O0 Sm0 2.526580 1_555
O0 Sm1 2.526580 1_556
O1 Sm1 2.526580 1_565
O1 Sm3 2.526580 1_555
O2 Sm3 2.526580 1_656
O2 Sm1 2.526580 1_656
O3 Sm1 2.526580 1_655
O3 Sm2 2.526580 1_555
O4 Sm2 2.252075 1_455
O4 Sm1 2.252075 1_555
O4 Sm0 2.252075 1_554
O4 Sm3 2.252075 1_545
O5 Sm2 2.526580 1_556
O5 Sm3 2.526580 1_556
O6 Sm3 2.526580 1_556
O6 Sm0 2.526580 1_565
O7 Sm0 2.526580 1_565
O7 Sm2 2.526580 1_565
O8 Sm2 2.526580 1_566
O8 Sm1 2.526580 1_566
O9 Sm3 2.526580 1_655
O9 Sm2 2.526580 1_565
O10 Sm2 2.252075 1_555
O10 Sm1 2.252075 1_555
O10 Sm0 2.252075 1_555
O10 Sm3 2.252075 1_555
O11 Sm0 2.526580 1_665
O11 Sm1 2.526580 1_665
O12 Sm0 2.526580 1_655
O12 Sm3 2.526580 1_655
O13 Sm0 2.526580 1_655
O13 Sm2 2.526580 1_556
