# generated using pymatgen
data_V2Ge(O2F)2
_symmetry_space_group_name_H-M   'P 1'
_cell_length_a   4.97762600
_cell_length_b   9.14849700
_cell_length_c   9.50379200
_cell_angle_alpha   90.00000000
_cell_angle_beta   90.00000000
_cell_angle_gamma   90.00000000
_symmetry_Int_Tables_number   1
_chemical_formula_structural   V2Ge(O2F)2
_chemical_formula_sum   'V8 Ge4 O16 F8'
_cell_volume   432.78174634
_cell_formula_units_Z   4
loop_
 _symmetry_equiv_pos_site_id
 _symmetry_equiv_pos_as_xyz
  1  'x, y, z'
loop_
 _atom_site_type_symbol
 _atom_site_label
 _atom_site_symmetry_multiplicity
 _atom_site_fract_x
 _atom_site_fract_y
 _atom_site_fract_z
 _atom_site_occupancy
  V  V0  1  0.40421400  0.91598200  0.12977100  1
  V  V1  1  0.59578600  0.08401800  0.87022900  1
  V  V2  1  0.90421400  0.41598200  0.37022900  1
  V  V3  1  0.09578600  0.58401800  0.62977100  1
  V  V4  1  0.40421400  0.58401800  0.12977100  1
  V  V5  1  0.90421400  0.08401800  0.37022900  1
  V  V6  1  0.09578600  0.91598200  0.62977100  1
  V  V7  1  0.59578600  0.41598200  0.87022900  1
  Ge  Ge0  1  0.60459600  0.75000000  0.43812300  1
  Ge  Ge1  1  0.89540400  0.75000000  0.93812300  1
  Ge  Ge2  1  0.10459600  0.25000000  0.06187700  1
  Ge  Ge3  1  0.39540400  0.25000000  0.56187700  1
  O  O0  1  0.71463000  0.90953300  0.99218400  1
  O  O1  1  0.78537000  0.90953300  0.49218400  1
  O  O2  1  0.78537000  0.59046700  0.49218400  1
  O  O3  1  0.20985900  0.75000000  0.02633900  1
  O  O4  1  0.28537000  0.09046700  0.00781600  1
  O  O5  1  0.28537000  0.40953300  0.00781600  1
  O  O6  1  0.95020700  0.75000000  0.75158100  1
  O  O7  1  0.29014100  0.75000000  0.52633900  1
  O  O8  1  0.21463000  0.09046700  0.50781600  1
  O  O9  1  0.54979300  0.75000000  0.25158100  1
  O  O10  1  0.79014100  0.25000000  0.97366100  1
  O  O11  1  0.21463000  0.40953300  0.50781600  1
  O  O12  1  0.71463000  0.59046700  0.99218400  1
  O  O13  1  0.70985900  0.25000000  0.47366100  1
  O  O14  1  0.04979300  0.25000000  0.24841900  1
  O  O15  1  0.45020700  0.25000000  0.74841900  1
  F  F0  1  0.08874100  0.93595200  0.25140200  1
  F  F1  1  0.08874100  0.56404800  0.25140200  1
  F  F2  1  0.91125900  0.43595200  0.74859800  1
  F  F3  1  0.41125900  0.93595200  0.75140200  1
  F  F4  1  0.58874100  0.06404800  0.24859800  1
  F  F5  1  0.58874100  0.43595200  0.24859800  1
  F  F6  1  0.41125900  0.56404800  0.75140200  1
  F  F7  1  0.91125900  0.06404800  0.74859800  1
loop_
_geom_bond_atom_site_label_1
_geom_bond_atom_site_label_2
_geom_bond_distance
_geom_bond_site_symmetry_2
Ge0 O7 1.775631 1_555
Ge0 O1 1.789906 1_555
Ge0 O2 1.789906 1_555
Ge0 O9 1.793721 1_555
Ge1 O3 1.775631 1_656
Ge1 O12 1.789906 1_555
Ge1 O0 1.789906 1_555
Ge1 O6 1.793721 1_555
Ge2 O10 1.775631 1_454
Ge2 O4 1.789906 1_555
Ge2 O5 1.789906 1_555
Ge2 O14 1.793721 1_555
Ge3 O13 1.775631 1_555
Ge3 O11 1.789906 1_555
Ge3 O8 1.789906 1_555
Ge3 O15 1.793721 1_555
O0 V0 2.025027 1_556
O0 V1 2.059466 1_565
O1 V6 2.025027 1_655
O1 V5 2.059466 1_565
O2 V3 2.025027 1_655
O2 V2 2.059466 1_555
O3 V4 2.051340 1_555
O3 V0 2.051340 1_555
O4 V1 2.025027 1_554
O4 V0 2.059466 1_545
O5 V7 2.025027 1_554
O5 V4 2.059466 1_555
O6 V6 2.042319 1_655
O6 V3 2.042319 1_655
O7 V6 2.051340 1_555
O7 V3 2.051340 1_555
O8 V5 2.025027 1_455
O8 V6 2.059466 1_545
O9 V4 2.042319 1_555
O9 V0 2.042319 1_555
O10 V1 2.051340 1_555
O10 V7 2.051340 1_555
O11 V2 2.025027 1_455
O11 V3 2.059466 1_555
O12 V4 2.025027 1_556
O12 V7 2.059466 1_555
O13 V5 2.051340 1_555
O13 V2 2.051340 1_555
O14 V5 2.042319 1_455
O14 V2 2.042319 1_455
O15 V7 2.042319 1_555
O15 V1 2.042319 1_555
F0 V0 1.958437 1_555
F0 V5 1.988436 1_465
F1 V4 1.958437 1_555
F1 V2 1.988436 1_455
F2 V7 1.958437 1_555
F2 V3 1.988436 1_655
F3 V6 1.958437 1_555
F3 V1 1.988436 1_565
F4 V5 1.958437 1_555
F4 V0 1.988436 1_545
F5 V2 1.958437 1_555
F5 V4 1.988436 1_555
F6 V3 1.958437 1_555
F6 V7 1.988436 1_555
F7 V1 1.958437 1_555
F7 V6 1.988436 1_645
