# generated using pymatgen
data_TeAs(IF2)3
_symmetry_space_group_name_H-M   'P 1'
_cell_length_a   11.01216500
_cell_length_b   8.46292300
_cell_length_c   13.04672555
_cell_angle_alpha   78.98862562
_cell_angle_beta   90.00000000
_cell_angle_gamma   90.00000000
_symmetry_Int_Tables_number   1
_chemical_formula_structural   TeAs(IF2)3
_chemical_formula_sum   'Te4 As4 I12 F24'
_cell_volume   1193.50552832
_cell_formula_units_Z   4
loop_
 _symmetry_equiv_pos_site_id
 _symmetry_equiv_pos_as_xyz
  1  'x, y, z'
loop_
 _atom_site_type_symbol
 _atom_site_label
 _atom_site_symmetry_multiplicity
 _atom_site_fract_x
 _atom_site_fract_y
 _atom_site_fract_z
 _atom_site_occupancy
  Te  Te0  1  0.33395200  0.18690200  0.31003200  1
  Te  Te1  1  0.16604800  0.18690200  0.81003200  1
  Te  Te2  1  0.83395200  0.81309800  0.18996800  1
  Te  Te3  1  0.66604800  0.81309800  0.68996800  1
  As  As0  1  0.72496800  0.17337000  0.41893300  1
  As  As1  1  0.22496800  0.82663000  0.08106700  1
  As  As2  1  0.77503200  0.17337000  0.91893300  1
  As  As3  1  0.27503200  0.82663000  0.58106700  1
  I  I0  1  0.14879500  0.44523600  0.90414700  1
  I  I1  1  0.09819200  0.22521200  0.25372500  1
  I  I2  1  0.40180800  0.22521200  0.75372500  1
  I  I3  1  0.95409600  0.70848900  0.37063500  1
  I  I4  1  0.35120500  0.44523600  0.40414700  1
  I  I5  1  0.45409600  0.29151100  0.12936500  1
  I  I6  1  0.85120500  0.55476400  0.09585300  1
  I  I7  1  0.54590400  0.70848900  0.87063500  1
  I  I8  1  0.90180800  0.77478800  0.74627500  1
  I  I9  1  0.59819200  0.77478800  0.24627500  1
  I  I10  1  0.64879500  0.55476400  0.59585300  1
  I  I11  1  0.04590400  0.29151100  0.62936500  1
  F  F0  1  0.21810600  0.87688000  0.69844300  1
  F  F1  1  0.87084400  0.24157400  0.44737800  1
  F  F2  1  0.57779500  0.10211300  0.39114400  1
  F  F3  1  0.71810600  0.12312000  0.80155700  1
  F  F4  1  0.68586900  0.36843300  0.35291000  1
  F  F5  1  0.78189400  0.12312000  0.30155700  1
  F  F6  1  0.23880400  0.02550800  0.51320000  1
  F  F7  1  0.12915600  0.75842600  0.55262200  1
  F  F8  1  0.07779500  0.89788700  0.10885600  1
  F  F9  1  0.33223800  0.78336600  0.46159800  1
  F  F10  1  0.66776200  0.21663400  0.53840200  1
  F  F11  1  0.18586900  0.63156700  0.14709000  1
  F  F12  1  0.83223800  0.21663400  0.03840200  1
  F  F13  1  0.16776200  0.78336600  0.96159800  1
  F  F14  1  0.26119600  0.02550800  0.01320000  1
  F  F15  1  0.73880400  0.97449200  0.98680000  1
  F  F16  1  0.42220500  0.89788700  0.60885600  1
  F  F17  1  0.92220500  0.10211300  0.89114400  1
  F  F18  1  0.62915600  0.24157400  0.94737800  1
  F  F19  1  0.76119600  0.97449200  0.48680000  1
  F  F20  1  0.37084400  0.75842600  0.05262200  1
  F  F21  1  0.81413100  0.36843300  0.85291000  1
  F  F22  1  0.31413100  0.63156700  0.64709000  1
  F  F23  1  0.28189400  0.87688000  0.19844300  1
loop_
_geom_bond_atom_site_label_1
_geom_bond_atom_site_label_2
_geom_bond_distance
_geom_bond_site_symmetry_2
As0 F4 1.763325 1_555
As0 F1 1.770106 1_555
As0 F5 1.779804 1_555
As0 F10 1.782807 1_555
As0 F2 1.790328 1_555
As0 F19 1.790715 1_545
As1 F11 1.763325 1_555
As1 F20 1.770106 1_555
As1 F23 1.779804 1_555
As1 F13 1.782807 1_554
As1 F8 1.790328 1_555
As1 F14 1.790715 1_565
As2 F21 1.763325 1_555
As2 F18 1.770106 1_555
As2 F3 1.779804 1_555
As2 F12 1.782807 1_556
As2 F17 1.790328 1_555
As2 F15 1.790715 1_545
As3 F22 1.763325 1_555
As3 F7 1.770106 1_555
As3 F0 1.779804 1_555
As3 F9 1.782807 1_555
As3 F16 1.790328 1_555
As3 F6 1.790715 1_565
I0 Te1 2.710913 1_555
I1 Te0 2.700778 1_555
I2 Te1 2.700778 1_555
I3 Te2 2.700561 1_555
I4 Te0 2.710913 1_555
I5 Te0 2.700561 1_555
I6 Te2 2.710913 1_555
I7 Te3 2.700561 1_555
I8 Te3 2.700778 1_555
I9 Te2 2.700778 1_555
I10 Te3 2.710913 1_555
I11 Te1 2.700561 1_555
