# generated using pymatgen
data_RbCrClO3
_symmetry_space_group_name_H-M   'P 1'
_cell_length_a   7.76475300
_cell_length_b   8.25631100
_cell_length_c   8.28627967
_cell_angle_alpha   89.29421546
_cell_angle_beta   90.00000000
_cell_angle_gamma   90.00000000
_symmetry_Int_Tables_number   1
_chemical_formula_structural   RbCrClO3
_chemical_formula_sum   'Rb4 Cr4 Cl4 O12'
_cell_volume   531.17830075
_cell_formula_units_Z   4
loop_
 _symmetry_equiv_pos_site_id
 _symmetry_equiv_pos_as_xyz
  1  'x, y, z'
loop_
 _atom_site_type_symbol
 _atom_site_label
 _atom_site_symmetry_multiplicity
 _atom_site_fract_x
 _atom_site_fract_y
 _atom_site_fract_z
 _atom_site_occupancy
  Rb  Rb0  1  0.14304800  0.36589400  0.18507300  1
  Rb  Rb1  1  0.35695200  0.86589400  0.18507300  1
  Rb  Rb2  1  0.85695200  0.63410600  0.81492700  1
  Rb  Rb3  1  0.64304800  0.13410600  0.81492700  1
  Cr  Cr0  1  0.87448500  0.87416200  0.22220400  1
  Cr  Cr1  1  0.12551500  0.12583800  0.77779600  1
  Cr  Cr2  1  0.62551500  0.37416200  0.22220400  1
  Cr  Cr3  1  0.37448500  0.62583800  0.77779600  1
  Cl  Cl0  1  0.77625000  0.36143800  0.44534400  1
  Cl  Cl1  1  0.22375000  0.63856200  0.55465600  1
  Cl  Cl2  1  0.72375000  0.86143800  0.44534400  1
  Cl  Cl3  1  0.27625000  0.13856200  0.55465600  1
  O  O0  1  0.49997400  0.53133000  0.22618100  1
  O  O1  1  0.73958200  0.88718600  0.07166500  1
  O  O2  1  0.99997400  0.96867000  0.77381900  1
  O  O3  1  0.99079100  0.71112000  0.20662900  1
  O  O4  1  0.23958200  0.61281400  0.92833500  1
  O  O5  1  0.49079100  0.78888000  0.79337100  1
  O  O6  1  0.00002600  0.03133000  0.22618100  1
  O  O7  1  0.50002600  0.46867000  0.77381900  1
  O  O8  1  0.00920900  0.28888000  0.79337100  1
  O  O9  1  0.50920900  0.21112000  0.20662900  1
  O  O10  1  0.26041800  0.11281400  0.92833500  1
  O  O11  1  0.76041800  0.38718600  0.07166500  1
loop_
_geom_bond_atom_site_label_1
_geom_bond_atom_site_label_2
_geom_bond_distance
_geom_bond_site_symmetry_2
Cr0 O6 1.623639 1_665
Cr0 O3 1.627439 1_555
Cr0 O1 1.631416 1_555
Cr1 O2 1.623639 1_445
Cr1 O8 1.627439 1_555
Cr1 O10 1.631416 1_555
Cr2 O0 1.623639 1_555
Cr2 O9 1.627439 1_555
Cr2 O11 1.631416 1_555
Cr3 O7 1.623639 1_555
Cr3 O5 1.627439 1_555
Cr3 O4 1.631416 1_555
Cl0 Cr2 2.189734 1_555
Cl0 Rb0 3.572438 1_655
Cl0 Rb3 3.718828 1_555
Cl0 Rb2 3.874180 1_555
Cl1 Cr3 2.189734 1_555
Cl1 Rb2 3.572438 1_455
Cl1 Rb1 3.718828 1_555
Cl1 Rb0 3.874180 1_555
Cl2 Cr0 2.189734 1_555
Cl2 Rb1 3.572438 1_555
Cl2 Rb2 3.718828 1_555
Cl2 Rb3 3.874180 1_565
Cl3 Cr1 2.189734 1_555
Cl3 Rb3 3.572438 1_555
Cl3 Rb0 3.718828 1_555
Cl3 Rb1 3.874180 1_545
O0 Rb1 2.992697 1_555
O0 Rb0 3.110312 1_555
O1 Rb3 3.022735 1_564
O1 Rb1 3.120406 1_555
O1 Rb2 3.135594 1_554
O2 Rb2 2.992697 1_555
O2 Rb3 3.110312 1_565
O3 Rb0 3.092944 1_655
O3 Rb1 3.121332 1_655
O3 Rb2 3.474198 1_554
O4 Rb0 3.022735 1_556
O4 Rb2 3.120406 1_455
O4 Rb1 3.135594 1_556
O5 Rb3 3.092944 1_565
O5 Rb2 3.121332 1_555
O5 Rb1 3.474198 1_556
O6 Rb0 2.992697 1_555
O6 Rb1 3.110312 1_545
O7 Rb3 2.992697 1_555
O7 Rb2 3.110312 1_555
O8 Rb2 3.092944 1_455
O8 Rb3 3.121332 1_455
O8 Rb0 3.474198 1_556
O9 Rb1 3.092944 1_545
O9 Rb0 3.121332 1_555
O9 Rb3 3.474198 1_554
O10 Rb1 3.022735 1_546
O10 Rb3 3.120406 1_555
O10 Rb0 3.135594 1_556
O11 Rb2 3.022735 1_554
O11 Rb0 3.120406 1_655
O11 Rb3 3.135594 1_554
