# generated using pymatgen
data_CsBa(BO2)3
_symmetry_space_group_name_H-M   'P 1'
_cell_length_a   12.69932966
_cell_length_b   12.69932966
_cell_length_c   7.64950700
_cell_angle_alpha   90.00000000
_cell_angle_beta   90.00000000
_cell_angle_gamma   119.99999824
_symmetry_Int_Tables_number   1
_chemical_formula_structural   CsBa(BO2)3
_chemical_formula_sum   'Cs6 Ba6 B18 O36'
_cell_volume   1068.37982948
_cell_formula_units_Z   6
loop_
 _symmetry_equiv_pos_site_id
 _symmetry_equiv_pos_as_xyz
  1  'x, y, z'
loop_
 _atom_site_type_symbol
 _atom_site_label
 _atom_site_symmetry_multiplicity
 _atom_site_fract_x
 _atom_site_fract_y
 _atom_site_fract_z
 _atom_site_occupancy
  Cs  Cs0  1  0.36337300  0.00000000  0.00000000  1
  Cs  Cs1  1  0.69532500  0.00000000  0.00000000  1
  Cs  Cs2  1  0.30467500  0.30467500  0.00000000  1
  Cs  Cs3  1  0.00000000  0.69532500  0.00000000  1
  Cs  Cs4  1  0.00000000  0.36337300  0.00000000  1
  Cs  Cs5  1  0.63662700  0.63662700  0.00000000  1
  Ba  Ba0  1  0.70219800  0.00000000  0.50000000  1
  Ba  Ba1  1  0.00000000  0.36677200  0.50000000  1
  Ba  Ba2  1  0.36677200  0.00000000  0.50000000  1
  Ba  Ba3  1  0.29780200  0.29780200  0.50000000  1
  Ba  Ba4  1  0.63322800  0.63322800  0.50000000  1
  Ba  Ba5  1  0.00000000  0.70219800  0.50000000  1
  B  B0  1  0.20510800  0.62469800  0.28468000  1
  B  B1  1  0.26632300  0.73035900  0.71438800  1
  B  B2  1  0.95745700  0.08636600  0.71646200  1
  B  B3  1  0.62469800  0.20510800  0.71532000  1
  B  B4  1  0.37530200  0.58041000  0.28468000  1
  B  B5  1  0.46403600  0.73367700  0.71438800  1
  B  B6  1  0.12890800  0.04254300  0.71646200  1
  B  B7  1  0.73035900  0.26632300  0.28561200  1
  B  B8  1  0.26964100  0.53596400  0.71438800  1
  B  B9  1  0.91363400  0.87109200  0.71646200  1
  B  B10  1  0.04254300  0.12890800  0.28353800  1
  B  B11  1  0.58041000  0.37530200  0.71532000  1
  B  B12  1  0.87109200  0.91363400  0.28353800  1
  B  B13  1  0.53596400  0.26964100  0.28561200  1
  B  B14  1  0.79489200  0.41959000  0.71532000  1
  B  B15  1  0.08636600  0.95745700  0.28353800  1
  B  B16  1  0.41959000  0.79489200  0.28468000  1
  B  B17  1  0.73367700  0.46403600  0.28561200  1
  O  O0  1  0.24994400  0.54232600  0.27973300  1
  O  O1  1  0.41738400  0.50334500  0.29552700  1
  O  O2  1  0.87564700  0.95842600  0.72124900  1
  O  O3  1  0.20733800  0.79209900  0.70233900  1
  O  O4  1  0.54232600  0.24994400  0.72026700  1
  O  O5  1  0.49665500  0.91403900  0.29552700  1
  O  O6  1  0.50334500  0.41738400  0.70447300  1
  O  O7  1  0.08596100  0.58261600  0.29552700  1
  O  O8  1  0.12435300  0.08277800  0.27875100  1
  O  O9  1  0.79266200  0.58476100  0.29766100  1
  O  O10  1  0.16118000  0.91318200  0.29524900  1
  O  O11  1  0.60465300  0.39806900  0.28010000  1
  O  O12  1  0.79209900  0.20733800  0.29766100  1
  O  O13  1  0.04157400  0.91722200  0.72124900  1
  O  O14  1  0.79341500  0.39534700  0.28010000  1
  O  O15  1  0.75005600  0.29238200  0.72026700  1
  O  O16  1  0.70761800  0.45767400  0.72026700  1
  O  O17  1  0.08681800  0.24799800  0.29524900  1
  O  O18  1  0.91722200  0.04157400  0.27875100  1
  O  O19  1  0.39806900  0.60465300  0.71990000  1
  O  O20  1  0.60193100  0.20658500  0.28010000  1
  O  O21  1  0.39534700  0.79341500  0.71990000  1
  O  O22  1  0.41523900  0.20790100  0.29766100  1
  O  O23  1  0.58476100  0.79266200  0.70233900  1
  O  O24  1  0.95842600  0.87564700  0.27875100  1
  O  O25  1  0.20790100  0.41523900  0.70233900  1
  O  O26  1  0.58261600  0.08596100  0.70447300  1
  O  O27  1  0.24799800  0.08681800  0.70475100  1
  O  O28  1  0.91403900  0.49665500  0.70447300  1
  O  O29  1  0.20658500  0.60193100  0.71990000  1
  O  O30  1  0.91318200  0.16118000  0.70475100  1
  O  O31  1  0.08277800  0.12435300  0.72124900  1
  O  O32  1  0.45767400  0.70761800  0.27973300  1
  O  O33  1  0.29238200  0.75005600  0.27973300  1
  O  O34  1  0.75200200  0.83882000  0.29524900  1
  O  O35  1  0.83882000  0.75200200  0.70475100  1
loop_
_geom_bond_atom_site_label_1
_geom_bond_atom_site_label_2
_geom_bond_distance
_geom_bond_site_symmetry_2
Cs0 O27 3.174684 1_554
Cs0 O10 3.174684 1_545
Cs0 O22 3.293942 1_555
Cs0 O3 3.293942 1_544
Cs0 O5 3.318848 1_545
Cs0 O26 3.318848 1_554
Cs0 O33 3.550360 1_545
Cs0 O4 3.550360 1_554
Cs0 O20 3.564218 1_555
Cs0 O21 3.564224 1_544
Cs1 O26 3.148551 1_554
Cs1 O5 3.148551 1_545
Cs1 O12 3.223654 1_555
Cs1 O23 3.223654 1_544
Cs1 O2 3.358341 1_544
Cs1 O18 3.358350 1_555
Cs1 O34 3.358852 1_545
Cs1 O30 3.358852 1_554
Cs2 O6 3.148551 1_554
Cs2 O1 3.148551 1_555
Cs2 O22 3.223654 1_555
Cs2 O25 3.223654 1_554
Cs2 O31 3.358347 1_554
Cs2 O8 3.358347 1_555
Cs2 O27 3.358852 1_554
Cs2 O17 3.358852 1_555
Cs3 O7 3.148551 1_555
Cs3 O28 3.148551 1_454
Cs3 O3 3.223654 1_554
Cs3 O9 3.223654 1_455
Cs3 O24 3.358341 1_455
Cs3 O13 3.358350 1_554
Cs3 O35 3.358852 1_454
Cs3 O10 3.358852 1_555
Cs4 O17 3.174684 1_555
Cs4 O30 3.174684 1_454
Cs4 O25 3.293942 1_554
Cs4 O12 3.293942 1_455
Cs4 O28 3.318848 1_454
Cs4 O7 3.318848 1_555
Cs4 O15 3.550360 1_454
Cs4 O0 3.550360 1_555
Cs4 O29 3.564218 1_554
Cs4 O14 3.564224 1_455
Cs5 O34 3.174684 1_555
Cs5 O35 3.174684 1_554
Cs5 O23 3.293942 1_554
Cs5 O9 3.293942 1_555
Cs5 O6 3.318848 1_554
Cs5 O1 3.318848 1_555
Cs5 O16 3.550360 1_554
Cs5 O32 3.550360 1_555
Cs5 O11 3.564214 1_555
Cs5 O19 3.564214 1_554
Ba0 O26 2.757195 1_555
Ba0 O5 2.757195 1_545
Ba0 O12 2.761515 1_555
Ba0 O23 2.761515 1_545
Ba0 O34 2.887466 1_545
Ba0 O30 2.887466 1_555
Ba0 O2 3.026198 1_545
Ba0 O18 3.026209 1_555
Ba1 O17 2.758046 1_555
Ba1 O30 2.758046 1_455
Ba1 O25 2.849585 1_555
Ba1 O12 2.849585 1_455
Ba1 O28 2.856459 1_455
Ba1 O7 2.856459 1_555
Ba2 O27 2.758046 1_555
Ba2 O10 2.758046 1_545
Ba2 O22 2.849585 1_555
Ba2 O3 2.849585 1_545
Ba2 O5 2.856459 1_545
Ba2 O26 2.856459 1_555
Ba3 O6 2.757195 1_555
Ba3 O1 2.757195 1_555
Ba3 O22 2.761515 1_555
Ba3 O25 2.761515 1_555
Ba3 O17 2.887466 1_555
Ba3 O27 2.887466 1_555
Ba3 O8 3.026205 1_555
Ba3 O31 3.026205 1_555
Ba4 O35 2.758046 1_555
Ba4 O34 2.758046 1_555
Ba4 O9 2.849585 1_555
Ba4 O23 2.849585 1_555
Ba4 O1 2.856459 1_555
Ba4 O6 2.856459 1_555
Ba5 O7 2.757195 1_555
Ba5 O28 2.757195 1_455
Ba5 O3 2.761515 1_555
Ba5 O9 2.761515 1_455
Ba5 O35 2.887466 1_455
Ba5 O10 2.887466 1_555
Ba5 O24 3.026198 1_455
Ba5 O13 3.026209 1_555
B0 O7 1.331653 1_555
B0 O33 1.414124 1_555
B0 O0 1.419688 1_555
B1 O3 1.331037 1_555
B1 O29 1.414216 1_555
B1 O21 1.419745 1_555
B2 O30 1.327038 1_555
B2 O31 1.413916 1_655
B2 O2 1.425669 1_545
B3 O26 1.331653 1_555
B3 O15 1.414124 1_555
B3 O4 1.419688 1_555
B4 O1 1.331653 1_555
B4 O0 1.414124 1_555
B4 O32 1.419688 1_555
B5 O23 1.331037 1_555
B5 O21 1.414204 1_555
B5 O19 1.419745 1_555
B6 O27 1.327050 1_555
B6 O13 1.413916 1_545
B6 O31 1.425669 1_555
B7 O12 1.331037 1_555
B7 O20 1.414216 1_555
B7 O14 1.419745 1_555
B8 O25 1.331037 1_555
B8 O19 1.414215 1_555
B8 O29 1.419734 1_555
B9 O35 1.327048 1_555
B9 O2 1.413916 1_555
B9 O13 1.425669 1_655
B10 O17 1.327050 1_555
B10 O18 1.413916 1_455
B10 O8 1.425669 1_555
B11 O6 1.331653 1_555
B11 O4 1.414124 1_555
B11 O16 1.419688 1_555
B12 O34 1.327048 1_555
B12 O24 1.413916 1_555
B12 O18 1.425669 1_565
B13 O22 1.331037 1_555
B13 O11 1.414215 1_555
B13 O20 1.419734 1_555
B14 O28 1.331653 1_555
B14 O16 1.414124 1_555
B14 O15 1.419688 1_555
B15 O10 1.327038 1_555
B15 O8 1.413916 1_565
B15 O24 1.425669 1_455
B16 O5 1.331653 1_555
B16 O32 1.414124 1_555
B16 O33 1.419688 1_555
B17 O9 1.331037 1_555
B17 O14 1.414204 1_555
B17 O11 1.419745 1_555
