# generated using pymatgen
data_Ag3AsS3
_symmetry_space_group_name_H-M   'P 1'
_cell_length_a   7.32518301
_cell_length_b   7.32518301
_cell_length_c   7.32518301
_cell_angle_alpha   105.37246062
_cell_angle_beta   105.37246062
_cell_angle_gamma   105.37246429
_symmetry_Int_Tables_number   1
_chemical_formula_structural   Ag3AsS3
_chemical_formula_sum   'Ag6 As2 S6'
_cell_volume   340.83252790
_cell_formula_units_Z   2
loop_
 _symmetry_equiv_pos_site_id
 _symmetry_equiv_pos_as_xyz
  1  'x, y, z'
loop_
 _atom_site_type_symbol
 _atom_site_label
 _atom_site_symmetry_multiplicity
 _atom_site_fract_x
 _atom_site_fract_y
 _atom_site_fract_z
 _atom_site_occupancy
  Ag  Ag0  1  0.12372100  0.54320100  0.03194900  1
  Ag  Ag1  1  0.53194900  0.04320100  0.62372100  1
  Ag  Ag2  1  0.54320100  0.03194900  0.12372100  1
  Ag  Ag3  1  0.04320100  0.62372100  0.53194900  1
  Ag  Ag4  1  0.03194900  0.12372100  0.54320100  1
  Ag  Ag5  1  0.62372100  0.53194900  0.04320100  1
  As  As0  1  0.58692800  0.58692800  0.58692800  1
  As  As1  1  0.08692800  0.08692800  0.08692800  1
  S  S0  1  0.68105000  0.41336500  0.33798600  1
  S  S1  1  0.83798600  0.91336500  0.18105000  1
  S  S2  1  0.41336500  0.33798600  0.68105000  1
  S  S3  1  0.91336500  0.18105000  0.83798600  1
  S  S4  1  0.33798600  0.68105000  0.41336500  1
  S  S5  1  0.18105000  0.83798600  0.91336500  1
loop_
_geom_bond_atom_site_label_1
_geom_bond_atom_site_label_2
_geom_bond_distance
_geom_bond_site_symmetry_2
Ag0 S3 2.470664 1_454
Ag0 S5 2.510144 1_554
Ag0 S4 2.574522 1_555
Ag1 S4 2.470664 1_545
Ag1 S2 2.510144 1_555
Ag1 S3 2.574522 1_555
Ag2 S5 2.470664 1_544
Ag2 S1 2.510144 1_545
Ag2 S0 2.574522 1_555
Ag3 S0 2.470664 1_455
Ag3 S4 2.510144 1_555
Ag3 S5 2.574522 1_555
Ag4 S1 2.470664 1_445
Ag4 S3 2.510144 1_455
Ag4 S2 2.574522 1_555
Ag5 S2 2.470664 1_554
Ag5 S0 2.510144 1_555
Ag5 S1 2.574522 1_555
As0 S2 2.306343 1_555
As0 S0 2.306343 1_555
As0 S4 2.306343 1_555
As1 S1 2.306343 1_445
As1 S3 2.306343 1_454
As1 S5 2.306343 1_544
