# generated using pymatgen
data_Ce2Ni22C3
_symmetry_space_group_name_H-M   'P 1'
_cell_length_a   9.36793678
_cell_length_b   9.36793721
_cell_length_c   14.59051427
_cell_angle_alpha   90.00000000
_cell_angle_beta   90.00000000
_cell_angle_gamma   105.54225059
_symmetry_Int_Tables_number   1
_chemical_formula_structural   Ce2Ni22C3
_chemical_formula_sum   'Ce8 Ni88 C12'
_cell_volume   1233.61629307
_cell_formula_units_Z   4
loop_
 _symmetry_equiv_pos_site_id
 _symmetry_equiv_pos_as_xyz
  1  'x, y, z'
loop_
 _atom_site_type_symbol
 _atom_site_label
 _atom_site_symmetry_multiplicity
 _atom_site_fract_x
 _atom_site_fract_y
 _atom_site_fract_z
 _atom_site_occupancy
  Ce  Ce0  1  0.68697796  0.81302204  0.25000000  1
  Ce  Ce1  1  0.70860401  0.29139599  0.47310663  1
  Ce  Ce2  1  0.79139599  0.20860401  0.97310663  1
  Ce  Ce3  1  0.29139599  0.70860401  0.52689337  1
  Ce  Ce4  1  0.31302204  0.18697796  0.75000000  1
  Ce  Ce5  1  0.18697796  0.31302204  0.25000000  1
  Ce  Ce6  1  0.20860401  0.79139599  0.02689337  1
  Ce  Ce7  1  0.81302204  0.68697796  0.75000000  1
  Ni  Ni0  1  0.50312982  0.49687018  0.17474928  1
  Ni  Ni1  1  0.54899430  0.70461517  0.62886288  1
  Ni  Ni2  1  0.71186958  0.64037040  0.07283025  1
  Ni  Ni3  1  0.42884082  0.93149272  0.68270711  1
  Ni  Ni4  1  0.70742927  0.95437134  0.70195191  1
  Ni  Ni5  1  0.44054634  0.55945366  0.34216939  1
  Ni  Ni6  1  0.85962960  0.78813042  0.42716975  1
  Ni  Ni7  1  0.59789866  0.75136701  0.44996259  1
  Ni  Ni8  1  0.35361813  0.64638187  0.91538175  1
  Ni  Ni9  1  0.40210134  0.24863299  0.55003741  1
  Ni  Ni10  1  0.25136701  0.09789866  0.94996259  1
  Ni  Ni11  1  0.10367456  0.68012658  0.84385346  1
  Ni  Ni12  1  0.84219639  0.15780361  0.28815417  1
  Ni  Ni13  1  0.31987342  0.89632544  0.84385346  1
  Ni  Ni14  1  0.06850728  0.57115918  0.68270711  1
  Ni  Ni15  1  0.21186958  0.14037040  0.42716975  1
  Ni  Ni16  1  0.74863299  0.90210134  0.05003741  1
  Ni  Ni17  1  0.07115918  0.56850728  0.18270711  1
  Ni  Ni18  1  0.70461517  0.54899430  0.37113712  1
  Ni  Ni19  1  0.18113758  0.81886242  0.23219544  1
  Ni  Ni20  1  0.18012658  0.60367456  0.34385346  1
  Ni  Ni21  1  0.45100570  0.29538483  0.37113712  1
  Ni  Ni22  1  0.93149272  0.42884082  0.31729289  1
  Ni  Ni23  1  0.91013370  0.53276257  0.04852444  1
  Ni  Ni24  1  0.79257073  0.54562866  0.20195191  1
  Ni  Ni25  1  0.96723743  0.58986630  0.45147556  1
  Ni  Ni26  1  0.64638187  0.35361813  0.08461825  1
  Ni  Ni27  1  0.54562866  0.79257073  0.79804809  1
  Ni  Ni28  1  0.03276257  0.41013370  0.54852444  1
  Ni  Ni29  1  0.04562866  0.29257073  0.70195191  1
  Ni  Ni30  1  0.43149272  0.92884082  0.18270711  1
  Ni  Ni31  1  0.99687018  0.00312982  0.67474928  1
  Ni  Ni32  1  0.50825995  0.26909045  0.92154540  1
  Ni  Ni33  1  0.39632544  0.81987342  0.34385346  1
  Ni  Ni34  1  0.85361813  0.14638187  0.58461825  1
  Ni  Ni35  1  0.49174005  0.73090955  0.07845460  1
  Ni  Ni36  1  0.75136701  0.59789866  0.55003741  1
  Ni  Ni37  1  0.95437134  0.70742927  0.29804809  1
  Ni  Ni38  1  0.92884082  0.43149272  0.81729289  1
  Ni  Ni39  1  0.34219639  0.65780361  0.21184583  1
  Ni  Ni40  1  0.49687018  0.50312982  0.82525072  1
  Ni  Ni41  1  0.99174005  0.23090955  0.42154540  1
  Ni  Ni42  1  0.29257073  0.04562866  0.29804809  1
  Ni  Ni43  1  0.45437134  0.20742927  0.20195191  1
  Ni  Ni44  1  0.20461517  0.04899430  0.12886288  1
  Ni  Ni45  1  0.23090955  0.99174005  0.57845460  1
  Ni  Ni46  1  0.00000000  0.00000000  0.50000000  1
  Ni  Ni47  1  0.60367456  0.18012658  0.65614654  1
  Ni  Ni48  1  0.15780361  0.84219639  0.71184583  1
  Ni  Ni49  1  0.55945366  0.44054634  0.65783061  1
  Ni  Ni50  1  0.20742927  0.45437134  0.79804809  1
  Ni  Ni51  1  0.26909045  0.50825995  0.07845460  1
  Ni  Ni52  1  0.00312982  0.99687018  0.32525072  1
  Ni  Ni53  1  0.94054634  0.05945366  0.15783061  1
  Ni  Ni54  1  0.73090955  0.49174005  0.92154540  1
  Ni  Ni55  1  0.04899430  0.20461517  0.87113712  1
  Ni  Ni56  1  0.57115918  0.06850728  0.31729289  1
  Ni  Ni57  1  0.78813042  0.85962960  0.57283025  1
  Ni  Ni58  1  0.56850728  0.07115918  0.81729289  1
  Ni  Ni59  1  0.09789866  0.25136701  0.05003741  1
  Ni  Ni60  1  0.95100570  0.79538483  0.12886288  1
  Ni  Ni61  1  0.79538483  0.95100570  0.87113712  1
  Ni  Ni62  1  0.00825995  0.76909045  0.57845460  1
  Ni  Ni63  1  0.29538483  0.45100570  0.62886288  1
  Ni  Ni64  1  0.50000000  0.50000000  0.50000000  1
  Ni  Ni65  1  0.31886242  0.68113758  0.73219544  1
  Ni  Ni66  1  0.00000000  0.00000000  0.00000000  1
  Ni  Ni67  1  0.81987342  0.39632544  0.65614654  1
  Ni  Ni68  1  0.81886242  0.18113758  0.76780456  1
  Ni  Ni69  1  0.14638187  0.85361813  0.41538175  1
  Ni  Ni70  1  0.08986630  0.46723743  0.95147556  1
  Ni  Ni71  1  0.58986630  0.96723743  0.54852444  1
  Ni  Ni72  1  0.24863299  0.40210134  0.44996259  1
  Ni  Ni73  1  0.89632544  0.31987342  0.15614654  1
  Ni  Ni74  1  0.64037040  0.71186958  0.92716975  1
  Ni  Ni75  1  0.53276257  0.91013370  0.95147556  1
  Ni  Ni76  1  0.76909045  0.00825995  0.42154540  1
  Ni  Ni77  1  0.46723743  0.08986630  0.04852444  1
  Ni  Ni78  1  0.05945366  0.94054634  0.84216939  1
  Ni  Ni79  1  0.65780361  0.34219639  0.78815417  1
  Ni  Ni80  1  0.14037040  0.21186958  0.57283025  1
  Ni  Ni81  1  0.50000000  0.50000000  0.00000000  1
  Ni  Ni82  1  0.28813042  0.35962960  0.92716975  1
  Ni  Ni83  1  0.68113758  0.31886242  0.26780456  1
  Ni  Ni84  1  0.41013370  0.03276257  0.45147556  1
  Ni  Ni85  1  0.68012658  0.10367456  0.15614654  1
  Ni  Ni86  1  0.90210134  0.74863299  0.94996259  1
  Ni  Ni87  1  0.35962960  0.28813042  0.07283025  1
  C  C0  1  0.05557477  0.94442523  0.21101486  1
  C  C1  1  0.43274019  0.05736649  0.91684835  1
  C  C2  1  0.44263351  0.06725981  0.58315165  1
  C  C3  1  0.94263351  0.56725981  0.91684835  1
  C  C4  1  0.06725981  0.44263351  0.41684835  1
  C  C5  1  0.55557477  0.44442523  0.28898514  1
  C  C6  1  0.44442523  0.55557477  0.71101486  1
  C  C7  1  0.05736649  0.43274019  0.08315165  1
  C  C8  1  0.56725981  0.94263351  0.08315165  1
  C  C9  1  0.55736649  0.93274019  0.41684835  1
  C  C10  1  0.94442523  0.05557477  0.78898514  1
  C  C11  1  0.93274019  0.55736649  0.58315165  1
loop_
_geom_bond_atom_site_label_1
_geom_bond_atom_site_label_2
_geom_bond_distance
_geom_bond_site_symmetry_2
Ce0 Ni37 3.012054 1_555
Ce0 Ni24 3.012054 1_555
Ce0 Ni30 3.043191 1_555
Ce0 Ni56 3.043191 1_565
Ce0 Ni7 3.046936 1_555
Ce0 Ni16 3.046936 1_555
Ce0 Ni33 3.063767 1_555
Ce0 Ni85 3.063767 1_565
Ce0 Ni35 3.073694 1_555
Ce0 Ni76 3.073694 1_565
Ce0 Ni60 3.080239 1_555
Ce0 Ni18 3.080240 1_555
Ce0 Ni6 3.091060 1_555
Ce0 Ni2 3.091060 1_555
Ce0 Ni53 3.137158 1_565
Ce0 Ni5 3.137158 1_555
Ce0 Ni52 3.195278 1_655
Ce0 Ni0 3.195278 1_555
Ce0 Ni39 3.215524 1_555
Ce0 Ni12 3.215524 1_565
Ce1 Ni34 2.706863 1_555
Ce1 Ni21 2.843694 1_555
Ce1 Ni18 2.843694 1_555
Ce1 Ni67 2.938711 1_555
Ce1 Ni47 2.938711 1_555
Ce1 Ni41 2.954266 1_555
Ce1 Ni76 2.954266 1_555
Ce1 Ni9 3.008045 1_555
Ce1 Ni36 3.008045 1_555
Ce1 Ni83 3.023357 1_555
Ce1 Ni22 3.121737 1_555
Ce1 Ni56 3.121737 1_555
Ce1 Ni64 3.136590 1_555
Ce1 Ni28 3.139983 1_655
Ce1 Ni71 3.139983 1_545
Ce1 Ni84 3.187061 1_555
Ce1 Ni25 3.187061 1_555
Ce1 Ni12 3.354689 1_555
Ce2 Ni26 2.706863 1_556
Ce2 Ni55 2.843694 1_655
Ce2 Ni61 2.843694 1_545
Ce2 Ni85 2.938711 1_556
Ce2 Ni73 2.938711 1_556
Ce2 Ni32 2.954266 1_555
Ce2 Ni54 2.954266 1_555
Ce2 Ni59 3.008045 1_656
Ce2 Ni16 3.008045 1_546
Ce2 Ni68 3.023357 1_555
Ce2 Ni58 3.121737 1_555
Ce2 Ni38 3.121737 1_555
Ce2 Ni66 3.136590 1_656
Ce2 Ni77 3.139983 1_556
Ce2 Ni23 3.139983 1_556
Ce2 Ni70 3.187061 1_655
Ce2 Ni75 3.187061 1_545
Ce2 Ni79 3.354689 1_555
Ce3 Ni69 2.706863 1_555
Ce3 Ni1 2.843694 1_555
Ce3 Ni63 2.843694 1_555
Ce3 Ni20 2.938711 1_555
Ce3 Ni33 2.938711 1_555
Ce3 Ni62 2.954266 1_555
Ce3 Ni45 2.954266 1_555
Ce3 Ni7 3.008045 1_555
Ce3 Ni72 3.008045 1_555
Ce3 Ni65 3.023357 1_555
Ce3 Ni14 3.121737 1_555
Ce3 Ni3 3.121737 1_555
Ce3 Ni64 3.136590 1_555
Ce3 Ni25 3.139983 1_455
Ce3 Ni84 3.139983 1_565
Ce3 Ni71 3.187061 1_555
Ce3 Ni28 3.187061 1_555
Ce3 Ni48 3.354689 1_555
Ce4 Ni29 3.012054 1_555
Ce4 Ni50 3.012054 1_555
Ce4 Ni58 3.043191 1_555
Ce4 Ni3 3.043191 1_545
Ce4 Ni9 3.046936 1_555
Ce4 Ni10 3.046936 1_555
Ce4 Ni47 3.063767 1_555
Ce4 Ni13 3.063767 1_545
Ce4 Ni32 3.073694 1_555
Ce4 Ni45 3.073694 1_545
Ce4 Ni55 3.080239 1_555
Ce4 Ni63 3.080240 1_555
Ce4 Ni80 3.091060 1_555
Ce4 Ni82 3.091060 1_555
Ce4 Ni78 3.137158 1_545
Ce4 Ni49 3.137158 1_555
Ce4 Ni31 3.195278 1_455
Ce4 Ni40 3.195278 1_555
Ce4 Ni79 3.215524 1_555
Ce4 Ni48 3.215524 1_545
Ce5 Ni43 3.012054 1_555
Ce5 Ni42 3.012054 1_555
Ce5 Ni22 3.043191 1_455
Ce5 Ni17 3.043191 1_555
Ce5 Ni59 3.046936 1_555
Ce5 Ni72 3.046936 1_555
Ce5 Ni73 3.063767 1_455
Ce5 Ni20 3.063767 1_555
Ce5 Ni41 3.073694 1_455
Ce5 Ni51 3.073694 1_555
Ce5 Ni21 3.080239 1_555
Ce5 Ni44 3.080240 1_555
Ce5 Ni87 3.091060 1_555
Ce5 Ni15 3.091060 1_555
Ce5 Ni5 3.137158 1_555
Ce5 Ni53 3.137158 1_455
Ce5 Ni0 3.195278 1_555
Ce5 Ni52 3.195278 1_545
Ce5 Ni12 3.215524 1_455
Ce5 Ni39 3.215524 1_555
Ce6 Ni8 2.706863 1_554
Ce6 Ni60 2.843694 1_455
Ce6 Ni44 2.843694 1_565
Ce6 Ni13 2.938711 1_554
Ce6 Ni11 2.938711 1_554
Ce6 Ni35 2.954266 1_555
Ce6 Ni51 2.954266 1_555
Ce6 Ni86 3.008045 1_454
Ce6 Ni10 3.008045 1_564
Ce6 Ni19 3.023357 1_555
Ce6 Ni30 3.121737 1_555
Ce6 Ni17 3.121737 1_555
Ce6 Ni66 3.136590 1_565
Ce6 Ni75 3.139983 1_554
Ce6 Ni70 3.139983 1_554
Ce6 Ni23 3.187061 1_455
Ce6 Ni77 3.187061 1_565
Ce6 Ni39 3.354689 1_555
Ce7 Ni27 3.012054 1_555
Ce7 Ni4 3.012054 1_555
Ce7 Ni14 3.043191 1_655
Ce7 Ni38 3.043191 1_555
Ce7 Ni86 3.046936 1_555
Ce7 Ni36 3.046936 1_555
Ce7 Ni11 3.063767 1_655
Ce7 Ni67 3.063767 1_555
Ce7 Ni62 3.073694 1_655
Ce7 Ni54 3.073694 1_555
Ce7 Ni1 3.080239 1_555
Ce7 Ni61 3.080240 1_555
Ce7 Ni74 3.091060 1_555
Ce7 Ni57 3.091060 1_555
Ce7 Ni49 3.137158 1_555
Ce7 Ni78 3.137158 1_655
Ce7 Ni40 3.195278 1_555
Ce7 Ni31 3.195278 1_565
Ce7 Ni48 3.215524 1_655
Ce7 Ni79 3.215524 1_555
Ni0 Ni39 2.461057 1_555
Ni0 Ni2 2.536447 1_555
Ni0 Ni87 2.536447 1_555
Ni0 Ni81 2.550109 1_555
Ni0 Ni24 2.656029 1_555
Ni0 Ni43 2.656029 1_555
Ni1 Ni57 2.460153 1_555
Ni1 Ni27 2.605248 1_555
Ni1 Ni64 2.635993 1_555
Ni1 Ni4 2.636918 1_555
Ni2 Ni24 2.295236 1_555
Ni2 Ni81 2.323585 1_555
Ni2 Ni23 2.365371 1_555
Ni2 Ni74 2.377903 1_554
Ni2 Ni35 2.432269 1_555
Ni2 Ni60 2.460153 1_555
Ni2 Ni86 2.539609 1_554
Ni2 Ni26 2.595935 1_555
Ni2 Ni54 2.641183 1_554
Ni3 Ni48 2.487792 1_555
Ni3 Ni4 2.576059 1_555
Ni4 Ni57 2.295236 1_555
Ni4 Ni68 2.310258 1_565
Ni4 Ni71 2.511939 1_555
Ni4 Ni58 2.546717 1_565
Ni4 Ni61 2.605248 1_555
Ni4 Ni47 2.639241 1_565
Ni5 Ni64 2.467725 1_555
Ni6 Ni7 2.405908 1_555
Ni6 Ni76 2.432269 1_565
Ni6 Ni69 2.595934 1_655
Ni6 Ni62 2.641183 1_655
Ni8 Ni81 2.508572 1_556
Ni8 Ni82 2.595935 1_555
Ni10 Ni66 2.400376 1_556
Ni10 Ni82 2.405908 1_555
Ni10 Ni87 2.539609 1_556
Ni11 Ni48 2.420614 1_555
Ni11 Ni50 2.639241 1_555
Ni12 Ni41 2.388579 1_555
Ni12 Ni76 2.388579 1_555
Ni12 Ni53 2.401724 1_555
Ni12 Ni85 2.420614 1_555
Ni12 Ni73 2.420614 1_555
Ni12 Ni83 2.420947 1_555
Ni12 Ni52 2.461057 1_645
Ni12 Ni56 2.487792 1_555
Ni12 Ni22 2.487792 1_555
Ni13 Ni48 2.420614 1_555
Ni13 Ni27 2.639241 1_555
Ni14 Ni48 2.487792 1_555
Ni14 Ni50 2.546717 1_555
Ni14 Ni29 2.576059 1_555
Ni15 Ni42 2.295236 1_555
Ni15 Ni46 2.323585 1_555
Ni15 Ni84 2.365371 1_555
Ni15 Ni80 2.377903 1_555
Ni15 Ni72 2.405908 1_555
Ni15 Ni41 2.432269 1_455
Ni15 Ni21 2.460153 1_555
Ni15 Ni52 2.536447 1_545
Ni15 Ni9 2.539609 1_555
Ni15 Ni69 2.595935 1_545
Ni15 Ni45 2.641183 1_545
Ni16 Ni66 2.400376 1_665
Ni16 Ni2 2.405908 1_555
Ni16 Ni74 2.539609 1_554
Ni17 Ni39 2.487792 1_555
Ni17 Ni37 2.546717 1_455
Ni17 Ni24 2.576059 1_455
Ni18 Ni6 2.460153 1_555
Ni18 Ni24 2.605248 1_555
Ni18 Ni64 2.635993 1_555
Ni18 Ni37 2.636918 1_555
Ni19 Ni37 2.310258 1_455
Ni19 Ni42 2.310258 1_565
Ni19 Ni39 2.420947 1_555
Ni20 Ni39 2.420614 1_555
Ni20 Ni37 2.639241 1_455
Ni21 Ni43 2.605248 1_555
Ni21 Ni64 2.635993 1_555
Ni21 Ni42 2.636918 1_555
Ni22 Ni24 2.546717 1_555
Ni22 Ni37 2.576059 1_555
Ni23 Ni24 2.511939 1_555
Ni24 Ni37 2.308589 1_555
Ni24 Ni83 2.310258 1_555
Ni24 Ni26 2.592618 1_555
Ni24 Ni60 2.636918 1_555
Ni24 Ni73 2.639241 1_555
Ni25 Ni6 2.365371 1_555
Ni25 Ni37 2.511939 1_555
Ni26 Ni81 2.508572 1_555
Ni26 Ni43 2.592618 1_555
Ni26 Ni87 2.595934 1_555
Ni27 Ni74 2.295236 1_555
Ni27 Ni4 2.308589 1_555
Ni27 Ni65 2.310258 1_555
Ni27 Ni75 2.511939 1_555
Ni27 Ni3 2.546717 1_555
Ni27 Ni58 2.576059 1_565
Ni27 Ni8 2.592618 1_555
Ni27 Ni61 2.636918 1_555
Ni27 Ni40 2.656029 1_555
Ni28 Ni80 2.365371 1_555
Ni28 Ni29 2.511939 1_555
Ni29 Ni80 2.295236 1_555
Ni29 Ni50 2.308589 1_555
Ni29 Ni68 2.310258 1_455
Ni29 Ni38 2.546717 1_455
Ni29 Ni34 2.592618 1_455
Ni29 Ni55 2.605248 1_555
Ni29 Ni63 2.636918 1_555
Ni29 Ni67 2.639241 1_455
Ni29 Ni31 2.656029 1_455
Ni30 Ni39 2.487792 1_555
Ni30 Ni42 2.546717 1_565
Ni30 Ni43 2.576059 1_565
Ni31 Ni48 2.461057 1_645
Ni31 Ni57 2.536447 1_545
Ni31 Ni80 2.536447 1_655
Ni31 Ni46 2.550109 1_655
Ni31 Ni4 2.656029 1_545
Ni32 Ni79 2.388579 1_555
Ni32 Ni82 2.432269 1_555
Ni32 Ni81 2.466822 1_556
Ni32 Ni87 2.641183 1_556
Ni33 Ni39 2.420614 1_555
Ni33 Ni42 2.639241 1_565
Ni34 Ni46 2.508572 1_655
Ni34 Ni4 2.592618 1_545
Ni34 Ni80 2.595934 1_655
Ni34 Ni57 2.595935 1_545
Ni35 Ni39 2.388579 1_555
Ni35 Ni81 2.466822 1_555
Ni35 Ni74 2.641183 1_554
Ni36 Ni64 2.400376 1_555
Ni36 Ni57 2.405908 1_555
Ni36 Ni6 2.539609 1_555
Ni37 Ni6 2.295236 1_555
Ni37 Ni69 2.592618 1_655
Ni37 Ni60 2.605248 1_555
Ni37 Ni52 2.656029 1_655
Ni38 Ni79 2.487792 1_555
Ni38 Ni50 2.576059 1_655
Ni39 Ni51 2.388579 1_555
Ni39 Ni5 2.401724 1_555
Ni40 Ni79 2.461057 1_555
Ni40 Ni82 2.536447 1_555
Ni40 Ni74 2.536447 1_555
Ni40 Ni81 2.550109 1_556
Ni40 Ni50 2.656029 1_555
Ni41 Ni46 2.466822 1_655
Ni41 Ni80 2.641183 1_655
Ni42 Ni43 2.308589 1_555
Ni42 Ni84 2.511939 1_555
Ni42 Ni56 2.576059 1_555
Ni42 Ni69 2.592618 1_545
Ni42 Ni44 2.605248 1_555
Ni42 Ni52 2.656029 1_545
Ni43 Ni87 2.295236 1_555
Ni43 Ni83 2.310258 1_555
Ni43 Ni77 2.511939 1_555
Ni43 Ni56 2.546717 1_555
Ni43 Ni44 2.636918 1_555
Ni43 Ni85 2.639241 1_555
Ni44 Ni87 2.460153 1_555
Ni44 Ni66 2.635993 1_555
Ni45 Ni48 2.388579 1_555
Ni45 Ni80 2.432269 1_565
Ni45 Ni46 2.466822 1_565
Ni46 Ni57 2.323585 1_445
Ni46 Ni80 2.323585 1_555
Ni46 Ni6 2.323585 1_445
Ni46 Ni76 2.466822 1_455
Ni46 Ni62 2.466822 1_545
Ni46 Ni69 2.508572 1_545
Ni46 Ni52 2.550109 1_545
Ni47 Ni79 2.420614 1_555
Ni48 Ni62 2.388579 1_555
Ni48 Ni78 2.401724 1_555
Ni48 Ni65 2.420947 1_555
Ni49 Ni79 2.401724 1_555
Ni49 Ni64 2.467725 1_555
Ni50 Ni82 2.295236 1_555
Ni50 Ni65 2.310258 1_555
Ni50 Ni70 2.511939 1_555
Ni50 Ni8 2.592618 1_555
Ni50 Ni63 2.605248 1_555
Ni50 Ni55 2.636918 1_555
Ni51 Ni87 2.432269 1_555
Ni51 Ni81 2.466822 1_555
Ni51 Ni82 2.641183 1_554
Ni52 Ni6 2.536447 1_455
Ni53 Ni66 2.467725 1_655
Ni54 Ni79 2.388579 1_555
Ni54 Ni74 2.432269 1_555
Ni54 Ni81 2.466822 1_556
Ni55 Ni82 2.460153 1_555
Ni55 Ni66 2.635993 1_556
Ni57 Ni71 2.365371 1_555
Ni57 Ni6 2.377903 1_555
Ni57 Ni62 2.432269 1_655
Ni57 Ni7 2.539609 1_555
Ni57 Ni76 2.641183 1_565
Ni58 Ni79 2.487792 1_555
Ni59 Ni66 2.400376 1_555
Ni59 Ni87 2.405908 1_555
Ni59 Ni82 2.539609 1_554
Ni60 Ni66 2.635993 1_665
Ni61 Ni74 2.460153 1_555
Ni61 Ni66 2.635993 1_666
Ni63 Ni80 2.460153 1_555
Ni63 Ni64 2.635993 1_555
Ni64 Ni72 2.400376 1_555
Ni64 Ni7 2.400376 1_555
Ni64 Ni9 2.400376 1_555
Ni66 Ni86 2.400376 1_444
Ni66 Ni78 2.467725 1_544
Ni67 Ni79 2.420614 1_555
Ni68 Ni79 2.420947 1_555
Ni70 Ni82 2.365371 1_555
Ni72 Ni80 2.539609 1_555
Ni74 Ni81 2.323585 1_556
Ni74 Ni75 2.365371 1_555
Ni74 Ni86 2.405908 1_555
Ni74 Ni8 2.595934 1_555
Ni77 Ni87 2.365371 1_555
Ni80 Ni9 2.405908 1_555
Ni81 Ni82 2.323585 1_554
Ni81 Ni87 2.323585 1_555
Ni82 Ni87 2.377903 1_556
C0 Ni52 1.841248 1_555
C0 Ni53 1.883289 1_465
C0 Ni19 1.898464 1_555
C0 Ni44 1.900729 1_565
C0 Ni60 1.900729 1_455
C0 Ni42 2.512470 1_565
C0 Ni37 2.512470 1_455
C1 Ni10 1.900069 1_555
C1 Ni58 1.912118 1_555
C1 Ni13 1.916603 1_545
C1 Ni32 1.920202 1_555
C1 Ni75 1.930853 1_545
C1 Ni77 1.958443 1_556
C1 Ce4 3.064004 1_555
C2 Ni9 1.900069 1_555
C2 Ni3 1.912118 1_545
C2 Ni47 1.916602 1_555
C2 Ni45 1.920202 1_545
C2 Ni71 1.930853 1_545
C2 Ni84 1.958443 1_555
C2 Ce4 3.064004 1_555
C3 Ni86 1.900069 1_555
C3 Ni38 1.912118 1_555
C3 Ni11 1.916602 1_655
C3 Ni54 1.920202 1_555
C3 Ni70 1.930853 1_655
C3 Ni23 1.958443 1_556
C3 Ce7 3.064004 1_555
C4 Ni72 1.900069 1_555
C4 Ni22 1.912118 1_455
C4 Ni20 1.916603 1_555
C4 Ni41 1.920202 1_455
C4 Ni25 1.930853 1_455
C4 Ni28 1.958443 1_555
C4 Ce5 3.064004 1_555
C5 Ni0 1.841248 1_555
C5 Ni5 1.883289 1_555
C5 Ni83 1.898464 1_555
C5 Ni18 1.900729 1_555
C5 Ni21 1.900729 1_555
C5 Ni24 2.512470 1_555
C5 Ni43 2.512470 1_555
C6 Ni40 1.841248 1_555
C6 Ni49 1.883289 1_555
C6 Ni65 1.898464 1_555
C6 Ni63 1.900729 1_555
C6 Ni1 1.900729 1_555
C6 Ni50 2.512470 1_555
C6 Ni27 2.512470 1_555
C7 Ni59 1.900069 1_555
C7 Ni17 1.912118 1_555
C7 Ni73 1.916602 1_455
C7 Ni51 1.920202 1_555
C7 Ni23 1.930853 1_455
C7 Ni70 1.958443 1_554
C7 Ce5 3.064004 1_555
C8 Ni16 1.900069 1_555
C8 Ni30 1.912118 1_555
C8 Ni85 1.916603 1_565
C8 Ni35 1.920202 1_555
C8 Ni77 1.930853 1_565
C8 Ni75 1.958443 1_554
C8 Ce0 3.064004 1_555
C9 Ni7 1.900069 1_555
C9 Ni56 1.912118 1_565
C9 Ni33 1.916602 1_555
C9 Ni76 1.920202 1_565
C9 Ni84 1.930853 1_565
C9 Ni71 1.958443 1_555
C9 Ce0 3.064004 1_555
C10 Ni31 1.841248 1_555
C10 Ni78 1.883289 1_645
C10 Ni68 1.898464 1_555
C10 Ni61 1.900729 1_545
C10 Ni55 1.900729 1_655
C10 Ni4 2.512470 1_545
C10 Ni29 2.512470 1_655
C11 Ni36 1.900069 1_555
C11 Ni14 1.912118 1_655
C11 Ni67 1.916603 1_555
C11 Ni62 1.920202 1_655
C11 Ni28 1.930853 1_655
C11 Ni25 1.958443 1_555
C11 Ce7 3.064004 1_555
