# generated using pymatgen
data_CaSO4
_symmetry_space_group_name_H-M   'P 1'
_cell_length_a   6.97875097
_cell_length_b   6.97870811
_cell_length_c   6.27560966
_cell_angle_alpha   89.99998830
_cell_angle_beta   90.00000916
_cell_angle_gamma   120.00017407
_symmetry_Int_Tables_number   1
_chemical_formula_structural   CaSO4
_chemical_formula_sum   'Ca3 S3 O12'
_cell_volume   264.69060597
_cell_formula_units_Z   3
loop_
 _symmetry_equiv_pos_site_id
 _symmetry_equiv_pos_as_xyz
  1  'x, y, z'
loop_
 _atom_site_type_symbol
 _atom_site_label
 _atom_site_symmetry_multiplicity
 _atom_site_fract_x
 _atom_site_fract_y
 _atom_site_fract_z
 _atom_site_occupancy
  Ca  Ca0  1  0.49999979  0.49999954  0.16666735  1
  Ca  Ca1  1  0.49999997  0.00000007  0.50000044  1
  Ca  Ca2  1  0.00000027  0.50000037  0.83333193  1
  S  S0  1  0.50000044  0.00000069  0.00000030  1
  S  S1  1  0.50000052  0.50000031  0.66665610  1
  S  S2  1  -0.00000042  0.50000007  0.33334307  1
  O  O0  1  0.13597130  0.68889753  0.47447019  1
  O  O1  1  0.31109743  0.44707247  0.80780833  1
  O  O2  1  0.68890261  0.55292793  0.80780844  1
  O  O3  1  0.44707245  0.13597301  0.14113948  1
  O  O4  1  0.55292677  0.86402574  0.14113942  1
  O  O5  1  0.86402909  0.31110259  0.47447025  1
  O  O6  1  0.55292627  0.68889716  0.52552954  1
  O  O7  1  0.68890019  0.13597288  0.85886053  1
  O  O8  1  0.86402537  0.55292803  0.19219169  1
  O  O9  1  0.13597496  0.44707190  0.19219148  1
  O  O10  1  0.31109847  0.86402592  0.85886040  1
  O  O11  1  0.44707353  0.31110278  0.52553008  1
loop_
_geom_bond_atom_site_label_1
_geom_bond_atom_site_label_2
_geom_bond_distance
_geom_bond_site_symmetry_2
Ca0 O4 2.382759 1_555
Ca0 O3 2.382761 1_555
Ca0 O9 2.382763 1_555
Ca0 O8 2.382766 1_555
Ca0 O6 2.541493 1_555
Ca0 O11 2.541493 1_555
Ca0 O1 2.541493 1_554
Ca0 O2 2.541493 1_554
Ca1 O0 2.382785 1_545
Ca1 O11 2.382786 1_555
Ca1 O6 2.382787 1_545
Ca1 O5 2.382787 1_555
Ca1 O7 2.541490 1_555
Ca1 O10 2.541494 1_545
Ca1 O3 2.541495 1_555
Ca1 O4 2.541499 1_545
Ca2 O10 2.382755 1_555
Ca2 O1 2.382763 1_555
Ca2 O2 2.382765 1_455
Ca2 O7 2.382768 1_455
Ca2 O0 2.541489 1_555
Ca2 O5 2.541490 1_455
Ca2 O9 2.541497 1_556
Ca2 O8 2.541497 1_456
O0 S2 1.473674 1_555
O1 S1 1.473803 1_555
O2 S1 1.473798 1_555
O3 S0 1.473735 1_555
O4 S0 1.473742 1_565
O5 S2 1.473673 1_655
O6 S1 1.473669 1_555
O7 S0 1.473735 1_556
O8 S2 1.473794 1_655
O9 S2 1.473802 1_555
O10 S0 1.473748 1_566
O11 S1 1.473669 1_555
