# generated using pymatgen
data_ZnS
_symmetry_space_group_name_H-M   'P 1'
_cell_length_a   3.81002514
_cell_length_b   3.81002547
_cell_length_c   74.74230237
_cell_angle_alpha   89.99968651
_cell_angle_beta   90.00031580
_cell_angle_gamma   119.99894982
_symmetry_Int_Tables_number   1
_chemical_formula_structural   ZnS
_chemical_formula_sum   'Zn24 S24'
_cell_volume   939.63118022
_cell_formula_units_Z   24
loop_
 _symmetry_equiv_pos_site_id
 _symmetry_equiv_pos_as_xyz
  1  'x, y, z'
loop_
 _atom_site_type_symbol
 _atom_site_label
 _atom_site_symmetry_multiplicity
 _atom_site_fract_x
 _atom_site_fract_y
 _atom_site_fract_z
 _atom_site_occupancy
  Zn  Zn0  1  0.66666584  0.33333416  0.70834009  1
  Zn  Zn1  1  0.33333367  0.66666633  0.66668846  1
  Zn  Zn2  1  0.66666582  0.33333418  0.33333362  1
  Zn  Zn3  1  0.33333299  0.66666701  0.29168052  1
  Zn  Zn4  1  0.99999850  0.00000150  0.37501573  1
  Zn  Zn5  1  0.66666582  0.33333418  0.08335306  1
  Zn  Zn6  1  0.66666581  0.33333419  0.58334938  1
  Zn  Zn7  1  0.66666582  0.33333418  0.20833916  1
  Zn  Zn8  1  0.33333298  0.66666702  0.54169558  1
  Zn  Zn9  1  -0.00000082  1.00000082  0.75001639  1
  Zn  Zn10  1  0.33333296  0.66666704  0.04172008  1
  Zn  Zn11  1  0.66666511  0.33333489  0.45834458  1
  Zn  Zn12  1  -0.00000079  1.00000079  0.12502481  1
  Zn  Zn13  1  0.33333367  0.66666633  0.16668868  1
  Zn  Zn14  1  0.33333336  0.66666664  0.41668620  1
  Zn  Zn15  1  0.99999850  0.00000150  0.50002472  1
  Zn  Zn16  1  -0.00000081  1.00000081  0.62502304  1
  Zn  Zn17  1  0.66666581  0.33333419  0.83331466  1
  Zn  Zn18  1  0.33333209  0.66666791  0.79167964  1
  Zn  Zn19  1  0.33333527  0.66666473  0.95832827  1
  Zn  Zn20  1  0.99999828  0.00000172  0.87501505  1
  Zn  Zn21  1  0.66666297  0.33333703  0.91671178  1
  Zn  Zn22  1  0.99999746  0.00000254  0.00002402  1
  Zn  Zn23  1  -0.00000084  1.00000084  0.25001514  1
  S  S0  1  0.33333476  0.66666524  0.19790043  1
  S  S1  1  0.66666749  0.33333251  0.86451525  1
  S  S2  1  0.00000149  0.99999851  0.40622967  1
  S  S3  1  0.66666802  0.33333198  0.61456987  1
  S  S4  1  0.00000104  0.99999896  0.53123865  1
  S  S5  1  0.33333440  0.66666560  0.44790084  1
  S  S6  1  0.33332820  0.66667180  0.98952763  1
  S  S7  1  0.66666801  0.33333199  0.73956218  1
  S  S8  1  0.00000057  0.99999943  0.03127718  1
  S  S9  1  0.33333471  0.66666529  0.82288753  1
  S  S10  1  0.00000071  0.99999929  0.78122751  1
  S  S11  1  0.66666391  0.33333609  0.94790459  1
  S  S12  1  0.00000144  0.99999856  0.15623598  1
  S  S13  1  0.33333476  0.66666524  0.69790072  1
  S  S14  1  0.66666761  0.33333239  0.48956800  1
  S  S15  1  0.00000142  0.99999858  0.65623501  1
  S  S16  1  0.00000106  0.99999894  0.28122702  1
  S  S17  1  0.66666764  0.33333236  0.36455646  1
  S  S18  1  0.33333472  0.66666528  0.57290769  1
  S  S19  1  0.33333468  0.66666532  0.07291780  1
  S  S20  1  0.66666801  0.33333199  0.11457251  1
  S  S21  1  0.66666800  0.33333200  0.23956124  1
  S  S22  1  0.33333587  0.66666413  0.32289245  1
  S  S23  1  0.99999501  0.00000499  0.90626716  1
loop_
_geom_bond_atom_site_label_1
_geom_bond_atom_site_label_2
_geom_bond_distance
_geom_bond_site_symmetry_2
S0 Zn13 2.332838 1_555
S0 Zn7 2.333958 1_555
S0 Zn7 2.334019 1_455
S0 Zn7 2.334019 1_565
S1 Zn17 2.332004 1_555
S1 Zn20 2.335486 1_555
S1 Zn20 2.335550 1_455
S1 Zn20 2.335550 1_565
S2 Zn4 2.333002 1_465
S2 Zn14 2.334408 1_555
S2 Zn14 2.334462 1_455
S2 Zn14 2.334462 1_565
S3 Zn6 2.333491 1_555
S3 Zn16 2.334320 1_645
S3 Zn16 2.334380 1_545
S3 Zn16 2.334380 1_655
S4 Zn15 2.333001 1_465
S4 Zn8 2.334419 1_555
S4 Zn8 2.334471 1_455
S4 Zn8 2.334472 1_565
S5 Zn14 2.333054 1_555
S5 Zn11 2.334081 1_555
S5 Zn11 2.334145 1_455
S5 Zn11 2.334146 1_565
S6 Zn19 2.331912 1_555
S6 Zn22 2.335410 1_466
S6 Zn22 2.335460 1_566
S6 Zn22 2.335460 1_456
S7 Zn0 2.333611 1_555
S7 Zn9 2.334346 1_645
S7 Zn9 2.334406 1_545
S7 Zn9 2.334406 1_655
S8 Zn10 2.334071 1_555
S8 Zn10 2.334119 1_455
S8 Zn10 2.334119 1_565
S8 Zn22 2.335933 1_465
S9 Zn18 2.332550 1_555
S9 Zn17 2.333669 1_555
S9 Zn17 2.333729 1_455
S9 Zn17 2.333729 1_565
S10 Zn9 2.332791 1_555
S10 Zn18 2.334295 1_555
S10 Zn18 2.334353 1_455
S10 Zn18 2.334353 1_565
S11 Zn21 2.331422 1_555
S11 Zn19 2.333577 1_555
S11 Zn19 2.333646 1_655
S11 Zn19 2.333646 1_545
S12 Zn12 2.332795 1_555
S12 Zn13 2.334315 1_555
S12 Zn13 2.334365 1_455
S12 Zn13 2.334365 1_565
S13 Zn1 2.332876 1_555
S13 Zn0 2.333974 1_555
S13 Zn0 2.334035 1_455
S13 Zn0 2.334035 1_565
S14 Zn11 2.333710 1_555
S14 Zn15 2.334407 1_555
S14 Zn15 2.334469 1_455
S14 Zn15 2.334470 1_565
S15 Zn16 2.332854 1_555
S15 Zn1 2.334333 1_555
S15 Zn1 2.334383 1_455
S15 Zn1 2.334384 1_565
S16 Zn23 2.332848 1_555
S16 Zn3 2.334333 1_555
S16 Zn3 2.334386 1_455
S16 Zn3 2.334386 1_565
S17 Zn2 2.333667 1_555
S17 Zn4 2.334470 1_555
S17 Zn4 2.334533 1_455
S17 Zn4 2.334534 1_565
S18 Zn8 2.332865 1_555
S18 Zn6 2.334032 1_555
S18 Zn6 2.334093 1_455
S18 Zn6 2.334093 1_565
S19 Zn10 2.331789 1_555
S19 Zn5 2.333872 1_555
S19 Zn5 2.333932 1_455
S19 Zn5 2.333932 1_565
S20 Zn5 2.333414 1_555
S20 Zn12 2.334298 1_645
S20 Zn12 2.334358 1_545
S20 Zn12 2.334358 1_655
S21 Zn7 2.333610 1_555
S21 Zn23 2.334338 1_645
S21 Zn23 2.334398 1_545
S21 Zn23 2.334398 1_655
S22 Zn3 2.332852 1_555
S22 Zn2 2.334012 1_555
S22 Zn2 2.334084 1_455
S22 Zn2 2.334084 1_565
S23 Zn21 2.334121 1_555
S23 Zn21 2.334159 1_655
S23 Zn21 2.334159 1_545
S23 Zn20 2.335855 1_555
