# generated using pymatgen
data_Nd5Te2Cl3O10
_symmetry_space_group_name_H-M   'P 1'
_cell_length_a   7.01467291
_cell_length_b   7.01467291
_cell_length_c   10.24414050
_cell_angle_alpha   89.67914056
_cell_angle_beta   89.67914056
_cell_angle_gamma   48.01853510
_symmetry_Int_Tables_number   1
_chemical_formula_structural   Nd5Te2Cl3O10
_chemical_formula_sum   'Nd5 Te2 Cl3 O10'
_cell_volume   374.69865423
_cell_formula_units_Z   1
loop_
 _symmetry_equiv_pos_site_id
 _symmetry_equiv_pos_as_xyz
  1  'x, y, z'
loop_
 _atom_site_type_symbol
 _atom_site_label
 _atom_site_symmetry_multiplicity
 _atom_site_fract_x
 _atom_site_fract_y
 _atom_site_fract_z
 _atom_site_occupancy
  Nd  Nd0  1  0.39734200  0.39734200  0.23143400  1
  Nd  Nd1  1  0.70953600  0.70953600  0.10459300  1
  Nd  Nd2  1  0.60265800  0.60265800  0.76856600  1
  Nd  Nd3  1  0.29046400  0.29046400  0.89540700  1
  Nd  Nd4  1  0.00000000  0.00000000  0.00000000  1
  Te  Te0  1  0.91633100  0.91633100  0.67223100  1
  Te  Te1  1  0.08366900  0.08366900  0.32776900  1
  Cl  Cl0  1  0.83689100  0.83689100  0.35132100  1
  Cl  Cl1  1  0.16310900  0.16310900  0.64867900  1
  Cl  Cl2  1  0.50000000  0.50000000  0.50000000  1
  O  O0  1  0.89265800  0.39941300  0.94208000  1
  O  O1  1  0.60058700  0.10734200  0.05792000  1
  O  O2  1  0.80801800  0.29322800  0.20404600  1
  O  O3  1  0.39941300  0.89265800  0.94208000  1
  O  O4  1  0.70677200  0.19198200  0.79595400  1
  O  O5  1  0.10734200  0.60058700  0.05792000  1
  O  O6  1  0.29322800  0.80801800  0.20404600  1
  O  O7  1  0.22421900  0.22421900  0.28177600  1
  O  O8  1  0.19198200  0.70677200  0.79595400  1
  O  O9  1  0.77578100  0.77578100  0.71822400  1
loop_
_geom_bond_atom_site_label_1
_geom_bond_atom_site_label_2
_geom_bond_distance
_geom_bond_site_symmetry_2
Nd0 O7 2.274728 1_555
Nd0 O1 2.337212 1_555
Nd0 O5 2.337212 1_555
Nd0 O6 2.467703 1_555
Nd0 O2 2.467703 1_555
Nd1 O3 2.330740 1_554
Nd1 O0 2.330740 1_554
Nd1 O1 2.394920 1_565
Nd1 O5 2.394920 1_655
Nd1 O2 2.705348 1_555
Nd1 O6 2.705348 1_555
Nd2 O9 2.274728 1_555
Nd2 O3 2.337212 1_555
Nd2 O0 2.337212 1_555
Nd2 O8 2.467703 1_555
Nd2 O4 2.467703 1_555
Nd3 O5 2.330740 1_556
Nd3 O1 2.330740 1_556
Nd3 O0 2.394920 1_455
Nd3 O3 2.394920 1_545
Nd3 O8 2.705348 1_555
Nd3 O4 2.705348 1_555
Nd4 O0 2.435773 1_454
Nd4 O5 2.435773 1_545
Nd4 O1 2.435773 1_455
Nd4 O3 2.435773 1_544
Nd4 O2 2.593189 1_455
Nd4 O4 2.593189 1_454
Nd4 O8 2.593189 1_544
Nd4 O6 2.593189 1_545
Cl0 Nd1 3.017074 1_555
Cl0 Nd0 3.200480 1_565
Cl0 Nd0 3.200480 1_655
Cl1 Nd3 3.017074 1_555
Cl1 Nd2 3.200480 1_545
Cl1 Nd2 3.200480 1_455
Cl2 Nd2 3.056874 1_555
Cl2 Nd0 3.056874 1_555
O2 Te1 1.926184 1_655
O4 Te0 1.926184 1_545
O6 Te1 1.926184 1_565
O7 Te1 1.859028 1_555
O8 Te0 1.926184 1_455
O9 Te0 1.859028 1_555
