# generated using pymatgen
data_KNaZnO2
_symmetry_space_group_name_H-M   'P 1'
_cell_length_a   6.05322487
_cell_length_b   6.05322487
_cell_length_c   5.61989585
_cell_angle_alpha   69.54644476
_cell_angle_beta   69.54644476
_cell_angle_gamma   108.04555960
_symmetry_Int_Tables_number   1
_chemical_formula_structural   KNaZnO2
_chemical_formula_sum   'K2 Na2 Zn2 O4'
_cell_volume   157.38628982
_cell_formula_units_Z   2
loop_
 _symmetry_equiv_pos_site_id
 _symmetry_equiv_pos_as_xyz
  1  'x, y, z'
loop_
 _atom_site_type_symbol
 _atom_site_label
 _atom_site_symmetry_multiplicity
 _atom_site_fract_x
 _atom_site_fract_y
 _atom_site_fract_z
 _atom_site_occupancy
  K  K0  1  0.12380800  0.87619200  0.75000000  1
  K  K1  1  0.87619200  0.12380800  0.25000000  1
  Na  Na0  1  0.22943900  0.77056100  0.25000000  1
  Na  Na1  1  0.77056100  0.22943900  0.75000000  1
  Zn  Zn0  1  0.48968400  0.51031600  0.75000000  1
  Zn  Zn1  1  0.51031600  0.48968400  0.25000000  1
  O  O0  1  0.57356300  0.78795500  0.86724000  1
  O  O1  1  0.21204500  0.42643700  0.63276000  1
  O  O2  1  0.78795500  0.57356300  0.36724000  1
  O  O3  1  0.42643700  0.21204500  0.13276000  1
loop_
_geom_bond_atom_site_label_1
_geom_bond_atom_site_label_2
_geom_bond_distance
_geom_bond_site_symmetry_2
K0 O3 2.800800 1_565
K0 O2 2.800800 1_456
K0 O1 2.988551 1_565
K0 O0 2.988551 1_455
K0 O0 3.168570 1_555
K0 O1 3.168570 1_555
K1 O1 2.800800 1_654
K1 O0 2.800800 1_545
K1 O3 2.988551 1_655
K1 O2 2.988551 1_545
K1 O2 3.168570 1_555
K1 O3 3.168570 1_555
Na0 O2 2.289928 1_455
Na0 O3 2.289928 1_565
Na0 O0 2.356171 1_554
Na0 O1 2.356171 1_555
Na1 O0 2.289928 1_545
Na1 O1 2.289928 1_655
Na1 O2 2.356171 1_555
Na1 O3 2.356171 1_556
O0 Zn0 1.998852 1_555
O0 Zn1 2.077343 1_556
O1 Zn0 1.998852 1_555
O1 Zn1 2.077343 1_555
O2 Zn1 1.998852 1_555
O2 Zn0 2.077343 1_555
O3 Zn1 1.998852 1_555
O3 Zn0 2.077343 1_554
