# generated using pymatgen
data_LiTaSiO5
_symmetry_space_group_name_H-M   'P 1'
_cell_length_a   7.88454521
_cell_length_b   7.44971708
_cell_length_c   7.47260290
_cell_angle_alpha   60.53596247
_cell_angle_beta   90.00000000
_cell_angle_gamma   90.00000000
_symmetry_Int_Tables_number   1
_chemical_formula_structural   LiTaSiO5
_chemical_formula_sum   'Li4 Ta4 Si4 O20'
_cell_volume   382.15471226
_cell_formula_units_Z   4
loop_
 _symmetry_equiv_pos_site_id
 _symmetry_equiv_pos_as_xyz
  1  'x, y, z'
loop_
 _atom_site_type_symbol
 _atom_site_label
 _atom_site_symmetry_multiplicity
 _atom_site_fract_x
 _atom_site_fract_y
 _atom_site_fract_z
 _atom_site_occupancy
  Li  Li0  1  0.43319916  0.24810077  0.30911448  1
  Li  Li1  1  0.56680084  0.75189923  0.69088552  1
  Li  Li2  1  0.06680084  0.24810077  0.80911448  1
  Li  Li3  1  0.93319916  0.75189923  0.19088552  1
  Ta  Ta0  1  0.73986122  0.25192458  0.00695461  1
  Ta  Ta1  1  0.76013878  0.25192458  0.50695461  1
  Ta  Ta2  1  0.26013878  0.74807542  0.99304539  1
  Ta  Ta3  1  0.23986122  0.74807542  0.49304539  1
  Si  Si0  1  0.61057474  0.74958749  0.25946746  1
  Si  Si1  1  0.88942526  0.74958749  0.75946746  1
  Si  Si2  1  0.11057474  0.25041251  0.24053254  1
  Si  Si3  1  0.38942526  0.25041251  0.74053254  1
  O  O0  1  0.75668356  0.55778588  0.85327008  1
  O  O1  1  0.32827950  0.75105439  0.74753158  1
  O  O2  1  0.26084010  0.05534328  0.85217313  1
  O  O3  1  0.67172050  0.24894561  0.25246842  1
  O  O4  1  0.51174710  0.26399273  0.90855849  1
  O  O5  1  0.99264627  0.24249013  0.06624099  1
  O  O6  1  0.48825290  0.73600727  0.09144151  1
  O  O7  1  0.23915990  0.05534328  0.35217313  1
  O  O8  1  0.74331644  0.55778588  0.35327008  1
  O  O9  1  0.98825290  0.26399273  0.40855849  1
  O  O10  1  0.76084010  0.94465672  0.64782687  1
  O  O11  1  0.49264627  0.75750987  0.43375901  1
  O  O12  1  0.82827950  0.24894561  0.75246842  1
  O  O13  1  0.50735373  0.24249013  0.56624099  1
  O  O14  1  0.17172050  0.75105439  0.24753158  1
  O  O15  1  0.01174710  0.73600727  0.59144151  1
  O  O16  1  0.73915990  0.94465672  0.14782687  1
  O  O17  1  0.00735373  0.75750987  0.93375901  1
  O  O18  1  0.24331644  0.44221412  0.14672992  1
  O  O19  1  0.25668356  0.44221412  0.64672992  1
loop_
_geom_bond_atom_site_label_1
_geom_bond_atom_site_label_2
_geom_bond_distance
_geom_bond_site_symmetry_2
Li0 O3 1.927012 1_555
Li0 O13 1.989065 1_555
Li0 O7 2.012880 1_555
Li0 O18 2.019603 1_555
Li1 O1 1.927012 1_555
Li1 O11 1.989065 1_555
Li1 O10 2.012880 1_555
Li1 O0 2.019603 1_555
Li2 O12 1.927012 1_455
Li2 O5 1.989065 1_456
Li2 O2 2.012880 1_555
Li2 O19 2.019603 1_555
Li3 O14 1.927012 1_655
Li3 O17 1.989065 1_654
Li3 O16 2.012880 1_555
Li3 O8 2.019603 1_555
O0 Si1 1.625758 1_555
O0 Ta0 1.988500 1_556
O1 Ta2 1.901300 1_555
O1 Ta3 2.035774 1_555
O2 Si3 1.625734 1_555
O2 Ta2 1.994356 1_545
O3 Ta0 1.901300 1_555
O3 Ta1 2.035774 1_555
O4 Si3 1.625385 1_555
O4 Ta0 1.928356 1_556
O5 Si2 1.624786 1_655
O5 Ta0 2.035438 1_555
O6 Si0 1.625385 1_555
O6 Ta2 1.928356 1_554
O7 Si2 1.625734 1_555
O7 Ta3 1.994356 1_545
O8 Si0 1.625758 1_555
O8 Ta1 1.988500 1_555
O9 Si2 1.625385 1_655
O9 Ta1 1.928356 1_555
O10 Si1 1.625734 1_555
O10 Ta1 1.994356 1_565
O11 Si0 1.624786 1_555
O11 Ta3 2.035438 1_555
O12 Ta1 1.901300 1_555
O12 Ta0 2.035774 1_556
O13 Si3 1.624786 1_555
O13 Ta1 2.035438 1_555
O14 Ta3 1.901300 1_555
O14 Ta2 2.035774 1_554
O15 Si1 1.625385 1_455
O15 Ta3 1.928356 1_555
O16 Si0 1.625734 1_555
O16 Ta0 1.994356 1_565
O17 Si1 1.624786 1_455
O17 Ta2 2.035438 1_555
O18 Si2 1.625758 1_555
O18 Ta2 1.988500 1_554
O19 Si3 1.625758 1_555
O19 Ta3 1.988500 1_555
