# generated using pymatgen
data_La2O3
_symmetry_space_group_name_H-M   'P 1'
_cell_length_a   7.62222405
_cell_length_b   7.62222405
_cell_length_c   9.22427377
_cell_angle_alpha   80.02384399
_cell_angle_beta   80.02384399
_cell_angle_gamma   28.85398649
_symmetry_Int_Tables_number   1
_chemical_formula_structural   La2O3
_chemical_formula_sum   'La6 O9'
_cell_volume   254.44993665
_cell_formula_units_Z   3
loop_
 _symmetry_equiv_pos_site_id
 _symmetry_equiv_pos_as_xyz
  1  'x, y, z'
loop_
 _atom_site_type_symbol
 _atom_site_label
 _atom_site_symmetry_multiplicity
 _atom_site_fract_x
 _atom_site_fract_y
 _atom_site_fract_z
 _atom_site_occupancy
  La  La0  1  0.69043200  0.69043200  0.86166300  1
  La  La1  1  0.36551400  0.36551400  0.49252600  1
  La  La2  1  0.30956800  0.30956800  0.13833700  1
  La  La3  1  0.96704800  0.96704800  0.81201100  1
  La  La4  1  0.63448600  0.63448600  0.50747400  1
  La  La5  1  0.03295200  0.03295200  0.18798900  1
  O  O0  1  0.79970100  0.79970100  0.62729900  1
  O  O1  1  0.87187900  0.87187900  0.28634700  1
  O  O2  1  0.47415900  0.47415900  0.65665000  1
  O  O3  1  0.82407200  0.82407200  0.97485100  1
  O  O4  1  0.17592800  0.17592800  0.02514900  1
  O  O5  1  0.20029900  0.20029900  0.37270100  1
  O  O6  1  0.52584100  0.52584100  0.34335000  1
  O  O7  1  0.12812100  0.12812100  0.71365300  1
  O  O8  1  0.50000000  0.50000000  0.00000000  1
loop_
_geom_bond_atom_site_label_1
_geom_bond_atom_site_label_2
_geom_bond_distance
_geom_bond_site_symmetry_2
La0 O3 2.391632 1_555
La0 O4 2.410579 1_566
La0 O4 2.410579 1_656
La0 O0 2.455265 1_555
La0 O7 2.601157 1_655
La0 O7 2.601157 1_565
La0 O8 2.872156 1_556
La1 O0 2.379881 1_545
La1 O0 2.379881 1_455
La1 O2 2.394485 1_555
La1 O6 2.516154 1_555
La1 O1 2.677371 1_545
La1 O1 2.677371 1_455
La1 O5 2.852342 1_555
La2 O4 2.391632 1_555
La2 O3 2.410579 1_454
La2 O3 2.410579 1_544
La2 O5 2.455265 1_555
La2 O1 2.601157 1_455
La2 O1 2.601157 1_545
La2 O8 2.872156 1_555
La3 O3 2.361702 1_555
La3 O2 2.370091 1_565
La3 O2 2.370091 1_655
La3 O7 2.388795 1_665
La3 O8 2.674292 1_566
La3 O8 2.674292 1_656
La3 O0 3.242416 1_555
La4 O5 2.379881 1_565
La4 O5 2.379881 1_655
La4 O6 2.394485 1_555
La4 O2 2.516154 1_555
La4 O7 2.677371 1_655
La4 O7 2.677371 1_565
La4 O0 2.852342 1_555
La5 O4 2.361702 1_555
La5 O6 2.370091 1_545
La5 O6 2.370091 1_455
La5 O1 2.388795 1_445
La5 O8 2.674292 1_455
La5 O8 2.674292 1_545
La5 O5 3.242416 1_555
