# generated using pymatgen
data_KBi6BrO9
_symmetry_space_group_name_H-M   'P 1'
_cell_length_a   15.16141495
_cell_length_b   15.16141495
_cell_length_c   15.16141495
_cell_angle_alpha   109.47122063
_cell_angle_beta   109.47122063
_cell_angle_gamma   109.47122063
_symmetry_Int_Tables_number   1
_chemical_formula_structural   KBi6BrO9
_chemical_formula_sum   'K8 Bi48 Br8 O72'
_cell_volume   2682.85567900
_cell_formula_units_Z   8
loop_
 _symmetry_equiv_pos_site_id
 _symmetry_equiv_pos_as_xyz
  1  'x, y, z'
loop_
 _atom_site_type_symbol
 _atom_site_label
 _atom_site_symmetry_multiplicity
 _atom_site_fract_x
 _atom_site_fract_y
 _atom_site_fract_z
 _atom_site_occupancy
  K  K0  1  0.00000000  0.50000000  0.50000000  1
  K  K1  1  0.00000000  0.50000000  0.00000000  1
  K  K2  1  0.00000000  0.00000000  0.50000000  1
  K  K3  1  0.50000000  0.00000000  0.00000000  1
  K  K4  1  0.50000000  0.50000000  0.50000000  1
  K  K5  1  0.50000000  0.00000000  0.50000000  1
  K  K6  1  0.00000000  0.00000000  0.00000000  1
  K  K7  1  0.50000000  0.50000000  0.00000000  1
  Bi  Bi0  1  0.01281300  0.25000000  0.26281300  1
  Bi  Bi1  1  0.75000000  0.26938700  0.23061300  1
  Bi  Bi2  1  0.25000000  0.48718700  0.23718700  1
  Bi  Bi3  1  0.51281300  0.25000000  0.76281300  1
  Bi  Bi4  1  0.25000000  0.98718700  0.73718700  1
  Bi  Bi5  1  0.51938700  0.26938700  0.53877500  1
  Bi  Bi6  1  0.98061300  0.51938700  0.75000000  1
  Bi  Bi7  1  0.48718700  0.75000000  0.23718700  1
  Bi  Bi8  1  0.73061300  0.76938700  0.25000000  1
  Bi  Bi9  1  0.48061300  0.25000000  0.01938700  1
  Bi  Bi10  1  0.26938700  0.23061300  0.75000000  1
  Bi  Bi11  1  0.75000000  0.51281300  0.76281300  1
  Bi  Bi12  1  0.75000000  0.01281300  0.26281300  1
  Bi  Bi13  1  0.98718700  0.73718700  0.25000000  1
  Bi  Bi14  1  0.26281300  0.01281300  0.25000000  1
  Bi  Bi15  1  0.53877500  0.51938700  0.26938700  1
  Bi  Bi16  1  0.76281300  0.51281300  0.25000000  1
  Bi  Bi17  1  0.73718700  0.98718700  0.75000000  1
  Bi  Bi18  1  0.26938700  0.53877500  0.51938700  1
  Bi  Bi19  1  0.75000000  0.98061300  0.51938700  1
  Bi  Bi20  1  0.26281300  0.75000000  0.01281300  1
  Bi  Bi21  1  0.46122500  0.48061300  0.73061300  1
  Bi  Bi22  1  0.75000000  0.23718700  0.48718700  1
  Bi  Bi23  1  0.75000000  0.73718700  0.98718700  1
  Bi  Bi24  1  0.23061300  0.75000000  0.26938700  1
  Bi  Bi25  1  0.76938700  0.01938700  0.03877500  1
  Bi  Bi26  1  0.25000000  0.26281300  0.01281300  1
  Bi  Bi27  1  0.98718700  0.75000000  0.73718700  1
  Bi  Bi28  1  0.25000000  0.01938700  0.48061300  1
  Bi  Bi29  1  0.01938700  0.03877500  0.76938700  1
  Bi  Bi30  1  0.51938700  0.75000000  0.98061300  1
  Bi  Bi31  1  0.73718700  0.25000000  0.98718700  1
  Bi  Bi32  1  0.23718700  0.25000000  0.48718700  1
  Bi  Bi33  1  0.51281300  0.76281300  0.75000000  1
  Bi  Bi34  1  0.01938700  0.48061300  0.25000000  1
  Bi  Bi35  1  0.98061300  0.96122500  0.23061300  1
  Bi  Bi36  1  0.73061300  0.46122500  0.48061300  1
  Bi  Bi37  1  0.25000000  0.73061300  0.76938700  1
  Bi  Bi38  1  0.76281300  0.75000000  0.51281300  1
  Bi  Bi39  1  0.48061300  0.73061300  0.46122500  1
  Bi  Bi40  1  0.25000000  0.76281300  0.51281300  1
  Bi  Bi41  1  0.96122500  0.23061300  0.98061300  1
  Bi  Bi42  1  0.01281300  0.26281300  0.75000000  1
  Bi  Bi43  1  0.23718700  0.48718700  0.75000000  1
  Bi  Bi44  1  0.76938700  0.25000000  0.73061300  1
  Bi  Bi45  1  0.03877500  0.76938700  0.01938700  1
  Bi  Bi46  1  0.48718700  0.23718700  0.25000000  1
  Bi  Bi47  1  0.23061300  0.98061300  0.96122500  1
  Br  Br0  1  0.50000000  0.00000000  0.25000000  1
  Br  Br1  1  0.25000000  0.50000000  0.00000000  1
  Br  Br2  1  0.50000000  0.00000000  0.75000000  1
  Br  Br3  1  0.75000000  0.75000000  0.75000000  1
  Br  Br4  1  0.00000000  0.25000000  0.50000000  1
  Br  Br5  1  0.25000000  0.25000000  0.25000000  1
  Br  Br6  1  0.75000000  0.50000000  0.00000000  1
  Br  Br7  1  0.00000000  0.75000000  0.50000000  1
  O  O0  1  0.43886300  0.58936600  0.65240200  1
  O  O1  1  0.58936600  0.65240200  0.43886300  1
  O  O2  1  0.28646100  0.93696400  0.34759800  1
  O  O3  1  0.89404000  0.78808000  0.14404000  1
  O  O4  1  0.06113700  0.84759800  0.91063400  1
  O  O5  1  0.41063400  0.34759800  0.56113700  1
  O  O6  1  0.71353900  0.15050300  0.06113700  1
  O  O7  1  0.85596000  0.10596000  0.21192000  1
  O  O8  1  0.78646100  0.43886300  0.34949700  1
  O  O9  1  0.21353900  0.56113700  0.65050300  1
  O  O10  1  0.14404000  0.89404000  0.78808000  1
  O  O11  1  0.93696400  0.34759800  0.28646100  1
  O  O12  1  0.41063400  0.56303600  0.84949700  1
  O  O13  1  0.39404000  0.64404000  0.28808100  1
  O  O14  1  0.28646100  0.84949700  0.93886300  1
  O  O15  1  0.43696400  0.15050300  0.58936600  1
  O  O16  1  0.58936600  0.43696400  0.15050300  1
  O  O17  1  0.15050300  0.58936600  0.43696400  1
  O  O18  1  0.93886300  0.28646100  0.84949700  1
  O  O19  1  0.15240200  0.08936600  0.93886300  1
  O  O20  1  0.15050300  0.06113700  0.71353900  1
  O  O21  1  0.65240200  0.43886300  0.58936600  1
  O  O22  1  0.85596000  0.25000000  0.64404000  1
  O  O23  1  0.84759800  0.91063400  0.06113700  1
  O  O24  1  0.21353900  0.15240200  0.56303600  1
  O  O25  1  0.15240200  0.56303600  0.21353900  1
  O  O26  1  0.75000000  0.35596000  0.14404000  1
  O  O27  1  0.43696400  0.78646100  0.84759800  1
  O  O28  1  0.14404000  0.75000000  0.35596000  1
  O  O29  1  0.65050300  0.93696400  0.08936600  1
  O  O30  1  0.89404000  0.60596000  0.75000000  1
  O  O31  1  0.84949700  0.41063400  0.56303600  1
  O  O32  1  0.64404000  0.85596000  0.25000000  1
  O  O33  1  0.71353900  0.06303600  0.65240200  1
  O  O34  1  0.43886300  0.34949700  0.78646100  1
  O  O35  1  0.34949700  0.06303600  0.91063400  1
  O  O36  1  0.93886300  0.15240200  0.08936600  1
  O  O37  1  0.78646100  0.84759800  0.43696400  1
  O  O38  1  0.35596000  0.71191900  0.60596000  1
  O  O39  1  0.84759800  0.43696400  0.78646100  1
  O  O40  1  0.25000000  0.64404000  0.85596000  1
  O  O41  1  0.06303600  0.91063400  0.34949700  1
  O  O42  1  0.10596000  0.21191900  0.85596000  1
  O  O43  1  0.06113700  0.71353900  0.15050300  1
  O  O44  1  0.08936600  0.93886300  0.15240200  1
  O  O45  1  0.65050300  0.21353900  0.56113700  1
  O  O46  1  0.25000000  0.10596000  0.39404000  1
  O  O47  1  0.56113700  0.41063400  0.34759800  1
  O  O48  1  0.56303600  0.84949700  0.41063400  1
  O  O49  1  0.08936600  0.65050300  0.93696400  1
  O  O50  1  0.56113700  0.65050300  0.21353900  1
  O  O51  1  0.84949700  0.93886300  0.28646100  1
  O  O52  1  0.65240200  0.71353900  0.06303600  1
  O  O53  1  0.10596000  0.39404000  0.25000000  1
  O  O54  1  0.34759800  0.56113700  0.41063400  1
  O  O55  1  0.60596000  0.75000000  0.89404000  1
  O  O56  1  0.56303600  0.21353900  0.15240200  1
  O  O57  1  0.06303600  0.65240200  0.71353900  1
  O  O58  1  0.60596000  0.35596000  0.71192000  1
  O  O59  1  0.28808000  0.39404000  0.64404000  1
  O  O60  1  0.21191900  0.85596000  0.10596000  1
  O  O61  1  0.64404000  0.28808000  0.39404000  1
  O  O62  1  0.39404000  0.25000000  0.10596000  1
  O  O63  1  0.91063400  0.06113700  0.84759800  1
  O  O64  1  0.71191900  0.60596000  0.35596000  1
  O  O65  1  0.78808000  0.14404000  0.89404000  1
  O  O66  1  0.91063400  0.34949700  0.06303600  1
  O  O67  1  0.75000000  0.89404000  0.60596000  1
  O  O68  1  0.34759800  0.28646100  0.93696400  1
  O  O69  1  0.93696400  0.08936600  0.65050300  1
  O  O70  1  0.34949700  0.78646100  0.43886300  1
  O  O71  1  0.35596000  0.14404000  0.75000000  1
loop_
_geom_bond_atom_site_label_1
_geom_bond_atom_site_label_2
_geom_bond_distance
_geom_bond_site_symmetry_2
K0 O17 2.865654 1_555
K0 O11 2.865654 1_455
K0 O31 2.865654 1_455
K0 O9 2.865654 1_555
K0 O8 2.865654 1_455
K0 O57 2.865654 1_555
K1 O66 2.865654 1_455
K1 O18 2.865654 1_454
K1 O43 2.865654 1_555
K1 O49 2.865654 1_554
K1 O25 2.865654 1_555
K1 O39 2.865654 1_454
K2 O41 2.865654 1_545
K2 O24 2.865654 1_555
K2 O69 2.865654 1_455
K2 O51 2.865654 1_445
K2 O37 2.865654 1_445
K2 O20 2.865654 1_555
K3 O35 2.865654 1_554
K3 O14 2.865654 1_544
K3 O6 2.865654 1_555
K3 O56 2.865654 1_555
K3 O29 2.865654 1_545
K3 O27 2.865654 1_544
K4 O54 2.865654 1_555
K4 O47 2.865654 1_555
K4 O0 2.865654 1_555
K4 O5 2.865654 1_555
K4 O21 2.865654 1_555
K4 O1 2.865654 1_555
K5 O15 2.865654 1_555
K5 O2 2.865654 1_545
K5 O45 2.865654 1_555
K5 O33 2.865654 1_555
K5 O70 2.865654 1_545
K5 O48 2.865654 1_545
K6 O44 2.865654 1_545
K6 O63 2.865654 1_454
K6 O4 2.865654 1_544
K6 O23 2.865654 1_445
K6 O36 2.865654 1_455
K6 O19 2.865654 1_554
K7 O68 2.865654 1_554
K7 O16 2.865654 1_555
K7 O50 2.865654 1_555
K7 O34 2.865654 1_554
K7 O52 2.865654 1_555
K7 O12 2.865654 1_554
Bi0 O11 2.167071 1_455
Bi0 O36 2.167071 1_455
Bi0 O7 2.282763 1_455
Bi0 O53 2.282763 1_555
Bi1 O26 2.143416 1_555
Bi1 O8 2.336220 1_555
Bi1 O6 2.336220 1_555
Bi1 O11 2.376528 1_555
Bi1 O56 2.376528 1_555
Bi2 O25 2.167071 1_555
Bi2 O54 2.167071 1_555
Bi2 O13 2.282758 1_555
Bi2 O53 2.282763 1_555
Bi3 O34 2.167071 1_555
Bi3 O15 2.167071 1_555
Bi3 O71 2.282763 1_555
Bi3 O58 2.282763 1_555
Bi4 O20 2.167071 1_565
Bi4 O35 2.167071 1_565
Bi4 O71 2.282763 1_565
Bi4 O10 2.282763 1_555
Bi5 O58 2.143404 1_555
Bi5 O15 2.336208 1_555
Bi5 O21 2.336225 1_555
Bi5 O5 2.376525 1_555
Bi5 O45 2.376528 1_555
Bi6 O30 2.143416 1_555
Bi6 O39 2.336220 1_555
Bi6 O57 2.336220 1_655
Bi6 O31 2.376528 1_555
Bi6 O49 2.376528 1_655
Bi7 O50 2.167071 1_555
Bi7 O48 2.167071 1_555
Bi7 O32 2.282763 1_555
Bi7 O13 2.282775 1_555
Bi8 O32 2.143416 1_555
Bi8 O51 2.336220 1_555
Bi8 O50 2.336220 1_555
Bi8 O37 2.376528 1_555
Bi8 O52 2.376528 1_555
Bi9 O62 2.143416 1_555
Bi9 O56 2.336220 1_555
Bi9 O68 2.336220 1_554
Bi9 O16 2.376528 1_555
Bi9 O35 2.376528 1_554
Bi10 O71 2.143416 1_555
Bi10 O20 2.336220 1_555
Bi10 O34 2.336220 1_555
Bi10 O24 2.376528 1_555
Bi10 O68 2.376528 1_555
Bi11 O39 2.167071 1_555
Bi11 O21 2.167071 1_555
Bi11 O30 2.282763 1_555
Bi11 O58 2.282763 1_555
Bi12 O51 2.167071 1_545
Bi12 O29 2.167071 1_545
Bi12 O32 2.282763 1_545
Bi12 O7 2.282763 1_555
Bi13 O43 2.167071 1_655
Bi13 O41 2.167071 1_655
Bi13 O28 2.282763 1_655
Bi13 O3 2.282763 1_555
Bi14 O2 2.167071 1_545
Bi14 O44 2.167071 1_545
Bi14 O60 2.282758 1_545
Bi14 O46 2.282763 1_555
Bi15 O64 2.143392 1_555
Bi15 O16 2.336208 1_555
Bi15 O1 2.336225 1_555
Bi15 O47 2.376525 1_555
Bi15 O50 2.376528 1_555
Bi16 O8 2.167071 1_555
Bi16 O16 2.167071 1_555
Bi16 O26 2.282763 1_555
Bi16 O64 2.282775 1_555
Bi17 O33 2.167071 1_565
Bi17 O63 2.167071 1_565
Bi17 O65 2.282763 1_565
Bi17 O67 2.282763 1_555
Bi18 O38 2.143392 1_555
Bi18 O17 2.336208 1_555
Bi18 O0 2.336225 1_555
Bi18 O54 2.376525 1_555
Bi18 O9 2.376528 1_555
Bi19 O67 2.143416 1_555
Bi19 O37 2.336220 1_555
Bi19 O33 2.336220 1_565
Bi19 O48 2.376528 1_555
Bi19 O69 2.376528 1_565
Bi20 O14 2.167071 1_554
Bi20 O49 2.167071 1_554
Bi20 O40 2.282763 1_554
Bi20 O60 2.282775 1_555
Bi21 O59 2.143404 1_555
Bi21 O12 2.336208 1_555
Bi21 O5 2.336225 1_555
Bi21 O0 2.376525 1_555
Bi21 O34 2.376528 1_555
Bi22 O31 2.167071 1_555
Bi22 O45 2.167071 1_555
Bi22 O22 2.282763 1_555
Bi22 O61 2.282763 1_555
Bi23 O52 2.167071 1_556
Bi23 O23 2.167071 1_556
Bi23 O3 2.282763 1_556
Bi23 O55 2.282763 1_555
Bi24 O28 2.143416 1_555
Bi24 O70 2.336220 1_555
Bi24 O43 2.336220 1_555
Bi24 O25 2.376528 1_555
Bi24 O2 2.376528 1_555
Bi25 O7 2.143404 1_555
Bi25 O29 2.336208 1_545
Bi25 O36 2.336225 1_555
Bi25 O23 2.376525 1_545
Bi25 O6 2.376528 1_555
Bi26 O19 2.167071 1_554
Bi26 O68 2.167071 1_554
Bi26 O42 2.282758 1_554
Bi26 O62 2.282763 1_555
Bi27 O4 2.167071 1_655
Bi27 O57 2.167071 1_655
Bi27 O10 2.282763 1_655
Bi27 O30 2.282763 1_555
Bi28 O46 2.143416 1_555
Bi28 O24 2.336220 1_555
Bi28 O2 2.336220 1_545
Bi28 O41 2.376528 1_545
Bi28 O15 2.376528 1_555
Bi29 O42 2.143392 1_555
Bi29 O69 2.336208 1_455
Bi29 O19 2.336225 1_555
Bi29 O63 2.376525 1_455
Bi29 O20 2.376528 1_555
Bi30 O55 2.143416 1_555
Bi30 O27 2.336220 1_555
Bi30 O52 2.336220 1_556
Bi30 O12 2.376528 1_555
Bi30 O29 2.376528 1_556
Bi31 O6 2.167071 1_556
Bi31 O66 2.167071 1_556
Bi31 O26 2.282763 1_556
Bi31 O65 2.282763 1_555
Bi32 O5 2.167071 1_555
Bi32 O24 2.167071 1_555
Bi32 O46 2.282763 1_555
Bi32 O59 2.282763 1_555
Bi33 O27 2.167071 1_555
Bi33 O0 2.167071 1_555
Bi33 O38 2.282758 1_555
Bi33 O55 2.282763 1_555
Bi34 O53 2.143416 1_555
Bi34 O25 2.336220 1_555
Bi34 O11 2.336220 1_455
Bi34 O66 2.376528 1_455
Bi34 O17 2.376528 1_555
Bi35 O3 2.143404 1_555
Bi35 O41 2.336208 1_655
Bi35 O23 2.336225 1_555
Bi35 O44 2.376525 1_655
Bi35 O51 2.376528 1_555
Bi36 O61 2.143404 1_555
Bi36 O31 2.336208 1_555
Bi36 O47 2.336225 1_555
Bi36 O21 2.376525 1_555
Bi36 O8 2.376528 1_555
Bi37 O40 2.143416 1_555
Bi37 O14 2.336220 1_555
Bi37 O9 2.336220 1_555
Bi37 O27 2.376528 1_555
Bi37 O57 2.376528 1_555
Bi38 O37 2.167071 1_555
Bi38 O1 2.167071 1_555
Bi38 O64 2.282758 1_555
Bi38 O67 2.282763 1_555
Bi39 O13 2.143392 1_555
Bi39 O48 2.336208 1_555
Bi39 O54 2.336225 1_555
Bi39 O1 2.376525 1_555
Bi39 O70 2.376528 1_555
Bi40 O70 2.167071 1_555
Bi40 O17 2.167071 1_555
Bi40 O28 2.282763 1_555
Bi40 O38 2.282775 1_555
Bi41 O65 2.143404 1_555
Bi41 O66 2.336208 1_556
Bi41 O63 2.336225 1_555
Bi41 O36 2.376525 1_556
Bi41 O18 2.376528 1_555
Bi42 O18 2.167071 1_455
Bi42 O69 2.167071 1_455
Bi42 O22 2.282763 1_455
Bi42 O42 2.282775 1_555
Bi43 O12 2.167071 1_555
Bi43 O9 2.167071 1_555
Bi43 O40 2.282763 1_555
Bi43 O59 2.282763 1_555
Bi44 O22 2.143416 1_555
Bi44 O45 2.336220 1_555
Bi44 O18 2.336220 1_555
Bi44 O39 2.376528 1_555
Bi44 O33 2.376528 1_555
Bi45 O60 2.143392 1_555
Bi45 O49 2.336208 1_554
Bi45 O44 2.336225 1_555
Bi45 O4 2.376525 1_554
Bi45 O43 2.376528 1_555
Bi46 O47 2.167071 1_555
Bi46 O56 2.167071 1_555
Bi46 O62 2.282763 1_555
Bi46 O61 2.282763 1_555
Bi47 O10 2.143404 1_555
Bi47 O35 2.336208 1_565
Bi47 O4 2.336225 1_555
Bi47 O19 2.376525 1_565
Bi47 O14 2.376528 1_555
Br0 K5 3.790354 1_555
Br0 K3 3.790354 1_555
Br1 K7 3.790354 1_555
Br1 K1 3.790354 1_555
Br2 K3 3.790354 1_556
Br2 K5 3.790354 1_555
Br3 K4 3.790354 1_555
Br3 K6 3.790354 1_666
Br4 K0 3.790354 1_555
Br4 K2 3.790354 1_555
Br5 K4 3.790354 1_555
Br5 K6 3.790354 1_555
Br6 K1 3.790354 1_655
Br6 K7 3.790354 1_555
Br7 K0 3.790354 1_555
Br7 K2 3.790354 1_565
