# generated using pymatgen
data_Rb3PO4
_symmetry_space_group_name_H-M   'P 1'
_cell_length_a   6.16980084
_cell_length_b   8.43347446
_cell_length_c   11.68455447
_cell_angle_alpha   90.00000000
_cell_angle_beta   90.00000000
_cell_angle_gamma   90.00000000
_symmetry_Int_Tables_number   1
_chemical_formula_structural   Rb3PO4
_chemical_formula_sum   'Rb12 P4 O16'
_cell_volume   607.98076128
_cell_formula_units_Z   4
loop_
 _symmetry_equiv_pos_site_id
 _symmetry_equiv_pos_as_xyz
  1  'x, y, z'
loop_
 _atom_site_type_symbol
 _atom_site_label
 _atom_site_symmetry_multiplicity
 _atom_site_fract_x
 _atom_site_fract_y
 _atom_site_fract_z
 _atom_site_occupancy
  Rb  Rb0  1  0.13873648  0.25000000  0.07237150  1
  Rb  Rb1  1  0.69105517  0.49248355  0.14351172  1
  Rb  Rb2  1  0.86126352  0.75000000  0.92762850  1
  Rb  Rb3  1  0.19105517  0.50751645  0.35648828  1
  Rb  Rb4  1  0.69105517  0.00751645  0.14351172  1
  Rb  Rb5  1  0.19105517  0.99248355  0.35648828  1
  Rb  Rb6  1  0.63873648  0.75000000  0.42762850  1
  Rb  Rb7  1  0.30894483  0.99248355  0.85648828  1
  Rb  Rb8  1  0.30894483  0.50751645  0.85648828  1
  Rb  Rb9  1  0.80894483  0.00751645  0.64351172  1
  Rb  Rb10  1  0.80894483  0.49248355  0.64351172  1
  Rb  Rb11  1  0.36126352  0.25000000  0.57237150  1
  P  P0  1  0.77838994  0.25000000  0.38522536  1
  P  P1  1  0.27838994  0.75000000  0.11477464  1
  P  P2  1  0.22161006  0.75000000  0.61477464  1
  P  P3  1  0.72161006  0.25000000  0.88522536  1
  O  O0  1  0.36391877  0.59904561  0.60891528  1
  O  O1  1  0.41025342  0.75000000  0.22775701  1
  O  O2  1  0.86391877  0.40095439  0.89108472  1
  O  O3  1  0.13608123  0.90095439  0.10891528  1
  O  O4  1  0.86391877  0.09904561  0.89108472  1
  O  O5  1  0.55960492  0.25000000  0.98708520  1
  O  O6  1  0.05960492  0.75000000  0.51291480  1
  O  O7  1  0.94039508  0.25000000  0.48708520  1
  O  O8  1  0.63608123  0.09904561  0.39108472  1
  O  O9  1  0.36391877  0.90095439  0.60891528  1
  O  O10  1  0.44039508  0.75000000  0.01291480  1
  O  O11  1  0.63608123  0.40095439  0.39108472  1
  O  O12  1  0.08974658  0.75000000  0.72775701  1
  O  O13  1  0.91025342  0.25000000  0.27224299  1
  O  O14  1  0.58974658  0.25000000  0.77224299  1
  O  O15  1  0.13608123  0.59904561  0.10891528  1
loop_
_geom_bond_atom_site_label_1
_geom_bond_atom_site_label_2
_geom_bond_distance
_geom_bond_site_symmetry_2
O0 P2 1.548001 1_555
O0 Rb10 2.917198 1_555
O0 Rb11 2.974521 1_555
O0 Rb6 2.997111 1_555
O0 Rb8 3.013148 1_555
O0 Rb3 3.229995 1_555
O1 P1 1.550707 1_555
O1 Rb6 2.727889 1_555
O1 Rb3 2.876364 1_555
O1 Rb5 2.876364 1_555
O1 Rb4 2.947379 1_565
O1 Rb1 2.947379 1_555
O2 P3 1.548001 1_555
O2 Rb8 2.917198 1_655
O2 Rb2 2.974521 1_555
O2 Rb0 2.997111 1_656
O2 Rb10 3.013148 1_555
O2 Rb1 3.229995 1_556
O3 P1 1.548001 1_555
O3 Rb4 2.917198 1_465
O3 Rb0 2.974521 1_565
O3 Rb2 2.997111 1_454
O3 Rb5 3.013148 1_555
O3 Rb7 3.229995 1_554
O4 P3 1.548001 1_555
O4 Rb7 2.917198 1_645
O4 Rb2 2.974521 1_545
O4 Rb0 2.997111 1_656
O4 Rb9 3.013148 1_555
O4 Rb4 3.229995 1_556
O5 P3 1.554228 1_555
O5 Rb0 2.781330 1_556
O5 Rb4 2.860149 1_556
O5 Rb1 2.860149 1_556
O5 Rb8 3.071944 1_555
O5 Rb7 3.071944 1_545
O6 P2 1.554228 1_555
O6 Rb6 2.781330 1_455
O6 Rb5 2.860149 1_555
O6 Rb3 2.860149 1_555
O6 Rb10 3.071944 1_455
O6 Rb9 3.071944 1_465
O7 P0 1.554228 1_555
O7 Rb11 2.781330 1_655
O7 Rb10 2.860149 1_555
O7 Rb9 2.860149 1_555
O7 Rb3 3.071944 1_655
O7 Rb5 3.071944 1_645
O8 P0 1.548001 1_555
O8 Rb5 2.917198 1_545
O8 Rb6 2.974521 1_545
O8 Rb11 2.997111 1_555
O8 Rb4 3.013148 1_555
O8 Rb9 3.229995 1_555
O9 P2 1.548001 1_555
O9 Rb9 2.917198 1_565
O9 Rb11 2.974521 1_565
O9 Rb6 2.997111 1_555
O9 Rb7 3.013148 1_555
O9 Rb5 3.229995 1_555
O10 P1 1.554228 1_555
O10 Rb2 2.781330 1_554
O10 Rb7 2.860149 1_554
O10 Rb8 2.860149 1_554
O10 Rb4 3.071944 1_565
O10 Rb1 3.071944 1_555
O11 P0 1.548001 1_555
O11 Rb3 2.917198 1_555
O11 Rb6 2.974521 1_555
O11 Rb11 2.997111 1_555
O11 Rb1 3.013148 1_555
O11 Rb10 3.229995 1_555
O12 P2 1.550707 1_555
O12 Rb2 2.727889 1_455
O12 Rb8 2.876364 1_555
O12 Rb7 2.876364 1_555
O12 Rb10 2.947379 1_455
O12 Rb9 2.947379 1_465
O13 P0 1.550707 1_555
O13 Rb0 2.727889 1_655
O13 Rb1 2.876364 1_555
O13 Rb4 2.876364 1_555
O13 Rb5 2.947379 1_645
O13 Rb3 2.947379 1_655
O14 P3 1.550707 1_555
O14 Rb11 2.727889 1_555
O14 Rb10 2.876364 1_555
O14 Rb9 2.876364 1_555
O14 Rb8 2.947379 1_555
O14 Rb7 2.947379 1_545
O15 P1 1.548001 1_555
O15 Rb1 2.917198 1_455
O15 Rb0 2.974521 1_555
O15 Rb2 2.997111 1_454
O15 Rb3 3.013148 1_555
O15 Rb8 3.229995 1_554
