# generated using pymatgen
data_Li3CrP2O9
_symmetry_space_group_name_H-M   'P 1'
_cell_length_a   6.84060100
_cell_length_b   7.13406946
_cell_length_c   8.00594696
_cell_angle_alpha   88.99659166
_cell_angle_beta   115.22790425
_cell_angle_gamma   92.76082021
_symmetry_Int_Tables_number   1
_chemical_formula_structural   Li3CrP2O9
_chemical_formula_sum   'Li6 Cr2 P4 O18'
_cell_volume   353.02339634
_cell_formula_units_Z   2
loop_
 _symmetry_equiv_pos_site_id
 _symmetry_equiv_pos_as_xyz
  1  'x, y, z'
loop_
 _atom_site_type_symbol
 _atom_site_label
 _atom_site_symmetry_multiplicity
 _atom_site_fract_x
 _atom_site_fract_y
 _atom_site_fract_z
 _atom_site_occupancy
  Li  Li0  1  0.91766500  0.75842100  0.80559700  1
  Li  Li1  1  0.99996200  0.50013000  0.50191400  1
  Li  Li2  1  0.37985900  0.30706200  0.74850100  1
  Li  Li3  1  0.60354400  0.69161500  0.25003800  1
  Li  Li4  1  0.75574300  0.99663200  0.00285300  1
  Li  Li5  1  0.12149900  0.24427900  0.19581900  1
  Cr  Cr0  1  0.00356600  0.99510000  0.50615200  1
  Cr  Cr1  1  0.49785700  0.00257100  0.49730400  1
  P  P0  1  0.87588900  0.29325000  0.74889900  1
  P  P1  1  0.39175600  0.75660500  0.79475900  1
  P  P2  1  0.61609400  0.24069500  0.20449700  1
  P  P3  1  0.11309200  0.70719100  0.25072400  1
  O  O0  1  0.88755300  0.50527300  0.74054900  1
  O  O1  1  0.35787600  0.78431500  0.34494800  1
  O  O2  1  0.81983500  0.11572500  0.26332700  1
  O  O3  1  0.22475700  0.08975500  0.47474700  1
  O  O4  1  0.76781900  0.91391400  0.52259900  1
  O  O5  1  0.62950900  0.22212100  0.64144000  1
  O  O6  1  0.54971000  0.86916900  0.72468800  1
  O  O7  1  0.32782300  0.56449400  0.70406400  1
  O  O8  1  0.51143500  0.23775000  0.99613000  1
  O  O9  1  0.00953000  0.22973600  0.64003900  1
  O  O10  1  0.99282500  0.76325300  0.37289800  1
  O  O11  1  0.45064600  0.14546400  0.27469900  1
  O  O12  1  0.17948400  0.87179300  0.73536500  1
  O  O13  1  0.11443300  0.49507300  0.25833100  1
  O  O14  1  0.00467800  0.79949900  0.06273600  1
  O  O15  1  0.68141400  0.43421800  0.29615900  1
  O  O16  1  0.51462500  0.76419000  0.00302200  1
  O  O17  1  0.94904800  0.20071000  0.93720600  1
loop_
_geom_bond_atom_site_label_1
_geom_bond_atom_site_label_2
_geom_bond_distance
_geom_bond_site_symmetry_2
Li0 O0 1.865701 1_555
Li0 O14 1.907345 1_656
Li0 O12 2.209288 1_655
Li0 O4 2.335873 1_555
Li0 O6 2.482558 1_555
Li1 O10 2.119160 1_555
Li1 O15 2.133422 1_555
Li1 O7 2.166285 1_655
Li1 O9 2.196351 1_655
Li1 O0 2.345228 1_555
Li1 O13 2.392551 1_655
Li2 O8 1.863440 1_555
Li2 O7 1.886342 1_555
Li2 O5 2.320334 1_555
Li2 O9 2.341540 1_555
Li2 O3 2.512130 1_555
Li3 O16 1.875640 1_555
Li3 O15 1.922201 1_555
Li3 O1 2.247671 1_555
Li3 O10 2.444082 1_555
Li3 O4 2.529564 1_555
Li4 O2 2.123564 1_565
Li4 O17 2.127106 1_564
Li4 O14 2.149095 1_655
Li4 O6 2.246020 1_554
Li4 O16 2.282248 1_555
Li4 O8 2.439629 1_564
Li5 O13 1.874644 1_555
Li5 O17 1.918371 1_454
Li5 O11 2.211457 1_555
Li5 O3 2.311937 1_555
Li5 O2 2.478413 1_455
Cr0 O3 1.740270 1_565
Cr0 O4 1.744076 1_455
Cr0 O12 1.937124 1_555
Cr0 O10 1.965336 1_455
Cr0 O9 1.992881 1_565
Cr0 O2 2.015508 1_465
Cr1 O5 1.907204 1_555
Cr1 O4 1.908035 1_545
Cr1 O3 1.931303 1_555
Cr1 O1 1.938138 1_545
Cr1 O6 1.940850 1_545
Cr1 O11 1.948605 1_555
O0 P0 1.512658 1_555
O1 P3 1.588917 1_555
O2 P2 1.582575 1_555
O5 P0 1.592187 1_555
O6 P1 1.595115 1_555
O7 P1 1.517651 1_555
O8 P2 1.509145 1_556
O9 P0 1.591701 1_455
O10 P3 1.588982 1_655
O11 P2 1.585282 1_555
O12 P1 1.588263 1_555
O13 P3 1.513736 1_555
O14 P3 1.519748 1_555
O15 P2 1.529965 1_555
O16 P1 1.514453 1_554
O17 P0 1.520827 1_555
