# generated using pymatgen
data_GeI2
_symmetry_space_group_name_H-M   'P 1'
_cell_length_a   4.16136988
_cell_length_b   4.16136988
_cell_length_c   8.56421200
_cell_angle_alpha   90.00000000
_cell_angle_beta   90.00000000
_cell_angle_gamma   119.99999815
_symmetry_Int_Tables_number   1
_chemical_formula_structural   GeI2
_chemical_formula_sum   'Ge1 I2'
_cell_volume   128.43715847
_cell_formula_units_Z   1
loop_
 _symmetry_equiv_pos_site_id
 _symmetry_equiv_pos_as_xyz
  1  'x, y, z'
loop_
 _atom_site_type_symbol
 _atom_site_label
 _atom_site_symmetry_multiplicity
 _atom_site_fract_x
 _atom_site_fract_y
 _atom_site_fract_z
 _atom_site_occupancy
  Ge  Ge0  1  0.00000000  0.00000000  0.00000000  1
  I  I0  1  0.33333300  0.66666700  0.22407200  1
  I  I1  1  0.33333300  0.66666700  0.77592800  1
loop_
_geom_bond_atom_site_label_1
_geom_bond_atom_site_label_2
_geom_bond_distance
_geom_bond_site_symmetry_2
Ge0 I0 3.074879 1_545
Ge0 I1 3.074879 1_544
Ge0 I1 3.074882 1_444
Ge0 I0 3.074882 1_555
Ge0 I1 3.074882 1_554
Ge0 I0 3.074882 1_445
