# generated using pymatgen
data_BaYbSn3
_symmetry_space_group_name_H-M   'P 1'
_cell_length_a   9.32101969
_cell_length_b   9.32101969
_cell_length_c   17.42966800
_cell_angle_alpha   90.00000000
_cell_angle_beta   90.00000000
_cell_angle_gamma   118.72953051
_symmetry_Int_Tables_number   1
_chemical_formula_structural   BaYbSn3
_chemical_formula_sum   'Ba8 Yb8 Sn24'
_cell_volume   1327.89981798
_cell_formula_units_Z   8
loop_
 _symmetry_equiv_pos_site_id
 _symmetry_equiv_pos_as_xyz
  1  'x, y, z'
loop_
 _atom_site_type_symbol
 _atom_site_label
 _atom_site_symmetry_multiplicity
 _atom_site_fract_x
 _atom_site_fract_y
 _atom_site_fract_z
 _atom_site_occupancy
  Ba  Ba0  1  0.21568700  0.78431300  0.00000000  1
  Ba  Ba1  1  0.78431300  0.21568700  0.00000000  1
  Ba  Ba2  1  0.32492000  0.32492000  0.91390300  1
  Ba  Ba3  1  0.71568700  0.28431300  0.50000000  1
  Ba  Ba4  1  0.67508000  0.67508000  0.08609700  1
  Ba  Ba5  1  0.28431300  0.71568700  0.50000000  1
  Ba  Ba6  1  0.82492000  0.82492000  0.58609700  1
  Ba  Ba7  1  0.17508000  0.17508000  0.41390300  1
  Yb  Yb0  1  0.62232400  0.35370400  0.72750500  1
  Yb  Yb1  1  0.85370400  0.12232400  0.77249500  1
  Yb  Yb2  1  0.35370400  0.62232300  0.72750500  1
  Yb  Yb3  1  0.12232300  0.85370400  0.77249500  1
  Yb  Yb4  1  0.87767700  0.14629600  0.22750500  1
  Yb  Yb5  1  0.14629600  0.87767600  0.22750500  1
  Yb  Yb6  1  0.64629600  0.37767700  0.27249500  1
  Yb  Yb7  1  0.37767700  0.64629600  0.27249500  1
  Sn  Sn0  1  0.43439600  0.19753600  0.09295600  1
  Sn  Sn1  1  0.45811300  0.01237700  0.33561900  1
  Sn  Sn2  1  0.95811300  0.51237700  0.16438100  1
  Sn  Sn3  1  0.21828500  0.21828500  0.72030400  1
  Sn  Sn4  1  0.93512500  0.93512500  0.91361800  1
  Sn  Sn5  1  0.48762300  0.04188700  0.83561900  1
  Sn  Sn6  1  0.51237700  0.95811300  0.16438100  1
  Sn  Sn7  1  0.04188700  0.48762300  0.83561900  1
  Sn  Sn8  1  0.06487500  0.06487500  0.08638200  1
  Sn  Sn9  1  0.78171500  0.78171500  0.27969600  1
  Sn  Sn10  1  0.93439600  0.69753600  0.40704400  1
  Sn  Sn11  1  0.69753600  0.93439600  0.40704400  1
  Sn  Sn12  1  0.71828500  0.71828500  0.77969600  1
  Sn  Sn13  1  0.56560400  0.80246400  0.90704400  1
  Sn  Sn14  1  0.56487500  0.56487500  0.41361800  1
  Sn  Sn15  1  0.06560400  0.30246400  0.59295600  1
  Sn  Sn16  1  0.80246400  0.56560400  0.90704400  1
  Sn  Sn17  1  0.30246400  0.06560400  0.59295600  1
  Sn  Sn18  1  0.54188700  0.98762300  0.66438100  1
  Sn  Sn19  1  0.01237700  0.45811300  0.33561900  1
  Sn  Sn20  1  0.43512500  0.43512500  0.58638200  1
  Sn  Sn21  1  0.98762300  0.54188700  0.66438100  1
  Sn  Sn22  1  0.28171500  0.28171500  0.22030400  1
  Sn  Sn23  1  0.19753600  0.43439600  0.09295600  1
loop_
_geom_bond_atom_site_label_1
_geom_bond_atom_site_label_2
_geom_bond_distance
_geom_bond_site_symmetry_2
Ba0 Sn23 3.572266 1_555
Ba0 Sn13 3.572266 1_554
Ba0 Sn0 3.750689 1_565
Ba0 Sn16 3.750689 1_454
Ba0 Sn6 3.764847 1_555
Ba0 Sn7 3.764847 1_554
Ba0 Sn5 3.814111 1_564
Ba0 Sn2 3.814111 1_455
Ba0 Sn4 3.823067 1_454
Ba0 Sn8 3.823067 1_565
Ba1 Sn0 3.572266 1_555
Ba1 Sn16 3.572266 1_554
Ba1 Sn23 3.750689 1_655
Ba1 Sn13 3.750689 1_544
Ba1 Sn2 3.764847 1_555
Ba1 Sn5 3.764847 1_554
Ba1 Sn7 3.814111 1_654
Ba1 Sn6 3.814111 1_545
Ba1 Sn4 3.823067 1_544
Ba1 Sn8 3.823067 1_655
Ba2 Sn3 3.523132 1_555
Ba2 Sn0 3.654511 1_556
Ba2 Sn23 3.654511 1_556
Ba2 Sn4 3.702836 1_445
Ba2 Sn7 3.868832 1_555
Ba2 Sn5 3.868832 1_555
Ba2 Sn8 3.890994 1_556
Ba2 Sn16 3.906459 1_555
Ba2 Sn13 3.906459 1_555
Ba3 Sn11 3.572266 1_545
Ba3 Sn15 3.572266 1_655
Ba3 Sn17 3.750689 1_555
Ba3 Sn10 3.750689 1_555
Ba3 Sn18 3.764847 1_545
Ba3 Sn19 3.764847 1_655
Ba3 Sn1 3.814111 1_555
Ba3 Sn21 3.814111 1_555
Ba3 Sn20 3.823067 1_555
Ba3 Sn14 3.823067 1_555
Ba4 Sn9 3.523132 1_555
Ba4 Sn13 3.654511 1_554
Ba4 Sn16 3.654511 1_554
Ba4 Sn8 3.702836 1_665
Ba4 Sn2 3.868832 1_555
Ba4 Sn6 3.868832 1_555
Ba4 Sn4 3.890994 1_554
Ba4 Sn23 3.906459 1_555
Ba4 Sn0 3.906459 1_555
Ba5 Sn10 3.572266 1_455
Ba5 Sn17 3.572266 1_565
Ba5 Sn15 3.750689 1_555
Ba5 Sn11 3.750689 1_555
Ba5 Sn21 3.764847 1_455
Ba5 Sn1 3.764847 1_565
Ba5 Sn19 3.814111 1_555
Ba5 Sn18 3.814111 1_555
Ba5 Sn20 3.823067 1_555
Ba5 Sn14 3.823067 1_555
Ba6 Sn12 3.523132 1_555
Ba6 Sn10 3.654511 1_555
Ba6 Sn11 3.654511 1_555
Ba6 Sn20 3.702836 1_555
Ba6 Sn18 3.868832 1_555
Ba6 Sn21 3.868832 1_555
Ba6 Sn14 3.890994 1_555
Ba6 Sn15 3.906459 1_665
Ba6 Sn17 3.906459 1_665
Ba7 Sn22 3.523132 1_555
Ba7 Sn15 3.654511 1_555
Ba7 Sn17 3.654511 1_555
Ba7 Sn14 3.702836 1_555
Ba7 Sn19 3.868832 1_555
Ba7 Sn1 3.868832 1_555
Ba7 Sn20 3.890994 1_555
Ba7 Sn10 3.906459 1_445
Ba7 Sn11 3.906459 1_445
Sn0 Sn6 2.935625 1_545
Sn0 Sn22 2.939600 1_555
Sn0 Sn8 3.051398 1_555
Sn0 Yb6 3.650313 1_555
Sn0 Yb5 3.728678 1_545
Sn1 Sn11 2.935625 1_545
Sn1 Sn6 3.108949 1_545
Sn1 Yb5 3.172797 1_545
Sn1 Yb6 3.184236 1_555
Sn1 Yb7 3.310079 1_545
Sn2 Sn23 2.935625 1_655
Sn2 Yb6 3.172798 1_555
Sn2 Yb5 3.184228 1_655
Sn2 Yb4 3.310079 1_555
Sn3 Yb3 3.202130 1_545
Sn3 Yb1 3.202132 1_455
Sn3 Yb2 3.349951 1_555
Sn3 Yb0 3.349960 1_555
Sn4 Sn8 3.253709 1_666
Sn4 Yb3 3.308153 1_655
Sn4 Yb1 3.308158 1_565
Sn5 Yb0 3.172797 1_555
Sn5 Yb3 3.184236 1_545
Sn5 Yb1 3.310076 1_555
Sn6 Yb7 3.172798 1_555
Sn6 Yb4 3.184236 1_565
Sn6 Yb5 3.310076 1_555
Sn7 Yb2 3.172798 1_555
Sn7 Yb1 3.184228 1_455
Sn7 Yb3 3.310079 1_555
Sn8 Yb4 3.308153 1_455
Sn8 Yb5 3.308158 1_545
Sn9 Yb4 3.202130 1_565
Sn9 Yb5 3.202132 1_655
Sn9 Yb7 3.349951 1_555
Sn9 Yb6 3.349951 1_555
Sn10 Sn19 2.935625 1_655
Sn10 Sn9 2.939600 1_555
Sn10 Sn14 3.051398 1_555
Sn10 Yb5 3.650311 1_655
Sn10 Yb6 3.728674 1_555
Sn11 Sn9 2.939600 1_555
Sn11 Sn14 3.051398 1_555
Sn11 Yb4 3.650313 1_565
Sn11 Yb7 3.728674 1_555
Sn12 Sn16 2.939600 1_555
Sn12 Sn13 2.939600 1_555
Sn12 Sn4 3.113130 1_555
Sn12 Yb2 3.202130 1_555
Sn12 Yb0 3.202132 1_555
Sn12 Yb3 3.349951 1_655
Sn12 Yb1 3.349960 1_565
Sn13 Sn5 2.935625 1_565
Sn13 Sn4 3.051398 1_555
Sn13 Yb2 3.650313 1_555
Sn13 Yb1 3.728678 1_565
Sn14 Sn9 3.113130 1_555
Sn14 Sn20 3.253709 1_555
Sn14 Yb6 3.308153 1_555
Sn14 Yb7 3.308153 1_555
Sn15 Sn21 2.935625 1_455
Sn15 Sn3 2.939600 1_555
Sn15 Sn20 3.051398 1_555
Sn15 Yb1 3.650311 1_455
Sn15 Yb2 3.728674 1_555
Sn16 Sn7 2.935625 1_655
Sn16 Sn4 3.051398 1_555
Sn16 Yb0 3.650311 1_555
Sn16 Yb3 3.728674 1_655
Sn17 Sn18 2.935625 1_545
Sn17 Sn3 2.939600 1_555
Sn17 Sn20 3.051398 1_555
Sn17 Yb3 3.650313 1_545
Sn17 Yb0 3.728678 1_555
Sn18 Sn5 3.108949 1_565
Sn18 Yb1 3.172797 1_565
Sn18 Yb2 3.184236 1_555
Sn18 Yb0 3.310076 1_565
Sn19 Sn2 3.108949 1_455
Sn19 Yb4 3.172798 1_455
Sn19 Yb7 3.184236 1_555
Sn19 Yb6 3.310079 1_455
Sn20 Sn3 3.113130 1_555
Sn20 Yb2 3.308153 1_555
Sn20 Yb0 3.308158 1_555
Sn21 Sn7 3.108949 1_655
Sn21 Yb3 3.172798 1_655
Sn21 Yb0 3.184228 1_555
Sn21 Yb2 3.310079 1_655
Sn22 Sn23 2.939600 1_555
Sn22 Sn8 3.113130 1_555
Sn22 Yb6 3.202130 1_555
Sn22 Yb7 3.202130 1_555
Sn22 Yb4 3.349951 1_455
Sn22 Yb5 3.349960 1_545
Sn23 Sn8 3.051398 1_555
Sn23 Yb7 3.650313 1_555
Sn23 Yb4 3.728674 1_455
