# generated using pymatgen
data_Cs2CrH2Cl5O
_symmetry_space_group_name_H-M   'P 1'
_cell_length_a   8.16350907
_cell_length_b   14.41974174
_cell_length_c   9.76755792
_cell_angle_alpha   73.86882919
_cell_angle_beta   89.98958859
_cell_angle_gamma   89.98635415
_symmetry_Int_Tables_number   1
_chemical_formula_structural   Cs2CrH2Cl5O
_chemical_formula_sum   'Cs8 Cr4 H8 Cl20 O4'
_cell_volume   1104.52524802
_cell_formula_units_Z   4
loop_
 _symmetry_equiv_pos_site_id
 _symmetry_equiv_pos_as_xyz
  1  'x, y, z'
loop_
 _atom_site_type_symbol
 _atom_site_label
 _atom_site_symmetry_multiplicity
 _atom_site_fract_x
 _atom_site_fract_y
 _atom_site_fract_z
 _atom_site_occupancy
  Cs  Cs0  1  0.75001900  0.76393800  0.29145600  1
  Cs  Cs1  1  0.75001300  0.26388300  0.79142200  1
  Cs  Cs2  1  0.25000300  0.23595600  0.70875300  1
  Cs  Cs3  1  0.24999100  0.73600800  0.20864800  1
  Cs  Cs4  1  0.25000800  0.87483800  0.62586500  1
  Cs  Cs5  1  0.24999800  0.37480800  0.12595300  1
  Cs  Cs6  1  0.75001300  0.12523500  0.37405400  1
  Cs  Cs7  1  0.75000200  0.62517900  0.87413100  1
  Cr  Cr0  1  0.74996000  0.44320000  0.33010100  1
  Cr  Cr1  1  0.25020400  0.05700800  0.16990800  1
  Cr  Cr2  1  0.74995500  0.94332400  0.82944200  1
  Cr  Cr3  1  0.24989500  0.55661800  0.67038100  1
  H  H0  1  0.65195200  0.01782000  0.05300300  1
  H  H1  1  0.65188200  0.51814900  0.55317100  1
  H  H2  1  0.34801100  0.98139400  0.94740300  1
  H  H3  1  0.34805700  0.48185400  0.44724200  1
  H  H4  1  0.15197300  0.98145900  0.94748700  1
  H  H5  1  0.15194300  0.48185800  0.44719900  1
  H  H6  1  0.84801700  0.01779800  0.05299500  1
  H  H7  1  0.84795500  0.51811300  0.55310000  1
  Cl  Cl0  1  0.75005700  0.87841100  0.63470400  1
  Cl  Cl1  1  0.74991500  0.37856500  0.13521500  1
  Cl  Cl2  1  0.25016900  0.12155600  0.36490500  1
  Cl  Cl3  1  0.24997100  0.62151400  0.86515400  1
  Cl  Cl4  1  0.54044500  0.05659900  0.72506400  1
  Cl  Cl5  1  0.54024700  0.55658500  0.22580700  1
  Cl  Cl6  1  0.46016100  0.66546000  0.55297100  1
  Cl  Cl7  1  0.46029900  0.16570100  0.05280200  1
  Cl  Cl8  1  0.04041800  0.94363800  0.27408000  1
  Cl  Cl9  1  0.04026900  0.44343400  0.77457400  1
  Cl  Cl10  1  0.96016800  0.33448500  0.44723600  1
  Cl  Cl11  1  0.96037000  0.83464700  0.94689200  1
  Cl  Cl12  1  0.45981500  0.94357800  0.27409500  1
  Cl  Cl13  1  0.45968600  0.44345600  0.77456400  1
  Cl  Cl14  1  0.53972000  0.33447800  0.44721800  1
  Cl  Cl15  1  0.53968900  0.83466100  0.94688900  1
  Cl  Cl16  1  0.95957500  0.05660300  0.72509400  1
  Cl  Cl17  1  0.95961800  0.55655300  0.22584300  1
  Cl  Cl18  1  0.03973800  0.66548800  0.55297400  1
  Cl  Cl19  1  0.03993500  0.16571100  0.05281600  1
  O  O0  1  0.74995900  0.00129400  0.00650800  1
  O  O1  1  0.74989300  0.50070200  0.50759100  1
  O  O2  1  0.25004500  0.99948600  0.99230200  1
  O  O3  1  0.24998800  0.49895400  0.49298200  1
loop_
_geom_bond_atom_site_label_1
_geom_bond_atom_site_label_2
_geom_bond_distance
_geom_bond_site_symmetry_2
Cr0 O1 2.119387 1_555
Cr1 O2 2.120616 1_544
Cr2 O0 2.119734 1_566
Cr3 O3 2.120009 1_555
H0 O0 0.981364 1_555
H1 O1 0.981680 1_555
H2 O2 0.981494 1_555
H3 O3 0.980986 1_555
H4 O2 0.981639 1_555
H5 O3 0.981253 1_555
H6 O0 0.981772 1_555
H7 O1 0.981687 1_555
Cl0 Cr2 2.341694 1_555
Cl0 Cs7 3.749355 1_555
Cl0 Cs6 3.756865 1_565
Cl0 Cs4 4.082867 1_655
Cl0 Cs4 4.083723 1_555
Cl1 Cr0 2.340525 1_555
Cl1 Cs6 3.748463 1_555
Cl1 Cs7 3.756328 1_554
Cl1 Cs5 4.082802 1_555
Cl1 Cs5 4.084098 1_655
Cl2 Cr1 2.340744 1_555
Cl2 Cs5 3.747950 1_555
Cl2 Cs4 3.756962 1_545
Cl2 Cs6 4.082156 1_555
Cl2 Cs6 4.084644 1_455
Cl3 Cr3 2.341857 1_555
Cl3 Cs4 3.749941 1_555
Cl3 Cs5 3.756177 1_556
Cl3 Cs7 4.083072 1_455
Cl3 Cs7 4.083635 1_555
Cl4 Cr2 2.388850 1_545
Cl4 Cs2 3.479117 1_555
Cl4 Cs1 3.655181 1_555
Cl4 Cs6 3.711364 1_555
Cl4 Cs4 3.852882 1_545
Cl5 Cr0 2.390739 1_555
Cl5 Cs3 3.477456 1_555
Cl5 Cs0 3.654028 1_555
Cl5 Cs7 3.717590 1_554
Cl5 Cs5 3.854935 1_555
Cl6 Cr3 2.392746 1_555
Cl6 Cs0 3.481990 1_555
Cl6 Cs3 3.659205 1_555
Cl6 Cs4 3.709069 1_555
Cl6 Cs7 3.842644 1_555
Cl7 Cr1 2.389740 1_555
Cl7 Cs1 3.479503 1_554
Cl7 Cs2 3.657341 1_554
Cl7 Cs5 3.707290 1_555
Cl7 Cs6 3.842500 1_555
Cl8 Cr1 2.391055 1_565
Cl8 Cs0 3.481633 1_455
Cl8 Cs3 3.655102 1_555
Cl8 Cs4 3.718261 1_555
Cl8 Cs6 3.853303 1_465
Cl9 Cr3 2.388651 1_555
Cl9 Cs1 3.480087 1_455
Cl9 Cs2 3.655346 1_555
Cl9 Cs5 3.715389 1_556
Cl9 Cs7 3.852412 1_455
Cl10 Cr0 2.390415 1_555
Cl10 Cs2 3.482195 1_655
Cl10 Cs1 3.657693 1_555
Cl10 Cs6 3.709438 1_555
Cl10 Cs5 3.842942 1_655
Cl11 Cr2 2.392256 1_555
Cl11 Cs3 3.482781 1_656
Cl11 Cs0 3.661587 1_556
Cl11 Cs7 3.711249 1_555
Cl11 Cs4 3.840184 1_655
Cl12 Cr1 2.390263 1_565
Cl12 Cs0 3.479141 1_555
Cl12 Cs3 3.656147 1_555
Cl12 Cs4 3.718586 1_555
Cl12 Cs6 3.853834 1_565
Cl13 Cr3 2.389122 1_555
Cl13 Cs1 3.479898 1_555
Cl13 Cs2 3.656164 1_555
Cl13 Cs5 3.714963 1_556
Cl13 Cs7 3.853448 1_555
Cl14 Cr0 2.390841 1_555
Cl14 Cs2 3.481458 1_555
Cl14 Cs1 3.658713 1_555
Cl14 Cs6 3.709013 1_555
Cl14 Cs5 3.842787 1_555
Cl15 Cr2 2.391505 1_555
Cl15 Cs3 3.483096 1_556
Cl15 Cs0 3.661881 1_556
Cl15 Cs7 3.710418 1_555
Cl15 Cs4 3.840925 1_555
Cl16 Cr2 2.389748 1_545
Cl16 Cs2 3.479750 1_655
Cl16 Cs1 3.654213 1_555
Cl16 Cs6 3.711947 1_555
Cl16 Cs4 3.852049 1_645
Cl17 Cr0 2.390366 1_555
Cl17 Cs3 3.479187 1_655
Cl17 Cs0 3.652849 1_555
Cl17 Cs7 3.717728 1_554
Cl17 Cs5 3.854416 1_655
Cl18 Cr3 2.392073 1_555
Cl18 Cs0 3.481326 1_455
Cl18 Cs3 3.659192 1_555
Cl18 Cs4 3.709933 1_555
Cl18 Cs7 3.841531 1_455
Cl19 Cr1 2.390557 1_555
Cl19 Cs1 3.480886 1_454
Cl19 Cs2 3.656233 1_554
Cl19 Cs5 3.706993 1_555
Cl19 Cs6 3.842898 1_455
