# generated using pymatgen
data_Te2Pb3(ClO3)2
_symmetry_space_group_name_H-M   'P 1'
_cell_length_a   8.85999289
_cell_length_b   8.85999289
_cell_length_c   11.10909969
_cell_angle_alpha   76.86140857
_cell_angle_beta   76.86140857
_cell_angle_gamma   37.57313010
_symmetry_Int_Tables_number   1
_chemical_formula_structural   Te2Pb3(ClO3)2
_chemical_formula_sum   'Te4 Pb6 Cl4 O12'
_cell_volume   516.20346843
_cell_formula_units_Z   2
loop_
 _symmetry_equiv_pos_site_id
 _symmetry_equiv_pos_as_xyz
  1  'x, y, z'
loop_
 _atom_site_type_symbol
 _atom_site_label
 _atom_site_symmetry_multiplicity
 _atom_site_fract_x
 _atom_site_fract_y
 _atom_site_fract_z
 _atom_site_occupancy
  Te  Te0  1  0.39738900  0.39738900  0.05235300  1
  Te  Te1  1  0.87169300  0.87169300  0.59313900  1
  Te  Te2  1  0.12830700  0.12830700  0.40686100  1
  Te  Te3  1  0.60261100  0.60261100  0.94764700  1
  Pb  Pb0  1  0.66196500  0.66196500  0.60744900  1
  Pb  Pb1  1  0.73884000  0.73884000  0.20254200  1
  Pb  Pb2  1  0.33803500  0.33803500  0.39255100  1
  Pb  Pb3  1  0.97893400  0.97893400  0.19989000  1
  Pb  Pb4  1  0.02106600  0.02106600  0.80011000  1
  Pb  Pb5  1  0.26116000  0.26116000  0.79745800  1
  Cl  Cl0  1  0.18276500  0.18276500  0.09987100  1
  Cl  Cl1  1  0.54121500  0.54121500  0.29898400  1
  Cl  Cl2  1  0.45878500  0.45878500  0.70101600  1
  Cl  Cl3  1  0.81723500  0.81723500  0.90012900  1
  O  O0  1  0.54972300  0.03077600  0.61486800  1
  O  O1  1  0.89565300  0.89565300  0.41846600  1
  O  O2  1  0.39821100  0.86624600  0.81521500  1
  O  O3  1  0.45027700  0.96922400  0.38513200  1
  O  O4  1  0.13375400  0.60178900  0.18478500  1
  O  O5  1  0.03077600  0.54972300  0.61486800  1
  O  O6  1  0.86624600  0.39821100  0.81521500  1
  O  O7  1  0.60178900  0.13375400  0.18478500  1
  O  O8  1  0.28449200  0.71550800  0.00000000  1
  O  O9  1  0.10434800  0.10434700  0.58153400  1
  O  O10  1  0.96922400  0.45027700  0.38513200  1
  O  O11  1  0.71550800  0.28449200  0.00000000  1
loop_
_geom_bond_atom_site_label_1
_geom_bond_atom_site_label_2
_geom_bond_distance
_geom_bond_site_symmetry_2
O0 Te1 1.910669 1_545
O0 Pb5 2.463692 1_555
O0 Pb0 2.570502 1_545
O0 Pb2 2.825607 1_555
O1 Te1 1.884784 1_555
O1 Pb3 2.493784 1_555
O2 Te3 1.960537 1_555
O2 Pb4 2.441313 1_565
O2 Pb0 2.608959 1_555
O2 Pb5 2.610798 1_565
O3 Te2 1.910669 1_565
O3 Pb1 2.463692 1_555
O3 Pb2 2.570502 1_565
O3 Pb0 2.825607 1_555
O4 Te0 1.960537 1_555
O4 Pb3 2.441313 1_455
O4 Pb2 2.608959 1_555
O4 Pb1 2.610798 1_455
O5 Te1 1.910669 1_455
O5 Pb5 2.463692 1_555
O5 Pb0 2.570502 1_455
O5 Pb2 2.825607 1_555
O6 Te3 1.960537 1_555
O6 Pb4 2.441313 1_655
O6 Pb0 2.608959 1_555
O6 Pb5 2.610798 1_655
O7 Te0 1.960537 1_555
O7 Pb3 2.441313 1_545
O7 Pb2 2.608959 1_555
O7 Pb1 2.610798 1_545
O8 Te3 2.081626 1_554
O8 Te0 2.081626 1_555
O8 Pb3 2.704591 1_455
O8 Pb4 2.704591 1_564
O9 Te2 1.884784 1_555
O9 Pb4 2.493787 1_555
O10 Te2 1.910669 1_655
O10 Pb1 2.463692 1_555
O10 Pb2 2.570502 1_655
O10 Pb0 2.825607 1_555
O11 Te3 2.081626 1_554
O11 Te0 2.081626 1_555
O11 Pb3 2.704591 1_545
O11 Pb4 2.704591 1_654
