# generated using pymatgen
data_Tl(CuSe)2
_symmetry_space_group_name_H-M   'P 1'
_cell_length_a   3.84367366
_cell_length_b   3.84367367
_cell_length_c   7.65656762
_cell_angle_alpha   104.53699238
_cell_angle_beta   104.53699570
_cell_angle_gamma   89.99998290
_symmetry_Int_Tables_number   1
_chemical_formula_structural   Tl(CuSe)2
_chemical_formula_sum   'Tl1 Cu2 Se2'
_cell_volume   105.75017781
_cell_formula_units_Z   1
loop_
 _symmetry_equiv_pos_site_id
 _symmetry_equiv_pos_as_xyz
  1  'x, y, z'
loop_
 _atom_site_type_symbol
 _atom_site_label
 _atom_site_symmetry_multiplicity
 _atom_site_fract_x
 _atom_site_fract_y
 _atom_site_fract_z
 _atom_site_occupancy
  Tl  Tl0  1  -0.00000000  0.00000000  -0.00000000  1
  Cu  Cu0  1  0.25000000  0.75000000  0.50000000  1
  Cu  Cu1  1  0.75000000  0.25000000  0.50000000  1
  Se  Se0  1  0.64377893  0.64377893  0.28755886  1
  Se  Se1  1  0.35622107  0.35622107  0.71244114  1
loop_
_geom_bond_atom_site_label_1
_geom_bond_atom_site_label_2
_geom_bond_distance
_geom_bond_site_symmetry_2
Cu0 Se1 2.450673 1_555
Cu0 Se0 2.450673 1_555
Cu0 Se0 2.450676 1_455
Cu0 Se1 2.450676 1_565
Cu1 Se0 2.450673 1_555
Cu1 Se1 2.450673 1_555
Cu1 Se1 2.450676 1_655
Cu1 Se0 2.450676 1_545
Se0 Tl0 3.409343 1_555
Se0 Tl0 3.409345 1_565
Se0 Tl0 3.409345 1_655
Se0 Tl0 3.409347 1_665
Se1 Tl0 3.409343 1_666
Se1 Tl0 3.409345 1_656
Se1 Tl0 3.409345 1_566
Se1 Tl0 3.409347 1_556
