# generated using pymatgen
data_NdTe2ClO5
_symmetry_space_group_name_H-M   'P 1'
_cell_length_a   3.93260600
_cell_length_b   3.93260600
_cell_length_c   8.70371600
_cell_angle_alpha   90.00000000
_cell_angle_beta   90.00000000
_cell_angle_gamma   90.00000000
_symmetry_Int_Tables_number   1
_chemical_formula_structural   NdTe2ClO5
_chemical_formula_sum   'Nd1 Te2 Cl1 O5'
_cell_volume   134.60636196
_cell_formula_units_Z   1
loop_
 _symmetry_equiv_pos_site_id
 _symmetry_equiv_pos_as_xyz
  1  'x, y, z'
loop_
 _atom_site_type_symbol
 _atom_site_label
 _atom_site_symmetry_multiplicity
 _atom_site_fract_x
 _atom_site_fract_y
 _atom_site_fract_z
 _atom_site_occupancy
  Nd  Nd0  1  0.00000000  0.00000000  0.00000000  1
  Te  Te0  1  0.50000000  0.50000000  0.26310000  1
  Te  Te1  1  0.50000000  0.50000000  0.73690000  1
  Cl  Cl0  1  0.00000000  0.00000000  0.50000000  1
  O  O0  1  0.00000000  0.50000000  0.18636800  1
  O  O1  1  0.00000000  0.50000000  0.81363200  1
  O  O2  1  0.50000000  0.00000000  0.81363200  1
  O  O3  1  0.50000000  0.50000000  0.00000000  1
  O  O4  1  0.50000000  0.00000000  0.18636800  1
loop_
_geom_bond_atom_site_label_1
_geom_bond_atom_site_label_2
_geom_bond_distance
_geom_bond_site_symmetry_2
Nd0 O0 2.549027 1_545
Nd0 O0 2.549027 1_555
Nd0 O4 2.549027 1_455
Nd0 O4 2.549027 1_555
Nd0 O1 2.549027 1_554
Nd0 O2 2.549027 1_454
Nd0 O2 2.549027 1_554
Nd0 O1 2.549027 1_544
Nd0 O3 2.780772 1_445
Nd0 O3 2.780772 1_545
Nd0 O3 2.780772 1_455
Nd0 O3 2.780772 1_555
O0 Te0 2.076626 1_555
O0 Te0 2.076626 1_455
O1 Te1 2.076626 1_555
O1 Te1 2.076626 1_455
O2 Te1 2.076626 1_545
O2 Te1 2.076626 1_555
O3 Te1 2.289948 1_554
O3 Te0 2.289948 1_555
O4 Te0 2.076626 1_545
O4 Te0 2.076626 1_555
