# generated using pymatgen
data_Na3P(SO)2
_symmetry_space_group_name_H-M   'P 1'
_cell_length_a   5.89903900
_cell_length_b   11.42641400
_cell_length_c   17.74190500
_cell_angle_alpha   90.00000000
_cell_angle_beta   90.00000000
_cell_angle_gamma   90.00000000
_symmetry_Int_Tables_number   1
_chemical_formula_structural   Na3P(SO)2
_chemical_formula_sum   'Na24 P8 S16 O16'
_cell_volume   1195.89065488
_cell_formula_units_Z   8
loop_
 _symmetry_equiv_pos_site_id
 _symmetry_equiv_pos_as_xyz
  1  'x, y, z'
loop_
 _atom_site_type_symbol
 _atom_site_label
 _atom_site_symmetry_multiplicity
 _atom_site_fract_x
 _atom_site_fract_y
 _atom_site_fract_z
 _atom_site_occupancy
  Na  Na0  1  0.34767300  0.17149000  0.94652400  1
  Na  Na1  1  0.19225300  0.61927800  0.73644100  1
  Na  Na2  1  0.19225300  0.11927800  0.76355900  1
  Na  Na3  1  0.30774700  0.61927800  0.23644100  1
  Na  Na4  1  0.23729600  0.37901300  0.59112800  1
  Na  Na5  1  0.84767300  0.32851000  0.94652400  1
  Na  Na6  1  0.23729600  0.87901300  0.90887200  1
  Na  Na7  1  0.80774700  0.38072200  0.26355900  1
  Na  Na8  1  0.26270400  0.87901300  0.40887200  1
  Na  Na9  1  0.69225300  0.38072200  0.76355900  1
  Na  Na10  1  0.65232700  0.82851000  0.05347600  1
  Na  Na11  1  0.76270400  0.62098700  0.40887200  1
  Na  Na12  1  0.15232700  0.67149000  0.05347600  1
  Na  Na13  1  0.73729600  0.12098700  0.59112800  1
  Na  Na14  1  0.80774700  0.88072200  0.23644100  1
  Na  Na15  1  0.26270400  0.37901300  0.09112800  1
  Na  Na16  1  0.69225300  0.88072200  0.73644100  1
  Na  Na17  1  0.73729600  0.62098700  0.90887200  1
  Na  Na18  1  0.15232700  0.17149000  0.44652400  1
  Na  Na19  1  0.30774700  0.11927800  0.26355900  1
  Na  Na20  1  0.76270400  0.12098700  0.09112800  1
  Na  Na21  1  0.34767300  0.67149000  0.55347600  1
  Na  Na22  1  0.84767300  0.82851000  0.55347600  1
  Na  Na23  1  0.65232700  0.32851000  0.44652400  1
  P  P0  1  0.82385400  0.05856200  0.88971800  1
  P  P1  1  0.32385400  0.94143800  0.61028200  1
  P  P2  1  0.32385400  0.44143800  0.88971800  1
  P  P3  1  0.67614600  0.05856200  0.38971800  1
  P  P4  1  0.17614600  0.94143800  0.11028200  1
  P  P5  1  0.67614600  0.55856200  0.11028200  1
  P  P6  1  0.82385400  0.55856200  0.61028200  1
  P  P7  1  0.17614600  0.44143800  0.38971800  1
  S  S0  1  0.22608400  0.11712400  0.60207500  1
  S  S1  1  0.31185400  0.37591900  0.29086900  1
  S  S2  1  0.81185400  0.12408100  0.29086900  1
  S  S3  1  0.72608400  0.88287600  0.89792500  1
  S  S4  1  0.72608400  0.38287600  0.60207500  1
  S  S5  1  0.77391600  0.88287600  0.39792500  1
  S  S6  1  0.81185400  0.62408100  0.20913100  1
  S  S7  1  0.22608400  0.61712400  0.89792500  1
  S  S8  1  0.31185400  0.87591900  0.20913100  1
  S  S9  1  0.68814600  0.12408100  0.79086900  1
  S  S10  1  0.18814600  0.87591900  0.70913100  1
  S  S11  1  0.27391600  0.11712400  0.10207500  1
  S  S12  1  0.27391600  0.61712400  0.39792500  1
  S  S13  1  0.68814600  0.62408100  0.70913100  1
  S  S14  1  0.77391600  0.38287600  0.10207500  1
  S  S15  1  0.18814600  0.37591900  0.79086900  1
  O  O0  1  0.58520700  0.93816400  0.61479200  1
  O  O1  1  0.23252900  0.86991300  0.54280800  1
  O  O2  1  0.26747100  0.36991300  0.45719200  1
  O  O3  1  0.26747100  0.86991300  0.04280800  1
  O  O4  1  0.08520700  0.06183600  0.88520800  1
  O  O5  1  0.23252900  0.36991300  0.95719200  1
  O  O6  1  0.58520700  0.43816400  0.88520800  1
  O  O7  1  0.41479300  0.06183600  0.38520800  1
  O  O8  1  0.91479300  0.93816400  0.11479200  1
  O  O9  1  0.41479300  0.56183600  0.11479200  1
  O  O10  1  0.73252900  0.13008700  0.95719200  1
  O  O11  1  0.08520700  0.56183600  0.61479200  1
  O  O12  1  0.91479300  0.43816400  0.38520800  1
  O  O13  1  0.76747100  0.13008700  0.45719200  1
  O  O14  1  0.73252900  0.63008700  0.54280800  1
  O  O15  1  0.76747100  0.63008700  0.04280800  1
loop_
_geom_bond_atom_site_label_1
_geom_bond_atom_site_label_2
_geom_bond_distance
_geom_bond_site_symmetry_2
Na0 O4 2.269484 1_555
Na0 O10 2.326759 1_555
Na0 O5 2.374378 1_555
Na0 S11 2.862087 1_556
Na1 O11 2.342595 1_555
Na1 S7 2.872082 1_555
Na1 S15 2.943720 1_555
Na1 S13 2.965656 1_555
Na1 S10 2.972345 1_555
Na1 S13 3.013462 1_455
Na2 O4 2.342595 1_555
Na2 S0 2.872082 1_555
Na2 S10 2.943720 1_545
Na2 S9 2.965656 1_555
Na2 S15 2.972345 1_555
Na2 S9 3.013462 1_455
Na3 O9 2.342595 1_555
Na3 S12 2.872082 1_555
Na3 S1 2.943720 1_555
Na3 S6 2.965656 1_455
Na3 S8 2.972345 1_555
Na3 S6 3.013462 1_555
Na4 O11 2.311962 1_555
Na4 O2 2.385205 1_555
Na4 S4 2.890250 1_555
Na4 S0 2.999478 1_555
Na4 S4 3.022230 1_455
Na5 O6 2.269484 1_555
Na5 O5 2.326759 1_655
Na5 O10 2.374378 1_555
Na5 S14 2.862087 1_556
Na6 O4 2.311962 1_565
Na6 O3 2.385205 1_556
Na6 S3 2.890250 1_555
Na6 S7 2.999478 1_555
Na6 S3 3.022230 1_455
Na7 O12 2.342595 1_555
Na7 S14 2.872082 1_555
Na7 S6 2.943720 1_555
Na7 S1 2.965656 1_555
Na7 S2 2.972345 1_555
Na7 S1 3.013462 1_655
Na8 O7 2.311962 1_565
Na8 O1 2.385205 1_555
Na8 S5 2.890250 1_455
Na8 S12 2.999478 1_555
Na8 S5 3.022230 1_555
Na9 O6 2.342595 1_555
Na9 S4 2.872082 1_555
Na9 S13 2.943720 1_555
Na9 S15 2.965656 1_655
Na9 S9 2.972345 1_555
Na9 S15 3.013462 1_555
Na10 O8 2.269484 1_555
Na10 O3 2.326759 1_555
Na10 O15 2.374378 1_555
Na10 S3 2.862087 1_554
Na11 O12 2.311962 1_555
Na11 O14 2.385205 1_555
Na11 S12 2.890250 1_555
Na11 S5 2.999478 1_555
Na11 S12 3.022230 1_655
Na12 O9 2.269484 1_555
Na12 O15 2.326759 1_455
Na12 O3 2.374378 1_555
Na12 S7 2.862087 1_554
Na13 O0 2.311962 1_545
Na13 O13 2.385205 1_555
Na13 S0 2.890250 1_655
Na13 S4 2.999478 1_555
Na13 S0 3.022230 1_555
Na14 O8 2.342595 1_555
Na14 S5 2.872082 1_555
Na14 S2 2.943720 1_565
Na14 S8 2.965656 1_555
Na14 S6 2.972345 1_555
Na14 S8 3.013462 1_655
Na15 O9 2.311962 1_555
Na15 O5 2.385205 1_554
Na15 S14 2.890250 1_455
Na15 S11 2.999478 1_555
Na15 S14 3.022230 1_555
Na16 O0 2.342595 1_555
Na16 S3 2.872082 1_555
Na16 S9 2.943720 1_565
Na16 S10 2.965656 1_655
Na16 S13 2.972345 1_555
Na16 S10 3.013462 1_555
Na17 O6 2.311962 1_555
Na17 O15 2.385205 1_556
Na17 S7 2.890250 1_655
Na17 S3 2.999478 1_555
Na17 S7 3.022230 1_555
Na18 O7 2.269484 1_555
Na18 O13 2.326759 1_455
Na18 O2 2.374378 1_555
Na18 S0 2.862087 1_555
Na19 O7 2.342595 1_555
Na19 S11 2.872082 1_555
Na19 S8 2.943720 1_545
Na19 S2 2.965656 1_455
Na19 S1 2.972345 1_555
Na19 S2 3.013462 1_555
Na20 O8 2.311962 1_545
Na20 O10 2.385205 1_554
Na20 S11 2.890250 1_555
Na20 S14 2.999478 1_555
Na20 S11 3.022230 1_655
Na21 O11 2.269484 1_555
Na21 O14 2.326759 1_555
Na21 O1 2.374378 1_555
Na21 S12 2.862087 1_555
Na22 O0 2.269484 1_555
Na22 O1 2.326759 1_655
Na22 O14 2.374378 1_555
Na22 S5 2.862087 1_555
Na23 O12 2.269484 1_555
Na23 O2 2.326759 1_555
Na23 O13 2.374378 1_555
Na23 S4 2.862087 1_555
P0 S9 2.068104 1_555
P0 S3 2.093738 1_545
P1 S10 2.068104 1_555
P1 S0 2.093738 1_565
P2 S15 2.068104 1_555
P2 S7 2.093738 1_555
P3 S2 2.068104 1_555
P3 S5 2.093738 1_545
P4 S8 2.068104 1_555
P4 S11 2.093738 1_565
P5 S6 2.068104 1_555
P5 S14 2.093738 1_555
P6 S13 2.068104 1_555
P6 S4 2.093738 1_555
P7 S1 2.068104 1_555
P7 S12 2.093738 1_555
O0 P1 1.544260 1_555
O1 P1 1.546369 1_555
O2 P7 1.546369 1_555
O3 P4 1.546369 1_555
O4 P0 1.544260 1_455
O5 P2 1.546369 1_555
O6 P2 1.544260 1_555
O7 P3 1.544260 1_555
O8 P4 1.544260 1_655
O9 P5 1.544260 1_555
O10 P0 1.546369 1_555
O11 P6 1.544260 1_455
O12 P7 1.544260 1_655
O13 P3 1.546369 1_555
O14 P6 1.546369 1_555
O15 P5 1.546369 1_555
