# generated using pymatgen
data_RbCuCl3
_symmetry_space_group_name_H-M   'P 1'
_cell_length_a   7.04882833
_cell_length_b   7.04882833
_cell_length_c   12.58885775
_cell_angle_alpha   89.36597372
_cell_angle_beta   89.36597372
_cell_angle_gamma   59.51852065
_symmetry_Int_Tables_number   1
_chemical_formula_structural   RbCuCl3
_chemical_formula_sum   'Rb4 Cu4 Cl12'
_cell_volume   538.99899952
_cell_formula_units_Z   4
loop_
 _symmetry_equiv_pos_site_id
 _symmetry_equiv_pos_as_xyz
  1  'x, y, z'
loop_
 _atom_site_type_symbol
 _atom_site_label
 _atom_site_symmetry_multiplicity
 _atom_site_fract_x
 _atom_site_fract_y
 _atom_site_fract_z
 _atom_site_occupancy
  Rb  Rb0  1  0.33675900  0.32210200  0.12508500  1
  Rb  Rb1  1  0.38020300  0.29078200  0.62371200  1
  Rb  Rb2  1  0.67789800  0.66324100  0.87491500  1
  Rb  Rb3  1  0.70921800  0.61979700  0.37628800  1
  Cu  Cu0  1  0.98163800  0.01836200  0.00000000  1
  Cu  Cu1  1  0.02298600  0.97059900  0.25033300  1
  Cu  Cu2  1  0.07651500  0.92348500  0.50000000  1
  Cu  Cu3  1  0.02940100  0.97701400  0.74966700  1
  Cl  Cl0  1  0.66765300  0.16323800  0.90001800  1
  Cl  Cl1  1  0.39215100  0.78109000  0.59945800  1
  Cl  Cl2  1  0.76341000  0.08915200  0.38965900  1
  Cl  Cl3  1  0.28782900  0.84582000  0.11338000  1
  Cl  Cl4  1  0.88099200  0.79884300  0.66219200  1
  Cl  Cl5  1  0.17513400  0.15664600  0.83755700  1
  Cl  Cl6  1  0.83676200  0.33234700  0.09998200  1
  Cl  Cl7  1  0.91084800  0.23659000  0.61034100  1
  Cl  Cl8  1  0.21891000  0.60784900  0.40054200  1
  Cl  Cl9  1  0.20115700  0.11900800  0.33780800  1
  Cl  Cl10  1  0.84335400  0.82486600  0.16244300  1
  Cl  Cl11  1  0.15418000  0.71217100  0.88662000  1
loop_
_geom_bond_atom_site_label_1
_geom_bond_atom_site_label_2
_geom_bond_distance
_geom_bond_site_symmetry_2
Cl0 Cu0 2.294708 1_556
Cl0 Cu3 2.891363 1_645
Cl0 Rb0 3.463540 1_556
Cl0 Rb2 3.506047 1_545
Cl0 Rb2 3.572084 1_555
Cl0 Rb1 3.905318 1_555
Cl1 Cu2 2.300741 1_555
Cl1 Cu3 2.896430 1_555
Cl1 Rb3 3.396249 1_555
Cl1 Rb1 3.509458 1_555
Cl1 Rb1 3.567180 1_565
Cl1 Rb2 3.894253 1_555
Cl2 Cu1 2.352172 1_645
Cl2 Cu2 2.362494 1_645
Cl2 Rb3 3.523585 1_545
Cl2 Rb3 3.564123 1_555
Cl2 Rb1 3.744278 1_555
Cl3 Cu1 2.351095 1_555
Cl3 Cu0 2.354006 1_465
Cl3 Rb0 3.530713 1_555
Cl3 Rb0 3.549430 1_565
Cl3 Rb2 3.813281 1_554
Cl4 Cu3 2.296360 1_655
Cl4 Cu2 2.822556 1_655
Cl4 Rb2 3.373590 1_555
Cl4 Rb1 3.507423 1_565
Cl4 Rb1 3.557820 1_655
Cl5 Cu3 2.293125 1_545
Cl5 Cu0 2.869710 1_456
Cl5 Rb1 3.387441 1_555
Cl5 Rb2 3.517481 1_545
Cl5 Rb2 3.544045 1_455
Cl6 Cu0 2.294708 1_555
Cl6 Cu1 2.891363 1_645
Cl6 Rb2 3.463540 1_554
Cl6 Rb0 3.506047 1_655
Cl6 Rb0 3.572084 1_555
Cl6 Rb3 3.905318 1_555
Cl7 Cu3 2.352172 1_645
Cl7 Cu2 2.362494 1_645
Cl7 Rb1 3.523585 1_655
Cl7 Rb1 3.564123 1_555
Cl7 Rb3 3.744278 1_555
Cl8 Cu2 2.300741 1_555
Cl8 Cu1 2.896430 1_555
Cl8 Rb1 3.396249 1_555
Cl8 Rb3 3.509458 1_555
Cl8 Rb3 3.567180 1_455
Cl8 Rb0 3.894253 1_555
Cl9 Cu1 2.296360 1_545
Cl9 Cu2 2.822556 1_545
Cl9 Rb0 3.373590 1_555
Cl9 Rb3 3.507423 1_455
Cl9 Rb3 3.557820 1_545
Cl10 Cu1 2.293125 1_655
Cl10 Cu0 2.869710 1_565
Cl10 Rb3 3.387441 1_555
Cl10 Rb0 3.517481 1_655
Cl10 Rb0 3.544045 1_565
Cl11 Cu3 2.351095 1_555
Cl11 Cu0 2.354006 1_466
Cl11 Rb2 3.530713 1_555
Cl11 Rb2 3.549430 1_455
Cl11 Rb0 3.813281 1_556
