# generated using pymatgen
data_SrLuCuSe3
_symmetry_space_group_name_H-M   'P 1'
_cell_length_a   7.07137180
_cell_length_b   7.07137180
_cell_length_c   10.44620200
_cell_angle_alpha   90.00000000
_cell_angle_beta   90.00000000
_cell_angle_gamma   146.63921654
_symmetry_Int_Tables_number   1
_chemical_formula_structural   SrLuCuSe3
_chemical_formula_sum   'Sr2 Lu2 Cu2 Se6'
_cell_volume   287.24782162
_cell_formula_units_Z   2
loop_
 _symmetry_equiv_pos_site_id
 _symmetry_equiv_pos_as_xyz
  1  'x, y, z'
loop_
 _atom_site_type_symbol
 _atom_site_label
 _atom_site_symmetry_multiplicity
 _atom_site_fract_x
 _atom_site_fract_y
 _atom_site_fract_z
 _atom_site_occupancy
  Sr  Sr0  1  0.75129500  0.24870500  0.25000000  1
  Sr  Sr1  1  0.24870500  0.75129500  0.75000000  1
  Lu  Lu0  1  0.00000000  0.00000000  0.00000000  1
  Lu  Lu1  1  0.00000000  0.00000000  0.50000000  1
  Cu  Cu0  1  0.52923800  0.47076200  0.75000000  1
  Cu  Cu1  1  0.47076200  0.52923800  0.25000000  1
  Se  Se0  1  0.36220600  0.63779400  0.43847000  1
  Se  Se1  1  0.92258500  0.07741500  0.75000000  1
  Se  Se2  1  0.63779400  0.36220600  0.93847000  1
  Se  Se3  1  0.36220600  0.63779400  0.06153000  1
  Se  Se4  1  0.07741500  0.92258500  0.25000000  1
  Se  Se5  1  0.63779400  0.36220600  0.56153000  1
loop_
_geom_bond_atom_site_label_1
_geom_bond_atom_site_label_2
_geom_bond_distance
_geom_bond_site_symmetry_2
Lu0 Se1 2.814277 1_454
Lu0 Se4 2.814277 1_545
Lu0 Se2 2.831563 1_444
Lu0 Se3 2.831563 1_555
Lu0 Se2 2.831563 1_554
Lu0 Se3 2.831563 1_445
Lu1 Se1 2.814277 1_455
Lu1 Se4 2.814277 1_545
Lu1 Se5 2.831563 1_445
Lu1 Se5 2.831563 1_555
Lu1 Se0 2.831563 1_445
Lu1 Se0 2.831563 1_555
Cu0 Se2 2.457447 1_555
Cu0 Se5 2.457447 1_555
Cu0 Se1 2.491478 1_455
Cu0 Se1 2.491478 1_565
Cu1 Se3 2.457447 1_555
Cu1 Se0 2.457447 1_555
Cu1 Se4 2.491478 1_655
Cu1 Se4 2.491478 1_545
Se0 Sr0 3.202132 1_455
Se0 Sr0 3.202132 1_565
Se0 Sr1 3.599296 1_555
Se1 Sr1 3.109483 1_545
Se1 Sr1 3.109483 1_655
Se2 Sr1 3.202132 1_545
Se2 Sr1 3.202132 1_655
Se2 Sr0 3.599296 1_556
Se3 Sr0 3.202132 1_455
Se3 Sr0 3.202132 1_565
Se3 Sr1 3.599296 1_554
Se4 Sr0 3.109483 1_565
Se4 Sr0 3.109483 1_455
Se5 Sr1 3.202132 1_545
Se5 Sr1 3.202132 1_655
Se5 Sr0 3.599296 1_555
