# generated using pymatgen
data_Li2MgSi
_symmetry_space_group_name_H-M   'P 1'
_cell_length_a   8.98581539
_cell_length_b   8.98581539
_cell_length_c   8.98581539
_cell_angle_alpha   60.00000000
_cell_angle_beta   60.00000000
_cell_angle_gamma   60.00000000
_symmetry_Int_Tables_number   1
_chemical_formula_structural   Li2MgSi
_chemical_formula_sum   'Li16 Mg8 Si8'
_cell_volume   513.04738536
_cell_formula_units_Z   8
loop_
 _symmetry_equiv_pos_site_id
 _symmetry_equiv_pos_as_xyz
  1  'x, y, z'
loop_
 _atom_site_type_symbol
 _atom_site_label
 _atom_site_symmetry_multiplicity
 _atom_site_fract_x
 _atom_site_fract_y
 _atom_site_fract_z
 _atom_site_occupancy
  Li  Li0  1  0.87437700  0.87437700  0.87437700  1
  Li  Li1  1  0.37687000  0.87437700  0.87437700  1
  Li  Li2  1  0.25000000  0.25000000  0.25000000  1
  Li  Li3  1  0.87437700  0.87437700  0.37687000  1
  Li  Li4  1  0.62313000  0.12562300  0.12562300  1
  Li  Li5  1  0.21903500  0.21903500  0.78096500  1
  Li  Li6  1  0.12562300  0.12562300  0.12562300  1
  Li  Li7  1  0.21903500  0.78096500  0.78096500  1
  Li  Li8  1  0.78096500  0.21903500  0.21903500  1
  Li  Li9  1  0.12562300  0.12562300  0.62313000  1
  Li  Li10  1  0.78096500  0.21903500  0.78096500  1
  Li  Li11  1  0.21903500  0.78096500  0.21903500  1
  Li  Li12  1  0.75000000  0.75000000  0.75000000  1
  Li  Li13  1  0.78096500  0.78096500  0.21903500  1
  Li  Li14  1  0.12562300  0.62313000  0.12562300  1
  Li  Li15  1  0.87437700  0.37687000  0.87437700  1
  Mg  Mg0  1  0.37426600  0.37426600  0.37426600  1
  Mg  Mg1  1  0.62573400  0.12279700  0.62573400  1
  Mg  Mg2  1  0.62573400  0.62573400  0.12279700  1
  Mg  Mg3  1  0.62573400  0.62573400  0.62573400  1
  Mg  Mg4  1  0.37426600  0.37426600  0.87720300  1
  Mg  Mg5  1  0.87720300  0.37426600  0.37426600  1
  Mg  Mg6  1  0.37426600  0.87720300  0.37426600  1
  Mg  Mg7  1  0.12279700  0.62573400  0.62573400  1
  Si  Si0  1  0.50000000  0.50000000  0.00000000  1
  Si  Si1  1  0.00000000  0.50000000  0.50000000  1
  Si  Si2  1  0.50000000  0.50000000  0.50000000  1
  Si  Si3  1  0.00000000  0.00000000  0.00000000  1
  Si  Si4  1  0.00000000  0.50000000  0.00000000  1
  Si  Si5  1  0.50000000  0.00000000  0.50000000  1
  Si  Si6  1  0.50000000  0.00000000  0.00000000  1
  Si  Si7  1  0.00000000  0.00000000  0.50000000  1
loop_
_geom_bond_atom_site_label_1
_geom_bond_atom_site_label_2
_geom_bond_distance
_geom_bond_site_symmetry_2
Li0 Li13 2.550708 1_556
Li0 Li10 2.550708 1_565
Li0 Li7 2.550708 1_655
Li0 Li12 2.737620 1_555
Li0 Si4 2.746792 1_656
Li0 Si7 2.746792 1_665
Li0 Si6 2.746792 1_566
Li0 Si3 2.765045 1_666
Li1 Li5 2.550709 1_565
Li1 Li11 2.550709 1_556
Li1 Li7 2.550716 1_555
Li1 Li12 2.737613 1_555
Li1 Si6 2.746785 1_566
Li1 Si5 2.746792 1_565
Li1 Si0 2.746792 1_556
Li1 Si3 2.765053 1_566
Li2 Mg4 2.735170 1_554
Li2 Mg6 2.735170 1_545
Li2 Mg5 2.735170 1_455
Li2 Mg0 2.735177 1_555
Li2 Li4 2.737613 1_555
Li2 Li9 2.737613 1_555
Li2 Li6 2.737620 1_555
Li3 Li8 2.550709 1_565
Li3 Si7 2.746785 1_665
Li3 Si5 2.746792 1_565
Li3 Si1 2.746792 1_655
Li3 Si3 2.765053 1_665
Li4 Li8 2.550716 1_555
Li4 Si6 2.746785 1_555
Li4 Si0 2.746792 1_555
Li4 Si5 2.746792 1_555
Li4 Si3 2.765053 1_655
Li5 Li6 2.550708 1_556
Li5 Li9 2.550716 1_555
Li5 Si3 2.783467 1_556
Li5 Mg7 2.999559 1_555
Li5 Mg1 2.999559 1_555
Li5 Mg0 2.999560 1_555
Li5 Mg4 2.999567 1_555
Li6 Li8 2.550708 1_455
Li6 Si7 2.746792 1_555
Li6 Si4 2.746792 1_555
Li6 Si6 2.746792 1_555
Li6 Si3 2.765045 1_555
Li7 Li9 2.550709 1_565
Li7 Si3 2.783467 1_566
Li7 Mg6 2.999559 1_555
Li7 Mg4 2.999559 1_555
Li7 Mg3 2.999560 1_555
Li7 Mg7 2.999567 1_555
Li8 Si3 2.783467 1_655
Li8 Mg2 2.999559 1_555
Li8 Mg1 2.999559 1_555
Li8 Mg0 2.999560 1_555
Li8 Mg5 2.999567 1_555
Li9 Si7 2.746785 1_555
Li9 Si1 2.746792 1_555
Li9 Si5 2.746792 1_555
Li9 Si3 2.765053 1_556
Li10 Li9 2.550709 1_655
Li10 Li4 2.550709 1_556
Li10 Li15 2.550716 1_555
Li10 Si3 2.783467 1_656
Li10 Mg5 2.999559 1_555
Li10 Mg4 2.999559 1_555
Li10 Mg3 2.999560 1_555
Li10 Mg1 2.999567 1_555
Li11 Li6 2.550708 1_565
Li11 Li3 2.550709 1_455
Li11 Li14 2.550716 1_555
Li11 Si3 2.783467 1_565
Li11 Mg7 2.999559 1_555
Li11 Mg2 2.999559 1_555
Li11 Mg0 2.999560 1_555
Li11 Mg6 2.999567 1_555
Li12 Mg2 2.735170 1_556
Li12 Mg1 2.735170 1_565
Li12 Mg7 2.735170 1_655
Li12 Mg3 2.735177 1_555
Li12 Li15 2.737613 1_555
Li12 Li3 2.737613 1_555
Li13 Li4 2.550709 1_565
Li13 Li14 2.550709 1_655
Li13 Li3 2.550716 1_555
Li13 Si3 2.783467 1_665
Li13 Mg5 2.999559 1_555
Li13 Mg6 2.999559 1_555
Li13 Mg3 2.999560 1_555
Li13 Mg2 2.999567 1_555
Li14 Li7 2.550709 1_554
Li14 Li2 2.737613 1_555
Li14 Si4 2.746785 1_555
Li14 Si0 2.746792 1_555
Li14 Si1 2.746792 1_555
Li14 Si3 2.765053 1_565
Li15 Li8 2.550709 1_556
Li15 Li5 2.550709 1_655
Li15 Si4 2.746785 1_656
Li15 Si1 2.746792 1_655
Li15 Si0 2.746792 1_556
Li15 Si3 2.765053 1_656
Mg0 Si1 2.745990 1_555
Mg0 Si0 2.745990 1_555
Mg0 Si5 2.745990 1_555
Mg0 Si2 2.767489 1_555
Mg1 Si5 2.745982 1_555
Mg1 Si7 2.745990 1_655
Mg1 Si6 2.745990 1_556
Mg1 Si2 2.767496 1_555
Mg2 Si0 2.745982 1_555
Mg2 Si4 2.745990 1_655
Mg2 Si6 2.745990 1_565
Mg2 Si2 2.767496 1_555
Mg3 Si1 2.745990 1_655
Mg3 Si5 2.745990 1_565
Mg3 Si0 2.745990 1_556
Mg3 Si2 2.767489 1_555
Mg4 Si0 2.745982 1_556
Mg4 Si4 2.745990 1_556
Mg4 Si6 2.745990 1_556
Mg4 Si2 2.767496 1_555
Mg5 Si1 2.745982 1_655
Mg5 Si7 2.745990 1_655
Mg5 Si4 2.745990 1_655
Mg5 Si2 2.767496 1_555
Mg6 Si5 2.745982 1_565
Mg6 Si7 2.745990 1_565
Mg6 Si6 2.745990 1_565
Mg6 Si2 2.767496 1_555
Mg7 Si1 2.745982 1_555
Mg7 Si4 2.745990 1_556
Mg7 Si7 2.745990 1_565
Mg7 Si2 2.767496 1_555
