# generated using pymatgen
data_MnSbS2Cl
_symmetry_space_group_name_H-M   'P 1'
_cell_length_a   3.82151100
_cell_length_b   9.57198100
_cell_length_c   12.36707500
_cell_angle_alpha   90.00000000
_cell_angle_beta   90.00000000
_cell_angle_gamma   90.00000000
_symmetry_Int_Tables_number   1
_chemical_formula_structural   MnSbS2Cl
_chemical_formula_sum   'Mn4 Sb4 S8 Cl4'
_cell_volume   452.38056272
_cell_formula_units_Z   4
loop_
 _symmetry_equiv_pos_site_id
 _symmetry_equiv_pos_as_xyz
  1  'x, y, z'
loop_
 _atom_site_type_symbol
 _atom_site_label
 _atom_site_symmetry_multiplicity
 _atom_site_fract_x
 _atom_site_fract_y
 _atom_site_fract_z
 _atom_site_occupancy
  Mn  Mn0  1  0.25000000  0.49620200  0.76383800  1
  Mn  Mn1  1  0.75000000  0.50379800  0.23616200  1
  Mn  Mn2  1  0.25000000  0.99620200  0.73616200  1
  Mn  Mn3  1  0.75000000  0.00379800  0.26383800  1
  Sb  Sb0  1  0.75000000  0.81130900  0.96336700  1
  Sb  Sb1  1  0.75000000  0.31130900  0.53663300  1
  Sb  Sb2  1  0.25000000  0.68869100  0.46336700  1
  Sb  Sb3  1  0.25000000  0.18869100  0.03663300  1
  S  S0  1  0.25000000  0.25377900  0.67551300  1
  S  S1  1  0.75000000  0.74622100  0.32448700  1
  S  S2  1  0.75000000  0.05051100  0.88229400  1
  S  S3  1  0.75000000  0.24622100  0.17551300  1
  S  S4  1  0.25000000  0.94948900  0.11770600  1
  S  S5  1  0.25000000  0.75377900  0.82448700  1
  S  S6  1  0.75000000  0.55051100  0.61770600  1
  S  S7  1  0.25000000  0.44948900  0.38229400  1
  Cl  Cl0  1  0.75000000  0.93583600  0.61417600  1
  Cl  Cl1  1  0.75000000  0.43583600  0.88582400  1
  Cl  Cl2  1  0.25000000  0.06416400  0.38582400  1
  Cl  Cl3  1  0.25000000  0.56416400  0.11417600  1
loop_
_geom_bond_atom_site_label_1
_geom_bond_atom_site_label_2
_geom_bond_distance
_geom_bond_site_symmetry_2
Mn0 S0 2.564711 1_555
Mn0 S5 2.577087 1_555
Mn0 S6 2.680912 1_455
Mn0 S6 2.680912 1_555
Mn1 S1 2.564711 1_555
Mn1 S3 2.577087 1_555
Mn1 S7 2.680912 1_555
Mn1 S7 2.680912 1_655
Mn2 S5 2.564711 1_555
Mn2 S0 2.577087 1_565
Mn2 S2 2.680912 1_565
Mn2 S2 2.680912 1_465
Mn3 S3 2.564711 1_555
Mn3 S1 2.577087 1_545
Mn3 S4 2.680912 1_645
Mn3 S4 2.680912 1_545
S0 Sb1 2.627579 1_555
S0 Sb1 2.627579 1_455
S1 Sb2 2.627579 1_555
S1 Sb2 2.627579 1_655
S2 Sb0 2.499543 1_545
S2 Sb3 3.007262 1_556
S2 Sb3 3.007262 1_656
S3 Sb3 2.627579 1_655
S3 Sb3 2.627579 1_555
S4 Sb3 2.499543 1_565
S4 Sb0 3.007262 1_454
S4 Sb0 3.007262 1_554
S5 Sb0 2.627579 1_455
S5 Sb0 2.627579 1_555
S6 Sb1 2.499543 1_555
S6 Sb2 3.007262 1_555
S6 Sb2 3.007262 1_655
S7 Sb2 2.499543 1_555
S7 Sb1 3.007262 1_555
S7 Sb1 3.007262 1_455
Cl0 Mn2 2.502153 1_555
Cl0 Mn2 2.502153 1_655
Cl1 Mn0 2.502153 1_555
Cl1 Mn0 2.502153 1_655
Cl2 Mn3 2.502153 1_455
Cl2 Mn3 2.502153 1_555
Cl3 Mn1 2.502153 1_555
Cl3 Mn1 2.502153 1_455
