# generated using pymatgen
data_Ce10S14O
_symmetry_space_group_name_H-M   'P 1'
_cell_length_a   14.60678966
_cell_length_b   14.60678966
_cell_length_c   14.60678966
_cell_angle_alpha   117.98832883
_cell_angle_beta   117.98832883
_cell_angle_gamma   93.52112839
_symmetry_Int_Tables_number   1
_chemical_formula_structural   Ce10S14O
_chemical_formula_sum   'Ce40 S56 O4'
_cell_volume   2266.06122561
_cell_formula_units_Z   4
loop_
 _symmetry_equiv_pos_site_id
 _symmetry_equiv_pos_as_xyz
  1  'x, y, z'
loop_
 _atom_site_type_symbol
 _atom_site_label
 _atom_site_symmetry_multiplicity
 _atom_site_fract_x
 _atom_site_fract_y
 _atom_site_fract_z
 _atom_site_occupancy
  Ce  Ce0  1  0.29352400  0.14422100  0.59256100  1
  Ce  Ce1  1  0.67605000  0.04962600  0.36083500  1
  Ce  Ce2  1  0.85577900  0.44834000  0.14930300  1
  Ce  Ce3  1  0.79352400  0.20096300  0.14930300  1
  Ce  Ce4  1  0.86441500  0.63558500  0.50000000  1
  Ce  Ce5  1  0.57395000  0.43478500  0.87357500  1
  Ce  Ce6  1  0.45647600  0.10577900  0.90743900  1
  Ce  Ce7  1  0.05166000  0.64422100  0.85069700  1
  Ce  Ce8  1  0.45096300  0.54352400  0.64930300  1
  Ce  Ce9  1  0.95647600  0.04903700  0.35069700  1
  Ce  Ce10  1  0.39422100  0.04352400  0.09256100  1
  Ce  Ce11  1  0.55166000  0.70096300  0.40743900  1
  Ce  Ce12  1  0.68478500  0.32395000  0.37357500  1
  Ce  Ce13  1  0.18478500  0.81121000  0.36083500  1
  Ce  Ce14  1  0.29903700  0.70647600  0.85069700  1
  Ce  Ce15  1  0.13558500  0.36441500  0.50000000  1
  Ce  Ce16  1  0.95037400  0.31121000  0.62642500  1
  Ce  Ce17  1  0.45037400  0.82395000  0.63916500  1
  Ce  Ce18  1  0.06521500  0.92605000  0.12642500  1
  Ce  Ce19  1  0.63558500  0.13558500  0.77117000  1
  Ce  Ce20  1  0.11441500  0.11441500  0.72883000  1
  Ce  Ce21  1  0.36441500  0.86441500  0.22883000  1
  Ce  Ce22  1  0.06121000  0.93478500  0.86083500  1
  Ce  Ce23  1  0.56521500  0.43879000  0.13916500  1
  Ce  Ce24  1  0.61441500  0.88558500  0.00000000  1
  Ce  Ce25  1  0.18879000  0.54962600  0.37357500  1
  Ce  Ce26  1  0.79903700  0.94834000  0.59256100  1
  Ce  Ce27  1  0.89422100  0.80166000  0.35069700  1
  Ce  Ce28  1  0.88558500  0.61441500  0.00000000  1
  Ce  Ce29  1  0.95096300  0.30166000  0.90743900  1
  Ce  Ce30  1  0.56121000  0.70037400  0.12642500  1
  Ce  Ce31  1  0.68879000  0.31521500  0.63916500  1
  Ce  Ce32  1  0.29962600  0.42605000  0.86083500  1
  Ce  Ce33  1  0.17605000  0.81521500  0.62642500  1
  Ce  Ce34  1  0.19834000  0.54903700  0.09256100  1
  Ce  Ce35  1  0.07395000  0.20037400  0.13916500  1
  Ce  Ce36  1  0.35577900  0.20647600  0.40743900  1
  Ce  Ce37  1  0.79962600  0.93879000  0.87357500  1
  Ce  Ce38  1  0.69834000  0.60577900  0.64930300  1
  Ce  Ce39  1  0.38558500  0.38558500  0.27117000  1
  S  S0  1  0.31110800  0.64559900  0.02100200  1
  S  S1  1  0.89559900  0.06110800  0.52100200  1
  S  S2  1  0.77490100  0.41509700  0.28349500  1
  S  S3  1  0.12500000  0.22810200  0.60310200  1
  S  S4  1  0.76035300  0.60409900  0.10789500  1
  S  S5  1  0.63160300  0.91509700  0.64019600  1
  S  S6  1  0.13160300  0.49140700  0.71650500  1
  S  S7  1  0.74140700  0.88160300  0.21650500  1
  S  S8  1  0.47509900  0.25859300  0.14019600  1
  S  S9  1  0.20989300  0.87540200  0.02100200  1
  S  S10  1  0.62500000  0.02189800  0.89689800  1
  S  S11  1  0.27490100  0.99140700  0.35980400  1
  S  S12  1  0.98964700  0.64590100  0.39210500  1
  S  S13  1  0.97810200  0.87500000  0.60310200  1
  S  S14  1  0.97509900  0.83490300  0.21650500  1
  S  S15  1  0.27189800  0.37500000  0.39689800  1
  S  S16  1  0.99620400  0.10409900  0.84374600  1
  S  S17  1  0.90245800  0.24620400  0.39210500  1
  S  S18  1  0.85440100  0.18889200  0.97899800  1
  S  S19  1  0.16509700  0.38160300  0.14019600  1
  S  S20  1  0.75379600  0.14590100  0.65625400  1
  S  S21  1  0.48964700  0.09754200  0.34374600  1
  S  S22  1  0.25379600  0.59754200  0.60789500  1
  S  S23  1  0.93889200  0.45989300  0.83449100  1
  S  S24  1  0.35409900  0.74620400  0.34374600  1
  S  S25  1  0.62500000  0.52189800  0.39689800  1
  S  S26  1  0.39559900  0.87459800  0.83449100  1
  S  S27  1  0.77189800  0.37500000  0.89689800  1
  S  S28  1  0.85409900  0.51035300  0.60789500  1
  S  S29  1  0.08490300  0.72509900  0.71650500  1
  S  S30  1  0.12540200  0.95989300  0.52100200  1
  S  S31  1  0.24140700  0.02490100  0.85980400  1
  S  S32  1  0.47810200  0.87500000  0.10310200  1
  S  S33  1  0.12500000  0.72810200  0.10310200  1
  S  S34  1  0.12459800  0.14559900  0.33449100  1
  S  S35  1  0.39590100  0.50379600  0.15625400  1
  S  S36  1  0.35440100  0.37540200  0.66550900  1
  S  S37  1  0.89590100  0.73964700  0.89210500  1
  S  S38  1  0.50859300  0.22509900  0.64019600  1
  S  S39  1  0.26035300  0.15245800  0.15625400  1
  S  S40  1  0.11839700  0.33490300  0.85980400  1
  S  S41  1  0.66509700  0.52490100  0.78349500  1
  S  S42  1  0.81110800  0.79010700  0.66550900  1
  S  S43  1  0.04010700  0.56110800  0.16550900  1
  S  S44  1  0.84754200  0.00379600  0.10789500  1
  S  S45  1  0.61839700  0.75859300  0.78349500  1
  S  S46  1  0.00859300  0.36839700  0.28349500  1
  S  S47  1  0.70989300  0.68889200  0.33449100  1
  S  S48  1  0.49620400  0.65245800  0.89210500  1
  S  S49  1  0.40245800  0.01035300  0.65625400  1
  S  S50  1  0.34754200  0.23964700  0.84374600  1
  S  S51  1  0.43889200  0.60440100  0.47899800  1
  S  S52  1  0.62540200  0.10440100  0.16550900  1
  S  S53  1  0.58490300  0.86839700  0.35980400  1
  S  S54  1  0.62459800  0.29010700  0.97899800  1
  S  S55  1  0.54010700  0.37459800  0.47899800  1
  O  O0  1  0.00000000  0.00000000  0.00000000  1
  O  O1  1  0.75000000  0.25000000  0.50000000  1
  O  O2  1  0.50000000  0.50000000  0.00000000  1
  O  O3  1  0.25000000  0.75000000  0.50000000  1
loop_
_geom_bond_atom_site_label_1
_geom_bond_atom_site_label_2
_geom_bond_distance
_geom_bond_site_symmetry_2
Ce0 S49 2.814448 1_555
Ce0 S3 2.851927 1_555
Ce0 S50 2.893921 1_555
Ce0 S38 2.910265 1_555
Ce0 S30 2.917118 1_545
Ce0 S11 2.924013 1_545
Ce0 S36 2.948503 1_555
Ce0 S34 3.412588 1_555
Ce1 O1 2.414918 1_555
Ce1 S21 2.779512 1_555
Ce1 S53 2.879435 1_545
Ce1 S1 2.882631 1_555
Ce1 S7 2.949544 1_545
Ce1 S32 2.983895 1_545
Ce1 S52 3.092197 1_555
Ce1 S20 3.375861 1_555
Ce2 S12 2.814448 1_555
Ce2 S27 2.851927 1_554
Ce2 S4 2.893921 1_555
Ce2 S2 2.910279 1_555
Ce2 S43 2.917111 1_655
Ce2 S46 2.924020 1_655
Ce2 S54 2.948502 1_554
Ce2 S18 3.412591 1_554
Ce3 S17 2.814448 1_555
Ce3 S10 2.851927 1_554
Ce3 S44 2.893921 1_555
Ce3 S46 2.910261 1_655
Ce3 S52 2.917111 1_555
Ce3 S2 2.924016 1_555
Ce3 S18 2.948517 1_554
Ce3 S54 3.412596 1_554
Ce4 S29 2.850492 1_655
Ce4 S2 2.850492 1_555
Ce4 S42 2.899386 1_555
Ce4 S47 2.899386 1_555
Ce4 S28 2.957608 1_555
Ce4 S12 2.957608 1_555
Ce4 S25 3.041629 1_555
Ce4 S13 3.041629 1_555
Ce5 O2 2.414930 1_556
Ce5 S4 2.779517 1_556
Ce5 S41 2.879409 1_555
Ce5 S36 2.882622 1_555
Ce5 S38 2.949529 1_555
Ce5 S27 2.983892 1_555
Ce5 S54 3.092197 1_555
Ce5 S48 3.375858 1_555
Ce6 S50 2.814448 1_555
Ce6 S10 2.851927 1_555
Ce6 S49 2.893921 1_555
Ce6 S31 2.910265 1_555
Ce6 S54 2.917118 1_555
Ce6 S8 2.924013 1_556
Ce6 S26 2.948503 1_545
Ce6 S52 3.412588 1_556
Ce7 S28 2.814448 1_455
Ce7 S33 2.851927 1_556
Ce7 S37 2.893921 1_455
Ce7 S29 2.910279 1_555
Ce7 S23 2.917111 1_455
Ce7 S6 2.924020 1_555
Ce7 S9 2.948502 1_556
Ce7 S0 3.412591 1_556
Ce8 S48 2.814448 1_555
Ce8 S15 2.851927 1_555
Ce8 S22 2.893921 1_555
Ce8 S45 2.910261 1_555
Ce8 S36 2.917111 1_555
Ce8 S41 2.924016 1_555
Ce8 S51 2.948517 1_555
Ce8 S55 3.412596 1_555
Ce9 S44 2.814448 1_555
Ce9 S3 2.851927 1_655
Ce9 S17 2.893921 1_555
Ce9 S7 2.910261 1_545
Ce9 S34 2.917111 1_655
Ce9 S14 2.924016 1_545
Ce9 S1 2.948517 1_555
Ce9 S30 3.412596 1_645
Ce10 S39 2.814448 1_555
Ce10 S32 2.851927 1_545
Ce10 S21 2.893921 1_555
Ce10 S8 2.910265 1_555
Ce10 S9 2.917118 1_545
Ce10 S31 2.924013 1_554
Ce10 S52 2.948503 1_555
Ce10 S26 3.412588 1_544
Ce11 S24 2.814448 1_555
Ce11 S25 2.851927 1_555
Ce11 S35 2.893921 1_555
Ce11 S53 2.910265 1_555
Ce11 S51 2.917099 1_555
Ce11 S5 2.924013 1_555
Ce11 S47 2.948503 1_555
Ce11 S42 3.412588 1_555
Ce12 O1 2.414930 1_555
Ce12 S28 2.779517 1_555
Ce12 S2 2.879409 1_555
Ce12 S52 2.882622 1_555
Ce12 S8 2.949529 1_555
Ce12 S25 2.983892 1_555
Ce12 S55 3.092197 1_555
Ce12 S17 3.375858 1_555
Ce13 O3 2.414930 1_555
Ce13 S24 2.779517 1_555
Ce13 S11 2.879422 1_555
Ce13 S30 2.882630 1_555
Ce13 S14 2.949533 1_455
Ce13 S33 2.983892 1_555
Ce13 S43 3.092207 1_555
Ce13 S49 3.375858 1_565
Ce14 S22 2.814448 1_555
Ce14 S32 2.851927 1_556
Ce14 S48 2.893921 1_555
Ce14 S6 2.910261 1_555
Ce14 S26 2.917111 1_555
Ce14 S29 2.924016 1_555
Ce14 S0 2.948517 1_556
Ce14 S9 3.412596 1_556
Ce15 S6 2.850486 1_555
Ce15 S46 2.850486 1_555
Ce15 S36 2.899386 1_555
Ce15 S34 2.899386 1_555
Ce15 S17 2.957608 1_455
Ce15 S22 2.957608 1_555
Ce15 S15 3.041629 1_555
Ce15 S3 3.041629 1_555
Ce16 O1 2.414917 1_555
Ce16 S17 2.779522 1_555
Ce16 S6 2.879437 1_655
Ce16 S23 2.882613 1_555
Ce16 S40 2.949533 1_655
Ce16 S3 2.983906 1_655
Ce16 S1 3.092211 1_555
Ce16 S28 3.375852 1_555
Ce17 O3 2.414918 1_555
Ce17 S49 2.779512 1_565
Ce17 S5 2.879435 1_555
Ce17 S51 2.882631 1_555
Ce17 S45 2.949544 1_555
Ce17 S10 2.983895 1_565
Ce17 S26 3.092197 1_555
Ce17 S24 3.375861 1_555
Ce18 O0 2.414930 1_565
Ce18 S37 2.779517 1_454
Ce18 S14 2.879409 1_455
Ce18 S34 2.882622 1_565
Ce18 S11 2.949529 1_555
Ce18 S33 2.983892 1_555
Ce18 S9 3.092197 1_555
Ce18 S44 3.375858 1_465
Ce19 S5 2.850498 1_545
Ce19 S38 2.850498 1_555
Ce19 S54 2.899375 1_555
Ce19 S18 2.899380 1_555
Ce19 S49 2.957608 1_555
Ce19 S20 2.957608 1_555
Ce19 S10 3.041629 1_555
Ce19 S27 3.041629 1_555
Ce20 S40 2.850498 1_555
Ce20 S31 2.850498 1_555
Ce20 S30 2.899375 1_545
Ce20 S1 2.899380 1_455
Ce20 S50 2.957608 1_555
Ce20 S16 2.957608 1_455
Ce20 S3 3.041629 1_555
Ce20 S13 3.041629 1_445
Ce21 S11 2.850498 1_555
Ce21 S53 2.850498 1_555
Ce21 S9 2.899375 1_555
Ce21 S0 2.899380 1_555
Ce21 S21 2.957608 1_565
Ce21 S24 2.957608 1_555
Ce21 S33 3.041629 1_555
Ce21 S32 3.041629 1_555
Ce22 O0 2.414930 1_566
Ce22 S16 2.779517 1_465
Ce22 S31 2.879422 1_565
Ce22 S9 2.882630 1_556
Ce22 S29 2.949533 1_555
Ce22 S13 2.983892 1_455
Ce22 S42 3.092207 1_455
Ce22 S39 3.375858 1_566
Ce23 O2 2.414930 1_555
Ce23 S35 2.779517 1_555
Ce23 S8 2.879422 1_555
Ce23 S54 2.882630 1_554
Ce23 S2 2.949533 1_555
Ce23 S25 2.983892 1_555
Ce23 S47 3.092207 1_555
Ce23 S50 3.375858 1_554
Ce24 S45 2.850486 1_554
Ce24 S7 2.850486 1_555
Ce24 S52 2.899386 1_565
Ce24 S26 2.899386 1_554
Ce24 S44 2.957608 1_565
Ce24 S48 2.957608 1_554
Ce24 S32 3.041629 1_555
Ce24 S10 3.041629 1_564
Ce25 O3 2.414917 1_555
Ce25 S22 2.779522 1_555
Ce25 S46 2.879437 1_555
Ce25 S43 2.882613 1_555
Ce25 S19 2.949533 1_555
Ce25 S15 2.983906 1_555
Ce25 S51 3.092211 1_555
Ce25 S12 3.375852 1_455
Ce26 S20 2.814448 1_565
Ce26 S13 2.851927 1_555
Ce26 S16 2.893921 1_565
Ce26 S5 2.910265 1_555
Ce26 S1 2.917099 1_565
Ce26 S53 2.924013 1_555
Ce26 S42 2.948503 1_555
Ce26 S47 3.412588 1_555
Ce27 S4 2.814448 1_555
Ce27 S13 2.851927 1_555
Ce27 S12 2.893921 1_555
Ce27 S14 2.910279 1_555
Ce27 S47 2.917111 1_555
Ce27 S7 2.924020 1_555
Ce27 S30 2.948502 1_655
Ce27 S1 3.412591 1_565
Ce28 S41 2.850492 1_554
Ce28 S14 2.850492 1_555
Ce28 S43 2.899386 1_655
Ce28 S23 2.899386 1_554
Ce28 S37 2.957608 1_554
Ce28 S4 2.957608 1_555
Ce28 S27 3.041629 1_554
Ce28 S33 3.041629 1_655
Ce29 S16 2.814448 1_555
Ce29 S27 2.851927 1_555
Ce29 S20 2.893921 1_555
Ce29 S40 2.910265 1_655
Ce29 S18 2.917099 1_555
Ce29 S19 2.924013 1_656
Ce29 S23 2.948503 1_555
Ce29 S43 3.412588 1_656
Ce30 O2 2.414917 1_555
Ce30 S48 2.779522 1_554
Ce30 S7 2.879437 1_555
Ce30 S47 2.882613 1_555
Ce30 S53 2.949533 1_555
Ce30 S32 2.983906 1_555
Ce30 S0 3.092211 1_555
Ce30 S4 3.375852 1_555
Ce31 O1 2.414930 1_555
Ce31 S20 2.779517 1_555
Ce31 S38 2.879422 1_555
Ce31 S55 2.882630 1_555
Ce31 S41 2.949533 1_555
Ce31 S27 2.983892 1_555
Ce31 S23 3.092207 1_555
Ce31 S21 3.375858 1_555
Ce32 O2 2.414918 1_556
Ce32 S50 2.779512 1_555
Ce32 S40 2.879435 1_555
Ce32 S0 2.882631 1_556
Ce32 S6 2.949544 1_555
Ce32 S3 2.983895 1_555
Ce32 S36 3.092197 1_555
Ce32 S35 3.375861 1_556
Ce33 O3 2.414930 1_555
Ce33 S12 2.779517 1_455
Ce33 S29 2.879409 1_555
Ce33 S26 2.882622 1_555
Ce33 S31 2.949529 1_565
Ce33 S13 2.983892 1_455
Ce33 S30 3.092197 1_555
Ce33 S22 3.375858 1_555
Ce34 S35 2.814448 1_555
Ce34 S33 2.851927 1_555
Ce34 S24 2.893921 1_555
Ce34 S19 2.910265 1_555
Ce34 S0 2.917099 1_555
Ce34 S40 2.924013 1_554
Ce34 S43 2.948503 1_555
Ce34 S23 3.412588 1_454
Ce35 O0 2.414918 1_555
Ce35 S39 2.779512 1_555
Ce35 S19 2.879435 1_555
Ce35 S18 2.882631 1_454
Ce35 S46 2.949544 1_555
Ce35 S15 2.983895 1_555
Ce35 S34 3.092197 1_555
Ce35 S16 3.375861 1_454
Ce36 S21 2.814448 1_555
Ce36 S15 2.851927 1_555
Ce36 S39 2.893921 1_555
Ce36 S11 2.910265 1_545
Ce36 S55 2.917118 1_555
Ce36 S38 2.924013 1_555
Ce36 S34 2.948503 1_555
Ce36 S36 3.412588 1_555
Ce37 O0 2.414917 1_666
Ce37 S44 2.779522 1_566
Ce37 S45 2.879437 1_555
Ce37 S42 2.882613 1_555
Ce37 S5 2.949533 1_555
Ce37 S10 2.983906 1_565
Ce37 S18 3.092211 1_565
Ce37 S37 3.375852 1_555
Ce38 S37 2.814448 1_555
Ce38 S25 2.851927 1_555
Ce38 S28 2.893921 1_555
Ce38 S41 2.910279 1_555
Ce38 S42 2.917111 1_555
Ce38 S45 2.924020 1_555
Ce38 S55 2.948502 1_555
Ce38 S51 3.412591 1_555
Ce39 S8 2.850498 1_555
Ce39 S19 2.850498 1_555
Ce39 S55 2.899375 1_555
Ce39 S51 2.899380 1_555
Ce39 S39 2.957608 1_555
Ce39 S35 2.957608 1_555
Ce39 S25 3.041629 1_555
Ce39 S15 3.041629 1_555
