# generated using pymatgen
data_Sr2Mn3(BiO)2
_symmetry_space_group_name_H-M   'P 1'
_cell_length_a   11.04421630
_cell_length_b   11.04421630
_cell_length_c   11.04421630
_cell_angle_alpha   157.13799689
_cell_angle_beta   157.13799689
_cell_angle_gamma   32.55380419
_symmetry_Int_Tables_number   1
_chemical_formula_structural   Sr2Mn3(BiO)2
_chemical_formula_sum   'Sr2 Mn3 Bi2 O2'
_cell_volume   203.16667112
_cell_formula_units_Z   1
loop_
 _symmetry_equiv_pos_site_id
 _symmetry_equiv_pos_as_xyz
  1  'x, y, z'
loop_
 _atom_site_type_symbol
 _atom_site_label
 _atom_site_symmetry_multiplicity
 _atom_site_fract_x
 _atom_site_fract_y
 _atom_site_fract_z
 _atom_site_occupancy
  Sr  Sr0  1  0.57556900  0.57556900  0.00000000  1
  Sr  Sr1  1  0.42443100  0.42443100  0.00000000  1
  Mn  Mn0  1  0.00000000  0.00000000  0.00000000  1
  Mn  Mn1  1  0.25000000  0.75000000  0.50000000  1
  Mn  Mn2  1  0.75000000  0.25000000  0.50000000  1
  Bi  Bi0  1  0.84077200  0.84077200  0.00000000  1
  Bi  Bi1  1  0.15922800  0.15922800  0.00000000  1
  O  O0  1  0.00000000  0.50000000  0.50000000  1
  O  O1  1  0.50000000  0.00000000  0.50000000  1
loop_
_geom_bond_atom_site_label_1
_geom_bond_atom_site_label_2
_geom_bond_distance
_geom_bond_site_symmetry_2
Mn0 O0 2.188828 1_544
Mn0 O0 2.188828 1_555
Mn0 O1 2.188828 1_555
Mn0 O1 2.188828 1_454
Bi0 Mn1 2.914659 1_655
Bi0 Mn1 2.914659 1_554
Bi0 Mn2 2.914659 1_554
Bi0 Mn2 2.914659 1_565
Bi0 Mn0 3.376126 1_665
Bi0 Sr1 3.567689 1_554
Bi0 Sr1 3.567689 1_565
Bi0 Sr1 3.567689 1_666
Bi0 Sr1 3.567689 1_655
Bi1 Mn1 2.914659 1_555
Bi1 Mn2 2.914659 1_454
Bi1 Mn1 2.914659 1_544
Bi1 Mn2 2.914659 1_555
Bi1 Mn0 3.376126 1_555
Bi1 Sr0 3.567689 1_455
Bi1 Sr0 3.567689 1_556
Bi1 Sr0 3.567689 1_444
Bi1 Sr0 3.567689 1_545
O0 Sr1 2.712623 1_455
O0 Sr1 2.712623 1_556
O0 Sr0 2.712623 1_455
O0 Sr0 2.712623 1_556
O1 Sr0 2.712623 1_545
O1 Sr1 2.712623 1_556
O1 Sr1 2.712623 1_545
O1 Sr0 2.712623 1_556
