# generated using pymatgen
data_Cr2CuO4
_symmetry_space_group_name_H-M   'P 1'
_cell_length_a   5.86896584
_cell_length_b   5.86891172
_cell_length_c   5.86895944
_cell_angle_alpha   60.00174438
_cell_angle_beta   60.00201618
_cell_angle_gamma   60.00197678
_symmetry_Int_Tables_number   1
_chemical_formula_structural   Cr2CuO4
_chemical_formula_sum   'Cr4 Cu2 O8'
_cell_volume   142.94998011
_cell_formula_units_Z   2
loop_
 _symmetry_equiv_pos_site_id
 _symmetry_equiv_pos_as_xyz
  1  'x, y, z'
loop_
 _atom_site_type_symbol
 _atom_site_label
 _atom_site_symmetry_multiplicity
 _atom_site_fract_x
 _atom_site_fract_y
 _atom_site_fract_z
 _atom_site_occupancy
  Cr  Cr0  1  0.50000000  0.00000000  0.50000000  1
  Cr  Cr1  1  -0.00000000  0.50000000  0.50000000  1
  Cr  Cr2  1  0.50000000  0.50000000  -0.00000000  1
  Cr  Cr3  1  0.50000000  0.50000000  0.50000000  1
  Cu  Cu0  1  0.87499659  0.87500406  0.87500272  1
  Cu  Cu1  1  0.12500341  0.12499594  0.12499728  1
  O  O0  1  0.73708713  0.73711436  0.73710686  1
  O  O1  1  0.26291815  0.26289115  0.71130287  1
  O  O2  1  0.26291416  0.71130540  0.26289545  1
  O  O3  1  0.71129438  0.26289944  0.26290802  1
  O  O4  1  0.73708584  0.28869460  0.73710455  1
  O  O5  1  0.28870562  0.73710056  0.73709198  1
  O  O6  1  0.26291287  0.26288564  0.26289314  1
  O  O7  1  0.73708185  0.73710885  0.28869713  1
loop_
_geom_bond_atom_site_label_1
_geom_bond_atom_site_label_2
_geom_bond_distance
_geom_bond_site_symmetry_2
Cr0 O3 1.973731 1_555
Cr0 O5 1.973731 1_545
Cr0 O7 1.973735 1_545
Cr0 O1 1.973735 1_555
Cr0 O6 1.973739 1_555
Cr0 O0 1.973739 1_545
Cr1 O2 1.973842 1_555
Cr1 O4 1.973842 1_455
Cr1 O7 1.973855 1_455
Cr1 O1 1.973855 1_555
Cr1 O6 1.973859 1_555
Cr1 O0 1.973859 1_455
Cr2 O2 1.973766 1_555
Cr2 O4 1.973766 1_554
Cr2 O6 1.973767 1_555
Cr2 O0 1.973767 1_554
Cr2 O5 1.973777 1_554
Cr2 O3 1.973777 1_555
Cr3 O1 1.973709 1_555
Cr3 O7 1.973709 1_555
Cr3 O4 1.973715 1_555
Cr3 O2 1.973715 1_555
Cr3 O3 1.973726 1_555
Cr3 O5 1.973726 1_555
Cu0 O0 1.982387 1_555
Cu0 O4 1.982429 1_565
Cu0 O7 1.982464 1_556
Cu0 O5 1.982541 1_655
Cu1 O6 1.982387 1_555
Cu1 O2 1.982429 1_545
Cu1 O1 1.982464 1_554
Cu1 O3 1.982541 1_455
