# generated using pymatgen
data_KMn5(SeO3)6
_symmetry_space_group_name_H-M   'P 1'
_cell_length_a   10.43598625
_cell_length_b   10.43598625
_cell_length_c   9.76410826
_cell_angle_alpha   88.78250834
_cell_angle_beta   88.78250834
_cell_angle_gamma   60.00242015
_symmetry_Int_Tables_number   1
_chemical_formula_structural   KMn5(SeO3)6
_chemical_formula_sum   'K2 Mn10 Se12 O36'
_cell_volume   920.68284412
_cell_formula_units_Z   2
loop_
 _symmetry_equiv_pos_site_id
 _symmetry_equiv_pos_as_xyz
  1  'x, y, z'
loop_
 _atom_site_type_symbol
 _atom_site_label
 _atom_site_symmetry_multiplicity
 _atom_site_fract_x
 _atom_site_fract_y
 _atom_site_fract_z
 _atom_site_occupancy
  K  K0  1  0.99963900  0.00036100  0.75000000  1
  K  K1  1  0.00036100  0.99963900  0.25000000  1
  Mn  Mn0  1  0.33081500  0.33192000  0.16670600  1
  Mn  Mn1  1  0.62442900  0.00140500  0.24928000  1
  Mn  Mn2  1  0.37557100  0.99859500  0.75072000  1
  Mn  Mn3  1  0.99859500  0.37557100  0.25072000  1
  Mn  Mn4  1  0.38653100  0.61346900  0.25000000  1
  Mn  Mn5  1  0.00140500  0.62442900  0.74928000  1
  Mn  Mn6  1  0.66808000  0.66918500  0.33329400  1
  Mn  Mn7  1  0.66918500  0.66808000  0.83329400  1
  Mn  Mn8  1  0.33192000  0.33081500  0.66670600  1
  Mn  Mn9  1  0.61346900  0.38653100  0.75000000  1
  Se  Se0  1  0.30535100  0.08064400  0.41689100  1
  Se  Se1  1  0.31182500  0.61371600  0.91577600  1
  Se  Se2  1  0.08064400  0.30535100  0.91689100  1
  Se  Se3  1  0.69464900  0.91935600  0.58310900  1
  Se  Se4  1  0.61264500  0.08886400  0.91099400  1
  Se  Se5  1  0.38628400  0.68817500  0.58422400  1
  Se  Se6  1  0.91113600  0.38735500  0.58900600  1
  Se  Se7  1  0.61371600  0.31182500  0.41577600  1
  Se  Se8  1  0.38735500  0.91113600  0.08900600  1
  Se  Se9  1  0.91935600  0.69464900  0.08310900  1
  Se  Se10  1  0.68817500  0.38628400  0.08422400  1
  Se  Se11  1  0.08886400  0.61264500  0.41099400  1
  O  O0  1  0.45910200  0.14747600  0.81094200  1
  O  O1  1  0.84190900  0.69635100  0.92531000  1
  O  O2  1  0.39281600  0.15098600  0.31118700  1
  O  O3  1  0.45307800  0.40518900  0.31146200  1
  O  O4  1  0.86522700  0.30400200  0.14243300  1
  O  O5  1  0.31182400  0.53171100  0.07242300  1
  O  O6  1  0.69363600  0.19165300  0.84873300  1
  O  O7  1  0.17177800  0.12419100  0.86414100  1
  O  O8  1  0.60718400  0.84901400  0.68881300  1
  O  O9  1  0.30400200  0.86522700  0.64243300  1
  O  O10  1  0.46828900  0.68817600  0.42757700  1
  O  O11  1  0.82822200  0.87580900  0.13585900  1
  O  O12  1  0.40518900  0.45307800  0.81146200  1
  O  O13  1  0.15098600  0.39281600  0.81118700  1
  O  O14  1  0.46449400  0.83845100  0.93031600  1
  O  O15  1  0.83845100  0.46449400  0.43031600  1
  O  O16  1  0.54089800  0.85252400  0.18905800  1
  O  O17  1  0.15809100  0.30364900  0.07469000  1
  O  O18  1  0.85252400  0.54089800  0.68905800  1
  O  O19  1  0.53550600  0.16154900  0.06968400  1
  O  O20  1  0.69599800  0.13477300  0.35756700  1
  O  O21  1  0.30636400  0.80834700  0.15126700  1
  O  O22  1  0.59481100  0.54692200  0.18853800  1
  O  O23  1  0.80834700  0.30636400  0.65126700  1
  O  O24  1  0.19165300  0.69363600  0.34873300  1
  O  O25  1  0.16154900  0.53550600  0.56968400  1
  O  O26  1  0.84901400  0.60718400  0.18881300  1
  O  O27  1  0.30364900  0.15809100  0.57469000  1
  O  O28  1  0.53171100  0.31182400  0.57242300  1
  O  O29  1  0.54692200  0.59481100  0.68853800  1
  O  O30  1  0.12419100  0.17177800  0.36414100  1
  O  O31  1  0.87580900  0.82822200  0.63585900  1
  O  O32  1  0.13477300  0.69599800  0.85756700  1
  O  O33  1  0.14747600  0.45910200  0.31094200  1
  O  O34  1  0.69635100  0.84190900  0.42531000  1
  O  O35  1  0.68817600  0.46828900  0.92757700  1
loop_
_geom_bond_atom_site_label_1
_geom_bond_atom_site_label_2
_geom_bond_distance
_geom_bond_site_symmetry_2
K0 O31 2.933754 1_545
K0 O7 2.933754 1_655
K0 O32 2.936507 1_645
K0 O9 2.936507 1_645
K0 O23 2.947717 1_555
K0 O6 2.947717 1_555
K1 O11 2.933754 1_455
K1 O30 2.933754 1_565
K1 O20 2.936507 1_465
K1 O4 2.936507 1_465
K1 O21 2.947717 1_555
K1 O24 2.947717 1_555
Mn0 O2 2.162899 1_555
Mn0 O5 2.178771 1_555
Mn0 O17 2.180665 1_555
Mn0 O19 2.193088 1_555
Mn0 O33 2.198062 1_555
Mn0 O3 2.304024 1_555
Mn1 O11 2.154489 1_545
Mn1 O20 2.179113 1_555
Mn1 O2 2.202207 1_555
Mn1 O16 2.221406 1_545
Mn1 O34 2.229824 1_545
Mn1 O19 2.263446 1_555
Mn2 O7 2.154489 1_565
Mn2 O9 2.179113 1_555
Mn2 O8 2.202207 1_555
Mn2 O0 2.221406 1_565
Mn2 O27 2.229824 1_565
Mn2 O14 2.263446 1_555
Mn3 O30 2.154489 1_655
Mn3 O4 2.179113 1_555
Mn3 O26 2.202207 1_555
Mn3 O33 2.221406 1_655
Mn3 O17 2.229824 1_655
Mn3 O15 2.263446 1_555
Mn4 O24 2.003754 1_555
Mn4 O21 2.003754 1_555
Mn4 O3 2.004963 1_555
Mn4 O22 2.004963 1_555
Mn4 O5 2.264432 1_555
Mn4 O10 2.264432 1_555
Mn5 O31 2.154489 1_455
Mn5 O32 2.179113 1_555
Mn5 O13 2.202207 1_555
Mn5 O18 2.221406 1_455
Mn5 O1 2.229824 1_455
Mn5 O25 2.263446 1_555
Mn6 O26 2.162899 1_555
Mn6 O10 2.178771 1_555
Mn6 O34 2.180665 1_555
Mn6 O15 2.193088 1_555
Mn6 O16 2.198062 1_555
Mn6 O22 2.304024 1_555
Mn7 O8 2.162899 1_555
Mn7 O35 2.178771 1_555
Mn7 O1 2.180665 1_555
Mn7 O14 2.193088 1_555
Mn7 O18 2.198062 1_555
Mn7 O29 2.304024 1_555
Mn8 O13 2.162899 1_555
Mn8 O28 2.178771 1_555
Mn8 O27 2.180665 1_555
Mn8 O25 2.193088 1_555
Mn8 O0 2.198062 1_555
Mn8 O12 2.304024 1_555
Mn9 O6 2.003754 1_555
Mn9 O23 2.003754 1_555
Mn9 O12 2.004963 1_555
Mn9 O29 2.004963 1_555
Mn9 O28 2.264432 1_555
Mn9 O35 2.264432 1_555
O0 Se4 1.719646 1_555
O1 Se9 1.750692 1_556
O2 Se0 1.742149 1_555
O3 Se7 1.787240 1_555
O4 Se10 1.706403 1_555
O5 Se1 1.736723 1_554
O6 Se4 1.758330 1_555
O7 Se2 1.722423 1_555
O8 Se3 1.742149 1_555
O9 Se5 1.706403 1_555
O10 Se5 1.736723 1_555
O11 Se9 1.722423 1_555
O12 Se1 1.787240 1_555
O13 Se2 1.742149 1_555
O14 Se8 1.735117 1_556
O15 Se6 1.735117 1_555
O16 Se8 1.719646 1_555
O17 Se2 1.750692 1_554
O18 Se6 1.719646 1_555
O19 Se4 1.735117 1_554
O20 Se7 1.706403 1_555
O21 Se8 1.758330 1_555
O22 Se10 1.787240 1_555
O23 Se6 1.758330 1_555
O24 Se11 1.758330 1_555
O25 Se11 1.735117 1_555
O26 Se9 1.742149 1_555
O27 Se0 1.750692 1_555
O28 Se7 1.736723 1_555
O29 Se5 1.787240 1_555
O30 Se0 1.722423 1_555
O31 Se3 1.722423 1_555
O32 Se1 1.706403 1_555
O33 Se11 1.719646 1_555
O34 Se3 1.750692 1_555
O35 Se10 1.736723 1_556
