# generated using pymatgen
data_Li2TeS3
_symmetry_space_group_name_H-M   'P 1'
_cell_length_a   11.51506732
_cell_length_b   5.39049373
_cell_length_c   7.86950775
_cell_angle_alpha   88.50643025
_cell_angle_beta   90.00000000
_cell_angle_gamma   90.00000000
_symmetry_Int_Tables_number   1
_chemical_formula_structural   Li2TeS3
_chemical_formula_sum   'Li8 Te4 S12'
_cell_volume   488.30932724
_cell_formula_units_Z   4
loop_
 _symmetry_equiv_pos_site_id
 _symmetry_equiv_pos_as_xyz
  1  'x, y, z'
loop_
 _atom_site_type_symbol
 _atom_site_label
 _atom_site_symmetry_multiplicity
 _atom_site_fract_x
 _atom_site_fract_y
 _atom_site_fract_z
 _atom_site_occupancy
  Li  Li0  1  0.72864124  0.25912211  0.64557760  1
  Li  Li1  1  0.77135876  0.25912211  0.14557760  1
  Li  Li2  1  0.27135876  0.74087789  0.35442240  1
  Li  Li3  1  0.22864124  0.74087789  0.85442240  1
  Li  Li4  1  0.58684058  0.76041471  0.86958082  1
  Li  Li5  1  0.91315942  0.76041471  0.36958082  1
  Li  Li6  1  0.41315942  0.23958529  0.13041918  1
  Li  Li7  1  0.08684058  0.23958529  0.63041918  1
  Te  Te0  1  0.91316832  0.71905080  0.81672096  1
  Te  Te1  1  0.08683168  0.28094920  0.18327904  1
  Te  Te2  1  0.41316832  0.28094920  0.68327904  1
  Te  Te3  1  0.58683168  0.71905080  0.31672096  1
  S  S0  1  0.40226356  0.71899079  0.63658751  1
  S  S1  1  0.09773644  0.71899079  0.13658751  1
  S  S2  1  0.42706088  0.74506120  0.12998252  1
  S  S3  1  0.57293912  0.25493880  0.87001748  1
  S  S4  1  0.74444263  0.76823057  0.12231853  1
  S  S5  1  0.25555737  0.23176943  0.87768147  1
  S  S6  1  0.59773644  0.28100921  0.36341249  1
  S  S7  1  0.90226356  0.28100921  0.86341249  1
  S  S8  1  0.07293912  0.74506120  0.62998252  1
  S  S9  1  0.92706088  0.25493880  0.37001748  1
  S  S10  1  0.75555737  0.76823057  0.62231853  1
  S  S11  1  0.24444263  0.23176943  0.37768147  1
loop_
_geom_bond_atom_site_label_1
_geom_bond_atom_site_label_2
_geom_bond_distance
_geom_bond_site_symmetry_2
Li0 S3 2.516460 1_555
Li0 S7 2.638223 1_555
Li0 S10 2.675241 1_545
Li0 S6 2.683854 1_555
Li0 S10 2.763117 1_555
Li1 S9 2.516460 1_555
Li1 S6 2.638223 1_555
Li1 S4 2.675241 1_545
Li1 S7 2.683854 1_554
Li1 S4 2.763117 1_555
Li2 S2 2.516460 1_555
Li2 S1 2.638223 1_555
Li2 S11 2.675241 1_565
Li2 S0 2.683854 1_555
Li2 S11 2.763117 1_555
Li3 S8 2.516460 1_555
Li3 S0 2.638223 1_555
Li3 S5 2.675241 1_565
Li3 S1 2.683854 1_556
Li3 S5 2.763117 1_555
Li4 S3 2.670623 1_565
Li4 S4 2.693593 1_556
Li4 S3 2.729376 1_555
Li4 S10 2.749214 1_555
Li4 S2 2.753634 1_556
Li4 S0 2.819659 1_555
Li5 S9 2.670623 1_565
Li5 S10 2.693593 1_555
Li5 S9 2.729376 1_555
Li5 S4 2.749214 1_555
Li5 S8 2.753634 1_655
Li5 S1 2.819659 1_655
Li6 S2 2.670623 1_545
Li6 S5 2.693593 1_554
Li6 S2 2.729376 1_555
Li6 S11 2.749214 1_555
Li6 S3 2.753634 1_554
Li6 S6 2.819659 1_555
Li7 S8 2.670623 1_545
Li7 S11 2.693593 1_555
Li7 S8 2.729376 1_555
Li7 S5 2.749214 1_555
Li7 S9 2.753634 1_455
Li7 S7 2.819659 1_455
S0 Te2 2.383506 1_555
S1 Te1 2.383506 1_555
S2 Te3 2.356528 1_555
S3 Te2 2.356528 1_555
S4 Te3 2.383998 1_555
S5 Te2 2.383998 1_555
S6 Te3 2.383506 1_555
S7 Te0 2.383506 1_555
S8 Te0 2.356528 1_455
S9 Te1 2.356528 1_655
S10 Te0 2.383998 1_555
S11 Te1 2.383998 1_555
