# generated using pymatgen
data_Al5Mo
_symmetry_space_group_name_H-M   'P 1'
_cell_length_a   4.94101567
_cell_length_b   4.94101567
_cell_length_c   43.98126600
_cell_angle_alpha   90.00000000
_cell_angle_beta   90.00000000
_cell_angle_gamma   119.99999563
_symmetry_Int_Tables_number   1
_chemical_formula_structural   Al5Mo
_chemical_formula_sum   'Al50 Mo10'
_cell_volume   929.88842185
_cell_formula_units_Z   10
loop_
 _symmetry_equiv_pos_site_id
 _symmetry_equiv_pos_as_xyz
  1  'x, y, z'
loop_
 _atom_site_type_symbol
 _atom_site_label
 _atom_site_symmetry_multiplicity
 _atom_site_fract_x
 _atom_site_fract_y
 _atom_site_fract_z
 _atom_site_occupancy
  Al  Al0  1  0.66655300  0.99167700  0.20000300  1
  Al  Al1  1  0.32315200  0.33431200  0.59984700  1
  Al  Al2  1  0.33333300  0.66666700  0.75023200  1
  Al  Al3  1  0.32512400  0.33344700  0.20000300  1
  Al  Al4  1  0.33136100  0.00864600  0.69987300  1
  Al  Al5  1  0.66666700  0.33333300  0.55163200  1
  Al  Al6  1  0.00000000  0.34439000  0.50000000  1
  Al  Al7  1  0.34439000  0.00000000  0.50000000  1
  Al  Al8  1  0.00000000  0.65762600  0.00000000  1
  Al  Al9  1  0.34237400  0.34237400  0.00000000  1
  Al  Al10  1  0.00000000  0.00000000  0.04849700  1
  Al  Al11  1  0.00000000  0.00000000  0.54837200  1
  Al  Al12  1  0.66666700  0.33333300  0.34824300  1
  Al  Al13  1  0.33333300  0.66666700  0.94819900  1
  Al  Al14  1  0.32271500  0.99135400  0.30012700  1
  Al  Al15  1  0.33333300  0.66666700  0.84985600  1
  Al  Al16  1  0.99167700  0.66655300  0.79999700  1
  Al  Al17  1  0.99135400  0.32271500  0.69987300  1
  Al  Al18  1  0.33333300  0.66666700  0.44836800  1
  Al  Al19  1  0.66543400  0.67549000  0.09988600  1
  Al  Al20  1  0.33456600  0.01005600  0.90011400  1
  Al  Al21  1  0.65561000  0.65561000  0.50000000  1
  Al  Al22  1  0.33431200  0.32315200  0.40015300  1
  Al  Al23  1  0.01116000  0.67684800  0.59984700  1
  Al  Al24  1  0.00000000  0.00000000  0.75008000  1
  Al  Al25  1  0.67728500  0.66863900  0.69987300  1
  Al  Al26  1  0.67487600  0.00832300  0.79999700  1
  Al  Al27  1  0.00832300  0.67487600  0.20000300  1
  Al  Al28  1  0.66666700  0.33333300  0.05180100  1
  Al  Al29  1  0.00000000  0.00000000  0.24992000  1
  Al  Al30  1  0.33333300  0.66666700  0.65175700  1
  Al  Al31  1  0.67549000  0.66543400  0.90011400  1
  Al  Al32  1  0.33344700  0.32512400  0.79999700  1
  Al  Al33  1  0.67684800  0.01116000  0.40015300  1
  Al  Al34  1  0.66568800  0.98884000  0.59984700  1
  Al  Al35  1  0.66666700  0.33333300  0.84986900  1
  Al  Al36  1  0.65762600  0.00000000  0.00000000  1
  Al  Al37  1  0.98884000  0.66568800  0.40015300  1
  Al  Al38  1  0.32451000  0.98994400  0.09988600  1
  Al  Al39  1  0.00000000  0.00000000  0.95150300  1
  Al  Al40  1  0.01005600  0.33456600  0.09988600  1
  Al  Al41  1  0.66666700  0.33333300  0.24976800  1
  Al  Al42  1  0.66666700  0.33333300  0.64854200  1
  Al  Al43  1  0.98994400  0.32451000  0.90011400  1
  Al  Al44  1  0.33333300  0.66666700  0.15013100  1
  Al  Al45  1  0.33333300  0.66666700  0.35145800  1
  Al  Al46  1  0.66863900  0.67728500  0.30012700  1
  Al  Al47  1  0.00000000  0.00000000  0.45162800  1
  Al  Al48  1  0.00864600  0.33136100  0.30012700  1
  Al  Al49  1  0.66666700  0.33333300  0.15014400  1
  Mo  Mo0  1  0.66666700  0.33333300  0.74921800  1
  Mo  Mo1  1  0.66666700  0.33333300  0.45024300  1
  Mo  Mo2  1  0.00000000  0.00000000  0.35098600  1
  Mo  Mo3  1  0.33333300  0.66666700  0.04929200  1
  Mo  Mo4  1  0.00000000  0.00000000  0.14934700  1
  Mo  Mo5  1  0.33333300  0.66666700  0.54975700  1
  Mo  Mo6  1  0.33333300  0.66666700  0.25078200  1
  Mo  Mo7  1  0.00000000  0.00000000  0.85065300  1
  Mo  Mo8  1  0.00000000  0.00000000  0.64901400  1
  Mo  Mo9  1  0.66666700  0.33333300  0.95070800  1
loop_
_geom_bond_atom_site_label_1
_geom_bond_atom_site_label_2
_geom_bond_distance
_geom_bond_site_symmetry_2
Al0 Al44 2.730712 1_555
Al0 Al29 2.732810 1_665
Al0 Mo4 2.758989 1_665
Al0 Mo6 2.762857 1_555
Al0 Al41 2.763938 1_565
Al0 Al49 2.767213 1_565
Al0 Al27 2.817253 1_555
Al0 Al3 2.817253 1_555
Al0 Al27 2.818730 1_655
Al0 Al3 2.818730 1_665
Al0 Al3 2.923439 1_565
Al0 Al27 2.923440 1_665
Al1 Mo8 2.704926 1_555
Al1 Al5 2.717695 1_555
Al1 Mo5 2.733121 1_555
Al1 Al42 2.734199 1_555
Al1 Al11 2.786743 1_555
Al1 Al30 2.798043 1_555
Al2 Al26 2.763940 1_565
Al2 Al32 2.763941 1_555
Al2 Al4 2.788781 1_565
Al2 Al25 2.788784 1_555
Al2 Al24 2.852702 1_565
Al2 Al24 2.852706 1_665
Al2 Al24 2.852706 1_555
Al2 Mo0 2.853043 1_455
Al2 Mo0 2.853043 1_565
Al2 Mo0 2.853051 1_555
Al3 Al44 2.730714 1_555
Al3 Mo4 2.758989 1_555
Al3 Mo6 2.762858 1_555
Al3 Al41 2.763941 1_555
Al3 Al49 2.767216 1_555
Al4 Mo0 2.714896 1_555
Al4 Mo8 2.759704 1_555
Al4 Al42 2.785215 1_555
Al5 Al6 2.789685 1_655
Al5 Al7 2.789686 1_555
Al5 Mo5 2.853886 1_545
Al5 Mo5 2.853886 1_655
Al5 Mo5 2.853894 1_555
Al6 Mo1 2.722979 1_455
Al6 Mo5 2.722980 1_555
Al7 Mo5 2.722979 1_545
Al7 Mo1 2.722980 1_555
Al8 Mo3 2.709417 1_555
Al8 Mo9 2.709418 1_454
Al9 Mo3 2.709420 1_555
Al9 Mo9 2.709420 1_554
Al10 Al36 2.722367 1_455
Al10 Al8 2.722367 1_545
Al10 Al9 2.722367 1_555
Al10 Al38 2.785920 1_545
Al10 Al40 2.785920 1_555
Al10 Al19 2.785920 1_445
Al10 Mo3 2.852908 1_545
Al10 Mo3 2.852913 1_445
Al10 Mo3 2.852913 1_555
Al10 Al28 2.856393 1_455
Al10 Al28 2.856397 1_555
Al10 Al28 2.856397 1_445
Al11 Al7 2.724272 1_555
Al11 Al6 2.724272 1_555
Al11 Al21 2.724272 1_445
Al11 Al23 2.786743 1_545
Al11 Al34 2.786743 1_445
Al11 Mo5 2.853344 1_545
Al11 Mo5 2.853349 1_445
Al11 Mo5 2.853349 1_555
Al11 Al5 2.856295 1_455
Al11 Al5 2.856299 1_555
Al11 Al5 2.856299 1_445
Al12 Al48 2.711095 1_655
Al12 Al14 2.711097 1_545
Al12 Al46 2.711099 1_555
Al12 Al33 2.798040 1_555
Al12 Al37 2.798042 1_555
Al12 Al22 2.798043 1_555
Al12 Mo2 2.855244 1_655
Al12 Mo2 2.855248 1_555
Al12 Mo2 2.855248 1_665
Al12 Al45 2.856196 1_545
Al12 Al45 2.856196 1_655
Al12 Al45 2.856205 1_555
Al13 Al20 2.709429 1_565
Al13 Al43 2.709430 1_455
Al13 Al31 2.709432 1_555
Al13 Al8 2.798495 1_556
Al13 Al36 2.798496 1_566
Al13 Al9 2.798498 1_556
Al13 Mo9 2.854827 1_455
Al13 Mo9 2.854827 1_565
Al13 Mo9 2.854836 1_555
Al13 Al39 2.856393 1_565
Al13 Al39 2.856397 1_665
Al13 Al39 2.856397 1_555
Al14 Mo6 2.714895 1_555
Al14 Al29 2.736513 1_565
Al14 Mo2 2.759704 1_565
Al14 Al45 2.785213 1_555
Al14 Al41 2.788782 1_565
Al15 Al16 2.767213 1_455
Al15 Al26 2.767215 1_565
Al15 Al32 2.767216 1_555
Al15 Al20 2.784668 1_565
Al15 Al43 2.784669 1_455
Al15 Al31 2.784671 1_555
Al15 Al35 2.852694 1_455
Al15 Al35 2.852694 1_565
Al15 Al35 2.852702 1_555
Al15 Mo7 2.852909 1_565
Al15 Mo7 2.852914 1_665
Al15 Mo7 2.852914 1_555
Al16 Al35 2.730712 1_555
Al16 Al24 2.732810 1_665
Al16 Mo7 2.758989 1_665
Al16 Mo0 2.762857 1_555
Al16 Al2 2.763938 1_655
Al16 Al26 2.817253 1_555
Al16 Al32 2.817253 1_555
Al16 Al26 2.818730 1_565
Al16 Al32 2.818730 1_665
Al16 Al32 2.923439 1_655
Al16 Al26 2.923440 1_665
Al17 Al30 2.711097 1_655
Al17 Mo0 2.714895 1_555
Al17 Al24 2.736513 1_655
Al17 Mo8 2.759704 1_655
Al17 Al42 2.785213 1_555
Al17 Al2 2.788782 1_655
Al18 Al37 2.717692 1_455
Al18 Al33 2.717694 1_565
Al18 Al22 2.717695 1_555
Al18 Al7 2.789685 1_565
Al18 Al6 2.789686 1_555
Al18 Al21 2.789688 1_555
Al18 Mo1 2.853886 1_455
Al18 Mo1 2.853886 1_565
Al18 Mo1 2.853894 1_555
Al18 Al47 2.856295 1_565
Al18 Al47 2.856299 1_665
Al18 Al47 2.856299 1_555
Al19 Al28 2.709432 1_555
Al19 Mo4 2.717579 1_665
Al19 Al44 2.739773 1_555
Al19 Mo3 2.752169 1_555
Al19 Al49 2.784671 1_555
Al20 Mo7 2.717579 1_555
Al20 Al35 2.739772 1_555
Al20 Mo9 2.752168 1_555
Al20 Al39 2.785920 1_555
Al21 Mo5 2.722982 1_555
Al21 Mo1 2.722982 1_555
Al21 Al47 2.724272 1_665
Al21 Al5 2.789688 1_555
Al22 Mo2 2.704926 1_555
Al22 Mo1 2.733121 1_555
Al22 Al45 2.734199 1_555
Al22 Al47 2.786743 1_555
Al23 Mo8 2.704926 1_565
Al23 Al5 2.717694 1_455
Al23 Mo5 2.733118 1_555
Al23 Al42 2.734198 1_455
Al23 Al30 2.798040 1_555
Al24 Al26 2.732810 1_455
Al24 Al32 2.732810 1_555
Al24 Al4 2.736513 1_555
Al24 Al25 2.736513 1_445
Al24 Mo0 2.852946 1_455
Al24 Mo0 2.852950 1_555
Al24 Mo0 2.852950 1_445
Al25 Al30 2.711099 1_555
Al25 Mo0 2.714898 1_555
Al25 Mo8 2.759705 1_665
Al25 Al42 2.785216 1_555
Al26 Al35 2.730711 1_555
Al26 Mo7 2.758989 1_655
Al26 Mo0 2.762855 1_555
Al26 Al32 2.817253 1_555
Al26 Al32 2.818730 1_655
Al26 Al32 2.923440 1_545
Al27 Al44 2.730711 1_555
Al27 Al29 2.732810 1_565
Al27 Mo4 2.758989 1_565
Al27 Mo6 2.762855 1_555
Al27 Al41 2.763940 1_455
Al27 Al49 2.767215 1_455
Al27 Al3 2.817253 1_555
Al27 Al3 2.818730 1_565
Al27 Al3 2.923440 1_455
Al28 Al40 2.709429 1_655
Al28 Al38 2.709430 1_545
Al28 Al36 2.798495 1_555
Al28 Al8 2.798496 1_655
Al28 Al9 2.798498 1_555
Al28 Mo3 2.854827 1_545
Al28 Mo3 2.854827 1_655
Al28 Mo3 2.854836 1_555
Al29 Al3 2.732810 1_555
Al29 Al48 2.736513 1_555
Al29 Al46 2.736513 1_445
Al29 Al41 2.852702 1_455
Al29 Al41 2.852706 1_555
Al29 Al41 2.852706 1_445
Al29 Mo6 2.852946 1_545
Al29 Mo6 2.852950 1_445
Al29 Mo6 2.852950 1_555
Al30 Al4 2.711095 1_565
Al30 Al34 2.798042 1_555
Al30 Mo8 2.855244 1_565
Al30 Mo8 2.855248 1_665
Al30 Mo8 2.855248 1_555
Al30 Al42 2.856196 1_455
Al30 Al42 2.856196 1_565
Al30 Al42 2.856205 1_555
Al31 Mo7 2.717579 1_665
Al31 Al35 2.739773 1_555
Al31 Mo9 2.752169 1_555
Al31 Al39 2.785920 1_665
Al32 Al35 2.730714 1_555
Al32 Mo7 2.758989 1_555
Al32 Mo0 2.762858 1_555
Al33 Mo2 2.704926 1_655
Al33 Mo1 2.733118 1_555
Al33 Al45 2.734198 1_545
Al33 Al47 2.786743 1_655
Al34 Mo8 2.704926 1_665
Al34 Al5 2.717692 1_565
Al34 Mo5 2.733120 1_555
Al34 Al42 2.734196 1_565
Al35 Al43 2.739771 1_555
Al35 Mo7 2.852902 1_655
Al35 Mo7 2.852907 1_555
Al35 Mo7 2.852907 1_665
Al36 Mo9 2.709417 1_554
Al36 Mo3 2.709418 1_545
Al36 Al39 2.722367 1_654
Al37 Mo2 2.704926 1_665
Al37 Mo1 2.733120 1_555
Al37 Al45 2.734196 1_655
Al37 Al47 2.786743 1_665
Al38 Mo4 2.717579 1_565
Al38 Al44 2.739771 1_555
Al38 Mo3 2.752166 1_555
Al38 Al49 2.784669 1_565
Al39 Al8 2.722367 1_546
Al39 Al9 2.722367 1_556
Al39 Al43 2.785920 1_455
Al39 Mo9 2.852908 1_455
Al39 Mo9 2.852913 1_555
Al39 Mo9 2.852913 1_445
Al40 Mo4 2.717579 1_555
Al40 Al44 2.739772 1_555
Al40 Mo3 2.752168 1_555
Al40 Al49 2.784668 1_455
Al41 Al48 2.788781 1_655
Al41 Al46 2.788784 1_555
Al41 Mo6 2.853043 1_545
Al41 Mo6 2.853043 1_655
Al41 Mo6 2.853051 1_555
Al42 Mo8 2.852769 1_655
Al42 Mo8 2.852774 1_555
Al42 Mo8 2.852774 1_665
Al43 Mo7 2.717579 1_655
Al43 Mo9 2.752166 1_555
Al44 Al49 2.852694 1_455
Al44 Al49 2.852694 1_565
Al44 Al49 2.852702 1_555
Al44 Mo4 2.852902 1_565
Al44 Mo4 2.852907 1_665
Al44 Mo4 2.852907 1_555
Al45 Al48 2.785215 1_555
Al45 Al46 2.785216 1_555
Al45 Mo2 2.852769 1_565
Al45 Mo2 2.852774 1_555
Al45 Mo2 2.852774 1_665
Al46 Mo6 2.714898 1_555
Al46 Mo2 2.759705 1_665
Al47 Al6 2.724272 1_555
Al47 Al7 2.724272 1_555
Al47 Mo1 2.853344 1_455
Al47 Mo1 2.853349 1_555
Al47 Mo1 2.853349 1_445
Al48 Mo6 2.714896 1_555
Al48 Mo2 2.759704 1_555
Al49 Mo4 2.852909 1_655
Al49 Mo4 2.852914 1_555
Al49 Mo4 2.852914 1_665
