# generated using pymatgen
data_Rb3Mo4(P2O11)2
_symmetry_space_group_name_H-M   'P 1'
_cell_length_a   10.27674700
_cell_length_b   10.27674700
_cell_length_c   19.55035600
_cell_angle_alpha   90.00000000
_cell_angle_beta   90.00000000
_cell_angle_gamma   90.00000000
_symmetry_Int_Tables_number   1
_chemical_formula_structural   Rb3Mo4(P2O11)2
_chemical_formula_sum   'Rb12 Mo16 P16 O88'
_cell_volume   2064.74298774
_cell_formula_units_Z   4
loop_
 _symmetry_equiv_pos_site_id
 _symmetry_equiv_pos_as_xyz
  1  'x, y, z'
loop_
 _atom_site_type_symbol
 _atom_site_label
 _atom_site_symmetry_multiplicity
 _atom_site_fract_x
 _atom_site_fract_y
 _atom_site_fract_z
 _atom_site_occupancy
  Rb  Rb0  1  0.11300100  0.00779200  0.12306800  1
  Rb  Rb1  1  0.88699900  0.99220800  0.62306800  1
  Rb  Rb2  1  0.50779200  0.38699900  0.37306800  1
  Rb  Rb3  1  0.49220800  0.61300100  0.87306800  1
  Rb  Rb4  1  0.99220800  0.88699900  0.37693200  1
  Rb  Rb5  1  0.00779200  0.11300100  0.87693200  1
  Rb  Rb6  1  0.38699900  0.50779200  0.62693200  1
  Rb  Rb7  1  0.61300100  0.49220800  0.12693200  1
  Rb  Rb8  1  0.79186400  0.79186400  0.00000000  1
  Rb  Rb9  1  0.20813600  0.20813600  0.50000000  1
  Rb  Rb10  1  0.29186400  0.70813600  0.25000000  1
  Rb  Rb11  1  0.70813600  0.29186400  0.75000000  1
  Mo  Mo0  1  0.48288600  0.13583800  0.18876700  1
  Mo  Mo1  1  0.51711400  0.86416200  0.68876700  1
  Mo  Mo2  1  0.63583800  0.01711400  0.43876700  1
  Mo  Mo3  1  0.36416200  0.98288600  0.93876700  1
  Mo  Mo4  1  0.86416200  0.51711400  0.31123300  1
  Mo  Mo5  1  0.13583800  0.48288600  0.81123300  1
  Mo  Mo6  1  0.01711400  0.63583800  0.56123300  1
  Mo  Mo7  1  0.98288600  0.36416200  0.06123300  1
  Mo  Mo8  1  0.74441800  0.89405000  0.18533900  1
  Mo  Mo9  1  0.25558200  0.10595000  0.68533900  1
  Mo  Mo10  1  0.39405000  0.75558200  0.43533900  1
  Mo  Mo11  1  0.60595000  0.24441800  0.93533900  1
  Mo  Mo12  1  0.10595000  0.25558200  0.31466100  1
  Mo  Mo13  1  0.89405000  0.74441800  0.81466100  1
  Mo  Mo14  1  0.75558200  0.39405000  0.56466100  1
  Mo  Mo15  1  0.24441800  0.60595000  0.06466100  1
  P  P0  1  0.73763200  0.15578400  0.08027600  1
  P  P1  1  0.26236800  0.84421600  0.58027600  1
  P  P2  1  0.65578400  0.76236800  0.33027600  1
  P  P3  1  0.34421600  0.23763200  0.83027600  1
  P  P4  1  0.84421600  0.26236800  0.41972400  1
  P  P5  1  0.15578400  0.73763200  0.91972400  1
  P  P6  1  0.76236800  0.65578400  0.66972400  1
  P  P7  1  0.23763200  0.34421600  0.16972400  1
  P  P8  1  0.45456400  0.85586600  0.08999800  1
  P  P9  1  0.54543600  0.14413400  0.58999800  1
  P  P10  1  0.35586600  0.04543600  0.33999800  1
  P  P11  1  0.64413400  0.95456400  0.83999800  1
  P  P12  1  0.14413400  0.54543600  0.41000200  1
  P  P13  1  0.85586600  0.45456400  0.91000200  1
  P  P14  1  0.04543600  0.35586600  0.66000200  1
  P  P15  1  0.95456400  0.64413400  0.16000200  1
  O  O0  1  0.52229200  0.27194000  0.23643000  1
  O  O1  1  0.47770800  0.72806000  0.73643000  1
  O  O2  1  0.77194000  0.97770800  0.48643000  1
  O  O3  1  0.22806000  0.02229200  0.98643000  1
  O  O4  1  0.72806000  0.47770800  0.26357000  1
  O  O5  1  0.27194000  0.52229200  0.76357000  1
  O  O6  1  0.97770800  0.77194000  0.51357000  1
  O  O7  1  0.02229200  0.22806000  0.01357000  1
  O  O8  1  0.61685600  0.01886700  0.21374100  1
  O  O9  1  0.38314400  0.98113300  0.71374100  1
  O  O10  1  0.51886700  0.88314400  0.46374100  1
  O  O11  1  0.48113300  0.11685600  0.96374100  1
  O  O12  1  0.98113300  0.38314400  0.28625900  1
  O  O13  1  0.01886700  0.61685600  0.78625900  1
  O  O14  1  0.88314400  0.51886700  0.53625900  1
  O  O15  1  0.11685600  0.48113300  0.03625900  1
  O  O16  1  0.59814300  0.18394300  0.10647700  1
  O  O17  1  0.40185700  0.81605700  0.60647700  1
  O  O18  1  0.68394300  0.90185700  0.35647700  1
  O  O19  1  0.31605700  0.09814300  0.85647700  1
  O  O20  1  0.81605700  0.40185700  0.39352300  1
  O  O21  1  0.18394300  0.59814300  0.89352300  1
  O  O22  1  0.90185700  0.68394300  0.64352300  1
  O  O23  1  0.09814300  0.31605700  0.14352300  1
  O  O24  1  0.36303800  0.04925600  0.25999000  1
  O  O25  1  0.63696200  0.95074400  0.75999000  1
  O  O26  1  0.54925600  0.13696200  0.50999000  1
  O  O27  1  0.45074400  0.86303800  0.00999000  1
  O  O28  1  0.95074400  0.63696200  0.24001000  1
  O  O29  1  0.04925600  0.36303800  0.74001000  1
  O  O30  1  0.13696200  0.54925600  0.49001000  1
  O  O31  1  0.86303800  0.45074400  0.99001000  1
  O  O32  1  0.32657700  0.23348000  0.14289600  1
  O  O33  1  0.67342300  0.76652000  0.64289600  1
  O  O34  1  0.73348000  0.17342300  0.39289600  1
  O  O35  1  0.26652000  0.82657700  0.89289600  1
  O  O36  1  0.76652000  0.67342300  0.35710400  1
  O  O37  1  0.23348000  0.32657700  0.85710400  1
  O  O38  1  0.17342300  0.73348000  0.60710400  1
  O  O39  1  0.82657700  0.26652000  0.10710400  1
  O  O40  1  0.40874700  0.98368700  0.12303200  1
  O  O41  1  0.59125300  0.01631300  0.62303200  1
  O  O42  1  0.48368700  0.09125300  0.37303200  1
  O  O43  1  0.51631300  0.90874700  0.87303200  1
  O  O44  1  0.01631300  0.59125300  0.37696800  1
  O  O45  1  0.98368700  0.40874700  0.87696800  1
  O  O46  1  0.09125300  0.48368700  0.62696800  1
  O  O47  1  0.90874700  0.51631300  0.12696800  1
  O  O48  1  0.87422900  0.93344700  0.23675200  1
  O  O49  1  0.12577100  0.06655300  0.73675200  1
  O  O50  1  0.43344700  0.62577100  0.48675200  1
  O  O51  1  0.56655300  0.37422900  0.98675200  1
  O  O52  1  0.06655300  0.12577100  0.26324800  1
  O  O53  1  0.93344700  0.87422900  0.76324800  1
  O  O54  1  0.62577100  0.43344700  0.51324800  1
  O  O55  1  0.37422900  0.56655300  0.01324800  1
  O  O56  1  0.65607800  0.76287800  0.25059300  1
  O  O57  1  0.34392200  0.23712200  0.75059300  1
  O  O58  1  0.26287800  0.84392200  0.50059300  1
  O  O59  1  0.73712200  0.15607800  0.00059300  1
  O  O60  1  0.23712200  0.34392200  0.24940700  1
  O  O61  1  0.76287800  0.65607800  0.74940700  1
  O  O62  1  0.84392200  0.26287800  0.49940700  1
  O  O63  1  0.15607800  0.73712200  0.99940700  1
  O  O64  1  0.85545400  0.75121400  0.13620100  1
  O  O65  1  0.14454600  0.24878600  0.63620100  1
  O  O66  1  0.25121400  0.64454600  0.38620100  1
  O  O67  1  0.74878600  0.35545400  0.88620100  1
  O  O68  1  0.24878600  0.14454600  0.36379900  1
  O  O69  1  0.75121400  0.85545400  0.86379900  1
  O  O70  1  0.64454600  0.25121400  0.61379900  1
  O  O71  1  0.35545400  0.74878600  0.11379900  1
  O  O72  1  0.79023400  0.01978200  0.10316400  1
  O  O73  1  0.20976600  0.98021800  0.60316400  1
  O  O74  1  0.51978200  0.70976600  0.35316400  1
  O  O75  1  0.48021800  0.29023400  0.85316400  1
  O  O76  1  0.98021800  0.20976600  0.39683600  1
  O  O77  1  0.01978200  0.79023400  0.89683600  1
  O  O78  1  0.70976600  0.51978200  0.64683600  1
  O  O79  1  0.29023400  0.48021800  0.14683600  1
  O  O80  1  0.59363400  0.81588600  0.11196000  1
  O  O81  1  0.40636600  0.18411400  0.61196000  1
  O  O82  1  0.31588600  0.90636600  0.36196000  1
  O  O83  1  0.68411400  0.09363400  0.86196000  1
  O  O84  1  0.18411400  0.40636600  0.38804000  1
  O  O85  1  0.81588600  0.59363400  0.88804000  1
  O  O86  1  0.90636600  0.31588600  0.63804000  1
  O  O87  1  0.09363400  0.68411400  0.13804000  1
loop_
_geom_bond_atom_site_label_1
_geom_bond_atom_site_label_2
_geom_bond_distance
_geom_bond_site_symmetry_2
Mo0 O0 1.728764 1_555
Mo0 O8 1.891798 1_555
Mo0 O16 2.058055 1_555
Mo0 O24 2.060957 1_555
Mo0 O32 2.095588 1_555
Mo0 O40 2.162636 1_545
Mo1 O1 1.728764 1_555
Mo1 O9 1.891798 1_555
Mo1 O17 2.058055 1_555
Mo1 O25 2.060957 1_555
Mo1 O33 2.095588 1_555
Mo1 O41 2.162636 1_565
Mo2 O2 1.728764 1_545
Mo2 O10 1.891798 1_545
Mo2 O18 2.058055 1_545
Mo2 O26 2.060957 1_555
Mo2 O34 2.095588 1_555
Mo2 O42 2.162636 1_555
Mo3 O3 1.728764 1_565
Mo3 O11 1.891798 1_565
Mo3 O19 2.058055 1_565
Mo3 O27 2.060957 1_556
Mo3 O35 2.095588 1_555
Mo3 O43 2.162636 1_555
Mo4 O4 1.728764 1_555
Mo4 O12 1.891798 1_555
Mo4 O20 2.058055 1_555
Mo4 O28 2.060957 1_555
Mo4 O36 2.095588 1_555
Mo4 O44 2.162636 1_655
Mo5 O5 1.728764 1_555
Mo5 O13 1.891798 1_555
Mo5 O21 2.058055 1_555
Mo5 O29 2.060957 1_555
Mo5 O37 2.095588 1_555
Mo5 O45 2.162636 1_455
Mo6 O6 1.728764 1_455
Mo6 O14 1.891798 1_455
Mo6 O22 2.058055 1_455
Mo6 O30 2.060957 1_555
Mo6 O38 2.095588 1_555
Mo6 O46 2.162636 1_555
Mo7 O7 1.728764 1_655
Mo7 O15 1.891798 1_655
Mo7 O23 2.058055 1_655
Mo7 O31 2.060957 1_554
Mo7 O39 2.095588 1_555
Mo7 O47 2.162636 1_555
Mo8 O48 1.718686 1_555
Mo8 O8 1.916297 1_565
Mo8 O56 2.066122 1_555
Mo8 O64 2.092764 1_555
Mo8 O72 2.114771 1_565
Mo8 O80 2.259302 1_555
Mo9 O49 1.718686 1_555
Mo9 O9 1.916297 1_545
Mo9 O57 2.066122 1_555
Mo9 O65 2.092764 1_555
Mo9 O73 2.114771 1_545
Mo9 O81 2.259302 1_555
Mo10 O50 1.718686 1_555
Mo10 O10 1.916297 1_555
Mo10 O58 2.066122 1_555
Mo10 O66 2.092764 1_555
Mo10 O74 2.114771 1_555
Mo10 O82 2.259302 1_555
Mo11 O51 1.718686 1_555
Mo11 O11 1.916297 1_555
Mo11 O59 2.066122 1_556
Mo11 O67 2.092764 1_555
Mo11 O75 2.114771 1_555
Mo11 O83 2.259302 1_555
Mo12 O52 1.718686 1_555
Mo12 O12 1.916297 1_455
Mo12 O60 2.066122 1_555
Mo12 O68 2.092764 1_555
Mo12 O76 2.114771 1_455
Mo12 O84 2.259302 1_555
Mo13 O53 1.718686 1_555
Mo13 O13 1.916297 1_655
Mo13 O61 2.066122 1_555
Mo13 O69 2.092764 1_555
Mo13 O77 2.114771 1_655
Mo13 O85 2.259302 1_555
Mo14 O54 1.718686 1_555
Mo14 O14 1.916297 1_555
Mo14 O62 2.066122 1_555
Mo14 O70 2.092764 1_555
Mo14 O78 2.114771 1_555
Mo14 O86 2.259302 1_555
Mo15 O55 1.718686 1_555
Mo15 O15 1.916297 1_555
Mo15 O63 2.066122 1_554
Mo15 O71 2.092764 1_555
Mo15 O79 2.114771 1_555
Mo15 O87 2.259302 1_555
O0 Rb2 2.925117 1_555
O0 Rb7 3.252037 1_555
O1 Rb3 2.925117 1_555
O1 Rb6 3.252037 1_555
O2 Rb1 2.925117 1_555
O2 Rb4 3.252037 1_555
O3 Rb0 2.925117 1_556
O3 Rb5 3.252037 1_555
O4 Rb7 2.925117 1_555
O4 Rb2 3.252037 1_555
O5 Rb6 2.925117 1_555
O5 Rb3 3.252037 1_555
O6 Rb4 2.925117 1_555
O6 Rb1 3.252037 1_555
O7 Rb5 2.925117 1_554
O7 Rb0 3.252037 1_555
O16 P0 1.549527 1_555
O16 Rb7 3.196751 1_555
O17 P1 1.549527 1_555
O17 Rb6 3.196751 1_555
O18 P2 1.549527 1_555
O18 Rb4 3.196751 1_555
O19 P3 1.549527 1_555
O19 Rb5 3.196751 1_555
O20 P4 1.549527 1_555
O20 Rb2 3.196751 1_555
O21 P5 1.549527 1_555
O21 Rb3 3.196751 1_555
O22 P6 1.549527 1_555
O22 Rb1 3.196751 1_555
O23 P7 1.549527 1_555
O23 Rb0 3.196751 1_555
O24 P10 1.566412 1_555
O25 P11 1.566412 1_555
O26 P9 1.566412 1_555
O27 P8 1.566412 1_555
O28 P15 1.566412 1_555
O29 P14 1.566412 1_555
O30 P12 1.566412 1_555
O31 P13 1.566412 1_555
O32 P7 1.551022 1_555
O32 Rb0 3.216681 1_555
O33 P6 1.551022 1_555
O33 Rb1 3.216681 1_555
O34 P4 1.551022 1_555
O34 Rb2 3.216681 1_555
O35 P5 1.551022 1_555
O35 Rb3 3.216681 1_555
O36 P2 1.551022 1_555
O36 Rb4 3.216681 1_555
O37 P3 1.551022 1_555
O37 Rb5 3.216681 1_555
O38 P1 1.551022 1_555
O38 Rb6 3.216681 1_555
O39 P0 1.551022 1_555
O39 Rb7 3.216681 1_555
O40 P8 1.537626 1_555
O40 Rb0 3.049386 1_565
O41 P9 1.537626 1_555
O41 Rb1 3.049386 1_545
O42 P10 1.537626 1_555
O42 Rb2 3.049386 1_555
O43 P11 1.537626 1_555
O43 Rb3 3.049386 1_555
O44 P12 1.537626 1_555
O44 Rb4 3.049386 1_455
O45 P13 1.537626 1_555
O45 Rb5 3.049386 1_655
O46 P14 1.537626 1_555
O46 Rb6 3.049386 1_555
O47 P15 1.537626 1_555
O47 Rb7 3.049386 1_555
O48 Rb4 3.034564 1_555
O48 Rb0 3.397742 1_665
O49 Rb5 3.034564 1_555
O49 Rb1 3.397742 1_445
O50 Rb6 3.034564 1_555
O50 Rb2 3.397742 1_555
O51 Rb7 3.034564 1_556
O51 Rb3 3.397742 1_555
O52 Rb0 3.034564 1_555
O52 Rb4 3.397742 1_445
O53 Rb1 3.034564 1_555
O53 Rb5 3.397742 1_665
O54 Rb2 3.034564 1_555
O54 Rb6 3.397742 1_555
O55 Rb3 3.034564 1_554
O55 Rb7 3.397742 1_555
O56 P2 1.557843 1_555
O57 P3 1.557843 1_555
O58 P1 1.557843 1_555
O59 P0 1.557843 1_555
O60 P7 1.557843 1_555
O61 P6 1.557843 1_555
O62 P4 1.557843 1_555
O63 P5 1.557843 1_555
O64 P15 1.569992 1_555
O64 Rb8 2.773439 1_555
O65 P14 1.569992 1_555
O65 Rb9 2.773439 1_555
O66 P12 1.569992 1_555
O66 Rb10 2.773439 1_555
O67 P13 1.569992 1_555
O67 Rb11 2.773439 1_555
O68 P10 1.569992 1_555
O68 Rb9 2.773439 1_555
O69 P11 1.569992 1_555
O69 Rb8 2.773439 1_556
O70 P9 1.569992 1_555
O70 Rb11 2.773439 1_555
O71 P8 1.569992 1_555
O71 Rb10 2.773439 1_555
O72 P0 1.563937 1_555
O72 Rb8 3.091003 1_545
O72 Rb0 3.342014 1_655
O73 P1 1.563937 1_555
O73 Rb9 3.091003 1_565
O73 Rb1 3.342014 1_455
O74 P2 1.563937 1_555
O74 Rb10 3.091003 1_555
O74 Rb2 3.342014 1_555
O75 P3 1.563937 1_555
O75 Rb11 3.091003 1_555
O75 Rb3 3.342014 1_555
O76 P4 1.563937 1_555
O76 Rb9 3.091003 1_655
O76 Rb4 3.342014 1_545
O77 P5 1.563937 1_555
O77 Rb8 3.091003 1_456
O77 Rb5 3.342014 1_565
O78 P6 1.563937 1_555
O78 Rb11 3.091003 1_555
O78 Rb6 3.342014 1_555
O79 P7 1.563937 1_555
O79 Rb10 3.091003 1_555
O79 Rb7 3.342014 1_555
O80 P8 1.547818 1_555
O80 Rb8 3.000344 1_555
O80 Rb7 3.345137 1_555
O81 P9 1.547818 1_555
O81 Rb9 3.000344 1_555
O81 Rb6 3.345137 1_555
O82 P10 1.547818 1_565
O82 Rb10 3.000344 1_555
O82 Rb4 3.345137 1_455
O83 P11 1.547818 1_545
O83 Rb11 3.000344 1_555
O83 Rb5 3.345137 1_655
O84 P12 1.547818 1_555
O84 Rb9 3.000344 1_555
O84 Rb2 3.345137 1_555
O85 P13 1.547818 1_555
O85 Rb8 3.000344 1_556
O85 Rb3 3.345137 1_555
O86 P14 1.547818 1_655
O86 Rb11 3.000344 1_555
O86 Rb1 3.345137 1_545
O87 P15 1.547818 1_455
O87 Rb10 3.000344 1_555
O87 Rb0 3.345137 1_565
