# generated using pymatgen
data_Na3Mg2P5O16
_symmetry_space_group_name_H-M   'P 1'
_cell_length_a   6.94319100
_cell_length_b   5.24044700
_cell_length_c   18.84087628
_cell_angle_alpha   89.76663331
_cell_angle_beta   90.00000000
_cell_angle_gamma   90.00000000
_symmetry_Int_Tables_number   1
_chemical_formula_structural   Na3Mg2P5O16
_chemical_formula_sum   'Na6 Mg4 P10 O32'
_cell_volume   685.52759408
_cell_formula_units_Z   2
loop_
 _symmetry_equiv_pos_site_id
 _symmetry_equiv_pos_as_xyz
  1  'x, y, z'
loop_
 _atom_site_type_symbol
 _atom_site_label
 _atom_site_symmetry_multiplicity
 _atom_site_fract_x
 _atom_site_fract_y
 _atom_site_fract_z
 _atom_site_occupancy
  Na  Na0  1  0.64812500  0.74773900  0.03236000  1
  Na  Na1  1  0.03422400  0.50000000  0.75000000  1
  Na  Na2  1  0.35187500  0.25226100  0.96764000  1
  Na  Na3  1  0.35187500  0.74773900  0.53236000  1
  Na  Na4  1  0.96577600  0.50000000  0.25000000  1
  Na  Na5  1  0.64812500  0.25226100  0.46764000  1
  Mg  Mg0  1  0.17786200  0.73136800  0.09197900  1
  Mg  Mg1  1  0.17786200  0.26863200  0.40802100  1
  Mg  Mg2  1  0.82213800  0.26863200  0.90802100  1
  Mg  Mg3  1  0.82213800  0.73136800  0.59197900  1
  P  P0  1  0.74056600  0.00000000  0.75000000  1
  P  P1  1  0.25943400  0.00000000  0.25000000  1
  P  P2  1  0.47438200  0.24216200  0.13001900  1
  P  P3  1  0.47438200  0.75783800  0.36998100  1
  P  P4  1  0.87770000  0.77175400  0.41704900  1
  P  P5  1  0.52561800  0.75783800  0.86998100  1
  P  P6  1  0.12230000  0.77175400  0.91704900  1
  P  P7  1  0.12230000  0.22824600  0.58295100  1
  P  P8  1  0.52561800  0.24216200  0.63001900  1
  P  P9  1  0.87770000  0.22824600  0.08295100  1
  O  O0  1  0.39862200  0.03663100  0.08102000  1
  O  O1  1  0.60137800  0.96336900  0.91898000  1
  O  O2  1  0.60137800  0.03663100  0.58102000  1
  O  O3  1  0.70043100  0.78665000  0.35627700  1
  O  O4  1  0.39862200  0.96336900  0.41898000  1
  O  O5  1  0.59585800  0.80776700  0.78978900  1
  O  O6  1  0.43065300  0.51380500  0.10931400  1
  O  O7  1  0.97820600  0.59609600  0.88093100  1
  O  O8  1  0.14890100  0.16197700  0.30121100  1
  O  O9  1  0.21711100  0.33989500  0.51617000  1
  O  O10  1  0.97820600  0.40390400  0.61906900  1
  O  O11  1  0.02179400  0.59609600  0.38093100  1
  O  O12  1  0.93691600  0.04888500  0.42574500  1
  O  O13  1  0.85109900  0.16197700  0.80121100  1
  O  O14  1  0.21711100  0.66010500  0.98383000  1
  O  O15  1  0.43065300  0.48619500  0.39068600  1
  O  O16  1  0.40414200  0.19223300  0.21021100  1
  O  O17  1  0.93691600  0.95111500  0.07425500  1
  O  O18  1  0.06308400  0.95111500  0.57425500  1
  O  O19  1  0.59585800  0.19223300  0.71021100  1
  O  O20  1  0.78288900  0.33989500  0.01617000  1
  O  O21  1  0.14890100  0.83802300  0.19878900  1
  O  O22  1  0.29956900  0.78665000  0.85627700  1
  O  O23  1  0.02179400  0.40390400  0.11906900  1
  O  O24  1  0.06308400  0.04888500  0.92574500  1
  O  O25  1  0.56934700  0.48619500  0.89068600  1
  O  O26  1  0.29956900  0.21335000  0.64372300  1
  O  O27  1  0.56934700  0.51380500  0.60931400  1
  O  O28  1  0.78288900  0.66010500  0.48383000  1
  O  O29  1  0.70043100  0.21335000  0.14372300  1
  O  O30  1  0.40414200  0.80776700  0.28978900  1
  O  O31  1  0.85109900  0.83802300  0.69878900  1
loop_
_geom_bond_atom_site_label_1
_geom_bond_atom_site_label_2
_geom_bond_distance
_geom_bond_site_symmetry_2
Na0 O20 2.354116 1_555
Na0 O17 2.405483 1_555
Na0 O6 2.422911 1_555
Na0 O1 2.434304 1_554
Na0 O0 2.478873 1_565
Na1 O13 2.381491 1_455
Na1 O31 2.381491 1_455
Na1 O10 2.549582 1_455
Na1 O7 2.549582 1_455
Na2 O14 2.354116 1_555
Na2 O24 2.405483 1_555
Na2 O25 2.422911 1_555
Na2 O0 2.434304 1_556
Na2 O1 2.478873 1_545
Na3 O9 2.354116 1_555
Na3 O18 2.405483 1_555
Na3 O27 2.422911 1_555
Na3 O4 2.434304 1_555
Na3 O2 2.478873 1_565
Na4 O8 2.381491 1_655
Na4 O21 2.381491 1_655
Na4 O23 2.549582 1_655
Na4 O11 2.549582 1_655
Na5 O28 2.354116 1_555
Na5 O12 2.405483 1_555
Na5 O15 2.422911 1_555
Na5 O2 2.434304 1_555
Na5 O4 2.478873 1_545
Mg0 O17 2.057476 1_455
Mg0 O14 2.090892 1_554
Mg0 O23 2.091037 1_555
Mg0 O21 2.100409 1_555
Mg0 O6 2.117586 1_555
Mg0 O0 2.224509 1_565
Mg1 O12 2.057476 1_455
Mg1 O9 2.090892 1_555
Mg1 O11 2.091037 1_555
Mg1 O8 2.100409 1_555
Mg1 O15 2.117586 1_555
Mg1 O4 2.224509 1_545
Mg2 O24 2.057476 1_655
Mg2 O20 2.090892 1_556
Mg2 O7 2.091037 1_555
Mg2 O13 2.100409 1_555
Mg2 O25 2.117586 1_555
Mg2 O1 2.224509 1_545
Mg3 O18 2.057476 1_655
Mg3 O28 2.090892 1_555
Mg3 O10 2.091037 1_555
Mg3 O31 2.100409 1_555
Mg3 O27 2.117586 1_555
Mg3 O2 2.224509 1_565
O0 P2 1.515635 1_555
O1 P5 1.515635 1_555
O2 P8 1.515635 1_555
O3 P3 1.597648 1_555
O3 P4 1.682642 1_555
O4 P3 1.515635 1_555
O5 P0 1.606287 1_565
O5 P5 1.608062 1_555
O6 P2 1.505416 1_555
O7 P6 1.522002 1_655
O8 P1 1.499041 1_555
O9 P7 1.533877 1_555
O10 P7 1.522002 1_655
O11 P4 1.522002 1_455
O12 P4 1.518872 1_545
O13 P0 1.499041 1_555
O14 P6 1.533877 1_555
O15 P3 1.505416 1_555
O16 P1 1.606287 1_555
O16 P2 1.608062 1_555
O17 P9 1.518872 1_565
O18 P7 1.518872 1_565
O19 P0 1.606287 1_555
O19 P8 1.608062 1_555
O20 P9 1.533877 1_555
O21 P1 1.499041 1_565
O22 P5 1.597648 1_555
O22 P6 1.682642 1_555
O23 P9 1.522002 1_455
O24 P6 1.518872 1_545
O25 P5 1.505416 1_555
O26 P8 1.597648 1_555
O26 P7 1.682642 1_555
O27 P8 1.505416 1_555
O28 P4 1.533877 1_555
O29 P2 1.597648 1_555
O29 P9 1.682642 1_555
O30 P1 1.606287 1_565
O30 P3 1.608062 1_555
O31 P0 1.499041 1_565
