# generated using pymatgen
data_CsSbS2
_symmetry_space_group_name_H-M   'P 1'
_cell_length_a   7.14592113
_cell_length_b   7.73647956
_cell_length_c   9.93258973
_cell_angle_alpha   90.00000000
_cell_angle_beta   90.00000000
_cell_angle_gamma   102.13707007
_symmetry_Int_Tables_number   1
_chemical_formula_structural   CsSbS2
_chemical_formula_sum   'Cs4 Sb4 S8'
_cell_volume   536.84183488
_cell_formula_units_Z   4
loop_
 _symmetry_equiv_pos_site_id
 _symmetry_equiv_pos_as_xyz
  1  'x, y, z'
loop_
 _atom_site_type_symbol
 _atom_site_label
 _atom_site_symmetry_multiplicity
 _atom_site_fract_x
 _atom_site_fract_y
 _atom_site_fract_z
 _atom_site_occupancy
  Cs  Cs0  1  0.21198612  0.34749939  0.42976159  1
  Cs  Cs1  1  0.71198612  0.34749939  0.07023841  1
  Cs  Cs2  1  0.78801388  0.65250061  0.57023841  1
  Cs  Cs3  1  0.28801388  0.65250061  0.92976159  1
  Sb  Sb0  1  0.85839031  0.90492623  0.16582022  1
  Sb  Sb1  1  0.14160969  0.09507377  0.83417978  1
  Sb  Sb2  1  0.35839031  0.90492623  0.33417978  1
  Sb  Sb3  1  0.64160969  0.09507377  0.66582022  1
  S  S0  1  0.45194632  0.30759241  0.74502814  1
  S  S1  1  0.04805368  0.69240759  0.24502714  1
  S  S2  1  0.30353267  0.81500617  0.56323380  1
  S  S3  1  0.19646733  0.18499383  0.06323380  1
  S  S4  1  0.95194632  0.30759241  0.75497186  1
  S  S5  1  0.54805368  0.69240759  0.25497186  1
  S  S6  1  0.80353267  0.81500617  0.93676620  1
  S  S7  1  0.69646733  0.18499383  0.43676620  1
loop_
_geom_bond_atom_site_label_1
_geom_bond_atom_site_label_2
_geom_bond_distance
_geom_bond_site_symmetry_2
Cs0 S0 3.614417 1_555
Cs0 S1 3.629570 1_555
Cs0 S5 3.634136 1_555
Cs0 S7 3.634380 1_455
Cs0 S4 3.706904 1_455
Cs0 S2 3.777858 1_555
Cs0 S3 3.845520 1_555
Cs0 Sb2 3.902001 1_545
Cs0 S7 3.924488 1_555
Cs1 S4 3.614417 1_554
Cs1 S5 3.629565 1_555
Cs1 S1 3.634131 1_655
Cs1 S3 3.634380 1_555
Cs1 S0 3.706904 1_554
Cs1 S6 3.777858 1_554
Cs1 S7 3.845520 1_555
Cs1 Sb0 3.902001 1_545
Cs1 S3 3.924488 1_655
Cs2 S5 3.614417 1_555
Cs2 S4 3.629565 1_555
Cs2 S0 3.634136 1_555
Cs2 S2 3.634380 1_655
Cs2 S1 3.706912 1_655
Cs2 S7 3.777858 1_555
Cs2 S6 3.845520 1_555
Cs2 Sb3 3.902001 1_565
Cs2 S2 3.924488 1_555
Cs3 S1 3.614408 1_556
Cs3 S0 3.629565 1_555
Cs3 S4 3.634136 1_455
Cs3 S6 3.634380 1_555
Cs3 S5 3.706904 1_556
Cs3 S3 3.777858 1_556
Cs3 S2 3.845520 1_555
Cs3 Sb1 3.902001 1_565
Cs3 S6 3.924488 1_455
S0 Sb3 2.469026 1_555
S0 Sb1 2.621463 1_555
S1 Sb0 2.469023 1_455
S1 Sb2 2.621466 1_555
S2 Sb2 2.387263 1_555
S2 Sb3 3.060768 1_565
S3 Sb1 2.387263 1_554
S3 Sb0 3.060768 1_445
S4 Sb1 2.469026 1_655
S4 Sb3 2.621463 1_555
S5 Sb2 2.469026 1_555
S5 Sb0 2.621463 1_555
S6 Sb0 2.387263 1_556
S6 Sb1 3.060768 1_665
S7 Sb3 2.387263 1_555
S7 Sb2 3.060768 1_545
