# generated using pymatgen
data_Si2Ag6O7
_symmetry_space_group_name_H-M   'P 1'
_cell_length_a   5.40097700
_cell_length_b   8.05969200
_cell_length_c   10.77530043
_cell_angle_alpha   65.33943151
_cell_angle_beta   90.00000000
_cell_angle_gamma   90.00000000
_symmetry_Int_Tables_number   1
_chemical_formula_structural   Si2Ag6O7
_chemical_formula_sum   'Si4 Ag12 O14'
_cell_volume   426.27155124
_cell_formula_units_Z   2
loop_
 _symmetry_equiv_pos_site_id
 _symmetry_equiv_pos_as_xyz
  1  'x, y, z'
loop_
 _atom_site_type_symbol
 _atom_site_label
 _atom_site_symmetry_multiplicity
 _atom_site_fract_x
 _atom_site_fract_y
 _atom_site_fract_z
 _atom_site_occupancy
  Si  Si0  1  0.72617700  0.79991100  0.36131300  1
  Si  Si1  1  0.27382300  0.20008900  0.63868700  1
  Si  Si2  1  0.27382300  0.79991100  0.86131300  1
  Si  Si3  1  0.72617700  0.20008900  0.13868700  1
  Ag  Ag0  1  0.68931200  0.68751500  0.10017400  1
  Ag  Ag1  1  0.31068800  0.68751500  0.60017400  1
  Ag  Ag2  1  0.27113500  0.93594700  0.10669500  1
  Ag  Ag3  1  0.31068800  0.31248500  0.89982600  1
  Ag  Ag4  1  0.76538100  0.44659100  0.63699000  1
  Ag  Ag5  1  0.72886500  0.06405300  0.89330500  1
  Ag  Ag6  1  0.23461900  0.55340900  0.36301000  1
  Ag  Ag7  1  0.23461900  0.44659100  0.13699000  1
  Ag  Ag8  1  0.72886500  0.93594700  0.60669500  1
  Ag  Ag9  1  0.68931200  0.31248500  0.39982600  1
  Ag  Ag10  1  0.76538100  0.55340900  0.86301000  1
  Ag  Ag11  1  0.27113500  0.06405300  0.39330500  1
  O  O0  1  0.85084300  0.24519100  0.98767500  1
  O  O1  1  0.83473700  0.00000000  0.25000000  1
  O  O2  1  0.16526300  0.00000000  0.75000000  1
  O  O3  1  0.19204400  0.64321300  0.80987200  1
  O  O4  1  0.85084300  0.75480900  0.51232500  1
  O  O5  1  0.19204400  0.35678700  0.69012800  1
  O  O6  1  0.41878700  0.81278500  0.36868400  1
  O  O7  1  0.80795600  0.35678700  0.19012800  1
  O  O8  1  0.14915700  0.24519100  0.48767500  1
  O  O9  1  0.58121300  0.81278500  0.86868400  1
  O  O10  1  0.58121300  0.18721500  0.63131600  1
  O  O11  1  0.80795600  0.64321300  0.30987200  1
  O  O12  1  0.41878700  0.18721500  0.13131600  1
  O  O13  1  0.14915700  0.75480900  0.01232500  1
loop_
_geom_bond_atom_site_label_1
_geom_bond_atom_site_label_2
_geom_bond_distance
_geom_bond_site_symmetry_2
Ag0 O11 2.229452 1_555
Ag0 O9 2.341061 1_554
Ag0 O7 2.509845 1_555
Ag0 O13 2.632511 1_655
Ag1 O3 2.229452 1_555
Ag1 O6 2.341061 1_555
Ag1 O5 2.509845 1_555
Ag1 O4 2.632511 1_455
Ag2 O13 2.199593 1_555
Ag2 O12 2.292570 1_565
Ag2 O6 2.693000 1_555
Ag3 O5 2.229452 1_555
Ag3 O12 2.341061 1_556
Ag3 O3 2.509845 1_555
Ag3 O0 2.632511 1_455
Ag4 O4 2.324617 1_555
Ag4 O10 2.338792 1_555
Ag4 O5 2.411666 1_655
Ag5 O0 2.199593 1_555
Ag5 O9 2.292570 1_545
Ag5 O10 2.693000 1_555
Ag6 O8 2.324617 1_555
Ag6 O6 2.338792 1_555
Ag6 O11 2.411666 1_455
Ag7 O13 2.324617 1_555
Ag7 O12 2.338792 1_555
Ag7 O7 2.411666 1_455
Ag8 O4 2.199593 1_555
Ag8 O10 2.292570 1_565
Ag8 O9 2.693000 1_555
Ag9 O7 2.229452 1_555
Ag9 O10 2.341061 1_555
Ag9 O11 2.509845 1_555
Ag9 O8 2.632511 1_655
Ag10 O0 2.324617 1_555
Ag10 O9 2.338792 1_555
Ag10 O3 2.411666 1_655
Ag11 O8 2.199593 1_555
Ag11 O6 2.292570 1_545
Ag11 O12 2.693000 1_555
O0 Si3 1.655197 1_556
O1 Si3 1.664019 1_555
O1 Si0 1.664019 1_545
O2 Si1 1.664019 1_555
O2 Si2 1.664019 1_545
O3 Si2 1.637531 1_555
O4 Si0 1.655197 1_555
O5 Si1 1.637531 1_555
O6 Si0 1.667404 1_555
O7 Si3 1.637531 1_555
O8 Si1 1.655197 1_555
O9 Si2 1.667404 1_555
O10 Si1 1.667404 1_555
O11 Si0 1.637531 1_555
O12 Si3 1.667404 1_555
O13 Si2 1.655197 1_554
