# generated using pymatgen
data_Nd2Ti3(ClO4)2
_symmetry_space_group_name_H-M   'P 1'
_cell_length_a   5.05581700
_cell_length_b   11.66970700
_cell_length_c   14.98365600
_cell_angle_alpha   90.00000000
_cell_angle_beta   90.00000000
_cell_angle_gamma   90.00000000
_symmetry_Int_Tables_number   1
_chemical_formula_structural   Nd2Ti3(ClO4)2
_chemical_formula_sum   'Nd8 Ti12 Cl8 O32'
_cell_volume   884.03425112
_cell_formula_units_Z   4
loop_
 _symmetry_equiv_pos_site_id
 _symmetry_equiv_pos_as_xyz
  1  'x, y, z'
loop_
 _atom_site_type_symbol
 _atom_site_label
 _atom_site_symmetry_multiplicity
 _atom_site_fract_x
 _atom_site_fract_y
 _atom_site_fract_z
 _atom_site_occupancy
  Nd  Nd0  1  0.02170600  0.36279400  0.33656900  1
  Nd  Nd1  1  0.47829400  0.36279400  0.66343100  1
  Nd  Nd2  1  0.47829400  0.86279400  0.83656900  1
  Nd  Nd3  1  0.52170600  0.13720600  0.16343100  1
  Nd  Nd4  1  0.97829400  0.13720600  0.83656900  1
  Nd  Nd5  1  0.97829400  0.63720600  0.66343100  1
  Nd  Nd6  1  0.02170600  0.86279400  0.16343100  1
  Nd  Nd7  1  0.52170600  0.63720600  0.33656900  1
  Ti  Ti0  1  0.75000000  0.09227700  0.50000000  1
  Ti  Ti1  1  0.87184100  0.42286300  0.83772100  1
  Ti  Ti2  1  0.12815900  0.57713700  0.16227900  1
  Ti  Ti3  1  0.12815900  0.07713700  0.33772100  1
  Ti  Ti4  1  0.25000000  0.40772300  0.00000000  1
  Ti  Ti5  1  0.37184100  0.07713700  0.66227900  1
  Ti  Ti6  1  0.25000000  0.90772300  0.50000000  1
  Ti  Ti7  1  0.37184100  0.57713700  0.83772100  1
  Ti  Ti8  1  0.62815900  0.92286300  0.33772100  1
  Ti  Ti9  1  0.62815900  0.42286300  0.16227900  1
  Ti  Ti10  1  0.75000000  0.59227700  0.00000000  1
  Ti  Ti11  1  0.87184100  0.92286300  0.66227900  1
  Cl  Cl0  1  0.01779700  0.60146000  0.42209400  1
  Cl  Cl1  1  0.48220300  0.10146000  0.92209400  1
  Cl  Cl2  1  0.98220300  0.89854000  0.92209400  1
  Cl  Cl3  1  0.48220300  0.60146000  0.57790600  1
  Cl  Cl4  1  0.01779700  0.10146000  0.07790600  1
  Cl  Cl5  1  0.51779700  0.89854000  0.07790600  1
  Cl  Cl6  1  0.51779700  0.39854000  0.42209400  1
  Cl  Cl7  1  0.98220300  0.39854000  0.57790600  1
  O  O0  1  0.06238300  0.04516700  0.57654900  1
  O  O1  1  0.06238300  0.54516700  0.92345100  1
  O  O2  1  0.57446300  0.68304900  0.91879100  1
  O  O3  1  0.42553700  0.81695100  0.41879100  1
  O  O4  1  0.32680500  0.46886000  0.23698000  1
  O  O5  1  0.43761700  0.04516700  0.42345100  1
  O  O6  1  0.75073000  0.79844000  0.72080300  1
  O  O7  1  0.07446300  0.31695100  0.91879100  1
  O  O8  1  0.24927000  0.70156000  0.22080300  1
  O  O9  1  0.17319500  0.96886000  0.73698000  1
  O  O10  1  0.25073000  0.70156000  0.77919700  1
  O  O11  1  0.24927000  0.20156000  0.27919700  1
  O  O12  1  0.17319500  0.46886000  0.76302000  1
  O  O13  1  0.82680500  0.03114000  0.26302000  1
  O  O14  1  0.74927000  0.29844000  0.22080300  1
  O  O15  1  0.43761700  0.54516700  0.07654900  1
  O  O16  1  0.56238300  0.95483300  0.57654900  1
  O  O17  1  0.93761700  0.95483300  0.42345100  1
  O  O18  1  0.92553700  0.18304900  0.41879100  1
  O  O19  1  0.67319500  0.03114000  0.73698000  1
  O  O20  1  0.82680500  0.53114000  0.23698000  1
  O  O21  1  0.56238300  0.45483300  0.92345100  1
  O  O22  1  0.74927000  0.79844000  0.27919700  1
  O  O23  1  0.92553700  0.68304900  0.08120900  1
  O  O24  1  0.42553700  0.31695100  0.08120900  1
  O  O25  1  0.75073000  0.29844000  0.77919700  1
  O  O26  1  0.67319500  0.53114000  0.76302000  1
  O  O27  1  0.93761700  0.45483300  0.07654900  1
  O  O28  1  0.25073000  0.20156000  0.72080300  1
  O  O29  1  0.32680500  0.96886000  0.26302000  1
  O  O30  1  0.57446300  0.18304900  0.58120900  1
  O  O31  1  0.07446300  0.81695100  0.58120900  1
loop_
_geom_bond_atom_site_label_1
_geom_bond_atom_site_label_2
_geom_bond_distance
_geom_bond_site_symmetry_2
Nd0 O14 2.338806 1_455
Nd0 O11 2.367051 1_555
Nd0 O4 2.477522 1_555
Nd0 O18 2.480725 1_455
Nd0 O20 2.656523 1_455
Nd1 O25 2.338806 1_555
Nd1 O28 2.367051 1_555
Nd1 O12 2.477522 1_555
Nd1 O30 2.480725 1_555
Nd1 O26 2.656523 1_555
Nd2 O6 2.338806 1_555
Nd2 O10 2.367051 1_555
Nd2 O9 2.477522 1_555
Nd2 O2 2.480725 1_555
Nd2 O19 2.656523 1_565
Nd3 O11 2.338806 1_555
Nd3 O14 2.367051 1_555
Nd3 O13 2.477522 1_555
Nd3 O24 2.480725 1_555
Nd3 O29 2.656523 1_545
Nd4 O28 2.338806 1_655
Nd4 O25 2.367051 1_555
Nd4 O19 2.477522 1_555
Nd4 O7 2.480725 1_655
Nd4 O9 2.656523 1_645
Nd5 O10 2.338806 1_655
Nd5 O6 2.367051 1_555
Nd5 O26 2.477522 1_555
Nd5 O31 2.480725 1_655
Nd5 O12 2.656523 1_655
Nd6 O22 2.338806 1_455
Nd6 O8 2.367051 1_555
Nd6 O29 2.477522 1_555
Nd6 O23 2.480725 1_455
Nd6 O13 2.656523 1_465
Nd7 O8 2.338806 1_555
Nd7 O22 2.367051 1_555
Nd7 O20 2.477522 1_555
Nd7 O3 2.480725 1_555
Nd7 O4 2.656523 1_555
Cl0 Nd7 2.847277 1_455
Cl0 Nd7 2.882156 1_555
Cl0 Nd0 3.065894 1_555
Cl1 Nd4 2.847277 1_555
Cl1 Nd4 2.882156 1_455
Cl1 Nd2 3.065894 1_545
Cl2 Nd2 2.847277 1_655
Cl2 Nd2 2.882156 1_555
Cl2 Nd4 3.065894 1_565
Cl3 Nd5 2.847277 1_555
Cl3 Nd5 2.882156 1_455
Cl3 Nd1 3.065894 1_555
Cl4 Nd3 2.847277 1_455
Cl4 Nd3 2.882156 1_555
Cl4 Nd6 3.065894 1_545
Cl5 Nd6 2.847277 1_555
Cl5 Nd6 2.882156 1_655
Cl5 Nd3 3.065894 1_565
Cl6 Nd0 2.847277 1_555
Cl6 Nd0 2.882156 1_655
Cl6 Nd7 3.065894 1_555
Cl7 Nd1 2.847277 1_655
Cl7 Nd1 2.882156 1_555
Cl7 Nd5 3.065894 1_555
O0 Ti0 2.027846 1_455
O0 Ti5 2.058425 1_555
O0 Ti11 2.148290 1_445
O0 Ti6 2.188133 1_545
O1 Ti10 2.027846 1_456
O1 Ti7 2.058425 1_555
O1 Ti1 2.148290 1_455
O1 Ti4 2.188133 1_556
O2 Ti10 1.841284 1_556
O2 Ti7 2.013106 1_555
O3 Ti6 1.841284 1_555
O3 Ti8 2.013106 1_555
O4 Ti2 1.964194 1_555
O4 Ti9 1.965266 1_555
O5 Ti0 2.027846 1_555
O5 Ti3 2.058425 1_555
O5 Ti8 2.148290 1_545
O5 Ti6 2.188133 1_545
O6 Ti11 1.803368 1_555
O7 Ti4 1.841284 1_556
O7 Ti1 2.013106 1_455
O8 Ti2 1.803368 1_555
O9 Ti5 1.964194 1_565
O9 Ti11 1.965266 1_455
O10 Ti7 1.803368 1_555
O11 Ti3 1.803368 1_555
O12 Ti7 1.964194 1_555
O12 Ti1 1.965266 1_455
O13 Ti8 1.964194 1_545
O13 Ti3 1.965266 1_655
O14 Ti9 1.803368 1_555
O15 Ti10 2.027846 1_555
O15 Ti2 2.058425 1_555
O15 Ti9 2.148290 1_555
O15 Ti4 2.188133 1_555
O16 Ti6 2.027846 1_555
O16 Ti11 2.058425 1_555
O16 Ti5 2.148290 1_565
O16 Ti0 2.188133 1_565
O17 Ti6 2.027846 1_655
O17 Ti8 2.058425 1_555
O17 Ti3 2.148290 1_665
O17 Ti0 2.188133 1_565
O18 Ti0 1.841284 1_555
O18 Ti3 2.013106 1_655
O19 Ti11 1.964194 1_545
O19 Ti5 1.965266 1_555
O20 Ti9 1.964194 1_555
O20 Ti2 1.965266 1_655
O21 Ti4 2.027846 1_556
O21 Ti1 2.058425 1_555
O21 Ti7 2.148290 1_555
O21 Ti10 2.188133 1_556
O22 Ti8 1.803368 1_555
O23 Ti10 1.841284 1_555
O23 Ti2 2.013106 1_655
O24 Ti4 1.841284 1_555
O24 Ti9 2.013106 1_555
O25 Ti1 1.803368 1_555
O26 Ti1 1.964194 1_555
O26 Ti7 1.965266 1_555
O27 Ti4 2.027846 1_655
O27 Ti9 2.058425 1_555
O27 Ti2 2.148290 1_655
O27 Ti10 2.188133 1_555
O28 Ti5 1.803368 1_555
O29 Ti3 1.964194 1_565
O29 Ti8 1.965266 1_555
O30 Ti0 1.841284 1_555
O30 Ti5 2.013106 1_555
O31 Ti6 1.841284 1_555
O31 Ti11 2.013106 1_455
