# generated using pymatgen
data_Sr3CaRu2O9
_symmetry_space_group_name_H-M   'P 1'
_cell_length_a   5.72960894
_cell_length_b   9.88323284
_cell_length_c   14.04633061
_cell_angle_alpha   89.96275267
_cell_angle_beta   90.00000000
_cell_angle_gamma   90.00000000
_symmetry_Int_Tables_number   1
_chemical_formula_structural   Sr3CaRu2O9
_chemical_formula_sum   'Sr12 Ca4 Ru8 O36'
_cell_volume   795.40222745
_cell_formula_units_Z   4
loop_
 _symmetry_equiv_pos_site_id
 _symmetry_equiv_pos_as_xyz
  1  'x, y, z'
loop_
 _atom_site_type_symbol
 _atom_site_label
 _atom_site_symmetry_multiplicity
 _atom_site_fract_x
 _atom_site_fract_y
 _atom_site_fract_z
 _atom_site_occupancy
  Sr  Sr0  1  0.53230596  0.83255154  0.41724704  1
  Sr  Sr1  1  0.53683285  0.49308603  0.75199564  1
  Sr  Sr2  1  0.96769404  0.33255154  0.41724704  1
  Sr  Sr3  1  0.46654545  0.83252342  0.91238278  1
  Sr  Sr4  1  0.53345455  0.16747658  0.08761722  1
  Sr  Sr5  1  0.03683285  0.00691397  0.24800436  1
  Sr  Sr6  1  0.03345455  0.33252342  0.91238278  1
  Sr  Sr7  1  0.96316715  0.99308603  0.75199564  1
  Sr  Sr8  1  0.46769404  0.16744846  0.58275296  1
  Sr  Sr9  1  0.03230596  0.66744846  0.58275296  1
  Sr  Sr10  1  0.46316715  0.50691397  0.24800436  1
  Sr  Sr11  1  0.96654545  0.66747658  0.08761722  1
  Ca  Ca0  1  0.50000000  0.50000000  0.00000000  1
  Ca  Ca1  1  -0.00000000  -0.00000000  0.50000000  1
  Ca  Ca2  1  0.50000000  0.50000000  0.50000000  1
  Ca  Ca3  1  -0.00000000  -0.00000000  0.00000000  1
  Ru  Ru0  1  0.50223915  0.82821228  0.66851235  1
  Ru  Ru1  1  0.99776085  0.32821228  0.66851235  1
  Ru  Ru2  1  0.49546792  0.16172361  0.83087284  1
  Ru  Ru3  1  0.00223915  0.67178772  0.33148765  1
  Ru  Ru4  1  0.00453208  0.66172361  0.83087284  1
  Ru  Ru5  1  0.49776085  0.17178772  0.33148765  1
  Ru  Ru6  1  0.50453208  0.83827639  0.16912716  1
  Ru  Ru7  1  0.99546792  0.33827639  0.16912716  1
  O  O0  1  0.01269955  0.79635128  0.92794289  1
  O  O1  1  0.80299697  0.60368968  0.42888682  1
  O  O2  1  0.76717931  0.87317619  0.59401504  1
  O  O3  1  0.78607666  0.26118666  0.77411456  1
  O  O4  1  0.78482916  0.21549833  0.24991683  1
  O  O5  1  0.19770871  0.44662122  0.09477376  1
  O  O6  1  0.69770871  0.05337878  0.90522624  1
  O  O7  1  0.51342058  0.02225943  0.72597656  1
  O  O8  1  0.71392334  0.76118666  0.77411456  1
  O  O9  1  0.23282069  0.12682381  0.40598496  1
  O  O10  1  0.69700303  0.10368968  0.42888682  1
  O  O11  1  0.01319447  0.15430064  0.61575310  1
  O  O12  1  0.98730045  0.20364872  0.07205711  1
  O  O13  1  0.73173762  0.42432007  0.11765306  1
  O  O14  1  0.01342058  0.47774057  0.27402344  1
  O  O15  1  0.48730045  0.29635128  0.92794289  1
  O  O16  1  0.98657942  0.52225943  0.72597656  1
  O  O17  1  0.71517084  0.71549833  0.24991683  1
  O  O18  1  0.30229129  0.94662122  0.09477376  1
  O  O19  1  0.26826238  0.57567993  0.88234694  1
  O  O20  1  0.28607666  0.23881334  0.22588544  1
  O  O21  1  0.51319447  0.34569936  0.38424690  1
  O  O22  1  0.21517084  0.78450167  0.75008317  1
  O  O23  1  0.21392334  0.73881334  0.22588544  1
  O  O24  1  0.51269955  0.70364872  0.07205711  1
  O  O25  1  0.76826238  0.92432007  0.11765306  1
  O  O26  1  0.48657942  0.97774057  0.27402344  1
  O  O27  1  0.19700303  0.39631032  0.57111318  1
  O  O28  1  0.48680553  0.65430064  0.61575310  1
  O  O29  1  0.73282069  0.37317619  0.59401504  1
  O  O30  1  0.98680553  0.84569936  0.38424690  1
  O  O31  1  0.26717931  0.62682381  0.40598496  1
  O  O32  1  0.28482916  0.28450167  0.75008317  1
  O  O33  1  0.23173762  0.07567993  0.88234694  1
  O  O34  1  0.30299697  0.89631032  0.57111318  1
  O  O35  1  0.80229129  0.55337878  0.90522624  1
loop_
_geom_bond_atom_site_label_1
_geom_bond_atom_site_label_2
_geom_bond_distance
_geom_bond_site_symmetry_2
Ca0 O35 2.247091 1_554
Ca0 O5 2.247091 1_555
Ca0 O19 2.247636 1_554
Ca0 O13 2.247636 1_555
Ca0 O15 2.254631 1_554
Ca0 O24 2.254631 1_555
Ca1 O11 2.231166 1_555
Ca1 O30 2.231166 1_445
Ca1 O10 2.249557 1_455
Ca1 O34 2.249557 1_545
Ca1 O2 2.256614 1_445
Ca1 O9 2.256614 1_555
Ca2 O28 2.231166 1_555
Ca2 O21 2.231166 1_555
Ca2 O27 2.249557 1_555
Ca2 O1 2.249557 1_555
Ca2 O31 2.256614 1_555
Ca2 O29 2.256614 1_555
Ca3 O6 2.247091 1_454
Ca3 O18 2.247091 1_545
Ca3 O25 2.247636 1_445
Ca3 O33 2.247636 1_554
Ca3 O12 2.254631 1_455
Ca3 O0 2.254631 1_544
O0 Ru4 1.906306 1_555
O0 Sr11 2.592074 1_456
O0 Sr3 2.633883 1_555
O0 Sr3 3.157162 1_455
O1 Ru3 1.904383 1_655
O1 Sr9 2.606929 1_655
O1 Sr0 2.747340 1_555
O1 Sr2 2.845818 1_555
O2 Ru0 1.896363 1_555
O2 Sr9 2.543059 1_655
O2 Sr7 2.755545 1_555
O2 Sr0 2.852805 1_555
O3 Ru1 2.027025 1_555
O3 Ru2 2.091262 1_555
O3 Sr6 2.505955 1_655
O3 Sr1 2.718062 1_555
O3 Sr7 2.854478 1_545
O4 Ru5 2.050391 1_555
O4 Ru7 2.053041 1_555
O4 Sr5 2.517007 1_655
O4 Sr4 2.738277 1_555
O4 Sr2 2.822039 1_555
O5 Ru7 1.891728 1_455
O5 Sr11 2.555096 1_455
O5 Sr10 2.702337 1_555
O5 Sr6 2.953728 1_554
O6 Ru2 1.891728 1_555
O6 Sr3 2.555096 1_545
O6 Sr7 2.702337 1_545
O6 Sr4 2.953728 1_556
O7 Ru2 2.020896 1_555
O7 Ru0 2.082218 1_545
O7 Sr8 2.484177 1_555
O7 Sr7 2.618556 1_545
O8 Ru0 2.027025 1_555
O8 Ru4 2.091262 1_655
O8 Sr3 2.505955 1_555
O8 Sr7 2.718062 1_555
O8 Sr1 2.854478 1_555
O9 Ru5 1.896363 1_555
O9 Sr2 2.543059 1_455
O9 Sr5 2.755545 1_555
O9 Sr8 2.852805 1_555
O10 Ru5 1.904383 1_555
O10 Sr8 2.606929 1_555
O10 Sr2 2.747340 1_555
O10 Sr0 2.845818 1_545
O11 Ru1 1.874292 1_455
O11 Sr7 2.505823 1_445
O11 Sr8 2.648213 1_555
O12 Ru7 1.906306 1_555
O12 Sr6 2.592074 1_654
O12 Sr4 2.633883 1_555
O12 Sr4 3.157162 1_655
O13 Ru7 1.878420 1_555
O13 Sr10 2.527569 1_555
O13 Sr11 2.786018 1_555
O13 Sr4 2.813143 1_555
O14 Ru7 2.020896 1_455
O14 Ru3 2.082218 1_555
O14 Sr2 2.484177 1_455
O14 Sr10 2.618556 1_555
O15 Ru2 1.906306 1_555
O15 Sr4 2.592074 1_556
O15 Sr6 2.633883 1_555
O15 Sr6 3.157162 1_655
O16 Ru4 2.020896 1_655
O16 Ru1 2.082218 1_555
O16 Sr9 2.484177 1_655
O16 Sr1 2.618556 1_555
O17 Ru3 2.050391 1_655
O17 Ru6 2.053041 1_555
O17 Sr10 2.517007 1_555
O17 Sr11 2.738277 1_555
O17 Sr0 2.822039 1_555
O18 Ru6 1.891728 1_555
O18 Sr4 2.555096 1_565
O18 Sr5 2.702337 1_565
O18 Sr3 2.953728 1_554
O19 Ru4 1.878420 1_555
O19 Sr1 2.527569 1_555
O19 Sr6 2.786018 1_555
O19 Sr3 2.813143 1_555
O20 Ru5 2.027025 1_555
O20 Ru7 2.091262 1_455
O20 Sr4 2.505955 1_555
O20 Sr5 2.718062 1_555
O20 Sr10 2.854478 1_555
O21 Ru5 1.874292 1_555
O21 Sr10 2.505823 1_555
O21 Sr2 2.648213 1_555
O22 Ru0 2.050391 1_555
O22 Ru4 2.053041 1_555
O22 Sr7 2.517007 1_455
O22 Sr3 2.738277 1_555
O22 Sr9 2.822039 1_555
O23 Ru3 2.027025 1_555
O23 Ru6 2.091262 1_555
O23 Sr11 2.505955 1_455
O23 Sr10 2.718062 1_555
O23 Sr5 2.854478 1_565
O24 Ru6 1.906306 1_555
O24 Sr3 2.592074 1_554
O24 Sr11 2.633883 1_555
O24 Sr11 3.157162 1_455
O25 Ru6 1.878420 1_555
O25 Sr5 2.527569 1_665
O25 Sr4 2.786018 1_565
O25 Sr11 2.813143 1_555
O26 Ru6 2.020896 1_555
O26 Ru5 2.082218 1_565
O26 Sr0 2.484177 1_555
O26 Sr5 2.618556 1_565
O27 Ru1 1.904383 1_455
O27 Sr2 2.606929 1_455
O27 Sr8 2.747340 1_555
O27 Sr9 2.845818 1_555
O28 Ru0 1.874292 1_555
O28 Sr1 2.505823 1_555
O28 Sr9 2.648213 1_555
O29 Ru1 1.896363 1_555
O29 Sr8 2.543059 1_555
O29 Sr1 2.755545 1_555
O29 Sr2 2.852805 1_555
O30 Ru3 1.874292 1_655
O30 Sr5 2.505823 1_665
O30 Sr0 2.648213 1_555
O31 Ru3 1.896363 1_555
O31 Sr0 2.543059 1_555
O31 Sr10 2.755545 1_555
O31 Sr9 2.852805 1_555
O32 Ru1 2.050391 1_455
O32 Ru2 2.053041 1_555
O32 Sr1 2.517007 1_555
O32 Sr6 2.738277 1_555
O32 Sr8 2.822039 1_555
O33 Ru2 1.878420 1_555
O33 Sr7 2.527569 1_445
O33 Sr3 2.786018 1_545
O33 Sr6 2.813143 1_555
O34 Ru0 1.904383 1_555
O34 Sr0 2.606929 1_555
O34 Sr9 2.747340 1_555
O34 Sr8 2.845818 1_565
O35 Ru4 1.891728 1_655
O35 Sr6 2.555096 1_655
O35 Sr1 2.702337 1_555
O35 Sr11 2.953728 1_556
