# generated using pymatgen
data_MgSiO3
_symmetry_space_group_name_H-M   'P 1'
_cell_length_a   5.24579400
_cell_length_b   8.94539600
_cell_length_c   18.44950300
_cell_angle_alpha   90.00000000
_cell_angle_beta   90.00000000
_cell_angle_gamma   90.00000000
_symmetry_Int_Tables_number   1
_chemical_formula_structural   MgSiO3
_chemical_formula_sum   'Mg16 Si16 O48'
_cell_volume   865.75592898
_cell_formula_units_Z   16
loop_
 _symmetry_equiv_pos_site_id
 _symmetry_equiv_pos_as_xyz
  1  'x, y, z'
loop_
 _atom_site_type_symbol
 _atom_site_label
 _atom_site_symmetry_multiplicity
 _atom_site_fract_x
 _atom_site_fract_y
 _atom_site_fract_z
 _atom_site_occupancy
  Mg  Mg0  1  0.13047400  0.34721800  0.37587900  1
  Mg  Mg1  1  0.63047400  0.65278200  0.12412100  1
  Mg  Mg2  1  0.36952600  0.84721800  0.62412100  1
  Mg  Mg3  1  0.86952600  0.15278200  0.87587900  1
  Mg  Mg4  1  0.86952600  0.65278200  0.62412100  1
  Mg  Mg5  1  0.36952600  0.34721800  0.87587900  1
  Mg  Mg6  1  0.63047400  0.15278200  0.37587900  1
  Mg  Mg7  1  0.13047400  0.84721800  0.12412100  1
  Mg  Mg8  1  0.63648100  0.51119000  0.37606600  1
  Mg  Mg9  1  0.13648100  0.48881000  0.12393400  1
  Mg  Mg10  1  0.86351900  0.01119000  0.62393400  1
  Mg  Mg11  1  0.36351900  0.98881000  0.87606600  1
  Mg  Mg12  1  0.36351900  0.48881000  0.62393400  1
  Mg  Mg13  1  0.86351900  0.51119000  0.87606600  1
  Mg  Mg14  1  0.13648100  0.98881000  0.37606600  1
  Mg  Mg15  1  0.63648100  0.01119000  0.12393400  1
  Si  Si0  1  0.94445600  0.65895700  0.27186600  1
  Si  Si1  1  0.44445600  0.34104300  0.22813400  1
  Si  Si2  1  0.55554400  0.15895700  0.72813400  1
  Si  Si3  1  0.05554400  0.84104300  0.77186600  1
  Si  Si4  1  0.05554400  0.34104300  0.72813400  1
  Si  Si5  1  0.55554400  0.65895700  0.77186600  1
  Si  Si6  1  0.44445600  0.84104300  0.27186600  1
  Si  Si7  1  0.94445600  0.15895700  0.22813400  1
  Si  Si8  1  0.20442300  0.66269200  0.47418200  1
  Si  Si9  1  0.70442300  0.33730800  0.02581800  1
  Si  Si10  1  0.29557700  0.16269200  0.52581800  1
  Si  Si11  1  0.79557700  0.83730800  0.97418200  1
  Si  Si12  1  0.79557700  0.33730800  0.52581800  1
  Si  Si13  1  0.29557700  0.66269200  0.97418200  1
  Si  Si14  1  0.70442300  0.83730800  0.47418200  1
  Si  Si15  1  0.20442300  0.16269200  0.02581800  1
  O  O0  1  0.40059400  0.30324600  0.05145800  1
  O  O1  1  0.90059400  0.69675400  0.44854200  1
  O  O2  1  0.09940600  0.80324600  0.94854200  1
  O  O3  1  0.59940600  0.19675400  0.55145800  1
  O  O4  1  0.59940600  0.69675400  0.94854200  1
  O  O5  1  0.09940600  0.30324600  0.55145800  1
  O  O6  1  0.90059400  0.19675400  0.05145800  1
  O  O7  1  0.40059400  0.80324600  0.44854200  1
  O  O8  1  0.30926200  0.01742000  0.06750900  1
  O  O9  1  0.80926200  0.98258000  0.43249100  1
  O  O10  1  0.19073800  0.51742000  0.93249100  1
  O  O11  1  0.69073800  0.48258000  0.56750900  1
  O  O12  1  0.69073800  0.98258000  0.93249100  1
  O  O13  1  0.19073800  0.01742000  0.56750900  1
  O  O14  1  0.80926200  0.48258000  0.06750900  1
  O  O15  1  0.30926200  0.51742000  0.43249100  1
  O  O16  1  0.20354600  0.15922700  0.93701200  1
  O  O17  1  0.70354600  0.84077300  0.56298800  1
  O  O18  1  0.29645400  0.65922700  0.06298800  1
  O  O19  1  0.95256000  0.99931800  0.18840400  1
  O  O20  1  0.79645400  0.34077300  0.43701200  1
  O  O21  1  0.29645400  0.15922700  0.43701200  1
  O  O22  1  0.70354600  0.34077300  0.93701200  1
  O  O23  1  0.20354600  0.65922700  0.56298800  1
  O  O24  1  0.16182400  0.27872100  0.19706500  1
  O  O25  1  0.66182400  0.72127900  0.30293500  1
  O  O26  1  0.33817600  0.77872100  0.80293500  1
  O  O27  1  0.83817600  0.22127900  0.69706500  1
  O  O28  1  0.83817600  0.72127900  0.80293500  1
  O  O29  1  0.33817600  0.27872100  0.69706500  1
  O  O30  1  0.66182400  0.22127900  0.19706500  1
  O  O31  1  0.16182400  0.77872100  0.30293500  1
  O  O32  1  0.96091800  0.66008000  0.18361600  1
  O  O33  1  0.46091800  0.33992000  0.31638400  1
  O  O34  1  0.53908200  0.16008000  0.81638400  1
  O  O35  1  0.03908200  0.83992000  0.68361600  1
  O  O36  1  0.03908200  0.33992000  0.81638400  1
  O  O37  1  0.53908200  0.66008000  0.68361600  1
  O  O38  1  0.46091800  0.83992000  0.18361600  1
  O  O39  1  0.96091800  0.16008000  0.31638400  1
  O  O40  1  0.95256000  0.49931800  0.31159600  1
  O  O41  1  0.45256000  0.50068200  0.18840400  1
  O  O42  1  0.54744000  0.99931800  0.68840400  1
  O  O43  1  0.04744000  0.00068200  0.81159600  1
  O  O44  1  0.04744000  0.50068200  0.68840400  1
  O  O45  1  0.54744000  0.49931800  0.81159600  1
  O  O46  1  0.45256000  0.00068200  0.31159600  1
  O  O47  1  0.79645400  0.84077300  0.06298800  1
loop_
_geom_bond_atom_site_label_1
_geom_bond_atom_site_label_2
_geom_bond_distance
_geom_bond_site_symmetry_2
Mg0 O40 2.031954 1_455
Mg0 O33 2.052784 1_555
Mg0 O15 2.070896 1_555
Mg0 O20 2.084617 1_455
Mg0 O39 2.190509 1_455
Mg0 O21 2.204126 1_555
Mg1 O41 2.031954 1_555
Mg1 O32 2.052784 1_555
Mg1 O14 2.070896 1_555
Mg1 O18 2.084617 1_555
Mg1 O38 2.190509 1_555
Mg1 O47 2.204126 1_555
Mg2 O42 2.031954 1_555
Mg2 O35 2.052784 1_555
Mg2 O13 2.070896 1_565
Mg2 O17 2.084617 1_555
Mg2 O37 2.190509 1_555
Mg2 O23 2.204126 1_555
Mg3 O43 2.031954 1_655
Mg3 O34 2.052784 1_555
Mg3 O12 2.070896 1_545
Mg3 O16 2.084617 1_655
Mg3 O36 2.190509 1_655
Mg3 O22 2.204126 1_555
Mg4 O44 2.031954 1_655
Mg4 O37 2.052784 1_555
Mg4 O11 2.070896 1_555
Mg4 O23 2.084617 1_655
Mg4 O35 2.190509 1_655
Mg4 O17 2.204126 1_555
Mg5 O45 2.031954 1_555
Mg5 O36 2.052784 1_555
Mg5 O10 2.070896 1_555
Mg5 O22 2.084617 1_555
Mg5 O34 2.190509 1_555
Mg5 O16 2.204126 1_555
Mg6 O46 2.031954 1_555
Mg6 O39 2.052784 1_555
Mg6 O9 2.070896 1_545
Mg6 O21 2.084617 1_555
Mg6 O33 2.190509 1_555
Mg6 O20 2.204126 1_555
Mg7 O19 2.031954 1_455
Mg7 O38 2.052784 1_555
Mg7 O8 2.070896 1_565
Mg7 O47 2.084617 1_455
Mg7 O32 2.190509 1_455
Mg7 O18 2.204126 1_555
Mg8 O15 2.008300 1_555
Mg8 O40 2.043353 1_555
Mg8 O20 2.071835 1_555
Mg8 O33 2.099493 1_555
Mg8 O25 2.317321 1_555
Mg8 O1 2.542230 1_555
Mg9 O14 2.008300 1_455
Mg9 O41 2.043353 1_555
Mg9 O18 2.071835 1_555
Mg9 O32 2.099493 1_455
Mg9 O24 2.317321 1_555
Mg9 O0 2.542230 1_555
Mg10 O13 2.008300 1_655
Mg10 O42 2.043353 1_545
Mg10 O17 2.071835 1_545
Mg10 O35 2.099493 1_645
Mg10 O27 2.317321 1_555
Mg10 O3 2.542230 1_555
Mg11 O12 2.008300 1_555
Mg11 O43 2.043353 1_565
Mg11 O16 2.071835 1_565
Mg11 O34 2.099493 1_565
Mg11 O26 2.317321 1_555
Mg11 O2 2.542230 1_555
Mg12 O11 2.008300 1_555
Mg12 O44 2.043353 1_555
Mg12 O23 2.071835 1_555
Mg12 O37 2.099493 1_555
Mg12 O29 2.317321 1_555
Mg12 O5 2.542230 1_555
Mg13 O10 2.008300 1_655
Mg13 O45 2.043353 1_555
Mg13 O22 2.071835 1_555
Mg13 O36 2.099493 1_655
Mg13 O28 2.317321 1_555
Mg13 O4 2.542230 1_555
Mg14 O9 2.008300 1_455
Mg14 O46 2.043353 1_565
Mg14 O21 2.071835 1_565
Mg14 O39 2.099493 1_465
Mg14 O31 2.317321 1_555
Mg14 O7 2.542230 1_555
Mg15 O8 2.008300 1_555
Mg15 O19 2.043353 1_545
Mg15 O47 2.071835 1_545
Mg15 O38 2.099493 1_545
Mg15 O30 2.317321 1_555
Mg15 O6 2.542230 1_555
O0 Si9 1.690233 1_555
O0 Si15 1.692216 1_555
O1 Si8 1.690233 1_655
O1 Si14 1.692216 1_555
O2 Si11 1.690233 1_455
O2 Si13 1.692216 1_555
O3 Si10 1.690233 1_555
O3 Si12 1.692216 1_555
O4 Si13 1.690233 1_555
O4 Si11 1.692216 1_555
O5 Si12 1.690233 1_455
O5 Si10 1.692216 1_555
O6 Si15 1.690233 1_655
O6 Si9 1.692216 1_555
O7 Si14 1.690233 1_555
O7 Si8 1.692216 1_555
O8 Si15 1.607120 1_555
O9 Si14 1.607120 1_555
O10 Si13 1.607120 1_555
O11 Si12 1.607120 1_555
O12 Si11 1.607120 1_555
O13 Si10 1.607120 1_555
O14 Si9 1.607120 1_555
O15 Si8 1.607120 1_555
O16 Si15 1.638726 1_556
O17 Si14 1.638726 1_555
O18 Si13 1.638726 1_554
O19 Si7 1.605732 1_565
O20 Si12 1.638726 1_555
O21 Si10 1.638726 1_555
O22 Si9 1.638726 1_556
O23 Si8 1.638726 1_555
O24 Si7 1.666295 1_455
O24 Si1 1.684505 1_555
O25 Si6 1.666295 1_555
O25 Si0 1.684505 1_555
O26 Si5 1.666295 1_555
O26 Si3 1.684505 1_555
O27 Si4 1.666295 1_655
O27 Si2 1.684505 1_555
O28 Si3 1.666295 1_655
O28 Si5 1.684505 1_555
O29 Si2 1.666295 1_555
O29 Si4 1.684505 1_555
O30 Si1 1.666295 1_555
O30 Si7 1.684505 1_555
O31 Si0 1.666295 1_455
O31 Si6 1.684505 1_555
O32 Si0 1.630488 1_555
O33 Si1 1.630488 1_555
O34 Si2 1.630488 1_555
O35 Si3 1.630488 1_555
O36 Si4 1.630488 1_555
O37 Si5 1.630488 1_555
O38 Si6 1.630488 1_555
O39 Si7 1.630488 1_555
O40 Si0 1.605732 1_555
O41 Si1 1.605732 1_555
O42 Si2 1.605732 1_565
O43 Si3 1.605732 1_545
O44 Si4 1.605732 1_555
O45 Si5 1.605732 1_555
O46 Si6 1.605732 1_545
O47 Si11 1.638726 1_554
