# generated using pymatgen
data_PdSeO3
_symmetry_space_group_name_H-M   'P 1'
_cell_length_a   3.91540292
_cell_length_b   6.17001159
_cell_length_c   6.44508364
_cell_angle_alpha   90.00388517
_cell_angle_beta   90.00382256
_cell_angle_gamma   96.54886135
_symmetry_Int_Tables_number   1
_chemical_formula_structural   PdSeO3
_chemical_formula_sum   'Pd2 Se2 O6'
_cell_volume   154.68489952
_cell_formula_units_Z   2
loop_
 _symmetry_equiv_pos_site_id
 _symmetry_equiv_pos_as_xyz
  1  'x, y, z'
loop_
 _atom_site_type_symbol
 _atom_site_label
 _atom_site_symmetry_multiplicity
 _atom_site_fract_x
 _atom_site_fract_y
 _atom_site_fract_z
 _atom_site_occupancy
  Pd  Pd0  1  0.99999900  0.99999900  0.00000100  1
  Pd  Pd1  1  -0.00000000  -0.00000000  0.50000000  1
  Se  Se0  1  0.43680941  0.67326841  0.74998903  1
  Se  Se1  1  0.56318959  0.32673159  0.25001097  1
  O  O0  1  0.30099511  0.28539007  0.04041159  1
  O  O1  1  0.28540891  0.94008729  0.74999522  1
  O  O2  1  0.69900289  0.71460793  0.95958641  1
  O  O3  1  0.69903885  0.71462236  0.54042053  1
  O  O4  1  0.71459109  0.05991371  0.25000478  1
  O  O5  1  0.30096415  0.28537864  0.45958047  1
loop_
_geom_bond_atom_site_label_1
_geom_bond_atom_site_label_2
_geom_bond_distance
_geom_bond_site_symmetry_2
O0 Se1 1.698203 1_555
O0 Pd0 2.020874 1_445
O1 Se0 1.812245 1_555
O1 Pd1 2.018811 1_565
O1 Pd0 2.018945 1_456
O2 Se0 1.698190 1_555
O2 Pd0 2.020878 1_556
O3 Se0 1.698268 1_555
O3 Pd1 2.020801 1_665
O4 Se1 1.812241 1_555
O4 Pd1 2.018813 1_655
O4 Pd0 2.018935 1_545
O5 Se1 1.698264 1_555
O5 Pd1 2.020811 1_555
