# generated using pymatgen
data_Ta6Fe16Si7
_symmetry_space_group_name_H-M   'P 1'
_cell_length_a   7.85343216
_cell_length_b   7.85343141
_cell_length_c   7.85342702
_cell_angle_alpha   60.00000694
_cell_angle_beta   60.00000223
_cell_angle_gamma   59.99999202
_symmetry_Int_Tables_number   1
_chemical_formula_structural   Ta6Fe16Si7
_chemical_formula_sum   'Ta6 Fe16 Si7'
_cell_volume   342.50204567
_cell_formula_units_Z   1
loop_
 _symmetry_equiv_pos_site_id
 _symmetry_equiv_pos_as_xyz
  1  'x, y, z'
loop_
 _atom_site_type_symbol
 _atom_site_label
 _atom_site_symmetry_multiplicity
 _atom_site_fract_x
 _atom_site_fract_y
 _atom_site_fract_z
 _atom_site_occupancy
  Ta  Ta0  1  0.20572180  0.79429835  0.20571539  1
  Ta  Ta1  1  0.20571687  0.79428879  0.79427050  1
  Ta  Ta2  1  0.79428784  0.20570736  0.20572429  1
  Ta  Ta3  1  0.79426687  0.79429371  0.20571288  1
  Ta  Ta4  1  0.20572880  0.20570578  0.79429059  1
  Ta  Ta5  1  0.79427705  0.20570305  0.79428622  1
  Fe  Fe0  1  0.17372936  0.17370683  0.17372095  1
  Fe  Fe1  1  0.52113776  0.82629765  0.82628524  1
  Fe  Fe2  1  0.82628583  0.52114364  0.82628834  1
  Fe  Fe3  1  0.82628279  0.82629826  0.52113902  1
  Fe  Fe4  1  0.17371824  0.47884443  0.17371012  1
  Fe  Fe5  1  0.17372236  0.17369907  0.47884561  1
  Fe  Fe6  1  0.47884421  0.17370295  0.17371746  1
  Fe  Fe7  1  0.82628249  0.82629749  0.82628490  1
  Fe  Fe8  1  0.37981869  0.37980583  0.37981364  1
  Fe  Fe9  1  0.13944369  0.62019484  0.62018481  1
  Fe  Fe10  1  0.62018887  0.13943487  0.62019248  1
  Fe  Fe11  1  0.62018279  0.62019675  0.13944233  1
  Fe  Fe12  1  0.37980962  0.86057509  0.37980472  1
  Fe  Fe13  1  0.37981421  0.37980131  0.86056891  1
  Fe  Fe14  1  0.86056602  0.37980421  0.37981174  1
  Fe  Fe15  1  0.62017836  0.62019254  0.62018178  1
  Si  Si0  1  0.49999954  0.49999902  0.49999997  1
  Si  Si1  1  -0.00000825  0.50000772  -0.00000610  1
  Si  Si2  1  0.50000660  -0.00000611  -0.00000756  1
  Si  Si3  1  -0.00000720  0.50000770  0.50000913  1
  Si  Si4  1  0.50000713  -0.00000519  0.50000929  1
  Si  Si5  1  -0.00000896  -0.00000539  0.50000806  1
  Si  Si6  1  0.50000760  0.50000845  -0.00000573  1
loop_
_geom_bond_atom_site_label_1
_geom_bond_atom_site_label_2
_geom_bond_distance
_geom_bond_site_symmetry_2
Fe0 Si2 2.271139 1_555
Fe0 Si5 2.271204 1_555
Fe0 Si1 2.271299 1_555
Fe0 Fe6 2.396170 1_555
Fe0 Fe5 2.396216 1_555
Fe0 Fe4 2.396291 1_555
Fe0 Fe12 2.438351 1_545
Fe0 Fe13 2.438465 1_554
Fe0 Fe14 2.438529 1_455
Fe0 Ta0 2.751441 1_545
Fe0 Ta4 2.751573 1_554
Fe0 Ta2 2.751645 1_455
Fe1 Si2 2.271018 1_566
Fe1 Si4 2.271041 1_565
Fe1 Si6 2.271131 1_556
Fe1 Fe7 2.396431 1_555
Fe1 Fe3 2.396440 1_555
Fe1 Fe2 2.396483 1_555
Fe1 Fe10 2.438460 1_565
Fe1 Fe11 2.438566 1_556
Fe1 Fe15 2.438620 1_555
Fe1 Ta4 2.751399 1_565
Fe1 Ta0 2.751523 1_556
Fe1 Ta1 2.751605 1_555
Fe2 Si1 2.271053 1_656
Fe2 Si6 2.271070 1_556
Fe2 Si3 2.271077 1_655
Fe2 Fe7 2.396478 1_555
Fe2 Fe3 2.396490 1_555
Fe2 Fe9 2.438596 1_655
Fe2 Ta2 2.751614 1_556
Fe2 Ta4 2.751652 1_655
Fe2 Ta5 2.751700 1_555
Fe3 Si5 2.271027 1_665
Fe3 Si4 2.271038 1_565
Fe3 Si3 2.271139 1_655
Fe3 Fe7 2.396437 1_555
Fe3 Fe9 2.438595 1_655
Fe3 Ta2 2.751422 1_565
Fe3 Ta0 2.751588 1_655
Fe3 Ta3 2.751630 1_555
Fe4 Si1 2.271151 1_555
Fe4 Si6 2.271222 1_555
Fe4 Si3 2.271284 1_555
Fe4 Fe6 2.396347 1_555
Fe4 Fe5 2.396399 1_555
Fe4 Fe8 2.438596 1_555
Fe4 Ta1 2.751656 1_554
Fe4 Ta3 2.751727 1_455
Fe4 Ta0 2.751794 1_555
Fe5 Si5 2.271109 1_555
Fe5 Si4 2.271189 1_555
Fe5 Si3 2.271351 1_555
Fe5 Fe6 2.396278 1_555
Fe5 Fe8 2.438609 1_555
Fe5 Ta1 2.751460 1_545
Fe5 Ta5 2.751671 1_455
Fe5 Ta4 2.751743 1_555
Fe6 Si2 2.271096 1_555
Fe6 Si4 2.271234 1_555
Fe6 Si6 2.271329 1_555
Fe6 Fe8 2.438599 1_555
Fe6 Ta3 2.751448 1_545
Fe6 Ta5 2.751581 1_554
Fe6 Ta2 2.751725 1_555
Fe7 Si2 2.271034 1_566
Fe7 Si5 2.271043 1_665
Fe7 Si1 2.271130 1_656
Fe7 Fe9 2.438580 1_655
Fe7 Ta5 2.751364 1_565
Fe7 Ta3 2.751488 1_556
Fe7 Ta1 2.751528 1_655
Fe8 Si0 2.312021 1_555
Fe8 Si4 2.437023 1_555
Fe8 Si6 2.437075 1_555
Fe8 Si3 2.437118 1_555
Fe8 Fe9 2.669763 1_555
Fe8 Ta2 2.702284 1_555
Fe8 Ta4 2.702328 1_555
Fe8 Ta0 2.702421 1_555
Fe9 Si0 2.311992 1_555
Fe9 Si5 2.436958 1_565
Fe9 Si1 2.437016 1_556
Fe9 Si3 2.437046 1_555
Fe9 Ta1 2.702184 1_555
Fe9 Ta0 2.702288 1_555
Fe9 Ta4 2.702413 1_555
Fe10 Si0 2.312045 1_555
Fe10 Si2 2.436956 1_556
Fe10 Si5 2.436971 1_655
Fe10 Si4 2.436988 1_555
Fe10 Fe7 2.438451 1_545
Fe10 Fe3 2.438464 1_545
Fe10 Fe13 2.669667 1_555
Fe10 Fe14 2.669689 1_555
Fe10 Fe8 2.669702 1_555
Fe10 Ta5 2.702172 1_555
Fe10 Ta4 2.702236 1_555
Fe10 Ta2 2.702287 1_555
Fe11 Si0 2.312003 1_555
Fe11 Si2 2.436941 1_565
Fe11 Si1 2.437016 1_655
Fe11 Si6 2.437031 1_555
Fe11 Fe7 2.438561 1_554
Fe11 Fe2 2.438576 1_554
Fe11 Fe12 2.669655 1_555
Fe11 Fe14 2.669722 1_555
Fe11 Fe8 2.669736 1_555
Fe11 Ta3 2.702179 1_555
Fe11 Ta0 2.702239 1_555
Fe11 Ta2 2.702419 1_555
Fe12 Si0 2.312122 1_555
Fe12 Si2 2.437028 1_565
Fe12 Si5 2.437069 1_565
Fe12 Si4 2.437089 1_565
Fe12 Fe5 2.438333 1_565
Fe12 Fe6 2.438335 1_565
Fe12 Fe15 2.669684 1_555
Fe12 Fe9 2.669687 1_555
Fe12 Ta0 2.702186 1_555
Fe12 Ta3 2.702204 1_555
Fe12 Ta1 2.702254 1_555
Fe13 Si0 2.312075 1_555
Fe13 Si2 2.437000 1_556
Fe13 Si1 2.437095 1_556
Fe13 Si6 2.437116 1_556
Fe13 Fe6 2.438452 1_556
Fe13 Fe4 2.438454 1_556
Fe13 Fe9 2.669733 1_555
Fe13 Fe15 2.669738 1_555
Fe13 Ta4 2.702221 1_555
Fe13 Ta5 2.702240 1_555
Fe13 Ta1 2.702386 1_555
Fe14 Si0 2.312060 1_555
Fe14 Si5 2.437014 1_655
Fe14 Si1 2.437065 1_655
Fe14 Si3 2.437128 1_655
Fe14 Fe4 2.438517 1_655
Fe14 Fe5 2.438519 1_655
Fe14 Fe15 2.669753 1_555
Fe14 Ta2 2.702242 1_555
Fe14 Ta5 2.702309 1_555
Fe14 Ta3 2.702399 1_555
Fe15 Si0 2.311981 1_555
Fe15 Si4 2.436976 1_565
Fe15 Si6 2.437039 1_556
Fe15 Si3 2.437052 1_655
Fe15 Fe3 2.438626 1_555
Fe15 Fe2 2.438634 1_555
Fe15 Ta1 2.702238 1_555
Fe15 Ta3 2.702284 1_555
Fe15 Ta5 2.702414 1_555
Si1 Ta3 2.819851 1_455
Si1 Ta1 2.819856 1_554
Si1 Ta4 2.819857 1_554
Si1 Ta2 2.819858 1_455
Si2 Ta5 2.819717 1_554
Si2 Ta4 2.819718 1_554
Si2 Ta3 2.819718 1_545
Si2 Ta0 2.819719 1_545
Si3 Ta4 2.819925 1_555
Si3 Ta0 2.819937 1_555
Si3 Ta5 2.819937 1_455
Si3 Ta3 2.819945 1_455
Si4 Ta4 2.819788 1_555
Si4 Ta1 2.819799 1_545
Si4 Ta2 2.819800 1_555
Si4 Ta3 2.819808 1_545
Si5 Ta5 2.819754 1_455
Si5 Ta1 2.819756 1_545
Si5 Ta2 2.819763 1_455
Si5 Ta0 2.819764 1_545
Si6 Ta0 2.819888 1_555
Si6 Ta2 2.819890 1_555
Si6 Ta5 2.819898 1_554
Si6 Ta1 2.819900 1_554
