# generated using pymatgen
data_Ga(MoSe2)4
_symmetry_space_group_name_H-M   'P 1'
_cell_length_a   7.28172058
_cell_length_b   7.28172058
_cell_length_c   7.28172058
_cell_angle_alpha   60.00000000
_cell_angle_beta   60.00000000
_cell_angle_gamma   60.00000000
_symmetry_Int_Tables_number   1
_chemical_formula_structural   Ga(MoSe2)4
_chemical_formula_sum   'Ga1 Mo4 Se8'
_cell_volume   273.01532860
_cell_formula_units_Z   1
loop_
 _symmetry_equiv_pos_site_id
 _symmetry_equiv_pos_as_xyz
  1  'x, y, z'
loop_
 _atom_site_type_symbol
 _atom_site_label
 _atom_site_symmetry_multiplicity
 _atom_site_fract_x
 _atom_site_fract_y
 _atom_site_fract_z
 _atom_site_occupancy
  Ga  Ga0  1  0.00000000  0.00000000  0.00000000  1
  Mo  Mo0  1  0.39996000  0.39996000  0.80012000  1
  Mo  Mo1  1  0.39996000  0.80012000  0.39996000  1
  Mo  Mo2  1  0.80012000  0.39996000  0.39996000  1
  Mo  Mo3  1  0.39996000  0.39996000  0.39996000  1
  Se  Se0  1  0.13727200  0.13727200  0.58818500  1
  Se  Se1  1  0.13727200  0.58818500  0.13727200  1
  Se  Se2  1  0.58818500  0.13727200  0.13727200  1
  Se  Se3  1  0.63552300  0.63552300  0.63552300  1
  Se  Se4  1  0.09343100  0.63552300  0.63552300  1
  Se  Se5  1  0.63552300  0.09343100  0.63552300  1
  Se  Se6  1  0.63552300  0.63552300  0.09343100  1
  Se  Se7  1  0.13727200  0.13727200  0.13727200  1
loop_
_geom_bond_atom_site_label_1
_geom_bond_atom_site_label_2
_geom_bond_distance
_geom_bond_site_symmetry_2
Ga0 Se1 2.448446 1_545
Ga0 Se0 2.448446 1_554
Ga0 Se2 2.448446 1_455
Ga0 Se7 2.448452 1_555
Mo0 Se3 2.480236 1_555
Mo0 Se4 2.480236 1_555
Mo0 Se5 2.480236 1_555
Mo0 Se7 2.758944 1_556
Mo0 Se2 2.758949 1_556
Mo0 Se1 2.758949 1_556
Mo1 Se3 2.480236 1_555
Mo1 Se6 2.480236 1_555
Mo1 Se4 2.480236 1_555
Mo1 Se7 2.758944 1_565
Mo1 Se2 2.758949 1_565
Mo1 Se0 2.758949 1_565
Mo2 Se3 2.480236 1_555
Mo2 Se5 2.480236 1_555
Mo2 Se6 2.480236 1_555
Mo2 Se7 2.758944 1_655
Mo2 Se1 2.758949 1_655
Mo2 Se0 2.758949 1_655
Mo3 Se5 2.480236 1_555
Mo3 Se6 2.480236 1_555
Mo3 Se4 2.480236 1_555
Mo3 Se0 2.758943 1_555
Mo3 Se1 2.758943 1_555
Mo3 Se2 2.758943 1_555
