# generated using pymatgen
data_Ho(MnSi)2
_symmetry_space_group_name_H-M   'P 1'
_cell_length_a   3.86613052
_cell_length_b   3.86613061
_cell_length_c   5.89717964
_cell_angle_alpha   109.13498279
_cell_angle_beta   109.13497961
_cell_angle_gamma   89.99999618
_symmetry_Int_Tables_number   1
_chemical_formula_structural   Ho(MnSi)2
_chemical_formula_sum   'Ho1 Mn2 Si2'
_cell_volume   78.10165053
_cell_formula_units_Z   1
loop_
 _symmetry_equiv_pos_site_id
 _symmetry_equiv_pos_as_xyz
  1  'x, y, z'
loop_
 _atom_site_type_symbol
 _atom_site_label
 _atom_site_symmetry_multiplicity
 _atom_site_fract_x
 _atom_site_fract_y
 _atom_site_fract_z
 _atom_site_occupancy
  Ho  Ho0  1  0.00000000  0.00000000  0.00000000  1
  Mn  Mn0  1  0.25000000  0.75000000  0.50000000  1
  Mn  Mn1  1  0.75000000  0.25000000  0.50000000  1
  Si  Si0  1  0.61703552  0.61703552  0.23406905  1
  Si  Si1  1  0.38296448  0.38296448  0.76593095  1
loop_
_geom_bond_atom_site_label_1
_geom_bond_atom_site_label_2
_geom_bond_distance
_geom_bond_site_symmetry_2
Ho0 Si0 2.994888 1_445
Ho0 Si1 2.994888 1_554
Ho0 Si0 2.994893 1_455
Ho0 Si1 2.994893 1_544
Ho0 Si0 2.994893 1_545
Ho0 Si1 2.994893 1_454
Ho0 Si1 2.994898 1_444
Ho0 Si0 2.994898 1_555
Ho0 Mn1 3.250008 1_455
Ho0 Mn0 3.250008 1_544
Ho0 Mn0 3.250008 1_545
Ho0 Mn1 3.250008 1_454
Ho0 Mn0 3.250009 1_555
Ho0 Mn1 3.250009 1_444
Ho0 Mn0 3.250009 1_444
Ho0 Mn1 3.250009 1_555
Mn0 Si1 2.380671 1_565
Mn0 Si0 2.380671 1_455
Mn0 Si0 2.380677 1_555
Mn0 Si1 2.380677 1_555
Mn1 Si0 2.380671 1_545
Mn1 Si1 2.380671 1_655
Mn1 Si1 2.380677 1_555
Mn1 Si0 2.380677 1_555
Si0 Si1 2.446139 1_554
