# generated using pymatgen
data_YbGeIr
_symmetry_space_group_name_H-M   'P 1'
_cell_length_a   4.32832100
_cell_length_b   7.18061500
_cell_length_c   7.25167200
_cell_angle_alpha   90.00000000
_cell_angle_beta   90.00000000
_cell_angle_gamma   90.00000000
_symmetry_Int_Tables_number   1
_chemical_formula_structural   YbGeIr
_chemical_formula_sum   'Yb4 Ge4 Ir4'
_cell_volume   225.38201433
_cell_formula_units_Z   4
loop_
 _symmetry_equiv_pos_site_id
 _symmetry_equiv_pos_as_xyz
  1  'x, y, z'
loop_
 _atom_site_type_symbol
 _atom_site_label
 _atom_site_symmetry_multiplicity
 _atom_site_fract_x
 _atom_site_fract_y
 _atom_site_fract_z
 _atom_site_occupancy
  Yb  Yb0  1  0.25000000  0.00298000  0.31803100  1
  Yb  Yb1  1  0.75000000  0.49702000  0.81803100  1
  Yb  Yb2  1  0.75000000  0.99702000  0.68196900  1
  Yb  Yb3  1  0.25000000  0.50298000  0.18196900  1
  Ge  Ge0  1  0.75000000  0.30131400  0.38874400  1
  Ge  Ge1  1  0.25000000  0.19868600  0.88874400  1
  Ge  Ge2  1  0.75000000  0.80131400  0.11125600  1
  Ge  Ge3  1  0.25000000  0.69868600  0.61125600  1
  Ir  Ir0  1  0.25000000  0.34785900  0.56892000  1
  Ir  Ir1  1  0.25000000  0.84785900  0.93108000  1
  Ir  Ir2  1  0.75000000  0.15214100  0.06892000  1
  Ir  Ir3  1  0.75000000  0.65214100  0.43108000  1
loop_
_geom_bond_atom_site_label_1
_geom_bond_atom_site_label_2
_geom_bond_distance
_geom_bond_site_symmetry_2
Ge0 Ir3 2.537792 1_555
Ge0 Ir0 2.549988 1_555
Ge0 Ir0 2.549988 1_655
Ge0 Ir2 2.554669 1_555
Ge0 Yb3 3.004819 1_555
Ge0 Yb3 3.004819 1_655
Ge0 Yb2 3.048895 1_545
Ge0 Yb0 3.087986 1_655
Ge0 Yb0 3.087986 1_555
Ge1 Ir1 2.537792 1_545
Ge1 Ir2 2.549988 1_456
Ge1 Ir2 2.549988 1_556
Ge1 Ir0 2.554669 1_555
Ge1 Yb2 3.004819 1_545
Ge1 Yb2 3.004819 1_445
Ge1 Yb3 3.048895 1_556
Ge1 Yb1 3.087986 1_455
Ge1 Yb1 3.087986 1_555
Ge2 Ir2 2.537792 1_565
Ge2 Ir1 2.549988 1_554
Ge2 Ir1 2.549988 1_654
Ge2 Ir3 2.554669 1_555
Ge2 Yb0 3.004819 1_665
Ge2 Yb0 3.004819 1_565
Ge2 Yb1 3.048895 1_554
Ge2 Yb3 3.087986 1_555
Ge2 Yb3 3.087986 1_655
Ge3 Ir0 2.537792 1_555
Ge3 Ir3 2.549988 1_455
Ge3 Ir3 2.549988 1_555
Ge3 Ir1 2.554669 1_555
Ge3 Yb1 3.004819 1_455
Ge3 Yb1 3.004819 1_555
Ge3 Yb0 3.048895 1_565
Ge3 Yb2 3.087986 1_455
Ge3 Yb2 3.087986 1_555
Ir0 Yb1 3.015645 1_555
Ir0 Yb1 3.015645 1_455
Ir0 Yb3 3.019034 1_555
Ir0 Yb0 3.072924 1_555
Ir1 Yb2 3.015645 1_455
Ir1 Yb2 3.015645 1_555
Ir1 Yb0 3.019034 1_566
Ir1 Yb3 3.072924 1_556
Ir2 Yb0 3.015645 1_655
Ir2 Yb0 3.015645 1_555
Ir2 Yb2 3.019034 1_544
Ir2 Yb1 3.072924 1_554
Ir3 Yb3 3.015645 1_555
Ir3 Yb3 3.015645 1_655
Ir3 Yb1 3.019034 1_555
Ir3 Yb2 3.072924 1_555
