# generated using pymatgen
data_Cs2NaMoC4N7O
_symmetry_space_group_name_H-M   'P 1'
_cell_length_a   15.92634300
_cell_length_b   7.98328300
_cell_length_c   10.61848800
_cell_angle_alpha   90.00000000
_cell_angle_beta   90.00000000
_cell_angle_gamma   90.00000000
_symmetry_Int_Tables_number   1
_chemical_formula_structural   Cs2NaMoC4N7O
_chemical_formula_sum   'Cs8 Na4 Mo4 C16 N28 O4'
_cell_volume   1350.08238281
_cell_formula_units_Z   4
loop_
 _symmetry_equiv_pos_site_id
 _symmetry_equiv_pos_as_xyz
  1  'x, y, z'
loop_
 _atom_site_type_symbol
 _atom_site_label
 _atom_site_symmetry_multiplicity
 _atom_site_fract_x
 _atom_site_fract_y
 _atom_site_fract_z
 _atom_site_occupancy
  Cs  Cs0  1  0.86226400  0.25000000  0.95726400  1
  Cs  Cs1  1  0.13773600  0.75000000  0.04273600  1
  Cs  Cs2  1  0.63773600  0.75000000  0.45726400  1
  Cs  Cs3  1  0.36226400  0.25000000  0.54273600  1
  Cs  Cs4  1  0.35816100  0.25000000  0.07605500  1
  Cs  Cs5  1  0.64183900  0.75000000  0.92394500  1
  Cs  Cs6  1  0.14183900  0.75000000  0.57605500  1
  Cs  Cs7  1  0.85816100  0.25000000  0.42394500  1
  Na  Na0  1  0.15101400  0.25000000  0.83571000  1
  Na  Na1  1  0.84898600  0.75000000  0.16429000  1
  Na  Na2  1  0.34898600  0.75000000  0.33571000  1
  Na  Na3  1  0.65101400  0.25000000  0.66429000  1
  Mo  Mo0  1  0.10852000  0.25000000  0.21717700  1
  Mo  Mo1  1  0.89148000  0.75000000  0.78282300  1
  Mo  Mo2  1  0.39148000  0.75000000  0.71717700  1
  Mo  Mo3  1  0.60852000  0.25000000  0.28282300  1
  C  C0  1  0.19013800  0.43469600  0.29864900  1
  C  C1  1  0.80986200  0.93469600  0.70135100  1
  C  C2  1  0.30986200  0.56530400  0.79864900  1
  C  C3  1  0.69013800  0.06530400  0.20135100  1
  C  C4  1  0.80986200  0.56530400  0.70135100  1
  C  C5  1  0.19013800  0.06530400  0.29864900  1
  C  C6  1  0.69013800  0.43469600  0.20135100  1
  C  C7  1  0.30986200  0.93469600  0.79864900  1
  C  C8  1  0.01035500  0.43250800  0.19706600  1
  C  C9  1  0.98964500  0.93250800  0.80293400  1
  C  C10  1  0.48964500  0.56749200  0.69706600  1
  C  C11  1  0.51035500  0.06749200  0.30293400  1
  C  C12  1  0.98964500  0.56749200  0.80293400  1
  C  C13  1  0.01035500  0.06749200  0.19706600  1
  C  C14  1  0.51035500  0.43250800  0.30293400  1
  C  C15  1  0.48964500  0.93250800  0.69706600  1
  N  N0  1  0.23634900  0.53138300  0.34613200  1
  N  N1  1  0.76365100  0.03138300  0.65386800  1
  N  N2  1  0.26365100  0.46861700  0.84613200  1
  N  N3  1  0.73634900  0.96861700  0.15386800  1
  N  N4  1  0.76365100  0.46861700  0.65386800  1
  N  N5  1  0.23634900  0.96861700  0.34613200  1
  N  N6  1  0.73634900  0.53138300  0.15386800  1
  N  N7  1  0.26365100  0.03138300  0.84613200  1
  N  N8  1  0.95499600  0.52740000  0.17877100  1
  N  N9  1  0.04500400  0.02740000  0.82122900  1
  N  N10  1  0.54500400  0.47260000  0.67877100  1
  N  N11  1  0.45499600  0.97260000  0.32122900  1
  N  N12  1  0.04500400  0.47260000  0.82122900  1
  N  N13  1  0.95499600  0.97260000  0.17877100  1
  N  N14  1  0.45499600  0.52740000  0.32122900  1
  N  N15  1  0.54500400  0.02740000  0.67877100  1
  N  N16  1  0.06310800  0.25000000  0.42502800  1
  N  N17  1  0.93689200  0.75000000  0.57497200  1
  N  N18  1  0.43689200  0.75000000  0.92502800  1
  N  N19  1  0.56310800  0.25000000  0.07497200  1
  N  N20  1  0.11011000  0.25000000  0.51302600  1
  N  N21  1  0.88989000  0.75000000  0.48697400  1
  N  N22  1  0.38989000  0.75000000  0.01302600  1
  N  N23  1  0.61011000  0.25000000  0.98697400  1
  N  N24  1  0.15671300  0.25000000  0.59835600  1
  N  N25  1  0.84328700  0.75000000  0.40164400  1
  N  N26  1  0.34328700  0.75000000  0.09835600  1
  N  N27  1  0.65671300  0.25000000  0.90164400  1
  O  O0  1  0.15055000  0.25000000  0.06796300  1
  O  O1  1  0.84945000  0.75000000  0.93203700  1
  O  O2  1  0.34945000  0.75000000  0.56796300  1
  O  O3  1  0.65055000  0.25000000  0.43203700  1
loop_
_geom_bond_atom_site_label_1
_geom_bond_atom_site_label_2
_geom_bond_distance
_geom_bond_site_symmetry_2
Cs0 N27 3.326524 1_555
Cs1 N26 3.326524 1_555
Cs2 N25 3.326524 1_555
Cs3 N24 3.326524 1_555
Cs4 N19 3.264076 1_555
Cs4 O0 3.307600 1_555
Cs4 N7 3.357415 1_554
Cs4 N2 3.357415 1_554
Cs5 N18 3.264076 1_555
Cs5 O1 3.307600 1_555
Cs5 N3 3.357415 1_556
Cs5 N6 3.357415 1_556
Cs6 N17 3.264076 1_455
Cs6 O2 3.307600 1_555
Cs6 N5 3.357415 1_555
Cs6 N0 3.357415 1_555
Cs7 N16 3.264076 1_655
Cs7 O3 3.307600 1_555
Cs7 N4 3.357415 1_555
Cs7 N1 3.357415 1_555
Na0 O0 2.466187 1_556
Na1 O1 2.466187 1_554
Na2 O2 2.466187 1_555
Na3 O3 2.466187 1_555
Mo0 O0 1.720025 1_555
Mo0 N16 2.322545 1_555
Mo1 O1 1.720025 1_555
Mo1 N17 2.322545 1_555
Mo2 O2 1.720025 1_555
Mo2 N18 2.322545 1_555
Mo3 O3 1.720025 1_555
Mo3 N19 2.322545 1_555
C0 N0 1.179690 1_555
C0 Mo0 2.147600 1_555
C1 N1 1.179690 1_565
C1 Mo1 2.147600 1_555
C2 N2 1.179690 1_555
C2 Mo2 2.147600 1_555
C3 N3 1.179690 1_545
C3 Mo3 2.147600 1_555
C4 N4 1.179690 1_555
C4 Mo1 2.147600 1_555
C5 N5 1.179690 1_545
C5 Mo0 2.147600 1_555
C6 N6 1.179690 1_555
C6 Mo3 2.147600 1_555
C7 N7 1.179690 1_565
C7 Mo2 2.147600 1_555
C8 N8 1.178540 1_455
C8 Mo0 2.147729 1_555
C9 N9 1.178540 1_665
C9 Mo1 2.147729 1_555
C10 N10 1.178540 1_555
C10 Mo2 2.147729 1_555
C11 N11 1.178540 1_545
C11 Mo3 2.147729 1_555
C12 N12 1.178540 1_655
C12 Mo1 2.147729 1_555
C13 N13 1.178540 1_445
C13 Mo0 2.147729 1_555
C14 N14 1.178540 1_555
C14 Mo3 2.147729 1_555
C15 N15 1.178540 1_565
C15 Mo2 2.147729 1_555
N0 Na2 2.505257 1_555
N1 Na3 2.505257 1_555
N2 Na0 2.505257 1_555
N3 Na1 2.505257 1_555
N4 Na3 2.505257 1_555
N5 Na2 2.505257 1_555
N6 Na1 2.505257 1_555
N7 Na0 2.505257 1_555
N8 Na1 2.456051 1_555
N9 Na0 2.456051 1_555
N10 Na3 2.456051 1_555
N11 Na2 2.456051 1_555
N12 Na0 2.456051 1_555
N13 Na1 2.456051 1_555
N14 Na2 2.456051 1_555
N15 Na3 2.456051 1_555
N16 N20 1.197277 1_555
N17 N21 1.197277 1_555
N18 N22 1.197277 1_556
N19 N23 1.197277 1_554
N20 N24 1.171263 1_555
N21 N25 1.171263 1_555
N22 N26 1.171263 1_555
N23 N27 1.171263 1_555
N24 Na0 2.521974 1_555
N25 Na1 2.521974 1_555
N26 Na2 2.521974 1_555
N27 Na3 2.521974 1_555
