# generated using pymatgen
data_CaYbInSe4
_symmetry_space_group_name_H-M   'P 1'
_cell_length_a   7.06405500
_cell_length_b   8.32109900
_cell_length_c   14.53052200
_cell_angle_alpha   90.00000000
_cell_angle_beta   90.00000000
_cell_angle_gamma   90.00000000
_symmetry_Int_Tables_number   1
_chemical_formula_structural   CaYbInSe4
_chemical_formula_sum   'Ca4 Yb4 In4 Se16'
_cell_volume   854.11426900
_cell_formula_units_Z   4
loop_
 _symmetry_equiv_pos_site_id
 _symmetry_equiv_pos_as_xyz
  1  'x, y, z'
loop_
 _atom_site_type_symbol
 _atom_site_label
 _atom_site_symmetry_multiplicity
 _atom_site_fract_x
 _atom_site_fract_y
 _atom_site_fract_z
 _atom_site_occupancy
  Ca  Ca0  1  0.00382200  0.75000000  0.26602500  1
  Ca  Ca1  1  0.50382200  0.25000000  0.23397500  1
  Ca  Ca2  1  0.99617800  0.25000000  0.73397500  1
  Ca  Ca3  1  0.49617800  0.75000000  0.76602500  1
  Yb  Yb0  1  0.50000000  0.00000000  0.50000000  1
  Yb  Yb1  1  0.00000000  0.00000000  0.00000000  1
  Yb  Yb2  1  0.50000000  0.50000000  0.50000000  1
  Yb  Yb3  1  0.00000000  0.50000000  0.00000000  1
  In  In0  1  0.59024200  0.75000000  0.08761800  1
  In  In1  1  0.09024200  0.25000000  0.41238200  1
  In  In2  1  0.40975800  0.25000000  0.91238200  1
  In  In3  1  0.90975800  0.75000000  0.58761800  1
  Se  Se0  1  0.22510300  0.75000000  0.09047100  1
  Se  Se1  1  0.72510300  0.25000000  0.40952900  1
  Se  Se2  1  0.77489700  0.25000000  0.90952900  1
  Se  Se3  1  0.27489700  0.75000000  0.59047100  1
  Se  Se4  1  0.74594300  0.75000000  0.42410600  1
  Se  Se5  1  0.24594300  0.25000000  0.07589400  1
  Se  Se6  1  0.25405700  0.25000000  0.57589400  1
  Se  Se7  1  0.75405700  0.75000000  0.92410600  1
  Se  Se8  1  0.76249400  0.99264500  0.16688400  1
  Se  Se9  1  0.26249400  0.00735500  0.33311600  1
  Se  Se10  1  0.23750600  0.49264500  0.83311600  1
  Se  Se11  1  0.73750600  0.50735500  0.66688400  1
  Se  Se12  1  0.23750600  0.00735500  0.83311600  1
  Se  Se13  1  0.73750600  0.99264500  0.66688400  1
  Se  Se14  1  0.76249400  0.50735500  0.16688400  1
  Se  Se15  1  0.26249400  0.49264500  0.33311600  1
loop_
_geom_bond_atom_site_label_1
_geom_bond_atom_site_label_2
_geom_bond_distance
_geom_bond_site_symmetry_2
Ca0 Se4 2.931671 1_455
Ca0 Se15 2.979130 1_555
Ca0 Se9 2.979130 1_565
Ca0 Se0 2.991731 1_555
Ca0 Se14 3.009666 1_455
Ca0 Se8 3.009666 1_455
Ca1 Se5 2.931671 1_555
Ca1 Se14 2.979130 1_555
Ca1 Se8 2.979130 1_545
Ca1 Se1 2.991731 1_555
Ca1 Se9 3.009666 1_555
Ca1 Se15 3.009666 1_555
Ca2 Se6 2.931671 1_655
Ca2 Se13 2.979130 1_545
Ca2 Se11 2.979130 1_555
Ca2 Se2 2.991731 1_555
Ca2 Se12 3.009666 1_655
Ca2 Se10 3.009666 1_655
Ca3 Se7 2.931671 1_555
Ca3 Se12 2.979130 1_565
Ca3 Se10 2.979130 1_555
Ca3 Se3 2.991731 1_555
Ca3 Se13 3.009666 1_555
Ca3 Se11 3.009666 1_555
In0 Se0 2.579695 1_555
In0 Se8 2.623708 1_555
In0 Se14 2.623708 1_555
In0 Se7 2.642741 1_554
In1 Se1 2.579695 1_455
In1 Se9 2.623708 1_555
In1 Se15 2.623708 1_555
In1 Se6 2.642741 1_555
In2 Se2 2.579695 1_555
In2 Se12 2.623708 1_555
In2 Se10 2.623708 1_555
In2 Se5 2.642741 1_556
In3 Se3 2.579695 1_655
In3 Se13 2.623708 1_555
In3 Se11 2.623708 1_555
In3 Se4 2.642741 1_555
Se0 Yb3 2.929887 1_555
Se0 Yb1 2.929887 1_565
Se1 Yb0 2.929887 1_555
Se1 Yb2 2.929887 1_555
Se2 Yb3 2.929887 1_656
Se2 Yb1 2.929887 1_656
Se3 Yb2 2.929887 1_555
Se3 Yb0 2.929887 1_565
Se4 Yb0 2.926101 1_565
Se4 Yb2 2.926101 1_555
Se5 Yb3 2.926101 1_555
Se5 Yb1 2.926101 1_555
Se6 Yb0 2.926101 1_555
Se6 Yb2 2.926101 1_555
Se7 Yb3 2.926101 1_656
Se7 Yb1 2.926101 1_666
Se8 Yb1 2.949374 1_665
Se9 Yb0 2.949374 1_555
Se10 Yb3 2.949374 1_556
Se11 Yb2 2.949374 1_555
Se12 Yb1 2.949374 1_556
Se13 Yb0 2.949374 1_565
Se14 Yb3 2.949374 1_655
Se15 Yb2 2.949374 1_555
