# generated using pymatgen
data_K3Li3TeO6
_symmetry_space_group_name_H-M   'P 1'
_cell_length_a   6.07384100
_cell_length_b   9.83397400
_cell_length_c   11.85758500
_cell_angle_alpha   90.00000000
_cell_angle_beta   90.00000000
_cell_angle_gamma   90.00000000
_symmetry_Int_Tables_number   1
_chemical_formula_structural   K3Li3TeO6
_chemical_formula_sum   'K12 Li12 Te4 O24'
_cell_volume   708.25348653
_cell_formula_units_Z   4
loop_
 _symmetry_equiv_pos_site_id
 _symmetry_equiv_pos_as_xyz
  1  'x, y, z'
loop_
 _atom_site_type_symbol
 _atom_site_label
 _atom_site_symmetry_multiplicity
 _atom_site_fract_x
 _atom_site_fract_y
 _atom_site_fract_z
 _atom_site_occupancy
  K  K0  1  0.75000000  0.70746300  0.00645400  1
  K  K1  1  0.75000000  0.79253700  0.50645400  1
  K  K2  1  0.75000000  0.04089900  0.96217600  1
  K  K3  1  0.75000000  0.45910100  0.46217600  1
  K  K4  1  0.25000000  0.87194700  0.47210500  1
  K  K5  1  0.25000000  0.20746300  0.49354600  1
  K  K6  1  0.25000000  0.62805300  0.97210500  1
  K  K7  1  0.75000000  0.37194700  0.02789500  1
  K  K8  1  0.75000000  0.12805300  0.52789500  1
  K  K9  1  0.25000000  0.54089900  0.53782400  1
  K  K10  1  0.25000000  0.95910100  0.03782400  1
  K  K11  1  0.25000000  0.29253700  0.99354600  1
  Li  Li0  1  0.25000000  0.09066900  0.25112300  1
  Li  Li1  1  0.50617700  0.83562900  0.25662600  1
  Li  Li2  1  0.25000000  0.40933100  0.75112300  1
  Li  Li3  1  0.49382300  0.16437100  0.74337400  1
  Li  Li4  1  0.99382300  0.66437100  0.75662600  1
  Li  Li5  1  0.50617700  0.66437100  0.75662600  1
  Li  Li6  1  0.49382300  0.33562900  0.24337400  1
  Li  Li7  1  0.00617700  0.33562900  0.24337400  1
  Li  Li8  1  0.75000000  0.90933100  0.74887700  1
  Li  Li9  1  0.99382300  0.83562900  0.25662600  1
  Li  Li10  1  0.75000000  0.59066900  0.24887700  1
  Li  Li11  1  0.00617700  0.16437100  0.74337400  1
  Te  Te0  1  0.25000000  0.91310300  0.75561000  1
  Te  Te1  1  0.75000000  0.08689700  0.24439000  1
  Te  Te2  1  0.25000000  0.58689700  0.25561000  1
  Te  Te3  1  0.75000000  0.41310300  0.74439000  1
  O  O0  1  0.51202800  0.16114800  0.14707300  1
  O  O1  1  0.98797200  0.16114800  0.14707300  1
  O  O2  1  0.48639700  0.51455800  0.15789300  1
  O  O3  1  0.25000000  0.73791800  0.67607900  1
  O  O4  1  0.25000000  0.09063200  0.83551600  1
  O  O5  1  0.25000000  0.76208200  0.17607900  1
  O  O6  1  0.98639700  0.01455800  0.34210700  1
  O  O7  1  0.75000000  0.59063200  0.66448400  1
  O  O8  1  0.51360300  0.48544200  0.84210700  1
  O  O9  1  0.98639700  0.48544200  0.84210700  1
  O  O10  1  0.75000000  0.23791800  0.82392100  1
  O  O11  1  0.48639700  0.98544200  0.65789300  1
  O  O12  1  0.98797200  0.33885200  0.64707300  1
  O  O13  1  0.51360300  0.01455800  0.34210700  1
  O  O14  1  0.01202800  0.66114800  0.35292700  1
  O  O15  1  0.25000000  0.40936800  0.33551600  1
  O  O16  1  0.48797200  0.66114800  0.35292700  1
  O  O17  1  0.75000000  0.26208200  0.32392100  1
  O  O18  1  0.48797200  0.83885200  0.85292700  1
  O  O19  1  0.75000000  0.90936800  0.16448400  1
  O  O20  1  0.01202800  0.83885200  0.85292700  1
  O  O21  1  0.01360300  0.51455800  0.15789300  1
  O  O22  1  0.01360300  0.98544200  0.65789300  1
  O  O23  1  0.51202800  0.33885200  0.64707300  1
loop_
_geom_bond_atom_site_label_1
_geom_bond_atom_site_label_2
_geom_bond_distance
_geom_bond_site_symmetry_2
K0 O19 2.730138 1_555
K0 O20 2.741616 1_654
K0 O18 2.741616 1_554
K1 O7 2.730138 1_555
K1 O14 2.741616 1_655
K1 O16 2.741616 1_555
K2 O10 2.537984 1_555
K2 O19 2.725384 1_546
K2 O20 2.856384 1_645
K2 O18 2.856384 1_545
K2 O1 2.879986 1_556
K2 O0 2.879986 1_556
K3 O17 2.537984 1_555
K3 O7 2.725384 1_555
K3 O14 2.856384 1_655
K3 O16 2.856384 1_555
K3 O12 2.879986 1_555
K3 O23 2.879986 1_555
K4 O6 2.628001 1_465
K4 O13 2.628001 1_565
K4 O3 2.754458 1_555
K4 O22 2.856662 1_555
K4 O11 2.856662 1_555
K4 O14 2.895431 1_555
K4 O16 2.895431 1_555
K5 O15 2.730138 1_555
K5 O12 2.741616 1_455
K5 O23 2.741616 1_555
K6 O8 2.628001 1_555
K6 O9 2.628001 1_455
K6 O5 2.754458 1_556
K6 O2 2.856662 1_556
K6 O21 2.856662 1_556
K6 O18 2.895431 1_555
K6 O20 2.895431 1_555
K7 O2 2.628001 1_555
K7 O21 2.628001 1_655
K7 O10 2.754458 1_554
K7 O8 2.856662 1_554
K7 O9 2.856662 1_554
K7 O0 2.895431 1_555
K7 O1 2.895431 1_555
K8 O11 2.628001 1_545
K8 O22 2.628001 1_645
K8 O17 2.754458 1_555
K8 O6 2.856662 1_555
K8 O13 2.856662 1_555
K8 O23 2.895431 1_555
K8 O12 2.895431 1_555
K9 O3 2.537984 1_555
K9 O15 2.725384 1_555
K9 O23 2.856384 1_555
K9 O12 2.856384 1_455
K9 O14 2.879986 1_555
K9 O16 2.879986 1_555
K10 O5 2.537984 1_555
K10 O4 2.725384 1_564
K10 O0 2.856384 1_565
K10 O1 2.856384 1_465
K10 O20 2.879986 1_554
K10 O18 2.879986 1_554
K11 O4 2.730138 1_555
K11 O1 2.741616 1_456
K11 O0 2.741616 1_556
Li0 O13 2.070651 1_555
Li0 O6 2.070651 1_455
Li0 O0 2.129675 1_555
Li0 O1 2.129675 1_455
Li1 O5 1.963766 1_555
Li1 O19 1.978071 1_555
Li1 O13 2.031145 1_565
Li1 O16 2.064042 1_555
Li2 O8 2.070651 1_555
Li2 O9 2.070651 1_455
Li2 O23 2.129675 1_555
Li2 O12 2.129675 1_455
Li3 O10 1.963766 1_555
Li3 O4 1.978071 1_555
Li3 O11 2.031145 1_545
Li3 O23 2.064042 1_555
Li4 O3 1.963766 1_655
Li4 O7 1.978071 1_555
Li4 O9 2.031145 1_555
Li4 O20 2.064042 1_655
Li5 O3 1.963766 1_555
Li5 O7 1.978071 1_555
Li5 O8 2.031145 1_555
Li5 O18 2.064042 1_555
Li6 O17 1.963766 1_555
Li6 O15 1.978071 1_555
Li6 O2 2.031145 1_555
Li6 O0 2.064042 1_555
Li7 O17 1.963766 1_455
Li7 O15 1.978071 1_555
Li7 O21 2.031145 1_555
Li7 O1 2.064042 1_455
Li8 O11 2.070651 1_555
Li8 O22 2.070651 1_655
Li8 O20 2.129675 1_655
Li8 O18 2.129675 1_555
Li9 O5 1.963766 1_655
Li9 O19 1.978071 1_555
Li9 O6 2.031145 1_565
Li9 O14 2.064042 1_655
Li10 O2 2.070651 1_555
Li10 O21 2.070651 1_655
Li10 O14 2.129675 1_655
Li10 O16 2.129675 1_555
Li11 O10 1.963766 1_455
Li11 O4 1.978071 1_555
Li11 O22 2.031145 1_545
Li11 O12 2.064042 1_455
O0 Te1 1.988454 1_555
O1 Te1 1.988454 1_555
O2 Te2 1.977435 1_555
O3 Te0 1.963989 1_555
O4 Te0 1.986357 1_545
O5 Te2 1.963989 1_555
O6 Te1 1.977435 1_555
O7 Te3 1.986357 1_555
O8 Te3 1.977435 1_555
O9 Te3 1.977435 1_555
O10 Te3 1.963989 1_555
O11 Te0 1.977435 1_555
O12 Te3 1.988454 1_555
O13 Te1 1.977435 1_555
O14 Te2 1.988454 1_555
O15 Te2 1.986357 1_555
O16 Te2 1.988454 1_555
O17 Te1 1.963989 1_555
O18 Te0 1.988454 1_555
O19 Te1 1.986357 1_565
O20 Te0 1.988454 1_555
O21 Te2 1.977435 1_555
O22 Te0 1.977435 1_555
O23 Te3 1.988454 1_555
