# generated using pymatgen
data_Rb6U(Mo2O9)2
_symmetry_space_group_name_H-M   'P 1'
_cell_length_a   10.61650681
_cell_length_b   10.61650681
_cell_length_c   14.39448557
_cell_angle_alpha   59.36294918
_cell_angle_beta   59.36294918
_cell_angle_gamma   67.40162638
_symmetry_Int_Tables_number   1
_chemical_formula_structural   Rb6U(Mo2O9)2
_chemical_formula_sum   'Rb12 U2 Mo8 O36'
_cell_volume   1183.95474120
_cell_formula_units_Z   2
loop_
 _symmetry_equiv_pos_site_id
 _symmetry_equiv_pos_as_xyz
  1  'x, y, z'
loop_
 _atom_site_type_symbol
 _atom_site_label
 _atom_site_symmetry_multiplicity
 _atom_site_fract_x
 _atom_site_fract_y
 _atom_site_fract_z
 _atom_site_occupancy
  Rb  Rb0  1  0.31969100  0.68030900  0.25000000  1
  Rb  Rb1  1  0.92122500  0.65278900  0.66615400  1
  Rb  Rb2  1  0.46684400  0.81527700  0.66509900  1
  Rb  Rb3  1  0.34721100  0.07877500  0.83384600  1
  Rb  Rb4  1  0.18472300  0.53315600  0.83490100  1
  Rb  Rb5  1  0.81527700  0.46684400  0.16509900  1
  Rb  Rb6  1  0.68030900  0.31969100  0.75000000  1
  Rb  Rb7  1  0.53315600  0.18472300  0.33490100  1
  Rb  Rb8  1  0.65278900  0.92122500  0.16615400  1
  Rb  Rb9  1  0.07877500  0.34721100  0.33384600  1
  Rb  Rb10  1  0.99173100  0.00826900  0.25000000  1
  Rb  Rb11  1  0.00826900  0.99173100  0.75000000  1
  U  U0  1  0.50000000  0.50000000  0.00000000  1
  U  U1  1  0.50000000  0.50000000  0.50000000  1
  Mo  Mo0  1  0.67952000  0.79506600  0.92972800  1
  Mo  Mo1  1  0.87416200  0.25081300  0.95710300  1
  Mo  Mo2  1  0.32048000  0.20493400  0.07027200  1
  Mo  Mo3  1  0.20493400  0.32048000  0.57027200  1
  Mo  Mo4  1  0.25081300  0.87416200  0.45710300  1
  Mo  Mo5  1  0.79506600  0.67952000  0.42972800  1
  Mo  Mo6  1  0.12583800  0.74918700  0.04289700  1
  Mo  Mo7  1  0.74918700  0.12583800  0.54289700  1
  O  O0  1  0.13364800  0.29620000  0.12486200  1
  O  O1  1  0.81579600  0.20110300  0.11007400  1
  O  O2  1  0.86635200  0.70380000  0.87513800  1
  O  O3  1  0.18420400  0.79889700  0.88992600  1
  O  O4  1  0.13545000  0.89815300  0.06123000  1
  O  O5  1  0.46123100  0.54032200  0.62390700  1
  O  O6  1  0.54032200  0.46123100  0.12390700  1
  O  O7  1  0.44951600  0.26685100  0.08603000  1
  O  O8  1  0.70497500  0.94381600  0.62170200  1
  O  O9  1  0.29620000  0.13364800  0.62486200  1
  O  O10  1  0.58315600  0.25971800  0.59658900  1
  O  O11  1  0.62574400  0.74842200  0.08092600  1
  O  O12  1  0.94381600  0.70497500  0.12170200  1
  O  O13  1  0.25971800  0.58315600  0.09658900  1
  O  O14  1  0.86455000  0.10184700  0.93877000  1
  O  O15  1  0.10184700  0.86455000  0.43877000  1
  O  O16  1  0.98997800  0.67250800  0.35262000  1
  O  O17  1  0.55048400  0.73314900  0.91397000  1
  O  O18  1  0.32749200  0.01002200  0.14738000  1
  O  O19  1  0.26685100  0.44951600  0.58603000  1
  O  O20  1  0.74028200  0.41684400  0.90341100  1
  O  O21  1  0.25157800  0.37425600  0.41907400  1
  O  O22  1  0.41684400  0.74028200  0.40341100  1
  O  O23  1  0.37425600  0.25157800  0.91907400  1
  O  O24  1  0.79889700  0.18420400  0.38992600  1
  O  O25  1  0.05618400  0.29502500  0.87829800  1
  O  O26  1  0.74842200  0.62574400  0.58092600  1
  O  O27  1  0.67250800  0.98997800  0.85262000  1
  O  O28  1  0.29502500  0.05618400  0.37829800  1
  O  O29  1  0.01002200  0.32749200  0.64738000  1
  O  O30  1  0.89815300  0.13545000  0.56123000  1
  O  O31  1  0.70380000  0.86635200  0.37513800  1
  O  O32  1  0.53876900  0.45967800  0.37609300  1
  O  O33  1  0.45967800  0.53876900  0.87609300  1
  O  O34  1  0.73314900  0.55048400  0.41397000  1
  O  O35  1  0.20110300  0.81579600  0.61007400  1
loop_
_geom_bond_atom_site_label_1
_geom_bond_atom_site_label_2
_geom_bond_distance
_geom_bond_site_symmetry_2
Mo0 O27 1.773246 1_555
Mo0 O11 1.777749 1_556
Mo0 O2 1.789132 1_555
Mo0 O17 1.876417 1_555
Mo1 O14 1.777084 1_555
Mo1 O25 1.778111 1_655
Mo1 O1 1.785316 1_556
Mo1 O20 1.878884 1_555
Mo2 O18 1.773246 1_555
Mo2 O23 1.777749 1_554
Mo2 O0 1.789132 1_555
Mo2 O7 1.876417 1_555
Mo3 O29 1.773246 1_555
Mo3 O21 1.777749 1_555
Mo3 O9 1.789132 1_555
Mo3 O19 1.876417 1_555
Mo4 O15 1.777084 1_555
Mo4 O28 1.778111 1_565
Mo4 O35 1.785316 1_555
Mo4 O22 1.878884 1_555
Mo5 O16 1.773246 1_555
Mo5 O26 1.777749 1_555
Mo5 O31 1.789132 1_555
Mo5 O34 1.876417 1_555
Mo6 O4 1.777084 1_555
Mo6 O12 1.778111 1_455
Mo6 O3 1.785316 1_554
Mo6 O13 1.878884 1_555
Mo7 O30 1.777084 1_555
Mo7 O8 1.778111 1_545
Mo7 O24 1.785316 1_555
Mo7 O10 1.878884 1_555
O0 Rb9 3.051861 1_555
O0 Rb5 3.067574 1_455
O0 Rb10 3.165510 1_455
O0 Rb4 3.476156 1_554
O1 Rb10 2.903386 1_555
O1 Rb7 3.072084 1_555
O1 Rb5 3.293610 1_555
O2 Rb1 3.051861 1_555
O2 Rb4 3.067574 1_655
O2 Rb11 3.165510 1_655
O2 Rb5 3.476156 1_556
O3 Rb11 2.903386 1_555
O3 Rb2 3.072084 1_555
O3 Rb4 3.293610 1_555
O4 Rb10 2.952848 1_465
O4 Rb3 2.976748 1_564
O4 Rb0 3.477572 1_555
O5 U1 1.851585 1_555
O5 Rb4 2.949036 1_555
O5 Rb6 3.158010 1_555
O5 Rb2 3.287825 1_555
O6 U0 1.851585 1_555
O6 Rb7 2.949036 1_555
O6 Rb0 3.158010 1_555
O6 Rb5 3.287825 1_555
O7 U0 2.273015 1_555
O7 Rb8 3.404289 1_545
O8 Rb2 2.969322 1_555
O8 Rb1 3.042557 1_555
O9 Rb3 3.051861 1_555
O9 Rb2 3.067574 1_545
O9 Rb11 3.165510 1_545
O9 Rb7 3.476156 1_555
O10 U1 2.263899 1_555
O10 Rb3 3.149760 1_555
O10 Rb6 3.256501 1_555
O11 Rb8 2.830343 1_555
O11 Rb5 2.936607 1_555
O11 Rb0 2.992643 1_555
O12 Rb5 2.969322 1_555
O12 Rb8 3.042557 1_555
O13 U0 2.263899 1_555
O13 Rb9 3.149760 1_555
O13 Rb0 3.256501 1_555
O14 Rb11 2.952848 1_645
O14 Rb8 2.976748 1_546
O14 Rb6 3.477572 1_555
O15 Rb10 2.952848 1_465
O15 Rb1 2.976748 1_455
O15 Rb0 3.477572 1_555
O16 Rb0 3.044646 1_655
O16 Rb10 3.089527 1_565
O16 Rb9 3.328357 1_655
O17 U0 2.273015 1_556
O17 Rb3 3.404289 1_565
O18 Rb0 3.044646 1_545
O18 Rb10 3.089527 1_455
O18 Rb8 3.328357 1_545
O19 U1 2.273015 1_555
O19 Rb1 3.404289 1_455
O20 U0 2.263899 1_556
O20 Rb1 3.149760 1_555
O20 Rb6 3.256501 1_555
O21 Rb9 2.830343 1_555
O21 Rb7 2.936607 1_555
O21 Rb0 2.992643 1_555
O22 U1 2.263899 1_555
O22 Rb8 3.149760 1_555
O22 Rb0 3.256501 1_555
O23 Rb3 2.830343 1_555
O23 Rb4 2.936607 1_555
O23 Rb6 2.992643 1_555
O24 Rb10 2.903386 1_555
O24 Rb5 3.072084 1_555
O24 Rb7 3.293610 1_555
O25 Rb4 2.969322 1_555
O25 Rb3 3.042557 1_555
O26 Rb1 2.830343 1_555
O26 Rb2 2.936607 1_555
O26 Rb6 2.992643 1_555
O27 Rb6 3.044646 1_565
O27 Rb11 3.089527 1_655
O27 Rb3 3.328357 1_565
O28 Rb7 2.969322 1_555
O28 Rb9 3.042557 1_555
O29 Rb6 3.044646 1_455
O29 Rb11 3.089527 1_545
O29 Rb1 3.328357 1_455
O30 Rb11 2.952848 1_645
O30 Rb9 2.976748 1_655
O30 Rb6 3.477572 1_555
O31 Rb8 3.051861 1_555
O31 Rb7 3.067574 1_565
O31 Rb10 3.165510 1_565
O31 Rb2 3.476156 1_555
O32 U1 1.851585 1_555
O32 Rb5 2.949036 1_555
O32 Rb0 3.158010 1_555
O32 Rb7 3.287825 1_555
O33 U0 1.851585 1_556
O33 Rb2 2.949036 1_555
O33 Rb6 3.158010 1_555
O33 Rb4 3.287825 1_555
O34 U1 2.273015 1_555
O34 Rb9 3.404289 1_655
O35 Rb11 2.903386 1_555
O35 Rb4 3.072084 1_555
O35 Rb2 3.293610 1_555
