# generated using pymatgen
data_KCa9Co(PO4)7
_symmetry_space_group_name_H-M   'P 1'
_cell_length_a   13.82250188
_cell_length_b   13.82250188
_cell_length_c   13.82250173
_cell_angle_alpha   44.74933273
_cell_angle_beta   44.74933273
_cell_angle_gamma   44.74933329
_symmetry_Int_Tables_number   1
_chemical_formula_structural   KCa9Co(PO4)7
_chemical_formula_sum   'K2 Ca18 Co2 P14 O56'
_cell_volume   1190.72206309
_cell_formula_units_Z   2
loop_
 _symmetry_equiv_pos_site_id
 _symmetry_equiv_pos_as_xyz
  1  'x, y, z'
loop_
 _atom_site_type_symbol
 _atom_site_label
 _atom_site_symmetry_multiplicity
 _atom_site_fract_x
 _atom_site_fract_y
 _atom_site_fract_z
 _atom_site_occupancy
  K  K0  1  0.31368800  0.31368800  0.31368800  1
  K  K1  1  0.81368800  0.81368800  0.81368800  1
  Ca  Ca0  1  0.15500800  0.55313900  0.58912700  1
  Ca  Ca1  1  0.55313900  0.58912700  0.15500800  1
  Ca  Ca2  1  0.05359400  0.43726900  0.02818900  1
  Ca  Ca3  1  0.02818900  0.05359400  0.43726900  1
  Ca  Ca4  1  0.93726900  0.55359400  0.52818900  1
  Ca  Ca5  1  0.93485900  0.33757900  0.92494300  1
  Ca  Ca6  1  0.58912700  0.15500800  0.55313900  1
  Ca  Ca7  1  0.33757900  0.92494300  0.93485900  1
  Ca  Ca8  1  0.55359400  0.52818900  0.93726900  1
  Ca  Ca9  1  0.43726900  0.02818900  0.05359400  1
  Ca  Ca10  1  0.83757900  0.43485900  0.42494300  1
  Ca  Ca11  1  0.65500800  0.08912700  0.05313900  1
  Ca  Ca12  1  0.05313900  0.65500800  0.08912700  1
  Ca  Ca13  1  0.42494300  0.83757900  0.43485900  1
  Ca  Ca14  1  0.08912700  0.05313900  0.65500800  1
  Ca  Ca15  1  0.92494300  0.93485900  0.33757900  1
  Ca  Ca16  1  0.52818900  0.93726900  0.55359400  1
  Ca  Ca17  1  0.43485900  0.42494300  0.83757900  1
  Co  Co0  1  0.99784500  0.99784500  0.99784500  1
  Co  Co1  1  0.49784500  0.49784500  0.49784500  1
  P  P0  1  0.31038100  0.77343900  0.81702900  1
  P  P1  1  0.27343900  0.81038100  0.31702900  1
  P  P2  1  0.18418300  0.68023900  0.22338000  1
  P  P3  1  0.68418300  0.72338000  0.18023900  1
  P  P4  1  0.31702900  0.27343900  0.81038100  1
  P  P5  1  0.18023900  0.68418300  0.72338000  1
  P  P6  1  0.72969900  0.72969900  0.72969900  1
  P  P7  1  0.81038100  0.31702900  0.27343900  1
  P  P8  1  0.22338000  0.18418300  0.68023900  1
  P  P9  1  0.72338000  0.18023900  0.68418300  1
  P  P10  1  0.68023900  0.22338000  0.18418300  1
  P  P11  1  0.77343900  0.81702900  0.31038100  1
  P  P12  1  0.81702900  0.31038100  0.77343900  1
  P  P13  1  0.22969900  0.22969900  0.22969900  1
  O  O0  1  0.62586300  0.35629900  0.62161900  1
  O  O1  1  0.31068200  0.88436900  0.32733000  1
  O  O2  1  0.73638000  0.10161900  0.63197200  1
  O  O3  1  0.23638000  0.13197200  0.60161900  1
  O  O4  1  0.60785100  0.88636600  0.16212500  1
  O  O5  1  0.88906900  0.60892500  0.73142800  1
  O  O6  1  0.38436900  0.81068200  0.82733000  1
  O  O7  1  0.35629900  0.62161900  0.62586300  1
  O  O8  1  0.32721800  0.86493800  0.14832300  1
  O  O9  1  0.85448800  0.40936400  0.10044000  1
  O  O10  1  0.60892500  0.73142800  0.88906900  1
  O  O11  1  0.32733000  0.31068200  0.88436900  1
  O  O12  1  0.85862200  0.65235900  0.11501800  1
  O  O13  1  0.63197200  0.73638000  0.10161900  1
  O  O14  1  0.14832300  0.32721800  0.86493800  1
  O  O15  1  0.11501800  0.85862200  0.65235900  1
  O  O16  1  0.65235900  0.11501800  0.85862200  1
  O  O17  1  0.73142800  0.88906900  0.60892500  1
  O  O18  1  0.10161900  0.63197200  0.73638000  1
  O  O19  1  0.88436900  0.32733000  0.31068200  1
  O  O20  1  0.23142800  0.10892500  0.38906900  1
  O  O21  1  0.38906900  0.23142800  0.10892500  1
  O  O22  1  0.18801800  0.18801800  0.18801800  1
  O  O23  1  0.38624200  0.35864600  0.63383800  1
  O  O24  1  0.61501800  0.15235900  0.35862200  1
  O  O25  1  0.13197200  0.60161900  0.23638000  1
  O  O26  1  0.90936400  0.35448800  0.60044000  1
  O  O27  1  0.88636600  0.16212500  0.60785100  1
  O  O28  1  0.16212500  0.60785100  0.88636600  1
  O  O29  1  0.66212500  0.38636600  0.10785100  1
  O  O30  1  0.63383800  0.38624200  0.35864600  1
  O  O31  1  0.88624200  0.13383800  0.85864600  1
  O  O32  1  0.85629900  0.12586300  0.12161900  1
  O  O33  1  0.15235900  0.35862200  0.61501800  1
  O  O34  1  0.68801800  0.68801800  0.68801800  1
  O  O35  1  0.13383800  0.85864600  0.88624200  1
  O  O36  1  0.60161900  0.23638000  0.13197200  1
  O  O37  1  0.10044000  0.85448800  0.40936400  1
  O  O38  1  0.82721800  0.64832300  0.36493800  1
  O  O39  1  0.40936400  0.10044000  0.85448800  1
  O  O40  1  0.64832300  0.36493800  0.82721800  1
  O  O41  1  0.62161900  0.62586300  0.35629900  1
  O  O42  1  0.82733000  0.38436900  0.81068200  1
  O  O43  1  0.38636600  0.10785100  0.66212500  1
  O  O44  1  0.35448800  0.60044000  0.90936400  1
  O  O45  1  0.10785100  0.66212500  0.38636600  1
  O  O46  1  0.85864600  0.88624200  0.13383800  1
  O  O47  1  0.81068200  0.82733000  0.38436900  1
  O  O48  1  0.35864600  0.63383800  0.38624200  1
  O  O49  1  0.86493800  0.14832300  0.32721800  1
  O  O50  1  0.12586300  0.12161900  0.85629900  1
  O  O51  1  0.60044000  0.90936400  0.35448800  1
  O  O52  1  0.36493800  0.82721800  0.64832300  1
  O  O53  1  0.12161900  0.85629900  0.12586300  1
  O  O54  1  0.35862200  0.61501800  0.15235900  1
  O  O55  1  0.10892500  0.38906900  0.23142800  1
loop_
_geom_bond_atom_site_label_1
_geom_bond_atom_site_label_2
_geom_bond_distance
_geom_bond_site_symmetry_2
K0 O3 2.619766 1_555
K0 O36 2.619766 1_555
K0 O25 2.619767 1_555
K1 O13 2.619766 1_556
K1 O2 2.619766 1_565
K1 O18 2.619767 1_655
Ca0 O18 2.397800 1_555
Ca0 O45 2.398395 1_555
Ca0 O5 2.415426 1_455
Ca0 O48 2.415815 1_555
Ca0 O23 2.462945 1_555
Ca0 O33 2.472462 1_555
Ca0 O14 2.700753 1_555
Ca0 O37 2.755342 1_555
Ca1 O13 2.397800 1_555
Ca1 O29 2.398395 1_555
Ca1 O10 2.415426 1_554
Ca1 O30 2.415815 1_555
Ca1 O48 2.462945 1_555
Ca1 O54 2.472462 1_555
Ca1 O8 2.700753 1_555
Ca1 O9 2.755342 1_555
Ca2 O9 2.403565 1_455
Ca2 O28 2.436123 1_554
Ca2 O22 2.475839 1_555
Ca2 O11 2.486584 1_554
Ca2 O12 2.576039 1_455
Ca2 O19 2.583628 1_455
Ca2 O14 2.640097 1_554
Ca2 O18 2.696037 1_554
Ca2 O55 2.930935 1_555
Ca3 O37 2.403565 1_545
Ca3 O27 2.436123 1_455
Ca3 O22 2.475839 1_555
Ca3 O19 2.486584 1_455
Ca3 O15 2.576039 1_545
Ca3 O1 2.583628 1_545
Ca3 O49 2.640097 1_455
Ca3 O2 2.696037 1_455
Ca3 O20 2.930935 1_555
Ca4 O26 2.403565 1_555
Ca4 O45 2.436123 1_655
Ca4 O34 2.475839 1_555
Ca4 O47 2.486584 1_555
Ca4 O33 2.576039 1_655
Ca4 O42 2.583628 1_555
Ca4 O38 2.640097 1_555
Ca4 O25 2.696037 1_655
Ca4 O5 2.930935 1_555
Ca5 O14 2.346686 1_655
Ca5 O42 2.374842 1_555
Ca5 O50 2.460119 1_655
Ca5 O9 2.475605 1_556
Ca5 O32 2.480779 1_556
Ca5 O29 2.516241 1_556
Ca5 O5 2.530971 1_555
Ca5 O33 2.941746 1_655
Ca6 O2 2.397800 1_555
Ca6 O43 2.398395 1_555
Ca6 O17 2.415426 1_545
Ca6 O23 2.415815 1_555
Ca6 O30 2.462945 1_555
Ca6 O24 2.472462 1_555
Ca6 O49 2.700753 1_555
Ca6 O39 2.755342 1_555
Ca7 O8 2.346686 1_556
Ca7 O6 2.374842 1_555
Ca7 O53 2.460119 1_556
Ca7 O39 2.475605 1_565
Ca7 O50 2.480779 1_565
Ca7 O43 2.516241 1_565
Ca7 O10 2.530971 1_555
Ca7 O54 2.941746 1_556
Ca8 O44 2.403565 1_555
Ca8 O29 2.436123 1_556
Ca8 O34 2.475839 1_555
Ca8 O42 2.486584 1_555
Ca8 O54 2.576039 1_556
Ca8 O6 2.583628 1_555
Ca8 O40 2.640097 1_555
Ca8 O36 2.696037 1_556
Ca8 O10 2.930935 1_555
Ca9 O39 2.403565 1_554
Ca9 O4 2.436123 1_545
Ca9 O22 2.475839 1_555
Ca9 O1 2.486584 1_545
Ca9 O16 2.576039 1_554
Ca9 O11 2.583628 1_554
Ca9 O8 2.640097 1_545
Ca9 O13 2.696037 1_545
Ca9 O21 2.930935 1_555
Ca10 O38 2.346686 1_555
Ca10 O19 2.374842 1_555
Ca10 O41 2.460119 1_555
Ca10 O26 2.475605 1_555
Ca10 O0 2.480779 1_555
Ca10 O27 2.516241 1_555
Ca10 O55 2.530971 1_655
Ca10 O12 2.941746 1_555
Ca11 O36 2.397800 1_555
Ca11 O4 2.398395 1_545
Ca11 O21 2.415426 1_555
Ca11 O46 2.415815 1_545
Ca11 O31 2.462945 1_554
Ca11 O16 2.472462 1_554
Ca11 O40 2.700753 1_554
Ca11 O51 2.755342 1_545
Ca12 O25 2.397800 1_555
Ca12 O28 2.398395 1_554
Ca12 O55 2.415426 1_555
Ca12 O35 2.415815 1_554
Ca12 O46 2.462945 1_455
Ca12 O12 2.472462 1_455
Ca12 O38 2.700753 1_455
Ca12 O44 2.755342 1_554
Ca13 O52 2.346686 1_555
Ca13 O1 2.374842 1_555
Ca13 O7 2.460119 1_555
Ca13 O51 2.475605 1_555
Ca13 O41 2.480779 1_555
Ca13 O4 2.516241 1_555
Ca13 O20 2.530971 1_565
Ca13 O15 2.941746 1_555
Ca14 O3 2.397800 1_555
Ca14 O27 2.398395 1_455
Ca14 O20 2.415426 1_555
Ca14 O31 2.415815 1_455
Ca14 O35 2.462945 1_545
Ca14 O15 2.472462 1_545
Ca14 O52 2.700753 1_545
Ca14 O26 2.755342 1_455
Ca15 O49 2.346686 1_565
Ca15 O47 2.374842 1_555
Ca15 O32 2.460119 1_565
Ca15 O37 2.475605 1_655
Ca15 O53 2.480779 1_655
Ca15 O45 2.516241 1_655
Ca15 O17 2.530971 1_555
Ca15 O24 2.941746 1_565
Ca16 O51 2.403565 1_555
Ca16 O43 2.436123 1_565
Ca16 O34 2.475839 1_555
Ca16 O6 2.486584 1_555
Ca16 O24 2.576039 1_565
Ca16 O47 2.583628 1_555
Ca16 O52 2.640097 1_555
Ca16 O3 2.696037 1_565
Ca16 O17 2.930935 1_555
Ca17 O40 2.346686 1_555
Ca17 O11 2.374842 1_555
Ca17 O0 2.460119 1_555
Ca17 O44 2.475605 1_555
Ca17 O7 2.480779 1_555
Ca17 O28 2.516241 1_555
Ca17 O21 2.530971 1_556
Ca17 O16 2.941746 1_555
Co0 O50 2.124691 1_665
Co0 O53 2.124691 1_656
Co0 O32 2.124691 1_566
Co0 O31 2.138955 1_565
Co0 O46 2.138955 1_556
Co0 O35 2.138955 1_655
Co1 O41 2.124691 1_555
Co1 O7 2.124691 1_555
Co1 O0 2.124691 1_555
Co1 O30 2.138955 1_555
Co1 O23 2.138955 1_555
Co1 O48 2.138955 1_555
O0 P9 1.579326 1_555
O1 P1 1.545945 1_555
O2 P9 1.544830 1_555
O3 P8 1.544830 1_555
O4 P3 1.564968 1_555
O5 P6 1.560393 1_555
O6 P0 1.545945 1_555
O7 P5 1.579326 1_555
O8 P1 1.547718 1_555
O9 P7 1.555093 1_555
O10 P6 1.560393 1_555
O11 P4 1.545945 1_555
O12 P3 1.548444 1_555
O13 P3 1.544830 1_555
O14 P4 1.547718 1_555
O15 P5 1.548444 1_555
O16 P9 1.548444 1_555
O17 P6 1.560393 1_555
O18 P5 1.544830 1_555
O19 P7 1.545945 1_555
O20 P13 1.560393 1_555
O21 P13 1.560393 1_555
O22 P13 1.552486 1_555
O23 P4 1.568258 1_555
O24 P10 1.548444 1_555
O25 P2 1.544830 1_555
O26 P12 1.555093 1_555
O27 P9 1.564968 1_555
O28 P5 1.564968 1_555
O29 P10 1.564968 1_555
O30 P7 1.568258 1_555
O31 P12 1.568258 1_555
O32 P10 1.579326 1_555
O33 P8 1.548444 1_555
O34 P6 1.552486 1_555
O35 P0 1.568258 1_555
O36 P10 1.544830 1_555
O37 P1 1.555093 1_555
O38 P11 1.547718 1_555
O39 P4 1.555093 1_555
O40 P12 1.547718 1_555
O41 P3 1.579326 1_555
O42 P12 1.545945 1_555
O43 P8 1.564968 1_555
O44 P0 1.555093 1_555
O45 P2 1.564968 1_555
O46 P11 1.568258 1_555
O47 P11 1.545945 1_555
O48 P1 1.568258 1_555
O49 P7 1.547718 1_555
O50 P8 1.579326 1_555
O51 P11 1.555093 1_555
O52 P0 1.547718 1_555
O53 P2 1.579326 1_555
O54 P2 1.548444 1_555
O55 P13 1.560393 1_555
