# generated using pymatgen
data_Zn2BiPO6
_symmetry_space_group_name_H-M   'P 1'
_cell_length_a   5.34038300
_cell_length_b   7.92246100
_cell_length_c   12.14436000
_cell_angle_alpha   90.00000000
_cell_angle_beta   90.00000000
_cell_angle_gamma   90.00000000
_symmetry_Int_Tables_number   1
_chemical_formula_structural   Zn2BiPO6
_chemical_formula_sum   'Zn8 Bi4 P4 O24'
_cell_volume   513.81543629
_cell_formula_units_Z   4
loop_
 _symmetry_equiv_pos_site_id
 _symmetry_equiv_pos_as_xyz
  1  'x, y, z'
loop_
 _atom_site_type_symbol
 _atom_site_label
 _atom_site_symmetry_multiplicity
 _atom_site_fract_x
 _atom_site_fract_y
 _atom_site_fract_z
 _atom_site_occupancy
  Zn  Zn0  1  0.25000000  0.70076800  0.90805000  1
  Zn  Zn1  1  0.75000000  0.20076800  0.59195000  1
  Zn  Zn2  1  0.75000000  0.80510700  0.60357200  1
  Zn  Zn3  1  0.75000000  0.29923200  0.09195000  1
  Zn  Zn4  1  0.25000000  0.79923200  0.40805000  1
  Zn  Zn5  1  0.25000000  0.19489300  0.39642800  1
  Zn  Zn6  1  0.75000000  0.69489300  0.10357200  1
  Zn  Zn7  1  0.25000000  0.30510700  0.89642800  1
  Bi  Bi0  1  0.75000000  0.98446000  0.90186400  1
  Bi  Bi1  1  0.75000000  0.51554000  0.40186400  1
  Bi  Bi2  1  0.25000000  0.48446000  0.59813600  1
  Bi  Bi3  1  0.25000000  0.01554000  0.09813600  1
  P  P0  1  0.75000000  0.97510200  0.30120900  1
  P  P1  1  0.25000000  0.02489800  0.69879100  1
  P  P2  1  0.75000000  0.52489800  0.80120900  1
  P  P3  1  0.25000000  0.47510200  0.19879100  1
  O  O0  1  0.00168600  0.32731400  0.49311800  1
  O  O1  1  0.99322900  0.99399700  0.37305800  1
  O  O2  1  0.49831400  0.17268600  0.99311800  1
  O  O3  1  0.25000000  0.60689700  0.29172000  1
  O  O4  1  0.00677100  0.00600300  0.62694200  1
  O  O5  1  0.99322900  0.50600300  0.87305800  1
  O  O6  1  0.00677100  0.49399700  0.12694200  1
  O  O7  1  0.25000000  0.29229600  0.24437100  1
  O  O8  1  0.75000000  0.39310300  0.70828000  1
  O  O9  1  0.49322900  0.00600300  0.62694200  1
  O  O10  1  0.00168600  0.17268600  0.99311800  1
  O  O11  1  0.99831400  0.82731400  0.00688200  1
  O  O12  1  0.49322900  0.49399700  0.12694200  1
  O  O13  1  0.50677100  0.50600300  0.87305800  1
  O  O14  1  0.25000000  0.20770400  0.74437100  1
  O  O15  1  0.49831400  0.32731400  0.49311800  1
  O  O16  1  0.50168600  0.82731400  0.00688200  1
  O  O17  1  0.50168600  0.67268600  0.50688200  1
  O  O18  1  0.99831400  0.67268600  0.50688200  1
  O  O19  1  0.75000000  0.10689700  0.20828000  1
  O  O20  1  0.75000000  0.79229600  0.25562900  1
  O  O21  1  0.50677100  0.99399700  0.37305800  1
  O  O22  1  0.25000000  0.89310300  0.79172000  1
  O  O23  1  0.75000000  0.70770400  0.75562900  1
loop_
_geom_bond_atom_site_label_1
_geom_bond_atom_site_label_2
_geom_bond_distance
_geom_bond_site_symmetry_2
Bi0 O16 2.221506 1_556
Bi0 O11 2.221506 1_556
Bi0 O10 2.293137 1_665
Bi0 O2 2.293137 1_565
Bi1 O17 2.221506 1_555
Bi1 O18 2.221506 1_555
Bi1 O0 2.293137 1_655
Bi1 O15 2.293137 1_555
Bi2 O0 2.221506 1_555
Bi2 O15 2.221506 1_555
Bi2 O17 2.293137 1_555
Bi2 O18 2.293137 1_455
Bi3 O10 2.221506 1_554
Bi3 O2 2.221506 1_554
Bi3 O16 2.293137 1_545
Bi3 O11 2.293137 1_445
O0 Zn5 2.058632 1_555
O0 Zn1 2.062117 1_455
O1 P0 1.571943 1_555
O1 Zn4 2.107566 1_655
O1 Zn5 2.119918 1_665
O2 Zn7 2.058632 1_555
O2 Zn3 2.062117 1_556
O3 P3 1.537493 1_555
O3 Zn4 2.077916 1_555
O4 P1 1.571943 1_555
O4 Zn1 2.107566 1_455
O4 Zn2 2.119918 1_445
O5 P2 1.571943 1_555
O5 Zn0 2.107566 1_655
O5 Zn7 2.119918 1_655
O6 P3 1.571943 1_555
O6 Zn3 2.107566 1_455
O6 Zn6 2.119918 1_455
O7 P3 1.550452 1_555
O7 Zn5 2.001384 1_555
O8 P2 1.537493 1_555
O8 Zn1 2.077916 1_555
O9 P1 1.571943 1_555
O9 Zn1 2.107566 1_555
O9 Zn2 2.119918 1_545
O10 Zn7 2.058632 1_555
O10 Zn3 2.062117 1_456
O11 Zn6 2.058632 1_555
O11 Zn0 2.062117 1_654
O12 P3 1.571943 1_555
O12 Zn3 2.107566 1_555
O12 Zn6 2.119918 1_555
O13 P2 1.571943 1_555
O13 Zn0 2.107566 1_555
O13 Zn7 2.119918 1_555
O14 P1 1.550452 1_555
O14 Zn7 2.001384 1_555
O15 Zn5 2.058632 1_555
O15 Zn1 2.062117 1_555
O16 Zn6 2.058632 1_555
O16 Zn0 2.062117 1_554
O17 Zn2 2.058632 1_555
O17 Zn4 2.062117 1_555
O18 Zn2 2.058632 1_555
O18 Zn4 2.062117 1_655
O19 P0 1.537493 1_545
O19 Zn3 2.077916 1_555
O20 P0 1.550452 1_555
O20 Zn6 2.001384 1_555
O21 P0 1.571943 1_555
O21 Zn4 2.107566 1_555
O21 Zn5 2.119918 1_565
O22 P1 1.537493 1_565
O22 Zn0 2.077916 1_555
O23 P2 1.550452 1_555
O23 Zn2 2.001384 1_555
