# generated using pymatgen
data_Cu7As6(PbO12)2
_symmetry_space_group_name_H-M   'P 1'
_cell_length_a   5.24531709
_cell_length_b   8.50495978
_cell_length_c   11.43103036
_cell_angle_alpha   90.56519182
_cell_angle_beta   90.85677980
_cell_angle_gamma   93.26224985
_symmetry_Int_Tables_number   1
_chemical_formula_structural   Cu7As6(PbO12)2
_chemical_formula_sum   'Cu7 As6 Pb2 O24'
_cell_volume   509.03949319
_cell_formula_units_Z   1
loop_
 _symmetry_equiv_pos_site_id
 _symmetry_equiv_pos_as_xyz
  1  'x, y, z'
loop_
 _atom_site_type_symbol
 _atom_site_label
 _atom_site_symmetry_multiplicity
 _atom_site_fract_x
 _atom_site_fract_y
 _atom_site_fract_z
 _atom_site_occupancy
  Cu  Cu0  1  0.98148900  0.28287000  0.16587400  1
  Cu  Cu1  1  0.96746000  0.92039200  0.31944100  1
  Cu  Cu2  1  0.03254000  0.07960800  0.68055900  1
  Cu  Cu3  1  0.00000000  0.00000000  0.00000000  1
  Cu  Cu4  1  0.01851100  0.71713000  0.83412600  1
  Cu  Cu5  1  0.50000000  0.50000000  0.00000000  1
  Cu  Cu6  1  0.50000000  0.00000000  0.50000000  1
  As  As0  1  0.02419400  0.65966700  0.11455500  1
  As  As1  1  0.96561400  0.27015600  0.44800200  1
  As  As2  1  0.97580600  0.34033300  0.88544500  1
  As  As3  1  0.48461200  0.07975400  0.22055100  1
  As  As4  1  0.51538800  0.92024600  0.77944900  1
  As  As5  1  0.03438600  0.72984400  0.55199800  1
  Pb  Pb0  1  0.50144400  0.46122300  0.66838300  1
  Pb  Pb1  1  0.49855600  0.53877700  0.33161700  1
  O  O0  1  0.88365300  0.21760000  0.00178900  1
  O  O1  1  0.76864900  0.90218900  0.87714500  1
  O  O2  1  0.37459400  0.72992800  0.77478700  1
  O  O3  1  0.81416900  0.08175700  0.41826600  1
  O  O4  1  0.67281000  0.98039900  0.64963100  1
  O  O5  1  0.70428600  0.60329500  0.12327500  1
  O  O6  1  0.26961500  0.60781200  0.51391500  1
  O  O7  1  0.73038500  0.39218800  0.48608500  1
  O  O8  1  0.19021600  0.24806500  0.55590900  1
  O  O9  1  0.18583100  0.91824300  0.58173400  1
  O  O10  1  0.32719000  0.01960100  0.35036900  1
  O  O11  1  0.88849100  0.66000300  0.67863800  1
  O  O12  1  0.11634700  0.78240000  0.99821100  1
  O  O13  1  0.87303700  0.25515000  0.75585900  1
  O  O14  1  0.11150900  0.33999700  0.32136200  1
  O  O15  1  0.62540600  0.27007200  0.22521300  1
  O  O16  1  0.29571400  0.39670500  0.87672500  1
  O  O17  1  0.19735200  0.49048000  0.10122400  1
  O  O18  1  0.80264800  0.50952000  0.89877600  1
  O  O19  1  0.28981400  0.04970200  0.81532400  1
  O  O20  1  0.71018600  0.95029800  0.18467600  1
  O  O21  1  0.23135100  0.09781100  0.12285500  1
  O  O22  1  0.80978400  0.75193500  0.44409100  1
  O  O23  1  0.12696300  0.74485000  0.24414100  1
loop_
_geom_bond_atom_site_label_1
_geom_bond_atom_site_label_2
_geom_bond_distance
_geom_bond_site_symmetry_2
Cu0 O14 1.941466 1_655
Cu0 O15 1.994169 1_555
Cu0 O0 2.001965 1_555
Cu0 O21 2.162291 1_655
Cu0 O17 2.183840 1_655
Cu1 O23 1.951462 1_655
Cu1 O3 1.982001 1_565
Cu1 O10 2.047018 1_665
Cu1 O20 2.059993 1_555
Cu1 O22 2.169712 1_555
Cu2 O13 1.951462 1_455
Cu2 O9 1.982001 1_545
Cu2 O4 2.047018 1_445
Cu2 O19 2.059993 1_555
Cu2 O8 2.169712 1_555
Cu3 O0 1.981424 1_455
Cu3 O12 1.981424 1_544
Cu3 O21 1.986944 1_555
Cu3 O1 1.986944 1_444
Cu4 O11 1.941466 1_455
Cu4 O2 1.994169 1_555
Cu4 O12 2.001965 1_555
Cu4 O1 2.162291 1_455
Cu4 O18 2.183840 1_455
Cu5 O5 1.931066 1_555
Cu5 O16 1.931066 1_554
Cu5 O17 1.976786 1_555
Cu5 O18 1.976786 1_554
Cu6 O4 1.936874 1_545
Cu6 O10 1.936874 1_555
Cu6 O3 2.000124 1_555
Cu6 O9 2.000124 1_545
As0 O23 1.708860 1_555
As0 O5 1.723348 1_455
As0 O17 1.751356 1_555
As0 O12 1.755322 1_554
As1 O8 1.712028 1_655
As1 O7 1.715221 1_555
As1 O14 1.741391 1_655
As1 O3 1.774919 1_555
As2 O13 1.708860 1_555
As2 O16 1.723348 1_655
As2 O18 1.751356 1_555
As2 O0 1.755322 1_556
As3 O20 1.712969 1_545
As3 O21 1.737160 1_555
As3 O15 1.740496 1_555
As3 O10 1.774605 1_555
As4 O19 1.712969 1_565
As4 O1 1.737160 1_555
As4 O2 1.740496 1_555
As4 O4 1.774605 1_555
As5 O22 1.712028 1_455
As5 O6 1.715221 1_555
As5 O11 1.741391 1_455
As5 O9 1.774919 1_555
O2 Pb0 2.699492 1_555
O5 Pb1 2.678188 1_555
O6 Pb1 2.502041 1_555
O6 Pb0 2.510498 1_555
O7 Pb0 2.502041 1_555
O7 Pb1 2.510498 1_555
O8 Pb0 2.675640 1_555
O11 Pb0 2.567472 1_555
O13 Pb0 2.869809 1_555
O14 Pb1 2.567472 1_555
O15 Pb1 2.699492 1_555
O16 Pb0 2.678188 1_555
O22 Pb1 2.675640 1_555
O23 Pb1 2.869809 1_555
