# generated using pymatgen
data_Rb2Mo(IO3)6
_symmetry_space_group_name_H-M   'P 1'
_cell_length_a   7.84244613
_cell_length_b   7.84244613
_cell_length_c   7.84244605
_cell_angle_alpha   97.13758481
_cell_angle_beta   97.13758481
_cell_angle_gamma   97.13758628
_symmetry_Int_Tables_number   1
_chemical_formula_structural   Rb2Mo(IO3)6
_chemical_formula_sum   'Rb2 Mo1 I6 O18'
_cell_volume   470.09058777
_cell_formula_units_Z   1
loop_
 _symmetry_equiv_pos_site_id
 _symmetry_equiv_pos_as_xyz
  1  'x, y, z'
loop_
 _atom_site_type_symbol
 _atom_site_label
 _atom_site_symmetry_multiplicity
 _atom_site_fract_x
 _atom_site_fract_y
 _atom_site_fract_z
 _atom_site_occupancy
  Rb  Rb0  1  0.16865500  0.16865500  0.16865500  1
  Rb  Rb1  1  0.83134500  0.83134500  0.83134500  1
  Mo  Mo0  1  0.50000000  0.50000000  0.50000000  1
  I  I0  1  0.33170400  0.70402800  0.13241100  1
  I  I1  1  0.13241100  0.33170400  0.70402800  1
  I  I2  1  0.86758900  0.66829600  0.29597200  1
  I  I3  1  0.66829600  0.29597200  0.86758900  1
  I  I4  1  0.70402800  0.13241100  0.33170400  1
  I  I5  1  0.29597200  0.86758900  0.66829600  1
  O  O0  1  0.90405800  0.28615300  0.38951400  1
  O  O1  1  0.09655500  0.69001800  0.08890400  1
  O  O2  1  0.09594200  0.71384700  0.61048600  1
  O  O3  1  0.44638200  0.69515800  0.67794800  1
  O  O4  1  0.55361900  0.30484200  0.32205200  1
  O  O5  1  0.32205200  0.55361900  0.30484200  1
  O  O6  1  0.28615300  0.38951400  0.90405800  1
  O  O7  1  0.67794800  0.44638100  0.69515800  1
  O  O8  1  0.71384700  0.61048600  0.09594200  1
  O  O9  1  0.08890400  0.09655500  0.69001800  1
  O  O10  1  0.38951400  0.90405800  0.28615300  1
  O  O11  1  0.61048600  0.09594200  0.71384700  1
  O  O12  1  0.69001800  0.08890400  0.09655500  1
  O  O13  1  0.69515800  0.67794800  0.44638100  1
  O  O14  1  0.91109600  0.90344500  0.30998200  1
  O  O15  1  0.30484200  0.32205200  0.55361900  1
  O  O16  1  0.90344500  0.30998200  0.91109600  1
  O  O17  1  0.30998200  0.91109600  0.90344500  1
loop_
_geom_bond_atom_site_label_1
_geom_bond_atom_site_label_2
_geom_bond_distance
_geom_bond_site_symmetry_2
Mo0 O3 2.059569 1_555
Mo0 O15 2.059572 1_555
Mo0 O13 2.059572 1_555
Mo0 O5 2.059572 1_555
Mo0 O7 2.059572 1_555
Mo0 O4 2.059572 1_555
I0 O1 1.820253 1_555
I0 O10 1.826903 1_555
I0 O5 1.904057 1_555
I1 O9 1.820253 1_555
I1 O6 1.826903 1_555
I1 O15 1.904057 1_555
I2 O14 1.820253 1_555
I2 O8 1.826903 1_555
I2 O13 1.904057 1_555
I3 O16 1.820253 1_555
I3 O11 1.826903 1_555
I3 O7 1.904057 1_555
I4 O12 1.820253 1_555
I4 O0 1.826903 1_555
I4 O4 1.904057 1_555
I5 O17 1.820253 1_555
I5 O2 1.826903 1_555
I5 O3 1.904062 1_555
O0 Rb0 3.021077 1_655
O1 Rb1 3.117621 1_454
O2 Rb1 3.021077 1_455
O3 Rb1 3.111184 1_555
O4 Rb0 3.111191 1_555
O5 Rb0 3.111191 1_555
O6 Rb0 3.021077 1_556
O7 Rb1 3.111191 1_555
O8 Rb1 3.021077 1_554
O9 Rb1 3.117621 1_445
O10 Rb0 3.021077 1_565
O11 Rb1 3.021077 1_545
O12 Rb1 3.117621 1_544
O13 Rb1 3.111191 1_555
O14 Rb0 3.117621 1_665
O15 Rb0 3.111191 1_555
O16 Rb0 3.117621 1_656
O17 Rb0 3.117621 1_566
