# generated using pymatgen
data_Cs4Nb2Si8O23
_symmetry_space_group_name_H-M   'P 1'
_cell_length_a   7.10938400
_cell_length_b   8.00472656
_cell_length_c   11.22863681
_cell_angle_alpha   102.95379090
_cell_angle_beta   89.80294556
_cell_angle_gamma   108.23838128
_symmetry_Int_Tables_number   1
_chemical_formula_structural   Cs4Nb2Si8O23
_chemical_formula_sum   'Cs4 Nb2 Si8 O23'
_cell_volume   589.92125651
_cell_formula_units_Z   1
loop_
 _symmetry_equiv_pos_site_id
 _symmetry_equiv_pos_as_xyz
  1  'x, y, z'
loop_
 _atom_site_type_symbol
 _atom_site_label
 _atom_site_symmetry_multiplicity
 _atom_site_fract_x
 _atom_site_fract_y
 _atom_site_fract_z
 _atom_site_occupancy
  Cs  Cs0  1  0.79167600  0.21295900  0.98688500  1
  Cs  Cs1  1  0.17430000  0.71833500  0.36272300  1
  Cs  Cs2  1  0.82570000  0.28166500  0.63727700  1
  Cs  Cs3  1  0.20832400  0.78704100  0.01311500  1
  Nb  Nb0  1  0.70477100  0.74207000  0.18588500  1
  Nb  Nb1  1  0.29522900  0.25793000  0.81411500  1
  Si  Si0  1  0.34159900  0.33046300  0.13201200  1
  Si  Si1  1  0.56623000  0.14066200  0.28708300  1
  Si  Si2  1  0.64754000  0.70320200  0.50173700  1
  Si  Si3  1  0.99529200  0.81286800  0.70438600  1
  Si  Si4  1  0.43377000  0.85933800  0.71291700  1
  Si  Si5  1  0.00470800  0.18713200  0.29561400  1
  Si  Si6  1  0.35246000  0.29679800  0.49826300  1
  Si  Si7  1  0.65840100  0.66953700  0.86798800  1
  O  O0  1  0.45552200  0.15450700  0.41711600  1
  O  O1  1  0.51778400  0.75151900  0.79736600  1
  O  O2  1  0.85868000  0.60015300  0.15217100  1
  O  O3  1  0.30148500  0.22085600  0.98953500  1
  O  O4  1  0.87124800  0.70110200  0.80132400  1
  O  O5  1  0.46924300  0.06569200  0.78011000  1
  O  O6  1  0.43779000  0.54772600  0.14926800  1
  O  O7  1  0.68061100  0.73668400  0.36716700  1
  O  O8  1  0.56221000  0.45227400  0.85073200  1
  O  O9  1  0.13618400  0.26436100  0.42826800  1
  O  O10  1  0.53075700  0.93430800  0.21989000  1
  O  O11  1  0.69851500  0.77914400  0.01046500  1
  O  O12  1  0.12875200  0.29889800  0.19867600  1
  O  O13  1  0.19354800  0.74883300  0.67828500  1
  O  O14  1  0.95122800  0.97228900  0.24197400  1
  O  O15  1  0.86381600  0.73563900  0.57173200  1
  O  O16  1  0.50000000  0.50000000  0.50000000  1
  O  O17  1  0.48221600  0.24848100  0.20263400  1
  O  O18  1  0.14132000  0.39984700  0.84782900  1
  O  O19  1  0.04877200  0.02771100  0.75802600  1
  O  O20  1  0.80645200  0.25116700  0.32171500  1
  O  O21  1  0.31938900  0.26331600  0.63283300  1
  O  O22  1  0.54447800  0.84549300  0.58288400  1
loop_
_geom_bond_atom_site_label_1
_geom_bond_atom_site_label_2
_geom_bond_distance
_geom_bond_site_symmetry_2
Cs0 O5 3.025413 1_555
Cs0 O18 3.089954 1_655
Cs0 O2 3.127396 1_556
Cs0 O12 3.185172 1_656
Cs0 O17 3.291820 1_556
Cs0 O11 3.396894 1_546
Cs0 O8 3.457549 1_555
Cs0 O19 3.478398 1_655
Cs0 O3 3.505158 1_555
Cs0 O3 3.605253 1_655
Cs0 O20 3.702281 1_556
Cs0 O1 3.737116 1_545
Cs1 O2 3.037174 1_455
Cs1 O15 3.226370 1_455
Cs1 O10 3.233561 1_555
Cs1 O6 3.349892 1_555
Cs1 O0 3.353120 1_565
Cs1 O22 3.363524 1_555
Cs1 O12 3.364732 1_555
Cs1 O14 3.428449 1_455
Cs1 O13 3.496874 1_555
Cs1 O7 3.556389 1_555
Cs1 O7 3.558248 1_455
Cs1 O20 3.761681 1_455
Cs1 O9 3.794985 1_555
Cs1 O16 3.815446 1_555
Cs2 O18 3.037174 1_655
Cs2 O9 3.226370 1_655
Cs2 O5 3.233561 1_555
Cs2 O8 3.349892 1_555
Cs2 O22 3.353120 1_545
Cs2 O0 3.363524 1_555
Cs2 O4 3.364732 1_555
Cs2 O19 3.428449 1_655
Cs2 O20 3.496874 1_555
Cs2 O21 3.556389 1_555
Cs2 O21 3.558248 1_655
Cs2 O13 3.761681 1_655
Cs2 O15 3.794985 1_555
Cs2 O16 3.815446 1_555
Cs3 O10 3.025413 1_555
Cs3 O2 3.089954 1_455
Cs3 O18 3.127396 1_554
Cs3 O4 3.185172 1_454
Cs3 O1 3.291820 1_554
Cs3 O3 3.396894 1_564
Cs3 O6 3.457549 1_555
Cs3 O14 3.478398 1_455
Cs3 O11 3.505158 1_555
Cs3 O11 3.605253 1_455
Cs3 O13 3.702281 1_554
Cs3 O17 3.737116 1_565
Nb0 O2 1.792622 1_555
Nb0 O6 2.015483 1_555
Nb0 O7 2.051129 1_555
Nb0 O11 2.059323 1_555
Nb0 O14 2.080596 1_555
Nb0 O10 2.229165 1_555
Nb1 O18 1.792622 1_555
Nb1 O8 2.015483 1_555
Nb1 O21 2.051129 1_555
Nb1 O3 2.059323 1_555
Nb1 O19 2.080596 1_555
Nb1 O5 2.229165 1_555
O0 Si6 1.648307 1_555
O0 Si1 1.654622 1_555
O1 Si4 1.641426 1_555
O1 Si7 1.645690 1_555
O3 Si0 1.621040 1_556
O4 Si3 1.642877 1_555
O4 Si7 1.658810 1_555
O5 Si4 1.594722 1_545
O6 Si0 1.623321 1_555
O7 Si2 1.596879 1_555
O8 Si7 1.623321 1_555
O9 Si5 1.646083 1_555
O9 Si6 1.648101 1_555
O10 Si1 1.594722 1_565
O11 Si7 1.621040 1_554
O12 Si5 1.642877 1_555
O12 Si0 1.658810 1_555
O13 Si3 1.648423 1_455
O13 Si4 1.659851 1_555
O14 Si5 1.610219 1_665
O15 Si3 1.646083 1_555
O15 Si2 1.648101 1_555
O16 Si6 1.632277 1_555
O16 Si2 1.632277 1_555
O17 Si1 1.641426 1_555
O17 Si0 1.645690 1_555
O19 Si3 1.610219 1_445
O20 Si5 1.648423 1_655
O20 Si1 1.659851 1_555
O21 Si6 1.596879 1_555
O22 Si2 1.648307 1_555
O22 Si4 1.654622 1_555
