# generated using pymatgen
data_HoGe2Pt
_symmetry_space_group_name_H-M   'P 1'
_cell_length_a   4.30916513
_cell_length_b   8.67746306
_cell_length_c   9.50711073
_cell_angle_alpha   117.14342798
_cell_angle_beta   103.11029419
_cell_angle_gamma   90.00810807
_symmetry_Int_Tables_number   1
_chemical_formula_structural   HoGe2Pt
_chemical_formula_sum   'Ho4 Ge8 Pt4'
_cell_volume   305.88843266
_cell_formula_units_Z   4
loop_
 _symmetry_equiv_pos_site_id
 _symmetry_equiv_pos_as_xyz
  1  'x, y, z'
loop_
 _atom_site_type_symbol
 _atom_site_label
 _atom_site_symmetry_multiplicity
 _atom_site_fract_x
 _atom_site_fract_y
 _atom_site_fract_z
 _atom_site_occupancy
  Ho  Ho0  1  -0.00001056  0.73343898  0.00002231  1
  Ho  Ho1  1  0.20182297  0.70094570  0.40185446  1
  Ho  Ho2  1  0.79817703  0.29905430  0.59814554  1
  Ho  Ho3  1  0.00001056  0.26656102  0.99997769  1
  Ge  Ge0  1  0.80012021  0.64794603  0.59784383  1
  Ge  Ge1  1  0.43122660  0.92735326  0.85485975  1
  Ge  Ge2  1  0.19969954  0.05025587  0.40218405  1
  Ge  Ge3  1  0.19987979  0.35205397  0.40215617  1
  Ge  Ge4  1  0.80030046  0.94974413  0.59781595  1
  Ge  Ge5  1  0.42412939  0.42590626  0.85206845  1
  Ge  Ge6  1  0.56877340  0.07264674  0.14514025  1
  Ge  Ge7  1  0.57587061  0.57409374  0.14793155  1
  Pt  Pt0  1  0.64672399  0.39567801  0.29560003  1
  Pt  Pt1  1  0.35327601  0.60432199  0.70439997  1
  Pt  Pt2  1  0.64658486  0.90010070  0.29572850  1
  Pt  Pt3  1  0.35341514  0.09989930  0.70427150  1
loop_
_geom_bond_atom_site_label_1
_geom_bond_atom_site_label_2
_geom_bond_distance
_geom_bond_site_symmetry_2
Ho0 Pt1 3.239335 1_454
Ho0 Pt2 3.239442 1_555
Ho0 Pt1 3.246570 1_554
Ho0 Pt2 3.247652 1_455
Ho1 Pt2 3.185113 1_555
Ho1 Pt0 3.186105 1_555
Ho1 Pt0 3.196802 1_455
Ho1 Pt2 3.197829 1_455
Ho1 Pt3 3.277694 1_565
Ho1 Pt1 3.278914 1_555
Ho2 Pt3 3.185113 1_555
Ho2 Pt1 3.186105 1_555
Ho2 Pt1 3.196802 1_655
Ho2 Pt3 3.197829 1_655
Ho2 Pt2 3.277694 1_545
Ho2 Pt0 3.278914 1_555
Ho3 Pt0 3.239335 1_556
Ho3 Pt3 3.239442 1_455
Ho3 Pt0 3.246570 1_456
Ho3 Pt3 3.247652 1_555
Ge0 Pt1 2.471032 1_655
Ge0 Pt1 2.472207 1_555
Ge0 Ge4 2.618963 1_555
Ge0 Pt0 2.623778 1_555
Ge0 Ho1 2.987409 1_655
Ge0 Ho1 2.988852 1_555
Ge0 Ho2 3.028817 1_555
Ge0 Ho0 3.439394 1_656
Ge1 Ge6 2.374861 1_566
Ge1 Pt1 2.477803 1_555
Ge1 Pt3 2.478329 1_565
Ge1 Ho0 3.365789 1_656
Ge1 Ho3 3.366495 1_665
Ge1 Ho0 3.386833 1_556
Ge1 Ho3 3.388131 1_565
Ge2 Pt2 2.470724 1_445
Ge2 Pt2 2.472244 1_545
Ge2 Ge3 2.618963 1_555
Ge2 Pt3 2.623097 1_555
Ge2 Ho2 2.986467 1_455
Ge2 Ho2 2.988582 1_555
Ge2 Ho1 3.029715 1_545
Ge2 Ho0 3.439876 1_545
Ge3 Pt0 2.471032 1_455
Ge3 Pt0 2.472207 1_555
Ge3 Pt1 2.623778 1_555
Ge3 Ho2 2.987409 1_455
Ge3 Ho2 2.988852 1_555
Ge3 Ho1 3.028817 1_555
Ge3 Ho3 3.439394 1_554
Ge4 Pt3 2.470724 1_665
Ge4 Pt3 2.472244 1_565
Ge4 Pt2 2.623097 1_555
Ge4 Ho1 2.986467 1_655
Ge4 Ho1 2.988582 1_555
Ge4 Ho2 3.029715 1_565
Ge4 Ho3 3.439876 1_665
Ge5 Ge7 2.420345 1_556
Ge5 Pt3 2.499715 1_555
Ge5 Pt1 2.499989 1_555
Ge5 Ho2 2.989241 1_455
Ge5 Ho2 2.996413 1_555
Ge5 Ho3 3.188829 1_555
Ge5 Ho0 3.191096 1_556
Ge5 Ho3 3.199917 1_655
Ge5 Ho0 3.201152 1_656
Ge6 Pt0 2.477803 1_555
Ge6 Pt2 2.478329 1_545
Ge6 Ho3 3.365789 1_554
Ge6 Ho0 3.366495 1_545
Ge6 Ho3 3.386833 1_654
Ge6 Ho0 3.388131 1_645
Ge7 Pt2 2.499715 1_555
Ge7 Pt0 2.499989 1_555
Ge7 Ho1 2.989241 1_655
Ge7 Ho1 2.996413 1_555
Ge7 Ho0 3.188829 1_655
Ge7 Ho3 3.191096 1_654
Ge7 Ho0 3.199917 1_555
Ge7 Ho3 3.201152 1_554
