# generated using pymatgen
data_Na2VOF4
_symmetry_space_group_name_H-M   'P 1'
_cell_length_a   6.85193581
_cell_length_b   8.29575548
_cell_length_c   8.29575554
_cell_angle_alpha   78.15765124
_cell_angle_beta   77.08836495
_cell_angle_gamma   77.08836306
_symmetry_Int_Tables_number   1
_chemical_formula_structural   Na2VOF4
_chemical_formula_sum   'Na8 V4 O4 F16'
_cell_volume   441.97827878
_cell_formula_units_Z   4
loop_
 _symmetry_equiv_pos_site_id
 _symmetry_equiv_pos_as_xyz
  1  'x, y, z'
loop_
 _atom_site_type_symbol
 _atom_site_label
 _atom_site_symmetry_multiplicity
 _atom_site_fract_x
 _atom_site_fract_y
 _atom_site_fract_z
 _atom_site_occupancy
  Na  Na0  1  0.62514400  0.00024900  0.79396200  1
  Na  Na1  1  0.12514400  0.79396200  0.00024900  1
  Na  Na2  1  0.37485600  0.99975100  0.20603800  1
  Na  Na3  1  0.87485600  0.20603800  0.99975100  1
  Na  Na4  1  0.96677500  0.56864600  0.76207300  1
  Na  Na5  1  0.46677500  0.76207300  0.56864600  1
  Na  Na6  1  0.03322500  0.43135400  0.23792700  1
  Na  Na7  1  0.53322500  0.23792700  0.43135400  1
  V  V0  1  0.91719000  0.87148600  0.39921100  1
  V  V1  1  0.08281000  0.12851400  0.60078900  1
  V  V2  1  0.58281000  0.60078900  0.12851400  1
  V  V3  1  0.41719000  0.39921100  0.87148600  1
  O  O0  1  0.01183600  0.31592100  0.65505300  1
  O  O1  1  0.51183600  0.65505300  0.31592100  1
  O  O2  1  0.48816400  0.34494700  0.68407900  1
  O  O3  1  0.98816400  0.68407900  0.34494700  1
  F  F0  1  0.27256800  0.62760900  0.79628900  1
  F  F1  1  0.22743200  0.20371100  0.37239100  1
  F  F2  1  0.72743200  0.37239100  0.20371100  1
  F  F3  1  0.77256800  0.79628900  0.62760900  1
  F  F4  1  0.65078000  0.96381300  0.34264500  1
  F  F5  1  0.84922000  0.65735500  0.03618700  1
  F  F6  1  0.15078000  0.34264500  0.96381300  1
  F  F7  1  0.34922000  0.03618700  0.65735500  1
  F  F8  1  0.96205800  0.00302600  0.81514000  1
  F  F9  1  0.03794200  0.99697400  0.18486000  1
  F  F10  1  0.46205800  0.81514000  0.00302600  1
  F  F11  1  0.53794200  0.18486000  0.99697400  1
  F  F12  1  0.15571900  0.88820800  0.49149700  1
  F  F13  1  0.84428100  0.11179200  0.50850300  1
  F  F14  1  0.65571900  0.49149700  0.88820800  1
  F  F15  1  0.34428100  0.50850300  0.11179200  1
loop_
_geom_bond_atom_site_label_1
_geom_bond_atom_site_label_2
_geom_bond_distance
_geom_bond_site_symmetry_2
Na0 O2 2.828755 1_555
Na1 O3 2.828755 1_455
Na2 O1 2.828755 1_555
Na3 O0 2.828755 1_655
Na4 O0 2.373019 1_655
Na5 O1 2.373019 1_555
Na6 O3 2.373019 1_455
Na7 O2 2.373019 1_555
O0 V1 1.645514 1_555
O1 V2 1.645514 1_555
O2 V3 1.645514 1_555
O3 V0 1.645514 1_555
F0 V3 1.978176 1_555
F0 Na5 2.292830 1_555
F0 Na1 2.315016 1_556
F0 Na4 2.343244 1_455
F1 V1 1.978176 1_555
F1 Na6 2.292830 1_555
F1 Na2 2.315016 1_545
F1 Na7 2.343244 1_555
F2 V2 1.978176 1_555
F2 Na7 2.292830 1_555
F2 Na3 2.315016 1_554
F2 Na6 2.343244 1_655
F3 V0 1.978176 1_555
F3 Na4 2.292830 1_555
F3 Na0 2.315016 1_565
F3 Na5 2.343244 1_555
F4 V0 1.936358 1_555
F4 Na2 2.348299 1_555
F4 Na7 2.442283 1_565
F4 Na5 2.550352 1_555
F5 V2 1.936358 1_555
F5 Na1 2.348299 1_655
F5 Na4 2.442283 1_554
F5 Na6 2.550352 1_655
F6 V3 1.936358 1_555
F6 Na3 2.348299 1_455
F6 Na6 2.442283 1_556
F6 Na4 2.550352 1_455
F7 V1 1.936358 1_555
F7 Na0 2.348299 1_555
F7 Na5 2.442283 1_545
F7 Na7 2.550352 1_555
F8 V1 1.974318 1_655
F8 Na1 2.328609 1_646
F8 Na0 2.359514 1_555
F8 Na3 2.395571 1_555
F9 V0 1.974318 1_455
F9 Na3 2.328609 1_464
F9 Na2 2.359514 1_555
F9 Na1 2.395571 1_555
F10 V2 1.974318 1_555
F10 Na0 2.328609 1_564
F10 Na1 2.359514 1_555
F10 Na2 2.395571 1_555
F11 V3 1.974318 1_555
F11 Na2 2.328609 1_546
F11 Na3 2.359514 1_555
F11 Na0 2.395571 1_555
F12 V0 1.995161 1_455
F12 V1 2.267176 1_565
F12 Na5 2.320601 1_555
F12 Na2 2.617472 1_555
F13 V1 1.995161 1_655
F13 V0 2.267176 1_545
F13 Na7 2.320601 1_555
F13 Na0 2.617472 1_555
F14 V3 1.995161 1_555
F14 V2 2.267176 1_556
F14 Na4 2.320601 1_555
F14 Na3 2.617472 1_555
F15 V2 1.995161 1_555
F15 V3 2.267176 1_554
F15 Na6 2.320601 1_555
F15 Na1 2.617472 1_555
