# generated using pymatgen
data_SbSNF5
_symmetry_space_group_name_H-M   'P 1'
_cell_length_a   16.50851100
_cell_length_b   8.58904800
_cell_length_c   15.97295438
_cell_angle_alpha   79.42075859
_cell_angle_beta   90.00000000
_cell_angle_gamma   90.00000000
_symmetry_Int_Tables_number   1
_chemical_formula_structural   SbSNF5
_chemical_formula_sum   'Sb16 S16 N16 F80'
_cell_volume   2226.34546619
_cell_formula_units_Z   16
loop_
 _symmetry_equiv_pos_site_id
 _symmetry_equiv_pos_as_xyz
  1  'x, y, z'
loop_
 _atom_site_type_symbol
 _atom_site_label
 _atom_site_symmetry_multiplicity
 _atom_site_fract_x
 _atom_site_fract_y
 _atom_site_fract_z
 _atom_site_occupancy
  Sb  Sb0  1  0.75503900  0.05866100  0.74442700  1
  Sb  Sb1  1  0.74496100  0.05866100  0.24442700  1
  Sb  Sb2  1  0.02239500  0.39016600  0.29497400  1
  Sb  Sb3  1  0.24496100  0.94133900  0.25557300  1
  Sb  Sb4  1  0.16808100  0.37260800  0.97012000  1
  Sb  Sb5  1  0.21523500  0.47561300  0.67906100  1
  Sb  Sb6  1  0.83191900  0.62739200  0.02988000  1
  Sb  Sb7  1  0.28476500  0.47561300  0.17906100  1
  Sb  Sb8  1  0.66808100  0.62739200  0.52988000  1
  Sb  Sb9  1  0.33191900  0.37260800  0.47012000  1
  Sb  Sb10  1  0.97760500  0.60983400  0.70502600  1
  Sb  Sb11  1  0.47760500  0.39016600  0.79497400  1
  Sb  Sb12  1  0.52239500  0.60983400  0.20502600  1
  Sb  Sb13  1  0.25503900  0.94133900  0.75557300  1
  Sb  Sb14  1  0.78476500  0.52438700  0.32093900  1
  Sb  Sb15  1  0.71523500  0.52438700  0.82093900  1
  S  S0  1  0.99364900  0.95475600  0.13635300  1
  S  S1  1  0.89078500  0.13651700  0.99326000  1
  S  S2  1  0.10921500  0.86348300  0.00674000  1
  S  S3  1  0.60921500  0.13651700  0.49326000  1
  S  S4  1  0.87129900  0.04193900  0.49342300  1
  S  S5  1  0.12870100  0.95806100  0.50657700  1
  S  S6  1  0.37129900  0.95806100  0.00657700  1
  S  S7  1  0.01398400  0.19033000  0.56838600  1
  S  S8  1  0.62870100  0.04193900  0.99342300  1
  S  S9  1  0.51398400  0.80967000  0.93161400  1
  S  S10  1  0.98601600  0.80967000  0.43161400  1
  S  S11  1  0.50635100  0.95475600  0.63635300  1
  S  S12  1  0.39078500  0.86348300  0.50674000  1
  S  S13  1  0.49364900  0.04524400  0.36364700  1
  S  S14  1  0.00635100  0.04524400  0.86364700  1
  S  S15  1  0.48601600  0.19033000  0.06838600  1
  N  N0  1  0.41242000  0.09102100  0.04631600  1
  N  N1  1  0.43523500  0.88351200  0.59064000  1
  N  N2  1  0.58758000  0.90897900  0.95368400  1
  N  N3  1  0.07247600  0.85311800  0.46058000  1
  N  N4  1  0.57247600  0.14688200  0.03942000  1
  N  N5  1  0.42898700  0.94377600  0.42032900  1
  N  N6  1  0.07101300  0.94377600  0.92032900  1
  N  N7  1  0.06476500  0.88351200  0.09064000  1
  N  N8  1  0.91242000  0.90897900  0.45368400  1
  N  N9  1  0.57101300  0.05622400  0.57967100  1
  N  N10  1  0.93523500  0.11648800  0.90936000  1
  N  N11  1  0.92898700  0.05622400  0.07967100  1
  N  N12  1  0.92752400  0.14688200  0.53942000  1
  N  N13  1  0.56476500  0.11648800  0.40936000  1
  N  N14  1  0.08758000  0.09102100  0.54631600  1
  N  N15  1  0.42752400  0.85311800  0.96058000  1
  F  F0  1  0.47817300  0.60357200  0.73437100  1
  F  F1  1  0.86165800  0.63934100  0.14475200  1
  F  F2  1  0.52182700  0.39642800  0.26562900  1
  F  F3  1  0.02182700  0.60357200  0.23437100  1
  F  F4  1  0.75448700  0.83439700  0.24643500  1
  F  F5  1  0.74335800  0.49147700  0.06523200  1
  F  F6  1  0.23583500  0.19062000  0.97645200  1
  F  F7  1  0.13834200  0.36065900  0.85524800  1
  F  F8  1  0.25448700  0.16560300  0.25356500  1
  F  F9  1  0.69311200  0.62222500  0.40781700  1
  F  F10  1  0.13954400  0.93348500  0.74351900  1
  F  F11  1  0.24335800  0.50852300  0.43476800  1
  F  F12  1  0.36045600  0.93348500  0.24351900  1
  F  F13  1  0.01451500  0.17974300  0.36239300  1
  F  F14  1  0.80688800  0.62222500  0.90781700  1
  F  F15  1  0.52271800  0.53595200  0.09895900  1
  F  F16  1  0.36103300  0.36352600  0.11961900  1
  F  F17  1  0.26416500  0.19062000  0.47645200  1
  F  F18  1  0.63766200  0.61804200  0.20812500  1
  F  F19  1  0.74551300  0.83439700  0.74643500  1
  F  F20  1  0.40140200  0.60245100  0.20384800  1
  F  F21  1  0.23339000  0.97964200  0.13410300  1
  F  F22  1  0.36233800  0.38195800  0.79187500  1
  F  F23  1  0.48640600  0.30522900  0.69354100  1
  F  F24  1  0.26661000  0.97964200  0.63410300  1
  F  F25  1  0.98640600  0.69477100  0.80645900  1
  F  F26  1  0.23774400  0.71638600  0.25646300  1
  F  F27  1  0.72101100  0.34442600  0.91406400  1
  F  F28  1  0.13766200  0.38195800  0.29187500  1
  F  F29  1  0.97728200  0.53595200  0.59895900  1
  F  F30  1  0.62936400  0.04735700  0.23272200  1
  F  F31  1  0.86103300  0.63647400  0.38038100  1
  F  F32  1  0.37063600  0.95264300  0.76727800  1
  F  F33  1  0.12936400  0.95264300  0.26727800  1
  F  F34  1  0.36165800  0.36065900  0.35524800  1
  F  F35  1  0.24572000  0.90094200  0.87753200  1
  F  F36  1  0.09779000  0.54862500  0.97201700  1
  F  F37  1  0.90140200  0.39754900  0.29615200  1
  F  F38  1  0.22101100  0.65557400  0.58593600  1
  F  F39  1  0.01359400  0.30522900  0.19354100  1
  F  F40  1  0.77898900  0.34442600  0.41406400  1
  F  F41  1  0.87063600  0.04735700  0.73272200  1
  F  F42  1  0.08006500  0.23078100  0.01047000  1
  F  F43  1  0.51451500  0.82025700  0.13760700  1
  F  F44  1  0.98548500  0.82025700  0.63760700  1
  F  F45  1  0.41993500  0.23078100  0.51047000  1
  F  F46  1  0.26225600  0.71638600  0.75646300  1
  F  F47  1  0.76416500  0.80938000  0.02354800  1
  F  F48  1  0.75428000  0.09905800  0.12246800  1
  F  F49  1  0.63954400  0.06651500  0.75648100  1
  F  F50  1  0.76661000  0.02035800  0.86589700  1
  F  F51  1  0.86233800  0.61804200  0.70812500  1
  F  F52  1  0.02271800  0.46404800  0.40104100  1
  F  F53  1  0.19311200  0.37777500  0.09218300  1
  F  F54  1  0.25428000  0.90094200  0.37753200  1
  F  F55  1  0.25664200  0.50852300  0.93476800  1
  F  F56  1  0.59779000  0.45137500  0.52798300  1
  F  F57  1  0.91993500  0.76921900  0.98953000  1
  F  F58  1  0.63834200  0.63934100  0.64475200  1
  F  F59  1  0.90221000  0.45137500  0.02798300  1
  F  F60  1  0.24551300  0.16560300  0.75356500  1
  F  F61  1  0.27898900  0.65557400  0.08593600  1
  F  F62  1  0.13896700  0.36352600  0.61961900  1
  F  F63  1  0.40221000  0.54862500  0.47201700  1
  F  F64  1  0.30688800  0.37777500  0.59218300  1
  F  F65  1  0.48548500  0.17974300  0.86239300  1
  F  F66  1  0.47728200  0.46404800  0.90104100  1
  F  F67  1  0.76225600  0.28361400  0.74353700  1
  F  F68  1  0.59859800  0.39754900  0.79615200  1
  F  F69  1  0.63896700  0.63647400  0.88038100  1
  F  F70  1  0.75664200  0.49147700  0.56523200  1
  F  F71  1  0.73774400  0.28361400  0.24353700  1
  F  F72  1  0.09859800  0.60245100  0.70384800  1
  F  F73  1  0.51359400  0.69477100  0.30645900  1
  F  F74  1  0.73583500  0.80938000  0.52354800  1
  F  F75  1  0.97817300  0.39642800  0.76562900  1
  F  F76  1  0.58006500  0.76921900  0.48953000  1
  F  F77  1  0.73339000  0.02035800  0.36589700  1
  F  F78  1  0.74572000  0.09905800  0.62246800  1
  F  F79  1  0.86045600  0.06651500  0.25648100  1
loop_
_geom_bond_atom_site_label_1
_geom_bond_atom_site_label_2
_geom_bond_distance
_geom_bond_site_symmetry_2
N0 S6 1.560152 1_545
N0 S15 1.561528 1_555
N1 S12 1.564821 1_555
N1 S11 1.565241 1_555
N2 S8 1.560152 1_565
N2 S9 1.561528 1_555
N3 S10 1.566520 1_455
N3 S5 1.567467 1_555
N4 S15 1.566520 1_555
N4 S8 1.567467 1_554
N5 S12 1.558485 1_555
N5 S13 1.558530 1_565
N6 S2 1.558485 1_556
N6 S14 1.558530 1_565
N7 S2 1.564821 1_555
N7 S0 1.565241 1_455
N8 S4 1.560152 1_565
N8 S10 1.561528 1_555
N9 S3 1.558485 1_555
N9 S11 1.558530 1_545
N10 S1 1.564821 1_555
N10 S14 1.565241 1_655
N11 S1 1.558485 1_554
N11 S0 1.558530 1_545
N12 S7 1.566520 1_655
N12 S4 1.567467 1_555
N13 S3 1.564821 1_555
N13 S13 1.565241 1_555
N14 S5 1.560152 1_545
N14 S7 1.561528 1_555
N15 S9 1.566520 1_555
N15 S6 1.567467 1_556
F0 Sb11 1.909277 1_555
F1 Sb6 1.920251 1_555
F2 Sb12 1.909277 1_555
F3 Sb2 1.909277 1_555
F4 Sb1 1.927012 1_565
F5 Sb6 1.891312 1_555
F6 Sb4 1.909595 1_555
F7 Sb4 1.920251 1_555
F8 Sb3 1.927012 1_545
F9 Sb8 2.001463 1_555
F9 Sb14 2.312876 1_555
F10 Sb13 1.918777 1_555
F11 Sb9 1.891312 1_555
F12 Sb3 1.918777 1_555
F13 Sb2 1.930904 1_555
F14 Sb6 2.001463 1_556
F14 Sb15 2.312876 1_555
F15 Sb12 1.915152 1_555
F16 Sb7 1.936288 1_555
F17 Sb9 1.909595 1_555
F18 Sb12 1.905172 1_555
F19 Sb0 1.927012 1_565
F20 Sb12 1.998619 1_555
F20 Sb7 2.282438 1_555
F21 Sb3 1.916990 1_555
F22 Sb11 1.905172 1_555
F23 Sb11 1.900612 1_555
F24 Sb13 1.916990 1_555
F25 Sb10 1.900612 1_555
F26 Sb3 1.933247 1_555
F27 Sb15 1.940779 1_555
F28 Sb2 1.905172 1_555
F29 Sb10 1.915152 1_555
F30 Sb1 1.921663 1_555
F31 Sb14 1.936288 1_555
F32 Sb13 1.921663 1_555
F33 Sb3 1.921663 1_555
F34 Sb9 1.920251 1_555
F35 Sb13 1.921132 1_555
F36 Sb4 1.910461 1_555
F37 Sb2 1.998619 1_655
F37 Sb14 2.282438 1_555
F38 Sb5 1.940779 1_555
F39 Sb2 1.900612 1_555
F40 Sb14 1.940779 1_555
F41 Sb0 1.921663 1_555
F42 Sb4 1.929317 1_554
F43 Sb12 1.930904 1_555
F44 Sb10 1.930904 1_555
F45 Sb9 1.929317 1_555
F46 Sb13 1.933247 1_555
F47 Sb6 1.909595 1_555
F48 Sb1 1.921132 1_555
F49 Sb0 1.918777 1_555
F50 Sb0 1.916990 1_555
F51 Sb10 1.905172 1_555
F52 Sb2 1.915152 1_555
F53 Sb4 2.001463 1_554
F53 Sb7 2.312876 1_555
F54 Sb3 1.921132 1_555
F55 Sb4 1.891312 1_555
F56 Sb8 1.910461 1_555
F57 Sb6 1.929317 1_556
F58 Sb8 1.920251 1_555
F59 Sb6 1.910461 1_555
F60 Sb13 1.927012 1_545
F61 Sb7 1.940779 1_555
F62 Sb5 1.936288 1_555
F63 Sb9 1.910461 1_555
F64 Sb9 2.001463 1_555
F64 Sb5 2.312876 1_555
F65 Sb11 1.930904 1_555
F66 Sb11 1.915152 1_555
F67 Sb0 1.933247 1_555
F68 Sb11 1.998619 1_555
F68 Sb15 2.282438 1_555
F69 Sb15 1.936288 1_555
F70 Sb8 1.891312 1_555
F71 Sb1 1.933247 1_555
F72 Sb10 1.998619 1_455
F72 Sb5 2.282438 1_555
F73 Sb12 1.900612 1_555
F74 Sb8 1.909595 1_555
F75 Sb10 1.909277 1_555
F76 Sb8 1.929317 1_555
F77 Sb1 1.916990 1_555
F78 Sb0 1.921132 1_555
F79 Sb1 1.918777 1_555
