# generated using pymatgen
data_MnVAgO4
_symmetry_space_group_name_H-M   'P 1'
_cell_length_a   5.45188400
_cell_length_b   6.92034000
_cell_length_c   9.76351100
_cell_angle_alpha   90.00000000
_cell_angle_beta   90.00000000
_cell_angle_gamma   90.00000000
_symmetry_Int_Tables_number   1
_chemical_formula_structural   MnVAgO4
_chemical_formula_sum   'Mn4 V4 Ag4 O16'
_cell_volume   368.36644152
_cell_formula_units_Z   4
loop_
 _symmetry_equiv_pos_site_id
 _symmetry_equiv_pos_as_xyz
  1  'x, y, z'
loop_
 _atom_site_type_symbol
 _atom_site_label
 _atom_site_symmetry_multiplicity
 _atom_site_fract_x
 _atom_site_fract_y
 _atom_site_fract_z
 _atom_site_occupancy
  Mn  Mn0  1  0.00000000  0.50000000  0.00000000  1
  Mn  Mn1  1  0.50000000  0.00000000  0.50000000  1
  Mn  Mn2  1  0.50000000  0.50000000  0.50000000  1
  Mn  Mn3  1  0.00000000  0.00000000  0.00000000  1
  V  V0  1  0.97864200  0.75000000  0.32204800  1
  V  V1  1  0.47864200  0.25000000  0.17795200  1
  V  V2  1  0.02135800  0.25000000  0.67795200  1
  V  V3  1  0.52135800  0.75000000  0.82204800  1
  Ag  Ag0  1  0.99940200  0.75000000  0.65133300  1
  Ag  Ag1  1  0.49940200  0.25000000  0.84866700  1
  Ag  Ag2  1  0.00059800  0.25000000  0.34866700  1
  Ag  Ag3  1  0.50059800  0.75000000  0.15133300  1
  O  O0  1  0.93947500  0.75000000  0.13848700  1
  O  O1  1  0.43947500  0.25000000  0.36151300  1
  O  O2  1  0.06052500  0.25000000  0.86151300  1
  O  O3  1  0.56052500  0.75000000  0.63848700  1
  O  O4  1  0.28575700  0.75000000  0.38211000  1
  O  O5  1  0.78575700  0.25000000  0.11789000  1
  O  O6  1  0.71424300  0.25000000  0.61789000  1
  O  O7  1  0.21424300  0.75000000  0.88211000  1
  O  O8  1  0.82261500  0.55088100  0.38499100  1
  O  O9  1  0.32261500  0.44911900  0.11500900  1
  O  O10  1  0.17738500  0.05088100  0.61500900  1
  O  O11  1  0.67738500  0.94911900  0.88499100  1
  O  O12  1  0.17738500  0.44911900  0.61500900  1
  O  O13  1  0.67738500  0.55088100  0.88499100  1
  O  O14  1  0.82261500  0.94911900  0.38499100  1
  O  O15  1  0.32261500  0.05088100  0.11500900  1
loop_
_geom_bond_atom_site_label_1
_geom_bond_atom_site_label_2
_geom_bond_distance
_geom_bond_site_symmetry_2
Mn0 O9 2.116236 1_555
Mn0 O13 2.116236 1_454
Mn0 O0 2.220429 1_455
Mn0 O2 2.220429 1_554
Mn0 O5 2.383764 1_455
Mn0 O7 2.383764 1_554
Mn1 O14 2.116236 1_545
Mn1 O10 2.116236 1_555
Mn1 O1 2.220429 1_555
Mn1 O3 2.220429 1_545
Mn1 O6 2.383764 1_555
Mn1 O4 2.383764 1_545
Mn2 O8 2.116236 1_555
Mn2 O12 2.116236 1_555
Mn2 O3 2.220429 1_555
Mn2 O1 2.220429 1_555
Mn2 O4 2.383764 1_555
Mn2 O6 2.383764 1_555
Mn3 O15 2.116236 1_555
Mn3 O11 2.116236 1_444
Mn3 O0 2.220429 1_445
Mn3 O2 2.220429 1_554
Mn3 O5 2.383764 1_455
Mn3 O7 2.383764 1_544
Ag0 O10 2.324412 1_665
Ag0 O12 2.324412 1_655
Ag0 O3 2.395991 1_555
Ag0 O7 2.539448 1_655
Ag1 O11 2.324412 1_545
Ag1 O13 2.324412 1_555
Ag1 O2 2.395991 1_555
Ag1 O6 2.539448 1_555
Ag2 O14 2.324412 1_445
Ag2 O8 2.324412 1_455
Ag2 O1 2.395991 1_555
Ag2 O5 2.539448 1_455
Ag3 O15 2.324412 1_565
Ag3 O9 2.324412 1_555
Ag3 O0 2.395991 1_555
Ag3 O4 2.539448 1_555
O0 V0 1.804876 1_555
O1 V1 1.804876 1_555
O2 V2 1.804876 1_555
O3 V3 1.804876 1_555
O4 V0 1.774077 1_455
O5 V1 1.774077 1_555
O6 V2 1.774077 1_655
O7 V3 1.774077 1_555
O8 V0 1.732068 1_555
O9 V1 1.732068 1_555
O10 V2 1.732068 1_555
O11 V3 1.732068 1_555
O12 V2 1.732068 1_555
O13 V3 1.732068 1_555
O14 V0 1.732068 1_555
O15 V1 1.732068 1_555
