# generated using pymatgen
data_ZnS
_symmetry_space_group_name_H-M   'P 1'
_cell_length_a   37.82790613
_cell_length_b   37.82790611
_cell_length_c   37.82790674
_cell_angle_alpha   5.84745292
_cell_angle_beta   5.84745321
_cell_angle_gamma   5.84745283
_symmetry_Int_Tables_number   1
_chemical_formula_structural   ZnS
_chemical_formula_sum   'Zn12 S12'
_cell_volume   486.99466246
_cell_formula_units_Z   12
loop_
 _symmetry_equiv_pos_site_id
 _symmetry_equiv_pos_as_xyz
  1  'x, y, z'
loop_
 _atom_site_type_symbol
 _atom_site_label
 _atom_site_symmetry_multiplicity
 _atom_site_fract_x
 _atom_site_fract_y
 _atom_site_fract_z
 _atom_site_occupancy
  Zn  Zn0  1  0.08333910  0.08333910  0.08333910  1
  Zn  Zn1  1  0.52778484  0.52778484  0.52778484  1
  Zn  Zn2  1  0.61112138  0.61112138  0.61112138  1
  Zn  Zn3  1  0.16667451  0.16667451  0.16667451  1
  Zn  Zn4  1  0.91666968  0.91666968  0.91666968  1
  Zn  Zn5  1  0.36112652  0.36112652  0.36112652  1
  Zn  Zn6  1  0.00000197  0.00000197  0.00000197  1
  Zn  Zn7  1  0.80555130  0.80555130  0.80555130  1
  Zn  Zn8  1  0.72222173  0.72222173  0.72222173  1
  Zn  Zn9  1  0.30555504  0.30555504  0.30555504  1
  Zn  Zn10  1  0.22222617  0.22222617  0.22222617  1
  Zn  Zn11  1  0.44445417  0.44445417  0.44445417  1
  S  S0  1  0.93749705  0.93749705  0.93749705  1
  S  S1  1  0.10416434  0.10416434  0.10416434  1
  S  S2  1  0.38193914  0.38193914  0.38193914  1
  S  S3  1  0.46527101  0.46527101  0.46527101  1
  S  S4  1  0.74304781  0.74304781  0.74304781  1
  S  S5  1  0.54862104  0.54862104  0.54862104  1
  S  S6  1  0.02084388  0.02084388  0.02084388  1
  S  S7  1  0.82637887  0.82637887  0.82637887  1
  S  S8  1  0.63194177  0.63194177  0.63194177  1
  S  S9  1  0.24304476  0.24304476  0.24304476  1
  S  S10  1  0.18748344  0.18748344  0.18748344  1
  S  S11  1  0.32636648  0.32636648  0.32636648  1
loop_
_geom_bond_atom_site_label_1
_geom_bond_atom_site_label_2
_geom_bond_distance
_geom_bond_site_symmetry_2
S0 Zn4 2.359464 1_555
S0 Zn2 2.363277 1_565
S0 Zn2 2.363277 1_655
S0 Zn2 2.363278 1_556
S1 Zn0 2.359223 1_555
S1 Zn11 2.363233 1_554
S1 Zn11 2.363233 1_545
S1 Zn11 2.363233 1_455
S2 Zn5 2.357793 1_555
S2 Zn8 2.362960 1_554
S2 Zn8 2.362960 1_545
S2 Zn8 2.362960 1_455
S3 Zn11 2.358271 1_555
S3 Zn7 2.362873 1_554
S3 Zn7 2.362873 1_545
S3 Zn7 2.362873 1_455
S4 Zn8 2.359318 1_555
S4 Zn0 2.363288 1_665
S4 Zn0 2.363288 1_656
S4 Zn0 2.363289 1_566
S5 Zn1 2.360465 1_555
S5 Zn10 2.362553 1_565
S5 Zn10 2.362553 1_655
S5 Zn10 2.362553 1_556
S6 Zn6 2.361112 1_555
S6 Zn5 2.362962 1_554
S6 Zn5 2.362962 1_545
S6 Zn5 2.362962 1_455
S7 Zn7 2.359487 1_555
S7 Zn3 2.363453 1_665
S7 Zn3 2.363453 1_656
S7 Zn3 2.363453 1_566
S8 Zn2 2.358674 1_555
S8 Zn9 2.362860 1_565
S8 Zn9 2.362860 1_655
S8 Zn9 2.362860 1_556
S9 Zn10 2.358470 1_555
S9 Zn4 2.363299 1_454
S9 Zn4 2.363300 1_544
S9 Zn4 2.363300 1_445
S10 Zn3 2.357375 1_555
S10 Zn1 2.363671 1_554
S10 Zn1 2.363671 1_545
S10 Zn1 2.363671 1_455
S11 Zn9 2.357660 1_555
S11 Zn6 2.363699 1_565
S11 Zn6 2.363699 1_655
S11 Zn6 2.363700 1_556
