# generated using pymatgen
data_RbU2SbS8
_symmetry_space_group_name_H-M   'P 1'
_cell_length_a   6.86246398
_cell_length_b   6.86229996
_cell_length_c   7.58636401
_cell_angle_alpha   81.11127078
_cell_angle_beta   81.10826552
_cell_angle_gamma   108.75538129
_symmetry_Int_Tables_number   1
_chemical_formula_structural   RbU2SbS8
_chemical_formula_sum   'Rb1 U2 Sb1 S8'
_cell_volume   326.16315444
_cell_formula_units_Z   1
loop_
 _symmetry_equiv_pos_site_id
 _symmetry_equiv_pos_as_xyz
  1  'x, y, z'
loop_
 _atom_site_type_symbol
 _atom_site_label
 _atom_site_symmetry_multiplicity
 _atom_site_fract_x
 _atom_site_fract_y
 _atom_site_fract_z
 _atom_site_occupancy
  Rb  Rb0  1  0.53997486  0.53996863  0.84277382  1
  U  U0  1  0.42232783  0.92284699  0.30995204  1
  U  U1  1  0.92283711  0.42232711  0.30994077  1
  Sb  Sb0  1  0.99585128  0.99581056  0.01472604  1
  S  S0  1  0.21322311  0.51439018  0.53507992  1
  S  S1  1  0.70130080  0.02978509  0.54472841  1
  S  S2  1  0.74604886  0.22612220  0.05754679  1
  S  S3  1  0.70154326  0.70152805  0.21753015  1
  S  S4  1  0.02974332  0.70127821  0.54471971  1
  S  S5  1  0.18992938  0.18995150  0.21506763  1
  S  S6  1  0.51441694  0.21327191  0.53508183  1
  S  S7  1  0.22610226  0.74601859  0.05755090  1
loop_
_geom_bond_atom_site_label_1
_geom_bond_atom_site_label_2
_geom_bond_distance
_geom_bond_site_symmetry_2
Rb0 S7 3.298364 1_556
Rb0 S2 3.298418 1_556
Rb0 S5 3.407716 1_556
Rb0 S3 3.420441 1_556
Rb0 S6 3.463603 1_555
Rb0 S0 3.463996 1_555
Rb0 S4 3.481268 1_655
Rb0 S1 3.481492 1_565
S0 S4 2.067469 1_555
S0 U1 2.804195 1_455
S0 U0 2.830040 1_555
S1 S6 2.067492 1_555
S1 U1 2.790481 1_555
S1 U0 2.816116 1_545
S2 Sb0 2.696453 1_545
S2 U0 2.722756 1_545
S2 U1 2.723119 1_555
S3 Sb0 2.445578 1_555
S3 U1 2.872921 1_555
S3 U0 2.873119 1_555
S4 U0 2.790652 1_555
S4 U1 2.815928 1_455
S5 Sb0 2.443196 1_445
S5 U1 2.871732 1_455
S5 U0 2.871983 1_545
S6 U0 2.804277 1_545
S6 U1 2.829864 1_555
S7 Sb0 2.696080 1_455
S7 U1 2.722582 1_455
S7 U0 2.723348 1_555
