# generated using pymatgen
data_K4Mn(AsS4)2
_symmetry_space_group_name_H-M   'P 1'
_cell_length_a   8.73125600
_cell_length_b   9.36261200
_cell_length_c   21.91059761
_cell_angle_alpha   70.47946697
_cell_angle_beta   90.00000000
_cell_angle_gamma   90.00000000
_symmetry_Int_Tables_number   1
_chemical_formula_structural   K4Mn(AsS4)2
_chemical_formula_sum   'K16 Mn4 As8 S32'
_cell_volume   1688.18243424
_cell_formula_units_Z   4
loop_
 _symmetry_equiv_pos_site_id
 _symmetry_equiv_pos_as_xyz
  1  'x, y, z'
loop_
 _atom_site_type_symbol
 _atom_site_label
 _atom_site_symmetry_multiplicity
 _atom_site_fract_x
 _atom_site_fract_y
 _atom_site_fract_z
 _atom_site_occupancy
  K  K0  1  0.88077300  0.50000000  0.25000000  1
  K  K1  1  0.61377900  0.02627900  0.36494300  1
  K  K2  1  0.89514100  0.79744600  0.83466200  1
  K  K3  1  0.88408000  0.77047600  0.01659500  1
  K  K4  1  0.59172900  0.50000000  0.75000000  1
  K  K5  1  0.11922700  0.50000000  0.75000000  1
  K  K6  1  0.10485900  0.20255400  0.16533800  1
  K  K7  1  0.61377900  0.97372100  0.13505700  1
  K  K8  1  0.88408000  0.22952400  0.48340500  1
  K  K9  1  0.11592000  0.22952400  0.98340500  1
  K  K10  1  0.40827100  0.50000000  0.25000000  1
  K  K11  1  0.10485900  0.79744600  0.33466200  1
  K  K12  1  0.38622100  0.97372100  0.63505700  1
  K  K13  1  0.38622100  0.02627900  0.86494300  1
  K  K14  1  0.11592000  0.77047600  0.51659500  1
  K  K15  1  0.89514100  0.20255400  0.66533800  1
  Mn  Mn0  1  0.37081400  0.62664700  0.04220200  1
  Mn  Mn1  1  0.62918600  0.62664700  0.54220200  1
  Mn  Mn2  1  0.37081400  0.37335300  0.45779800  1
  Mn  Mn3  1  0.62918600  0.37335300  0.95779800  1
  As  As0  1  0.66399800  0.38466000  0.11175400  1
  As  As1  1  0.19212400  0.17547700  0.37542900  1
  As  As2  1  0.19212400  0.82452300  0.12457100  1
  As  As3  1  0.66399800  0.61534000  0.38824600  1
  As  As4  1  0.80787600  0.17547700  0.87542900  1
  As  As5  1  0.80787600  0.82452300  0.62457100  1
  As  As6  1  0.33600200  0.61534000  0.88824600  1
  As  As7  1  0.33600200  0.38466000  0.61175400  1
  S  S0  1  0.30525500  0.84771200  0.20882000  1
  S  S1  1  0.15271600  0.41546000  0.36797900  1
  S  S2  1  0.34420500  0.09749900  0.46084600  1
  S  S3  1  0.34420500  0.90250100  0.03915400  1
  S  S4  1  0.16641900  0.40491800  0.53541900  1
  S  S5  1  0.26224000  0.22828600  0.70420500  1
  S  S6  1  0.65579500  0.90250100  0.53915400  1
  S  S7  1  0.84728400  0.58454000  0.63202100  1
  S  S8  1  0.15271600  0.58454000  0.13202100  1
  S  S9  1  0.16641900  0.59508200  0.96458100  1
  S  S10  1  0.45354300  0.67622300  0.43067900  1
  S  S11  1  0.73776000  0.77171400  0.29579500  1
  S  S12  1  0.54645700  0.32377700  0.56932100  1
  S  S13  1  0.26224000  0.77171400  0.79579500  1
  S  S14  1  0.60624600  0.61003000  0.11611000  1
  S  S15  1  0.69474500  0.84771200  0.70882000  1
  S  S16  1  0.84728400  0.41546000  0.86797900  1
  S  S17  1  0.01976700  0.04682500  0.89196200  1
  S  S18  1  0.01976700  0.95317500  0.60803800  1
  S  S19  1  0.39375400  0.61003000  0.61611000  1
  S  S20  1  0.65579500  0.09749900  0.96084600  1
  S  S21  1  0.73776000  0.22828600  0.20420500  1
  S  S22  1  0.60624600  0.38997000  0.38389000  1
  S  S23  1  0.83358100  0.40491800  0.03541900  1
  S  S24  1  0.98023300  0.95317500  0.10803800  1
  S  S25  1  0.45354300  0.32377700  0.06932100  1
  S  S26  1  0.39375400  0.38997000  0.88389000  1
  S  S27  1  0.30525500  0.15228800  0.29118000  1
  S  S28  1  0.83358100  0.59508200  0.46458100  1
  S  S29  1  0.69474500  0.15228800  0.79118000  1
  S  S30  1  0.98023300  0.04682500  0.39196200  1
  S  S31  1  0.54645700  0.67622300  0.93067900  1
loop_
_geom_bond_atom_site_label_1
_geom_bond_atom_site_label_2
_geom_bond_distance
_geom_bond_site_symmetry_2
K0 S11 3.277740 1_555
K0 S21 3.277740 1_555
K0 S1 3.402809 1_655
K0 S8 3.402809 1_655
K0 S22 3.659660 1_555
K0 S14 3.659660 1_555
K1 S27 3.160104 1_555
K1 S30 3.271244 1_555
K1 S2 3.366961 1_555
K1 S11 3.400154 1_545
K1 S10 3.408635 1_545
K1 S21 3.563845 1_555
K1 S22 3.565957 1_555
K1 S6 3.618203 1_545
K2 S15 3.165174 1_555
K2 S17 3.189158 1_665
K2 S13 3.345730 1_655
K2 S16 3.428309 1_555
K2 S29 3.590437 1_565
K2 S31 3.658832 1_555
K2 S9 3.701191 1_655
K3 S24 3.152050 1_555
K3 S14 3.272100 1_555
K3 S17 3.291400 1_664
K3 S23 3.336942 1_555
K3 S9 3.365002 1_654
K3 S8 3.462065 1_655
K3 S20 3.512853 1_564
K3 S31 3.757996 1_554
K4 S15 3.202867 1_555
K4 S29 3.202867 1_555
K4 S19 3.261231 1_555
K4 S26 3.261231 1_555
K4 S16 3.304555 1_555
K4 S7 3.304555 1_555
K5 S13 3.277740 1_555
K5 S5 3.277740 1_555
K5 S16 3.402809 1_455
K5 S7 3.402809 1_455
K5 S19 3.659660 1_555
K5 S26 3.659660 1_555
K6 S27 3.165174 1_555
K6 S24 3.189158 1_445
K6 S21 3.345730 1_455
K6 S8 3.428309 1_555
K6 S0 3.590437 1_545
K6 S25 3.658832 1_555
K6 S23 3.701191 1_455
K7 S0 3.160104 1_555
K7 S24 3.271244 1_555
K7 S3 3.366961 1_555
K7 S21 3.400154 1_565
K7 S25 3.408635 1_565
K7 S11 3.563845 1_555
K7 S14 3.565957 1_555
K7 S20 3.618203 1_564
K8 S30 3.152050 1_555
K8 S22 3.272100 1_555
K8 S18 3.291400 1_645
K8 S28 3.336942 1_555
K8 S4 3.365002 1_655
K8 S1 3.462065 1_655
K8 S6 3.512853 1_545
K8 S12 3.757996 1_555
K9 S17 3.152050 1_555
K9 S26 3.272100 1_555
K9 S24 3.291400 1_446
K9 S9 3.336942 1_555
K9 S23 3.365002 1_456
K9 S16 3.462065 1_455
K9 S3 3.512853 1_546
K9 S25 3.757996 1_556
K10 S0 3.202867 1_555
K10 S27 3.202867 1_555
K10 S22 3.261231 1_555
K10 S14 3.261231 1_555
K10 S8 3.304555 1_555
K10 S1 3.304555 1_555
K11 S0 3.165174 1_555
K11 S30 3.189158 1_465
K11 S11 3.345730 1_455
K11 S1 3.428309 1_555
K11 S27 3.590437 1_565
K11 S10 3.658832 1_555
K11 S28 3.701191 1_455
K12 S15 3.160104 1_555
K12 S18 3.271244 1_555
K12 S6 3.366961 1_555
K12 S5 3.400154 1_565
K12 S12 3.408635 1_565
K12 S13 3.563845 1_555
K12 S19 3.565957 1_555
K12 S2 3.618203 1_565
K13 S29 3.160104 1_555
K13 S17 3.271244 1_555
K13 S20 3.366961 1_555
K13 S13 3.400154 1_545
K13 S31 3.408635 1_545
K13 S5 3.563845 1_555
K13 S26 3.565957 1_555
K13 S3 3.618203 1_546
K14 S18 3.152050 1_555
K14 S19 3.272100 1_555
K14 S30 3.291400 1_465
K14 S4 3.336942 1_555
K14 S28 3.365002 1_455
K14 S7 3.462065 1_455
K14 S2 3.512853 1_565
K14 S10 3.757996 1_555
K15 S29 3.165174 1_555
K15 S18 3.189158 1_645
K15 S5 3.345730 1_655
K15 S7 3.428309 1_555
K15 S15 3.590437 1_545
K15 S12 3.658832 1_555
K15 S4 3.701191 1_655
Mn0 S9 2.549623 1_554
Mn0 S3 2.571688 1_555
Mn0 S14 2.589161 1_555
Mn0 S8 2.671357 1_555
Mn0 S31 2.789305 1_554
Mn0 S25 2.791011 1_555
Mn1 S28 2.549623 1_555
Mn1 S6 2.571688 1_555
Mn1 S19 2.589161 1_555
Mn1 S7 2.671357 1_555
Mn1 S10 2.789305 1_555
Mn1 S12 2.791011 1_555
Mn2 S4 2.549623 1_555
Mn2 S2 2.571688 1_555
Mn2 S22 2.589161 1_555
Mn2 S1 2.671357 1_555
Mn2 S12 2.789305 1_555
Mn2 S10 2.791011 1_555
Mn3 S23 2.549623 1_556
Mn3 S20 2.571688 1_555
Mn3 S26 2.589161 1_555
Mn3 S16 2.671357 1_555
Mn3 S25 2.789305 1_556
Mn3 S31 2.791011 1_555
As0 S21 2.163242 1_555
As0 S23 2.194031 1_555
As0 S14 2.202335 1_555
As0 S25 2.218117 1_555
As1 S27 2.167530 1_555
As1 S30 2.171006 1_455
As1 S2 2.210372 1_555
As1 S1 2.224488 1_555
As2 S0 2.167530 1_555
As2 S24 2.171006 1_455
As2 S3 2.210372 1_555
As2 S8 2.224488 1_555
As3 S11 2.163242 1_555
As3 S28 2.194031 1_555
As3 S22 2.202335 1_555
As3 S10 2.218117 1_555
As4 S29 2.167530 1_555
As4 S17 2.171006 1_655
As4 S20 2.210372 1_555
As4 S16 2.224488 1_555
As5 S15 2.167530 1_555
As5 S18 2.171006 1_655
As5 S6 2.210372 1_555
As5 S7 2.224488 1_555
As6 S13 2.163242 1_555
As6 S9 2.194031 1_555
As6 S26 2.202335 1_555
As6 S31 2.218117 1_555
As7 S5 2.163242 1_555
As7 S4 2.194031 1_555
As7 S19 2.202335 1_555
As7 S12 2.218117 1_555
