# generated using pymatgen
data_CsBO2
_symmetry_space_group_name_H-M   'P 1'
_cell_length_a   8.38039840
_cell_length_b   8.38039840
_cell_length_c   8.38039942
_cell_angle_alpha   109.47538418
_cell_angle_beta   109.47538418
_cell_angle_gamma   109.47539762
_symmetry_Int_Tables_number   1
_chemical_formula_structural   CsBO2
_chemical_formula_sum   'Cs6 B6 O12'
_cell_volume   453.00721671
_cell_formula_units_Z   6
loop_
 _symmetry_equiv_pos_site_id
 _symmetry_equiv_pos_as_xyz
  1  'x, y, z'
loop_
 _atom_site_type_symbol
 _atom_site_label
 _atom_site_symmetry_multiplicity
 _atom_site_fract_x
 _atom_site_fract_y
 _atom_site_fract_z
 _atom_site_occupancy
  Cs  Cs0  1  0.25000000  0.80948974  0.69051026  1
  Cs  Cs1  1  0.80948974  0.69051026  0.25000000  1
  Cs  Cs2  1  0.75000000  0.19051026  0.30948974  1
  Cs  Cs3  1  0.30948974  0.75000000  0.19051026  1
  Cs  Cs4  1  0.69051026  0.25000000  0.80948974  1
  Cs  Cs5  1  0.19051026  0.30948974  0.75000000  1
  B  B0  1  0.14403860  0.35596140  0.25000000  1
  B  B1  1  0.64403860  0.75000000  0.85596140  1
  B  B2  1  0.75000000  0.85596140  0.64403860  1
  B  B3  1  0.85596140  0.64403860  0.75000000  1
  B  B4  1  0.25000000  0.14403860  0.35596140  1
  B  B5  1  0.35596140  0.25000000  0.14403860  1
  O  O0  1  0.25000000  0.35092089  0.14907911  1
  O  O1  1  0.64907911  0.85092089  0.75000000  1
  O  O2  1  0.75000000  0.64907911  0.85092089  1
  O  O3  1  0.75000000  0.95232085  0.54767915  1
  O  O4  1  0.04767915  0.45232085  0.25000000  1
  O  O5  1  0.45232085  0.25000000  0.04767915  1
  O  O6  1  0.95232085  0.54767915  0.75000000  1
  O  O7  1  0.35092089  0.14907911  0.25000000  1
  O  O8  1  0.85092089  0.75000000  0.64907911  1
  O  O9  1  0.14907911  0.25000000  0.35092089  1
  O  O10  1  0.25000000  0.04767915  0.45232085  1
  O  O11  1  0.54767915  0.75000000  0.95232085  1
loop_
_geom_bond_atom_site_label_1
_geom_bond_atom_site_label_2
_geom_bond_distance
_geom_bond_site_symmetry_2
Cs0 O6 3.032301 1_455
Cs0 O11 3.032301 1_555
Cs0 O8 3.090770 1_455
Cs0 O1 3.090770 1_555
Cs0 O5 3.246001 1_566
Cs0 O4 3.246001 1_555
Cs0 O10 3.259738 1_565
Cs1 O11 3.032301 1_554
Cs1 O3 3.032301 1_555
Cs1 O8 3.090771 1_555
Cs1 O2 3.090771 1_554
Cs1 O10 3.246000 1_665
Cs1 O5 3.246000 1_555
Cs1 O4 3.259738 1_655
Cs2 O4 3.032301 1_655
Cs2 O5 3.032301 1_555
Cs2 O9 3.090770 1_655
Cs2 O7 3.090770 1_555
Cs2 O11 3.246001 1_544
Cs2 O6 3.246001 1_555
Cs2 O3 3.259738 1_545
Cs3 O4 3.032301 1_555
Cs3 O10 3.032301 1_565
Cs3 O0 3.090770 1_555
Cs3 O7 3.090770 1_565
Cs3 O3 3.246001 1_555
Cs3 O6 3.246001 1_454
Cs3 O11 3.259738 1_554
Cs4 O6 3.032301 1_555
Cs4 O3 3.032301 1_545
Cs4 O2 3.090770 1_555
Cs4 O1 3.090770 1_545
Cs4 O10 3.246001 1_555
Cs4 O4 3.246001 1_656
Cs4 O5 3.259738 1_556
Cs5 O10 3.032301 1_555
Cs5 O5 3.032301 1_556
Cs5 O0 3.090771 1_556
Cs5 O9 3.090771 1_555
Cs5 O3 3.246000 1_445
Cs5 O11 3.246000 1_555
Cs5 O6 3.259738 1_455
B0 O4 1.318726 1_555
B0 O9 1.416902 1_555
B0 O0 1.416902 1_555
B1 O11 1.318726 1_555
B1 O1 1.416902 1_555
B1 O2 1.416902 1_555
B2 O3 1.318726 1_555
B2 O1 1.416902 1_555
B2 O8 1.416902 1_555
B3 O6 1.318726 1_555
B3 O2 1.416902 1_555
B3 O8 1.416902 1_555
B4 O10 1.318726 1_555
B4 O7 1.416902 1_555
B4 O9 1.416902 1_555
B5 O5 1.318726 1_555
B5 O7 1.416902 1_555
B5 O0 1.416902 1_555
