# generated using pymatgen
data_K4Pt2(SO4)5
_symmetry_space_group_name_H-M   'P 1'
_cell_length_a   9.96628500
_cell_length_b   13.64958725
_cell_length_c   15.17121640
_cell_angle_alpha   101.35519162
_cell_angle_beta   96.01724457
_cell_angle_gamma   102.43534136
_symmetry_Int_Tables_number   1
_chemical_formula_structural   K4Pt2(SO4)5
_chemical_formula_sum   'K16 Pt8 S20 O80'
_cell_volume   1952.45629171
_cell_formula_units_Z   4
loop_
 _symmetry_equiv_pos_site_id
 _symmetry_equiv_pos_as_xyz
  1  'x, y, z'
loop_
 _atom_site_type_symbol
 _atom_site_label
 _atom_site_symmetry_multiplicity
 _atom_site_fract_x
 _atom_site_fract_y
 _atom_site_fract_z
 _atom_site_occupancy
  K  K0  1  0.13807500  0.68775400  0.27546900  1
  K  K1  1  0.04457900  0.62247400  0.93886800  1
  K  K2  1  0.41801200  0.89014800  0.05743900  1
  K  K3  1  0.88071400  0.95571400  0.68658500  1
  K  K4  1  0.37150900  0.41818500  0.65579700  1
  K  K5  1  0.33032400  0.79578600  0.68541800  1
  K  K6  1  0.62849100  0.58181500  0.34420300  1
  K  K7  1  0.86192500  0.31224600  0.72453100  1
  K  K8  1  0.76296800  0.84900900  0.27231600  1
  K  K9  1  0.58198800  0.10985200  0.94256100  1
  K  K10  1  0.95542100  0.37752600  0.06113200  1
  K  K11  1  0.11928600  0.04428600  0.31341500  1
  K  K12  1  0.69063800  0.65312700  0.69163600  1
  K  K13  1  0.23703200  0.15099100  0.72768400  1
  K  K14  1  0.66967600  0.20421400  0.31458200  1
  K  K15  1  0.30936200  0.34687300  0.30836400  1
  Pt  Pt0  1  0.98947700  0.58568900  0.48460700  1
  Pt  Pt1  1  0.61814900  0.05877700  0.50454900  1
  Pt  Pt2  1  0.38185100  0.94122300  0.49545100  1
  Pt  Pt3  1  0.51411300  0.58512900  0.97676200  1
  Pt  Pt4  1  0.89488200  0.93064700  0.95674600  1
  Pt  Pt5  1  0.10511800  0.06935300  0.04325400  1
  Pt  Pt6  1  0.01052300  0.41431100  0.51539300  1
  Pt  Pt7  1  0.48588700  0.41487100  0.02323800  1
  S  S0  1  0.57281500  0.79050400  0.87727000  1
  S  S1  1  0.94912300  0.41349900  0.30785100  1
  S  S2  1  0.64051000  0.42808200  0.85529000  1
  S  S3  1  0.37754100  0.17060100  0.49249300  1
  S  S4  1  0.53403700  0.05021700  0.69282500  1
  S  S5  1  0.23494800  0.42162800  0.88631400  1
  S  S6  1  0.42718500  0.20949600  0.12273000  1
  S  S7  1  0.76505200  0.57837200  0.11368600  1
  S  S8  1  0.46596300  0.94978300  0.30717500  1
  S  S9  1  0.93159700  0.14260100  0.89819600  1
  S  S10  1  0.35949000  0.57191800  0.14471000  1
  S  S11  1  0.29185500  0.55199800  0.49058800  1
  S  S12  1  0.16098300  0.93079200  0.86852400  1
  S  S13  1  0.05087700  0.58650100  0.69214900  1
  S  S14  1  0.95897500  0.16671300  0.53077800  1
  S  S15  1  0.83901700  0.06920800  0.13147600  1
  S  S16  1  0.62245900  0.82939900  0.50750700  1
  S  S17  1  0.04102500  0.83328700  0.46922200  1
  S  S18  1  0.06840300  0.85739900  0.10180400  1
  S  S19  1  0.70814500  0.44800200  0.50941200  1
  O  O0  1  0.28282700  0.37035600  0.96207100  1
  O  O1  1  0.57876200  0.52432600  0.85866700  1
  O  O2  1  0.35306900  0.60122100  0.58450600  1
  O  O3  1  0.98350100  0.12214700  0.60991300  1
  O  O4  1  0.42123800  0.47567400  0.14133300  1
  O  O5  1  0.08498700  0.48285900  0.64943100  1
  O  O6  1  0.00608600  0.88587900  0.55331600  1
  O  O7  1  0.50355700  0.72097900  0.79028400  1
  O  O8  1  0.79380600  0.05544300  0.21737300  1
  O  O9  1  0.81236500  0.39150800  0.54656800  1
  O  O10  1  0.93918700  0.34700600  0.38059600  1
  O  O11  1  0.03417800  0.17783100  0.98848400  1
  O  O12  1  0.99865500  0.90237100  0.84887800  1
  O  O13  1  0.50539200  0.12018900  0.76995700  1
  O  O14  1  0.49460800  0.87981100  0.23004300  1
  O  O15  1  0.15215300  0.78198500  0.10165500  1
  O  O16  1  0.96582200  0.82216900  0.01151600  1
  O  O17  1  0.46344900  0.10970600  0.10449900  1
  O  O18  1  0.46372700  0.25756600  0.04310800  1
  O  O19  1  0.59918400  0.97065900  0.71402100  1
  O  O20  1  0.61005100  0.99950900  0.36873000  1
  O  O21  1  0.49644300  0.27902100  0.20971600  1
  O  O22  1  0.27111300  0.19565300  0.12637500  1
  O  O23  1  0.37495300  0.21653200  0.58695500  1
  O  O24  1  0.20781500  0.03877500  0.93457400  1
  O  O25  1  0.80851000  0.17656600  0.51583900  1
  O  O26  1  0.99500600  0.87161600  0.17954800  1
  O  O27  1  0.83871000  0.36002900  0.23309800  1
  O  O28  1  0.78539400  0.45744100  0.89817500  1
  O  O29  1  0.79218500  0.96122500  0.06542600  1
  O  O30  1  0.70595800  0.94377500  0.53182100  1
  O  O31  1  0.40081600  0.02934100  0.28597900  1
  O  O32  1  0.00134500  0.09762900  0.15112200  1
  O  O33  1  0.62504700  0.78346800  0.41304500  1
  O  O34  1  0.52865200  0.17209400  0.47523100  1
  O  O35  1  0.21460600  0.54255900  0.10182500  1
  O  O36  1  0.44971300  0.64457100  0.09515500  1
  O  O37  1  0.53655100  0.89029400  0.89550100  1
  O  O38  1  0.60988600  0.45689300  0.57296100  1
  O  O39  1  0.17100900  0.96032500  0.10000000  1
  O  O40  1  0.06081300  0.65299400  0.61940400  1
  O  O41  1  0.79054600  0.56096700  0.51415100  1
  O  O42  1  0.00499400  0.12838400  0.82045200  1
  O  O43  1  0.31926000  0.21977200  0.42616300  1
  O  O44  1  0.37460800  0.88207000  0.35999700  1
  O  O45  1  0.64693100  0.39877900  0.41549400  1
  O  O46  1  0.47134800  0.82790600  0.52476900  1
  O  O47  1  0.72888700  0.80434700  0.87362500  1
  O  O48  1  0.62539200  0.11793000  0.64000300  1
  O  O49  1  0.38314500  0.62423000  0.24028200  1
  O  O50  1  0.99391400  0.11412100  0.44668400  1
  O  O51  1  0.73576700  0.62976600  0.20075900  1
  O  O52  1  0.38994900  0.00049100  0.63127000  1
  O  O53  1  0.82899100  0.03967500  0.90000000  1
  O  O54  1  0.08811900  0.43363600  0.28290000  1
  O  O55  1  0.55028700  0.35542900  0.90484500  1
  O  O56  1  0.39011400  0.54310700  0.42703900  1
  O  O57  1  0.91501300  0.51714100  0.35056900  1
  O  O58  1  0.53627300  0.74243400  0.95689200  1
  O  O59  1  0.04388300  0.27908800  0.56088900  1
  O  O60  1  0.20972600  0.85432500  0.90836400  1
  O  O61  1  0.61685500  0.37577000  0.75971800  1
  O  O62  1  0.68803400  0.46264800  0.08797600  1
  O  O63  1  0.91214500  0.58150500  0.11203900  1
  O  O64  1  0.29404200  0.05622500  0.46817900  1
  O  O65  1  0.08785500  0.41849500  0.88796100  1
  O  O66  1  0.31196600  0.53735200  0.91202400  1
  O  O67  1  0.20945400  0.43903300  0.48584900  1
  O  O68  1  0.95611700  0.72091200  0.43911100  1
  O  O69  1  0.68074000  0.78022800  0.57383700  1
  O  O70  1  0.79027400  0.14567500  0.09163600  1
  O  O71  1  0.19149000  0.82343400  0.48416100  1
  O  O72  1  0.18763500  0.60849200  0.45343200  1
  O  O73  1  0.01649900  0.87785300  0.39008700  1
  O  O74  1  0.16129000  0.63997100  0.76690200  1
  O  O75  1  0.26423300  0.37023400  0.79924100  1
  O  O76  1  0.91188100  0.56636400  0.71710000  1
  O  O77  1  0.84784700  0.21801500  0.89834500  1
  O  O78  1  0.20619400  0.94455700  0.78262700  1
  O  O79  1  0.71717300  0.62964400  0.03792900  1
loop_
_geom_bond_atom_site_label_1
_geom_bond_atom_site_label_2
_geom_bond_distance
_geom_bond_site_symmetry_2
K0 O49 2.829392 1_555
K0 O63 3.054190 1_455
K0 O44 3.093631 1_555
K0 O72 3.131262 1_555
K0 O15 3.156435 1_555
K0 O35 3.235100 1_555
K0 O68 3.242203 1_455
K0 O71 3.263516 1_555
K0 O57 3.318103 1_455
K0 O73 3.353168 1_555
K0 O54 3.422546 1_555
K1 O65 2.876575 1_555
K1 O15 2.882940 1_556
K1 O28 2.956344 1_455
K1 O74 2.996414 1_555
K1 O16 3.029913 1_456
K1 O63 3.153521 1_456
K1 O66 3.161005 1_555
K1 O35 3.339618 1_556
K1 O76 3.357320 1_455
K1 O60 3.381040 1_555
K2 O14 2.689343 1_555
K2 O60 2.793982 1_554
K2 O58 2.823213 1_554
K2 O37 2.835661 1_554
K2 O17 2.863784 1_565
K2 O39 2.915424 1_555
K2 O15 2.954335 1_555
K3 O6 2.615613 1_655
K3 O30 2.728114 1_555
K3 O42 2.746660 1_665
K3 O3 2.802035 1_565
K3 O69 2.872512 1_555
K3 O12 2.905494 1_555
K3 O19 2.923243 1_555
K4 O75 2.656069 1_555
K4 O23 2.753964 1_555
K4 O38 2.801686 1_555
K4 O2 2.943728 1_555
K4 O67 2.991824 1_555
K4 O61 2.993440 1_555
K4 O5 3.162948 1_555
K5 O7 2.716163 1_555
K5 O78 2.848538 1_555
K5 O2 2.859916 1_555
K5 O40 2.903313 1_555
K5 O74 2.969584 1_555
K5 O46 2.996884 1_555
K5 O52 3.020978 1_565
K5 O19 3.107974 1_555
K6 O51 2.656069 1_555
K6 O33 2.753964 1_555
K6 O56 2.801686 1_555
K6 O45 2.943728 1_555
K6 O41 2.991824 1_555
K6 O49 2.993440 1_555
K6 O57 3.162948 1_555
K7 O61 2.829392 1_555
K7 O65 3.054190 1_655
K7 O48 3.093631 1_555
K7 O9 3.131262 1_555
K7 O77 3.156435 1_555
K7 O28 3.235100 1_555
K7 O59 3.242203 1_655
K7 O25 3.263516 1_555
K7 O5 3.318103 1_655
K7 O3 3.353168 1_555
K7 O76 3.422546 1_555
K8 O26 2.823114 1_555
K8 O14 2.823499 1_555
K8 O73 2.842529 1_655
K8 O33 2.843572 1_555
K8 O51 2.918416 1_555
K8 O20 3.051985 1_555
K8 O8 3.055250 1_565
K9 O13 2.689343 1_555
K9 O70 2.793982 1_556
K9 O18 2.823213 1_556
K9 O17 2.835661 1_556
K9 O37 2.863784 1_545
K9 O53 2.915424 1_555
K9 O77 2.954335 1_555
K10 O63 2.876575 1_555
K10 O77 2.882940 1_554
K10 O35 2.956344 1_655
K10 O27 2.996414 1_555
K10 O11 3.029913 1_654
K10 O65 3.153521 1_654
K10 O62 3.161005 1_555
K10 O28 3.339618 1_554
K10 O54 3.357320 1_655
K10 O70 3.381040 1_555
K11 O50 2.615613 1_455
K11 O64 2.728114 1_555
K11 O26 2.746660 1_445
K11 O73 2.802035 1_545
K11 O43 2.872512 1_555
K11 O32 2.905494 1_555
K11 O31 2.923243 1_555
K12 O7 2.712357 1_555
K12 O69 2.733332 1_555
K12 O76 2.745879 1_555
K12 O38 2.816476 1_555
K12 O47 3.037303 1_555
K12 O41 3.097101 1_555
K13 O42 2.823114 1_555
K13 O13 2.823499 1_555
K13 O3 2.842529 1_455
K13 O23 2.843572 1_555
K13 O75 2.918416 1_555
K13 O52 3.051985 1_555
K13 O78 3.055250 1_545
K14 O21 2.716163 1_555
K14 O8 2.848538 1_555
K14 O45 2.859916 1_555
K14 O10 2.903313 1_555
K14 O27 2.969584 1_555
K14 O34 2.996884 1_555
K14 O20 3.020978 1_545
K14 O31 3.107974 1_555
K15 O21 2.712357 1_555
K15 O43 2.733332 1_555
K15 O54 2.745879 1_555
K15 O56 2.816476 1_555
K15 O22 3.037303 1_555
K15 O67 3.097101 1_555
O0 S5 1.544022 1_555
O0 Pt7 2.044643 1_556
O1 S2 1.560579 1_555
O1 Pt3 2.049562 1_555
O2 S11 1.455353 1_555
O3 S14 1.470123 1_555
O4 S10 1.560579 1_555
O4 Pt7 2.049562 1_555
O5 S13 1.558574 1_555
O5 Pt6 2.048590 1_555
O6 S17 1.450658 1_555
O7 S0 1.467085 1_555
O8 S15 1.455892 1_555
O9 S19 1.544221 1_555
O9 Pt6 2.051795 1_655
O10 S1 1.558905 1_555
O10 Pt6 2.050774 1_655
O11 S9 1.545324 1_455
O11 Pt5 2.048142 1_556
O12 S12 1.561957 1_655
O12 Pt4 2.043216 1_555
O13 S4 1.452721 1_555
O14 S8 1.452721 1_555
O15 S18 1.458014 1_555
O16 S18 1.545324 1_655
O16 Pt4 2.048142 1_554
O17 S6 1.465278 1_555
O18 S6 1.524384 1_555
O18 Pt7 2.194198 1_555
O19 S4 1.449692 1_565
O20 S8 1.563464 1_555
O20 Pt1 2.046313 1_565
O21 S6 1.467085 1_555
O22 S6 1.534204 1_555
O22 Pt5 2.185716 1_555
O23 S3 1.452039 1_555
O24 S12 1.555148 1_545
O24 Pt5 2.051130 1_556
O25 S14 1.531597 1_555
O25 Pt1 2.173331 1_555
O26 S18 1.454574 1_655
O27 S1 1.447850 1_555
O28 S2 1.456042 1_555
O29 S15 1.555148 1_565
O29 Pt4 2.051130 1_554
O30 S16 1.554101 1_555
O30 Pt1 2.042684 1_565
O31 S8 1.449692 1_545
O32 S15 1.561957 1_455
O32 Pt5 2.043216 1_555
O33 S16 1.452039 1_555
O34 S3 1.551984 1_555
O34 Pt1 2.041492 1_555
O35 S10 1.456042 1_555
O36 S10 1.551926 1_555
O36 Pt3 2.046597 1_554
O37 S0 1.465278 1_555
O38 S19 1.451304 1_555
O39 S18 1.556431 1_555
O39 Pt5 2.047918 1_565
O40 S13 1.558905 1_555
O40 Pt0 2.050774 1_455
O41 S19 1.567079 1_555
O41 Pt0 2.050176 1_555
O42 S9 1.454574 1_455
O43 S3 1.453205 1_555
O44 S8 1.551651 1_555
O44 Pt2 2.042200 1_555
O45 S19 1.455353 1_555
O46 S16 1.551984 1_555
O46 Pt2 2.041492 1_555
O47 S0 1.534204 1_555
O47 Pt4 2.185716 1_555
O48 S4 1.551651 1_555
O48 Pt1 2.042200 1_555
O49 S10 1.454618 1_555
O50 S14 1.450658 1_555
O51 S7 1.458233 1_555
O52 S4 1.563464 1_555
O52 Pt2 2.046313 1_545
O53 S9 1.556431 1_555
O53 Pt4 2.047918 1_545
O54 S1 1.457652 1_455
O55 S2 1.551926 1_555
O55 Pt7 2.046597 1_556
O56 S11 1.451304 1_555
O57 S1 1.558574 1_555
O57 Pt0 2.048590 1_555
O58 S0 1.524384 1_555
O58 Pt3 2.194198 1_555
O59 S14 1.536734 1_455
O59 Pt6 2.170611 1_555
O60 S12 1.447737 1_555
O61 S2 1.454618 1_555
O62 S7 1.552046 1_555
O62 Pt7 2.053252 1_555
O63 S7 1.460351 1_555
O64 S3 1.554101 1_555
O64 Pt2 2.042684 1_545
O65 S5 1.460351 1_555
O66 S5 1.552046 1_555
O66 Pt3 2.053252 1_555
O67 S11 1.567079 1_555
O67 Pt6 2.050176 1_555
O68 S17 1.536734 1_655
O68 Pt0 2.170611 1_555
O69 S16 1.453205 1_555
O70 S15 1.447737 1_555
O71 S17 1.531597 1_555
O71 Pt2 2.173331 1_555
O72 S11 1.544221 1_555
O72 Pt0 2.051795 1_455
O73 S17 1.470123 1_555
O74 S13 1.447850 1_555
O75 S5 1.458233 1_555
O76 S13 1.457652 1_655
O77 S9 1.458014 1_555
O78 S12 1.455892 1_555
O79 S7 1.544022 1_555
O79 Pt3 2.044643 1_554
