# generated using pymatgen
data_As2H3CF9
_symmetry_space_group_name_H-M   'P 1'
_cell_length_a   9.15321200
_cell_length_b   8.05656700
_cell_length_c   12.69735718
_cell_angle_alpha   58.38811699
_cell_angle_beta   90.00000000
_cell_angle_gamma   90.00000000
_symmetry_Int_Tables_number   1
_chemical_formula_structural   As2H3CF9
_chemical_formula_sum   'As8 H12 C4 F36'
_cell_volume   797.41029186
_cell_formula_units_Z   4
loop_
 _symmetry_equiv_pos_site_id
 _symmetry_equiv_pos_as_xyz
  1  'x, y, z'
loop_
 _atom_site_type_symbol
 _atom_site_label
 _atom_site_symmetry_multiplicity
 _atom_site_fract_x
 _atom_site_fract_y
 _atom_site_fract_z
 _atom_site_occupancy
  As  As0  1  0.80179600  0.19551500  0.04486200  1
  As  As1  1  0.15150500  0.35269600  0.39611800  1
  As  As2  1  0.65150500  0.64730400  0.10388200  1
  As  As3  1  0.34849500  0.35269600  0.89611800  1
  As  As4  1  0.84849500  0.64730400  0.60388200  1
  As  As5  1  0.19820400  0.80448500  0.95513800  1
  As  As6  1  0.69820400  0.19551500  0.54486200  1
  As  As7  1  0.30179600  0.80448500  0.45513800  1
  H  H0  1  0.13874600  0.03055400  0.58695300  1
  H  H1  1  0.86125400  0.96944600  0.41304700  1
  H  H2  1  0.29986100  0.17056300  0.58215100  1
  H  H3  1  0.20013900  0.17056300  0.08215100  1
  H  H4  1  0.61884600  0.77086400  0.88337800  1
  H  H5  1  0.11884600  0.22913600  0.61662200  1
  H  H6  1  0.36125400  0.03055400  0.08695300  1
  H  H7  1  0.88115400  0.77086400  0.38337800  1
  H  H8  1  0.63874600  0.96944600  0.91304700  1
  H  H9  1  0.38115400  0.22913600  0.11662200  1
  H  H10  1  0.79986100  0.82943700  0.91784900  1
  H  H11  1  0.70013900  0.82943700  0.41784900  1
  C  C0  1  0.31888600  0.16924600  0.07036500  1
  C  C1  1  0.18111400  0.16924600  0.57036500  1
  C  C2  1  0.81888600  0.83075400  0.42963500  1
  C  C3  1  0.68111400  0.83075400  0.92963500  1
  F  F0  1  0.28288800  0.87853300  0.81214400  1
  F  F1  1  0.30541600  0.46616100  0.31527000  1
  F  F2  1  0.71711200  0.12146700  0.18785600  1
  F  F3  1  0.92097900  0.72582200  0.69382500  1
  F  F4  1  0.73347600  0.44448300  0.49490600  1
  F  F5  1  0.23347600  0.55551700  0.00509400  1
  F  F6  1  0.03746700  0.54322700  0.35921200  1
  F  F7  1  0.88021600  0.26971800  0.90059600  1
  F  F8  1  0.61978400  0.26971800  0.40059600  1
  F  F9  1  0.76652400  0.44448300  0.99490600  1
  F  F10  1  0.62540500  0.18380800  0.98514700  1
  F  F11  1  0.17026600  0.05377400  0.90755900  1
  F  F12  1  0.42097900  0.27417800  0.80617500  1
  F  F13  1  0.38021600  0.73028200  0.59940400  1
  F  F14  1  0.02738600  0.79648500  0.89404900  1
  F  F15  1  0.32973400  0.05377400  0.40755900  1
  F  F16  1  0.78288800  0.12146700  0.68785600  1
  F  F17  1  0.52738600  0.20351500  0.60595100  1
  F  F18  1  0.67026600  0.94622600  0.59244100  1
  F  F19  1  0.11978400  0.73028200  0.09940400  1
  F  F20  1  0.07902100  0.27417800  0.30617500  1
  F  F21  1  0.82973400  0.94622600  0.09244100  1
  F  F22  1  0.37459500  0.81619200  0.01485300  1
  F  F23  1  0.57902100  0.72582200  0.19382500  1
  F  F24  1  0.19458400  0.46616100  0.81527000  1
  F  F25  1  0.96253300  0.45677300  0.64078800  1
  F  F26  1  0.46253300  0.54322700  0.85921200  1
  F  F27  1  0.97261400  0.20351500  0.10595100  1
  F  F28  1  0.26652400  0.55551700  0.50509400  1
  F  F29  1  0.80541600  0.53383900  0.18473000  1
  F  F30  1  0.69458400  0.53383900  0.68473000  1
  F  F31  1  0.87459500  0.18380800  0.48514700  1
  F  F32  1  0.53746700  0.45677300  0.14078800  1
  F  F33  1  0.12540500  0.81619200  0.51485300  1
  F  F34  1  0.47261400  0.79648500  0.39404900  1
  F  F35  1  0.21711200  0.87853300  0.31214400  1
loop_
_geom_bond_atom_site_label_1
_geom_bond_atom_site_label_2
_geom_bond_distance
_geom_bond_site_symmetry_2
As0 F7 1.755019 1_554
As0 F27 1.761494 1_555
As0 F2 1.765726 1_555
As0 F21 1.786649 1_545
As0 F9 1.787771 1_554
As0 F10 1.807075 1_554
As1 F1 1.700107 1_555
As1 F20 1.703510 1_555
As1 F6 1.706270 1_555
As1 C1 1.930002 1_555
As2 F29 1.700107 1_555
As2 F23 1.703510 1_555
As2 F32 1.706270 1_555
As2 C3 1.930002 1_554
As3 F24 1.700107 1_555
As3 F12 1.703510 1_555
As3 F26 1.706270 1_555
As3 C0 1.930002 1_556
As4 F30 1.700107 1_555
As4 F3 1.703510 1_555
As4 F25 1.706270 1_555
As4 C2 1.930002 1_555
As5 F19 1.755019 1_556
As5 F14 1.761494 1_555
As5 F0 1.765726 1_555
As5 F11 1.786649 1_565
As5 F5 1.787771 1_556
As5 F22 1.807075 1_556
As6 F8 1.755019 1_555
As6 F17 1.761494 1_555
As6 F16 1.765726 1_555
As6 F18 1.786649 1_545
As6 F4 1.787771 1_555
As6 F31 1.807075 1_555
As7 F13 1.755019 1_555
As7 F34 1.761494 1_555
As7 F35 1.765726 1_555
As7 F15 1.786649 1_565
As7 F28 1.787771 1_555
As7 F33 1.807075 1_555
C0 H6 1.093881 1_555
C0 H9 1.095318 1_555
C0 H3 1.097980 1_555
C1 H0 1.093881 1_555
C1 H5 1.095318 1_555
C1 H2 1.097980 1_555
C2 H1 1.093881 1_555
C2 H7 1.095318 1_555
C2 H11 1.097980 1_555
C3 H8 1.093881 1_555
C3 H4 1.095318 1_555
C3 H10 1.097980 1_555
