# generated using pymatgen
data_La4MgCo
_symmetry_space_group_name_H-M   'P 1'
_cell_length_a   10.02589732
_cell_length_b   10.02587316
_cell_length_c   10.02582015
_cell_angle_alpha   59.99958012
_cell_angle_beta   59.99910376
_cell_angle_gamma   59.99846719
_symmetry_Int_Tables_number   1
_chemical_formula_structural   La4MgCo
_chemical_formula_sum   'La16 Mg4 Co4'
_cell_volume   712.59212622
_cell_formula_units_Z   4
loop_
 _symmetry_equiv_pos_site_id
 _symmetry_equiv_pos_as_xyz
  1  'x, y, z'
loop_
 _atom_site_type_symbol
 _atom_site_label
 _atom_site_symmetry_multiplicity
 _atom_site_fract_x
 _atom_site_fract_y
 _atom_site_fract_z
 _atom_site_occupancy
  La  La0  1  0.55926224  0.94071872  0.55928211  1
  La  La1  1  0.18771649  0.18770660  0.81228125  1
  La  La2  1  0.55926141  0.55927031  0.94072668  1
  La  La3  1  0.96983444  0.34337834  0.34339512  1
  La  La4  1  0.81228845  0.18773181  0.81227726  1
  La  La5  1  0.18772786  0.81227452  0.18770486  1
  La  La6  1  0.34339472  0.34341039  0.96982573  1
  La  La7  1  0.34337649  0.96982999  0.34340851  1
  La  La8  1  0.94073244  0.94073488  0.55926306  1
  La  La9  1  0.94071488  0.55926949  0.55928119  1
  La  La10  1  0.34339890  0.34339551  0.34337726  1
  La  La11  1  0.81229632  0.81228412  0.18771617  1
  La  La12  1  0.81227855  0.18772641  0.18771238  1
  La  La13  1  0.55926176  0.94072336  0.94072741  1
  La  La14  1  0.94072710  0.55926182  0.94073179  1
  La  La15  1  0.18774047  0.81227781  0.81227851  1
  Mg  Mg0  1  0.57787592  0.57787564  0.57787073  1
  Mg  Mg1  1  0.57788071  0.26636205  0.57788330  1
  Mg  Mg2  1  0.57788330  0.57788506  0.26636077  1
  Mg  Mg3  1  0.26636054  0.57788107  0.57788276  1
  Co  Co0  1  0.14006493  0.57977398  0.14008679  1
  Co  Co1  1  0.57977300  0.14006760  0.14008059  1
  Co  Co2  1  0.14007396  0.14008247  0.57977780  1
  Co  Co3  1  0.14007814  0.14007705  0.14007196  1
loop_
_geom_bond_atom_site_label_1
_geom_bond_atom_site_label_2
_geom_bond_distance
_geom_bond_site_symmetry_2
La0 Mg0 3.461383 1_555
La0 Mg1 3.461515 1_565
La0 La7 3.588240 1_555
La0 La10 3.588358 1_565
La0 La15 3.748152 1_555
La0 La1 3.748272 1_565
La0 La11 3.748430 1_555
La0 La12 3.748607 1_565
La0 La9 3.824295 1_555
La0 La2 3.824300 1_555
La0 La13 3.824323 1_555
La0 La8 3.824567 1_555
La1 Mg1 3.672190 1_555
La1 Mg3 3.672236 1_555
La1 La13 3.748336 1_545
La1 La14 3.748419 1_455
La1 La9 3.748431 1_455
La2 Mg0 3.461416 1_555
La2 Mg2 3.461499 1_556
La2 La6 3.588046 1_555
La2 La5 3.748209 1_556
La2 La4 3.748274 1_555
La2 La9 3.824307 1_555
La3 La8 3.588152 1_545
La3 La9 3.588336 1_555
La3 Mg0 3.680453 1_555
La3 Mg1 3.680494 1_555
La3 Mg2 3.680515 1_555
La4 Mg0 3.672053 1_555
La4 Mg1 3.672153 1_555
La4 La9 3.748217 1_555
La4 La8 3.748515 1_545
La5 Mg2 3.672083 1_555
La5 Mg3 3.672186 1_555
La5 La8 3.748496 1_455
La5 La9 3.748598 1_455
La6 Mg0 3.680387 1_555
La6 Mg3 3.680455 1_555
La6 Mg1 3.680486 1_555
La7 La8 3.588125 1_455
La7 Mg0 3.680414 1_555
La7 Mg3 3.680459 1_555
La7 Mg2 3.680501 1_555
La8 Mg1 3.461299 1_565
La8 Mg3 3.461316 1_655
La8 La9 3.824521 1_555
La9 Mg0 3.461379 1_555
La9 Mg3 3.461511 1_655
La10 La2 3.588143 1_554
La10 La9 3.588405 1_455
La10 Mg2 3.680568 1_555
La10 Mg3 3.680569 1_555
La10 Mg1 3.680583 1_555
La11 Mg0 3.672176 1_555
La11 Mg2 3.672212 1_555
La11 La9 3.748369 1_555
La11 La14 3.748522 1_554
La11 La13 3.748658 1_554
La12 Mg2 3.672060 1_555
La12 Mg1 3.672114 1_555
La12 La14 3.748311 1_554
La12 La2 3.748376 1_554
La12 La8 3.748429 1_545
La13 Mg2 3.461297 1_556
La13 Mg1 3.461354 1_565
La13 La7 3.588450 1_556
La13 La6 3.588469 1_565
La13 La5 3.748295 1_556
La13 La4 3.748757 1_565
La13 La2 3.824405 1_555
La13 La14 3.824420 1_555
La13 La8 3.824488 1_555
La14 Mg2 3.461287 1_556
La14 Mg3 3.461338 1_655
La14 La6 3.588298 1_655
La14 La3 3.588319 1_556
La14 La15 3.748698 1_655
La14 La9 3.824378 1_555
La14 La2 3.824519 1_555
La14 La8 3.824544 1_555
La15 Mg0 3.671951 1_555
La15 Mg3 3.672097 1_555
La15 La2 3.748143 1_555
La15 La8 3.748599 1_455
Mg0 Mg2 3.123059 1_555
Mg0 Mg1 3.123109 1_555
Mg0 Mg3 3.123134 1_555
Mg1 Mg3 3.123187 1_555
Mg1 Mg2 3.123260 1_555
Mg2 Mg3 3.123237 1_555
Co0 La11 2.888629 1_455
Co0 La5 2.888755 1_555
Co0 La15 2.888902 1_554
Co0 La6 2.901641 1_554
Co0 La10 2.901675 1_555
Co0 La3 2.901747 1_455
Co0 La9 3.584261 1_455
Co0 La2 3.584303 1_554
Co0 La14 3.584397 1_454
Co1 La11 2.888771 1_545
Co1 La12 2.888873 1_555
Co1 La4 2.888894 1_554
Co1 La10 2.901646 1_555
Co1 La6 2.901736 1_554
Co1 La7 2.901798 1_545
Co1 La0 3.584322 1_545
Co1 La2 3.584346 1_554
Co1 La13 3.584420 1_544
Co2 La1 2.888676 1_555
Co2 La4 2.888721 1_455
Co2 La15 2.888867 1_545
Co2 La7 2.901629 1_545
Co2 La3 2.901672 1_455
Co2 La10 2.901823 1_555
Co2 La9 3.584212 1_455
Co2 La0 3.584232 1_545
Co2 La8 3.584399 1_445
Co3 La1 2.888849 1_554
Co3 La12 2.888880 1_455
Co3 La5 2.888928 1_545
Co3 La3 2.901667 1_455
Co3 La7 2.901766 1_545
Co3 La6 2.901916 1_554
Co3 La13 3.584190 1_544
Co3 La14 3.584199 1_454
Co3 La8 3.584252 1_445
