# generated using pymatgen
data_Th7Ir3
_symmetry_space_group_name_H-M   'P 1'
_cell_length_a   10.06598300
_cell_length_b   10.06598415
_cell_length_c   6.33054358
_cell_angle_alpha   90.00000000
_cell_angle_beta   90.00000000
_cell_angle_gamma   120.00000298
_symmetry_Int_Tables_number   1
_chemical_formula_structural   Th7Ir3
_chemical_formula_sum   'Th14 Ir6'
_cell_volume   555.49999103
_cell_formula_units_Z   2
loop_
 _symmetry_equiv_pos_site_id
 _symmetry_equiv_pos_as_xyz
  1  'x, y, z'
loop_
 _atom_site_type_symbol
 _atom_site_label
 _atom_site_symmetry_multiplicity
 _atom_site_fract_x
 _atom_site_fract_y
 _atom_site_fract_z
 _atom_site_occupancy
  Th  Th0  1  0.45777063  0.54222937  0.29527688  1
  Th  Th1  1  0.08445573  0.54222937  0.29527688  1
  Th  Th2  1  0.91554427  0.45777063  0.79527688  1
  Th  Th3  1  0.25583184  0.12791542  0.49852219  1
  Th  Th4  1  0.54222937  0.08445573  0.79527688  1
  Th  Th5  1  0.74416816  0.87208458  -0.00147781  1
  Th  Th6  1  0.66666700  0.33333300  0.30428371  1
  Th  Th7  1  0.12791542  0.87208458  -0.00147781  1
  Th  Th8  1  0.45777063  0.91554427  0.29527688  1
  Th  Th9  1  0.54222937  0.45777063  0.79527688  1
  Th  Th10  1  0.87208458  0.12791542  0.49852219  1
  Th  Th11  1  0.12791542  0.25583184  -0.00147781  1
  Th  Th12  1  0.87208458  0.74416816  0.49852219  1
  Th  Th13  1  0.33333300  0.66666700  0.80428371  1
  Ir  Ir0  1  0.81287308  0.62574616  0.05210569  1
  Ir  Ir1  1  0.81287308  0.18712692  0.05210569  1
  Ir  Ir2  1  0.62574616  0.81287308  0.55210569  1
  Ir  Ir3  1  0.37425384  0.18712692  0.05210569  1
  Ir  Ir4  1  0.18712692  0.37425384  0.55210569  1
  Ir  Ir5  1  0.18712692  0.81287308  0.55210569  1
loop_
_geom_bond_atom_site_label_1
_geom_bond_atom_site_label_2
_geom_bond_distance
_geom_bond_site_symmetry_2
Ir0 Th9 2.884062 1_554
Ir0 Th2 2.884082 1_554
Ir0 Th7 2.908057 1_655
Ir0 Th5 2.908064 1_555
Ir0 Th6 3.007721 1_555
Ir0 Th12 3.008707 1_555
Ir1 Th4 2.884059 1_554
Ir1 Th2 2.884059 1_554
Ir1 Th11 2.908054 1_655
Ir1 Th5 2.908054 1_545
Ir1 Th6 3.007714 1_555
Ir1 Th10 3.008710 1_555
Ir2 Th0 2.884062 1_555
Ir2 Th8 2.884082 1_555
Ir2 Th10 2.908057 1_565
Ir2 Th12 2.908063 1_555
Ir2 Th13 3.007721 1_555
Ir2 Th5 3.008707 1_556
Ir3 Th9 2.884062 1_554
Ir3 Th4 2.884082 1_554
Ir3 Th7 2.908057 1_545
Ir3 Th11 2.908063 1_555
Ir3 Th6 3.007721 1_555
Ir3 Th3 3.008707 1_555
Ir4 Th0 2.884062 1_555
Ir4 Th1 2.884082 1_555
Ir4 Th10 2.908057 1_455
Ir4 Th3 2.908064 1_555
Ir4 Th13 3.007721 1_555
Ir4 Th11 3.008707 1_556
Ir5 Th8 2.884059 1_555
Ir5 Th1 2.884059 1_555
Ir5 Th12 2.908054 1_455
Ir5 Th3 2.908054 1_565
Ir5 Th13 3.007714 1_555
Ir5 Th7 3.008710 1_556
