# generated using pymatgen
data_La14Mn15O48
_symmetry_space_group_name_H-M   'P 1'
_cell_length_a   5.47494100
_cell_length_b   9.57937959
_cell_length_c   18.31836536
_cell_angle_alpha   94.33902289
_cell_angle_beta   98.17791187
_cell_angle_gamma   90.81562419
_symmetry_Int_Tables_number   1
_chemical_formula_structural   La14Mn15O48
_chemical_formula_sum   'La14 Mn15 O48'
_cell_volume   947.93548634
_cell_formula_units_Z   1
loop_
 _symmetry_equiv_pos_site_id
 _symmetry_equiv_pos_as_xyz
  1  'x, y, z'
loop_
 _atom_site_type_symbol
 _atom_site_label
 _atom_site_symmetry_multiplicity
 _atom_site_fract_x
 _atom_site_fract_y
 _atom_site_fract_z
 _atom_site_occupancy
  La  La0  1  0.53185600  0.85667400  0.05975700  1
  La  La1  1  0.03075800  0.32953400  0.06047700  1
  La  La2  1  0.66387600  0.21372200  0.31379600  1
  La  La3  1  0.59608000  0.54172500  0.19373800  1
  La  La4  1  0.28156500  0.10385600  0.56760200  1
  La  La5  1  0.09487100  0.02114200  0.18262500  1
  La  La6  1  0.22402300  0.41298900  0.43810700  1
  La  La7  1  0.90512900  0.97885800  0.81737500  1
  La  La8  1  0.77597700  0.58701100  0.56189300  1
  La  La9  1  0.71843500  0.89614400  0.43239800  1
  La  La10  1  0.40392000  0.45827500  0.80626200  1
  La  La11  1  0.33612400  0.78627800  0.68620400  1
  La  La12  1  0.96924200  0.67046600  0.93952300  1
  La  La13  1  0.46814400  0.14332600  0.94024300  1
  Mn  Mn0  1  0.50000000  0.50000000  0.00000000  1
  Mn  Mn1  1  0.12452800  0.37821700  0.25069000  1
  Mn  Mn2  1  0.06651100  0.68374400  0.12585200  1
  Mn  Mn3  1  0.74922500  0.24958400  0.50134000  1
  Mn  Mn4  1  0.62690900  0.87029500  0.25178700  1
  Mn  Mn5  1  0.69004600  0.56531000  0.37352900  1
  Mn  Mn6  1  0.56453000  0.18861200  0.12743800  1
  Mn  Mn7  1  0.37309100  0.12970500  0.74821300  1
  Mn  Mn8  1  0.25077500  0.75041600  0.49866000  1
  Mn  Mn9  1  0.18796100  0.05849500  0.37405100  1
  Mn  Mn10  1  0.87547200  0.62178300  0.74931000  1
  Mn  Mn11  1  0.81203900  0.94150500  0.62594900  1
  Mn  Mn12  1  0.30995400  0.43469000  0.62647100  1
  Mn  Mn13  1  0.43547000  0.81138800  0.87256200  1
  Mn  Mn14  1  0.93348900  0.31625600  0.87414800  1
  O  O0  1  0.32735400  0.58223900  0.07770100  1
  O  O1  1  0.33269400  0.80793400  0.17864400  1
  O  O2  1  0.10339700  0.54004700  0.19668100  1
  O  O3  1  0.03079400  0.81285800  0.05435000  1
  O  O4  1  0.80586500  0.09955100  0.08106700  1
  O  O5  1  0.93387900  0.44390800  0.32530500  1
  O  O6  1  0.81449400  0.55770300  0.06081400  1
  O  O7  1  0.80523400  0.31614300  0.19042500  1
  O  O8  1  0.81037700  0.78713400  0.17080300  1
  O  O9  1  0.73135700  0.42051300  0.44818600  1
  O  O10  1  0.60136900  0.05364700  0.20029200  1
  O  O11  1  0.52045800  0.32053400  0.04668800  1
  O  O12  1  0.44760200  0.97535100  0.32613000  1
  O  O13  1  0.54302700  0.34500500  0.56521900  1
  O  O14  1  0.43450300  0.43492400  0.31072900  1
  O  O15  1  0.32140800  0.07589800  0.06888600  1
  O  O16  1  0.44052000  0.18620400  0.43544000  1
  O  O17  1  0.30031400  0.28526000  0.17352900  1
  O  O18  1  0.34701800  0.29810300  0.69739300  1
  O  O19  1  0.23264500  0.93260500  0.45449900  1
  O  O20  1  0.14959400  0.19569800  0.29530100  1
  O  O21  1  0.06058000  0.83988200  0.57524100  1
  O  O22  1  0.91690600  0.95900200  0.31372000  1
  O  O23  1  0.06082200  0.32327800  0.55440100  1
  O  O24  1  0.08309400  0.04099800  0.68628000  1
  O  O25  1  0.93917800  0.67672200  0.44559900  1
  O  O26  1  0.93942000  0.16011800  0.42475900  1
  O  O27  1  0.85040600  0.80430200  0.70469900  1
  O  O28  1  0.76735500  0.06739500  0.54550100  1
  O  O29  1  0.65298200  0.70189700  0.30260700  1
  O  O30  1  0.69968600  0.71474000  0.82647100  1
  O  O31  1  0.55948000  0.81379600  0.56456000  1
  O  O32  1  0.67859200  0.92410200  0.93111400  1
  O  O33  1  0.56549700  0.56507600  0.68927100  1
  O  O34  1  0.55239800  0.02464900  0.67387000  1
  O  O35  1  0.45697300  0.65499500  0.43478100  1
  O  O36  1  0.47954200  0.67946600  0.95331200  1
  O  O37  1  0.39863100  0.94635300  0.79970800  1
  O  O38  1  0.26864300  0.57948700  0.55181400  1
  O  O39  1  0.18962300  0.21286600  0.82919700  1
  O  O40  1  0.19476600  0.68385700  0.80957500  1
  O  O41  1  0.18550600  0.44229700  0.93918600  1
  O  O42  1  0.19413500  0.90044900  0.91893300  1
  O  O43  1  0.06612100  0.55609200  0.67469500  1
  O  O44  1  0.96920600  0.18714200  0.94565000  1
  O  O45  1  0.89660300  0.45995300  0.80331900  1
  O  O46  1  0.66730600  0.19206600  0.82135600  1
  O  O47  1  0.67264600  0.41776100  0.92229900  1
loop_
_geom_bond_atom_site_label_1
_geom_bond_atom_site_label_2
_geom_bond_distance
_geom_bond_site_symmetry_2
La0 O15 2.415822 1_565
La0 O36 2.468239 1_554
La0 O8 2.501683 1_555
La0 O1 2.639091 1_555
La0 O32 2.714773 1_554
La0 O4 2.722618 1_565
La0 O3 2.755943 1_555
La0 O3 2.784107 1_655
La0 O0 2.902499 1_555
La0 O42 3.012989 1_554
La0 O10 3.049318 1_565
La0 O6 3.274628 1_555
La1 O44 2.397855 1_454
La1 O17 2.434715 1_555
La1 O6 2.500610 1_455
La1 O4 2.586998 1_455
La1 O11 2.730452 1_555
La1 O11 2.768751 1_455
La1 O41 2.773792 1_554
La1 O7 2.843478 1_455
La1 O0 2.867620 1_555
La1 O15 2.925103 1_555
La1 O2 3.063251 1_555
La1 O47 3.150295 1_454
La2 O26 2.445163 1_555
La2 O10 2.468154 1_555
La2 O14 2.478703 1_555
La2 O12 2.597006 1_545
La2 O5 2.615351 1_555
La2 O16 2.717575 1_555
La2 O20 2.734390 1_655
La2 O7 2.735044 1_555
La2 O20 2.788991 1_555
La2 O22 2.822992 1_545
La2 O9 3.017210 1_555
La2 O17 3.143884 1_555
La3 O29 2.403151 1_555
La3 O7 2.460684 1_555
La3 O0 2.466741 1_555
La3 O14 2.695817 1_555
La3 O8 2.700146 1_555
La3 O1 2.959211 1_555
La4 O34 2.449121 1_555
La4 O23 2.450156 1_555
La4 O19 2.524052 1_545
La4 O24 2.668528 1_555
La4 O13 2.706719 1_555
La4 O28 2.769682 1_555
La4 O28 2.799641 1_455
La4 O21 2.809334 1_545
La4 O16 2.847751 1_555
La4 O18 2.883200 1_555
La4 O26 3.081228 1_455
La4 O31 3.187463 1_545
La5 O4 2.436520 1_455
La5 O1 2.439730 1_545
La5 O20 2.536461 1_555
La5 O15 2.652632 1_555
La5 O8 2.688709 1_445
La5 O10 2.756144 1_555
La5 O17 2.780349 1_555
La5 O10 2.785569 1_455
La5 O22 2.817109 1_445
La6 O5 2.460302 1_455
La6 O16 2.490110 1_555
La6 O38 2.506705 1_555
La6 O23 2.621418 1_555
La6 O35 2.638938 1_555
La6 O9 2.731301 1_455
La6 O9 2.756967 1_555
La6 O14 2.765668 1_555
La6 O13 2.828636 1_555
La6 O26 2.837256 1_455
La6 O25 2.992355 1_455
La6 O20 3.192288 1_555
La7 O42 2.436520 1_655
La7 O46 2.439730 1_565
La7 O27 2.536461 1_555
La7 O32 2.652632 1_555
La7 O39 2.688709 1_665
La7 O37 2.756144 1_555
La7 O30 2.780349 1_555
La7 O37 2.785569 1_655
La7 O24 2.817109 1_665
La8 O43 2.460302 1_655
La8 O31 2.490110 1_555
La8 O9 2.506705 1_555
La8 O25 2.621418 1_555
La8 O13 2.638938 1_555
La8 O38 2.731301 1_655
La8 O38 2.756967 1_555
La8 O33 2.765668 1_555
La8 O35 2.828636 1_555
La8 O21 2.837256 1_655
La8 O23 2.992355 1_655
La8 O27 3.192288 1_555
La9 O12 2.449121 1_555
La9 O25 2.450156 1_555
La9 O28 2.524052 1_565
La9 O22 2.668528 1_555
La9 O35 2.706719 1_555
La9 O19 2.769682 1_555
La9 O19 2.799641 1_655
La9 O26 2.809334 1_565
La9 O31 2.847751 1_555
La9 O29 2.883200 1_555
La9 O21 3.081228 1_655
La9 O16 3.187463 1_565
La10 O18 2.403151 1_555
La10 O40 2.460684 1_555
La10 O47 2.466741 1_555
La10 O33 2.695817 1_555
La10 O39 2.700146 1_555
La10 O46 2.959211 1_555
La11 O21 2.445163 1_555
La11 O37 2.468154 1_555
La11 O33 2.478703 1_555
La11 O34 2.597006 1_565
La11 O43 2.615351 1_555
La11 O31 2.717575 1_555
La11 O27 2.734390 1_455
La11 O40 2.735044 1_555
La11 O27 2.788991 1_555
La11 O24 2.822992 1_565
La11 O38 3.017210 1_555
La11 O30 3.143884 1_555
La12 O3 2.397855 1_656
La12 O30 2.434715 1_555
La12 O41 2.500610 1_655
La12 O42 2.586998 1_655
La12 O36 2.730452 1_555
La12 O36 2.768751 1_655
La12 O6 2.773792 1_556
La12 O40 2.843478 1_655
La12 O47 2.867620 1_555
La12 O32 2.925103 1_555
La12 O45 3.063251 1_555
La12 O0 3.150295 1_656
La13 O32 2.415822 1_545
La13 O11 2.468239 1_556
La13 O39 2.501683 1_555
La13 O46 2.639091 1_555
La13 O15 2.714773 1_556
La13 O42 2.722618 1_545
La13 O44 2.755943 1_555
La13 O44 2.784107 1_455
La13 O47 2.902499 1_555
La13 O4 3.012989 1_556
La13 O37 3.049318 1_545
La13 O41 3.274628 1_555
Mn0 O0 1.942757 1_555
Mn0 O47 1.942757 1_554
Mn0 O6 1.960946 1_555
Mn0 O41 1.960946 1_554
Mn0 O36 1.974908 1_554
Mn0 O11 1.974908 1_555
Mn1 O2 1.897379 1_555
Mn1 O5 1.910010 1_455
Mn1 O14 1.933173 1_555
Mn1 O20 1.983619 1_555
Mn1 O17 1.984445 1_555
Mn1 O7 1.987526 1_455
Mn2 O3 1.860838 1_555
Mn2 O2 1.955164 1_555
Mn2 O1 1.962128 1_555
Mn2 O8 1.967256 1_455
Mn2 O0 2.007753 1_555
Mn2 O6 2.012024 1_455
Mn3 O13 1.929409 1_555
Mn3 O23 1.934841 1_655
Mn3 O9 1.964031 1_555
Mn3 O28 1.976337 1_555
Mn3 O16 1.990455 1_555
Mn3 O26 2.011428 1_555
Mn4 O29 1.919703 1_555
Mn4 O22 1.957883 1_555
Mn4 O1 1.996064 1_555
Mn4 O12 2.008037 1_555
Mn4 O8 2.027866 1_555
Mn4 O10 2.052920 1_565
Mn5 O29 1.905457 1_555
Mn5 O35 1.979414 1_555
Mn5 O25 1.993861 1_555
Mn5 O9 2.013303 1_555
Mn5 O14 2.028748 1_555
Mn5 O5 2.034511 1_555
Mn6 O4 1.853908 1_555
Mn6 O15 1.861635 1_555
Mn6 O10 1.919692 1_555
Mn6 O7 1.966916 1_555
Mn6 O17 1.982395 1_555
Mn6 O11 2.008305 1_555
Mn7 O18 1.919703 1_555
Mn7 O24 1.957883 1_555
Mn7 O46 1.996064 1_555
Mn7 O34 2.008037 1_555
Mn7 O39 2.027866 1_555
Mn7 O37 2.052920 1_545
Mn8 O35 1.929409 1_555
Mn8 O25 1.934841 1_455
Mn8 O38 1.964031 1_555
Mn8 O19 1.976337 1_555
Mn8 O31 1.990455 1_555
Mn8 O21 2.011428 1_555
Mn9 O22 1.914627 1_445
Mn9 O12 1.925388 1_545
Mn9 O19 1.964848 1_545
Mn9 O26 1.980560 1_455
Mn9 O16 1.993620 1_555
Mn9 O20 2.015222 1_555
Mn10 O45 1.897379 1_555
Mn10 O43 1.910010 1_655
Mn10 O33 1.933173 1_555
Mn10 O27 1.983619 1_555
Mn10 O30 1.984445 1_555
Mn10 O40 1.987526 1_655
Mn11 O24 1.914627 1_665
Mn11 O34 1.925388 1_565
Mn11 O28 1.964848 1_565
Mn11 O21 1.980560 1_655
Mn11 O31 1.993620 1_555
Mn11 O27 2.015222 1_555
Mn12 O18 1.905457 1_555
Mn12 O13 1.979414 1_555
Mn12 O23 1.993861 1_555
Mn12 O38 2.013303 1_555
Mn12 O33 2.028748 1_555
Mn12 O43 2.034511 1_555
Mn13 O42 1.853908 1_555
Mn13 O32 1.861635 1_555
Mn13 O37 1.919692 1_555
Mn13 O40 1.966916 1_555
Mn13 O30 1.982395 1_555
Mn13 O36 2.008305 1_555
Mn14 O44 1.860838 1_555
Mn14 O45 1.955164 1_555
Mn14 O46 1.962128 1_555
Mn14 O39 1.967256 1_655
Mn14 O47 2.007753 1_555
Mn14 O41 2.012024 1_655
