# generated using pymatgen
data_NaGa(TeO3)2
_symmetry_space_group_name_H-M   'P 1'
_cell_length_a   7.92105900
_cell_length_b   10.48827700
_cell_length_c   13.59140600
_cell_angle_alpha   90.00000000
_cell_angle_beta   90.00000000
_cell_angle_gamma   90.00000000
_symmetry_Int_Tables_number   1
_chemical_formula_structural   NaGa(TeO3)2
_chemical_formula_sum   'Na8 Ga8 Te16 O48'
_cell_volume   1129.15037401
_cell_formula_units_Z   8
loop_
 _symmetry_equiv_pos_site_id
 _symmetry_equiv_pos_as_xyz
  1  'x, y, z'
loop_
 _atom_site_type_symbol
 _atom_site_label
 _atom_site_symmetry_multiplicity
 _atom_site_fract_x
 _atom_site_fract_y
 _atom_site_fract_z
 _atom_site_occupancy
  Na  Na0  1  0.32649600  0.75653500  0.85704300  1
  Na  Na1  1  0.82649600  0.24346500  0.64295700  1
  Na  Na2  1  0.67350400  0.24346500  0.14295700  1
  Na  Na3  1  0.67350400  0.74346500  0.35704300  1
  Na  Na4  1  0.82649600  0.74346500  0.85704300  1
  Na  Na5  1  0.32649600  0.25653500  0.64295700  1
  Na  Na6  1  0.17350400  0.75653500  0.35704300  1
  Na  Na7  1  0.17350400  0.25653500  0.14295700  1
  Ga  Ga0  1  0.69439300  0.50244500  0.01990700  1
  Ga  Ga1  1  0.30560700  0.49755500  0.98009300  1
  Ga  Ga2  1  0.80560700  0.00244500  0.98009300  1
  Ga  Ga3  1  0.30560700  0.99755500  0.51990700  1
  Ga  Ga4  1  0.69439300  0.00244500  0.48009300  1
  Ga  Ga5  1  0.19439300  0.49755500  0.48009300  1
  Ga  Ga6  1  0.80560700  0.50244500  0.51990700  1
  Ga  Ga7  1  0.19439300  0.99755500  0.01990700  1
  Te  Te0  1  0.45044500  0.71144600  0.57439000  1
  Te  Te1  1  0.07987700  0.01005600  0.76738600  1
  Te  Te2  1  0.92012300  0.48994400  0.26738600  1
  Te  Te3  1  0.57987700  0.98994400  0.73261400  1
  Te  Te4  1  0.42012300  0.51005600  0.23261400  1
  Te  Te5  1  0.57987700  0.48994400  0.76738600  1
  Te  Te6  1  0.04955500  0.21144600  0.42561000  1
  Te  Te7  1  0.04955500  0.71144600  0.07439000  1
  Te  Te8  1  0.92012300  0.98994400  0.23261400  1
  Te  Te9  1  0.95044500  0.78855400  0.57439000  1
  Te  Te10  1  0.07987700  0.51005600  0.73261400  1
  Te  Te11  1  0.45044500  0.21144600  0.92561000  1
  Te  Te12  1  0.54955500  0.28855400  0.42561000  1
  Te  Te13  1  0.42012300  0.01005600  0.26738600  1
  Te  Te14  1  0.54955500  0.78855400  0.07439000  1
  Te  Te15  1  0.95044500  0.28855400  0.92561000  1
  O  O0  1  0.13178700  0.12427300  0.54135400  1
  O  O1  1  0.56986100  0.31082700  0.76637900  1
  O  O2  1  0.49833800  0.87219500  0.50795900  1
  O  O3  1  0.26247000  0.48053300  0.12710000  1
  O  O4  1  0.81910500  0.16085100  0.45195700  1
  O  O5  1  0.87074100  0.97300400  0.83670900  1
  O  O6  1  0.73753000  0.51946700  0.87290000  1
  O  O7  1  0.76247000  0.51946700  0.37290000  1
  O  O8  1  0.87074100  0.47300400  0.66329100  1
  O  O9  1  0.36821300  0.12427300  0.04135400  1
  O  O10  1  0.13178700  0.62427300  0.95864600  1
  O  O11  1  0.93013900  0.81082700  0.23362100  1
  O  O12  1  0.63178700  0.37572700  0.54135400  1
  O  O13  1  0.81910500  0.66085100  0.04804300  1
  O  O14  1  0.68089500  0.66085100  0.54804300  1
  O  O15  1  0.31910500  0.33914900  0.45195700  1
  O  O16  1  0.68089500  0.16085100  0.95195700  1
  O  O17  1  0.86821300  0.37572700  0.04135400  1
  O  O18  1  0.00166200  0.87219500  0.00795900  1
  O  O19  1  0.36821300  0.62427300  0.45864600  1
  O  O20  1  0.18089500  0.83914900  0.54804300  1
  O  O21  1  0.37074100  0.52699600  0.83670900  1
  O  O22  1  0.12925900  0.02699600  0.16329100  1
  O  O23  1  0.99833800  0.12780500  0.99204100  1
  O  O24  1  0.23753000  0.98053300  0.87290000  1
  O  O25  1  0.63178700  0.87572700  0.95864600  1
  O  O26  1  0.49833800  0.37219500  0.99204100  1
  O  O27  1  0.26247000  0.98053300  0.37290000  1
  O  O28  1  0.31910500  0.83914900  0.04804300  1
  O  O29  1  0.93013900  0.31082700  0.26637900  1
  O  O30  1  0.56986100  0.81082700  0.73362100  1
  O  O31  1  0.43013900  0.68917300  0.23362100  1
  O  O32  1  0.23753000  0.48053300  0.62710000  1
  O  O33  1  0.99833800  0.62780500  0.50795900  1
  O  O34  1  0.37074100  0.02699600  0.66329100  1
  O  O35  1  0.62925900  0.47300400  0.16329100  1
  O  O36  1  0.50166200  0.62780500  0.00795900  1
  O  O37  1  0.06986100  0.18917300  0.76637900  1
  O  O38  1  0.00166200  0.37219500  0.49204100  1
  O  O39  1  0.73753000  0.01946700  0.62710000  1
  O  O40  1  0.50166200  0.12780500  0.49204100  1
  O  O41  1  0.06986100  0.68917300  0.73362100  1
  O  O42  1  0.12925900  0.52699600  0.33670900  1
  O  O43  1  0.86821300  0.87572700  0.45864600  1
  O  O44  1  0.62925900  0.97300400  0.33670900  1
  O  O45  1  0.43013900  0.18917300  0.26637900  1
  O  O46  1  0.76247000  0.01946700  0.12710000  1
  O  O47  1  0.18089500  0.33914900  0.95195700  1
loop_
_geom_bond_atom_site_label_1
_geom_bond_atom_site_label_2
_geom_bond_distance
_geom_bond_site_symmetry_2
Na0 O21 2.448492 1_555
Na0 O24 2.462218 1_555
Na0 O10 2.491983 1_555
Na0 O30 2.618061 1_555
Na0 O41 2.728636 1_555
Na0 O28 2.737373 1_556
Na0 O36 2.820521 1_556
Na1 O8 2.448492 1_555
Na1 O39 2.462218 1_555
Na1 O12 2.491983 1_555
Na1 O37 2.618061 1_655
Na1 O1 2.728636 1_555
Na1 O4 2.737373 1_555
Na1 O38 2.820521 1_655
Na2 O35 2.448492 1_555
Na2 O46 2.462218 1_555
Na2 O17 2.491983 1_555
Na2 O45 2.618061 1_555
Na2 O29 2.728636 1_555
Na2 O16 2.737373 1_554
Na2 O26 2.820521 1_554
Na3 O44 2.448492 1_555
Na3 O7 2.462218 1_555
Na3 O43 2.491983 1_555
Na3 O31 2.618061 1_555
Na3 O11 2.728636 1_555
Na3 O14 2.737373 1_555
Na3 O2 2.820521 1_555
Na4 O5 2.448492 1_555
Na4 O6 2.462218 1_555
Na4 O25 2.491983 1_555
Na4 O41 2.618061 1_655
Na4 O30 2.728636 1_555
Na4 O13 2.737373 1_556
Na4 O18 2.820521 1_656
Na5 O34 2.448492 1_555
Na5 O32 2.462218 1_555
Na5 O0 2.491983 1_555
Na5 O1 2.618061 1_555
Na5 O37 2.728636 1_555
Na5 O15 2.737373 1_555
Na5 O40 2.820521 1_555
Na6 O42 2.448492 1_555
Na6 O27 2.462218 1_555
Na6 O19 2.491983 1_555
Na6 O11 2.618061 1_455
Na6 O31 2.728636 1_555
Na6 O20 2.737373 1_555
Na6 O33 2.820521 1_455
Na7 O22 2.448492 1_555
Na7 O3 2.462218 1_555
Na7 O9 2.491983 1_555
Na7 O29 2.618061 1_455
Na7 O45 2.728636 1_555
Na7 O47 2.737373 1_554
Na7 O23 2.820521 1_454
Ga0 O17 1.935726 1_555
Ga0 O13 1.970369 1_555
Ga0 O36 2.021313 1_555
Ga0 O6 2.034885 1_554
Ga0 O35 2.039440 1_555
Ga0 O26 2.102703 1_554
Ga1 O10 1.935726 1_555
Ga1 O47 1.970369 1_555
Ga1 O26 2.021313 1_555
Ga1 O3 2.034885 1_556
Ga1 O21 2.039440 1_555
Ga1 O36 2.102703 1_556
Ga2 O25 1.935726 1_545
Ga2 O16 1.970369 1_555
Ga2 O23 2.021313 1_555
Ga2 O46 2.034885 1_556
Ga2 O5 2.039440 1_545
Ga2 O18 2.102703 1_646
Ga3 O0 1.935726 1_565
Ga3 O20 1.970369 1_555
Ga3 O2 2.021313 1_555
Ga3 O27 2.034885 1_555
Ga3 O34 2.039440 1_565
Ga3 O40 2.102703 1_565
Ga4 O43 1.935726 1_545
Ga4 O4 1.970369 1_555
Ga4 O40 2.021313 1_555
Ga4 O39 2.034885 1_555
Ga4 O44 2.039440 1_545
Ga4 O2 2.102703 1_545
Ga5 O19 1.935726 1_555
Ga5 O15 1.970369 1_555
Ga5 O38 2.021313 1_555
Ga5 O32 2.034885 1_555
Ga5 O42 2.039440 1_555
Ga5 O33 2.102703 1_455
Ga6 O12 1.935726 1_555
Ga6 O14 1.970369 1_555
Ga6 O33 2.021313 1_555
Ga6 O7 2.034885 1_555
Ga6 O8 2.039440 1_555
Ga6 O38 2.102703 1_655
Ga7 O9 1.935726 1_565
Ga7 O28 1.970369 1_555
Ga7 O18 2.021313 1_555
Ga7 O24 2.034885 1_554
Ga7 O22 2.039440 1_565
Ga7 O23 2.102703 1_464
O0 Te6 1.932596 1_555
O1 Te5 1.880353 1_555
O1 Te11 2.581635 1_555
O2 Te0 1.949784 1_555
O3 Te4 1.926636 1_555
O4 Te6 1.934409 1_655
O4 Te12 2.545766 1_555
O5 Te1 1.944995 1_665
O6 Te5 1.926636 1_555
O7 Te2 1.926636 1_555
O8 Te10 1.944995 1_655
O9 Te11 1.932596 1_554
O10 Te7 1.932596 1_556
O11 Te8 1.880353 1_555
O11 Te7 2.581635 1_655
O12 Te12 1.932596 1_555
O13 Te7 1.934409 1_655
O13 Te14 2.545766 1_555
O14 Te0 1.934409 1_555
O14 Te9 2.545766 1_555
O15 Te12 1.934409 1_555
O15 Te6 2.545766 1_555
O16 Te11 1.934409 1_555
O16 Te15 2.545766 1_555
O17 Te15 1.932596 1_554
O18 Te7 1.949784 1_555
O19 Te0 1.932596 1_555
O20 Te9 1.934409 1_455
O20 Te0 2.545766 1_555
O21 Te5 1.944995 1_555
O22 Te8 1.944995 1_445
O23 Te15 1.949784 1_555
O24 Te1 1.926636 1_565
O25 Te14 1.932596 1_556
O26 Te11 1.949784 1_555
O27 Te13 1.926636 1_565
O28 Te14 1.934409 1_555
O28 Te7 2.545766 1_555
O29 Te2 1.880353 1_555
O29 Te6 2.581635 1_655
O30 Te3 1.880353 1_555
O30 Te0 2.581635 1_555
O31 Te4 1.880353 1_555
O31 Te14 2.581635 1_555
O32 Te10 1.926636 1_555
O33 Te9 1.949784 1_555
O34 Te3 1.944995 1_545
O35 Te4 1.944995 1_555
O36 Te14 1.949784 1_555
O37 Te1 1.880353 1_555
O37 Te15 2.581635 1_455
O38 Te6 1.949784 1_555
O39 Te3 1.926636 1_545
O40 Te12 1.949784 1_555
O41 Te10 1.880353 1_555
O41 Te9 2.581635 1_455
O42 Te2 1.944995 1_455
O43 Te9 1.932596 1_555
O44 Te13 1.944995 1_565
O45 Te13 1.880353 1_555
O45 Te12 2.581635 1_555
O46 Te8 1.926636 1_545
O47 Te15 1.934409 1_455
O47 Te11 2.545766 1_555
