# generated using pymatgen
data_K3CuP2S7
_symmetry_space_group_name_H-M   'P 1'
_cell_length_a   6.76311500
_cell_length_b   13.41186000
_cell_length_c   15.36449894
_cell_angle_alpha   81.41621572
_cell_angle_beta   90.00000000
_cell_angle_gamma   90.00000000
_symmetry_Int_Tables_number   1
_chemical_formula_structural   K3CuP2S7
_chemical_formula_sum   'K12 Cu4 P8 S28'
_cell_volume   1378.04073541
_cell_formula_units_Z   4
loop_
 _symmetry_equiv_pos_site_id
 _symmetry_equiv_pos_as_xyz
  1  'x, y, z'
loop_
 _atom_site_type_symbol
 _atom_site_label
 _atom_site_symmetry_multiplicity
 _atom_site_fract_x
 _atom_site_fract_y
 _atom_site_fract_z
 _atom_site_occupancy
  K  K0  1  0.22067200  0.90352000  0.47252300  1
  K  K1  1  0.77932800  0.09648000  0.52747700  1
  K  K2  1  0.76045400  0.81669800  0.30090800  1
  K  K3  1  0.26045400  0.68330200  0.69909200  1
  K  K4  1  0.34887500  0.84281200  0.07181100  1
  K  K5  1  0.27932800  0.40352000  0.47252300  1
  K  K6  1  0.84887500  0.65718800  0.92818900  1
  K  K7  1  0.65112500  0.15718800  0.92818900  1
  K  K8  1  0.23954600  0.18330200  0.69909200  1
  K  K9  1  0.72067200  0.59648000  0.52747700  1
  K  K10  1  0.15112500  0.34281200  0.07181100  1
  K  K11  1  0.73954600  0.31669800  0.30090800  1
  Cu  Cu0  1  0.48019300  0.43377100  0.80360900  1
  Cu  Cu1  1  0.98019300  0.06622900  0.19639100  1
  Cu  Cu2  1  0.51980700  0.56622900  0.19639100  1
  Cu  Cu3  1  0.01980700  0.93377100  0.80360900  1
  P  P0  1  0.74006200  0.33160400  0.64645300  1
  P  P1  1  0.99955300  0.38604500  0.83738900  1
  P  P2  1  0.50044700  0.88604500  0.83738900  1
  P  P3  1  0.49955300  0.11395500  0.16261100  1
  P  P4  1  0.24006200  0.16839600  0.35354700  1
  P  P5  1  0.75993800  0.83160400  0.64645300  1
  P  P6  1  0.25993800  0.66839600  0.35354700  1
  P  P7  1  0.00044700  0.61395500  0.16261100  1
  S  S0  1  0.51780500  0.91317800  0.69386100  1
  S  S1  1  0.19383500  0.64717300  0.48417100  1
  S  S2  1  0.48219500  0.08682200  0.30613900  1
  S  S3  1  0.73587000  0.41698900  0.89439500  1
  S  S4  1  0.23587000  0.08301100  0.10560500  1
  S  S5  1  0.73640000  0.18763000  0.70540600  1
  S  S6  1  0.98044400  0.09336700  0.33530200  1
  S  S7  1  0.80616500  0.35282700  0.51582900  1
  S  S8  1  0.30616500  0.14717300  0.48417100  1
  S  S9  1  0.51955600  0.59336700  0.33530200  1
  S  S10  1  0.26360000  0.81237000  0.29459400  1
  S  S11  1  0.60055600  0.25265500  0.11749300  1
  S  S12  1  0.79780500  0.50553600  0.14139700  1
  S  S13  1  0.70219500  0.00553600  0.14139700  1
  S  S14  1  0.89944400  0.75265500  0.11749300  1
  S  S15  1  0.26413000  0.58301100  0.10560500  1
  S  S16  1  0.23640000  0.31237000  0.29459400  1
  S  S17  1  0.39944400  0.74734500  0.88250700  1
  S  S18  1  0.10055600  0.24734500  0.88250700  1
  S  S19  1  0.01780500  0.58682200  0.30613900  1
  S  S20  1  0.76360000  0.68763000  0.70540600  1
  S  S21  1  0.48044400  0.40663300  0.66469800  1
  S  S22  1  0.76413000  0.91698900  0.89439500  1
  S  S23  1  0.98219500  0.41317800  0.69386100  1
  S  S24  1  0.01955600  0.90663300  0.66469800  1
  S  S25  1  0.20219500  0.49446400  0.85860300  1
  S  S26  1  0.69383500  0.85282700  0.51582900  1
  S  S27  1  0.29780500  0.99446400  0.85860300  1
loop_
_geom_bond_atom_site_label_1
_geom_bond_atom_site_label_2
_geom_bond_distance
_geom_bond_site_symmetry_2
K0 S10 3.170176 1_555
K0 S24 3.256821 1_555
K0 S26 3.318175 1_555
K0 S8 3.349582 1_565
K0 S1 3.420784 1_555
K0 S6 3.459096 1_465
K0 S26 3.669512 1_455
K0 S2 3.719049 1_565
K1 S5 3.170176 1_555
K1 S6 3.256821 1_555
K1 S8 3.318175 1_555
K1 S26 3.349582 1_545
K1 S7 3.420784 1_555
K1 S24 3.459096 1_645
K1 S8 3.669512 1_655
K1 S0 3.719049 1_545
K2 S14 3.207104 1_555
K2 S13 3.274634 1_565
K2 S10 3.362432 1_555
K2 S9 3.381249 1_555
K2 S10 3.404959 1_655
K2 S26 3.437972 1_555
K2 S19 3.530878 1_655
K3 S17 3.207104 1_555
K3 S25 3.274634 1_555
K3 S20 3.362432 1_455
K3 S24 3.381249 1_555
K3 S20 3.404959 1_555
K3 S1 3.437972 1_555
K3 S0 3.530878 1_555
K4 S14 3.307609 1_455
K4 S17 3.365676 1_554
K4 S4 3.425081 1_565
K4 S10 3.434925 1_555
K4 S15 3.492730 1_555
K4 S13 3.508924 1_565
K4 S27 3.605322 1_554
K5 S16 3.170176 1_555
K5 S21 3.256821 1_555
K5 S7 3.318175 1_455
K5 S1 3.349582 1_555
K5 S8 3.420784 1_555
K5 S9 3.459096 1_555
K5 S7 3.669512 1_555
K5 S19 3.719049 1_555
K6 S17 3.307609 1_555
K6 S14 3.365676 1_556
K6 S3 3.425081 1_555
K6 S20 3.434925 1_555
K6 S22 3.492730 1_555
K6 S25 3.508924 1_655
K6 S12 3.605322 1_556
K7 S18 3.307609 1_655
K7 S11 3.365676 1_556
K7 S22 3.425081 1_545
K7 S5 3.434925 1_555
K7 S3 3.492730 1_555
K7 S27 3.508924 1_545
K7 S13 3.605322 1_556
K8 S18 3.207104 1_555
K8 S27 3.274634 1_545
K8 S5 3.362432 1_555
K8 S21 3.381249 1_555
K8 S5 3.404959 1_455
K8 S8 3.437972 1_555
K8 S23 3.530878 1_455
K9 S20 3.170176 1_555
K9 S9 3.256821 1_555
K9 S1 3.318175 1_655
K9 S7 3.349582 1_555
K9 S26 3.420784 1_555
K9 S21 3.459096 1_555
K9 S1 3.669512 1_555
K9 S23 3.719049 1_555
K10 S11 3.307609 1_555
K10 S18 3.365676 1_554
K10 S15 3.425081 1_555
K10 S16 3.434925 1_555
K10 S4 3.492730 1_555
K10 S12 3.508924 1_455
K10 S25 3.605322 1_554
K11 S11 3.207104 1_555
K11 S12 3.274634 1_555
K11 S16 3.362432 1_655
K11 S6 3.381249 1_555
K11 S16 3.404959 1_555
K11 S7 3.437972 1_555
K11 S2 3.530878 1_555
Cu0 S3 2.211939 1_555
Cu0 S21 2.218016 1_555
Cu0 S25 2.262028 1_555
Cu1 S4 2.211939 1_655
Cu1 S6 2.218016 1_555
Cu1 S13 2.262028 1_555
Cu2 S15 2.211939 1_555
Cu2 S9 2.218016 1_555
Cu2 S12 2.262028 1_555
Cu3 S22 2.211939 1_455
Cu3 S24 2.218016 1_555
Cu3 S27 2.262028 1_555
P0 S5 2.006877 1_555
P0 S7 2.034280 1_555
P0 S21 2.063567 1_555
P0 S23 2.155705 1_555
P1 S18 2.005658 1_655
P1 S3 2.056239 1_555
P1 S25 2.059217 1_655
P1 S23 2.183969 1_555
P2 S17 2.005658 1_555
P2 S22 2.056239 1_555
P2 S27 2.059217 1_555
P2 S0 2.183969 1_555
P3 S11 2.005658 1_555
P3 S4 2.056239 1_555
P3 S13 2.059217 1_555
P3 S2 2.183969 1_555
P4 S16 2.006877 1_555
P4 S8 2.034280 1_555
P4 S6 2.063567 1_455
P4 S2 2.155705 1_555
P5 S20 2.006877 1_555
P5 S26 2.034280 1_555
P5 S24 2.063567 1_655
P5 S0 2.155705 1_555
P6 S10 2.006877 1_555
P6 S1 2.034280 1_555
P6 S9 2.063567 1_555
P6 S19 2.155705 1_555
P7 S14 2.005658 1_455
P7 S15 2.056239 1_555
P7 S12 2.059217 1_455
P7 S19 2.183969 1_555
