# generated using pymatgen
data_CaLaGaO4
_symmetry_space_group_name_H-M   'P 1'
_cell_length_a   5.39248500
_cell_length_b   6.89319300
_cell_length_c   11.90555200
_cell_angle_alpha   90.00000000
_cell_angle_beta   90.00000000
_cell_angle_gamma   90.00000000
_symmetry_Int_Tables_number   1
_chemical_formula_structural   CaLaGaO4
_chemical_formula_sum   'Ca4 La4 Ga4 O16'
_cell_volume   442.54651010
_cell_formula_units_Z   4
loop_
 _symmetry_equiv_pos_site_id
 _symmetry_equiv_pos_as_xyz
  1  'x, y, z'
loop_
 _atom_site_type_symbol
 _atom_site_label
 _atom_site_symmetry_multiplicity
 _atom_site_fract_x
 _atom_site_fract_y
 _atom_site_fract_z
 _atom_site_occupancy
  Ca  Ca0  1  0.00000000  0.00000000  0.00000000  1
  Ca  Ca1  1  0.50000000  0.00000000  0.50000000  1
  Ca  Ca2  1  0.00000000  0.50000000  0.00000000  1
  Ca  Ca3  1  0.50000000  0.50000000  0.50000000  1
  La  La0  1  0.50711100  0.75000000  0.77941900  1
  La  La1  1  0.99288900  0.75000000  0.27941900  1
  La  La2  1  0.00711100  0.25000000  0.72058100  1
  La  La3  1  0.49288900  0.25000000  0.22058100  1
  Ga  Ga0  1  0.43313300  0.75000000  0.09000700  1
  Ga  Ga1  1  0.56686700  0.25000000  0.90999300  1
  Ga  Ga2  1  0.93313300  0.25000000  0.40999300  1
  Ga  Ga3  1  0.06686700  0.75000000  0.59000700  1
  O  O0  1  0.27065200  0.95916200  0.16262200  1
  O  O1  1  0.27065200  0.54083800  0.16262200  1
  O  O2  1  0.72324500  0.25000000  0.05055900  1
  O  O3  1  0.72538200  0.75000000  0.59199000  1
  O  O4  1  0.22934800  0.54083800  0.66262200  1
  O  O5  1  0.22324500  0.75000000  0.44944100  1
  O  O6  1  0.77065200  0.04083800  0.33737800  1
  O  O7  1  0.27461800  0.25000000  0.40801000  1
  O  O8  1  0.22934800  0.95916200  0.66262200  1
  O  O9  1  0.77461800  0.75000000  0.09199000  1
  O  O10  1  0.22538200  0.25000000  0.90801000  1
  O  O11  1  0.72934800  0.04083800  0.83737800  1
  O  O12  1  0.77065200  0.45916200  0.33737800  1
  O  O13  1  0.72934800  0.45916200  0.83737800  1
  O  O14  1  0.27675500  0.75000000  0.94944100  1
  O  O15  1  0.77675500  0.25000000  0.55055900  1
loop_
_geom_bond_atom_site_label_1
_geom_bond_atom_site_label_2
_geom_bond_distance
_geom_bond_site_symmetry_2
Ca0 O14 2.357823 1_544
Ca0 O2 2.357823 1_455
Ca0 O10 2.376199 1_554
Ca0 O9 2.376199 1_445
Ca0 O0 2.440870 1_545
Ca0 O11 2.440870 1_454
Ca1 O5 2.357823 1_545
Ca1 O15 2.357823 1_555
Ca1 O3 2.376199 1_545
Ca1 O7 2.376199 1_555
Ca1 O8 2.440870 1_545
Ca1 O6 2.440870 1_555
Ca2 O14 2.357823 1_554
Ca2 O2 2.357823 1_455
Ca2 O10 2.376199 1_554
Ca2 O9 2.376199 1_455
Ca2 O1 2.440870 1_555
Ca2 O13 2.440870 1_454
Ca3 O5 2.357823 1_555
Ca3 O15 2.357823 1_555
Ca3 O3 2.376199 1_555
Ca3 O7 2.376199 1_555
Ca3 O4 2.440870 1_555
Ca3 O12 2.440870 1_555
La0 O14 2.374963 1_555
La0 O11 2.435481 1_565
La0 O13 2.435481 1_555
La0 O8 2.501171 1_555
La0 O4 2.501171 1_555
La0 O3 2.522842 1_555
La1 O5 2.374963 1_655
La1 O6 2.435481 1_565
La1 O12 2.435481 1_555
La1 O0 2.501171 1_655
La1 O1 2.501171 1_655
La1 O9 2.522842 1_555
La2 O15 2.374963 1_455
La2 O4 2.435481 1_555
La2 O8 2.435481 1_545
La2 O13 2.501171 1_455
La2 O11 2.501171 1_455
La2 O10 2.522842 1_555
La3 O2 2.374963 1_555
La3 O1 2.435481 1_555
La3 O0 2.435481 1_545
La3 O12 2.501171 1_555
La3 O6 2.501171 1_555
La3 O7 2.522842 1_555
Ga0 O9 1.841604 1_555
Ga0 O14 1.873967 1_554
Ga0 O0 1.895746 1_555
Ga0 O1 1.895746 1_555
Ga1 O10 1.841604 1_555
Ga1 O2 1.873967 1_556
Ga1 O13 1.895746 1_555
Ga1 O11 1.895746 1_555
Ga2 O7 1.841604 1_655
Ga2 O15 1.873967 1_555
Ga2 O12 1.895746 1_555
Ga2 O6 1.895746 1_555
Ga3 O3 1.841604 1_455
Ga3 O5 1.873967 1_555
Ga3 O8 1.895746 1_555
Ga3 O4 1.895746 1_555
