# generated using pymatgen
data_Ca(Ni2Sn)2
_symmetry_space_group_name_H-M   'P 1'
_cell_length_a   6.66402521
_cell_length_b   6.66402468
_cell_length_c   6.66402528
_cell_angle_alpha   108.51081853
_cell_angle_beta   109.95353659
_cell_angle_gamma   109.95355868
_symmetry_Int_Tables_number   1
_chemical_formula_structural   Ca(Ni2Sn)2
_chemical_formula_sum   'Ca2 Ni8 Sn4'
_cell_volume   227.77004547
_cell_formula_units_Z   2
loop_
 _symmetry_equiv_pos_site_id
 _symmetry_equiv_pos_as_xyz
  1  'x, y, z'
loop_
 _atom_site_type_symbol
 _atom_site_label
 _atom_site_symmetry_multiplicity
 _atom_site_fract_x
 _atom_site_fract_y
 _atom_site_fract_z
 _atom_site_occupancy
  Ca  Ca0  1  0.00000000  0.25000000  0.25000000  1
  Ca  Ca1  1  0.00000000  0.75000000  0.75000000  1
  Ni  Ni0  1  0.50000000  0.47460178  0.69518840  1
  Ni  Ni1  1  0.22058662  0.69518840  0.19518840  1
  Ni  Ni2  1  0.77941338  0.97460178  0.47460178  1
  Ni  Ni3  1  0.77941338  0.30481160  0.80481160  1
  Ni  Ni4  1  0.22058662  0.02539822  0.52539822  1
  Ni  Ni5  1  0.50000000  0.19518840  0.97460178  1
  Ni  Ni6  1  0.50000000  0.80481160  0.02539822  1
  Ni  Ni7  1  0.50000000  0.52539822  0.30481160  1
  Sn  Sn0  1  0.50000000  0.15827834  0.34172166  1
  Sn  Sn1  1  0.18344233  0.34172166  0.84172166  1
  Sn  Sn2  1  0.81655767  0.65827834  0.15827834  1
  Sn  Sn3  1  0.50000000  0.84172166  0.65827834  1
loop_
_geom_bond_atom_site_label_1
_geom_bond_atom_site_label_2
_geom_bond_distance
_geom_bond_site_symmetry_2
Ca0 Ni6 3.028847 1_445
Ca0 Ni1 3.028847 1_555
Ca0 Ni7 3.028847 1_555
Ca0 Ni2 3.028848 1_445
Ca0 Ni0 3.028848 1_555
Ca0 Ni4 3.028848 1_555
Ca0 Ni5 3.028848 1_454
Ca0 Ni3 3.028848 1_454
Ca0 Sn1 3.476597 1_554
Ca0 Sn2 3.476597 1_455
Ca0 Sn3 3.476600 1_555
Ca0 Sn0 3.476601 1_455
Ca0 Sn3 3.476601 1_444
Ca0 Sn2 3.476601 1_445
Ca0 Sn0 3.476601 1_555
Ca0 Sn1 3.476602 1_555
Ca1 Ni5 3.028847 1_565
Ca1 Ni3 3.028847 1_455
Ca1 Ni0 3.028847 1_455
Ca1 Ni4 3.028848 1_565
Ca1 Ni7 3.028848 1_455
Ca1 Ni2 3.028848 1_455
Ca1 Ni6 3.028848 1_556
Ca1 Ni1 3.028848 1_556
Ca1 Sn2 3.476597 1_456
Ca1 Sn1 3.476597 1_555
Ca1 Sn0 3.476600 1_455
Ca1 Sn3 3.476601 1_555
Ca1 Sn0 3.476601 1_566
Ca1 Sn1 3.476601 1_565
Ca1 Sn3 3.476601 1_455
Ca1 Sn2 3.476602 1_455
Ni0 Ni4 2.513057 1_555
Ni0 Ni3 2.513058 1_555
Ni0 Sn3 2.535339 1_555
Ni0 Ni6 2.570977 1_556
Ni0 Sn0 2.615183 1_555
Ni0 Sn2 2.620674 1_556
Ni0 Sn1 2.620677 1_555
Ni0 Ni7 2.727904 1_555
Ni1 Ni6 2.513057 1_555
Ni1 Ni7 2.513058 1_555
Ni1 Sn2 2.535333 1_455
Ni1 Ni4 2.570977 1_565
Ni1 Sn1 2.615180 1_554
Ni1 Sn0 2.620671 1_565
Ni1 Sn3 2.620672 1_555
Ni1 Ni3 2.727903 1_454
Ni2 Ni7 2.513057 1_555
Ni2 Ni6 2.513058 1_555
Ni2 Sn1 2.535336 1_665
Ni2 Ni3 2.570977 1_565
Ni2 Sn2 2.615188 1_555
Ni2 Sn3 2.620672 1_555
Ni2 Sn0 2.620672 1_565
Ni2 Ni4 2.727904 1_665
Ni3 Ni5 2.513057 1_555
Ni3 Sn1 2.535333 1_655
Ni3 Sn2 2.615180 1_556
Ni3 Sn3 2.620671 1_545
Ni3 Sn0 2.620672 1_555
Ni4 Ni5 2.513058 1_555
Ni4 Sn2 2.535336 1_445
Ni4 Sn1 2.615188 1_555
Ni4 Sn0 2.620672 1_555
Ni4 Sn3 2.620672 1_545
Ni5 Sn0 2.535339 1_556
Ni5 Ni7 2.570977 1_556
Ni5 Sn3 2.615183 1_545
Ni5 Sn2 2.620673 1_556
Ni5 Sn1 2.620678 1_555
Ni5 Ni6 2.727903 1_546
Ni6 Sn3 2.535339 1_554
Ni6 Sn0 2.615183 1_565
Ni6 Sn1 2.620673 1_554
Ni6 Sn2 2.620678 1_555
Ni7 Sn0 2.535339 1_555
Ni7 Sn3 2.615183 1_555
Ni7 Sn1 2.620674 1_554
Ni7 Sn2 2.620677 1_555
