# generated using pymatgen
data_KSr4(BO3)3
_symmetry_space_group_name_H-M   'P 1'
_cell_length_a   6.98366774
_cell_length_b   6.98366774
_cell_length_c   11.16525800
_cell_angle_alpha   90.00000000
_cell_angle_beta   90.00000000
_cell_angle_gamma   120.20915608
_symmetry_Int_Tables_number   1
_chemical_formula_structural   KSr4(BO3)3
_chemical_formula_sum   'K2 Sr8 B6 O18'
_cell_volume   470.59504667
_cell_formula_units_Z   2
loop_
 _symmetry_equiv_pos_site_id
 _symmetry_equiv_pos_as_xyz
  1  'x, y, z'
loop_
 _atom_site_type_symbol
 _atom_site_label
 _atom_site_symmetry_multiplicity
 _atom_site_fract_x
 _atom_site_fract_y
 _atom_site_fract_z
 _atom_site_occupancy
  K  K0  1  0.08519500  0.25103400  0.75000000  1
  K  K1  1  0.25103400  0.08519500  0.25000000  1
  Sr  Sr0  1  0.28704700  0.85721500  0.53076600  1
  Sr  Sr1  1  0.71781800  0.71781800  0.00000000  1
  Sr  Sr2  1  0.28704700  0.85721500  0.96923400  1
  Sr  Sr3  1  0.71781800  0.71781800  0.50000000  1
  Sr  Sr4  1  0.85721500  0.28704700  0.03076600  1
  Sr  Sr5  1  0.85721500  0.28704700  0.46923400  1
  Sr  Sr6  1  0.58514600  0.29574200  0.75000000  1
  Sr  Sr7  1  0.29574200  0.58514600  0.25000000  1
  B  B0  1  0.61644000  0.86744700  0.75000000  1
  B  B1  1  0.03071400  0.69001600  0.75000000  1
  B  B2  1  0.86744700  0.61644000  0.25000000  1
  B  B3  1  0.28810600  0.28810600  0.00000000  1
  B  B4  1  0.69001600  0.03071400  0.25000000  1
  B  B5  1  0.28810600  0.28810600  0.50000000  1
  O  O0  1  0.20225800  0.90760500  0.75000000  1
  O  O1  1  0.94533700  0.57402900  0.85788000  1
  O  O2  1  0.90760500  0.20225800  0.25000000  1
  O  O3  1  0.29093100  0.48511500  0.02733500  1
  O  O4  1  0.98871000  0.65704100  0.14210500  1
  O  O5  1  0.57402900  0.94533700  0.14212000  1
  O  O6  1  0.48511500  0.29093100  0.97266500  1
  O  O7  1  0.65704100  0.98871000  0.64210500  1
  O  O8  1  0.98871000  0.65704100  0.35789500  1
  O  O9  1  0.64587700  0.55026100  0.25000000  1
  O  O10  1  0.55026100  0.64587700  0.75000000  1
  O  O11  1  0.94533700  0.57402900  0.64212000  1
  O  O12  1  0.57402900  0.94533700  0.35788000  1
  O  O13  1  0.29093100  0.48511500  0.47266500  1
  O  O14  1  0.65704100  0.98871000  0.85789500  1
  O  O15  1  0.48511500  0.29093100  0.52733500  1
  O  O16  1  0.08938300  0.08938300  0.50000000  1
  O  O17  1  0.08938300  0.08938300  0.00000000  1
loop_
_geom_bond_atom_site_label_1
_geom_bond_atom_site_label_2
_geom_bond_distance
_geom_bond_site_symmetry_2
K0 O14 2.869779 1_445
K0 O7 2.869779 1_445
K0 O0 2.897204 1_545
K0 O16 3.016616 1_555
K0 O17 3.016616 1_556
K0 O10 3.023206 1_555
K0 O11 3.116097 1_455
K0 O1 3.116097 1_455
K1 O8 2.869779 1_445
K1 O4 2.869779 1_445
K1 O2 2.897204 1_455
K1 O16 3.016616 1_555
K1 O17 3.016616 1_555
K1 O9 3.023206 1_555
K1 O5 3.116097 1_545
K1 O12 3.116097 1_545
B0 O10 1.374151 1_555
B0 O14 1.416748 1_555
B0 O7 1.416748 1_555
B1 O0 1.382880 1_555
B1 O11 1.405864 1_455
B1 O1 1.405864 1_455
B2 O9 1.374151 1_555
B2 O8 1.416748 1_555
B2 O4 1.416748 1_555
B3 O17 1.383426 1_555
B3 O3 1.399705 1_555
B3 O6 1.399705 1_554
B4 O2 1.382880 1_555
B4 O5 1.405864 1_545
B4 O12 1.405864 1_545
B5 O16 1.383426 1_555
B5 O15 1.399705 1_555
B5 O13 1.399705 1_555
O0 Sr2 2.583777 1_555
O0 Sr0 2.583777 1_555
O0 Sr6 2.683963 1_565
O1 Sr2 2.530322 1_655
O1 Sr6 2.576010 1_555
O1 Sr4 2.623057 1_556
O1 Sr1 2.767057 1_556
O2 Sr5 2.583777 1_555
O2 Sr4 2.583777 1_555
O2 Sr7 2.683963 1_655
O3 Sr7 2.578038 1_555
O3 Sr1 2.597397 1_555
O3 Sr4 2.621646 1_455
O3 Sr2 2.691716 1_554
O4 Sr4 2.584077 1_555
O4 Sr1 2.661693 1_555
O4 Sr2 2.662640 1_654
O4 Sr7 2.717418 1_655
O5 Sr4 2.530322 1_565
O5 Sr7 2.576010 1_555
O5 Sr2 2.623057 1_554
O5 Sr1 2.767057 1_555
O6 Sr6 2.578038 1_555
O6 Sr1 2.597397 1_556
O6 Sr2 2.621646 1_545
O6 Sr4 2.691716 1_556
O7 Sr0 2.584077 1_555
O7 Sr3 2.661693 1_555
O7 Sr5 2.662640 1_565
O7 Sr6 2.717418 1_565
O8 Sr5 2.584077 1_555
O8 Sr3 2.661693 1_555
O8 Sr0 2.662640 1_655
O8 Sr7 2.717418 1_655
O9 Sr7 2.576425 1_555
O9 Sr3 2.970104 1_555
O9 Sr1 2.970104 1_555
O10 Sr6 2.576425 1_555
O10 Sr3 2.970104 1_555
O10 Sr1 2.970104 1_556
O11 Sr0 2.530322 1_655
O11 Sr6 2.576010 1_555
O11 Sr5 2.623057 1_555
O11 Sr3 2.767057 1_555
O12 Sr5 2.530322 1_565
O12 Sr7 2.576010 1_555
O12 Sr0 2.623057 1_555
O12 Sr3 2.767057 1_555
O13 Sr7 2.578038 1_555
O13 Sr3 2.597397 1_555
O13 Sr5 2.621646 1_455
O13 Sr0 2.691716 1_555
O14 Sr2 2.584077 1_555
O14 Sr1 2.661693 1_556
O14 Sr4 2.662640 1_566
O14 Sr6 2.717418 1_565
O15 Sr6 2.578038 1_555
O15 Sr3 2.597397 1_555
O15 Sr0 2.621646 1_545
O15 Sr5 2.691716 1_555
O16 Sr3 2.586679 1_445
O16 Sr5 2.627693 1_455
O16 Sr0 2.627693 1_545
O17 Sr1 2.586679 1_445
O17 Sr4 2.627693 1_455
O17 Sr2 2.627693 1_544
