# generated using pymatgen
data_ICl
_symmetry_space_group_name_H-M   'P 1'
_cell_length_a   4.86698900
_cell_length_b   12.94520700
_cell_length_c   13.29843882
_cell_angle_alpha   74.82664670
_cell_angle_beta   90.00000000
_cell_angle_gamma   90.00000000
_symmetry_Int_Tables_number   1
_chemical_formula_structural   ICl
_chemical_formula_sum   'I8 Cl8'
_cell_volume   808.64812952
_cell_formula_units_Z   8
loop_
 _symmetry_equiv_pos_site_id
 _symmetry_equiv_pos_as_xyz
  1  'x, y, z'
loop_
 _atom_site_type_symbol
 _atom_site_label
 _atom_site_symmetry_multiplicity
 _atom_site_fract_x
 _atom_site_fract_y
 _atom_site_fract_z
 _atom_site_occupancy
  I  I0  1  0.37501000  0.19510500  0.18509400  1
  I  I1  1  0.87501000  0.80489500  0.31490600  1
  I  I2  1  0.40441100  0.70377400  0.65529600  1
  I  I3  1  0.09558900  0.70377400  0.15529600  1
  I  I4  1  0.90441100  0.29622600  0.84470400  1
  I  I5  1  0.12499000  0.19510500  0.68509400  1
  I  I6  1  0.59558900  0.29622600  0.34470400  1
  I  I7  1  0.62499000  0.80489500  0.81490600  1
  Cl  Cl0  1  0.82448600  0.92723500  0.42398800  1
  Cl  Cl1  1  0.17551400  0.07276500  0.57601200  1
  Cl  Cl2  1  0.39935700  0.44650900  0.38905700  1
  Cl  Cl3  1  0.32448600  0.07276500  0.07601200  1
  Cl  Cl4  1  0.10064300  0.44650900  0.88905700  1
  Cl  Cl5  1  0.67551400  0.92723500  0.92398800  1
  Cl  Cl6  1  0.60064300  0.55349100  0.61094300  1
  Cl  Cl7  1  0.89935700  0.55349100  0.11094300  1
loop_
_geom_bond_atom_site_label_1
_geom_bond_atom_site_label_2
_geom_bond_distance
_geom_bond_site_symmetry_2
Cl0 I1 2.423954 1_555
Cl1 I5 2.423954 1_555
Cl2 I6 2.376019 1_555
Cl3 I0 2.423954 1_555
Cl4 I4 2.376019 1_455
Cl5 I7 2.423954 1_555
Cl6 I2 2.376019 1_555
Cl7 I3 2.376019 1_655
