# generated using pymatgen
data_Yb5Bi3
_symmetry_space_group_name_H-M   'P 1'
_cell_length_a   8.43499500
_cell_length_b   9.78098600
_cell_length_c   12.74977800
_cell_angle_alpha   90.00000000
_cell_angle_beta   90.00000000
_cell_angle_gamma   90.00000000
_symmetry_Int_Tables_number   1
_chemical_formula_structural   Yb5Bi3
_chemical_formula_sum   'Yb20 Bi12'
_cell_volume   1051.88942649
_cell_formula_units_Z   4
loop_
 _symmetry_equiv_pos_site_id
 _symmetry_equiv_pos_as_xyz
  1  'x, y, z'
loop_
 _atom_site_type_symbol
 _atom_site_label
 _atom_site_symmetry_multiplicity
 _atom_site_fract_x
 _atom_site_fract_y
 _atom_site_fract_z
 _atom_site_occupancy
  Yb  Yb0  1  0.80408200  0.54366800  0.07449000  1
  Yb  Yb1  1  0.81805400  0.25000000  0.76989200  1
  Yb  Yb2  1  0.03532200  0.75000000  0.50482400  1
  Yb  Yb3  1  0.34813400  0.25000000  0.71052500  1
  Yb  Yb4  1  0.19591800  0.04366800  0.92551000  1
  Yb  Yb5  1  0.53532200  0.25000000  0.99517600  1
  Yb  Yb6  1  0.84813400  0.75000000  0.78947500  1
  Yb  Yb7  1  0.31805400  0.75000000  0.73010800  1
  Yb  Yb8  1  0.30408200  0.45633200  0.42551000  1
  Yb  Yb9  1  0.68194600  0.25000000  0.26989200  1
  Yb  Yb10  1  0.46467800  0.75000000  0.00482400  1
  Yb  Yb11  1  0.69591800  0.54366800  0.57449000  1
  Yb  Yb12  1  0.96467800  0.25000000  0.49517600  1
  Yb  Yb13  1  0.15186600  0.25000000  0.21052500  1
  Yb  Yb14  1  0.18194600  0.75000000  0.23010800  1
  Yb  Yb15  1  0.19591800  0.45633200  0.92551000  1
  Yb  Yb16  1  0.80408200  0.95633200  0.07449000  1
  Yb  Yb17  1  0.69591800  0.95633200  0.57449000  1
  Yb  Yb18  1  0.30408200  0.04366800  0.42551000  1
  Yb  Yb19  1  0.65186600  0.75000000  0.28947500  1
  Bi  Bi0  1  0.06592000  0.01270700  0.67125800  1
  Bi  Bi1  1  0.93408000  0.98729300  0.32874200  1
  Bi  Bi2  1  0.06592000  0.48729300  0.67125800  1
  Bi  Bi3  1  0.42107600  0.75000000  0.48323700  1
  Bi  Bi4  1  0.56592000  0.98729300  0.82874200  1
  Bi  Bi5  1  0.43408000  0.01270700  0.17125800  1
  Bi  Bi6  1  0.57892400  0.25000000  0.51676300  1
  Bi  Bi7  1  0.43408000  0.48729300  0.17125800  1
  Bi  Bi8  1  0.56592000  0.51270700  0.82874200  1
  Bi  Bi9  1  0.07892400  0.75000000  0.98323700  1
  Bi  Bi10  1  0.92107600  0.25000000  0.01676300  1
  Bi  Bi11  1  0.93408000  0.51270700  0.32874200  1
loop_
_geom_bond_atom_site_label_1
_geom_bond_atom_site_label_2
_geom_bond_distance
_geom_bond_site_symmetry_2
Bi0 Yb12 3.340087 1_455
Bi0 Yb2 3.342452 1_545
Bi0 Yb3 3.362165 1_555
Bi0 Yb1 3.367424 1_455
Bi0 Yb17 3.400979 1_445
Bi0 Yb7 3.418852 1_545
Bi0 Yb4 3.435466 1_555
Bi0 Yb6 3.499848 1_445
Bi0 Yb18 3.734235 1_555
Bi1 Yb2 3.340087 1_655
Bi1 Yb12 3.342452 1_565
Bi1 Yb19 3.362165 1_555
Bi1 Yb14 3.367424 1_655
Bi1 Yb18 3.400979 1_665
Bi1 Yb9 3.418852 1_565
Bi1 Yb16 3.435466 1_555
Bi1 Yb13 3.499848 1_665
Bi1 Yb17 3.734235 1_555
Bi2 Yb12 3.340087 1_455
Bi2 Yb2 3.342452 1_555
Bi2 Yb3 3.362165 1_555
Bi2 Yb1 3.367424 1_455
Bi2 Yb11 3.400979 1_455
Bi2 Yb7 3.418852 1_555
Bi2 Yb15 3.435466 1_555
Bi2 Yb6 3.499848 1_455
Bi2 Yb8 3.734235 1_555
Bi3 Yb8 3.125065 1_555
Bi3 Yb18 3.125065 1_565
Bi3 Yb19 3.145263 1_555
Bi3 Yb7 3.265305 1_555
Bi3 Yb2 3.265453 1_555
Bi3 Yb11 3.286480 1_555
Bi3 Yb17 3.286480 1_555
Bi3 Yb14 3.805817 1_555
Bi4 Yb10 3.340087 1_556
Bi4 Yb5 3.342452 1_565
Bi4 Yb6 3.362165 1_555
Bi4 Yb7 3.367424 1_555
Bi4 Yb4 3.400979 1_565
Bi4 Yb1 3.418852 1_565
Bi4 Yb17 3.435466 1_555
Bi4 Yb3 3.499848 1_565
Bi4 Yb16 3.734235 1_556
Bi5 Yb5 3.340087 1_554
Bi5 Yb10 3.342452 1_545
Bi5 Yb13 3.362165 1_555
Bi5 Yb9 3.367424 1_555
Bi5 Yb16 3.400979 1_545
Bi5 Yb14 3.418852 1_545
Bi5 Yb18 3.435466 1_555
Bi5 Yb19 3.499848 1_545
Bi5 Yb4 3.734235 1_554
Bi6 Yb11 3.125065 1_555
Bi6 Yb17 3.125065 1_545
Bi6 Yb3 3.145263 1_555
Bi6 Yb9 3.265305 1_555
Bi6 Yb12 3.265453 1_555
Bi6 Yb8 3.286480 1_555
Bi6 Yb18 3.286480 1_555
Bi6 Yb1 3.805817 1_555
Bi7 Yb5 3.340087 1_554
Bi7 Yb10 3.342452 1_555
Bi7 Yb13 3.362165 1_555
Bi7 Yb9 3.367424 1_555
Bi7 Yb0 3.400979 1_555
Bi7 Yb14 3.418852 1_555
Bi7 Yb8 3.435466 1_555
Bi7 Yb19 3.499848 1_555
Bi7 Yb15 3.734235 1_554
Bi8 Yb10 3.340087 1_556
Bi8 Yb5 3.342452 1_555
Bi8 Yb6 3.362165 1_555
Bi8 Yb7 3.367424 1_555
Bi8 Yb15 3.400979 1_555
Bi8 Yb1 3.418852 1_555
Bi8 Yb11 3.435466 1_555
Bi8 Yb3 3.499848 1_555
Bi8 Yb0 3.734235 1_556
Bi9 Yb15 3.125065 1_555
Bi9 Yb4 3.125065 1_565
Bi9 Yb6 3.145263 1_455
Bi9 Yb14 3.265305 1_556
Bi9 Yb10 3.265453 1_556
Bi9 Yb16 3.286480 1_456
Bi9 Yb0 3.286480 1_456
Bi9 Yb7 3.805817 1_555
Bi10 Yb0 3.125065 1_555
Bi10 Yb16 3.125065 1_545
Bi10 Yb13 3.145263 1_655
Bi10 Yb1 3.265305 1_554
Bi10 Yb5 3.265453 1_554
Bi10 Yb4 3.286480 1_654
Bi10 Yb15 3.286480 1_654
Bi10 Yb9 3.805817 1_555
Bi11 Yb2 3.340087 1_655
Bi11 Yb12 3.342452 1_555
Bi11 Yb19 3.362165 1_555
Bi11 Yb14 3.367424 1_655
Bi11 Yb8 3.400979 1_655
Bi11 Yb9 3.418852 1_555
Bi11 Yb0 3.435466 1_555
Bi11 Yb13 3.499848 1_655
Bi11 Yb11 3.734235 1_555
