# generated using pymatgen
data_Cs2Mn3Te4
_symmetry_space_group_name_H-M   'P 1'
_cell_length_a   6.63345652
_cell_length_b   10.67571537
_cell_length_c   10.67571404
_cell_angle_alpha   75.26905549
_cell_angle_beta   71.86406479
_cell_angle_gamma   71.86406123
_symmetry_Int_Tables_number   1
_chemical_formula_structural   Cs2Mn3Te4
_chemical_formula_sum   'Cs4 Mn6 Te8'
_cell_volume   672.32113639
_cell_formula_units_Z   2
loop_
 _symmetry_equiv_pos_site_id
 _symmetry_equiv_pos_as_xyz
  1  'x, y, z'
loop_
 _atom_site_type_symbol
 _atom_site_label
 _atom_site_symmetry_multiplicity
 _atom_site_fract_x
 _atom_site_fract_y
 _atom_site_fract_z
 _atom_site_occupancy
  Cs  Cs0  1  0.23403988  0.12230151  0.87761079  1
  Cs  Cs1  1  0.73404429  0.37761887  0.62229626  1
  Cs  Cs2  1  0.26596012  0.62238921  0.37769849  1
  Cs  Cs3  1  0.76595571  0.87770374  0.12238113  1
  Mn  Mn0  1  0.25000000  0.51361706  0.98638294  1
  Mn  Mn1  1  0.25000000  0.98604930  0.51395070  1
  Mn  Mn2  1  0.75000000  0.48637048  0.01362952  1
  Mn  Mn3  1  0.75000000  0.75009690  0.74990310  1
  Mn  Mn4  1  0.25000000  0.24991668  0.25008332  1
  Mn  Mn5  1  0.75000000  0.01396036  0.48603964  1
  Te  Te0  1  0.37735126  0.22126302  0.48205254  1
  Te  Te1  1  0.58094468  0.27878792  0.01776606  1
  Te  Te2  1  0.12264874  0.01794746  0.27873698  1
  Te  Te3  1  0.91905532  0.48223394  0.22121208  1
  Te  Te4  1  0.62266512  0.77872571  0.51794022  1
  Te  Te5  1  0.41909435  0.72115884  0.98219975  1
  Te  Te6  1  0.87733488  0.98205978  0.72127429  1
  Te  Te7  1  0.08090565  0.51780025  0.77884116  1
loop_
_geom_bond_atom_site_label_1
_geom_bond_atom_site_label_2
_geom_bond_distance
_geom_bond_site_symmetry_2
Cs0 Te7 3.962767 1_555
Cs0 Te0 3.963543 1_555
Cs0 Te6 4.012022 1_545
Cs0 Te1 4.016610 1_556
Cs0 Te2 4.030094 1_556
Cs0 Te5 4.030147 1_545
Cs0 Te1 4.065516 1_456
Cs0 Te6 4.069488 1_445
Cs1 Te1 3.962531 1_556
Cs1 Te6 3.963565 1_545
Cs1 Te0 4.012127 1_655
Cs1 Te7 4.016988 1_655
Cs1 Te3 4.029598 1_555
Cs1 Te4 4.029907 1_555
Cs1 Te7 4.065900 1_555
Cs1 Te0 4.069578 1_555
Cs2 Te5 3.962767 1_554
Cs2 Te2 3.963544 1_565
Cs2 Te4 4.012022 1_455
Cs2 Te3 4.016610 1_455
Cs2 Te0 4.030094 1_555
Cs2 Te7 4.030147 1_555
Cs2 Te3 4.065516 1_555
Cs2 Te4 4.069488 1_555
Cs3 Te3 3.962531 1_555
Cs3 Te4 3.963565 1_555
Cs3 Te2 4.012127 1_565
Cs3 Te5 4.016988 1_554
Cs3 Te1 4.029598 1_565
Cs3 Te6 4.029907 1_554
Cs3 Te5 4.065900 1_654
Cs3 Te2 4.069578 1_665
Mn0 Te7 2.763146 1_555
Mn0 Te5 2.763146 1_555
Mn0 Te3 2.796611 1_456
Mn0 Te1 2.796611 1_556
Mn1 Te6 2.760991 1_455
Mn1 Te4 2.760991 1_555
Mn1 Te2 2.800312 1_565
Mn1 Te0 2.800313 1_565
Mn2 Te3 2.763536 1_555
Mn2 Te1 2.763536 1_555
Mn2 Te7 2.796267 1_654
Mn2 Te5 2.796267 1_554
Mn3 Te4 2.774139 1_555
Mn3 Te6 2.774139 1_555
Mn3 Te5 2.776223 1_555
Mn3 Te7 2.776223 1_655
Mn4 Te0 2.774207 1_555
Mn4 Te2 2.774208 1_555
Mn4 Te1 2.776408 1_555
Mn4 Te3 2.776408 1_455
Mn5 Te2 2.760802 1_655
Mn5 Te0 2.760802 1_555
Mn5 Te6 2.800463 1_545
Mn5 Te4 2.800463 1_545
