# generated using pymatgen
data_Mo2As3
_symmetry_space_group_name_H-M   'P 1'
_cell_length_a   3.27693013
_cell_length_b   6.89642867
_cell_length_c   8.19878777
_cell_angle_alpha   79.07424059
_cell_angle_beta   78.47230351
_cell_angle_gamma   76.25614563
_symmetry_Int_Tables_number   1
_chemical_formula_structural   Mo2As3
_chemical_formula_sum   'Mo4 As6'
_cell_volume   174.37427983
_cell_formula_units_Z   2
loop_
 _symmetry_equiv_pos_site_id
 _symmetry_equiv_pos_as_xyz
  1  'x, y, z'
loop_
 _atom_site_type_symbol
 _atom_site_label
 _atom_site_symmetry_multiplicity
 _atom_site_fract_x
 _atom_site_fract_y
 _atom_site_fract_z
 _atom_site_occupancy
  Mo  Mo0  1  0.24815536  0.87530107  0.62838620  1
  Mo  Mo1  1  0.75184464  0.12469893  0.37161380  1
  Mo  Mo2  1  0.35062533  0.43296154  0.86578880  1
  Mo  Mo3  1  0.64937467  0.56703846  0.13421120  1
  As  As0  1  0.12844461  0.78944535  0.95366642  1
  As  As1  1  0.87155539  0.21055465  0.04633358  1
  As  As2  1  0.41313376  0.85824102  0.31549045  1
  As  As3  1  0.58686624  0.14175898  0.68450955  1
  As  As4  1  0.10469642  0.41982919  0.37077597  1
  As  As5  1  0.89530358  0.58017081  0.62922403  1
loop_
_geom_bond_atom_site_label_1
_geom_bond_atom_site_label_2
_geom_bond_distance
_geom_bond_site_symmetry_2
As0 Mo3 2.522481 1_556
As0 Mo3 2.522486 1_456
As0 Mo2 2.589310 1_555
As0 Mo0 2.590460 1_555
As0 As1 3.023094 1_466
As1 Mo2 2.522481 1_554
As1 Mo2 2.522486 1_654
As1 Mo3 2.589310 1_555
As1 Mo1 2.590460 1_555
As2 Mo1 2.512820 1_465
As2 Mo1 2.512826 1_565
As2 Mo0 2.533197 1_555
As2 Mo3 2.602742 1_555
As3 Mo0 2.512820 1_645
As3 Mo0 2.512826 1_545
As3 Mo1 2.533197 1_555
As3 Mo2 2.602742 1_555
As4 As5 2.475911 1_455
As4 Mo1 2.566986 1_455
As4 Mo1 2.566994 1_555
As4 Mo3 2.590213 1_455
As4 Mo3 2.590217 1_555
As5 Mo0 2.566986 1_655
As5 Mo0 2.566994 1_555
As5 Mo2 2.590213 1_655
As5 Mo2 2.590217 1_555
