# generated using pymatgen
data_PrGePt
_symmetry_space_group_name_H-M   'P 1'
_cell_length_a   4.46602109
_cell_length_b   7.67245788
_cell_length_c   14.79908622
_cell_angle_alpha   90.00000000
_cell_angle_beta   90.00000000
_cell_angle_gamma   90.00000000
_symmetry_Int_Tables_number   1
_chemical_formula_structural   PrGePt
_chemical_formula_sum   'Pr8 Ge8 Pt8'
_cell_volume   507.09599782
_cell_formula_units_Z   8
loop_
 _symmetry_equiv_pos_site_id
 _symmetry_equiv_pos_as_xyz
  1  'x, y, z'
loop_
 _atom_site_type_symbol
 _atom_site_label
 _atom_site_symmetry_multiplicity
 _atom_site_fract_x
 _atom_site_fract_y
 _atom_site_fract_z
 _atom_site_occupancy
  Pr  Pr0  1  0.50000000  0.79037168  0.74667265  1
  Pr  Pr1  1  0.00000000  0.20962832  0.75332735  1
  Pr  Pr2  1  0.50000000  0.79037168  0.25332735  1
  Pr  Pr3  1  -0.00000000  0.20962832  0.24667265  1
  Pr  Pr4  1  0.50000000  0.70839047  -0.00000000  1
  Pr  Pr5  1  -0.00000000  0.29160953  0.50000000  1
  Pr  Pr6  1  0.50000000  0.70328443  0.50000000  1
  Pr  Pr7  1  -0.00000000  0.29671557  -0.00000000  1
  Ge  Ge0  1  0.50000000  0.41018134  0.65052529  1
  Ge  Ge1  1  0.00000000  0.58981866  0.84947471  1
  Ge  Ge2  1  0.50000000  0.41018134  0.34947471  1
  Ge  Ge3  1  0.00000000  0.58981866  0.15052529  1
  Ge  Ge4  1  0.50000000  0.08759592  0.09399808  1
  Ge  Ge5  1  0.00000000  0.91240408  0.40600192  1
  Ge  Ge6  1  0.50000000  0.08759592  0.90600192  1
  Ge  Ge7  1  0.00000000  0.91240408  0.59399808  1
  Pt  Pt0  1  0.50000000  0.07917320  0.60950030  1
  Pt  Pt1  1  0.00000000  0.92082680  0.89049970  1
  Pt  Pt2  1  0.50000000  0.07917320  0.39049970  1
  Pt  Pt3  1  0.00000000  0.92082680  0.10950030  1
  Pt  Pt4  1  0.50000000  0.41752526  0.15048714  1
  Pt  Pt5  1  -0.00000000  0.58247474  0.34951286  1
  Pt  Pt6  1  0.50000000  0.41752526  0.84951286  1
  Pt  Pt7  1  -0.00000000  0.58247474  0.65048714  1
loop_
_geom_bond_atom_site_label_1
_geom_bond_atom_site_label_2
_geom_bond_distance
_geom_bond_site_symmetry_2
Pr0 Pt0 3.005137 1_565
Pr0 Pt7 3.091415 1_655
Pr0 Pt7 3.091415 1_555
Pr0 Pt6 3.240311 1_555
Pr0 Pt1 3.243256 1_555
Pr0 Pt1 3.243256 1_655
Pr1 Pt1 3.005137 1_545
Pr1 Pt6 3.091415 1_555
Pr1 Pt6 3.091415 1_455
Pr1 Pt7 3.240311 1_555
Pr1 Pt0 3.243256 1_555
Pr1 Pt0 3.243256 1_455
Pr2 Pt2 3.005137 1_565
Pr2 Pt5 3.091415 1_555
Pr2 Pt5 3.091415 1_655
Pr2 Pt4 3.240311 1_555
Pr2 Pt3 3.243256 1_555
Pr2 Pt3 3.243256 1_655
Pr3 Pt3 3.005137 1_545
Pr3 Pt4 3.091415 1_555
Pr3 Pt4 3.091415 1_455
Pr3 Pt5 3.240311 1_555
Pr3 Pt2 3.243256 1_455
Pr3 Pt2 3.243256 1_555
Pr4 Pt6 3.152795 1_554
Pr4 Pt4 3.152795 1_555
Pr4 Pt3 3.204524 1_555
Pr4 Pt1 3.204524 1_654
Pr4 Pt3 3.204524 1_655
Pr4 Pt1 3.204524 1_554
Pr5 Pt7 3.152795 1_555
Pr5 Pt5 3.152795 1_555
Pr5 Pt2 3.204524 1_555
Pr5 Pt0 3.204524 1_455
Pr5 Pt0 3.204524 1_555
Pr5 Pt2 3.204524 1_455
Pr6 Pt7 3.287148 1_655
Pr6 Pt7 3.287148 1_555
Pr6 Pt5 3.287148 1_555
Pr6 Pt5 3.287148 1_655
Pr6 Pt2 3.308087 1_565
Pr6 Pt0 3.308087 1_565
Pr7 Pt6 3.287148 1_454
Pr7 Pt6 3.287148 1_554
Pr7 Pt4 3.287148 1_555
Pr7 Pt4 3.287148 1_455
Pr7 Pt3 3.308087 1_545
Pr7 Pt1 3.308087 1_544
Ge0 Pt7 2.594955 1_655
Ge0 Pt7 2.594955 1_555
Ge0 Pt0 2.611209 1_555
Ge0 Pt6 2.945373 1_555
Ge0 Pr1 3.109442 1_655
Ge0 Pr1 3.109442 1_555
Ge0 Pr6 3.165369 1_555
Ge0 Pr0 3.245532 1_555
Ge0 Pr5 3.282731 1_655
Ge0 Pr5 3.282731 1_555
Ge1 Pt6 2.594955 1_555
Ge1 Pt6 2.594955 1_455
Ge1 Pt1 2.611209 1_555
Ge1 Pt7 2.945373 1_555
Ge1 Pr0 3.109442 1_555
Ge1 Pr0 3.109442 1_455
Ge1 Pr7 3.165369 1_556
Ge1 Pr1 3.245532 1_555
Ge1 Pr4 3.282731 1_556
Ge1 Pr4 3.282731 1_456
Ge2 Pt5 2.594955 1_555
Ge2 Pt5 2.594955 1_655
Ge2 Pt2 2.611209 1_555
Ge2 Pt4 2.945373 1_555
Ge2 Pr3 3.109442 1_655
Ge2 Pr3 3.109442 1_555
Ge2 Pr6 3.165369 1_555
Ge2 Pr2 3.245532 1_555
Ge2 Pr5 3.282731 1_655
Ge2 Pr5 3.282731 1_555
Ge3 Pt4 2.594955 1_455
Ge3 Pt4 2.594955 1_555
Ge3 Pt3 2.611209 1_555
Ge3 Pt5 2.945373 1_555
Ge3 Pr2 3.109442 1_455
Ge3 Pr2 3.109442 1_555
Ge3 Pr7 3.165369 1_555
Ge3 Pr3 3.245532 1_555
Ge3 Pr4 3.282731 1_555
Ge3 Pr4 3.282731 1_455
Ge4 Pt3 2.583827 1_545
Ge4 Pt3 2.583827 1_645
Ge4 Pt4 2.665840 1_555
Ge4 Ge6 2.782171 1_554
Ge4 Pr7 3.081518 1_555
Ge4 Pr7 3.081518 1_655
Ge4 Pr4 3.224895 1_545
Ge4 Pr2 3.280279 1_545
Ge4 Pr3 3.311806 1_555
Ge4 Pr3 3.311806 1_655
Ge5 Pt2 2.583827 1_565
Ge5 Pt2 2.583827 1_465
Ge5 Pt5 2.665840 1_555
Ge5 Ge7 2.782171 1_555
Ge5 Pr6 3.081518 1_455
Ge5 Pr6 3.081518 1_555
Ge5 Pr5 3.224895 1_565
Ge5 Pr3 3.280279 1_565
Ge5 Pr2 3.311806 1_455
Ge5 Pr2 3.311806 1_555
Ge6 Pt1 2.583827 1_545
Ge6 Pt1 2.583827 1_645
Ge6 Pt6 2.665840 1_555
Ge6 Pr7 3.081518 1_656
Ge6 Pr7 3.081518 1_556
Ge6 Pr4 3.224895 1_546
Ge6 Pr0 3.280279 1_545
Ge6 Pr1 3.311806 1_655
Ge6 Pr1 3.311806 1_555
Ge7 Pt0 2.583827 1_565
Ge7 Pt0 2.583827 1_465
Ge7 Pt7 2.665840 1_555
Ge7 Pr6 3.081518 1_455
Ge7 Pr6 3.081518 1_555
Ge7 Pr5 3.224895 1_565
Ge7 Pr1 3.280279 1_565
Ge7 Pr0 3.311806 1_555
Ge7 Pr0 3.311806 1_455
Pt0 Pt2 3.241009 1_555
Pt1 Pt3 3.241009 1_556
