# generated using pymatgen
data_U(FeP)2
_symmetry_space_group_name_H-M   'P 1'
_cell_length_a   5.35498794
_cell_length_b   5.35498794
_cell_length_c   5.35498794
_cell_angle_alpha   138.08213206
_cell_angle_beta   138.08213206
_cell_angle_gamma   60.77723281
_symmetry_Int_Tables_number   1
_chemical_formula_structural   U(FeP)2
_chemical_formula_sum   'U1 Fe2 P2'
_cell_volume   67.79331426
_cell_formula_units_Z   1
loop_
 _symmetry_equiv_pos_site_id
 _symmetry_equiv_pos_as_xyz
  1  'x, y, z'
loop_
 _atom_site_type_symbol
 _atom_site_label
 _atom_site_symmetry_multiplicity
 _atom_site_fract_x
 _atom_site_fract_y
 _atom_site_fract_z
 _atom_site_occupancy
  U  U0  1  0.00000000  0.00000000  -0.00000000  1
  Fe  Fe0  1  0.75000000  0.25000000  0.50000000  1
  Fe  Fe1  1  0.25000000  0.75000000  0.50000000  1
  P  P0  1  0.62736320  0.62736320  -0.00000000  1
  P  P1  1  0.37263680  0.37263680  0.00000000  1
loop_
_geom_bond_atom_site_label_1
_geom_bond_atom_site_label_2
_geom_bond_distance
_geom_bond_site_symmetry_2
Fe0 P0 2.225466 1_545
Fe0 P1 2.225466 1_555
Fe0 P0 2.225466 1_556
Fe0 P1 2.225466 1_656
Fe0 U0 3.000582 1_655
Fe0 U0 3.000582 1_555
Fe0 U0 3.000582 1_656
Fe0 U0 3.000582 1_666
Fe1 P1 2.225466 1_566
Fe1 P1 2.225466 1_555
Fe1 P0 2.225466 1_556
Fe1 P0 2.225466 1_455
Fe1 U0 3.000582 1_566
Fe1 U0 3.000582 1_555
Fe1 U0 3.000582 1_565
Fe1 U0 3.000582 1_666
P0 P1 2.353310 1_555
P0 U0 2.953402 1_554
P0 U0 2.953402 1_655
P0 U0 2.953402 1_565
P0 U0 2.953402 1_666
P1 U0 2.953402 1_666
P1 U0 2.953402 1_655
P1 U0 2.953402 1_565
P1 U0 2.953402 1_554
