# generated using pymatgen
data_Nb6Co16Ge7
_symmetry_space_group_name_H-M   'P 1'
_cell_length_a   8.00876074
_cell_length_b   8.00869927
_cell_length_c   8.00872455
_cell_angle_alpha   60.00032463
_cell_angle_beta   60.00037942
_cell_angle_gamma   60.00033944
_symmetry_Int_Tables_number   1
_chemical_formula_structural   Nb6Co16Ge7
_chemical_formula_sum   'Nb6 Co16 Ge7'
_cell_volume   363.22780777
_cell_formula_units_Z   1
loop_
 _symmetry_equiv_pos_site_id
 _symmetry_equiv_pos_as_xyz
  1  'x, y, z'
loop_
 _atom_site_type_symbol
 _atom_site_label
 _atom_site_symmetry_multiplicity
 _atom_site_fract_x
 _atom_site_fract_y
 _atom_site_fract_z
 _atom_site_occupancy
  Nb  Nb0  1  0.20354468  0.79646271  0.79645833  1
  Nb  Nb1  1  0.79646383  0.79645368  0.20354460  1
  Nb  Nb2  1  0.79646870  0.20354067  0.20354081  1
  Nb  Nb3  1  0.20353820  0.20353403  0.79646340  1
  Nb  Nb4  1  0.79646382  0.20354380  0.79645147  1
  Nb  Nb5  1  0.20353806  0.79646682  0.20353505  1
  Co  Co0  1  0.61979019  0.61978786  0.14062644  1
  Co  Co1  1  0.16753583  0.49735478  0.16755060  1
  Co  Co2  1  0.85939324  0.38020311  0.38020396  1
  Co  Co3  1  0.50260984  0.83246142  0.83246118  1
  Co  Co4  1  0.49737600  0.16753278  0.16754279  1
  Co  Co5  1  0.83245093  0.83246118  0.50262177  1
  Co  Co6  1  0.16753565  0.16754089  0.49736675  1
  Co  Co7  1  0.14063856  0.61978673  0.61978437  1
  Co  Co8  1  0.16753351  0.16754320  0.16754842  1
  Co  Co9  1  0.38019976  0.38020752  0.85938917  1
  Co  Co10  1  0.61979325  0.61979005  0.61978984  1
  Co  Co11  1  0.38019745  0.85939410  0.38020523  1
  Co  Co12  1  0.38020068  0.38021038  0.38020847  1
  Co  Co13  1  0.83245487  0.83246350  0.83246466  1
  Co  Co14  1  0.61979087  0.14062829  0.61978651  1
  Co  Co15  1  0.83245226  0.50262031  0.83246196  1
  Ge  Ge0  1  0.49999666  0.00000368  0.50000029  1
  Ge  Ge1  1  0.49999885  0.50000312  -0.00000028  1
  Ge  Ge2  1  0.49999657  0.49999956  0.50000132  1
  Ge  Ge3  1  0.00002278  0.00002473  0.49997365  1
  Ge  Ge4  1  0.00001916  0.49998044  0.00001873  1
  Ge  Ge5  1  0.00001322  0.49998853  0.49998758  1
  Ge  Ge6  1  0.49998460  0.00001215  0.00000990  1
loop_
_geom_bond_atom_site_label_1
_geom_bond_atom_site_label_2
_geom_bond_distance
_geom_bond_site_symmetry_2
Co0 Ge2 2.349997 1_555
Co0 Ge1 2.488044 1_555
Co0 Ge6 2.488187 1_565
Co0 Ge4 2.488236 1_655
Co0 Co15 2.527183 1_554
Co0 Co13 2.527217 1_554
Co0 Co3 2.527243 1_554
Co0 Co12 2.713543 1_555
Co0 Co2 2.713623 1_555
Co0 Co11 2.713640 1_555
Co0 Nb2 2.772235 1_555
Co0 Nb1 2.772295 1_555
Co0 Nb5 2.772299 1_555
Co1 Ge4 2.311740 1_555
Co1 Ge5 2.311865 1_555
Co1 Ge1 2.312090 1_555
Co1 Co2 2.526981 1_455
Co1 Co9 2.527078 1_554
Co1 Co12 2.527178 1_555
Co1 Co8 2.641380 1_555
Co1 Co6 2.641406 1_555
Co1 Co4 2.641542 1_555
Co1 Nb1 2.714402 1_455
Co1 Nb0 2.714519 1_554
Co1 Nb5 2.714542 1_555
Co2 Ge2 2.350151 1_555
Co2 Ge3 2.487895 1_655
Co2 Ge4 2.487947 1_655
Co2 Ge5 2.487954 1_655
Co2 Co6 2.527026 1_655
Co2 Co8 2.527061 1_655
Co2 Nb4 2.772226 1_555
Co2 Nb2 2.772232 1_555
Co2 Nb1 2.772238 1_555
Co3 Ge1 2.311950 1_556
Co3 Ge0 2.311981 1_565
Co3 Ge6 2.312087 1_566
Co3 Co5 2.641621 1_555
Co3 Nb0 2.714260 1_555
Co3 Nb3 2.714313 1_565
Co3 Nb5 2.714327 1_556
Co4 Ge6 2.311844 1_555
Co4 Ge0 2.311975 1_555
Co4 Ge1 2.312062 1_555
Co4 Co9 2.527149 1_554
Co4 Co6 2.641556 1_555
Co4 Co8 2.641565 1_555
Co4 Nb1 2.714394 1_545
Co4 Nb4 2.714461 1_554
Co4 Nb2 2.714499 1_555
Co5 Ge0 2.311965 1_565
Co5 Ge5 2.312105 1_655
Co5 Ge3 2.312236 1_665
Co5 Co7 2.527324 1_655
Co5 Nb1 2.714311 1_555
Co5 Nb2 2.714370 1_565
Co5 Nb5 2.714441 1_655
Co6 Ge3 2.311687 1_555
Co6 Ge5 2.311900 1_555
Co6 Ge0 2.312040 1_555
Co6 Co8 2.641423 1_555
Co6 Nb4 2.714361 1_455
Co6 Nb0 2.714397 1_545
Co6 Nb3 2.714471 1_555
Co7 Ge2 2.349898 1_555
Co7 Ge5 2.488157 1_555
Co7 Ge4 2.488262 1_556
Co7 Ge3 2.488276 1_565
Co7 Co9 2.713540 1_555
Co7 Nb5 2.772278 1_555
Co7 Nb3 2.772291 1_555
Co7 Nb0 2.772297 1_555
Co8 Ge3 2.311717 1_555
Co8 Ge4 2.311802 1_555
Co8 Ge6 2.311936 1_555
Co8 Co9 2.527170 1_554
Co8 Nb2 2.714290 1_455
Co8 Nb5 2.714354 1_545
Co8 Nb3 2.714419 1_554
Co9 Ge2 2.350082 1_555
Co9 Ge4 2.487930 1_556
Co9 Ge6 2.488002 1_556
Co9 Ge1 2.488055 1_556
Co9 Nb0 2.772268 1_555
Co9 Nb3 2.772307 1_555
Co9 Nb4 2.772342 1_555
Co10 Ge2 2.349987 1_555
Co10 Ge1 2.488106 1_556
Co10 Ge0 2.488121 1_565
Co10 Ge5 2.488180 1_655
Co10 Co5 2.527156 1_555
Co10 Co15 2.527172 1_555
Co10 Co3 2.527204 1_555
Co10 Co2 2.713571 1_555
Co10 Co9 2.713594 1_555
Co10 Co11 2.713622 1_555
Co10 Nb4 2.772234 1_555
Co10 Nb1 2.772239 1_555
Co10 Nb0 2.772277 1_555
Co11 Ge2 2.350118 1_555
Co11 Ge3 2.487892 1_565
Co11 Ge6 2.488010 1_565
Co11 Ge0 2.488045 1_565
Co11 Co6 2.527035 1_565
Co11 Co4 2.527055 1_565
Co11 Co8 2.527103 1_565
Co11 Co7 2.713539 1_555
Co11 Nb0 2.772263 1_555
Co11 Nb5 2.772280 1_555
Co11 Nb1 2.772356 1_555
Co12 Ge2 2.350002 1_555
Co12 Ge5 2.487974 1_555
Co12 Ge0 2.488074 1_555
Co12 Ge1 2.488096 1_555
Co12 Co6 2.527218 1_555
Co12 Co4 2.527227 1_555
Co12 Co7 2.713454 1_555
Co12 Co14 2.713553 1_555
Co12 Nb5 2.772296 1_555
Co12 Nb3 2.772299 1_555
Co12 Nb2 2.772380 1_555
Co13 Ge6 2.312081 1_566
Co13 Ge4 2.312187 1_656
Co13 Ge3 2.312254 1_665
Co13 Co14 2.527231 1_565
Co13 Co7 2.527340 1_655
Co13 Co15 2.641636 1_555
Co13 Co5 2.641646 1_555
Co13 Co3 2.641672 1_555
Co13 Nb4 2.714345 1_565
Co13 Nb1 2.714362 1_556
Co13 Nb0 2.714435 1_655
Co14 Ge2 2.349965 1_555
Co14 Ge0 2.488057 1_555
Co14 Ge6 2.488190 1_556
Co14 Ge3 2.488253 1_655
Co14 Co5 2.527183 1_545
Co14 Co3 2.527251 1_545
Co14 Co2 2.713601 1_555
Co14 Co9 2.713622 1_555
Co14 Nb2 2.772238 1_555
Co14 Nb4 2.772272 1_555
Co14 Nb3 2.772307 1_555
Co15 Ge1 2.311950 1_556
Co15 Ge5 2.312119 1_655
Co15 Ge4 2.312196 1_656
Co15 Co7 2.527331 1_655
Co15 Co5 2.641611 1_555
Co15 Co3 2.641627 1_555
Co15 Nb4 2.714320 1_555
Co15 Nb2 2.714366 1_556
Co15 Nb3 2.714430 1_655
Ge0 Nb0 2.879965 1_545
Ge0 Nb3 2.879974 1_555
Ge0 Nb1 2.880031 1_545
Ge0 Nb2 2.880060 1_555
Ge1 Nb0 2.879981 1_554
Ge1 Nb5 2.880000 1_555
Ge1 Nb4 2.880038 1_554
Ge1 Nb2 2.880070 1_555
Ge3 Nb2 2.879925 1_455
Ge3 Nb4 2.879975 1_455
Ge3 Nb5 2.879977 1_545
Ge3 Nb0 2.880041 1_545
Ge4 Nb2 2.879939 1_455
Ge4 Nb1 2.879983 1_455
Ge4 Nb3 2.880008 1_554
Ge4 Nb0 2.880041 1_554
Ge5 Nb1 2.879957 1_455
Ge5 Nb4 2.879963 1_455
Ge5 Nb3 2.880018 1_555
Ge5 Nb5 2.880027 1_555
Ge6 Nb5 2.879959 1_545
Ge6 Nb3 2.879970 1_554
Ge6 Nb4 2.880064 1_554
Ge6 Nb1 2.880084 1_545
