# generated using pymatgen
data_LaTe2
_symmetry_space_group_name_H-M   'P 1'
_cell_length_a   9.14852527
_cell_length_b   9.14795700
_cell_length_c   9.26458496
_cell_angle_alpha   90.00000000
_cell_angle_beta   89.98783632
_cell_angle_gamma   90.00000000
_symmetry_Int_Tables_number   1
_chemical_formula_structural   LaTe2
_chemical_formula_sum   'La8 Te16'
_cell_volume   775.35602328
_cell_formula_units_Z   8
loop_
 _symmetry_equiv_pos_site_id
 _symmetry_equiv_pos_as_xyz
  1  'x, y, z'
loop_
 _atom_site_type_symbol
 _atom_site_label
 _atom_site_symmetry_multiplicity
 _atom_site_fract_x
 _atom_site_fract_y
 _atom_site_fract_z
 _atom_site_occupancy
  La  La0  1  0.00902700  0.50369600  0.27365400  1
  La  La1  1  0.75217400  0.25035100  0.72718700  1
  La  La2  1  0.75200700  0.75040100  0.72617100  1
  La  La3  1  0.25217400  0.74964900  0.72718700  1
  La  La4  1  0.99533700  0.00368900  0.27323000  1
  La  La5  1  0.49533700  0.99631100  0.27323000  1
  La  La6  1  0.25200700  0.24959900  0.72617100  1
  La  La7  1  0.50902700  0.49630400  0.27365400  1
  Te  Te0  1  0.26639800  0.49879200  0.00030000  1
  Te  Te1  1  0.00274900  0.25978000  0.99988800  1
  Te  Te2  1  0.50400600  0.49901000  0.63378700  1
  Te  Te3  1  0.25215000  0.24987800  0.36646300  1
  Te  Te4  1  0.50035200  0.99898500  0.63370200  1
  Te  Te5  1  0.50274900  0.74022000  0.99988800  1
  Te  Te6  1  0.25215200  0.74992500  0.36682200  1
  Te  Te7  1  0.75215200  0.25007500  0.36682200  1
  Te  Te8  1  0.00086700  0.75900300  0.99970300  1
  Te  Te9  1  0.50086700  0.24099700  0.99970300  1
  Te  Te10  1  0.75215000  0.75012200  0.36646300  1
  Te  Te11  1  0.76639800  0.50120800  0.00030000  1
  Te  Te12  1  0.73708100  0.00054000  0.99999100  1
  Te  Te13  1  0.23708100  0.99946000  0.99999100  1
  Te  Te14  1  0.00035200  0.00101500  0.63370200  1
  Te  Te15  1  0.00400600  0.50099000  0.63378700  1
loop_
_geom_bond_atom_site_label_1
_geom_bond_atom_site_label_2
_geom_bond_distance
_geom_bond_site_symmetry_2
La0 Te6 3.281282 1_555
La0 Te3 3.328448 1_555
La0 Te15 3.336881 1_555
La0 Te10 3.367940 1_455
La0 Te11 3.368023 1_455
La0 Te1 3.378634 1_554
La0 Te7 3.413173 1_455
La0 Te8 3.449934 1_554
La0 Te0 3.457900 1_555
La1 Te2 3.328445 1_555
La1 Te14 3.332697 1_655
La1 Te7 3.338633 1_555
La1 Te15 3.363469 1_655
La1 Te4 3.368398 1_545
La1 Te12 3.410156 1_555
La1 Te1 3.412912 1_655
La1 Te9 3.415409 1_555
La1 Te11 3.418424 1_556
La2 Te10 3.332546 1_555
La2 Te14 3.339322 1_665
La2 Te2 3.342114 1_555
La2 Te4 3.347603 1_555
La2 Te15 3.354458 1_655
La2 Te8 3.407929 1_655
La2 Te5 3.411282 1_555
La2 Te11 3.415277 1_556
La2 Te12 3.419084 1_565
La3 Te15 3.328445 1_555
La3 Te4 3.332697 1_555
La3 Te6 3.338633 1_555
La3 Te2 3.363469 1_555
La3 Te14 3.368398 1_565
La3 Te13 3.410156 1_555
La3 Te5 3.412912 1_555
La3 Te8 3.415409 1_555
La3 Te0 3.418424 1_556
La4 Te7 3.283426 1_555
La4 Te10 3.328011 1_545
La4 Te14 3.340038 1_655
La4 Te13 3.361327 1_644
La4 Te3 3.367341 1_655
La4 Te8 3.381504 1_644
La4 Te6 3.414932 1_645
La4 Te1 3.450487 1_654
La4 Te12 3.463200 1_554
La5 Te6 3.283426 1_555
La5 Te3 3.328011 1_565
La5 Te4 3.340038 1_555
La5 Te12 3.361327 1_564
La5 Te10 3.367341 1_555
La5 Te9 3.381504 1_564
La5 Te7 3.414932 1_565
La5 Te5 3.450487 1_554
La5 Te13 3.463200 1_554
La6 Te3 3.332546 1_555
La6 Te4 3.339322 1_545
La6 Te15 3.342114 1_555
La6 Te14 3.347603 1_555
La6 Te2 3.354458 1_555
La6 Te9 3.407929 1_555
La6 Te1 3.411282 1_555
La6 Te0 3.415277 1_556
La6 Te13 3.419084 1_545
La7 Te7 3.281282 1_555
La7 Te10 3.328448 1_555
La7 Te2 3.336881 1_555
La7 Te3 3.367940 1_555
La7 Te0 3.368023 1_555
La7 Te5 3.378634 1_554
La7 Te6 3.413173 1_555
La7 Te9 3.449934 1_554
La7 Te11 3.457900 1_555
Te0 Te5 3.090823 1_554
Te0 Te9 3.187917 1_554
Te0 Te1 3.255521 1_554
Te0 Te8 3.401093 1_554
Te1 Te11 3.090823 1_456
Te1 Te13 3.204200 1_545
Te1 Te12 3.395773 1_455
Te11 Te8 3.187917 1_654
Te11 Te5 3.255521 1_554
Te11 Te9 3.401093 1_554
Te12 Te9 3.083603 1_555
Te12 Te5 3.204200 1_545
Te12 Te8 3.272002 1_645
Te13 Te8 3.083603 1_555
Te13 Te9 3.272002 1_565
Te13 Te5 3.395773 1_555
