# generated using pymatgen
data_GaHg2SbCl4
_symmetry_space_group_name_H-M   'P 1'
_cell_length_a   8.98561700
_cell_length_b   12.50338000
_cell_length_c   18.22280200
_cell_angle_alpha   90.00000000
_cell_angle_beta   90.00000000
_cell_angle_gamma   90.00000000
_symmetry_Int_Tables_number   1
_chemical_formula_structural   GaHg2SbCl4
_chemical_formula_sum   'Ga8 Hg16 Sb8 Cl32'
_cell_volume   2047.34244473
_cell_formula_units_Z   8
loop_
 _symmetry_equiv_pos_site_id
 _symmetry_equiv_pos_as_xyz
  1  'x, y, z'
loop_
 _atom_site_type_symbol
 _atom_site_label
 _atom_site_symmetry_multiplicity
 _atom_site_fract_x
 _atom_site_fract_y
 _atom_site_fract_z
 _atom_site_occupancy
  Ga  Ga0  1  0.91549100  0.39153400  0.62595200  1
  Ga  Ga1  1  0.08450900  0.39153400  0.12595200  1
  Ga  Ga2  1  0.41549100  0.10846600  0.62595200  1
  Ga  Ga3  1  0.58450900  0.10846600  0.12595200  1
  Ga  Ga4  1  0.08450900  0.60846600  0.37404800  1
  Ga  Ga5  1  0.58450900  0.89153400  0.37404800  1
  Ga  Ga6  1  0.41549100  0.89153400  0.87404800  1
  Ga  Ga7  1  0.91549100  0.60846600  0.87404800  1
  Hg  Hg0  1  0.67660500  0.76239700  0.62242900  1
  Hg  Hg1  1  0.46350400  0.50000000  0.75000000  1
  Hg  Hg2  1  0.32339500  0.23760300  0.37757100  1
  Hg  Hg3  1  0.82339500  0.26239700  0.37757100  1
  Hg  Hg4  1  0.82339500  0.73760300  0.12242900  1
  Hg  Hg5  1  0.32339500  0.76239700  0.12242900  1
  Hg  Hg6  1  0.17660500  0.26239700  0.87757100  1
  Hg  Hg7  1  0.03649600  0.00000000  0.25000000  1
  Hg  Hg8  1  0.00000000  0.00000000  0.50000000  1
  Hg  Hg9  1  0.96350400  0.00000000  0.75000000  1
  Hg  Hg10  1  0.53649600  0.50000000  0.25000000  1
  Hg  Hg11  1  0.17660500  0.73760300  0.62242900  1
  Hg  Hg12  1  0.50000000  0.50000000  0.00000000  1
  Hg  Hg13  1  0.67660500  0.23760300  0.87757100  1
  Hg  Hg14  1  0.50000000  0.50000000  0.50000000  1
  Hg  Hg15  1  0.00000000  0.00000000  0.00000000  1
  Sb  Sb0  1  0.06060000  0.87811800  0.12384900  1
  Sb  Sb1  1  0.56060000  0.37811800  0.37615100  1
  Sb  Sb2  1  0.43940000  0.37811800  0.87615100  1
  Sb  Sb3  1  0.93940000  0.87811800  0.62384900  1
  Sb  Sb4  1  0.43940000  0.62188200  0.62384900  1
  Sb  Sb5  1  0.56060000  0.62188200  0.12384900  1
  Sb  Sb6  1  0.06060000  0.12188200  0.37615100  1
  Sb  Sb7  1  0.93940000  0.12188200  0.87615100  1
  Cl  Cl0  1  0.14044600  0.41901700  0.66667400  1
  Cl  Cl1  1  0.41004500  0.75273700  0.94919800  1
  Cl  Cl2  1  0.75951700  0.64141300  0.78293900  1
  Cl  Cl3  1  0.24048300  0.64141300  0.28293900  1
  Cl  Cl4  1  0.14044600  0.58098300  0.83332600  1
  Cl  Cl5  1  0.58995500  0.24726300  0.05080200  1
  Cl  Cl6  1  0.85955400  0.41901700  0.16667400  1
  Cl  Cl7  1  0.25951700  0.14141300  0.71706100  1
  Cl  Cl8  1  0.35955400  0.08098300  0.16667400  1
  Cl  Cl9  1  0.64044600  0.08098300  0.66667400  1
  Cl  Cl10  1  0.08995500  0.25273700  0.05080200  1
  Cl  Cl11  1  0.75951700  0.35858700  0.71706100  1
  Cl  Cl12  1  0.91004500  0.25273700  0.55080200  1
  Cl  Cl13  1  0.64044600  0.91901700  0.83332600  1
  Cl  Cl14  1  0.91004500  0.74726300  0.94919800  1
  Cl  Cl15  1  0.41004500  0.24726300  0.55080200  1
  Cl  Cl16  1  0.16004400  0.53524200  0.06515500  1
  Cl  Cl17  1  0.83995600  0.46475800  0.93484500  1
  Cl  Cl18  1  0.66004400  0.96475800  0.06515500  1
  Cl  Cl19  1  0.33995600  0.03524200  0.93484500  1
  Cl  Cl20  1  0.16004400  0.46475800  0.43484500  1
  Cl  Cl21  1  0.35955400  0.91901700  0.33332600  1
  Cl  Cl22  1  0.08995500  0.74726300  0.44919800  1
  Cl  Cl23  1  0.85955400  0.58098300  0.33332600  1
  Cl  Cl24  1  0.66004400  0.03524200  0.43484500  1
  Cl  Cl25  1  0.74048300  0.85858700  0.28293900  1
  Cl  Cl26  1  0.83995600  0.53524200  0.56515500  1
  Cl  Cl27  1  0.58995500  0.75273700  0.44919800  1
  Cl  Cl28  1  0.33995600  0.96475800  0.56515500  1
  Cl  Cl29  1  0.74048300  0.14141300  0.21706100  1
  Cl  Cl30  1  0.24048300  0.35858700  0.21706100  1
  Cl  Cl31  1  0.25951700  0.85858700  0.78293900  1
loop_
_geom_bond_atom_site_label_1
_geom_bond_atom_site_label_2
_geom_bond_distance
_geom_bond_site_symmetry_2
Hg0 Sb4 2.762321 1_555
Hg0 Sb3 2.769529 1_555
Hg1 Sb4 2.766566 1_555
Hg1 Sb2 2.766566 1_555
Hg2 Sb1 2.762321 1_555
Hg2 Sb6 2.769529 1_555
Hg3 Sb6 2.762321 1_655
Hg3 Sb1 2.769529 1_555
Hg4 Sb0 2.762321 1_655
Hg4 Sb5 2.769529 1_555
Hg5 Sb5 2.762321 1_555
Hg5 Sb0 2.769529 1_555
Hg6 Sb7 2.762321 1_455
Hg6 Sb2 2.769529 1_555
Hg7 Sb6 2.766566 1_555
Hg7 Sb0 2.766566 1_545
Hg8 Sb3 2.777118 1_445
Hg8 Sb6 2.777118 1_555
Hg9 Sb7 2.766566 1_555
Hg9 Sb3 2.766566 1_545
Hg10 Sb1 2.766566 1_555
Hg10 Sb5 2.766566 1_555
Hg11 Sb3 2.762321 1_455
Hg11 Sb4 2.769529 1_555
Hg12 Sb5 2.777118 1_555
Hg12 Sb2 2.777118 1_554
Hg13 Sb2 2.762321 1_555
Hg13 Sb7 2.769529 1_555
Hg14 Sb4 2.777118 1_555
Hg14 Sb1 2.777118 1_555
Hg15 Sb7 2.777118 1_454
Hg15 Sb0 2.777118 1_545
Cl0 Ga0 2.180514 1_455
Cl1 Ga6 2.211220 1_555
Cl2 Ga7 2.211433 1_555
Cl3 Ga4 2.211433 1_555
Cl4 Ga7 2.180514 1_455
Cl5 Ga3 2.211220 1_555
Cl6 Ga1 2.180514 1_655
Cl7 Ga2 2.211433 1_555
Cl8 Ga3 2.180514 1_555
Cl9 Ga2 2.180514 1_555
Cl10 Ga1 2.211220 1_555
Cl11 Ga0 2.211433 1_555
Cl12 Ga0 2.211220 1_555
Cl13 Ga6 2.180514 1_555
Cl14 Ga7 2.211220 1_555
Cl15 Ga2 2.211220 1_555
Cl16 Ga1 2.217367 1_555
Cl17 Ga7 2.217367 1_555
Cl18 Ga3 2.217367 1_565
Cl19 Ga6 2.217367 1_545
Cl20 Ga4 2.217367 1_555
Cl21 Ga5 2.180514 1_555
Cl22 Ga4 2.211220 1_555
Cl23 Ga4 2.180514 1_655
Cl24 Ga5 2.217367 1_545
Cl25 Ga5 2.211433 1_555
Cl26 Ga0 2.217367 1_555
Cl27 Ga5 2.211220 1_555
Cl28 Ga2 2.217367 1_565
Cl29 Ga3 2.211433 1_555
Cl30 Ga1 2.211433 1_555
Cl31 Ga6 2.211433 1_555
