# generated using pymatgen
data_CuSb2ClO3
_symmetry_space_group_name_H-M   'P 1'
_cell_length_a   7.85329841
_cell_length_b   7.85329841
_cell_length_c   18.85966100
_cell_angle_alpha   90.00000000
_cell_angle_beta   90.00000000
_cell_angle_gamma   120.08547607
_symmetry_Int_Tables_number   1
_chemical_formula_structural   CuSb2ClO3
_chemical_formula_sum   'Cu8 Sb16 Cl8 O24'
_cell_volume   1006.45417506
_cell_formula_units_Z   8
loop_
 _symmetry_equiv_pos_site_id
 _symmetry_equiv_pos_as_xyz
  1  'x, y, z'
loop_
 _atom_site_type_symbol
 _atom_site_label
 _atom_site_symmetry_multiplicity
 _atom_site_fract_x
 _atom_site_fract_y
 _atom_site_fract_z
 _atom_site_occupancy
  Cu  Cu0  1  0.73541700  0.74238500  0.73165300  1
  Cu  Cu1  1  0.26458300  0.25761500  0.23165300  1
  Cu  Cu2  1  0.75428800  0.24571200  0.77656000  1
  Cu  Cu3  1  0.74639300  0.25360700  0.22199200  1
  Cu  Cu4  1  0.74238500  0.73541700  0.23165300  1
  Cu  Cu5  1  0.25360700  0.74639300  0.72199200  1
  Cu  Cu6  1  0.25761500  0.26458300  0.73165300  1
  Cu  Cu7  1  0.24571200  0.75428800  0.27656000  1
  Sb  Sb0  1  0.57793700  0.89771000  0.58224700  1
  Sb  Sb1  1  0.42206300  0.10229000  0.08224700  1
  Sb  Sb2  1  0.89771000  0.57793700  0.08224700  1
  Sb  Sb3  1  0.08343400  0.91656600  0.58021100  1
  Sb  Sb4  1  0.39826100  0.07625500  0.41902600  1
  Sb  Sb5  1  0.57912800  0.42087200  0.92178500  1
  Sb  Sb6  1  0.91656600  0.08343400  0.08021100  1
  Sb  Sb7  1  0.57499700  0.42500300  0.58357600  1
  Sb  Sb8  1  0.42087200  0.57912800  0.42178500  1
  Sb  Sb9  1  0.42500300  0.57499700  0.08357600  1
  Sb  Sb10  1  0.92374500  0.60173900  0.41902600  1
  Sb  Sb11  1  0.60173900  0.92374500  0.91902600  1
  Sb  Sb12  1  0.07075400  0.92924600  0.91929400  1
  Sb  Sb13  1  0.07625500  0.39826100  0.91902600  1
  Sb  Sb14  1  0.92924600  0.07075400  0.41929400  1
  Sb  Sb15  1  0.10229000  0.42206300  0.58224700  1
  Cl  Cl0  1  0.41269500  0.58730500  0.77213700  1
  Cl  Cl1  1  0.91441100  0.08558900  0.72834400  1
  Cl  Cl2  1  0.58088900  0.91514300  0.24729600  1
  Cl  Cl3  1  0.08485700  0.41911100  0.24729600  1
  Cl  Cl4  1  0.08558900  0.91441100  0.22834400  1
  Cl  Cl5  1  0.91514300  0.58088900  0.74729600  1
  Cl  Cl6  1  0.41911100  0.08485700  0.74729600  1
  Cl  Cl7  1  0.58730500  0.41269500  0.27213700  1
  O  O0  1  0.45731900  0.16775300  0.97869900  1
  O  O1  1  0.83224700  0.54268100  0.97869900  1
  O  O2  1  0.04470900  0.95529100  0.02515800  1
  O  O3  1  0.16775300  0.45731900  0.47869900  1
  O  O4  1  0.45257300  0.54742700  0.97900700  1
  O  O5  1  0.96035600  0.66260600  0.52389000  1
  O  O6  1  0.66932100  0.70755900  0.61188100  1
  O  O7  1  0.83454200  0.79130000  0.39431900  1
  O  O8  1  0.16545800  0.20870000  0.89431900  1
  O  O9  1  0.54268100  0.83224700  0.47869900  1
  O  O10  1  0.95529100  0.04470900  0.52515800  1
  O  O11  1  0.66260600  0.96035600  0.02389000  1
  O  O12  1  0.29244100  0.33067900  0.61188100  1
  O  O13  1  0.54742700  0.45257300  0.47900700  1
  O  O14  1  0.20870000  0.16545800  0.39431900  1
  O  O15  1  0.33739400  0.03964400  0.52389000  1
  O  O16  1  0.29381800  0.70618200  0.61244500  1
  O  O17  1  0.70755900  0.66932100  0.11188100  1
  O  O18  1  0.03964400  0.33739400  0.02389000  1
  O  O19  1  0.79017400  0.20982600  0.88805200  1
  O  O20  1  0.33067900  0.29244100  0.11188100  1
  O  O21  1  0.20982600  0.79017400  0.38805200  1
  O  O22  1  0.70618200  0.29381800  0.11244500  1
  O  O23  1  0.79130000  0.83454200  0.89431900  1
loop_
_geom_bond_atom_site_label_1
_geom_bond_atom_site_label_2
_geom_bond_distance
_geom_bond_site_symmetry_2
Cu0 O6 2.303117 1_555
Cu1 O20 2.303117 1_555
Cu2 O19 2.158664 1_555
Cu3 O22 2.137256 1_555
Cu4 O17 2.303117 1_555
Cu5 O16 2.137256 1_555
Cu6 O12 2.303117 1_555
Cu7 O21 2.158664 1_555
Cl0 Cu6 2.322698 1_555
Cl0 Cu0 2.322698 1_555
Cl0 Cu5 2.362447 1_555
Cl1 Cu6 2.333644 1_655
Cl1 Cu0 2.333644 1_545
Cl1 Cu2 2.361112 1_555
Cl2 Cu4 2.341464 1_555
Cl2 Cu7 2.344216 1_555
Cl2 Cu3 2.349178 1_565
Cl3 Cu1 2.341464 1_555
Cl3 Cu7 2.344216 1_555
Cl3 Cu3 2.349178 1_455
Cl4 Cu1 2.333644 1_565
Cl4 Cu4 2.333644 1_455
Cl4 Cu7 2.361112 1_555
Cl5 Cu0 2.341464 1_555
Cl5 Cu2 2.344216 1_555
Cl5 Cu5 2.349178 1_655
Cl6 Cu6 2.341464 1_555
Cl6 Cu2 2.344216 1_555
Cl6 Cu5 2.349178 1_545
Cl7 Cu1 2.322698 1_555
Cl7 Cu4 2.322698 1_555
Cl7 Cu3 2.362447 1_555
O0 Sb1 2.002995 1_556
O0 Sb5 2.027854 1_555
O1 Sb2 2.002995 1_556
O1 Sb5 2.027854 1_555
O2 Sb12 2.027773 1_554
O2 Sb6 2.029491 1_465
O3 Sb15 2.002995 1_555
O3 Sb8 2.027854 1_555
O4 Sb9 2.007505 1_556
O4 Sb5 2.032377 1_555
O5 Sb10 2.021055 1_555
O5 Sb3 2.026700 1_655
O6 Sb7 2.027228 1_555
O6 Sb0 2.032695 1_555
O7 Sb14 1.988714 1_565
O7 Sb10 1.992389 1_555
O8 Sb12 1.988714 1_545
O8 Sb13 1.992389 1_555
O9 Sb0 2.002995 1_555
O9 Sb8 2.027854 1_555
O10 Sb14 2.027773 1_555
O10 Sb3 2.029491 1_645
O11 Sb11 2.021055 1_554
O11 Sb6 2.026700 1_565
O12 Sb7 2.027228 1_555
O12 Sb15 2.032695 1_555
O13 Sb7 2.007505 1_555
O13 Sb8 2.032377 1_555
O14 Sb14 1.988714 1_455
O14 Sb4 1.992389 1_555
O15 Sb4 2.021055 1_555
O15 Sb3 2.026700 1_545
O16 Sb0 2.049523 1_555
O16 Sb15 2.049523 1_555
O17 Sb9 2.027228 1_555
O17 Sb2 2.032695 1_555
O18 Sb13 2.021055 1_554
O18 Sb6 2.026700 1_455
O19 Sb13 2.060442 1_655
O19 Sb11 2.060442 1_545
O20 Sb9 2.027228 1_555
O20 Sb1 2.032695 1_555
O21 Sb4 2.060442 1_565
O21 Sb10 2.060442 1_455
O22 Sb2 2.049523 1_555
O22 Sb1 2.049523 1_555
O23 Sb12 1.988714 1_655
O23 Sb11 1.992389 1_555
