# generated using pymatgen
data_Ba2Si3O8
_symmetry_space_group_name_H-M   'P 1'
_cell_length_a   4.69057085
_cell_length_b   12.47748592
_cell_length_c   13.99986574
_cell_angle_alpha   93.51692321
_cell_angle_beta   90.00000000
_cell_angle_gamma   90.00000000
_symmetry_Int_Tables_number   1
_chemical_formula_structural   Ba2Si3O8
_chemical_formula_sum   'Ba8 Si12 O32'
_cell_volume   817.82049829
_cell_formula_units_Z   4
loop_
 _symmetry_equiv_pos_site_id
 _symmetry_equiv_pos_as_xyz
  1  'x, y, z'
loop_
 _atom_site_type_symbol
 _atom_site_label
 _atom_site_symmetry_multiplicity
 _atom_site_fract_x
 _atom_site_fract_y
 _atom_site_fract_z
 _atom_site_occupancy
  Ba  Ba0  1  0.29247708  0.85547215  0.03074087  1
  Ba  Ba1  1  0.26388817  0.41791715  0.38842282  1
  Ba  Ba2  1  0.30576197  0.41727015  0.88799477  1
  Ba  Ba3  1  0.76388817  0.58208285  0.61157718  1
  Ba  Ba4  1  0.30606230  0.85680884  0.53343543  1
  Ba  Ba5  1  0.80576197  0.58272985  0.11200523  1
  Ba  Ba6  1  0.79247708  0.14452785  0.96925913  1
  Ba  Ba7  1  0.80606230  0.14319116  0.46656457  1
  Si  Si0  1  0.23941675  0.34957508  0.11093272  1
  Si  Si1  1  0.23186111  0.72508599  0.77643457  1
  Si  Si2  1  0.73186111  0.27491401  0.22356543  1
  Si  Si3  1  0.33102946  0.72323572  0.27595756  1
  Si  Si4  1  0.23442121  0.97627797  0.81253142  1
  Si  Si5  1  0.73941675  0.65042492  0.88906728  1
  Si  Si6  1  0.23605357  0.97041417  0.31190318  1
  Si  Si7  1  0.83224287  0.65032336  0.38894371  1
  Si  Si8  1  0.73605357  0.02958583  0.68809682  1
  Si  Si9  1  0.73442121  0.02372203  0.18746858  1
  Si  Si10  1  0.33224287  0.34967664  0.61105629  1
  Si  Si11  1  0.83102946  0.27676428  0.72404244  1
  O  O0  1  0.80644314  0.52966751  0.91465466  1
  O  O1  1  0.81124944  0.28703871  0.33323285  1
  O  O2  1  0.40512879  0.64930872  0.84880766  1
  O  O3  1  0.27259399  0.84223666  0.32776080  1
  O  O4  1  0.16253517  0.31055260  0.70682675  1
  O  O5  1  0.81419899  0.96435043  0.08828853  1
  O  O6  1  0.80872792  0.73483758  0.47908930  1
  O  O7  1  0.28321588  0.26547209  0.02145555  1
  O  O8  1  0.65980932  0.35909091  0.65701528  1
  O  O9  1  0.75419164  0.53071829  0.41524583  1
  O  O10  1  0.90359178  0.99471167  0.28474873  1
  O  O11  1  0.77259399  0.15776334  0.67223920  1
  O  O12  1  0.81683974  0.96595539  0.59074730  1
  O  O13  1  0.90298733  0.00346122  0.78641334  1
  O  O14  1  0.78321588  0.73452791  0.97854445  1
  O  O15  1  0.66253517  0.68944740  0.29317325  1
  O  O16  1  0.30872792  0.26516242  0.52091070  1
  O  O17  1  0.30644314  0.47033249  0.08534534  1
  O  O18  1  0.40378529  0.31507875  0.20927225  1
  O  O19  1  0.26230358  0.84711824  0.82461345  1
  O  O20  1  0.31683974  0.03404461  0.40925270  1
  O  O21  1  0.40298733  0.99653878  0.21358666  1
  O  O22  1  0.76230358  0.15288176  0.17538655  1
  O  O23  1  0.90512879  0.35069128  0.15119234  1
  O  O24  1  0.26508054  0.71296186  0.16522866  1
  O  O25  1  0.40359178  0.00528833  0.71525127  1
  O  O26  1  0.31419899  0.03564957  0.91171147  1
  O  O27  1  0.25419164  0.46928171  0.58475417  1
  O  O28  1  0.31124944  0.71296129  0.66676715  1
  O  O29  1  0.15980932  0.64090909  0.34298472  1
  O  O30  1  0.90378529  0.68492125  0.79072775  1
  O  O31  1  0.76508054  0.28703814  0.83477134  1
loop_
_geom_bond_atom_site_label_1
_geom_bond_atom_site_label_2
_geom_bond_distance
_geom_bond_site_symmetry_2
Ba0 O24 2.670979 1_555
Ba0 O5 2.719050 1_455
Ba0 O14 2.823917 1_554
Ba0 O26 2.881164 1_564
Ba0 O19 2.884715 1_554
Ba0 O5 2.889474 1_555
Ba0 O14 2.895173 1_454
Ba0 O21 3.060510 1_555
Ba1 O9 2.710397 1_555
Ba1 O16 2.747929 1_555
Ba1 O1 2.759835 1_455
Ba1 O27 2.784164 1_555
Ba1 O9 2.787997 1_455
Ba1 O18 2.823606 1_555
Ba1 O29 2.932877 1_555
Ba1 O1 3.114598 1_555
Ba2 O7 2.742966 1_556
Ba2 O0 2.743593 1_455
Ba2 O0 2.749050 1_555
Ba2 O31 2.772887 1_555
Ba2 O17 2.801331 1_556
Ba2 O4 2.871065 1_555
Ba2 O2 3.015892 1_555
Ba2 O31 3.078799 1_455
Ba3 O27 2.710397 1_655
Ba3 O6 2.747929 1_555
Ba3 O28 2.759835 1_555
Ba3 O9 2.784164 1_555
Ba3 O27 2.787997 1_555
Ba3 O30 2.823606 1_555
Ba3 O8 2.932877 1_555
Ba3 O28 3.114598 1_655
Ba4 O28 2.667852 1_555
Ba4 O12 2.762285 1_455
Ba4 O12 2.846833 1_555
Ba4 O6 2.862665 1_455
Ba4 O3 2.878283 1_555
Ba4 O6 2.883079 1_555
Ba4 O20 2.896087 1_565
Ba4 O25 3.089026 1_565
Ba5 O14 2.742966 1_554
Ba5 O17 2.743593 1_555
Ba5 O17 2.749050 1_655
Ba5 O24 2.772887 1_655
Ba5 O0 2.801331 1_554
Ba5 O15 2.871065 1_555
Ba5 O23 3.015892 1_555
Ba5 O24 3.078799 1_555
Ba6 O31 2.670979 1_555
Ba6 O26 2.719050 1_555
Ba6 O7 2.823917 1_656
Ba6 O5 2.881164 1_546
Ba6 O22 2.884715 1_556
Ba6 O26 2.889474 1_655
Ba6 O7 2.895173 1_556
Ba6 O13 3.060510 1_555
Ba7 O1 2.667852 1_555
Ba7 O20 2.762285 1_555
Ba7 O20 2.846833 1_655
Ba7 O16 2.862665 1_555
Ba7 O11 2.878283 1_555
Ba7 O16 2.883079 1_655
Ba7 O12 2.896087 1_545
Ba7 O10 3.089026 1_545
O0 Si5 1.601148 1_555
O1 Si2 1.578065 1_555
O2 Si1 1.642755 1_555
O2 Si5 1.665994 1_555
O3 Si3 1.635149 1_555
O3 Si6 1.637098 1_555
O4 Si11 1.632841 1_455
O4 Si10 1.658295 1_555
O5 Si9 1.578157 1_565
O6 Si7 1.598006 1_555
O7 Si0 1.597290 1_555
O8 Si11 1.642864 1_555
O8 Si10 1.667113 1_555
O9 Si7 1.601316 1_555
O10 Si9 1.635835 1_565
O10 Si6 1.637807 1_655
O11 Si11 1.635149 1_555
O11 Si8 1.637098 1_555
O12 Si8 1.580706 1_565
O13 Si8 1.633689 1_555
O13 Si4 1.637310 1_645
O14 Si5 1.597290 1_555
O15 Si3 1.632841 1_555
O15 Si7 1.658295 1_555
O16 Si10 1.598006 1_555
O17 Si0 1.601148 1_555
O18 Si2 1.634503 1_555
O18 Si0 1.657648 1_555
O19 Si1 1.633345 1_555
O19 Si4 1.635964 1_555
O20 Si6 1.580706 1_545
O21 Si6 1.633689 1_555
O21 Si9 1.637310 1_565
O22 Si2 1.633345 1_555
O22 Si9 1.635964 1_555
O23 Si2 1.642755 1_555
O23 Si0 1.665994 1_655
O24 Si3 1.578237 1_555
O25 Si4 1.635835 1_545
O25 Si8 1.637807 1_555
O26 Si4 1.578157 1_545
O27 Si10 1.601316 1_555
O28 Si1 1.578065 1_555
O29 Si3 1.642864 1_555
O29 Si7 1.667113 1_455
O30 Si1 1.634503 1_655
O30 Si5 1.657648 1_555
O31 Si11 1.578237 1_555
