# generated using pymatgen
data_KNa2NiO2
_symmetry_space_group_name_H-M   'P 1'
_cell_length_a   6.15930266
_cell_length_b   12.45105959
_cell_length_c   6.15939302
_cell_angle_alpha   90.28963352
_cell_angle_beta   118.75396781
_cell_angle_gamma   89.72178560
_symmetry_Int_Tables_number   1
_chemical_formula_structural   KNa2NiO2
_chemical_formula_sum   'K4 Na8 Ni4 O8'
_cell_volume   414.11057674
_cell_formula_units_Z   4
loop_
 _symmetry_equiv_pos_site_id
 _symmetry_equiv_pos_as_xyz
  1  'x, y, z'
loop_
 _atom_site_type_symbol
 _atom_site_label
 _atom_site_symmetry_multiplicity
 _atom_site_fract_x
 _atom_site_fract_y
 _atom_site_fract_z
 _atom_site_occupancy
  K  K0  1  0.18750200  0.63086600  0.81250400  1
  K  K1  1  0.31345900  0.12794800  0.68649700  1
  K  K2  1  0.68649400  0.87202300  0.31332100  1
  K  K3  1  0.81261000  0.36908400  0.18745400  1
  Na  Na0  1  0.22773300  0.00004200  0.22771500  1
  Na  Na1  1  0.27035100  0.50000900  0.27030800  1
  Na  Na2  1  0.72968000  0.50000900  0.72965000  1
  Na  Na3  1  0.77219800  0.00004200  0.77216000  1
  Na  Na4  1  0.22359500  0.74910900  0.27844800  1
  Na  Na5  1  0.77630900  0.25092600  0.72146400  1
  Na  Na6  1  0.72153600  0.74912800  0.77631400  1
  Na  Na7  1  0.27852900  0.25093100  0.22366200  1
  Ni  Ni0  1  0.75213600  0.62371600  0.24790000  1
  Ni  Ni1  1  0.24807600  0.37613000  0.75191900  1
  Ni  Ni2  1  0.25167800  0.87619100  0.74846900  1
  Ni  Ni3  1  0.74838100  0.12381800  0.25200100  1
  O  O0  1  0.08243300  0.86266800  0.91755200  1
  O  O1  1  0.58251800  0.63603600  0.41748900  1
  O  O2  1  0.41757000  0.36393900  0.58249300  1
  O  O3  1  0.91735700  0.13736400  0.08259800  1
  O  O4  1  0.42052400  0.88639400  0.57937900  1
  O  O5  1  0.57924900  0.11363900  0.42075400  1
  O  O6  1  0.07914100  0.38467700  0.92095500  1
  O  O7  1  0.92094200  0.61531200  0.07899400  1
loop_
_geom_bond_atom_site_label_1
_geom_bond_atom_site_label_2
_geom_bond_distance
_geom_bond_site_symmetry_2
K0 O7 2.833093 1_456
K0 O0 3.087609 1_555
K0 Ni2 3.133054 1_555
K0 Ni0 3.212427 1_455
K0 Ni0 3.212623 1_556
K0 Ni1 3.232466 1_555
K1 O5 2.821914 1_555
K2 O4 2.824577 1_555
K3 O6 2.833024 1_654
K3 O3 3.085690 1_555
K3 Ni3 3.133005 1_555
K3 Ni1 3.212004 1_655
K3 Ni1 3.212438 1_554
K3 Ni0 3.230952 1_555
Na0 O5 2.374426 1_555
Na0 O4 2.375748 1_545
Na0 O0 2.390224 1_544
Na0 O3 2.390961 1_455
Na1 O6 2.372004 1_554
Na1 O7 2.372438 1_455
Na1 O1 2.392989 1_555
Na1 O2 2.393852 1_555
Na2 O7 2.371770 1_556
Na2 O6 2.372865 1_655
Na2 O2 2.393151 1_555
Na2 O1 2.393384 1_555
Na3 O5 2.374355 1_555
Na3 O4 2.375368 1_545
Na3 O3 2.390812 1_556
Na3 O0 2.390877 1_645
Na4 O7 2.359165 1_455
Na4 O4 2.377773 1_555
Na4 O1 2.400680 1_555
Na4 O0 2.420085 1_554
Na5 O6 2.359390 1_655
Na5 O5 2.377181 1_555
Na5 O2 2.399434 1_555
Na5 O3 2.421265 1_556
Na6 O7 2.359829 1_556
Na6 O4 2.378301 1_555
Na6 O1 2.400046 1_555
Na6 O0 2.419525 1_655
Na7 O6 2.359288 1_554
Na7 O5 2.377714 1_555
Na7 O2 2.399452 1_555
Na7 O3 2.421083 1_455
Ni0 O7 1.792446 1_555
Ni0 O1 1.803567 1_555
Ni1 O6 1.793911 1_555
Ni1 O2 1.801925 1_555
Ni2 O4 1.796408 1_555
Ni2 O0 1.802109 1_555
Ni3 O5 1.796116 1_555
Ni3 O3 1.802407 1_555
