# generated using pymatgen
data_Ca5Au4
_symmetry_space_group_name_H-M   'P 1'
_cell_length_a   7.71959369
_cell_length_b   8.06022237
_cell_length_c   8.04944097
_cell_angle_alpha   90.00000000
_cell_angle_beta   109.18246155
_cell_angle_gamma   90.00000000
_symmetry_Int_Tables_number   1
_chemical_formula_structural   Ca5Au4
_chemical_formula_sum   'Ca10 Au8'
_cell_volume   473.04076583
_cell_formula_units_Z   2
loop_
 _symmetry_equiv_pos_site_id
 _symmetry_equiv_pos_as_xyz
  1  'x, y, z'
loop_
 _atom_site_type_symbol
 _atom_site_label
 _atom_site_symmetry_multiplicity
 _atom_site_fract_x
 _atom_site_fract_y
 _atom_site_fract_z
 _atom_site_occupancy
  Ca  Ca0  1  0.06855707  0.32107179  0.69171989  1
  Ca  Ca1  1  0.56855707  0.17892821  0.69171989  1
  Ca  Ca2  1  0.43144293  0.82107179  0.30828011  1
  Ca  Ca3  1  0.25261930  0.32908606  0.25663593  1
  Ca  Ca4  1  -0.00000000  -0.00000000  -0.00000000  1
  Ca  Ca5  1  0.93144293  0.67892821  0.30828011  1
  Ca  Ca6  1  0.24738070  0.82908606  0.74336407  1
  Ca  Ca7  1  0.75261930  0.17091394  0.25663593  1
  Ca  Ca8  1  0.74738070  0.67091394  0.74336407  1
  Ca  Ca9  1  0.50000000  0.50000000  -0.00000000  1
  Au  Au0  1  0.62907392  0.86944727  0.01254151  1
  Au  Au1  1  0.85604802  0.96708023  0.58049659  1
  Au  Au2  1  0.37092608  0.13055273  0.98745849  1
  Au  Au3  1  0.35604802  0.53291977  0.58049659  1
  Au  Au4  1  0.87092608  0.36944727  0.98745849  1
  Au  Au5  1  0.64395198  0.46708023  0.41950341  1
  Au  Au6  1  0.14395198  0.03291977  0.41950341  1
  Au  Au7  1  0.12907392  0.63055273  0.01254151  1
loop_
_geom_bond_atom_site_label_1
_geom_bond_atom_site_label_2
_geom_bond_distance
_geom_bond_site_symmetry_2
Au0 Au2 2.859511 1_564
Au0 Ca6 3.047463 1_554
Au0 Ca8 3.064295 1_554
Au0 Ca7 3.072952 1_565
Au0 Ca4 3.083262 1_665
Au0 Ca9 3.131190 1_555
Au0 Ca5 3.133989 1_555
Au0 Ca2 3.245485 1_555
Au0 Ca1 3.509539 1_564
Au1 Ca7 2.960550 1_565
Au1 Au6 2.965335 1_665
Au1 Ca8 2.973830 1_555
Au1 Ca6 3.078837 1_655
Au1 Ca1 3.154093 1_565
Au1 Ca4 3.200299 1_666
Au1 Ca0 3.266282 1_665
Au1 Ca5 3.372309 1_555
Au1 Ca2 3.494325 1_555
Au2 Ca7 3.047463 1_556
Au2 Ca3 3.064295 1_556
Au2 Ca6 3.072952 1_545
Au2 Ca4 3.083262 1_556
Au2 Ca9 3.131190 1_556
Au2 Ca0 3.133989 1_555
Au2 Ca1 3.245485 1_555
Au2 Ca2 3.509539 1_546
Au3 Ca3 2.960550 1_555
Au3 Au5 2.965335 1_555
Au3 Ca6 2.973830 1_555
Au3 Ca8 3.078837 1_555
Au3 Ca0 3.154093 1_555
Au3 Ca9 3.200299 1_556
Au3 Ca1 3.266282 1_555
Au3 Ca2 3.372309 1_555
Au3 Ca5 3.494325 1_455
Au4 Au7 2.859511 1_656
Au4 Ca3 3.047463 1_656
Au4 Ca7 3.064295 1_556
Au4 Ca8 3.072952 1_555
Au4 Ca9 3.083262 1_556
Au4 Ca4 3.131190 1_656
Au4 Ca1 3.133989 1_555
Au4 Ca0 3.245485 1_655
Au4 Ca5 3.509539 1_556
Au5 Ca8 2.960550 1_555
Au5 Ca7 2.973830 1_555
Au5 Ca3 3.078837 1_555
Au5 Ca5 3.154093 1_555
Au5 Ca9 3.200299 1_555
Au5 Ca2 3.266282 1_555
Au5 Ca1 3.372309 1_555
Au5 Ca0 3.494325 1_655
Au6 Ca6 2.960550 1_545
Au6 Ca3 2.973830 1_555
Au6 Ca7 3.078837 1_455
Au6 Ca2 3.154093 1_545
Au6 Ca4 3.200299 1_555
Au6 Ca5 3.266282 1_445
Au6 Ca0 3.372309 1_555
Au6 Ca1 3.494325 1_555
Au7 Ca8 3.047463 1_454
Au7 Ca6 3.064295 1_554
Au7 Ca3 3.072952 1_555
Au7 Ca9 3.083262 1_555
Au7 Ca4 3.131190 1_565
Au7 Ca2 3.133989 1_555
Au7 Ca5 3.245485 1_455
Au7 Ca0 3.509539 1_554
