# generated using pymatgen
data_Si2Ru
_symmetry_space_group_name_H-M   'P 1'
_cell_length_a   6.48151621
_cell_length_b   6.48151563
_cell_length_c   8.17718301
_cell_angle_alpha   90.00000000
_cell_angle_beta   90.00000000
_cell_angle_gamma   102.96121310
_symmetry_Int_Tables_number   1
_chemical_formula_structural   Si2Ru
_chemical_formula_sum   'Si16 Ru8'
_cell_volume   334.77159778
_cell_formula_units_Z   8
loop_
 _symmetry_equiv_pos_site_id
 _symmetry_equiv_pos_as_xyz
  1  'x, y, z'
loop_
 _atom_site_type_symbol
 _atom_site_label
 _atom_site_symmetry_multiplicity
 _atom_site_fract_x
 _atom_site_fract_y
 _atom_site_fract_z
 _atom_site_occupancy
  Si  Si0  1  0.09517623  0.35038373  0.55611986  1
  Si  Si1  1  0.59517623  0.85038373  0.94388014  1
  Si  Si2  1  0.64961627  0.90482377  0.44388014  1
  Si  Si3  1  0.17767989  0.92391240  0.27516175  1
  Si  Si4  1  0.42391240  0.67767989  0.22483825  1
  Si  Si5  1  0.67767989  0.42391240  0.22483825  1
  Si  Si6  1  0.35038373  0.09517623  0.55611986  1
  Si  Si7  1  0.82232011  0.07608760  0.72483725  1
  Si  Si8  1  0.92391240  0.17767989  0.27516175  1
  Si  Si9  1  0.07608760  0.82232011  0.72483725  1
  Si  Si10  1  0.40482377  0.14961627  0.05611986  1
  Si  Si11  1  0.57608760  0.32232011  0.77516275  1
  Si  Si12  1  0.32232011  0.57608760  0.77516275  1
  Si  Si13  1  0.14961627  0.40482377  0.05611986  1
  Si  Si14  1  0.85038373  0.59517623  0.94388014  1
  Si  Si15  1  0.90482377  0.64961627  0.44388014  1
  Ru  Ru0  1  0.28499913  0.71500087  0.50000000  1
  Ru  Ru1  1  0.21500087  0.78499913  0.00000000  1
  Ru  Ru2  1  0.31133190  0.31133190  0.31729282  1
  Ru  Ru3  1  0.71500087  0.28499913  0.50000000  1
  Ru  Ru4  1  0.81133190  0.81133190  0.18270718  1
  Ru  Ru5  1  0.68866810  0.68866810  0.68270718  1
  Ru  Ru6  1  0.78499913  0.21500087  0.00000000  1
  Ru  Ru7  1  0.18866810  0.18866810  0.81729282  1
loop_
_geom_bond_atom_site_label_1
_geom_bond_atom_site_label_2
_geom_bond_distance
_geom_bond_site_symmetry_2
Si0 Si12 2.559232 1_555
Si0 Si6 2.588376 1_555
Si0 Si7 2.604112 1_455
Si0 Si15 2.683197 1_455
Si0 Si8 2.684416 1_455
Si1 Si7 2.559232 1_565
Si1 Si14 2.588376 1_555
Si1 Si12 2.604112 1_555
Si1 Si10 2.683197 1_566
Si1 Si4 2.684416 1_556
Si2 Si4 2.559226 1_555
Si2 Si8 2.604116 1_565
Si2 Si6 2.683197 1_565
Si2 Si7 2.684409 1_565
Si3 Si4 2.531026 1_555
Si3 Si8 2.573771 1_465
Si3 Si6 2.684416 1_565
Si4 Si5 2.573771 1_555
Si5 Si8 2.531026 1_555
Si6 Si9 2.604112 1_545
Si7 Si9 2.573771 1_645
Si10 Si3 2.559226 1_545
Si10 Si13 2.588376 1_555
Si10 Si5 2.604116 1_555
Si10 Si11 2.684409 1_554
Si11 Si7 2.531029 1_555
Si11 Si6 2.559232 1_555
Si11 Si12 2.573771 1_555
Si11 Si14 2.604112 1_555
Si12 Si9 2.531029 1_555
Si12 Si13 2.684409 1_556
Si13 Si8 2.559226 1_455
Si13 Si4 2.604116 1_555
Si13 Si14 2.683197 1_454
Si14 Si9 2.559232 1_655
Si14 Si5 2.684416 1_556
Si15 Si5 2.559226 1_555
Si15 Si2 2.588376 1_555
Si15 Si3 2.604116 1_655
Si15 Si9 2.684409 1_655
Ru0 Si6 2.448183 1_565
Ru0 Si15 2.448183 1_455
Ru0 Si0 2.450524 1_555
Ru0 Si2 2.450524 1_555
Ru0 Si4 2.455523 1_555
Ru0 Si12 2.455530 1_555
Ru0 Si9 2.473875 1_555
Ru0 Si3 2.473881 1_555
Ru1 Si13 2.448183 1_555
Ru1 Si1 2.448183 1_554
Ru1 Si10 2.450524 1_565
Ru1 Si14 2.450524 1_454
Ru1 Si3 2.455523 1_555
Ru1 Si9 2.455530 1_554
Ru1 Si12 2.473875 1_554
Ru1 Si4 2.473881 1_555
Ru2 Si4 2.442331 1_555
Ru2 Si5 2.442331 1_555
Ru2 Si6 2.449476 1_555
Ru2 Si0 2.449476 1_555
Ru2 Si3 2.489734 1_545
Ru2 Si8 2.489735 1_455
Ru2 Si10 2.512330 1_555
Ru2 Si13 2.512330 1_555
Ru3 Si2 2.448183 1_545
Ru3 Si0 2.448183 1_655
Ru3 Si15 2.450524 1_555
Ru3 Si6 2.450524 1_555
Ru3 Si5 2.455523 1_555
Ru3 Si11 2.455530 1_555
Ru3 Si7 2.473875 1_555
Ru3 Si8 2.473881 1_555
Ru4 Si8 2.442331 1_565
Ru4 Si3 2.442331 1_655
Ru4 Si14 2.449476 1_554
Ru4 Si1 2.449476 1_554
Ru4 Si5 2.489734 1_555
Ru4 Si4 2.489735 1_555
Ru4 Si15 2.512330 1_555
Ru4 Si2 2.512330 1_555
Ru5 Si11 2.442334 1_555
Ru5 Si12 2.442334 1_555
Ru5 Si2 2.449476 1_555
Ru5 Si15 2.449476 1_555
Ru5 Si7 2.489733 1_565
Ru5 Si9 2.489733 1_655
Ru5 Si1 2.512330 1_555
Ru5 Si14 2.512330 1_555
Ru6 Si14 2.448183 1_554
Ru6 Si10 2.448183 1_555
Ru6 Si1 2.450524 1_544
Ru6 Si13 2.450524 1_655
Ru6 Si8 2.455523 1_555
Ru6 Si7 2.455530 1_554
Ru6 Si11 2.473875 1_554
Ru6 Si5 2.473881 1_555
Ru7 Si9 2.442334 1_545
Ru7 Si7 2.442334 1_455
Ru7 Si13 2.449476 1_556
Ru7 Si10 2.449476 1_556
Ru7 Si12 2.489733 1_555
Ru7 Si11 2.489733 1_555
Ru7 Si0 2.512330 1_555
Ru7 Si6 2.512330 1_555
