# generated using pymatgen
data_BaNb7O9
_symmetry_space_group_name_H-M   'P 1'
_cell_length_a   4.23371679
_cell_length_b   4.23371679
_cell_length_c   12.52942795
_cell_angle_alpha   90.00000000
_cell_angle_beta   90.00000000
_cell_angle_gamma   90.00000000
_symmetry_Int_Tables_number   1
_chemical_formula_structural   BaNb7O9
_chemical_formula_sum   'Ba1 Nb7 O9'
_cell_volume   224.58195033
_cell_formula_units_Z   1
loop_
 _symmetry_equiv_pos_site_id
 _symmetry_equiv_pos_as_xyz
  1  'x, y, z'
loop_
 _atom_site_type_symbol
 _atom_site_label
 _atom_site_symmetry_multiplicity
 _atom_site_fract_x
 _atom_site_fract_y
 _atom_site_fract_z
 _atom_site_occupancy
  Ba  Ba0  1  -0.00000000  0.00000000  0.00000000  1
  Nb  Nb0  1  0.50000000  0.50000000  0.50000000  1
  Nb  Nb1  1  0.50000000  -0.00000000  0.32859399  1
  Nb  Nb2  1  -0.00000000  0.50000000  0.32859399  1
  Nb  Nb3  1  0.50000000  0.00000000  0.67140601  1
  Nb  Nb4  1  0.00000000  0.50000000  0.67140601  1
  Nb  Nb5  1  0.50000000  0.50000000  0.16877198  1
  Nb  Nb6  1  0.50000000  0.50000000  0.83122802  1
  O  O0  1  -0.00000000  0.50000000  0.50000000  1
  O  O1  1  0.50000000  0.00000000  0.50000000  1
  O  O2  1  0.00000000  0.00000000  0.33495196  1
  O  O3  1  -0.00000000  -0.00000000  0.66504804  1
  O  O4  1  -0.00000000  0.50000000  0.16039034  1
  O  O5  1  0.50000000  -0.00000000  0.16039034  1
  O  O6  1  0.00000000  0.50000000  0.83960966  1
  O  O7  1  0.50000000  0.00000000  0.83960966  1
  O  O8  1  0.50000000  0.50000000  0.00000000  1
loop_
_geom_bond_atom_site_label_1
_geom_bond_atom_site_label_2
_geom_bond_distance
_geom_bond_site_symmetry_2
Ba0 O6 2.918832 1_554
Ba0 O5 2.918832 1_455
Ba0 O7 2.918832 1_554
Ba0 O4 2.918832 1_555
Ba0 O6 2.918832 1_544
Ba0 O5 2.918832 1_555
Ba0 O4 2.918832 1_545
Ba0 O7 2.918832 1_454
Ba0 O8 2.993690 1_555
Ba0 O8 2.993690 1_445
Ba0 O8 2.993690 1_545
Ba0 O8 2.993690 1_455
Nb0 O1 2.116858 1_565
Nb0 O1 2.116858 1_555
Nb0 O0 2.116858 1_555
Nb0 O0 2.116858 1_655
Nb1 O5 2.107496 1_555
Nb1 O2 2.118357 1_655
Nb1 O2 2.118357 1_555
Nb1 O1 2.147619 1_555
Nb2 O4 2.107496 1_555
Nb2 O2 2.118357 1_555
Nb2 O2 2.118357 1_565
Nb2 O0 2.147619 1_555
Nb3 O7 2.107496 1_555
Nb3 O3 2.118357 1_555
Nb3 O3 2.118357 1_655
Nb3 O1 2.147619 1_555
Nb4 O6 2.107496 1_555
Nb4 O3 2.118357 1_555
Nb4 O3 2.118357 1_565
Nb4 O0 2.147619 1_555
Nb5 O8 2.114616 1_555
Nb5 O4 2.119462 1_655
Nb5 O5 2.119462 1_555
Nb5 O5 2.119462 1_565
Nb5 O4 2.119462 1_555
Nb6 O8 2.114616 1_556
Nb6 O7 2.119462 1_565
Nb6 O6 2.119462 1_555
Nb6 O7 2.119462 1_555
Nb6 O6 2.119462 1_655
