# generated using pymatgen
data_K6NaAu2IO8
_symmetry_space_group_name_H-M   'P 1'
_cell_length_a   9.76852139
_cell_length_b   7.05014735
_cell_length_c   11.95392736
_cell_angle_alpha   57.19191319
_cell_angle_beta   90.00000000
_cell_angle_gamma   90.00000000
_symmetry_Int_Tables_number   1
_chemical_formula_structural   K6NaAu2IO8
_chemical_formula_sum   'K12 Na2 Au4 I2 O16'
_cell_volume   691.94290424
_cell_formula_units_Z   2
loop_
 _symmetry_equiv_pos_site_id
 _symmetry_equiv_pos_as_xyz
  1  'x, y, z'
loop_
 _atom_site_type_symbol
 _atom_site_label
 _atom_site_symmetry_multiplicity
 _atom_site_fract_x
 _atom_site_fract_y
 _atom_site_fract_z
 _atom_site_occupancy
  K  K0  1  0.66301249  0.98938089  0.41090837  1
  K  K1  1  0.35583436  0.00000000  0.25000000  1
  K  K2  1  0.81917894  0.46989821  0.41209710  1
  K  K3  1  0.15630337  0.50000000  0.25000000  1
  K  K4  1  0.33698751  0.98938089  0.91090837  1
  K  K5  1  0.84369663  0.50000000  0.75000000  1
  K  K6  1  0.18082106  0.46989821  0.91209710  1
  K  K7  1  0.66301249  0.01061911  0.08909163  1
  K  K8  1  0.64416564  0.00000000  0.75000000  1
  K  K9  1  0.33698751  0.01061911  0.58909163  1
  K  K10  1  0.18082106  0.53010179  0.58790290  1
  K  K11  1  0.81917894  0.53010179  0.08790290  1
  Na  Na0  1  0.50623983  0.50000000  0.75000000  1
  Na  Na1  1  0.49376017  0.50000000  0.25000000  1
  Au  Au0  1  0.04577043  0.00000000  0.75000000  1
  Au  Au1  1  0.95422957  0.00000000  0.25000000  1
  Au  Au2  1  -0.00000000  0.00000000  0.50000000  1
  Au  Au3  1  -0.00000000  0.00000000  -0.00000000  1
  I  I0  1  0.50000000  0.50000000  0.50000000  1
  I  I1  1  0.50000000  0.50000000  -0.00000000  1
  O  O0  1  0.57178939  0.73712427  0.01398651  1
  O  O1  1  0.05618585  0.78301255  0.68951061  1
  O  O2  1  0.94381415  0.21698745  0.31048939  1
  O  O3  1  0.41928132  0.71072127  0.83381864  1
  O  O4  1  0.66095311  0.49721152  0.59141992  1
  O  O5  1  0.33904689  0.50278848  0.40858008  1
  O  O6  1  0.42821061  0.73712427  0.51398651  1
  O  O7  1  0.58071868  0.71072127  0.33381864  1
  O  O8  1  0.57178939  0.26287573  0.48601349  1
  O  O9  1  0.58071868  0.28927873  0.16618136  1
  O  O10  1  0.05618585  0.21698745  0.81048939  1
  O  O11  1  0.94381415  0.78301255  0.18951061  1
  O  O12  1  0.41928132  0.28927873  0.66618136  1
  O  O13  1  0.33904689  0.49721152  0.09141992  1
  O  O14  1  0.66095311  0.50278848  0.90858008  1
  O  O15  1  0.42821061  0.26287573  0.98601349  1
loop_
_geom_bond_atom_site_label_1
_geom_bond_atom_site_label_2
_geom_bond_distance
_geom_bond_site_symmetry_2
K0 O9 2.640470 1_565
K0 O8 2.682153 1_565
K0 O7 2.704983 1_555
K0 O6 2.750885 1_555
K0 O4 2.929654 1_555
K0 O2 3.074519 1_565
K1 O6 2.748676 1_545
K1 O15 2.748676 1_554
K1 O9 2.788331 1_555
K1 O7 2.788331 1_545
K1 O5 2.950829 1_545
K1 O13 2.950829 1_555
K2 O11 2.658966 1_555
K2 O8 2.711747 1_555
K2 O7 2.731803 1_555
K2 O4 2.732845 1_555
K2 O2 2.912693 1_555
K3 O13 2.611701 1_555
K3 O5 2.611701 1_555
K3 O2 2.692415 1_455
K3 O11 2.692415 1_455
K4 O12 2.640470 1_565
K4 O15 2.682153 1_565
K4 O3 2.704983 1_555
K4 O0 2.750885 1_556
K4 O13 2.929654 1_556
K4 O10 3.074519 1_565
K5 O4 2.611701 1_555
K5 O14 2.611701 1_555
K5 O1 2.692415 1_655
K5 O10 2.692415 1_655
K6 O1 2.658966 1_555
K6 O15 2.711747 1_555
K6 O3 2.731803 1_555
K6 O13 2.732845 1_556
K6 O10 2.912693 1_555
K7 O7 2.640470 1_545
K7 O0 2.682153 1_545
K7 O9 2.704983 1_555
K7 O15 2.750885 1_554
K7 O14 2.929654 1_554
K7 O11 3.074519 1_545
K8 O8 2.748676 1_555
K8 O0 2.748676 1_546
K8 O3 2.788331 1_545
K8 O12 2.788331 1_555
K8 O14 2.950829 1_545
K8 O4 2.950829 1_555
K9 O3 2.640470 1_545
K9 O6 2.682153 1_545
K9 O12 2.704983 1_555
K9 O8 2.750885 1_555
K9 O5 2.929654 1_555
K9 O1 3.074519 1_545
K10 O10 2.658966 1_555
K10 O6 2.711747 1_555
K10 O12 2.731803 1_555
K10 O5 2.732845 1_555
K10 O1 2.912693 1_555
K11 O2 2.658966 1_555
K11 O0 2.711747 1_555
K11 O9 2.731803 1_555
K11 O14 2.732845 1_554
K11 O11 2.912693 1_555
Na0 O3 2.354912 1_555
Na0 O12 2.354912 1_555
Na0 O14 2.432769 1_555
Na0 O4 2.432769 1_555
Na0 O6 2.494869 1_555
Na0 O15 2.494869 1_555
Na1 O7 2.354912 1_555
Na1 O9 2.354912 1_555
Na1 O5 2.432769 1_555
Na1 O13 2.432769 1_555
Na1 O0 2.494869 1_555
Na1 O8 2.494869 1_555
Au0 O10 2.017964 1_555
Au0 O1 2.017964 1_545
Au1 O2 2.017964 1_555
Au1 O11 2.017964 1_545
Au2 O1 2.004502 1_545
Au2 O2 2.004502 1_455
Au3 O11 2.004502 1_445
Au3 O10 2.004502 1_554
I0 O12 1.891287 1_555
I0 O7 1.891287 1_555
I0 O8 1.901951 1_555
I0 O6 1.901951 1_555
I0 O5 1.908775 1_555
I0 O4 1.908775 1_555
I1 O3 1.891287 1_554
I1 O9 1.891287 1_555
I1 O15 1.901951 1_554
I1 O0 1.901951 1_555
I1 O13 1.908775 1_555
I1 O14 1.908775 1_554
