# generated using pymatgen
data_ZrP2H4O9
_symmetry_space_group_name_H-M   'P 1'
_cell_length_a   5.47876600
_cell_length_b   9.50830800
_cell_length_c   15.85142004
_cell_angle_alpha   71.24064390
_cell_angle_beta   90.00000000
_cell_angle_gamma   90.00000000
_symmetry_Int_Tables_number   1
_chemical_formula_structural   ZrP2H4O9
_chemical_formula_sum   'Zr4 P8 H16 O36'
_cell_volume   781.89425627
_cell_formula_units_Z   4
loop_
 _symmetry_equiv_pos_site_id
 _symmetry_equiv_pos_as_xyz
  1  'x, y, z'
loop_
 _atom_site_type_symbol
 _atom_site_label
 _atom_site_symmetry_multiplicity
 _atom_site_fract_x
 _atom_site_fract_y
 _atom_site_fract_z
 _atom_site_occupancy
  Zr  Zr0  1  0.74974700  0.24085500  0.02695300  1
  Zr  Zr1  1  0.24974700  0.75914500  0.47304700  1
  Zr  Zr2  1  0.25025300  0.75914500  0.97304700  1
  Zr  Zr3  1  0.75025300  0.24085500  0.52695300  1
  P  P0  1  0.23730500  0.99521000  0.10710000  1
  P  P1  1  0.73730500  0.00479000  0.39290000  1
  P  P2  1  0.76269500  0.00479000  0.89290000  1
  P  P3  1  0.26269500  0.99521000  0.60710000  1
  P  P4  1  0.73341900  0.58025300  0.10633900  1
  P  P5  1  0.23341900  0.41974700  0.39366100  1
  P  P6  1  0.26658100  0.41974700  0.89366100  1
  P  P7  1  0.76658100  0.58025300  0.60633900  1
  H  H0  1  0.53964800  0.81682200  0.22798300  1
  H  H1  1  0.03964800  0.18317800  0.27201700  1
  H  H2  1  0.46035200  0.18317800  0.77201700  1
  H  H3  1  0.96035200  0.81682200  0.72798300  1
  H  H4  1  0.68504800  0.66568300  0.21450900  1
  H  H5  1  0.18504800  0.33431700  0.28549100  1
  H  H6  1  0.31495200  0.33431700  0.78549100  1
  H  H7  1  0.81495200  0.66568300  0.71450900  1
  H  H8  1  0.71258200  0.14206700  0.24261700  1
  H  H9  1  0.21258200  0.85793300  0.25738300  1
  H  H10  1  0.28741800  0.85793300  0.75738300  1
  H  H11  1  0.78741800  0.14206700  0.74261700  1
  H  H12  1  0.04908200  0.33574800  0.18894500  1
  H  H13  1  0.54908200  0.66425200  0.31105500  1
  H  H14  1  0.95091800  0.66425200  0.81105500  1
  H  H15  1  0.45091800  0.33574800  0.68894500  1
  O  O0  1  0.19987600  0.86524300  0.07177400  1
  O  O1  1  0.69987600  0.13475700  0.42822600  1
  O  O2  1  0.80012400  0.13475700  0.92822600  1
  O  O3  1  0.30012400  0.86524300  0.57177400  1
  O  O4  1  0.00103900  0.08112500  0.10722800  1
  O  O5  1  0.50103900  0.91887500  0.39277200  1
  O  O6  1  0.99896100  0.91887500  0.89277200  1
  O  O7  1  0.49896100  0.08112500  0.60722800  1
  O  O8  1  0.45025400  0.09367600  0.06272800  1
  O  O9  1  0.95025400  0.90632400  0.43727200  1
  O  O10  1  0.54974600  0.90632400  0.93727200  1
  O  O11  1  0.04974600  0.09367600  0.56272800  1
  O  O12  1  0.32532300  0.92441500  0.20963400  1
  O  O13  1  0.82532300  0.07558500  0.29036600  1
  O  O14  1  0.67467700  0.07558500  0.79036600  1
  O  O15  1  0.17467700  0.92441500  0.70963400  1
  O  O16  1  0.94351900  0.63988000  0.03942300  1
  O  O17  1  0.44351900  0.36012000  0.46057700  1
  O  O18  1  0.05648100  0.36012000  0.96057700  1
  O  O19  1  0.55648100  0.63988000  0.53942300  1
  O  O20  1  0.48383000  0.59871600  0.05693400  1
  O  O21  1  0.98383000  0.40128400  0.44306600  1
  O  O22  1  0.51617000  0.40128400  0.94306600  1
  O  O23  1  0.01617000  0.59871600  0.55693400  1
  O  O24  1  0.63191500  0.27044100  0.14922600  1
  O  O25  1  0.13191500  0.72955900  0.35077400  1
  O  O26  1  0.36808500  0.72955900  0.85077400  1
  O  O27  1  0.86808500  0.27044100  0.64922600  1
  O  O28  1  0.82288500  0.38756800  0.11867900  1
  O  O29  1  0.32288500  0.61243200  0.38132100  1
  O  O30  1  0.17711500  0.61243200  0.88132100  1
  O  O31  1  0.67711500  0.38756800  0.61867900  1
  O  O32  1  0.15102700  0.27489300  0.24238100  1
  O  O33  1  0.65102700  0.72510700  0.25761900  1
  O  O34  1  0.84897300  0.72510700  0.75761900  1
  O  O35  1  0.34897300  0.27489300  0.74238100  1
loop_
_geom_bond_atom_site_label_1
_geom_bond_atom_site_label_2
_geom_bond_distance
_geom_bond_site_symmetry_2
H0 O33 1.044050 1_555
H0 O12 1.522705 1_555
H1 O32 1.044050 1_555
H1 O13 1.522705 1_455
H2 O35 1.044050 1_555
H2 O14 1.522705 1_555
H3 O34 1.044050 1_555
H3 O15 1.522705 1_655
H4 O33 1.034073 1_555
H5 O32 1.034073 1_555
H6 O35 1.034073 1_555
H7 O34 1.034073 1_555
H8 O13 1.022872 1_555
H8 O24 1.647584 1_555
H9 O12 1.022872 1_555
H9 O25 1.647584 1_555
H10 O15 1.022872 1_555
H10 O26 1.647584 1_555
H11 O14 1.022872 1_555
H11 O27 1.647584 1_555
H12 O32 1.024208 1_555
H12 O28 1.632848 1_455
H13 O33 1.024208 1_555
H13 O29 1.632848 1_555
H14 O34 1.024208 1_555
H14 O30 1.632848 1_655
H15 O35 1.024208 1_555
H15 O31 1.632848 1_555
O0 P0 1.525717 1_555
O0 Zr2 2.135047 1_554
O1 P1 1.525717 1_555
O1 Zr3 2.135047 1_555
O2 P2 1.525717 1_555
O2 Zr0 2.135047 1_556
O3 P3 1.525717 1_555
O3 Zr1 2.135047 1_555
O4 P0 1.531012 1_545
O4 Zr0 2.139698 1_455
O5 P1 1.531012 1_565
O5 Zr1 2.139698 1_555
O6 P2 1.531012 1_565
O6 Zr2 2.139698 1_655
O7 P3 1.531012 1_545
O7 Zr3 2.139698 1_555
O8 P0 1.519507 1_545
O8 Zr0 2.112330 1_555
O9 P1 1.519507 1_565
O9 Zr1 2.112330 1_655
O10 P2 1.519507 1_565
O10 Zr2 2.112330 1_555
O11 P3 1.519507 1_545
O11 Zr3 2.112330 1_455
O12 P0 1.619755 1_555
O13 P1 1.619755 1_555
O14 P2 1.619755 1_555
O15 P3 1.619755 1_555
O16 P4 1.544266 1_555
O16 Zr2 2.109441 1_654
O17 P5 1.544266 1_555
O17 Zr3 2.109441 1_555
O18 P6 1.544266 1_555
O18 Zr0 2.109441 1_456
O19 P7 1.544266 1_555
O19 Zr1 2.109441 1_555
O20 P4 1.557431 1_555
O20 Zr2 2.104302 1_554
O21 P5 1.557431 1_655
O21 Zr3 2.104302 1_555
O22 P6 1.557431 1_555
O22 Zr0 2.104302 1_556
O23 P7 1.557431 1_455
O23 Zr1 2.104302 1_555
O24 O28 1.490839 1_555
O24 Zr0 2.145511 1_555
O25 O29 1.490839 1_555
O25 Zr1 2.145511 1_555
O26 O30 1.490839 1_555
O26 Zr2 2.145511 1_555
O27 O31 1.490839 1_555
O27 Zr3 2.145511 1_555
O28 P4 1.845167 1_555
O28 Zr0 2.350580 1_555
O29 P5 1.845167 1_555
O29 Zr1 2.350580 1_555
O30 P6 1.845167 1_555
O30 Zr2 2.350580 1_555
O31 P7 1.845167 1_555
O31 Zr3 2.350580 1_555
