# generated using pymatgen
data_TbRe2SiC
_symmetry_space_group_name_H-M   'P 1'
_cell_length_a   5.79696994
_cell_length_b   5.79696994
_cell_length_c   7.31548200
_cell_angle_alpha   90.00000000
_cell_angle_beta   90.00000000
_cell_angle_gamma   140.05795948
_symmetry_Int_Tables_number   1
_chemical_formula_structural   TbRe2SiC
_chemical_formula_sum   'Tb2 Re4 Si2 C2'
_cell_volume   157.82959187
_cell_formula_units_Z   2
loop_
 _symmetry_equiv_pos_site_id
 _symmetry_equiv_pos_as_xyz
  1  'x, y, z'
loop_
 _atom_site_type_symbol
 _atom_site_label
 _atom_site_symmetry_multiplicity
 _atom_site_fract_x
 _atom_site_fract_y
 _atom_site_fract_z
 _atom_site_occupancy
  Tb  Tb0  1  0.45740900  0.54259100  0.75000000  1
  Tb  Tb1  1  0.54259100  0.45740900  0.25000000  1
  Re  Re0  1  0.17468800  0.82531200  0.56036100  1
  Re  Re1  1  0.82531200  0.17468800  0.43963900  1
  Re  Re2  1  0.82531200  0.17468800  0.06036100  1
  Re  Re3  1  0.17468800  0.82531200  0.93963900  1
  Si  Si0  1  0.73480000  0.26520000  0.75000000  1
  Si  Si1  1  0.26520000  0.73480000  0.25000000  1
  C  C0  1  0.00000000  0.00000000  0.00000000  1
  C  C1  1  0.00000000  0.00000000  0.50000000  1
loop_
_geom_bond_atom_site_label_1
_geom_bond_atom_site_label_2
_geom_bond_distance
_geom_bond_site_symmetry_2
Re0 Si1 2.475411 1_555
Re0 Si0 2.504748 1_455
Re0 Si0 2.504748 1_565
Re1 Si0 2.475411 1_555
Re1 Si1 2.504748 1_545
Re1 Si1 2.504748 1_655
Re2 Si0 2.475411 1_554
Re2 Si1 2.504748 1_545
Re2 Si1 2.504748 1_655
Re3 Si1 2.475411 1_556
Re3 Si0 2.504748 1_455
Re3 Si0 2.504748 1_565
Si0 Tb0 3.022659 1_555
Si0 Tb0 3.131164 1_655
Si0 Tb0 3.131164 1_545
Si1 Tb1 3.022659 1_555
Si1 Tb1 3.131164 1_565
Si1 Tb1 3.131164 1_455
C0 Re2 1.954076 1_455
C0 Re3 1.954076 1_544
C0 Tb0 2.735007 1_554
C0 Tb1 2.735007 1_555
C0 Tb0 2.735007 1_444
C0 Tb1 2.735007 1_445
C1 Re1 1.954076 1_455
C1 Re0 1.954076 1_545
C1 Tb0 2.735007 1_555
C1 Tb1 2.735007 1_555
C1 Tb0 2.735007 1_445
C1 Tb1 2.735007 1_445
