# generated using pymatgen
data_Mg2SiO4
_symmetry_space_group_name_H-M   'P 1'
_cell_length_a   7.69256142
_cell_length_b   7.69256142
_cell_length_c   7.69256142
_cell_angle_alpha   135.99833276
_cell_angle_beta   114.20444992
_cell_angle_gamma   82.57007843
_symmetry_Int_Tables_number   1
_chemical_formula_structural   Mg2SiO4
_chemical_formula_sum   'Mg8 Si4 O16'
_cell_volume   278.40016099
_cell_formula_units_Z   4
loop_
 _symmetry_equiv_pos_site_id
 _symmetry_equiv_pos_as_xyz
  1  'x, y, z'
loop_
 _atom_site_type_symbol
 _atom_site_label
 _atom_site_symmetry_multiplicity
 _atom_site_fract_x
 _atom_site_fract_y
 _atom_site_fract_z
 _atom_site_occupancy
  Mg  Mg0  1  0.50000000  0.50000000  0.00000000  1
  Mg  Mg1  1  0.00000000  0.00000000  0.00000000  1
  Mg  Mg2  1  0.28021000  0.25000000  0.03021000  1
  Mg  Mg3  1  0.71979000  0.75000000  0.96979000  1
  Mg  Mg4  1  0.12244000  0.12244000  0.50000000  1
  Mg  Mg5  1  0.87756000  0.37756000  0.00000000  1
  Mg  Mg6  1  0.87756000  0.87756000  0.50000000  1
  Mg  Mg7  1  0.12244000  0.62244000  0.00000000  1
  Si  Si0  1  0.76385900  0.38033900  0.38352000  1
  Si  Si1  1  0.23614100  0.61966100  0.61648000  1
  Si  Si2  1  0.50318200  0.11966100  0.38352000  1
  Si  Si3  1  0.49681800  0.88033900  0.61648000  1
  O  O0  1  0.12995900  0.38387600  0.26852600  1
  O  O1  1  0.87004100  0.13856600  0.25391600  1
  O  O2  1  0.38465000  0.11612400  0.74608400  1
  O  O3  1  0.61535000  0.36143400  0.73147400  1
  O  O4  1  0.87004100  0.61612400  0.73147400  1
  O  O5  1  0.12995900  0.86143400  0.74608400  1
  O  O6  1  0.61535000  0.88387600  0.25391600  1
  O  O7  1  0.38465000  0.63856600  0.26852600  1
  O  O8  1  0.26558500  0.01007200  0.25551300  1
  O  O9  1  0.73441500  0.98992800  0.74448700  1
  O  O10  1  0.74544200  0.48992800  0.25551300  1
  O  O11  1  0.25455800  0.51007200  0.74448700  1
  O  O12  1  0.03397700  0.25000000  0.78397700  1
  O  O13  1  0.96602300  0.75000000  0.21602300  1
  O  O14  1  0.53371100  0.25000000  0.28371100  1
  O  O15  1  0.46628900  0.75000000  0.71628900  1
loop_
_geom_bond_atom_site_label_1
_geom_bond_atom_site_label_2
_geom_bond_distance
_geom_bond_site_symmetry_2
Mg0 O6 2.069107 1_555
Mg0 O7 2.069107 1_555
Mg0 O2 2.069107 1_554
Mg0 O3 2.069107 1_554
Mg0 O11 2.138321 1_554
Mg0 O10 2.138321 1_555
Mg1 O1 2.069101 1_455
Mg1 O5 2.069101 1_544
Mg1 O0 2.069105 1_555
Mg1 O4 2.069105 1_444
Mg1 O9 2.138317 1_444
Mg1 O8 2.138317 1_555
Mg2 O12 2.057598 1_554
Mg2 O7 2.114432 1_555
Mg2 O2 2.114432 1_554
Mg2 O5 2.114434 1_544
Mg2 O0 2.114438 1_555
Mg2 O14 2.118331 1_555
Mg3 O13 2.057598 1_556
Mg3 O3 2.114432 1_555
Mg3 O6 2.114432 1_556
Mg3 O1 2.114434 1_566
Mg3 O4 2.114438 1_555
Mg3 O15 2.118331 1_555
Mg4 O13 2.039728 1_445
Mg4 O12 2.039728 1_555
Mg4 O11 2.147106 1_555
Mg4 O8 2.147108 1_555
Mg4 O1 2.151834 1_455
Mg4 O2 2.151839 1_555
Mg5 O13 2.039728 1_555
Mg5 O12 2.039728 1_654
Mg5 O10 2.147102 1_555
Mg5 O9 2.147108 1_544
Mg5 O0 2.151835 1_655
Mg5 O3 2.151839 1_554
Mg6 O12 2.039728 1_665
Mg6 O13 2.039728 1_555
Mg6 O10 2.147106 1_555
Mg6 O9 2.147108 1_555
Mg6 O5 2.151834 1_655
Mg6 O6 2.151839 1_555
Mg7 O13 2.039728 1_455
Mg7 O12 2.039728 1_554
Mg7 O11 2.147102 1_554
Mg7 O8 2.147108 1_565
Mg7 O4 2.151835 1_454
Mg7 O7 2.151839 1_555
O0 Si1 1.651506 1_555
O1 Si0 1.651511 1_555
O2 Si3 1.651501 1_545
O3 Si2 1.651506 1_555
O4 Si0 1.651506 1_555
O5 Si1 1.651511 1_555
O6 Si2 1.651501 1_565
O7 Si3 1.651506 1_555
O8 Si2 1.658124 1_555
O9 Si3 1.658124 1_555
O10 Si0 1.658119 1_555
O11 Si1 1.658119 1_555
O14 Si2 1.722259 1_555
O14 Si0 1.722262 1_555
O15 Si3 1.722259 1_555
O15 Si1 1.722262 1_555
