# generated using pymatgen
data_Tb4Mg3Co2
_symmetry_space_group_name_H-M   'P 1'
_cell_length_a   3.60894356
_cell_length_b   7.59295316
_cell_length_c   8.37983635
_cell_angle_alpha   109.17091522
_cell_angle_beta   90.00000000
_cell_angle_gamma   90.00000000
_symmetry_Int_Tables_number   1
_chemical_formula_structural   Tb4Mg3Co2
_chemical_formula_sum   'Tb4 Mg3 Co2'
_cell_volume   216.89431511
_cell_formula_units_Z   1
loop_
 _symmetry_equiv_pos_site_id
 _symmetry_equiv_pos_as_xyz
  1  'x, y, z'
loop_
 _atom_site_type_symbol
 _atom_site_label
 _atom_site_symmetry_multiplicity
 _atom_site_fract_x
 _atom_site_fract_y
 _atom_site_fract_z
 _atom_site_occupancy
  Tb  Tb0  1  0.50000000  0.39431803  0.17816557  1
  Tb  Tb1  1  0.50000000  0.60568197  0.82183443  1
  Tb  Tb2  1  0.50000000  0.90512888  0.27619544  1
  Tb  Tb3  1  0.50000000  0.09487112  0.72380456  1
  Mg  Mg0  1  -0.00000000  0.29469449  0.50128598  1
  Mg  Mg1  1  -0.00000000  -0.00000000  0.00000000  1
  Mg  Mg2  1  -0.00000000  0.70530551  0.49871402  1
  Co  Co0  1  0.00000000  0.35246423  0.89831360  1
  Co  Co1  1  0.00000000  0.64753577  0.10168640  1
loop_
_geom_bond_atom_site_label_1
_geom_bond_atom_site_label_2
_geom_bond_distance
_geom_bond_site_symmetry_2
Mg0 Mg2 3.124894 1_555
Mg0 Tb3 3.300497 1_455
Mg0 Tb3 3.300497 1_555
Mg0 Tb1 3.446952 1_455
Mg0 Tb1 3.446952 1_555
Mg0 Tb2 3.449502 1_445
Mg0 Tb2 3.449502 1_545
Mg0 Tb0 3.536261 1_555
Mg0 Tb0 3.536261 1_455
Mg1 Tb3 3.197938 1_554
Mg1 Tb3 3.197938 1_454
Mg1 Tb2 3.197938 1_545
Mg1 Tb2 3.197938 1_445
Mg1 Tb0 3.393167 1_555
Mg1 Tb0 3.393167 1_455
Mg1 Tb1 3.393167 1_444
Mg1 Tb1 3.393167 1_544
Mg2 Tb2 3.300497 1_455
Mg2 Tb2 3.300497 1_555
Mg2 Tb0 3.446952 1_555
Mg2 Tb0 3.446952 1_455
Mg2 Tb3 3.449502 1_565
Mg2 Tb3 3.449502 1_465
Mg2 Tb1 3.536261 1_555
Mg2 Tb1 3.536261 1_455
Co0 Co1 2.327304 1_556
Co0 Tb3 2.709540 1_555
Co0 Tb3 2.709540 1_455
Co0 Tb1 2.858810 1_555
Co0 Tb1 2.858810 1_455
Co0 Tb0 2.892611 1_456
Co0 Tb0 2.892611 1_556
Co0 Mg1 3.063681 1_556
Co0 Mg0 3.209834 1_555
Co1 Tb2 2.709540 1_555
Co1 Tb2 2.709540 1_455
Co1 Tb0 2.858810 1_555
Co1 Tb0 2.858810 1_455
Co1 Tb1 2.892611 1_454
Co1 Tb1 2.892611 1_554
Co1 Mg1 3.063681 1_565
Co1 Mg2 3.209834 1_555
