# generated using pymatgen
data_CoGeO3
_symmetry_space_group_name_H-M   'P 1'
_cell_length_a   5.19232247
_cell_length_b   6.69275904
_cell_length_c   6.68997542
_cell_angle_alpha   85.64142762
_cell_angle_beta   81.64779130
_cell_angle_gamma   81.38299526
_symmetry_Int_Tables_number   1
_chemical_formula_structural   CoGeO3
_chemical_formula_sum   'Co4 Ge4 O12'
_cell_volume   227.07110290
_cell_formula_units_Z   4
loop_
 _symmetry_equiv_pos_site_id
 _symmetry_equiv_pos_as_xyz
  1  'x, y, z'
loop_
 _atom_site_type_symbol
 _atom_site_label
 _atom_site_symmetry_multiplicity
 _atom_site_fract_x
 _atom_site_fract_y
 _atom_site_fract_z
 _atom_site_occupancy
  Co  Co0  1  0.24927200  0.09852700  0.89980700  1
  Co  Co1  1  0.75100300  0.26231000  0.73722500  1
  Co  Co2  1  0.75124400  0.90949300  0.09506500  1
  Co  Co3  1  0.25034400  0.73294900  0.26741800  1
  Ge  Ge0  1  0.71567300  0.79236800  0.60452400  1
  Ge  Ge1  1  0.21507400  0.60661200  0.79469500  1
  Ge  Ge2  1  0.78285700  0.39566700  0.20723700  1
  Ge  Ge3  1  0.28555200  0.20568900  0.39331500  1
  O  O0  1  0.40793800  0.70826600  0.57048700  1
  O  O1  1  0.09098000  0.42930200  0.29131600  1
  O  O2  1  0.88717100  0.86166700  0.36979300  1
  O  O3  1  0.63571300  0.97280100  0.79344200  1
  O  O4  1  0.13302900  0.79628500  0.97411900  1
  O  O5  1  0.59096400  0.29109000  0.43009800  1
  O  O6  1  0.90958500  0.56959400  0.70868400  1
  O  O7  1  0.61113400  0.62997200  0.13825300  1
  O  O8  1  0.38604800  0.37194000  0.86441000  1
  O  O9  1  0.36770700  0.02537500  0.20444200  1
  O  O10  1  0.86361400  0.20468400  0.02799400  1
  O  O11  1  0.11509600  0.13541100  0.62767700  1
loop_
_geom_bond_atom_site_label_1
_geom_bond_atom_site_label_2
_geom_bond_distance
_geom_bond_site_symmetry_2
Co0 O11 2.027144 1_555
Co0 O8 2.045392 1_555
Co0 O3 2.100192 1_545
Co0 O10 2.101774 1_456
Co0 O4 2.197530 1_545
Co0 O9 2.212132 1_556
Co1 O11 2.010805 1_655
Co1 O8 2.015701 1_555
Co1 O10 2.103190 1_556
Co1 O3 2.103698 1_545
Co1 O5 2.310238 1_555
Co1 O6 2.312153 1_555
Co2 O2 2.048968 1_555
Co2 O9 2.074343 1_565
Co2 O4 2.082209 1_654
Co2 O7 2.092153 1_555
Co2 O10 2.139987 1_565
Co2 O3 2.180971 1_554
Co3 O7 1.991088 1_555
Co3 O2 1.998702 1_455
Co3 O9 2.129955 1_565
Co3 O4 2.131725 1_554
Co3 O0 2.279977 1_555
Co3 O1 2.292671 1_555
Ge0 O2 1.755235 1_555
Ge0 O3 1.776877 1_555
Ge0 O0 1.821133 1_555
Ge0 O6 1.821645 1_555
Ge1 O8 1.750300 1_555
Ge1 O4 1.776166 1_555
Ge1 O6 1.820189 1_455
Ge1 O0 1.824338 1_555
Ge2 O7 1.748613 1_555
Ge2 O10 1.781525 1_555
Ge2 O1 1.820788 1_655
Ge2 O5 1.823268 1_555
Ge3 O11 1.752803 1_555
Ge3 O9 1.776464 1_555
Ge3 O5 1.818887 1_555
Ge3 O1 1.821552 1_555
