# generated using pymatgen
data_K2CaP2O7
_symmetry_space_group_name_H-M   'P 1'
_cell_length_a   5.74548200
_cell_length_b   9.93211600
_cell_length_c   14.43303263
_cell_angle_alpha   62.37291702
_cell_angle_beta   90.00000000
_cell_angle_gamma   90.00000000
_symmetry_Int_Tables_number   1
_chemical_formula_structural   K2CaP2O7
_chemical_formula_sum   'K8 Ca4 P8 O28'
_cell_volume   729.71279674
_cell_formula_units_Z   4
loop_
 _symmetry_equiv_pos_site_id
 _symmetry_equiv_pos_as_xyz
  1  'x, y, z'
loop_
 _atom_site_type_symbol
 _atom_site_label
 _atom_site_symmetry_multiplicity
 _atom_site_fract_x
 _atom_site_fract_y
 _atom_site_fract_z
 _atom_site_occupancy
  K  K0  1  0.73108300  0.46565200  0.17788200  1
  K  K1  1  0.23800100  0.98700400  0.14005600  1
  K  K2  1  0.76891700  0.46565200  0.67788200  1
  K  K3  1  0.26891700  0.53434800  0.82211800  1
  K  K4  1  0.26199900  0.98700400  0.64005600  1
  K  K5  1  0.76199900  0.01299600  0.85994400  1
  K  K6  1  0.73800100  0.01299600  0.35994400  1
  K  K7  1  0.23108300  0.53434800  0.32211800  1
  Ca  Ca0  1  0.23842300  0.73288300  0.51831800  1
  Ca  Ca1  1  0.26157700  0.73288300  0.01831800  1
  Ca  Ca2  1  0.76157700  0.26711700  0.48168200  1
  Ca  Ca3  1  0.73842300  0.26711700  0.98168200  1
  P  P0  1  0.75516100  0.82816300  0.64144800  1
  P  P1  1  0.25516100  0.17183700  0.85855200  1
  P  P2  1  0.78007700  0.67868200  0.87413600  1
  P  P3  1  0.71992300  0.67868200  0.37413600  1
  P  P4  1  0.28007700  0.32131800  0.62586400  1
  P  P5  1  0.21992300  0.32131800  0.12586400  1
  P  P6  1  0.74483900  0.82816300  0.14144800  1
  P  P7  1  0.24483900  0.17183700  0.35855200  1
  O  O0  1  0.60301200  0.69690100  0.94633200  1
  O  O1  1  0.70400800  0.81738500  0.75768300  1
  O  O2  1  0.26194200  0.47040800  0.63240600  1
  O  O3  1  0.10301200  0.30309900  0.55366800  1
  O  O4  1  0.79599200  0.81738500  0.25768300  1
  O  O5  1  0.97092400  0.28101900  0.10927900  1
  O  O6  1  0.20400800  0.18261500  0.74231700  1
  O  O7  1  0.23676200  0.00007400  0.42963100  1
  O  O8  1  0.73805800  0.52959200  0.36759400  1
  O  O9  1  0.45507900  0.24930900  0.37877500  1
  O  O10  1  0.73676200  0.99992600  0.07036900  1
  O  O11  1  0.02907600  0.71898100  0.89072100  1
  O  O12  1  0.89698800  0.69690100  0.44633200  1
  O  O13  1  0.54492100  0.75069100  0.62122500  1
  O  O14  1  0.01243800  0.25138200  0.35243800  1
  O  O15  1  0.48756200  0.25138200  0.85243800  1
  O  O16  1  0.04492100  0.24930900  0.87877500  1
  O  O17  1  0.98756200  0.74861800  0.64756200  1
  O  O18  1  0.29599200  0.18261500  0.24231700  1
  O  O19  1  0.51243800  0.74861800  0.14756200  1
  O  O20  1  0.52907600  0.28101900  0.60927900  1
  O  O21  1  0.39698800  0.30309900  0.05366800  1
  O  O22  1  0.47092400  0.71898100  0.39072100  1
  O  O23  1  0.76194200  0.52959200  0.86759400  1
  O  O24  1  0.26323800  0.00007400  0.92963100  1
  O  O25  1  0.76323800  0.99992600  0.57036900  1
  O  O26  1  0.23805800  0.47040800  0.13240600  1
  O  O27  1  0.95507900  0.75069100  0.12122500  1
loop_
_geom_bond_atom_site_label_1
_geom_bond_atom_site_label_2
_geom_bond_distance
_geom_bond_site_symmetry_2
K0 O5 2.815326 1_555
K0 O27 2.862294 1_555
K0 O26 2.903150 1_555
K0 O14 2.918372 1_655
K0 O19 2.920206 1_555
K0 O26 2.981405 1_655
K0 O8 3.084620 1_555
K0 O9 3.124215 1_555
K0 O0 3.141127 1_554
K1 O19 2.804632 1_555
K1 O21 2.935141 1_565
K1 O18 2.953539 1_565
K1 O27 2.969282 1_455
K1 O24 2.982622 1_564
K1 O10 3.019962 1_555
K1 O10 3.033475 1_455
K1 O4 3.084990 1_455
K1 O5 3.142682 1_465
K2 O20 2.815326 1_555
K2 O13 2.862294 1_555
K2 O2 2.903150 1_655
K2 O15 2.918372 1_555
K2 O17 2.920206 1_555
K2 O2 2.981405 1_555
K2 O23 3.084620 1_555
K2 O16 3.124215 1_655
K2 O12 3.141127 1_555
K3 O11 2.815326 1_555
K3 O16 2.862294 1_555
K3 O23 2.903150 1_555
K3 O17 2.918372 1_455
K3 O15 2.920206 1_555
K3 O23 2.981405 1_455
K3 O2 3.084620 1_555
K3 O13 3.124215 1_555
K3 O21 3.141127 1_556
K4 O17 2.804632 1_455
K4 O3 2.935141 1_565
K4 O6 2.953539 1_565
K4 O13 2.969282 1_555
K4 O7 2.982622 1_565
K4 O25 3.019962 1_455
K4 O25 3.033475 1_555
K4 O1 3.084990 1_555
K4 O20 3.142682 1_565
K5 O15 2.804632 1_555
K5 O0 2.935141 1_545
K5 O1 2.953539 1_545
K5 O16 2.969282 1_655
K5 O10 2.982622 1_546
K5 O24 3.019962 1_555
K5 O24 3.033475 1_655
K5 O6 3.084990 1_655
K5 O11 3.142682 1_645
K6 O14 2.804632 1_655
K6 O12 2.935141 1_545
K6 O4 2.953539 1_545
K6 O9 2.969282 1_555
K6 O25 2.982622 1_545
K6 O7 3.019962 1_655
K6 O7 3.033475 1_555
K6 O18 3.084990 1_555
K6 O22 3.142682 1_545
K7 O22 2.815326 1_555
K7 O9 2.862294 1_555
K7 O8 2.903150 1_455
K7 O19 2.918372 1_555
K7 O14 2.920206 1_555
K7 O8 2.981405 1_555
K7 O26 3.084620 1_555
K7 O27 3.124215 1_455
K7 O3 3.141127 1_555
Ca0 O12 2.323758 1_455
Ca0 O22 2.330423 1_555
Ca0 O7 2.351740 1_565
Ca0 O2 2.354701 1_555
Ca0 O13 2.362618 1_555
Ca0 O17 2.419058 1_455
Ca1 O0 2.323758 1_554
Ca1 O11 2.330423 1_554
Ca1 O24 2.351740 1_564
Ca1 O26 2.354701 1_555
Ca1 O27 2.362618 1_455
Ca1 O19 2.419058 1_555
Ca2 O3 2.323758 1_655
Ca2 O20 2.330423 1_555
Ca2 O25 2.351740 1_545
Ca2 O8 2.354701 1_555
Ca2 O9 2.362618 1_555
Ca2 O14 2.419058 1_655
Ca3 O21 2.323758 1_556
Ca3 O5 2.330423 1_556
Ca3 O10 2.351740 1_546
Ca3 O23 2.354701 1_555
Ca3 O16 2.362618 1_655
Ca3 O15 2.419058 1_555
O0 P2 1.525891 1_555
O1 P0 1.657016 1_555
O1 P2 1.663251 1_555
O2 P4 1.530408 1_555
O3 P4 1.525891 1_555
O4 P6 1.657016 1_555
O4 P3 1.663251 1_555
O5 P5 1.533959 1_655
O6 P1 1.657016 1_555
O6 P4 1.663251 1_555
O7 P7 1.530296 1_555
O8 P3 1.530408 1_555
O9 P7 1.531225 1_555
O10 P6 1.530296 1_555
O11 P2 1.533959 1_455
O12 P3 1.525891 1_555
O13 P0 1.531225 1_555
O14 P7 1.533042 1_555
O15 P1 1.533042 1_555
O16 P1 1.531225 1_555
O17 P0 1.533042 1_555
O18 P7 1.657016 1_555
O18 P5 1.663251 1_555
O19 P6 1.533042 1_555
O20 P4 1.533959 1_555
O21 P5 1.525891 1_555
O22 P3 1.533959 1_555
O23 P2 1.530408 1_555
O24 P1 1.530296 1_555
O25 P0 1.530296 1_555
O26 P5 1.530408 1_555
O27 P6 1.531225 1_555
