# generated using pymatgen
data_K3Fe5(PO4)6
_symmetry_space_group_name_H-M   'P 1'
_cell_length_a   16.05921949
_cell_length_b   16.05921949
_cell_length_c   10.85277469
_cell_angle_alpha   89.95360635
_cell_angle_beta   89.95360635
_cell_angle_gamma   156.48514320
_symmetry_Int_Tables_number   1
_chemical_formula_structural   K3Fe5(PO4)6
_chemical_formula_sum   'K6 Fe10 P12 O48'
_cell_volume   1116.72131804
_cell_formula_units_Z   2
loop_
 _symmetry_equiv_pos_site_id
 _symmetry_equiv_pos_as_xyz
  1  'x, y, z'
loop_
 _atom_site_type_symbol
 _atom_site_label
 _atom_site_symmetry_multiplicity
 _atom_site_fract_x
 _atom_site_fract_y
 _atom_site_fract_z
 _atom_site_occupancy
  K  K0  1  0.93976800  0.06023100  0.75000000  1
  K  K1  1  0.78563400  0.50906600  0.98771900  1
  K  K2  1  0.06023100  0.93976900  0.25000000  1
  K  K3  1  0.50906600  0.78563400  0.48771900  1
  K  K4  1  0.49093400  0.21436600  0.51228100  1
  K  K5  1  0.21436600  0.49093400  0.01228100  1
  Fe  Fe0  1  0.70327200  0.80298500  0.07760000  1
  Fe  Fe1  1  0.80298500  0.70327200  0.57760000  1
  Fe  Fe2  1  0.80668600  0.19331400  0.25000000  1
  Fe  Fe3  1  0.19701500  0.29672800  0.42240000  1
  Fe  Fe4  1  0.81044300  0.18955700  0.75000000  1
  Fe  Fe5  1  0.00000000  0.50000000  0.50000000  1
  Fe  Fe6  1  0.29672800  0.19701500  0.92240000  1
  Fe  Fe7  1  0.18955700  0.81044300  0.25000000  1
  Fe  Fe8  1  0.50000000  0.00000000  0.00000000  1
  Fe  Fe9  1  0.19331400  0.80668600  0.75000000  1
  P  P0  1  0.29479100  0.99678900  0.99753600  1
  P  P1  1  0.21688900  0.27752900  0.12287800  1
  P  P2  1  0.78311100  0.72247100  0.87712200  1
  P  P3  1  0.00321100  0.70520900  0.50246400  1
  P  P4  1  0.72247100  0.78311100  0.37712200  1
  P  P5  1  0.71811600  0.28188400  0.25000000  1
  P  P6  1  0.27752900  0.21688900  0.62287800  1
  P  P7  1  0.70520900  0.00321100  0.00246400  1
  P  P8  1  0.99678900  0.29479100  0.49753600  1
  P  P9  1  0.28188400  0.71811600  0.75000000  1
  P  P10  1  0.72151400  0.27848600  0.75000000  1
  P  P11  1  0.27848600  0.72151400  0.25000000  1
  O  O0  1  0.83903100  0.13311500  0.88264300  1
  O  O1  1  0.76838800  0.73743700  0.43208300  1
  O  O2  1  0.83601300  0.62035900  0.51125100  1
  O  O3  1  0.16398700  0.37964100  0.48874900  1
  O  O4  1  0.11997700  0.00797300  0.57197700  1
  O  O5  1  0.50105100  0.61030700  0.40984600  1
  O  O6  1  0.71379300  0.21107100  0.14154900  1
  O  O7  1  0.78892900  0.28620700  0.35845100  1
  O  O8  1  0.79431100  0.74911400  0.73562000  1
  O  O9  1  0.21107100  0.71379300  0.64154900  1
  O  O10  1  0.20568900  0.25088600  0.26438000  1
  O  O11  1  0.37964100  0.16398700  0.98874900  1
  O  O12  1  0.51993600  0.89521400  0.99796100  1
  O  O13  1  0.26256300  0.23161200  0.06791700  1
  O  O14  1  0.74911400  0.79431100  0.23562000  1
  O  O15  1  0.15671500  0.85014400  0.88551400  1
  O  O16  1  0.88002300  0.99202700  0.42802300  1
  O  O17  1  0.49894900  0.38969300  0.59015400  1
  O  O18  1  0.38969300  0.49894900  0.09015400  1
  O  O19  1  0.89521400  0.51993600  0.49796100  1
  O  O20  1  0.49747900  0.87897100  0.72248300  1
  O  O21  1  0.50252100  0.12102900  0.27751700  1
  O  O22  1  0.13311500  0.83903100  0.38264300  1
  O  O23  1  0.11809300  0.50635200  0.22460800  1
  O  O24  1  0.88190700  0.49364800  0.77539200  1
  O  O25  1  0.86688500  0.16096900  0.61735700  1
  O  O26  1  0.87897100  0.49747900  0.22248300  1
  O  O27  1  0.99202700  0.88002300  0.92802300  1
  O  O28  1  0.85014400  0.15671500  0.38551400  1
  O  O29  1  0.20823600  0.71761900  0.35883300  1
  O  O30  1  0.16096900  0.86688500  0.11735700  1
  O  O31  1  0.48006400  0.10478600  0.00203900  1
  O  O32  1  0.73743700  0.76838800  0.93208300  1
  O  O33  1  0.71761900  0.20823600  0.85883300  1
  O  O34  1  0.79176400  0.28238100  0.64116700  1
  O  O35  1  0.25088600  0.20568900  0.76438000  1
  O  O36  1  0.84328500  0.14985600  0.11448600  1
  O  O37  1  0.62035900  0.83601300  0.01125100  1
  O  O38  1  0.10478600  0.48006400  0.50203900  1
  O  O39  1  0.28238100  0.79176400  0.14116700  1
  O  O40  1  0.00797300  0.11997700  0.07197700  1
  O  O41  1  0.28620700  0.78892900  0.85845100  1
  O  O42  1  0.14985600  0.84328500  0.61448600  1
  O  O43  1  0.23161200  0.26256300  0.56791700  1
  O  O44  1  0.61030700  0.50105100  0.90984600  1
  O  O45  1  0.12102900  0.50252100  0.77751700  1
  O  O46  1  0.49364800  0.88190700  0.27539200  1
  O  O47  1  0.50635200  0.11809300  0.72460800  1
loop_
_geom_bond_atom_site_label_1
_geom_bond_atom_site_label_2
_geom_bond_distance
_geom_bond_site_symmetry_2
K0 O32 2.911229 1_545
K0 O43 2.911233 1_655
K0 O8 3.007021 1_545
K0 O35 3.007024 1_655
K0 O0 3.087218 1_555
K0 O25 3.087218 1_555
K1 O15 2.619788 1_655
K1 O11 2.637765 1_555
K1 O31 2.797434 1_556
K1 O30 2.799649 1_656
K1 O44 2.828058 1_555
K1 O24 2.908401 1_555
K1 O26 3.047918 1_556
K1 O27 3.267062 1_555
K2 O13 2.911223 1_565
K2 O1 2.911223 1_455
K2 O14 3.007009 1_455
K2 O10 3.007009 1_565
K2 O22 3.087232 1_555
K2 O30 3.087232 1_555
K3 O28 2.619788 1_565
K3 O3 2.637765 1_555
K3 O38 2.797434 1_555
K3 O25 2.799649 1_565
K3 O5 2.828058 1_555
K3 O46 2.908401 1_555
K3 O20 3.047918 1_555
K3 O16 3.267062 1_555
K4 O42 2.619788 1_545
K4 O2 2.637765 1_555
K4 O19 2.797434 1_555
K4 O22 2.799649 1_545
K4 O17 2.828058 1_555
K4 O47 2.908401 1_555
K4 O21 3.047918 1_555
K4 O4 3.267062 1_555
K5 O36 2.619788 1_455
K5 O37 2.637765 1_555
K5 O12 2.797434 1_554
K5 O0 2.799649 1_454
K5 O18 2.828058 1_555
K5 O23 2.908401 1_555
K5 O45 3.047918 1_554
K5 O40 3.267062 1_555
Fe0 O32 1.913860 1_554
Fe0 O14 1.921502 1_555
Fe0 O37 1.966950 1_555
Fe0 O18 2.030660 1_555
Fe0 O40 2.044234 1_665
Fe1 O1 1.913860 1_555
Fe1 O8 1.921502 1_555
Fe1 O2 1.966950 1_555
Fe1 O17 2.030660 1_555
Fe1 O4 2.044234 1_665
Fe2 O28 1.935977 1_555
Fe2 O36 1.935977 1_555
Fe2 O46 2.060985 1_545
Fe2 O23 2.060985 1_655
Fe2 O6 2.115307 1_555
Fe2 O7 2.115307 1_555
Fe3 O43 1.913860 1_555
Fe3 O10 1.921502 1_555
Fe3 O3 1.966950 1_555
Fe3 O5 2.030660 1_555
Fe3 O16 2.044234 1_445
Fe4 O25 1.966409 1_555
Fe4 O0 1.966409 1_555
Fe4 O20 2.063734 1_545
Fe4 O45 2.063734 1_655
Fe4 O33 2.127200 1_555
Fe4 O34 2.127200 1_555
Fe5 O38 1.980611 1_555
Fe5 O19 1.980611 1_455
Fe5 O34 2.072191 1_455
Fe5 O29 2.072191 1_555
Fe5 O9 2.076458 1_555
Fe5 O7 2.076458 1_455
Fe6 O13 1.913860 1_556
Fe6 O35 1.921502 1_555
Fe6 O11 1.966950 1_555
Fe6 O44 2.030660 1_555
Fe6 O27 2.044234 1_445
Fe7 O30 1.966409 1_555
Fe7 O22 1.966409 1_555
Fe7 O26 2.063734 1_455
Fe7 O21 2.063734 1_565
Fe7 O29 2.127200 1_555
Fe7 O39 2.127200 1_555
Fe8 O31 1.980611 1_555
Fe8 O12 1.980611 1_544
Fe8 O33 2.072191 1_554
Fe8 O39 2.072191 1_545
Fe8 O6 2.076458 1_555
Fe8 O41 2.076458 1_544
Fe9 O15 1.935977 1_555
Fe9 O42 1.935977 1_555
Fe9 O24 2.060985 1_455
Fe9 O47 2.060985 1_565
Fe9 O9 2.115307 1_555
Fe9 O41 2.115307 1_555
O0 P7 1.559062 1_556
O1 P4 1.558669 1_555
O2 P3 1.537855 1_655
O3 P8 1.537855 1_455
O4 P6 1.549421 1_555
O5 P4 1.539786 1_555
O6 P5 1.594013 1_555
O7 P5 1.594013 1_555
O8 P2 1.559204 1_555
O9 P9 1.594013 1_555
O10 P1 1.559204 1_555
O11 P0 1.537855 1_545
O12 P7 1.549153 1_566
O13 P1 1.558669 1_555
O14 P4 1.559204 1_555
O15 P0 1.540547 1_555
O16 P4 1.549421 1_555
O17 P6 1.539786 1_555
O18 P1 1.539786 1_555
O19 P3 1.549153 1_655
O20 P9 1.531173 1_555
O21 P5 1.531173 1_555
O22 P3 1.559062 1_555
O23 P11 1.526578 1_555
O24 P10 1.526578 1_555
O25 P8 1.559062 1_555
O26 P5 1.531173 1_555
O27 P2 1.549421 1_555
O28 P8 1.540547 1_555
O29 P11 1.593756 1_555
O30 P0 1.559062 1_554
O31 P0 1.549153 1_544
O32 P2 1.558669 1_555
O33 P10 1.593756 1_555
O34 P10 1.593756 1_555
O35 P6 1.559204 1_555
O36 P7 1.540547 1_555
O37 P7 1.537855 1_565
O38 P8 1.549153 1_455
O39 P11 1.593756 1_555
O40 P1 1.549421 1_555
O41 P9 1.594013 1_555
O42 P3 1.540547 1_555
O43 P6 1.558669 1_555
O44 P2 1.539786 1_555
O45 P9 1.531173 1_555
O46 P11 1.526578 1_555
O47 P10 1.526578 1_555
