# generated using pymatgen
data_Rb2Zn3(P2O7)2
_symmetry_space_group_name_H-M   'P 1'
_cell_length_a   7.34317400
_cell_length_b   7.30905600
_cell_length_c   13.43130584
_cell_angle_alpha   87.77010572
_cell_angle_beta   90.00000000
_cell_angle_gamma   90.00000000
_symmetry_Int_Tables_number   1
_chemical_formula_structural   Rb2Zn3(P2O7)2
_chemical_formula_sum   'Rb4 Zn6 P8 O28'
_cell_volume   720.33472853
_cell_formula_units_Z   2
loop_
 _symmetry_equiv_pos_site_id
 _symmetry_equiv_pos_as_xyz
  1  'x, y, z'
loop_
 _atom_site_type_symbol
 _atom_site_label
 _atom_site_symmetry_multiplicity
 _atom_site_fract_x
 _atom_site_fract_y
 _atom_site_fract_z
 _atom_site_occupancy
  Rb  Rb0  1  0.75049200  0.05368600  0.41661000  1
  Rb  Rb1  1  0.25049200  0.94631400  0.58339000  1
  Rb  Rb2  1  0.99329200  0.61111400  0.09333700  1
  Rb  Rb3  1  0.49329200  0.38888600  0.90666300  1
  Zn  Zn0  1  0.62040800  0.79180200  0.73681400  1
  Zn  Zn1  1  0.99991900  0.20955300  0.90152600  1
  Zn  Zn2  1  0.08919100  0.45163900  0.61327200  1
  Zn  Zn3  1  0.12040800  0.20819800  0.26318600  1
  Zn  Zn4  1  0.49991900  0.79044700  0.09847400  1
  Zn  Zn5  1  0.58919100  0.54836100  0.38672800  1
  P  P0  1  0.51223300  0.43290600  0.61194200  1
  P  P1  1  0.98638500  0.63563700  0.81620500  1
  P  P2  1  0.48638500  0.36436300  0.18379500  1
  P  P3  1  0.28793600  0.83476200  0.31006800  1
  P  P4  1  0.78793600  0.16523800  0.68993200  1
  P  P5  1  0.27569500  0.88841700  0.89205500  1
  P  P6  1  0.01223300  0.56709400  0.38805800  1
  P  P7  1  0.77569500  0.11158300  0.10794500  1
  O  O0  1  0.34645300  0.76626300  0.97912100  1
  O  O1  1  0.27969100  0.34261700  0.16838900  1
  O  O2  1  0.77969100  0.65738300  0.83161100  1
  O  O3  1  0.14986800  0.66110200  0.30547000  1
  O  O4  1  0.64986800  0.33889800  0.69453000  1
  O  O5  1  0.06623600  0.47060700  0.87532000  1
  O  O6  1  0.44665300  0.77676300  0.37853800  1
  O  O7  1  0.89049600  0.12285000  0.20182800  1
  O  O8  1  0.68564500  0.00294100  0.64650300  1
  O  O9  1  0.04060600  0.64786800  0.70625300  1
  O  O10  1  0.82958900  0.66271700  0.36725600  1
  O  O11  1  0.01104300  0.36409200  0.36524600  1
  O  O12  1  0.57166900  0.18697100  0.13164000  1
  O  O13  1  0.73606800  0.91351900  0.07958600  1
  O  O14  1  0.54060600  0.35213200  0.29374700  1
  O  O15  1  0.56623600  0.52939300  0.12468000  1
  O  O16  1  0.39049600  0.87715000  0.79817200  1
  O  O17  1  0.32958900  0.33728300  0.63274400  1
  O  O18  1  0.23606800  0.08648100  0.92041400  1
  O  O19  1  0.08928600  0.60740300  0.49083600  1
  O  O20  1  0.51104300  0.63590800  0.63475400  1
  O  O21  1  0.94665300  0.22323700  0.62146200  1
  O  O22  1  0.18564500  0.99705900  0.35349700  1
  O  O23  1  0.33534600  0.87319700  0.20080700  1
  O  O24  1  0.58928600  0.39259700  0.50916400  1
  O  O25  1  0.07166900  0.81302900  0.86836000  1
  O  O26  1  0.84645300  0.23373700  0.02087900  1
  O  O27  1  0.83534600  0.12680300  0.79919300  1
loop_
_geom_bond_atom_site_label_1
_geom_bond_atom_site_label_2
_geom_bond_distance
_geom_bond_site_symmetry_2
O0 P5 1.534076 1_555
O0 Zn4 1.973090 1_556
O0 Rb3 3.150671 1_555
O0 Rb2 3.198321 1_456
O1 P2 1.540885 1_555
O1 Zn3 1.963959 1_555
O1 Rb2 3.022647 1_455
O2 P1 1.540885 1_555
O2 Zn0 1.963959 1_555
O2 Rb3 3.022647 1_555
O3 P3 1.627550 1_555
O3 P6 1.632405 1_555
O3 Rb2 3.107174 1_455
O4 P4 1.627550 1_555
O4 P0 1.632405 1_555
O4 Rb3 3.107174 1_555
O5 P1 1.534491 1_455
O5 Zn1 1.987325 1_455
O5 Rb2 3.185949 1_456
O5 Rb3 3.216922 1_555
O6 P3 1.534102 1_555
O6 Zn5 1.969837 1_555
O6 Rb0 3.068678 1_565
O6 Rb1 3.383245 1_555
O7 P7 1.521699 1_555
O7 Zn3 1.989629 1_655
O7 Rb0 3.085627 1_555
O8 P4 1.538007 1_555
O8 Zn0 1.984117 1_545
O8 Rb0 3.132008 1_555
O8 Rb1 3.335835 1_545
O9 P1 1.528784 1_455
O9 Zn2 1.970630 1_555
O9 Rb1 3.094638 1_555
O10 P6 1.533013 1_655
O10 Zn5 1.966275 1_555
O10 Rb0 3.014987 1_565
O11 P6 1.526714 1_555
O11 Zn3 1.985927 1_555
O11 Rb0 3.026894 1_455
O12 P2 1.623169 1_555
O12 P7 1.631916 1_555
O12 Rb3 3.360521 1_554
O13 P7 1.538957 1_565
O13 Zn4 1.965405 1_555
O13 Rb2 2.907829 1_555
O14 P2 1.528784 1_555
O14 Zn5 1.970630 1_555
O14 Rb0 3.094638 1_555
O15 P2 1.534491 1_555
O15 Zn4 1.987325 1_555
O15 Rb3 3.185949 1_554
O15 Rb2 3.216922 1_555
O16 P5 1.521699 1_555
O16 Zn0 1.989629 1_555
O16 Rb1 3.085627 1_555
O17 P0 1.533013 1_555
O17 Zn2 1.966275 1_555
O17 Rb1 3.014987 1_545
O18 P5 1.538957 1_545
O18 Zn1 1.965405 1_455
O18 Rb3 2.907829 1_555
O19 P6 1.531084 1_555
O19 Zn2 1.963355 1_555
O19 Rb1 3.053260 1_555
O20 P0 1.526714 1_555
O20 Zn0 1.985927 1_555
O20 Rb1 3.026894 1_555
O21 P4 1.534102 1_555
O21 Zn2 1.969837 1_655
O21 Rb1 3.068678 1_645
O21 Rb0 3.383245 1_555
O22 P3 1.538007 1_555
O22 Zn3 1.984117 1_565
O22 Rb1 3.132008 1_555
O22 Rb0 3.335835 1_465
O23 P3 1.523695 1_555
O23 Zn4 1.944249 1_555
O23 Rb2 3.503876 1_455
O24 P0 1.531084 1_555
O24 Zn5 1.963355 1_555
O24 Rb0 3.053260 1_555
O25 P1 1.623169 1_455
O25 P5 1.631916 1_555
O25 Rb2 3.360521 1_456
O26 P7 1.534076 1_555
O26 Zn1 1.973090 1_554
O26 Rb2 3.150671 1_555
O26 Rb3 3.198321 1_554
O27 P4 1.523695 1_555
O27 Zn1 1.944249 1_555
O27 Rb3 3.503876 1_555
