# generated using pymatgen
data_K2U(MoO5)2
_symmetry_space_group_name_H-M   'P 1'
_cell_length_a   13.72691200
_cell_length_b   12.47696900
_cell_length_c   13.26191562
_cell_angle_alpha   85.25236902
_cell_angle_beta   90.00000000
_cell_angle_gamma   90.00000000
_symmetry_Int_Tables_number   1
_chemical_formula_structural   K2U(MoO5)2
_chemical_formula_sum   'K16 U8 Mo16 O80'
_cell_volume   2263.57843117
_cell_formula_units_Z   8
loop_
 _symmetry_equiv_pos_site_id
 _symmetry_equiv_pos_as_xyz
  1  'x, y, z'
loop_
 _atom_site_type_symbol
 _atom_site_label
 _atom_site_symmetry_multiplicity
 _atom_site_fract_x
 _atom_site_fract_y
 _atom_site_fract_z
 _atom_site_occupancy
  K  K0  1  0.67729400  0.03625800  0.19143900  1
  K  K1  1  0.95651000  0.27121700  0.18158500  1
  K  K2  1  0.82270600  0.03625800  0.69143900  1
  K  K3  1  0.13015400  0.23985700  0.71835000  1
  K  K4  1  0.63015400  0.76014300  0.78165000  1
  K  K5  1  0.86984600  0.76014300  0.28165000  1
  K  K6  1  0.17729400  0.96374200  0.30856100  1
  K  K7  1  0.15850700  0.53858400  0.21379800  1
  K  K8  1  0.04349000  0.72878300  0.81841500  1
  K  K9  1  0.54349000  0.27121700  0.68158500  1
  K  K10  1  0.84149300  0.46141600  0.78620200  1
  K  K11  1  0.65850700  0.46141600  0.28620200  1
  K  K12  1  0.36984600  0.23985700  0.21835000  1
  K  K13  1  0.32270600  0.96374200  0.80856100  1
  K  K14  1  0.45651000  0.72878300  0.31841500  1
  K  K15  1  0.34149300  0.53858400  0.71379800  1
  U  U0  1  0.18268600  0.15391000  0.03153800  1
  U  U1  1  0.68268600  0.84609000  0.46846200  1
  U  U2  1  0.81942800  0.33161100  0.51177000  1
  U  U3  1  0.68057200  0.33161100  0.01177000  1
  U  U4  1  0.18057200  0.66838900  0.48823000  1
  U  U5  1  0.81731400  0.84609000  0.96846200  1
  U  U6  1  0.31942800  0.66838900  0.98823000  1
  U  U7  1  0.31731400  0.15391000  0.53153800  1
  Mo  Mo0  1  0.08616000  0.84968600  0.06471500  1
  Mo  Mo1  1  0.58616000  0.15031400  0.43528500  1
  Mo  Mo2  1  0.09626200  0.35826900  0.44947500  1
  Mo  Mo3  1  0.62433500  0.55534100  0.57672600  1
  Mo  Mo4  1  0.61218100  0.05605700  0.89972900  1
  Mo  Mo5  1  0.12433500  0.44465900  0.92327400  1
  Mo  Mo6  1  0.38781900  0.94394300  0.10027100  1
  Mo  Mo7  1  0.37566500  0.44465900  0.42327400  1
  Mo  Mo8  1  0.40373800  0.35826900  0.94947500  1
  Mo  Mo9  1  0.88781900  0.05605700  0.39972900  1
  Mo  Mo10  1  0.59626200  0.64173100  0.05052500  1
  Mo  Mo11  1  0.90373800  0.64173100  0.55052500  1
  Mo  Mo12  1  0.11218100  0.94394300  0.60027100  1
  Mo  Mo13  1  0.91384000  0.15031400  0.93528500  1
  Mo  Mo14  1  0.87566500  0.55534100  0.07672600  1
  Mo  Mo15  1  0.41384000  0.84968600  0.56471500  1
  O  O0  1  0.14575300  0.84846300  0.50665600  1
  O  O1  1  0.80484600  0.46409600  0.00381400  1
  O  O2  1  0.00821800  0.68295900  0.47322200  1
  O  O3  1  0.45911900  0.80006300  0.68367900  1
  O  O4  1  0.80047900  0.29900600  0.64749600  1
  O  O5  1  0.59643000  0.68492800  0.50700500  1
  O  O6  1  0.70237400  0.70612100  0.98894900  1
  O  O7  1  0.65735200  0.03116800  0.41685100  1
  O  O8  1  0.51541200  0.49078000  0.62018300  1
  O  O9  1  0.82914200  0.82293800  0.83438900  1
  O  O10  1  0.32914200  0.17706200  0.66561100  1
  O  O11  1  0.41936800  0.32368300  0.82536300  1
  O  O12  1  0.15735200  0.96883200  0.08314900  1
  O  O13  1  0.80554000  0.87485600  0.10165300  1
  O  O14  1  0.30554000  0.12514400  0.39834700  1
  O  O15  1  0.85424700  0.15153700  0.49334400  1
  O  O16  1  0.66511800  0.24865000  0.48548600  1
  O  O17  1  0.04088100  0.80006300  0.18367900  1
  O  O18  1  0.79762600  0.70612100  0.48894900  1
  O  O19  1  0.30837300  0.41837700  0.31420400  1
  O  O20  1  0.90357000  0.68492800  0.00700500  1
  O  O21  1  0.98509800  0.95597400  0.61058300  1
  O  O22  1  0.35424700  0.84846300  0.00665600  1
  O  O23  1  0.66530900  0.36463000  0.87581100  1
  O  O24  1  0.16530900  0.63537000  0.62418900  1
  O  O25  1  0.19446000  0.12514400  0.89834700  1
  O  O26  1  0.69952100  0.29900600  0.14749600  1
  O  O27  1  0.49178200  0.68295900  0.97322200  1
  O  O28  1  0.11272100  0.50217100  0.44302400  1
  O  O29  1  0.29762600  0.29387900  0.01105100  1
  O  O30  1  0.84264800  0.03116800  0.91685100  1
  O  O31  1  0.16666000  0.07833200  0.57327900  1
  O  O32  1  0.51084800  0.88050100  0.47457300  1
  O  O33  1  0.48915200  0.11949900  0.52542700  1
  O  O34  1  0.08063200  0.32368300  0.32536300  1
  O  O35  1  0.66666000  0.92166800  0.92672100  1
  O  O36  1  0.30484600  0.53590400  0.49618600  1
  O  O37  1  0.64575300  0.15153700  0.99334400  1
  O  O38  1  0.83469100  0.36463000  0.37581100  1
  O  O39  1  0.19515400  0.53590400  0.99618600  1
  O  O40  1  0.33488200  0.75135000  0.51451400  1
  O  O41  1  0.95911900  0.19993700  0.81632100  1
  O  O42  1  0.69446000  0.87485600  0.60165300  1
  O  O43  1  0.69515400  0.46409600  0.50381400  1
  O  O44  1  0.34676900  0.89248000  0.22094700  1
  O  O45  1  0.40357000  0.31507200  0.49299500  1
  O  O46  1  0.15323100  0.89248000  0.72094700  1
  O  O47  1  0.16511800  0.75135000  0.01451400  1
  O  O48  1  0.48458800  0.50922000  0.37981700  1
  O  O49  1  0.01084800  0.11949900  0.02542700  1
  O  O50  1  0.99178200  0.31704100  0.52677800  1
  O  O51  1  0.34264800  0.96883200  0.58314900  1
  O  O52  1  0.65323100  0.10752000  0.77905300  1
  O  O53  1  0.54088100  0.19993700  0.31632100  1
  O  O54  1  0.98915200  0.88050100  0.97457300  1
  O  O55  1  0.50821800  0.31704100  0.02677800  1
  O  O56  1  0.01490200  0.04402600  0.38941700  1
  O  O57  1  0.83488200  0.24865000  0.98548600  1
  O  O58  1  0.20237400  0.29387900  0.51105100  1
  O  O59  1  0.88727900  0.49782900  0.55697600  1
  O  O60  1  0.61272100  0.49782900  0.05697600  1
  O  O61  1  0.30047900  0.70099400  0.85250400  1
  O  O62  1  0.33469100  0.63537000  0.12418900  1
  O  O63  1  0.38727900  0.50217100  0.94302400  1
  O  O64  1  0.84676900  0.10752000  0.27905300  1
  O  O65  1  0.09643000  0.31507200  0.99299500  1
  O  O66  1  0.01541200  0.50922000  0.87981700  1
  O  O67  1  0.80837300  0.58162300  0.18579600  1
  O  O68  1  0.33334000  0.07833200  0.07327900  1
  O  O69  1  0.91936800  0.67631700  0.67463700  1
  O  O70  1  0.69162700  0.58162300  0.68579600  1
  O  O71  1  0.67085800  0.82293800  0.33438900  1
  O  O72  1  0.51490200  0.95597400  0.11058300  1
  O  O73  1  0.19952100  0.70099400  0.35250400  1
  O  O74  1  0.48509800  0.04402600  0.88941700  1
  O  O75  1  0.83334000  0.92166800  0.42672100  1
  O  O76  1  0.58063200  0.67631700  0.17463700  1
  O  O77  1  0.19162700  0.41837700  0.81420400  1
  O  O78  1  0.98458800  0.49078000  0.12018300  1
  O  O79  1  0.17085800  0.17706200  0.16561100  1
loop_
_geom_bond_atom_site_label_1
_geom_bond_atom_site_label_2
_geom_bond_distance
_geom_bond_site_symmetry_2
K0 O72 2.701873 1_545
K0 O64 2.779144 1_555
K0 O37 2.921046 1_554
K0 O13 2.994877 1_545
K0 O7 2.997336 1_555
K0 O71 3.138570 1_545
K0 O26 3.296013 1_555
K0 O53 3.313580 1_555
K1 O34 2.678413 1_655
K1 O64 2.770316 1_555
K1 O78 2.819066 1_555
K1 O49 3.012893 1_655
K1 O57 3.122716 1_554
K1 O65 3.164990 1_654
K1 O79 3.181745 1_655
K1 O38 3.359525 1_555
K2 O21 2.701873 1_545
K2 O52 2.779144 1_555
K2 O15 2.921046 1_555
K2 O42 2.994877 1_545
K2 O30 2.997336 1_555
K2 O9 3.138570 1_545
K2 O4 3.296013 1_555
K2 O41 3.313580 1_555
K3 O41 2.709461 1_455
K3 O77 2.785317 1_555
K3 O25 2.821426 1_555
K3 O10 2.941904 1_555
K3 O31 2.942112 1_555
K3 O58 2.947604 1_555
K3 O50 3.253446 1_455
K4 O3 2.709461 1_555
K4 O70 2.785317 1_555
K4 O42 2.821426 1_555
K4 O9 2.941904 1_555
K4 O35 2.942112 1_555
K4 O6 2.947604 1_555
K4 O27 3.253446 1_555
K5 O17 2.709461 1_655
K5 O67 2.785317 1_555
K5 O13 2.821426 1_555
K5 O71 2.941904 1_555
K5 O75 2.942112 1_555
K5 O18 2.947604 1_555
K5 O2 3.253446 1_655
K6 O56 2.701873 1_565
K6 O44 2.779144 1_555
K6 O0 2.921046 1_555
K6 O14 2.994877 1_565
K6 O12 2.997336 1_555
K6 O79 3.138570 1_565
K6 O73 3.296013 1_555
K6 O17 3.313580 1_555
K7 O78 2.778350 1_455
K7 O19 2.814964 1_555
K7 O73 2.902416 1_555
K7 O62 2.912380 1_555
K7 O39 2.932383 1_554
K7 O28 3.100686 1_555
K7 O34 3.140792 1_555
K8 O69 2.678413 1_455
K8 O46 2.770316 1_555
K8 O66 2.819066 1_555
K8 O54 3.012893 1_455
K8 O47 3.122716 1_556
K8 O20 3.164990 1_456
K8 O9 3.181745 1_455
K8 O24 3.359525 1_555
K9 O11 2.678413 1_555
K9 O52 2.770316 1_555
K9 O8 2.819066 1_555
K9 O33 3.012893 1_555
K9 O16 3.122716 1_555
K9 O45 3.164990 1_555
K9 O10 3.181745 1_555
K9 O23 3.359525 1_555
K10 O66 2.778350 1_655
K10 O70 2.814964 1_555
K10 O4 2.902416 1_555
K10 O23 2.912380 1_555
K10 O1 2.932383 1_556
K10 O59 3.100686 1_555
K10 O69 3.140792 1_555
K11 O48 2.778350 1_555
K11 O67 2.814964 1_555
K11 O26 2.902416 1_555
K11 O38 2.912380 1_555
K11 O43 2.932383 1_555
K11 O60 3.100686 1_555
K11 O76 3.140792 1_555
K12 O53 2.709461 1_555
K12 O19 2.785317 1_555
K12 O14 2.821426 1_555
K12 O79 2.941904 1_555
K12 O68 2.942112 1_555
K12 O29 2.947604 1_555
K12 O55 3.253446 1_555
K13 O74 2.701873 1_565
K13 O46 2.779144 1_555
K13 O22 2.921046 1_556
K13 O25 2.994877 1_565
K13 O51 2.997336 1_555
K13 O10 3.138570 1_565
K13 O61 3.296013 1_555
K13 O3 3.313580 1_555
K14 O76 2.678413 1_555
K14 O44 2.770316 1_555
K14 O48 2.819066 1_555
K14 O32 3.012893 1_555
K14 O40 3.122716 1_555
K14 O5 3.164990 1_555
K14 O71 3.181745 1_555
K14 O62 3.359525 1_555
K15 O8 2.778350 1_555
K15 O77 2.814964 1_555
K15 O61 2.902416 1_555
K15 O24 2.912380 1_555
K15 O36 2.932383 1_555
K15 O63 3.100686 1_555
K15 O11 3.140792 1_555
Mo0 O17 1.759848 1_555
Mo0 O47 1.805147 1_555
Mo0 O54 1.809438 1_454
Mo0 O12 1.812418 1_555
Mo1 O53 1.759848 1_555
Mo1 O16 1.805147 1_555
Mo1 O33 1.809438 1_555
Mo1 O7 1.812418 1_555
Mo2 O34 1.749005 1_555
Mo2 O28 1.804610 1_555
Mo2 O50 1.812516 1_455
Mo2 O58 1.823555 1_555
Mo3 O70 1.769629 1_555
Mo3 O8 1.771927 1_555
Mo3 O43 1.832579 1_555
Mo3 O5 1.835324 1_555
Mo4 O74 1.757204 1_555
Mo4 O52 1.766628 1_555
Mo4 O35 1.843794 1_545
Mo4 O37 1.848718 1_555
Mo5 O77 1.769629 1_555
Mo5 O66 1.771927 1_555
Mo5 O39 1.832579 1_555
Mo5 O65 1.835324 1_555
Mo6 O72 1.757204 1_555
Mo6 O44 1.766628 1_555
Mo6 O68 1.843794 1_565
Mo6 O22 1.848718 1_555
Mo7 O19 1.769629 1_555
Mo7 O48 1.771927 1_555
Mo7 O36 1.832579 1_555
Mo7 O45 1.835324 1_555
Mo8 O11 1.749005 1_555
Mo8 O63 1.804610 1_555
Mo8 O55 1.812516 1_556
Mo8 O29 1.823555 1_556
Mo9 O56 1.757204 1_655
Mo9 O64 1.766628 1_555
Mo9 O75 1.843794 1_545
Mo9 O15 1.848718 1_555
Mo10 O76 1.749005 1_555
Mo10 O60 1.804610 1_555
Mo10 O27 1.812516 1_554
Mo10 O6 1.823555 1_554
Mo11 O69 1.749005 1_555
Mo11 O59 1.804610 1_555
Mo11 O2 1.812516 1_655
Mo11 O18 1.823555 1_555
Mo12 O21 1.757204 1_455
Mo12 O46 1.766628 1_555
Mo12 O31 1.843794 1_565
Mo12 O0 1.848718 1_555
Mo13 O41 1.759848 1_555
Mo13 O57 1.805147 1_555
Mo13 O49 1.809438 1_656
Mo13 O30 1.812418 1_555
Mo14 O67 1.769629 1_555
Mo14 O78 1.771927 1_555
Mo14 O1 1.832579 1_555
Mo14 O20 1.835324 1_555
Mo15 O3 1.759848 1_555
Mo15 O40 1.805147 1_555
Mo15 O32 1.809438 1_555
Mo15 O51 1.812418 1_555
O0 U4 2.329603 1_555
O1 U3 2.371665 1_555
O2 U4 2.379937 1_555
O4 U2 1.830817 1_555
O5 U1 2.352962 1_555
O6 U5 2.352554 1_555
O7 U1 2.379127 1_545
O9 U5 1.832032 1_555
O10 U7 1.832032 1_555
O12 U0 2.379127 1_565
O13 U5 1.838461 1_554
O14 U7 1.838461 1_555
O15 U2 2.329603 1_555
O16 U2 2.395712 1_555
O18 U1 2.352554 1_555
O20 U5 2.352962 1_554
O22 U6 2.329603 1_554
O23 U3 1.828044 1_556
O24 U4 1.828044 1_555
O25 U0 1.838461 1_556
O26 U3 1.830817 1_555
O27 U6 2.379937 1_555
O28 U4 2.394528 1_555
O29 U0 2.352554 1_555
O30 U5 2.379127 1_545
O31 U7 2.320760 1_555
O32 U1 2.400131 1_555
O33 U7 2.400131 1_555
O35 U5 2.320760 1_555
O36 U4 2.371665 1_555
O37 U3 2.329603 1_556
O38 U2 1.828044 1_555
O39 U6 2.371665 1_555
O40 U4 2.395712 1_555
O42 U1 1.838461 1_555
O43 U2 2.371665 1_555
O45 U7 2.352962 1_555
O47 U6 2.395712 1_554
O49 U0 2.400131 1_555
O50 U2 2.379937 1_555
O51 U7 2.379127 1_565
O54 U5 2.400131 1_555
O55 U3 2.379937 1_555
O57 U3 2.395712 1_556
O58 U7 2.352554 1_555
O59 U2 2.394528 1_555
O60 U3 2.394528 1_555
O61 U6 1.830817 1_555
O62 U6 1.828044 1_554
O63 U6 2.394528 1_555
O65 U0 2.352962 1_556
O68 U0 2.320760 1_555
O71 U1 1.832032 1_555
O73 U4 1.830817 1_555
O75 U1 2.320760 1_555
O79 U0 1.832032 1_555
