# generated using pymatgen
data_Na2USiO6
_symmetry_space_group_name_H-M   'P 1'
_cell_length_a   11.48715241
_cell_length_b   11.48715241
_cell_length_c   11.48715241
_cell_angle_alpha   111.85154814
_cell_angle_beta   111.85154814
_cell_angle_gamma   104.80878176
_symmetry_Int_Tables_number   1
_chemical_formula_structural   Na2USiO6
_chemical_formula_sum   'Na16 U8 Si8 O48'
_cell_volume   1161.11788027
_cell_formula_units_Z   8
loop_
 _symmetry_equiv_pos_site_id
 _symmetry_equiv_pos_as_xyz
  1  'x, y, z'
loop_
 _atom_site_type_symbol
 _atom_site_label
 _atom_site_symmetry_multiplicity
 _atom_site_fract_x
 _atom_site_fract_y
 _atom_site_fract_z
 _atom_site_occupancy
  Na  Na0  1  0.94521300  0.94521300  0.39042600  1
  Na  Na1  1  0.50000000  0.00000000  0.50000000  1
  Na  Na2  1  0.80478700  0.30478700  0.10957400  1
  Na  Na3  1  0.55478700  0.55478700  0.60957400  1
  Na  Na4  1  0.05478700  0.44521300  0.00000000  1
  Na  Na5  1  0.44521300  0.05478700  0.00000000  1
  Na  Na6  1  0.50000000  0.50000000  0.00000000  1
  Na  Na7  1  0.25000000  0.25000000  0.00000000  1
  Na  Na8  1  0.00000000  0.00000000  0.00000000  1
  Na  Na9  1  0.19521300  0.69521300  0.89042600  1
  Na  Na10  1  0.30478700  0.19521300  0.50000000  1
  Na  Na11  1  0.75000000  0.75000000  0.00000000  1
  Na  Na12  1  0.69521300  0.80478700  0.50000000  1
  Na  Na13  1  0.25000000  0.75000000  0.50000000  1
  Na  Na14  1  0.75000000  0.25000000  0.50000000  1
  Na  Na15  1  0.00000000  0.50000000  0.50000000  1
  U  U0  1  0.87500000  0.62500000  0.25000000  1
  U  U1  1  0.87500000  0.62500000  0.75000000  1
  U  U2  1  0.37500000  0.62500000  0.25000000  1
  U  U3  1  0.87500000  0.12500000  0.75000000  1
  U  U4  1  0.37500000  0.12500000  0.75000000  1
  U  U5  1  0.37500000  0.62500000  0.75000000  1
  U  U6  1  0.37500000  0.12500000  0.25000000  1
  U  U7  1  0.87500000  0.12500000  0.25000000  1
  Si  Si0  1  0.12500000  0.28442100  0.65942100  1
  Si  Si1  1  0.12500000  0.78442100  0.15942100  1
  Si  Si2  1  0.62500000  0.96557900  0.84057900  1
  Si  Si3  1  0.03442100  0.87500000  0.65942100  1
  Si  Si4  1  0.71557900  0.37500000  0.84057900  1
  Si  Si5  1  0.21557900  0.37500000  0.34057900  1
  Si  Si6  1  0.53442100  0.87500000  0.15942100  1
  Si  Si7  1  0.62500000  0.46557900  0.34057900  1
  O  O0  1  0.19709500  0.45139800  0.70941500  1
  O  O1  1  0.74257100  0.68999500  0.18572200  1
  O  O2  1  0.23768000  0.44709500  0.24569800  1
  O  O3  1  0.24198200  0.95139800  0.25430200  1
  O  O4  1  0.31675500  0.49639400  0.51797300  1
  O  O5  1  0.54860200  0.25801800  0.74569800  1
  O  O6  1  0.04860200  0.30290500  0.29058500  1
  O  O7  1  0.74198200  0.48768000  0.29058500  1
  O  O8  1  0.77157900  0.45121700  0.01797300  1
  O  O9  1  0.24639400  0.22842100  0.67963900  1
  O  O10  1  0.55290500  0.79860200  0.79058500  1
  O  O11  1  0.24572700  0.69315100  0.68572200  1
  O  O12  1  0.04878300  0.72842100  0.98202700  1
  O  O13  1  0.50427300  0.55684900  0.81427800  1
  O  O14  1  0.97842100  0.79878300  0.48202700  1
  O  O15  1  0.43999500  0.75427300  0.44742400  1
  O  O16  1  0.00360600  0.18324500  0.48202700  1
  O  O17  1  0.43324500  0.75360600  0.98202700  1
  O  O18  1  0.47842100  0.99639400  0.17963900  1
  O  O19  1  0.50801800  0.29860200  0.24569800  1
  O  O20  1  0.81000500  0.75742900  0.81427800  1
  O  O21  1  0.70139800  0.94709500  0.20941500  1
  O  O22  1  0.70121700  0.52157900  0.51797300  1
  O  O23  1  0.00801800  0.76232000  0.20941500  1
  O  O24  1  0.24257100  0.05684900  0.05257600  1
  O  O25  1  0.74572700  0.06000500  0.55257600  1
  O  O26  1  0.20139800  0.99198200  0.75430200  1
  O  O27  1  0.73768000  0.49198200  0.79058500  1
  O  O28  1  0.30684900  0.99257100  0.55257600  1
  O  O29  1  0.94315100  0.99572700  0.18572200  1
  O  O30  1  0.01232000  0.75801800  0.70941500  1
  O  O31  1  0.00427300  0.18999500  0.94742400  1
  O  O32  1  0.20121700  0.68324500  0.17963900  1
  O  O33  1  0.51232000  0.80290500  0.25430200  1
  O  O34  1  0.44315100  0.25742900  0.94742400  1
  O  O35  1  0.50742900  0.19315100  0.44742400  1
  O  O36  1  0.27157900  0.25360600  0.32036100  1
  O  O37  1  0.05290500  0.26232000  0.75430200  1
  O  O38  1  0.80684900  0.25427300  0.31427800  1
  O  O39  1  0.00742900  0.56000500  0.31427800  1
  O  O40  1  0.69709500  0.98768000  0.74569800  1
  O  O41  1  0.93324500  0.95121700  0.67963900  1
  O  O42  1  0.54878300  0.56675500  0.32036100  1
  O  O43  1  0.74639400  0.06675500  0.01797300  1
  O  O44  1  0.31000500  0.49572700  0.05257600  1
  O  O45  1  0.81675500  0.29878300  0.82036100  1
  O  O46  1  0.93999500  0.49257100  0.68572200  1
  O  O47  1  0.50360600  0.02157900  0.82036100  1
loop_
_geom_bond_atom_site_label_1
_geom_bond_atom_site_label_2
_geom_bond_distance
_geom_bond_site_symmetry_2
Na0 O14 2.329979 1_555
Na0 O16 2.329989 1_665
Na0 O1 2.616857 1_555
Na0 O29 2.616857 1_555
Na0 O21 2.810233 1_555
Na0 O23 2.810241 1_655
Na1 O28 2.496798 1_545
Na1 O35 2.496798 1_555
Na1 O15 2.496798 1_545
Na1 O25 2.496798 1_555
Na2 O8 2.329979 1_555
Na2 O43 2.329989 1_555
Na2 O39 2.616857 1_655
Na2 O38 2.616857 1_555
Na2 O6 2.810233 1_655
Na2 O7 2.810241 1_555
Na3 O22 2.329979 1_555
Na3 O4 2.329989 1_555
Na3 O20 2.616857 1_555
Na3 O13 2.616857 1_555
Na3 O10 2.810233 1_555
Na3 O27 2.810241 1_555
Na4 O45 2.329988 1_454
Na4 O32 2.329988 1_555
Na4 O44 2.616857 1_555
Na4 O31 2.616857 1_554
Na4 O2 2.810241 1_555
Na4 O37 2.810241 1_554
Na5 O47 2.329989 1_554
Na5 O18 2.329989 1_545
Na5 O34 2.616857 1_554
Na5 O24 2.616857 1_555
Na5 O26 2.810235 1_544
Na5 O19 2.810235 1_555
Na6 O34 2.465562 1_554
Na6 O1 2.465562 1_555
Na6 O44 2.465562 1_555
Na6 O13 2.465562 1_554
Na7 O34 2.496798 1_554
Na7 O44 2.496798 1_555
Na7 O31 2.496798 1_554
Na7 O24 2.496798 1_555
Na8 O31 2.465562 1_554
Na8 O24 2.465562 1_555
Na8 O20 2.465562 1_444
Na8 O29 2.465562 1_445
Na9 O12 2.329979 1_555
Na9 O17 2.329989 1_555
Na9 O46 2.616857 1_455
Na9 O11 2.616857 1_555
Na9 O0 2.810233 1_555
Na9 O30 2.810241 1_555
Na10 O9 2.329989 1_555
Na10 O36 2.329989 1_555
Na10 O28 2.616857 1_545
Na10 O35 2.616857 1_555
Na10 O5 2.810235 1_555
Na10 O3 2.810235 1_545
Na11 O1 2.496798 1_555
Na11 O13 2.496798 1_554
Na11 O29 2.496798 1_555
Na11 O20 2.496798 1_554
Na12 O41 2.329988 1_555
Na12 O42 2.329988 1_555
Na12 O15 2.616857 1_555
Na12 O25 2.616857 1_565
Na12 O40 2.810241 1_555
Na12 O33 2.810241 1_555
Na13 O39 2.465562 1_555
Na13 O28 2.465562 1_555
Na13 O15 2.465562 1_555
Na13 O11 2.465562 1_555
Na14 O25 2.465562 1_555
Na14 O46 2.465562 1_555
Na14 O35 2.465562 1_555
Na14 O38 2.465562 1_555
Na15 O11 2.496798 1_555
Na15 O38 2.496798 1_455
Na15 O39 2.496798 1_555
Na15 O46 2.496798 1_455
O0 Si0 1.645807 1_555
O0 U5 2.210419 1_555
O1 U0 1.889862 1_555
O2 Si5 1.645797 1_555
O2 U2 2.210425 1_555
O3 Si1 1.645805 1_555
O3 U6 2.210417 1_565
O4 Si5 1.655591 1_555
O4 U5 2.229397 1_555
O5 Si4 1.645805 1_555
O5 U4 2.210417 1_555
O6 Si5 1.645807 1_555
O6 U7 2.210419 1_455
O7 Si7 1.645797 1_555
O7 U0 2.210425 1_555
O8 Si4 1.655592 1_554
O8 U0 2.229400 1_555
O9 Si0 1.655591 1_555
O9 U4 2.229397 1_555
O10 Si2 1.645807 1_555
O10 U5 2.210419 1_555
O11 U5 1.889862 1_555
O12 Si1 1.655592 1_556
O12 U1 2.229400 1_455
O13 U5 1.889862 1_555
O14 Si3 1.655592 1_655
O14 U0 2.229400 1_555
O15 U2 1.889862 1_555
O16 Si0 1.655591 1_555
O16 U7 2.229397 1_455
O17 Si6 1.655591 1_556
O17 U5 2.229397 1_555
O18 Si6 1.655591 1_555
O18 U6 2.229397 1_565
O19 Si7 1.645805 1_555
O19 U6 2.210417 1_555
O20 U1 1.889862 1_555
O21 Si6 1.645807 1_555
O21 U7 2.210419 1_565
O22 Si7 1.655592 1_555
O22 U1 2.229400 1_555
O23 Si1 1.645797 1_555
O23 U0 2.210425 1_455
O24 U6 1.889862 1_555
O25 U3 1.889862 1_555
O26 Si3 1.645805 1_555
O26 U4 2.210417 1_565
O27 Si4 1.645797 1_555
O27 U1 2.210425 1_555
O28 U4 1.889862 1_565
O29 U7 1.889862 1_565
O30 Si3 1.645797 1_555
O30 U1 2.210425 1_455
O31 U3 1.889862 1_455
O32 Si1 1.655584 1_555
O32 U2 2.229406 1_555
O33 Si6 1.645797 1_555
O33 U2 2.210425 1_555
O34 U4 1.889862 1_555
O35 U6 1.889862 1_555
O36 Si5 1.655591 1_555
O36 U6 2.229397 1_555
O37 Si0 1.645797 1_555
O37 U3 2.210425 1_455
O38 U7 1.889862 1_555
O39 U0 1.889862 1_455
O40 Si2 1.645797 1_555
O40 U3 2.210425 1_565
O41 Si3 1.655584 1_655
O41 U3 2.229406 1_565
O42 Si7 1.655584 1_555
O42 U2 2.229406 1_555
O43 Si2 1.655591 1_544
O43 U7 2.229397 1_555
O44 U2 1.889862 1_555
O45 Si4 1.655584 1_555
O45 U3 2.229406 1_555
O46 U1 1.889862 1_555
O47 Si2 1.655591 1_545
O47 U4 2.229397 1_555
