# generated using pymatgen
data_Pr(AlGa)2
_symmetry_space_group_name_H-M   'P 1'
_cell_length_a   4.20103760
_cell_length_b   4.20104823
_cell_length_c   6.31890690
_cell_angle_alpha   108.96721927
_cell_angle_beta   108.96696760
_cell_angle_gamma   90.08970747
_symmetry_Int_Tables_number   1
_chemical_formula_structural   Pr(AlGa)2
_chemical_formula_sum   'Pr1 Al2 Ga2'
_cell_volume   99.02050525
_cell_formula_units_Z   1
loop_
 _symmetry_equiv_pos_site_id
 _symmetry_equiv_pos_as_xyz
  1  'x, y, z'
loop_
 _atom_site_type_symbol
 _atom_site_label
 _atom_site_symmetry_multiplicity
 _atom_site_fract_x
 _atom_site_fract_y
 _atom_site_fract_z
 _atom_site_occupancy
  Pr  Pr0  1  -0.00000000  0.00000000  -0.00000000  1
  Al  Al0  1  0.24739721  0.75260379  0.50000000  1
  Al  Al1  1  0.75260279  0.24739621  0.50000000  1
  Ga  Ga0  1  0.61111248  0.61111348  0.22422063  1
  Ga  Ga1  1  0.38888752  0.38888652  0.77577937  1
loop_
_geom_bond_atom_site_label_1
_geom_bond_atom_site_label_2
_geom_bond_distance
_geom_bond_site_symmetry_2
Al0 Ga0 2.604834 1_555
Al0 Ga1 2.604850 1_555
Al0 Ga1 2.613222 1_565
Al0 Ga0 2.613229 1_455
Al0 Pr0 3.485096 1_566
Al0 Pr0 3.485103 1_565
Al0 Pr0 3.524259 1_555
Al0 Pr0 3.524259 1_666
Al1 Ga1 2.604834 1_555
Al1 Ga0 2.604850 1_555
Al1 Ga0 2.613222 1_545
Al1 Ga1 2.613229 1_655
Al1 Pr0 3.485096 1_655
Al1 Pr0 3.485103 1_656
Al1 Pr0 3.524259 1_666
Al1 Pr0 3.524259 1_555
Ga0 Ga1 2.516086 1_554
Ga0 Pr0 3.216608 1_665
Ga0 Pr0 3.228137 1_655
Ga0 Pr0 3.228137 1_565
Ga0 Pr0 3.231084 1_555
Ga1 Pr0 3.216608 1_556
Ga1 Pr0 3.228137 1_566
Ga1 Pr0 3.228137 1_656
Ga1 Pr0 3.231084 1_666
