# generated using pymatgen
data_Sr2Cu2Te(BrO3)2
_symmetry_space_group_name_H-M   'P 1'
_cell_length_a   5.25768000
_cell_length_b   9.49412200
_cell_length_c   9.55689235
_cell_angle_alpha   84.64879407
_cell_angle_beta   90.00000000
_cell_angle_gamma   90.00000000
_symmetry_Int_Tables_number   1
_chemical_formula_structural   Sr2Cu2Te(BrO3)2
_chemical_formula_sum   'Sr4 Cu4 Te2 Br4 O12'
_cell_volume   474.97281173
_cell_formula_units_Z   2
loop_
 _symmetry_equiv_pos_site_id
 _symmetry_equiv_pos_as_xyz
  1  'x, y, z'
loop_
 _atom_site_type_symbol
 _atom_site_label
 _atom_site_symmetry_multiplicity
 _atom_site_fract_x
 _atom_site_fract_y
 _atom_site_fract_z
 _atom_site_occupancy
  Sr  Sr0  1  0.10227900  0.81794800  0.27738200  1
  Sr  Sr1  1  0.60227900  0.68205200  0.72261800  1
  Sr  Sr2  1  0.39772100  0.31794800  0.27738200  1
  Sr  Sr3  1  0.89772100  0.18205200  0.72261800  1
  Cu  Cu0  1  0.51727400  0.63529900  0.08091200  1
  Cu  Cu1  1  0.98272600  0.13529900  0.08091200  1
  Cu  Cu2  1  0.48272600  0.36470100  0.91908800  1
  Cu  Cu3  1  0.01727400  0.86470100  0.91908800  1
  Te  Te0  1  0.00000000  0.50000000  0.00000000  1
  Te  Te1  1  0.50000000  0.00000000  0.00000000  1
  Br  Br0  1  0.61166900  0.66355300  0.38868200  1
  Br  Br1  1  0.88833100  0.16355300  0.38868200  1
  Br  Br2  1  0.11166900  0.83644700  0.61131800  1
  Br  Br3  1  0.38833100  0.33644700  0.61131800  1
  O  O0  1  0.29799700  0.54571900  0.88349900  1
  O  O1  1  0.18730700  0.55834200  0.16385100  1
  O  O2  1  0.20200300  0.04571900  0.88349900  1
  O  O3  1  0.83147400  0.68810400  0.96702300  1
  O  O4  1  0.81269300  0.44165800  0.83614900  1
  O  O5  1  0.79799700  0.95428100  0.11650100  1
  O  O6  1  0.70200300  0.45428100  0.11650100  1
  O  O7  1  0.66852600  0.18810400  0.96702300  1
  O  O8  1  0.68730700  0.94165800  0.83614900  1
  O  O9  1  0.16852600  0.31189600  0.03297700  1
  O  O10  1  0.31269300  0.05834200  0.16385100  1
  O  O11  1  0.33147400  0.81189600  0.03297700  1
loop_
_geom_bond_atom_site_label_1
_geom_bond_atom_site_label_2
_geom_bond_distance
_geom_bond_site_symmetry_2
Cu0 O11 1.957547 1_555
Cu0 O6 1.975749 1_555
Cu0 O3 2.015741 1_554
Cu0 O1 2.015895 1_555
Cu0 O0 2.431301 1_554
Cu1 O9 1.957547 1_655
Cu1 O5 1.975749 1_545
Cu1 O7 2.015741 1_554
Cu1 O10 2.015895 1_655
Cu1 O2 2.431301 1_654
Cu2 O7 1.957547 1_555
Cu2 O0 1.975749 1_555
Cu2 O9 2.015741 1_556
Cu2 O4 2.015895 1_555
Cu2 O6 2.431301 1_556
Cu3 O3 1.957547 1_455
Cu3 O2 1.975749 1_565
Cu3 O11 2.015741 1_556
Cu3 O8 2.015895 1_455
Cu3 O5 2.431301 1_456
Br0 Cu0 3.019408 1_555
Br0 Sr0 3.105313 1_655
Br0 Sr0 3.187806 1_555
Br0 Sr1 3.212912 1_555
Br1 Cu1 3.019408 1_555
Br1 Sr2 3.105313 1_555
Br1 Sr2 3.187806 1_655
Br1 Sr3 3.212912 1_555
Br2 Cu3 3.019408 1_555
Br2 Sr1 3.105313 1_555
Br2 Sr1 3.187806 1_455
Br2 Sr0 3.212912 1_555
Br3 Cu2 3.019408 1_555
Br3 Sr3 3.105313 1_455
Br3 Sr3 3.187806 1_555
Br3 Sr2 3.212912 1_555
O0 Te0 1.947480 1_556
O0 Sr1 2.495509 1_555
O1 Te0 1.972432 1_555
O1 Sr2 2.673621 1_555
O1 Sr0 2.819714 1_555
O2 Te1 1.947480 1_556
O2 Sr3 2.495509 1_455
O3 Te0 1.992188 1_656
O3 Sr1 2.633663 1_555
O4 Te0 1.972432 1_656
O4 Sr1 2.673621 1_555
O4 Sr3 2.819714 1_555
O5 Te1 1.947480 1_565
O5 Sr0 2.495509 1_655
O6 Te0 1.947480 1_655
O6 Sr2 2.495509 1_555
O7 Te1 1.992188 1_556
O7 Sr3 2.633663 1_555
O8 Te1 1.972432 1_566
O8 Sr3 2.673621 1_565
O8 Sr1 2.819714 1_555
O9 Te0 1.992188 1_555
O9 Sr2 2.633663 1_555
O10 Te1 1.972432 1_555
O10 Sr0 2.673621 1_545
O10 Sr2 2.819714 1_555
O11 Te1 1.992188 1_565
O11 Sr0 2.633663 1_555
