# generated using pymatgen
data_CrHg3(PbO4)2
_symmetry_space_group_name_H-M   'P 1'
_cell_length_a   22.39420600
_cell_length_b   6.57620600
_cell_length_c   7.19657041
_cell_angle_alpha   70.48331464
_cell_angle_beta   90.00000000
_cell_angle_gamma   90.00000000
_symmetry_Int_Tables_number   1
_chemical_formula_structural   CrHg3(PbO4)2
_chemical_formula_sum   'Cr4 Hg12 Pb8 O32'
_cell_volume   998.93769429
_cell_formula_units_Z   4
loop_
 _symmetry_equiv_pos_site_id
 _symmetry_equiv_pos_as_xyz
  1  'x, y, z'
loop_
 _atom_site_type_symbol
 _atom_site_label
 _atom_site_symmetry_multiplicity
 _atom_site_fract_x
 _atom_site_fract_y
 _atom_site_fract_z
 _atom_site_occupancy
  Cr  Cr0  1  0.38859600  0.41476400  0.86459900  1
  Cr  Cr1  1  0.88859600  0.58523600  0.63540100  1
  Cr  Cr2  1  0.11140400  0.41476400  0.36459900  1
  Cr  Cr3  1  0.61140400  0.58523600  0.13540100  1
  Hg  Hg0  1  0.05595300  0.49506900  0.82515600  1
  Hg  Hg1  1  0.71790200  0.64064200  0.60071000  1
  Hg  Hg2  1  0.94404700  0.50493100  0.17484400  1
  Hg  Hg3  1  0.21790200  0.35935800  0.89929000  1
  Hg  Hg4  1  0.86191400  0.07375000  0.12845000  1
  Hg  Hg5  1  0.63808600  0.07375000  0.62845000  1
  Hg  Hg6  1  0.28209800  0.35935800  0.39929000  1
  Hg  Hg7  1  0.78209800  0.64064200  0.10071000  1
  Hg  Hg8  1  0.13808600  0.92625000  0.87155000  1
  Hg  Hg9  1  0.55595300  0.50493100  0.67484400  1
  Hg  Hg10  1  0.36191400  0.92625000  0.37155000  1
  Hg  Hg11  1  0.44404700  0.49506900  0.32515600  1
  Pb  Pb0  1  0.52174900  0.02851500  0.24063600  1
  Pb  Pb1  1  0.79856800  0.16646300  0.57252900  1
  Pb  Pb2  1  0.97825100  0.02851500  0.74063600  1
  Pb  Pb3  1  0.02174900  0.97148500  0.25936400  1
  Pb  Pb4  1  0.29856800  0.83353700  0.92747100  1
  Pb  Pb5  1  0.20143200  0.83353700  0.42747100  1
  Pb  Pb6  1  0.47825100  0.97148500  0.75936400  1
  Pb  Pb7  1  0.70143200  0.16646300  0.07252900  1
  O  O0  1  0.45644000  0.31640000  0.94058800  1
  O  O1  1  0.64240900  0.73347400  0.25658500  1
  O  O2  1  0.04356000  0.31640000  0.44058800  1
  O  O3  1  0.04172400  0.17213700  0.92109700  1
  O  O4  1  0.95644000  0.68360000  0.55941200  1
  O  O5  1  0.35759100  0.26652600  0.74341500  1
  O  O6  1  0.45827600  0.17213700  0.42109700  1
  O  O7  1  0.89461800  0.32601100  0.78012100  1
  O  O8  1  0.85759100  0.73347400  0.75658500  1
  O  O9  1  0.54356000  0.68360000  0.05941200  1
  O  O10  1  0.84510700  0.58754400  0.44415400  1
  O  O11  1  0.78588500  0.97104800  0.00930200  1
  O  O12  1  0.10538200  0.67398900  0.21987900  1
  O  O13  1  0.22429300  0.68565400  0.79168900  1
  O  O14  1  0.14240900  0.26652600  0.24341500  1
  O  O15  1  0.34510700  0.41245600  0.05584600  1
  O  O16  1  0.15489300  0.41245600  0.55584600  1
  O  O17  1  0.71411500  0.97104800  0.50930200  1
  O  O18  1  0.77570700  0.31434600  0.20831100  1
  O  O19  1  0.60538200  0.32601100  0.28012100  1
  O  O20  1  0.06749000  0.82320800  0.73171200  1
  O  O21  1  0.56749000  0.17679200  0.76828800  1
  O  O22  1  0.43251000  0.82320800  0.23171200  1
  O  O23  1  0.28588500  0.02895200  0.49069800  1
  O  O24  1  0.93251000  0.17679200  0.26828800  1
  O  O25  1  0.95827600  0.82786300  0.07890300  1
  O  O26  1  0.65489300  0.58754400  0.94415400  1
  O  O27  1  0.72429300  0.31434600  0.70831100  1
  O  O28  1  0.21411500  0.02895200  0.99069800  1
  O  O29  1  0.54172400  0.82786300  0.57890300  1
  O  O30  1  0.39461800  0.67398900  0.71987900  1
  O  O31  1  0.27570700  0.68565400  0.29168900  1
loop_
_geom_bond_atom_site_label_1
_geom_bond_atom_site_label_2
_geom_bond_distance
_geom_bond_site_symmetry_2
Cr0 O5 1.661639 1_555
Cr0 O0 1.670161 1_555
Cr0 O30 1.680077 1_555
Cr0 O15 1.681969 1_556
Cr1 O8 1.661639 1_555
Cr1 O4 1.670161 1_555
Cr1 O7 1.680077 1_555
Cr1 O10 1.681969 1_555
Cr2 O14 1.661639 1_555
Cr2 O2 1.670161 1_555
Cr2 O12 1.680077 1_555
Cr2 O16 1.681969 1_555
Cr3 O1 1.661639 1_555
Cr3 O9 1.670161 1_555
Cr3 O19 1.680077 1_555
Cr3 O26 1.681969 1_554
Hg0 O3 2.026944 1_555
Hg0 O20 2.050841 1_555
Hg1 O27 2.028374 1_555
Hg1 O17 2.050862 1_555
Hg2 O25 2.026944 1_555
Hg2 O24 2.050841 1_555
Hg3 O13 2.028374 1_555
Hg3 O28 2.050862 1_555
Hg4 O24 2.104030 1_555
Hg4 O11 2.115941 1_545
Hg4 O18 2.677359 1_555
Hg5 O21 2.104030 1_555
Hg5 O17 2.115941 1_545
Hg5 O27 2.677359 1_555
Hg6 O31 2.028374 1_555
Hg6 O23 2.050862 1_555
Hg7 O18 2.028374 1_555
Hg7 O11 2.050862 1_555
Hg8 O20 2.104030 1_555
Hg8 O28 2.115941 1_565
Hg8 O13 2.677359 1_555
Hg9 O29 2.026944 1_555
Hg9 O21 2.050841 1_555
Hg10 O22 2.104030 1_555
Hg10 O23 2.115941 1_565
Hg10 O31 2.677359 1_555
Hg11 O6 2.026944 1_555
Hg11 O22 2.050841 1_555
O0 Pb0 2.766659 1_556
O2 Pb2 2.766659 1_455
O3 Pb2 2.327812 1_455
O3 Pb3 2.391881 1_546
O4 Pb3 2.766659 1_655
O6 Pb0 2.327812 1_555
O6 Pb6 2.391881 1_545
O7 Pb2 2.790593 1_555
O9 Pb6 2.766659 1_554
O11 Pb7 2.413722 1_565
O12 Pb3 2.790593 1_555
O13 Pb4 2.302661 1_555
O13 Pb5 2.524867 1_555
O17 Pb1 2.413722 1_565
O18 Pb7 2.302661 1_555
O18 Pb1 2.524867 1_555
O19 Pb0 2.790593 1_555
O20 Pb2 2.424601 1_465
O21 Pb6 2.424601 1_545
O22 Pb0 2.424601 1_565
O23 Pb5 2.413722 1_545
O24 Pb3 2.424601 1_645
O25 Pb3 2.327812 1_655
O25 Pb2 2.391881 1_564
O27 Pb1 2.302661 1_555
O27 Pb7 2.524867 1_556
O28 Pb4 2.413722 1_545
O29 Pb6 2.327812 1_555
O29 Pb0 2.391881 1_565
O30 Pb6 2.790593 1_555
O31 Pb5 2.302661 1_555
O31 Pb4 2.524867 1_554
