# generated using pymatgen
data_Na17(WO3)20
_symmetry_space_group_name_H-M   'P 1'
_cell_length_a   3.94669406
_cell_length_b   15.85733693
_cell_length_c   21.37985975
_cell_angle_alpha   68.23210436
_cell_angle_beta   90.00000000
_cell_angle_gamma   90.00000000
_symmetry_Int_Tables_number   1
_chemical_formula_structural   Na17(WO3)20
_chemical_formula_sum   'Na17 W20 O60'
_cell_volume   1242.62789754
_cell_formula_units_Z   1
loop_
 _symmetry_equiv_pos_site_id
 _symmetry_equiv_pos_as_xyz
  1  'x, y, z'
loop_
 _atom_site_type_symbol
 _atom_site_label
 _atom_site_symmetry_multiplicity
 _atom_site_fract_x
 _atom_site_fract_y
 _atom_site_fract_z
 _atom_site_occupancy
  Na  Na0  1  -0.00000000  0.24816887  0.00051920  1
  Na  Na1  1  0.00000000  0.15183113  0.19948080  1
  Na  Na2  1  0.00000000  0.49889879  0.00220243  1
  Na  Na3  1  0.00000000  0.05165548  0.40033030  1
  Na  Na4  1  0.00000000  0.75131193  0.00051920  1
  Na  Na5  1  -0.00000000  0.30120640  0.39758721  1
  Na  Na6  1  -0.00000000  0.64868807  0.19948080  1
  Na  Na7  1  -0.00000000  0.90110121  0.19779757  1
  Na  Na8  1  0.00000000  0.09879360  0.80241279  1
  Na  Na9  1  -0.00000000  0.45092474  0.60000000  1
  Na  Na10  1  0.00000000  0.79812877  0.40374246  1
  Na  Na11  1  -0.00000000  0.34834452  0.79966970  1
  Na  Na12  1  -0.00000000  0.60187123  0.79625754  1
  Na  Na13  1  0.00000000  0.94907526  0.60000000  1
  Na  Na14  1  0.00000000  0.20000000  0.60000000  1
  Na  Na15  1  -0.00000000  0.54801422  0.40033030  1
  Na  Na16  1  0.00000000  0.85198578  0.79966970  1
  W  W0  1  0.50000000  0.07418254  0.09947537  1
  W  W1  1  0.50000000  0.22749973  0.29801989  1
  W  W2  1  0.50000000  0.32581746  0.10052463  1
  W  W3  1  0.50000000  0.02455822  0.70040885  1
  W  W4  1  0.50000000  0.57365791  0.10052463  1
  W  W5  1  0.50000000  0.72516907  0.29956225  1
  W  W6  1  0.50000000  0.47448039  0.29801989  1
  W  W7  1  0.50000000  0.12496707  0.49959115  1
  W  W8  1  0.50000000  0.82634209  0.09947537  1
  W  W9  1  0.50000000  0.52636627  0.69924808  1
  W  W10  1  0.50000000  0.37544178  0.49959115  1
  W  W11  1  0.50000000  0.27503293  0.70040885  1
  W  W12  1  0.50000000  0.97526868  0.29956225  1
  W  W13  1  0.50000000  0.62561435  0.50075192  1
  W  W14  1  0.50000000  0.17250027  0.90198011  1
  W  W15  1  0.50000000  0.87363373  0.50075192  1
  W  W16  1  0.50000000  0.77438565  0.69924808  1
  W  W17  1  0.50000000  0.42473132  0.90043775  1
  W  W18  1  0.50000000  0.67483093  0.90043775  1
  W  W19  1  0.50000000  0.92551961  0.90198011  1
  O  O0  1  -0.00000000  0.07632804  0.10107493  1
  O  O1  1  -0.00000000  0.32367196  0.09892507  1
  O  O2  1  0.00000000  0.22371550  0.30001004  1
  O  O3  1  0.00000000  0.57740297  0.09892507  1
  O  O4  1  0.00000000  0.12819428  0.49807739  1
  O  O5  1  0.00000000  0.47627446  0.30001004  1
  O  O6  1  -0.00000000  0.82259703  0.10107493  1
  O  O7  1  -0.00000000  0.37372833  0.49807739  1
  O  O8  1  0.00000000  0.02627167  0.70192261  1
  O  O9  1  0.00000000  0.72508291  0.29942727  1
  O  O10  1  -0.00000000  0.97548983  0.29942727  1
  O  O11  1  0.00000000  0.62251771  0.49647361  1
  O  O12  1  -0.00000000  0.27180572  0.70192261  1
  O  O13  1  0.00000000  0.17628450  0.89998996  1
  O  O14  1  0.00000000  0.51899132  0.70352639  1
  O  O15  1  -0.00000000  0.88100868  0.49647361  1
  O  O16  1  0.00000000  0.42451017  0.90057273  1
  O  O17  1  -0.00000000  0.77748229  0.70352639  1
  O  O18  1  -0.00000000  0.67491709  0.90057273  1
  O  O19  1  -0.00000000  0.92372554  0.89998996  1
  O  O20  1  0.50000000  0.02461409  0.20258549  1
  O  O21  1  0.50000000  0.20000000  0.10000000  1
  O  O22  1  0.50000000  0.10155646  0.29948116  1
  O  O23  1  0.50000000  0.37538591  0.99741451  1
  O  O24  1  0.50000000  0.27206806  0.20259276  1
  O  O25  1  0.50000000  0.12793194  0.99740724  1
  O  O26  1  0.50000000  0.34830933  0.30338133  1
  O  O27  1  0.50000000  0.52533918  0.20259276  1
  O  O28  1  0.50000000  0.00507117  0.49883715  1
  O  O29  1  0.50000000  0.17694394  0.39648970  1
  O  O30  1  0.50000000  0.07886380  0.60000000  1
  O  O31  1  0.50000000  0.70000000  0.10000000  1
  O  O32  1  0.50000000  0.87466082  0.99740724  1
  O  O33  1  0.50000000  0.77280042  0.20258549  1
  O  O34  1  0.50000000  0.45237159  0.09525682  1
  O  O35  1  0.50000000  0.62719958  0.99741451  1
  O  O36  1  0.50000000  0.32113620  0.60000000  1
  O  O37  1  0.50000000  0.59896238  0.29948116  1
  O  O38  1  0.50000000  0.14921666  0.70156667  1
  O  O39  1  0.50000000  0.49609168  0.49883715  1
  O  O40  1  0.50000000  0.67634115  0.39627908  1
  O  O41  1  0.50000000  0.56440730  0.60000000  1
  O  O42  1  0.50000000  0.85108421  0.29783158  1
  O  O43  1  0.50000000  0.25078334  0.49843333  1
  O  O44  1  0.50000000  0.42656635  0.39648970  1
  O  O45  1  0.50000000  0.39492883  0.70116285  1
  O  O46  1  0.50000000  0.94762841  0.10474318  1
  O  O47  1  0.50000000  0.29844354  0.90051884  1
  O  O48  1  0.50000000  0.47262023  0.80372092  1
  O  O49  1  0.50000000  0.64572831  0.70854338  1
  O  O50  1  0.50000000  0.83559270  0.60000000  1
  O  O51  1  0.50000000  0.05169067  0.89661867  1
  O  O52  1  0.50000000  0.22305606  0.80351030  1
  O  O53  1  0.50000000  0.75427169  0.49145662  1
  O  O54  1  0.50000000  0.92737977  0.39627908  1
  O  O55  1  0.50000000  0.90390832  0.70116285  1
  O  O56  1  0.50000000  0.80103762  0.90051884  1
  O  O57  1  0.50000000  0.97343365  0.80351030  1
  O  O58  1  0.50000000  0.54891579  0.90216842  1
  O  O59  1  0.50000000  0.72365885  0.80372092  1
loop_
_geom_bond_atom_site_label_1
_geom_bond_atom_site_label_2
_geom_bond_distance
_geom_bond_site_symmetry_2
Na0 O25 2.761862 1_554
Na0 O25 2.761862 1_454
Na0 O0 2.775280 1_555
Na0 O1 2.779961 1_555
Na0 O13 2.781365 1_554
Na0 O21 2.792174 1_555
Na0 O21 2.792174 1_455
Na0 O47 2.799374 1_554
Na0 O47 2.799374 1_454
Na0 O23 2.805135 1_454
Na0 O23 2.805135 1_554
Na0 O16 2.820210 1_554
Na1 O24 2.761862 1_555
Na1 O24 2.761862 1_455
Na1 O1 2.775280 1_555
Na1 O0 2.779961 1_555
Na1 O2 2.781365 1_555
Na1 O21 2.792174 1_555
Na1 O21 2.792174 1_455
Na1 O22 2.799374 1_555
Na1 O22 2.799374 1_455
Na1 O20 2.805135 1_555
Na1 O20 2.805135 1_455
Na1 O10 2.820210 1_545
Na2 O34 2.703299 1_455
Na2 O34 2.703299 1_555
Na2 O3 2.781242 1_555
Na2 O1 2.781242 1_555
Na2 O58 2.799844 1_454
Na2 O58 2.799844 1_554
Na2 O35 2.808796 1_554
Na2 O35 2.808796 1_454
Na2 O23 2.808796 1_454
Na2 O23 2.808796 1_554
Na2 O18 2.830844 1_554
Na2 O16 2.830844 1_554
Na3 O15 2.724363 1_545
Na3 O2 2.775636 1_555
Na3 O28 2.778738 1_455
Na3 O28 2.778738 1_555
Na3 O4 2.778788 1_555
Na3 O29 2.779746 1_455
Na3 O29 2.779746 1_555
Na3 O22 2.811361 1_455
Na3 O22 2.811361 1_555
Na3 O54 2.812790 1_445
Na3 O54 2.812790 1_545
Na3 O10 2.836402 1_545
Na4 O32 2.761862 1_554
Na4 O32 2.761862 1_454
Na4 O6 2.775280 1_555
Na4 O3 2.779961 1_555
Na4 O19 2.781365 1_554
Na4 O31 2.792174 1_455
Na4 O31 2.792174 1_555
Na4 O56 2.799374 1_554
Na4 O56 2.799374 1_454
Na4 O35 2.805135 1_454
Na4 O35 2.805135 1_554
Na4 O18 2.820210 1_554
Na5 O26 2.718976 1_555
Na5 O26 2.718976 1_455
Na5 O5 2.786298 1_555
Na5 O2 2.786298 1_555
Na5 O7 2.787644 1_555
Na5 O4 2.787644 1_555
Na5 O44 2.794942 1_555
Na5 O44 2.794942 1_455
Na5 O29 2.794942 1_455
Na5 O29 2.794942 1_555
Na5 O43 2.811306 1_555
Na5 O43 2.811306 1_455
Na6 O27 2.761862 1_455
Na6 O27 2.761862 1_555
Na6 O3 2.775280 1_555
Na6 O6 2.779961 1_555
Na6 O5 2.781365 1_555
Na6 O31 2.792174 1_455
Na6 O31 2.792174 1_555
Na6 O37 2.799374 1_455
Na6 O37 2.799374 1_555
Na6 O33 2.805135 1_455
Na6 O33 2.805135 1_555
Na6 O9 2.820210 1_555
Na7 O46 2.703299 1_555
Na7 O46 2.703299 1_455
Na7 O6 2.781242 1_555
Na7 O0 2.781242 1_565
Na7 O42 2.799844 1_455
Na7 O42 2.799844 1_555
Na7 O33 2.808796 1_455
Na7 O33 2.808796 1_555
Na7 O20 2.808796 1_565
Na7 O20 2.808796 1_465
Na7 O9 2.830844 1_555
Na7 O10 2.830844 1_555
Na8 O51 2.718976 1_555
Na8 O51 2.718976 1_455
Na8 O19 2.786298 1_545
Na8 O13 2.786298 1_555
Na8 O8 2.787644 1_555
Na8 O12 2.787644 1_555
Na8 O57 2.794942 1_445
Na8 O57 2.794942 1_545
Na8 O52 2.794942 1_455
Na8 O52 2.794942 1_555
Na8 O38 2.811306 1_555
Na8 O38 2.811306 1_455
Na9 O41 2.670657 1_455
Na9 O41 2.670657 1_555
Na9 O14 2.799282 1_555
Na9 O11 2.799282 1_555
Na9 O39 2.817097 1_455
Na9 O39 2.817097 1_555
Na9 O45 2.817097 1_455
Na9 O45 2.817097 1_555
Na9 O36 2.851294 1_555
Na9 O36 2.851294 1_455
Na9 O7 2.867995 1_555
Na9 O12 2.867995 1_555
Na10 O53 2.631967 1_455
Na10 O53 2.631967 1_555
Na10 O15 2.755078 1_555
Na10 O11 2.755078 1_555
Na10 O40 2.806734 1_455
Na10 O40 2.806734 1_555
Na10 O54 2.806734 1_455
Na10 O54 2.806734 1_555
Na10 O9 2.869096 1_555
Na10 O10 2.869096 1_555
Na10 O42 2.883795 1_455
Na10 O42 2.883795 1_555
Na11 O14 2.724363 1_555
Na11 O13 2.775636 1_555
Na11 O45 2.778738 1_555
Na11 O45 2.778738 1_455
Na11 O12 2.778788 1_555
Na11 O52 2.779746 1_555
Na11 O52 2.779746 1_455
Na11 O47 2.811361 1_555
Na11 O47 2.811361 1_455
Na11 O48 2.812790 1_455
Na11 O48 2.812790 1_555
Na11 O16 2.836402 1_555
Na12 O49 2.631967 1_455
Na12 O49 2.631967 1_555
Na12 O14 2.755078 1_555
Na12 O17 2.755078 1_555
Na12 O59 2.806734 1_555
Na12 O59 2.806734 1_455
Na12 O48 2.806734 1_555
Na12 O48 2.806734 1_455
Na12 O18 2.869096 1_555
Na12 O16 2.869096 1_555
Na12 O58 2.883795 1_455
Na12 O58 2.883795 1_555
Na13 O50 2.670657 1_455
Na13 O50 2.670657 1_555
Na13 O15 2.799282 1_555
Na13 O17 2.799282 1_555
Na13 O55 2.817097 1_455
Na13 O55 2.817097 1_555
Na13 O28 2.817097 1_565
Na13 O28 2.817097 1_465
Na13 O30 2.851294 1_565
Na13 O30 2.851294 1_465
Na13 O8 2.867995 1_565
Na13 O4 2.867995 1_565
Na14 O36 2.753896 1_455
Na14 O36 2.753896 1_555
Na14 O30 2.753896 1_455
Na14 O30 2.753896 1_555
Na14 O4 2.808071 1_555
Na14 O12 2.808071 1_555
Na14 O7 2.808071 1_555
Na14 O8 2.808071 1_555
Na14 O38 2.821514 1_555
Na14 O38 2.821514 1_455
Na14 O43 2.821514 1_555
Na14 O43 2.821514 1_455
Na15 O11 2.724363 1_555
Na15 O5 2.775636 1_555
Na15 O39 2.778738 1_555
Na15 O39 2.778738 1_455
Na15 O7 2.778788 1_555
Na15 O44 2.779746 1_455
Na15 O44 2.779746 1_555
Na15 O37 2.811361 1_555
Na15 O37 2.811361 1_455
Na15 O40 2.812790 1_455
Na15 O40 2.812790 1_555
Na15 O9 2.836402 1_555
Na16 O17 2.724363 1_555
Na16 O19 2.775636 1_555
Na16 O55 2.778738 1_455
Na16 O55 2.778738 1_555
Na16 O8 2.778788 1_565
Na16 O57 2.779746 1_455
Na16 O57 2.779746 1_555
Na16 O56 2.811361 1_555
Na16 O56 2.811361 1_455
Na16 O59 2.812790 1_455
Na16 O59 2.812790 1_555
Na16 O18 2.836402 1_555
O0 W0 1.974155 1_555
O0 W0 1.974155 1_455
O1 W2 1.974155 1_555
O1 W2 1.974155 1_455
O2 W1 1.974238 1_455
O2 W1 1.974238 1_555
O3 W4 1.974155 1_555
O3 W4 1.974155 1_455
O4 W7 1.973965 1_555
O4 W7 1.973965 1_455
O5 W6 1.974238 1_555
O5 W6 1.974238 1_455
O6 W8 1.974155 1_555
O6 W8 1.974155 1_455
O7 W10 1.973965 1_555
O7 W10 1.973965 1_455
O8 W3 1.973965 1_455
O8 W3 1.973965 1_555
O9 W5 1.973350 1_455
O9 W5 1.973350 1_555
O10 W12 1.973350 1_455
O10 W12 1.973350 1_555
O11 W13 1.976919 1_455
O11 W13 1.976919 1_555
O12 W11 1.973965 1_455
O12 W11 1.973965 1_555
O13 W14 1.974238 1_555
O13 W14 1.974238 1_455
O14 W9 1.976919 1_555
O14 W9 1.976919 1_455
O15 W15 1.976919 1_555
O15 W15 1.976919 1_455
O16 W17 1.973350 1_455
O16 W17 1.973350 1_555
O17 W16 1.976919 1_455
O17 W16 1.976919 1_555
O18 W18 1.973350 1_455
O18 W18 1.973350 1_555
O19 W19 1.974238 1_455
O19 W19 1.974238 1_555
O20 W12 1.925555 1_545
O20 W0 2.047529 1_555
O21 W2 1.999317 1_555
O21 W0 1.999317 1_555
O22 W1 1.985751 1_555
O22 W12 2.001946 1_545
O23 W17 1.925555 1_555
O23 W2 2.047529 1_556
O24 W1 1.895395 1_555
O24 W2 2.027055 1_555
O25 W14 1.895395 1_555
O25 W0 2.027055 1_556
O26 W1 1.961119 1_555
O26 W6 1.961119 1_555
O27 W6 1.895395 1_555
O27 W4 2.027055 1_555
O28 W7 1.907267 1_555
O28 W15 2.069415 1_545
O29 W1 1.955264 1_555
O29 W7 2.047126 1_555
O30 W7 1.994713 1_555
O30 W3 1.994713 1_555
O31 W4 1.999317 1_555
O31 W8 1.999317 1_555
O32 W19 1.895395 1_555
O32 W8 2.027055 1_556
O33 W5 1.925555 1_555
O33 W8 2.047529 1_555
O34 W4 1.967826 1_555
O34 W2 1.967826 1_555
O35 W18 1.925555 1_555
O35 W4 2.047529 1_556
O36 W11 1.994713 1_555
O36 W10 1.994713 1_555
O37 W6 1.985751 1_555
O37 W5 2.001946 1_555
O38 W3 1.986064 1_555
O38 W11 1.986064 1_555
O39 W10 1.907267 1_555
O39 W13 2.069415 1_555
O40 W5 1.920360 1_555
O40 W13 2.074482 1_555
O41 W9 1.979146 1_555
O41 W13 1.979146 1_555
O42 W12 1.983255 1_555
O42 W5 1.983255 1_555
O43 W10 1.986064 1_555
O43 W7 1.986064 1_555
O44 W6 1.955264 1_555
O44 W10 2.047126 1_555
O45 W11 1.907267 1_555
O45 W9 2.069415 1_555
O46 W8 1.967826 1_555
O46 W0 1.967826 1_565
O47 W14 1.985751 1_555
O47 W17 2.001946 1_555
O48 W17 1.920360 1_555
O48 W9 2.074482 1_555
O49 W9 1.975105 1_555
O49 W16 1.975105 1_555
O50 W15 1.979146 1_555
O50 W16 1.979146 1_555
O51 W14 1.961119 1_555
O51 W19 1.961119 1_545
O52 W14 1.955264 1_555
O52 W11 2.047126 1_555
O53 W15 1.975105 1_555
O53 W13 1.975105 1_555
O54 W12 1.920360 1_555
O54 W15 2.074482 1_555
O55 W3 1.907267 1_565
O55 W16 2.069415 1_555
O56 W19 1.985751 1_555
O56 W18 2.001946 1_555
O57 W19 1.955264 1_555
O57 W3 2.047126 1_565
O58 W17 1.983255 1_555
O58 W18 1.983255 1_555
O59 W18 1.920360 1_555
O59 W16 2.074482 1_555
