# generated using pymatgen
data_Tl2CdSnTe4
_symmetry_space_group_name_H-M   'P 1'
_cell_length_a   7.13660399
_cell_length_b   7.13660399
_cell_length_c   7.13660399
_cell_angle_alpha   105.17151513
_cell_angle_beta   105.17151513
_cell_angle_gamma   118.46235394
_symmetry_Int_Tables_number   1
_chemical_formula_structural   Tl2CdSnTe4
_chemical_formula_sum   'Tl2 Cd1 Sn1 Te4'
_cell_volume   274.56285849
_cell_formula_units_Z   1
loop_
 _symmetry_equiv_pos_site_id
 _symmetry_equiv_pos_as_xyz
  1  'x, y, z'
loop_
 _atom_site_type_symbol
 _atom_site_label
 _atom_site_symmetry_multiplicity
 _atom_site_fract_x
 _atom_site_fract_y
 _atom_site_fract_z
 _atom_site_occupancy
  Tl  Tl0  1  0.50000000  0.00000000  0.50000000  1
  Tl  Tl1  1  0.00000000  0.50000000  0.50000000  1
  Cd  Cd0  1  0.50000000  0.50000000  0.00000000  1
  Sn  Sn0  1  0.00000000  0.00000000  0.00000000  1
  Te  Te0  1  0.42005300  0.42005300  0.36049300  1
  Te  Te1  1  0.57994700  0.94044100  0.00000000  1
  Te  Te2  1  0.94044000  0.57994600  0.00000000  1
  Te  Te3  1  0.05956000  0.05956000  0.63950700  1
loop_
_geom_bond_atom_site_label_1
_geom_bond_atom_site_label_2
_geom_bond_distance
_geom_bond_site_symmetry_2
Cd0 Te3 2.914814 1_554
Cd0 Te0 2.914814 1_555
Cd0 Te2 2.914816 1_555
Cd0 Te1 2.914821 1_555
Sn0 Te0 2.820046 1_555
Sn0 Te3 2.820046 1_554
Sn0 Te1 2.820048 1_445
Sn0 Te2 2.820053 1_445
