# generated using pymatgen
data_K2CuP2O7
_symmetry_space_group_name_H-M   'P 1'
_cell_length_a   5.25969301
_cell_length_b   9.48592382
_cell_length_c   14.17434422
_cell_angle_alpha   90.00000000
_cell_angle_beta   90.00000000
_cell_angle_gamma   90.00000000
_symmetry_Int_Tables_number   1
_chemical_formula_structural   K2CuP2O7
_chemical_formula_sum   'K8 Cu4 P8 O28'
_cell_volume   707.20122533
_cell_formula_units_Z   4
loop_
 _symmetry_equiv_pos_site_id
 _symmetry_equiv_pos_as_xyz
  1  'x, y, z'
loop_
 _atom_site_type_symbol
 _atom_site_label
 _atom_site_symmetry_multiplicity
 _atom_site_fract_x
 _atom_site_fract_y
 _atom_site_fract_z
 _atom_site_occupancy
  K  K0  1  0.75000000  0.37571886  0.29879689  1
  K  K1  1  0.25000000  0.62428114  0.70120311  1
  K  K2  1  0.75000000  0.62955236  0.09017621  1
  K  K3  1  0.75000000  0.87044764  0.59017621  1
  K  K4  1  0.75000000  0.12428114  0.79879689  1
  K  K5  1  0.25000000  0.87571886  0.20120311  1
  K  K6  1  0.25000000  0.37044764  0.90982379  1
  K  K7  1  0.25000000  0.12955236  0.40982379  1
  Cu  Cu0  1  0.25000000  0.25050565  0.17037846  1
  Cu  Cu1  1  0.25000000  0.24949435  0.67037846  1
  Cu  Cu2  1  0.75000000  0.74949435  0.82962154  1
  Cu  Cu3  1  0.75000000  0.75050565  0.32962154  1
  P  P0  1  0.25000000  0.72391546  0.94745114  1
  P  P1  1  0.25000000  0.77608454  0.44745114  1
  P  P2  1  0.75000000  0.06822888  0.19420378  1
  P  P3  1  0.25000000  0.56822888  0.30579622  1
  P  P4  1  0.75000000  0.22391546  0.55254886  1
  P  P5  1  0.75000000  0.27608454  0.05254886  1
  P  P6  1  0.25000000  0.93177112  0.80579622  1
  P  P7  1  0.75000000  0.43177112  0.69420378  1
  O  O0  1  0.75000000  0.58949064  0.69853796  1
  O  O1  1  0.25000000  0.72037703  0.05217513  1
  O  O2  1  0.51242420  0.15718197  0.59665753  1
  O  O3  1  0.25000000  0.88877036  0.91614032  1
  O  O4  1  0.25000000  0.08949064  0.80146204  1
  O  O5  1  0.99163360  0.13421868  0.23505520  1
  O  O6  1  0.50836640  0.13421868  0.23505520  1
  O  O7  1  0.00836640  0.63421868  0.26494480  1
  O  O8  1  0.98757580  0.34281803  0.09665753  1
  O  O9  1  0.25000000  0.77962297  0.55217513  1
  O  O10  1  0.50836640  0.36578132  0.73505520  1
  O  O11  1  0.75000000  0.91050936  0.19853796  1
  O  O12  1  0.99163360  0.36578132  0.73505520  1
  O  O13  1  0.51242420  0.34281803  0.09665753  1
  O  O14  1  0.75000000  0.22037703  0.44782487  1
  O  O15  1  0.48757580  0.84281803  0.40334247  1
  O  O16  1  0.75000000  0.27962297  0.94782487  1
  O  O17  1  0.25000000  0.41050936  0.30146204  1
  O  O18  1  0.25000000  0.61122964  0.41614032  1
  O  O19  1  0.01242420  0.84281803  0.40334247  1
  O  O20  1  0.98757580  0.15718197  0.59665753  1
  O  O21  1  0.75000000  0.38877036  0.58385968  1
  O  O22  1  0.00836640  0.86578132  0.76494480  1
  O  O23  1  0.48757580  0.65718197  0.90334247  1
  O  O24  1  0.49163360  0.63421868  0.26494480  1
  O  O25  1  0.01242420  0.65718197  0.90334247  1
  O  O26  1  0.49163360  0.86578132  0.76494480  1
  O  O27  1  0.75000000  0.11122964  0.08385968  1
loop_
_geom_bond_atom_site_label_1
_geom_bond_atom_site_label_2
_geom_bond_distance
_geom_bond_site_symmetry_2
K0 O14 2.575559 1_555
K0 O17 2.650742 1_655
K0 O17 2.650742 1_555
K0 O6 2.771199 1_555
K0 O5 2.771199 1_555
K0 O24 2.844251 1_555
K0 O7 2.844251 1_655
K0 O8 3.141365 1_555
K0 O13 3.141365 1_555
K1 O9 2.575559 1_555
K1 O0 2.650742 1_555
K1 O0 2.650742 1_455
K1 O22 2.771199 1_555
K1 O26 2.771199 1_555
K1 O10 2.844251 1_555
K1 O12 2.844251 1_455
K1 O23 3.141365 1_555
K1 O25 3.141365 1_555
K2 O1 2.819309 1_555
K2 O1 2.819309 1_655
K2 O24 2.825830 1_555
K2 O7 2.825830 1_655
K2 O8 2.994654 1_555
K2 O13 2.994654 1_555
K2 O23 2.997840 1_554
K2 O25 2.997840 1_654
K2 O11 3.076055 1_555
K3 O9 2.819309 1_655
K3 O9 2.819309 1_555
K3 O26 2.825830 1_555
K3 O22 2.825830 1_655
K3 O2 2.994654 1_565
K3 O20 2.994654 1_565
K3 O15 2.997840 1_555
K3 O19 2.997840 1_655
K3 O0 3.076055 1_555
K4 O16 2.575559 1_555
K4 O4 2.650742 1_555
K4 O4 2.650742 1_655
K4 O10 2.771199 1_555
K4 O12 2.771199 1_555
K4 O26 2.844251 1_545
K4 O22 2.844251 1_645
K4 O20 3.141365 1_555
K4 O2 3.141365 1_555
K5 O1 2.575559 1_555
K5 O11 2.650742 1_555
K5 O11 2.650742 1_455
K5 O24 2.771199 1_555
K5 O7 2.771199 1_555
K5 O6 2.844251 1_565
K5 O5 2.844251 1_465
K5 O15 3.141365 1_555
K5 O19 3.141365 1_555
K6 O16 2.819309 1_455
K6 O16 2.819309 1_555
K6 O10 2.825830 1_555
K6 O12 2.825830 1_455
K6 O25 2.994654 1_555
K6 O23 2.994654 1_555
K6 O13 2.997840 1_556
K6 O8 2.997840 1_456
K6 O4 3.076055 1_555
K7 O14 2.819309 1_555
K7 O14 2.819309 1_455
K7 O6 2.825830 1_555
K7 O5 2.825830 1_455
K7 O19 2.994654 1_545
K7 O15 2.994654 1_545
K7 O20 2.997840 1_455
K7 O2 2.997840 1_555
K7 O17 3.076055 1_555
Cu0 O8 1.940065 1_455
Cu0 O13 1.940065 1_555
Cu0 O5 1.975835 1_455
Cu0 O6 1.975835 1_555
Cu0 O17 2.399149 1_555
Cu1 O2 1.940065 1_555
Cu1 O20 1.940065 1_455
Cu1 O10 1.975835 1_555
Cu1 O12 1.975835 1_455
Cu1 O4 2.399149 1_555
Cu2 O23 1.940065 1_555
Cu2 O25 1.940065 1_655
Cu2 O26 1.975835 1_555
Cu2 O22 1.975835 1_655
Cu2 O0 2.399149 1_555
Cu3 O15 1.940065 1_555
Cu3 O19 1.940065 1_655
Cu3 O24 1.975835 1_555
Cu3 O7 1.975835 1_655
Cu3 O11 2.399149 1_555
O0 P7 1.497376 1_555
O1 P0 1.484773 1_554
O2 P4 1.533967 1_555
O3 P6 1.616370 1_555
O3 P0 1.625559 1_555
O4 P6 1.497376 1_545
O5 P2 1.530479 1_555
O6 P2 1.530479 1_555
O7 P3 1.530479 1_555
O8 P5 1.533967 1_555
O9 P1 1.484773 1_555
O10 P7 1.530479 1_555
O11 P2 1.497376 1_565
O12 P7 1.530479 1_555
O13 P5 1.533967 1_555
O14 P4 1.484773 1_555
O15 P1 1.533967 1_555
O16 P5 1.484773 1_556
O17 P3 1.497376 1_555
O18 P3 1.616370 1_555
O18 P1 1.625559 1_555
O19 P1 1.533967 1_555
O20 P4 1.533967 1_555
O21 P7 1.616370 1_555
O21 P4 1.625559 1_555
O22 P6 1.530479 1_555
O23 P0 1.533967 1_555
O24 P3 1.530479 1_555
O25 P0 1.533967 1_555
O26 P6 1.530479 1_555
O27 P2 1.616370 1_555
O27 P5 1.625559 1_555
