# generated using pymatgen
data_Nd2As4O9
_symmetry_space_group_name_H-M   'P 1'
_cell_length_a   6.90184398
_cell_length_b   7.67147741
_cell_length_c   9.61538915
_cell_angle_alpha   96.43762865
_cell_angle_beta   103.76588852
_cell_angle_gamma   104.50952369
_symmetry_Int_Tables_number   1
_chemical_formula_structural   Nd2As4O9
_chemical_formula_sum   'Nd4 As8 O18'
_cell_volume   470.66223258
_cell_formula_units_Z   2
loop_
 _symmetry_equiv_pos_site_id
 _symmetry_equiv_pos_as_xyz
  1  'x, y, z'
loop_
 _atom_site_type_symbol
 _atom_site_label
 _atom_site_symmetry_multiplicity
 _atom_site_fract_x
 _atom_site_fract_y
 _atom_site_fract_z
 _atom_site_occupancy
  Nd  Nd0  1  0.75027282  0.94347814  0.12049914  1
  Nd  Nd1  1  0.77903259  0.46795915  0.09497192  1
  Nd  Nd2  1  0.24972718  0.05652186  0.87950086  1
  Nd  Nd3  1  0.22096741  0.53204085  0.90502808  1
  As  As0  1  0.82381830  0.22718400  0.44095159  1
  As  As1  1  0.32095072  0.23879548  0.57890410  1
  As  As2  1  0.67904928  0.76120452  0.42109590  1
  As  As3  1  0.17618170  0.77281600  0.55904841  1
  As  As4  1  0.69247704  0.64944364  0.79217594  1
  As  As5  1  0.30752296  0.35055636  0.20782406  1
  As  As6  1  0.25075587  0.92197689  0.21521803  1
  As  As7  1  0.74924413  0.07802311  0.78478197  1
  O  O0  1  0.86218347  0.89575635  0.85456045  1
  O  O1  1  0.12682056  0.45661847  0.12865238  1
  O  O2  1  0.63246870  0.66502390  0.24030106  1
  O  O3  1  0.65770296  0.13073706  0.93828576  1
  O  O4  1  0.10356831  0.31648914  0.49221257  1
  O  O5  1  0.87317944  0.54338153  0.87134762  1
  O  O6  1  -0.00108972  0.22329930  0.82591215  1
  O  O7  1  0.13781653  0.10424365  0.14543955  1
  O  O8  1  0.59176583  0.66688849  0.94647969  1
  O  O9  1  0.81670185  0.98553142  0.38839493  1
  O  O10  1  0.36753130  0.33497610  0.75969894  1
  O  O11  1  0.00108972  0.77670070  0.17408785  1
  O  O12  1  0.22623946  0.74997357  0.74129380  1
  O  O13  1  0.40823417  0.33311151  0.05352031  1
  O  O14  1  0.18329815  0.01446858  0.61160507  1
  O  O15  1  0.34229704  0.86926294  0.06171424  1
  O  O16  1  0.77376054  0.25002643  0.25870620  1
  O  O17  1  0.89643169  0.68351086  0.50778743  1
loop_
_geom_bond_atom_site_label_1
_geom_bond_atom_site_label_2
_geom_bond_distance
_geom_bond_site_symmetry_2
Nd0 O8 2.380840 1_554
Nd0 O11 2.394219 1_655
Nd0 O3 2.456245 1_564
Nd0 O9 2.475305 1_555
Nd0 O16 2.515618 1_565
Nd0 O2 2.584270 1_555
Nd0 O7 2.590052 1_665
Nd0 O15 2.634268 1_555
Nd0 O0 2.853265 1_554
Nd1 O1 2.369656 1_655
Nd1 O11 2.399912 1_655
Nd1 O16 2.421181 1_555
Nd1 O13 2.423633 1_555
Nd1 O5 2.477105 1_554
Nd1 O2 2.495341 1_555
Nd1 O8 2.576199 1_554
Nd1 O3 2.665270 1_554
Nd2 O13 2.380840 1_556
Nd2 O6 2.394219 1_555
Nd2 O15 2.456245 1_546
Nd2 O14 2.475305 1_555
Nd2 O12 2.515618 1_545
Nd2 O10 2.584270 1_555
Nd2 O0 2.590052 1_445
Nd2 O3 2.634268 1_555
Nd2 O7 2.853265 1_556
Nd3 O5 2.369656 1_455
Nd3 O6 2.399912 1_555
Nd3 O12 2.421181 1_555
Nd3 O8 2.423633 1_555
Nd3 O1 2.477105 1_556
Nd3 O10 2.495341 1_555
Nd3 O13 2.576199 1_556
Nd3 O15 2.665270 1_556
As0 O16 1.741237 1_555
As0 O4 1.802443 1_655
As0 O9 1.851208 1_545
As1 O10 1.731294 1_555
As1 O4 1.807045 1_555
As1 O14 1.845885 1_555
As2 O2 1.731294 1_555
As2 O17 1.807045 1_555
As2 O9 1.845885 1_555
As3 O12 1.741237 1_555
As3 O17 1.802443 1_455
As3 O14 1.851208 1_565
As4 O5 1.729899 1_555
As4 O8 1.787539 1_555
As4 O0 1.898603 1_555
As5 O1 1.729899 1_555
As5 O13 1.787539 1_555
As5 O7 1.898603 1_555
As6 O11 1.726933 1_555
As6 O15 1.783049 1_555
As6 O7 1.876302 1_565
As7 O6 1.726933 1_655
As7 O3 1.783049 1_555
As7 O0 1.876302 1_545
