# generated using pymatgen
data_Sr3Li3(NiN)4
_symmetry_space_group_name_H-M   'P 1'
_cell_length_a   9.33644220
_cell_length_b   9.33644220
_cell_length_c   9.33644220
_cell_angle_alpha   154.92766998
_cell_angle_beta   135.57166555
_cell_angle_gamma   51.69115738
_symmetry_Int_Tables_number   1
_chemical_formula_structural   Sr3Li3(NiN)4
_chemical_formula_sum   'Sr3 Li3 Ni4 N4'
_cell_volume   240.42335259
_cell_formula_units_Z   1
loop_
 _symmetry_equiv_pos_site_id
 _symmetry_equiv_pos_as_xyz
  1  'x, y, z'
loop_
 _atom_site_type_symbol
 _atom_site_label
 _atom_site_symmetry_multiplicity
 _atom_site_fract_x
 _atom_site_fract_y
 _atom_site_fract_z
 _atom_site_occupancy
  Sr  Sr0  1  0.78185000  0.78185000  0.00000000  1
  Sr  Sr1  1  0.21815000  0.21815000  0.00000000  1
  Sr  Sr2  1  0.00000000  0.00000000  0.00000000  1
  Li  Li0  1  0.61586300  0.11586300  0.50000000  1
  Li  Li1  1  0.38413700  0.88413700  0.50000000  1
  Li  Li2  1  0.50000000  0.50000000  0.00000000  1
  Ni  Ni0  1  0.63023900  0.38027700  0.24996200  1
  Ni  Ni1  1  0.13031600  0.38027700  0.75003800  1
  Ni  Ni2  1  0.36976100  0.61972300  0.75003800  1
  Ni  Ni3  1  0.86968400  0.61972300  0.24996200  1
  N  N0  1  0.88360300  0.38360300  0.50000000  1
  N  N1  1  0.11639700  0.61639700  0.50000000  1
  N  N2  1  0.37947900  0.37947900  0.00000000  1
  N  N3  1  0.62052100  0.62052100  0.00000000  1
loop_
_geom_bond_atom_site_label_1
_geom_bond_atom_site_label_2
_geom_bond_distance
_geom_bond_site_symmetry_2
Li0 N3 2.028040 1_556
Li0 N3 2.028040 1_545
Li1 N2 2.028040 1_566
Li1 N2 2.028040 1_555
Li2 N3 2.025365 1_555
Li2 N2 2.025365 1_555
N0 Ni0 1.766066 1_555
N0 Ni1 1.766069 1_655
N0 Sr0 2.651567 1_545
N0 Sr0 2.651567 1_556
N0 Sr2 2.816557 1_666
N0 Sr2 2.816557 1_655
N1 Ni2 1.766066 1_555
N1 Ni3 1.766069 1_455
N1 Sr1 2.651567 1_555
N1 Sr1 2.651567 1_566
N1 Sr2 2.816557 1_566
N1 Sr2 2.816557 1_555
N2 Ni1 1.764692 1_554
N2 Ni0 1.764696 1_555
N2 Sr1 2.711146 1_555
N3 Ni3 1.764692 1_555
N3 Ni2 1.764696 1_554
N3 Sr0 2.711146 1_555
