# generated using pymatgen
data_PrCoGe
_symmetry_space_group_name_H-M   'P 1'
_cell_length_a   4.30911954
_cell_length_b   4.30911954
_cell_length_c   6.62403120
_cell_angle_alpha   90.00000000
_cell_angle_beta   90.00000000
_cell_angle_gamma   90.00000000
_symmetry_Int_Tables_number   1
_chemical_formula_structural   PrCoGe
_chemical_formula_sum   'Pr2 Co2 Ge2'
_cell_volume   122.99839759
_cell_formula_units_Z   2
loop_
 _symmetry_equiv_pos_site_id
 _symmetry_equiv_pos_as_xyz
  1  'x, y, z'
loop_
 _atom_site_type_symbol
 _atom_site_label
 _atom_site_symmetry_multiplicity
 _atom_site_fract_x
 _atom_site_fract_y
 _atom_site_fract_z
 _atom_site_occupancy
  Pr  Pr0  1  0.25000000  0.25000000  0.30552477  1
  Pr  Pr1  1  0.75000000  0.75000000  0.69447523  1
  Co  Co0  1  0.25000000  0.75000000  0.00000000  1
  Co  Co1  1  0.75000000  0.25000000  0.00000000  1
  Ge  Ge0  1  0.75000000  0.75000000  0.18629507  1
  Ge  Ge1  1  0.25000000  0.25000000  0.81370493  1
loop_
_geom_bond_atom_site_label_1
_geom_bond_atom_site_label_2
_geom_bond_distance
_geom_bond_site_symmetry_2
Co0 Ge1 2.482931 1_554
Co0 Ge0 2.482931 1_455
Co0 Ge0 2.482931 1_555
Co0 Ge1 2.482931 1_564
Co0 Pr1 2.955997 1_454
Co0 Pr0 2.955997 1_555
Co0 Pr1 2.955997 1_554
Co0 Pr0 2.955997 1_565
Co1 Ge1 2.482931 1_554
Co1 Ge1 2.482931 1_654
Co1 Ge0 2.482931 1_555
Co1 Ge0 2.482931 1_545
Co1 Pr1 2.955997 1_544
Co1 Pr0 2.955997 1_555
Co1 Pr1 2.955997 1_554
Co1 Pr0 2.955997 1_655
Ge0 Pr0 3.147699 1_565
Ge0 Pr0 3.147699 1_555
Ge0 Pr0 3.147699 1_655
Ge0 Pr0 3.147699 1_665
Ge0 Pr1 3.366201 1_555
Ge1 Pr1 3.147699 1_545
Ge1 Pr1 3.147699 1_445
Ge1 Pr1 3.147699 1_555
Ge1 Pr1 3.147699 1_455
Ge1 Pr0 3.366201 1_555
