# generated using pymatgen
data_BaY6Si3B6(O12F)2
_symmetry_space_group_name_H-M   'P 1'
_cell_length_a   10.73728785
_cell_length_b   10.73728785
_cell_length_c   4.74986800
_cell_angle_alpha   90.00000000
_cell_angle_beta   90.00000000
_cell_angle_gamma   119.99999906
_symmetry_Int_Tables_number   1
_chemical_formula_structural   BaY6Si3B6(O12F)2
_chemical_formula_sum   'Ba1 Y6 Si3 B6 O24 F2'
_cell_volume   474.24347944
_cell_formula_units_Z   1
loop_
 _symmetry_equiv_pos_site_id
 _symmetry_equiv_pos_as_xyz
  1  'x, y, z'
loop_
 _atom_site_type_symbol
 _atom_site_label
 _atom_site_symmetry_multiplicity
 _atom_site_fract_x
 _atom_site_fract_y
 _atom_site_fract_z
 _atom_site_occupancy
  Ba  Ba0  1  0.00000000  0.00000000  0.00480500  1
  Y  Y0  1  0.56997700  0.78498800  0.95508800  1
  Y  Y1  1  0.21501200  0.78498800  0.95508800  1
  Y  Y2  1  0.21501200  0.43002300  0.95508800  1
  Y  Y3  1  0.78439400  0.21560600  0.00091500  1
  Y  Y4  1  0.78439400  0.56878900  0.00091500  1
  Y  Y5  1  0.43121100  0.21560600  0.00091500  1
  Si  Si0  1  0.49299100  0.50700900  0.40073300  1
  Si  Si1  1  0.01401800  0.50700900  0.40073300  1
  Si  Si2  1  0.49299100  0.98598200  0.40073300  1
  B  B0  1  0.74935800  0.74921700  0.48256600  1
  B  B1  1  0.99985900  0.25064200  0.48256600  1
  B  B2  1  0.25078300  0.25064200  0.48256600  1
  B  B3  1  0.74935800  0.00014100  0.48256600  1
  B  B4  1  0.25078300  0.00014100  0.48256600  1
  B  B5  1  0.99985900  0.74921700  0.48256600  1
  O  O0  1  0.42610000  0.85219900  0.18249500  1
  O  O1  1  0.02538700  0.63341500  0.62287300  1
  O  O2  1  0.28674400  0.14337200  0.59823100  1
  O  O3  1  0.56942400  0.13884800  0.23026800  1
  O  O4  1  0.11151000  0.88849000  0.60445100  1
  O  O5  1  0.73712100  0.99810400  0.18204200  1
  O  O6  1  0.36658500  0.39197200  0.62287300  1
  O  O7  1  0.86115200  0.43057600  0.23026800  1
  O  O8  1  0.42610000  0.57390000  0.18249500  1
  O  O9  1  0.00189600  0.73901700  0.18204200  1
  O  O10  1  0.60802800  0.97461300  0.62287300  1
  O  O11  1  0.02538700  0.39197200  0.62287300  1
  O  O12  1  0.77698000  0.88849000  0.60445100  1
  O  O13  1  0.00189600  0.26287900  0.18204200  1
  O  O14  1  0.36658500  0.97461300  0.62287300  1
  O  O15  1  0.26098300  0.26287900  0.18204200  1
  O  O16  1  0.60802800  0.63341500  0.62287300  1
  O  O17  1  0.85662800  0.71325600  0.59823100  1
  O  O18  1  0.11151000  0.22302000  0.60445100  1
  O  O19  1  0.26098300  0.99810400  0.18204200  1
  O  O20  1  0.73712100  0.73901700  0.18204200  1
  O  O21  1  0.14780100  0.57390000  0.18249500  1
  O  O22  1  0.56942400  0.43057600  0.23026800  1
  O  O23  1  0.85662800  0.14337200  0.59823100  1
  F  F0  1  0.33333300  0.66666700  0.74892400  1
  F  F1  1  0.66666700  0.33333300  0.79798000  1
loop_
_geom_bond_atom_site_label_1
_geom_bond_atom_site_label_2
_geom_bond_distance
_geom_bond_site_symmetry_2
Ba0 O4 2.813695 1_544
Ba0 O12 2.813695 1_444
Ba0 O18 2.813695 1_554
Ba0 O9 2.935776 1_545
Ba0 O19 2.935776 1_545
Ba0 O5 2.935776 1_445
Ba0 O13 2.935776 1_555
Ba0 O20 2.935776 1_445
Ba0 O15 2.935776 1_555
B0 O20 1.432648 1_555
B0 O12 1.488582 1_555
B0 O17 1.490730 1_555
B0 O16 1.551172 1_555
B1 O13 1.432648 1_655
B1 O18 1.488582 1_655
B1 O23 1.490730 1_555
B1 O11 1.551172 1_655
B2 O15 1.432648 1_555
B2 O18 1.488582 1_555
B2 O2 1.490730 1_555
B2 O6 1.551172 1_555
B3 O5 1.432648 1_545
B3 O12 1.488582 1_545
B3 O23 1.490730 1_555
B3 O10 1.551172 1_545
B4 O19 1.432648 1_545
B4 O4 1.488582 1_545
B4 O2 1.490730 1_555
B4 O14 1.551172 1_545
B5 O9 1.432648 1_655
B5 O4 1.488582 1_655
B5 O17 1.490730 1_555
B5 O1 1.551172 1_655
O0 Si2 1.619296 1_555
O0 Y0 2.277926 1_554
O0 Y1 2.277926 1_554
O1 Si1 1.674717 1_555
O1 Y1 2.443480 1_555
O2 Y5 2.337313 1_556
O3 Si2 1.635896 1_545
O3 Y3 2.300317 1_555
O3 Y5 2.300326 1_555
O4 Y1 2.545386 1_555
O5 Y3 2.294867 1_565
O5 Y0 2.347865 1_554
O6 Si0 1.674717 1_555
O6 Y2 2.443475 1_555
O7 Si1 1.635896 1_655
O7 Y3 2.300317 1_555
O7 Y4 2.300326 1_555
O8 Si0 1.619289 1_555
O8 Y2 2.277926 1_554
O8 Y0 2.277926 1_554
O9 Y4 2.294864 1_455
O9 Y1 2.347868 1_554
O10 Si2 1.674717 1_555
O10 Y0 2.443483 1_555
O11 Si1 1.674717 1_555
O11 Y2 2.443483 1_555
O12 Y0 2.545379 1_555
O13 Y3 2.294867 1_455
O13 Y2 2.347865 1_554
O14 Si2 1.674717 1_555
O14 Y1 2.443480 1_555
O15 Y5 2.294857 1_555
O15 Y2 2.347859 1_554
O16 Si0 1.674717 1_555
O16 Y0 2.443475 1_555
O17 Y4 2.337313 1_556
O18 Y2 2.545379 1_555
O19 Y5 2.294864 1_565
O19 Y1 2.347868 1_554
O20 Y4 2.294857 1_555
O20 Y0 2.347859 1_554
O21 Si1 1.619296 1_555
O21 Y2 2.277926 1_554
O21 Y1 2.277926 1_554
O22 Si0 1.635896 1_555
O22 Y4 2.300318 1_555
O22 Y5 2.300318 1_555
O23 Y3 2.337319 1_556
F0 Y1 2.408534 1_555
F0 Y0 2.408551 1_555
F0 Y2 2.408551 1_555
F1 Y3 2.392225 1_556
F1 Y4 2.392242 1_556
F1 Y5 2.392242 1_556
