# generated using pymatgen
data_HCN
_symmetry_space_group_name_H-M   'P 1'
_cell_length_a   5.04706000
_cell_length_b   8.71329900
_cell_length_c   12.66765407
_cell_angle_alpha   78.15702576
_cell_angle_beta   90.00000000
_cell_angle_gamma   90.00000000
_symmetry_Int_Tables_number   1
_chemical_formula_structural   HCN
_chemical_formula_sum   'H16 C16 N16'
_cell_volume   545.22148610
_cell_formula_units_Z   16
loop_
 _symmetry_equiv_pos_site_id
 _symmetry_equiv_pos_as_xyz
  1  'x, y, z'
loop_
 _atom_site_type_symbol
 _atom_site_label
 _atom_site_symmetry_multiplicity
 _atom_site_fract_x
 _atom_site_fract_y
 _atom_site_fract_z
 _atom_site_occupancy
  H  H0  1  0.26250800  0.11574000  0.06860200  1
  H  H1  1  0.76250800  0.88426000  0.43139800  1
  H  H2  1  0.73749200  0.88426000  0.93139800  1
  H  H3  1  0.23749200  0.11574000  0.56860200  1
  H  H4  1  0.51365600  0.20538000  0.12779000  1
  H  H5  1  0.01365600  0.79462000  0.37221000  1
  H  H6  1  0.48634400  0.79462000  0.87221000  1
  H  H7  1  0.98634400  0.20538000  0.62779000  1
  H  H8  1  0.80756900  0.41987400  0.89361700  1
  H  H9  1  0.30756900  0.58012600  0.60638300  1
  H  H10  1  0.19243100  0.58012600  0.10638300  1
  H  H11  1  0.69243100  0.41987400  0.39361700  1
  H  H12  1  0.79477700  0.38165000  0.03486000  1
  H  H13  1  0.29477700  0.61835000  0.46514000  1
  H  H14  1  0.20522300  0.61835000  0.96514000  1
  H  H15  1  0.70522300  0.38165000  0.53486000  1
  C  C0  1  0.51705000  0.26437200  0.96406300  1
  C  C1  1  0.01705000  0.73562800  0.53593700  1
  C  C2  1  0.48295000  0.73562800  0.03593700  1
  C  C3  1  0.98295000  0.26437200  0.46406300  1
  C  C4  1  0.40618700  0.23645100  0.86532500  1
  C  C5  1  0.90618700  0.76354900  0.63467500  1
  C  C6  1  0.59381300  0.76354900  0.13467500  1
  C  C7  1  0.09381300  0.23645100  0.36532500  1
  C  C8  1  0.19938700  0.12845000  0.86572200  1
  C  C9  1  0.69938700  0.87155000  0.63427800  1
  C  C10  1  0.80061300  0.87155000  0.13427800  1
  C  C11  1  0.30061300  0.12845000  0.36572200  1
  C  C12  1  0.50526400  0.31491000  0.76590600  1
  C  C13  1  0.00526400  0.68509000  0.73409400  1
  C  C14  1  0.49473600  0.68509000  0.23409400  1
  C  C15  1  0.99473600  0.31491000  0.26590600  1
  N  N0  1  0.41774200  0.19318000  0.05958500  1
  N  N1  1  0.91774200  0.80682000  0.44041500  1
  N  N2  1  0.58225800  0.80682000  0.94041500  1
  N  N3  1  0.08225800  0.19318000  0.55958500  1
  N  N4  1  0.72055700  0.36302900  0.96310100  1
  N  N5  1  0.22055700  0.63697100  0.53689900  1
  N  N6  1  0.27944300  0.63697100  0.03689900  1
  N  N7  1  0.77944300  0.36302900  0.46310100  1
  N  N8  1  0.02644100  0.03792000  0.86726700  1
  N  N9  1  0.52644100  0.96208000  0.63273300  1
  N  N10  1  0.97355900  0.96208000  0.13273300  1
  N  N11  1  0.47355900  0.03792000  0.36726700  1
  N  N12  1  0.58718500  0.38219900  0.68216000  1
  N  N13  1  0.08718500  0.61780100  0.81784000  1
  N  N14  1  0.41281500  0.61780100  0.31784000  1
  N  N15  1  0.91281500  0.38219900  0.18216000  1
loop_
_geom_bond_atom_site_label_1
_geom_bond_atom_site_label_2
_geom_bond_distance
_geom_bond_site_symmetry_2
H0 N0 1.024960 1_555
H1 N1 1.024960 1_555
H2 N2 1.024960 1_555
H3 N3 1.024960 1_555
H4 N0 1.014804 1_555
H5 N1 1.014804 1_455
H6 N2 1.014804 1_555
H7 N3 1.014804 1_655
H8 N4 1.016853 1_555
H9 N5 1.016853 1_555
H10 N6 1.016853 1_555
H11 N7 1.016853 1_555
H12 N4 1.026400 1_554
H13 N5 1.026400 1_555
H14 N6 1.026400 1_556
H15 N7 1.026400 1_555
C0 N4 1.337822 1_555
C0 N0 1.338697 1_556
C0 C4 1.435831 1_555
C1 N5 1.337822 1_555
C1 N1 1.338697 1_455
C1 C5 1.435831 1_455
C2 N6 1.337822 1_555
C2 N2 1.338697 1_554
C2 C6 1.435831 1_555
C3 N7 1.337822 1_555
C3 N3 1.338697 1_655
C3 C7 1.435831 1_655
C4 C8 1.404644 1_555
C5 C9 1.404644 1_555
C8 N8 1.173957 1_555
C9 N9 1.173957 1_555
C10 N10 1.173957 1_555
C10 C6 1.404644 1_555
C11 N11 1.173957 1_555
C11 C7 1.404644 1_555
C12 N12 1.176792 1_555
C12 C4 1.396464 1_555
C13 N13 1.176792 1_555
C13 C5 1.396464 1_455
C14 N14 1.176792 1_555
C14 C6 1.396464 1_555
C15 N15 1.176792 1_555
C15 C7 1.396464 1_655
