# generated using pymatgen
data_Hf5CoAs3
_symmetry_space_group_name_H-M   'P 1'
_cell_length_a   3.65507321
_cell_length_b   10.40319058
_cell_length_c   17.31151540
_cell_angle_alpha   89.99578903
_cell_angle_beta   89.99999608
_cell_angle_gamma   90.00001464
_symmetry_Int_Tables_number   1
_chemical_formula_structural   Hf5CoAs3
_chemical_formula_sum   'Hf20 Co4 As12'
_cell_volume   658.26038568
_cell_formula_units_Z   4
loop_
 _symmetry_equiv_pos_site_id
 _symmetry_equiv_pos_as_xyz
  1  'x, y, z'
loop_
 _atom_site_type_symbol
 _atom_site_label
 _atom_site_symmetry_multiplicity
 _atom_site_fract_x
 _atom_site_fract_y
 _atom_site_fract_z
 _atom_site_occupancy
  Hf  Hf0  1  0.24999991  0.18401126  0.36895635  1
  Hf  Hf1  1  0.74999988  0.81600209  0.63103383  1
  Hf  Hf2  1  0.74999973  0.68402002  0.13102515  1
  Hf  Hf3  1  0.24999992  0.31598538  0.86897925  1
  Hf  Hf4  1  0.24999990  0.88012964  0.47820196  1
  Hf  Hf5  1  0.75000032  0.11990555  0.52178300  1
  Hf  Hf6  1  0.75000016  0.38011514  0.02177971  1
  Hf  Hf7  1  0.25000002  0.61987561  0.97822983  1
  Hf  Hf8  1  0.24999986  0.94353773  0.07644262  1
  Hf  Hf9  1  0.75000014  0.05647835  0.92357630  1
  Hf  Hf10  1  0.75000043  0.44351408  0.42356274  1
  Hf  Hf11  1  0.24999931  0.55644006  0.57644598  1
  Hf  Hf12  1  0.25000023  0.24141331  0.16773236  1
  Hf  Hf13  1  0.74999982  0.75856864  0.83226835  1
  Hf  Hf14  1  0.74999983  0.74144138  0.33225021  1
  Hf  Hf15  1  0.24999978  0.25857737  0.66773195  1
  Hf  Hf16  1  0.24999990  0.51533798  0.27685202  1
  Hf  Hf17  1  0.74999980  0.48464977  0.72312948  1
  Hf  Hf18  1  0.75000027  0.01535681  0.22310567  1
  Hf  Hf19  1  0.24999981  0.98465206  0.77687952  1
  Co  Co0  1  0.25000012  0.63284339  0.40769545  1
  Co  Co1  1  0.75000036  0.36715340  0.59230850  1
  Co  Co2  1  0.75000060  0.13288900  0.09231239  1
  Co  Co3  1  0.25000042  0.86709200  0.90769412  1
  As  As0  1  0.24999960  0.49034654  0.11951194  1
  As  As1  1  0.74999981  0.50965463  0.88049406  1
  As  As2  1  0.74999951  0.99034375  0.38046542  1
  As  As3  1  0.25000005  0.00966208  0.61951456  1
  As  As4  1  0.24999986  0.81444748  0.21794925  1
  As  As5  1  0.74999977  0.18555700  0.78204682  1
  As  As6  1  0.75000011  0.31442056  0.28203776  1
  As  As7  1  0.24999942  0.68556503  0.71797167  1
  As  As8  1  0.25000065  0.18859071  0.00783443  1
  As  As9  1  0.75000044  0.81141077  0.99217628  1
  As  As10  1  0.75000005  0.68855567  0.49220885  1
  As  As11  1  0.25000021  0.31145575  0.50781224  1
loop_
_geom_bond_atom_site_label_1
_geom_bond_atom_site_label_2
_geom_bond_distance
_geom_bond_site_symmetry_2
Co0 Hf14 2.514331 1_555
Co0 Hf14 2.514333 1_455
Co0 Hf16 2.573988 1_555
Co0 Hf10 2.700869 1_455
Co0 Hf10 2.700872 1_555
Co0 Hf4 2.847518 1_555
Co0 Hf11 3.027471 1_555
Co1 Hf15 2.514032 1_655
Co1 Hf15 2.514035 1_555
Co1 Hf17 2.573601 1_555
Co1 Hf11 2.700536 1_655
Co1 Hf11 2.700541 1_555
Co1 Hf5 2.847298 1_555
Co1 Hf10 3.027275 1_555
Co2 Hf12 2.513846 1_655
Co2 Hf12 2.513848 1_555
Co2 Hf18 2.573198 1_555
Co2 Hf8 2.701069 1_645
Co2 Hf8 2.701072 1_545
Co2 Hf6 2.846985 1_555
Co2 Hf9 3.027363 1_554
Co3 Hf13 2.513893 1_555
Co3 Hf13 2.513896 1_455
Co3 Hf19 2.573661 1_555
Co3 Hf9 2.701358 1_565
Co3 Hf9 2.701360 1_465
Co3 Hf7 2.846916 1_555
Co3 Hf8 3.027666 1_556
As0 Hf12 2.720858 1_555
As0 Hf2 2.727486 1_555
As0 Hf2 2.727486 1_455
As0 Hf16 2.736194 1_555
As0 Hf6 2.741847 1_455
As0 Hf6 2.741850 1_555
As0 Hf7 2.792362 1_554
As1 Hf13 2.720695 1_555
As1 Hf3 2.727455 1_555
As1 Hf3 2.727457 1_655
As1 Hf17 2.736630 1_555
As1 Hf7 2.741840 1_555
As1 Hf7 2.741841 1_655
As1 Hf6 2.792468 1_556
As2 Hf14 2.720641 1_555
As2 Hf0 2.727413 1_565
As2 Hf0 2.727414 1_665
As2 Hf18 2.736517 1_565
As2 Hf4 2.741714 1_555
As2 Hf4 2.741716 1_655
As2 Hf5 2.793238 1_565
As3 Hf15 2.720781 1_555
As3 Hf1 2.727369 1_545
As3 Hf1 2.727369 1_445
As3 Hf19 2.736603 1_545
As3 Hf5 2.741789 1_455
As3 Hf5 2.741790 1_555
As3 Hf4 2.793015 1_545
As4 Hf2 2.728672 1_555
As4 Hf2 2.728672 1_455
As4 Hf18 2.777839 1_465
As4 Hf18 2.777841 1_565
As4 Hf8 2.793570 1_555
As4 Hf14 2.798544 1_455
As4 Hf14 2.798544 1_555
As4 Hf16 3.274439 1_555
As5 Hf3 2.728756 1_555
As5 Hf3 2.728756 1_655
As5 Hf19 2.777811 1_545
As5 Hf19 2.777812 1_645
As5 Hf9 2.793859 1_555
As5 Hf15 2.798754 1_655
As5 Hf15 2.798755 1_555
As5 Hf17 3.274352 1_555
As6 Hf0 2.728415 1_655
As6 Hf0 2.728416 1_555
As6 Hf16 2.777909 1_655
As6 Hf16 2.777911 1_555
As6 Hf10 2.794038 1_555
As6 Hf12 2.798680 1_555
As6 Hf12 2.798681 1_655
As6 Hf18 3.274287 1_555
As7 Hf1 2.728742 1_455
As7 Hf1 2.728744 1_555
As7 Hf17 2.777876 1_455
As7 Hf17 2.777879 1_555
As7 Hf11 2.794206 1_555
As7 Hf13 2.798562 1_455
As7 Hf13 2.798564 1_555
As7 Hf19 3.274386 1_555
As8 Co2 2.411284 1_455
As8 Co2 2.411284 1_555
As8 Hf9 2.712332 1_554
As8 Hf9 2.712334 1_454
As8 Hf6 2.714434 1_555
As8 Hf6 2.714437 1_455
As8 Hf3 2.744851 1_554
As8 Hf8 2.812350 1_545
As8 Hf12 2.822134 1_555
As9 Co3 2.411277 1_655
As9 Co3 2.411278 1_555
As9 Hf8 2.712485 1_656
As9 Hf8 2.712488 1_556
As9 Hf7 2.714518 1_655
As9 Hf7 2.714520 1_555
As9 Hf2 2.744735 1_556
As9 Hf9 2.812428 1_565
As9 Hf13 2.822344 1_555
As10 Co0 2.411734 1_555
As10 Co0 2.411735 1_655
As10 Hf11 2.712045 1_655
As10 Hf11 2.712048 1_555
As10 Hf4 2.714882 1_655
As10 Hf4 2.714883 1_555
As10 Hf1 2.744823 1_555
As10 Hf10 2.812678 1_555
As10 Hf14 2.823214 1_555
As11 Co1 2.411518 1_455
As11 Co1 2.411518 1_555
As11 Hf10 2.711859 1_455
As11 Hf10 2.711860 1_555
As11 Hf5 2.714645 1_455
As11 Hf5 2.714646 1_555
As11 Hf0 2.745282 1_555
As11 Hf11 2.812048 1_555
As11 Hf15 2.822538 1_555
