# generated using pymatgen
data_Na3PH16(SO2)4
_symmetry_space_group_name_H-M   'P 1'
_cell_length_a   12.95696800
_cell_length_b   8.69624000
_cell_length_c   13.59742729
_cell_angle_alpha   76.50936598
_cell_angle_beta   90.00000000
_cell_angle_gamma   90.00000000
_symmetry_Int_Tables_number   1
_chemical_formula_structural   Na3PH16(SO2)4
_chemical_formula_sum   'Na12 P4 H64 S16 O32'
_cell_volume   1489.84196063
_cell_formula_units_Z   4
loop_
 _symmetry_equiv_pos_site_id
 _symmetry_equiv_pos_as_xyz
  1  'x, y, z'
loop_
 _atom_site_type_symbol
 _atom_site_label
 _atom_site_symmetry_multiplicity
 _atom_site_fract_x
 _atom_site_fract_y
 _atom_site_fract_z
 _atom_site_occupancy
  Na  Na0  1  0.00000000  0.00000000  0.00000000  1
  Na  Na1  1  0.50000000  0.00000000  0.50000000  1
  Na  Na2  1  0.50000000  0.50000000  0.00000000  1
  Na  Na3  1  0.00000000  0.50000000  0.50000000  1
  Na  Na4  1  0.54950800  0.66499600  0.40927700  1
  Na  Na5  1  0.04950800  0.33500400  0.09072300  1
  Na  Na6  1  0.45049200  0.33500400  0.59072300  1
  Na  Na7  1  0.95049200  0.66499600  0.90927700  1
  Na  Na8  1  0.05808900  0.16848700  0.41692100  1
  Na  Na9  1  0.55808900  0.83151300  0.08307900  1
  Na  Na10  1  0.94191100  0.83151300  0.58307900  1
  Na  Na11  1  0.44191100  0.16848700  0.91692100  1
  P  P0  1  0.67201300  0.28560600  0.25140700  1
  P  P1  1  0.17201300  0.71439400  0.24859300  1
  P  P2  1  0.32798700  0.71439400  0.74859300  1
  P  P3  1  0.82798700  0.28560600  0.75140700  1
  H  H0  1  0.15584000  0.81028800  0.90660200  1
  H  H1  1  0.65584000  0.18971200  0.59339800  1
  H  H2  1  0.84416000  0.18971200  0.09339800  1
  H  H3  1  0.34416000  0.81028800  0.40660200  1
  H  H4  1  0.13825200  0.72973400  0.01953500  1
  H  H5  1  0.63825200  0.27026600  0.48046500  1
  H  H6  1  0.86174800  0.27026600  0.98046500  1
  H  H7  1  0.36174800  0.72973400  0.51953500  1
  H  H8  1  0.80730800  0.93253400  0.91695100  1
  H  H9  1  0.30730800  0.06746600  0.58304900  1
  H  H10  1  0.19269200  0.06746600  0.08304900  1
  H  H11  1  0.69269200  0.93253400  0.41695100  1
  H  H12  1  0.80602500  0.82946300  0.03081000  1
  H  H13  1  0.30602500  0.17053700  0.46919000  1
  H  H14  1  0.19397500  0.17053700  0.96919000  1
  H  H15  1  0.69397500  0.82946300  0.53081000  1
  H  H16  1  0.43439600  0.23371800  0.13619600  1
  H  H17  1  0.93439600  0.76628200  0.36380400  1
  H  H18  1  0.56560400  0.76628200  0.86380400  1
  H  H19  1  0.06560400  0.23371800  0.63619600  1
  H  H20  1  0.32968700  0.28075500  0.07831700  1
  H  H21  1  0.82968700  0.71924500  0.42168300  1
  H  H22  1  0.67031300  0.71924500  0.92168300  1
  H  H23  1  0.17031300  0.28075500  0.57831700  1
  H  H24  1  0.48291600  0.49657300  0.19863000  1
  H  H25  1  0.98291600  0.50342700  0.30137000  1
  H  H26  1  0.51708400  0.50342700  0.80137000  1
  H  H27  1  0.01708400  0.49657300  0.69863000  1
  H  H28  1  0.38324600  0.59016000  0.15591700  1
  H  H29  1  0.88324600  0.40984000  0.34408300  1
  H  H30  1  0.61675400  0.40984000  0.84408300  1
  H  H31  1  0.11675400  0.59016000  0.65591700  1
  H  H32  1  0.44378100  0.38925100  0.36961700  1
  H  H33  1  0.94378100  0.61074900  0.13038300  1
  H  H34  1  0.55621900  0.61074900  0.63038300  1
  H  H35  1  0.05621900  0.38925100  0.86961700  1
  H  H36  1  0.35487700  0.50139500  0.39490500  1
  H  H37  1  0.85487700  0.49860500  0.10509500  1
  H  H38  1  0.64512300  0.49860500  0.60509500  1
  H  H39  1  0.14512300  0.50139500  0.89490500  1
  H  H40  1  0.52707500  0.96952400  0.26079700  1
  H  H41  1  0.02707500  0.03047600  0.23920300  1
  H  H42  1  0.47292500  0.03047600  0.73920300  1
  H  H43  1  0.97292500  0.96952400  0.76079700  1
  H  H44  1  0.43999600  0.85532900  0.24394000  1
  H  H45  1  0.93999600  0.14467100  0.25606000  1
  H  H46  1  0.56000400  0.14467100  0.75606000  1
  H  H47  1  0.06000400  0.85532900  0.74394000  1
  H  H48  1  0.23317400  0.31416800  0.29846900  1
  H  H49  1  0.73317400  0.68583200  0.20153100  1
  H  H50  1  0.76682600  0.68583200  0.70153100  1
  H  H51  1  0.26682600  0.31416800  0.79846900  1
  H  H52  1  0.24098700  0.12982000  0.30924700  1
  H  H53  1  0.74098700  0.87018000  0.19075300  1
  H  H54  1  0.75901300  0.87018000  0.69075300  1
  H  H55  1  0.25901300  0.12982000  0.80924700  1
  H  H56  1  0.13830000  0.82297300  0.46732400  1
  H  H57  1  0.63830000  0.17702700  0.03267600  1
  H  H58  1  0.86170000  0.17702700  0.53267600  1
  H  H59  1  0.36170000  0.82297300  0.96732400  1
  H  H60  1  0.15734100  0.89765300  0.56050400  1
  H  H61  1  0.65734100  0.10234700  0.93949600  1
  H  H62  1  0.84265900  0.10234700  0.43949600  1
  H  H63  1  0.34265900  0.89765300  0.06050400  1
  S  S0  1  0.51949200  0.21827900  0.28305600  1
  S  S1  1  0.01949200  0.78172100  0.21694400  1
  S  S2  1  0.48050800  0.78172100  0.71694400  1
  S  S3  1  0.98050800  0.21827900  0.78305600  1
  S  S4  1  0.69114000  0.38863100  0.10148000  1
  S  S5  1  0.19114000  0.61136900  0.39852000  1
  S  S6  1  0.30886000  0.61136900  0.89852000  1
  S  S7  1  0.80886000  0.38863100  0.60148000  1
  S  S8  1  0.71235000  0.44217800  0.33760000  1
  S  S9  1  0.21235000  0.55782200  0.16240000  1
  S  S10  1  0.28765000  0.55782200  0.66240000  1
  S  S11  1  0.78765000  0.44217800  0.83760000  1
  S  S12  1  0.76686200  0.08823300  0.28565800  1
  S  S13  1  0.26686200  0.91176700  0.21434200  1
  S  S14  1  0.23313800  0.91176700  0.71434200  1
  S  S15  1  0.73313800  0.08823300  0.78565800  1
  O  O0  1  0.10471400  0.80155600  0.96095500  1
  O  O1  1  0.60471400  0.19844400  0.53904500  1
  O  O2  1  0.89528600  0.19844400  0.03904500  1
  O  O3  1  0.39528600  0.80155600  0.46095500  1
  O  O4  1  0.84541400  0.85002900  0.96667700  1
  O  O5  1  0.34541400  0.14997100  0.53332300  1
  O  O6  1  0.15458600  0.14997100  0.03332300  1
  O  O7  1  0.65458600  0.85002900  0.46667700  1
  O  O8  1  0.40235600  0.26035300  0.06781600  1
  O  O9  1  0.90235600  0.73964700  0.43218400  1
  O  O10  1  0.59764400  0.73964700  0.93218400  1
  O  O11  1  0.09764400  0.26035300  0.56781600  1
  O  O12  1  0.45950800  0.58937200  0.14724300  1
  O  O13  1  0.95950800  0.41062800  0.35275700  1
  O  O14  1  0.54049200  0.41062800  0.85275700  1
  O  O15  1  0.04049200  0.58937200  0.64724300  1
  O  O16  1  0.42696400  0.46625300  0.41037700  1
  O  O17  1  0.92696400  0.53374700  0.08962300  1
  O  O18  1  0.57303600  0.53374700  0.58962300  1
  O  O19  1  0.07303600  0.46625300  0.91037700  1
  O  O20  1  0.51589400  0.86101500  0.25127500  1
  O  O21  1  0.01589400  0.13898500  0.24872500  1
  O  O22  1  0.48410600  0.13898500  0.74872500  1
  O  O23  1  0.98410600  0.86101500  0.75127500  1
  O  O24  1  0.23438300  0.21144000  0.34838800  1
  O  O25  1  0.73438300  0.78856000  0.15161200  1
  O  O26  1  0.76561700  0.78856000  0.65161200  1
  O  O27  1  0.26561700  0.21144000  0.84838800  1
  O  O28  1  0.11221600  0.90478700  0.50091100  1
  O  O29  1  0.61221600  0.09521300  0.99908900  1
  O  O30  1  0.88778400  0.09521300  0.49908900  1
  O  O31  1  0.38778400  0.90478700  0.00091100  1
loop_
_geom_bond_atom_site_label_1
_geom_bond_atom_site_label_2
_geom_bond_distance
_geom_bond_site_symmetry_2
Na0 O2 2.351230 1_455
Na0 O0 2.351230 1_544
Na0 O4 2.488732 1_444
Na0 O6 2.488732 1_555
Na0 S1 3.123492 1_545
Na0 S3 3.123492 1_454
Na1 O3 2.351230 1_545
Na1 O1 2.351230 1_555
Na1 O7 2.488732 1_545
Na1 O5 2.488732 1_555
Na1 S0 3.123492 1_555
Na1 S2 3.123492 1_545
Na2 O14 2.369351 1_554
Na2 O12 2.369351 1_555
Na2 O10 2.428479 1_554
Na2 O8 2.428479 1_555
Na2 S4 2.889984 1_555
Na2 S6 2.889984 1_554
Na3 O13 2.369351 1_455
Na3 O15 2.369351 1_555
Na3 O9 2.428479 1_455
Na3 O11 2.428479 1_555
Na3 S5 2.889984 1_555
Na3 S7 2.889984 1_455
Na4 O16 2.344429 1_555
Na4 O7 2.374440 1_555
Na4 O20 2.449990 1_555
Na4 O18 2.470477 1_555
Na4 O3 2.507272 1_555
Na4 S8 3.168194 1_555
Na5 O17 2.344429 1_455
Na5 O6 2.374440 1_555
Na5 O21 2.449990 1_555
Na5 O19 2.470477 1_554
Na5 O2 2.507272 1_455
Na5 S9 3.168194 1_555
Na6 O18 2.344429 1_555
Na6 O5 2.374440 1_555
Na6 O22 2.449990 1_555
Na6 O16 2.470477 1_555
Na6 O1 2.507272 1_555
Na6 S10 3.168194 1_555
Na7 O19 2.344429 1_655
Na7 O4 2.374440 1_555
Na7 O23 2.449990 1_555
Na7 O17 2.470477 1_556
Na7 O0 2.507272 1_655
Na7 S11 3.168194 1_555
Na8 O28 2.415152 1_545
Na8 O21 2.422603 1_555
Na8 O11 2.423941 1_555
Na8 O13 2.443274 1_455
Na8 O24 2.462364 1_555
Na8 O30 2.488254 1_455
Na9 O29 2.415152 1_564
Na9 O20 2.422603 1_555
Na9 O10 2.423941 1_554
Na9 O12 2.443274 1_555
Na9 O25 2.462364 1_555
Na9 O31 2.488254 1_555
Na10 O30 2.415152 1_565
Na10 O23 2.422603 1_555
Na10 O9 2.423941 1_555
Na10 O15 2.443274 1_655
Na10 O26 2.462364 1_555
Na10 O28 2.488254 1_655
Na11 O31 2.415152 1_546
Na11 O22 2.422603 1_555
Na11 O8 2.423941 1_556
Na11 O14 2.443274 1_555
Na11 O27 2.462364 1_555
Na11 O29 2.488254 1_555
P0 S4 2.041546 1_555
P0 S8 2.060393 1_555
P0 S12 2.073718 1_555
P0 S0 2.077461 1_555
P1 S5 2.041546 1_555
P1 S9 2.060393 1_555
P1 S13 2.073718 1_555
P1 S1 2.077461 1_555
P2 S6 2.041546 1_555
P2 S10 2.060393 1_555
P2 S14 2.073718 1_555
P2 S2 2.077461 1_555
P3 S7 2.041546 1_555
P3 S11 2.060393 1_555
P3 S15 2.073718 1_555
P3 S3 2.077461 1_555
H0 O0 0.982149 1_555
H1 O1 0.982149 1_555
H2 O2 0.982149 1_555
H3 O3 0.982149 1_555
H4 O0 0.990599 1_554
H5 O1 0.990599 1_555
H6 O2 0.990599 1_556
H7 O3 0.990599 1_555
H8 O4 0.994680 1_555
H9 O5 0.994680 1_555
H10 O6 0.994680 1_555
H11 O7 0.994680 1_555
H12 O4 0.990024 1_554
H13 O5 0.990024 1_555
H14 O6 0.990024 1_556
H15 O7 0.990024 1_555
H16 O8 0.994999 1_555
H17 O9 0.994999 1_555
H18 O10 0.994999 1_555
H19 O11 0.994999 1_555
H20 O8 0.974802 1_555
H21 O9 0.974802 1_555
H22 O10 0.974802 1_555
H23 O11 0.974802 1_555
H24 O12 0.984061 1_555
H25 O13 0.984061 1_555
H26 O14 0.984061 1_555
H27 O15 0.984061 1_555
H28 O12 0.995351 1_555
H29 O13 0.995351 1_555
H30 O14 0.995351 1_555
H31 O15 0.995351 1_555
H32 O16 0.988034 1_555
H33 O17 0.988034 1_555
H34 O18 0.988034 1_555
H35 O19 0.988034 1_555
H36 O16 0.989983 1_555
H37 O17 0.989983 1_555
H38 O18 0.989983 1_555
H39 O19 0.989983 1_555
H40 O20 0.992559 1_555
H41 O21 0.992559 1_555
H42 O22 0.992559 1_555
H43 O23 0.992559 1_555
H44 O20 0.990850 1_555
H45 O21 0.990850 1_655
H46 O22 0.990850 1_555
H47 O23 0.990850 1_455
H48 O24 0.987990 1_555
H49 O25 0.987990 1_555
H50 O26 0.987990 1_555
H51 O27 0.987990 1_555
H52 O24 0.985204 1_555
H53 O25 0.985204 1_555
H54 O26 0.985204 1_555
H55 O27 0.985204 1_555
H56 O28 0.990249 1_555
H57 O29 0.990249 1_554
H58 O30 0.990249 1_555
H59 O31 0.990249 1_556
H60 O28 0.989370 1_555
H61 O29 0.989370 1_555
H62 O30 0.989370 1_555
H63 O31 0.989370 1_555
