# generated using pymatgen
data_FeBi3(MoO6)2
_symmetry_space_group_name_H-M   'P 1'
_cell_length_a   10.41314650
_cell_length_b   10.41314650
_cell_length_c   5.34780073
_cell_angle_alpha   75.58856022
_cell_angle_beta   75.58856022
_cell_angle_gamma   69.25210574
_symmetry_Int_Tables_number   1
_chemical_formula_structural   FeBi3(MoO6)2
_chemical_formula_sum   'Fe2 Bi6 Mo4 O24'
_cell_volume   516.87694795
_cell_formula_units_Z   2
loop_
 _symmetry_equiv_pos_site_id
 _symmetry_equiv_pos_as_xyz
  1  'x, y, z'
loop_
 _atom_site_type_symbol
 _atom_site_label
 _atom_site_symmetry_multiplicity
 _atom_site_fract_x
 _atom_site_fract_y
 _atom_site_fract_z
 _atom_site_occupancy
  Fe  Fe0  1  0.88190800  0.11809200  0.25000000  1
  Fe  Fe1  1  0.11809200  0.88190800  0.75000000  1
  Bi  Bi0  1  0.03955700  0.26431200  0.58996600  1
  Bi  Bi1  1  0.34414200  0.65585800  0.25000000  1
  Bi  Bi2  1  0.65585800  0.34414200  0.75000000  1
  Bi  Bi3  1  0.96044300  0.73568800  0.41003400  1
  Bi  Bi4  1  0.26431200  0.03955700  0.08996600  1
  Bi  Bi5  1  0.73568800  0.96044300  0.91003400  1
  Mo  Mo0  1  0.46020600  0.20350200  0.42437900  1
  Mo  Mo1  1  0.20350200  0.46020600  0.92437900  1
  Mo  Mo2  1  0.53979400  0.79649800  0.57562100  1
  Mo  Mo3  1  0.79649800  0.53979400  0.07562100  1
  O  O0  1  0.07086300  0.49565400  0.73704200  1
  O  O1  1  0.59372300  0.17475500  0.62309000  1
  O  O2  1  0.87060300  0.95366200  0.50763900  1
  O  O3  1  0.36207000  0.45715500  0.69694600  1
  O  O4  1  0.15348000  0.74691900  0.52934900  1
  O  O5  1  0.82524500  0.40627700  0.87691000  1
  O  O6  1  0.74691900  0.15348000  0.02934900  1
  O  O7  1  0.63793000  0.54284500  0.30305400  1
  O  O8  1  0.92913700  0.50434600  0.26295800  1
  O  O9  1  0.78854500  0.70542800  0.85826500  1
  O  O10  1  0.17475500  0.59372300  0.12309000  1
  O  O11  1  0.50434600  0.92913700  0.76295800  1
  O  O12  1  0.84652000  0.25308100  0.47065100  1
  O  O13  1  0.12939700  0.04633800  0.49236100  1
  O  O14  1  0.21145500  0.29457200  0.14173500  1
  O  O15  1  0.54284500  0.63793000  0.80305400  1
  O  O16  1  0.29457200  0.21145500  0.64173500  1
  O  O17  1  0.40627700  0.82524500  0.37691000  1
  O  O18  1  0.25308100  0.84652000  0.97065100  1
  O  O19  1  0.45715500  0.36207000  0.19694600  1
  O  O20  1  0.49565400  0.07086300  0.23704200  1
  O  O21  1  0.04633800  0.12939700  0.99236100  1
  O  O22  1  0.95366200  0.87060300  0.00763900  1
  O  O23  1  0.70542800  0.78854500  0.35826500  1
loop_
_geom_bond_atom_site_label_1
_geom_bond_atom_site_label_2
_geom_bond_distance
_geom_bond_site_symmetry_2
Fe0 O2 1.931768 1_545
Fe0 O21 1.931768 1_654
Fe0 O6 1.935525 1_555
Fe0 O12 1.935525 1_555
Fe1 O22 1.931768 1_456
Fe1 O13 1.931768 1_565
Fe1 O4 1.935525 1_555
Fe1 O18 1.935525 1_555
Bi0 O21 2.260528 1_555
Bi0 O13 2.267556 1_555
Bi0 O12 2.302944 1_455
Bi0 O5 2.570519 1_455
Bi0 O16 2.585700 1_555
Bi0 O14 2.633840 1_555
Bi0 O8 2.723363 1_455
Bi0 O0 2.855760 1_555
Bi1 O4 2.228804 1_555
Bi1 O18 2.228804 1_554
Bi1 O10 2.369278 1_555
Bi1 O17 2.369278 1_555
Bi1 O3 2.741489 1_555
Bi1 O15 2.741489 1_554
Bi2 O6 2.228804 1_556
Bi2 O12 2.228804 1_555
Bi2 O1 2.369278 1_555
Bi2 O5 2.369278 1_555
Bi2 O19 2.741489 1_556
Bi2 O7 2.741489 1_555
Bi3 O22 2.260528 1_555
Bi3 O2 2.267556 1_555
Bi3 O4 2.302944 1_655
Bi3 O10 2.570519 1_655
Bi3 O23 2.585700 1_555
Bi3 O9 2.633840 1_555
Bi3 O0 2.723363 1_655
Bi3 O8 2.855760 1_555
Bi4 O13 2.260528 1_555
Bi4 O21 2.267556 1_554
Bi4 O18 2.302944 1_544
Bi4 O17 2.570519 1_545
Bi4 O14 2.585700 1_555
Bi4 O16 2.633840 1_554
Bi4 O11 2.723363 1_544
Bi4 O20 2.855760 1_555
Bi5 O2 2.260528 1_555
Bi5 O22 2.267556 1_556
Bi5 O6 2.302944 1_566
Bi5 O1 2.570519 1_565
Bi5 O9 2.585700 1_555
Bi5 O23 2.633840 1_556
Bi5 O20 2.723363 1_566
Bi5 O11 2.855760 1_555
Mo0 O19 1.785821 1_555
Mo0 O20 1.786365 1_555
Mo0 O16 1.811515 1_555
Mo0 O1 1.853133 1_555
Mo1 O3 1.785821 1_555
Mo1 O0 1.786365 1_555
Mo1 O14 1.811515 1_556
Mo1 O10 1.853133 1_556
Mo2 O15 1.785821 1_555
Mo2 O11 1.786365 1_555
Mo2 O23 1.811515 1_555
Mo2 O17 1.853133 1_555
Mo3 O7 1.785821 1_555
Mo3 O8 1.786365 1_555
Mo3 O9 1.811515 1_554
Mo3 O5 1.853133 1_554
