# generated using pymatgen
data_KZr2(PO4)3
_symmetry_space_group_name_H-M   'P 1'
_cell_length_a   9.57116692
_cell_length_b   9.57116692
_cell_length_c   9.57116744
_cell_angle_alpha   55.18406667
_cell_angle_beta   55.18406667
_cell_angle_gamma   55.18406308
_symmetry_Int_Tables_number   1
_chemical_formula_structural   KZr2(PO4)3
_chemical_formula_sum   'K2 Zr4 P6 O24'
_cell_volume   550.56517844
_cell_formula_units_Z   2
loop_
 _symmetry_equiv_pos_site_id
 _symmetry_equiv_pos_as_xyz
  1  'x, y, z'
loop_
 _atom_site_type_symbol
 _atom_site_label
 _atom_site_symmetry_multiplicity
 _atom_site_fract_x
 _atom_site_fract_y
 _atom_site_fract_z
 _atom_site_occupancy
  K  K0  1  0.50000000  0.50000000  0.50000000  1
  K  K1  1  0.00000000  0.00000000  0.00000000  1
  Zr  Zr0  1  0.64954500  0.64954500  0.64954500  1
  Zr  Zr1  1  0.85045500  0.85045500  0.85045500  1
  Zr  Zr2  1  0.35045500  0.35045500  0.35045500  1
  Zr  Zr3  1  0.14954500  0.14954500  0.14954500  1
  P  P0  1  0.03702400  0.46297600  0.75000000  1
  P  P1  1  0.46297600  0.75000000  0.03702400  1
  P  P2  1  0.75000000  0.03702400  0.46297600  1
  P  P3  1  0.96297600  0.53702400  0.25000000  1
  P  P4  1  0.53702400  0.25000000  0.96297600  1
  P  P5  1  0.25000000  0.96297600  0.53702400  1
  O  O0  1  0.92203000  0.07041500  0.29504300  1
  O  O1  1  0.07041500  0.29504300  0.92203000  1
  O  O2  1  0.29504300  0.92203000  0.07041500  1
  O  O3  1  0.42958500  0.57797000  0.20495700  1
  O  O4  1  0.57797000  0.20495700  0.42958500  1
  O  O5  1  0.20495700  0.42958500  0.57797000  1
  O  O6  1  0.07797000  0.92958500  0.70495700  1
  O  O7  1  0.92958500  0.70495700  0.07797000  1
  O  O8  1  0.70495700  0.07797000  0.92958500  1
  O  O9  1  0.57041500  0.42203000  0.79504300  1
  O  O10  1  0.42203000  0.79504300  0.57041500  1
  O  O11  1  0.79504300  0.57041500  0.42203000  1
  O  O12  1  0.74153500  0.86708100  0.48866800  1
  O  O13  1  0.86708100  0.48866800  0.74153500  1
  O  O14  1  0.48866800  0.74153500  0.86708100  1
  O  O15  1  0.63291900  0.75846500  0.01133200  1
  O  O16  1  0.75846500  0.01133200  0.63291900  1
  O  O17  1  0.01133200  0.63291900  0.75846500  1
  O  O18  1  0.25846500  0.13291900  0.51133200  1
  O  O19  1  0.13291900  0.51133200  0.25846500  1
  O  O20  1  0.51133200  0.25846500  0.13291900  1
  O  O21  1  0.36708100  0.24153500  0.98866800  1
  O  O22  1  0.24153500  0.98866800  0.36708100  1
  O  O23  1  0.98866800  0.36708100  0.24153500  1
loop_
_geom_bond_atom_site_label_1
_geom_bond_atom_site_label_2
_geom_bond_distance
_geom_bond_site_symmetry_2
K0 O10 2.859736 1_555
K0 O4 2.859736 1_555
K0 O5 2.859736 1_555
K0 O11 2.859736 1_555
K0 O3 2.859736 1_555
K0 O9 2.859736 1_555
K1 O2 2.859736 1_545
K1 O8 2.859736 1_454
K1 O1 2.859736 1_554
K1 O7 2.859736 1_445
K1 O0 2.859736 1_455
K1 O6 2.859736 1_544
O0 P2 1.545633 1_555
O0 Zr3 2.114456 1_655
O1 P0 1.545633 1_555
O1 Zr3 2.114456 1_556
O2 P1 1.545633 1_555
O2 Zr3 2.114456 1_565
O3 P1 1.545633 1_555
O3 Zr2 2.114456 1_555
O4 P2 1.545633 1_555
O4 Zr2 2.114456 1_555
O5 P0 1.545633 1_555
O5 Zr2 2.114456 1_555
O6 P5 1.545633 1_555
O6 Zr1 2.114456 1_455
O7 P3 1.545633 1_555
O7 Zr1 2.114456 1_554
O8 P4 1.545633 1_555
O8 Zr1 2.114456 1_545
O9 P4 1.545633 1_555
O9 Zr0 2.114456 1_555
O10 P5 1.545633 1_555
O10 Zr0 2.114456 1_555
O11 P3 1.545633 1_555
O11 Zr0 2.114456 1_555
O12 P2 1.543928 1_565
O12 Zr0 2.089390 1_555
O13 P0 1.543928 1_655
O13 Zr0 2.089390 1_555
O14 P1 1.543928 1_556
O14 Zr0 2.089390 1_555
O15 P1 1.543928 1_555
O15 Zr1 2.089390 1_554
O16 P2 1.543928 1_555
O16 Zr1 2.089390 1_545
O17 P0 1.543928 1_555
O17 Zr1 2.089390 1_455
O18 P5 1.543928 1_545
O18 Zr2 2.089390 1_555
O19 P3 1.543928 1_455
O19 Zr2 2.089390 1_555
O20 P4 1.543928 1_554
O20 Zr2 2.089390 1_555
O21 P4 1.543928 1_555
O21 Zr3 2.089390 1_556
O22 P5 1.543928 1_555
O22 Zr3 2.089390 1_565
O23 P3 1.543928 1_555
O23 Zr3 2.089390 1_655
