# generated using pymatgen
data_Pu
_symmetry_space_group_name_H-M   'P 1'
_cell_length_a   7.78843398
_cell_length_b   7.78843398
_cell_length_c   7.80632292
_cell_angle_alpha   63.68820127
_cell_angle_beta   63.68820127
_cell_angle_gamma   83.14487271
_symmetry_Int_Tables_number   1
_chemical_formula_structural   Pu
_chemical_formula_sum   Pu17
_cell_volume   378.73588436
_cell_formula_units_Z   17
loop_
 _symmetry_equiv_pos_site_id
 _symmetry_equiv_pos_as_xyz
  1  'x, y, z'
loop_
 _atom_site_type_symbol
 _atom_site_label
 _atom_site_symmetry_multiplicity
 _atom_site_fract_x
 _atom_site_fract_y
 _atom_site_fract_z
 _atom_site_occupancy
  Pu  Pu0  1  0.00000000  0.00000000  0.00000000  1
  Pu  Pu1  1  0.73136400  0.26863600  0.50000000  1
  Pu  Pu2  1  0.26863600  0.73136400  0.50000000  1
  Pu  Pu3  1  0.86801500  0.86801500  0.75833600  1
  Pu  Pu4  1  0.13198500  0.13198500  0.24166400  1
  Pu  Pu5  1  0.68251600  0.68251600  0.24286200  1
  Pu  Pu6  1  0.31748400  0.31748400  0.75713800  1
  Pu  Pu7  1  0.59364500  0.59364500  0.72916400  1
  Pu  Pu8  1  0.40635500  0.40635500  0.27083600  1
  Pu  Pu9  1  0.14515000  0.57542900  0.02547400  1
  Pu  Pu10  1  0.42457100  0.85485000  0.97452600  1
  Pu  Pu11  1  0.85485000  0.42457100  0.97452600  1
  Pu  Pu12  1  0.57542900  0.14515000  0.02547400  1
  Pu  Pu13  1  0.99093900  0.69028400  0.41669000  1
  Pu  Pu14  1  0.30971600  0.00906100  0.58331000  1
  Pu  Pu15  1  0.00906100  0.30971600  0.58331000  1
  Pu  Pu16  1  0.69028400  0.99093900  0.41669000  1
loop_
_geom_bond_atom_site_label_1
_geom_bond_atom_site_label_2
_geom_bond_distance
_geom_bond_site_symmetry_2
Pu0 Pu6 2.995103 1_554
Pu0 Pu5 2.995103 1_445
Pu0 Pu15 3.047242 1_554
Pu0 Pu13 3.047242 1_445
Pu0 Pu14 3.047242 1_554
Pu0 Pu16 3.047242 1_445
Pu0 Pu4 3.059883 1_555
Pu0 Pu3 3.059883 1_444
Pu0 Pu11 3.313015 1_454
Pu0 Pu10 3.313015 1_544
Pu0 Pu12 3.313015 1_455
Pu0 Pu9 3.313015 1_545
Pu1 Pu15 2.607630 1_655
Pu1 Pu16 2.607630 1_545
Pu1 Pu5 3.035275 1_555
Pu1 Pu6 3.035275 1_555
Pu1 Pu4 3.235283 1_655
Pu1 Pu3 3.235283 1_545
Pu1 Pu12 3.404623 1_556
Pu1 Pu11 3.404623 1_554
Pu1 Pu7 3.524700 1_555
Pu1 Pu8 3.524700 1_555
Pu1 Pu10 3.636720 1_545
Pu1 Pu9 3.636720 1_655
Pu2 Pu5 3.035275 1_555
Pu2 Pu6 3.035275 1_555
Pu2 Pu3 3.235283 1_455
Pu2 Pu4 3.235283 1_565
Pu2 Pu9 3.404623 1_556
Pu2 Pu7 3.524700 1_555
Pu2 Pu8 3.524700 1_555
Pu3 Pu5 3.048010 1_556
Pu3 Pu4 3.320844 1_665
Pu3 Pu7 3.337296 1_555
Pu3 Pu9 3.578250 1_656
Pu4 Pu6 3.048010 1_554
Pu4 Pu9 3.090450 1_555
Pu4 Pu8 3.337296 1_555
Pu5 Pu8 3.093814 1_555
Pu5 Pu7 3.290150 1_555
Pu5 Pu9 3.416884 1_655
Pu6 Pu7 3.093814 1_555
Pu6 Pu9 3.289362 1_556
Pu6 Pu8 3.290150 1_555
Pu7 Pu9 3.199473 1_556
Pu7 Pu8 3.421604 1_556
Pu8 Pu9 3.181239 1_555
Pu10 Pu12 2.914846 1_566
Pu10 Pu9 3.037483 1_556
Pu10 Pu3 3.090450 1_555
Pu10 Pu7 3.181239 1_555
Pu10 Pu8 3.199473 1_556
Pu10 Pu14 3.237757 1_565
Pu10 Pu5 3.289362 1_556
Pu10 Pu2 3.404623 1_556
Pu10 Pu6 3.416884 1_565
Pu10 Pu13 3.426377 1_456
Pu10 Pu4 3.578250 1_566
Pu10 Pu16 3.579370 1_555
Pu11 Pu9 2.914846 1_656
Pu11 Pu12 3.037483 1_556
Pu11 Pu3 3.090450 1_555
Pu11 Pu7 3.181239 1_555
Pu11 Pu8 3.199473 1_556
Pu11 Pu15 3.237757 1_655
Pu11 Pu5 3.289362 1_556
Pu11 Pu6 3.416884 1_655
Pu11 Pu16 3.426377 1_546
Pu11 Pu4 3.578250 1_656
Pu11 Pu13 3.579370 1_555
Pu11 Pu2 3.636720 1_655
Pu12 Pu4 3.090450 1_555
Pu12 Pu8 3.181239 1_555
Pu12 Pu7 3.199473 1_554
Pu12 Pu16 3.237757 1_545
Pu12 Pu6 3.289362 1_554
Pu12 Pu5 3.416884 1_545
Pu12 Pu15 3.426377 1_654
Pu12 Pu3 3.578250 1_544
Pu12 Pu14 3.579370 1_555
Pu12 Pu2 3.636720 1_545
Pu13 Pu2 2.607630 1_655
Pu13 Pu15 2.672510 1_655
Pu13 Pu7 2.885891 1_555
Pu13 Pu4 3.211374 1_665
Pu13 Pu9 3.237757 1_655
Pu13 Pu5 3.257663 1_555
Pu13 Pu3 3.261669 1_555
Pu14 Pu2 2.607630 1_545
Pu14 Pu16 2.672510 1_545
Pu14 Pu8 2.885891 1_555
Pu14 Pu3 3.211374 1_445
Pu14 Pu6 3.257663 1_555
Pu14 Pu4 3.261669 1_555
Pu14 Pu9 3.426377 1_546
Pu15 Pu8 2.885891 1_555
Pu15 Pu3 3.211374 1_445
Pu15 Pu6 3.257663 1_555
Pu15 Pu4 3.261669 1_555
Pu15 Pu9 3.579370 1_555
Pu16 Pu7 2.885891 1_555
Pu16 Pu4 3.211374 1_665
Pu16 Pu5 3.257663 1_555
Pu16 Pu3 3.261669 1_555
