# generated using pymatgen
data_Bi2Te2WO10
_symmetry_space_group_name_H-M   'P 1'
_cell_length_a   6.95563612
_cell_length_b   6.95563612
_cell_length_c   12.48141853
_cell_angle_alpha   88.87042757
_cell_angle_beta   88.87042757
_cell_angle_gamma   48.44670410
_symmetry_Int_Tables_number   1
_chemical_formula_structural   Bi2Te2WO10
_chemical_formula_sum   'Bi4 Te4 W2 O20'
_cell_volume   451.78786342
_cell_formula_units_Z   2
loop_
 _symmetry_equiv_pos_site_id
 _symmetry_equiv_pos_as_xyz
  1  'x, y, z'
loop_
 _atom_site_type_symbol
 _atom_site_label
 _atom_site_symmetry_multiplicity
 _atom_site_fract_x
 _atom_site_fract_y
 _atom_site_fract_z
 _atom_site_occupancy
  Bi  Bi0  1  0.33296800  0.84909600  0.45672900  1
  Bi  Bi1  1  0.84909600  0.33296800  0.95672900  1
  Bi  Bi2  1  0.15090400  0.66703200  0.04327100  1
  Bi  Bi3  1  0.66703200  0.15090400  0.54327100  1
  Te  Te0  1  0.07620100  0.54231000  0.35910900  1
  Te  Te1  1  0.92379900  0.45769000  0.64089100  1
  Te  Te2  1  0.54231000  0.07620100  0.85910900  1
  Te  Te3  1  0.45769000  0.92379900  0.14089100  1
  W  W0  1  0.17654700  0.82345300  0.75000000  1
  W  W1  1  0.82345300  0.17654700  0.25000000  1
  O  O0  1  0.47098600  0.67942900  0.06136400  1
  O  O1  1  0.67942900  0.47098600  0.56136400  1
  O  O2  1  0.90826200  0.09325700  0.09897000  1
  O  O3  1  0.99807000  0.77242000  0.24475700  1
  O  O4  1  0.78313800  0.78261100  0.45124300  1
  O  O5  1  0.00193000  0.22758000  0.75524300  1
  O  O6  1  0.09173800  0.90674300  0.90103000  1
  O  O7  1  0.09325700  0.90826200  0.59897000  1
  O  O8  1  0.21686200  0.21738900  0.54875700  1
  O  O9  1  0.77242000  0.99807000  0.74475700  1
  O  O10  1  0.26564800  0.51259900  0.74396300  1
  O  O11  1  0.73435200  0.48740100  0.25603700  1
  O  O12  1  0.52901400  0.32057100  0.93863600  1
  O  O13  1  0.78261100  0.78313800  0.95124300  1
  O  O14  1  0.22758000  0.00193000  0.25524300  1
  O  O15  1  0.48740100  0.73435200  0.75603700  1
  O  O16  1  0.21738900  0.21686200  0.04875700  1
  O  O17  1  0.90674300  0.09173800  0.40103000  1
  O  O18  1  0.32057100  0.52901400  0.43863600  1
  O  O19  1  0.51259900  0.26564800  0.24396300  1
loop_
_geom_bond_atom_site_label_1
_geom_bond_atom_site_label_2
_geom_bond_distance
_geom_bond_site_symmetry_2
Bi0 O7 2.259010 1_555
Bi0 O18 2.300098 1_555
Bi0 O17 2.349064 1_465
Bi0 O8 2.422566 1_565
Bi0 O1 2.451629 1_555
Bi0 O14 2.631596 1_565
Bi0 O4 2.845151 1_555
Bi1 O2 2.259010 1_556
Bi1 O12 2.300098 1_555
Bi1 O6 2.349064 1_645
Bi1 O16 2.422566 1_656
Bi1 O0 2.451629 1_556
Bi1 O5 2.631596 1_655
Bi1 O13 2.845151 1_555
Bi2 O6 2.259010 1_554
Bi2 O0 2.300098 1_555
Bi2 O2 2.349064 1_465
Bi2 O13 2.422566 1_454
Bi2 O12 2.451629 1_554
Bi2 O3 2.631596 1_455
Bi2 O16 2.845151 1_555
Bi3 O17 2.259010 1_555
Bi3 O1 2.300098 1_555
Bi3 O7 2.349064 1_645
Bi3 O4 2.422566 1_545
Bi3 O18 2.451629 1_555
Bi3 O9 2.631596 1_545
Bi3 O8 2.845151 1_555
O0 Te3 1.933218 1_555
O1 Te1 1.933218 1_555
O2 W1 1.944976 1_555
O3 Te0 1.918547 1_655
O3 W1 2.203590 1_565
O4 Te0 1.932542 1_655
O5 Te1 1.918547 1_455
O5 W0 2.203590 1_545
O6 W0 1.944976 1_555
O7 W0 1.944976 1_555
O8 Te1 1.932542 1_455
O9 Te2 1.918547 1_565
O9 W0 2.203590 1_655
O10 W0 1.814301 1_555
O11 W1 1.814301 1_555
O12 Te2 1.933218 1_555
O13 Te2 1.932542 1_565
O14 Te3 1.918547 1_545
O14 W1 2.203590 1_455
O15 W0 1.814301 1_555
O16 Te3 1.932542 1_545
O17 W1 1.944976 1_555
O18 Te0 1.933218 1_555
O19 W1 1.814301 1_555
