# generated using pymatgen
data_Ag6Mo2ClO7F3
_symmetry_space_group_name_H-M   'P 1'
_cell_length_a   7.59653810
_cell_length_b   7.59653810
_cell_length_c   6.01988500
_cell_angle_alpha   90.00000000
_cell_angle_beta   90.00000000
_cell_angle_gamma   120.00000084
_symmetry_Int_Tables_number   1
_chemical_formula_structural   Ag6Mo2ClO7F3
_chemical_formula_sum   'Ag6 Mo2 Cl1 O7 F3'
_cell_volume   300.85017135
_cell_formula_units_Z   1
loop_
 _symmetry_equiv_pos_site_id
 _symmetry_equiv_pos_as_xyz
  1  'x, y, z'
loop_
 _atom_site_type_symbol
 _atom_site_label
 _atom_site_symmetry_multiplicity
 _atom_site_fract_x
 _atom_site_fract_y
 _atom_site_fract_z
 _atom_site_occupancy
  Ag  Ag0  1  0.15716200  0.84283800  0.18903400  1
  Ag  Ag1  1  0.82839800  0.17160200  0.72992300  1
  Ag  Ag2  1  0.82839800  0.65679600  0.72992300  1
  Ag  Ag3  1  0.15716200  0.31432300  0.18903400  1
  Ag  Ag4  1  0.68567700  0.84283800  0.18903400  1
  Ag  Ag5  1  0.34320400  0.17160200  0.72992300  1
  Mo  Mo0  1  0.66666700  0.33333300  0.23839200  1
  Mo  Mo1  1  0.33333300  0.66666700  0.68525200  1
  Cl  Cl0  1  0.00000000  0.00000000  0.49236500  1
  O  O0  1  0.21014300  0.78985700  0.81764100  1
  O  O1  1  0.79374500  0.20625500  0.12407800  1
  O  O2  1  0.57971400  0.78985700  0.81764100  1
  O  O3  1  0.66666700  0.33333300  0.54336600  1
  O  O4  1  0.41251000  0.20625500  0.12407800  1
  O  O5  1  0.21014300  0.42028600  0.81764100  1
  O  O6  1  0.79374500  0.58749000  0.12407800  1
  F  F0  1  0.10249300  0.55124600  0.43971600  1
  F  F1  1  0.44875400  0.55124600  0.43971600  1
  F  F2  1  0.44875400  0.89750700  0.43971600  1
loop_
_geom_bond_atom_site_label_1
_geom_bond_atom_site_label_2
_geom_bond_distance
_geom_bond_site_symmetry_2
Ag0 O0 2.341901 1_554
Ag0 O6 2.486359 1_455
Ag0 O4 2.486359 1_565
Ag0 F0 2.537024 1_555
Ag0 F2 2.537024 1_555
Ag0 Cl0 2.758703 1_565
Ag1 O3 2.406156 1_555
Ag1 O1 2.416178 1_556
Ag1 O5 2.603641 1_655
Ag1 O2 2.603641 1_545
Ag1 Cl0 2.672654 1_655
Ag2 O3 2.406162 1_555
Ag2 O6 2.416178 1_556
Ag2 O0 2.603641 1_655
Ag2 O2 2.603641 1_555
Ag2 Cl0 2.672653 1_665
Ag3 O5 2.341903 1_554
Ag3 O4 2.486354 1_555
Ag3 O1 2.486361 1_455
Ag3 F1 2.537024 1_555
Ag3 F0 2.537024 1_555
Ag3 Cl0 2.758698 1_555
Ag4 O2 2.341903 1_554
Ag4 O6 2.486354 1_555
Ag4 O1 2.486361 1_565
Ag4 F1 2.537024 1_555
Ag4 F2 2.537024 1_555
Ag4 Cl0 2.758698 1_665
Ag5 O3 2.406162 1_555
Ag5 O4 2.416178 1_556
Ag5 O0 2.603641 1_545
Ag5 O5 2.603641 1_555
Ag5 Cl0 2.672653 1_555
Mo0 O1 1.808115 1_555
Mo0 O6 1.808121 1_555
Mo0 O4 1.808121 1_555
Mo0 O3 1.835908 1_555
Mo1 O0 1.806217 1_555
Mo1 O2 1.806223 1_555
Mo1 O5 1.806223 1_555
F0 Mo1 2.119214 1_555
F1 Mo1 2.119224 1_555
F2 Mo1 2.119214 1_555
