# generated using pymatgen
data_Ta3SiTe6
_symmetry_space_group_name_H-M   'P 1'
_cell_length_a   6.40547354
_cell_length_b   11.58084383
_cell_length_c   14.65104002
_cell_angle_alpha   90.00000000
_cell_angle_beta   90.00000000
_cell_angle_gamma   90.00000000
_symmetry_Int_Tables_number   1
_chemical_formula_structural   Ta3SiTe6
_chemical_formula_sum   'Ta12 Si4 Te24'
_cell_volume   1086.82570431
_cell_formula_units_Z   4
loop_
 _symmetry_equiv_pos_site_id
 _symmetry_equiv_pos_as_xyz
  1  'x, y, z'
loop_
 _atom_site_type_symbol
 _atom_site_label
 _atom_site_symmetry_multiplicity
 _atom_site_fract_x
 _atom_site_fract_y
 _atom_site_fract_z
 _atom_site_occupancy
  Ta  Ta0  1  0.66644187  0.33651407  0.25000000  1
  Ta  Ta1  1  0.16644187  0.16348593  0.25000000  1
  Ta  Ta2  1  0.83355813  0.83651407  0.75000000  1
  Ta  Ta3  1  0.33355813  0.66348593  0.75000000  1
  Ta  Ta4  1  0.97101031  0.68785889  0.25000000  1
  Ta  Ta5  1  0.47101031  0.81214111  0.25000000  1
  Ta  Ta6  1  0.52898969  0.18785889  0.75000000  1
  Ta  Ta7  1  0.02898969  0.31214111  0.75000000  1
  Ta  Ta8  1  0.69754459  0.03055606  0.25000000  1
  Ta  Ta9  1  0.19754459  0.46944394  0.25000000  1
  Ta  Ta10  1  0.80245541  0.53055606  0.75000000  1
  Ta  Ta11  1  0.30245541  0.96944394  0.75000000  1
  Si  Si0  1  0.57647231  0.57565306  0.25000000  1
  Si  Si1  1  0.07647231  0.92434694  0.25000000  1
  Si  Si2  1  0.92352769  0.07565306  0.75000000  1
  Si  Si3  1  0.42352769  0.42434694  0.75000000  1
  Te  Te0  1  0.79853806  0.84288917  0.12221899  1
  Te  Te1  1  0.29853806  0.65711083  0.37778101  1
  Te  Te2  1  0.70146194  0.34288917  0.87778101  1
  Te  Te3  1  0.20146194  0.15711083  0.62221899  1
  Te  Te4  1  0.20146194  0.15711083  0.87778101  1
  Te  Te5  1  0.70146194  0.34288917  0.62221899  1
  Te  Te6  1  0.29853806  0.65711083  0.12221899  1
  Te  Te7  1  0.79853806  0.84288917  0.37778101  1
  Te  Te8  1  0.85484992  0.49785261  0.12618390  1
  Te  Te9  1  0.35484992  0.00214739  0.37381610  1
  Te  Te10  1  0.64515008  0.99785261  0.87381610  1
  Te  Te11  1  0.14515008  0.50214739  0.62618390  1
  Te  Te12  1  0.14515008  0.50214739  0.87381610  1
  Te  Te13  1  0.64515008  0.99785261  0.62618390  1
  Te  Te14  1  0.35484992  0.00214739  0.12618390  1
  Te  Te15  1  0.85484992  0.49785261  0.37381610  1
  Te  Te16  1  0.84772578  0.18148568  0.12140759  1
  Te  Te17  1  0.34772578  0.31851432  0.37859241  1
  Te  Te18  1  0.65227422  0.68148568  0.87859241  1
  Te  Te19  1  0.15227422  0.81851432  0.62140759  1
  Te  Te20  1  0.15227422  0.81851432  0.87859241  1
  Te  Te21  1  0.65227422  0.68148568  0.62140759  1
  Te  Te22  1  0.34772578  0.31851432  0.12140759  1
  Te  Te23  1  0.84772578  0.18148568  0.37859241  1
loop_
_geom_bond_atom_site_label_1
_geom_bond_atom_site_label_2
_geom_bond_distance
_geom_bond_site_symmetry_2
Ta0 Te17 2.785819 1_555
Ta0 Te22 2.785819 1_555
Ta0 Te16 2.849777 1_555
Ta0 Te23 2.849777 1_555
Ta0 Te15 2.870234 1_555
Ta0 Te8 2.870234 1_555
Ta1 Te16 2.785819 1_455
Ta1 Te23 2.785819 1_455
Ta1 Te17 2.849777 1_555
Ta1 Te22 2.849777 1_555
Ta1 Te14 2.870234 1_555
Ta1 Te9 2.870234 1_555
Ta2 Te20 2.785819 1_655
Ta2 Te19 2.785819 1_655
Ta2 Te18 2.849777 1_555
Ta2 Te21 2.849777 1_555
Ta2 Te13 2.870234 1_555
Ta2 Te10 2.870234 1_555
Ta3 Te18 2.785819 1_555
Ta3 Te21 2.785819 1_555
Ta3 Te19 2.849777 1_555
Ta3 Te20 2.849777 1_555
Ta3 Te11 2.870234 1_555
Ta3 Te12 2.870234 1_555
Ta4 Te0 2.819354 1_555
Ta4 Te7 2.819354 1_555
Ta4 Te6 2.834278 1_655
Ta4 Te1 2.834278 1_655
Ta4 Te15 2.947245 1_555
Ta4 Te8 2.947245 1_555
Ta5 Te6 2.819354 1_555
Ta5 Te1 2.819354 1_555
Ta5 Te7 2.834278 1_555
Ta5 Te0 2.834278 1_555
Ta5 Te9 2.947245 1_565
Ta5 Te14 2.947245 1_565
Ta6 Te5 2.819354 1_555
Ta6 Te2 2.819354 1_555
Ta6 Te3 2.834278 1_555
Ta6 Te4 2.834278 1_555
Ta6 Te13 2.947245 1_545
Ta6 Te10 2.947245 1_545
Ta7 Te3 2.819354 1_555
Ta7 Te4 2.819354 1_555
Ta7 Te2 2.834278 1_455
Ta7 Te5 2.834278 1_455
Ta7 Te11 2.947245 1_555
Ta7 Te12 2.947245 1_555
Ta8 Te16 2.744092 1_555
Ta8 Te23 2.744092 1_555
Ta8 Te9 2.866622 1_555
Ta8 Te14 2.866622 1_555
Ta8 Te0 2.940537 1_545
Ta8 Te7 2.940537 1_545
Ta9 Te17 2.744092 1_555
Ta9 Te22 2.744092 1_555
Ta9 Te15 2.866622 1_455
Ta9 Te8 2.866622 1_455
Ta9 Te1 2.940537 1_555
Ta9 Te6 2.940537 1_555
Ta10 Te21 2.744092 1_555
Ta10 Te18 2.744092 1_555
Ta10 Te11 2.866622 1_655
Ta10 Te12 2.866622 1_655
Ta10 Te2 2.940537 1_555
Ta10 Te5 2.940537 1_555
Ta11 Te19 2.744092 1_555
Ta11 Te20 2.744092 1_555
Ta11 Te10 2.866622 1_555
Ta11 Te13 2.866622 1_555
Ta11 Te4 2.940537 1_565
Ta11 Te3 2.940537 1_565
Si0 Te15 2.698537 1_555
Si0 Te8 2.698537 1_555
Si0 Ta9 2.721072 1_555
Si0 Te1 2.750314 1_555
Si0 Te6 2.750314 1_555
Si0 Ta5 2.820815 1_555
Si0 Ta0 2.828757 1_555
Si0 Ta4 2.841706 1_555
Si1 Te9 2.698537 1_565
Si1 Te14 2.698537 1_565
Si1 Ta8 2.721072 1_465
Si1 Te7 2.750314 1_455
Si1 Te0 2.750314 1_455
Si1 Ta4 2.820815 1_455
Si1 Ta1 2.828757 1_565
Si1 Ta5 2.841706 1_555
Si2 Te10 2.698537 1_545
Si2 Te13 2.698537 1_545
Si2 Ta11 2.721072 1_645
Si2 Te4 2.750314 1_655
Si2 Te3 2.750314 1_655
Si2 Ta7 2.820815 1_655
Si2 Ta2 2.828757 1_545
Si2 Ta6 2.841706 1_555
Si3 Te11 2.698537 1_555
Si3 Te12 2.698537 1_555
Si3 Ta10 2.721072 1_555
Si3 Te5 2.750314 1_555
Si3 Te2 2.750314 1_555
Si3 Ta6 2.820815 1_555
Si3 Ta3 2.828757 1_555
Si3 Ta7 2.841706 1_555
