# generated using pymatgen
data_KTeHOF4
_symmetry_space_group_name_H-M   'P 1'
_cell_length_a   6.93790600
_cell_length_b   5.04108200
_cell_length_c   7.90542256
_cell_angle_alpha   73.53310012
_cell_angle_beta   90.00000000
_cell_angle_gamma   90.00000000
_symmetry_Int_Tables_number   1
_chemical_formula_structural   KTeHOF4
_chemical_formula_sum   'K2 Te2 H2 O2 F8'
_cell_volume   265.14806735
_cell_formula_units_Z   2
loop_
 _symmetry_equiv_pos_site_id
 _symmetry_equiv_pos_as_xyz
  1  'x, y, z'
loop_
 _atom_site_type_symbol
 _atom_site_label
 _atom_site_symmetry_multiplicity
 _atom_site_fract_x
 _atom_site_fract_y
 _atom_site_fract_z
 _atom_site_occupancy
  K  K0  1  0.89587600  0.63049200  0.70778100  1
  K  K1  1  0.39587600  0.36950800  0.29221900  1
  Te  Te0  1  0.87142800  0.94127800  0.18064900  1
  Te  Te1  1  0.37142800  0.05872200  0.81935100  1
  H  H0  1  0.39098900  0.75269900  0.62606500  1
  H  H1  1  0.89098900  0.24730100  0.37393500  1
  O  O0  1  0.34734400  0.94781700  0.60646900  1
  O  O1  1  0.84734400  0.05218300  0.39353100  1
  F  F0  1  0.64994900  0.92964800  0.82554800  1
  F  F1  1  0.28866800  0.66747300  0.94278900  1
  F  F2  1  0.45271100  0.42979600  0.63437700  1
  F  F3  1  0.95271100  0.57020400  0.36562300  1
  F  F4  1  0.58803400  0.84230500  0.22866000  1
  F  F5  1  0.14994900  0.07035200  0.17445200  1
  F  F6  1  0.08803400  0.15769500  0.77134000  1
  F  F7  1  0.78866800  0.33252700  0.05721100  1
loop_
_geom_bond_atom_site_label_1
_geom_bond_atom_site_label_2
_geom_bond_distance
_geom_bond_site_symmetry_2
K0 O1 2.794641 1_565
K1 O0 2.794641 1_545
H0 O0 0.998391 1_555
H1 O1 0.998391 1_555
O0 Te1 1.925131 1_565
O1 Te0 1.925131 1_545
F0 Te1 2.035114 1_565
F0 K0 2.616902 1_555
F1 Te1 2.020109 1_565
F1 K1 2.843927 1_556
F2 H0 1.666350 1_555
F2 Te1 2.098756 1_555
F2 K1 2.833796 1_555
F3 H1 1.666350 1_555
F3 Te0 2.098756 1_555
F3 K0 2.833796 1_555
F4 Te0 2.037503 1_555
F4 K1 2.651703 1_555
F4 K1 3.138488 1_565
F5 Te0 2.035114 1_445
F5 K1 2.616902 1_555
F6 Te1 2.037503 1_555
F6 K0 2.651703 1_455
F6 K0 3.138488 1_445
F7 Te0 2.020109 1_545
F7 K0 2.843927 1_554
