# generated using pymatgen
data_Cr11Ge8
_symmetry_space_group_name_H-M   'P 1'
_cell_length_a   4.91687596
_cell_length_b   13.18239524
_cell_length_c   15.76932300
_cell_angle_alpha   90.00000000
_cell_angle_beta   90.00000000
_cell_angle_gamma   90.00000000
_symmetry_Int_Tables_number   1
_chemical_formula_structural   Cr11Ge8
_chemical_formula_sum   'Cr44 Ge32'
_cell_volume   1022.10762893
_cell_formula_units_Z   4
loop_
 _symmetry_equiv_pos_site_id
 _symmetry_equiv_pos_as_xyz
  1  'x, y, z'
loop_
 _atom_site_type_symbol
 _atom_site_label
 _atom_site_symmetry_multiplicity
 _atom_site_fract_x
 _atom_site_fract_y
 _atom_site_fract_z
 _atom_site_occupancy
  Cr  Cr0  1  0.00346750  0.55989386  0.87795070  1
  Cr  Cr1  1  0.75000000  0.75124604  0.46844387  1
  Cr  Cr2  1  0.75000000  0.86427454  0.65841856  1
  Cr  Cr3  1  0.49653250  0.55989386  0.87795070  1
  Cr  Cr4  1  0.25000000  0.06503436  0.80924073  1
  Cr  Cr5  1  0.25000000  0.30741162  0.25108985  1
  Cr  Cr6  1  0.25000000  0.86917267  0.54185802  1
  Cr  Cr7  1  0.75000000  0.38052359  0.50807284  1
  Cr  Cr8  1  0.25000000  0.80741162  0.24891015  1
  Cr  Cr9  1  0.50346750  0.44010614  0.12204930  1
  Cr  Cr10  1  0.25000000  0.61947641  0.49192716  1
  Cr  Cr11  1  0.25000000  0.95984228  0.09273758  1
  Cr  Cr12  1  0.75000000  0.25124604  0.03155613  1
  Cr  Cr13  1  0.75000000  0.88052359  0.99192716  1
  Cr  Cr14  1  0.25000000  0.13572546  0.34158144  1
  Cr  Cr15  1  0.25000000  0.45984228  0.40726242  1
  Cr  Cr16  1  0.50990028  0.86313374  0.82572260  1
  Cr  Cr17  1  0.25000000  0.11947641  0.00807284  1
  Cr  Cr18  1  0.00990028  0.63686626  0.32572260  1
  Cr  Cr19  1  0.25000000  0.63572546  0.15841856  1
  Cr  Cr20  1  0.75000000  0.04015772  0.90726242  1
  Cr  Cr21  1  0.75000000  0.43496564  0.30924073  1
  Cr  Cr22  1  0.50990028  0.36313374  0.67427740  1
  Cr  Cr23  1  0.99009972  0.36313374  0.67427740  1
  Cr  Cr24  1  0.99653250  0.94010614  0.37795070  1
  Cr  Cr25  1  0.49009972  0.13686626  0.17427740  1
  Cr  Cr26  1  0.25000000  0.24875396  0.53155613  1
  Cr  Cr27  1  0.99009972  0.86313374  0.82572260  1
  Cr  Cr28  1  0.75000000  0.93496564  0.19075927  1
  Cr  Cr29  1  0.25000000  0.74875396  0.96844387  1
  Cr  Cr30  1  0.75000000  0.19258838  0.75108985  1
  Cr  Cr31  1  0.75000000  0.63082733  0.04185802  1
  Cr  Cr32  1  0.75000000  0.36427454  0.84158144  1
  Cr  Cr33  1  0.99653250  0.44010614  0.12204930  1
  Cr  Cr34  1  0.25000000  0.36917267  0.95814198  1
  Cr  Cr35  1  0.49009972  0.63686626  0.32572260  1
  Cr  Cr36  1  0.50346750  0.94010614  0.37795070  1
  Cr  Cr37  1  0.25000000  0.56503436  0.69075927  1
  Cr  Cr38  1  0.75000000  0.69258838  0.74891015  1
  Cr  Cr39  1  0.49653250  0.05989386  0.62204930  1
  Cr  Cr40  1  0.00346750  0.05989386  0.62204930  1
  Cr  Cr41  1  0.75000000  0.13082733  0.45814198  1
  Cr  Cr42  1  0.75000000  0.54015772  0.59273758  1
  Cr  Cr43  1  0.00990028  0.13686626  0.17427740  1
  Ge  Ge0  1  0.25000000  0.70349856  0.80068860  1
  Ge  Ge1  1  0.25000000  0.49145105  0.25538603  1
  Ge  Ge2  1  0.75000000  0.55142781  0.43921299  1
  Ge  Ge3  1  0.25000000  0.55652878  0.01715994  1
  Ge  Ge4  1  0.99816831  0.28776581  0.38844066  1
  Ge  Ge5  1  0.25000000  0.05652878  0.48284006  1
  Ge  Ge6  1  0.75000000  0.08785146  0.30425591  1
  Ge  Ge7  1  0.25000000  0.99145105  0.24461397  1
  Ge  Ge8  1  0.75000000  0.58785146  0.19574409  1
  Ge  Ge9  1  0.00183169  0.21223419  0.88844066  1
  Ge  Ge10  1  0.49816831  0.71223419  0.61155934  1
  Ge  Ge11  1  0.25000000  0.27603160  0.09443912  1
  Ge  Ge12  1  0.25000000  0.77603160  0.40556088  1
  Ge  Ge13  1  0.99816831  0.78776581  0.11155934  1
  Ge  Ge14  1  0.75000000  0.50854895  0.74461397  1
  Ge  Ge15  1  0.75000000  0.94347122  0.51715994  1
  Ge  Ge16  1  0.75000000  0.05142781  0.06078701  1
  Ge  Ge17  1  0.75000000  0.00854895  0.75538603  1
  Ge  Ge18  1  0.25000000  0.41214854  0.80425591  1
  Ge  Ge19  1  0.00183169  0.71223419  0.61155934  1
  Ge  Ge20  1  0.75000000  0.72396840  0.90556088  1
  Ge  Ge21  1  0.25000000  0.91214854  0.69574409  1
  Ge  Ge22  1  0.75000000  0.29650144  0.19931140  1
  Ge  Ge23  1  0.50183169  0.28776581  0.38844066  1
  Ge  Ge24  1  0.25000000  0.20349856  0.69931140  1
  Ge  Ge25  1  0.75000000  0.79650144  0.30068860  1
  Ge  Ge26  1  0.75000000  0.22396840  0.59443912  1
  Ge  Ge27  1  0.49816831  0.21223419  0.88844066  1
  Ge  Ge28  1  0.50183169  0.78776581  0.11155934  1
  Ge  Ge29  1  0.75000000  0.44347122  0.98284006  1
  Ge  Ge30  1  0.25000000  0.44857219  0.56078701  1
  Ge  Ge31  1  0.25000000  0.94857219  0.93921299  1
loop_
_geom_bond_atom_site_label_1
_geom_bond_atom_site_label_2
_geom_bond_distance
_geom_bond_site_symmetry_2
Cr0 Cr3 2.424339 1_555
Cr0 Cr3 2.492537 1_455
Cr0 Ge3 2.508063 1_556
Cr0 Ge20 2.533943 1_455
Cr0 Ge14 2.536210 1_455
Cr0 Ge0 2.556841 1_555
Cr0 Ge18 2.571607 1_555
Cr0 Ge29 2.577675 1_455
Cr1 Ge19 2.625067 1_655
Cr1 Ge10 2.625067 1_555
Cr1 Ge15 2.647878 1_555
Cr1 Ge12 2.670952 1_555
Cr1 Ge12 2.670952 1_655
Cr1 Ge2 2.674111 1_555
Cr1 Ge25 2.711821 1_555
Cr2 Ge17 2.440356 1_565
Cr2 Ge15 2.460067 1_555
Cr2 Ge19 2.469063 1_655
Cr2 Ge10 2.469063 1_555
Cr2 Ge21 2.605503 1_555
Cr2 Ge21 2.605503 1_655
Cr3 Ge3 2.508063 1_556
Cr3 Ge20 2.533943 1_555
Cr3 Ge14 2.536210 1_555
Cr3 Ge0 2.556841 1_555
Cr3 Ge18 2.571607 1_555
Cr3 Ge29 2.577675 1_555
Cr4 Ge24 2.517289 1_555
Cr4 Ge31 2.560810 1_545
Cr4 Ge27 2.610378 1_555
Cr4 Ge9 2.610378 1_555
Cr4 Ge21 2.695385 1_545
Cr4 Ge17 2.705475 1_555
Cr4 Ge17 2.705475 1_455
Cr5 Ge1 2.427026 1_555
Cr5 Ge11 2.504672 1_555
Cr5 Ge4 2.508291 1_455
Cr5 Ge23 2.508291 1_555
Cr5 Ge22 2.594473 1_555
Cr5 Ge22 2.594473 1_455
Cr6 Ge12 2.475297 1_555
Cr6 Ge21 2.491931 1_555
Cr6 Ge5 2.639333 1_565
Cr6 Ge10 2.641415 1_555
Cr6 Ge19 2.641415 1_555
Cr6 Ge15 2.674863 1_455
Cr6 Ge15 2.674863 1_555
Cr7 Ge26 2.472657 1_555
Cr7 Ge2 2.500960 1_555
Cr7 Ge23 2.557936 1_555
Cr7 Ge4 2.557936 1_555
Cr7 Ge30 2.745835 1_555
Cr7 Ge30 2.745835 1_655
Cr8 Ge7 2.427026 1_555
Cr8 Ge12 2.504672 1_555
Cr8 Ge28 2.508291 1_555
Cr8 Ge13 2.508291 1_455
Cr8 Ge25 2.594473 1_555
Cr8 Ge25 2.594473 1_455
Cr9 Ge29 2.508063 1_554
Cr9 Ge11 2.533943 1_555
Cr9 Ge1 2.536210 1_555
Cr9 Ge22 2.556841 1_555
Cr9 Ge8 2.571607 1_555
Cr9 Ge3 2.577675 1_555
Cr10 Ge12 2.472657 1_555
Cr10 Cr15 2.492155 1_555
Cr10 Ge30 2.500960 1_555
Cr10 Ge10 2.557936 1_555
Cr10 Ge19 2.557936 1_555
Cr10 Ge2 2.745835 1_555
Cr10 Ge2 2.745835 1_455
Cr11 Ge31 2.425533 1_554
Cr11 Ge7 2.430965 1_555
Cr11 Cr17 2.492155 1_565
Cr11 Ge13 2.601316 1_455
Cr11 Ge28 2.601316 1_555
Cr11 Ge16 2.784849 1_565
Cr11 Ge16 2.784849 1_465
Cr12 Ge9 2.625067 1_654
Cr12 Ge27 2.625067 1_554
Cr12 Ge29 2.647878 1_554
Cr12 Ge11 2.670952 1_555
Cr12 Ge11 2.670952 1_655
Cr12 Ge16 2.674111 1_555
Cr12 Ge22 2.711821 1_555
Cr13 Ge20 2.472657 1_555
Cr13 Cr20 2.492155 1_565
Cr13 Ge16 2.500960 1_566
Cr13 Ge28 2.557936 1_556
Cr13 Ge13 2.557936 1_556
Cr13 Ge31 2.745835 1_555
Cr13 Ge31 2.745835 1_655
Cr14 Ge7 2.440356 1_545
Cr14 Ge5 2.460067 1_555
Cr14 Ge4 2.469063 1_455
Cr14 Ge23 2.469063 1_555
Cr14 Ge6 2.605503 1_455
Cr14 Ge6 2.605503 1_555
Cr15 Ge30 2.425533 1_555
Cr15 Ge1 2.430965 1_555
Cr15 Ge4 2.601316 1_455
Cr15 Ge23 2.601316 1_555
Cr15 Ge2 2.784849 1_455
Cr15 Ge2 2.784849 1_555
Cr16 Ge31 2.470717 1_555
Cr16 Ge0 2.493442 1_555
Cr16 Ge21 2.500334 1_555
Cr16 Ge17 2.509681 1_565
Cr16 Ge20 2.518781 1_555
Cr17 Ge11 2.472657 1_555
Cr17 Ge31 2.500960 1_544
Cr17 Ge9 2.557936 1_554
Cr17 Ge27 2.557936 1_554
Cr17 Ge16 2.745835 1_455
Cr17 Ge16 2.745835 1_555
Cr18 Ge2 2.470717 1_455
Cr18 Ge25 2.493442 1_455
Cr18 Ge8 2.500334 1_455
Cr18 Ge1 2.509681 1_555
Cr18 Ge12 2.518781 1_555
Cr19 Ge1 2.440356 1_555
Cr19 Ge3 2.460067 1_555
Cr19 Ge13 2.469063 1_455
Cr19 Ge28 2.469063 1_555
Cr19 Ge8 2.605503 1_455
Cr19 Ge8 2.605503 1_555
Cr20 Ge16 2.425533 1_556
Cr20 Ge17 2.430965 1_555
Cr20 Ge27 2.601316 1_555
Cr20 Ge9 2.601316 1_655
Cr20 Ge31 2.784849 1_545
Cr20 Ge31 2.784849 1_645
Cr21 Ge22 2.517289 1_555
Cr21 Ge2 2.560810 1_555
Cr21 Ge4 2.610378 1_555
Cr21 Ge23 2.610378 1_555
Cr21 Ge8 2.695385 1_555
Cr21 Ge1 2.705475 1_555
Cr21 Ge1 2.705475 1_655
Cr22 Ge30 2.470717 1_555
Cr22 Ge24 2.493442 1_555
Cr22 Ge18 2.500334 1_555
Cr22 Ge14 2.509681 1_555
Cr22 Ge26 2.518781 1_555
Cr23 Ge30 2.470717 1_655
Cr23 Ge24 2.493442 1_655
Cr23 Ge18 2.500334 1_655
Cr23 Ge14 2.509681 1_555
Cr23 Ge26 2.518781 1_555
Cr24 Cr36 2.424339 1_555
Cr24 Cr36 2.492537 1_655
Cr24 Ge15 2.508063 1_555
Cr24 Ge12 2.533943 1_655
Cr24 Ge7 2.536210 1_655
Cr24 Ge25 2.556841 1_555
Cr24 Ge6 2.571607 1_565
Cr24 Ge5 2.577675 1_665
Cr25 Ge16 2.470717 1_555
Cr25 Ge22 2.493442 1_555
Cr25 Ge6 2.500334 1_555
Cr25 Ge7 2.509681 1_545
Cr25 Ge11 2.518781 1_555
Cr26 Ge4 2.625067 1_455
Cr26 Ge23 2.625067 1_555
Cr26 Ge5 2.647878 1_555
Cr26 Ge26 2.670952 1_455
Cr26 Ge26 2.670952 1_555
Cr26 Ge30 2.674111 1_555
Cr26 Ge24 2.711821 1_555
Cr27 Ge31 2.470717 1_655
Cr27 Ge0 2.493442 1_655
Cr27 Ge21 2.500334 1_655
Cr27 Ge17 2.509681 1_565
Cr27 Ge20 2.518781 1_555
Cr28 Ge25 2.517289 1_555
Cr28 Ge16 2.560810 1_565
Cr28 Ge28 2.610378 1_555
Cr28 Ge13 2.610378 1_555
Cr28 Ge6 2.695385 1_565
Cr28 Ge7 2.705475 1_555
Cr28 Ge7 2.705475 1_655
Cr29 Ge13 2.625067 1_456
Cr29 Ge28 2.625067 1_556
Cr29 Ge3 2.647878 1_556
Cr29 Ge20 2.670952 1_455
Cr29 Ge20 2.670952 1_555
Cr29 Ge31 2.674111 1_555
Cr29 Ge0 2.711821 1_555
Cr30 Ge17 2.427026 1_555
Cr30 Ge26 2.504672 1_555
Cr30 Ge27 2.508291 1_555
Cr30 Ge9 2.508291 1_655
Cr30 Ge24 2.594473 1_655
Cr30 Ge24 2.594473 1_555
Cr31 Ge20 2.475297 1_554
Cr31 Ge8 2.491931 1_555
Cr31 Ge29 2.639333 1_554
Cr31 Ge28 2.641415 1_555
Cr31 Ge13 2.641415 1_555
Cr31 Ge3 2.674863 1_555
Cr31 Ge3 2.674863 1_655
Cr32 Ge14 2.440356 1_555
Cr32 Ge29 2.460067 1_555
Cr32 Ge9 2.469063 1_655
Cr32 Ge27 2.469063 1_555
Cr32 Ge18 2.605503 1_555
Cr32 Ge18 2.605503 1_655
Cr33 Cr9 2.424339 1_555
Cr33 Cr9 2.492537 1_655
Cr33 Ge29 2.508063 1_554
Cr33 Ge11 2.533943 1_655
Cr33 Ge1 2.536210 1_655
Cr33 Ge22 2.556841 1_555
Cr33 Ge8 2.571607 1_555
Cr33 Ge3 2.577675 1_655
Cr34 Ge11 2.475297 1_556
Cr34 Ge18 2.491931 1_555
Cr34 Ge3 2.639333 1_556
Cr34 Ge9 2.641415 1_555
Cr34 Ge27 2.641415 1_555
Cr34 Ge29 2.674863 1_455
Cr34 Ge29 2.674863 1_555
Cr35 Ge2 2.470717 1_555
Cr35 Ge25 2.493442 1_555
Cr35 Ge8 2.500334 1_555
Cr35 Ge1 2.509681 1_555
Cr35 Ge12 2.518781 1_555
Cr36 Ge15 2.508063 1_555
Cr36 Ge12 2.533943 1_555
Cr36 Ge7 2.536210 1_555
Cr36 Ge25 2.556841 1_555
Cr36 Ge6 2.571607 1_565
Cr36 Ge5 2.577675 1_565
Cr37 Ge0 2.517289 1_555
Cr37 Ge30 2.560810 1_555
Cr37 Ge10 2.610378 1_555
Cr37 Ge19 2.610378 1_555
Cr37 Ge18 2.695385 1_555
Cr37 Ge14 2.705475 1_455
Cr37 Ge14 2.705475 1_555
Cr38 Ge14 2.427026 1_555
Cr38 Ge20 2.504672 1_555
Cr38 Ge19 2.508291 1_655
Cr38 Ge10 2.508291 1_555
Cr38 Ge0 2.594473 1_655
Cr38 Ge0 2.594473 1_555
Cr39 Cr40 2.424339 1_555
Cr39 Cr40 2.492537 1_655
Cr39 Ge5 2.508063 1_555
Cr39 Ge26 2.533943 1_555
Cr39 Ge17 2.536210 1_555
Cr39 Ge24 2.556841 1_555
Cr39 Ge21 2.571607 1_545
Cr39 Ge15 2.577675 1_545
Cr40 Ge5 2.508063 1_555
Cr40 Ge26 2.533943 1_455
Cr40 Ge17 2.536210 1_455
Cr40 Ge24 2.556841 1_555
Cr40 Ge21 2.571607 1_545
Cr40 Ge15 2.577675 1_445
Cr41 Ge26 2.475297 1_555
Cr41 Ge6 2.491931 1_555
Cr41 Ge15 2.639333 1_545
Cr41 Ge23 2.641415 1_555
Cr41 Ge4 2.641415 1_555
Cr41 Ge5 2.674863 1_555
Cr41 Ge5 2.674863 1_655
Cr42 Ge2 2.425533 1_555
Cr42 Ge14 2.430965 1_555
Cr42 Cr7 2.492155 1_555
Cr42 Ge10 2.601316 1_555
Cr42 Ge19 2.601316 1_655
Cr42 Ge30 2.784849 1_555
Cr42 Ge30 2.784849 1_655
Cr43 Ge16 2.470717 1_455
Cr43 Ge22 2.493442 1_455
Cr43 Ge6 2.500334 1_455
Cr43 Ge7 2.509681 1_545
Cr43 Ge11 2.518781 1_555
Ge10 Ge19 2.440426 1_555
Ge10 Ge19 2.476450 1_655
Ge13 Ge28 2.440426 1_555
Ge13 Ge28 2.476450 1_655
Ge23 Ge4 2.440426 1_555
Ge23 Ge4 2.476450 1_455
Ge27 Ge9 2.440426 1_555
Ge27 Ge9 2.476450 1_655
