# generated using pymatgen
data_Sb2N5F11
_symmetry_space_group_name_H-M   'P 1'
_cell_length_a   8.54355177
_cell_length_b   8.54355177
_cell_length_c   17.11307881
_cell_angle_alpha   80.51291647
_cell_angle_beta   80.51291647
_cell_angle_gamma   98.16241137
_symmetry_Int_Tables_number   1
_chemical_formula_structural   Sb2N5F11
_chemical_formula_sum   'Sb8 N20 F44'
_cell_volume   1196.67811587
_cell_formula_units_Z   4
loop_
 _symmetry_equiv_pos_site_id
 _symmetry_equiv_pos_as_xyz
  1  'x, y, z'
loop_
 _atom_site_type_symbol
 _atom_site_label
 _atom_site_symmetry_multiplicity
 _atom_site_fract_x
 _atom_site_fract_y
 _atom_site_fract_z
 _atom_site_occupancy
  Sb  Sb0  1  0.70553800  0.76030200  0.90323700  1
  Sb  Sb1  1  0.23969800  0.29446200  0.59676300  1
  Sb  Sb2  1  0.29446200  0.23969800  0.09676300  1
  Sb  Sb3  1  0.76030200  0.70553800  0.40323700  1
  Sb  Sb4  1  0.88900200  0.35691700  0.87995400  1
  Sb  Sb5  1  0.64308300  0.11099800  0.62004600  1
  Sb  Sb6  1  0.11099800  0.64308300  0.12004600  1
  Sb  Sb7  1  0.35691700  0.88900200  0.37995400  1
  N  N0  1  0.16220400  0.78940600  0.65845800  1
  N  N1  1  0.21059400  0.83779600  0.84154200  1
  N  N2  1  0.83779600  0.21059400  0.34154200  1
  N  N3  1  0.78940600  0.16220400  0.15845800  1
  N  N4  1  0.04173100  0.74629900  0.64345600  1
  N  N5  1  0.25370100  0.95826900  0.85654400  1
  N  N6  1  0.95826900  0.25370100  0.35654400  1
  N  N7  1  0.74629900  0.04173100  0.14345600  1
  N  N8  1  0.92486300  0.70130400  0.60922400  1
  N  N9  1  0.29869600  0.07513700  0.89077600  1
  N  N10  1  0.07513700  0.29869600  0.39077600  1
  N  N11  1  0.70130400  0.92486300  0.10922400  1
  N  N12  1  0.78642700  0.66146600  0.65661400  1
  N  N13  1  0.33853400  0.21357300  0.84338600  1
  N  N14  1  0.21357300  0.33853400  0.34338600  1
  N  N15  1  0.66146600  0.78642700  0.15661400  1
  N  N16  1  0.65466900  0.62170400  0.68448900  1
  N  N17  1  0.37829600  0.34533100  0.81551100  1
  N  N18  1  0.34533100  0.37829600  0.31551100  1
  N  N19  1  0.62170400  0.65466900  0.18448900  1
  F  F0  1  0.53891600  0.64772400  0.86179500  1
  F  F1  1  0.35227600  0.46108400  0.63820500  1
  F  F2  1  0.46108400  0.35227600  0.13820500  1
  F  F3  1  0.64772400  0.53891600  0.36179500  1
  F  F4  1  0.83969700  0.80192200  0.79838600  1
  F  F5  1  0.19807800  0.16030300  0.70161400  1
  F  F6  1  0.16030300  0.19807800  0.20161400  1
  F  F7  1  0.80192200  0.83969700  0.29838600  1
  F  F8  1  0.88783200  0.84344500  0.94437300  1
  F  F9  1  0.15655500  0.11216800  0.55562700  1
  F  F10  1  0.11216800  0.15655500  0.05562700  1
  F  F11  1  0.84344500  0.88783200  0.44437300  1
  F  F12  1  0.59069100  0.68407800  0.01109600  1
  F  F13  1  0.31592200  0.40930900  0.48890400  1
  F  F14  1  0.40931000  0.31592200  0.98890400  1
  F  F15  1  0.68407800  0.59069100  0.51109600  1
  F  F16  1  0.62336700  0.95448400  0.89012200  1
  F  F17  1  0.04551600  0.37663300  0.60987800  1
  F  F18  1  0.37663300  0.04551600  0.10987800  1
  F  F19  1  0.95448400  0.62336700  0.39012200  1
  F  F20  1  0.79180300  0.54377300  0.91998300  1
  F  F21  1  0.45622700  0.20819700  0.58001700  1
  F  F22  1  0.20819700  0.45622700  0.08001700  1
  F  F23  1  0.54377300  0.79180300  0.41998300  1
  F  F24  1  0.69239700  0.30401400  0.84431800  1
  F  F25  1  0.69598600  0.30760300  0.65568200  1
  F  F26  1  0.30760300  0.69598600  0.15568200  1
  F  F27  1  0.30401400  0.69239700  0.34431800  1
  F  F28  1  0.96677800  0.50087400  0.77797900  1
  F  F29  1  0.49912600  0.03322200  0.72202100  1
  F  F30  1  0.03322200  0.49912600  0.22202100  1
  F  F31  1  0.50087400  0.96677800  0.27797900  1
  F  F32  1  0.07701000  0.44343200  0.91510200  1
  F  F33  1  0.55656800  0.92299000  0.58489800  1
  F  F34  1  0.92299000  0.55656800  0.08489800  1
  F  F35  1  0.44343200  0.07701000  0.41510200  1
  F  F36  1  0.79592600  0.23879300  0.98564000  1
  F  F37  1  0.76120700  0.20407400  0.51435900  1
  F  F38  1  0.20407400  0.76120700  0.01435900  1
  F  F39  1  0.23879300  0.79592600  0.48564100  1
  F  F40  1  0.98438800  0.18590500  0.84647100  1
  F  F41  1  0.81409500  0.01561200  0.65352900  1
  F  F42  1  0.01561200  0.81409500  0.15352900  1
  F  F43  1  0.18590500  0.98438800  0.34647100  1
loop_
_geom_bond_atom_site_label_1
_geom_bond_atom_site_label_2
_geom_bond_distance
_geom_bond_site_symmetry_2
N0 N4 1.127641 1_555
N1 N5 1.127641 1_555
N2 N6 1.127641 1_555
N3 N7 1.127641 1_555
N4 N8 1.282948 1_455
N5 N9 1.282948 1_565
N10 N6 1.282948 1_455
N10 N14 1.284878 1_555
N11 N7 1.282948 1_565
N11 N15 1.284878 1_555
N12 N16 1.127427 1_555
N12 N8 1.284878 1_555
N13 N17 1.127427 1_555
N13 N9 1.284878 1_555
N14 N18 1.127427 1_555
N15 N19 1.127427 1_555
F0 Sb0 1.903525 1_555
F1 Sb1 1.903525 1_555
F2 Sb2 1.903525 1_555
F3 Sb3 1.903525 1_555
F4 Sb0 1.912005 1_555
F5 Sb1 1.912005 1_555
F6 Sb2 1.912005 1_555
F7 Sb3 1.912005 1_555
F8 Sb0 1.907322 1_555
F9 Sb1 1.907322 1_555
F10 Sb2 1.907322 1_555
F11 Sb3 1.907322 1_555
F12 Sb0 1.902393 1_554
F13 Sb1 1.902393 1_555
F14 Sb2 1.902396 1_556
F15 Sb3 1.902393 1_555
F16 Sb0 1.885586 1_555
F17 Sb1 1.885586 1_555
F18 Sb2 1.885586 1_555
F19 Sb3 1.885586 1_555
F20 Sb4 2.063204 1_555
F20 Sb0 2.080758 1_555
F21 Sb5 2.063204 1_555
F21 Sb1 2.080758 1_555
F22 Sb6 2.063204 1_555
F22 Sb2 2.080758 1_555
F23 Sb7 2.063204 1_555
F23 Sb3 2.080758 1_555
F24 Sb4 1.900148 1_555
F25 Sb5 1.900148 1_555
F26 Sb6 1.900148 1_555
F27 Sb7 1.900148 1_555
F28 Sb4 1.917743 1_555
F29 Sb5 1.917743 1_555
F30 Sb6 1.917743 1_555
F31 Sb7 1.917743 1_555
F32 Sb4 1.901605 1_455
F33 Sb5 1.901605 1_565
F34 Sb6 1.901605 1_655
F35 Sb7 1.901605 1_545
F36 Sb4 1.902163 1_555
F37 Sb5 1.902176 1_555
F38 Sb6 1.902176 1_555
F39 Sb7 1.902176 1_555
F40 Sb4 1.894005 1_555
F41 Sb5 1.894005 1_555
F42 Sb6 1.894005 1_555
F43 Sb7 1.894005 1_555
