# generated using pymatgen
data_Ba5P3BrO12
_symmetry_space_group_name_H-M   'P 1'
_cell_length_a   10.52349251
_cell_length_b   10.52349251
_cell_length_c   7.76466400
_cell_angle_alpha   90.00000000
_cell_angle_beta   90.00000000
_cell_angle_gamma   120.00000322
_symmetry_Int_Tables_number   1
_chemical_formula_structural   Ba5P3BrO12
_chemical_formula_sum   'Ba10 P6 Br2 O24'
_cell_volume   744.68580863
_cell_formula_units_Z   2
loop_
 _symmetry_equiv_pos_site_id
 _symmetry_equiv_pos_as_xyz
  1  'x, y, z'
loop_
 _atom_site_type_symbol
 _atom_site_label
 _atom_site_symmetry_multiplicity
 _atom_site_fract_x
 _atom_site_fract_y
 _atom_site_fract_z
 _atom_site_occupancy
  Ba  Ba0  1  0.66666700  0.33333300  0.50048200  1
  Ba  Ba1  1  0.01213100  0.26603000  0.25000000  1
  Ba  Ba2  1  0.26603000  0.25389800  0.75000000  1
  Ba  Ba3  1  0.73397000  0.74610200  0.25000000  1
  Ba  Ba4  1  0.33333300  0.66666700  0.00048200  1
  Ba  Ba5  1  0.98786900  0.73397000  0.75000000  1
  Ba  Ba6  1  0.74610200  0.01213100  0.75000000  1
  Ba  Ba7  1  0.25389800  0.98786900  0.25000000  1
  Ba  Ba8  1  0.33333300  0.66666700  0.49951800  1
  Ba  Ba9  1  0.66666700  0.33333300  0.99951800  1
  P  P0  1  0.62898800  0.03727700  0.25000000  1
  P  P1  1  0.37101200  0.96272300  0.75000000  1
  P  P2  1  0.59171100  0.62898800  0.75000000  1
  P  P3  1  0.03727700  0.40828900  0.75000000  1
  P  P4  1  0.96272300  0.59171100  0.25000000  1
  P  P5  1  0.40828900  0.37101200  0.25000000  1
  Br  Br0  1  0.00000000  0.00000000  0.00000000  1
  Br  Br1  1  0.00000000  0.00000000  0.50000000  1
  O  O0  1  0.35859900  0.27157900  0.08664800  1
  O  O1  1  0.65387000  0.52162200  0.75000000  1
  O  O2  1  0.34613000  0.47837800  0.25000000  1
  O  O3  1  0.58047400  0.46021000  0.25000000  1
  O  O4  1  0.72842100  0.08701900  0.41335200  1
  O  O5  1  0.35859900  0.27157900  0.41335200  1
  O  O6  1  0.53979000  0.12026400  0.25000000  1
  O  O7  1  0.27157900  0.91298100  0.91335200  1
  O  O8  1  0.52162200  0.86775200  0.25000000  1
  O  O9  1  0.08701900  0.35859900  0.58664800  1
  O  O10  1  0.27157900  0.91298100  0.58664800  1
  O  O11  1  0.13224800  0.65387000  0.25000000  1
  O  O12  1  0.91298100  0.64140100  0.41335200  1
  O  O13  1  0.87973600  0.41952600  0.25000000  1
  O  O14  1  0.12026400  0.58047400  0.75000000  1
  O  O15  1  0.64140100  0.72842100  0.91335200  1
  O  O16  1  0.41952600  0.53979000  0.75000000  1
  O  O17  1  0.08701900  0.35859900  0.91335200  1
  O  O18  1  0.46021000  0.87973600  0.75000000  1
  O  O19  1  0.64140100  0.72842100  0.58664800  1
  O  O20  1  0.86775200  0.34613000  0.75000000  1
  O  O21  1  0.72842100  0.08701900  0.08664800  1
  O  O22  1  0.47837800  0.13224800  0.75000000  1
  O  O23  1  0.91298100  0.64140100  0.08664800  1
loop_
_geom_bond_atom_site_label_1
_geom_bond_atom_site_label_2
_geom_bond_distance
_geom_bond_site_symmetry_2
Ba0 O13 2.756663 1_555
Ba0 O6 2.756663 1_555
Ba0 O3 2.756670 1_555
Ba0 O20 2.822183 1_555
Ba0 O22 2.822187 1_555
Ba0 O1 2.822191 1_555
Ba0 O12 3.046873 1_555
Ba0 O5 3.046873 1_555
Ba0 O4 3.046873 1_555
Ba1 O13 2.607864 1_455
Ba1 O9 2.763170 1_555
Ba1 O17 2.763170 1_554
Ba1 O4 2.906390 1_455
Ba1 O21 2.906390 1_455
Ba1 O2 3.081119 1_555
Ba1 Br1 3.356276 1_555
Ba1 Br0 3.356276 1_555
Ba2 O16 2.607873 1_555
Ba2 O5 2.763170 1_555
Ba2 O0 2.763170 1_556
Ba2 O17 2.906405 1_555
Ba2 O9 2.906405 1_555
Ba2 O22 3.081111 1_555
Ba2 Br0 3.356272 1_556
Ba2 Br1 3.356272 1_555
Ba3 O3 2.607873 1_555
Ba3 O15 2.763170 1_554
Ba3 O19 2.763170 1_555
Ba3 O23 2.906405 1_555
Ba3 O12 2.906405 1_555
Ba3 O8 3.081111 1_555
Ba3 Br1 3.356272 1_665
Ba3 Br0 3.356272 1_665
Ba4 O14 2.756663 1_554
Ba4 O18 2.756663 1_554
Ba4 O16 2.756670 1_554
Ba4 O11 2.822183 1_555
Ba4 O8 2.822187 1_555
Ba4 O2 2.822191 1_555
Ba4 O17 3.046873 1_554
Ba4 O15 3.046873 1_554
Ba4 O7 3.046873 1_554
Ba5 O14 2.607864 1_655
Ba5 O12 2.763170 1_555
Ba5 O23 2.763170 1_556
Ba5 O10 2.906390 1_655
Ba5 O7 2.906390 1_655
Ba5 O1 3.081119 1_555
Ba5 Br1 3.356276 1_665
Ba5 Br0 3.356276 1_666
Ba6 O18 2.607873 1_545
Ba6 O4 2.763170 1_555
Ba6 O21 2.763170 1_556
Ba6 O15 2.906388 1_545
Ba6 O19 2.906388 1_545
Ba6 O20 3.081121 1_555
Ba6 Br0 3.356268 1_656
Ba6 Br1 3.356268 1_655
Ba7 O6 2.607873 1_565
Ba7 O7 2.763170 1_554
Ba7 O10 2.763170 1_555
Ba7 O0 2.906388 1_565
Ba7 O5 2.906388 1_565
Ba7 O11 3.081121 1_555
Ba7 Br1 3.356268 1_565
Ba7 Br0 3.356268 1_565
Ba8 O14 2.756663 1_555
Ba8 O18 2.756663 1_555
Ba8 O16 2.756670 1_555
Ba8 O11 2.822183 1_555
Ba8 O8 2.822187 1_555
Ba8 O2 2.822191 1_555
Ba8 O9 3.046873 1_555
Ba8 O19 3.046873 1_555
Ba8 O10 3.046873 1_555
Ba9 O13 2.756663 1_556
Ba9 O6 2.756663 1_556
Ba9 O3 2.756670 1_556
Ba9 O20 2.822183 1_555
Ba9 O22 2.822187 1_555
Ba9 O1 2.822191 1_555
Ba9 O23 3.046873 1_556
Ba9 O0 3.046873 1_556
Ba9 O21 3.046873 1_556
O0 P5 1.558832 1_555
O1 P2 1.563189 1_555
O2 P5 1.563189 1_555
O3 P5 1.569567 1_555
O4 P0 1.558832 1_555
O5 P5 1.558832 1_555
O6 P0 1.569568 1_555
O7 P1 1.558832 1_555
O8 P0 1.563189 1_565
O9 P3 1.558827 1_555
O10 P1 1.558832 1_555
O11 P4 1.563189 1_455
O12 P4 1.558827 1_555
O13 P4 1.569567 1_555
O14 P3 1.569567 1_555
O15 P2 1.558832 1_555
O16 P2 1.569567 1_555
O17 P3 1.558827 1_555
O18 P1 1.569568 1_555
O19 P2 1.558832 1_555
O20 P3 1.563189 1_655
O21 P0 1.558832 1_555
O22 P1 1.563189 1_545
O23 P4 1.558827 1_555
