# generated using pymatgen
data_SiO2
_symmetry_space_group_name_H-M   'P 1'
_cell_length_a   8.79332600
_cell_length_b   8.79332600
_cell_length_c   8.79332600
_cell_angle_alpha   90.00000000
_cell_angle_beta   90.00000000
_cell_angle_gamma   90.00000000
_symmetry_Int_Tables_number   1
_chemical_formula_structural   SiO2
_chemical_formula_sum   'Si12 O24'
_cell_volume   679.92267194
_cell_formula_units_Z   12
loop_
 _symmetry_equiv_pos_site_id
 _symmetry_equiv_pos_as_xyz
  1  'x, y, z'
loop_
 _atom_site_type_symbol
 _atom_site_label
 _atom_site_symmetry_multiplicity
 _atom_site_fract_x
 _atom_site_fract_y
 _atom_site_fract_z
 _atom_site_occupancy
  Si  Si0  1  0.41628200  0.83631500  0.35557500  1
  Si  Si1  1  0.16368500  0.64442500  0.41628200  1
  Si  Si2  1  0.35557500  0.58371800  0.16368500  1
  Si  Si3  1  0.83631500  0.35557500  0.41628200  1
  Si  Si4  1  0.83631500  0.64442500  0.58371800  1
  Si  Si5  1  0.58371800  0.16368500  0.35557500  1
  Si  Si6  1  0.35557500  0.41628200  0.83631500  1
  Si  Si7  1  0.58371800  0.83631500  0.64442500  1
  Si  Si8  1  0.64442500  0.41628200  0.16368500  1
  Si  Si9  1  0.16368500  0.35557500  0.58371800  1
  Si  Si10  1  0.64442500  0.58371800  0.83631500  1
  Si  Si11  1  0.41628200  0.16368500  0.64442500  1
  O  O0  1  0.50000000  0.00000000  0.33501200  1
  O  O1  1  0.50000000  0.00000000  0.66498800  1
  O  O2  1  0.81678100  0.41571300  0.23816200  1
  O  O3  1  0.24836300  0.50000000  0.50000000  1
  O  O4  1  0.76183800  0.81678100  0.58428700  1
  O  O5  1  0.58428700  0.23816200  0.18321900  1
  O  O6  1  0.41571300  0.76183800  0.18321900  1
  O  O7  1  0.23816200  0.18321900  0.58428700  1
  O  O8  1  0.00000000  0.66498800  0.50000000  1
  O  O9  1  0.75163700  0.50000000  0.50000000  1
  O  O10  1  0.50000000  0.75163700  0.50000000  1
  O  O11  1  0.00000000  0.33501200  0.50000000  1
  O  O12  1  0.81678100  0.58428700  0.76183800  1
  O  O13  1  0.41571300  0.23816200  0.81678100  1
  O  O14  1  0.50000000  0.50000000  0.24836300  1
  O  O15  1  0.18321900  0.41571300  0.76183800  1
  O  O16  1  0.18321900  0.58428700  0.23816200  1
  O  O17  1  0.66498800  0.50000000  0.00000000  1
  O  O18  1  0.76183800  0.18321900  0.41571300  1
  O  O19  1  0.33501200  0.50000000  0.00000000  1
  O  O20  1  0.50000000  0.50000000  0.75163700  1
  O  O21  1  0.58428700  0.76183800  0.81678100  1
  O  O22  1  0.50000000  0.24836300  0.50000000  1
  O  O23  1  0.23816200  0.81678100  0.41571300  1
loop_
_geom_bond_atom_site_label_1
_geom_bond_atom_site_label_2
_geom_bond_distance
_geom_bond_site_symmetry_2
O0 Si5 1.626749 1_555
O0 Si0 1.626749 1_545
O1 Si11 1.626749 1_555
O1 Si7 1.626749 1_545
O2 Si8 1.651033 1_555
O2 Si3 1.662029 1_555
O3 Si9 1.645965 1_555
O3 Si1 1.645965 1_555
O4 Si4 1.651033 1_555
O4 Si7 1.662029 1_555
O5 Si5 1.651033 1_555
O5 Si8 1.662029 1_555
O6 Si0 1.651033 1_555
O6 Si2 1.662029 1_555
O7 Si9 1.651033 1_555
O7 Si11 1.662029 1_555
O8 Si1 1.626749 1_555
O8 Si4 1.626749 1_455
O9 Si4 1.645965 1_555
O9 Si3 1.645965 1_555
O10 Si7 1.645965 1_555
O10 Si0 1.645965 1_555
O11 Si9 1.626749 1_555
O11 Si3 1.626749 1_455
O12 Si10 1.651033 1_555
O12 Si4 1.662029 1_555
O13 Si11 1.651033 1_555
O13 Si6 1.662029 1_555
O14 Si2 1.645965 1_555
O14 Si8 1.645965 1_555
O15 Si6 1.651033 1_555
O15 Si9 1.662029 1_555
O16 Si2 1.651033 1_555
O16 Si1 1.662029 1_555
O17 Si8 1.626749 1_555
O17 Si10 1.626749 1_554
O18 Si3 1.651033 1_555
O18 Si5 1.662029 1_555
O19 Si2 1.626749 1_555
O19 Si6 1.626749 1_554
O20 Si10 1.645965 1_555
O20 Si6 1.645965 1_555
O21 Si7 1.651033 1_555
O21 Si10 1.662029 1_555
O22 Si5 1.645965 1_555
O22 Si11 1.645965 1_555
O23 Si1 1.651033 1_555
O23 Si0 1.662029 1_555
