# generated using pymatgen
data_CuAg4TeO6
_symmetry_space_group_name_H-M   'P 1'
_cell_length_a   7.57298276
_cell_length_b   7.57298276
_cell_length_c   5.83917747
_cell_angle_alpha   82.64582998
_cell_angle_beta   82.64582998
_cell_angle_gamma   81.40439161
_symmetry_Int_Tables_number   1
_chemical_formula_structural   CuAg4TeO6
_chemical_formula_sum   'Cu2 Ag8 Te2 O12'
_cell_volume   326.36192067
_cell_formula_units_Z   2
loop_
 _symmetry_equiv_pos_site_id
 _symmetry_equiv_pos_as_xyz
  1  'x, y, z'
loop_
 _atom_site_type_symbol
 _atom_site_label
 _atom_site_symmetry_multiplicity
 _atom_site_fract_x
 _atom_site_fract_y
 _atom_site_fract_z
 _atom_site_occupancy
  Cu  Cu0  1  0.08280000  0.91720000  0.75000000  1
  Cu  Cu1  1  0.91720000  0.08280000  0.25000000  1
  Ag  Ag0  1  0.42835300  0.57164700  0.75000000  1
  Ag  Ag1  1  0.34858900  0.17870600  0.02868000  1
  Ag  Ag2  1  0.57164700  0.42835300  0.25000000  1
  Ag  Ag3  1  0.17870600  0.34858900  0.52868000  1
  Ag  Ag4  1  0.82129400  0.65141100  0.47132000  1
  Ag  Ag5  1  0.65141100  0.82129400  0.97132000  1
  Ag  Ag6  1  0.50000000  0.00000000  0.50000000  1
  Ag  Ag7  1  0.00000000  0.50000000  0.00000000  1
  Te  Te0  1  0.77818200  0.22181800  0.75000000  1
  Te  Te1  1  0.22181800  0.77818200  0.25000000  1
  O  O0  1  0.47462400  0.75556600  0.31290300  1
  O  O1  1  0.75556600  0.47462400  0.81290300  1
  O  O2  1  0.96694300  0.82567600  0.17965500  1
  O  O3  1  0.52537600  0.24443400  0.68709700  1
  O  O4  1  0.24443400  0.52537600  0.18709700  1
  O  O5  1  0.85194800  0.29812700  0.41862100  1
  O  O6  1  0.29812700  0.85194800  0.91862100  1
  O  O7  1  0.70187300  0.14805200  0.08137900  1
  O  O8  1  0.17432400  0.03305700  0.32034500  1
  O  O9  1  0.82567600  0.96694300  0.67965500  1
  O  O10  1  0.14805200  0.70187300  0.58137900  1
  O  O11  1  0.03305700  0.17432400  0.82034500  1
loop_
_geom_bond_atom_site_label_1
_geom_bond_atom_site_label_2
_geom_bond_distance
_geom_bond_site_symmetry_2
Cu0 O6 1.979475 1_555
Cu0 O10 1.979475 1_555
Cu0 O11 2.011985 1_565
Cu0 O9 2.011985 1_455
Cu0 O2 2.591821 1_456
Cu0 O8 2.591821 1_565
Cu1 O5 1.979475 1_555
Cu1 O7 1.979475 1_555
Cu1 O8 2.011985 1_655
Cu1 O2 2.011985 1_545
Cu1 O9 2.591821 1_545
Cu1 O11 2.591821 1_654
Ag0 O10 2.471573 1_555
Ag0 O6 2.471573 1_555
Ag0 O3 2.536696 1_555
Ag0 O1 2.536696 1_555
Ag0 O0 2.753863 1_555
Ag0 O4 2.753863 1_556
Ag1 O8 2.288568 1_555
Ag1 O3 2.297795 1_554
Ag2 O5 2.471573 1_555
Ag2 O7 2.471573 1_555
Ag2 O0 2.536696 1_555
Ag2 O4 2.536696 1_555
Ag2 O3 2.753863 1_555
Ag2 O1 2.753863 1_554
Ag3 O11 2.288568 1_555
Ag3 O4 2.297795 1_555
Ag4 O2 2.288568 1_555
Ag4 O1 2.297795 1_555
Ag5 O9 2.288568 1_555
Ag5 O0 2.297795 1_556
Ag6 O3 2.309723 1_555
Ag6 O0 2.309723 1_545
Ag7 O1 2.309723 1_454
Ag7 O4 2.309723 1_555
O0 Te1 1.973687 1_555
O1 Te0 1.973687 1_555
O2 Te1 1.995306 1_655
O3 Te0 1.973687 1_555
O4 Te1 1.973687 1_555
O5 Te0 1.980828 1_555
O6 Te1 1.980828 1_556
O7 Te0 1.980828 1_554
O8 Te1 1.995306 1_545
O9 Te0 1.995306 1_565
O10 Te1 1.980828 1_555
O11 Te0 1.995306 1_455
