# generated using pymatgen
data_KFeF3
_symmetry_space_group_name_H-M   'P 1'
_cell_length_a   4.16531000
_cell_length_b   4.16531000
_cell_length_c   4.16531000
_cell_angle_alpha   90.00000000
_cell_angle_beta   90.00000000
_cell_angle_gamma   90.00000000
_symmetry_Int_Tables_number   1
_chemical_formula_structural   KFeF3
_chemical_formula_sum   'K1 Fe1 F3'
_cell_volume   72.26732625
_cell_formula_units_Z   1
loop_
 _symmetry_equiv_pos_site_id
 _symmetry_equiv_pos_as_xyz
  1  'x, y, z'
loop_
 _atom_site_type_symbol
 _atom_site_label
 _atom_site_symmetry_multiplicity
 _atom_site_fract_x
 _atom_site_fract_y
 _atom_site_fract_z
 _atom_site_occupancy
  K  K0  1  0.00000000  0.00000000  0.00000000  1
  Fe  Fe0  1  0.50000000  0.50000000  0.50000000  1
  F  F0  1  0.00000000  0.50000000  0.50000000  1
  F  F1  1  0.50000000  0.00000000  0.50000000  1
  F  F2  1  0.50000000  0.50000000  0.00000000  1
loop_
_geom_bond_atom_site_label_1
_geom_bond_atom_site_label_2
_geom_bond_distance
_geom_bond_site_symmetry_2
F0 Fe0 2.082655 1_455
F0 Fe0 2.082655 1_555
F0 K0 2.945319 1_566
F0 K0 2.945319 1_555
F0 K0 2.945319 1_556
F0 K0 2.945319 1_565
F1 Fe0 2.082655 1_545
F1 Fe0 2.082655 1_555
F1 K0 2.945319 1_555
F1 K0 2.945319 1_655
F1 K0 2.945319 1_556
F1 K0 2.945319 1_656
F2 Fe0 2.082655 1_554
F2 Fe0 2.082655 1_555
F2 K0 2.945319 1_665
F2 K0 2.945319 1_555
F2 K0 2.945319 1_655
F2 K0 2.945319 1_565
