# generated using pymatgen
data_Ba3Sc(BO2)9
_symmetry_space_group_name_H-M   'P 1'
_cell_length_a   7.24018736
_cell_length_b   7.24018736
_cell_length_c   16.91403400
_cell_angle_alpha   90.00000000
_cell_angle_beta   90.00000000
_cell_angle_gamma   119.99999417
_symmetry_Int_Tables_number   1
_chemical_formula_structural   Ba3Sc(BO2)9
_chemical_formula_sum   'Ba6 Sc2 B18 O36'
_cell_volume   767.85190592
_cell_formula_units_Z   2
loop_
 _symmetry_equiv_pos_site_id
 _symmetry_equiv_pos_as_xyz
  1  'x, y, z'
loop_
 _atom_site_type_symbol
 _atom_site_label
 _atom_site_symmetry_multiplicity
 _atom_site_fract_x
 _atom_site_fract_y
 _atom_site_fract_z
 _atom_site_occupancy
  Ba  Ba0  1  0.66666700  0.33333300  0.62860500  1
  Ba  Ba1  1  0.33333300  0.66666700  0.12860500  1
  Ba  Ba2  1  0.00000000  0.00000000  0.25000000  1
  Ba  Ba3  1  0.66666700  0.33333300  0.87139500  1
  Ba  Ba4  1  0.33333300  0.66666700  0.37139500  1
  Ba  Ba5  1  0.00000000  0.00000000  0.75000000  1
  Sc  Sc0  1  0.00000000  0.00000000  0.50000000  1
  Sc  Sc1  1  0.00000000  0.00000000  0.00000000  1
  B  B0  1  0.50416400  0.88421800  0.75000000  1
  B  B1  1  0.44504700  0.27395600  0.07854100  1
  B  B2  1  0.17109100  0.44504700  0.92145900  1
  B  B3  1  0.38005300  0.49583600  0.75000000  1
  B  B4  1  0.82890900  0.55495300  0.07854100  1
  B  B5  1  0.11578200  0.61994700  0.75000000  1
  B  B6  1  0.55495300  0.72604400  0.57854100  1
  B  B7  1  0.55495300  0.72604400  0.92145900  1
  B  B8  1  0.82890900  0.55495300  0.42145900  1
  B  B9  1  0.88421800  0.38005300  0.25000000  1
  B  B10  1  0.61994700  0.50416400  0.25000000  1
  B  B11  1  0.44504700  0.27395600  0.42145900  1
  B  B12  1  0.72604400  0.17109100  0.07854100  1
  B  B13  1  0.17109100  0.44504700  0.57854100  1
  B  B14  1  0.72604400  0.17109100  0.42145900  1
  B  B15  1  0.27395600  0.82890900  0.57854100  1
  B  B16  1  0.49583600  0.11578200  0.25000000  1
  B  B17  1  0.27395600  0.82890900  0.92145900  1
  O  O0  1  0.60994800  0.49018300  0.07906200  1
  O  O1  1  0.22667000  0.98459400  0.92309200  1
  O  O2  1  0.11976500  0.60994800  0.92093800  1
  O  O3  1  0.83234100  0.54330500  0.25000000  1
  O  O4  1  0.54330500  0.71096400  0.75000000  1
  O  O5  1  0.49018300  0.88023500  0.57906200  1
  O  O6  1  0.88023500  0.39005200  0.42093800  1
  O  O7  1  0.91685900  0.58346000  0.75000000  1
  O  O8  1  0.01540600  0.24207600  0.57690800  1
  O  O9  1  0.58346000  0.66660100  0.25000000  1
  O  O10  1  0.41654000  0.33339900  0.75000000  1
  O  O11  1  0.98459400  0.75792400  0.42309200  1
  O  O12  1  0.50981700  0.11976500  0.07906200  1
  O  O13  1  0.33339900  0.91685900  0.25000000  1
  O  O14  1  0.88023500  0.39005200  0.07906200  1
  O  O15  1  0.75792400  0.77333000  0.92309200  1
  O  O16  1  0.71096400  0.16765900  0.25000000  1
  O  O17  1  0.60994800  0.49018300  0.42093800  1
  O  O18  1  0.08314100  0.41654000  0.25000000  1
  O  O19  1  0.45669500  0.28903600  0.25000000  1
  O  O20  1  0.50981700  0.11976500  0.42093800  1
  O  O21  1  0.98459400  0.75792400  0.07690800  1
  O  O22  1  0.77333000  0.01540600  0.42309200  1
  O  O23  1  0.39005200  0.50981700  0.92093800  1
  O  O24  1  0.01540600  0.24207600  0.92309200  1
  O  O25  1  0.75792400  0.77333000  0.57690800  1
  O  O26  1  0.24207600  0.22667000  0.42309200  1
  O  O27  1  0.77333000  0.01540600  0.07690800  1
  O  O28  1  0.28903600  0.83234100  0.75000000  1
  O  O29  1  0.49018300  0.88023500  0.92093800  1
  O  O30  1  0.16765900  0.45669500  0.75000000  1
  O  O31  1  0.39005200  0.50981700  0.57906200  1
  O  O32  1  0.24207600  0.22667000  0.07690800  1
  O  O33  1  0.11976500  0.60994800  0.57906200  1
  O  O34  1  0.66660100  0.08314100  0.75000000  1
  O  O35  1  0.22667000  0.98459400  0.57690800  1
loop_
_geom_bond_atom_site_label_1
_geom_bond_atom_site_label_2
_geom_bond_distance
_geom_bond_site_symmetry_2
Ba0 O34 2.737954 1_555
Ba0 O7 2.737957 1_555
Ba0 O10 2.737959 1_555
Ba0 O5 2.984111 1_545
Ba0 O33 2.984112 1_655
Ba0 O31 2.984118 1_555
Ba0 O8 3.040510 1_655
Ba0 O35 3.040515 1_545
Ba0 O25 3.040517 1_555
Ba1 O13 2.737954 1_555
Ba1 O18 2.737957 1_555
Ba1 O9 2.737959 1_555
Ba1 O12 2.984111 1_565
Ba1 O14 2.984112 1_455
Ba1 O0 2.984118 1_555
Ba1 O21 3.040510 1_455
Ba1 O27 3.040515 1_565
Ba1 O32 3.040517 1_555
Ba2 O13 2.764448 1_545
Ba2 O18 2.764448 1_555
Ba2 O9 2.764448 1_445
Ba2 O16 2.897078 1_455
Ba2 O3 2.897078 1_445
Ba2 O19 2.897078 1_555
Ba2 O22 3.385284 1_455
Ba2 O27 3.385284 1_455
Ba2 O11 3.385284 1_445
Ba2 O21 3.385284 1_445
Ba2 O26 3.385284 1_555
Ba2 O32 3.385284 1_555
Ba3 O34 2.737954 1_555
Ba3 O7 2.737957 1_555
Ba3 O10 2.737959 1_555
Ba3 O29 2.984111 1_545
Ba3 O2 2.984112 1_655
Ba3 O23 2.984118 1_555
Ba3 O24 3.040510 1_655
Ba3 O1 3.040515 1_545
Ba3 O15 3.040517 1_555
Ba4 O13 2.737954 1_555
Ba4 O18 2.737957 1_555
Ba4 O9 2.737959 1_555
Ba4 O20 2.984111 1_565
Ba4 O6 2.984112 1_455
Ba4 O17 2.984118 1_555
Ba4 O11 3.040510 1_455
Ba4 O22 3.040515 1_565
Ba4 O26 3.040517 1_555
Ba5 O34 2.764448 1_455
Ba5 O7 2.764448 1_445
Ba5 O10 2.764448 1_555
Ba5 O28 2.897078 1_545
Ba5 O30 2.897078 1_555
Ba5 O4 2.897078 1_445
Ba5 O1 3.385284 1_545
Ba5 O35 3.385284 1_545
Ba5 O24 3.385284 1_555
Ba5 O8 3.385284 1_555
Ba5 O15 3.385284 1_445
Ba5 O25 3.385284 1_445
B0 O34 1.328011 1_565
B0 O28 1.407860 1_555
B0 O4 1.417493 1_555
B1 O32 1.332078 1_555
B1 O12 1.410600 1_555
B1 O0 1.416783 1_555
B2 O24 1.332078 1_555
B2 O23 1.410601 1_555
B2 O2 1.416783 1_555
B3 O10 1.328015 1_555
B3 O4 1.407862 1_555
B3 O30 1.417486 1_555
B4 O21 1.332078 1_555
B4 O0 1.410601 1_555
B4 O14 1.416783 1_555
B5 O7 1.328008 1_455
B5 O30 1.407867 1_555
B5 O28 1.417488 1_555
B6 O25 1.332078 1_555
B6 O5 1.410600 1_555
B6 O31 1.416783 1_555
B7 O15 1.332078 1_555
B7 O29 1.410600 1_555
B7 O23 1.416783 1_555
B8 O11 1.332078 1_555
B8 O17 1.410601 1_555
B8 O6 1.416783 1_555
B9 O18 1.328008 1_655
B9 O3 1.407867 1_555
B9 O16 1.417488 1_555
B10 O9 1.328015 1_555
B10 O19 1.407862 1_555
B10 O3 1.417486 1_555
B11 O26 1.332078 1_555
B11 O20 1.410600 1_555
B11 O17 1.416783 1_555
B12 O27 1.332078 1_555
B12 O14 1.410601 1_555
B12 O12 1.416783 1_555
B13 O8 1.332078 1_555
B13 O31 1.410601 1_555
B13 O33 1.416783 1_555
B14 O22 1.332078 1_555
B14 O6 1.410601 1_555
B14 O20 1.416783 1_555
B15 O35 1.332078 1_555
B15 O33 1.410601 1_555
B15 O5 1.416783 1_555
B16 O13 1.328011 1_545
B16 O16 1.407860 1_555
B16 O19 1.417493 1_555
B17 O1 1.332078 1_555
B17 O2 1.410601 1_555
B17 O29 1.416783 1_555
O1 Sc1 2.140318 1_566
O8 Sc0 2.140318 1_555
O11 Sc0 2.140318 1_665
O15 Sc1 2.140318 1_666
O21 Sc1 2.140318 1_665
O22 Sc0 2.140318 1_655
O24 Sc1 2.140318 1_556
O25 Sc0 2.140318 1_665
O26 Sc0 2.140318 1_555
O27 Sc1 2.140318 1_655
O32 Sc1 2.140318 1_555
O35 Sc0 2.140318 1_565
