# generated using pymatgen
data_Na2CrCuF7
_symmetry_space_group_name_H-M   'P 1'
_cell_length_a   7.20209100
_cell_length_b   7.64350100
_cell_length_c   10.48956800
_cell_angle_alpha   90.00000000
_cell_angle_beta   90.00000000
_cell_angle_gamma   90.00000000
_symmetry_Int_Tables_number   1
_chemical_formula_structural   Na2CrCuF7
_chemical_formula_sum   'Na8 Cr4 Cu4 F28'
_cell_volume   577.44221934
_cell_formula_units_Z   4
loop_
 _symmetry_equiv_pos_site_id
 _symmetry_equiv_pos_as_xyz
  1  'x, y, z'
loop_
 _atom_site_type_symbol
 _atom_site_label
 _atom_site_symmetry_multiplicity
 _atom_site_fract_x
 _atom_site_fract_y
 _atom_site_fract_z
 _atom_site_occupancy
  Na  Na0  1  0.00000000  0.50000000  0.00000000  1
  Na  Na1  1  0.50000000  0.50000000  0.00000000  1
  Na  Na2  1  0.00000000  0.00000000  0.50000000  1
  Na  Na3  1  0.50000000  0.00000000  0.50000000  1
  Na  Na4  1  0.25000000  0.22563500  0.75304200  1
  Na  Na5  1  0.75000000  0.77436500  0.24695800  1
  Na  Na6  1  0.75000000  0.72563500  0.74695800  1
  Na  Na7  1  0.25000000  0.27436500  0.25304200  1
  Cr  Cr0  1  0.25000000  0.72259400  0.75817800  1
  Cr  Cr1  1  0.75000000  0.27740600  0.24182200  1
  Cr  Cr2  1  0.75000000  0.22259400  0.74182200  1
  Cr  Cr3  1  0.25000000  0.77740600  0.25817800  1
  Cu  Cu0  1  0.00000000  0.00000000  0.00000000  1
  Cu  Cu1  1  0.50000000  0.00000000  0.00000000  1
  Cu  Cu2  1  0.00000000  0.50000000  0.50000000  1
  Cu  Cu3  1  0.50000000  0.50000000  0.50000000  1
  F  F0  1  0.25000000  0.09434200  0.99378700  1
  F  F1  1  0.75000000  0.90565800  0.00621300  1
  F  F2  1  0.75000000  0.59434200  0.50621300  1
  F  F3  1  0.25000000  0.40565800  0.49378700  1
  F  F4  1  0.25000000  0.95033000  0.67014300  1
  F  F5  1  0.75000000  0.04967000  0.32985700  1
  F  F6  1  0.75000000  0.45033000  0.82985700  1
  F  F7  1  0.25000000  0.54967000  0.17014300  1
  F  F8  1  0.25000000  0.49302600  0.84405100  1
  F  F9  1  0.75000000  0.50697400  0.15594900  1
  F  F10  1  0.75000000  0.99302600  0.65594900  1
  F  F11  1  0.25000000  0.00697400  0.34405100  1
  F  F12  1  0.95184200  0.15941900  0.85855700  1
  F  F13  1  0.45184200  0.84058100  0.14144300  1
  F  F14  1  0.04815800  0.65941900  0.64144300  1
  F  F15  1  0.54815800  0.34058100  0.35855700  1
  F  F16  1  0.04815800  0.84058100  0.14144300  1
  F  F17  1  0.54815800  0.15941900  0.85855700  1
  F  F18  1  0.95184200  0.34058100  0.35855700  1
  F  F19  1  0.45184200  0.65941900  0.64144300  1
  F  F20  1  0.04769100  0.77599200  0.87306100  1
  F  F21  1  0.54769100  0.22400800  0.12693900  1
  F  F22  1  0.95230900  0.27599200  0.62693900  1
  F  F23  1  0.45230900  0.72400800  0.37306100  1
  F  F24  1  0.95230900  0.22400800  0.12693900  1
  F  F25  1  0.45230900  0.77599200  0.87306100  1
  F  F26  1  0.04769100  0.72400800  0.37306100  1
  F  F27  1  0.54769100  0.27599200  0.62693900  1
loop_
_geom_bond_atom_site_label_1
_geom_bond_atom_site_label_2
_geom_bond_distance
_geom_bond_site_symmetry_2
Cr0 F20 1.934367 1_555
Cr0 F25 1.934367 1_555
Cr0 F14 1.961063 1_555
Cr0 F19 1.961063 1_555
Cr0 F4 1.970481 1_555
Cr0 F8 1.972402 1_555
Cr1 F24 1.934367 1_555
Cr1 F21 1.934367 1_555
Cr1 F18 1.961063 1_555
Cr1 F15 1.961063 1_555
Cr1 F5 1.970481 1_555
Cr1 F9 1.972402 1_555
Cr2 F22 1.934367 1_555
Cr2 F27 1.934367 1_555
Cr2 F17 1.961063 1_555
Cr2 F12 1.961063 1_555
Cr2 F6 1.970481 1_555
Cr2 F10 1.972402 1_545
Cr3 F23 1.934367 1_555
Cr3 F26 1.934367 1_555
Cr3 F16 1.961063 1_555
Cr3 F13 1.961063 1_555
Cr3 F7 1.970481 1_555
Cr3 F11 1.972402 1_565
Cu0 F0 1.940649 1_554
Cu0 F1 1.940649 1_445
Cu0 F12 1.950995 1_454
Cu0 F16 1.950995 1_545
Cu0 F20 2.196044 1_544
Cu0 F24 2.196044 1_455
Cu1 F0 1.940649 1_554
Cu1 F1 1.940649 1_545
Cu1 F17 1.950995 1_554
Cu1 F13 1.950995 1_545
Cu1 F21 2.196044 1_555
Cu1 F25 2.196044 1_544
Cu2 F3 1.940649 1_555
Cu2 F2 1.940649 1_455
Cu2 F14 1.950995 1_555
Cu2 F18 1.950995 1_455
Cu2 F26 2.196044 1_555
Cu2 F22 2.196044 1_455
Cu3 F3 1.940649 1_555
Cu3 F2 1.940649 1_555
Cu3 F15 1.950995 1_555
Cu3 F19 1.950995 1_555
Cu3 F27 2.196044 1_555
Cu3 F23 2.196044 1_555
F0 Na4 2.717404 1_555
F1 Na5 2.717404 1_555
F2 Na6 2.717404 1_555
F3 Na7 2.717404 1_555
F4 Na4 2.276887 1_565
F4 Na3 2.563448 1_565
F4 Na2 2.563448 1_565
F5 Na5 2.276887 1_545
F5 Na2 2.563448 1_655
F5 Na3 2.563448 1_555
F6 Na6 2.276887 1_555
F6 Na0 2.563448 1_656
F6 Na1 2.563448 1_556
F7 Na7 2.276887 1_555
F7 Na1 2.563448 1_555
F7 Na0 2.563448 1_555
F8 Na4 2.255766 1_555
F8 Na0 2.433246 1_556
F8 Na1 2.433246 1_556
F9 Na5 2.255766 1_555
F9 Na1 2.433246 1_555
F9 Na0 2.433246 1_655
F10 Na6 2.255766 1_555
F10 Na3 2.433246 1_565
F10 Na2 2.433246 1_665
F11 Na7 2.255766 1_555
F11 Na2 2.433246 1_555
F11 Na3 2.433246 1_555
F12 Na4 2.468267 1_655
F13 Na5 2.468267 1_555
F14 Na6 2.468267 1_455
F15 Na7 2.468267 1_555
F16 Na5 2.468267 1_455
F17 Na4 2.468267 1_555
F18 Na7 2.468267 1_655
F19 Na6 2.468267 1_555
F20 Na0 2.518162 1_556
F20 Na6 2.548448 1_455
F21 Na1 2.518162 1_555
F21 Na7 2.548448 1_555
F22 Na2 2.518162 1_655
F22 Na4 2.548448 1_655
F23 Na3 2.518162 1_565
F23 Na5 2.548448 1_555
F24 Na0 2.518162 1_655
F24 Na7 2.548448 1_655
F25 Na1 2.518162 1_556
F25 Na6 2.548448 1_555
F26 Na2 2.518162 1_565
F26 Na5 2.548448 1_455
F27 Na3 2.518162 1_555
F27 Na4 2.548448 1_555
