# generated using pymatgen
data_NaFe2(MoO4)3
_symmetry_space_group_name_H-M   'P 1'
_cell_length_a   6.97376200
_cell_length_b   6.99698755
_cell_length_c   11.92080116
_cell_angle_alpha   103.35291307
_cell_angle_beta   103.41423175
_cell_angle_gamma   88.26938814
_symmetry_Int_Tables_number   1
_chemical_formula_structural   NaFe2(MoO4)3
_chemical_formula_sum   'Na2 Fe4 Mo6 O24'
_cell_volume   550.34609001
_cell_formula_units_Z   2
loop_
 _symmetry_equiv_pos_site_id
 _symmetry_equiv_pos_as_xyz
  1  'x, y, z'
loop_
 _atom_site_type_symbol
 _atom_site_label
 _atom_site_symmetry_multiplicity
 _atom_site_fract_x
 _atom_site_fract_y
 _atom_site_fract_z
 _atom_site_occupancy
  Na  Na0  1  0.81973400  0.39756200  0.86804600  1
  Na  Na1  1  0.18026600  0.60243800  0.13195400  1
  Fe  Fe0  1  0.30223700  0.29731800  0.59110400  1
  Fe  Fe1  1  0.67074400  0.30758500  0.18861900  1
  Fe  Fe2  1  0.69776300  0.70268200  0.40889600  1
  Fe  Fe3  1  0.32925600  0.69241500  0.81138100  1
  Mo  Mo0  1  0.24746900  0.75469200  0.50002600  1
  Mo  Mo1  1  0.80501200  0.79892000  0.74333300  1
  Mo  Mo2  1  0.34731400  0.25014100  0.89300200  1
  Mo  Mo3  1  0.19498800  0.20108000  0.25666700  1
  Mo  Mo4  1  0.65268600  0.74985900  0.10699800  1
  Mo  Mo5  1  0.75253100  0.24530800  0.49997400  1
  O  O0  1  0.64343500  0.63130500  0.23242700  1
  O  O1  1  0.69192300  0.00526400  0.16536800  1
  O  O2  1  0.15101100  0.34553300  0.95715300  1
  O  O3  1  0.72394800  0.39925000  0.39290400  1
  O  O4  1  0.26080700  0.26383700  0.41970600  1
  O  O5  1  0.30807700  0.99473600  0.83463200  1
  O  O6  1  0.37887200  0.29607700  0.19934200  1
  O  O7  1  0.73919300  0.73616300  0.58029400  1
  O  O8  1  0.42321300  0.70494400  0.99781500  1
  O  O9  1  0.99477600  0.73895600  0.42149200  1
  O  O10  1  0.39752400  0.67632500  0.39474700  1
  O  O11  1  0.17546200  0.94501800  0.20800300  1
  O  O12  1  0.84898900  0.65446700  0.04284700  1
  O  O13  1  0.68122900  0.99772000  0.42256400  1
  O  O14  1  0.35656500  0.36869500  0.76757300  1
  O  O15  1  0.97034300  0.32175300  0.20573600  1
  O  O16  1  0.60247600  0.32367500  0.60525300  1
  O  O17  1  0.31877100  0.00228000  0.57743600  1
  O  O18  1  0.62112800  0.70392300  0.80065800  1
  O  O19  1  0.82453800  0.05498200  0.79199700  1
  O  O20  1  0.27605200  0.60075000  0.60709600  1
  O  O21  1  0.57678700  0.29505600  0.00218500  1
  O  O22  1  0.02965700  0.67824700  0.79426400  1
  O  O23  1  0.00522400  0.26104400  0.57850800  1
loop_
_geom_bond_atom_site_label_1
_geom_bond_atom_site_label_2
_geom_bond_distance
_geom_bond_site_symmetry_2
Na0 O19 2.360982 1_555
Na0 O2 2.363748 1_655
Na0 O12 2.389501 1_556
Na0 O18 2.694160 1_555
Na0 O21 2.793208 1_556
Na0 O22 2.888390 1_655
Na1 O11 2.360982 1_555
Na1 O12 2.363748 1_455
Na1 O2 2.389501 1_554
Na1 O6 2.694160 1_555
Na1 O8 2.793208 1_554
Na1 O15 2.888390 1_455
Fe0 O4 1.955027 1_555
Fe0 O14 1.993659 1_555
Fe0 O17 2.034815 1_555
Fe0 O23 2.060846 1_555
Fe0 O16 2.071603 1_555
Fe0 O20 2.093578 1_555
Fe1 O15 2.054783 1_555
Fe1 O6 2.073942 1_555
Fe1 O1 2.074270 1_555
Fe1 O21 2.148043 1_555
Fe1 O0 2.216581 1_555
Fe1 O3 2.313684 1_555
Fe2 O7 1.955027 1_555
Fe2 O0 1.993659 1_555
Fe2 O13 2.034815 1_555
Fe2 O9 2.060846 1_555
Fe2 O10 2.071603 1_555
Fe2 O3 2.093578 1_555
Fe3 O22 2.054783 1_555
Fe3 O18 2.073942 1_555
Fe3 O5 2.074270 1_555
Fe3 O8 2.148043 1_555
Fe3 O14 2.216581 1_555
Fe3 O20 2.313684 1_555
Mo0 O9 1.786797 1_455
Mo0 O17 1.789032 1_565
Mo0 O10 1.796552 1_555
Mo0 O20 1.825662 1_555
Mo1 O19 1.750181 1_565
Mo1 O18 1.794752 1_555
Mo1 O22 1.803167 1_655
Mo1 O7 1.839829 1_555
Mo2 O2 1.760448 1_555
Mo2 O5 1.766205 1_545
Mo2 O21 1.796877 1_556
Mo2 O14 1.883830 1_555
Mo3 O11 1.750181 1_545
Mo3 O6 1.794752 1_555
Mo3 O15 1.803167 1_455
Mo3 O4 1.839829 1_555
Mo4 O12 1.760448 1_555
Mo4 O1 1.766205 1_565
Mo4 O8 1.796877 1_554
Mo4 O0 1.883830 1_555
Mo5 O23 1.786797 1_655
Mo5 O13 1.789032 1_545
Mo5 O16 1.796552 1_555
Mo5 O3 1.825662 1_555
