# generated using pymatgen
data_ZnS
_symmetry_space_group_name_H-M   'P 1'
_cell_length_a   3.80980013
_cell_length_b   3.80979956
_cell_length_c   87.16859380
_cell_angle_alpha   90.00000000
_cell_angle_beta   90.00000000
_cell_angle_gamma   119.99999617
_symmetry_Int_Tables_number   1
_chemical_formula_structural   ZnS
_chemical_formula_sum   'Zn28 S28'
_cell_volume   1095.70844300
_cell_formula_units_Z   28
loop_
 _symmetry_equiv_pos_site_id
 _symmetry_equiv_pos_as_xyz
  1  'x, y, z'
loop_
 _atom_site_type_symbol
 _atom_site_label
 _atom_site_symmetry_multiplicity
 _atom_site_fract_x
 _atom_site_fract_y
 _atom_site_fract_z
 _atom_site_occupancy
  Zn  Zn0  1  0.66666700  0.33333300  0.07145688  1
  Zn  Zn1  1  -0.00000000  0.00000000  0.32142956  1
  Zn  Zn2  1  0.00000000  0.00000000  0.67859661  1
  Zn  Zn3  1  0.33333300  0.66666700  0.14287447  1
  Zn  Zn4  1  -0.00000000  0.00000000  0.89286356  1
  Zn  Zn5  1  0.66666700  0.33333300  0.46425798  1
  Zn  Zn6  1  0.66666700  0.33333300  0.53571897  1
  Zn  Zn7  1  0.00000000  -0.00000000  0.21429002  1
  Zn  Zn8  1  0.66666700  0.33333300  0.64285229  1
  Zn  Zn9  1  0.66666700  0.33333300  0.35719678  1
  Zn  Zn10  1  0.33333300  0.66666700  0.60715684  1
  Zn  Zn11  1  0.33333300  0.66666700  0.96425863  1
  Zn  Zn12  1  0.66666700  0.33333300  0.28565822  1
  Zn  Zn13  1  0.00000000  0.00000000  0.78569298  1
  Zn  Zn14  1  0.66666700  0.33333300  0.71431511  1
  Zn  Zn15  1  0.66666700  0.33333300  0.82144176  1
  Zn  Zn16  1  -0.00000000  0.00000000  0.10717077  1
  Zn  Zn17  1  0.66666700  0.33333300  0.92858165  1
  Zn  Zn18  1  0.33333300  0.66666700  0.03572517  1
  Zn  Zn19  1  0.33333300  0.66666700  0.25000436  1
  Zn  Zn20  1  0.33333300  0.66666700  0.50001621  1
  Zn  Zn21  1  0.66666700  0.33333300  0.17860181  1
  Zn  Zn22  1  -0.00000000  0.00000000  0.00000690  1
  Zn  Zn23  1  0.33333300  0.66666700  0.39287084  1
  Zn  Zn24  1  0.00000000  -0.00000000  0.57144284  1
  Zn  Zn25  1  0.00000000  -0.00000000  0.42858553  1
  Zn  Zn26  1  0.33333300  0.66666700  0.85716251  1
  Zn  Zn27  1  0.33333300  0.66666700  0.75003122  1
  S  S0  1  0.66666700  0.33333300  0.20536210  1
  S  S1  1  0.00000000  0.00000000  0.34824193  1
  S  S2  1  0.33333300  0.66666700  0.41964110  1
  S  S3  1  0.66666700  0.33333300  0.66960875  1
  S  S4  1  0.33333300  0.66666700  0.77678030  1
  S  S5  1  0.33333300  0.66666700  0.99101399  1
  S  S6  1  0.33333300  0.66666700  0.27675644  1
  S  S7  1  0.00000000  0.00000000  0.45534489  1
  S  S8  1  -0.00000000  0.00000000  0.02679547  1
  S  S9  1  0.33333300  0.66666700  0.63392384  1
  S  S10  1  -0.00000000  0.00000000  0.59821803  1
  S  S11  1  0.33333300  0.66666700  0.06248820  1
  S  S12  1  0.66666700  0.33333300  0.09823089  1
  S  S13  1  0.00000000  0.00000000  0.13393097  1
  S  S14  1  0.66666700  0.33333300  0.84822122  1
  S  S15  1  0.66666700  0.33333300  0.31242017  1
  S  S16  1  0.66666700  0.33333300  0.56248606  1
  S  S17  1  0.66666700  0.33333300  0.95534660  1
  S  S18  1  0.00000000  0.00000000  0.91963980  1
  S  S19  1  0.33333300  0.66666700  0.88393695  1
  S  S20  1  -0.00000000  0.00000000  0.24106507  1
  S  S21  1  0.00000000  -0.00000000  0.70539179  1
  S  S22  1  0.66666700  0.33333300  0.49101153  1
  S  S23  1  0.66666700  0.33333300  0.74107302  1
  S  S24  1  0.66666700  0.33333300  0.38395202  1
  S  S25  1  0.33333300  0.66666700  0.16964423  1
  S  S26  1  0.00000000  0.00000000  0.81247427  1
  S  S27  1  0.33333300  0.66666700  0.52680291  1
loop_
_geom_bond_atom_site_label_1
_geom_bond_atom_site_label_2
_geom_bond_distance
_geom_bond_site_symmetry_2
S0 Zn21 2.332657 1_555
S0 Zn7 2.333202 1_655
S0 Zn7 2.333205 1_665
S0 Zn7 2.333205 1_555
S1 Zn9 2.333986 1_455
S1 Zn9 2.333989 1_445
S1 Zn9 2.333989 1_555
S1 Zn1 2.337197 1_555
S2 Zn23 2.333526 1_555
S2 Zn25 2.333682 1_565
S2 Zn25 2.333685 1_555
S2 Zn25 2.333686 1_665
S3 Zn8 2.332323 1_555
S3 Zn2 2.334950 1_655
S3 Zn2 2.334953 1_665
S3 Zn2 2.334953 1_555
S4 Zn27 2.331680 1_555
S4 Zn13 2.332759 1_565
S4 Zn13 2.332762 1_555
S4 Zn13 2.332762 1_665
S5 Zn11 2.332227 1_555
S5 Zn22 2.335097 1_566
S5 Zn22 2.335100 1_556
S5 Zn22 2.335101 1_666
S6 Zn19 2.331941 1_555
S6 Zn12 2.332443 1_565
S6 Zn12 2.332443 1_455
S6 Zn12 2.332449 1_555
S7 Zn25 2.332576 1_555
S7 Zn5 2.332771 1_455
S7 Zn5 2.332774 1_445
S7 Zn5 2.332774 1_555
S8 Zn18 2.333253 1_545
S8 Zn18 2.333257 1_555
S8 Zn18 2.333257 1_445
S8 Zn22 2.335122 1_555
S9 Zn8 2.333217 1_565
S9 Zn8 2.333217 1_455
S9 Zn8 2.333223 1_555
S9 Zn10 2.333242 1_555
S10 Zn10 2.333519 1_545
S10 Zn10 2.333522 1_555
S10 Zn10 2.333522 1_445
S10 Zn24 2.333956 1_555
S11 Zn18 2.332896 1_555
S11 Zn0 2.334389 1_565
S11 Zn0 2.334389 1_455
S11 Zn0 2.334395 1_555
S12 Zn16 2.333550 1_655
S12 Zn16 2.333553 1_665
S12 Zn16 2.333553 1_555
S12 Zn0 2.333853 1_555
S13 Zn16 2.332649 1_555
S13 Zn3 2.333655 1_545
S13 Zn3 2.333658 1_555
S13 Zn3 2.333658 1_445
S14 Zn26 2.333591 1_545
S14 Zn26 2.333591 1_655
S14 Zn26 2.333597 1_555
S14 Zn15 2.334328 1_555
S15 Zn12 2.332802 1_555
S15 Zn1 2.335580 1_655
S15 Zn1 2.335583 1_665
S15 Zn1 2.335583 1_555
S16 Zn6 2.333250 1_555
S16 Zn24 2.334042 1_655
S16 Zn24 2.334045 1_665
S16 Zn24 2.334045 1_555
S17 Zn11 2.332740 1_545
S17 Zn11 2.332740 1_655
S17 Zn11 2.332746 1_555
S17 Zn17 2.333063 1_555
S18 Zn17 2.333607 1_455
S18 Zn17 2.333610 1_445
S18 Zn17 2.333610 1_555
S18 Zn4 2.334047 1_555
S19 Zn4 2.333164 1_565
S19 Zn4 2.333167 1_555
S19 Zn4 2.333167 1_665
S19 Zn26 2.333890 1_555
S20 Zn19 2.333532 1_545
S20 Zn19 2.333536 1_555
S20 Zn19 2.333536 1_445
S20 Zn7 2.333943 1_555
S21 Zn14 2.333068 1_455
S21 Zn14 2.333071 1_445
S21 Zn14 2.333071 1_555
S21 Zn2 2.335698 1_555
S22 Zn5 2.332069 1_555
S22 Zn20 2.335442 1_545
S22 Zn20 2.335442 1_655
S22 Zn20 2.335448 1_555
S23 Zn14 2.332449 1_555
S23 Zn27 2.334083 1_545
S23 Zn27 2.334084 1_655
S23 Zn27 2.334090 1_555
S24 Zn9 2.332217 1_555
S24 Zn23 2.332937 1_545
S24 Zn23 2.332938 1_655
S24 Zn23 2.332943 1_555
S25 Zn3 2.333482 1_555
S25 Zn21 2.334065 1_565
S25 Zn21 2.334066 1_455
S25 Zn21 2.334072 1_555
S26 Zn15 2.334354 1_455
S26 Zn15 2.334358 1_445
S26 Zn15 2.334358 1_555
S26 Zn13 2.334487 1_555
S27 Zn6 2.332857 1_565
S27 Zn6 2.332857 1_455
S27 Zn6 2.332863 1_555
S27 Zn20 2.334959 1_555
