# generated using pymatgen
data_SrZr4(PO4)6
_symmetry_space_group_name_H-M   'P 1'
_cell_length_a   9.29385692
_cell_length_b   9.29385692
_cell_length_c   9.29385708
_cell_angle_alpha   56.02620211
_cell_angle_beta   56.02620208
_cell_angle_gamma   56.02619786
_symmetry_Int_Tables_number   1
_chemical_formula_structural   SrZr4(PO4)6
_chemical_formula_sum   'Sr1 Zr4 P6 O24'
_cell_volume   515.38849229
_cell_formula_units_Z   1
loop_
 _symmetry_equiv_pos_site_id
 _symmetry_equiv_pos_as_xyz
  1  'x, y, z'
loop_
 _atom_site_type_symbol
 _atom_site_label
 _atom_site_symmetry_multiplicity
 _atom_site_fract_x
 _atom_site_fract_y
 _atom_site_fract_z
 _atom_site_occupancy
  Sr  Sr0  1  0.50000000  0.50000000  0.50000000  1
  Zr  Zr0  1  0.85613076  0.85613076  0.85613076  1
  Zr  Zr1  1  0.14386924  0.14386924  0.14386924  1
  Zr  Zr2  1  0.35055391  0.35055391  0.35055391  1
  Zr  Zr3  1  0.64944609  0.64944609  0.64944609  1
  P  P0  1  0.04288945  0.74391630  0.47030602  1
  P  P1  1  0.74391630  0.47030602  0.04288945  1
  P  P2  1  0.47030602  0.04288945  0.74391630  1
  P  P3  1  0.52969398  0.95711055  0.25608370  1
  P  P4  1  0.95711055  0.25608370  0.52969398  1
  P  P5  1  0.25608370  0.52969398  0.95711055  1
  O  O0  1  0.31755442  0.04027161  0.93333880  1
  O  O1  1  0.29946275  0.49741562  0.11132070  1
  O  O2  1  0.73750889  0.64897495  0.02116105  1
  O  O3  1  0.49741562  0.11132070  0.29946275  1
  O  O4  1  0.23170411  0.59410362  0.40994149  1
  O  O5  1  0.50258438  0.88867930  0.70053725  1
  O  O6  1  0.68244558  0.95972839  0.06666120  1
  O  O7  1  0.02116105  0.73750889  0.64897495  1
  O  O8  1  0.40994149  0.23170411  0.59410362  1
  O  O9  1  0.40589638  0.59005851  0.76829589  1
  O  O10  1  0.97883895  0.26249111  0.35102505  1
  O  O11  1  0.76829589  0.40589638  0.59005851  1
  O  O12  1  0.88867930  0.70053725  0.50258438  1
  O  O13  1  0.70053725  0.50258438  0.88867930  1
  O  O14  1  0.11132070  0.29946275  0.49741562  1
  O  O15  1  0.95972839  0.06666120  0.68244558  1
  O  O16  1  0.59410362  0.40994149  0.23170411  1
  O  O17  1  0.35102505  0.97883895  0.26249111  1
  O  O18  1  0.06666120  0.68244558  0.95972839  1
  O  O19  1  0.04027161  0.93333880  0.31755442  1
  O  O20  1  0.59005851  0.76829589  0.40589638  1
  O  O21  1  0.26249111  0.35102505  0.97883895  1
  O  O22  1  0.93333880  0.31755442  0.04027161  1
  O  O23  1  0.64897495  0.02116105  0.73750889  1
loop_
_geom_bond_atom_site_label_1
_geom_bond_atom_site_label_2
_geom_bond_distance
_geom_bond_site_symmetry_2
O0 P2 1.520772 1_555
O0 Zr1 2.049311 1_556
O1 P5 1.528626 1_554
O1 Zr2 2.023816 1_555
O2 P1 1.526374 1_555
O2 Zr0 2.111080 1_554
O3 P3 1.528626 1_545
O3 Zr2 2.023816 1_555
O4 P0 1.541023 1_555
O4 Zr2 2.137480 1_555
O4 Sr0 2.600023 1_555
O5 P2 1.528626 1_565
O5 Zr3 2.023816 1_555
O6 P3 1.520772 1_555
O6 Zr0 2.049311 1_554
O7 P0 1.526374 1_555
O7 Zr0 2.111080 1_455
O8 P2 1.541024 1_555
O8 Zr2 2.137480 1_555
O8 Sr0 2.600023 1_555
O9 P5 1.541024 1_555
O9 Zr3 2.137480 1_555
O9 Sr0 2.600023 1_555
O10 P4 1.526374 1_555
O10 Zr1 2.111080 1_655
O11 P4 1.541023 1_555
O11 Zr3 2.137480 1_555
O11 Sr0 2.600023 1_555
O12 P0 1.528626 1_655
O12 Zr3 2.023816 1_555
O13 P1 1.528626 1_556
O13 Zr3 2.023816 1_555
O14 P4 1.528626 1_455
O14 Zr2 2.023816 1_555
O15 P4 1.520772 1_555
O15 Zr0 2.049311 1_545
O16 P1 1.541024 1_555
O16 Zr2 2.137480 1_555
O16 Sr0 2.600023 1_555
O17 P3 1.526374 1_555
O17 Zr1 2.111080 1_565
O18 P5 1.520772 1_555
O18 Zr0 2.049310 1_455
O19 P0 1.520772 1_555
O19 Zr1 2.049311 1_565
O20 P3 1.541024 1_555
O20 Zr3 2.137480 1_555
O20 Sr0 2.600023 1_555
O21 P5 1.526374 1_555
O21 Zr1 2.111080 1_556
O22 P1 1.520772 1_555
O22 Zr1 2.049310 1_655
O23 P2 1.526374 1_555
O23 Zr0 2.111080 1_545
