# generated using pymatgen
data_SrLa7TiGa7O24
_symmetry_space_group_name_H-M   'P 1'
_cell_length_a   5.58696800
_cell_length_b   5.57701700
_cell_length_c   31.42748813
_cell_angle_alpha   89.99476038
_cell_angle_beta   90.00000000
_cell_angle_gamma   90.00000000
_symmetry_Int_Tables_number   1
_chemical_formula_structural   SrLa7TiGa7O24
_chemical_formula_sum   'Sr2 La14 Ti2 Ga14 O48'
_cell_volume   979.23701518
_cell_formula_units_Z   2
loop_
 _symmetry_equiv_pos_site_id
 _symmetry_equiv_pos_as_xyz
  1  'x, y, z'
loop_
 _atom_site_type_symbol
 _atom_site_label
 _atom_site_symmetry_multiplicity
 _atom_site_fract_x
 _atom_site_fract_y
 _atom_site_fract_z
 _atom_site_occupancy
  Sr  Sr0  1  0.49531100  0.76466800  0.43581600  1
  Sr  Sr1  1  0.99531100  0.23533200  0.56418400  1
  La  La0  1  0.49529000  0.77432300  0.68747300  1
  La  La1  1  0.49272600  0.77691100  0.93759000  1
  La  La2  1  0.49271300  0.77718400  0.18743800  1
  La  La3  1  0.99271300  0.22281600  0.81256200  1
  La  La4  1  0.99272600  0.22308900  0.06241000  1
  La  La5  1  0.99529000  0.22567700  0.31252700  1
  La  La6  1  0.00704100  0.27050500  0.43454800  1
  La  La7  1  0.00850100  0.27584100  0.68727400  1
  La  La8  1  0.00847800  0.27738800  0.18736300  1
  La  La9  1  0.00771700  0.27689300  0.93755400  1
  La  La10  1  0.50704100  0.72949500  0.56545200  1
  La  La11  1  0.50771700  0.72310700  0.06244600  1
  La  La12  1  0.50850100  0.72415900  0.31272600  1
  La  La13  1  0.50847800  0.72261200  0.81263700  1
  Ti  Ti0  1  0.00319200  0.75161700  0.49948100  1
  Ti  Ti1  1  0.50319200  0.24838300  0.50051900  1
  Ga  Ga0  1  0.00260000  0.74916500  0.37453800  1
  Ga  Ga1  1  0.99820200  0.75287900  0.62530800  1
  Ga  Ga2  1  0.00159200  0.74983000  0.75023000  1
  Ga  Ga3  1  0.00015100  0.74998000  0.99999800  1
  Ga  Ga4  1  0.00025400  0.75011600  0.12487200  1
  Ga  Ga5  1  0.00027400  0.75067100  0.24975700  1
  Ga  Ga6  1  0.49820200  0.24712100  0.37469200  1
  Ga  Ga7  1  0.50027400  0.24932900  0.75024300  1
  Ga  Ga8  1  0.50015100  0.25002000  0.00000200  1
  Ga  Ga9  1  0.50260000  0.25083500  0.62546200  1
  Ga  Ga10  1  0.50052000  0.25008700  0.12486700  1
  Ga  Ga11  1  0.50159200  0.25017000  0.24977000  1
  Ga  Ga12  1  0.50025400  0.24988400  0.87512800  1
  Ga  Ga13  1  0.00052000  0.74991300  0.87513300  1
  O  O0  1  0.06920500  0.75503400  0.56133600  1
  O  O1  1  0.07921100  0.76354200  0.81262400  1
  O  O2  1  0.07860200  0.76374000  0.06244700  1
  O  O3  1  0.07805100  0.76296800  0.31212000  1
  O  O4  1  0.72116000  0.97297900  0.61593600  1
  O  O5  1  0.72467000  0.97864100  0.50880700  1
  O  O6  1  0.72281600  0.97155900  0.76081700  1
  O  O7  1  0.72327700  0.97252600  0.11425100  1
  O  O8  1  0.72299800  0.97230200  0.01057200  1
  O  O9  1  0.72326100  0.97211800  0.86451300  1
  O  O10  1  0.72264200  0.97123400  0.26050600  1
  O  O11  1  0.72830000  0.97696100  0.36500100  1
  O  O12  1  0.22264200  0.02876600  0.73949400  1
  O  O13  1  0.22467000  0.02135900  0.49119300  1
  O  O14  1  0.22116000  0.02702100  0.38406400  1
  O  O15  1  0.22830000  0.02303900  0.63499900  1
  O  O16  1  0.22299800  0.02769800  0.98942800  1
  O  O17  1  0.22327700  0.02747400  0.88574900  1
  O  O18  1  0.22281600  0.02844100  0.23918300  1
  O  O19  1  0.22326100  0.02788200  0.13548700  1
  O  O20  1  0.56920500  0.24496600  0.43866400  1
  O  O21  1  0.57805100  0.23703200  0.68788000  1
  O  O22  1  0.57921100  0.23645800  0.18737600  1
  O  O23  1  0.57860200  0.23626000  0.93755300  1
  O  O24  1  0.44122500  0.25946000  0.56138800  1
  O  O25  1  0.42191600  0.26383100  0.81266600  1
  O  O26  1  0.42181600  0.26372500  0.06244300  1
  O  O27  1  0.42550500  0.26209500  0.31203300  1
  O  O28  1  0.75521200  0.48944500  0.50826200  1
  O  O29  1  0.76412800  0.48618500  0.61610200  1
  O  O30  1  0.77765700  0.47210700  0.86450900  1
  O  O31  1  0.77810200  0.47185700  0.76070500  1
  O  O32  1  0.77739700  0.47249100  0.11422400  1
  O  O33  1  0.77726600  0.47234600  0.01056700  1
  O  O34  1  0.77279900  0.47479800  0.36561300  1
  O  O35  1  0.77822600  0.47247700  0.26057600  1
  O  O36  1  0.27279900  0.52520200  0.63438700  1
  O  O37  1  0.25521200  0.51055500  0.49173800  1
  O  O38  1  0.26412800  0.51381500  0.38389800  1
  O  O39  1  0.27822600  0.52752300  0.73942400  1
  O  O40  1  0.27726600  0.52765400  0.98943300  1
  O  O41  1  0.27810200  0.52814300  0.23929500  1
  O  O42  1  0.27739700  0.52750900  0.88577600  1
  O  O43  1  0.27765700  0.52789300  0.13549100  1
  O  O44  1  0.92550500  0.73790500  0.68796700  1
  O  O45  1  0.94122500  0.74054000  0.43861200  1
  O  O46  1  0.92191600  0.73616900  0.18733400  1
  O  O47  1  0.92181600  0.73627500  0.93755700  1
loop_
_geom_bond_atom_site_label_1
_geom_bond_atom_site_label_2
_geom_bond_distance
_geom_bond_site_symmetry_2
La0 O44 2.412213 1_555
La0 O39 2.455703 1_555
La0 O36 2.501863 1_555
La0 O15 2.620742 1_565
La0 O21 2.621666 1_565
La0 O12 2.647133 1_565
La0 O4 2.806064 1_555
La0 O6 2.852971 1_555
La0 O21 3.031972 1_555
La0 O29 3.141659 1_555
La0 O44 3.189881 1_455
La0 O31 3.261636 1_555
La1 O47 2.408001 1_555
La1 O42 2.456420 1_555
La1 O40 2.456757 1_555
La1 O23 2.606339 1_565
La1 O17 2.621627 1_565
La1 O16 2.623289 1_565
La1 O8 2.846723 1_556
La1 O9 2.849240 1_555
La2 O46 2.408831 1_555
La2 O41 2.454046 1_555
La2 O43 2.458097 1_555
La2 O22 2.606570 1_565
La2 O18 2.623417 1_565
La2 O19 2.624188 1_565
La2 O10 2.845182 1_555
La2 O7 2.852387 1_555
La3 O25 2.408831 1_655
La3 O31 2.454046 1_555
La3 O30 2.458097 1_555
La3 O1 2.606570 1_645
La3 O6 2.623417 1_545
La3 O9 2.624188 1_545
La3 O12 2.845182 1_655
La3 O17 2.852387 1_655
La4 O26 2.408001 1_655
La4 O32 2.456420 1_555
La4 O33 2.456757 1_555
La4 O2 2.606339 1_645
La4 O7 2.621627 1_545
La4 O8 2.623289 1_545
La4 O16 2.846723 1_654
La4 O19 2.849240 1_655
La5 O27 2.412213 1_655
La5 O35 2.455703 1_555
La5 O34 2.501863 1_555
La5 O11 2.620742 1_545
La5 O3 2.621666 1_645
La5 O10 2.647133 1_545
La5 O14 2.806064 1_655
La5 O18 2.852971 1_655
La5 O3 3.031972 1_655
La5 O38 3.141659 1_655
La5 O27 3.189881 1_555
La5 O41 3.261636 1_655
La6 O14 2.406793 1_555
La6 O20 2.453730 1_455
La6 O38 2.537282 1_555
La6 O13 2.564715 1_555
La6 O37 2.635450 1_555
La6 O45 2.650149 1_455
La6 O34 2.775587 1_455
La6 O28 2.972848 1_455
La6 O45 2.981135 1_445
La6 O11 3.143758 1_445
La6 O20 3.146680 1_555
La6 O5 3.253325 1_445
La7 O21 2.414705 1_455
La7 O12 2.454186 1_555
La7 O15 2.489021 1_555
La7 O44 2.618418 1_455
La7 O36 2.622330 1_555
La7 O39 2.632039 1_555
La7 O31 2.859755 1_455
La8 O22 2.409140 1_455
La8 O18 2.452232 1_555
La8 O19 2.456549 1_555
La8 O46 2.603934 1_455
La8 O43 2.621195 1_555
La8 O41 2.624696 1_555
La8 O35 2.851882 1_455
La8 O32 2.851969 1_455
La9 O23 2.408138 1_455
La9 O16 2.456718 1_555
La9 O17 2.456919 1_555
La9 O47 2.606545 1_455
La9 O42 2.621297 1_555
La9 O40 2.623438 1_555
La9 O30 2.847245 1_455
La9 O33 2.848092 1_456
La10 O4 2.406793 1_555
La10 O0 2.453730 1_555
La10 O29 2.537282 1_555
La10 O5 2.564715 1_555
La10 O28 2.635450 1_555
La10 O24 2.650149 1_555
La10 O36 2.775587 1_555
La10 O37 2.972848 1_555
La10 O24 2.981135 1_565
La10 O15 3.143758 1_565
La10 O0 3.146680 1_655
La10 O13 3.253325 1_565
La11 O2 2.408138 1_555
La11 O8 2.456718 1_555
La11 O7 2.456919 1_555
La11 O26 2.606545 1_555
La11 O32 2.621297 1_555
La11 O33 2.623438 1_555
La11 O43 2.847245 1_555
La11 O40 2.848092 1_554
La12 O3 2.414705 1_555
La12 O10 2.454186 1_555
La12 O11 2.489021 1_555
La12 O27 2.618418 1_555
La12 O34 2.622330 1_555
La12 O35 2.632039 1_555
La12 O41 2.859755 1_555
La13 O1 2.409140 1_555
La13 O6 2.452232 1_555
La13 O9 2.456549 1_555
La13 O25 2.603934 1_555
La13 O30 2.621195 1_555
La13 O31 2.624696 1_555
La13 O39 2.851882 1_555
La13 O42 2.851969 1_555
Ga0 O38 1.986002 1_555
Ga0 O14 1.995508 1_565
Ga0 O3 2.007892 1_555
Ga0 O11 2.013035 1_455
Ga0 O34 2.017049 1_455
Ga0 O45 2.043234 1_455
Ga1 O4 1.997300 1_555
Ga1 O29 2.001565 1_555
Ga1 O15 2.003893 1_665
Ga1 O36 2.011789 1_655
Ga1 O44 2.012390 1_555
Ga1 O0 2.049276 1_655
Ga2 O44 2.003522 1_455
Ga2 O1 2.009728 1_555
Ga2 O39 2.010285 1_555
Ga2 O12 2.014685 1_565
Ga2 O6 2.016376 1_455
Ga2 O31 2.017590 1_455
Ga3 O40 2.011153 1_555
Ga3 O8 2.011349 1_456
Ga3 O47 2.012035 1_455
Ga3 O2 2.012433 1_556
Ga3 O33 2.014531 1_456
Ga3 O16 2.014765 1_565
Ga4 O7 2.011102 1_455
Ga4 O2 2.011529 1_555
Ga4 O43 2.012281 1_555
Ga4 O46 2.012720 1_455
Ga4 O32 2.014853 1_455
Ga4 O19 2.015803 1_565
Ga5 O10 2.008302 1_455
Ga5 O3 2.008683 1_555
Ga5 O46 2.011685 1_455
Ga5 O18 2.013956 1_565
Ga5 O41 2.014384 1_555
Ga5 O35 2.015358 1_455
Ga6 O14 1.997300 1_555
Ga6 O38 2.001565 1_555
Ga6 O11 2.003893 1_545
Ga6 O34 2.011789 1_555
Ga6 O27 2.012390 1_555
Ga6 O20 2.049276 1_555
Ga7 O12 2.008302 1_555
Ga7 O21 2.008683 1_555
Ga7 O25 2.011685 1_555
Ga7 O6 2.013956 1_545
Ga7 O31 2.014384 1_555
Ga7 O39 2.015358 1_555
Ga8 O33 2.011153 1_555
Ga8 O16 2.011349 1_554
Ga8 O26 2.012035 1_555
Ga8 O23 2.012433 1_554
Ga8 O40 2.014531 1_554
Ga8 O8 2.014765 1_545
Ga9 O29 1.986002 1_555
Ga9 O4 1.995508 1_545
Ga9 O21 2.007892 1_555
Ga9 O15 2.013035 1_555
Ga9 O36 2.017049 1_555
Ga9 O24 2.043234 1_555
Ga10 O32 2.010766 1_555
Ga10 O19 2.011605 1_555
Ga10 O26 2.011935 1_555
Ga10 O7 2.014067 1_545
Ga10 O22 2.014522 1_555
Ga10 O43 2.015524 1_555
Ga11 O27 2.003522 1_555
Ga11 O22 2.009728 1_555
Ga11 O35 2.010285 1_555
Ga11 O10 2.014685 1_545
Ga11 O18 2.016376 1_555
Ga11 O41 2.017590 1_555
Ga12 O17 2.011102 1_555
Ga12 O23 2.011529 1_555
Ga12 O30 2.012281 1_555
Ga12 O25 2.012720 1_555
Ga12 O42 2.014853 1_555
Ga12 O9 2.015803 1_545
Ga13 O42 2.010766 1_555
Ga13 O9 2.011605 1_455
Ga13 O47 2.011935 1_455
Ga13 O17 2.014067 1_565
Ga13 O1 2.014522 1_555
Ga13 O30 2.015524 1_455
O0 Ti0 1.978718 1_555
O0 Sr1 2.711744 1_465
O0 Sr1 2.929002 1_455
O4 Sr1 2.670520 1_565
O5 Ti1 1.965196 1_565
O5 Ti0 2.027424 1_655
O5 Sr1 2.713860 1_565
O5 Sr0 2.885943 1_555
O11 Sr0 2.837028 1_555
O13 Ti0 1.965196 1_545
O13 Ti1 2.027424 1_555
O13 Sr0 2.713860 1_545
O13 Sr1 2.885943 1_455
O14 Sr0 2.670520 1_545
O15 Sr1 2.837028 1_455
O20 Ti1 1.978718 1_555
O20 Sr0 2.711744 1_545
O20 Sr0 2.929002 1_555
O24 Ti1 1.945023 1_555
O24 Sr1 2.496485 1_455
O24 Sr1 3.099829 1_555
O28 Ti1 1.961950 1_555
O28 Ti0 2.033081 1_655
O28 Sr1 2.626055 1_555
O28 Sr0 3.106062 1_555
O29 Sr1 2.507629 1_555
O34 Sr0 3.144096 1_555
O36 Sr1 3.144096 1_455
O37 Ti0 1.961950 1_555
O37 Ti1 2.033081 1_555
O37 Sr0 2.626055 1_555
O37 Sr1 3.106062 1_455
O38 Sr0 2.507629 1_555
O45 Ti0 1.945023 1_655
O45 Sr0 2.496485 1_555
O45 Sr0 3.099829 1_655
