# generated using pymatgen
data_Na7Sr2Fe7F32
_symmetry_space_group_name_H-M   'P 1'
_cell_length_a   7.63009223
_cell_length_b   7.63009223
_cell_length_c   23.37800950
_cell_angle_alpha   99.00083697
_cell_angle_beta   99.00083697
_cell_angle_gamma   92.36730460
_symmetry_Int_Tables_number   1
_chemical_formula_structural   Na7Sr2Fe7F32
_chemical_formula_sum   'Na14 Sr4 Fe14 F64'
_cell_volume   1324.69319927
_cell_formula_units_Z   2
loop_
 _symmetry_equiv_pos_site_id
 _symmetry_equiv_pos_as_xyz
  1  'x, y, z'
loop_
 _atom_site_type_symbol
 _atom_site_label
 _atom_site_symmetry_multiplicity
 _atom_site_fract_x
 _atom_site_fract_y
 _atom_site_fract_z
 _atom_site_occupancy
  Na  Na0  1  0.37500000  0.12500000  0.25000000  1
  Na  Na1  1  0.62500000  0.87500000  0.75000000  1
  Na  Na2  1  0.62933429  0.37933429  0.75866859  1
  Na  Na3  1  0.12066571  0.87066571  0.74133141  1
  Na  Na4  1  0.37066571  0.62066571  0.24133141  1
  Na  Na5  1  0.87933429  0.12933429  0.25866859  1
  Na  Na6  1  0.31760709  0.57040391  0.63271529  1
  Na  Na7  1  0.43768862  0.68489180  0.86728471  1
  Na  Na8  1  0.92959609  0.18239291  0.86728471  1
  Na  Na9  1  0.81510820  0.06231138  0.63271529  1
  Na  Na10  1  0.68239291  0.42959609  0.36728471  1
  Na  Na11  1  0.56231138  0.31510820  0.13271529  1
  Na  Na12  1  0.07040391  0.81760709  0.13271529  1
  Na  Na13  1  0.18489180  0.93768862  0.36728471  1
  Sr  Sr0  1  0.50716698  0.25716698  0.51433396  1
  Sr  Sr1  1  0.24283302  0.99283302  0.98566604  1
  Sr  Sr2  1  0.49283302  0.74283302  0.48566604  1
  Sr  Sr3  1  0.75716698  0.00716698  0.01433396  1
  Fe  Fe0  1  0.87500000  0.62500000  0.25000000  1
  Fe  Fe1  1  0.12500000  0.37500000  0.75000000  1
  Fe  Fe2  1  0.00000000  0.50000000  0.00000000  1
  Fe  Fe3  1  0.00000000  -0.00000000  0.50000000  1
  Fe  Fe4  1  0.00000000  0.50000000  0.50000000  1
  Fe  Fe5  1  0.50000000  0.50000000  0.00000000  1
  Fe  Fe6  1  0.20993592  0.43242119  0.36450216  1
  Fe  Fe7  1  0.56791903  0.84543376  0.13549784  1
  Fe  Fe8  1  0.06757881  0.29006408  0.13549784  1
  Fe  Fe9  1  0.65456624  0.93208097  0.36450216  1
  Fe  Fe10  1  0.79006408  0.56757881  0.63549784  1
  Fe  Fe11  1  0.43208097  0.15456624  0.86450216  1
  Fe  Fe12  1  0.93242119  0.70993592  0.86450216  1
  Fe  Fe13  1  0.34543376  0.06791903  0.63549784  1
  F  F0  1  0.37525901  0.42980623  0.30946495  1
  F  F1  1  0.62034128  0.06579406  0.19053505  1
  F  F2  1  0.07019377  0.12474099  0.19053505  1
  F  F3  1  0.43420594  0.87965872  0.30946495  1
  F  F4  1  0.62474099  0.57019377  0.69053505  1
  F  F5  1  0.37965872  0.93420594  0.80946495  1
  F  F6  1  0.92980623  0.87525901  0.80946495  1
  F  F7  1  0.56579406  0.12034128  0.69053505  1
  F  F8  1  0.46501393  0.97459619  0.07469566  1
  F  F9  1  0.39990054  0.39031827  0.42530434  1
  F  F10  1  0.52540381  0.03498607  0.42530434  1
  F  F11  1  0.10968173  0.10009946  0.07469566  1
  F  F12  1  0.53498607  0.02540381  0.92530434  1
  F  F13  1  0.60009946  0.60968173  0.57469566  1
  F  F14  1  0.47459619  0.96501393  0.57469566  1
  F  F15  1  0.89031827  0.89990054  0.92530434  1
  F  F16  1  0.25698310  0.53896245  0.52254947  1
  F  F17  1  0.51641298  0.73443363  0.97745053  1
  F  F18  1  0.96103755  0.24301690  0.97745053  1
  F  F19  1  0.76556637  0.98358702  0.52254947  1
  F  F20  1  0.74301690  0.46103755  0.47745053  1
  F  F21  1  0.48358702  0.26556637  0.02254947  1
  F  F22  1  0.03896245  0.75698310  0.02254947  1
  F  F23  1  0.23443363  0.01641298  0.47745053  1
  F  F24  1  0.74302080  0.31768614  0.60208661  1
  F  F25  1  0.21559953  0.14093419  0.89791339  1
  F  F26  1  0.18231386  0.75697920  0.89791339  1
  F  F27  1  0.35906581  0.28440047  0.60208661  1
  F  F28  1  0.25697920  0.68231386  0.39791339  1
  F  F29  1  0.78440047  0.85906581  0.10208661  1
  F  F30  1  0.81768614  0.24302080  0.10208661  1
  F  F31  1  0.64093419  0.71559953  0.39791339  1
  F  F32  1  0.08196144  0.47791421  0.08302981  1
  F  F33  1  0.89488440  0.99893163  0.41697019  1
  F  F34  1  0.02208579  0.41803856  0.41697019  1
  F  F35  1  0.50106837  0.60511560  0.08302981  1
  F  F36  1  0.91803856  0.52208579  0.91697019  1
  F  F37  1  0.10511560  0.00106837  0.58302981  1
  F  F38  1  0.97791421  0.58196144  0.58302981  1
  F  F39  1  0.49893163  0.39488440  0.91697019  1
  F  F40  1  0.30993849  0.85740562  0.67005058  1
  F  F41  1  0.68735504  0.63988791  0.82994942  1
  F  F42  1  0.64259438  0.19006151  0.82994942  1
  F  F43  1  0.86011209  0.81264496  0.67005058  1
  F  F44  1  0.69006151  0.14259438  0.32994942  1
  F  F45  1  0.31264496  0.36011209  0.17005058  1
  F  F46  1  0.35740562  0.80993849  0.17005058  1
  F  F47  1  0.13988791  0.18735504  0.32994942  1
  F  F48  1  0.99181798  0.48455607  0.19070506  1
  F  F49  1  0.79385101  0.80111292  0.30929494  1
  F  F50  1  0.01544393  0.50818202  0.30929494  1
  F  F51  1  0.69888708  0.70614899  0.19070506  1
  F  F52  1  0.00818202  0.51544393  0.80929494  1
  F  F53  1  0.20614899  0.19888708  0.69070506  1
  F  F54  1  0.98455607  0.49181798  0.69070506  1
  F  F55  1  0.30111292  0.29385101  0.80929494  1
  F  F56  1  0.75810046  0.50810046  0.01620091  1
  F  F57  1  0.99189954  0.74189954  0.48379909  1
  F  F58  1  0.24189954  0.49189954  0.98379909  1
  F  F59  1  0.00810046  0.25810046  0.51620091  1
  F  F60  1  0.05628595  0.80628595  0.25000000  1
  F  F61  1  0.69371405  0.44371405  0.25000000  1
  F  F62  1  0.94371405  0.19371405  0.75000000  1
  F  F63  1  0.30628595  0.55628595  0.75000000  1
loop_
_geom_bond_atom_site_label_1
_geom_bond_atom_site_label_2
_geom_bond_distance
_geom_bond_site_symmetry_2
F0 Fe6 1.936231 1_555
F0 Na4 2.317673 1_555
F0 Na0 2.515668 1_555
F0 Na10 2.515702 1_555
F1 Fe7 1.936231 1_545
F1 Na5 2.317673 1_555
F1 Na0 2.515668 1_555
F1 Na11 2.515702 1_555
F2 Fe8 1.936231 1_555
F2 Na5 2.317673 1_455
F2 Na0 2.515668 1_555
F2 Na12 2.515702 1_545
F3 Fe9 1.936231 1_555
F3 Na4 2.317673 1_555
F3 Na0 2.515668 1_565
F3 Na13 2.515702 1_555
F4 Fe10 1.936231 1_555
F4 Na2 2.317673 1_555
F4 Na1 2.515668 1_555
F4 Na6 2.515702 1_555
F5 Fe11 1.936231 1_565
F5 Na3 2.317673 1_555
F5 Na1 2.515668 1_555
F5 Na7 2.515702 1_555
F6 Fe12 1.936231 1_555
F6 Na3 2.317673 1_655
F6 Na1 2.515668 1_555
F6 Na8 2.515702 1_565
F7 Fe13 1.936231 1_555
F7 Na2 2.317673 1_555
F7 Na1 2.515668 1_545
F7 Na9 2.515702 1_555
F8 Fe7 1.939396 1_555
F8 Sr1 2.496258 1_554
F8 Na11 2.750299 1_565
F8 Sr3 2.840850 1_565
F9 Fe6 1.939396 1_555
F9 Sr0 2.496258 1_555
F9 Na10 2.750299 1_555
F9 Sr2 2.840850 1_555
F10 Fe9 1.939396 1_545
F10 Sr0 2.496258 1_555
F10 Na13 2.750299 1_545
F10 Sr2 2.840850 1_545
F11 Fe8 1.939396 1_555
F11 Sr1 2.496258 1_544
F11 Na12 2.750299 1_545
F11 Sr3 2.840850 1_455
F12 Fe11 1.939396 1_555
F12 Sr3 2.496258 1_556
F12 Na7 2.750299 1_545
F12 Sr1 2.840850 1_545
F13 Fe10 1.939396 1_555
F13 Sr2 2.496258 1_555
F13 Na6 2.750299 1_555
F13 Sr0 2.840850 1_555
F14 Fe13 1.939396 1_565
F14 Sr2 2.496258 1_555
F14 Na9 2.750299 1_565
F14 Sr0 2.840850 1_565
F15 Fe12 1.939396 1_555
F15 Sr3 2.496258 1_566
F15 Na8 2.750299 1_565
F15 Sr1 2.840850 1_655
F16 Fe4 1.946898 1_555
F16 Na6 2.515800 1_555
F16 Sr2 2.659998 1_555
F16 Sr0 2.937431 1_555
F17 Fe5 1.946898 1_556
F17 Na7 2.515800 1_555
F17 Sr3 2.659998 1_566
F17 Sr1 2.937431 1_555
F18 Fe2 1.946898 1_656
F18 Na8 2.515800 1_555
F18 Sr3 2.659998 1_556
F18 Sr1 2.937431 1_645
F19 Fe3 1.946898 1_665
F19 Na9 2.515800 1_565
F19 Sr2 2.659998 1_555
F19 Sr0 2.937431 1_565
F20 Fe4 1.946898 1_655
F20 Na10 2.515800 1_555
F20 Sr0 2.659998 1_555
F20 Sr2 2.937431 1_555
F21 Fe5 1.946898 1_555
F21 Na11 2.515800 1_555
F21 Sr1 2.659998 1_544
F21 Sr3 2.937431 1_555
F22 Fe2 1.946898 1_555
F22 Na12 2.515800 1_555
F22 Sr1 2.659998 1_554
F22 Sr3 2.937431 1_465
F23 Fe3 1.946898 1_555
F23 Na13 2.515800 1_545
F23 Sr0 2.659998 1_555
F23 Sr2 2.937431 1_545
F24 Fe10 1.940153 1_555
F24 Na9 2.239173 1_555
F24 Sr0 2.477922 1_555
F25 Fe11 1.940153 1_555
F25 Na8 2.239173 1_455
F25 Sr1 2.477922 1_545
F26 Fe12 1.940153 1_455
F26 Na7 2.239173 1_555
F26 Sr1 2.477922 1_555
F27 Fe13 1.940153 1_555
F27 Na6 2.239173 1_555
F27 Sr0 2.477922 1_555
F28 Fe6 1.940153 1_555
F28 Na13 2.239173 1_555
F28 Sr2 2.477922 1_555
F29 Fe7 1.940153 1_555
F29 Na12 2.239173 1_655
F29 Sr3 2.477922 1_565
F30 Fe8 1.940153 1_655
F30 Na11 2.239173 1_555
F30 Sr3 2.477922 1_555
F31 Fe9 1.940153 1_555
F31 Na10 2.239173 1_555
F31 Sr2 2.477922 1_555
F32 Fe2 1.979515 1_555
F32 Fe8 2.037205 1_555
F32 Na12 2.680257 1_555
F33 Fe3 1.979515 1_665
F33 Fe9 2.037205 1_555
F33 Na13 2.680257 1_655
F34 Fe4 1.979515 1_555
F34 Fe6 2.037205 1_555
F34 Na10 2.680257 1_455
F35 Fe5 1.979515 1_555
F35 Fe7 2.037205 1_555
F35 Na11 2.680257 1_555
F36 Fe2 1.979515 1_656
F36 Fe12 2.037205 1_555
F36 Na8 2.680257 1_555
F37 Fe3 1.979515 1_555
F37 Fe13 2.037205 1_555
F37 Na9 2.680257 1_455
F38 Fe4 1.979515 1_655
F38 Fe10 2.037205 1_555
F38 Na6 2.680257 1_655
F39 Fe5 1.979515 1_556
F39 Fe11 2.037205 1_555
F39 Na7 2.680257 1_555
F40 Fe13 1.935029 1_565
F40 Na6 2.233650 1_555
F40 Na3 2.363279 1_555
F40 Na1 2.789142 1_555
F41 Fe12 1.935029 1_555
F41 Na7 2.233650 1_555
F41 Na2 2.363279 1_555
F41 Na1 2.789142 1_555
F42 Fe11 1.935029 1_555
F42 Na8 2.233650 1_555
F42 Na2 2.363279 1_555
F42 Na1 2.789142 1_545
F43 Fe10 1.935029 1_555
F43 Na9 2.233650 1_565
F43 Na3 2.363279 1_655
F43 Na1 2.789142 1_555
F44 Fe9 1.935029 1_545
F44 Na10 2.233650 1_555
F44 Na5 2.363279 1_555
F44 Na0 2.789142 1_555
F45 Fe8 1.935029 1_555
F45 Na11 2.233650 1_555
F45 Na4 2.363279 1_555
F45 Na0 2.789142 1_555
F46 Fe7 1.935029 1_555
F46 Na12 2.233650 1_555
F46 Na4 2.363279 1_555
F46 Na0 2.789142 1_565
F47 Fe6 1.935029 1_555
F47 Na13 2.233650 1_545
F47 Na5 2.363279 1_455
F47 Na0 2.789142 1_555
F48 Fe0 1.965976 1_555
F48 Fe8 1.976650 1_655
F49 Fe0 1.965976 1_555
F49 Fe9 1.976650 1_555
F50 Fe0 1.965976 1_455
F50 Fe6 1.976650 1_555
F51 Fe0 1.965976 1_555
F51 Fe7 1.976650 1_555
F52 Fe1 1.965976 1_555
F52 Fe12 1.976650 1_455
F53 Fe1 1.965976 1_555
F53 Fe13 1.976650 1_555
F54 Fe1 1.965976 1_655
F54 Fe10 1.976650 1_555
F55 Fe1 1.965976 1_555
F55 Fe11 1.976650 1_555
F56 Fe2 1.942876 1_655
F56 Fe5 1.942876 1_555
F57 Fe4 1.942876 1_655
F57 Fe3 1.942876 1_665
F58 Fe2 1.942876 1_556
F58 Fe5 1.942876 1_556
F59 Fe4 1.942876 1_555
F59 Fe3 1.942876 1_555
F60 Fe0 1.915354 1_455
F60 Na12 2.775382 1_555
F60 Na13 2.775382 1_555
F61 Fe0 1.915354 1_555
F61 Na11 2.775382 1_555
F61 Na10 2.775382 1_555
F62 Fe1 1.915354 1_655
F62 Na9 2.775382 1_555
F62 Na8 2.775382 1_555
F63 Fe1 1.915354 1_555
F63 Na6 2.775382 1_555
F63 Na7 2.775382 1_555
