# generated using pymatgen
data_AlAs(H2O3)2
_symmetry_space_group_name_H-M   'P 1'
_cell_length_a   8.89890100
_cell_length_b   9.88089500
_cell_length_c   10.26400100
_cell_angle_alpha   90.00000000
_cell_angle_beta   90.00000000
_cell_angle_gamma   90.00000000
_symmetry_Int_Tables_number   1
_chemical_formula_structural   AlAs(H2O3)2
_chemical_formula_sum   'Al8 As8 H32 O48'
_cell_volume   902.50443598
_cell_formula_units_Z   8
loop_
 _symmetry_equiv_pos_site_id
 _symmetry_equiv_pos_as_xyz
  1  'x, y, z'
loop_
 _atom_site_type_symbol
 _atom_site_label
 _atom_site_symmetry_multiplicity
 _atom_site_fract_x
 _atom_site_fract_y
 _atom_site_fract_z
 _atom_site_occupancy
  Al  Al0  1  0.14782800  0.18220700  0.12718700  1
  Al  Al1  1  0.64782800  0.31779300  0.87281300  1
  Al  Al2  1  0.85217200  0.68220700  0.37281300  1
  Al  Al3  1  0.35217200  0.81779300  0.62718700  1
  Al  Al4  1  0.85217200  0.81779300  0.87281300  1
  Al  Al5  1  0.35217200  0.68220700  0.12718700  1
  Al  Al6  1  0.14782800  0.31779300  0.62718700  1
  Al  Al7  1  0.64782800  0.18220700  0.37281300  1
  As  As0  1  0.03485400  0.86288200  0.15019000  1
  As  As1  1  0.53485400  0.63711800  0.84981000  1
  As  As2  1  0.96514600  0.36288200  0.34981000  1
  As  As3  1  0.46514600  0.13711800  0.65019000  1
  As  As4  1  0.96514600  0.13711800  0.84981000  1
  As  As5  1  0.46514600  0.36288200  0.15019000  1
  As  As6  1  0.03485400  0.63711800  0.65019000  1
  As  As7  1  0.53485400  0.86288200  0.34981000  1
  H  H0  1  0.18266200  0.17988200  0.36850000  1
  H  H1  1  0.68266200  0.32011800  0.63150000  1
  H  H2  1  0.81733800  0.67988200  0.13150000  1
  H  H3  1  0.31733800  0.82011800  0.86850000  1
  H  H4  1  0.81733800  0.82011800  0.63150000  1
  H  H5  1  0.31733800  0.67988200  0.36850000  1
  H  H6  1  0.18266200  0.32011800  0.86850000  1
  H  H7  1  0.68266200  0.17988200  0.13150000  1
  H  H8  1  0.33297800  0.10359600  0.31017700  1
  H  H9  1  0.83297800  0.39640400  0.68982300  1
  H  H10  1  0.66702200  0.60359600  0.18982300  1
  H  H11  1  0.16702200  0.89640400  0.81017700  1
  H  H12  1  0.66702200  0.89640400  0.68982300  1
  H  H13  1  0.16702200  0.60359600  0.31017700  1
  H  H14  1  0.33297800  0.39640400  0.81017700  1
  H  H15  1  0.83297800  0.10359600  0.18982300  1
  H  H16  1  0.35759400  0.09468900  0.97343300  1
  H  H17  1  0.85759400  0.40531100  0.02656700  1
  H  H18  1  0.64240600  0.59468900  0.52656700  1
  H  H19  1  0.14240600  0.90531100  0.47343300  1
  H  H20  1  0.64240600  0.90531100  0.02656700  1
  H  H21  1  0.14240600  0.59468900  0.97343300  1
  H  H22  1  0.35759400  0.40531100  0.47343300  1
  H  H23  1  0.85759400  0.09468900  0.52656700  1
  H  H24  1  0.29246200  0.97067100  0.06563900  1
  H  H25  1  0.79246200  0.52932900  0.93436100  1
  H  H26  1  0.70753800  0.47067100  0.43436100  1
  H  H27  1  0.20753800  0.02932900  0.56563900  1
  H  H28  1  0.70753800  0.02932900  0.93436100  1
  H  H29  1  0.20753800  0.47067100  0.06563900  1
  H  H30  1  0.29246200  0.52932900  0.56563900  1
  H  H31  1  0.79246200  0.97067100  0.43436100  1
  O  O0  1  0.00661200  0.03479100  0.14080600  1
  O  O1  1  0.50661200  0.46520900  0.85919400  1
  O  O2  1  0.99338800  0.53479100  0.35919400  1
  O  O3  1  0.49338800  0.96520900  0.64080600  1
  O  O4  1  0.99338800  0.96520900  0.85919400  1
  O  O5  1  0.49338800  0.53479100  0.14080600  1
  O  O6  1  0.00661200  0.46520900  0.64080600  1
  O  O7  1  0.50661200  0.03479100  0.35919400  1
  O  O8  1  0.99956900  0.80062900  0.30254900  1
  O  O9  1  0.49956900  0.69937100  0.69745100  1
  O  O10  1  0.00043100  0.30062900  0.19745100  1
  O  O11  1  0.50043100  0.19937100  0.80254900  1
  O  O12  1  0.00043100  0.19937100  0.69745100  1
  O  O13  1  0.50043100  0.30062900  0.30254900  1
  O  O14  1  0.99956900  0.69937100  0.80254900  1
  O  O15  1  0.49956900  0.80062900  0.19745100  1
  O  O16  1  0.21983700  0.83391700  0.10901500  1
  O  O17  1  0.71983700  0.66608300  0.89098500  1
  O  O18  1  0.78016300  0.33391700  0.39098500  1
  O  O19  1  0.28016300  0.16608300  0.60901500  1
  O  O20  1  0.78016300  0.16608300  0.89098500  1
  O  O21  1  0.28016300  0.33391700  0.10901500  1
  O  O22  1  0.21983700  0.66608300  0.60901500  1
  O  O23  1  0.71983700  0.83391700  0.39098500  1
  O  O24  1  0.91596700  0.77919600  0.04451000  1
  O  O25  1  0.41596700  0.72080400  0.95549000  1
  O  O26  1  0.08403300  0.27919600  0.45549000  1
  O  O27  1  0.58403300  0.22080400  0.54451000  1
  O  O28  1  0.08403300  0.22080400  0.95549000  1
  O  O29  1  0.58403300  0.27919600  0.04451000  1
  O  O30  1  0.91596700  0.72080400  0.54451000  1
  O  O31  1  0.41596700  0.77919600  0.45549000  1
  O  O32  1  0.22505800  0.12493700  0.29387400  1
  O  O33  1  0.72505800  0.37506300  0.70612600  1
  O  O34  1  0.77494200  0.62493700  0.20612600  1
  O  O35  1  0.27494200  0.87506300  0.79387400  1
  O  O36  1  0.77494200  0.87506300  0.70612600  1
  O  O37  1  0.27494200  0.62493700  0.29387400  1
  O  O38  1  0.22505800  0.37506300  0.79387400  1
  O  O39  1  0.72505800  0.12493700  0.20612600  1
  O  O40  1  0.31308300  0.07166300  0.05767300  1
  O  O41  1  0.81308300  0.42833700  0.94232700  1
  O  O42  1  0.68691700  0.57166300  0.44232700  1
  O  O43  1  0.18691700  0.92833700  0.55767300  1
  O  O44  1  0.68691700  0.92833700  0.94232700  1
  O  O45  1  0.18691700  0.57166300  0.05767300  1
  O  O46  1  0.31308300  0.42833700  0.55767300  1
  O  O47  1  0.81308300  0.07166300  0.44232700  1
loop_
_geom_bond_atom_site_label_1
_geom_bond_atom_site_label_2
_geom_bond_distance
_geom_bond_site_symmetry_2
Al0 O28 1.890352 1_554
Al0 O10 1.899938 1_555
Al0 O21 1.915387 1_555
Al0 O32 1.928638 1_555
Al0 O0 1.928845 1_555
Al0 O40 1.965900 1_555
Al1 O29 1.890352 1_556
Al1 O11 1.899938 1_555
Al1 O20 1.915387 1_555
Al1 O33 1.928638 1_555
Al1 O1 1.928845 1_555
Al1 O41 1.965900 1_555
Al2 O30 1.890352 1_555
Al2 O8 1.899938 1_555
Al2 O23 1.915387 1_555
Al2 O34 1.928638 1_555
Al2 O2 1.928845 1_555
Al2 O42 1.965900 1_555
Al3 O31 1.890352 1_555
Al3 O9 1.899938 1_555
Al3 O22 1.915387 1_555
Al3 O35 1.928638 1_555
Al3 O3 1.928845 1_555
Al3 O43 1.965900 1_555
Al4 O24 1.890352 1_556
Al4 O14 1.899938 1_555
Al4 O17 1.915387 1_555
Al4 O36 1.928638 1_555
Al4 O4 1.928845 1_555
Al4 O44 1.965900 1_555
Al5 O25 1.890352 1_554
Al5 O15 1.899938 1_555
Al5 O16 1.915387 1_555
Al5 O37 1.928638 1_555
Al5 O5 1.928845 1_555
Al5 O45 1.965900 1_555
Al6 O26 1.890352 1_555
Al6 O12 1.899938 1_555
Al6 O19 1.915387 1_555
Al6 O38 1.928638 1_555
Al6 O6 1.928845 1_555
Al6 O46 1.965900 1_555
Al7 O27 1.890352 1_555
Al7 O13 1.899938 1_555
Al7 O18 1.915387 1_555
Al7 O39 1.928638 1_555
Al7 O7 1.928845 1_555
Al7 O47 1.965900 1_555
As0 O8 1.709524 1_455
As0 O0 1.719806 1_565
As0 O16 1.723460 1_555
As0 O24 1.726155 1_455
As1 O9 1.709524 1_555
As1 O1 1.719806 1_555
As1 O17 1.723460 1_555
As1 O25 1.726155 1_555
As2 O10 1.709524 1_655
As2 O2 1.719806 1_555
As2 O18 1.723460 1_555
As2 O26 1.726155 1_655
As3 O11 1.709524 1_555
As3 O3 1.719806 1_545
As3 O19 1.723460 1_555
As3 O27 1.726155 1_555
As4 O12 1.709524 1_655
As4 O4 1.719806 1_545
As4 O20 1.723460 1_555
As4 O28 1.726155 1_655
As5 O13 1.709524 1_555
As5 O5 1.719806 1_555
As5 O21 1.723460 1_555
As5 O29 1.726155 1_555
As6 O14 1.709524 1_455
As6 O6 1.719806 1_555
As6 O22 1.723460 1_555
As6 O30 1.726155 1_455
As7 O15 1.709524 1_555
As7 O7 1.719806 1_565
As7 O23 1.723460 1_555
As7 O31 1.726155 1_555
H0 O32 1.011821 1_555
H0 O26 1.590761 1_555
H1 O33 1.011821 1_555
H1 O27 1.590761 1_555
H2 O34 1.011821 1_555
H2 O24 1.590761 1_555
H3 O35 1.011821 1_555
H3 O25 1.590761 1_555
H4 O36 1.011821 1_555
H4 O30 1.590761 1_555
H5 O37 1.011821 1_555
H5 O31 1.590761 1_555
H6 O38 1.011821 1_555
H6 O28 1.590761 1_555
H7 O39 1.011821 1_555
H7 O29 1.590761 1_555
H8 O32 0.997384 1_555
H9 O33 0.997384 1_555
H10 O34 0.997384 1_555
H11 O35 0.997384 1_555
H12 O36 0.997384 1_555
H13 O37 0.997384 1_555
H14 O38 0.997384 1_555
H15 O39 0.997384 1_555
H16 O40 0.977885 1_556
H17 O41 0.977885 1_554
H18 O42 0.977885 1_555
H19 O43 0.977885 1_555
H20 O44 0.977885 1_554
H21 O45 0.977885 1_556
H22 O46 0.977885 1_555
H23 O47 0.977885 1_555
H24 O40 1.017913 1_565
H24 O16 1.562618 1_555
H25 O41 1.017913 1_555
H25 O17 1.562618 1_555
H26 O42 1.017913 1_555
H26 O18 1.562618 1_555
H27 O43 1.017913 1_545
H27 O19 1.562618 1_555
H28 O44 1.017913 1_545
H28 O20 1.562618 1_555
H29 O45 1.017913 1_555
H29 O21 1.562618 1_555
H30 O46 1.017913 1_555
H30 O22 1.562618 1_555
H31 O47 1.017913 1_565
H31 O23 1.562618 1_555
