# generated using pymatgen
data_CsUCrO6
_symmetry_space_group_name_H-M   'P 1'
_cell_length_a   8.44207900
_cell_length_b   7.59126200
_cell_length_c   10.63929756
_cell_angle_alpha   74.46079037
_cell_angle_beta   90.00000000
_cell_angle_gamma   90.00000000
_symmetry_Int_Tables_number   1
_chemical_formula_structural   CsUCrO6
_chemical_formula_sum   'Cs4 U4 Cr4 O24'
_cell_volume   656.90767019
_cell_formula_units_Z   4
loop_
 _symmetry_equiv_pos_site_id
 _symmetry_equiv_pos_as_xyz
  1  'x, y, z'
loop_
 _atom_site_type_symbol
 _atom_site_label
 _atom_site_symmetry_multiplicity
 _atom_site_fract_x
 _atom_site_fract_y
 _atom_site_fract_z
 _atom_site_occupancy
  Cs  Cs0  1  0.26161900  0.03773800  0.13292600  1
  Cs  Cs1  1  0.23838100  0.03773800  0.63292600  1
  Cs  Cs2  1  0.73838100  0.96226200  0.86707400  1
  Cs  Cs3  1  0.76161900  0.96226200  0.36707400  1
  U  U0  1  0.48242400  0.48935500  0.32284100  1
  U  U1  1  0.51757600  0.51064500  0.67715900  1
  U  U2  1  0.98242400  0.51064500  0.17715900  1
  U  U3  1  0.01757600  0.48935500  0.82284100  1
  Cr  Cr0  1  0.35664900  0.60319600  0.94333100  1
  Cr  Cr1  1  0.85664900  0.39680400  0.55666900  1
  Cr  Cr2  1  0.64335100  0.39680400  0.05666900  1
  Cr  Cr3  1  0.14335100  0.60319600  0.44333100  1
  O  O0  1  0.94558000  0.75882100  0.12240300  1
  O  O1  1  0.44042500  0.46717200  0.10536000  1
  O  O2  1  0.28880200  0.56482800  0.78781000  1
  O  O3  1  0.84314000  0.47421900  0.99338000  1
  O  O4  1  0.48037900  0.26340000  0.73705300  1
  O  O5  1  0.05957500  0.46717200  0.60536000  1
  O  O6  1  0.71119800  0.43517200  0.21219000  1
  O  O7  1  0.78880200  0.43517200  0.71219000  1
  O  O8  1  0.55442000  0.75882100  0.62240300  1
  O  O9  1  0.63303300  0.17948800  0.07193300  1
  O  O10  1  0.15686000  0.52578100  0.00662000  1
  O  O11  1  0.13303300  0.82051200  0.42806700  1
  O  O12  1  0.21119800  0.56482800  0.28781000  1
  O  O13  1  0.05442000  0.24117900  0.87759700  1
  O  O14  1  0.36696700  0.82051200  0.92806700  1
  O  O15  1  0.65686000  0.47421900  0.49338000  1
  O  O16  1  0.34314000  0.52578100  0.50662000  1
  O  O17  1  0.44558000  0.24117900  0.37759700  1
  O  O18  1  0.94042500  0.53282800  0.39464000  1
  O  O19  1  0.55957500  0.53282800  0.89464000  1
  O  O20  1  0.98037900  0.73660000  0.76294700  1
  O  O21  1  0.86696700  0.17948800  0.57193300  1
  O  O22  1  0.01962100  0.26340000  0.23705300  1
  O  O23  1  0.51962100  0.73660000  0.26294700  1
loop_
_geom_bond_atom_site_label_1
_geom_bond_atom_site_label_2
_geom_bond_distance
_geom_bond_site_symmetry_2
Cs0 O22 3.058172 1_555
Cs0 O14 3.191614 1_544
Cs0 O23 3.192042 1_545
Cs0 O13 3.252139 1_554
Cs0 O11 3.314128 1_545
Cs0 O9 3.322089 1_555
Cs0 O0 3.426515 1_445
Cs0 O1 3.532643 1_555
Cs0 O12 3.551753 1_545
Cs0 O10 3.694108 1_555
Cs0 O17 3.705026 1_555
Cs1 O4 3.058172 1_555
Cs1 O11 3.191614 1_545
Cs1 O20 3.192042 1_445
Cs1 O17 3.252139 1_555
Cs1 O14 3.314128 1_545
Cs1 O21 3.322089 1_455
Cs1 O8 3.426515 1_545
Cs1 O5 3.532643 1_555
Cs1 O2 3.551753 1_545
Cs1 O16 3.694108 1_555
Cs1 O13 3.705026 1_555
Cs2 O20 3.058172 1_555
Cs2 O9 3.191614 1_566
Cs2 O4 3.192042 1_565
Cs2 O0 3.252139 1_556
Cs2 O21 3.314128 1_565
Cs2 O14 3.322089 1_555
Cs2 O13 3.426515 1_665
Cs2 O19 3.532643 1_555
Cs2 O7 3.551753 1_565
Cs2 O3 3.694108 1_555
Cs2 O8 3.705026 1_555
Cs3 O23 3.058172 1_555
Cs3 O21 3.191614 1_565
Cs3 O22 3.192042 1_665
Cs3 O8 3.252139 1_555
Cs3 O9 3.314128 1_565
Cs3 O11 3.322089 1_655
Cs3 O17 3.426515 1_565
Cs3 O18 3.532643 1_555
Cs3 O6 3.551753 1_565
Cs3 O15 3.694108 1_555
Cs3 O0 3.705026 1_555
Cr0 O14 1.616148 1_555
Cr0 O2 1.846329 1_555
Cr0 O10 1.852426 1_556
Cr0 O1 1.893261 1_556
Cr0 O19 1.907027 1_555
Cr1 O21 1.616148 1_555
Cr1 O7 1.846329 1_555
Cr1 O15 1.852426 1_555
Cr1 O18 1.893261 1_555
Cr1 O5 1.907027 1_655
Cr2 O9 1.616148 1_555
Cr2 O6 1.846329 1_555
Cr2 O3 1.852426 1_554
Cr2 O19 1.893261 1_554
Cr2 O1 1.907027 1_555
Cr3 O11 1.616148 1_555
Cr3 O12 1.846329 1_555
Cr3 O16 1.852426 1_555
Cr3 O5 1.893261 1_555
Cr3 O18 1.907027 1_455
O0 U2 1.843207 1_555
O1 U0 2.390966 1_555
O2 U1 2.354691 1_555
O2 U3 2.365487 1_555
O3 U3 2.315634 1_655
O3 U2 2.360484 1_556
O4 U1 1.840274 1_555
O5 U3 2.390966 1_555
O6 U0 2.354691 1_555
O6 U2 2.365487 1_555
O7 U3 2.354691 1_655
O7 U1 2.365487 1_555
O8 U1 1.843207 1_555
O10 U2 2.315634 1_455
O10 U3 2.360484 1_554
O12 U2 2.354691 1_455
O12 U0 2.365487 1_555
O13 U3 1.843207 1_555
O15 U0 2.315634 1_555
O15 U1 2.360484 1_555
O16 U1 2.315634 1_555
O16 U0 2.360484 1_555
O17 U0 1.843207 1_555
O18 U2 2.390966 1_555
O19 U1 2.390966 1_555
O20 U3 1.840274 1_655
O22 U2 1.840274 1_455
O23 U0 1.840274 1_555
