# generated using pymatgen
data_La7(RuO6)3
_symmetry_space_group_name_H-M   'P 1'
_cell_length_a   19.75908802
_cell_length_b   19.75908819
_cell_length_c   19.75908843
_cell_angle_alpha   29.05831891
_cell_angle_beta   29.05831802
_cell_angle_gamma   29.05831887
_symmetry_Int_Tables_number   1
_chemical_formula_structural   La7(RuO6)3
_chemical_formula_sum   'La28 Ru12 O72'
_cell_volume   1609.77693914
_cell_formula_units_Z   4
loop_
 _symmetry_equiv_pos_site_id
 _symmetry_equiv_pos_as_xyz
  1  'x, y, z'
loop_
 _atom_site_type_symbol
 _atom_site_label
 _atom_site_symmetry_multiplicity
 _atom_site_fract_x
 _atom_site_fract_y
 _atom_site_fract_z
 _atom_site_occupancy
  La  La0  1  0.99426003  0.43571058  0.72169773  1
  La  La1  1  0.39657767  0.39657767  0.39657767  1
  La  La2  1  0.56428942  0.27830227  0.00573997  1
  La  La3  1  0.06428942  0.50573997  0.77830227  1
  La  La4  1  0.55134742  0.81349376  0.19787600  1
  La  La5  1  0.80212400  0.44865258  0.18650624  1
  La  La6  1  0.94865258  0.30212400  0.68650624  1
  La  La7  1  0.27830227  0.00573997  0.56428942  1
  La  La8  1  0.10342233  0.10342233  0.10342233  1
  La  La9  1  0.89657767  0.89657767  0.89657767  1
  La  La10  1  0.77830227  0.06428942  0.50573997  1
  La  La11  1  0.69787600  0.31349376  0.05134742  1
  La  La12  1  0.44865258  0.18650624  0.80212400  1
  La  La13  1  0.18650624  0.80212400  0.44865258  1
  La  La14  1  0.31349376  0.05134742  0.69787600  1
  La  La15  1  0.19787600  0.55134742  0.81349376  1
  La  La16  1  0.43571058  0.72169773  0.99426003  1
  La  La17  1  0.22169773  0.93571058  0.49426003  1
  La  La18  1  0.30212400  0.68650624  0.94865258  1
  La  La19  1  0.68650624  0.94865258  0.30212400  1
  La  La20  1  0.93571058  0.49426003  0.22169773  1
  La  La21  1  0.60342233  0.60342233  0.60342233  1
  La  La22  1  0.05134742  0.69787600  0.31349376  1
  La  La23  1  0.49426003  0.22169773  0.93571058  1
  La  La24  1  0.50573997  0.77830227  0.06428942  1
  La  La25  1  0.81349376  0.19787600  0.55134742  1
  La  La26  1  0.00573997  0.56428942  0.27830227  1
  La  La27  1  0.72169773  0.99426003  0.43571058  1
  Ru  Ru0  1  0.08006140  0.75000000  0.41993860  1
  Ru  Ru1  1  0.41993860  0.08006140  0.75000000  1
  Ru  Ru2  1  0.25000000  0.58006140  0.91993860  1
  Ru  Ru3  1  0.16143155  0.16143155  0.16143155  1
  Ru  Ru4  1  0.75000000  0.41993860  0.08006140  1
  Ru  Ru5  1  0.58006140  0.91993860  0.25000000  1
  Ru  Ru6  1  0.50000000  0.50000000  0.50000000  1
  Ru  Ru7  1  0.66143155  0.66143155  0.66143155  1
  Ru  Ru8  1  0.91993860  0.25000000  0.58006140  1
  Ru  Ru9  1  0.33856845  0.33856845  0.33856845  1
  Ru  Ru10  1  0.00000000  0.00000000  0.00000000  1
  Ru  Ru11  1  0.83856845  0.83856845  0.83856845  1
  O  O0  1  0.79165778  0.29877163  0.73299308  1
  O  O1  1  0.07504472  0.32701599  0.01724051  1
  O  O2  1  0.21943398  0.42696752  0.02073976  1
  O  O3  1  0.66907350  0.06143047  0.02104410  1
  O  O4  1  0.78056602  0.57303248  0.97926024  1
  O  O5  1  0.70834222  0.76700692  0.20122837  1
  O  O6  1  0.19567163  0.51438603  0.25444702  1
  O  O7  1  0.71943398  0.52073976  0.92696752  1
  O  O8  1  0.28056602  0.47926024  0.07303248  1
  O  O9  1  0.83092650  0.47895590  0.43856953  1
  O  O10  1  0.29165778  0.23299308  0.79877163  1
  O  O11  1  0.33092650  0.93856953  0.97895590  1
  O  O12  1  0.57303248  0.97926024  0.78056602  1
  O  O13  1  0.92696752  0.71943398  0.52073976  1
  O  O14  1  0.29877163  0.73299308  0.79165778  1
  O  O15  1  0.80432837  0.48561397  0.74555298  1
  O  O16  1  0.43856953  0.83092650  0.47895590  1
  O  O17  1  0.74555298  0.80432837  0.48561397  1
  O  O18  1  0.76700692  0.20122837  0.70834222  1
  O  O19  1  0.01869041  0.18779366  0.85137816  1
  O  O20  1  0.51724051  0.82701599  0.57504472  1
  O  O21  1  0.47895590  0.43856953  0.83092650  1
  O  O22  1  0.01724051  0.07504472  0.32701599  1
  O  O23  1  0.02073976  0.21943398  0.42696752  1
  O  O24  1  0.20122837  0.70834222  0.76700692  1
  O  O25  1  0.92495528  0.67298401  0.98275949  1
  O  O26  1  0.24555298  0.98561397  0.30432837  1
  O  O27  1  0.32701599  0.01724051  0.07504472  1
  O  O28  1  0.26700692  0.20834222  0.70122837  1
  O  O29  1  0.85137816  0.01869041  0.18779366  1
  O  O30  1  0.97895590  0.33092650  0.93856953  1
  O  O31  1  0.82701599  0.57504472  0.51724051  1
  O  O32  1  0.48275949  0.17298401  0.42495528  1
  O  O33  1  0.67298401  0.98275949  0.92495528  1
  O  O34  1  0.52104410  0.56143047  0.16907350  1
  O  O35  1  0.07303248  0.28056602  0.47926024  1
  O  O36  1  0.20834222  0.70122837  0.26700692  1
  O  O37  1  0.23299308  0.79877163  0.29165778  1
  O  O38  1  0.70122837  0.26700692  0.20834222  1
  O  O39  1  0.18779366  0.85137816  0.01869041  1
  O  O40  1  0.17298401  0.42495528  0.48275949  1
  O  O41  1  0.14862184  0.98130959  0.81220634  1
  O  O42  1  0.42696752  0.02073976  0.21943398  1
  O  O43  1  0.98561397  0.30432837  0.24555298  1
  O  O44  1  0.42495528  0.48275949  0.17298401  1
  O  O45  1  0.69567163  0.75444702  0.01438603  1
  O  O46  1  0.79877163  0.29165778  0.23299308  1
  O  O47  1  0.16907350  0.52104410  0.56143047  1
  O  O48  1  0.48130959  0.64862184  0.31220634  1
  O  O49  1  0.51869041  0.35137816  0.68779366  1
  O  O50  1  0.52073976  0.92696752  0.71943398  1
  O  O51  1  0.06143047  0.02104410  0.66907350  1
  O  O52  1  0.25444702  0.19567163  0.51438603  1
  O  O53  1  0.02104410  0.66907350  0.06143047  1
  O  O54  1  0.97926024  0.78056602  0.57303248  1
  O  O55  1  0.51438603  0.25444702  0.19567163  1
  O  O56  1  0.93856953  0.97895590  0.33092650  1
  O  O57  1  0.30432837  0.24555298  0.98561397  1
  O  O58  1  0.98275949  0.92495528  0.67298401  1
  O  O59  1  0.64862184  0.31220634  0.48130959  1
  O  O60  1  0.56143047  0.16907350  0.52104410  1
  O  O61  1  0.35137816  0.68779366  0.51869041  1
  O  O62  1  0.47926024  0.07303248  0.28056602  1
  O  O63  1  0.01438603  0.69567163  0.75444702  1
  O  O64  1  0.81220634  0.14862184  0.98130959  1
  O  O65  1  0.48561397  0.74555298  0.80432837  1
  O  O66  1  0.31220634  0.48130959  0.64862184  1
  O  O67  1  0.73299308  0.79165778  0.29877163  1
  O  O68  1  0.75444702  0.01438603  0.69567163  1
  O  O69  1  0.98130959  0.81220634  0.14862184  1
  O  O70  1  0.68779366  0.51869041  0.35137816  1
  O  O71  1  0.57504472  0.51724051  0.82701599  1
loop_
_geom_bond_atom_site_label_1
_geom_bond_atom_site_label_2
_geom_bond_distance
_geom_bond_site_symmetry_2
La0 O30 2.461559 1_555
La0 O40 2.469831 1_655
La0 O7 2.493902 1_555
La0 O13 2.498984 1_555
La0 O28 2.535503 1_655
La0 O47 2.554711 1_655
La0 O15 2.555213 1_555
La0 O19 2.622864 1_655
La1 O34 2.438145 1_555
La1 O47 2.438145 1_555
La1 O60 2.438145 1_555
La1 O40 2.630354 1_555
La1 O32 2.630354 1_555
La1 O44 2.630354 1_555
La1 O38 2.680779 1_555
La1 O28 2.680779 1_555
La1 O36 2.680779 1_555
La2 O3 2.461559 1_555
La2 O71 2.469831 1_554
La2 O62 2.493902 1_555
La2 O8 2.498984 1_555
La2 O0 2.535503 1_554
La2 O21 2.554711 1_554
La2 O55 2.555213 1_555
La2 O64 2.622864 1_554
La3 O47 2.461559 1_555
La3 O1 2.469831 1_556
La3 O54 2.493902 1_455
La3 O4 2.498984 1_455
La3 O10 2.535503 1_555
La3 O30 2.554711 1_455
La3 O63 2.555213 1_555
La3 O66 2.622864 1_555
La4 O5 2.396332 1_555
La4 O33 2.430227 1_554
La4 O45 2.478196 1_555
La4 O70 2.520321 1_555
La4 O42 2.572026 1_565
La4 O26 2.619385 1_555
La4 O48 2.679792 1_555
La4 O61 2.794225 1_555
La5 O46 2.396332 1_555
La5 O1 2.430227 1_655
La5 O43 2.478196 1_555
La5 O59 2.520321 1_555
La5 O4 2.572026 1_554
La5 O45 2.619385 1_555
La5 O70 2.679792 1_555
La5 O48 2.794225 1_555
La6 O0 2.396332 1_555
La6 O31 2.430227 1_555
La6 O15 2.478196 1_555
La6 O64 2.520321 1_555
La6 O35 2.572026 1_655
La6 O52 2.619385 1_655
La6 O19 2.679792 1_655
La6 O41 2.794225 1_645
La7 O51 2.461559 1_555
La7 O20 2.469831 1_545
La7 O35 2.493902 1_555
La7 O62 2.498984 1_555
La7 O14 2.535503 1_545
La7 O16 2.554711 1_545
La7 O52 2.555213 1_555
La7 O41 2.622864 1_545
La8 O56 2.438145 1_445
La8 O11 2.438145 1_544
La8 O30 2.438145 1_454
La8 O27 2.630354 1_555
La8 O1 2.630354 1_555
La8 O22 2.630354 1_555
La8 O10 2.680779 1_554
La8 O46 2.680779 1_455
La8 O37 2.680779 1_545
La9 O51 2.438145 1_665
La9 O3 2.438145 1_566
La9 O53 2.438145 1_656
La9 O33 2.630354 1_555
La9 O25 2.630354 1_555
La9 O58 2.630354 1_555
La9 O5 2.680779 1_556
La9 O24 2.680779 1_655
La9 O18 2.680779 1_565
La10 O60 2.461559 1_555
La10 O22 2.469831 1_655
La10 O12 2.493902 1_545
La10 O54 2.498984 1_545
La10 O46 2.535503 1_555
La10 O56 2.554711 1_545
La10 O68 2.555213 1_555
La10 O59 2.622864 1_555
La11 O38 2.396332 1_555
La11 O44 2.430227 1_555
La11 O55 2.478195 1_555
La11 O29 2.520321 1_555
La11 O7 2.572026 1_554
La11 O15 2.619385 1_554
La11 O64 2.679792 1_554
La11 O19 2.794225 1_654
La12 O10 2.396332 1_555
La12 O27 2.430227 1_556
La12 O57 2.478196 1_555
La12 O66 2.520321 1_555
La12 O12 2.572026 1_545
La12 O68 2.619385 1_555
La12 O49 2.679792 1_555
La12 O59 2.794225 1_555
La13 O37 2.396332 1_555
La13 O22 2.430227 1_565
La13 O26 2.478196 1_555
La13 O48 2.520321 1_555
La13 O54 2.572026 1_455
La13 O63 2.619385 1_555
La13 O61 2.679792 1_555
La13 O66 2.794225 1_555
La14 O28 2.396332 1_555
La14 O32 2.430227 1_555
La14 O52 2.478196 1_555
La14 O19 2.520321 1_555
La14 O50 2.572026 1_545
La14 O65 2.619385 1_545
La14 O41 2.679792 1_545
La14 O39 2.794225 1_546
La15 O24 2.396332 1_555
La15 O25 2.430227 1_455
La15 O63 2.478196 1_555
La15 O61 2.520321 1_555
La15 O2 2.572026 1_556
La15 O57 2.619385 1_555
La15 O66 2.679792 1_555
La15 O49 2.794225 1_555
La16 O11 2.461559 1_555
La16 O44 2.469831 1_556
La16 O50 2.493902 1_555
La16 O7 2.498984 1_555
La16 O36 2.535503 1_556
La16 O34 2.554711 1_556
La16 O65 2.555213 1_555
La16 O39 2.622864 1_556
La17 O16 2.461559 1_555
La17 O58 2.469831 1_455
La17 O42 2.493902 1_565
La17 O23 2.498984 1_565
La17 O24 2.535503 1_555
La17 O51 2.554711 1_565
La17 O26 2.555213 1_555
La17 O61 2.622864 1_555
La18 O14 2.396332 1_555
La18 O71 2.430227 1_555
La18 O65 2.478195 1_555
La18 O41 2.520321 1_555
La18 O8 2.572026 1_556
La18 O6 2.619385 1_556
La18 O39 2.679792 1_556
La18 O69 2.794225 1_456
La19 O67 2.396332 1_555
La19 O20 2.430227 1_555
La19 O17 2.478196 1_555
La19 O69 2.520321 1_555
La19 O62 2.572026 1_565
La19 O55 2.619385 1_565
La19 O29 2.679792 1_565
La19 O64 2.794225 1_564
La20 O9 2.461559 1_555
La20 O25 2.469831 1_554
La20 O23 2.493902 1_655
La20 O2 2.498984 1_655
La20 O5 2.535503 1_555
La20 O53 2.554711 1_655
La20 O43 2.555213 1_555
La20 O70 2.622864 1_555
La21 O21 2.438145 1_555
La21 O9 2.438145 1_555
La21 O16 2.438145 1_555
La21 O31 2.630354 1_555
La21 O20 2.630354 1_555
La21 O71 2.630354 1_555
La21 O14 2.680779 1_555
La21 O67 2.680779 1_555
La21 O0 2.680779 1_555
La22 O36 2.396332 1_555
La22 O40 2.430227 1_555
La22 O6 2.478196 1_555
La22 O39 2.520321 1_555
La22 O13 2.572026 1_455
La22 O17 2.619385 1_455
La22 O69 2.679792 1_455
La22 O29 2.794225 1_465
La23 O21 2.461559 1_555
La23 O33 2.469831 1_545
La23 O2 2.493902 1_556
La23 O42 2.498984 1_556
La23 O18 2.535503 1_555
La23 O3 2.554711 1_556
La23 O57 2.555213 1_555
La23 O49 2.622864 1_555
La24 O34 2.461559 1_555
La24 O27 2.469831 1_565
La24 O4 2.493902 1_554
La24 O12 2.498984 1_554
La24 O37 2.535503 1_555
La24 O11 2.554711 1_554
La24 O45 2.555213 1_555
La24 O48 2.622864 1_555
La25 O18 2.396332 1_555
La25 O58 2.430227 1_545
La25 O68 2.478196 1_555
La25 O49 2.520321 1_555
La25 O23 2.572026 1_655
La25 O43 2.619385 1_555
La25 O59 2.679792 1_555
La25 O70 2.794225 1_555
La26 O53 2.461559 1_555
La26 O31 2.469831 1_455
La26 O8 2.493902 1_555
La26 O35 2.498984 1_555
La26 O67 2.535503 1_455
La26 O9 2.554711 1_455
La26 O6 2.555213 1_555
La26 O69 2.622864 1_455
La27 O56 2.461559 1_555
La27 O32 2.469831 1_565
La27 O13 2.493902 1_555
La27 O50 2.498984 1_555
La27 O38 2.535503 1_565
La27 O60 2.554711 1_565
La27 O17 2.555213 1_555
La27 O29 2.622864 1_565
O0 Ru8 1.978579 1_555
O1 Ru3 2.043905 1_555
O2 Ru2 2.010012 1_554
O3 Ru5 1.987517 1_545
O4 Ru4 2.010012 1_556
O5 Ru5 1.978579 1_555
O6 Ru9 1.940374 1_555
O7 Ru4 2.010012 1_556
O8 Ru2 2.010012 1_554
O9 Ru8 1.987517 1_555
O10 Ru1 1.978579 1_555
O11 Ru1 1.987517 1_565
O12 Ru1 2.010012 1_565
O13 Ru0 2.010012 1_655
O14 Ru2 1.978579 1_555
O15 Ru7 1.940374 1_555
O16 Ru5 1.987517 1_555
O17 Ru7 1.940374 1_555
O18 Ru8 1.978579 1_555
O19 Ru10 1.994600 1_556
O20 Ru7 2.043905 1_555
O21 Ru2 1.987517 1_555
O22 Ru3 2.043905 1_555
O23 Ru8 2.010012 1_455
O24 Ru2 1.978579 1_555
O25 Ru11 2.043905 1_555
O26 Ru3 1.940374 1_565
O27 Ru3 2.043905 1_555
O28 Ru1 1.978579 1_555
O29 Ru10 1.994600 1_655
O30 Ru4 1.987517 1_556
O31 Ru7 2.043905 1_555
O32 Ru9 2.043905 1_555
O33 Ru11 2.043905 1_555
O34 Ru4 1.987517 1_555
O35 Ru8 2.010012 1_455
O36 Ru0 1.978579 1_555
O37 Ru0 1.978579 1_555
O38 Ru4 1.978579 1_555
O39 Ru10 1.994600 1_565
O40 Ru9 2.043905 1_555
O41 Ru10 1.994600 1_566
O42 Ru5 2.010012 1_545
O43 Ru3 1.940374 1_655
O44 Ru9 2.043905 1_555
O45 Ru11 1.940374 1_554
O46 Ru4 1.978579 1_555
O47 Ru0 1.987517 1_555
O48 Ru6 1.994600 1_555
O49 Ru6 1.994600 1_555
O50 Ru1 2.010012 1_565
O51 Ru8 1.987517 1_455
O52 Ru9 1.940374 1_555
O53 Ru2 1.987517 1_554
O54 Ru0 2.010012 1_655
O55 Ru9 1.940374 1_555
O56 Ru0 1.987517 1_655
O57 Ru3 1.940374 1_556
O58 Ru11 2.043905 1_555
O59 Ru6 1.994600 1_555
O60 Ru1 1.987517 1_555
O61 Ru6 1.994600 1_555
O62 Ru5 2.010012 1_545
O63 Ru11 1.940374 1_455
O64 Ru10 1.994600 1_656
O65 Ru7 1.940374 1_555
O66 Ru6 1.994600 1_555
O67 Ru5 1.978579 1_555
O68 Ru11 1.940374 1_545
O69 Ru10 1.994600 1_665
O70 Ru6 1.994600 1_555
O71 Ru7 2.043905 1_555
