# generated using pymatgen
data_Tb(IO3)3
_symmetry_space_group_name_H-M   'P 1'
_cell_length_a   5.96351102
_cell_length_b   8.70440314
_cell_length_c   16.45137285
_cell_angle_alpha   65.41129182
_cell_angle_beta   90.00000000
_cell_angle_gamma   90.00000000
_symmetry_Int_Tables_number   1
_chemical_formula_structural   Tb(IO3)3
_chemical_formula_sum   'Tb4 I12 O36'
_cell_volume   776.53139608
_cell_formula_units_Z   4
loop_
 _symmetry_equiv_pos_site_id
 _symmetry_equiv_pos_as_xyz
  1  'x, y, z'
loop_
 _atom_site_type_symbol
 _atom_site_label
 _atom_site_symmetry_multiplicity
 _atom_site_fract_x
 _atom_site_fract_y
 _atom_site_fract_z
 _atom_site_occupancy
  Tb  Tb0  1  0.28376773  0.14497448  0.39780795  1
  Tb  Tb1  1  0.21623227  0.14497448  0.89780795  1
  Tb  Tb2  1  0.78376773  0.85502552  0.10219205  1
  Tb  Tb3  1  0.71623227  0.85502552  0.60219205  1
  I  I0  1  0.14902951  0.64277198  0.02104120  1
  I  I1  1  0.68581894  0.92543493  0.85421009  1
  I  I2  1  0.31418106  0.07456507  0.14578991  1
  I  I3  1  0.18581894  0.07456507  0.64578991  1
  I  I4  1  0.40217140  0.58156501  0.80016106  1
  I  I5  1  0.59782860  0.41843499  0.19983894  1
  I  I6  1  0.81418106  0.92543493  0.35421009  1
  I  I7  1  0.90217140  0.41843499  0.69983894  1
  I  I8  1  0.85097049  0.35722802  0.97895880  1
  I  I9  1  0.35097049  0.64277198  0.52104120  1
  I  I10  1  0.09782860  0.58156501  0.30016106  1
  I  I11  1  0.64902951  0.35722802  0.47895880  1
  O  O0  1  0.41119572  0.65988451  0.88677851  1
  O  O1  1  0.11670960  0.11338090  0.53204763  1
  O  O2  1  0.52633373  0.60483757  0.61836217  1
  O  O3  1  0.97366627  0.60483757  0.11836217  1
  O  O4  1  0.60831938  0.09479074  0.32973671  1
  O  O5  1  0.39168062  0.90520926  0.67026329  1
  O  O6  1  0.44092409  0.05834311  0.80831542  1
  O  O7  1  0.47366627  0.39516243  0.38163783  1
  O  O8  1  0.91119572  0.34011549  0.61322149  1
  O  O9  1  0.58880428  0.34011549  0.11322149  1
  O  O10  1  0.42725548  0.35549910  0.55741839  1
  O  O11  1  0.10831938  0.90520926  0.17026329  1
  O  O12  1  0.88222102  0.12899327  0.01209961  1
  O  O13  1  0.92725548  0.64450090  0.94258161  1
  O  O14  1  0.61670960  0.88661910  0.96795237  1
  O  O15  1  0.94092409  0.94165689  0.69168458  1
  O  O16  1  0.55907591  0.94165689  0.19168458  1
  O  O17  1  0.89168062  0.09479074  0.82973671  1
  O  O18  1  0.07274452  0.35549910  0.05741839  1
  O  O19  1  0.00878916  0.36378442  0.36488079  1
  O  O20  1  0.02633373  0.39516243  0.88163783  1
  O  O21  1  0.57274452  0.64450090  0.44258161  1
  O  O22  1  0.50878916  0.63621558  0.13511921  1
  O  O23  1  0.08880428  0.65988451  0.38677851  1
  O  O24  1  0.32109168  0.34368001  0.24423123  1
  O  O25  1  0.11777898  0.87100673  0.98790039  1
  O  O26  1  0.05907591  0.05834311  0.30831542  1
  O  O27  1  0.38329040  0.11338090  0.03204763  1
  O  O28  1  0.61777898  0.12899327  0.51209961  1
  O  O29  1  0.38222102  0.87100673  0.48790039  1
  O  O30  1  0.82109168  0.65631999  0.25576877  1
  O  O31  1  0.67890832  0.65631999  0.75576877  1
  O  O32  1  0.99121084  0.63621558  0.63511921  1
  O  O33  1  0.88329040  0.88661910  0.46795237  1
  O  O34  1  0.49121084  0.36378442  0.86488079  1
  O  O35  1  0.17890832  0.34368001  0.74423123  1
loop_
_geom_bond_atom_site_label_1
_geom_bond_atom_site_label_2
_geom_bond_distance
_geom_bond_site_symmetry_2
I0 O3 1.823769 1_455
I0 O25 1.837759 1_554
I0 O13 1.843715 1_454
I0 O18 2.360602 1_555
I1 O14 1.805359 1_555
I1 O6 1.820551 1_565
I1 O17 1.829867 1_565
I1 O13 2.684749 1_555
I2 O27 1.805359 1_555
I2 O16 1.820551 1_545
I2 O11 1.829867 1_545
I2 O18 2.684749 1_555
I3 O1 1.805359 1_555
I3 O15 1.820551 1_445
I3 O5 1.829867 1_545
I3 O10 2.684749 1_555
I4 O31 1.812418 1_555
I4 O0 1.818416 1_555
I4 O34 1.824666 1_555
I5 O24 1.812418 1_555
I5 O9 1.818416 1_555
I5 O22 1.824666 1_555
I6 O33 1.805359 1_555
I6 O26 1.820551 1_665
I6 O4 1.829867 1_565
I6 O21 2.684749 1_555
I7 O35 1.812418 1_655
I7 O8 1.818416 1_555
I7 O32 1.824666 1_555
I8 O20 1.823769 1_655
I8 O12 1.837759 1_556
I8 O18 1.843715 1_656
I8 O13 2.360602 1_555
I9 O2 1.823769 1_555
I9 O29 1.837759 1_555
I9 O21 1.843715 1_555
I9 O10 2.360602 1_555
I10 O30 1.812418 1_455
I10 O23 1.818416 1_555
I10 O19 1.824666 1_555
I11 O7 1.823769 1_555
I11 O28 1.837759 1_555
I11 O10 1.843715 1_555
I11 O21 2.360602 1_555
O1 Tb0 2.332355 1_555
O2 Tb3 2.369316 1_555
O3 Tb2 2.369316 1_555
O4 Tb0 2.366018 1_555
O5 Tb3 2.366018 1_555
O6 Tb1 2.335725 1_555
O7 Tb0 2.369316 1_555
O11 Tb2 2.366018 1_455
O12 Tb2 2.299339 1_545
O12 Tb1 2.702707 1_654
O14 Tb2 2.332355 1_556
O15 Tb3 2.335725 1_555
O16 Tb2 2.335725 1_555
O17 Tb1 2.366018 1_655
O19 Tb0 2.398216 1_555
O20 Tb1 2.369316 1_555
O22 Tb2 2.398216 1_555
O24 Tb0 2.405798 1_555
O25 Tb1 2.299339 1_565
O25 Tb2 2.702707 1_456
O26 Tb0 2.335725 1_555
O27 Tb1 2.332355 1_554
O28 Tb3 2.299339 1_545
O28 Tb0 2.702707 1_555
O29 Tb0 2.299339 1_565
O29 Tb3 2.702707 1_555
O30 Tb2 2.405798 1_555
O31 Tb3 2.405798 1_555
O32 Tb3 2.398216 1_555
O33 Tb3 2.332355 1_555
O34 Tb1 2.398216 1_555
O35 Tb1 2.405798 1_555
