# generated using pymatgen
data_Cs3Ru2Cl9
_symmetry_space_group_name_H-M   'P 1'
_cell_length_a   7.32403622
_cell_length_b   7.32402811
_cell_length_c   17.73420393
_cell_angle_alpha   89.99982571
_cell_angle_beta   90.00021656
_cell_angle_gamma   120.00020056
_symmetry_Int_Tables_number   1
_chemical_formula_structural   Cs3Ru2Cl9
_chemical_formula_sum   'Cs6 Ru4 Cl18'
_cell_volume   823.83822307
_cell_formula_units_Z   2
loop_
 _symmetry_equiv_pos_site_id
 _symmetry_equiv_pos_as_xyz
  1  'x, y, z'
loop_
 _atom_site_type_symbol
 _atom_site_label
 _atom_site_symmetry_multiplicity
 _atom_site_fract_x
 _atom_site_fract_y
 _atom_site_fract_z
 _atom_site_occupancy
  Cs  Cs0  1  -0.00000010  -0.00000011  0.25003448  1
  Cs  Cs1  1  -0.00000002  -0.00000001  0.74996381  1
  Cs  Cs2  1  0.33333269  0.66666681  0.07211281  1
  Cs  Cs3  1  0.66666546  0.33333467  0.57214342  1
  Cs  Cs4  1  0.66666520  0.33333478  0.92784557  1
  Cs  Cs5  1  0.33333270  0.66666717  0.42784952  1
  Ru  Ru0  1  0.33333149  0.66666753  0.82477998  1
  Ru  Ru1  1  0.66666800  0.33333190  0.32484925  1
  Ru  Ru2  1  0.66666724  0.33333272  0.17520986  1
  Ru  Ru3  1  0.33333328  0.66666799  0.67514397  1
  Cl  Cl0  1  0.50921138  0.01841871  0.25002334  1
  Cl  Cl1  1  0.49077592  0.50922250  0.74999291  1
  Cl  Cl2  1  0.01844134  0.50922147  0.74999033  1
  Cl  Cl3  1  0.98158083  0.49078976  0.25002342  1
  Cl  Cl4  1  0.50921094  0.49078786  0.25002398  1
  Cl  Cl5  1  0.49078388  0.98156007  0.74999166  1
  Cl  Cl6  1  0.81749065  0.63498140  0.09830496  1
  Cl  Cl7  1  0.18251209  0.81748946  0.59826835  1
  Cl  Cl8  1  0.63497624  0.81748850  0.59826873  1
  Cl  Cl9  1  0.36501873  0.18250817  0.09830495  1
  Cl  Cl10  1  0.81749122  0.18251006  0.09830485  1
  Cl  Cl11  1  0.18250622  0.36502037  0.90168650  1
  Cl  Cl12  1  0.18251261  0.81749294  0.90168616  1
  Cl  Cl13  1  0.18251022  0.36502381  0.59826875  1
  Cl  Cl14  1  0.63497578  0.81748801  0.90168685  1
  Cl  Cl15  1  0.36503322  0.18251249  0.40174749  1
  Cl  Cl16  1  0.81748617  0.63496679  0.40174749  1
  Cl  Cl17  1  0.81748560  0.18251516  0.40174860  1
loop_
_geom_bond_atom_site_label_1
_geom_bond_atom_site_label_2
_geom_bond_distance
_geom_bond_site_symmetry_2
Cl0 Ru2 2.397917 1_555
Cl0 Ru1 2.398038 1_555
Cl0 Cs0 3.663866 1_655
Cl0 Cs0 3.663896 1_555
Cl0 Cs5 3.863022 1_545
Cl0 Cs2 3.864250 1_545
Cl1 Ru0 2.397540 1_555
Cl1 Ru3 2.398132 1_555
Cl1 Cs1 3.663868 1_555
Cl1 Cs1 3.663880 1_665
Cl1 Cs3 3.863469 1_555
Cl1 Cs4 3.863499 1_555
Cl2 Ru0 2.397558 1_555
Cl2 Ru3 2.398130 1_555
Cl2 Cs1 3.663876 1_565
Cl2 Cs1 3.663887 1_555
Cl2 Cs3 3.863411 1_455
Cl2 Cs4 3.863542 1_455
Cl3 Ru2 2.397916 1_555
Cl3 Ru1 2.398039 1_555
Cl3 Cs0 3.663873 1_655
Cl3 Cs0 3.663881 1_665
Cl3 Cs5 3.863022 1_655
Cl3 Cs2 3.864255 1_655
Cl4 Ru2 2.397922 1_555
Cl4 Ru1 2.398031 1_555
Cl4 Cs0 3.663865 1_555
Cl4 Cs0 3.663872 1_665
Cl4 Cs5 3.863049 1_555
Cl4 Cs2 3.864274 1_555
Cl5 Ru0 2.397557 1_555
Cl5 Ru3 2.398140 1_555
Cl5 Cs1 3.663857 1_665
Cl5 Cs1 3.663914 1_565
Cl5 Cs3 3.863426 1_565
Cl5 Cs4 3.863514 1_565
Cl6 Ru2 2.349629 1_555
Cl6 Cs0 3.549751 1_665
Cl6 Cs4 3.577562 1_554
Cl6 Cs2 3.696823 1_655
Cl6 Cs2 3.696830 1_555
Cl7 Ru3 2.349299 1_555
Cl7 Cs1 3.549321 1_565
Cl7 Cs5 3.576949 1_555
Cl7 Cs3 3.696661 1_565
Cl7 Cs3 3.696671 1_455
Cl8 Ru3 2.349300 1_555
Cl8 Cs1 3.549305 1_665
Cl8 Cs5 3.576944 1_555
Cl8 Cs3 3.696666 1_555
Cl8 Cs3 3.696684 1_565
Cl9 Ru2 2.349629 1_555
Cl9 Cs0 3.549757 1_555
Cl9 Cs4 3.577564 1_554
Cl9 Cs2 3.696811 1_545
Cl9 Cs2 3.696834 1_555
Cl10 Ru2 2.349631 1_555
Cl10 Cs0 3.549751 1_655
Cl10 Cs4 3.577569 1_554
Cl10 Cs2 3.696807 1_655
Cl10 Cs2 3.696819 1_545
Cl11 Ru0 2.349638 1_555
Cl11 Cs1 3.549667 1_555
Cl11 Cs2 3.577065 1_556
Cl11 Cs4 3.696741 1_455
Cl11 Cs4 3.696764 1_555
Cl12 Ru0 2.349631 1_555
Cl12 Cs1 3.549656 1_565
Cl12 Cs2 3.577065 1_556
Cl12 Cs4 3.696721 1_565
Cl12 Cs4 3.696763 1_455
Cl13 Ru3 2.349303 1_555
Cl13 Cs1 3.549306 1_555
Cl13 Cs5 3.576944 1_555
Cl13 Cs3 3.696678 1_455
Cl13 Cs3 3.696680 1_555
Cl14 Ru0 2.349627 1_555
Cl14 Cs1 3.549692 1_665
Cl14 Cs2 3.577052 1_556
Cl14 Cs4 3.696734 1_555
Cl14 Cs4 3.696765 1_565
Cl15 Ru1 2.349495 1_555
Cl15 Cs0 3.549586 1_555
Cl15 Cs3 3.576557 1_555
Cl15 Cs5 3.696589 1_545
Cl15 Cs5 3.696665 1_555
Cl16 Ru1 2.349492 1_555
Cl16 Cs0 3.549585 1_665
Cl16 Cs3 3.576557 1_555
Cl16 Cs5 3.696602 1_655
Cl16 Cs5 3.696660 1_555
Cl17 Ru1 2.349501 1_555
Cl17 Cs0 3.549600 1_655
Cl17 Cs3 3.576578 1_555
Cl17 Cs5 3.696610 1_655
Cl17 Cs5 3.696617 1_545
