# generated using pymatgen
data_CsGd(CO3)2
_symmetry_space_group_name_H-M   'P 1'
_cell_length_a   8.57996400
_cell_length_b   8.89112071
_cell_length_c   8.89224800
_cell_angle_alpha   98.72271933
_cell_angle_beta   96.59001993
_cell_angle_gamma   115.37153228
_symmetry_Int_Tables_number   1
_chemical_formula_structural   CsGd(CO3)2
_chemical_formula_sum   'Cs4 Gd4 C8 O24'
_cell_volume   593.43573774
_cell_formula_units_Z   4
loop_
 _symmetry_equiv_pos_site_id
 _symmetry_equiv_pos_as_xyz
  1  'x, y, z'
loop_
 _atom_site_type_symbol
 _atom_site_label
 _atom_site_symmetry_multiplicity
 _atom_site_fract_x
 _atom_site_fract_y
 _atom_site_fract_z
 _atom_site_occupancy
  Cs  Cs0  1  0.24485500  0.03078900  0.03698800  1
  Cs  Cs1  1  0.75514500  0.96921100  0.96301200  1
  Cs  Cs2  1  0.24143300  0.18964000  0.52691800  1
  Cs  Cs3  1  0.75856700  0.81036000  0.47308200  1
  Gd  Gd0  1  0.26105100  0.52214600  0.04881500  1
  Gd  Gd1  1  0.73894900  0.47785400  0.95118500  1
  Gd  Gd2  1  0.24116600  0.71384500  0.54315100  1
  Gd  Gd3  1  0.75883400  0.28615500  0.45684900  1
  C  C0  1  0.58539000  0.39962200  0.23326400  1
  C  C1  1  0.41461000  0.60037800  0.76673600  1
  C  C2  1  0.00474900  0.72284800  0.21284100  1
  C  C3  1  0.99525100  0.27715200  0.78715900  1
  C  C4  1  0.54350700  0.14134000  0.73989100  1
  C  C5  1  0.45649300  0.85866000  0.26010900  1
  C  C6  1  0.02853900  0.29793000  0.28937200  1
  C  C7  1  0.97146100  0.70207000  0.71062800  1
  O  O0  1  0.50501500  0.44255600  0.12763800  1
  O  O1  1  0.49498500  0.55744400  0.87236200  1
  O  O2  1  0.72444100  0.38209800  0.20573200  1
  O  O3  1  0.27555900  0.61790200  0.79426800  1
  O  O4  1  0.46280700  0.62726800  0.63733400  1
  O  O5  1  0.53719300  0.37273200  0.36266600  1
  O  O6  1  0.04699000  0.62608300  0.11713300  1
  O  O7  1  0.95301000  0.37391700  0.88286700  1
  O  O8  1  0.13386100  0.26159500  0.83949900  1
  O  O9  1  0.86613900  0.73840500  0.16050100  1
  O  O10  1  0.09461700  0.79938100  0.35218200  1
  O  O11  1  0.90538300  0.20061900  0.64781800  1
  O  O12  1  0.60915800  0.27325400  0.67502900  1
  O  O13  1  0.39084200  0.72674600  0.32497100  1
  O  O14  1  0.55795600  0.17700600  0.88942800  1
  O  O15  1  0.44204400  0.82299400  0.11057200  1
  O  O16  1  0.53135800  0.01274600  0.34019400  1
  O  O17  1  0.46864200  0.98725400  0.65980600  1
  O  O18  1  0.06529100  0.42924300  0.40192500  1
  O  O19  1  0.93470900  0.57075700  0.59807500  1
  O  O20  1  0.10385300  0.84407000  0.70587800  1
  O  O21  1  0.89614700  0.15593000  0.29412200  1
  O  O22  1  0.11935800  0.30808900  0.18316100  1
  O  O23  1  0.88064200  0.69191100  0.81683900  1
loop_
_geom_bond_atom_site_label_1
_geom_bond_atom_site_label_2
_geom_bond_distance
_geom_bond_site_symmetry_2
Cs0 O20 2.977809 1_544
Cs0 O14 2.993673 1_554
Cs0 O15 3.081434 1_545
Cs0 O22 3.248375 1_555
Cs0 O8 3.253621 1_554
Cs1 O21 2.977809 1_566
Cs1 O15 2.993673 1_556
Cs1 O14 3.081434 1_565
Cs1 O23 3.248375 1_555
Cs1 O9 3.253621 1_556
Cs2 O12 2.996816 1_555
Cs2 O5 3.042123 1_555
Cs2 O8 3.089102 1_555
Cs2 O10 3.195409 1_545
Cs3 O13 2.996816 1_555
Cs3 O4 3.042123 1_555
Cs3 O9 3.089102 1_555
Cs3 O11 3.195409 1_565
Gd0 O22 2.359547 1_555
Gd0 O15 2.380560 1_555
Gd0 O8 2.466048 1_554
Gd0 O6 2.477218 1_555
Gd0 O3 2.534186 1_554
Gd0 O7 2.535688 1_454
Gd0 O0 2.540985 1_555
Gd0 O13 2.619334 1_555
Gd0 O1 2.630871 1_554
Gd1 O23 2.359547 1_555
Gd1 O14 2.380560 1_555
Gd1 O9 2.466048 1_556
Gd1 O7 2.477218 1_555
Gd1 O2 2.534186 1_556
Gd1 O6 2.535688 1_656
Gd1 O1 2.540985 1_555
Gd1 O12 2.619334 1_555
Gd1 O0 2.630871 1_556
Gd2 O17 2.345041 1_555
Gd2 O18 2.363506 1_555
Gd2 O10 2.400871 1_555
Gd2 O20 2.423756 1_555
Gd2 O13 2.437115 1_555
Gd2 O4 2.448418 1_555
Gd2 O19 2.527305 1_455
Gd2 O3 2.538355 1_555
Gd3 O16 2.345041 1_555
Gd3 O19 2.363506 1_555
Gd3 O11 2.400871 1_555
Gd3 O21 2.423756 1_555
Gd3 O12 2.437115 1_555
Gd3 O5 2.448418 1_555
Gd3 O18 2.527305 1_655
Gd3 O2 2.538355 1_555
C0 O5 1.288468 1_555
C0 O0 1.299675 1_555
C0 O2 1.312387 1_555
C1 O4 1.288468 1_555
C1 O1 1.299675 1_555
C1 O3 1.312387 1_555
C2 O10 1.291578 1_555
C2 O9 1.297520 1_455
C2 O6 1.308352 1_555
C3 O11 1.291578 1_555
C3 O8 1.297520 1_655
C3 O7 1.308352 1_555
C4 O17 1.281244 1_545
C4 O14 1.297945 1_555
C4 O12 1.318766 1_555
C5 O16 1.281244 1_565
C5 O15 1.297945 1_555
C5 O13 1.318766 1_555
C6 O22 1.281335 1_555
C6 O21 1.297793 1_455
C6 O18 1.312205 1_555
C7 O23 1.281335 1_555
C7 O20 1.297793 1_655
C7 O19 1.312205 1_555
