# generated using pymatgen
data_YbMgSn
_symmetry_space_group_name_H-M   'P 1'
_cell_length_a   4.37919407
_cell_length_b   7.61021810
_cell_length_c   7.61021810
_cell_angle_alpha   119.99999872
_cell_angle_beta   90.00000000
_cell_angle_gamma   90.00000000
_symmetry_Int_Tables_number   1
_chemical_formula_structural   YbMgSn
_chemical_formula_sum   'Yb3 Mg3 Sn3'
_cell_volume   219.64384431
_cell_formula_units_Z   3
loop_
 _symmetry_equiv_pos_site_id
 _symmetry_equiv_pos_as_xyz
  1  'x, y, z'
loop_
 _atom_site_type_symbol
 _atom_site_label
 _atom_site_symmetry_multiplicity
 _atom_site_fract_x
 _atom_site_fract_y
 _atom_site_fract_z
 _atom_site_occupancy
  Yb  Yb0  1  0.50000000  0.40550608  0.00000000  1
  Yb  Yb1  1  0.50000000  0.59449392  0.59449392  1
  Yb  Yb2  1  0.50000000  0.00000000  0.40550608  1
  Mg  Mg0  1  0.00000000  1.00000000  0.75129563  1
  Mg  Mg1  1  0.00000000  0.75129563  1.00000000  1
  Mg  Mg2  1  0.00000000  0.24870437  0.24870437  1
  Sn  Sn0  1  0.00000000  0.66666700  0.33333300  1
  Sn  Sn1  1  0.00000000  0.33333300  0.66666700  1
  Sn  Sn2  1  0.50000000  0.00000000  0.00000000  1
loop_
_geom_bond_atom_site_label_1
_geom_bond_atom_site_label_2
_geom_bond_distance
_geom_bond_site_symmetry_2
Mg0 Sn2 2.894240 1_466
Mg0 Sn2 2.894240 1_566
Mg0 Sn1 2.912660 1_565
Mg0 Sn0 2.912665 1_555
Mg0 Mg1 3.278243 1_555
Mg0 Mg2 3.278243 1_566
Mg0 Yb2 3.423347 1_565
Mg0 Yb2 3.423347 1_465
Mg0 Yb1 3.472625 1_455
Mg0 Yb1 3.472625 1_555
Mg0 Yb0 3.472625 1_466
Mg0 Yb0 3.472625 1_566
Mg1 Sn2 2.894240 1_466
Mg1 Sn2 2.894240 1_566
Mg1 Sn0 2.912660 1_556
Mg1 Sn1 2.912665 1_555
Mg1 Mg2 3.278243 1_566
Mg1 Yb0 3.423347 1_556
Mg1 Yb0 3.423347 1_456
Mg1 Yb1 3.472625 1_555
Mg1 Yb1 3.472625 1_455
Mg1 Yb2 3.472625 1_466
Mg1 Yb2 3.472625 1_566
Mg2 Sn2 2.894240 1_455
Mg2 Sn2 2.894240 1_555
Mg2 Sn1 2.912668 1_555
Mg2 Sn0 2.912668 1_555
Mg2 Yb1 3.423347 1_555
Mg2 Yb1 3.423347 1_455
Mg2 Yb0 3.472625 1_455
Mg2 Yb2 3.472625 1_555
Mg2 Yb0 3.472625 1_555
Mg2 Yb2 3.472625 1_455
Sn0 Yb2 3.183981 1_565
Sn0 Yb2 3.183981 1_465
Sn0 Yb0 3.183983 1_455
Sn0 Yb0 3.183983 1_555
Sn0 Yb1 3.183987 1_555
Sn0 Yb1 3.183987 1_455
Sn1 Yb0 3.183981 1_556
Sn1 Yb0 3.183981 1_456
Sn1 Yb2 3.183983 1_455
Sn1 Yb2 3.183983 1_555
Sn1 Yb1 3.183987 1_455
Sn1 Yb1 3.183987 1_555
Sn2 Yb2 3.085990 1_555
Sn2 Yb0 3.085990 1_555
Sn2 Yb1 3.085990 1_544
