# generated using pymatgen
data_In6Se7
_symmetry_space_group_name_H-M   'P 1'
_cell_length_a   4.13432700
_cell_length_b   9.61999400
_cell_length_c   18.02767185
_cell_angle_alpha   79.08912349
_cell_angle_beta   90.00000000
_cell_angle_gamma   90.00000000
_symmetry_Int_Tables_number   1
_chemical_formula_structural   In6Se7
_chemical_formula_sum   'In12 Se14'
_cell_volume   704.03883059
_cell_formula_units_Z   2
loop_
 _symmetry_equiv_pos_site_id
 _symmetry_equiv_pos_as_xyz
  1  'x, y, z'
loop_
 _atom_site_type_symbol
 _atom_site_label
 _atom_site_symmetry_multiplicity
 _atom_site_fract_x
 _atom_site_fract_y
 _atom_site_fract_z
 _atom_site_occupancy
  In  In0  1  0.74333700  0.47364700  0.72799900  1
  In  In1  1  0.74856200  0.32830100  0.53376100  1
  In  In2  1  0.25297700  0.98434100  0.60397100  1
  In  In3  1  0.75471300  0.64733400  0.04696000  1
  In  In4  1  0.25421500  0.93122100  0.12423400  1
  In  In5  1  0.75421500  0.06877900  0.87576600  1
  In  In6  1  0.24856200  0.67169900  0.46623900  1
  In  In7  1  0.75297700  0.01565900  0.39602900  1
  In  In8  1  0.75498700  0.81923600  0.81307000  1
  In  In9  1  0.25498700  0.18076400  0.18693000  1
  In  In10  1  0.25471300  0.35266600  0.95304000  1
  In  In11  1  0.24333700  0.52635300  0.27200100  1
  Se  Se0  1  0.75409300  0.24071400  0.27312800  1
  Se  Se1  1  0.25364200  0.24616300  0.82037000  1
  Se  Se2  1  0.24653400  0.47014100  0.59265200  1
  Se  Se3  1  0.75567900  0.55609600  0.90814300  1
  Se  Se4  1  0.25409300  0.75928600  0.72687200  1
  Se  Se5  1  0.75122300  0.12089600  0.65810500  1
  Se  Se6  1  0.75364200  0.75383700  0.17963000  1
  Se  Se7  1  0.74653400  0.52985900  0.40734800  1
  Se  Se8  1  0.75313300  0.16418200  0.00617200  1
  Se  Se9  1  0.25122300  0.87910400  0.34189500  1
  Se  Se10  1  0.25567900  0.44390400  0.09185700  1
  Se  Se11  1  0.74180500  0.83086200  0.53199300  1
  Se  Se12  1  0.24180500  0.16913800  0.46800700  1
  Se  Se13  1  0.25313300  0.83581800  0.99382800  1
loop_
_geom_bond_atom_site_label_1
_geom_bond_atom_site_label_2
_geom_bond_distance
_geom_bond_site_symmetry_2
In0 Se2 3.194455 1_555
In0 Se1 3.206456 1_555
In0 Se2 3.211516 1_655
In0 Se1 3.260926 1_655
In1 Se7 2.698234 1_555
In1 Se5 2.704227 1_555
In1 Se2 2.788543 1_655
In1 Se2 2.800947 1_555
In1 Se12 2.931742 1_655
In1 Se12 2.970876 1_555
In2 Se5 2.721518 1_565
In2 Se5 2.732512 1_465
In2 Se12 2.742426 1_565
In2 Se4 2.789339 1_555
In2 Se11 2.945051 1_555
In2 Se11 3.009193 1_455
In3 Se6 2.774487 1_555
In3 Se13 2.791762 1_654
In3 Se13 2.801419 1_554
In3 Se3 2.804398 1_554
In3 Se10 2.853415 1_555
In3 Se10 2.859196 1_655
In4 Se13 2.680660 1_554
In4 Se6 2.743626 1_555
In4 Se6 2.747194 1_455
In5 Se8 2.680660 1_556
In5 Se1 2.743626 1_655
In5 Se1 2.747194 1_555
In6 Se2 2.698234 1_555
In6 Se9 2.704227 1_555
In6 Se7 2.788543 1_555
In6 Se7 2.800947 1_455
In6 Se11 2.931742 1_555
In6 Se11 2.970876 1_455
In7 Se9 2.721518 1_645
In7 Se9 2.732512 1_545
In7 Se11 2.742426 1_545
In7 Se0 2.789339 1_555
In7 Se12 2.945051 1_655
In7 Se12 3.009193 1_555
In8 Se4 2.710079 1_655
In8 Se4 2.715711 1_555
In8 Se3 2.775456 1_555
In9 Se0 2.710079 1_555
In9 Se0 2.715711 1_455
In9 Se10 2.775456 1_555
In10 Se1 2.774487 1_555
In10 Se8 2.791762 1_556
In10 Se8 2.801419 1_456
In10 Se10 2.804398 1_556
In10 Se3 2.853415 1_455
In10 Se3 2.859196 1_555
In11 Se7 3.194455 1_455
In11 Se6 3.206456 1_455
In11 Se7 3.211516 1_555
In11 Se6 3.260926 1_555
