# generated using pymatgen
data_GaPO4
_symmetry_space_group_name_H-M   'P 1'
_cell_length_a   4.94093113
_cell_length_b   4.94093218
_cell_length_c   6.87309908
_cell_angle_alpha   90.00000000
_cell_angle_beta   90.00000000
_cell_angle_gamma   90.25920452
_symmetry_Int_Tables_number   1
_chemical_formula_structural   GaPO4
_chemical_formula_sum   'Ga2 P2 O8'
_cell_volume   167.78991463
_cell_formula_units_Z   2
loop_
 _symmetry_equiv_pos_site_id
 _symmetry_equiv_pos_as_xyz
  1  'x, y, z'
loop_
 _atom_site_type_symbol
 _atom_site_label
 _atom_site_symmetry_multiplicity
 _atom_site_fract_x
 _atom_site_fract_y
 _atom_site_fract_z
 _atom_site_occupancy
  Ga  Ga0  1  0.81609751  0.81609751  0.75000000  1
  Ga  Ga1  1  0.18390249  0.18390249  0.25000000  1
  P  P0  1  0.31940983  0.68059017  0.00000000  1
  P  P1  1  0.68059017  0.31940983  0.50000000  1
  O  O0  1  0.82877720  0.22550860  0.31666380  1
  O  O1  1  0.17122280  0.77449140  0.81666380  1
  O  O2  1  0.77449140  0.17122280  0.68333620  1
  O  O3  1  0.73154248  0.62189006  0.53237970  1
  O  O4  1  0.22550860  0.82877720  0.18333620  1
  O  O5  1  0.62189006  0.73154248  0.96762030  1
  O  O6  1  0.37810994  0.26845752  0.46762030  1
  O  O7  1  0.26845752  0.37810994  0.03237970  1
loop_
_geom_bond_atom_site_label_1
_geom_bond_atom_site_label_2
_geom_bond_distance
_geom_bond_site_symmetry_2
Ga0 O5 1.824521 1_555
Ga0 O3 1.824521 1_555
Ga0 O1 1.825994 1_655
Ga0 O2 1.825994 1_565
Ga1 O6 1.824521 1_555
Ga1 O7 1.824521 1_555
Ga1 O0 1.825994 1_455
Ga1 O4 1.825994 1_545
O0 P1 1.530439 1_555
O1 P0 1.530439 1_556
O2 P1 1.530439 1_555
O3 P1 1.530730 1_555
O4 P0 1.530439 1_555
O5 P0 1.530730 1_556
O6 P1 1.530730 1_555
O7 P0 1.530730 1_555
