# generated using pymatgen
data_Na6PbO5
_symmetry_space_group_name_H-M   'P 1'
_cell_length_a   5.51780112
_cell_length_b   6.10351534
_cell_length_c   6.10351415
_cell_angle_alpha   78.21025848
_cell_angle_beta   63.12675877
_cell_angle_gamma   63.12673723
_symmetry_Int_Tables_number   1
_chemical_formula_structural   Na6PbO5
_chemical_formula_sum   'Na6 Pb1 O5'
_cell_volume   163.55512899
_cell_formula_units_Z   1
loop_
 _symmetry_equiv_pos_site_id
 _symmetry_equiv_pos_as_xyz
  1  'x, y, z'
loop_
 _atom_site_type_symbol
 _atom_site_label
 _atom_site_symmetry_multiplicity
 _atom_site_fract_x
 _atom_site_fract_y
 _atom_site_fract_z
 _atom_site_occupancy
  Na  Na0  1  0.79642335  0.60302513  0.00000000  1
  Na  Na1  1  0.39944848  -0.00000000  0.39697487  1
  Na  Na2  1  0.79642335  0.00000000  0.60302513  1
  Na  Na3  1  0.19323142  0.50000000  0.50000000  1
  Na  Na4  1  0.39944848  0.39697487  -0.00000000  1
  Na  Na5  1  0.69323142  0.50000000  0.50000000  1
  Pb  Pb0  1  0.03743248  -0.00000000  0.00000000  1
  O  O0  1  0.20647580  0.72690791  0.72690791  1
  O  O1  1  0.42082515  -0.00000000  0.00000000  1
  O  O2  1  0.93338371  0.27309209  0.72690791  1
  O  O3  1  0.66029162  0.27309209  0.27309209  1
  O  O4  1  0.93338371  0.72690791  0.27309209  1
loop_
_geom_bond_atom_site_label_1
_geom_bond_atom_site_label_2
_geom_bond_distance
_geom_bond_site_symmetry_2
Na0 O1 2.371960 1_565
Na0 O4 2.468095 1_555
Na0 O0 2.468095 1_654
Na0 O3 2.502333 1_555
Na0 O2 2.502333 1_554
Na1 O1 2.371960 1_555
Na1 O4 2.468095 1_545
Na1 O3 2.468095 1_555
Na1 O0 2.502333 1_545
Na1 O2 2.502333 1_455
Na2 O1 2.371960 1_556
Na2 O0 2.468095 1_645
Na2 O2 2.468095 1_555
Na2 O3 2.502332 1_555
Na2 O4 2.502333 1_545
Na3 O0 2.192767 1_555
Na3 O3 2.192767 1_555
Na3 O4 2.260099 1_455
Na3 O2 2.260100 1_455
Na4 O1 2.371960 1_555
Na4 O3 2.468095 1_555
Na4 O2 2.468095 1_554
Na4 O0 2.502332 1_554
Na4 O4 2.502333 1_455
Na5 O2 2.192766 1_555
Na5 O4 2.192767 1_555
Na5 O3 2.260100 1_555
Na5 O0 2.260100 1_555
O0 Pb0 2.179651 1_566
O1 Pb0 2.115485 1_555
O2 Pb0 2.179650 1_656
O3 Pb0 2.179651 1_655
O4 Pb0 2.179651 1_665
