# generated using pymatgen
data_MgSiO3
_symmetry_space_group_name_H-M   'P 1'
_cell_length_a   5.29015900
_cell_length_b   9.18506900
_cell_length_c   18.42924100
_cell_angle_alpha   90.00000000
_cell_angle_beta   90.00000000
_cell_angle_gamma   90.00000000
_symmetry_Int_Tables_number   1
_chemical_formula_structural   MgSiO3
_chemical_formula_sum   'Mg16 Si16 O48'
_cell_volume   895.48558211
_cell_formula_units_Z   16
loop_
 _symmetry_equiv_pos_site_id
 _symmetry_equiv_pos_as_xyz
  1  'x, y, z'
loop_
 _atom_site_type_symbol
 _atom_site_label
 _atom_site_symmetry_multiplicity
 _atom_site_fract_x
 _atom_site_fract_y
 _atom_site_fract_z
 _atom_site_occupancy
  Mg  Mg0  1  0.64417100  0.15532500  0.38982700  1
  Mg  Mg1  1  0.14417100  0.34467500  0.38982700  1
  Mg  Mg2  1  0.15457600  0.49552700  0.13357200  1
  Mg  Mg3  1  0.85582900  0.15532500  0.88982700  1
  Mg  Mg4  1  0.65457600  0.50447300  0.36642800  1
  Mg  Mg5  1  0.64417100  0.65532500  0.11017300  1
  Mg  Mg6  1  0.84542400  0.00447300  0.63357200  1
  Mg  Mg7  1  0.14417100  0.84467500  0.11017300  1
  Mg  Mg8  1  0.15457600  0.99552700  0.36642800  1
  Mg  Mg9  1  0.65457600  0.00447300  0.13357200  1
  Mg  Mg10  1  0.35582900  0.84467500  0.61017300  1
  Mg  Mg11  1  0.34542400  0.49552700  0.63357200  1
  Mg  Mg12  1  0.34542400  0.99552700  0.86642800  1
  Mg  Mg13  1  0.35582900  0.34467500  0.88982700  1
  Mg  Mg14  1  0.85582900  0.65532500  0.61017300  1
  Mg  Mg15  1  0.84542400  0.50447300  0.86642800  1
  Si  Si0  1  0.57778400  0.78275600  0.74045600  1
  Si  Si1  1  0.57778400  0.28275600  0.75954400  1
  Si  Si2  1  0.20175500  0.16604200  0.03482400  1
  Si  Si3  1  0.29824500  0.66604200  0.96517600  1
  Si  Si4  1  0.92221600  0.28275600  0.25954400  1
  Si  Si5  1  0.92221600  0.78275600  0.24045600  1
  Si  Si6  1  0.07778400  0.71724400  0.74045600  1
  Si  Si7  1  0.07778400  0.21724400  0.75954400  1
  Si  Si8  1  0.79824500  0.83395800  0.96517600  1
  Si  Si9  1  0.70175500  0.33395800  0.03482400  1
  Si  Si10  1  0.42221600  0.21724400  0.25954400  1
  Si  Si11  1  0.79824500  0.33395800  0.53482400  1
  Si  Si12  1  0.29824500  0.16604200  0.53482400  1
  Si  Si13  1  0.70175500  0.83395800  0.46517600  1
  Si  Si14  1  0.42221600  0.71724400  0.24045600  1
  Si  Si15  1  0.20175500  0.66604200  0.46517600  1
  O  O0  1  0.19650400  0.65593300  0.55399100  1
  O  O1  1  0.67865000  0.23288100  0.20670700  1
  O  O2  1  0.68184500  0.97141500  0.92305600  1
  O  O3  1  0.92943700  0.44040900  0.29873800  1
  O  O4  1  0.54075500  0.17117000  0.82773400  1
  O  O5  1  0.17865000  0.26711900  0.20670700  1
  O  O6  1  0.68184500  0.47141500  0.57694400  1
  O  O7  1  0.18184500  0.02858500  0.57694400  1
  O  O8  1  0.04075500  0.32883000  0.82773400  1
  O  O9  1  0.92943700  0.94040900  0.20126200  1
  O  O10  1  0.07056300  0.05959100  0.79873800  1
  O  O11  1  0.31815500  0.52858500  0.42305600  1
  O  O12  1  0.95924500  0.67117000  0.17226600  1
  O  O13  1  0.07056300  0.55959100  0.70126200  1
  O  O14  1  0.82135000  0.73288100  0.79329300  1
  O  O15  1  0.45924500  0.82883000  0.17226600  1
  O  O16  1  0.89286400  0.19209600  0.05843700  1
  O  O17  1  0.69650400  0.84406700  0.55399100  1
  O  O18  1  0.19650400  0.15593300  0.94600900  1
  O  O19  1  0.30349600  0.15593300  0.44600900  1
  O  O20  1  0.89286400  0.69209600  0.44156300  1
  O  O21  1  0.10713600  0.80790400  0.94156300  1
  O  O22  1  0.60713600  0.19209600  0.55843700  1
  O  O23  1  0.82135000  0.23288100  0.70670700  1
  O  O24  1  0.60713600  0.69209600  0.94156300  1
  O  O25  1  0.95924500  0.17117000  0.32773400  1
  O  O26  1  0.67865000  0.73288100  0.29329300  1
  O  O27  1  0.80349600  0.84406700  0.05399100  1
  O  O28  1  0.32135000  0.76711900  0.79329300  1
  O  O29  1  0.57056300  0.44040900  0.79873800  1
  O  O30  1  0.18184500  0.52858500  0.92305600  1
  O  O31  1  0.80349600  0.34406700  0.44600900  1
  O  O32  1  0.69650400  0.34406700  0.94600900  1
  O  O33  1  0.42943700  0.05959100  0.29873800  1
  O  O34  1  0.45924500  0.32883000  0.32773400  1
  O  O35  1  0.04075500  0.82883000  0.67226600  1
  O  O36  1  0.32135000  0.26711900  0.70670700  1
  O  O37  1  0.31815500  0.02858500  0.07694400  1
  O  O38  1  0.39286400  0.30790400  0.05843700  1
  O  O39  1  0.39286400  0.80790400  0.44156300  1
  O  O40  1  0.42943700  0.55959100  0.20126200  1
  O  O41  1  0.17865000  0.76711900  0.29329300  1
  O  O42  1  0.81815500  0.97141500  0.42305600  1
  O  O43  1  0.81815500  0.47141500  0.07694400  1
  O  O44  1  0.54075500  0.67117000  0.67226600  1
  O  O45  1  0.10713600  0.30790400  0.55843700  1
  O  O46  1  0.57056300  0.94040900  0.70126200  1
  O  O47  1  0.30349600  0.65593300  0.05399100  1
loop_
_geom_bond_atom_site_label_1
_geom_bond_atom_site_label_2
_geom_bond_distance
_geom_bond_site_symmetry_2
Mg0 O42 2.018822 1_545
Mg0 O25 2.027032 1_555
Mg0 O19 2.078481 1_555
Mg0 O31 2.188113 1_555
Mg0 O34 2.192320 1_555
Mg0 O33 2.209455 1_555
Mg1 O11 2.018822 1_555
Mg1 O34 2.027032 1_555
Mg1 O31 2.078481 1_455
Mg1 O19 2.188113 1_555
Mg1 O25 2.192320 1_455
Mg1 O3 2.209455 1_455
Mg2 O40 2.004179 1_555
Mg2 O12 2.044261 1_455
Mg2 O43 2.074989 1_455
Mg2 O47 2.223138 1_555
Mg2 O5 2.496840 1_555
Mg2 O38 2.544852 1_555
Mg3 O2 2.018822 1_545
Mg3 O4 2.027032 1_555
Mg3 O18 2.078481 1_655
Mg3 O32 2.188113 1_555
Mg3 O8 2.192320 1_655
Mg3 O10 2.209455 1_655
Mg4 O3 2.004179 1_555
Mg4 O34 2.044261 1_555
Mg4 O11 2.074989 1_555
Mg4 O31 2.223138 1_555
Mg4 O26 2.496840 1_555
Mg4 O20 2.544852 1_555
Mg5 O43 2.018822 1_555
Mg5 O12 2.027032 1_555
Mg5 O47 2.078481 1_555
Mg5 O27 2.188113 1_555
Mg5 O15 2.192320 1_555
Mg5 O40 2.209455 1_555
Mg6 O46 2.004179 1_545
Mg6 O35 2.044261 1_645
Mg6 O7 2.074989 1_655
Mg6 O17 2.223138 1_545
Mg6 O23 2.496840 1_555
Mg6 O22 2.544852 1_555
Mg7 O37 2.018822 1_565
Mg7 O15 2.027032 1_555
Mg7 O27 2.078481 1_455
Mg7 O47 2.188113 1_555
Mg7 O12 2.192320 1_455
Mg7 O9 2.209455 1_455
Mg8 O33 2.004179 1_565
Mg8 O25 2.044261 1_465
Mg8 O42 2.074989 1_455
Mg8 O19 2.223138 1_565
Mg8 O41 2.496840 1_555
Mg8 O39 2.544852 1_555
Mg9 O9 2.004179 1_545
Mg9 O15 2.044261 1_545
Mg9 O37 2.074989 1_555
Mg9 O27 2.223138 1_545
Mg9 O1 2.496840 1_555
Mg9 O16 2.544852 1_555
Mg10 O7 2.018822 1_565
Mg10 O35 2.027032 1_555
Mg10 O17 2.078481 1_555
Mg10 O0 2.188113 1_555
Mg10 O44 2.192320 1_555
Mg10 O46 2.209455 1_555
Mg11 O13 2.004179 1_555
Mg11 O44 2.044261 1_555
Mg11 O6 2.074989 1_555
Mg11 O0 2.223138 1_555
Mg11 O36 2.496840 1_555
Mg11 O45 2.544852 1_555
Mg12 O10 2.004179 1_565
Mg12 O4 2.044261 1_565
Mg12 O2 2.074989 1_555
Mg12 O18 2.223138 1_565
Mg12 O28 2.496840 1_555
Mg12 O21 2.544852 1_555
Mg13 O30 2.018822 1_555
Mg13 O8 2.027032 1_555
Mg13 O32 2.078481 1_555
Mg13 O18 2.188113 1_555
Mg13 O4 2.192320 1_555
Mg13 O29 2.209455 1_555
Mg14 O6 2.018822 1_555
Mg14 O44 2.027032 1_555
Mg14 O0 2.078481 1_655
Mg14 O17 2.188113 1_555
Mg14 O35 2.192320 1_655
Mg14 O13 2.209455 1_655
Mg15 O29 2.004179 1_555
Mg15 O8 2.044261 1_655
Mg15 O30 2.074989 1_655
Mg15 O32 2.223138 1_555
Mg15 O14 2.496840 1_555
Mg15 O24 2.544852 1_555
O0 Si15 1.639660 1_555
O1 Si10 1.676040 1_555
O1 Si4 1.678774 1_555
O2 Si8 1.604919 1_555
O3 Si4 1.618660 1_555
O4 Si1 1.633436 1_555
O5 Si4 1.676040 1_455
O5 Si10 1.678774 1_555
O6 Si11 1.604919 1_555
O7 Si12 1.604919 1_555
O8 Si7 1.633436 1_555
O9 Si5 1.618660 1_555
O10 Si7 1.618660 1_555
O11 Si15 1.604919 1_555
O12 Si5 1.633436 1_555
O13 Si6 1.618660 1_555
O14 Si6 1.676040 1_655
O14 Si0 1.678774 1_555
O15 Si14 1.633436 1_555
O16 Si9 1.705675 1_555
O16 Si2 1.707884 1_655
O17 Si13 1.639660 1_555
O18 Si2 1.639660 1_556
O19 Si12 1.639660 1_555
O20 Si13 1.705675 1_555
O20 Si15 1.707884 1_655
O21 Si3 1.705675 1_555
O21 Si8 1.707884 1_455
O22 Si11 1.705675 1_555
O22 Si12 1.707884 1_555
O23 Si7 1.676040 1_655
O23 Si1 1.678774 1_555
O24 Si8 1.705675 1_555
O24 Si3 1.707884 1_555
O25 Si4 1.633436 1_555
O26 Si14 1.676040 1_555
O26 Si5 1.678774 1_555
O27 Si8 1.639660 1_554
O28 Si0 1.676040 1_555
O28 Si6 1.678774 1_555
O29 Si1 1.618660 1_555
O30 Si3 1.604919 1_555
O31 Si11 1.639660 1_555
O32 Si9 1.639660 1_556
O33 Si10 1.618660 1_555
O34 Si10 1.633436 1_555
O35 Si6 1.633436 1_555
O36 Si1 1.676040 1_555
O36 Si7 1.678774 1_555
O37 Si2 1.604919 1_555
O38 Si2 1.705675 1_555
O38 Si9 1.707884 1_555
O39 Si15 1.705675 1_555
O39 Si13 1.707884 1_555
O40 Si14 1.618660 1_555
O41 Si5 1.676040 1_455
O41 Si14 1.678774 1_555
O42 Si13 1.604919 1_555
O43 Si9 1.604919 1_555
O44 Si0 1.633436 1_555
O45 Si12 1.705675 1_555
O45 Si11 1.707884 1_455
O46 Si0 1.618660 1_555
O47 Si3 1.639660 1_554
