# generated using pymatgen
data_Gd3CuGeSe7
_symmetry_space_group_name_H-M   'P 1'
_cell_length_a   10.45366126
_cell_length_b   10.45366126
_cell_length_c   6.10188600
_cell_angle_alpha   90.00000000
_cell_angle_beta   90.00000000
_cell_angle_gamma   119.99999532
_symmetry_Int_Tables_number   1
_chemical_formula_structural   Gd3CuGeSe7
_chemical_formula_sum   'Gd6 Cu2 Ge2 Se14'
_cell_volume   577.47287315
_cell_formula_units_Z   2
loop_
 _symmetry_equiv_pos_site_id
 _symmetry_equiv_pos_as_xyz
  1  'x, y, z'
loop_
 _atom_site_type_symbol
 _atom_site_label
 _atom_site_symmetry_multiplicity
 _atom_site_fract_x
 _atom_site_fract_y
 _atom_site_fract_z
 _atom_site_occupancy
  Gd  Gd0  1  0.22250600  0.86702800  0.74966600  1
  Gd  Gd1  1  0.35547800  0.22250600  0.24966600  1
  Gd  Gd2  1  0.86702800  0.64452200  0.24966600  1
  Gd  Gd3  1  0.64452200  0.77749400  0.74966600  1
  Gd  Gd4  1  0.13297200  0.35547800  0.74966600  1
  Gd  Gd5  1  0.77749400  0.13297200  0.24966600  1
  Cu  Cu0  1  0.00000000  0.00000000  0.71287700  1
  Cu  Cu1  1  0.00000000  0.00000000  0.21287700  1
  Ge  Ge0  1  0.33333300  0.66666700  0.33198300  1
  Ge  Ge1  1  0.66666700  0.33333300  0.83198300  1
  Se  Se0  1  0.25970900  0.16109700  0.72593200  1
  Se  Se1  1  0.51805100  0.09445300  0.99612700  1
  Se  Se2  1  0.66666700  0.33333300  0.44526500  1
  Se  Se3  1  0.90554700  0.42359700  0.99612700  1
  Se  Se4  1  0.42359700  0.51805100  0.49612700  1
  Se  Se5  1  0.09861200  0.25970900  0.22593200  1
  Se  Se6  1  0.33333300  0.66666700  0.94526500  1
  Se  Se7  1  0.90138800  0.74029100  0.72593200  1
  Se  Se8  1  0.74029100  0.83890300  0.22593200  1
  Se  Se9  1  0.48194900  0.90554700  0.49612700  1
  Se  Se10  1  0.09445300  0.57640300  0.49612700  1
  Se  Se11  1  0.57640300  0.48194900  0.99612700  1
  Se  Se12  1  0.16109700  0.90138800  0.22593200  1
  Se  Se13  1  0.83890300  0.09861200  0.72593200  1
loop_
_geom_bond_atom_site_label_1
_geom_bond_atom_site_label_2
_geom_bond_distance
_geom_bond_site_symmetry_2
Gd0 Se0 2.902888 1_565
Gd0 Se7 2.932125 1_455
Gd0 Se9 2.969700 1_555
Gd0 Se12 3.035990 1_556
Gd0 Se10 3.057529 1_555
Gd0 Se6 3.095201 1_555
Gd0 Se1 3.180229 1_565
Gd0 Se12 3.314304 1_555
Gd1 Se5 2.902888 1_555
Gd1 Se12 2.932125 1_545
Gd1 Se11 2.969704 1_554
Gd1 Se0 3.035990 1_555
Gd1 Se1 3.057537 1_554
Gd1 Se2 3.095210 1_555
Gd1 Se4 3.180231 1_555
Gd1 Se0 3.314304 1_554
Gd2 Se12 2.902888 1_655
Gd2 Se8 2.932125 1_555
Gd2 Se3 2.969709 1_554
Gd2 Se7 3.035990 1_555
Gd2 Se11 3.057530 1_554
Gd2 Se2 3.095209 1_555
Gd2 Se10 3.180222 1_655
Gd2 Se7 3.314304 1_554
Gd3 Se7 2.902888 1_555
Gd3 Se13 2.932125 1_565
Gd3 Se4 2.969704 1_555
Gd3 Se8 3.035990 1_556
Gd3 Se9 3.057537 1_555
Gd3 Se6 3.095210 1_555
Gd3 Se11 3.180231 1_555
Gd3 Se8 3.314304 1_555
Gd4 Se13 2.902888 1_455
Gd4 Se0 2.932125 1_555
Gd4 Se10 2.969709 1_555
Gd4 Se5 3.035990 1_556
Gd4 Se4 3.057530 1_555
Gd4 Se6 3.095209 1_555
Gd4 Se3 3.180222 1_455
Gd4 Se5 3.314304 1_555
Gd5 Se8 2.902888 1_545
Gd5 Se5 2.932125 1_655
Gd5 Se1 2.969700 1_554
Gd5 Se13 3.035990 1_555
Gd5 Se3 3.057529 1_554
Gd5 Se2 3.095201 1_555
Gd5 Se9 3.180229 1_545
Gd5 Se13 3.314304 1_554
Cu0 Se13 2.375092 1_455
Cu0 Se7 2.375093 1_445
Cu0 Se0 2.375093 1_555
Cu0 Gd0 3.259777 1_545
Cu0 Gd4 3.259777 1_555
Cu0 Gd3 3.259778 1_445
Cu1 Se12 2.375092 1_545
Cu1 Se5 2.375093 1_555
Cu1 Se8 2.375093 1_445
Cu1 Gd5 3.259777 1_455
Cu1 Gd2 3.259777 1_445
Cu1 Gd1 3.259778 1_555
Ge0 Se6 2.359709 1_554
Ge0 Se4 2.402727 1_555
Ge0 Se10 2.402727 1_555
Ge0 Se9 2.402727 1_555
Ge1 Se2 2.359709 1_555
Ge1 Se11 2.402727 1_555
Ge1 Se3 2.402727 1_555
Ge1 Se1 2.402727 1_555
