# generated using pymatgen
data_GaAg2
_symmetry_space_group_name_H-M   'P 1'
_cell_length_a   15.46629864
_cell_length_b   15.46630143
_cell_length_c   5.82419580
_cell_angle_alpha   90.00000000
_cell_angle_beta   90.00000000
_cell_angle_gamma   119.99999839
_symmetry_Int_Tables_number   1
_chemical_formula_structural   GaAg2
_chemical_formula_sum   'Ga24 Ag48'
_cell_volume   1206.53372962
_cell_formula_units_Z   24
loop_
 _symmetry_equiv_pos_site_id
 _symmetry_equiv_pos_as_xyz
  1  'x, y, z'
loop_
 _atom_site_type_symbol
 _atom_site_label
 _atom_site_symmetry_multiplicity
 _atom_site_fract_x
 _atom_site_fract_y
 _atom_site_fract_z
 _atom_site_occupancy
  Ga  Ga0_0  1  0.33333350  0.16666650  0.00000000  1
  Ga  Ga0_1  1  0.33333350  0.16666650  0.50000000  1
  Ga  Ga0_2  1  0.33333350  0.66666650  0.00000000  1
  Ga  Ga0_3  1  0.33333350  0.66666650  0.50000000  1
  Ga  Ga0_4  1  0.83333350  0.16666650  0.00000000  1
  Ga  Ga0_5  1  0.83333350  0.16666650  0.50000000  1
  Ga  Ga0_6  1  0.83333350  0.66666650  0.00000000  1
  Ga  Ga0_7  1  0.83333350  0.66666650  0.50000000  1
  Ga  Ga1_0  1  0.16666650  0.33333350  0.00000000  1
  Ga  Ga1_1  1  0.16666650  0.33333350  0.50000000  1
  Ga  Ga1_2  1  0.16666650  0.83333350  0.00000000  1
  Ga  Ga1_3  1  0.16666650  0.83333350  0.50000000  1
  Ga  Ga1_4  1  0.66666650  0.33333350  0.00000000  1
  Ga  Ga1_5  1  0.66666650  0.33333350  0.50000000  1
  Ga  Ga1_6  1  0.66666650  0.83333350  0.00000000  1
  Ga  Ga1_7  1  0.66666650  0.83333350  0.50000000  1
  Ga  Ga2_0  1  0.00000000  0.00000000  0.25000000  1
  Ga  Ga2_1  1  0.00000000  0.00000000  0.75000000  1
  Ga  Ga2_2  1  0.00000000  0.50000000  0.25000000  1
  Ga  Ga2_3  1  0.00000000  0.50000000  0.75000000  1
  Ga  Ga2_4  1  0.50000000  0.00000000  0.25000000  1
  Ga  Ga2_5  1  0.50000000  0.00000000  0.75000000  1
  Ga  Ga2_6  1  0.50000000  0.50000000  0.25000000  1
  Ga  Ga2_7  1  0.50000000  0.50000000  0.75000000  1
  Ag  Ag0_0  1  0.15248206  0.00000000  0.00000000  1
  Ag  Ag0_1  1  0.15248206  0.00000000  0.50000000  1
  Ag  Ag0_2  1  0.15248206  0.50000000  0.00000000  1
  Ag  Ag0_3  1  0.15248206  0.50000000  0.50000000  1
  Ag  Ag0_4  1  0.65248206  0.00000000  0.00000000  1
  Ag  Ag0_5  1  0.65248206  0.00000000  0.50000000  1
  Ag  Ag0_6  1  0.65248206  0.50000000  0.00000000  1
  Ag  Ag0_7  1  0.65248206  0.50000000  0.50000000  1
  Ag  Ag1_0  1  0.34751795  0.34751795  0.00000000  1
  Ag  Ag1_1  1  0.34751795  0.34751795  0.50000000  1
  Ag  Ag1_2  1  0.34751795  0.84751795  0.00000000  1
  Ag  Ag1_3  1  0.34751795  0.84751795  0.50000000  1
  Ag  Ag1_4  1  0.84751794  0.34751795  0.00000000  1
  Ag  Ag1_5  1  0.84751794  0.34751795  0.50000000  1
  Ag  Ag1_6  1  0.84751795  0.84751795  0.00000000  1
  Ag  Ag1_7  1  0.84751795  0.84751795  0.50000000  1
  Ag  Ag2_0  1  0.00000000  0.15248206  0.00000000  1
  Ag  Ag2_1  1  0.00000000  0.15248206  0.50000000  1
  Ag  Ag2_2  1  0.00000000  0.65248206  0.00000000  1
  Ag  Ag2_3  1  0.00000000  0.65248206  0.50000000  1
  Ag  Ag2_4  1  0.50000000  0.15248206  0.00000000  1
  Ag  Ag2_5  1  0.50000000  0.15248206  0.50000000  1
  Ag  Ag2_6  1  0.50000000  0.65248206  0.00000000  1
  Ag  Ag2_7  1  0.50000000  0.65248206  0.50000000  1
  Ag  Ag3_0  1  0.00000000  0.31906027  0.25000000  1
  Ag  Ag3_1  1  0.00000000  0.31906027  0.75000000  1
  Ag  Ag3_2  1  0.00000000  0.81906026  0.25000000  1
  Ag  Ag3_3  1  0.00000000  0.81906026  0.75000000  1
  Ag  Ag3_4  1  0.50000000  0.31906027  0.25000000  1
  Ag  Ag3_5  1  0.50000000  0.31906027  0.75000000  1
  Ag  Ag3_6  1  0.50000000  0.81906026  0.25000000  1
  Ag  Ag3_7  1  0.50000000  0.81906026  0.75000000  1
  Ag  Ag4_0  1  0.18094024  0.18094024  0.25000000  1
  Ag  Ag4_1  1  0.18094024  0.18094024  0.75000000  1
  Ag  Ag4_2  1  0.18094023  0.68094024  0.25000000  1
  Ag  Ag4_3  1  0.18094023  0.68094024  0.75000000  1
  Ag  Ag4_4  1  0.68094024  0.18094024  0.25000000  1
  Ag  Ag4_5  1  0.68094024  0.18094024  0.75000000  1
  Ag  Ag4_6  1  0.68094024  0.68094024  0.25000000  1
  Ag  Ag4_7  1  0.68094024  0.68094024  0.75000000  1
  Ag  Ag5_0  1  0.31906027  0.00000000  0.25000000  1
  Ag  Ag5_1  1  0.31906027  0.00000000  0.75000000  1
  Ag  Ag5_2  1  0.31906027  0.50000000  0.25000000  1
  Ag  Ag5_3  1  0.31906027  0.50000000  0.75000000  1
  Ag  Ag5_4  1  0.81906027  0.00000000  0.25000000  1
  Ag  Ag5_5  1  0.81906027  0.00000000  0.75000000  1
  Ag  Ag5_6  1  0.81906027  0.50000000  0.25000000  1
  Ag  Ag5_7  1  0.81906027  0.50000000  0.75000000  1
loop_
_geom_bond_atom_site_label_1
_geom_bond_atom_site_label_2
_geom_bond_distance
_geom_bond_site_symmetry_2
Ga0_0 Ga0_1 2.912098 1_554
Ga0_0 Ga0_1 2.912098 1_555
Ga0_2 Ga0_3 2.912098 1_555
Ga0_2 Ga0_3 2.912098 1_554
Ga0_4 Ga0_5 2.912098 1_555
Ga0_4 Ga0_5 2.912098 1_554
Ga0_6 Ga0_7 2.912098 1_554
Ga0_6 Ga0_7 2.912098 1_555
Ga1_0 Ga1_1 2.912098 1_554
Ga1_0 Ga1_1 2.912098 1_555
Ga1_2 Ga1_3 2.912098 1_554
Ga1_2 Ga1_3 2.912098 1_555
Ga1_4 Ga1_5 2.912098 1_554
Ga1_4 Ga1_5 2.912098 1_555
Ga1_6 Ga1_7 2.912098 1_555
Ga1_6 Ga1_7 2.912098 1_554
Ga2_0 Ga2_1 2.912098 1_554
Ga2_0 Ga2_1 2.912098 1_555
Ga2_2 Ga2_3 2.912098 1_554
Ga2_2 Ga2_3 2.912098 1_555
Ga2_4 Ga2_5 2.912098 1_555
Ga2_4 Ga2_5 2.912098 1_554
Ga2_6 Ga2_7 2.912098 1_554
Ga2_6 Ga2_7 2.912098 1_555
Ag0_0 Ga1_2 2.694112 1_545
Ag0_0 Ga0_0 2.694116 1_555
Ag0_0 Ga2_0 2.771608 1_555
Ag0_0 Ga2_1 2.771608 1_554
Ag0_0 Ag0_1 2.912098 1_554
Ag0_0 Ag0_1 2.912098 1_555
Ag0_0 Ag5_1 2.959333 1_554
Ag0_0 Ag5_0 2.959333 1_555
Ag0_0 Ag3_2 2.985552 1_545
Ag0_0 Ag3_3 2.985552 1_544
Ag0_0 Ag4_0 2.985556 1_555
Ag0_0 Ag4_1 2.985556 1_554
Ag0_1 Ga1_3 2.694112 1_545
Ag0_1 Ga0_1 2.694116 1_555
Ag0_1 Ga2_0 2.771608 1_555
Ag0_1 Ga2_1 2.771608 1_555
Ag0_1 Ag5_1 2.959333 1_555
Ag0_1 Ag5_0 2.959333 1_555
Ag0_1 Ag3_3 2.985552 1_545
Ag0_1 Ag3_2 2.985552 1_545
Ag0_1 Ag4_1 2.985556 1_555
Ag0_1 Ag4_0 2.985556 1_555
Ag0_2 Ga1_0 2.694112 1_555
Ag0_2 Ga0_2 2.694116 1_555
Ag0_2 Ga2_2 2.771608 1_555
Ag0_2 Ga2_3 2.771608 1_554
Ag0_2 Ag0_3 2.912098 1_554
Ag0_2 Ag0_3 2.912098 1_555
Ag0_2 Ag5_2 2.959333 1_555
Ag0_2 Ag5_3 2.959333 1_554
Ag0_2 Ag3_0 2.985552 1_555
Ag0_2 Ag3_1 2.985552 1_554
Ag0_2 Ag4_3 2.985556 1_554
Ag0_2 Ag4_2 2.985556 1_555
Ag0_3 Ga1_1 2.694112 1_555
Ag0_3 Ga0_3 2.694116 1_555
Ag0_3 Ga2_3 2.771608 1_555
Ag0_3 Ga2_2 2.771608 1_555
Ag0_3 Ag5_3 2.959333 1_555
Ag0_3 Ag5_2 2.959333 1_555
Ag0_3 Ag3_0 2.985552 1_555
Ag0_3 Ag3_1 2.985552 1_555
Ag0_3 Ag4_3 2.985556 1_555
Ag0_3 Ag4_2 2.985556 1_555
Ag0_4 Ga1_6 2.694112 1_545
Ag0_4 Ga0_4 2.694116 1_555
Ag0_4 Ga2_5 2.771608 1_554
Ag0_4 Ga2_4 2.771608 1_555
Ag0_4 Ag0_5 2.912098 1_555
Ag0_4 Ag0_5 2.912098 1_554
Ag0_4 Ag5_5 2.959333 1_554
Ag0_4 Ag5_4 2.959333 1_555
Ag0_4 Ag3_6 2.985552 1_545
Ag0_4 Ag3_7 2.985552 1_544
Ag0_4 Ag4_4 2.985556 1_555
Ag0_4 Ag4_5 2.985556 1_554
Ag0_5 Ga1_7 2.694112 1_545
Ag0_5 Ga0_5 2.694116 1_555
Ag0_5 Ga2_4 2.771608 1_555
Ag0_5 Ga2_5 2.771608 1_555
Ag0_5 Ag5_5 2.959333 1_555
Ag0_5 Ag5_4 2.959333 1_555
Ag0_5 Ag3_7 2.985552 1_545
Ag0_5 Ag3_6 2.985552 1_545
Ag0_5 Ag4_4 2.985556 1_555
Ag0_5 Ag4_5 2.985556 1_555
Ag0_6 Ga1_4 2.694112 1_555
Ag0_6 Ga0_6 2.694116 1_555
Ag0_6 Ga2_7 2.771608 1_554
Ag0_6 Ga2_6 2.771608 1_555
Ag0_6 Ag0_7 2.912098 1_555
Ag0_6 Ag0_7 2.912098 1_554
Ag0_6 Ag5_6 2.959333 1_555
Ag0_6 Ag5_7 2.959333 1_554
Ag0_6 Ag3_5 2.985552 1_554
Ag0_6 Ag3_4 2.985552 1_555
Ag0_6 Ag4_7 2.985556 1_554
Ag0_6 Ag4_6 2.985556 1_555
Ag0_7 Ga1_5 2.694112 1_555
Ag0_7 Ga0_7 2.694116 1_555
Ag0_7 Ga2_7 2.771608 1_555
Ag0_7 Ga2_6 2.771608 1_555
Ag0_7 Ag5_7 2.959333 1_555
Ag0_7 Ag5_6 2.959333 1_555
Ag0_7 Ag3_5 2.985552 1_555
Ag0_7 Ag3_4 2.985552 1_555
Ag0_7 Ag4_6 2.985556 1_555
Ag0_7 Ag4_7 2.985556 1_555
Ag1_0 Ga1_0 2.694119 1_555
Ag1_0 Ga0_0 2.694120 1_555
Ag1_0 Ga2_6 2.771609 1_555
Ag1_0 Ga2_7 2.771609 1_554
Ag1_0 Ag1_1 2.912098 1_555
Ag1_0 Ag1_1 2.912098 1_554
Ag1_0 Ag4_0 2.959326 1_555
Ag1_0 Ag4_1 2.959326 1_554
Ag1_0 Ag3_4 2.985551 1_555
Ag1_0 Ag3_5 2.985551 1_554
Ag1_0 Ag5_2 2.985552 1_555
Ag1_0 Ag5_3 2.985552 1_554
Ag1_1 Ga1_1 2.694119 1_555
Ag1_1 Ga0_1 2.694120 1_555
Ag1_1 Ga2_7 2.771609 1_555
Ag1_1 Ga2_6 2.771609 1_555
Ag1_1 Ag4_0 2.959326 1_555
Ag1_1 Ag4_1 2.959326 1_555
Ag1_1 Ag3_5 2.985551 1_555
Ag1_1 Ag3_4 2.985551 1_555
Ag1_1 Ag5_3 2.985552 1_555
Ag1_1 Ag5_2 2.985552 1_555
Ag1_2 Ga1_2 2.694119 1_555
Ag1_2 Ga0_2 2.694120 1_555
Ag1_2 Ga2_4 2.771609 1_565
Ag1_2 Ga2_5 2.771609 1_564
Ag1_2 Ag1_3 2.912098 1_555
Ag1_2 Ag1_3 2.912098 1_554
Ag1_2 Ag4_3 2.959326 1_554
Ag1_2 Ag4_2 2.959326 1_555
Ag1_2 Ag3_7 2.985551 1_554
Ag1_2 Ag3_6 2.985551 1_555
Ag1_2 Ag5_0 2.985552 1_565
Ag1_2 Ag5_1 2.985552 1_564
Ag1_3 Ga1_3 2.694119 1_555
Ag1_3 Ga0_3 2.694120 1_555
Ag1_3 Ga2_4 2.771609 1_565
Ag1_3 Ga2_5 2.771609 1_565
Ag1_3 Ag4_3 2.959326 1_555
Ag1_3 Ag4_2 2.959326 1_555
Ag1_3 Ag3_7 2.985551 1_555
Ag1_3 Ag3_6 2.985551 1_555
Ag1_3 Ag5_0 2.985552 1_565
Ag1_3 Ag5_1 2.985552 1_565
Ag1_4 Ga1_4 2.694119 1_555
Ag1_4 Ga0_4 2.694120 1_555
Ag1_4 Ga2_2 2.771609 1_655
Ag1_4 Ga2_3 2.771609 1_654
Ag1_4 Ag1_5 2.912098 1_555
Ag1_4 Ag1_5 2.912098 1_554
Ag1_4 Ag4_4 2.959326 1_555
Ag1_4 Ag4_5 2.959326 1_554
Ag1_4 Ag3_1 2.985551 1_654
Ag1_4 Ag3_0 2.985551 1_655
Ag1_4 Ag5_6 2.985552 1_555
Ag1_4 Ag5_7 2.985552 1_554
Ag1_5 Ga1_5 2.694119 1_555
Ag1_5 Ga0_5 2.694120 1_555
Ag1_5 Ga2_2 2.771609 1_655
Ag1_5 Ga2_3 2.771609 1_655
Ag1_5 Ag4_4 2.959326 1_555
Ag1_5 Ag4_5 2.959326 1_555
Ag1_5 Ag3_1 2.985551 1_655
Ag1_5 Ag3_0 2.985551 1_655
Ag1_5 Ag5_6 2.985552 1_555
Ag1_5 Ag5_7 2.985552 1_555
Ag1_6 Ga1_6 2.694119 1_555
Ag1_6 Ga0_6 2.694120 1_555
Ag1_6 Ga2_1 2.771609 1_664
Ag1_6 Ga2_0 2.771609 1_665
Ag1_6 Ag1_7 2.912098 1_555
Ag1_6 Ag1_7 2.912098 1_554
Ag1_6 Ag4_7 2.959326 1_554
Ag1_6 Ag4_6 2.959326 1_555
Ag1_6 Ag3_3 2.985551 1_654
Ag1_6 Ag3_2 2.985551 1_655
Ag1_6 Ag5_4 2.985552 1_565
Ag1_6 Ag5_5 2.985552 1_564
Ag1_7 Ga1_7 2.694119 1_555
Ag1_7 Ga0_7 2.694120 1_555
Ag1_7 Ga2_1 2.771609 1_665
Ag1_7 Ga2_0 2.771609 1_665
Ag1_7 Ag4_6 2.959326 1_555
Ag1_7 Ag4_7 2.959326 1_555
Ag1_7 Ag3_2 2.985551 1_655
Ag1_7 Ag3_3 2.985551 1_655
Ag1_7 Ag5_4 2.985552 1_565
Ag1_7 Ag5_5 2.985552 1_565
Ag2_0 Ga0_4 2.694112 1_455
Ag2_0 Ga1_0 2.694116 1_555
Ag2_0 Ga2_1 2.771609 1_554
Ag2_0 Ga2_0 2.771609 1_555
Ag2_0 Ag2_1 2.912098 1_554
Ag2_0 Ag2_1 2.912098 1_555
Ag2_0 Ag3_0 2.959333 1_555
Ag2_0 Ag3_1 2.959333 1_554
Ag2_0 Ag5_5 2.985552 1_454
Ag2_0 Ag5_4 2.985552 1_455
Ag2_0 Ag4_1 2.985556 1_554
Ag2_0 Ag4_0 2.985556 1_555
Ag2_1 Ga0_5 2.694112 1_455
Ag2_1 Ga1_1 2.694116 1_555
Ag2_1 Ga2_1 2.771609 1_555
Ag2_1 Ga2_0 2.771609 1_555
Ag2_1 Ag3_0 2.959333 1_555
Ag2_1 Ag3_1 2.959333 1_555
Ag2_1 Ag5_5 2.985552 1_455
Ag2_1 Ag5_4 2.985552 1_455
Ag2_1 Ag4_1 2.985556 1_555
Ag2_1 Ag4_0 2.985556 1_555
Ag2_2 Ga0_6 2.694112 1_455
Ag2_2 Ga1_2 2.694116 1_555
Ag2_2 Ga2_2 2.771609 1_555
Ag2_2 Ga2_3 2.771609 1_554
Ag2_2 Ag2_3 2.912098 1_555
Ag2_2 Ag2_3 2.912098 1_554
Ag2_2 Ag3_3 2.959333 1_554
Ag2_2 Ag3_2 2.959333 1_555
Ag2_2 Ag5_6 2.985552 1_455
Ag2_2 Ag5_7 2.985552 1_454
Ag2_2 Ag4_3 2.985556 1_554
Ag2_2 Ag4_2 2.985556 1_555
Ag2_3 Ga0_7 2.694112 1_455
Ag2_3 Ga1_3 2.694116 1_555
Ag2_3 Ga2_3 2.771609 1_555
Ag2_3 Ga2_2 2.771609 1_555
Ag2_3 Ag3_2 2.959333 1_555
Ag2_3 Ag3_3 2.959333 1_555
Ag2_3 Ag5_6 2.985552 1_455
Ag2_3 Ag5_7 2.985552 1_455
Ag2_3 Ag4_3 2.985556 1_555
Ag2_3 Ag4_2 2.985556 1_555
Ag2_4 Ga0_0 2.694112 1_555
Ag2_4 Ga1_4 2.694116 1_555
Ag2_4 Ga2_5 2.771609 1_554
Ag2_4 Ga2_4 2.771609 1_555
Ag2_4 Ag2_5 2.912098 1_554
Ag2_4 Ag2_5 2.912098 1_555
Ag2_4 Ag3_4 2.959333 1_555
Ag2_4 Ag3_5 2.959333 1_554
Ag2_4 Ag5_0 2.985552 1_555
Ag2_4 Ag5_1 2.985552 1_554
Ag2_4 Ag4_4 2.985556 1_555
Ag2_4 Ag4_5 2.985556 1_554
Ag2_5 Ga0_1 2.694112 1_555
Ag2_5 Ga1_5 2.694116 1_555
Ag2_5 Ga2_5 2.771609 1_555
Ag2_5 Ga2_4 2.771609 1_555
Ag2_5 Ag3_5 2.959333 1_555
Ag2_5 Ag3_4 2.959333 1_555
Ag2_5 Ag5_1 2.985552 1_555
Ag2_5 Ag5_0 2.985552 1_555
Ag2_5 Ag4_4 2.985556 1_555
Ag2_5 Ag4_5 2.985556 1_555
Ag2_6 Ga0_2 2.694112 1_555
Ag2_6 Ga1_6 2.694116 1_555
Ag2_6 Ga2_7 2.771609 1_554
Ag2_6 Ga2_6 2.771609 1_555
Ag2_6 Ag2_7 2.912098 1_555
Ag2_6 Ag2_7 2.912098 1_554
Ag2_6 Ag3_7 2.959333 1_554
Ag2_6 Ag3_6 2.959333 1_555
Ag2_6 Ag5_2 2.985552 1_555
Ag2_6 Ag5_3 2.985552 1_554
Ag2_6 Ag4_6 2.985556 1_555
Ag2_6 Ag4_7 2.985556 1_554
Ag2_7 Ga0_3 2.694112 1_555
Ag2_7 Ga1_7 2.694116 1_555
Ag2_7 Ga2_7 2.771609 1_555
Ag2_7 Ga2_6 2.771609 1_555
Ag2_7 Ag3_7 2.959333 1_555
Ag2_7 Ag3_6 2.959333 1_555
Ag2_7 Ag5_3 2.985552 1_555
Ag2_7 Ag5_2 2.985552 1_555
Ag2_7 Ag4_6 2.985556 1_555
Ag2_7 Ag4_7 2.985556 1_555
Ag3_0 Ga2_2 2.798468 1_555
Ag3_0 Ga1_0 2.871303 1_555
Ag3_0 Ga1_1 2.871303 1_555
Ag3_0 Ga0_4 2.871306 1_455
Ag3_0 Ga0_5 2.871306 1_455
Ag3_0 Ag3_1 2.912098 1_555
Ag3_0 Ag3_1 2.912098 1_554
Ag3_1 Ga2_3 2.798468 1_555
Ag3_1 Ga1_0 2.871303 1_556
Ag3_1 Ga1_1 2.871303 1_555
Ag3_1 Ga0_5 2.871306 1_455
Ag3_1 Ga0_4 2.871306 1_456
Ag3_2 Ga2_0 2.798468 1_565
Ag3_2 Ga1_2 2.871303 1_555
Ag3_2 Ga1_3 2.871303 1_555
Ag3_2 Ga0_7 2.871306 1_455
Ag3_2 Ga0_6 2.871306 1_455
Ag3_2 Ag3_3 2.912098 1_554
Ag3_2 Ag3_3 2.912098 1_555
Ag3_3 Ga2_1 2.798468 1_565
Ag3_3 Ga1_3 2.871303 1_555
Ag3_3 Ga1_2 2.871303 1_556
Ag3_3 Ga0_7 2.871306 1_455
Ag3_3 Ga0_6 2.871306 1_456
Ag3_4 Ga2_6 2.798468 1_555
Ag3_4 Ga1_4 2.871303 1_555
Ag3_4 Ga1_5 2.871303 1_555
Ag3_4 Ga0_1 2.871306 1_555
Ag3_4 Ga0_0 2.871306 1_555
Ag3_4 Ag3_5 2.912098 1_554
Ag3_4 Ag3_5 2.912098 1_555
Ag3_5 Ga2_7 2.798468 1_555
Ag3_5 Ga1_4 2.871303 1_556
Ag3_5 Ga1_5 2.871303 1_555
Ag3_5 Ga0_0 2.871306 1_556
Ag3_5 Ga0_1 2.871306 1_555
Ag3_6 Ga2_4 2.798468 1_565
Ag3_6 Ga1_6 2.871303 1_555
Ag3_6 Ga1_7 2.871303 1_555
Ag3_6 Ga0_2 2.871306 1_555
Ag3_6 Ga0_3 2.871306 1_555
Ag3_6 Ag3_7 2.912098 1_555
Ag3_6 Ag3_7 2.912098 1_554
Ag3_7 Ga2_5 2.798468 1_565
Ag3_7 Ga1_6 2.871303 1_556
Ag3_7 Ga1_7 2.871303 1_555
Ag3_7 Ga0_2 2.871306 1_556
Ag3_7 Ga0_3 2.871306 1_555
Ag4_0 Ga2_0 2.798476 1_555
Ag4_0 Ga0_0 2.871306 1_555
Ag4_0 Ga0_1 2.871306 1_555
Ag4_0 Ga1_0 2.871307 1_555
Ag4_0 Ga1_1 2.871307 1_555
Ag4_0 Ag4_1 2.912098 1_555
Ag4_0 Ag4_1 2.912098 1_554
Ag4_1 Ga2_1 2.798476 1_555
Ag4_1 Ga0_1 2.871306 1_555
Ag4_1 Ga0_0 2.871306 1_556
Ag4_1 Ga1_1 2.871307 1_555
Ag4_1 Ga1_0 2.871307 1_556
Ag4_2 Ga2_2 2.798476 1_555
Ag4_2 Ga0_2 2.871306 1_555
Ag4_2 Ga0_3 2.871306 1_555
Ag4_2 Ga1_2 2.871307 1_555
Ag4_2 Ga1_3 2.871307 1_555
Ag4_2 Ag4_3 2.912098 1_555
Ag4_2 Ag4_3 2.912098 1_554
Ag4_3 Ga2_3 2.798476 1_555
Ag4_3 Ga0_2 2.871306 1_556
Ag4_3 Ga0_3 2.871306 1_555
Ag4_3 Ga1_2 2.871307 1_556
Ag4_3 Ga1_3 2.871307 1_555
Ag4_4 Ga2_4 2.798476 1_555
Ag4_4 Ga0_5 2.871306 1_555
Ag4_4 Ga0_4 2.871306 1_555
Ag4_4 Ga1_4 2.871307 1_555
Ag4_4 Ga1_5 2.871307 1_555
Ag4_4 Ag4_5 2.912098 1_555
Ag4_4 Ag4_5 2.912098 1_554
Ag4_5 Ga2_5 2.798476 1_555
Ag4_5 Ga0_5 2.871306 1_555
Ag4_5 Ga0_4 2.871306 1_556
Ag4_5 Ga1_4 2.871307 1_556
Ag4_5 Ga1_5 2.871307 1_555
Ag4_6 Ga2_6 2.798476 1_555
Ag4_6 Ga0_7 2.871306 1_555
Ag4_6 Ga0_6 2.871306 1_555
Ag4_6 Ga1_6 2.871307 1_555
Ag4_6 Ga1_7 2.871307 1_555
Ag4_6 Ag4_7 2.912098 1_554
Ag4_6 Ag4_7 2.912098 1_555
Ag4_7 Ga2_7 2.798476 1_555
Ag4_7 Ga0_6 2.871306 1_556
Ag4_7 Ga0_7 2.871306 1_555
Ag4_7 Ga1_6 2.871307 1_556
Ag4_7 Ga1_7 2.871307 1_555
Ag5_0 Ga2_4 2.798468 1_555
Ag5_0 Ga0_0 2.871303 1_555
Ag5_0 Ga0_1 2.871303 1_555
Ag5_0 Ga1_3 2.871306 1_545
Ag5_0 Ga1_2 2.871306 1_545
Ag5_0 Ag5_1 2.912098 1_555
Ag5_0 Ag5_1 2.912098 1_554
Ag5_1 Ga2_5 2.798468 1_555
Ag5_1 Ga0_1 2.871303 1_555
Ag5_1 Ga0_0 2.871303 1_556
Ag5_1 Ga1_3 2.871306 1_545
Ag5_1 Ga1_2 2.871306 1_546
Ag5_2 Ga2_6 2.798468 1_555
Ag5_2 Ga0_2 2.871303 1_555
Ag5_2 Ga0_3 2.871303 1_555
Ag5_2 Ga1_1 2.871306 1_555
Ag5_2 Ga1_0 2.871306 1_555
Ag5_2 Ag5_3 2.912098 1_554
Ag5_2 Ag5_3 2.912098 1_555
Ag5_3 Ga2_7 2.798468 1_555
Ag5_3 Ga0_2 2.871303 1_556
Ag5_3 Ga0_3 2.871303 1_555
Ag5_3 Ga1_1 2.871306 1_555
Ag5_3 Ga1_0 2.871306 1_556
Ag5_4 Ga2_0 2.798468 1_655
Ag5_4 Ga0_5 2.871303 1_555
Ag5_4 Ga0_4 2.871303 1_555
Ag5_4 Ga1_6 2.871306 1_545
Ag5_4 Ga1_7 2.871306 1_545
Ag5_4 Ag5_5 2.912098 1_554
Ag5_4 Ag5_5 2.912098 1_555
Ag5_5 Ga2_1 2.798468 1_655
Ag5_5 Ga0_5 2.871303 1_555
Ag5_5 Ga0_4 2.871303 1_556
Ag5_5 Ga1_6 2.871306 1_546
Ag5_5 Ga1_7 2.871306 1_545
Ag5_6 Ga2_2 2.798468 1_655
Ag5_6 Ga0_6 2.871303 1_555
Ag5_6 Ga0_7 2.871303 1_555
Ag5_6 Ga1_4 2.871306 1_555
Ag5_6 Ga1_5 2.871306 1_555
Ag5_6 Ag5_7 2.912098 1_554
Ag5_6 Ag5_7 2.912098 1_555
Ag5_7 Ga2_3 2.798468 1_655
Ag5_7 Ga0_7 2.871303 1_555
Ag5_7 Ga0_6 2.871303 1_556
Ag5_7 Ga1_4 2.871306 1_556
Ag5_7 Ga1_5 2.871306 1_555
