# generated using pymatgen
data_Ba5Mn3ClO12
_symmetry_space_group_name_H-M   'P 1'
_cell_length_a   10.66688355
_cell_length_b   10.66688355
_cell_length_c   7.85264600
_cell_angle_alpha   90.00000000
_cell_angle_beta   90.00000000
_cell_angle_gamma   119.99999719
_symmetry_Int_Tables_number   1
_chemical_formula_structural   Ba5Mn3ClO12
_chemical_formula_sum   'Ba10 Mn6 Cl2 O24'
_cell_volume   773.78760984
_cell_formula_units_Z   2
loop_
 _symmetry_equiv_pos_site_id
 _symmetry_equiv_pos_as_xyz
  1  'x, y, z'
loop_
 _atom_site_type_symbol
 _atom_site_label
 _atom_site_symmetry_multiplicity
 _atom_site_fract_x
 _atom_site_fract_y
 _atom_site_fract_z
 _atom_site_occupancy
  Ba  Ba0  1  0.24824400  0.25711700  0.75000000  1
  Ba  Ba1  1  0.33333300  0.66666700  0.49830900  1
  Ba  Ba2  1  0.66666700  0.33333300  0.50169100  1
  Ba  Ba3  1  0.74288300  0.99112700  0.75000000  1
  Ba  Ba4  1  0.00887300  0.75175600  0.75000000  1
  Ba  Ba5  1  0.33333300  0.66666700  0.00169100  1
  Ba  Ba6  1  0.25711700  0.00887300  0.25000000  1
  Ba  Ba7  1  0.75175600  0.74288300  0.25000000  1
  Ba  Ba8  1  0.66666700  0.33333300  0.99830900  1
  Ba  Ba9  1  0.99112700  0.24824400  0.25000000  1
  Mn  Mn0  1  0.40388400  0.03333600  0.75000000  1
  Mn  Mn1  1  0.62945200  0.59611600  0.75000000  1
  Mn  Mn2  1  0.96666400  0.37054800  0.75000000  1
  Mn  Mn3  1  0.37054800  0.40388400  0.25000000  1
  Mn  Mn4  1  0.59611600  0.96666400  0.25000000  1
  Mn  Mn5  1  0.03333600  0.62945200  0.25000000  1
  Cl  Cl0  1  0.00000000  0.00000000  0.50000000  1
  Cl  Cl1  1  0.00000000  0.00000000  0.00000000  1
  O  O0  1  0.87704300  0.46799600  0.75000000  1
  O  O1  1  0.53200400  0.40904700  0.75000000  1
  O  O2  1  0.25921300  0.35592400  0.42447400  1
  O  O3  1  0.67307300  0.15194000  0.25000000  1
  O  O4  1  0.90328900  0.25921300  0.57552600  1
  O  O5  1  0.59095300  0.12295700  0.75000000  1
  O  O6  1  0.35592400  0.09671100  0.57552600  1
  O  O7  1  0.15194000  0.47886700  0.75000000  1
  O  O8  1  0.46799600  0.59095300  0.25000000  1
  O  O9  1  0.40904700  0.87704300  0.25000000  1
  O  O10  1  0.09671100  0.74078700  0.07552600  1
  O  O11  1  0.25921300  0.35592400  0.07552600  1
  O  O12  1  0.35592400  0.09671100  0.92447400  1
  O  O13  1  0.09671100  0.74078700  0.42447400  1
  O  O14  1  0.32692700  0.84806000  0.75000000  1
  O  O15  1  0.74078700  0.64407600  0.57552600  1
  O  O16  1  0.52113300  0.67307300  0.75000000  1
  O  O17  1  0.74078700  0.64407600  0.92447400  1
  O  O18  1  0.84806000  0.52113300  0.25000000  1
  O  O19  1  0.90328900  0.25921300  0.92447400  1
  O  O20  1  0.47886700  0.32692700  0.25000000  1
  O  O21  1  0.12295700  0.53200400  0.25000000  1
  O  O22  1  0.64407600  0.90328900  0.42447400  1
  O  O23  1  0.64407600  0.90328900  0.07552600  1
loop_
_geom_bond_atom_site_label_1
_geom_bond_atom_site_label_2
_geom_bond_distance
_geom_bond_site_symmetry_2
Ba0 O1 2.623507 1_555
Ba0 O11 2.745100 1_556
Ba0 O2 2.745100 1_555
Ba0 O6 2.844182 1_555
Ba0 O12 2.844182 1_555
Ba0 O7 3.013332 1_555
Ba0 Cl1 3.335482 1_556
Ba0 Cl0 3.335482 1_555
Ba1 O9 2.770871 1_555
Ba1 O21 2.770873 1_555
Ba1 O8 2.770879 1_555
Ba1 O14 2.790525 1_555
Ba1 O7 2.790529 1_555
Ba1 O16 2.790533 1_555
Ba1 O13 3.054096 1_555
Ba1 O22 3.054103 1_555
Ba1 O2 3.054106 1_555
Ba2 O5 2.770871 1_555
Ba2 O0 2.770873 1_555
Ba2 O1 2.770879 1_555
Ba2 O3 2.790525 1_555
Ba2 O18 2.790529 1_555
Ba2 O20 2.790533 1_555
Ba2 O4 3.054096 1_555
Ba2 O6 3.054103 1_555
Ba2 O15 3.054106 1_555
Ba3 O5 2.623507 1_565
Ba3 O22 2.745100 1_555
Ba3 O23 2.745100 1_556
Ba3 O19 2.844182 1_565
Ba3 O4 2.844182 1_565
Ba3 O16 3.013332 1_555
Ba3 Cl0 3.335481 1_665
Ba3 Cl1 3.335481 1_666
Ba4 O0 2.623507 1_455
Ba4 O10 2.745100 1_556
Ba4 O13 2.745100 1_555
Ba4 O17 2.844182 1_455
Ba4 O15 2.844182 1_455
Ba4 O14 3.013332 1_555
Ba4 Cl0 3.335481 1_565
Ba4 Cl1 3.335481 1_566
Ba5 O9 2.770871 1_555
Ba5 O21 2.770873 1_555
Ba5 O8 2.770879 1_555
Ba5 O14 2.790525 1_554
Ba5 O7 2.790529 1_554
Ba5 O16 2.790533 1_554
Ba5 O10 3.054096 1_555
Ba5 O23 3.054103 1_555
Ba5 O11 3.054106 1_555
Ba6 O9 2.623507 1_545
Ba6 O12 2.745100 1_554
Ba6 O6 2.745100 1_555
Ba6 O10 2.844182 1_545
Ba6 O13 2.844182 1_545
Ba6 O20 3.013332 1_555
Ba6 Cl1 3.335481 1_555
Ba6 Cl0 3.335481 1_555
Ba7 O8 2.623507 1_555
Ba7 O17 2.745100 1_554
Ba7 O15 2.745100 1_555
Ba7 O22 2.844182 1_555
Ba7 O23 2.844182 1_555
Ba7 O18 3.013332 1_555
Ba7 Cl0 3.335482 1_665
Ba7 Cl1 3.335482 1_665
Ba8 O5 2.770871 1_555
Ba8 O0 2.770873 1_555
Ba8 O1 2.770879 1_555
Ba8 O3 2.790525 1_556
Ba8 O18 2.790529 1_556
Ba8 O20 2.790533 1_556
Ba8 O19 3.054096 1_555
Ba8 O12 3.054103 1_555
Ba8 O17 3.054106 1_555
Ba9 O21 2.623507 1_655
Ba9 O19 2.745100 1_554
Ba9 O4 2.745100 1_555
Ba9 O11 2.844182 1_655
Ba9 O2 2.844182 1_655
Ba9 O3 3.013332 1_555
Ba9 Cl0 3.335481 1_655
Ba9 Cl1 3.335481 1_655
Mn0 O6 1.715132 1_555
Mn0 O12 1.715132 1_555
Mn0 O14 1.719695 1_545
Mn0 O5 1.728609 1_555
Mn1 O17 1.715132 1_555
Mn1 O15 1.715132 1_555
Mn1 O16 1.719695 1_555
Mn1 O1 1.728609 1_555
Mn2 O4 1.715132 1_555
Mn2 O19 1.715132 1_555
Mn2 O7 1.719695 1_655
Mn2 O0 1.728609 1_555
Mn3 O11 1.715132 1_555
Mn3 O2 1.715132 1_555
Mn3 O20 1.719695 1_555
Mn3 O8 1.728609 1_555
Mn4 O23 1.715132 1_555
Mn4 O22 1.715132 1_555
Mn4 O3 1.719695 1_565
Mn4 O9 1.728609 1_555
Mn5 O13 1.715132 1_555
Mn5 O10 1.715132 1_555
Mn5 O18 1.719695 1_455
Mn5 O21 1.728609 1_555
