# generated using pymatgen
data_LiAlSiO4
_symmetry_space_group_name_H-M   'P 1'
_cell_length_a   4.99201000
_cell_length_b   6.69859800
_cell_length_c   10.07220300
_cell_angle_alpha   90.00000000
_cell_angle_beta   90.00000000
_cell_angle_gamma   90.00000000
_symmetry_Int_Tables_number   1
_chemical_formula_structural   LiAlSiO4
_chemical_formula_sum   'Li4 Al4 Si4 O16'
_cell_volume   336.80911194
_cell_formula_units_Z   4
loop_
 _symmetry_equiv_pos_site_id
 _symmetry_equiv_pos_as_xyz
  1  'x, y, z'
loop_
 _atom_site_type_symbol
 _atom_site_label
 _atom_site_symmetry_multiplicity
 _atom_site_fract_x
 _atom_site_fract_y
 _atom_site_fract_z
 _atom_site_occupancy
  Li  Li0  1  0.25662400  0.98496900  0.35520700  1
  Li  Li1  1  0.75662400  0.48496900  0.14479300  1
  Li  Li2  1  0.75662400  0.01503100  0.64479300  1
  Li  Li3  1  0.25662400  0.51503100  0.85520700  1
  Al  Al0  1  0.75149500  0.51491900  0.67242200  1
  Al  Al1  1  0.25149500  0.01491900  0.82757800  1
  Al  Al2  1  0.25149500  0.48508100  0.32757800  1
  Al  Al3  1  0.75149500  0.98508100  0.17242200  1
  Si  Si0  1  0.25067900  0.27969200  0.59381300  1
  Si  Si1  1  0.25067900  0.22030800  0.09381300  1
  Si  Si2  1  0.75067900  0.77969200  0.90618700  1
  Si  Si3  1  0.75067900  0.72030800  0.40618700  1
  O  O0  1  0.40389800  0.03674300  0.17032700  1
  O  O1  1  0.90389800  0.96325700  0.82967300  1
  O  O2  1  0.92702700  0.29799700  0.62227100  1
  O  O3  1  0.42702700  0.70200300  0.37772900  1
  O  O4  1  0.90389800  0.53674300  0.32967300  1
  O  O5  1  0.81022600  0.72441800  0.56628600  1
  O  O6  1  0.42702700  0.79799700  0.87772900  1
  O  O7  1  0.40389800  0.46325700  0.67032700  1
  O  O8  1  0.85445100  0.56987400  0.83797800  1
  O  O9  1  0.31022600  0.27558200  0.43371400  1
  O  O10  1  0.35445100  0.43012600  0.16202200  1
  O  O11  1  0.85445100  0.93012600  0.33797800  1
  O  O12  1  0.35445100  0.06987400  0.66202200  1
  O  O13  1  0.31022600  0.22441800  0.93371400  1
  O  O14  1  0.92702700  0.20200300  0.12227100  1
  O  O15  1  0.81022600  0.77558200  0.06628600  1
loop_
_geom_bond_atom_site_label_1
_geom_bond_atom_site_label_2
_geom_bond_distance
_geom_bond_site_symmetry_2
Li0 O0 2.031843 1_565
Li0 O11 2.048351 1_455
Li0 O3 2.089952 1_555
Li0 O9 2.118138 1_565
Li1 O4 2.031843 1_555
Li1 O10 2.048351 1_555
Li1 O14 2.089952 1_555
Li1 O15 2.118138 1_555
Li2 O1 2.031843 1_545
Li2 O12 2.048351 1_555
Li2 O2 2.089952 1_555
Li2 O5 2.118138 1_545
Li3 O7 2.031843 1_555
Li3 O8 2.048351 1_455
Li3 O6 2.089952 1_555
Li3 O13 2.118138 1_555
Al0 O7 1.769506 1_555
Al0 O2 1.770426 1_555
Al0 O8 1.783330 1_555
Al0 O5 1.788340 1_555
Al1 O1 1.769506 1_445
Al1 O6 1.770426 1_545
Al1 O12 1.783330 1_555
Al1 O13 1.788340 1_555
Al2 O4 1.769506 1_455
Al2 O3 1.770426 1_555
Al2 O10 1.783330 1_555
Al2 O9 1.788340 1_555
Al3 O0 1.769506 1_565
Al3 O14 1.770426 1_565
Al3 O11 1.783330 1_555
Al3 O15 1.788340 1_555
O0 Si1 1.640407 1_555
O1 Si2 1.640407 1_555
O2 Si0 1.645478 1_655
O3 Si3 1.645478 1_555
O4 Si3 1.640407 1_555
O5 Si3 1.639950 1_555
O6 Si2 1.645478 1_555
O7 Si0 1.640407 1_555
O8 Si2 1.647950 1_555
O9 Si0 1.639950 1_555
O10 Si1 1.647950 1_555
O11 Si3 1.647950 1_555
O12 Si0 1.647950 1_555
O13 Si1 1.639950 1_556
O14 Si1 1.645478 1_655
O15 Si2 1.639950 1_554
