# generated using pymatgen
data_K2(ReSe2)3
_symmetry_space_group_name_H-M   'P 1'
_cell_length_a   10.04218985
_cell_length_b   10.04218985
_cell_length_c   12.41291725
_cell_angle_alpha   88.71508725
_cell_angle_beta   88.71508725
_cell_angle_gamma   60.82083962
_symmetry_Int_Tables_number   1
_chemical_formula_structural   K2(ReSe2)3
_chemical_formula_sum   'K8 Re12 Se24'
_cell_volume   1092.56574672
_cell_formula_units_Z   4
loop_
 _symmetry_equiv_pos_site_id
 _symmetry_equiv_pos_as_xyz
  1  'x, y, z'
loop_
 _atom_site_type_symbol
 _atom_site_label
 _atom_site_symmetry_multiplicity
 _atom_site_fract_x
 _atom_site_fract_y
 _atom_site_fract_z
 _atom_site_occupancy
  K  K0  1  0.60314911  0.39685089  0.75000000  1
  K  K1  1  0.39685089  0.60314911  0.25000000  1
  K  K2  1  0.21729296  0.78270704  0.75000000  1
  K  K3  1  0.78270704  0.21729296  0.25000000  1
  K  K4  1  0.12337993  0.64812560  0.01739382  1
  K  K5  1  0.35187440  0.87662007  0.48260618  1
  K  K6  1  0.87662007  0.35187440  0.98260618  1
  K  K7  1  0.64812560  0.12337993  0.51739382  1
  Re  Re0  1  0.00342180  0.31545450  0.52586581  1
  Re  Re1  1  0.68454550  0.99657820  0.97413419  1
  Re  Re2  1  0.99657820  0.68454550  0.47413419  1
  Re  Re3  1  0.31545450  0.00342180  0.02586581  1
  Re  Re4  1  0.11268579  0.47035136  0.62551590  1
  Re  Re5  1  0.52964864  0.88731421  0.87448410  1
  Re  Re6  1  0.88731421  0.52964864  0.37448410  1
  Re  Re7  1  0.47035136  0.11268579  0.12551590  1
  Re  Re8  1  0.81845642  0.60052440  0.58127557  1
  Re  Re9  1  0.39947560  0.18154358  0.91872443  1
  Re  Re10  1  0.18154358  0.39947560  0.41872443  1
  Re  Re11  1  0.60052440  0.81845642  0.08127557  1
  Se  Se0  1  0.07181069  0.25267305  0.33018480  1
  Se  Se1  1  0.74732695  0.92818931  0.16981520  1
  Se  Se2  1  0.92818931  0.74732695  0.66981520  1
  Se  Se3  1  0.25267305  0.07181069  0.83018480  1
  Se  Se4  1  0.80000480  0.71408377  0.93097958  1
  Se  Se5  1  0.28591623  0.19999520  0.56902042  1
  Se  Se6  1  0.19999520  0.28591623  0.06902042  1
  Se  Se7  1  0.71408377  0.80000480  0.43097958  1
  Se  Se8  1  0.06050895  0.61097899  0.27839591  1
  Se  Se9  1  0.38902101  0.93949105  0.22160409  1
  Se  Se10  1  0.93949105  0.38902101  0.72160409  1
  Se  Se11  1  0.61097899  0.06050895  0.77839591  1
  Se  Se12  1  0.28185159  0.55263608  0.51882099  1
  Se  Se13  1  0.44736392  0.71814841  0.98117901  1
  Se  Se14  1  0.71814841  0.44736392  0.48117901  1
  Se  Se15  1  0.55263608  0.28185159  0.01882099  1
  Se  Se16  1  0.06699700  0.99646261  0.08136223  1
  Se  Se17  1  0.00353739  0.93300300  0.41863777  1
  Se  Se18  1  0.93300300  0.00353739  0.91863777  1
  Se  Se19  1  0.99646261  0.06699700  0.58136223  1
  Se  Se20  1  0.26473158  0.43940275  0.80440625  1
  Se  Se21  1  0.56059725  0.73526842  0.69559375  1
  Se  Se22  1  0.73526842  0.56059725  0.19559375  1
  Se  Se23  1  0.43940275  0.26473158  0.30440625  1
loop_
_geom_bond_atom_site_label_1
_geom_bond_atom_site_label_2
_geom_bond_distance
_geom_bond_site_symmetry_2
K0 Se21 3.268356 1_555
K0 Se20 3.268356 1_555
K0 Se10 3.350755 1_555
K0 Se11 3.350755 1_555
K0 Se14 3.612207 1_555
K0 Se15 3.612207 1_556
K1 Se23 3.268356 1_555
K1 Se22 3.268356 1_555
K1 Se9 3.350755 1_555
K1 Se8 3.350755 1_555
K1 Se13 3.612207 1_554
K1 Se12 3.612207 1_555
K2 Se2 3.270616 1_455
K2 Se3 3.270616 1_565
K2 Se20 3.298036 1_555
K2 Se21 3.298036 1_555
K2 Se18 3.349172 1_465
K2 Se19 3.349172 1_465
K2 Se12 3.570200 1_555
K2 Se13 3.570200 1_555
K3 Se1 3.270616 1_545
K3 Se0 3.270616 1_655
K3 Se23 3.298036 1_555
K3 Se22 3.298036 1_555
K3 Se16 3.349172 1_645
K3 Se17 3.349172 1_645
K3 Se15 3.570200 1_555
K3 Se14 3.570200 1_555
K4 Se4 3.187769 1_454
K4 Se20 3.252233 1_554
K4 Se8 3.334332 1_555
K4 Se18 3.339419 1_464
K4 Se16 3.370560 1_555
K4 Se6 3.379628 1_555
K4 Se13 3.665092 1_554
K5 Se5 3.187769 1_565
K5 Se21 3.252233 1_555
K5 Se9 3.334332 1_555
K5 Se19 3.339419 1_465
K5 Se17 3.370560 1_555
K5 Se7 3.379628 1_555
K5 Se12 3.665092 1_555
K6 Se6 3.187769 1_656
K6 Se22 3.252233 1_556
K6 Se10 3.334332 1_555
K6 Se16 3.339419 1_646
K6 Se18 3.370560 1_555
K6 Se4 3.379628 1_555
K6 Se15 3.665092 1_556
K7 Se7 3.187769 1_545
K7 Se23 3.252233 1_555
K7 Se11 3.334332 1_555
K7 Se17 3.339419 1_645
K7 Se19 3.370560 1_555
K7 Se5 3.379628 1_555
K7 Se14 3.665092 1_555
Re0 Se0 2.518078 1_555
Re0 Se10 2.531675 1_455
Re0 Se5 2.551883 1_555
Re0 Se14 2.570473 1_455
Re0 Se19 2.606822 1_455
Re1 Se1 2.518078 1_556
Re1 Se11 2.531675 1_565
Re1 Se4 2.551883 1_555
Re1 Se15 2.570473 1_566
Re1 Se18 2.606822 1_565
Re2 Se2 2.518078 1_555
Re2 Se8 2.531675 1_655
Re2 Se7 2.551883 1_555
Re2 Se12 2.570473 1_655
Re2 Se17 2.606822 1_655
Re3 Se3 2.518078 1_554
Re3 Se9 2.531675 1_545
Re3 Se6 2.551883 1_555
Re3 Se13 2.570473 1_544
Re3 Se16 2.606822 1_545
Re4 Se5 2.512857 1_555
Re4 Se10 2.522513 1_455
Re4 Se2 2.543512 1_455
Re4 Se12 2.557639 1_555
Re4 Se20 2.648994 1_555
Re5 Se4 2.512857 1_555
Re5 Se11 2.522513 1_565
Re5 Se3 2.543512 1_565
Re5 Se13 2.557639 1_555
Re5 Se21 2.648994 1_555
Re6 Se7 2.512857 1_555
Re6 Se8 2.522513 1_655
Re6 Se0 2.543512 1_655
Re6 Se14 2.557639 1_555
Re6 Se22 2.648994 1_555
Re7 Se6 2.512857 1_555
Re7 Se9 2.522513 1_545
Re7 Se1 2.543512 1_545
Re7 Se15 2.557639 1_555
Re7 Se23 2.648994 1_555
Re8 Se2 2.511283 1_555
Re8 Se10 2.536625 1_555
Re8 Se7 2.542586 1_555
Re8 Se14 2.564499 1_555
Re8 Se21 2.656063 1_555
Re9 Se3 2.511283 1_555
Re9 Se11 2.536625 1_555
Re9 Se6 2.542586 1_556
Re9 Se15 2.564499 1_556
Re9 Se20 2.656063 1_555
Re10 Se0 2.511283 1_555
Re10 Se8 2.536625 1_555
Re10 Se5 2.542586 1_555
Re10 Se12 2.564499 1_555
Re10 Se23 2.656063 1_555
Re11 Se1 2.511283 1_555
Re11 Se9 2.536625 1_555
Re11 Se4 2.542586 1_554
Re11 Se13 2.564499 1_554
Re11 Se22 2.656063 1_555
Se16 Se18 2.432662 1_464
Se17 Se19 2.432662 1_465
