# generated using pymatgen
data_Ta6Ni16Ge7
_symmetry_space_group_name_H-M   'P 1'
_cell_length_a   8.10859711
_cell_length_b   8.10859711
_cell_length_c   8.10859711
_cell_angle_alpha   60.00000000
_cell_angle_beta   60.00000000
_cell_angle_gamma   60.00000000
_symmetry_Int_Tables_number   1
_chemical_formula_structural   Ta6Ni16Ge7
_chemical_formula_sum   'Ta6 Ni16 Ge7'
_cell_volume   376.98334915
_cell_formula_units_Z   1
loop_
 _symmetry_equiv_pos_site_id
 _symmetry_equiv_pos_as_xyz
  1  'x, y, z'
loop_
 _atom_site_type_symbol
 _atom_site_label
 _atom_site_symmetry_multiplicity
 _atom_site_fract_x
 _atom_site_fract_y
 _atom_site_fract_z
 _atom_site_occupancy
  Ta  Ta0  1  0.19907400  0.80092600  0.80092600  1
  Ta  Ta1  1  0.80092600  0.80092600  0.19907400  1
  Ta  Ta2  1  0.80092600  0.19907400  0.19907400  1
  Ta  Ta3  1  0.19907400  0.19907400  0.80092600  1
  Ta  Ta4  1  0.80092600  0.19907400  0.80092600  1
  Ta  Ta5  1  0.19907400  0.80092600  0.19907400  1
  Ni  Ni0  1  0.61720200  0.61720200  0.14839300  1
  Ni  Ni1  1  0.16610900  0.50167300  0.16610900  1
  Ni  Ni2  1  0.85160700  0.38279800  0.38279800  1
  Ni  Ni3  1  0.49832700  0.83389100  0.83389100  1
  Ni  Ni4  1  0.50167300  0.16610900  0.16610900  1
  Ni  Ni5  1  0.83389100  0.83389100  0.49832700  1
  Ni  Ni6  1  0.16610900  0.16610900  0.50167300  1
  Ni  Ni7  1  0.14839300  0.61720200  0.61720200  1
  Ni  Ni8  1  0.16610900  0.16610900  0.16610900  1
  Ni  Ni9  1  0.38279800  0.38279800  0.85160700  1
  Ni  Ni10  1  0.61720200  0.61720200  0.61720200  1
  Ni  Ni11  1  0.38279800  0.85160700  0.38279800  1
  Ni  Ni12  1  0.38279800  0.38279800  0.38279800  1
  Ni  Ni13  1  0.83389100  0.83389100  0.83389100  1
  Ni  Ni14  1  0.61720200  0.14839300  0.61720200  1
  Ni  Ni15  1  0.83389100  0.49832700  0.83389100  1
  Ge  Ge0  1  0.50000000  0.00000000  0.50000000  1
  Ge  Ge1  1  0.50000000  0.50000000  0.00000000  1
  Ge  Ge2  1  0.50000000  0.50000000  0.50000000  1
  Ge  Ge3  1  0.00000000  0.00000000  0.50000000  1
  Ge  Ge4  1  0.00000000  0.50000000  0.00000000  1
  Ge  Ge5  1  0.00000000  0.50000000  0.50000000  1
  Ge  Ge6  1  0.50000000  0.00000000  0.00000000  1
loop_
_geom_bond_atom_site_label_1
_geom_bond_atom_site_label_2
_geom_bond_distance
_geom_bond_site_symmetry_2
Ni0 Ni15 2.608339 1_554
Ni0 Ni3 2.608339 1_554
Ni0 Ni13 2.608343 1_554
Ni0 Ni12 2.687978 1_555
Ni0 Ni11 2.687990 1_555
Ni0 Ni2 2.687990 1_555
Ni0 Ta5 2.837477 1_555
Ni0 Ta2 2.837477 1_555
Ni0 Ta1 2.837484 1_555
Ni1 Ni2 2.608339 1_455
Ni1 Ni9 2.608339 1_554
Ni1 Ni12 2.608346 1_555
Ni1 Ta1 2.720216 1_455
Ni1 Ta5 2.720216 1_555
Ni1 Ta0 2.720216 1_554
Ni2 Ni6 2.608339 1_655
Ni2 Ni8 2.608343 1_655
Ni2 Ta1 2.837477 1_555
Ni2 Ta4 2.837477 1_555
Ni2 Ta2 2.837484 1_555
Ni3 Ta5 2.720216 1_556
Ni3 Ta3 2.720216 1_565
Ni3 Ta0 2.720216 1_555
Ni4 Ni9 2.608339 1_554
Ni4 Ta1 2.720216 1_545
Ni4 Ta4 2.720216 1_554
Ni4 Ta2 2.720216 1_555
Ni5 Ni7 2.608339 1_655
Ni5 Ta2 2.720216 1_565
Ni5 Ta5 2.720216 1_655
Ni5 Ta1 2.720216 1_555
Ni6 Ta4 2.720216 1_455
Ni6 Ta0 2.720216 1_545
Ni6 Ta3 2.720216 1_555
Ni7 Ni9 2.687990 1_555
Ni7 Ta5 2.837477 1_555
Ni7 Ta3 2.837477 1_555
Ni7 Ta0 2.837484 1_555
Ni8 Ni9 2.608343 1_554
Ni8 Ta2 2.720216 1_455
Ni8 Ta5 2.720216 1_545
Ni8 Ta3 2.720216 1_554
Ni9 Ta4 2.837477 1_555
Ni9 Ta0 2.837477 1_555
Ni9 Ta3 2.837484 1_555
Ni10 Ni3 2.608346 1_555
Ni10 Ni5 2.608346 1_555
Ni10 Ni15 2.608346 1_555
Ni10 Ni2 2.687978 1_555
Ni10 Ni11 2.687978 1_555
Ni10 Ni9 2.687978 1_555
Ni10 Ta0 2.837479 1_555
Ni10 Ta1 2.837479 1_555
Ni10 Ta4 2.837479 1_555
Ni11 Ni4 2.608339 1_565
Ni11 Ni6 2.608339 1_565
Ni11 Ni8 2.608343 1_565
Ni11 Ni7 2.687990 1_555
Ni11 Ta0 2.837477 1_555
Ni11 Ta1 2.837477 1_555
Ni11 Ta5 2.837484 1_555
Ni12 Ni4 2.608346 1_555
Ni12 Ni6 2.608346 1_555
Ni12 Ni7 2.687978 1_555
Ni12 Ni14 2.687978 1_555
Ni12 Ta2 2.837479 1_555
Ni12 Ta5 2.837479 1_555
Ni12 Ta3 2.837479 1_555
Ni13 Ni14 2.608343 1_565
Ni13 Ni7 2.608343 1_655
Ni13 Ta4 2.720216 1_565
Ni13 Ta1 2.720216 1_556
Ni13 Ta0 2.720216 1_655
Ni14 Ni3 2.608339 1_545
Ni14 Ni5 2.608339 1_545
Ni14 Ni2 2.687990 1_555
Ni14 Ni9 2.687990 1_555
Ni14 Ta2 2.837477 1_555
Ni14 Ta3 2.837477 1_555
Ni14 Ta4 2.837484 1_555
Ni15 Ni7 2.608339 1_655
Ni15 Ta2 2.720216 1_556
Ni15 Ta3 2.720216 1_655
Ni15 Ta4 2.720216 1_555
Ge0 Ni6 2.340777 1_555
Ge0 Ni4 2.340777 1_555
Ge0 Ni3 2.340777 1_545
Ge0 Ni5 2.340777 1_545
Ge0 Ni11 2.538565 1_545
Ge0 Ni14 2.538565 1_555
Ge0 Ni10 2.538572 1_545
Ge0 Ni12 2.538572 1_555
Ge0 Ta0 2.925697 1_545
Ge0 Ta1 2.925697 1_545
Ge0 Ta2 2.925697 1_555
Ge0 Ta3 2.925697 1_555
Ge1 Ni1 2.340777 1_555
Ge1 Ni4 2.340777 1_555
Ge1 Ni3 2.340777 1_554
Ge1 Ni15 2.340777 1_554
Ge1 Ni9 2.538565 1_554
Ge1 Ni0 2.538565 1_555
Ge1 Ni10 2.538572 1_554
Ge1 Ni12 2.538572 1_555
Ge1 Ta0 2.925697 1_554
Ge1 Ta4 2.925697 1_554
Ge1 Ta5 2.925697 1_555
Ge1 Ta2 2.925697 1_555
Ge2 Ni12 2.327857 1_555
Ge2 Ni10 2.327857 1_555
Ge2 Ni14 2.327864 1_555
Ge2 Ni0 2.327864 1_555
Ge2 Ni9 2.327864 1_555
Ge2 Ni7 2.327864 1_555
Ge2 Ni11 2.327864 1_555
Ge2 Ni2 2.327864 1_555
Ge3 Ni5 2.340777 1_445
Ge3 Ni13 2.340777 1_445
Ge3 Ni8 2.340777 1_555
Ge3 Ni6 2.340777 1_555
Ge3 Ni7 2.538571 1_545
Ge3 Ni14 2.538571 1_455
Ge3 Ni2 2.538571 1_455
Ge3 Ni11 2.538571 1_545
Ge3 Ta2 2.925697 1_455
Ge3 Ta5 2.925697 1_545
Ge3 Ta0 2.925697 1_545
Ge3 Ta4 2.925697 1_455
Ge4 Ni15 2.340777 1_454
Ge4 Ni13 2.340777 1_454
Ge4 Ni8 2.340777 1_555
Ge4 Ni1 2.340777 1_555
Ge4 Ni0 2.538571 1_455
Ge4 Ni7 2.538571 1_554
Ge4 Ni2 2.538571 1_455
Ge4 Ni9 2.538571 1_554
Ge4 Ta1 2.925697 1_455
Ge4 Ta2 2.925697 1_455
Ge4 Ta3 2.925697 1_554
Ge4 Ta0 2.925697 1_554
Ge5 Ni6 2.340777 1_555
Ge5 Ni1 2.340777 1_555
Ge5 Ni5 2.340777 1_455
Ge5 Ni15 2.340777 1_455
Ge5 Ni2 2.538565 1_455
Ge5 Ni7 2.538565 1_555
Ge5 Ni10 2.538572 1_455
Ge5 Ni12 2.538572 1_555
Ge5 Ta4 2.925697 1_455
Ge5 Ta1 2.925697 1_455
Ge5 Ta3 2.925697 1_555
Ge5 Ta5 2.925697 1_555
Ge6 Ni3 2.340777 1_544
Ge6 Ni8 2.340777 1_555
Ge6 Ni4 2.340777 1_555
Ge6 Ni13 2.340777 1_544
Ge6 Ni0 2.538571 1_545
Ge6 Ni14 2.538571 1_554
Ge6 Ni9 2.538571 1_554
Ge6 Ni11 2.538571 1_545
Ge6 Ta4 2.925697 1_554
Ge6 Ta1 2.925697 1_545
Ge6 Ta3 2.925697 1_554
Ge6 Ta5 2.925697 1_545
