# generated using pymatgen
data_KNa3WO5
_symmetry_space_group_name_H-M   'P 1'
_cell_length_a   5.94450819
_cell_length_b   5.94450819
_cell_length_c   9.20817813
_cell_angle_alpha   79.14565192
_cell_angle_beta   79.14565192
_cell_angle_gamma   79.15354572
_symmetry_Int_Tables_number   1
_chemical_formula_structural   KNa3WO5
_chemical_formula_sum   'K2 Na6 W2 O10'
_cell_volume   309.89320180
_cell_formula_units_Z   2
loop_
 _symmetry_equiv_pos_site_id
 _symmetry_equiv_pos_as_xyz
  1  'x, y, z'
loop_
 _atom_site_type_symbol
 _atom_site_label
 _atom_site_symmetry_multiplicity
 _atom_site_fract_x
 _atom_site_fract_y
 _atom_site_fract_z
 _atom_site_occupancy
  K  K0  1  0.25112000  0.74888000  0.50000000  1
  K  K1  1  0.74888000  0.25112000  0.50000000  1
  Na  Na0  1  0.35190300  0.84217100  0.11283200  1
  Na  Na1  1  0.15782900  0.64809700  0.88716800  1
  Na  Na2  1  0.64809700  0.15782900  0.88716800  1
  Na  Na3  1  0.81025800  0.81025800  0.27358800  1
  Na  Na4  1  0.84217100  0.35190300  0.11283200  1
  Na  Na5  1  0.18974200  0.18974200  0.72641200  1
  W  W0  1  0.30875700  0.30875700  0.25809300  1
  W  W1  1  0.69124300  0.69124300  0.74190700  1
  O  O0  1  0.74628800  0.74628800  0.53380200  1
  O  O1  1  0.25371200  0.25371200  0.46619800  1
  O  O2  1  0.55538400  0.11683400  0.15462700  1
  O  O3  1  0.90092100  0.90092100  0.75086400  1
  O  O4  1  0.52079300  0.52079300  0.25810900  1
  O  O5  1  0.11683400  0.55538400  0.15462700  1
  O  O6  1  0.88316600  0.44461600  0.84537300  1
  O  O7  1  0.47920700  0.47920700  0.74189100  1
  O  O8  1  0.09907900  0.09907900  0.24913600  1
  O  O9  1  0.44461600  0.88316600  0.84537300  1
loop_
_geom_bond_atom_site_label_1
_geom_bond_atom_site_label_2
_geom_bond_distance
_geom_bond_site_symmetry_2
K0 O7 2.888600 1_555
K0 O4 2.888600 1_555
K0 O8 2.958675 1_565
K0 O3 2.958675 1_455
K0 O1 2.960876 1_565
K0 O0 2.960876 1_455
K0 O0 3.014577 1_555
K0 O1 3.014577 1_555
K1 O7 2.888600 1_555
K1 O4 2.888600 1_555
K1 O8 2.958675 1_655
K1 O3 2.958675 1_545
K1 O1 2.960876 1_655
K1 O0 2.960876 1_545
K1 O0 3.014577 1_555
K1 O1 3.014577 1_555
Na0 O4 2.295363 1_555
Na0 O8 2.305216 1_565
Na0 O2 2.330736 1_565
Na0 O5 2.335390 1_555
Na0 O9 2.396219 1_554
Na1 O7 2.295363 1_555
Na1 O3 2.305216 1_455
Na1 O6 2.330736 1_455
Na1 O9 2.335390 1_555
Na1 O5 2.396219 1_556
Na2 O7 2.295363 1_555
Na2 O3 2.305216 1_545
Na2 O9 2.330736 1_545
Na2 O6 2.335390 1_555
Na2 O2 2.396219 1_556
Na3 O0 2.323484 1_555
Na3 O2 2.377136 1_565
Na3 O5 2.377136 1_655
Na3 O8 2.600844 1_665
Na3 O4 2.690950 1_555
Na4 O4 2.295363 1_555
Na4 O8 2.305216 1_655
Na4 O5 2.330736 1_655
Na4 O2 2.335390 1_555
Na4 O6 2.396219 1_554
Na5 O1 2.323484 1_555
Na5 O6 2.377136 1_455
Na5 O9 2.377136 1_545
Na5 O3 2.600844 1_445
Na5 O7 2.690950 1_555
O0 W1 1.858549 1_555
O1 W0 1.858549 1_555
O2 W0 1.900662 1_555
O3 W1 1.943227 1_555
O4 W0 1.943074 1_555
O5 W0 1.900662 1_555
O6 W1 1.900662 1_555
O7 W1 1.943074 1_555
O8 W0 1.943227 1_555
O9 W1 1.900662 1_555
