# generated using pymatgen
data_K2RuN3Cl3O5
_symmetry_space_group_name_H-M   'P 1'
_cell_length_a   7.19459800
_cell_length_b   7.68874830
_cell_length_c   10.46708354
_cell_angle_alpha   90.40703383
_cell_angle_beta   102.11787025
_cell_angle_gamma   90.53827352
_symmetry_Int_Tables_number   1
_chemical_formula_structural   K2RuN3Cl3O5
_chemical_formula_sum   'K4 Ru2 N6 Cl6 O10'
_cell_volume   566.06136305
_cell_formula_units_Z   2
loop_
 _symmetry_equiv_pos_site_id
 _symmetry_equiv_pos_as_xyz
  1  'x, y, z'
loop_
 _atom_site_type_symbol
 _atom_site_label
 _atom_site_symmetry_multiplicity
 _atom_site_fract_x
 _atom_site_fract_y
 _atom_site_fract_z
 _atom_site_occupancy
  K  K0  1  0.76953600  0.74837200  0.02200900  1
  K  K1  1  0.61855700  0.25440500  0.63645000  1
  K  K2  1  0.38144300  0.74559500  0.36355000  1
  K  K3  1  0.23046400  0.25162800  0.97799100  1
  Ru  Ru0  1  0.12900200  0.75407400  0.73895100  1
  Ru  Ru1  1  0.87099800  0.24592600  0.26104900  1
  N  N0  1  0.30835500  0.95253600  0.69731900  1
  N  N1  1  0.67613900  0.43356500  0.29467500  1
  N  N2  1  0.98607900  0.25496200  0.42622700  1
  N  N3  1  0.32386100  0.56643500  0.70532500  1
  N  N4  1  0.69164500  0.04746400  0.30268100  1
  N  N5  1  0.01392100  0.74503800  0.57377300  1
  Cl  Cl0  1  0.08799700  0.02796700  0.20719900  1
  Cl  Cl1  1  0.29136200  0.76855100  0.95726500  1
  Cl  Cl2  1  0.91200300  0.97203300  0.79280100  1
  Cl  Cl3  1  0.07089700  0.47660300  0.20001000  1
  Cl  Cl4  1  0.70863800  0.23144900  0.04273500  1
  Cl  Cl5  1  0.92910300  0.52339700  0.79999000  1
  O  O0  1  0.59822900  0.53270300  0.20664400  1
  O  O1  1  0.64264100  0.44678100  0.40737100  1
  O  O2  1  0.34740900  0.95568600  0.58598900  1
  O  O3  1  0.35735900  0.55321900  0.59262900  1
  O  O4  1  0.65259100  0.04431400  0.41401100  1
  O  O5  1  0.05492900  0.25956700  0.53763600  1
  O  O6  1  0.37252200  0.06742700  0.77945400  1
  O  O7  1  0.40177100  0.46729700  0.79335600  1
  O  O8  1  0.94507100  0.74043300  0.46236400  1
  O  O9  1  0.62747800  0.93257300  0.22054600  1
loop_
_geom_bond_atom_site_label_1
_geom_bond_atom_site_label_2
_geom_bond_distance
_geom_bond_site_symmetry_2
K0 O9 2.871592 1_555
K0 O0 3.001798 1_555
K1 O1 2.861338 1_555
K1 O4 2.878115 1_555
K1 O6 2.921609 1_555
K1 O3 2.958812 1_555
K1 O2 2.970817 1_545
K1 O7 2.982368 1_555
K2 O3 2.861338 1_555
K2 O2 2.878115 1_555
K2 O9 2.921609 1_555
K2 O1 2.958812 1_555
K2 O4 2.970817 1_565
K2 O0 2.982368 1_555
K3 O6 2.871592 1_555
K3 O7 3.001798 1_555
N0 O6 1.243980 1_565
N0 O2 1.255070 1_555
N0 Ru0 2.095693 1_555
N1 O0 1.243143 1_555
N1 O1 1.256175 1_555
N1 Ru1 2.099680 1_555
N2 O5 1.167493 1_655
N2 Ru1 1.753784 1_555
N3 O7 1.243143 1_555
N3 O3 1.256175 1_555
N3 Ru0 2.099680 1_555
N4 O9 1.243980 1_545
N4 O4 1.255070 1_555
N4 Ru1 2.095693 1_555
N5 O8 1.167493 1_455
N5 Ru0 1.753784 1_555
Cl0 Ru1 2.443097 1_455
Cl0 K2 3.245789 1_545
Cl0 K3 3.289635 1_554
Cl0 K0 3.407631 1_445
Cl1 Ru0 2.339203 1_555
Cl1 K0 3.369194 1_556
Cl2 Ru0 2.443097 1_655
Cl2 K1 3.245789 1_565
Cl2 K0 3.289635 1_556
Cl2 K3 3.407631 1_665
Cl3 Ru1 2.444640 1_455
Cl3 K2 3.233689 1_555
Cl3 K3 3.287985 1_554
Cl3 K0 3.314059 1_455
Cl4 Ru1 2.339203 1_555
Cl4 K3 3.369194 1_554
Cl5 Ru0 2.444640 1_655
Cl5 K1 3.233689 1_555
Cl5 K0 3.287985 1_556
Cl5 K3 3.314059 1_655
