# generated using pymatgen
data_ZnS
_symmetry_space_group_name_H-M   'P 1'
_cell_length_a   3.80770354
_cell_length_b   3.80770221
_cell_length_c   74.71252571
_cell_angle_alpha   90.00000000
_cell_angle_beta   90.00000000
_cell_angle_gamma   120.00000265
_symmetry_Int_Tables_number   1
_chemical_formula_structural   ZnS
_chemical_formula_sum   'Zn24 S24'
_cell_volume   938.10217470
_cell_formula_units_Z   24
loop_
 _symmetry_equiv_pos_site_id
 _symmetry_equiv_pos_as_xyz
  1  'x, y, z'
loop_
 _atom_site_type_symbol
 _atom_site_label
 _atom_site_symmetry_multiplicity
 _atom_site_fract_x
 _atom_site_fract_y
 _atom_site_fract_z
 _atom_site_occupancy
  Zn  Zn0  1  0.66666700  0.33333300  0.58333373  1
  Zn  Zn1  1  0.33333300  0.66666700  0.66667343  1
  Zn  Zn2  1  0.66666700  0.33333300  0.33334368  1
  Zn  Zn3  1  0.33333300  0.66666700  0.29168493  1
  Zn  Zn4  1  -0.00000000  0.00000000  0.37500897  1
  Zn  Zn5  1  0.66666700  0.33333300  0.08334636  1
  Zn  Zn6  1  -0.00000000  -0.00000000  0.83333933  1
  Zn  Zn7  1  0.66666700  0.33333300  0.20835044  1
  Zn  Zn8  1  0.00000000  -0.00000000  0.70836933  1
  Zn  Zn9  1  0.33333300  0.66666700  0.54167222  1
  Zn  Zn10  1  0.33333300  0.66666700  0.04170476  1
  Zn  Zn11  1  0.66666700  0.33333300  0.45833616  1
  Zn  Zn12  1  -0.00000000  0.00000000  0.12501655  1
  Zn  Zn13  1  0.33333300  0.66666700  0.16668651  1
  Zn  Zn14  1  0.33333300  0.66666700  0.41667552  1
  Zn  Zn15  1  -0.00000000  -0.00000000  0.50000406  1
  Zn  Zn16  1  0.33333300  0.66666700  0.79166024  1
  Zn  Zn17  1  0.33333300  0.66666700  0.95834795  1
  Zn  Zn18  1  0.00000000  -0.00000000  0.25001696  1
  Zn  Zn19  1  0.66666700  0.33333300  0.91667465  1
  Zn  Zn20  1  0.66666700  0.33333300  0.75000549  1
  Zn  Zn21  1  -0.00000000  -0.00000000  0.62498804  1
  Zn  Zn22  1  0.33333300  0.66666700  0.87501351  1
  Zn  Zn23  1  0.00000000  -0.00000000  0.00000783  1
  S  S0  1  0.33333300  0.66666700  0.19791606  1
  S  S1  1  -0.00000000  -0.00000000  0.40624006  1
  S  S2  1  0.00000000  -0.00000000  0.53123518  1
  S  S3  1  0.33333300  0.66666700  0.44790294  1
  S  S4  1  0.66666700  0.33333300  0.23957855  1
  S  S5  1  0.33333300  0.66666700  0.98954238  1
  S  S6  1  0.00000000  -0.00000000  0.73957506  1
  S  S7  1  -0.00000000  0.00000000  0.03127253  1
  S  S8  1  0.00000000  0.00000000  0.86459905  1
  S  S9  1  0.33333300  0.66666700  0.82286581  1
  S  S10  1  0.66666700  0.33333300  0.61455946  1
  S  S11  1  0.66666700  0.33333300  0.94793597  1
  S  S12  1  -0.00000000  -0.00000000  0.15624955  1
  S  S13  1  0.66666700  0.33333300  0.78123177  1
  S  S14  1  0.33333300  0.66666700  0.69793830  1
  S  S15  1  0.66666700  0.33333300  0.48956411  1
  S  S16  1  0.00000000  -0.00000000  0.65620100  1
  S  S17  1  0.00000000  -0.00000000  0.28124915  1
  S  S18  1  0.66666700  0.33333300  0.36457095  1
  S  S19  1  0.33333300  0.66666700  0.57289952  1
  S  S20  1  0.33333300  0.66666700  0.07291632  1
  S  S21  1  0.66666700  0.33333300  0.11457652  1
  S  S22  1  0.33333300  0.66666700  0.90620839  1
  S  S23  1  0.33333300  0.66666700  0.32291170  1
loop_
_geom_bond_atom_site_label_1
_geom_bond_atom_site_label_2
_geom_bond_distance
_geom_bond_site_symmetry_2
S0 Zn7 2.332509 1_565
S0 Zn7 2.332510 1_455
S0 Zn7 2.332516 1_555
S0 Zn13 2.333239 1_555
S1 Zn14 2.332537 1_545
S1 Zn14 2.332539 1_555
S1 Zn14 2.332540 1_445
S1 Zn4 2.333354 1_555
S2 Zn9 2.332576 1_545
S2 Zn9 2.332579 1_555
S2 Zn9 2.332579 1_445
S2 Zn15 2.333356 1_555
S3 Zn11 2.332480 1_565
S3 Zn11 2.332481 1_455
S3 Zn11 2.332487 1_555
S3 Zn14 2.333079 1_555
S4 Zn18 2.332610 1_655
S4 Zn18 2.332613 1_665
S4 Zn18 2.332614 1_555
S4 Zn7 2.333131 1_555
S5 Zn17 2.330615 1_555
S5 Zn23 2.333286 1_566
S5 Zn23 2.333289 1_556
S5 Zn23 2.333290 1_666
S6 Zn8 2.331459 1_555
S6 Zn20 2.332411 1_455
S6 Zn20 2.332414 1_445
S6 Zn20 2.332414 1_555
S7 Zn10 2.332456 1_545
S7 Zn10 2.332459 1_555
S7 Zn10 2.332459 1_445
S7 Zn23 2.335865 1_555
S8 Zn22 2.332013 1_545
S8 Zn22 2.332015 1_555
S8 Zn22 2.332016 1_445
S8 Zn6 2.335493 1_555
S9 Zn16 2.331447 1_555
S9 Zn6 2.333489 1_565
S9 Zn6 2.333491 1_555
S9 Zn6 2.333492 1_665
S10 Zn21 2.332365 1_655
S10 Zn21 2.332367 1_665
S10 Zn21 2.332368 1_555
S10 Zn0 2.332953 1_555
S11 Zn17 2.331950 1_545
S11 Zn17 2.331951 1_655
S11 Zn17 2.331957 1_555
S11 Zn19 2.335612 1_555
S12 Zn13 2.332574 1_545
S12 Zn13 2.332577 1_555
S12 Zn13 2.332577 1_445
S12 Zn12 2.333496 1_555
S13 Zn16 2.332362 1_545
S13 Zn16 2.332362 1_655
S13 Zn16 2.332368 1_555
S13 Zn20 2.332994 1_555
S14 Zn8 2.332426 1_565
S14 Zn8 2.332429 1_555
S14 Zn8 2.332429 1_665
S14 Zn1 2.335877 1_555
S15 Zn15 2.332649 1_655
S15 Zn15 2.332651 1_665
S15 Zn15 2.332652 1_555
S15 Zn11 2.333119 1_555
S16 Zn21 2.331999 1_555
S16 Zn1 2.333461 1_545
S16 Zn1 2.333464 1_555
S16 Zn1 2.333465 1_445
S17 Zn3 2.332545 1_545
S17 Zn3 2.332547 1_555
S17 Zn3 2.332548 1_445
S17 Zn18 2.333436 1_555
S18 Zn4 2.332600 1_655
S18 Zn4 2.332603 1_665
S18 Zn4 2.332604 1_555
S18 Zn2 2.333068 1_555
S19 Zn0 2.332505 1_565
S19 Zn0 2.332506 1_455
S19 Zn0 2.332512 1_555
S19 Zn9 2.333070 1_555
S20 Zn10 2.331894 1_555
S20 Zn5 2.332401 1_565
S20 Zn5 2.332401 1_455
S20 Zn5 2.332407 1_555
S21 Zn12 2.332651 1_655
S21 Zn12 2.332653 1_665
S21 Zn12 2.332654 1_555
S21 Zn5 2.333284 1_555
S22 Zn22 2.330648 1_555
S22 Zn19 2.333306 1_565
S22 Zn19 2.333307 1_455
S22 Zn19 2.333313 1_555
S23 Zn2 2.332449 1_565
S23 Zn2 2.332450 1_455
S23 Zn2 2.332456 1_555
S23 Zn3 2.333031 1_555
