# generated using pymatgen
data_Ca2Sb4Pd3
_symmetry_space_group_name_H-M   'P 1'
_cell_length_a   21.38813430
_cell_length_b   21.38813430
_cell_length_c   21.38813430
_cell_angle_alpha   167.88168362
_cell_angle_beta   167.88168362
_cell_angle_gamma   17.17013822
_symmetry_Int_Tables_number   1
_chemical_formula_structural   Ca2Sb4Pd3
_chemical_formula_sum   'Ca4 Sb8 Pd6'
_cell_volume   431.16631975
_cell_formula_units_Z   2
loop_
 _symmetry_equiv_pos_site_id
 _symmetry_equiv_pos_as_xyz
  1  'x, y, z'
loop_
 _atom_site_type_symbol
 _atom_site_label
 _atom_site_symmetry_multiplicity
 _atom_site_fract_x
 _atom_site_fract_y
 _atom_site_fract_z
 _atom_site_occupancy
  Ca  Ca0  1  0.81252400  0.81252400  0.00000000  1
  Ca  Ca1  1  0.18747600  0.18747600  0.00000000  1
  Ca  Ca2  1  0.94451500  0.94451500  0.00000000  1
  Ca  Ca3  1  0.05548500  0.05548500  0.00000000  1
  Sb  Sb0  1  0.61822200  0.11822200  0.50000000  1
  Sb  Sb1  1  0.71558100  0.71558100  0.00000000  1
  Sb  Sb2  1  0.88177800  0.38177800  0.50000000  1
  Sb  Sb3  1  0.53724200  0.53724200  0.00000000  1
  Sb  Sb4  1  0.38177800  0.88177800  0.50000000  1
  Sb  Sb5  1  0.46275800  0.46275800  0.00000000  1
  Sb  Sb6  1  0.11822200  0.61822200  0.50000000  1
  Sb  Sb7  1  0.28441900  0.28441900  0.00000000  1
  Pd  Pd0  1  0.65391700  0.65391700  0.00000000  1
  Pd  Pd1  1  0.75000000  0.25000000  0.50000000  1
  Pd  Pd2  1  0.25000000  0.75000000  0.50000000  1
  Pd  Pd3  1  0.34608300  0.34608300  0.00000000  1
  Pd  Pd4  1  0.50000000  0.00000000  0.50000000  1
  Pd  Pd5  1  0.00000000  0.50000000  0.50000000  1
loop_
_geom_bond_atom_site_label_1
_geom_bond_atom_site_label_2
_geom_bond_distance
_geom_bond_site_symmetry_2
Ca0 Sb7 3.406894 1_554
Ca0 Sb7 3.406894 1_565
Ca0 Sb7 3.406894 1_655
Ca0 Sb7 3.406894 1_666
Ca0 Pd1 3.477165 1_554
Ca0 Pd1 3.477165 1_565
Ca0 Pd2 3.477165 1_655
Ca0 Pd2 3.477165 1_554
Ca0 Pd3 3.494082 1_666
Ca0 Pd3 3.494082 1_655
Ca0 Pd3 3.494082 1_565
Ca0 Pd3 3.494082 1_554
Ca0 Sb4 3.698285 1_655
Ca0 Sb2 3.698285 1_565
Ca0 Sb2 3.698285 1_554
Ca0 Sb4 3.698285 1_554
Ca1 Sb1 3.406894 1_455
Ca1 Sb1 3.406894 1_444
Ca1 Sb1 3.406894 1_556
Ca1 Sb1 3.406894 1_545
Ca1 Pd2 3.477165 1_544
Ca1 Pd2 3.477165 1_555
Ca1 Pd1 3.477165 1_555
Ca1 Pd1 3.477165 1_454
Ca1 Pd0 3.494082 1_556
Ca1 Pd0 3.494082 1_444
Ca1 Pd0 3.494082 1_545
Ca1 Pd0 3.494082 1_455
Ca1 Sb6 3.698285 1_555
Ca1 Sb0 3.698285 1_555
Ca1 Sb6 3.698285 1_544
Ca1 Sb0 3.698285 1_454
Ca2 Pd5 3.256468 1_665
Ca2 Pd5 3.256468 1_654
Ca2 Pd4 3.256468 1_564
Ca2 Pd4 3.256468 1_665
Ca2 Sb5 3.284690 1_554
Ca2 Sb5 3.284690 1_666
Ca2 Sb5 3.284690 1_565
Ca2 Sb5 3.284690 1_655
Ca2 Sb2 3.484022 1_554
Ca2 Sb2 3.484022 1_565
Ca2 Sb4 3.484022 1_655
Ca2 Sb4 3.484022 1_554
Ca3 Pd4 3.256468 1_454
Ca3 Pd4 3.256468 1_555
Ca3 Pd5 3.256468 1_544
Ca3 Pd5 3.256468 1_555
Ca3 Sb3 3.284690 1_444
Ca3 Sb3 3.284690 1_556
Ca3 Sb3 3.284690 1_545
Ca3 Sb3 3.284690 1_455
Ca3 Sb6 3.484022 1_555
Ca3 Sb0 3.484022 1_555
Ca3 Sb6 3.484022 1_544
Ca3 Sb0 3.484022 1_454
Sb0 Sb6 3.192771 1_555
Sb0 Sb6 3.192771 1_656
Sb0 Sb6 3.192771 1_544
Sb0 Sb6 3.192771 1_645
Sb2 Sb4 3.192771 1_555
Sb2 Sb4 3.192771 1_544
Sb2 Sb4 3.192771 1_645
Sb2 Sb4 3.192771 1_656
Pd0 Sb1 2.608201 1_555
Pd0 Sb0 2.715946 1_554
Pd0 Sb6 2.715946 1_554
Pd0 Sb0 2.715946 1_565
Pd0 Sb6 2.715946 1_655
Pd1 Sb1 2.686318 1_545
Pd1 Sb7 2.686318 1_656
Pd1 Sb1 2.686318 1_556
Pd1 Sb7 2.686318 1_555
Pd2 Sb7 2.686318 1_566
Pd2 Sb1 2.686318 1_455
Pd2 Sb1 2.686318 1_556
Pd2 Sb7 2.686318 1_555
Pd3 Sb7 2.608201 1_555
Pd3 Sb2 2.715946 1_454
Pd3 Sb2 2.715946 1_555
Pd3 Sb4 2.715946 1_544
Pd3 Sb4 2.715946 1_555
Pd4 Sb5 2.752857 1_545
Pd4 Sb5 2.752857 1_556
Pd4 Sb3 2.752857 1_556
Pd4 Sb3 2.752857 1_545
Pd5 Sb3 2.752857 1_455
Pd5 Sb5 2.752857 1_455
Pd5 Sb5 2.752857 1_556
Pd5 Sb3 2.752857 1_556
