# generated using pymatgen
data_Tl2Te
_symmetry_space_group_name_H-M   'P 1'
_cell_length_a   9.23478273
_cell_length_b   9.23478273
_cell_length_c   31.82117591
_cell_angle_alpha   81.52321904
_cell_angle_beta   81.52321904
_cell_angle_gamma   59.13914331
_symmetry_Int_Tables_number   1
_chemical_formula_structural   Tl2Te
_chemical_formula_sum   'Tl44 Te22'
_cell_volume   2295.82310184
_cell_formula_units_Z   22
loop_
 _symmetry_equiv_pos_site_id
 _symmetry_equiv_pos_as_xyz
  1  'x, y, z'
loop_
 _atom_site_type_symbol
 _atom_site_label
 _atom_site_symmetry_multiplicity
 _atom_site_fract_x
 _atom_site_fract_y
 _atom_site_fract_z
 _atom_site_occupancy
  Tl  Tl0  1  0.40224071  0.20598464  0.31211640  1
  Tl  Tl1  1  0.20598464  0.40224071  0.81211640  1
  Tl  Tl2  1  0.48524866  0.68346840  0.41306689  1
  Tl  Tl3  1  0.00535808  0.83316046  0.42933751  1
  Tl  Tl4  1  0.72100312  0.19607751  0.80937520  1
  Tl  Tl5  1  0.52322268  0.05779937  0.43575310  1
  Tl  Tl6  1  0.56195263  0.71111279  0.00107314  1
  Tl  Tl7  1  0.16796952  0.04543885  0.75923196  1
  Tl  Tl8  1  0.04543885  0.16796952  0.25923196  1
  Tl  Tl9  1  0.79401536  0.59775929  0.18788360  1
  Tl  Tl10  1  0.51799442  0.03599494  0.12267202  1
  Tl  Tl11  1  0.99464192  0.16683954  0.57066249  1
  Tl  Tl12  1  0.94220063  0.47677732  0.06424690  1
  Tl  Tl13  1  0.19607751  0.72100312  0.30937520  1
  Tl  Tl14  1  0.73136435  0.25571209  0.14558494  1
  Tl  Tl15  1  0.83316046  0.00535808  0.92933751  1
  Tl  Tl16  1  0.39371795  0.30800249  0.69696541  1
  Tl  Tl17  1  0.30800249  0.39371795  0.19696541  1
  Tl  Tl18  1  0.48200558  0.96400506  0.87732798  1
  Tl  Tl19  1  0.26863565  0.74428791  0.85441506  1
  Tl  Tl20  1  0.95456115  0.83203048  0.74076804  1
  Tl  Tl21  1  0.05779937  0.52322268  0.93575310  1
  Tl  Tl22  1  0.60628205  0.69199751  0.30303459  1
  Tl  Tl23  1  0.43804737  0.28888721  0.99892686  1
  Tl  Tl24  1  0.10541129  0.15856173  0.46300278  1
  Tl  Tl25  1  0.51475134  0.31653160  0.58693311  1
  Tl  Tl26  1  0.27899688  0.80392249  0.19062480  1
  Tl  Tl27  1  0.84143827  0.89458871  0.03699722  1
  Tl  Tl28  1  0.16683954  0.99464192  0.07066249  1
  Tl  Tl29  1  0.25571209  0.73136435  0.64558494  1
  Tl  Tl30  1  0.69199751  0.60628205  0.80303459  1
  Tl  Tl31  1  0.47677732  0.94220063  0.56424690  1
  Tl  Tl32  1  0.74428791  0.26863565  0.35441506  1
  Tl  Tl33  1  0.15856173  0.10541129  0.96300278  1
  Tl  Tl34  1  0.96400506  0.48200558  0.37732798  1
  Tl  Tl35  1  0.68346840  0.48524866  0.91306689  1
  Tl  Tl36  1  0.31653160  0.51475134  0.08693311  1
  Tl  Tl37  1  0.80392249  0.27899688  0.69062480  1
  Tl  Tl38  1  0.28888721  0.43804737  0.49892686  1
  Tl  Tl39  1  0.71111279  0.56195263  0.50107314  1
  Tl  Tl40  1  0.59775929  0.79401536  0.68788360  1
  Tl  Tl41  1  0.89458871  0.84143827  0.53699722  1
  Tl  Tl42  1  0.83203048  0.95456115  0.24076804  1
  Tl  Tl43  1  0.03599494  0.51799442  0.62267202  1
  Te  Te0  1  0.77267994  0.90967660  0.35232418  1
  Te  Te1  1  0.09032340  0.22732006  0.14767582  1
  Te  Te2  1  0.98141423  0.48244769  0.72631766  1
  Te  Te3  1  0.90967660  0.77267994  0.85232418  1
  Te  Te4  1  0.22732006  0.09032340  0.64767582  1
  Te  Te5  1  0.32067526  0.45559340  0.39463713  1
  Te  Te6  1  0.39773111  0.60226889  0.75000000  1
  Te  Te7  1  0.01897002  0.18404971  0.87190987  1
  Te  Te8  1  0.21934434  0.71115766  0.98479930  1
  Te  Te9  1  0.54440660  0.67932474  0.10536287  1
  Te  Te10  1  0.71115766  0.21934434  0.48479930  1
  Te  Te11  1  0.81595029  0.98102998  0.62809013  1
  Te  Te12  1  0.60226889  0.39773111  0.25000000  1
  Te  Te13  1  0.51755231  0.01858577  0.77368234  1
  Te  Te14  1  0.45559340  0.32067526  0.89463713  1
  Te  Te15  1  0.98102998  0.81595029  0.12809013  1
  Te  Te16  1  0.78065566  0.28884234  0.01520070  1
  Te  Te17  1  0.67932474  0.54440660  0.60536287  1
  Te  Te18  1  0.18404971  0.01897002  0.37190987  1
  Te  Te19  1  0.01858577  0.51755231  0.27368234  1
  Te  Te20  1  0.28884234  0.78065566  0.51520070  1
  Te  Te21  1  0.48244769  0.98141423  0.22631766  1
loop_
_geom_bond_atom_site_label_1
_geom_bond_atom_site_label_2
_geom_bond_distance
_geom_bond_site_symmetry_2
Tl2 Tl39 3.441913 1_555
Tl2 Tl22 3.517134 1_555
Tl12 Tl27 3.474646 1_555
Tl16 Tl25 3.517134 1_555
Tl17 Tl36 3.517134 1_555
Tl21 Tl33 3.474646 1_555
Tl23 Tl36 3.441913 1_556
Tl24 Tl5 3.474646 1_555
Tl25 Tl38 3.441913 1_555
Tl30 Tl35 3.517134 1_555
Tl31 Tl41 3.474646 1_555
Tl35 Tl6 3.441913 1_556
Te0 Tl32 3.198438 1_565
Te0 Tl5 3.203249 1_565
Te0 Tl3 3.256736 1_655
Te0 Tl0 3.388537 1_565
Te0 Tl34 3.417910 1_555
Te0 Tl42 3.507035 1_555
Te0 Tl13 3.511286 1_655
Te1 Tl14 3.198438 1_455
Te1 Tl12 3.203249 1_455
Te1 Tl28 3.256736 1_545
Te1 Tl9 3.388537 1_455
Te1 Tl10 3.417910 1_555
Te1 Tl8 3.507035 1_555
Te1 Tl26 3.511286 1_545
Te2 Tl30 3.189750 1_555
Te2 Tl20 3.205888 1_555
Te2 Tl43 3.255750 1_655
Te2 Tl16 3.326761 1_655
Te2 Tl1 3.435228 1_655
Te2 Tl37 3.441508 1_555
Te2 Tl40 3.479783 1_555
Te2 Tl7 3.536207 1_655
Te3 Tl19 3.198438 1_655
Te3 Tl21 3.203249 1_655
Te3 Tl15 3.256736 1_565
Te3 Tl1 3.388537 1_655
Te3 Tl18 3.417910 1_555
Te3 Tl20 3.507035 1_555
Te3 Tl4 3.511286 1_565
Te4 Tl29 3.198438 1_545
Te4 Tl31 3.203249 1_545
Te4 Tl11 3.256736 1_455
Te4 Tl40 3.388537 1_545
Te4 Tl43 3.417910 1_555
Te4 Tl7 3.507035 1_555
Te4 Tl37 3.511286 1_455
Te5 Tl38 3.275475 1_555
Te5 Tl13 3.280100 1_555
Te5 Tl34 3.298917 1_455
Te5 Tl5 3.310679 1_555
Te5 Tl2 3.315091 1_555
Te5 Tl3 3.409815 1_555
Te5 Tl32 3.488383 1_555
Te5 Tl0 3.492317 1_555
Te6 Tl1 3.420832 1_555
Te6 Tl40 3.420832 1_555
Te6 Tl30 3.421695 1_555
Te6 Tl16 3.421695 1_555
Te6 Tl7 3.549591 1_565
Te6 Tl20 3.549591 1_455
Te6 Tl29 3.562853 1_555
Te6 Tl19 3.562853 1_555
Te7 Tl35 3.176141 1_455
Te7 Tl15 3.177785 1_455
Te7 Tl33 3.179960 1_555
Te7 Tl1 3.483379 1_555
Te7 Tl4 3.574823 1_455
Te7 Tl19 3.577782 1_545
Te8 Tl6 3.280267 1_556
Te8 Tl27 3.295959 1_456
Te8 Tl23 3.340477 1_555
Te8 Tl33 3.365351 1_565
Te8 Tl21 3.437248 1_555
Te8 Tl36 3.479931 1_556
Te9 Tl6 3.275475 1_555
Te9 Tl26 3.280100 1_555
Te9 Tl10 3.298917 1_565
Te9 Tl12 3.310679 1_555
Te9 Tl36 3.315091 1_555
Te9 Tl28 3.409815 1_555
Te9 Tl14 3.488383 1_555
Te9 Tl9 3.492317 1_555
Te10 Tl39 3.280267 1_555
Te10 Tl41 3.295959 1_545
Te10 Tl38 3.340477 1_555
Te10 Tl24 3.365351 1_655
Te10 Tl5 3.437248 1_555
Te10 Tl25 3.479931 1_555
Te11 Tl25 3.176141 1_565
Te11 Tl11 3.177785 1_565
Te11 Tl41 3.179960 1_555
Te11 Tl40 3.483379 1_555
Te11 Tl37 3.574823 1_565
Te11 Tl29 3.577782 1_655
Te12 Tl0 3.420832 1_555
Te12 Tl9 3.420832 1_555
Te12 Tl22 3.421695 1_555
Te12 Tl17 3.421695 1_555
Te12 Tl42 3.549591 1_545
Te12 Tl8 3.549591 1_655
Te12 Tl32 3.562853 1_555
Te12 Tl14 3.562853 1_555
Te13 Tl16 3.189750 1_555
Te13 Tl7 3.205888 1_555
Te13 Tl18 3.255750 1_545
Te13 Tl30 3.326761 1_545
Te13 Tl40 3.435228 1_545
Te13 Tl4 3.441508 1_555
Te13 Tl1 3.479783 1_555
Te13 Tl20 3.536207 1_545
Te14 Tl23 3.275475 1_555
Te14 Tl4 3.280100 1_555
Te14 Tl18 3.298917 1_545
Te14 Tl21 3.310679 1_555
Te14 Tl35 3.315091 1_555
Te14 Tl15 3.409815 1_555
Te14 Tl19 3.488383 1_555
Te14 Tl1 3.492317 1_555
Te15 Tl36 3.176141 1_655
Te15 Tl28 3.177785 1_655
Te15 Tl27 3.179960 1_555
Te15 Tl9 3.483379 1_555
Te15 Tl26 3.574823 1_655
Te15 Tl14 3.577782 1_565
Te16 Tl23 3.280267 1_554
Te16 Tl33 3.295959 1_654
Te16 Tl6 3.340477 1_555
Te16 Tl27 3.365351 1_545
Te16 Tl12 3.437248 1_555
Te16 Tl35 3.479931 1_554
Te17 Tl39 3.275475 1_555
Te17 Tl37 3.280100 1_555
Te17 Tl43 3.298917 1_655
Te17 Tl31 3.310679 1_555
Te17 Tl25 3.315091 1_555
Te17 Tl11 3.409815 1_555
Te17 Tl29 3.488383 1_555
Te17 Tl40 3.492317 1_555
Te18 Tl2 3.176141 1_545
Te18 Tl3 3.177785 1_545
Te18 Tl24 3.179960 1_555
Te18 Tl0 3.483379 1_555
Te18 Tl13 3.574823 1_545
Te18 Tl32 3.577782 1_455
Te19 Tl17 3.189750 1_555
Te19 Tl8 3.205888 1_555
Te19 Tl34 3.255750 1_455
Te19 Tl22 3.326761 1_455
Te19 Tl9 3.435228 1_455
Te19 Tl13 3.441508 1_555
Te19 Tl0 3.479783 1_555
Te19 Tl42 3.536207 1_455
Te20 Tl38 3.280267 1_555
Te20 Tl24 3.295959 1_565
Te20 Tl39 3.340477 1_555
Te20 Tl41 3.365351 1_455
Te20 Tl31 3.437248 1_555
Te20 Tl2 3.479931 1_555
Te21 Tl22 3.189750 1_555
Te21 Tl42 3.205888 1_555
Te21 Tl10 3.255750 1_565
Te21 Tl17 3.326761 1_565
Te21 Tl0 3.435228 1_565
Te21 Tl26 3.441508 1_555
Te21 Tl9 3.479783 1_555
Te21 Tl8 3.536207 1_565
