# generated using pymatgen
data_KS2O3
_symmetry_space_group_name_H-M   'P 1'
_cell_length_a   11.99387008
_cell_length_b   11.99387008
_cell_length_c   10.31140125
_cell_angle_alpha   78.67175864
_cell_angle_beta   78.67175864
_cell_angle_gamma   40.49770855
_symmetry_Int_Tables_number   1
_chemical_formula_structural   KS2O3
_chemical_formula_sum   'K8 S16 O24'
_cell_volume   941.94771637
_cell_formula_units_Z   8
loop_
 _symmetry_equiv_pos_site_id
 _symmetry_equiv_pos_as_xyz
  1  'x, y, z'
loop_
 _atom_site_type_symbol
 _atom_site_label
 _atom_site_symmetry_multiplicity
 _atom_site_fract_x
 _atom_site_fract_y
 _atom_site_fract_z
 _atom_site_occupancy
  K  K0  1  0.01657600  0.85579200  0.38638100  1
  K  K1  1  0.85579200  0.01657600  0.88638100  1
  K  K2  1  0.59512500  0.37597500  0.26249200  1
  K  K3  1  0.37597500  0.59512500  0.76249200  1
  K  K4  1  0.21563200  0.34851300  0.43930900  1
  K  K5  1  0.34851300  0.21563200  0.93930900  1
  K  K6  1  0.23697400  0.91505400  0.05093600  1
  K  K7  1  0.91505400  0.23697400  0.55093600  1
  S  S0  1  0.20064200  0.60072700  0.10278400  1
  S  S1  1  0.60072700  0.20064200  0.60278400  1
  S  S2  1  0.99821400  0.63162500  0.09804600  1
  S  S3  1  0.63162500  0.99821400  0.59804600  1
  S  S4  1  0.83812400  0.74529400  0.26145700  1
  S  S5  1  0.74529400  0.83812400  0.76145700  1
  S  S6  1  0.65324400  0.02064300  0.20546500  1
  S  S7  1  0.02064300  0.65324400  0.70546500  1
  S  S8  1  0.38719700  0.72518800  0.43209700  1
  S  S9  1  0.72518800  0.38719700  0.93209700  1
  S  S10  1  0.44314300  0.86038000  0.42202700  1
  S  S11  1  0.86038000  0.44314300  0.92202700  1
  S  S12  1  0.51592400  0.80558700  0.60499300  1
  S  S13  1  0.80558700  0.51592400  0.10499300  1
  S  S14  1  0.27927200  0.01301800  0.72237500  1
  S  S15  1  0.01301800  0.27927200  0.22237500  1
  O  O0  1  0.13402500  0.76614500  0.05385000  1
  O  O1  1  0.76614500  0.13402500  0.55385000  1
  O  O2  1  0.32914100  0.46538400  0.01011200  1
  O  O3  1  0.46538400  0.32914100  0.51011200  1
  O  O4  1  0.24816900  0.54939300  0.24076300  1
  O  O5  1  0.54939300  0.24816900  0.74076300  1
  O  O6  1  0.73032000  0.06488500  0.23619200  1
  O  O7  1  0.06488500  0.73032000  0.73619200  1
  O  O8  1  0.50016400  0.09314200  0.29054400  1
  O  O9  1  0.09314200  0.50016400  0.79054400  1
  O  O10  1  0.63684600  0.04025500  0.06326100  1
  O  O11  1  0.04025500  0.63684700  0.56326100  1
  O  O12  1  0.36373600  0.73765100  0.29277400  1
  O  O13  1  0.73765100  0.36373600  0.79277400  1
  O  O14  1  0.53677500  0.54791600  0.48483900  1
  O  O15  1  0.54791600  0.53677500  0.98483900  1
  O  O16  1  0.22851900  0.81863700  0.51933900  1
  O  O17  1  0.81863700  0.22851900  0.01933900  1
  O  O18  1  0.34968500  0.00622200  0.82927900  1
  O  O19  1  0.00622200  0.34968500  0.32927900  1
  O  O20  1  0.19581900  0.96392400  0.77042900  1
  O  O21  1  0.96392400  0.19581900  0.27042900  1
  O  O22  1  0.17556300  0.17022200  0.63305700  1
  O  O23  1  0.17022200  0.17556300  0.13305700  1
loop_
_geom_bond_atom_site_label_1
_geom_bond_atom_site_label_2
_geom_bond_distance
_geom_bond_site_symmetry_2
K0 O11 2.736917 1_555
K0 O6 2.818401 1_465
K0 O16 2.818920 1_555
K0 O1 2.849905 1_465
K0 O4 2.912000 1_555
K0 O12 3.203435 1_555
K1 O10 2.736926 1_556
K1 O7 2.818401 1_645
K1 O17 2.818920 1_556
K1 O0 2.849905 1_646
K1 O5 2.912000 1_555
K1 O13 3.203435 1_555
K2 O6 2.765469 1_555
K2 O3 2.908843 1_555
K2 O17 2.914025 1_555
K2 O12 2.915347 1_555
K2 O4 2.951732 1_555
K2 O14 3.005207 1_555
K2 O15 3.007276 1_554
K2 O21 3.126995 1_555
K3 O7 2.765469 1_555
K3 O2 2.908843 1_556
K3 O16 2.914025 1_555
K3 O13 2.915347 1_555
K3 O5 2.951732 1_555
K3 O15 3.005207 1_555
K3 O14 3.007276 1_555
K3 O20 3.126995 1_555
K4 O8 2.696816 1_555
K4 O11 2.763090 1_555
K4 O22 2.881388 1_555
K4 O19 2.941986 1_555
K4 O3 3.048605 1_555
K4 O4 3.053984 1_555
K5 O9 2.696816 1_555
K5 O10 2.763080 1_556
K5 O23 2.881388 1_556
K5 O18 2.941986 1_555
K5 O2 3.048605 1_556
K5 O5 3.053984 1_555
K6 O12 2.746334 1_555
K6 O0 2.834354 1_555
K6 O23 2.844150 1_565
K6 O18 2.880886 1_564
K6 O20 2.899679 1_554
K6 O15 3.072490 1_554
K6 O21 3.239950 1_465
K6 O17 3.299650 1_465
K7 O13 2.746334 1_555
K7 O1 2.834354 1_555
K7 O22 2.844150 1_655
K7 O19 2.880886 1_655
K7 O21 2.899679 1_555
K7 O14 3.072490 1_555
K7 O20 3.239950 1_645
K7 O16 3.299650 1_645
S0 S2 2.169215 1_455
S1 S3 2.169215 1_545
S2 S4 2.008704 1_555
S3 S5 2.008704 1_555
S4 S6 2.184799 1_565
S5 S7 2.184799 1_655
S10 S12 2.010153 1_555
S10 S8 2.156719 1_555
S11 S13 2.010153 1_556
S11 S9 2.156719 1_555
S12 S14 2.191950 1_565
S13 S15 2.191950 1_655
O0 S0 1.477656 1_555
O1 S1 1.477656 1_555
O2 S0 1.466080 1_555
O3 S1 1.466080 1_555
O4 S0 1.472739 1_555
O5 S1 1.472739 1_555
O6 S6 1.470954 1_555
O7 S7 1.470954 1_555
O8 S6 1.461353 1_555
O9 S7 1.461353 1_555
O10 S6 1.466816 1_555
O11 S7 1.466813 1_555
O12 S8 1.475081 1_555
O13 S9 1.475081 1_555
O14 S8 1.470628 1_555
O15 S9 1.470628 1_555
O16 S8 1.472032 1_555
O17 S9 1.472032 1_554
O18 S14 1.469944 1_555
O19 S15 1.469944 1_555
O20 S14 1.476814 1_565
O21 S15 1.476814 1_655
O22 S14 1.466788 1_555
O23 S15 1.466788 1_555
