# generated using pymatgen
data_Zr2Al3C4
_symmetry_space_group_name_H-M   'P 1'
_cell_length_a   3.34562099
_cell_length_b   3.34562064
_cell_length_c   22.22531804
_cell_angle_alpha   90.00000000
_cell_angle_beta   90.00000000
_cell_angle_gamma   120.00000357
_symmetry_Int_Tables_number   1
_chemical_formula_structural   Zr2Al3C4
_chemical_formula_sum   'Zr4 Al6 C8'
_cell_volume   215.44282501
_cell_formula_units_Z   2
loop_
 _symmetry_equiv_pos_site_id
 _symmetry_equiv_pos_as_xyz
  1  'x, y, z'
loop_
 _atom_site_type_symbol
 _atom_site_label
 _atom_site_symmetry_multiplicity
 _atom_site_fract_x
 _atom_site_fract_y
 _atom_site_fract_z
 _atom_site_occupancy
  Zr  Zr0  1  0.33333300  0.66666700  0.05869359  1
  Zr  Zr1  1  0.66666700  0.33333300  0.94130641  1
  Zr  Zr2  1  0.33333300  0.66666700  0.44130641  1
  Zr  Zr3  1  0.66666700  0.33333300  0.55869359  1
  Al  Al0  1  0.00000000  -0.00000000  0.34021584  1
  Al  Al1  1  0.00000000  -0.00000000  0.84021584  1
  Al  Al2  1  0.00000000  -0.00000000  0.65978416  1
  Al  Al3  1  0.66666700  0.33333300  0.25000000  1
  Al  Al4  1  0.00000000  -0.00000000  0.15978416  1
  Al  Al5  1  0.33333300  0.66666700  0.75000000  1
  C  C0  1  0.66666700  0.33333300  0.37107405  1
  C  C1  1  0.33333300  0.66666700  0.62892595  1
  C  C2  1  0.33333300  0.66666700  0.87107405  1
  C  C3  1  0.00000000  -0.00000000  -0.00000000  1
  C  C4  1  0.66666700  0.33333300  0.12892595  1
  C  C5  1  -0.00000000  0.00000000  0.25000000  1
  C  C6  1  0.00000000  -0.00000000  0.50000000  1
  C  C7  1  0.00000000  -0.00000000  0.75000000  1
loop_
_geom_bond_atom_site_label_1
_geom_bond_atom_site_label_2
_geom_bond_distance
_geom_bond_site_symmetry_2
Al0 C5 2.005076 1_555
Al0 C0 2.049737 1_455
Al0 C0 2.049739 1_445
Al0 C0 2.049739 1_555
Al1 C7 2.005076 1_555
Al1 C2 2.049737 1_545
Al1 C2 2.049739 1_555
Al1 C2 2.049739 1_445
Al2 C7 2.005076 1_555
Al2 C1 2.049737 1_545
Al2 C1 2.049739 1_555
Al2 C1 2.049739 1_445
Al3 C5 1.931593 1_655
Al3 C5 1.931596 1_665
Al3 C5 1.931596 1_555
Al4 C5 2.005076 1_555
Al4 C4 2.049737 1_455
Al4 C4 2.049739 1_445
Al4 C4 2.049739 1_555
Al5 C7 1.931593 1_565
Al5 C7 1.931596 1_555
Al5 C7 1.931596 1_665
C0 Zr2 2.483460 1_545
C0 Zr2 2.483460 1_655
C0 Zr2 2.483465 1_555
C1 Zr3 2.483460 1_565
C1 Zr3 2.483460 1_455
C1 Zr3 2.483465 1_555
C2 Zr1 2.483460 1_565
C2 Zr1 2.483460 1_455
C2 Zr1 2.483465 1_555
C3 Zr1 2.330822 1_454
C3 Zr0 2.330822 1_545
C3 Zr1 2.330824 1_444
C3 Zr0 2.330824 1_555
C3 Zr1 2.330824 1_554
C3 Zr0 2.330824 1_445
C4 Zr0 2.483460 1_545
C4 Zr0 2.483460 1_655
C4 Zr0 2.483465 1_555
C6 Zr3 2.330822 1_455
C6 Zr2 2.330822 1_545
C6 Zr3 2.330824 1_445
C6 Zr2 2.330824 1_555
C6 Zr3 2.330824 1_555
C6 Zr2 2.330824 1_445
