# generated using pymatgen
data_Ce3Si6N11
_symmetry_space_group_name_H-M   'P 1'
_cell_length_a   10.13010685
_cell_length_b   10.13010685
_cell_length_c   4.85368584
_cell_angle_alpha   90.00000000
_cell_angle_beta   90.00000000
_cell_angle_gamma   90.00000000
_symmetry_Int_Tables_number   1
_chemical_formula_structural   Ce3Si6N11
_chemical_formula_sum   'Ce6 Si12 N22'
_cell_volume   498.08070170
_cell_formula_units_Z   2
loop_
 _symmetry_equiv_pos_site_id
 _symmetry_equiv_pos_as_xyz
  1  'x, y, z'
loop_
 _atom_site_type_symbol
 _atom_site_label
 _atom_site_symmetry_multiplicity
 _atom_site_fract_x
 _atom_site_fract_y
 _atom_site_fract_z
 _atom_site_occupancy
  Ce  Ce0  1  0.18018918  0.31981082  0.64575007  1
  Ce  Ce1  1  0.31981082  0.81981082  0.64575007  1
  Ce  Ce2  1  0.68018918  0.18018918  0.64575007  1
  Ce  Ce3  1  0.81981082  0.68018918  0.64575007  1
  Ce  Ce4  1  -0.00000000  0.00000000  0.64975199  1
  Ce  Ce5  1  0.50000000  0.50000000  0.64975199  1
  Si  Si0  1  0.20925237  0.07867008  0.11447236  1
  Si  Si1  1  0.07867008  0.79074763  0.11447236  1
  Si  Si2  1  0.92132992  0.20925237  0.11447236  1
  Si  Si3  1  0.79074763  0.92132992  0.11447236  1
  Si  Si4  1  0.70925237  0.42132992  0.11447236  1
  Si  Si5  1  0.29074763  0.57867008  0.11447236  1
  Si  Si6  1  0.42132992  0.29074763  0.11447236  1
  Si  Si7  1  0.57867008  0.70925237  0.11447236  1
  Si  Si8  1  0.11737772  0.61737772  0.60318494  1
  Si  Si9  1  0.61737772  0.88262228  0.60318494  1
  Si  Si10  1  0.38262228  0.11737772  0.60318494  1
  Si  Si11  1  0.88262228  0.38262228  0.60318494  1
  N  N0  1  0.23111374  0.07475763  0.46685520  1
  N  N1  1  0.07475763  0.76888626  0.46685520  1
  N  N2  1  0.92524237  0.23111374  0.46685520  1
  N  N3  1  0.76888626  0.92524237  0.46685520  1
  N  N4  1  0.73111374  0.42524237  0.46685520  1
  N  N5  1  0.26888626  0.57475763  0.46685520  1
  N  N6  1  0.42524237  0.26888626  0.46685520  1
  N  N7  1  0.57475763  0.73111374  0.46685520  1
  N  N8  1  0.15346411  0.65346411  0.95014418  1
  N  N9  1  0.65346411  0.84653589  0.95014418  1
  N  N10  1  0.34653589  0.15346411  0.95014418  1
  N  N11  1  0.84653589  0.34653589  0.95014418  1
  N  N12  1  0.17842682  0.92035718  0.00408885  1
  N  N13  1  0.92035718  0.82157318  0.00408885  1
  N  N14  1  0.07964282  0.17842682  0.00408885  1
  N  N15  1  0.82157318  0.07964282  0.00408885  1
  N  N16  1  0.67842682  0.57964282  0.00408885  1
  N  N17  1  0.32157318  0.42035718  0.00408885  1
  N  N18  1  0.57964282  0.32157318  0.00408885  1
  N  N19  1  0.42035718  0.67842682  0.00408885  1
  N  N20  1  -0.00000000  0.50000000  0.57819096  1
  N  N21  1  0.50000000  0.00000000  0.57819096  1
loop_
_geom_bond_atom_site_label_1
_geom_bond_atom_site_label_2
_geom_bond_distance
_geom_bond_site_symmetry_2
Ce0 N14 2.472604 1_556
Ce0 N17 2.472604 1_556
Ce0 N20 2.602158 1_555
Ce0 N0 2.680010 1_555
Ce0 N6 2.680010 1_555
Ce0 N10 2.803926 1_555
Ce0 N5 2.869022 1_555
Ce0 N2 2.869022 1_455
Ce1 N12 2.472604 1_556
Ce1 N19 2.472604 1_556
Ce1 N21 2.602158 1_565
Ce1 N1 2.680010 1_555
Ce1 N5 2.680010 1_555
Ce1 N8 2.803926 1_555
Ce1 N0 2.869022 1_565
Ce1 N7 2.869022 1_555
Ce2 N15 2.472604 1_556
Ce2 N18 2.472604 1_556
Ce2 N21 2.602158 1_555
Ce2 N2 2.680010 1_555
Ce2 N4 2.680010 1_555
Ce2 N11 2.803926 1_555
Ce2 N6 2.869022 1_555
Ce2 N3 2.869022 1_545
Ce3 N13 2.472604 1_556
Ce3 N16 2.472604 1_556
Ce3 N20 2.602158 1_655
Ce3 N3 2.680010 1_555
Ce3 N7 2.680010 1_555
Ce3 N9 2.803926 1_555
Ce3 N1 2.869022 1_655
Ce3 N4 2.869022 1_555
Ce4 N1 2.615877 1_545
Ce4 N3 2.615877 1_445
Ce4 N2 2.615877 1_455
Ce4 N0 2.615877 1_555
Ce4 N13 2.622166 1_446
Ce4 N15 2.622166 1_456
Ce4 N12 2.622166 1_546
Ce4 N14 2.622166 1_556
Ce5 N5 2.615877 1_555
Ce5 N6 2.615877 1_555
Ce5 N7 2.615877 1_555
Ce5 N4 2.615877 1_555
Ce5 N18 2.622166 1_556
Ce5 N19 2.622166 1_556
Ce5 N17 2.622166 1_556
Ce5 N16 2.622166 1_556
N0 Si0 1.725089 1_555
N0 Si10 1.726226 1_555
N1 Si1 1.725089 1_555
N1 Si8 1.726226 1_555
N2 Si2 1.725089 1_555
N2 Si11 1.726226 1_555
N3 Si3 1.725089 1_555
N3 Si9 1.726226 1_555
N4 Si4 1.725089 1_555
N4 Si11 1.726226 1_555
N5 Si5 1.725089 1_555
N5 Si8 1.726226 1_555
N6 Si6 1.725089 1_555
N6 Si10 1.726226 1_555
N7 Si7 1.725089 1_555
N7 Si9 1.726226 1_555
N8 Si8 1.761598 1_555
N8 Si5 1.773208 1_556
N8 Si1 1.773208 1_556
N9 Si9 1.761598 1_555
N9 Si3 1.773208 1_556
N9 Si7 1.773208 1_556
N10 Si10 1.761598 1_555
N10 Si6 1.773208 1_556
N10 Si0 1.773208 1_556
N11 Si11 1.761598 1_555
N11 Si2 1.773208 1_556
N11 Si4 1.773208 1_556
N12 Si0 1.719446 1_565
N12 Si1 1.741296 1_555
N13 Si1 1.719446 1_655
N13 Si3 1.741296 1_555
N14 Si2 1.719446 1_455
N14 Si0 1.741296 1_555
N15 Si3 1.719446 1_545
N15 Si2 1.741296 1_555
N16 Si4 1.719446 1_555
N16 Si7 1.741296 1_555
N17 Si5 1.719446 1_555
N17 Si6 1.741296 1_555
N18 Si6 1.719446 1_555
N18 Si4 1.741296 1_555
N19 Si7 1.719446 1_555
N19 Si5 1.741296 1_555
N20 Si11 1.685939 1_455
N20 Si8 1.685939 1_555
N21 Si10 1.685939 1_555
N21 Si9 1.685939 1_545
