# generated using pymatgen
data_NaMnF3
_symmetry_space_group_name_H-M   'P 1'
_cell_length_a   5.48554473
_cell_length_b   5.72833986
_cell_length_c   7.94483284
_cell_angle_alpha   90.00000000
_cell_angle_beta   90.00000000
_cell_angle_gamma   90.00000000
_symmetry_Int_Tables_number   1
_chemical_formula_structural   NaMnF3
_chemical_formula_sum   'Na4 Mn4 F12'
_cell_volume   249.65099502
_cell_formula_units_Z   4
loop_
 _symmetry_equiv_pos_site_id
 _symmetry_equiv_pos_as_xyz
  1  'x, y, z'
loop_
 _atom_site_type_symbol
 _atom_site_label
 _atom_site_symmetry_multiplicity
 _atom_site_fract_x
 _atom_site_fract_y
 _atom_site_fract_z
 _atom_site_occupancy
  Na  Na0  1  0.48260187  0.93810040  0.25000000  1
  Na  Na1  1  0.98260187  0.56189960  0.75000000  1
  Na  Na2  1  0.01739813  0.43810040  0.25000000  1
  Na  Na3  1  0.51739813  0.06189960  0.75000000  1
  Mn  Mn0  1  0.50000000  0.50000000  0.00000000  1
  Mn  Mn1  1  0.00000000  -0.00000000  0.00000000  1
  Mn  Mn2  1  0.00000000  -0.00000000  0.50000000  1
  Mn  Mn3  1  0.50000000  0.50000000  0.50000000  1
  F  F0  1  0.62497628  0.55698937  0.25000000  1
  F  F1  1  0.12497628  0.94301063  0.75000000  1
  F  F2  1  0.87502372  0.05698937  0.25000000  1
  F  F3  1  0.37502372  0.44301063  0.75000000  1
  F  F4  1  0.81081003  0.30590667  0.93386861  1
  F  F5  1  0.31081003  0.19409333  0.06613139  1
  F  F6  1  0.68918997  0.80590667  0.56613139  1
  F  F7  1  0.18918997  0.69409333  0.43386861  1
  F  F8  1  0.81081003  0.30590667  0.56613139  1
  F  F9  1  0.31081003  0.19409333  0.43386861  1
  F  F10  1  0.68918997  0.80590667  0.93386861  1
  F  F11  1  0.18918997  0.69409333  0.06613139  1
loop_
_geom_bond_atom_site_label_1
_geom_bond_atom_site_label_2
_geom_bond_distance
_geom_bond_site_symmetry_2
F0 Mn0 2.126404 1_555
F0 Mn3 2.126404 1_555
F0 Na2 2.257809 1_655
F0 Na0 2.318628 1_555
F1 Mn1 2.126404 1_566
F1 Mn2 2.126404 1_565
F1 Na3 2.257809 1_565
F1 Na1 2.318628 1_455
F2 Mn1 2.126404 1_655
F2 Mn2 2.126404 1_655
F2 Na0 2.257809 1_545
F2 Na2 2.318628 1_655
F3 Mn0 2.126404 1_556
F3 Mn3 2.126404 1_555
F3 Na1 2.257809 1_455
F3 Na3 2.318628 1_555
F4 Mn0 2.102169 1_556
F4 Mn1 2.103279 1_656
F4 Na1 2.274289 1_555
F4 Na3 2.584229 1_555
F4 Na2 2.857599 1_656
F5 Mn1 2.102169 1_555
F5 Mn0 2.103279 1_555
F5 Na0 2.274289 1_545
F5 Na2 2.584229 1_555
F5 Na3 2.857599 1_554
F6 Mn2 2.102169 1_665
F6 Mn3 2.103279 1_555
F6 Na3 2.274289 1_565
F6 Na1 2.584229 1_555
F6 Na0 2.857599 1_555
F7 Mn3 2.102169 1_555
F7 Mn2 2.103279 1_565
F7 Na2 2.274289 1_555
F7 Na0 2.584229 1_555
F7 Na1 2.857599 1_455
F8 Mn3 2.102169 1_555
F8 Mn2 2.103279 1_655
F8 Na1 2.274289 1_555
F8 Na3 2.584229 1_555
F8 Na2 2.857599 1_655
F9 Mn2 2.102169 1_555
F9 Mn3 2.103279 1_555
F9 Na0 2.274289 1_545
F9 Na2 2.584229 1_555
F9 Na3 2.857599 1_555
F10 Mn1 2.102169 1_666
F10 Mn0 2.103279 1_556
F10 Na3 2.274289 1_565
F10 Na1 2.584229 1_555
F10 Na0 2.857599 1_556
F11 Mn0 2.102169 1_555
F11 Mn1 2.103279 1_565
F11 Na2 2.274289 1_555
F11 Na0 2.584229 1_555
F11 Na1 2.857599 1_454
