# generated using pymatgen
data_Sr13Al6Si8O
_symmetry_space_group_name_H-M   'P 1'
_cell_length_a   11.70161534
_cell_length_b   11.70161534
_cell_length_c   17.56056360
_cell_angle_alpha   55.63057792
_cell_angle_beta   55.63057792
_cell_angle_gamma   23.87164052
_symmetry_Int_Tables_number   1
_chemical_formula_structural   Sr13Al6Si8O
_chemical_formula_sum   'Sr13 Al6 Si8 O1'
_cell_volume   794.76182557
_cell_formula_units_Z   1
loop_
 _symmetry_equiv_pos_site_id
 _symmetry_equiv_pos_as_xyz
  1  'x, y, z'
loop_
 _atom_site_type_symbol
 _atom_site_label
 _atom_site_symmetry_multiplicity
 _atom_site_fract_x
 _atom_site_fract_y
 _atom_site_fract_z
 _atom_site_occupancy
  Sr  Sr0  1  0.19394000  0.19394000  0.85304000  1
  Sr  Sr1  1  0.99773900  0.99773900  0.35908400  1
  Sr  Sr2  1  0.99852200  0.99852200  0.12057900  1
  Sr  Sr3  1  0.19348100  0.19348100  0.60886400  1
  Sr  Sr4  1  0.18484600  0.18484600  0.10857000  1
  Sr  Sr5  1  0.15458000  0.15458000  0.38290300  1
  Sr  Sr6  1  0.50000000  0.50000000  0.50000000  1
  Sr  Sr7  1  0.84542000  0.84542000  0.61709700  1
  Sr  Sr8  1  0.80651900  0.80651900  0.39113600  1
  Sr  Sr9  1  0.81515400  0.81515400  0.89143000  1
  Sr  Sr10  1  0.80606000  0.80606000  0.14696000  1
  Sr  Sr11  1  0.00147800  0.00147800  0.87942100  1
  Sr  Sr12  1  0.00226100  0.00226100  0.64091600  1
  Al  Al0  1  0.43389300  0.43389300  0.80912700  1
  Al  Al1  1  0.56933600  0.56933600  0.94750000  1
  Al  Al2  1  0.42753200  0.42753200  0.29488300  1
  Al  Al3  1  0.56610700  0.56610700  0.19087300  1
  Al  Al4  1  0.57246800  0.57246800  0.70511700  1
  Al  Al5  1  0.43066400  0.43066400  0.05250000  1
  Si  Si0  1  0.63912600  0.63912600  0.01622700  1
  Si  Si1  1  0.64475500  0.64475500  0.77143200  1
  Si  Si2  1  0.35524500  0.35524500  0.22856800  1
  Si  Si3  1  0.36925200  0.36925200  0.73387100  1
  Si  Si4  1  0.36708000  0.36708000  0.46584500  1
  Si  Si5  1  0.63292000  0.63292000  0.53415500  1
  Si  Si6  1  0.63074800  0.63074800  0.26612900  1
  Si  Si7  1  0.36087400  0.36087400  0.98377300  1
  O  O0  1  0.00000000  0.00000000  0.50000000  1
loop_
_geom_bond_atom_site_label_1
_geom_bond_atom_site_label_2
_geom_bond_distance
_geom_bond_site_symmetry_2
Al0 Si3 2.488856 1_555
Al0 Si7 2.506758 1_555
Al0 Al4 2.591519 1_555
Al0 Sr9 3.286778 1_545
Al0 Sr9 3.286778 1_455
Al0 Sr12 3.420021 1_565
Al0 Sr12 3.420021 1_655
Al0 Sr11 3.461179 1_565
Al0 Sr11 3.461179 1_655
Al1 Si0 2.497155 1_556
Al1 Si1 2.525896 1_555
Al1 Al5 2.593356 1_556
Al1 Sr0 3.359608 1_655
Al1 Sr0 3.359608 1_565
Al1 Sr11 3.441481 1_565
Al1 Sr11 3.441481 1_655
Al1 Sr2 3.469365 1_546
Al1 Sr2 3.469365 1_456
Al2 Si4 2.476601 1_555
Al2 Si2 2.513974 1_555
Al2 Al3 2.591519 1_555
Al2 Sr8 3.314620 1_455
Al2 Sr8 3.314620 1_545
Al2 Sr1 3.435623 1_455
Al2 Sr1 3.435623 1_545
Al2 Sr2 3.482287 1_545
Al2 Sr2 3.482287 1_455
Al3 Si6 2.488856 1_555
Al3 Si0 2.506758 1_555
Al3 Sr4 3.286778 1_565
Al3 Sr4 3.286778 1_655
Al3 Sr1 3.420021 1_455
Al3 Sr1 3.420021 1_545
Al3 Sr2 3.461179 1_455
Al3 Sr2 3.461179 1_545
Al4 Si5 2.476601 1_555
Al4 Si1 2.513974 1_555
Al4 Sr3 3.314620 1_565
Al4 Sr3 3.314620 1_655
Al4 Sr12 3.435623 1_655
Al4 Sr12 3.435623 1_565
Al4 Sr11 3.482287 1_655
Al4 Sr11 3.482287 1_565
Al5 Si7 2.497155 1_554
Al5 Si2 2.525896 1_555
Al5 Sr10 3.359608 1_545
Al5 Sr10 3.359608 1_455
Al5 Sr2 3.441481 1_545
Al5 Sr2 3.441481 1_455
Al5 Sr11 3.469365 1_564
Al5 Sr11 3.469365 1_654
Si0 Sr9 3.294661 1_554
Si0 Sr0 3.390202 1_654
Si0 Sr0 3.390202 1_564
Si0 Sr4 3.397249 1_565
Si0 Sr4 3.397249 1_655
Si0 Sr2 3.573720 1_545
Si0 Sr2 3.573720 1_455
Si1 Sr0 3.322850 1_655
Si1 Sr0 3.322850 1_565
Si1 Sr3 3.402321 1_565
Si1 Sr3 3.402321 1_655
Si1 Sr11 3.610573 1_565
Si1 Sr11 3.610573 1_655
Si1 Sr7 3.753136 1_555
Si2 Sr10 3.322850 1_455
Si2 Sr10 3.322850 1_545
Si2 Sr8 3.402321 1_455
Si2 Sr8 3.402321 1_545
Si2 Sr2 3.610573 1_455
Si2 Sr2 3.610573 1_545
Si2 Sr5 3.753136 1_555
Si3 Sr0 3.286149 1_555
Si3 Sr9 3.330377 1_545
Si3 Sr9 3.330377 1_455
Si3 Sr6 3.411850 1_555
Si3 Sr7 3.413344 1_455
Si3 Sr7 3.413344 1_545
Si3 Sr12 3.472704 1_655
Si3 Sr12 3.472704 1_565
Si4 Sr3 3.253812 1_555
Si4 Sr8 3.405911 1_455
Si4 Sr8 3.405911 1_545
Si4 Sr7 3.411350 1_545
Si4 Sr7 3.411350 1_455
Si4 Sr6 3.424792 1_555
Si4 Sr1 3.442300 1_455
Si4 Sr1 3.442300 1_545
Si5 Sr8 3.253812 1_555
Si5 Sr3 3.405911 1_565
Si5 Sr3 3.405911 1_655
Si5 Sr5 3.411350 1_565
Si5 Sr5 3.411350 1_655
Si5 Sr6 3.424792 1_555
Si5 Sr12 3.442300 1_565
Si5 Sr12 3.442300 1_655
Si6 Sr10 3.286149 1_555
Si6 Sr4 3.330377 1_565
Si6 Sr4 3.330377 1_655
Si6 Sr6 3.411850 1_555
Si6 Sr5 3.413344 1_565
Si6 Sr5 3.413344 1_655
Si6 Sr1 3.472704 1_545
Si6 Sr1 3.472704 1_455
Si7 Sr4 3.294661 1_556
Si7 Sr10 3.390202 1_546
Si7 Sr10 3.390202 1_456
Si7 Sr9 3.397249 1_455
Si7 Sr9 3.397249 1_545
Si7 Sr11 3.573720 1_655
Si7 Sr11 3.573720 1_565
O0 Sr6 2.420080 1_545
O0 Sr6 2.420080 1_455
O0 Sr1 2.504793 1_445
O0 Sr12 2.504793 1_555
O0 Sr5 2.890861 1_555
O0 Sr7 2.890861 1_445
