# generated using pymatgen
data_CsNO3
_symmetry_space_group_name_H-M   'P 1'
_cell_length_a   10.84690041
_cell_length_b   10.84480427
_cell_length_c   7.68083280
_cell_angle_alpha   89.99256164
_cell_angle_beta   89.99247834
_cell_angle_gamma   119.99233959
_symmetry_Int_Tables_number   1
_chemical_formula_structural   CsNO3
_chemical_formula_sum   'Cs9 N9 O27'
_cell_volume   782.52787619
_cell_formula_units_Z   9
loop_
 _symmetry_equiv_pos_site_id
 _symmetry_equiv_pos_as_xyz
  1  'x, y, z'
loop_
 _atom_site_type_symbol
 _atom_site_label
 _atom_site_symmetry_multiplicity
 _atom_site_fract_x
 _atom_site_fract_y
 _atom_site_fract_z
 _atom_site_occupancy
  Cs  Cs0  1  0.77821308  0.22028473  0.64845374  1
  Cs  Cs1  1  0.11902122  0.89738891  0.62299557  1
  Cs  Cs2  1  0.77967000  0.55765190  0.98158965  1
  Cs  Cs3  1  0.77844429  0.88128665  0.28951252  1
  Cs  Cs4  1  0.43230225  0.54373607  0.66578815  1
  Cs  Cs5  1  0.11168914  0.56761754  0.33288678  1
  Cs  Cs6  1  0.10293477  0.22145911  0.95618658  1
  Cs  Cs7  1  0.45593628  0.88811960  -0.00049423  1
  Cs  Cs8  1  0.44225518  0.22167421  0.31461403  1
  N  N0  1  0.13528931  0.56635934  0.86478673  1
  N  N1  1  0.80098602  0.90669899  0.75805891  1
  N  N2  1  0.10551113  0.19898937  0.42424651  1
  N  N3  1  0.09352517  0.89451597  0.09098822  1
  N  N4  1  0.43366290  0.56895056  0.19762324  1
  N  N5  1  0.43096922  0.86456503  0.53146295  1
  N  N6  1  0.46957234  0.20450566  0.84037668  1
  N  N7  1  0.79547515  0.26477608  0.17401287  1
  N  N8  1  0.73489722  0.53079022  0.50672765  1
  O  O0  1  0.34262900  0.44320843  0.23791677  1
  O  O1  1  0.02244616  0.24425456  0.38563533  1
  O  O2  1  0.10953002  0.10567586  0.32840191  1
  O  O3  1  0.56716497  0.21820334  0.94356391  1
  O  O4  1  0.22838203  0.55669527  0.95450990  1
  O  O5  1  0.55652453  0.89890798  0.57216147  1
  O  O6  1  0.68261293  0.56370785  0.38021026  1
  O  O7  1  0.86639373  0.59260950  0.53189775  1
  O  O8  1  0.99631095  0.89057067  0.99500009  1
  O  O9  1  0.78184151  0.34874954  0.27716388  1
  O  O10  1  0.22186202  0.97752511  0.05240512  1
  O  O11  1  0.07914964  0.48467142  0.73710902  1
  O  O12  1  0.51558537  0.59522681  0.06998060  1
  O  O13  1  0.10105194  0.65764400  0.90571323  1
  O  O14  1  0.05931663  0.81547464  0.22267631  1
  O  O15  1  0.65131732  0.43298043  0.60992954  1
  O  O16  1  0.89439036  0.00342410  0.66164194  1
  O  O17  1  0.44287089  0.67126873  0.28794038  1
  O  O18  1  0.75642535  0.94166413  0.88935341  1
  O  O19  1  0.72519830  0.13328389  0.19937217  1
  O  O20  1  0.32835124  0.77141009  0.62134970  1
  O  O21  1  0.40520580  0.92064891  0.40384428  1
  O  O22  1  0.40798719  0.27440750  0.86595973  1
  O  O23  1  0.75525314  0.77814431  0.72034724  1
  O  O24  1  0.43666427  0.11966087  0.71352138  1
  O  O25  1  0.88062123  0.31665738  0.04740125  1
  O  O26  1  0.18455683  0.24395476  0.55587586  1
loop_
_geom_bond_atom_site_label_1
_geom_bond_atom_site_label_2
_geom_bond_distance
_geom_bond_site_symmetry_2
Cs0 O5 3.145598 1_545
Cs0 O11 3.159720 1_655
Cs0 O9 3.165353 1_555
Cs0 O16 3.176829 1_555
Cs0 O3 3.213391 1_555
Cs0 O1 3.235840 1_655
Cs0 O15 3.236792 1_555
Cs0 O25 3.249136 1_556
Cs0 O24 3.335154 1_555
Cs0 O18 3.448766 1_545
Cs0 O19 3.546495 1_555
Cs1 O8 3.137170 1_455
Cs1 O24 3.140508 1_565
Cs1 O7 3.141538 1_455
Cs1 O14 3.176307 1_555
Cs1 O20 3.181765 1_555
Cs1 O16 3.185645 1_465
Cs1 O2 3.234821 1_565
Cs1 O13 3.317399 1_555
Cs1 O21 3.427656 1_555
Cs1 O10 3.451143 1_556
Cs1 O26 3.496464 1_565
Cs1 O23 3.563425 1_455
Cs2 O13 3.144475 1_655
Cs2 O12 3.162102 1_556
Cs2 O15 3.167889 1_555
Cs2 O8 3.175822 1_555
Cs2 O9 3.215456 1_556
Cs2 O23 3.232073 1_555
Cs2 O3 3.235291 1_555
Cs2 O6 3.248878 1_556
Cs2 O25 3.338582 1_556
Cs2 O14 3.459951 1_656
Cs2 O7 3.549796 1_555
Cs3 O16 3.137243 1_565
Cs3 O6 3.138069 1_555
Cs3 O19 3.139916 1_565
Cs3 O18 3.176247 1_554
Cs3 O17 3.185646 1_555
Cs3 O2 3.189259 1_665
Cs3 O8 3.236125 1_554
Cs3 O5 3.317022 1_555
Cs3 O12 3.428719 1_555
Cs3 O23 3.461584 1_555
Cs3 O14 3.496893 1_655
Cs3 O1 3.553882 1_665
Cs4 O26 3.125765 1_555
Cs4 O23 3.163342 1_555
Cs4 O15 3.181674 1_555
Cs4 O4 3.184289 1_555
Cs4 O17 3.192030 1_555
Cs4 O22 3.192670 1_555
Cs4 O12 3.203573 1_556
Cs4 O20 3.204288 1_555
Cs4 O6 3.411800 1_555
Cs4 O0 3.446262 1_555
Cs4 O5 3.461082 1_555
Cs4 O11 3.595861 1_555
Cs5 O14 3.128991 1_555
Cs5 O1 3.163003 1_555
Cs5 O20 3.182208 1_555
Cs5 O9 3.182495 1_455
Cs5 O7 3.195198 1_455
Cs5 O4 3.195540 1_554
Cs5 O17 3.201532 1_555
Cs5 O11 3.202321 1_555
Cs5 O25 3.417675 1_455
Cs5 O13 3.441465 1_554
Cs5 O0 3.464974 1_555
Cs5 O21 3.592463 1_555
Cs6 O2 3.137537 1_556
Cs6 O22 3.139804 1_555
Cs6 O25 3.140119 1_456
Cs6 O26 3.174966 1_555
Cs6 O4 3.181704 1_555
Cs6 O8 3.186482 1_445
Cs6 O16 3.237506 1_455
Cs6 O0 3.313203 1_556
Cs6 O11 3.432385 1_555
Cs6 O1 3.452366 1_556
Cs6 O18 3.492311 1_445
Cs6 O10 3.552465 1_546
Cs7 O18 3.127854 1_554
Cs7 O10 3.164273 1_555
Cs7 O17 3.181830 1_555
Cs7 O3 3.183717 1_564
Cs7 O19 3.192900 1_565
Cs7 O20 3.194435 1_554
Cs7 O4 3.203335 1_554
Cs7 O21 3.204100 1_555
Cs7 O24 3.420152 1_564
Cs7 O5 3.442288 1_554
Cs7 O13 3.459211 1_554
Cs7 O12 3.585419 1_555
Cs8 O0 3.143599 1_555
Cs8 O21 3.158527 1_545
Cs8 O3 3.163776 1_554
Cs8 O2 3.174854 1_555
Cs8 O15 3.216530 1_555
Cs8 O10 3.233580 1_545
Cs8 O9 3.236415 1_555
Cs8 O24 3.247666 1_555
Cs8 O6 3.338005 1_555
Cs8 O26 3.461162 1_555
Cs8 O22 3.542984 1_554
N0 O11 1.256335 1_555
N0 O13 1.258717 1_555
N0 O4 1.269452 1_555
N1 O18 1.256021 1_555
N1 O23 1.257916 1_555
N1 O16 1.269771 1_565
N2 O26 1.255964 1_555
N2 O1 1.258152 1_555
N2 O2 1.269727 1_555
N3 O14 1.255874 1_555
N3 O10 1.258172 1_555
N3 O8 1.269809 1_454
N4 O12 1.256403 1_555
N4 O0 1.258553 1_555
N4 O17 1.269600 1_555
N5 O21 1.256462 1_555
N5 O5 1.258650 1_555
N5 O20 1.269490 1_555
N6 O22 1.251321 1_555
N6 O24 1.263080 1_555
N6 O3 1.270373 1_555
N7 O19 1.251252 1_555
N7 O25 1.263081 1_555
N7 O9 1.270321 1_555
N8 O7 1.251136 1_555
N8 O6 1.263267 1_555
N8 O15 1.270256 1_555
