# generated using pymatgen
data_La5Mn5O16
_symmetry_space_group_name_H-M   'P 1'
_cell_length_a   7.86689600
_cell_length_b   9.49980520
_cell_length_c   14.74004405
_cell_angle_alpha   90.69916732
_cell_angle_beta   105.33499716
_cell_angle_gamma   113.42521431
_symmetry_Int_Tables_number   1
_chemical_formula_structural   La5Mn5O16
_chemical_formula_sum   'La15 Mn15 O48'
_cell_volume   966.19343470
_cell_formula_units_Z   3
loop_
 _symmetry_equiv_pos_site_id
 _symmetry_equiv_pos_as_xyz
  1  'x, y, z'
loop_
 _atom_site_type_symbol
 _atom_site_label
 _atom_site_symmetry_multiplicity
 _atom_site_fract_x
 _atom_site_fract_y
 _atom_site_fract_z
 _atom_site_occupancy
  La  La0  1  0.05631300  0.71227500  0.94296900  1
  La  La1  1  0.18286100  0.06630900  0.81891900  1
  La  La2  1  0.30335100  0.43623700  0.68363400  1
  La  La3  1  0.57663400  0.70006200  0.94060300  1
  La  La4  1  0.70132700  0.06097700  0.81863300  1
  La  La5  1  0.43898800  0.82270300  0.55747300  1
  La  La6  1  0.80380100  0.43017600  0.68086600  1
  La  La7  1  0.94169700  0.81599500  0.55973300  1
  La  La8  1  0.68725200  0.55452100  0.31476600  1
  La  La9  1  0.81629200  0.93581000  0.18214900  1
  La  La10  1  0.06158700  0.18452400  0.43778000  1
  La  La11  1  0.19101400  0.56329200  0.31287000  1
  La  La12  1  0.94632600  0.29154100  0.06102100  1
  La  La13  1  0.30543600  0.94505800  0.18832200  1
  La  La14  1  0.42250600  0.29613200  0.06388700  1
  Mn  Mn0  1  0.12685100  0.38169400  0.87511000  1
  Mn  Mn1  1  0.24928600  0.74991400  0.75048000  1
  Mn  Mn2  1  0.62561700  0.37600900  0.87462700  1
  Mn  Mn3  1  0.37569600  0.12490100  0.62577400  1
  Mn  Mn4  1  0.50090600  0.49849400  0.49946600  1
  Mn  Mn5  1  0.74439200  0.74681800  0.74691000  1
  Mn  Mn6  1  0.87258400  0.12531200  0.62314400  1
  Mn  Mn7  1  0.62471000  0.87977600  0.37278300  1
  Mn  Mn8  1  0.74993800  0.24846300  0.25126400  1
  Mn  Mn9  1  0.99548800  0.49657600  0.49922700  1
  Mn  Mn10  1  0.12843900  0.87635700  0.37557200  1
  Mn  Mn11  1  0.87349900  0.61917300  0.12559500  1
  Mn  Mn12  1  0.25811000  0.25136800  0.25511300  1
  Mn  Mn13  1  0.37368600  0.62503900  0.12485500  1
  Mn  Mn14  1  0.50105200  0.00000900  0.99995600  1
  O  O0  1  0.24813300  0.58057700  0.82899500  1
  O  O1  1  0.38185200  0.36204300  0.89936100  1
  O  O2  1  0.26086100  0.01449500  0.97787900  1
  O  O3  1  0.62007900  0.20314000  0.95341800  1
  O  O4  1  0.46035500  0.22497700  0.76120800  1
  O  O5  1  0.41897300  0.89766000  0.86762200  1
  O  O6  1  0.46930600  0.33527300  0.58550700  1
  O  O7  1  0.82652500  0.84723200  0.87087900  1
  O  O8  1  0.63470900  0.11823100  0.65138300  1
  O  O9  1  0.78565600  0.53081200  0.98875600  1
  O  O10  1  0.48916800  0.75707900  0.72046700  1
  O  O11  1  0.63460200  0.54568700  0.79266100  1
  O  O12  1  0.85725600  0.95292000  0.70417200  1
  O  O13  1  0.00601000  0.74164900  0.77439800  1
  O  O14  1  0.72716600  0.96798000  0.51104300  1
  O  O15  1  0.86769700  0.38893900  0.84770800  1
  O  O16  1  0.66759200  0.64969800  0.61502100  1
  O  O17  1  0.02580700  0.18910900  0.91914800  1
  O  O18  1  0.74746200  0.07409500  0.31867000  1
  O  O19  1  0.08606200  0.60358200  0.63455400  1
  O  O20  1  0.88170400  0.86596500  0.39434000  1
  O  O21  1  0.03720200  0.27386500  0.74340000  1
  O  O22  1  0.75164800  0.52235400  0.48178500  1
  O  O23  1  0.92486700  0.30691100  0.55689500  1
  O  O24  1  0.10491500  0.70082800  0.45047800  1
  O  O25  1  0.26440800  0.50519100  0.52205800  1
  O  O26  1  0.95556900  0.71881300  0.25742200  1
  O  O27  1  0.11761300  0.13114900  0.60508300  1
  O  O28  1  0.91486000  0.39953500  0.36515600  1
  O  O29  1  0.26579000  0.92036100  0.67575800  1
  O  O30  1  0.97804500  0.81347600  0.08430300  1
  O  O31  1  0.32255400  0.36292400  0.38188700  1
  O  O32  1  0.12858200  0.61067300  0.14780400  1
  O  O33  1  0.26400500  0.00578600  0.49887900  1
  O  O34  1  0.99332400  0.25834800  0.22739500  1
  O  O35  1  0.13951400  0.04451300  0.29751200  1
  O  O36  1  0.35813100  0.45447500  0.20508600  1
  O  O37  1  0.50796900  0.24926300  0.26290600  1
  O  O38  1  0.21302600  0.47370900  0.00946800  1
  O  O39  1  0.35412300  0.86292300  0.34822500  1
  O  O40  1  0.16477500  0.14991100  0.12999200  1
  O  O41  1  0.52254600  0.67282300  0.42111100  1
  O  O42  1  0.58291500  0.09993300  0.13150700  1
  O  O43  1  0.53737900  0.77328900  0.23992900  1
  O  O44  1  0.38406600  0.79732200  0.04621000  1
  O  O45  1  0.73935200  0.98522600  0.02085400  1
  O  O46  1  0.61815400  0.63496300  0.10236300  1
  O  O47  1  0.75955600  0.41727500  0.16834000  1
loop_
_geom_bond_atom_site_label_1
_geom_bond_atom_site_label_2
_geom_bond_distance
_geom_bond_site_symmetry_2
La0 O9 2.414718 1_455
La0 O44 2.419709 1_556
La0 O13 2.448073 1_555
La0 O30 2.596854 1_456
La0 O7 2.626910 1_455
La0 O2 2.636217 1_565
La1 O2 2.369949 1_555
La1 O12 2.460183 1_445
La1 O4 2.481615 1_555
La1 O17 2.671984 1_555
La1 O1 2.681312 1_555
La1 O21 2.759578 1_555
La1 O13 2.816833 1_545
La1 O29 2.859516 1_545
La1 O5 2.867283 1_545
La1 O7 3.051553 1_445
La1 O27 3.165553 1_555
La1 O3 3.197820 1_555
La2 O21 2.445429 1_555
La2 O25 2.450889 1_555
La2 O11 2.458527 1_555
La2 O6 2.583996 1_555
La2 O19 2.739952 1_555
La2 O27 2.744400 1_555
La2 O0 2.748442 1_555
La2 O10 2.778276 1_555
La2 O23 2.821024 1_455
La2 O4 2.853193 1_555
La3 O7 2.407055 1_555
La3 O46 2.441092 1_556
La3 O0 2.459008 1_555
La3 O45 2.596197 1_556
La3 O9 2.702872 1_555
La3 O5 2.722863 1_555
La3 O44 2.810147 1_556
La3 O11 2.844942 1_555
La3 O1 2.928516 1_555
La3 O30 3.052977 1_556
La3 O10 3.233259 1_555
La3 O38 3.245755 1_556
La4 O17 2.382830 1_655
La4 O5 2.449098 1_545
La4 O8 2.494805 1_555
La4 O7 2.629320 1_545
La4 O12 2.731041 1_545
La4 O3 2.733512 1_555
La4 O10 2.829048 1_545
La4 O15 2.834079 1_555
La4 O4 2.875618 1_555
La4 O45 3.040407 1_546
La4 O21 3.107612 1_655
La4 O29 3.230305 1_545
La5 O14 2.422527 1_555
La5 O10 2.459117 1_555
La5 O24 2.465471 1_555
La5 O33 2.641468 1_565
La5 O8 2.740351 1_565
La5 O25 2.746887 1_555
La5 O41 2.805813 1_555
La5 O29 2.824741 1_555
La5 O16 2.869176 1_555
La5 O39 3.040922 1_555
La5 O12 3.157237 1_555
La5 O19 3.234738 1_555
La6 O6 2.416483 1_555
La6 O15 2.445469 1_555
La6 O19 2.455840 1_655
La6 O8 2.696052 1_555
La6 O23 2.715243 1_555
La6 O16 2.777627 1_555
La6 O21 2.780671 1_655
La6 O11 2.822891 1_555
La6 O13 2.860848 1_655
La7 O20 2.447295 1_555
La7 O29 2.459825 1_655
La7 O16 2.462125 1_555
La7 O14 2.601946 1_555
La7 O22 2.652174 1_555
La7 O27 2.737335 1_665
La7 O24 2.758047 1_655
La7 O19 2.791407 1_655
La7 O12 2.834354 1_555
La7 O33 2.844640 1_665
La8 O22 2.427467 1_555
La8 O26 2.441803 1_555
La8 O36 2.452069 1_555
La8 O37 2.665822 1_555
La8 O28 2.710163 1_555
La8 O41 2.754670 1_555
La8 O20 2.799494 1_555
La8 O47 2.802172 1_555
La8 O43 2.870957 1_555
La9 O45 2.394000 1_555
La9 O35 2.450696 1_665
La9 O43 2.500092 1_555
La9 O18 2.673164 1_565
La9 O30 2.674988 1_555
La9 O46 2.717932 1_555
La9 O34 2.799768 1_565
La9 O26 2.808867 1_555
La9 O42 2.817508 1_565
La9 O40 2.993839 1_665
La9 O20 3.155696 1_555
La9 O44 3.175345 1_555
La10 O18 2.426671 1_455
La10 O31 2.434757 1_555
La10 O27 2.483163 1_555
La10 O23 2.744920 1_455
La10 O20 2.763901 1_445
La10 O33 2.767413 1_555
La10 O35 2.769718 1_555
La10 O28 2.815100 1_455
La10 O25 2.891965 1_555
La10 O14 3.094054 1_445
La10 O6 3.107707 1_555
La10 O34 3.141439 1_455
La11 O32 2.436009 1_555
La11 O28 2.441596 1_455
La11 O41 2.455875 1_555
La11 O39 2.593516 1_555
La11 O31 2.604896 1_555
La11 O36 2.732472 1_555
La11 O24 2.765091 1_555
La11 O26 2.772373 1_455
La11 O34 2.773172 1_455
La12 O34 2.425323 1_555
La12 O3 2.430782 1_554
La12 O38 2.441874 1_655
La12 O40 2.597080 1_655
La12 O17 2.614717 1_654
La12 O45 2.673989 1_545
La12 O32 2.891769 1_655
La12 O47 2.943905 1_555
La12 O9 3.087110 1_554
La12 O36 3.113591 1_655
La12 O42 3.169496 1_555
La12 O15 3.259194 1_554
La13 O30 2.418997 1_455
La13 O42 2.464637 1_565
La13 O39 2.473028 1_555
La13 O40 2.645885 1_565
La13 O35 2.690992 1_565
La13 O37 2.726471 1_565
La13 O44 2.836219 1_555
La13 O43 2.869543 1_555
La13 O32 2.895395 1_555
La14 O40 2.414237 1_555
La14 O47 2.469168 1_555
La14 O1 2.482256 1_554
La14 O2 2.596524 1_554
La14 O42 2.703705 1_555
La14 O38 2.783743 1_555
La14 O36 2.817391 1_555
La14 O3 2.871044 1_554
La14 O37 2.912502 1_555
La14 O46 2.933612 1_555
La14 O17 3.037649 1_554
Mn0 O17 1.883073 1_555
Mn0 O0 1.970557 1_555
Mn0 O38 1.980474 1_556
Mn0 O21 1.992140 1_555
Mn0 O15 2.000257 1_455
Mn0 O1 2.026582 1_555
Mn1 O29 1.950336 1_555
Mn1 O19 1.965537 1_555
Mn1 O5 1.991321 1_555
Mn1 O0 1.991648 1_555
Mn1 O13 2.007802 1_555
Mn1 O10 2.025283 1_555
Mn2 O4 1.962766 1_555
Mn2 O9 1.981167 1_555
Mn2 O1 1.999169 1_555
Mn2 O15 2.003550 1_555
Mn2 O3 2.015942 1_555
Mn2 O11 2.016198 1_555
Mn3 O33 1.959479 1_555
Mn3 O6 1.994627 1_555
Mn3 O27 1.996859 1_555
Mn3 O8 1.998711 1_555
Mn3 O4 2.019812 1_555
Mn3 O29 2.025356 1_545
Mn4 O31 1.963051 1_555
Mn4 O22 1.981957 1_555
Mn4 O16 1.986268 1_555
Mn4 O6 1.995691 1_555
Mn4 O25 1.999429 1_555
Mn4 O41 2.007998 1_555
Mn5 O7 1.873338 1_555
Mn5 O11 1.969501 1_555
Mn5 O16 1.971638 1_555
Mn5 O10 1.983779 1_555
Mn5 O12 1.990578 1_555
Mn5 O13 2.010526 1_655
Mn6 O23 1.946352 1_555
Mn6 O14 1.962997 1_545
Mn6 O27 1.994106 1_655
Mn6 O8 1.998069 1_555
Mn6 O21 2.020486 1_655
Mn6 O12 2.022363 1_545
Mn7 O18 2.000598 1_565
Mn7 O39 2.001997 1_555
Mn7 O43 2.004405 1_555
Mn7 O14 2.014337 1_555
Mn7 O20 2.019349 1_555
Mn7 O41 2.024665 1_555
Mn8 O18 1.938084 1_555
Mn8 O37 1.958886 1_555
Mn8 O28 1.967214 1_555
Mn8 O34 2.003198 1_555
Mn8 O42 2.017851 1_555
Mn8 O47 2.017875 1_555
Mn9 O23 1.941358 1_555
Mn9 O22 1.979897 1_555
Mn9 O28 1.996296 1_555
Mn9 O24 2.013820 1_655
Mn9 O25 2.020065 1_655
Mn9 O19 2.035393 1_655
Mn10 O33 1.957104 1_565
Mn10 O35 1.967372 1_565
Mn10 O39 1.971895 1_555
Mn10 O24 1.985321 1_555
Mn10 O20 1.996555 1_455
Mn10 O26 2.046388 1_455
Mn11 O30 1.881259 1_555
Mn11 O47 1.959694 1_555
Mn11 O26 1.973380 1_555
Mn11 O32 1.980555 1_655
Mn11 O9 2.002678 1_554
Mn11 O46 2.012940 1_555
Mn12 O40 1.883390 1_555
Mn12 O37 1.946566 1_555
Mn12 O31 1.973673 1_555
Mn12 O35 2.000807 1_555
Mn12 O36 2.005059 1_555
Mn12 O34 2.042237 1_455
Mn13 O43 1.965505 1_555
Mn13 O38 1.978770 1_555
Mn13 O32 1.996979 1_555
Mn13 O36 2.001161 1_555
Mn13 O46 2.002839 1_555
Mn13 O44 2.004802 1_555
Mn14 O45 1.879889 1_546
Mn14 O2 1.891527 1_555
Mn14 O42 1.970868 1_556
Mn14 O5 1.988847 1_545
Mn14 O44 1.993555 1_546
Mn14 O3 2.001617 1_555
