# generated using pymatgen
data_Na3Cr2(PS4)3
_symmetry_space_group_name_H-M   'P 1'
_cell_length_a   11.44242000
_cell_length_b   9.85716100
_cell_length_c   17.56846670
_cell_angle_alpha   85.51703386
_cell_angle_beta   90.00000000
_cell_angle_gamma   90.00000000
_symmetry_Int_Tables_number   1
_chemical_formula_structural   Na3Cr2(PS4)3
_chemical_formula_sum   'Na12 Cr8 P12 S48'
_cell_volume   1975.48112289
_cell_formula_units_Z   4
loop_
 _symmetry_equiv_pos_site_id
 _symmetry_equiv_pos_as_xyz
  1  'x, y, z'
loop_
 _atom_site_type_symbol
 _atom_site_label
 _atom_site_symmetry_multiplicity
 _atom_site_fract_x
 _atom_site_fract_y
 _atom_site_fract_z
 _atom_site_occupancy
  Na  Na0  1  0.12427900  0.99617400  0.20499900  1
  Na  Na1  1  0.87572100  0.00382600  0.79500100  1
  Na  Na2  1  0.37572100  0.49617400  0.70499900  1
  Na  Na3  1  0.08285600  0.45960800  0.85335600  1
  Na  Na4  1  0.62427900  0.50382600  0.29500100  1
  Na  Na5  1  0.08263100  0.73888000  0.55005000  1
  Na  Na6  1  0.58263100  0.76112000  0.94995000  1
  Na  Na7  1  0.41736900  0.23888000  0.05005000  1
  Na  Na8  1  0.91714400  0.54039200  0.14664400  1
  Na  Na9  1  0.91736900  0.26112000  0.44995000  1
  Na  Na10  1  0.58285600  0.04039200  0.64664400  1
  Na  Na11  1  0.41714400  0.95960800  0.35335600  1
  Cr  Cr0  1  0.73220800  0.42759600  0.78832000  1
  Cr  Cr1  1  0.22028800  0.89693800  0.89976800  1
  Cr  Cr2  1  0.23220800  0.07240400  0.71168000  1
  Cr  Cr3  1  0.76779200  0.92759600  0.28832000  1
  Cr  Cr4  1  0.27971200  0.39693800  0.39976800  1
  Cr  Cr5  1  0.26779200  0.57240400  0.21168000  1
  Cr  Cr6  1  0.72028800  0.60306200  0.60023200  1
  Cr  Cr7  1  0.77971200  0.10306200  0.10023200  1
  P  P0  1  0.86597300  0.22116700  0.25087500  1
  P  P1  1  0.73862800  0.77270500  0.44582600  1
  P  P2  1  0.18422500  0.69484900  0.36345300  1
  P  P3  1  0.63402700  0.72116700  0.75087500  1
  P  P4  1  0.68422500  0.80515100  0.13654700  1
  P  P5  1  0.31577500  0.19484900  0.86345300  1
  P  P6  1  0.13402700  0.77883300  0.74912500  1
  P  P7  1  0.76137200  0.27270500  0.94582600  1
  P  P8  1  0.81577500  0.30515100  0.63654700  1
  P  P9  1  0.26137200  0.22729500  0.55417400  1
  P  P10  1  0.23862800  0.72729500  0.05417400  1
  P  P11  1  0.36597300  0.27883300  0.24912500  1
  S  S0  1  0.55390100  0.72889200  0.64528100  1
  S  S1  1  0.10750400  0.70267200  0.25665800  1
  S  S2  1  0.63771300  0.90103400  0.79749800  1
  S  S3  1  0.19956200  0.35601400  0.27417700  1
  S  S4  1  0.32376000  0.70216700  0.95316900  1
  S  S5  1  0.35041200  0.61546900  0.33701200  1
  S  S6  1  0.19075400  0.87280800  0.40975600  1
  S  S7  1  0.17624000  0.20216700  0.45316900  1
  S  S8  1  0.05390100  0.77110800  0.85471900  1
  S  S9  1  0.82376000  0.79783300  0.54683100  1
  S  S10  1  0.43514500  0.43432700  0.17805900  1
  S  S11  1  0.56485500  0.56567300  0.82194100  1
  S  S12  1  0.60750400  0.79732800  0.24334200  1
  S  S13  1  0.64958800  0.38453100  0.66298800  1
  S  S14  1  0.44609900  0.27110800  0.35471900  1
  S  S15  1  0.36228700  0.09896600  0.20250200  1
  S  S16  1  0.14958800  0.11546900  0.83701200  1
  S  S17  1  0.30043800  0.85601400  0.77417700  1
  S  S18  1  0.89249600  0.29732800  0.74334200  1
  S  S19  1  0.13771300  0.59896600  0.70250200  1
  S  S20  1  0.67624000  0.29783300  0.04683100  1
  S  S21  1  0.06485500  0.93432700  0.67805900  1
  S  S22  1  0.39249600  0.20267200  0.75665800  1
  S  S23  1  0.94609900  0.22889200  0.14528100  1
  S  S24  1  0.88072700  0.46196600  0.56545300  1
  S  S25  1  0.84017000  0.45211700  0.90428500  1
  S  S26  1  0.80043800  0.64398600  0.72582300  1
  S  S27  1  0.38072700  0.03803400  0.93454700  1
  S  S28  1  0.12616500  0.88440200  0.02389100  1
  S  S29  1  0.69956200  0.14398600  0.22582300  1
  S  S30  1  0.34017000  0.04788300  0.59571500  1
  S  S31  1  0.85041200  0.88453100  0.16298800  1
  S  S32  1  0.65983000  0.95211700  0.40428500  1
  S  S33  1  0.69075400  0.62719200  0.09024400  1
  S  S34  1  0.80924600  0.12719200  0.59024400  1
  S  S35  1  0.86228700  0.40103400  0.29749800  1
  S  S36  1  0.30924600  0.37280800  0.90975600  1
  S  S37  1  0.14955700  0.26547400  0.64068600  1
  S  S38  1  0.87383500  0.11559800  0.97610900  1
  S  S39  1  0.11927300  0.53803400  0.43454700  1
  S  S40  1  0.37383500  0.38440200  0.52389100  1
  S  S41  1  0.85044300  0.73452600  0.35931400  1
  S  S42  1  0.35044300  0.76547400  0.14068600  1
  S  S43  1  0.61927300  0.96196600  0.06545300  1
  S  S44  1  0.15983000  0.54788300  0.09571500  1
  S  S45  1  0.93514500  0.06567300  0.32194100  1
  S  S46  1  0.64955700  0.23452600  0.85931400  1
  S  S47  1  0.62616500  0.61559800  0.47610900  1
loop_
_geom_bond_atom_site_label_1
_geom_bond_atom_site_label_2
_geom_bond_distance
_geom_bond_site_symmetry_2
Na0 S15 2.904904 1_565
Na0 S1 2.969861 1_555
Na0 S45 3.097389 1_465
Na0 S23 3.184870 1_465
Na1 S2 2.904904 1_545
Na1 S18 2.969861 1_555
Na1 S21 3.097389 1_645
Na1 S8 3.184870 1_645
Na2 S19 2.904904 1_555
Na2 S22 2.969861 1_555
Na2 S11 3.097389 1_555
Na2 S0 3.184870 1_555
Na3 S36 2.879541 1_555
Na3 S25 2.916668 1_455
Na3 S19 2.955641 1_555
Na3 S8 3.090282 1_555
Na4 S35 2.904904 1_555
Na4 S12 2.969861 1_555
Na4 S10 3.097389 1_555
Na4 S14 3.184870 1_555
Na5 S6 2.973175 1_555
Na5 S39 2.973382 1_555
Na5 S19 2.982518 1_555
Na5 S9 3.018253 1_455
Na5 S21 3.080249 1_555
Na6 S33 2.973175 1_556
Na6 S43 2.973382 1_556
Na6 S2 2.982518 1_555
Na6 S4 3.018253 1_555
Na6 S11 3.080249 1_555
Na7 S36 2.973175 1_554
Na7 S27 2.973382 1_554
Na7 S15 2.982518 1_555
Na7 S20 3.018253 1_555
Na7 S10 3.080249 1_555
Na8 S33 2.879541 1_555
Na8 S44 2.916668 1_655
Na8 S35 2.955641 1_555
Na8 S23 3.090282 1_555
Na9 S34 2.973175 1_555
Na9 S24 2.973382 1_555
Na9 S35 2.982518 1_555
Na9 S7 3.018253 1_655
Na9 S45 3.080249 1_555
Na10 S34 2.879541 1_555
Na10 S30 2.916668 1_555
Na10 S2 2.955641 1_545
Na10 S0 3.090282 1_545
Na11 S6 2.879541 1_555
Na11 S32 2.916668 1_555
Na11 S15 2.955641 1_565
Na11 S14 3.090282 1_565
Cr0 S46 2.387646 1_555
Cr0 S18 2.407432 1_555
Cr0 S25 2.410848 1_555
Cr0 S11 2.448254 1_555
Cr0 S26 2.449206 1_555
Cr0 S13 2.463406 1_555
Cr1 S4 2.384608 1_555
Cr1 S27 2.410544 1_565
Cr1 S28 2.426582 1_556
Cr1 S8 2.437820 1_555
Cr1 S17 2.451804 1_555
Cr1 S16 2.477675 1_565
Cr2 S37 2.387646 1_555
Cr2 S22 2.407432 1_555
Cr2 S30 2.410848 1_555
Cr2 S21 2.448254 1_545
Cr2 S17 2.449206 1_545
Cr2 S16 2.463406 1_555
Cr3 S41 2.387646 1_555
Cr3 S12 2.407432 1_555
Cr3 S32 2.410848 1_555
Cr3 S45 2.448254 1_565
Cr3 S29 2.449206 1_565
Cr3 S31 2.463406 1_555
Cr4 S7 2.384608 1_555
Cr4 S39 2.410544 1_555
Cr4 S40 2.426582 1_555
Cr4 S14 2.437820 1_555
Cr4 S3 2.451804 1_555
Cr4 S5 2.477675 1_555
Cr5 S42 2.387646 1_555
Cr5 S1 2.407432 1_555
Cr5 S44 2.410848 1_555
Cr5 S10 2.448254 1_555
Cr5 S3 2.449206 1_555
Cr5 S5 2.463406 1_555
Cr6 S9 2.384608 1_555
Cr6 S24 2.410544 1_555
Cr6 S47 2.426582 1_555
Cr6 S0 2.437820 1_555
Cr6 S26 2.451804 1_555
Cr6 S13 2.477675 1_555
Cr7 S20 2.384608 1_555
Cr7 S43 2.410544 1_545
Cr7 S38 2.426582 1_554
Cr7 S23 2.437820 1_555
Cr7 S29 2.451804 1_555
Cr7 S31 2.477675 1_545
P0 S35 2.010763 1_555
P0 S45 2.058003 1_555
P0 S23 2.065379 1_555
P0 S29 2.109648 1_555
P1 S41 2.044026 1_555
P1 S47 2.051459 1_555
P1 S9 2.056167 1_555
P1 S32 2.066732 1_555
P2 S6 1.991860 1_555
P2 S39 2.049372 1_555
P2 S1 2.067416 1_555
P2 S5 2.121524 1_555
P3 S2 2.010763 1_555
P3 S11 2.058003 1_555
P3 S0 2.065379 1_555
P3 S26 2.109648 1_555
P4 S33 1.991860 1_555
P4 S43 2.049372 1_555
P4 S12 2.067416 1_555
P4 S31 2.121524 1_555
P5 S36 1.991860 1_555
P5 S27 2.049372 1_555
P5 S22 2.067416 1_555
P5 S16 2.121524 1_555
P6 S19 2.010763 1_555
P6 S21 2.058003 1_555
P6 S8 2.065379 1_555
P6 S17 2.109648 1_555
P7 S46 2.044026 1_555
P7 S38 2.051459 1_555
P7 S20 2.056167 1_556
P7 S25 2.066732 1_555
P8 S34 1.991860 1_555
P8 S24 2.049372 1_555
P8 S18 2.067416 1_555
P8 S13 2.121524 1_555
P9 S37 2.044026 1_555
P9 S40 2.051459 1_555
P9 S7 2.056167 1_555
P9 S30 2.066732 1_555
P10 S42 2.044026 1_555
P10 S28 2.051459 1_555
P10 S4 2.056167 1_554
P10 S44 2.066732 1_555
P11 S15 2.010763 1_555
P11 S10 2.058003 1_555
P11 S14 2.065379 1_555
P11 S3 2.109648 1_555
