# generated using pymatgen
data_Sr8(MnN3)3
_symmetry_space_group_name_H-M   'P 1'
_cell_length_a   10.69249000
_cell_length_b   7.60110800
_cell_length_c   18.95161181
_cell_angle_alpha   73.79478683
_cell_angle_beta   90.00000000
_cell_angle_gamma   90.00000000
_symmetry_Int_Tables_number   1
_chemical_formula_structural   Sr8(MnN3)3
_chemical_formula_sum   'Sr32 Mn12 N36'
_cell_volume   1479.08965339
_cell_formula_units_Z   4
loop_
 _symmetry_equiv_pos_site_id
 _symmetry_equiv_pos_as_xyz
  1  'x, y, z'
loop_
 _atom_site_type_symbol
 _atom_site_label
 _atom_site_symmetry_multiplicity
 _atom_site_fract_x
 _atom_site_fract_y
 _atom_site_fract_z
 _atom_site_occupancy
  Sr  Sr0  1  0.62691100  0.51933600  0.42297300  1
  Sr  Sr1  1  0.62988100  0.80913400  0.55071700  1
  Sr  Sr2  1  0.37955400  0.78526300  0.06510100  1
  Sr  Sr3  1  0.37308900  0.48066400  0.57702700  1
  Sr  Sr4  1  0.12568400  0.51956500  0.41725200  1
  Sr  Sr5  1  0.12256800  0.92887600  0.14387700  1
  Sr  Sr6  1  0.87743200  0.07112400  0.85612300  1
  Sr  Sr7  1  0.12044600  0.78526300  0.56510100  1
  Sr  Sr8  1  0.63026400  0.25457900  0.72985200  1
  Sr  Sr9  1  0.37311900  0.27753400  0.21889900  1
  Sr  Sr10  1  0.87311900  0.72246600  0.28110100  1
  Sr  Sr11  1  0.62688100  0.72246600  0.78110100  1
  Sr  Sr12  1  0.37956500  0.01044000  0.85442900  1
  Sr  Sr13  1  0.87431600  0.48043500  0.58274800  1
  Sr  Sr14  1  0.13026400  0.74542100  0.77014800  1
  Sr  Sr15  1  0.87955400  0.21473700  0.43489900  1
  Sr  Sr16  1  0.12688100  0.27753400  0.71889900  1
  Sr  Sr17  1  0.86973600  0.25457900  0.22985200  1
  Sr  Sr18  1  0.37011900  0.19086600  0.44928300  1
  Sr  Sr19  1  0.62043500  0.98956000  0.14557100  1
  Sr  Sr20  1  0.62044600  0.21473700  0.93489900  1
  Sr  Sr21  1  0.87011900  0.80913400  0.05071700  1
  Sr  Sr22  1  0.62256800  0.07112400  0.35612300  1
  Sr  Sr23  1  0.62568400  0.48043500  0.08274800  1
  Sr  Sr24  1  0.12988100  0.19086600  0.94928300  1
  Sr  Sr25  1  0.12691100  0.48066400  0.07702700  1
  Sr  Sr26  1  0.37743200  0.92887600  0.64387700  1
  Sr  Sr27  1  0.12043500  0.01044000  0.35442900  1
  Sr  Sr28  1  0.87308900  0.51933600  0.92297300  1
  Sr  Sr29  1  0.87956500  0.98956000  0.64557100  1
  Sr  Sr30  1  0.37431600  0.51956500  0.91725200  1
  Sr  Sr31  1  0.36973600  0.74542100  0.27014800  1
  Mn  Mn0  1  0.36954400  0.20174200  0.06326700  1
  Mn  Mn1  1  0.13045600  0.20174200  0.56326700  1
  Mn  Mn2  1  0.62826500  0.45498700  0.24878400  1
  Mn  Mn3  1  0.11979400  0.79626600  0.93109200  1
  Mn  Mn4  1  0.86954400  0.79825800  0.43673300  1
  Mn  Mn5  1  0.87173500  0.45498700  0.74878400  1
  Mn  Mn6  1  0.12826500  0.54501300  0.25121600  1
  Mn  Mn7  1  0.88020600  0.20373400  0.06890800  1
  Mn  Mn8  1  0.37173500  0.54501300  0.75121600  1
  Mn  Mn9  1  0.63045600  0.79825800  0.93673300  1
  Mn  Mn10  1  0.38020600  0.79626600  0.43109200  1
  Mn  Mn11  1  0.61979400  0.20373400  0.56890800  1
  N  N0  1  0.12804100  0.15117200  0.48011200  1
  N  N1  1  0.38019500  0.42411600  0.06633200  1
  N  N2  1  0.62804100  0.84882800  0.01988800  1
  N  N3  1  0.11541100  0.74351000  0.28309900  1
  N  N4  1  0.12495600  0.99164600  0.85319900  1
  N  N5  1  0.86205800  0.97443300  0.35341100  1
  N  N6  1  0.38216400  0.83065200  0.51820300  1
  N  N7  1  0.88019500  0.57588400  0.43366800  1
  N  N8  1  0.23417500  0.58202700  0.18111300  1
  N  N9  1  0.61783600  0.16934800  0.48179700  1
  N  N10  1  0.63794200  0.97443300  0.85341100  1
  N  N11  1  0.37195900  0.15117200  0.98011200  1
  N  N12  1  0.12322100  0.57364100  0.92319300  1
  N  N13  1  0.76582500  0.41797300  0.81888700  1
  N  N14  1  0.87677900  0.42635900  0.07680700  1
  N  N15  1  0.87195900  0.84882800  0.51988800  1
  N  N16  1  0.73417500  0.41797300  0.31888700  1
  N  N17  1  0.13794200  0.02556700  0.64658900  1
  N  N18  1  0.43763600  0.34443900  0.80047000  1
  N  N19  1  0.62322100  0.42635900  0.57680700  1
  N  N20  1  0.61541100  0.25649000  0.21690100  1
  N  N21  1  0.87504400  0.00835400  0.14680100  1
  N  N22  1  0.36205800  0.02556700  0.14658900  1
  N  N23  1  0.88216400  0.16934800  0.98179700  1
  N  N24  1  0.56236400  0.65556100  0.19953000  1
  N  N25  1  0.06236400  0.34443900  0.30047000  1
  N  N26  1  0.61980500  0.57588400  0.93366800  1
  N  N27  1  0.11980500  0.42411600  0.56633200  1
  N  N28  1  0.11783600  0.83065200  0.01820300  1
  N  N29  1  0.93763600  0.65556100  0.69953000  1
  N  N30  1  0.37504400  0.99164600  0.35319900  1
  N  N31  1  0.37677900  0.57364100  0.42319300  1
  N  N32  1  0.62495600  0.00835400  0.64680100  1
  N  N33  1  0.38458900  0.74351000  0.78309900  1
  N  N34  1  0.88458900  0.25649000  0.71690100  1
  N  N35  1  0.26582500  0.58202700  0.68111300  1
loop_
_geom_bond_atom_site_label_1
_geom_bond_atom_site_label_2
_geom_bond_distance
_geom_bond_site_symmetry_2
Mn0 N1 1.711205 1_555
Mn0 N11 1.723386 1_554
Mn0 N22 1.764342 1_555
Mn1 N27 1.711205 1_555
Mn1 N0 1.723386 1_555
Mn1 N17 1.764342 1_555
Mn2 N24 1.702316 1_555
Mn2 N16 1.708225 1_555
Mn2 N20 1.780256 1_555
Mn3 N12 1.740309 1_555
Mn3 N28 1.742139 1_556
Mn3 N4 1.778789 1_555
Mn4 N7 1.711205 1_555
Mn4 N15 1.723386 1_555
Mn4 N5 1.764342 1_555
Mn5 N29 1.702316 1_555
Mn5 N13 1.708225 1_555
Mn5 N34 1.780256 1_555
Mn6 N25 1.702316 1_555
Mn6 N8 1.708225 1_555
Mn6 N3 1.780256 1_555
Mn7 N14 1.740309 1_555
Mn7 N23 1.742139 1_554
Mn7 N21 1.778789 1_555
Mn8 N18 1.702316 1_555
Mn8 N35 1.708225 1_555
Mn8 N33 1.780256 1_555
Mn9 N26 1.711205 1_555
Mn9 N2 1.723386 1_556
Mn9 N10 1.764342 1_555
Mn10 N31 1.740309 1_555
Mn10 N6 1.742139 1_555
Mn10 N30 1.778789 1_555
Mn11 N19 1.740309 1_555
Mn11 N9 1.742139 1_555
Mn11 N32 1.778789 1_555
N0 Sr18 2.652150 1_555
N0 Sr4 2.720107 1_555
N0 Sr15 2.792120 1_455
N0 Sr7 2.799313 1_545
N0 Sr27 2.871672 1_555
N1 Sr23 2.691547 1_555
N1 Sr30 2.714511 1_554
N1 Sr2 2.738707 1_555
N1 Sr25 2.758443 1_555
N1 Sr9 2.794485 1_555
N2 Sr21 2.652150 1_555
N2 Sr23 2.720107 1_555
N2 Sr2 2.792120 1_555
N2 Sr20 2.799313 1_564
N2 Sr19 2.871672 1_555
N3 Sr10 2.596565 1_455
N3 Sr5 2.622535 1_555
N3 Sr4 2.637793 1_555
N3 Sr31 2.730096 1_555
N3 Sr27 2.734575 1_565
N4 Sr24 2.674096 1_565
N4 Sr6 2.718725 1_465
N4 Sr12 2.726590 1_565
N4 Sr14 2.761806 1_555
N4 Sr16 2.848435 1_565
N5 Sr10 2.650472 1_555
N5 Sr22 2.668577 1_565
N5 Sr17 2.690966 1_565
N5 Sr15 2.707545 1_565
N5 Sr27 2.776815 1_665
N6 Sr3 2.583419 1_555
N6 Sr18 2.687615 1_565
N6 Sr26 2.687960 1_555
N6 Sr1 2.714013 1_555
N6 Sr7 2.927280 1_555
N7 Sr4 2.691547 1_655
N7 Sr13 2.714511 1_555
N7 Sr15 2.738707 1_555
N7 Sr0 2.758443 1_555
N7 Sr10 2.794485 1_555
N8 Sr25 2.578467 1_555
N8 Sr9 2.674271 1_555
N8 Sr31 2.767740 1_555
N8 Sr2 2.782260 1_555
N8 Sr5 2.799007 1_555
N9 Sr0 2.583419 1_555
N9 Sr1 2.687615 1_545
N9 Sr22 2.687960 1_555
N9 Sr18 2.714013 1_555
N9 Sr15 2.927280 1_555
N10 Sr11 2.650472 1_555
N10 Sr6 2.668577 1_565
N10 Sr8 2.690966 1_565
N10 Sr20 2.707545 1_565
N10 Sr12 2.776815 1_565
N11 Sr24 2.652150 1_555
N11 Sr30 2.720107 1_555
N11 Sr20 2.792120 1_555
N11 Sr2 2.799313 1_546
N11 Sr12 2.871672 1_555
N12 Sr28 2.706381 1_455
N12 Sr30 2.723192 1_555
N12 Sr25 2.801886 1_556
N12 Sr24 2.812802 1_555
N12 Sr14 2.830078 1_555
N13 Sr28 2.578467 1_555
N13 Sr11 2.674271 1_555
N13 Sr8 2.767740 1_555
N13 Sr20 2.782260 1_555
N13 Sr6 2.799007 1_555
N14 Sr25 2.706381 1_655
N14 Sr23 2.723192 1_555
N14 Sr28 2.801886 1_554
N14 Sr21 2.812802 1_555
N14 Sr17 2.830078 1_555
N15 Sr1 2.652150 1_555
N15 Sr13 2.720107 1_555
N15 Sr7 2.792120 1_655
N15 Sr15 2.799313 1_565
N15 Sr29 2.871672 1_555
N16 Sr0 2.578467 1_555
N16 Sr10 2.674271 1_555
N16 Sr17 2.767740 1_555
N16 Sr15 2.782260 1_555
N16 Sr22 2.799007 1_555
N17 Sr16 2.650472 1_555
N17 Sr26 2.668577 1_545
N17 Sr14 2.690966 1_545
N17 Sr7 2.707545 1_545
N17 Sr29 2.776815 1_445
N18 Sr12 2.535256 1_555
N18 Sr8 2.647665 1_555
N18 Sr30 2.961932 1_555
N18 Sr20 3.143466 1_555
N19 Sr3 2.706381 1_555
N19 Sr13 2.723192 1_555
N19 Sr0 2.801886 1_555
N19 Sr1 2.812802 1_555
N19 Sr8 2.830078 1_555
N20 Sr9 2.596565 1_555
N20 Sr22 2.622535 1_555
N20 Sr23 2.637793 1_555
N20 Sr17 2.730096 1_555
N20 Sr19 2.734575 1_545
N21 Sr21 2.674096 1_545
N21 Sr5 2.718725 1_645
N21 Sr19 2.726590 1_545
N21 Sr17 2.761806 1_555
N21 Sr10 2.848435 1_545
N22 Sr9 2.650472 1_555
N22 Sr5 2.668577 1_545
N22 Sr31 2.690966 1_545
N22 Sr2 2.707545 1_545
N22 Sr19 2.776815 1_545
N23 Sr28 2.583419 1_555
N23 Sr21 2.687615 1_546
N23 Sr6 2.687960 1_555
N23 Sr24 2.714013 1_655
N23 Sr20 2.927280 1_555
N24 Sr19 2.535256 1_555
N24 Sr31 2.647665 1_555
N24 Sr23 2.961932 1_555
N24 Sr2 3.143466 1_555
N25 Sr27 2.535256 1_555
N25 Sr17 2.647665 1_455
N25 Sr4 2.961932 1_555
N25 Sr15 3.143466 1_455
N26 Sr30 2.691547 1_555
N26 Sr23 2.714511 1_556
N26 Sr20 2.738707 1_555
N26 Sr28 2.758443 1_555
N26 Sr11 2.794485 1_555
N27 Sr13 2.691547 1_455
N27 Sr4 2.714511 1_555
N27 Sr7 2.738707 1_555
N27 Sr3 2.758443 1_555
N27 Sr16 2.794485 1_555
N28 Sr25 2.583419 1_555
N28 Sr24 2.687615 1_564
N28 Sr5 2.687960 1_555
N28 Sr21 2.714013 1_455
N28 Sr2 2.927280 1_555
N29 Sr29 2.535256 1_555
N29 Sr14 2.647665 1_655
N29 Sr13 2.961932 1_555
N29 Sr7 3.143466 1_655
N30 Sr18 2.674096 1_565
N30 Sr22 2.718725 1_565
N30 Sr27 2.726590 1_565
N30 Sr31 2.761806 1_555
N30 Sr9 2.848435 1_565
N31 Sr0 2.706381 1_555
N31 Sr4 2.723192 1_555
N31 Sr3 2.801886 1_555
N31 Sr18 2.812802 1_555
N31 Sr31 2.830078 1_555
N32 Sr1 2.674096 1_545
N32 Sr26 2.718725 1_545
N32 Sr29 2.726590 1_545
N32 Sr8 2.761806 1_555
N32 Sr11 2.848435 1_545
N33 Sr11 2.596565 1_555
N33 Sr26 2.622535 1_555
N33 Sr30 2.637793 1_555
N33 Sr14 2.730096 1_555
N33 Sr12 2.734575 1_565
N34 Sr16 2.596565 1_655
N34 Sr6 2.622535 1_555
N34 Sr13 2.637793 1_555
N34 Sr8 2.730096 1_555
N34 Sr29 2.734575 1_545
N35 Sr3 2.578467 1_555
N35 Sr16 2.674271 1_555
N35 Sr14 2.767740 1_555
N35 Sr7 2.782260 1_555
N35 Sr26 2.799007 1_555
