# generated using pymatgen
data_Mg2Mn(PO4)2
_symmetry_space_group_name_H-M   'P 1'
_cell_length_a   8.94995832
_cell_length_b   9.81198305
_cell_length_c   9.46808511
_cell_angle_alpha   72.23973394
_cell_angle_beta   112.94976305
_cell_angle_gamma   74.46464941
_symmetry_Int_Tables_number   1
_chemical_formula_structural   Mg2Mn(PO4)2
_chemical_formula_sum   'Mg8 Mn4 P8 O32'
_cell_volume   654.40830131
_cell_formula_units_Z   4
loop_
 _symmetry_equiv_pos_site_id
 _symmetry_equiv_pos_as_xyz
  1  'x, y, z'
loop_
 _atom_site_type_symbol
 _atom_site_label
 _atom_site_symmetry_multiplicity
 _atom_site_fract_x
 _atom_site_fract_y
 _atom_site_fract_z
 _atom_site_occupancy
  Mg  Mg0  1  0.53053244  0.64079148  0.42310593  1
  Mg  Mg1  1  0.03053489  0.64078946  0.92310535  1
  Mg  Mg2  1  0.42100786  0.85912725  0.81381162  1
  Mg  Mg3  1  0.92101574  0.85912990  0.31381532  1
  Mg  Mg4  1  0.96947021  0.35920906  0.07689335  1
  Mg  Mg5  1  0.46946083  0.35921191  0.57689378  1
  Mg  Mg6  1  0.07898823  0.14087773  0.68618693  1
  Mg  Mg7  1  0.57898216  0.14087437  0.18618607  1
  Mn  Mn0  1  -0.00001079  0.50001590  0.49997140  1
  Mn  Mn1  1  0.24998919  -0.00000298  0.24999570  1
  Mn  Mn2  1  0.50001101  0.49998612  0.00003786  1
  Mn  Mn3  1  0.74999562  -0.00000815  0.75000443  1
  P  P0  1  0.76831431  0.69829110  0.06597165  1
  P  P1  1  0.26831902  0.69828484  0.56598057  1
  P  P2  1  0.21680242  0.80165878  0.01448899  1
  P  P3  1  0.71680055  0.80166230  0.51448455  1
  P  P4  1  0.73168631  0.30170464  0.43403705  1
  P  P5  1  0.23169034  0.30170848  0.93402904  1
  P  P6  1  0.28319942  0.19833804  0.48550500  1
  P  P7  1  0.78320331  0.19833867  0.98551650  1
  O  O0  1  0.61594776  0.65174724  0.05940935  1
  O  O1  1  0.11594352  0.65174389  0.55939903  1
  O  O2  1  0.51789364  0.84811477  0.46134971  1
  O  O3  1  0.01789601  0.84811361  0.96135082  1
  O  O4  1  0.88405448  0.34825800  0.44059369  1
  O  O5  1  0.38405901  0.34825750  0.94060039  1
  O  O6  1  0.98210278  0.15188471  0.03864378  1
  O  O7  1  0.48210927  0.15188300  0.53865583  1
  O  O8  1  0.86914655  0.70641890  0.23292162  1
  O  O9  1  0.36914554  0.70640194  0.73293955  1
  O  O10  1  0.32567309  0.79362966  0.18953668  1
  O  O11  1  0.82567888  0.79361960  0.68953222  1
  O  O12  1  0.63085131  0.29358906  0.26708046  1
  O  O13  1  0.13085283  0.29360534  0.76705348  1
  O  O14  1  0.17432861  0.20636212  0.31046411  1
  O  O15  1  0.67431479  0.20637429  0.81046842  1
  O  O16  1  0.66622514  0.86276947  0.90405713  1
  O  O17  1  0.16623416  0.86277016  0.40407601  1
  O  O18  1  0.77937016  0.63719934  0.51715475  1
  O  O19  1  0.27937859  0.63719690  0.01717520  1
  O  O20  1  0.83377739  0.13722359  0.59594146  1
  O  O21  1  0.33376650  0.13722377  0.09591880  1
  O  O22  1  0.72063211  0.36280830  0.98283183  1
  O  O23  1  0.22061293  0.36281106  0.48279941  1
  O  O24  1  0.90513980  0.57889017  0.05030545  1
  O  O25  1  0.40514566  0.57888959  0.55031192  1
  O  O26  1  0.23422861  0.92110480  0.87936443  1
  O  O27  1  0.73422612  0.92110463  0.37936488  1
  O  O28  1  0.59486709  0.42110458  0.44970742  1
  O  O29  1  0.09486169  0.42110499  0.94969477  1
  O  O30  1  0.26577312  0.07890146  0.62063687  1
  O  O31  1  0.76577178  0.07890468  0.12063845  1
loop_
_geom_bond_atom_site_label_1
_geom_bond_atom_site_label_2
_geom_bond_distance
_geom_bond_site_symmetry_2
Mg0 O10 1.960361 1_555
Mg0 O28 1.982996 1_555
Mg0 O25 2.012881 1_555
Mg0 O18 2.036257 1_555
Mg0 O2 2.154100 1_555
Mg1 O11 1.960359 1_455
Mg1 O29 1.983013 1_555
Mg1 O24 2.012898 1_456
Mg1 O19 2.036306 1_556
Mg1 O3 2.154116 1_555
Mg2 O9 1.960308 1_555
Mg2 O30 1.983167 1_565
Mg2 O26 2.011054 1_555
Mg2 O16 2.036231 1_555
Mg2 O0 2.153943 1_556
Mg3 O8 1.960302 1_555
Mg3 O31 1.983181 1_565
Mg3 O27 2.011107 1_555
Mg3 O17 2.036233 1_655
Mg3 O1 2.153889 1_655
Mg4 O14 1.960381 1_655
Mg4 O24 1.982984 1_555
Mg4 O29 2.012851 1_654
Mg4 O22 2.036232 1_554
Mg4 O6 2.154144 1_555
Mg5 O15 1.960374 1_555
Mg5 O25 1.982977 1_555
Mg5 O28 2.012874 1_555
Mg5 O23 2.036315 1_555
Mg5 O7 2.154116 1_555
Mg6 O13 1.960308 1_555
Mg6 O26 1.983170 1_545
Mg6 O30 2.011077 1_555
Mg6 O20 2.036229 1_455
Mg6 O4 2.153917 1_455
Mg7 O12 1.960340 1_555
Mg7 O27 1.983156 1_545
Mg7 O31 2.011086 1_555
Mg7 O21 2.036254 1_555
Mg7 O5 2.153881 1_554
Mn0 O1 2.119728 1_555
Mn0 O4 2.119759 1_455
Mn0 O18 2.167371 1_455
Mn0 O23 2.167421 1_555
Mn0 O8 2.272113 1_455
Mn0 O13 2.272310 1_555
Mn1 O6 2.121050 1_455
Mn1 O2 2.121142 1_545
Mn1 O17 2.167538 1_545
Mn1 O21 2.167672 1_555
Mn1 O10 2.271876 1_545
Mn1 O14 2.271880 1_555
Mn2 O5 2.119749 1_554
Mn2 O0 2.119782 1_555
Mn2 O19 2.167301 1_555
Mn2 O22 2.167497 1_554
Mn2 O12 2.272049 1_555
Mn2 O9 2.272427 1_554
Mn3 O7 2.121044 1_555
Mn3 O3 2.121096 1_645
Mn3 O16 2.167462 1_545
Mn3 O20 2.167647 1_555
Mn3 O11 2.271998 1_545
Mn3 O15 2.272033 1_555
O0 P0 1.535209 1_555
O1 P1 1.535230 1_555
O2 P3 1.535260 1_555
O3 P2 1.535246 1_556
O4 P4 1.535285 1_555
O5 P5 1.535236 1_555
O6 P7 1.535210 1_554
O7 P6 1.535250 1_555
O8 P0 1.523935 1_555
O9 P1 1.523940 1_555
O10 P2 1.523921 1_555
O11 P3 1.523875 1_555
O12 P4 1.523929 1_555
O13 P5 1.524017 1_555
O14 P6 1.523891 1_555
O15 P7 1.523927 1_555
O16 P0 1.548531 1_556
O17 P1 1.548532 1_555
O18 P3 1.548642 1_555
O19 P2 1.548570 1_555
O20 P4 1.548503 1_555
O21 P5 1.548472 1_554
O22 P7 1.548644 1_555
O23 P6 1.548598 1_555
O24 P0 1.540558 1_555
O25 P1 1.540547 1_555
O26 P2 1.540607 1_556
O27 P3 1.540555 1_555
O28 P4 1.540543 1_555
O29 P5 1.540548 1_555
O30 P6 1.540603 1_555
O31 P7 1.540559 1_554
