# generated using pymatgen
data_Ho4InRh
_symmetry_space_group_name_H-M   'P 1'
_cell_length_a   9.61844262
_cell_length_b   9.61844262
_cell_length_c   9.61844262
_cell_angle_alpha   60.00000000
_cell_angle_beta   60.00000000
_cell_angle_gamma   60.00000000
_symmetry_Int_Tables_number   1
_chemical_formula_structural   Ho4InRh
_chemical_formula_sum   'Ho16 In4 Rh4'
_cell_volume   629.21530444
_cell_formula_units_Z   4
loop_
 _symmetry_equiv_pos_site_id
 _symmetry_equiv_pos_as_xyz
  1  'x, y, z'
loop_
 _atom_site_type_symbol
 _atom_site_label
 _atom_site_symmetry_multiplicity
 _atom_site_fract_x
 _atom_site_fract_y
 _atom_site_fract_z
 _atom_site_occupancy
  Ho  Ho0  1  0.18789600  0.18789600  0.81210400  1
  Ho  Ho1  1  0.59956200  0.59956200  0.20131400  1
  Ho  Ho2  1  0.43943000  0.06057000  0.43943000  1
  Ho  Ho3  1  0.43943000  0.43943000  0.06057000  1
  Ho  Ho4  1  0.81210400  0.18789600  0.81210400  1
  Ho  Ho5  1  0.18789600  0.81210400  0.18789600  1
  Ho  Ho6  1  0.43943000  0.06057000  0.06057000  1
  Ho  Ho7  1  0.18789600  0.81210400  0.81210400  1
  Ho  Ho8  1  0.06057000  0.43943000  0.06057000  1
  Ho  Ho9  1  0.81210400  0.81210400  0.18789600  1
  Ho  Ho10  1  0.20131400  0.59956200  0.59956200  1
  Ho  Ho11  1  0.06057000  0.43943000  0.43943000  1
  Ho  Ho12  1  0.06057000  0.06057000  0.43943000  1
  Ho  Ho13  1  0.81210400  0.18789600  0.18789600  1
  Ho  Ho14  1  0.59956200  0.20131400  0.59956200  1
  Ho  Ho15  1  0.59956200  0.59956200  0.59956200  1
  In  In0  1  0.83275400  0.83275400  0.83275400  1
  In  In1  1  0.83275400  0.83275400  0.50173900  1
  In  In2  1  0.50173900  0.83275400  0.83275400  1
  In  In3  1  0.83275400  0.50173900  0.83275400  1
  Rh  Rh0  1  0.39228400  0.82314800  0.39228400  1
  Rh  Rh1  1  0.39228400  0.39228400  0.39228400  1
  Rh  Rh2  1  0.82314800  0.39228400  0.39228400  1
  Rh  Rh3  1  0.39228400  0.39228400  0.82314800  1
loop_
_geom_bond_atom_site_label_1
_geom_bond_atom_site_label_2
_geom_bond_distance
_geom_bond_site_symmetry_2
Ho0 In3 3.229535 1_455
Ho0 In2 3.229535 1_545
Ho0 Rh1 3.467443 1_555
Ho0 Rh3 3.467443 1_555
Ho1 Rh0 2.823865 1_555
Ho1 Rh2 2.823865 1_555
Ho1 Rh1 2.823865 1_555
Ho1 In2 3.428825 1_554
Ho1 In3 3.428825 1_554
Ho1 In0 3.428830 1_554
Ho2 Rh1 2.811226 1_555
Ho2 Rh0 2.811226 1_545
Ho2 In1 3.483861 1_545
Ho2 In2 3.483861 1_545
Ho3 Rh1 2.811226 1_555
Ho3 Rh3 2.811226 1_554
Ho3 In3 3.483861 1_554
Ho3 In2 3.483861 1_554
Ho4 In0 3.229531 1_545
Ho4 In3 3.229540 1_555
Ho4 Rh2 3.467443 1_555
Ho4 Rh3 3.467443 1_555
Ho5 In2 3.229535 1_554
Ho5 In1 3.229535 1_455
Ho5 Rh1 3.467443 1_555
Ho5 Rh0 3.467443 1_555
Ho6 Rh0 2.811226 1_545
Ho6 Rh3 2.811226 1_554
Ho6 In2 3.483853 1_544
Ho6 In0 3.483857 1_544
Ho7 In0 3.229531 1_455
Ho7 In2 3.229540 1_555
Ho7 Rh0 3.467443 1_555
Ho7 Rh3 3.467443 1_555
Ho8 Rh2 2.811226 1_455
Ho8 Rh3 2.811226 1_554
Ho8 In3 3.483853 1_454
Ho8 In0 3.483857 1_454
Ho9 In0 3.229531 1_554
Ho9 In1 3.229540 1_555
Ho9 Rh2 3.467443 1_555
Ho9 Rh0 3.467443 1_555
Ho10 Rh3 2.823865 1_555
Ho10 Rh1 2.823865 1_555
Ho10 Rh0 2.823865 1_555
Ho10 In1 3.428825 1_455
Ho10 In3 3.428825 1_455
Ho10 In0 3.428830 1_455
Ho11 Rh1 2.811226 1_555
Ho11 Rh2 2.811226 1_455
Ho11 In1 3.483861 1_455
Ho11 In3 3.483861 1_455
Ho12 Rh2 2.811226 1_455
Ho12 Rh0 2.811226 1_545
Ho12 In1 3.483853 1_445
Ho12 In0 3.483857 1_445
Ho13 In1 3.229535 1_545
Ho13 In3 3.229535 1_554
Ho13 Rh1 3.467443 1_555
Ho13 Rh2 3.467443 1_555
Ho14 Rh3 2.823865 1_555
Ho14 Rh1 2.823865 1_555
Ho14 Rh2 2.823865 1_555
Ho14 In1 3.428825 1_545
Ho14 In2 3.428825 1_545
Ho14 In0 3.428830 1_545
Ho15 Rh2 2.823865 1_555
Ho15 Rh0 2.823865 1_555
Ho15 Rh3 2.823865 1_555
Ho15 In1 3.428834 1_555
Ho15 In2 3.428834 1_555
Ho15 In3 3.428834 1_555
In0 In1 3.183849 1_555
In0 In2 3.183849 1_555
In0 In3 3.183849 1_555
In1 In2 3.183849 1_555
In1 In3 3.183849 1_555
In2 In3 3.183849 1_555
