# generated using pymatgen
data_Nb3Ge
_symmetry_space_group_name_H-M   'P 1'
_cell_length_a   4.11528500
_cell_length_b   4.11528500
_cell_length_c   4.11528500
_cell_angle_alpha   90.00000000
_cell_angle_beta   90.00000000
_cell_angle_gamma   90.00000000
_symmetry_Int_Tables_number   1
_chemical_formula_structural   Nb3Ge
_chemical_formula_sum   'Nb3 Ge1'
_cell_volume   69.69469979
_cell_formula_units_Z   1
loop_
 _symmetry_equiv_pos_site_id
 _symmetry_equiv_pos_as_xyz
  1  'x, y, z'
loop_
 _atom_site_type_symbol
 _atom_site_label
 _atom_site_symmetry_multiplicity
 _atom_site_fract_x
 _atom_site_fract_y
 _atom_site_fract_z
 _atom_site_occupancy
  Nb  Nb0  1  0.50000000  0.50000000  0.00000000  1
  Nb  Nb1  1  0.50000000  0.00000000  0.50000000  1
  Nb  Nb2  1  0.00000000  0.50000000  0.50000000  1
  Ge  Ge0  1  0.00000000  0.00000000  0.00000000  1
loop_
_geom_bond_atom_site_label_1
_geom_bond_atom_site_label_2
_geom_bond_distance
_geom_bond_site_symmetry_2
Nb0 Nb1 2.909946 1_555
Nb0 Nb1 2.909946 1_554
Nb0 Nb2 2.909946 1_554
Nb0 Nb2 2.909946 1_555
Nb0 Nb1 2.909946 1_565
Nb0 Nb1 2.909946 1_564
Nb0 Nb2 2.909946 1_655
Nb0 Nb2 2.909946 1_654
Nb1 Nb2 2.909946 1_645
Nb1 Nb2 2.909946 1_555
Nb1 Nb2 2.909946 1_545
Nb1 Nb2 2.909946 1_655
Ge0 Nb1 2.909946 1_455
Ge0 Nb1 2.909946 1_454
Ge0 Nb1 2.909946 1_555
Ge0 Nb1 2.909946 1_554
Ge0 Nb2 2.909946 1_554
Ge0 Nb2 2.909946 1_555
Ge0 Nb0 2.909946 1_445
Ge0 Nb0 2.909946 1_455
Ge0 Nb2 2.909946 1_545
Ge0 Nb2 2.909946 1_544
Ge0 Nb0 2.909946 1_545
Ge0 Nb0 2.909946 1_555
