# generated using pymatgen
data_Fe7S8
_symmetry_space_group_name_H-M   'P 1'
_cell_length_a   6.53462913
_cell_length_b   6.53462913
_cell_length_c   11.52931416
_cell_angle_alpha   68.14462647
_cell_angle_beta   68.14462647
_cell_angle_gamma   61.45561046
_symmetry_Int_Tables_number   1
_chemical_formula_structural   Fe7S8
_chemical_formula_sum   'Fe14 S16'
_cell_volume   389.81673464
_cell_formula_units_Z   2
loop_
 _symmetry_equiv_pos_site_id
 _symmetry_equiv_pos_as_xyz
  1  'x, y, z'
loop_
 _atom_site_type_symbol
 _atom_site_label
 _atom_site_symmetry_multiplicity
 _atom_site_fract_x
 _atom_site_fract_y
 _atom_site_fract_z
 _atom_site_occupancy
  Fe  Fe0  1  0.21772300  0.60358600  0.97001200  1
  Fe  Fe1  1  0.39641400  0.78227700  0.52998800  1
  Fe  Fe2  1  0.78227700  0.39641400  0.02998800  1
  Fe  Fe3  1  0.60358600  0.21772300  0.47001200  1
  Fe  Fe4  1  0.17188100  0.38025000  0.22961400  1
  Fe  Fe5  1  0.61975000  0.82811900  0.27038600  1
  Fe  Fe6  1  0.82811900  0.61975000  0.77038600  1
  Fe  Fe7  1  0.38025000  0.17188100  0.72961400  1
  Fe  Fe8  1  0.00165900  0.20960500  0.50083400  1
  Fe  Fe9  1  0.79039500  0.99834100  0.99916600  1
  Fe  Fe10  1  0.99834100  0.79039500  0.49916600  1
  Fe  Fe11  1  0.20960500  0.00165900  0.00083400  1
  Fe  Fe12  1  0.19787000  0.80213000  0.25000000  1
  Fe  Fe13  1  0.80213000  0.19787000  0.75000000  1
  S  S0  1  0.12671500  0.40393700  0.88238400  1
  S  S1  1  0.59606300  0.87328500  0.61761600  1
  S  S2  1  0.87328500  0.59606300  0.11761600  1
  S  S3  1  0.40393700  0.12671500  0.38238400  1
  S  S4  1  0.39158800  0.58557600  0.10995600  1
  S  S5  1  0.41442400  0.60841200  0.39004400  1
  S  S6  1  0.60841200  0.41442400  0.89004400  1
  S  S7  1  0.58557600  0.39158800  0.60995600  1
  S  S8  1  0.86426700  0.05116600  0.15376300  1
  S  S9  1  0.94883400  0.13573300  0.34623700  1
  S  S10  1  0.13573300  0.94883400  0.84623700  1
  S  S11  1  0.05116600  0.86426700  0.65376300  1
  S  S12  1  0.07774500  0.37638900  0.62933300  1
  S  S13  1  0.62361100  0.92225500  0.87066700  1
  S  S14  1  0.92225500  0.62361100  0.37066700  1
  S  S15  1  0.37638900  0.07774500  0.12933300  1
loop_
_geom_bond_atom_site_label_1
_geom_bond_atom_site_label_2
_geom_bond_distance
_geom_bond_site_symmetry_2
Fe0 S10 2.104852 1_555
Fe0 S6 2.230684 1_555
Fe0 S4 2.236867 1_556
Fe0 S2 2.270708 1_456
Fe0 S0 2.290540 1_555
Fe1 S11 2.104852 1_555
Fe1 S7 2.230684 1_555
Fe1 S5 2.236867 1_555
Fe1 S3 2.270708 1_565
Fe1 S1 2.290540 1_555
Fe2 S8 2.104852 1_555
Fe2 S4 2.230684 1_555
Fe2 S6 2.236867 1_554
Fe2 S0 2.270708 1_654
Fe2 S2 2.290540 1_555
Fe3 S9 2.104852 1_555
Fe3 S5 2.230684 1_555
Fe3 S7 2.236867 1_555
Fe3 S1 2.270708 1_545
Fe3 S3 2.290540 1_555
Fe4 S4 2.180106 1_555
Fe4 S15 2.248741 1_555
Fe4 S14 2.303438 1_455
Fe4 S2 2.313812 1_455
Fe4 S3 2.358302 1_555
Fe4 S9 2.377467 1_455
Fe5 S5 2.180106 1_555
Fe5 S14 2.248741 1_555
Fe5 S15 2.303438 1_565
Fe5 S3 2.313812 1_565
Fe5 S2 2.358302 1_555
Fe5 S8 2.377467 1_565
Fe6 S6 2.180106 1_555
Fe6 S13 2.248741 1_555
Fe6 S12 2.303438 1_655
Fe6 S0 2.313812 1_655
Fe6 S1 2.358302 1_555
Fe6 S11 2.377467 1_655
Fe7 S7 2.180106 1_555
Fe7 S12 2.248741 1_555
Fe7 S13 2.303438 1_545
Fe7 S1 2.313812 1_545
Fe7 S0 2.358302 1_555
Fe7 S10 2.377467 1_545
Fe8 S9 2.187934 1_455
Fe8 S11 2.251781 1_545
Fe8 S3 2.363432 1_555
Fe8 S7 2.422130 1_455
Fe8 S12 2.428644 1_555
Fe8 S14 2.460872 1_455
Fe9 S8 2.187934 1_566
Fe9 S10 2.251781 1_655
Fe9 S2 2.363432 1_556
Fe9 S6 2.422130 1_565
Fe9 S13 2.428644 1_555
Fe9 S15 2.460872 1_566
Fe10 S11 2.187934 1_655
Fe10 S9 2.251781 1_565
Fe10 S1 2.363432 1_555
Fe10 S5 2.422130 1_655
Fe10 S14 2.428644 1_555
Fe10 S12 2.460872 1_655
Fe11 S10 2.187934 1_544
Fe11 S8 2.251781 1_455
Fe11 S0 2.363432 1_554
Fe11 S4 2.422130 1_545
Fe11 S15 2.428644 1_555
Fe11 S13 2.460872 1_544
Fe12 S5 2.163183 1_555
Fe12 S4 2.163183 1_555
Fe12 S15 2.339687 1_565
Fe12 S14 2.339687 1_455
Fe12 S8 2.387009 1_465
Fe12 S9 2.387009 1_465
Fe13 S7 2.163183 1_555
Fe13 S6 2.163183 1_555
Fe13 S13 2.339687 1_545
Fe13 S12 2.339687 1_655
Fe13 S11 2.387009 1_645
Fe13 S10 2.387009 1_645
