# generated using pymatgen
data_Na3AlS3
_symmetry_space_group_name_H-M   'P 1'
_cell_length_a   12.01985618
_cell_length_b   7.59937586
_cell_length_c   13.59936552
_cell_angle_alpha   81.07140052
_cell_angle_beta   90.00000000
_cell_angle_gamma   90.00000000
_symmetry_Int_Tables_number   1
_chemical_formula_structural   Na3AlS3
_chemical_formula_sum   'Na24 Al8 S24'
_cell_volume   1227.15986579
_cell_formula_units_Z   8
loop_
 _symmetry_equiv_pos_site_id
 _symmetry_equiv_pos_as_xyz
  1  'x, y, z'
loop_
 _atom_site_type_symbol
 _atom_site_label
 _atom_site_symmetry_multiplicity
 _atom_site_fract_x
 _atom_site_fract_y
 _atom_site_fract_z
 _atom_site_occupancy
  Na  Na0  1  0.98294164  0.08191137  0.80593330  1
  Na  Na1  1  0.75223109  0.99483072  0.01374276  1
  Na  Na2  1  0.80712544  0.53406490  0.75979288  1
  Na  Na3  1  0.73731753  0.91914970  0.52584365  1
  Na  Na4  1  0.91317644  0.11111801  0.36474221  1
  Na  Na5  1  0.23731753  0.58085030  0.47415635  1
  Na  Na6  1  0.82660849  0.50347358  0.24358889  1
  Na  Na7  1  0.26268247  0.08085030  0.47415635  1
  Na  Na8  1  0.74776891  0.49483072  0.01374276  1
  Na  Na9  1  0.41317644  0.38888199  0.63525779  1
  Na  Na10  1  0.25223109  0.50516928  0.98625724  1
  Na  Na11  1  0.24776891  0.00516928  0.98625724  1
  Na  Na12  1  0.76268247  0.41914970  0.52584365  1
  Na  Na13  1  0.19287456  0.46593510  0.24020712  1
  Na  Na14  1  0.01705836  0.91808863  0.19406670  1
  Na  Na15  1  0.58682356  0.61111801  0.36474221  1
  Na  Na16  1  0.32660849  0.99652642  0.75641111  1
  Na  Na17  1  0.08682356  0.88888199  0.63525779  1
  Na  Na18  1  0.30712544  0.96593510  0.24020712  1
  Na  Na19  1  0.17339151  0.49652642  0.75641111  1
  Na  Na20  1  0.48294164  0.41808863  0.19406670  1
  Na  Na21  1  0.69287456  0.03406490  0.75979288  1
  Na  Na22  1  0.51705836  0.58191137  0.80593330  1
  Na  Na23  1  0.67339151  0.00347358  0.24358889  1
  Al  Al0  1  0.00670486  0.32588013  0.07337287  1
  Al  Al1  1  0.02146101  0.31994126  0.56571019  1
  Al  Al2  1  0.52146101  0.18005874  0.43428981  1
  Al  Al3  1  0.47853899  0.81994126  0.56571019  1
  Al  Al4  1  0.50670486  0.17411987  0.92662713  1
  Al  Al5  1  0.49329514  0.82588013  0.07337287  1
  Al  Al6  1  0.97853899  0.68005874  0.43428981  1
  Al  Al7  1  0.99329514  0.67411987  0.92662713  1
  S  S0  1  0.35878119  0.31006401  0.85362816  1
  S  S1  1  0.16731894  0.20231974  0.12336188  1
  S  S2  1  0.38991049  0.37958595  0.38730556  1
  S  S3  1  0.14121881  0.81006401  0.85362816  1
  S  S4  1  0.00288708  0.61901727  0.09737447  1
  S  S5  1  0.64121881  0.68993599  0.14637184  1
  S  S6  1  0.81513265  0.76213753  0.37022972  1
  S  S7  1  0.11008951  0.87958595  0.38730556  1
  S  S8  1  0.31513265  0.73786247  0.62977028  1
  S  S9  1  0.50288708  0.88098273  0.90262553  1
  S  S10  1  0.66731894  0.29768026  0.87663812  1
  S  S11  1  0.85878119  0.18993599  0.14637184  1
  S  S12  1  0.18486735  0.23786247  0.62977028  1
  S  S13  1  0.03265437  0.40951528  0.39596793  1
  S  S14  1  0.61008951  0.62041405  0.61269444  1
  S  S15  1  0.49711292  0.11901727  0.09737447  1
  S  S16  1  0.68486735  0.26213753  0.37022972  1
  S  S17  1  0.88991049  0.12041405  0.61269444  1
  S  S18  1  0.96734563  0.59048472  0.60403207  1
  S  S19  1  0.99711292  0.38098273  0.90262553  1
  S  S20  1  0.83268106  0.79768026  0.87663812  1
  S  S21  1  0.53265437  0.09048472  0.60403207  1
  S  S22  1  0.33268106  0.70231974  0.12336188  1
  S  S23  1  0.46734563  0.90951528  0.39596793  1
loop_
_geom_bond_atom_site_label_1
_geom_bond_atom_site_label_2
_geom_bond_distance
_geom_bond_site_symmetry_2
Na0 S19 2.802000 1_555
Na0 S3 2.809267 1_645
Na0 S17 2.829019 1_555
Na0 S20 2.864859 1_545
Na1 S20 2.742874 1_554
Na1 S11 2.814589 1_565
Na1 S10 2.912547 1_564
Na1 S5 3.017454 1_555
Na2 S20 2.760566 1_555
Na2 S10 2.773054 1_555
Na2 S18 2.845644 1_555
Na2 S14 3.103863 1_555
Na2 S19 3.104817 1_555
Na3 S6 2.749704 1_555
Na3 S17 2.767525 1_565
Na3 S14 2.838166 1_555
Na3 S21 3.050803 1_565
Na3 S16 3.155564 1_565
Na4 S13 2.771967 1_655
Na4 S6 2.892441 1_545
Na4 S7 2.936744 1_645
Na4 S16 2.979955 1_555
Na4 S11 3.008857 1_555
Na5 S8 2.749704 1_555
Na5 S2 2.767525 1_555
Na5 S7 2.838166 1_555
Na5 S13 3.050803 1_555
Na5 S12 3.155564 1_555
Na6 S6 2.810672 1_555
Na6 S5 2.853045 1_555
Na6 S16 2.872601 1_555
Na6 S11 2.924466 1_555
Na6 S4 2.944887 1_655
Na6 S13 3.237059 1_655
Na7 S12 2.749704 1_555
Na7 S7 2.767525 1_545
Na7 S2 2.838166 1_555
Na7 S23 3.050803 1_545
Na7 S8 3.155564 1_545
Na8 S10 2.742874 1_554
Na8 S5 2.814589 1_555
Na8 S20 2.912547 1_554
Na8 S11 3.017454 1_555
Na9 S21 2.771967 1_555
Na9 S8 2.892441 1_555
Na9 S14 2.936744 1_555
Na9 S12 2.979955 1_555
Na9 S0 3.008857 1_555
Na10 S22 2.742874 1_556
Na10 S0 2.814589 1_555
Na10 S1 2.912547 1_556
Na10 S3 3.017454 1_555
Na11 S1 2.742874 1_556
Na11 S3 2.814589 1_545
Na11 S22 2.912547 1_546
Na11 S0 3.017454 1_555
Na12 S16 2.749704 1_555
Na12 S14 2.767525 1_555
Na12 S17 2.838166 1_555
Na12 S18 3.050803 1_555
Na12 S6 3.155564 1_555
Na13 S1 2.760566 1_555
Na13 S22 2.773054 1_555
Na13 S13 2.845644 1_555
Na13 S2 3.103863 1_555
Na13 S4 3.104817 1_555
Na14 S4 2.802000 1_555
Na14 S11 2.809267 1_465
Na14 S7 2.829019 1_555
Na14 S1 2.864859 1_565
Na15 S23 2.771967 1_555
Na15 S16 2.892441 1_555
Na15 S2 2.936744 1_555
Na15 S6 2.979955 1_555
Na15 S5 3.008857 1_555
Na16 S8 2.810672 1_555
Na16 S3 2.853045 1_555
Na16 S12 2.872601 1_565
Na16 S0 2.924466 1_565
Na16 S9 2.944887 1_555
Na16 S21 3.237059 1_565
Na17 S18 2.771967 1_455
Na17 S12 2.892441 1_565
Na17 S17 2.936744 1_465
Na17 S8 2.979955 1_555
Na17 S3 3.008857 1_555
Na18 S22 2.760566 1_555
Na18 S1 2.773054 1_565
Na18 S23 2.845644 1_555
Na18 S7 3.103863 1_555
Na18 S15 3.104817 1_565
Na19 S12 2.810672 1_555
Na19 S0 2.853045 1_555
Na19 S8 2.872601 1_555
Na19 S3 2.924466 1_555
Na19 S19 2.944887 1_455
Na19 S18 3.237059 1_455
Na20 S15 2.802000 1_555
Na20 S5 2.809267 1_555
Na20 S2 2.829019 1_555
Na20 S22 2.864859 1_555
Na21 S10 2.760566 1_555
Na21 S20 2.773054 1_545
Na21 S21 2.845644 1_555
Na21 S17 3.103863 1_555
Na21 S9 3.104817 1_545
Na22 S9 2.802000 1_555
Na22 S0 2.809267 1_555
Na22 S14 2.829019 1_555
Na22 S10 2.864859 1_555
Na23 S16 2.810672 1_555
Na23 S11 2.853045 1_555
Na23 S6 2.872601 1_545
Na23 S5 2.924466 1_545
Na23 S15 2.944887 1_555
Na23 S23 3.237059 1_545
Al0 S1 2.207431 1_555
Al0 S11 2.212649 1_455
Al0 S19 2.297555 1_454
Al0 S4 2.301481 1_555
Al1 S12 2.199342 1_555
Al1 S17 2.215151 1_455
Al1 S18 2.292219 1_455
Al1 S13 2.307024 1_555
Al2 S16 2.199342 1_555
Al2 S2 2.215151 1_555
Al2 S23 2.292219 1_545
Al2 S21 2.307024 1_555
Al3 S8 2.199342 1_555
Al3 S14 2.215151 1_555
Al3 S21 2.292219 1_565
Al3 S23 2.307024 1_555
Al4 S10 2.207431 1_555
Al4 S0 2.212649 1_555
Al4 S15 2.297555 1_556
Al4 S9 2.301481 1_545
Al5 S22 2.207431 1_555
Al5 S5 2.212649 1_555
Al5 S9 2.297555 1_554
Al5 S15 2.301481 1_565
Al6 S6 2.199342 1_555
Al6 S7 2.215151 1_655
Al6 S13 2.292219 1_655
Al6 S18 2.307024 1_555
Al7 S20 2.207431 1_555
Al7 S3 2.212649 1_655
Al7 S4 2.297555 1_656
Al7 S19 2.301481 1_555
