# generated using pymatgen
data_K2TiOF4
_symmetry_space_group_name_H-M   'P 1'
_cell_length_a   7.49156600
_cell_length_b   13.11922600
_cell_length_c   20.41117900
_cell_angle_alpha   90.00000000
_cell_angle_beta   90.00000000
_cell_angle_gamma   90.00000000
_symmetry_Int_Tables_number   1
_chemical_formula_structural   K2TiOF4
_chemical_formula_sum   'K32 Ti16 O16 F64'
_cell_volume   2006.08307971
_cell_formula_units_Z   16
loop_
 _symmetry_equiv_pos_site_id
 _symmetry_equiv_pos_as_xyz
  1  'x, y, z'
loop_
 _atom_site_type_symbol
 _atom_site_label
 _atom_site_symmetry_multiplicity
 _atom_site_fract_x
 _atom_site_fract_y
 _atom_site_fract_z
 _atom_site_occupancy
  K  K0  1  0.67223500  0.01611200  0.49332500  1
  K  K1  1  0.67223500  0.48388800  0.99332500  1
  K  K2  1  0.66780600  0.20569400  0.74943400  1
  K  K3  1  0.53219700  0.54635500  0.33299400  1
  K  K4  1  0.65690000  0.48382200  0.50540200  1
  K  K5  1  0.79920700  0.95851400  0.66491800  1
  K  K6  1  0.16698600  0.17185400  0.75106100  1
  K  K7  1  0.52243100  0.76371400  0.08129900  1
  K  K8  1  0.15690000  0.51617800  0.49459800  1
  K  K9  1  0.17223500  0.51611200  0.00667500  1
  K  K10  1  0.80855600  0.76750500  0.41667200  1
  K  K11  1  0.02243100  0.26371400  0.41870100  1
  K  K12  1  0.52243100  0.73628600  0.58129900  1
  K  K13  1  0.79920700  0.54148600  0.16491800  1
  K  K14  1  0.16780600  0.70569400  0.75056600  1
  K  K15  1  0.53219700  0.95364500  0.83299400  1
  K  K16  1  0.16780600  0.79430600  0.25056600  1
  K  K17  1  0.30855600  0.26750500  0.08332800  1
  K  K18  1  0.17223500  0.98388800  0.50667500  1
  K  K19  1  0.30855600  0.23249500  0.58332800  1
  K  K20  1  0.80855600  0.73249500  0.91667200  1
  K  K21  1  0.03219700  0.45364500  0.66700600  1
  K  K22  1  0.15690000  0.98382200  0.99459800  1
  K  K23  1  0.65690000  0.01617800  0.00540200  1
  K  K24  1  0.66698600  0.67185400  0.74893900  1
  K  K25  1  0.29920700  0.04148600  0.33508200  1
  K  K26  1  0.66698600  0.82814600  0.24893900  1
  K  K27  1  0.66780600  0.29430600  0.24943400  1
  K  K28  1  0.02243100  0.23628600  0.91870100  1
  K  K29  1  0.16698600  0.32814600  0.25106100  1
  K  K30  1  0.29920700  0.45851400  0.83508200  1
  K  K31  1  0.03219700  0.04635500  0.16700600  1
  Ti  Ti0  1  0.80166400  0.06451700  0.32597300  1
  Ti  Ti1  1  0.30166400  0.93548300  0.67402700  1
  Ti  Ti2  1  0.52138100  0.24457800  0.42381000  1
  Ti  Ti3  1  0.52846300  0.06348700  0.17283500  1
  Ti  Ti4  1  0.52846300  0.43651300  0.67283500  1
  Ti  Ti5  1  0.02138100  0.75542200  0.57619000  1
  Ti  Ti6  1  0.80430400  0.25472000  0.57515300  1
  Ti  Ti7  1  0.02846300  0.56348700  0.32716500  1
  Ti  Ti8  1  0.30430400  0.74528000  0.42484700  1
  Ti  Ti9  1  0.30166400  0.56451700  0.17402700  1
  Ti  Ti10  1  0.02138100  0.74457800  0.07619000  1
  Ti  Ti11  1  0.80430400  0.24528000  0.07515300  1
  Ti  Ti12  1  0.30430400  0.75472000  0.92484700  1
  Ti  Ti13  1  0.80166400  0.43548300  0.82597300  1
  Ti  Ti14  1  0.02846300  0.93651300  0.82716500  1
  Ti  Ti15  1  0.52138100  0.25542200  0.92381000  1
  O  O0  1  0.15897400  0.84482400  0.87791700  1
  O  O1  1  0.66550000  0.15599800  0.37448700  1
  O  O2  1  0.66550000  0.34400200  0.87448700  1
  O  O3  1  0.66904200  0.42766300  0.74830800  1
  O  O4  1  0.66734700  0.25003500  0.49824200  1
  O  O5  1  0.16734700  0.75003500  0.00175800  1
  O  O6  1  0.16904200  0.57233700  0.25169200  1
  O  O7  1  0.66904200  0.07233700  0.24830800  1
  O  O8  1  0.65897400  0.15517600  0.12208300  1
  O  O9  1  0.16550000  0.84400200  0.62551300  1
  O  O10  1  0.66734700  0.24996500  0.99824200  1
  O  O11  1  0.16904200  0.92766300  0.75169200  1
  O  O12  1  0.16734700  0.74996500  0.50175800  1
  O  O13  1  0.15897400  0.65517600  0.37791700  1
  O  O14  1  0.16550000  0.65599800  0.12551300  1
  O  O15  1  0.65897400  0.34482400  0.62208300  1
  F  F0  1  0.35525700  0.04873500  0.09990700  1
  F  F1  1  0.87431700  0.03919100  0.78014600  1
  F  F2  1  0.85525700  0.54873500  0.40009300  1
  F  F3  1  0.15376300  0.05139700  0.86246800  1
  F  F4  1  0.46847400  0.94967600  0.59903500  1
  F  F5  1  0.88585700  0.87226400  0.53929800  1
  F  F6  1  0.46478000  0.67130200  0.20371400  1
  F  F7  1  0.44634400  0.63029600  0.46017100  1
  F  F8  1  0.37431700  0.96080900  0.21985400  1
  F  F9  1  0.69067900  0.36174400  0.11204300  1
  F  F10  1  0.86703800  0.82936400  0.79606300  1
  F  F11  1  0.19067900  0.86174400  0.38795700  1
  F  F12  1  0.34270600  0.25855000  0.85251700  1
  F  F13  1  0.84599700  0.83217500  0.03086500  1
  F  F14  1  0.84270600  0.75855000  0.64748300  1
  F  F15  1  0.96478000  0.17130200  0.29628600  1
  F  F16  1  0.37431700  0.53919100  0.71985400  1
  F  F17  1  0.94634400  0.13029600  0.03982900  1
  F  F18  1  0.62257700  0.36287700  0.38493700  1
  F  F19  1  0.47428300  0.75433600  0.85043800  1
  F  F20  1  0.67360600  0.94938500  0.35972100  1
  F  F21  1  0.48141100  0.83617400  0.46664400  1
  F  F22  1  0.84599700  0.66782500  0.53086500  1
  F  F23  1  0.98141100  0.16382600  0.53335600  1
  F  F24  1  0.19067900  0.63825600  0.88795700  1
  F  F25  1  0.38585700  0.12773600  0.46070200  1
  F  F26  1  0.17360600  0.05061500  0.64027900  1
  F  F27  1  0.44634400  0.86970400  0.96017100  1
  F  F28  1  0.96091900  0.53832900  0.78110500  1
  F  F29  1  0.94634400  0.36970400  0.53982900  1
  F  F30  1  0.46091900  0.03832900  0.71889500  1
  F  F31  1  0.97428300  0.24566400  0.14956200  1
  F  F32  1  0.36703800  0.17063600  0.20393700  1
  F  F33  1  0.17360600  0.44938500  0.14027900  1
  F  F34  1  0.47428300  0.74566400  0.35043800  1
  F  F35  1  0.34599700  0.33217500  0.46913500  1
  F  F36  1  0.65376300  0.55139700  0.63753200  1
  F  F37  1  0.46847400  0.55032400  0.09903500  1
  F  F38  1  0.65376300  0.94860300  0.13753200  1
  F  F39  1  0.36703800  0.32936400  0.70393700  1
  F  F40  1  0.34599700  0.16782500  0.96913500  1
  F  F41  1  0.86703800  0.67063600  0.29606300  1
  F  F42  1  0.97428300  0.25433600  0.64956200  1
  F  F43  1  0.96091900  0.96167100  0.28110500  1
  F  F44  1  0.46091900  0.46167100  0.21889500  1
  F  F45  1  0.85525700  0.95126500  0.90009300  1
  F  F46  1  0.48141100  0.66382600  0.96664400  1
  F  F47  1  0.12257700  0.86287700  0.11506300  1
  F  F48  1  0.15376300  0.44860300  0.36246800  1
  F  F49  1  0.84270600  0.74145000  0.14748300  1
  F  F50  1  0.98141100  0.33617400  0.03335600  1
  F  F51  1  0.62257700  0.13712300  0.88493700  1
  F  F52  1  0.96478000  0.32869800  0.79628600  1
  F  F53  1  0.34270600  0.24145000  0.35251700  1
  F  F54  1  0.12257700  0.63712300  0.61506300  1
  F  F55  1  0.96847400  0.05032400  0.40096500  1
  F  F56  1  0.67360600  0.55061500  0.85972100  1
  F  F57  1  0.46478000  0.82869800  0.70371400  1
  F  F58  1  0.69067900  0.13825600  0.61204300  1
  F  F59  1  0.35525700  0.45126500  0.59990700  1
  F  F60  1  0.96847400  0.44967600  0.90096500  1
  F  F61  1  0.87431700  0.46080900  0.28014600  1
  F  F62  1  0.38585700  0.37226400  0.96070200  1
  F  F63  1  0.88585700  0.62773600  0.03929800  1
loop_
_geom_bond_atom_site_label_1
_geom_bond_atom_site_label_2
_geom_bond_distance
_geom_bond_site_symmetry_2
K0 O1 3.042062 1_555
K0 O4 3.070748 1_555
K1 O2 3.042062 1_555
K1 O10 3.070748 1_555
K2 O3 2.912167 1_555
K2 O2 3.131747 1_555
K2 O15 3.176919 1_555
K3 O6 3.204948 1_555
K3 O13 3.270580 1_555
K4 O15 2.999594 1_555
K4 O4 3.071582 1_555
K5 O9 3.230165 1_655
K5 O11 3.313199 1_655
K8 O13 2.999594 1_555
K8 O12 3.071582 1_555
K9 O14 3.042062 1_555
K9 O5 3.070748 1_555
K10 O13 3.112717 1_655
K10 O12 3.208417 1_655
K13 O14 3.230165 1_655
K13 O6 3.313199 1_655
K14 O11 2.912167 1_555
K14 O9 3.131747 1_555
K14 O0 3.176919 1_555
K15 O11 3.204948 1_555
K15 O0 3.270580 1_555
K16 O6 2.912167 1_555
K16 O14 3.131747 1_555
K16 O13 3.176919 1_555
K17 O8 3.112717 1_555
K17 O10 3.208417 1_554
K18 O9 3.042062 1_555
K18 O12 3.070748 1_555
K19 O15 3.112717 1_555
K19 O4 3.208417 1_555
K20 O0 3.112717 1_655
K20 O5 3.208417 1_656
K21 O3 3.204948 1_455
K21 O15 3.270580 1_455
K22 O0 2.999594 1_555
K22 O5 3.071582 1_556
K23 O8 2.999594 1_555
K23 O10 3.071582 1_554
K25 O1 3.230165 1_555
K25 O7 3.313199 1_555
K27 O7 2.912167 1_555
K27 O1 3.131747 1_555
K27 O8 3.176919 1_555
K30 O2 3.230165 1_555
K30 O3 3.313199 1_555
K31 O7 3.204948 1_455
K31 O8 3.270580 1_455
O0 Ti14 1.864405 1_555
O0 Ti12 1.870906 1_555
O1 Ti0 1.860511 1_555
O1 Ti2 1.878752 1_555
O2 Ti13 1.860511 1_555
O2 Ti15 1.878752 1_555
O3 Ti4 1.869689 1_555
O3 Ti13 1.873667 1_555
O4 Ti2 1.873233 1_555
O4 Ti6 1.876409 1_555
O5 Ti10 1.873233 1_555
O5 Ti12 1.876409 1_554
O6 Ti7 1.869689 1_555
O6 Ti9 1.873667 1_555
O7 Ti3 1.869689 1_555
O7 Ti0 1.873667 1_555
O8 Ti3 1.864405 1_555
O8 Ti11 1.870906 1_555
O9 Ti1 1.860511 1_555
O9 Ti5 1.878752 1_555
O10 Ti15 1.873233 1_555
O10 Ti11 1.876409 1_556
O11 Ti14 1.869689 1_555
O11 Ti1 1.873667 1_555
O12 Ti5 1.873233 1_555
O12 Ti8 1.876409 1_555
O13 Ti7 1.864405 1_555
O13 Ti8 1.870906 1_555
O14 Ti9 1.860511 1_555
O14 Ti10 1.878752 1_555
O15 Ti4 1.864405 1_555
O15 Ti6 1.870906 1_555
F0 Ti3 1.984175 1_555
F0 K22 2.748402 1_544
F0 K31 2.781041 1_555
F0 K17 2.911074 1_555
F0 K23 3.001652 1_555
F1 Ti14 2.017216 1_645
F1 K5 2.639790 1_545
F1 K2 2.749184 1_555
F1 K6 2.861611 1_655
F1 K15 2.998694 1_545
F2 Ti7 1.984175 1_655
F2 K4 2.748402 1_555
F2 K3 2.781041 1_555
F2 K10 2.911074 1_555
F2 K8 3.001652 1_655
F3 Ti14 1.916245 1_545
F3 K6 2.770922 1_555
F3 K22 2.838999 1_545
F3 K28 2.858140 1_555
F3 K15 3.169248 1_545
F4 Ti1 1.984769 1_555
F4 K0 2.783048 1_565
F4 K5 2.821495 1_555
F4 K12 2.851616 1_555
F4 K18 2.946287 1_555
F5 Ti5 1.986842 1_655
F5 K0 2.646340 1_565
F5 K18 2.681556 1_655
F5 K5 2.876825 1_555
F5 K10 2.913578 1_555
F6 Ti9 1.955266 1_555
F6 K26 2.716773 1_555
F6 K7 2.810615 1_555
F6 K16 2.910041 1_555
F6 K13 3.131214 1_555
F6 K3 3.147241 1_555
F7 Ti8 1.981852 1_555
F7 K4 2.652008 1_555
F7 K8 2.727108 1_555
F7 K3 2.892188 1_555
F7 K12 2.893270 1_555
F8 Ti3 2.017216 1_565
F8 K25 2.639790 1_565
F8 K16 2.749184 1_555
F8 K26 2.861611 1_555
F8 K31 2.998694 1_565
F9 Ti11 1.904228 1_555
F9 K13 2.717779 1_555
F9 K1 2.908378 1_554
F9 K27 2.945553 1_555
F9 K17 3.172872 1_555
F10 Ti14 1.959975 1_655
F10 K24 2.727879 1_555
F10 K20 2.804875 1_555
F10 K14 2.927757 1_655
F10 K15 3.085311 1_555
F10 K5 3.208493 1_555
F11 Ti8 1.904228 1_555
F11 K25 2.717779 1_565
F11 K18 2.908378 1_555
F11 K16 2.945553 1_555
F11 K10 3.172872 1_455
F12 Ti15 1.977611 1_555
F12 K30 2.667381 1_555
F12 K6 2.704619 1_555
F12 K28 2.768964 1_555
F12 K2 3.292348 1_555
F13 Ti10 1.975572 1_655
F13 K20 2.687287 1_554
F13 K7 2.782488 1_555
F13 K23 2.846797 1_565
F13 K22 3.151347 1_654
F14 Ti5 1.977611 1_655
F14 K5 2.667381 1_555
F14 K24 2.704619 1_555
F14 K12 2.768964 1_555
F14 K14 3.292348 1_655
F15 Ti0 1.955266 1_555
F15 K29 2.716773 1_655
F15 K11 2.810615 1_655
F15 K27 2.910041 1_555
F15 K25 3.131214 1_655
F15 K31 3.147241 1_655
F16 Ti4 2.017216 1_555
F16 K30 2.639790 1_555
F16 K14 2.749184 1_555
F16 K24 2.861611 1_555
F16 K21 2.998694 1_555
F17 Ti11 1.981852 1_555
F17 K22 2.652008 1_644
F17 K23 2.727108 1_555
F17 K31 2.892188 1_655
F17 K28 2.893270 1_654
F18 Ti2 1.900782 1_555
F18 K3 2.715988 1_555
F18 K27 2.928072 1_555
F18 K4 2.937619 1_555
F19 Ti12 1.981987 1_555
F19 K15 2.674339 1_555
F19 K24 2.747191 1_555
F19 K20 2.860233 1_555
F19 K14 3.135971 1_555
F20 Ti0 1.917367 1_565
F20 K26 2.765019 1_555
F20 K10 2.840237 1_555
F20 K0 2.864097 1_565
F20 K25 3.095156 1_565
F21 Ti8 1.977424 1_555
F21 K12 2.699716 1_555
F21 K10 2.803306 1_555
F21 K0 2.812989 1_565
F21 K18 3.128560 1_555
F22 Ti5 1.975572 1_655
F22 K10 2.687287 1_555
F22 K12 2.782488 1_555
F22 K4 2.846797 1_555
F22 K8 3.151347 1_655
F23 Ti6 1.977424 1_555
F23 K11 2.699716 1_655
F23 K19 2.803306 1_655
F23 K18 2.812989 1_645
F23 K0 3.128560 1_555
F24 Ti12 1.904228 1_555
F24 K30 2.717779 1_555
F24 K9 2.908378 1_556
F24 K14 2.945553 1_555
F24 K20 3.172872 1_455
F25 Ti2 1.986842 1_555
F25 K18 2.646340 1_545
F25 K0 2.681556 1_555
F25 K25 2.876825 1_555
F25 K19 2.913578 1_555
F26 Ti1 1.917367 1_545
F26 K6 2.765019 1_555
F26 K19 2.840237 1_555
F26 K18 2.864097 1_545
F26 K5 3.095156 1_445
F27 Ti12 1.981852 1_555
F27 K23 2.652008 1_566
F27 K22 2.727108 1_555
F27 K15 2.892188 1_555
F27 K7 2.893270 1_556
F28 Ti13 2.020550 1_555
F28 K21 2.634993 1_655
F28 K14 2.758960 1_655
F28 K24 2.889385 1_555
F28 K30 2.955160 1_655
F29 Ti6 1.981852 1_555
F29 K8 2.652008 1_655
F29 K4 2.727108 1_555
F29 K21 2.892188 1_655
F29 K11 2.893270 1_655
F30 Ti1 2.020550 1_545
F30 K15 2.634993 1_545
F30 K2 2.758960 1_555
F30 K6 2.889385 1_555
F30 K5 2.955160 1_545
F31 Ti11 1.981987 1_555
F31 K31 2.674339 1_655
F31 K29 2.747191 1_655
F31 K17 2.860233 1_655
F31 K27 3.135971 1_555
F32 Ti3 1.959975 1_555
F32 K29 2.727879 1_555
F32 K17 2.804875 1_555
F32 K27 2.927757 1_555
F32 K31 3.085311 1_555
F32 K25 3.208493 1_555
F33 Ti9 1.917367 1_555
F33 K29 2.765019 1_555
F33 K17 2.840237 1_555
F33 K9 2.864097 1_555
F33 K13 3.095156 1_455
F34 Ti8 1.981987 1_555
F34 K3 2.674339 1_555
F34 K26 2.747191 1_555
F34 K10 2.860233 1_555
F34 K16 3.135971 1_555
F35 Ti2 1.975572 1_555
F35 K19 2.687287 1_555
F35 K11 2.782488 1_555
F35 K8 2.846797 1_555
F35 K4 3.151347 1_555
F36 Ti4 1.916245 1_555
F36 K24 2.770922 1_555
F36 K4 2.838999 1_555
F36 K12 2.858140 1_555
F36 K21 3.169248 1_655
F37 Ti9 1.984769 1_555
F37 K1 2.783048 1_554
F37 K13 2.821495 1_555
F37 K7 2.851616 1_555
F37 K9 2.946287 1_555
F38 Ti3 1.916245 1_565
F38 K26 2.770922 1_555
F38 K23 2.838999 1_565
F38 K7 2.858140 1_555
F38 K31 3.169248 1_665
F39 Ti4 1.959975 1_555
F39 K6 2.727879 1_555
F39 K19 2.804875 1_555
F39 K2 2.927757 1_555
F39 K21 3.085311 1_555
F39 K30 3.208493 1_555
F40 Ti15 1.975572 1_555
F40 K17 2.687287 1_556
F40 K28 2.782488 1_555
F40 K22 2.846797 1_545
F40 K23 3.151347 1_556
F41 Ti7 1.959975 1_655
F41 K26 2.727879 1_555
F41 K10 2.804875 1_555
F41 K16 2.927757 1_655
F41 K3 3.085311 1_555
F41 K13 3.208493 1_555
F42 Ti6 1.981987 1_555
F42 K21 2.674339 1_655
F42 K6 2.747191 1_655
F42 K19 2.860233 1_655
F42 K2 3.135971 1_555
F43 Ti0 2.020550 1_565
F43 K31 2.634993 1_665
F43 K16 2.758960 1_655
F43 K26 2.889385 1_555
F43 K25 2.955160 1_665
F44 Ti9 2.020550 1_555
F44 K3 2.634993 1_555
F44 K27 2.758960 1_555
F44 K29 2.889385 1_555
F44 K13 2.955160 1_555
F45 Ti14 1.984175 1_655
F45 K23 2.748402 1_566
F45 K15 2.781041 1_555
F45 K20 2.911074 1_555
F45 K22 3.001652 1_655
F46 Ti12 1.977424 1_555
F46 K7 2.699716 1_556
F46 K20 2.803306 1_555
F46 K1 2.812989 1_555
F46 K9 3.128560 1_556
F47 Ti10 1.900782 1_555
F47 K31 2.715988 1_565
F47 K16 2.928072 1_555
F47 K22 2.937619 1_554
F48 Ti7 1.916245 1_555
F48 K29 2.770922 1_555
F48 K8 2.838999 1_555
F48 K11 2.858140 1_555
F48 K3 3.169248 1_555
F49 Ti10 1.977611 1_655
F49 K13 2.667381 1_555
F49 K26 2.704619 1_555
F49 K7 2.768964 1_555
F49 K16 3.292348 1_655
F50 Ti11 1.977424 1_555
F50 K28 2.699716 1_654
F50 K17 2.803306 1_655
F50 K9 2.812989 1_655
F50 K1 3.128560 1_554
F51 Ti15 1.900782 1_555
F51 K15 2.715988 1_545
F51 K2 2.928072 1_555
F51 K23 2.937619 1_556
F52 Ti13 1.955266 1_555
F52 K6 2.716773 1_655
F52 K28 2.810615 1_655
F52 K2 2.910041 1_555
F52 K30 3.131214 1_655
F52 K21 3.147241 1_655
F53 Ti2 1.977611 1_555
F53 K25 2.667381 1_555
F53 K29 2.704619 1_555
F53 K11 2.768964 1_555
F53 K27 3.292348 1_555
F54 Ti5 1.900782 1_555
F54 K21 2.715988 1_555
F54 K14 2.928072 1_555
F54 K8 2.937619 1_555
F55 Ti0 1.984769 1_555
F55 K18 2.783048 1_645
F55 K25 2.821495 1_655
F55 K11 2.851616 1_655
F55 K0 2.946287 1_555
F56 Ti13 1.917367 1_555
F56 K24 2.765019 1_555
F56 K20 2.840237 1_555
F56 K1 2.864097 1_555
F56 K30 3.095156 1_555
F57 Ti1 1.955266 1_555
F57 K24 2.716773 1_555
F57 K12 2.810615 1_555
F57 K14 2.910041 1_555
F57 K5 3.131214 1_555
F57 K15 3.147241 1_555
F58 Ti6 1.904228 1_555
F58 K5 2.717779 1_545
F58 K0 2.908378 1_555
F58 K2 2.945553 1_555
F58 K19 3.172872 1_555
F59 Ti4 1.984175 1_555
F59 K8 2.748402 1_555
F59 K21 2.781041 1_555
F59 K19 2.911074 1_555
F59 K4 3.001652 1_555
F60 Ti13 1.984769 1_555
F60 K9 2.783048 1_656
F60 K30 2.821495 1_655
F60 K28 2.851616 1_655
F60 K1 2.946287 1_555
F61 Ti7 2.017216 1_655
F61 K13 2.639790 1_555
F61 K27 2.749184 1_555
F61 K29 2.861611 1_655
F61 K3 2.998694 1_555
F62 Ti15 1.986842 1_555
F62 K9 2.646340 1_556
F62 K1 2.681556 1_555
F62 K30 2.876825 1_555
F62 K17 2.913578 1_556
F63 Ti10 1.986842 1_655
F63 K1 2.646340 1_554
F63 K9 2.681556 1_655
F63 K13 2.876825 1_555
F63 K20 2.913578 1_554
