# generated using pymatgen
data_YCo3H2
_symmetry_space_group_name_H-M   'P 1'
_cell_length_a   9.56467679
_cell_length_b   9.56467679
_cell_length_c   9.56467699
_cell_angle_alpha   29.93727203
_cell_angle_beta   29.93727203
_cell_angle_gamma   29.93727457
_symmetry_Int_Tables_number   1
_chemical_formula_structural   YCo3H2
_chemical_formula_sum   'Y3 Co9 H6'
_cell_volume   193.01375732
_cell_formula_units_Z   3
loop_
 _symmetry_equiv_pos_site_id
 _symmetry_equiv_pos_as_xyz
  1  'x, y, z'
loop_
 _atom_site_type_symbol
 _atom_site_label
 _atom_site_symmetry_multiplicity
 _atom_site_fract_x
 _atom_site_fract_y
 _atom_site_fract_z
 _atom_site_occupancy
  Y  Y0  1  0.12806600  0.12806600  0.12806600  1
  Y  Y1  1  0.00000000  0.00000000  0.00000000  1
  Y  Y2  1  0.87193400  0.87193400  0.87193400  1
  Co  Co0  1  0.57089700  0.07322200  0.57089700  1
  Co  Co1  1  0.42910300  0.42910300  0.92677800  1
  Co  Co2  1  0.92677800  0.42910300  0.42910300  1
  Co  Co3  1  0.57089700  0.57089700  0.07322200  1
  Co  Co4  1  0.66794500  0.66794500  0.66794500  1
  Co  Co5  1  0.42910300  0.92677800  0.42910300  1
  Co  Co6  1  0.07322200  0.57089700  0.57089700  1
  Co  Co7  1  0.50000000  0.50000000  0.50000000  1
  Co  Co8  1  0.33205500  0.33205500  0.33205500  1
  H  H0  1  0.63141000  0.14059700  0.63141000  1
  H  H1  1  0.63141000  0.63141000  0.14059700  1
  H  H2  1  0.14059700  0.63141000  0.63141000  1
  H  H3  1  0.36859000  0.85940300  0.36859000  1
  H  H4  1  0.85940300  0.36859000  0.36859000  1
  H  H5  1  0.36859000  0.36859000  0.85940300  1
loop_
_geom_bond_atom_site_label_1
_geom_bond_atom_site_label_2
_geom_bond_distance
_geom_bond_site_symmetry_2
Co0 H0 1.720094 1_555
Co0 Co4 2.402156 1_545
Co0 Co8 2.451003 1_555
Co0 Y1 3.155384 1_556
Co0 Y1 3.155384 1_655
Co1 H5 1.720094 1_555
Co1 Co8 2.402156 1_556
Co1 Co4 2.451003 1_555
Co1 Y1 3.155384 1_566
Co1 Y1 3.155384 1_656
Co2 H4 1.720094 1_555
Co2 Co8 2.402156 1_655
Co2 Co4 2.451003 1_555
Co2 Y1 3.155384 1_665
Co2 Y1 3.155384 1_656
Co3 H1 1.720094 1_555
Co3 Co4 2.402156 1_554
Co3 Co8 2.451003 1_555
Co3 Y1 3.155384 1_655
Co3 Y1 3.155384 1_565
Co4 Co6 2.402156 1_655
Co4 Co5 2.451003 1_555
Co4 Y1 2.852860 1_665
Co4 Y1 2.852860 1_566
Co4 Y1 2.852860 1_656
Co5 H3 1.720094 1_555
Co5 Co8 2.402156 1_565
Co5 Y1 3.155384 1_665
Co5 Y1 3.155384 1_566
Co6 H2 1.720094 1_555
Co6 Co8 2.451003 1_555
Co6 Y1 3.155384 1_556
Co6 Y1 3.155384 1_565
Co7 H1 1.654627 1_555
Co7 H5 1.654627 1_555
Co7 H0 1.654627 1_555
Co7 H4 1.654627 1_555
Co7 H3 1.654627 1_555
Co7 H2 1.654627 1_555
Co8 Y1 2.852860 1_556
Co8 Y1 2.852860 1_565
Co8 Y1 2.852860 1_655
H0 Y2 2.422672 1_545
H0 Y0 2.476824 1_556
H0 Y0 2.476824 1_655
H1 Y2 2.422672 1_554
H1 Y0 2.476824 1_655
H1 Y0 2.476824 1_565
H2 Y2 2.422672 1_455
H2 Y0 2.476824 1_556
H2 Y0 2.476824 1_565
H3 Y0 2.422672 1_565
H3 Y2 2.476824 1_554
H3 Y2 2.476824 1_455
H4 Y0 2.422672 1_655
H4 Y2 2.476824 1_554
H4 Y2 2.476824 1_545
H5 Y0 2.422672 1_556
H5 Y2 2.476824 1_455
H5 Y2 2.476824 1_545
