# generated using pymatgen
data_Cu8GeS6
_symmetry_space_group_name_H-M   'P 1'
_cell_length_a   6.96708600
_cell_length_b   7.03711400
_cell_length_c   9.81899500
_cell_angle_alpha   90.00000000
_cell_angle_beta   90.00000000
_cell_angle_gamma   90.00000000
_symmetry_Int_Tables_number   1
_chemical_formula_structural   Cu8GeS6
_chemical_formula_sum   'Cu16 Ge2 S12'
_cell_volume   481.40743886
_cell_formula_units_Z   2
loop_
 _symmetry_equiv_pos_site_id
 _symmetry_equiv_pos_as_xyz
  1  'x, y, z'
loop_
 _atom_site_type_symbol
 _atom_site_label
 _atom_site_symmetry_multiplicity
 _atom_site_fract_x
 _atom_site_fract_y
 _atom_site_fract_z
 _atom_site_occupancy
  Cu  Cu0  1  0.30096000  0.00000000  0.46125800  1
  Cu  Cu1  1  0.69904000  0.50000000  0.96125800  1
  Cu  Cu2  1  0.48078900  0.79794300  0.25688700  1
  Cu  Cu3  1  0.51921100  0.70205700  0.75688700  1
  Cu  Cu4  1  0.51921100  0.29794300  0.75688700  1
  Cu  Cu5  1  0.48078900  0.20205700  0.25688700  1
  Cu  Cu6  1  0.88159300  0.79276600  0.85822100  1
  Cu  Cu7  1  0.11840700  0.70723400  0.35822100  1
  Cu  Cu8  1  0.11840700  0.29276600  0.35822100  1
  Cu  Cu9  1  0.88159300  0.20723400  0.85822100  1
  Cu  Cu10  1  0.83420200  0.76772500  0.13650500  1
  Cu  Cu11  1  0.16579800  0.73227500  0.63650500  1
  Cu  Cu12  1  0.16579800  0.26772500  0.63650500  1
  Cu  Cu13  1  0.83420200  0.23227500  0.13650500  1
  Cu  Cu14  1  0.39048700  0.00000000  0.02811900  1
  Cu  Cu15  1  0.60951300  0.50000000  0.52811900  1
  Ge  Ge0  1  0.24874400  0.50000000  0.01015000  1
  Ge  Ge1  1  0.75125600  0.00000000  0.51015000  1
  S  S0  1  0.27728500  0.50000000  0.50636400  1
  S  S1  1  0.72271500  0.00000000  0.00636400  1
  S  S2  1  0.24253200  0.76218000  0.88710000  1
  S  S3  1  0.75746800  0.73782000  0.38710000  1
  S  S4  1  0.75746800  0.26218000  0.38710000  1
  S  S5  1  0.24253200  0.23782000  0.88710000  1
  S  S6  1  0.99021700  0.00000000  0.66211800  1
  S  S7  1  0.00978300  0.50000000  0.16211800  1
  S  S8  1  0.49508000  0.00000000  0.64426000  1
  S  S9  1  0.50492000  0.50000000  0.14426000  1
  S  S10  1  0.21770000  0.00000000  0.24230600  1
  S  S11  1  0.78230000  0.50000000  0.74230600  1
loop_
_geom_bond_atom_site_label_1
_geom_bond_atom_site_label_2
_geom_bond_distance
_geom_bond_site_symmetry_2
Cu0 S10 2.226772 1_555
Cu0 S8 2.248990 1_555
Cu1 S11 2.226772 1_555
Cu1 S9 2.248990 1_556
Cu2 S10 2.324231 1_565
Cu2 S3 2.351499 1_555
Cu2 S9 2.376389 1_555
Cu3 S11 2.324231 1_555
Cu3 S2 2.351499 1_555
Cu3 S8 2.376389 1_565
Cu4 S11 2.324231 1_555
Cu4 S5 2.351499 1_555
Cu4 S8 2.376389 1_555
Cu5 S10 2.324231 1_555
Cu5 S4 2.351499 1_555
Cu5 S9 2.376389 1_555
Cu6 S1 2.338353 1_566
Cu6 S11 2.453269 1_555
Cu6 S6 2.531233 1_565
Cu6 S2 2.539767 1_655
Cu7 S0 2.338353 1_555
Cu7 S10 2.453269 1_565
Cu7 S7 2.531233 1_555
Cu7 S3 2.539767 1_455
Cu8 S0 2.338353 1_555
Cu8 S10 2.453269 1_555
Cu8 S7 2.531233 1_555
Cu8 S4 2.539767 1_455
Cu9 S1 2.338353 1_556
Cu9 S11 2.453269 1_555
Cu9 S6 2.531233 1_555
Cu9 S5 2.539767 1_655
Cu10 S1 2.215395 1_565
Cu10 S7 2.260350 1_655
Cu10 S3 2.526778 1_555
Cu11 S0 2.215395 1_555
Cu11 S6 2.260350 1_465
Cu11 S2 2.526778 1_555
Cu12 S0 2.215395 1_555
Cu12 S6 2.260350 1_455
Cu12 S5 2.526778 1_555
Cu13 S1 2.215395 1_555
Cu13 S7 2.260350 1_655
Cu13 S4 2.526778 1_555
Cu14 S1 2.324497 1_555
Cu14 S2 2.404309 1_544
Cu14 S5 2.404309 1_554
Cu14 S10 2.423267 1_555
Cu15 S0 2.324497 1_555
Cu15 S3 2.404309 1_555
Cu15 S4 2.404309 1_555
Cu15 S11 2.423267 1_555
Ge0 S5 2.205828 1_554
Ge0 S2 2.205828 1_554
Ge0 S9 2.218004 1_555
Ge0 S7 2.235698 1_555
Ge1 S3 2.205828 1_545
Ge1 S4 2.205828 1_555
Ge1 S8 2.218004 1_555
Ge1 S6 2.235698 1_555
