# generated using pymatgen
data_BaLiAlF6
_symmetry_space_group_name_H-M   'P 1'
_cell_length_a   10.32096400
_cell_length_b   5.42481300
_cell_length_c   8.64929261
_cell_angle_alpha   89.65192237
_cell_angle_beta   90.00000000
_cell_angle_gamma   90.00000000
_symmetry_Int_Tables_number   1
_chemical_formula_structural   BaLiAlF6
_chemical_formula_sum   'Ba4 Li4 Al4 F24'
_cell_volume   484.25889951
_cell_formula_units_Z   4
loop_
 _symmetry_equiv_pos_site_id
 _symmetry_equiv_pos_as_xyz
  1  'x, y, z'
loop_
 _atom_site_type_symbol
 _atom_site_label
 _atom_site_symmetry_multiplicity
 _atom_site_fract_x
 _atom_site_fract_y
 _atom_site_fract_z
 _atom_site_occupancy
  Ba  Ba0  1  0.68686100  0.29703300  0.99554700  1
  Ba  Ba1  1  0.18686100  0.70296700  0.50445300  1
  Ba  Ba2  1  0.31313900  0.70296700  0.00445300  1
  Ba  Ba3  1  0.81313900  0.29703300  0.49554700  1
  Li  Li0  1  0.58583200  0.76113000  0.67509200  1
  Li  Li1  1  0.08583200  0.23887000  0.82490800  1
  Li  Li2  1  0.41416800  0.23887000  0.32490800  1
  Li  Li3  1  0.91416800  0.76113000  0.17509200  1
  Al  Al0  1  0.91152300  0.76189500  0.76866400  1
  Al  Al1  1  0.41152300  0.23810500  0.73133600  1
  Al  Al2  1  0.08847700  0.23810500  0.23133600  1
  Al  Al3  1  0.58847700  0.76189500  0.26866400  1
  F  F0  1  0.75103900  0.61183600  0.74038300  1
  F  F1  1  0.25103900  0.38816400  0.75961700  1
  F  F2  1  0.24896100  0.38816400  0.25961700  1
  F  F3  1  0.74896100  0.61183600  0.24038300  1
  F  F4  1  0.89768400  0.66915900  0.96799000  1
  F  F5  1  0.39768400  0.33084100  0.53201000  1
  F  F6  1  0.10231600  0.33084100  0.03201000  1
  F  F7  1  0.60231600  0.66915900  0.46799000  1
  F  F8  1  0.07562800  0.88993100  0.79321200  1
  F  F9  1  0.57562800  0.11006900  0.70678800  1
  F  F10  1  0.92437200  0.11006900  0.20678800  1
  F  F11  1  0.42437200  0.88993100  0.29321200  1
  F  F12  1  0.91069200  0.83009300  0.55930700  1
  F  F13  1  0.41069200  0.16990700  0.94069300  1
  F  F14  1  0.08930800  0.16990700  0.44069300  1
  F  F15  1  0.58930800  0.83009300  0.05930700  1
  F  F16  1  0.84179600  0.06171800  0.80248800  1
  F  F17  1  0.34179600  0.93828200  0.69751200  1
  F  F18  1  0.15820400  0.93828200  0.19751200  1
  F  F19  1  0.65820400  0.06171800  0.30248800  1
  F  F20  1  0.98974400  0.47119200  0.70930900  1
  F  F21  1  0.48974400  0.52880800  0.79069100  1
  F  F22  1  0.01025600  0.52880800  0.29069100  1
  F  F23  1  0.51025600  0.47119200  0.20930900  1
loop_
_geom_bond_atom_site_label_1
_geom_bond_atom_site_label_2
_geom_bond_distance
_geom_bond_site_symmetry_2
Ba0 F16 2.645906 1_555
Ba0 F23 2.766692 1_556
Ba0 F15 2.778001 1_546
Ba0 F3 2.802786 1_556
Ba0 F0 2.860096 1_555
Ba0 F9 2.935176 1_555
Ba0 F19 2.953631 1_556
Ba0 F13 2.971373 1_555
Ba0 F21 2.971910 1_555
Ba0 F4 2.976692 1_555
Ba0 F15 3.114395 1_556
Ba0 F10 3.217685 1_556
Ba1 F17 2.645906 1_555
Ba1 F22 2.766692 1_555
Ba1 F14 2.778001 1_565
Ba1 F2 2.802786 1_555
Ba1 F1 2.860096 1_555
Ba1 F8 2.935176 1_555
Ba1 F18 2.953631 1_555
Ba1 F12 2.971373 1_455
Ba1 F20 2.971910 1_455
Ba1 F5 2.976692 1_555
Ba1 F14 3.114395 1_555
Ba1 F11 3.217685 1_555
Ba2 F18 2.645906 1_555
Ba2 F21 2.766692 1_554
Ba2 F13 2.778001 1_564
Ba2 F1 2.802786 1_554
Ba2 F2 2.860096 1_555
Ba2 F11 2.935176 1_555
Ba2 F17 2.953631 1_554
Ba2 F15 2.971373 1_555
Ba2 F23 2.971910 1_555
Ba2 F6 2.976692 1_555
Ba2 F13 3.114395 1_554
Ba2 F8 3.217685 1_554
Ba3 F19 2.645906 1_555
Ba3 F20 2.766692 1_555
Ba3 F12 2.778001 1_545
Ba3 F0 2.802786 1_555
Ba3 F3 2.860096 1_555
Ba3 F10 2.935176 1_555
Ba3 F16 2.953631 1_555
Ba3 F14 2.971373 1_655
Ba3 F22 2.971910 1_655
Ba3 F7 2.976692 1_555
Ba3 F12 3.114395 1_555
Ba3 F9 3.217685 1_555
Al0 F4 1.798673 1_555
Al0 F16 1.804083 1_565
Al0 F8 1.843365 1_655
Al0 F12 1.846013 1_555
Al0 F20 1.847190 1_555
Al0 F0 1.862367 1_555
Al1 F5 1.798673 1_555
Al1 F17 1.804083 1_545
Al1 F9 1.843365 1_555
Al1 F13 1.846013 1_555
Al1 F21 1.847190 1_555
Al1 F1 1.862367 1_555
Al2 F6 1.798673 1_555
Al2 F18 1.804083 1_545
Al2 F10 1.843365 1_455
Al2 F14 1.846013 1_555
Al2 F22 1.847190 1_555
Al2 F2 1.862367 1_555
Al3 F7 1.798673 1_555
Al3 F19 1.804083 1_565
Al3 F11 1.843365 1_555
Al3 F15 1.846013 1_555
Al3 F23 1.847190 1_555
Al3 F3 1.862367 1_555
F0 Li0 1.968916 1_555
F1 Li1 1.968916 1_555
F2 Li2 1.968916 1_555
F3 Li3 1.968916 1_555
F4 Li3 1.870143 1_556
F5 Li2 1.870143 1_555
F6 Li1 1.870143 1_554
F7 Li0 1.870143 1_555
F8 Li1 1.917220 1_565
F9 Li0 1.917220 1_545
F10 Li3 1.917220 1_545
F11 Li2 1.917220 1_565
F20 Li1 1.885806 1_655
F21 Li0 1.885806 1_555
F22 Li3 1.885806 1_455
F23 Li2 1.885806 1_555
