# generated using pymatgen
data_Li2Cu5(Si2O7)2
_symmetry_space_group_name_H-M   'P 1'
_cell_length_a   5.54051869
_cell_length_b   7.54979509
_cell_length_c   7.87552556
_cell_angle_alpha   115.11470762
_cell_angle_beta   89.86214204
_cell_angle_gamma   106.75080990
_symmetry_Int_Tables_number   1
_chemical_formula_structural   Li2Cu5(Si2O7)2
_chemical_formula_sum   'Li2 Cu5 Si4 O14'
_cell_volume   282.88472906
_cell_formula_units_Z   1
loop_
 _symmetry_equiv_pos_site_id
 _symmetry_equiv_pos_as_xyz
  1  'x, y, z'
loop_
 _atom_site_type_symbol
 _atom_site_label
 _atom_site_symmetry_multiplicity
 _atom_site_fract_x
 _atom_site_fract_y
 _atom_site_fract_z
 _atom_site_occupancy
  Li  Li0  1  0.76241500  0.88763400  0.55127500  1
  Li  Li1  1  0.23757700  0.11237800  0.44872600  1
  Cu  Cu0  1  0.07939700  0.38800700  0.81460900  1
  Cu  Cu1  1  0.92067300  0.61213100  0.18547400  1
  Cu  Cu2  1  0.32943000  0.42821300  0.28556900  1
  Cu  Cu3  1  0.67053100  0.57177700  0.71438400  1
  Cu  Cu4  1  0.00003100  0.99981800  0.00001000  1
  Si  Si0  1  0.80196500  0.21405700  0.40332300  1
  Si  Si1  1  0.49479400  0.22839000  0.86024100  1
  Si  Si2  1  0.50520900  0.77162100  0.13975600  1
  Si  Si3  1  0.19804200  0.78594600  0.59667500  1
  O  O0  1  0.10121000  0.82514700  0.42297500  1
  O  O1  1  0.69648500  0.77396600  0.98003400  1
  O  O2  1  0.40943900  0.33743500  0.73522200  1
  O  O3  1  0.96823000  0.81215400  0.73418300  1
  O  O4  1  0.46138000  0.98508400  0.71572100  1
  O  O5  1  0.59054700  0.66256900  0.26476000  1
  O  O6  1  0.28974400  0.58586000  0.54374000  1
  O  O7  1  0.71024000  0.41414800  0.45623900  1
  O  O8  1  0.03178400  0.18782400  0.26580000  1
  O  O9  1  0.30347200  0.22600600  0.01995000  1
  O  O10  1  0.78976100  0.35033400  0.96067700  1
  O  O11  1  0.89878600  0.17488700  0.57705200  1
  O  O12  1  0.21024900  0.64970800  0.03934000  1
  O  O13  1  0.53861000  0.01490400  0.28426300  1
loop_
_geom_bond_atom_site_label_1
_geom_bond_atom_site_label_2
_geom_bond_distance
_geom_bond_site_symmetry_2
Li0 O11 1.999463 1_565
Li0 O5 2.169933 1_555
Li0 O3 2.186182 1_555
Li0 O0 2.205383 1_655
Li0 O4 2.211004 1_555
Li1 O0 1.999380 1_545
Li1 O2 2.169806 1_555
Li1 O8 2.186041 1_555
Li1 O11 2.205482 1_455
Li1 O13 2.211109 1_555
Cu0 O11 1.901602 1_455
Cu0 O12 1.942656 1_556
Cu0 O10 1.996288 1_455
Cu0 O2 2.018606 1_555
Cu1 O0 1.900992 1_655
Cu1 O10 1.943312 1_554
Cu1 O12 1.996252 1_655
Cu1 O5 2.018549 1_555
Cu2 O6 1.921835 1_555
Cu2 O9 1.972633 1_555
Cu2 O5 2.004979 1_555
Cu2 O8 2.018369 1_555
Cu2 O7 2.556068 1_555
Cu3 O7 1.921681 1_555
Cu3 O1 1.972774 1_555
Cu3 O2 2.004943 1_555
Cu3 O3 2.018404 1_555
Cu3 O6 2.555918 1_555
Cu4 O3 1.939409 1_454
Cu4 O8 1.939853 1_565
Cu4 O1 1.970092 1_454
Cu4 O9 1.971308 1_565
O0 Si3 1.638757 1_555
O1 Si2 1.645417 1_556
O2 Si1 1.669001 1_555
O3 Si3 1.670286 1_655
O4 Si1 1.653543 1_565
O4 Si3 1.677429 1_555
O5 Si2 1.668910 1_555
O6 Si3 1.618852 1_555
O7 Si0 1.618982 1_555
O8 Si0 1.670399 1_455
O9 Si1 1.645545 1_554
O10 Si1 1.632446 1_555
O11 Si0 1.638794 1_555
O12 Si2 1.632358 1_555
O13 Si2 1.653399 1_545
O13 Si0 1.677553 1_555
