# generated using pymatgen
data_Na6Mg(SO4)4
_symmetry_space_group_name_H-M   'P 1'
_cell_length_a   9.28911600
_cell_length_b   8.31165600
_cell_length_c   9.91585211
_cell_angle_alpha   66.42221772
_cell_angle_beta   90.00000000
_cell_angle_gamma   90.00000000
_symmetry_Int_Tables_number   1
_chemical_formula_structural   Na6Mg(SO4)4
_chemical_formula_sum   'Na12 Mg2 S8 O32'
_cell_volume   701.67005270
_cell_formula_units_Z   2
loop_
 _symmetry_equiv_pos_site_id
 _symmetry_equiv_pos_as_xyz
  1  'x, y, z'
loop_
 _atom_site_type_symbol
 _atom_site_label
 _atom_site_symmetry_multiplicity
 _atom_site_fract_x
 _atom_site_fract_y
 _atom_site_fract_z
 _atom_site_occupancy
  Na  Na0  1  0.13716200  0.68312900  0.88906100  1
  Na  Na1  1  0.15109500  0.90997400  0.44764500  1
  Na  Na2  1  0.34890500  0.40997400  0.44764500  1
  Na  Na3  1  0.84890500  0.09002600  0.55235500  1
  Na  Na4  1  0.01508500  0.53280400  0.31154200  1
  Na  Na5  1  0.36283800  0.18312900  0.88906100  1
  Na  Na6  1  0.86283800  0.31687100  0.11093900  1
  Na  Na7  1  0.98491500  0.46719600  0.68845800  1
  Na  Na8  1  0.63716200  0.81687100  0.11093900  1
  Na  Na9  1  0.48491500  0.03280400  0.31154200  1
  Na  Na10  1  0.51508500  0.96719600  0.68845800  1
  Na  Na11  1  0.65109500  0.59002600  0.55235500  1
  Mg  Mg0  1  0.00000000  0.00000000  0.00000000  1
  Mg  Mg1  1  0.50000000  0.50000000  0.00000000  1
  S  S0  1  0.69426500  0.22464300  0.86021400  1
  S  S1  1  0.80573500  0.72464300  0.86021400  1
  S  S2  1  0.35277700  0.65331400  0.66204500  1
  S  S3  1  0.30573500  0.77535700  0.13978600  1
  S  S4  1  0.85277700  0.84668600  0.33795500  1
  S  S5  1  0.19426500  0.27535700  0.13978600  1
  S  S6  1  0.64722300  0.34668600  0.33795500  1
  S  S7  1  0.14722300  0.15331400  0.66204500  1
  O  O0  1  0.10309300  0.31864200  0.53715100  1
  O  O1  1  0.74478400  0.82056200  0.71095000  1
  O  O2  1  0.39690700  0.81864200  0.53715100  1
  O  O3  1  0.60309300  0.18135800  0.46284900  1
  O  O4  1  0.58406200  0.50127800  0.35426400  1
  O  O5  1  0.75521600  0.32056200  0.71095000  1
  O  O6  1  0.40627000  0.66672700  0.80097600  1
  O  O7  1  0.89534200  0.84278400  0.90580300  1
  O  O8  1  0.10465800  0.15721600  0.09419700  1
  O  O9  1  0.60465800  0.34278400  0.90580300  1
  O  O10  1  0.39534200  0.65721600  0.09419700  1
  O  O11  1  0.89690700  0.68135800  0.46284900  1
  O  O12  1  0.59373000  0.33327300  0.19902400  1
  O  O13  1  0.25521600  0.17943800  0.28905000  1
  O  O14  1  0.81532600  0.15566500  0.96931000  1
  O  O15  1  0.41593800  0.49872200  0.64573600  1
  O  O16  1  0.08406200  0.99872200  0.64573600  1
  O  O17  1  0.09373000  0.16672700  0.80097600  1
  O  O18  1  0.89677600  0.57519200  0.86476200  1
  O  O19  1  0.30713300  0.14050000  0.66903000  1
  O  O20  1  0.60322400  0.07519200  0.86476200  1
  O  O21  1  0.19286700  0.64050000  0.66903000  1
  O  O22  1  0.91593800  0.00127800  0.35426400  1
  O  O23  1  0.24478400  0.67943800  0.28905000  1
  O  O24  1  0.90627000  0.83327300  0.19902400  1
  O  O25  1  0.10322400  0.42480800  0.13523800  1
  O  O26  1  0.69286700  0.85950000  0.33097000  1
  O  O27  1  0.18467400  0.84433500  0.03069000  1
  O  O28  1  0.31532600  0.34433500  0.03069000  1
  O  O29  1  0.39677600  0.92480800  0.13523800  1
  O  O30  1  0.68467400  0.65566500  0.96931000  1
  O  O31  1  0.80713300  0.35950000  0.33097000  1
loop_
_geom_bond_atom_site_label_1
_geom_bond_atom_site_label_2
_geom_bond_distance
_geom_bond_site_symmetry_2
Na0 O27 2.338308 1_556
Na0 O21 2.402489 1_555
Na0 O18 2.453977 1_455
Na0 O25 2.544647 1_556
Na0 O7 2.647745 1_455
Na0 O6 2.669385 1_555
Na0 O16 2.807553 1_555
Na1 O13 2.367930 1_565
Na1 O22 2.375449 1_465
Na1 O16 2.439097 1_555
Na1 O2 2.457396 1_555
Na1 O21 2.460238 1_555
Na2 O23 2.367930 1_555
Na2 O4 2.375449 1_555
Na2 O15 2.439097 1_555
Na2 O0 2.457396 1_555
Na2 O19 2.460238 1_555
Na3 O1 2.367930 1_545
Na3 O16 2.375449 1_645
Na3 O22 2.439097 1_555
Na3 O3 2.457396 1_555
Na3 O31 2.460238 1_555
Na4 O31 2.370954 1_455
Na4 O0 2.378205 1_555
Na4 O25 2.405752 1_555
Na4 O23 2.422885 1_555
Na4 O24 2.504883 1_455
Na4 O11 2.542175 1_455
Na5 O28 2.338308 1_556
Na5 O19 2.402489 1_555
Na5 O20 2.453977 1_555
Na5 O29 2.544647 1_546
Na5 O9 2.647745 1_555
Na5 O17 2.669385 1_555
Na5 O15 2.807553 1_555
Na6 O14 2.338308 1_554
Na6 O31 2.402489 1_555
Na6 O25 2.453977 1_655
Na6 O18 2.544647 1_554
Na6 O8 2.647745 1_655
Na6 O12 2.669385 1_555
Na6 O22 2.807553 1_555
Na7 O21 2.370954 1_655
Na7 O11 2.378205 1_555
Na7 O18 2.405752 1_555
Na7 O5 2.422885 1_555
Na7 O17 2.504883 1_655
Na7 O0 2.542175 1_655
Na8 O30 2.338308 1_554
Na8 O26 2.402489 1_555
Na8 O29 2.453977 1_555
Na8 O20 2.544647 1_564
Na8 O10 2.647745 1_555
Na8 O24 2.669385 1_555
Na8 O4 2.807553 1_555
Na9 O26 2.370954 1_545
Na9 O2 2.378205 1_545
Na9 O29 2.405752 1_545
Na9 O13 2.422885 1_555
Na9 O12 2.504883 1_555
Na9 O3 2.542175 1_555
Na10 O19 2.370954 1_565
Na10 O3 2.378205 1_565
Na10 O20 2.405752 1_565
Na10 O1 2.422885 1_555
Na10 O6 2.504883 1_555
Na10 O2 2.542175 1_555
Na11 O5 2.367930 1_555
Na11 O15 2.375449 1_555
Na11 O4 2.439097 1_555
Na11 O11 2.457396 1_555
Na11 O26 2.460238 1_555
Mg0 O24 2.094109 1_445
Mg0 O17 2.094109 1_554
Mg0 O27 2.096289 1_545
Mg0 O14 2.096289 1_454
Mg0 O8 2.121678 1_555
Mg0 O7 2.121678 1_444
Mg1 O12 2.094109 1_555
Mg1 O6 2.094109 1_554
Mg1 O30 2.096289 1_554
Mg1 O28 2.096289 1_555
Mg1 O10 2.121678 1_555
Mg1 O9 2.121678 1_554
O0 S7 1.492859 1_555
O1 S1 1.484191 1_555
O2 S2 1.492859 1_555
O3 S6 1.492859 1_555
O4 S6 1.479061 1_555
O5 S0 1.484191 1_555
O6 S2 1.509980 1_555
O7 S1 1.488799 1_555
O8 S5 1.488799 1_555
O9 S0 1.488799 1_555
O10 S3 1.488799 1_555
O11 S4 1.492859 1_555
O12 S6 1.509980 1_555
O13 S5 1.484191 1_555
O14 S0 1.505788 1_555
O15 S2 1.479061 1_555
O16 S7 1.479061 1_565
O17 S7 1.509980 1_555
O18 S1 1.488434 1_555
O19 S7 1.488865 1_555
O20 S0 1.488434 1_555
O21 S2 1.488865 1_555
O22 S4 1.479061 1_545
O23 S3 1.484191 1_555
O24 S4 1.509980 1_555
O25 S5 1.488434 1_555
O26 S4 1.488865 1_555
O27 S3 1.505788 1_555
O28 S5 1.505788 1_555
O29 S3 1.488434 1_555
O30 S1 1.505788 1_555
O31 S6 1.488865 1_555
