# generated using pymatgen
data_Co6Te5O16
_symmetry_space_group_name_H-M   'P 1'
_cell_length_a   10.42252300
_cell_length_b   11.24260600
_cell_length_c   13.03074300
_cell_angle_alpha   90.00000000
_cell_angle_beta   90.00000000
_cell_angle_gamma   90.00000000
_symmetry_Int_Tables_number   1
_chemical_formula_structural   Co6Te5O16
_chemical_formula_sum   'Co24 Te20 O64'
_cell_volume   1526.89450659
_cell_formula_units_Z   4
loop_
 _symmetry_equiv_pos_site_id
 _symmetry_equiv_pos_as_xyz
  1  'x, y, z'
loop_
 _atom_site_type_symbol
 _atom_site_label
 _atom_site_symmetry_multiplicity
 _atom_site_fract_x
 _atom_site_fract_y
 _atom_site_fract_z
 _atom_site_occupancy
  Co  Co0  1  0.93328700  0.24724200  0.00626700  1
  Co  Co1  1  0.43328700  0.75275800  0.99373300  1
  Co  Co2  1  0.40972400  0.24952700  0.77012300  1
  Co  Co3  1  0.57281700  0.98524900  0.89296300  1
  Co  Co4  1  0.09027600  0.24952700  0.77012300  1
  Co  Co5  1  0.59027600  0.25047300  0.27012300  1
  Co  Co6  1  0.07281700  0.01475100  0.10703700  1
  Co  Co7  1  0.40972400  0.74952700  0.72987700  1
  Co  Co8  1  0.43328700  0.25275800  0.50626700  1
  Co  Co9  1  0.09027600  0.74952700  0.72987700  1
  Co  Co10  1  0.93328700  0.74724200  0.49373300  1
  Co  Co11  1  0.07281700  0.51475100  0.39296300  1
  Co  Co12  1  0.56671300  0.74724200  0.49373300  1
  Co  Co13  1  0.06671300  0.25275800  0.50626700  1
  Co  Co14  1  0.92718300  0.48524900  0.60703700  1
  Co  Co15  1  0.42718300  0.01475100  0.10703700  1
  Co  Co16  1  0.06671300  0.75275800  0.99373300  1
  Co  Co17  1  0.90972400  0.75047300  0.22987700  1
  Co  Co18  1  0.57281700  0.48524900  0.60703700  1
  Co  Co19  1  0.56671300  0.24724200  0.00626700  1
  Co  Co20  1  0.59027600  0.75047300  0.22987700  1
  Co  Co21  1  0.90972400  0.25047300  0.27012300  1
  Co  Co22  1  0.42718300  0.51475100  0.39296300  1
  Co  Co23  1  0.92718300  0.98524900  0.89296300  1
  Te  Te0  1  0.75000000  0.22174000  0.50649400  1
  Te  Te1  1  0.75000000  0.53443900  0.36154900  1
  Te  Te2  1  0.03789000  0.99003200  0.36527400  1
  Te  Te3  1  0.25000000  0.77826000  0.49350600  1
  Te  Te4  1  0.53789000  0.00996800  0.63472600  1
  Te  Te5  1  0.46211000  0.99003200  0.36527400  1
  Te  Te6  1  0.03789000  0.49003200  0.13472600  1
  Te  Te7  1  0.53789000  0.50996800  0.86527400  1
  Te  Te8  1  0.25000000  0.80033900  0.18392800  1
  Te  Te9  1  0.75000000  0.03443900  0.13845100  1
  Te  Te10  1  0.25000000  0.27826000  0.00649400  1
  Te  Te11  1  0.25000000  0.30033900  0.31607200  1
  Te  Te12  1  0.75000000  0.69966100  0.68392800  1
  Te  Te13  1  0.96211000  0.50996800  0.86527400  1
  Te  Te14  1  0.25000000  0.46556100  0.63845100  1
  Te  Te15  1  0.25000000  0.96556100  0.86154900  1
  Te  Te16  1  0.96211000  0.00996800  0.63472600  1
  Te  Te17  1  0.75000000  0.72174000  0.99350600  1
  Te  Te18  1  0.75000000  0.19966100  0.81607200  1
  Te  Te19  1  0.46211000  0.49003200  0.13472600  1
  O  O0  1  0.05606500  0.32445000  0.34991500  1
  O  O1  1  0.88854900  0.06105500  0.04185700  1
  O  O2  1  0.61057800  0.81476000  0.94339200  1
  O  O3  1  0.44393500  0.32445000  0.34991500  1
  O  O4  1  0.48176500  0.92547600  0.75589300  1
  O  O5  1  0.11145100  0.43894500  0.54185700  1
  O  O6  1  0.38942200  0.68524000  0.44339200  1
  O  O7  1  0.04597300  0.89834900  0.54590500  1
  O  O8  1  0.75000000  0.77996500  0.55289100  1
  O  O9  1  0.94393500  0.67555000  0.65008500  1
  O  O10  1  0.88854900  0.56105500  0.45814300  1
  O  O11  1  0.41937200  0.63822400  0.85855800  1
  O  O12  1  0.44393500  0.82445000  0.15008500  1
  O  O13  1  0.51823500  0.07452400  0.24410700  1
  O  O14  1  0.88942200  0.81476000  0.94339200  1
  O  O15  1  0.38854900  0.43894500  0.54185700  1
  O  O16  1  0.25000000  0.97130000  0.16625900  1
  O  O17  1  0.75000000  0.28065200  0.36809200  1
  O  O18  1  0.55606500  0.17555000  0.84991500  1
  O  O19  1  0.75000000  0.69201500  0.31378100  1
  O  O20  1  0.45402700  0.39834900  0.95409500  1
  O  O21  1  0.98176500  0.57452400  0.25589300  1
  O  O22  1  0.38942200  0.18524000  0.05660800  1
  O  O23  1  0.61145100  0.06105500  0.04185700  1
  O  O24  1  0.58062800  0.86177600  0.35855800  1
  O  O25  1  0.04597300  0.39834900  0.95409500  1
  O  O26  1  0.25000000  0.30798500  0.68621900  1
  O  O27  1  0.25000000  0.80798500  0.81378100  1
  O  O28  1  0.25000000  0.22003500  0.44710900  1
  O  O29  1  0.25000000  0.21934800  0.86809200  1
  O  O30  1  0.11145100  0.93894500  0.95814300  1
  O  O31  1  0.38854900  0.93894500  0.95814300  1
  O  O32  1  0.75000000  0.78065200  0.13190800  1
  O  O33  1  0.95402700  0.10165100  0.45409500  1
  O  O34  1  0.54597300  0.60165100  0.04590500  1
  O  O35  1  0.91937200  0.36177600  0.14144200  1
  O  O36  1  0.01823500  0.92547600  0.75589300  1
  O  O37  1  0.41937200  0.13822400  0.64144200  1
  O  O38  1  0.61145100  0.56105500  0.45814300  1
  O  O39  1  0.75000000  0.19201500  0.18621900  1
  O  O40  1  0.05606500  0.82445000  0.15008500  1
  O  O41  1  0.55606500  0.67555000  0.65008500  1
  O  O42  1  0.08062800  0.13822400  0.64144200  1
  O  O43  1  0.98176500  0.07452400  0.24410700  1
  O  O44  1  0.45402700  0.89834900  0.54590500  1
  O  O45  1  0.61057800  0.31476000  0.55660800  1
  O  O46  1  0.75000000  0.02870000  0.83374100  1
  O  O47  1  0.25000000  0.47130000  0.33374100  1
  O  O48  1  0.25000000  0.72003500  0.05289100  1
  O  O49  1  0.88942200  0.31476000  0.55660800  1
  O  O50  1  0.75000000  0.52870000  0.66625900  1
  O  O51  1  0.75000000  0.27996500  0.94710900  1
  O  O52  1  0.11057800  0.18524000  0.05660800  1
  O  O53  1  0.08062800  0.63822400  0.85855800  1
  O  O54  1  0.01823500  0.42547600  0.74410700  1
  O  O55  1  0.54597300  0.10165100  0.45409500  1
  O  O56  1  0.11057800  0.68524000  0.44339200  1
  O  O57  1  0.48176500  0.42547600  0.74410700  1
  O  O58  1  0.25000000  0.71934800  0.63190800  1
  O  O59  1  0.91937200  0.86177600  0.35855800  1
  O  O60  1  0.94393500  0.17555000  0.84991500  1
  O  O61  1  0.51823500  0.57452400  0.25589300  1
  O  O62  1  0.58062800  0.36177600  0.14144200  1
  O  O63  1  0.95402700  0.60165100  0.04590500  1
loop_
_geom_bond_atom_site_label_1
_geom_bond_atom_site_label_2
_geom_bond_distance
_geom_bond_site_symmetry_2
Co0 O52 2.081020 1_655
Co0 O51 2.092578 1_554
Co0 O25 2.174308 1_654
Co0 O35 2.186719 1_555
Co0 O60 2.193830 1_554
Co0 O1 2.194105 1_555
Co1 O2 2.081020 1_555
Co1 O48 2.092578 1_556
Co1 O34 2.174308 1_556
Co1 O11 2.186719 1_555
Co1 O12 2.193830 1_556
Co1 O31 2.194105 1_555
Co2 O18 2.024638 1_555
Co2 O37 2.094670 1_555
Co2 O26 2.097291 1_555
Co2 O29 2.125127 1_555
Co2 O57 2.142821 1_555
Co3 O46 2.060205 1_565
Co3 O2 2.064123 1_555
Co3 O4 2.131294 1_555
Co3 O23 2.157048 1_566
Co3 O31 2.163527 1_555
Co3 O18 2.218675 1_565
Co4 O60 2.024638 1_455
Co4 O42 2.094670 1_555
Co4 O26 2.097291 1_555
Co4 O29 2.125127 1_555
Co4 O54 2.142821 1_555
Co5 O3 2.024638 1_555
Co5 O62 2.094670 1_555
Co5 O39 2.097291 1_555
Co5 O17 2.125127 1_555
Co5 O13 2.142821 1_555
Co6 O16 2.060205 1_545
Co6 O52 2.064123 1_555
Co6 O43 2.131294 1_455
Co6 O30 2.157048 1_544
Co6 O1 2.163527 1_455
Co6 O40 2.218675 1_545
Co7 O41 2.024638 1_555
Co7 O11 2.094670 1_555
Co7 O27 2.097291 1_555
Co7 O58 2.125127 1_555
Co7 O4 2.142821 1_555
Co8 O45 2.081020 1_555
Co8 O28 2.092578 1_555
Co8 O55 2.174308 1_555
Co8 O37 2.186719 1_555
Co8 O3 2.193830 1_555
Co8 O15 2.194105 1_555
Co9 O9 2.024638 1_455
Co9 O53 2.094670 1_555
Co9 O27 2.097291 1_555
Co9 O58 2.125127 1_555
Co9 O36 2.142821 1_555
Co10 O56 2.081020 1_655
Co10 O8 2.092578 1_555
Co10 O7 2.174308 1_655
Co10 O59 2.186719 1_555
Co10 O9 2.193830 1_555
Co10 O10 2.194105 1_555
Co11 O47 2.060205 1_555
Co11 O56 2.064123 1_555
Co11 O21 2.131294 1_455
Co11 O5 2.157048 1_555
Co11 O10 2.163527 1_455
Co11 O0 2.218675 1_555
Co12 O6 2.081020 1_555
Co12 O8 2.092578 1_555
Co12 O44 2.174308 1_555
Co12 O24 2.186719 1_555
Co12 O41 2.193830 1_555
Co12 O38 2.194105 1_555
Co13 O49 2.081020 1_455
Co13 O28 2.092578 1_555
Co13 O33 2.174308 1_455
Co13 O42 2.186719 1_555
Co13 O0 2.193830 1_555
Co13 O5 2.194105 1_555
Co14 O50 2.060205 1_555
Co14 O49 2.064123 1_555
Co14 O54 2.131294 1_655
Co14 O10 2.157048 1_555
Co14 O5 2.163527 1_655
Co14 O9 2.218675 1_555
Co15 O16 2.060205 1_545
Co15 O22 2.064123 1_555
Co15 O13 2.131294 1_555
Co15 O31 2.157048 1_544
Co15 O23 2.163527 1_555
Co15 O12 2.218675 1_545
Co16 O14 2.081020 1_455
Co16 O48 2.092578 1_556
Co16 O63 2.174308 1_456
Co16 O53 2.186719 1_555
Co16 O40 2.193830 1_556
Co16 O30 2.194105 1_555
Co17 O40 2.024638 1_655
Co17 O59 2.094670 1_555
Co17 O19 2.097291 1_555
Co17 O32 2.125127 1_555
Co17 O21 2.142821 1_555
Co18 O50 2.060205 1_555
Co18 O45 2.064123 1_555
Co18 O57 2.131294 1_555
Co18 O38 2.157048 1_555
Co18 O15 2.163527 1_555
Co18 O41 2.218675 1_555
Co19 O22 2.081020 1_555
Co19 O51 2.092578 1_554
Co19 O20 2.174308 1_554
Co19 O62 2.186719 1_555
Co19 O18 2.193830 1_554
Co19 O23 2.194105 1_555
Co20 O12 2.024638 1_555
Co20 O24 2.094670 1_555
Co20 O19 2.097291 1_555
Co20 O32 2.125127 1_555
Co20 O61 2.142821 1_555
Co21 O0 2.024638 1_655
Co21 O35 2.094670 1_555
Co21 O39 2.097291 1_555
Co21 O17 2.125127 1_555
Co21 O43 2.142821 1_555
Co22 O47 2.060205 1_555
Co22 O6 2.064123 1_555
Co22 O61 2.131294 1_555
Co22 O15 2.157048 1_555
Co22 O38 2.163527 1_555
Co22 O3 2.218675 1_555
Co23 O46 2.060205 1_565
Co23 O14 2.064123 1_555
Co23 O36 2.131294 1_655
Co23 O1 2.157048 1_566
Co23 O30 2.163527 1_655
Co23 O60 2.218675 1_565
O0 Te11 2.086524 1_555
O1 Te9 1.938832 1_555
O2 Te17 1.905700 1_555
O3 Te11 2.086524 1_555
O4 Te4 1.933242 1_565
O5 Te14 1.938832 1_555
O6 Te3 1.905700 1_555
O7 Te16 1.917894 1_465
O7 Te2 2.570938 1_555
O7 Te3 2.609774 1_555
O8 Te12 1.931498 1_555
O9 Te12 2.086524 1_555
O10 Te1 1.938832 1_555
O11 Te7 1.900706 1_555
O12 Te8 2.086524 1_555
O13 Te5 1.933242 1_545
O14 Te17 1.905700 1_555
O15 Te14 1.938832 1_555
O16 Te8 1.935788 1_555
O17 Te0 1.921254 1_555
O18 Te18 2.086524 1_555
O19 Te1 1.877735 1_555
O20 Te7 1.917894 1_555
O20 Te19 2.570938 1_556
O20 Te10 2.609774 1_556
O21 Te6 1.933242 1_655
O22 Te10 1.905700 1_555
O23 Te9 1.938832 1_555
O24 Te5 1.900706 1_555
O25 Te13 1.917894 1_455
O25 Te6 2.570938 1_556
O25 Te10 2.609774 1_556
O26 Te14 1.877735 1_555
O27 Te15 1.877735 1_555
O28 Te11 1.931498 1_555
O29 Te10 1.921254 1_556
O30 Te15 1.938832 1_555
O31 Te15 1.938832 1_555
O32 Te17 1.921254 1_554
O33 Te2 1.917894 1_645
O33 Te16 2.570938 1_555
O33 Te0 2.609774 1_555
O34 Te19 1.917894 1_555
O34 Te7 2.570938 1_554
O34 Te17 2.609774 1_554
O35 Te6 1.900706 1_655
O36 Te16 1.933242 1_465
O37 Te4 1.900706 1_555
O38 Te1 1.938832 1_555
O39 Te9 1.877735 1_555
O40 Te8 2.086524 1_555
O41 Te12 2.086524 1_555
O42 Te16 1.900706 1_455
O43 Te2 1.933242 1_645
O44 Te4 1.917894 1_565
O44 Te5 2.570938 1_555
O44 Te3 2.609774 1_555
O45 Te0 1.905700 1_555
O46 Te18 1.935788 1_555
O47 Te11 1.935788 1_555
O48 Te8 1.931498 1_555
O49 Te0 1.905700 1_555
O50 Te12 1.935788 1_555
O51 Te18 1.931498 1_555
O52 Te10 1.905700 1_555
O53 Te13 1.900706 1_455
O54 Te13 1.933242 1_455
O55 Te5 1.917894 1_545
O55 Te4 2.570938 1_555
O55 Te0 2.609774 1_555
O56 Te3 1.905700 1_555
O57 Te7 1.933242 1_555
O58 Te3 1.921254 1_555
O59 Te2 1.900706 1_655
O60 Te18 2.086524 1_555
O61 Te19 1.933242 1_555
O62 Te19 1.900706 1_555
O63 Te6 1.917894 1_655
O63 Te13 2.570938 1_554
O63 Te17 2.609774 1_554
