# generated using pymatgen
data_CsI4
_symmetry_space_group_name_H-M   'P 1'
_cell_length_a   9.05578607
_cell_length_b   10.36924598
_cell_length_c   11.44077590
_cell_angle_alpha   113.89511362
_cell_angle_beta   90.00000000
_cell_angle_gamma   90.00000000
_symmetry_Int_Tables_number   1
_chemical_formula_structural   CsI4
_chemical_formula_sum   'Cs4 I16'
_cell_volume   982.22745452
_cell_formula_units_Z   4
loop_
 _symmetry_equiv_pos_site_id
 _symmetry_equiv_pos_as_xyz
  1  'x, y, z'
loop_
 _atom_site_type_symbol
 _atom_site_label
 _atom_site_symmetry_multiplicity
 _atom_site_fract_x
 _atom_site_fract_y
 _atom_site_fract_z
 _atom_site_occupancy
  Cs  Cs0  1  0.87445139  0.27381618  0.19116168  1
  Cs  Cs1  1  0.37445139  0.72618382  0.30883832  1
  Cs  Cs2  1  0.62554861  0.27381618  0.69116168  1
  Cs  Cs3  1  0.12554861  0.72618382  0.80883832  1
  I  I0  1  0.97613743  0.67024877  0.45391960  1
  I  I1  1  0.35649815  0.45249286  0.50822754  1
  I  I2  1  0.20790667  0.12185139  0.60768641  1
  I  I3  1  0.47613743  0.32975123  0.04608040  1
  I  I4  1  0.89777779  0.05855197  0.82329405  1
  I  I5  1  0.10222221  0.94144803  0.17670595  1
  I  I6  1  0.02386257  0.32975123  0.54608040  1
  I  I7  1  0.29209333  0.12185139  0.10768641  1
  I  I8  1  0.39777779  0.94144803  0.67670595  1
  I  I9  1  0.85649815  0.54750714  0.99177246  1
  I  I10  1  0.52386257  0.67024877  0.95391960  1
  I  I11  1  0.64350185  0.54750714  0.49177246  1
  I  I12  1  0.14350185  0.45249286  0.00822754  1
  I  I13  1  0.70790667  0.87814861  0.89231359  1
  I  I14  1  0.79209333  0.87814861  0.39231359  1
  I  I15  1  0.60222221  0.05855197  0.32329405  1
loop_
_geom_bond_atom_site_label_1
_geom_bond_atom_site_label_2
_geom_bond_distance
_geom_bond_site_symmetry_2
Cs0 I4 3.889664 1_554
Cs0 I5 3.962047 1_645
Cs0 I15 4.009824 1_555
Cs0 I11 4.043416 1_555
Cs0 I7 4.059561 1_655
Cs0 I6 4.092332 1_655
Cs0 I0 4.095333 1_555
Cs0 I3 4.108794 1_555
Cs0 I12 4.109822 1_655
Cs0 I9 4.304520 1_554
Cs0 I13 4.408309 1_544
Cs1 I8 3.889664 1_555
Cs1 I15 3.962047 1_565
Cs1 I5 4.009824 1_555
Cs1 I12 4.043416 1_555
Cs1 I14 4.059561 1_555
Cs1 I10 4.092332 1_554
Cs1 I3 4.095333 1_555
Cs1 I0 4.108794 1_455
Cs1 I11 4.109822 1_555
Cs1 I1 4.304520 1_555
Cs1 I2 4.408309 1_565
Cs2 I15 3.889664 1_555
Cs2 I8 3.962047 1_545
Cs2 I4 4.009824 1_555
Cs2 I9 4.043416 1_555
Cs2 I2 4.059561 1_555
Cs2 I3 4.092332 1_556
Cs2 I10 4.095333 1_555
Cs2 I6 4.108794 1_655
Cs2 I1 4.109822 1_555
Cs2 I11 4.304520 1_555
Cs2 I14 4.408309 1_545
Cs3 I5 3.889664 1_556
Cs3 I4 3.962047 1_465
Cs3 I8 4.009824 1_555
Cs3 I1 4.043416 1_555
Cs3 I13 4.059561 1_455
Cs3 I0 4.092332 1_455
Cs3 I6 4.095333 1_555
Cs3 I10 4.108794 1_555
Cs3 I9 4.109822 1_455
Cs3 I12 4.304520 1_556
Cs3 I7 4.408309 1_566
I0 I14 3.025358 1_555
I0 I11 3.365672 1_555
I1 I11 2.812722 1_555
I1 I6 3.365672 1_555
I2 I8 2.876797 1_545
I2 I6 3.025358 1_555
I3 I7 3.025358 1_555
I5 I7 2.876797 1_565
I10 I13 3.025358 1_555
I10 I9 3.365672 1_555
I12 I9 2.812722 1_454
I12 I3 3.365672 1_555
I13 I4 2.876797 1_565
I14 I15 2.876797 1_565
