# generated using pymatgen
data_K6InTe4Cl
_symmetry_space_group_name_H-M   'P 1'
_cell_length_a   11.49038002
_cell_length_b   11.49038002
_cell_length_c   8.14190200
_cell_angle_alpha   90.00000000
_cell_angle_beta   90.00000000
_cell_angle_gamma   120.00000010
_symmetry_Int_Tables_number   1
_chemical_formula_structural   K6InTe4Cl
_chemical_formula_sum   'K12 In2 Te8 Cl2'
_cell_volume   930.94770659
_cell_formula_units_Z   2
loop_
 _symmetry_equiv_pos_site_id
 _symmetry_equiv_pos_as_xyz
  1  'x, y, z'
loop_
 _atom_site_type_symbol
 _atom_site_label
 _atom_site_symmetry_multiplicity
 _atom_site_fract_x
 _atom_site_fract_y
 _atom_site_fract_z
 _atom_site_occupancy
  K  K0  1  0.12435300  0.87564700  0.51806700  1
  K  K1  1  0.75129300  0.87564700  0.51806700  1
  K  K2  1  0.95776200  0.47888100  0.31908400  1
  K  K3  1  0.52111900  0.47888100  0.31908400  1
  K  K4  1  0.87564700  0.75129300  0.01806700  1
  K  K5  1  0.24870700  0.12435300  0.01806700  1
  K  K6  1  0.52111900  0.04223800  0.31908400  1
  K  K7  1  0.12435300  0.24870700  0.51806700  1
  K  K8  1  0.87564700  0.12435300  0.01806700  1
  K  K9  1  0.04223800  0.52111900  0.81908400  1
  K  K10  1  0.47888100  0.95776200  0.81908400  1
  K  K11  1  0.47888100  0.52111900  0.81908400  1
  In  In0  1  0.66666700  0.33333300  0.70532500  1
  In  In1  1  0.33333300  0.66666700  0.20532500  1
  Te  Te0  1  0.39707500  0.19853800  0.59792500  1
  Te  Te1  1  0.60292500  0.80146200  0.09792500  1
  Te  Te2  1  0.66666700  0.33333300  0.05323000  1
  Te  Te3  1  0.80146200  0.60292500  0.59792500  1
  Te  Te4  1  0.19853800  0.39707500  0.09792500  1
  Te  Te5  1  0.33333300  0.66666700  0.55323000  1
  Te  Te6  1  0.19853800  0.80146200  0.09792500  1
  Te  Te7  1  0.80146200  0.19853800  0.59792500  1
  Cl  Cl0  1  0.00000000  0.00000000  0.27681900  1
  Cl  Cl1  1  0.00000000  0.00000000  0.77681900  1
loop_
_geom_bond_atom_site_label_1
_geom_bond_atom_site_label_2
_geom_bond_distance
_geom_bond_site_symmetry_2
K0 Te3 3.518729 1_455
K0 Te0 3.518729 1_565
K0 Te6 3.725774 1_555
K1 Te7 3.518729 1_565
K1 Te3 3.518729 1_555
K1 Te1 3.725766 1_555
K2 Te7 3.601516 1_555
K2 Te3 3.601523 1_555
K2 Te2 3.616080 1_555
K2 Te6 3.792170 1_655
K2 Te4 3.792177 1_655
K3 Te3 3.601515 1_555
K3 Te0 3.601515 1_555
K3 Te2 3.616088 1_555
K3 Te1 3.792167 1_555
K3 Te4 3.792167 1_555
K4 Te6 3.518729 1_655
K4 Te1 3.518729 1_555
K4 Te3 3.725766 1_554
K5 Te6 3.518729 1_545
K5 Te4 3.518729 1_555
K5 Te0 3.725766 1_554
K6 Te7 3.601516 1_555
K6 Te0 3.601523 1_555
K6 Te2 3.616080 1_555
K6 Te6 3.792170 1_545
K6 Te1 3.792177 1_545
K7 Te7 3.518729 1_455
K7 Te0 3.518729 1_555
K7 Te4 3.725766 1_555
K8 Te1 3.518729 1_545
K8 Te4 3.518729 1_655
K8 Te7 3.725774 1_554
K9 Te6 3.601516 1_556
K9 Te4 3.601523 1_556
K9 Te5 3.616080 1_555
K9 Te7 3.792170 1_455
K9 Te3 3.792177 1_455
K10 Te6 3.601516 1_556
K10 Te1 3.601523 1_556
K10 Te5 3.616080 1_555
K10 Te7 3.792170 1_565
K10 Te0 3.792177 1_565
K11 Te4 3.601515 1_556
K11 Te1 3.601515 1_556
K11 Te5 3.616088 1_555
K11 Te3 3.792167 1_555
K11 Te0 3.792167 1_555
In0 Te7 2.821598 1_555
In0 Te0 2.821617 1_555
In0 Te3 2.821617 1_555
In0 Te2 2.832608 1_556
In0 K10 3.850354 1_545
In0 K9 3.850354 1_655
In0 K11 3.850364 1_555
In1 Te6 2.821598 1_555
In1 Te4 2.821617 1_555
In1 Te1 2.821617 1_555
In1 Te5 2.832608 1_555
In1 K6 3.850354 1_565
In1 K2 3.850354 1_455
In1 K3 3.850364 1_555
Cl0 K0 3.159605 1_545
Cl0 K1 3.159612 1_445
Cl0 K7 3.159612 1_555
Cl0 K8 3.250119 1_455
Cl0 K4 3.250127 1_445
Cl0 K5 3.250127 1_555
Cl1 K8 3.159605 1_456
Cl1 K4 3.159612 1_446
Cl1 K5 3.159612 1_556
Cl1 K0 3.250119 1_545
Cl1 K7 3.250127 1_555
Cl1 K1 3.250127 1_445
