# generated using pymatgen
data_LaBMoO6
_symmetry_space_group_name_H-M   'P 1'
_cell_length_a   4.19567100
_cell_length_b   10.42011300
_cell_length_c   24.02303940
_cell_angle_alpha   64.97672701
_cell_angle_beta   90.00000000
_cell_angle_gamma   90.00000000
_symmetry_Int_Tables_number   1
_chemical_formula_structural   LaBMoO6
_chemical_formula_sum   'La8 B8 Mo8 O48'
_cell_volume   951.68936573
_cell_formula_units_Z   8
loop_
 _symmetry_equiv_pos_site_id
 _symmetry_equiv_pos_as_xyz
  1  'x, y, z'
loop_
 _atom_site_type_symbol
 _atom_site_label
 _atom_site_symmetry_multiplicity
 _atom_site_fract_x
 _atom_site_fract_y
 _atom_site_fract_z
 _atom_site_occupancy
  La  La0  1  0.75604200  0.33401100  0.73466000  1
  La  La1  1  0.74395800  0.33401100  0.23466000  1
  La  La2  1  0.21221700  0.16673300  0.51580100  1
  La  La3  1  0.25604200  0.66598900  0.76534000  1
  La  La4  1  0.71221700  0.83326700  0.98419900  1
  La  La5  1  0.28778300  0.16673300  0.01580100  1
  La  La6  1  0.24395800  0.66598900  0.26534000  1
  La  La7  1  0.78778300  0.83326700  0.48419900  1
  B  B0  1  0.16601200  0.80691600  0.09536900  1
  B  B1  1  0.83398800  0.19308400  0.90463100  1
  B  B2  1  0.83374400  0.69496700  0.65388100  1
  B  B3  1  0.33374400  0.30503300  0.84611900  1
  B  B4  1  0.66601200  0.19308400  0.40463100  1
  B  B5  1  0.33398800  0.80691600  0.59536900  1
  B  B6  1  0.66625600  0.69496700  0.15388100  1
  B  B7  1  0.16625600  0.30503300  0.34611900  1
  Mo  Mo0  1  0.82430500  0.53419500  0.90976900  1
  Mo  Mo1  1  0.30094300  0.96479200  0.83976100  1
  Mo  Mo2  1  0.69905700  0.03520800  0.16023900  1
  Mo  Mo3  1  0.67569500  0.53419500  0.40976900  1
  Mo  Mo4  1  0.80094300  0.03520800  0.66023900  1
  Mo  Mo5  1  0.19905700  0.96479200  0.33976100  1
  Mo  Mo6  1  0.32430500  0.46580500  0.59023100  1
  Mo  Mo7  1  0.17569500  0.46580500  0.09023100  1
  O  O0  1  0.28320000  0.89603700  0.42345800  1
  O  O1  1  0.21680000  0.89603700  0.92345800  1
  O  O2  1  0.24705200  0.34936500  0.55483300  1
  O  O3  1  0.65807000  0.26812000  0.85096600  1
  O  O4  1  0.21568000  0.14969000  0.79146300  1
  O  O5  1  0.74705200  0.65063500  0.94516700  1
  O  O6  1  0.23908000  0.65072300  0.54159200  1
  O  O7  1  0.73517600  0.59034800  0.70660100  1
  O  O8  1  0.84193000  0.26812000  0.35096600  1
  O  O9  1  0.74207400  0.60265100  0.82608800  1
  O  O10  1  0.78432000  0.85031000  0.20853700  1
  O  O11  1  0.25213600  0.53252800  0.40221100  1
  O  O12  1  0.71568000  0.85031000  0.70853700  1
  O  O13  1  0.23517600  0.40965200  0.79339900  1
  O  O14  1  0.76975100  0.08869000  0.45688500  1
  O  O15  1  0.23024900  0.91131000  0.54311500  1
  O  O16  1  0.72330700  0.15213500  0.69551300  1
  O  O17  1  0.27669300  0.84786500  0.30448700  1
  O  O18  1  0.15807000  0.73188000  0.64903400  1
  O  O19  1  0.27602500  0.03439500  0.15239300  1
  O  O20  1  0.74786400  0.46747200  0.59778900  1
  O  O21  1  0.76482400  0.59034800  0.20660100  1
  O  O22  1  0.75213600  0.46747200  0.09778900  1
  O  O23  1  0.28432000  0.14969000  0.29146300  1
  O  O24  1  0.26482400  0.40965200  0.29339900  1
  O  O25  1  0.34193000  0.73188000  0.14903400  1
  O  O26  1  0.22330700  0.84786500  0.80448700  1
  O  O27  1  0.65813600  0.77028500  0.60030800  1
  O  O28  1  0.73908000  0.34927700  0.95840800  1
  O  O29  1  0.24786400  0.53252800  0.90221100  1
  O  O30  1  0.15813600  0.22971500  0.89969200  1
  O  O31  1  0.25294800  0.34936500  0.05483300  1
  O  O32  1  0.76092000  0.34927700  0.45840800  1
  O  O33  1  0.22397500  0.03439500  0.65239300  1
  O  O34  1  0.72397500  0.96560500  0.84760700  1
  O  O35  1  0.34186400  0.22971500  0.39969200  1
  O  O36  1  0.26092000  0.65072300  0.04159200  1
  O  O37  1  0.78320000  0.10396300  0.07654200  1
  O  O38  1  0.77602500  0.96560500  0.34760700  1
  O  O39  1  0.73024900  0.08869000  0.95688500  1
  O  O40  1  0.75294800  0.65063500  0.44516700  1
  O  O41  1  0.77669300  0.15213500  0.19551300  1
  O  O42  1  0.75792600  0.60265100  0.32608800  1
  O  O43  1  0.26975100  0.91131000  0.04311500  1
  O  O44  1  0.24207400  0.39734900  0.67391200  1
  O  O45  1  0.84186400  0.77028500  0.10030800  1
  O  O46  1  0.71680000  0.10396300  0.57654200  1
  O  O47  1  0.25792600  0.39734900  0.17391200  1
loop_
_geom_bond_atom_site_label_1
_geom_bond_atom_site_label_2
_geom_bond_distance
_geom_bond_site_symmetry_2
La0 O44 2.430833 1_655
La0 O16 2.450039 1_555
La0 O7 2.464437 1_555
La0 O44 2.529965 1_555
La0 O3 2.612292 1_555
La0 O4 2.655719 1_655
La0 O13 2.755824 1_655
La0 O13 2.886036 1_555
La0 O4 2.910993 1_555
La0 O20 2.979625 1_555
La1 O47 2.430833 1_555
La1 O41 2.450039 1_555
La1 O21 2.464437 1_555
La1 O47 2.529965 1_655
La1 O8 2.612292 1_555
La1 O23 2.655719 1_555
La1 O24 2.755824 1_555
La1 O24 2.886036 1_655
La1 O23 2.910993 1_655
La1 O22 2.979625 1_555
La2 O2 2.455960 1_555
La2 O15 2.458178 1_545
La2 O46 2.463783 1_455
La2 O46 2.496314 1_555
La2 O32 2.624072 1_455
La2 O35 2.637828 1_555
La2 O14 2.661689 1_455
La2 O32 2.932654 1_555
La2 O33 2.973777 1_555
La2 O14 3.018311 1_555
La3 O9 2.430833 1_555
La3 O26 2.450039 1_555
La3 O13 2.464437 1_555
La3 O9 2.529965 1_455
La3 O18 2.612292 1_555
La3 O12 2.655719 1_555
La3 O7 2.755824 1_555
La3 O7 2.886036 1_455
La3 O12 2.910993 1_455
La3 O29 2.979625 1_555
La4 O5 2.455960 1_555
La4 O39 2.458178 1_565
La4 O1 2.463783 1_555
La4 O1 2.496314 1_655
La4 O36 2.624072 1_556
La4 O45 2.637828 1_556
La4 O43 2.661689 1_556
La4 O36 2.932654 1_656
La4 O34 2.973777 1_555
La4 O43 3.018311 1_656
La5 O31 2.455960 1_555
La5 O43 2.458178 1_545
La5 O37 2.463783 1_555
La5 O37 2.496314 1_455
La5 O28 2.624072 1_554
La5 O30 2.637828 1_554
La5 O39 2.661689 1_554
La5 O28 2.932654 1_454
La5 O19 2.973777 1_555
La5 O39 3.018311 1_454
La6 O42 2.430833 1_455
La6 O17 2.450039 1_555
La6 O24 2.464437 1_555
La6 O42 2.529965 1_555
La6 O25 2.612292 1_555
La6 O10 2.655719 1_455
La6 O21 2.755824 1_455
La6 O21 2.886036 1_555
La6 O10 2.910993 1_555
La6 O11 2.979625 1_555
La7 O40 2.455960 1_555
La7 O14 2.458178 1_565
La7 O0 2.463783 1_655
La7 O0 2.496314 1_555
La7 O6 2.624072 1_655
La7 O27 2.637828 1_555
La7 O15 2.661689 1_655
La7 O6 2.932654 1_555
La7 O38 2.973777 1_555
La7 O15 3.018311 1_555
B0 O43 1.339157 1_555
B0 O25 1.401931 1_555
B0 O45 1.403962 1_455
B1 O39 1.339157 1_555
B1 O3 1.401931 1_555
B1 O30 1.403962 1_655
B2 O7 1.339944 1_555
B2 O27 1.400237 1_555
B2 O18 1.405453 1_655
B3 O13 1.339944 1_555
B3 O30 1.400237 1_555
B3 O3 1.405453 1_555
B4 O14 1.339157 1_555
B4 O8 1.401931 1_555
B4 O35 1.403962 1_555
B5 O15 1.339157 1_555
B5 O18 1.401931 1_555
B5 O27 1.403962 1_555
B6 O21 1.339944 1_555
B6 O45 1.400237 1_555
B6 O25 1.405453 1_555
B7 O24 1.339944 1_555
B7 O35 1.400237 1_555
B7 O8 1.405453 1_455
Mo0 O5 1.781340 1_555
Mo0 O29 1.787196 1_655
Mo0 O28 1.816946 1_555
Mo0 O9 1.859020 1_555
Mo0 O29 2.425975 1_555
Mo1 O26 1.783838 1_555
Mo1 O34 1.785282 1_555
Mo1 O4 1.815237 1_565
Mo1 O1 1.860652 1_555
Mo1 O34 2.428388 1_455
Mo2 O41 1.783838 1_555
Mo2 O19 1.785282 1_555
Mo2 O10 1.815237 1_545
Mo2 O37 1.860652 1_555
Mo2 O19 2.428388 1_655
Mo3 O40 1.781340 1_555
Mo3 O11 1.787196 1_555
Mo3 O32 1.816946 1_555
Mo3 O42 1.859020 1_555
Mo3 O11 2.425975 1_655
Mo4 O16 1.783838 1_555
Mo4 O33 1.785282 1_655
Mo4 O12 1.815237 1_545
Mo4 O46 1.860652 1_555
Mo4 O33 2.428388 1_555
Mo5 O17 1.783838 1_555
Mo5 O38 1.785282 1_455
Mo5 O23 1.815237 1_565
Mo5 O0 1.860652 1_555
Mo5 O38 2.428388 1_555
Mo6 O2 1.781340 1_555
Mo6 O20 1.787196 1_555
Mo6 O6 1.816946 1_555
Mo6 O44 1.859020 1_555
Mo6 O20 2.425975 1_455
Mo7 O31 1.781340 1_555
Mo7 O22 1.787196 1_455
Mo7 O36 1.816946 1_555
Mo7 O47 1.859020 1_555
Mo7 O22 2.425975 1_555
