# generated using pymatgen
data_InHO2
_symmetry_space_group_name_H-M   'P 1'
_cell_length_a   3.29849903
_cell_length_b   4.59051876
_cell_length_c   5.30212675
_cell_angle_alpha   90.00000000
_cell_angle_beta   90.00000000
_cell_angle_gamma   90.00000000
_symmetry_Int_Tables_number   1
_chemical_formula_structural   InHO2
_chemical_formula_sum   'In2 H2 O4'
_cell_volume   80.28385776
_cell_formula_units_Z   2
loop_
 _symmetry_equiv_pos_site_id
 _symmetry_equiv_pos_as_xyz
  1  'x, y, z'
loop_
 _atom_site_type_symbol
 _atom_site_label
 _atom_site_symmetry_multiplicity
 _atom_site_fract_x
 _atom_site_fract_y
 _atom_site_fract_z
 _atom_site_occupancy
  In  In0  1  -0.00000000  0.72794198  0.00035101  1
  In  In1  1  0.50000000  0.27205802  0.50035101  1
  H  H0  1  -0.00000000  0.80109702  0.47910534  1
  H  H1  1  0.50000000  0.19890298  0.97910534  1
  O  O0  1  -0.00000000  0.52282087  0.63851242  1
  O  O1  1  0.50000000  0.47717913  0.13851242  1
  O  O2  1  -0.00000000  0.98157807  0.36403123  1
  O  O3  1  0.50000000  0.01842193  0.86403123  1
loop_
_geom_bond_atom_site_label_1
_geom_bond_atom_site_label_2
_geom_bond_distance
_geom_bond_site_symmetry_2
In0 O0 2.137131 1_554
In0 O1 2.140504 1_555
In0 O1 2.140504 1_455
In0 O3 2.240656 1_464
In0 O3 2.240656 1_564
In0 O2 2.252532 1_555
In1 O1 2.137131 1_555
In1 O0 2.140504 1_655
In1 O0 2.140504 1_555
In1 O2 2.240656 1_645
In1 O2 2.240656 1_545
In1 O3 2.252532 1_555
H0 O2 1.028923 1_555
H0 O0 1.531728 1_555
H1 O3 1.028923 1_555
H1 O1 1.531728 1_556
