# generated using pymatgen
data_BaV2CuO7
_symmetry_space_group_name_H-M   'P 1'
_cell_length_a   5.58664400
_cell_length_b   7.59745400
_cell_length_c   15.35348800
_cell_angle_alpha   90.00000000
_cell_angle_beta   90.00000000
_cell_angle_gamma   90.00000000
_symmetry_Int_Tables_number   1
_chemical_formula_structural   BaV2CuO7
_chemical_formula_sum   'Ba4 V8 Cu4 O28'
_cell_volume   651.66760246
_cell_formula_units_Z   4
loop_
 _symmetry_equiv_pos_site_id
 _symmetry_equiv_pos_as_xyz
  1  'x, y, z'
loop_
 _atom_site_type_symbol
 _atom_site_label
 _atom_site_symmetry_multiplicity
 _atom_site_fract_x
 _atom_site_fract_y
 _atom_site_fract_z
 _atom_site_occupancy
  Ba  Ba0  1  0.25000000  0.88367800  0.29979700  1
  Ba  Ba1  1  0.75000000  0.11632200  0.70020300  1
  Ba  Ba2  1  0.75000000  0.38367800  0.20020300  1
  Ba  Ba3  1  0.25000000  0.61632200  0.79979700  1
  V  V0  1  0.25000000  0.88646900  0.59076100  1
  V  V1  1  0.75000000  0.11353100  0.40923900  1
  V  V2  1  0.75000000  0.38646900  0.90923900  1
  V  V3  1  0.25000000  0.61353100  0.09076100  1
  V  V4  1  0.25000000  0.14295900  0.10674900  1
  V  V5  1  0.75000000  0.85704100  0.89325100  1
  V  V6  1  0.75000000  0.64295900  0.39325100  1
  V  V7  1  0.25000000  0.35704100  0.60674900  1
  Cu  Cu0  1  0.25000000  0.38562400  0.36801400  1
  Cu  Cu1  1  0.75000000  0.61437600  0.63198600  1
  Cu  Cu2  1  0.75000000  0.88562400  0.13198600  1
  Cu  Cu3  1  0.25000000  0.11437600  0.86801400  1
  O  O0  1  0.25000000  0.41758700  0.50365600  1
  O  O1  1  0.75000000  0.58241300  0.49634400  1
  O  O2  1  0.75000000  0.91758700  0.99634400  1
  O  O3  1  0.25000000  0.08241300  0.00365600  1
  O  O4  1  0.25000000  0.11860300  0.62738200  1
  O  O5  1  0.75000000  0.88139700  0.37261800  1
  O  O6  1  0.75000000  0.61860300  0.87261800  1
  O  O7  1  0.25000000  0.38139700  0.12738200  1
  O  O8  1  0.25000000  0.86275200  0.48267300  1
  O  O9  1  0.75000000  0.13724800  0.51732700  1
  O  O10  1  0.75000000  0.36275200  0.01732700  1
  O  O11  1  0.25000000  0.63724800  0.98267300  1
  O  O12  1  0.50152900  0.79718800  0.64229700  1
  O  O13  1  0.00152900  0.20281200  0.35770300  1
  O  O14  1  0.49847100  0.29718800  0.85770300  1
  O  O15  1  0.99847100  0.70281200  0.14229700  1
  O  O16  1  0.49847100  0.20281200  0.35770300  1
  O  O17  1  0.99847100  0.79718800  0.64229700  1
  O  O18  1  0.50152900  0.70281200  0.14229700  1
  O  O19  1  0.00152900  0.29718800  0.85770300  1
  O  O20  1  0.49831100  0.56183200  0.33703400  1
  O  O21  1  0.99831100  0.43816800  0.66296600  1
  O  O22  1  0.50168900  0.06183200  0.16296600  1
  O  O23  1  0.00168900  0.93816800  0.83703400  1
  O  O24  1  0.50168900  0.43816800  0.66296600  1
  O  O25  1  0.00168900  0.56183200  0.33703400  1
  O  O26  1  0.49831100  0.93816800  0.83703400  1
  O  O27  1  0.99831100  0.06183200  0.16296600  1
loop_
_geom_bond_atom_site_label_1
_geom_bond_atom_site_label_2
_geom_bond_distance
_geom_bond_site_symmetry_2
Ba0 O8 2.812282 1_555
Ba0 O27 2.867510 1_465
Ba0 O22 2.867510 1_565
Ba0 O25 2.868851 1_555
Ba0 O20 2.868851 1_555
Ba0 O16 2.931896 1_565
Ba0 O13 2.931896 1_565
Ba0 O5 3.008820 1_455
Ba0 O5 3.008820 1_555
Ba0 O15 3.116147 1_455
Ba0 O18 3.116147 1_555
Ba1 O9 2.812282 1_555
Ba1 O23 2.867510 1_645
Ba1 O26 2.867510 1_545
Ba1 O21 2.868851 1_555
Ba1 O24 2.868851 1_555
Ba1 O17 2.931896 1_545
Ba1 O12 2.931896 1_545
Ba1 O4 3.008820 1_555
Ba1 O4 3.008820 1_655
Ba1 O19 3.116147 1_655
Ba1 O14 3.116147 1_555
Ba2 O10 2.812282 1_555
Ba2 O20 2.867510 1_555
Ba2 O25 2.867510 1_655
Ba2 O22 2.868851 1_555
Ba2 O27 2.868851 1_555
Ba2 O18 2.931896 1_555
Ba2 O15 2.931896 1_555
Ba2 O7 3.008820 1_655
Ba2 O7 3.008820 1_555
Ba2 O13 3.116147 1_655
Ba2 O16 3.116147 1_555
Ba3 O11 2.812282 1_555
Ba3 O21 2.867510 1_455
Ba3 O24 2.867510 1_555
Ba3 O26 2.868851 1_555
Ba3 O23 2.868851 1_555
Ba3 O14 2.931896 1_555
Ba3 O19 2.931896 1_555
Ba3 O6 3.008820 1_455
Ba3 O6 3.008820 1_555
Ba3 O12 3.116147 1_555
Ba3 O17 3.116147 1_455
Cu0 O13 1.970024 1_555
Cu0 O16 1.970024 1_555
Cu0 O25 1.985659 1_555
Cu0 O20 1.985659 1_555
Cu0 O0 2.096688 1_555
Cu1 O12 1.970024 1_555
Cu1 O17 1.970024 1_555
Cu1 O21 1.985659 1_555
Cu1 O24 1.985659 1_555
Cu1 O1 2.096688 1_555
Cu2 O15 1.970024 1_555
Cu2 O18 1.970024 1_555
Cu2 O27 1.985659 1_565
Cu2 O22 1.985659 1_565
Cu2 O2 2.096688 1_554
Cu3 O14 1.970024 1_555
Cu3 O19 1.970024 1_555
Cu3 O26 1.985659 1_545
Cu3 O23 1.985659 1_545
Cu3 O3 2.096688 1_556
O0 V7 1.648323 1_555
O1 V6 1.648323 1_555
O2 V5 1.648323 1_555
O3 V4 1.648323 1_555
O4 V7 1.839012 1_555
O4 V0 1.851086 1_545
O5 V6 1.839012 1_555
O5 V1 1.851086 1_565
O6 V5 1.839012 1_555
O6 V2 1.851086 1_555
O7 V4 1.839012 1_555
O7 V3 1.851086 1_555
O8 V0 1.669281 1_555
O9 V1 1.669281 1_555
O10 V2 1.669281 1_554
O11 V3 1.669281 1_556
O12 V0 1.749510 1_555
O13 V1 1.749510 1_455
O14 V2 1.749510 1_555
O15 V3 1.749510 1_655
O16 V1 1.749510 1_555
O17 V0 1.749510 1_655
O18 V3 1.749510 1_555
O19 V2 1.749510 1_455
O20 V6 1.761248 1_555
O21 V7 1.761248 1_655
O22 V4 1.761248 1_555
O23 V5 1.761248 1_455
O24 V7 1.761248 1_555
O25 V6 1.761248 1_455
O26 V5 1.761248 1_555
O27 V4 1.761248 1_655
