# generated using pymatgen
data_Rb4LiZr3H2F19
_symmetry_space_group_name_H-M   'P 1'
_cell_length_a   13.38377300
_cell_length_b   11.60817800
_cell_length_c   12.81725744
_cell_angle_alpha   69.38077233
_cell_angle_beta   90.00000000
_cell_angle_gamma   90.00000000
_symmetry_Int_Tables_number   1
_chemical_formula_structural   Rb4LiZr3H2F19
_chemical_formula_sum   'Rb16 Li4 Zr12 H8 F76'
_cell_volume   1863.74456964
_cell_formula_units_Z   4
loop_
 _symmetry_equiv_pos_site_id
 _symmetry_equiv_pos_as_xyz
  1  'x, y, z'
loop_
 _atom_site_type_symbol
 _atom_site_label
 _atom_site_symmetry_multiplicity
 _atom_site_fract_x
 _atom_site_fract_y
 _atom_site_fract_z
 _atom_site_occupancy
  Rb  Rb0  1  0.61398000  0.65051900  0.07766000  1
  Rb  Rb1  1  0.12026900  0.46309900  0.41590400  1
  Rb  Rb2  1  0.62026900  0.03690100  0.08409600  1
  Rb  Rb3  1  0.13309400  0.65586600  0.07222900  1
  Rb  Rb4  1  0.38602000  0.34948100  0.92234000  1
  Rb  Rb5  1  0.86690600  0.34413400  0.92777100  1
  Rb  Rb6  1  0.87014000  0.96741900  0.92701000  1
  Rb  Rb7  1  0.87973100  0.53690100  0.58409600  1
  Rb  Rb8  1  0.11398000  0.84948100  0.42234000  1
  Rb  Rb9  1  0.88602000  0.15051900  0.57766000  1
  Rb  Rb10  1  0.37014000  0.53258100  0.57299000  1
  Rb  Rb11  1  0.12986000  0.03258100  0.07299000  1
  Rb  Rb12  1  0.62986000  0.46741900  0.42701000  1
  Rb  Rb13  1  0.63309400  0.84413400  0.42777100  1
  Rb  Rb14  1  0.36690600  0.15586600  0.57222900  1
  Rb  Rb15  1  0.37973100  0.96309900  0.91590400  1
  Li  Li0  1  0.87832900  0.75099000  0.75408200  1
  Li  Li1  1  0.12167100  0.24901000  0.24591800  1
  Li  Li2  1  0.62167100  0.25099000  0.25408200  1
  Li  Li3  1  0.37832900  0.74901000  0.74591800  1
  Zr  Zr0  1  0.12650300  0.58527100  0.76065100  1
  Zr  Zr1  1  0.62580000  0.22702100  0.74950200  1
  Zr  Zr2  1  0.62632800  0.58857200  0.76293900  1
  Zr  Zr3  1  0.37420000  0.77297900  0.25049800  1
  Zr  Zr4  1  0.37349700  0.08527100  0.26065100  1
  Zr  Zr5  1  0.87420000  0.72702100  0.24950200  1
  Zr  Zr6  1  0.87349700  0.41472900  0.23934900  1
  Zr  Zr7  1  0.12580000  0.27297900  0.75049800  1
  Zr  Zr8  1  0.62650300  0.91472900  0.73934900  1
  Zr  Zr9  1  0.87367200  0.08857200  0.26293900  1
  Zr  Zr10  1  0.12632800  0.91142800  0.73706100  1
  Zr  Zr11  1  0.37367200  0.41142800  0.23706100  1
  H  H0  1  0.37597600  0.62756300  0.98205700  1
  H  H1  1  0.87597600  0.87243700  0.51794300  1
  H  H2  1  0.62402400  0.37243700  0.01794300  1
  H  H3  1  0.12039400  0.37074000  0.00985100  1
  H  H4  1  0.37960600  0.87074000  0.50985100  1
  H  H5  1  0.87960600  0.62926000  0.99014900  1
  H  H6  1  0.12402400  0.12756300  0.48205700  1
  H  H7  1  0.62039400  0.12926000  0.49014900  1
  F  F0  1  0.72717000  0.18375700  0.87865500  1
  F  F1  1  0.52571900  0.41426600  0.23609000  1
  F  F2  1  0.87374400  0.78808500  0.57852400  1
  F  F3  1  0.96300600  0.58740200  0.21765500  1
  F  F4  1  0.36736200  0.98786200  0.43468100  1
  F  F5  1  0.77283000  0.68375700  0.37865500  1
  F  F6  1  0.22717000  0.31624300  0.62134500  1
  F  F7  1  0.46300600  0.91259800  0.28234500  1
  F  F8  1  0.72212500  0.08376300  0.27564900  1
  F  F9  1  0.02571900  0.08573400  0.26391000  1
  F  F10  1  0.71654100  0.08412600  0.72473900  1
  F  F11  1  0.97957500  0.62875700  0.76438800  1
  F  F12  1  0.87921700  0.41888300  0.39719600  1
  F  F13  1  0.11101800  0.28493200  0.06539800  1
  F  F14  1  0.61101800  0.21506800  0.43460200  1
  F  F15  1  0.12920000  0.72280200  0.84628400  1
  F  F16  1  0.21654100  0.41587400  0.77526100  1
  F  F17  1  0.27295800  0.63438100  0.75081600  1
  F  F18  1  0.47957500  0.87124300  0.73561200  1
  F  F19  1  0.86777700  0.08573000  0.10508900  1
  F  F20  1  0.38016400  0.51272500  0.06035300  1
  F  F21  1  0.62078300  0.91888300  0.89719600  1
  F  F22  1  0.37269700  0.60395900  0.21289300  1
  F  F23  1  0.13222300  0.91427000  0.89491100  1
  F  F24  1  0.72704200  0.36561900  0.24918400  1
  F  F25  1  0.28345900  0.91587400  0.27526100  1
  F  F26  1  0.37374400  0.71191500  0.92147600  1
  F  F27  1  0.62256700  0.71751900  0.85046600  1
  F  F28  1  0.37080000  0.22280200  0.34628400  1
  F  F29  1  0.02162400  0.17135000  0.86375800  1
  F  F30  1  0.47428100  0.58573400  0.76391000  1
  F  F31  1  0.87743300  0.21751900  0.35046600  1
  F  F32  1  0.88016400  0.98727500  0.43964700  1
  F  F33  1  0.97837600  0.82865000  0.13624200  1
  F  F34  1  0.73057200  0.32509700  0.63538400  1
  F  F35  1  0.22704200  0.13438100  0.25081600  1
  F  F36  1  0.12078300  0.58111700  0.60280400  1
  F  F37  1  0.02119700  0.31577200  0.62450900  1
  F  F38  1  0.02042500  0.37124300  0.23561200  1
  F  F39  1  0.97880300  0.68422800  0.37549100  1
  F  F40  1  0.22212500  0.41623700  0.22435100  1
  F  F41  1  0.97428100  0.91426600  0.73609000  1
  F  F42  1  0.23057200  0.17490300  0.86461600  1
  F  F43  1  0.53699400  0.08740200  0.71765500  1
  F  F44  1  0.38898200  0.78493200  0.56539800  1
  F  F45  1  0.12730300  0.10395900  0.71289300  1
  F  F46  1  0.62920000  0.77719800  0.65371600  1
  F  F47  1  0.52042500  0.12875700  0.26438800  1
  F  F48  1  0.47880300  0.81577200  0.12450900  1
  F  F49  1  0.12625600  0.21191500  0.42147600  1
  F  F50  1  0.77787500  0.58376300  0.77564900  1
  F  F51  1  0.78345900  0.58412600  0.22473900  1
  F  F52  1  0.87269700  0.89604100  0.28710700  1
  F  F53  1  0.52119700  0.18422800  0.87549100  1
  F  F54  1  0.63263800  0.01213800  0.56531900  1
  F  F55  1  0.62625600  0.28808500  0.07852400  1
  F  F56  1  0.61983600  0.48727500  0.93964700  1
  F  F57  1  0.37921700  0.08111700  0.10280400  1
  F  F58  1  0.26942800  0.67490300  0.36461600  1
  F  F59  1  0.03699400  0.41259800  0.78234500  1
  F  F60  1  0.37743300  0.28248100  0.14953400  1
  F  F61  1  0.36777700  0.41427000  0.39491100  1
  F  F62  1  0.62730300  0.39604100  0.78710700  1
  F  F63  1  0.86736200  0.51213800  0.06531900  1
  F  F64  1  0.13263800  0.48786200  0.93468100  1
  F  F65  1  0.87080000  0.27719800  0.15371600  1
  F  F66  1  0.76942800  0.82509700  0.13538400  1
  F  F67  1  0.88898200  0.71506800  0.93460200  1
  F  F68  1  0.12256700  0.78248100  0.64953400  1
  F  F69  1  0.52162400  0.32865000  0.63624200  1
  F  F70  1  0.27787500  0.91623700  0.72435100  1
  F  F71  1  0.11983600  0.01272500  0.56035300  1
  F  F72  1  0.47837600  0.67135000  0.36375800  1
  F  F73  1  0.63222300  0.58573000  0.60508900  1
  F  F74  1  0.77295800  0.86561900  0.74918400  1
  F  F75  1  0.27283000  0.81624300  0.12134500  1
loop_
_geom_bond_atom_site_label_1
_geom_bond_atom_site_label_2
_geom_bond_distance
_geom_bond_site_symmetry_2
F0 Zr1 2.060985 1_555
F0 Rb5 2.860989 1_555
F0 Rb2 2.953852 1_556
F0 Rb6 3.042348 1_545
F1 Zr11 2.035196 1_555
F1 Li2 2.233117 1_555
F1 Rb0 3.019557 1_555
F1 Rb12 3.061854 1_555
F2 H1 1.013460 1_555
F2 Li0 2.137762 1_555
F2 Rb7 2.892521 1_555
F3 Zr5 2.161477 1_555
F3 Zr6 2.266626 1_555
F3 Rb3 2.871360 1_655
F3 Rb1 3.222807 1_655
F4 H4 1.371491 1_555
F4 Zr4 2.117643 1_565
F4 Rb14 3.055012 1_565
F5 Zr5 2.060985 1_555
F5 Rb13 2.860989 1_555
F5 Rb7 2.953852 1_555
F5 Rb12 3.042348 1_555
F6 Zr7 2.060985 1_555
F6 Rb14 2.860989 1_555
F6 Rb1 2.953852 1_555
F6 Rb10 3.042348 1_555
F7 Zr3 2.161477 1_555
F7 Zr4 2.266626 1_565
F7 Rb13 2.871360 1_555
F7 Rb2 3.222807 1_565
F8 Zr9 2.033994 1_555
F8 Li2 2.296583 1_555
F8 Rb2 3.020409 1_555
F8 Rb13 3.023109 1_545
F9 Zr9 2.035196 1_455
F9 Li1 2.233117 1_555
F9 Rb8 3.019557 1_545
F9 Rb11 3.061854 1_555
F10 Zr1 2.167464 1_555
F10 Zr8 2.257112 1_545
F10 Rb9 2.875678 1_555
F10 Rb6 3.210767 1_545
F11 Li0 1.932587 1_555
F11 Zr0 2.034962 1_655
F11 Rb7 3.161974 1_555
F12 Zr6 2.042081 1_555
F12 Rb7 3.150706 1_555
F12 Rb9 3.160388 1_555
F12 Rb1 3.288753 1_655
F12 Rb12 3.428253 1_555
F13 H3 1.007633 1_555
F13 Li1 2.206403 1_555
F13 Rb11 2.907457 1_555
F14 H7 1.007633 1_555
F14 Li2 2.206403 1_555
F14 Rb12 2.907457 1_555
F15 Zr10 2.144001 1_555
F15 Zr0 2.233583 1_555
F15 Rb3 2.721837 1_556
F16 Zr7 2.167464 1_555
F16 Zr0 2.257112 1_555
F16 Rb4 2.875678 1_555
F16 Rb10 3.210767 1_555
F17 Li3 1.924716 1_555
F17 Zr0 2.032815 1_555
F17 Rb10 3.190628 1_555
F18 Li3 1.932587 1_555
F18 Zr8 2.034962 1_555
F18 Rb15 3.161974 1_555
F19 Zr9 2.036585 1_555
F19 Rb6 3.050361 1_544
F19 Rb5 3.059665 1_554
F19 Rb2 3.387382 1_555
F20 H0 1.358334 1_554
F20 Zr11 2.155063 1_555
F20 Rb4 3.014487 1_554
F21 Zr8 2.042081 1_555
F21 Rb2 3.150706 1_566
F21 Rb0 3.160388 1_556
F21 Rb15 3.288753 1_555
F21 Rb6 3.428253 1_555
F22 Zr11 2.145566 1_555
F22 Zr3 2.179053 1_555
F23 Zr10 2.036585 1_555
F23 Rb11 3.050361 1_566
F23 Rb3 3.059665 1_556
F23 Rb15 3.387382 1_555
F24 Li2 1.924716 1_555
F24 Zr6 2.032815 1_555
F24 Rb12 3.190628 1_555
F25 Zr3 2.167464 1_555
F25 Zr4 2.257112 1_565
F25 Rb8 2.875678 1_555
F25 Rb11 3.210767 1_565
F26 H0 1.013460 1_555
F26 Li3 2.137762 1_555
F26 Rb15 2.892521 1_555
F27 Zr2 2.164332 1_555
F27 Zr8 2.230583 1_555
F27 Rb0 2.739113 1_556
F28 Zr11 2.144001 1_555
F28 Zr4 2.233583 1_555
F28 Rb14 2.721837 1_555
F29 Zr7 2.058379 1_555
F29 Rb11 2.973661 1_556
F29 Rb6 3.003327 1_445
F29 Rb5 3.184794 1_455
F30 Zr2 2.035196 1_555
F30 Li3 2.233117 1_555
F30 Rb4 3.019557 1_555
F30 Rb10 3.061854 1_555
F31 Zr9 2.164332 1_555
F31 Zr6 2.230583 1_555
F31 Rb9 2.739113 1_555
F32 H1 1.358334 1_555
F32 Zr9 2.155063 1_565
F32 Rb9 3.014487 1_565
F33 Zr5 2.058379 1_555
F33 Rb6 2.973661 1_554
F33 Rb11 3.003327 1_665
F33 Rb3 3.184794 1_655
F34 Zr1 2.056459 1_555
F34 Rb12 2.927740 1_555
F34 Rb7 3.053531 1_555
F34 Rb9 3.168382 1_555
F35 Li1 1.924716 1_555
F35 Zr4 2.032815 1_555
F35 Rb11 3.190628 1_555
F36 Zr0 2.042081 1_555
F36 Rb1 3.150706 1_555
F36 Rb8 3.160388 1_555
F36 Rb7 3.288753 1_455
F36 Rb10 3.428253 1_555
F37 Zr7 2.061413 1_555
F37 Rb9 2.850404 1_455
F37 Rb1 2.934500 1_555
F37 Rb7 3.083118 1_455
F38 Li1 1.932587 1_555
F38 Zr6 2.034962 1_455
F38 Rb1 3.161974 1_555
F39 Zr5 2.061413 1_555
F39 Rb8 2.850404 1_655
F39 Rb7 2.934500 1_555
F39 Rb1 3.083118 1_655
F40 Zr11 2.033994 1_555
F40 Li1 2.296583 1_555
F40 Rb1 3.020409 1_555
F40 Rb3 3.023109 1_555
F41 Zr10 2.035196 1_655
F41 Li0 2.233117 1_555
F41 Rb9 3.019557 1_565
F41 Rb6 3.061854 1_555
F42 Zr7 2.056459 1_555
F42 Rb11 2.927740 1_556
F42 Rb15 3.053531 1_545
F42 Rb4 3.168382 1_555
F43 Zr1 2.161477 1_555
F43 Zr8 2.266626 1_545
F43 Rb14 2.871360 1_555
F43 Rb15 3.222807 1_545
F44 H4 1.007633 1_555
F44 Li3 2.206403 1_555
F44 Rb10 2.907457 1_555
F45 Zr10 2.145566 1_545
F45 Zr7 2.179053 1_555
F46 Zr2 2.144001 1_555
F46 Zr8 2.233583 1_555
F46 Rb13 2.721837 1_555
F47 Li2 1.932587 1_555
F47 Zr4 2.034962 1_555
F47 Rb2 3.161974 1_555
F48 Zr3 2.061413 1_555
F48 Rb0 2.850404 1_555
F48 Rb15 2.934500 1_554
F48 Rb2 3.083118 1_565
F49 H6 1.013460 1_555
F49 Li1 2.137762 1_555
F49 Rb1 2.892521 1_555
F50 Zr2 2.033994 1_555
F50 Li0 2.296583 1_555
F50 Rb7 3.020409 1_555
F50 Rb5 3.023109 1_555
F51 Zr5 2.167464 1_555
F51 Zr6 2.257112 1_555
F51 Rb0 2.875678 1_555
F51 Rb12 3.210767 1_555
F52 Zr9 2.145566 1_565
F52 Zr5 2.179053 1_555
F53 Zr1 2.061413 1_555
F53 Rb4 2.850404 1_555
F53 Rb2 2.934500 1_556
F53 Rb15 3.083118 1_545
F54 H7 1.371491 1_555
F54 Zr8 2.117643 1_545
F54 Rb13 3.055012 1_545
F55 H2 1.013460 1_555
F55 Li2 2.137762 1_555
F55 Rb2 2.892521 1_555
F56 H2 1.358334 1_556
F56 Zr2 2.155063 1_555
F56 Rb0 3.014487 1_556
F57 Zr4 2.042081 1_555
F57 Rb15 3.150706 1_544
F57 Rb4 3.160388 1_554
F57 Rb2 3.288753 1_555
F57 Rb11 3.428253 1_555
F58 Zr3 2.056459 1_555
F58 Rb10 2.927740 1_555
F58 Rb1 3.053531 1_555
F58 Rb8 3.168382 1_555
F59 Zr7 2.161477 1_555
F59 Zr0 2.266626 1_555
F59 Rb5 2.871360 1_455
F59 Rb7 3.222807 1_455
F60 Zr11 2.164332 1_555
F60 Zr4 2.230583 1_555
F60 Rb4 2.739113 1_554
F61 Zr11 2.036585 1_555
F61 Rb10 3.050361 1_555
F61 Rb14 3.059665 1_555
F61 Rb1 3.387382 1_555
F62 Zr2 2.145566 1_555
F62 Zr1 2.179053 1_555
F63 H5 1.371491 1_554
F63 Zr6 2.117643 1_555
F63 Rb5 3.055012 1_554
F64 H3 1.371491 1_556
F64 Zr0 2.117643 1_555
F64 Rb3 3.055012 1_556
F65 Zr9 2.144001 1_555
F65 Zr6 2.233583 1_555
F65 Rb5 2.721837 1_554
F66 Zr5 2.056459 1_555
F66 Rb6 2.927740 1_554
F66 Rb2 3.053531 1_565
F66 Rb0 3.168382 1_555
F67 H5 1.007633 1_555
F67 Li0 2.206403 1_555
F67 Rb6 2.907457 1_555
F68 Zr10 2.164332 1_555
F68 Zr0 2.230583 1_555
F68 Rb8 2.739113 1_555
F69 Zr1 2.058379 1_555
F69 Rb12 2.973661 1_555
F69 Rb10 3.003327 1_555
F69 Rb14 3.184794 1_555
F70 Zr10 2.033994 1_555
F70 Li3 2.296583 1_555
F70 Rb15 3.020409 1_555
F70 Rb14 3.023109 1_565
F71 H6 1.358334 1_555
F71 Zr10 2.155063 1_545
F71 Rb8 3.014487 1_545
F72 Zr3 2.058379 1_555
F72 Rb10 2.973661 1_555
F72 Rb12 3.003327 1_555
F72 Rb13 3.184794 1_555
F73 Zr2 2.036585 1_555
F73 Rb12 3.050361 1_555
F73 Rb13 3.059665 1_555
F73 Rb7 3.387382 1_555
F74 Li0 1.924716 1_555
F74 Zr8 2.032815 1_555
F74 Rb6 3.190628 1_555
F75 Zr3 2.060985 1_555
F75 Rb3 2.860989 1_555
F75 Rb15 2.953852 1_554
F75 Rb11 3.042348 1_565
