# generated using pymatgen
data_CsMnF4
_symmetry_space_group_name_H-M   'P 1'
_cell_length_a   7.92759319
_cell_length_b   7.92759319
_cell_length_c   6.33015742
_cell_angle_alpha   90.00000000
_cell_angle_beta   90.00000000
_cell_angle_gamma   90.00000000
_symmetry_Int_Tables_number   1
_chemical_formula_structural   CsMnF4
_chemical_formula_sum   'Cs4 Mn4 F16'
_cell_volume   397.82971820
_cell_formula_units_Z   4
loop_
 _symmetry_equiv_pos_site_id
 _symmetry_equiv_pos_as_xyz
  1  'x, y, z'
loop_
 _atom_site_type_symbol
 _atom_site_label
 _atom_site_symmetry_multiplicity
 _atom_site_fract_x
 _atom_site_fract_y
 _atom_site_fract_z
 _atom_site_occupancy
  Cs  Cs0  1  0.50000000  0.00000000  0.55589451  1
  Cs  Cs1  1  0.50000000  0.50000000  0.50000000  1
  Cs  Cs2  1  0.00000000  0.50000000  0.44410549  1
  Cs  Cs3  1  0.00000000  0.00000000  0.50000000  1
  Mn  Mn0  1  0.75000000  0.25000000  -0.00000000  1
  Mn  Mn1  1  0.25000000  0.75000000  -0.00000000  1
  Mn  Mn2  1  0.25000000  0.25000000  -0.00000000  1
  Mn  Mn3  1  0.75000000  0.75000000  -0.00000000  1
  F  F0  1  0.51541290  0.74694879  0.95238908  1
  F  F1  1  0.71777710  0.77455055  0.28534008  1
  F  F2  1  0.01541290  0.24694879  0.04761092  1
  F  F3  1  0.77455055  0.28222290  0.71465992  1
  F  F4  1  0.75305121  0.01541290  0.95238908  1
  F  F5  1  0.28222290  0.22544945  0.28534008  1
  F  F6  1  0.72544945  0.21777710  0.28534008  1
  F  F7  1  0.98458710  0.75305121  0.04761092  1
  F  F8  1  0.48458710  0.25305121  0.95238908  1
  F  F9  1  0.24694879  0.98458710  0.95238908  1
  F  F10  1  0.78222290  0.72544945  0.71465992  1
  F  F11  1  0.22544945  0.71777710  0.71465992  1
  F  F12  1  0.27455055  0.78222290  0.28534008  1
  F  F13  1  0.74694879  0.48458710  0.04761092  1
  F  F14  1  0.25305121  0.51541290  0.04761092  1
  F  F15  1  0.21777710  0.27455055  0.71465992  1
loop_
_geom_bond_atom_site_label_1
_geom_bond_atom_site_label_2
_geom_bond_distance
_geom_bond_site_symmetry_2
Cs0 F1 3.017970 1_545
Cs0 F5 3.017970 1_555
Cs0 F6 3.017970 1_555
Cs0 F12 3.017970 1_545
Cs0 F4 3.215397 1_555
Cs0 F0 3.215397 1_545
Cs0 F8 3.215397 1_555
Cs0 F9 3.215397 1_545
Cs0 F10 3.279182 1_545
Cs0 F15 3.279182 1_555
Cs0 F11 3.279182 1_545
Cs0 F3 3.279182 1_555
Cs1 F1 3.092621 1_555
Cs1 F11 3.092621 1_555
Cs1 F5 3.092621 1_555
Cs1 F3 3.092621 1_555
Cs1 F12 3.169620 1_555
Cs1 F10 3.169620 1_555
Cs1 F15 3.169620 1_555
Cs1 F6 3.169620 1_555
Cs1 F14 3.471066 1_555
Cs1 F8 3.471066 1_555
Cs1 F13 3.471066 1_555
Cs1 F0 3.471066 1_555
Cs2 F11 3.017970 1_555
Cs2 F15 3.017970 1_555
Cs2 F3 3.017970 1_455
Cs2 F10 3.017970 1_455
Cs2 F2 3.215397 1_555
Cs2 F13 3.215397 1_455
Cs2 F14 3.215397 1_555
Cs2 F7 3.215397 1_455
Cs2 F12 3.279182 1_555
Cs2 F6 3.279182 1_455
Cs2 F5 3.279182 1_555
Cs2 F1 3.279182 1_455
Cs3 F6 3.092621 1_455
Cs3 F15 3.092621 1_555
Cs3 F10 3.092621 1_445
Cs3 F12 3.092621 1_545
Cs3 F3 3.169620 1_455
Cs3 F1 3.169620 1_445
Cs3 F5 3.169620 1_555
Cs3 F11 3.169620 1_545
Cs3 F4 3.471066 1_455
Cs3 F2 3.471066 1_555
Cs3 F7 3.471066 1_445
Cs3 F9 3.471066 1_545
F0 Mn3 1.884129 1_556
F0 Mn1 2.125698 1_556
F1 Mn3 1.834575 1_555
F2 Mn2 1.884129 1_555
F2 Mn0 2.125698 1_455
F3 Mn0 1.834575 1_556
F4 Mn0 1.884129 1_556
F4 Mn3 2.125698 1_546
F5 Mn2 1.834575 1_555
F6 Mn0 1.834575 1_555
F7 Mn3 1.884129 1_555
F7 Mn1 2.125698 1_655
F8 Mn2 1.884129 1_556
F8 Mn0 2.125698 1_556
F9 Mn1 1.884129 1_556
F9 Mn2 2.125698 1_566
F10 Mn3 1.834575 1_556
F11 Mn1 1.834575 1_556
F12 Mn1 1.834575 1_555
F13 Mn0 1.884129 1_555
F13 Mn3 2.125698 1_555
F14 Mn1 1.884129 1_555
F14 Mn2 2.125698 1_555
F15 Mn2 1.834575 1_556
