# generated using pymatgen
data_Tb11O20
_symmetry_space_group_name_H-M   'P 1'
_cell_length_a   6.56303500
_cell_length_b   6.69116952
_cell_length_c   10.29680237
_cell_angle_alpha   94.03706430
_cell_angle_beta   92.93645249
_cell_angle_gamma   98.91940284
_symmetry_Int_Tables_number   1
_chemical_formula_structural   Tb11O20
_chemical_formula_sum   'Tb11 O20'
_cell_volume   444.71439075
_cell_formula_units_Z   1
loop_
 _symmetry_equiv_pos_site_id
 _symmetry_equiv_pos_as_xyz
  1  'x, y, z'
loop_
 _atom_site_type_symbol
 _atom_site_label
 _atom_site_symmetry_multiplicity
 _atom_site_fract_x
 _atom_site_fract_y
 _atom_site_fract_z
 _atom_site_occupancy
  Tb  Tb0  1  0.12821900  0.54881400  0.17289700  1
  Tb  Tb1  1  0.81847800  0.88882500  0.63133300  1
  Tb  Tb2  1  0.72900500  0.36366700  0.47873800  1
  Tb  Tb3  1  0.37008100  0.14508700  0.72368800  1
  Tb  Tb4  1  0.87178100  0.45118600  0.82710300  1
  Tb  Tb5  1  0.18152200  0.11117500  0.36866700  1
  Tb  Tb6  1  0.46925900  0.73229900  0.92422500  1
  Tb  Tb7  1  0.27099500  0.63633300  0.52126200  1
  Tb  Tb8  1  0.62991900  0.85491300  0.27631200  1
  Tb  Tb9  1  0.00000000  0.00000000  0.00000000  1
  Tb  Tb10  1  0.53074100  0.26770100  0.07577500  1
  O  O0  1  0.52947000  0.40910100  0.87158100  1
  O  O1  1  0.87785000  0.33596100  0.03796300  1
  O  O2  1  0.54008000  0.18313200  0.29579700  1
  O  O3  1  0.45992000  0.81686800  0.70420300  1
  O  O4  1  0.03510100  0.42719400  0.36990600  1
  O  O5  1  0.66881200  0.96573400  0.06972500  1
  O  O6  1  0.84764800  0.05734200  0.43158700  1
  O  O7  1  0.47053000  0.59089900  0.12841900  1
  O  O8  1  0.79359700  0.78054800  0.83881100  1
  O  O9  1  0.15235200  0.94265800  0.56841300  1
  O  O10  1  0.28728900  0.79924100  0.33110400  1
  O  O11  1  0.95907500  0.83301400  0.20059300  1
  O  O12  1  0.62853800  0.67602600  0.46192400  1
  O  O13  1  0.20640300  0.21945200  0.16118900  1
  O  O14  1  0.37146200  0.32397400  0.53807600  1
  O  O15  1  0.12215000  0.66403900  0.96203700  1
  O  O16  1  0.04092500  0.16698600  0.79940700  1
  O  O17  1  0.96489900  0.57280600  0.63009400  1
  O  O18  1  0.71271100  0.20075900  0.66889600  1
  O  O19  1  0.33118800  0.03426600  0.93027500  1
loop_
_geom_bond_atom_site_label_1
_geom_bond_atom_site_label_2
_geom_bond_distance
_geom_bond_site_symmetry_2
O0 Tb6 2.290982 1_555
O0 Tb4 2.294265 1_555
O0 Tb3 2.327871 1_555
O0 Tb10 2.365730 1_556
O1 Tb10 2.311526 1_555
O1 Tb0 2.328231 1_655
O1 Tb4 2.355082 1_554
O1 Tb9 2.513179 1_655
O2 Tb2 2.349647 1_555
O2 Tb8 2.358532 1_545
O2 Tb10 2.373519 1_555
O2 Tb5 2.492575 1_555
O3 Tb7 2.349647 1_555
O3 Tb3 2.358532 1_565
O3 Tb6 2.373519 1_555
O3 Tb1 2.492575 1_555
O4 Tb0 2.314310 1_555
O4 Tb2 2.346308 1_455
O4 Tb7 2.357522 1_555
O4 Tb5 2.454067 1_555
O5 Tb6 2.287933 1_554
O5 Tb9 2.306745 1_665
O5 Tb8 2.314944 1_555
O5 Tb10 2.337369 1_565
O6 Tb5 2.298809 1_655
O6 Tb8 2.300795 1_545
O6 Tb2 2.331673 1_555
O6 Tb1 2.416242 1_545
O7 Tb10 2.290982 1_555
O7 Tb0 2.294265 1_555
O7 Tb8 2.327871 1_555
O7 Tb6 2.365730 1_554
O8 Tb1 2.309240 1_555
O8 Tb6 2.329708 1_555
O8 Tb4 2.335429 1_555
O8 Tb9 2.357028 1_666
O9 Tb1 2.298809 1_455
O9 Tb3 2.300795 1_565
O9 Tb7 2.331673 1_555
O9 Tb5 2.416242 1_565
O10 Tb7 2.306361 1_555
O10 Tb5 2.313217 1_565
O10 Tb8 2.326695 1_555
O10 Tb0 2.334604 1_555
O11 Tb0 2.353831 1_655
O11 Tb8 2.355996 1_555
O11 Tb9 2.423933 1_665
O11 Tb5 2.652471 1_665
O12 Tb2 2.302092 1_555
O12 Tb8 2.325091 1_555
O12 Tb1 2.345485 1_555
O12 Tb7 2.434484 1_555
O13 Tb5 2.309240 1_555
O13 Tb10 2.329708 1_555
O13 Tb0 2.335429 1_555
O13 Tb9 2.357028 1_555
O14 Tb7 2.302092 1_555
O14 Tb3 2.325091 1_555
O14 Tb5 2.345485 1_555
O14 Tb2 2.434484 1_555
O15 Tb6 2.311526 1_555
O15 Tb4 2.328231 1_455
O15 Tb0 2.355082 1_556
O15 Tb9 2.513179 1_566
O16 Tb4 2.353831 1_455
O16 Tb3 2.355996 1_555
O16 Tb9 2.423933 1_556
O16 Tb1 2.652471 1_445
O17 Tb4 2.314310 1_555
O17 Tb7 2.346308 1_655
O17 Tb2 2.357522 1_555
O17 Tb1 2.454067 1_555
O18 Tb2 2.306361 1_555
O18 Tb1 2.313217 1_545
O18 Tb3 2.326695 1_555
O18 Tb4 2.334604 1_555
O19 Tb10 2.287933 1_556
O19 Tb9 2.306745 1_556
O19 Tb3 2.314944 1_555
O19 Tb6 2.337369 1_545
