# generated using pymatgen
data_Na5Ga3F14
_symmetry_space_group_name_H-M   'P 1'
_cell_length_a   7.16683935
_cell_length_b   7.23213399
_cell_length_c   12.49938456
_cell_angle_alpha   55.36824160
_cell_angle_beta   90.00000000
_cell_angle_gamma   90.00000000
_symmetry_Int_Tables_number   1
_chemical_formula_structural   Na5Ga3F14
_chemical_formula_sum   'Na10 Ga6 F28'
_cell_volume   533.07509170
_cell_formula_units_Z   2
loop_
 _symmetry_equiv_pos_site_id
 _symmetry_equiv_pos_as_xyz
  1  'x, y, z'
loop_
 _atom_site_type_symbol
 _atom_site_label
 _atom_site_symmetry_multiplicity
 _atom_site_fract_x
 _atom_site_fract_y
 _atom_site_fract_z
 _atom_site_occupancy
  Na  Na0  1  0.23412600  0.51537159  0.76203279  1
  Na  Na1  1  0.19395396  0.01268448  0.25072677  1
  Na  Na2  1  0.50000000  0.50000000  -0.00000000  1
  Na  Na3  1  0.76587400  0.48462841  0.23796721  1
  Na  Na4  1  0.73412600  0.48462841  0.73796721  1
  Na  Na5  1  0.69395396  0.98731552  0.24927323  1
  Na  Na6  1  0.26587400  0.51537159  0.26203279  1
  Na  Na7  1  0.80604604  0.98731552  0.74927323  1
  Na  Na8  1  0.30604604  0.01268448  0.75072677  1
  Na  Na9  1  -0.00000000  0.50000000  0.50000000  1
  Ga  Ga0  1  0.50000000  0.50000000  0.50000000  1
  Ga  Ga1  1  0.50000000  -0.00000000  0.50000000  1
  Ga  Ga2  1  -0.00000000  0.50000000  -0.00000000  1
  Ga  Ga3  1  -0.00000000  -0.00000000  -0.00000000  1
  Ga  Ga4  1  0.50000000  -0.00000000  -0.00000000  1
  Ga  Ga5  1  -0.00000000  -0.00000000  0.50000000  1
  F  F0  1  0.74692945  0.02512190  0.54667452  1
  F  F1  1  0.16302491  0.39526329  0.14137046  1
  F  F2  1  0.43279017  0.04392083  0.12946470  1
  F  F3  1  0.56720983  0.95607917  0.87053530  1
  F  F4  1  0.91583956  0.75007558  0.00226386  1
  F  F5  1  0.33697509  0.39526329  0.64137046  1
  F  F6  1  0.75307055  0.02512190  0.04667452  1
  F  F7  1  0.29516995  0.65344871  0.38924314  1
  F  F8  1  0.00576157  0.31637587  0.38237319  1
  F  F9  1  0.55126321  0.18997503  0.32281152  1
  F  F10  1  0.24692945  0.97487810  0.95332548  1
  F  F11  1  0.25307055  0.97487810  0.45332548  1
  F  F12  1  0.05126321  0.81002497  0.17718848  1
  F  F13  1  0.93279017  0.95607917  0.37053530  1
  F  F14  1  0.50576157  0.68362413  0.11762681  1
  F  F15  1  0.49423843  0.31637587  0.88237319  1
  F  F16  1  0.58416044  0.75007558  0.50226386  1
  F  F17  1  0.83697509  0.60473671  0.85862954  1
  F  F18  1  0.08416044  0.24992442  0.99773614  1
  F  F19  1  0.41583956  0.24992442  0.49773614  1
  F  F20  1  0.79516995  0.34655129  0.11075686  1
  F  F21  1  0.70483005  0.34655129  0.61075686  1
  F  F22  1  0.44873679  0.81002497  0.67718848  1
  F  F23  1  0.66302491  0.60473671  0.35862954  1
  F  F24  1  0.06720983  0.04392083  0.62946470  1
  F  F25  1  0.99423843  0.68362413  0.61762681  1
  F  F26  1  0.20483005  0.65344871  0.88924314  1
  F  F27  1  0.94873679  0.18997503  0.82281152  1
loop_
_geom_bond_atom_site_label_1
_geom_bond_atom_site_label_2
_geom_bond_distance
_geom_bond_site_symmetry_2
F0 Ga1 1.904125 1_555
F0 Ga5 1.945099 1_655
F0 Na7 2.424897 1_545
F1 Ga2 1.881484 1_555
F1 Na6 2.249796 1_555
F1 Na1 2.296613 1_555
F1 Na2 2.829723 1_555
F2 Ga4 1.880375 1_555
F2 Na1 2.211137 1_555
F2 Na5 2.284016 1_545
F2 Na2 2.768315 1_555
F3 Ga4 1.880375 1_566
F3 Na7 2.211137 1_555
F3 Na8 2.284016 1_565
F3 Na2 2.768315 1_556
F4 Ga3 1.890366 1_665
F4 Ga2 1.921910 1_655
F4 Na3 2.663065 1_555
F4 Na7 2.719544 1_554
F5 Ga0 1.881484 1_555
F5 Na0 2.249796 1_555
F5 Na8 2.296613 1_555
F5 Na9 2.829723 1_555
F6 Ga3 1.904125 1_655
F6 Ga4 1.945099 1_555
F6 Na5 2.424897 1_545
F7 Ga0 1.885969 1_555
F7 Na1 2.271793 1_565
F7 Na6 2.318241 1_555
F7 Na9 2.424247 1_555
F8 Ga5 1.890782 1_555
F8 Na3 2.279920 1_455
F8 Na6 2.312675 1_555
F8 Na9 2.479145 1_555
F9 Ga1 1.862578 1_555
F9 Na3 2.337263 1_555
F9 Na5 2.360105 1_545
F9 Na6 2.875171 1_555
F10 Ga3 1.904125 1_566
F10 Ga4 1.945099 1_566
F10 Na8 2.424897 1_565
F11 Ga1 1.904125 1_565
F11 Ga5 1.945099 1_565
F11 Na1 2.424897 1_565
F12 Ga3 1.862578 1_565
F12 Na6 2.337263 1_555
F12 Na1 2.360105 1_565
F12 Na3 2.875171 1_455
F13 Ga5 1.880375 1_665
F13 Na5 2.211137 1_555
F13 Na1 2.284016 1_665
F13 Na9 2.768315 1_655
F14 Ga4 1.890782 1_565
F14 Na6 2.279920 1_555
F14 Na3 2.312675 1_555
F14 Na2 2.479145 1_555
F15 Ga4 1.890782 1_556
F15 Na4 2.279920 1_555
F15 Na0 2.312675 1_555
F15 Na2 2.479145 1_556
F16 Ga1 1.890366 1_565
F16 Ga0 1.921910 1_555
F16 Na4 2.663065 1_555
F16 Na5 2.719544 1_555
F17 Ga2 1.881484 1_656
F17 Na4 2.249796 1_555
F17 Na7 2.296613 1_555
F17 Na2 2.829723 1_556
F18 Ga3 1.890366 1_556
F18 Ga2 1.921910 1_556
F18 Na0 2.663065 1_555
F18 Na1 2.719544 1_556
F19 Ga1 1.890366 1_555
F19 Ga0 1.921910 1_555
F19 Na6 2.663065 1_555
F19 Na8 2.719544 1_555
F20 Ga2 1.885969 1_655
F20 Na5 2.271793 1_545
F20 Na3 2.318241 1_555
F20 Na2 2.424247 1_555
F21 Ga0 1.885969 1_555
F21 Na7 2.271793 1_545
F21 Na4 2.318241 1_555
F21 Na9 2.424247 1_655
F22 Ga1 1.862578 1_565
F22 Na0 2.337263 1_555
F22 Na8 2.360105 1_565
F22 Na4 2.875171 1_555
F23 Ga0 1.881484 1_555
F23 Na3 2.249796 1_555
F23 Na5 2.296613 1_555
F23 Na9 2.829723 1_655
F24 Ga5 1.880375 1_555
F24 Na8 2.211137 1_555
F24 Na7 2.284016 1_445
F24 Na9 2.768315 1_555
F25 Ga5 1.890782 1_665
F25 Na0 2.279920 1_655
F25 Na4 2.312675 1_555
F25 Na9 2.479145 1_655
F26 Ga2 1.885969 1_556
F26 Na8 2.271793 1_565
F26 Na0 2.318241 1_555
F26 Na2 2.424247 1_556
F27 Ga3 1.862578 1_656
F27 Na4 2.337263 1_555
F27 Na7 2.360105 1_545
F27 Na0 2.875171 1_655
