# generated using pymatgen
data_LaFe5H12
_symmetry_space_group_name_H-M   'P 1'
_cell_length_a   5.75710400
_cell_length_b   5.75710373
_cell_length_c   4.27265000
_cell_angle_alpha   90.00000000
_cell_angle_beta   90.00000000
_cell_angle_gamma   120.00000157
_symmetry_Int_Tables_number   1
_chemical_formula_structural   LaFe5H12
_chemical_formula_sum   'La1 Fe5 H12'
_cell_volume   122.64110995
_cell_formula_units_Z   1
loop_
 _symmetry_equiv_pos_site_id
 _symmetry_equiv_pos_as_xyz
  1  'x, y, z'
loop_
 _atom_site_type_symbol
 _atom_site_label
 _atom_site_symmetry_multiplicity
 _atom_site_fract_x
 _atom_site_fract_y
 _atom_site_fract_z
 _atom_site_occupancy
  La  La0  1  0.00000000  0.00000000  0.00000000  1
  Fe  Fe0  1  0.50000000  0.00000000  0.50000000  1
  Fe  Fe1  1  0.00000000  0.50000000  0.50000000  1
  Fe  Fe2  1  0.66666700  0.33333300  0.00000000  1
  Fe  Fe3  1  0.50000000  0.50000000  0.50000000  1
  Fe  Fe4  1  0.33333300  0.66666700  0.00000000  1
  H  H0  1  0.78748700  0.57497500  0.73793300  1
  H  H1  1  0.21251300  0.42502500  0.26206700  1
  H  H2  1  0.21251300  0.78748700  0.26206700  1
  H  H3  1  0.78748700  0.21251300  0.26206700  1
  H  H4  1  0.57497500  0.78748700  0.26206700  1
  H  H5  1  0.42502500  0.21251300  0.26206700  1
  H  H6  1  0.42502500  0.21251300  0.73793300  1
  H  H7  1  0.21251300  0.42502500  0.73793300  1
  H  H8  1  0.78748700  0.21251300  0.73793300  1
  H  H9  1  0.57497500  0.78748700  0.73793300  1
  H  H10  1  0.78748700  0.57497500  0.26206700  1
  H  H11  1  0.21251300  0.78748700  0.73793300  1
loop_
_geom_bond_atom_site_label_1
_geom_bond_atom_site_label_2
_geom_bond_distance
_geom_bond_site_symmetry_2
Fe0 H11 1.801313 1_545
Fe0 H8 1.801313 1_555
Fe0 H2 1.801313 1_545
Fe0 H3 1.801313 1_555
Fe0 H9 1.801317 1_545
Fe0 H4 1.801317 1_545
Fe0 H6 1.801317 1_555
Fe0 H5 1.801317 1_555
Fe1 H8 1.801313 1_455
Fe1 H3 1.801313 1_455
Fe1 H11 1.801313 1_555
Fe1 H2 1.801313 1_555
Fe1 H0 1.801317 1_455
Fe1 H10 1.801317 1_455
Fe1 H7 1.801317 1_555
Fe1 H1 1.801317 1_555
Fe2 H3 1.644762 1_555
Fe2 H8 1.644762 1_554
Fe2 H0 1.644769 1_554
Fe2 H10 1.644769 1_555
Fe2 H5 1.644769 1_555
Fe2 H6 1.644769 1_554
Fe3 H6 1.801312 1_555
Fe3 H4 1.801312 1_555
Fe3 H5 1.801312 1_555
Fe3 H9 1.801312 1_555
Fe3 H7 1.801312 1_555
Fe3 H1 1.801312 1_555
Fe3 H0 1.801312 1_555
Fe3 H10 1.801312 1_555
Fe4 H2 1.644762 1_555
Fe4 H11 1.644762 1_554
Fe4 H7 1.644769 1_554
Fe4 H1 1.644769 1_555
Fe4 H4 1.644769 1_555
Fe4 H9 1.644769 1_554
H0 La0 2.396729 1_666
H1 La0 2.396729 1_555
H2 La0 2.396734 1_565
H3 La0 2.396734 1_655
H4 La0 2.396729 1_665
H5 La0 2.396729 1_555
H6 La0 2.396729 1_556
H7 La0 2.396729 1_556
H8 La0 2.396734 1_656
H9 La0 2.396729 1_666
H10 La0 2.396729 1_665
H11 La0 2.396734 1_566
