# generated using pymatgen
data_NaLiCO3
_symmetry_space_group_name_H-M   'P 1'
_cell_length_a   14.51381705
_cell_length_b   14.51381705
_cell_length_c   3.36094200
_cell_angle_alpha   90.00000000
_cell_angle_beta   90.00000000
_cell_angle_gamma   119.99999568
_symmetry_Int_Tables_number   1
_chemical_formula_structural   NaLiCO3
_chemical_formula_sum   'Na9 Li9 C9 O27'
_cell_volume   613.13337569
_cell_formula_units_Z   9
loop_
 _symmetry_equiv_pos_site_id
 _symmetry_equiv_pos_as_xyz
  1  'x, y, z'
loop_
 _atom_site_type_symbol
 _atom_site_label
 _atom_site_symmetry_multiplicity
 _atom_site_fract_x
 _atom_site_fract_y
 _atom_site_fract_z
 _atom_site_occupancy
  Na  Na0  1  0.77559100  0.90732300  0.50000000  1
  Na  Na1  1  0.12005000  0.57538500  0.50000000  1
  Na  Na2  1  0.74476000  0.19341500  0.50000000  1
  Na  Na3  1  0.13173100  0.22440900  0.50000000  1
  Na  Na4  1  0.09267700  0.86826900  0.50000000  1
  Na  Na5  1  0.42461500  0.54466500  0.50000000  1
  Na  Na6  1  0.80658500  0.55134400  0.50000000  1
  Na  Na7  1  0.44865600  0.25524000  0.50000000  1
  Na  Na8  1  0.45533500  0.87995000  0.50000000  1
  Li  Li0  1  0.56786400  0.74695600  0.00000000  1
  Li  Li1  1  0.58015300  0.47416600  0.00000000  1
  Li  Li2  1  0.22626300  0.10011500  0.00000000  1
  Li  Li3  1  0.52583400  0.10598700  0.00000000  1
  Li  Li4  1  0.87385300  0.77373700  0.00000000  1
  Li  Li5  1  0.17909200  0.43213600  0.00000000  1
  Li  Li6  1  0.89988500  0.12614700  0.00000000  1
  Li  Li7  1  0.25304400  0.82090800  0.00000000  1
  Li  Li8  1  0.89401300  0.41984700  0.00000000  1
  C  C0  1  0.68026900  0.66774700  0.50000000  1
  C  C1  1  0.65554100  0.99138700  0.00000000  1
  C  C2  1  0.33225300  0.01252200  0.50000000  1
  C  C3  1  0.00000000  0.00000000  0.00000000  1
  C  C4  1  0.98747800  0.31973100  0.50000000  1
  C  C5  1  0.33584600  0.34445900  0.00000000  1
  C  C6  1  0.00861300  0.66415400  0.00000000  1
  C  C7  1  0.66666700  0.33333300  0.00000000  1
  C  C8  1  0.33333300  0.66666700  0.00000000  1
  O  O0  1  0.64888600  0.89854300  0.00000000  1
  O  O1  1  0.75940200  0.41944000  0.00000000  1
  O  O2  1  0.41653700  0.65530200  0.00000000  1
  O  O3  1  0.56923700  0.99780800  0.00000000  1
  O  O4  1  0.74816400  0.07720800  0.00000000  1
  O  O5  1  0.78122500  0.73899600  0.50000000  1
  O  O6  1  0.95777100  0.21877500  0.50000000  1
  O  O7  1  0.43332400  0.08305400  0.50000000  1
  O  O8  1  0.60978200  0.69830000  0.50000000  1
  O  O9  1  0.08851800  0.39021800  0.50000000  1
  O  O10  1  0.24965700  0.35111400  0.00000000  1
  O  O11  1  0.58056000  0.33996200  0.00000000  1
  O  O12  1  0.34469800  0.76123500  0.00000000  1
  O  O13  1  0.92279200  0.67095600  0.00000000  1
  O  O14  1  0.90793700  0.99506000  0.00000000  1
  O  O15  1  0.66003800  0.24059800  0.00000000  1
  O  O16  1  0.26100400  0.04222900  0.50000000  1
  O  O17  1  0.08712400  0.09206300  0.00000000  1
  O  O18  1  0.32904400  0.25183600  0.00000000  1
  O  O19  1  0.10145700  0.75034300  0.00000000  1
  O  O20  1  0.91694600  0.35027000  0.50000000  1
  O  O21  1  0.23876500  0.58346300  0.00000000  1
  O  O22  1  0.64973000  0.56667600  0.50000000  1
  O  O23  1  0.30170000  0.91148200  0.50000000  1
  O  O24  1  0.00494000  0.91287600  0.00000000  1
  O  O25  1  0.42857100  0.43076300  0.00000000  1
  O  O26  1  0.00219200  0.57142900  0.00000000  1
loop_
_geom_bond_atom_site_label_1
_geom_bond_atom_site_label_2
_geom_bond_distance
_geom_bond_site_symmetry_2
Na0 O14 2.385199 1_555
Na0 O14 2.385199 1_556
Na0 O0 2.446978 1_556
Na0 O0 2.446978 1_555
Na0 O5 2.484962 1_555
Na0 O8 2.773824 1_555
Na1 O21 2.367377 1_556
Na1 O21 2.367377 1_555
Na1 O26 2.378048 1_555
Na1 O26 2.378048 1_556
Na1 O9 2.490395 1_555
Na2 O15 2.376346 1_555
Na2 O15 2.376346 1_556
Na2 O20 2.395584 1_555
Na2 O4 2.398832 1_556
Na2 O4 2.398832 1_555
Na3 O17 2.385203 1_555
Na3 O17 2.385203 1_556
Na3 O10 2.446983 1_555
Na3 O10 2.446983 1_556
Na3 O6 2.484947 1_455
Na3 O9 2.773814 1_555
Na4 O24 2.385183 1_556
Na4 O24 2.385183 1_555
Na4 O19 2.446988 1_556
Na4 O19 2.446988 1_555
Na4 O16 2.484955 1_565
Na4 O23 2.773828 1_555
Na5 O2 2.367377 1_556
Na5 O2 2.367377 1_555
Na5 O25 2.378048 1_556
Na5 O25 2.378048 1_555
Na5 O8 2.490395 1_555
Na6 O1 2.376336 1_556
Na6 O1 2.376336 1_555
Na6 O22 2.395592 1_555
Na6 O13 2.398837 1_556
Na6 O13 2.398837 1_555
Na7 O11 2.376338 1_555
Na7 O11 2.376338 1_556
Na7 O7 2.395577 1_555
Na7 O18 2.398842 1_555
Na7 O18 2.398842 1_556
Na8 O12 2.367377 1_556
Na8 O12 2.367377 1_555
Na8 O3 2.378048 1_555
Na8 O3 2.378048 1_556
Na8 O23 2.490395 1_555
Li0 O0 1.906858 1_555
Li0 O2 1.916186 1_555
Li0 O8 2.030383 1_554
Li0 O8 2.030383 1_555
Li1 O11 1.950773 1_555
Li1 O25 1.962417 1_555
Li1 O22 2.071385 1_555
Li1 O22 2.071385 1_554
Li2 O18 1.946647 1_555
Li2 O17 1.963615 1_555
Li2 O16 2.051267 1_555
Li2 O16 2.051267 1_554
Li3 O15 1.950773 1_555
Li3 O3 1.962417 1_545
Li3 O7 2.071385 1_554
Li3 O7 2.071385 1_555
Li4 O13 1.946636 1_555
Li4 O24 1.963615 1_655
Li4 O5 2.051274 1_555
Li4 O5 2.051274 1_554
Li5 O10 1.906858 1_555
Li5 O21 1.916186 1_555
Li5 O9 2.030383 1_554
Li5 O9 2.030383 1_555
Li6 O4 1.946649 1_555
Li6 O14 1.963615 1_545
Li6 O6 2.051273 1_555
Li6 O6 2.051273 1_554
Li7 O19 1.906858 1_555
Li7 O12 1.916186 1_555
Li7 O23 2.030383 1_555
Li7 O23 2.030383 1_554
Li8 O1 1.950773 1_555
Li8 O26 1.962417 1_655
Li8 O20 2.071385 1_554
Li8 O20 2.071385 1_555
C0 O8 1.302650 1_555
C0 O22 1.303125 1_555
C0 O5 1.304268 1_555
C1 O4 1.297771 1_565
C1 O3 1.301701 1_555
C1 O0 1.301916 1_555
C2 O23 1.302650 1_545
C2 O7 1.303125 1_555
C2 O16 1.304268 1_555
C3 O14 1.301818 1_445
C3 O17 1.301825 1_555
C3 O24 1.301833 1_545
C4 O9 1.302650 1_655
C4 O20 1.303125 1_555
C4 O6 1.304268 1_555
C5 O18 1.297771 1_555
C5 O25 1.301702 1_555
C5 O10 1.301916 1_555
C6 O13 1.297771 1_455
C6 O26 1.301701 1_555
C6 O19 1.301916 1_555
C7 O15 1.300505 1_555
C7 O1 1.300511 1_555
C7 O11 1.300519 1_555
C8 O12 1.297953 1_555
C8 O21 1.297959 1_555
C8 O2 1.297967 1_555
