# generated using pymatgen
data_Mg3Ir
_symmetry_space_group_name_H-M   'P 1'
_cell_length_a   7.85811571
_cell_length_b   7.85811591
_cell_length_c   8.17167559
_cell_angle_alpha   90.00000000
_cell_angle_beta   90.00000000
_cell_angle_gamma   120.00016421
_symmetry_Int_Tables_number   1
_chemical_formula_structural   Mg3Ir
_chemical_formula_sum   'Mg18 Ir6'
_cell_volume   436.99642116
_cell_formula_units_Z   6
loop_
 _symmetry_equiv_pos_site_id
 _symmetry_equiv_pos_as_xyz
  1  'x, y, z'
loop_
 _atom_site_type_symbol
 _atom_site_label
 _atom_site_symmetry_multiplicity
 _atom_site_fract_x
 _atom_site_fract_y
 _atom_site_fract_z
 _atom_site_occupancy
  Mg  Mg0  1  0.36952843  0.00000000  0.91129247  1
  Mg  Mg1  1  0.33333300  0.66666600  0.69961223  1
  Mg  Mg2  1  -0.00000000  -0.00000000  0.80659437  1
  Mg  Mg3  1  0.00000000  0.36952843  0.91129247  1
  Mg  Mg4  1  0.66666700  0.33333400  0.19961223  1
  Mg  Mg5  1  0.71094479  -0.00000000  0.07089024  1
  Mg  Mg6  1  0.63047157  0.63047157  0.91129347  1
  Mg  Mg7  1  0.33333400  0.66666700  0.19961223  1
  Mg  Mg8  1  0.36952843  0.36952843  0.41129347  1
  Mg  Mg9  1  0.28905521  0.00000000  0.57089024  1
  Mg  Mg10  1  0.63047157  -0.00000000  0.41129247  1
  Mg  Mg11  1  0.28905521  0.28905521  0.07089024  1
  Mg  Mg12  1  -0.00000000  0.71094479  0.07089024  1
  Mg  Mg13  1  0.00000000  0.28905521  0.57089024  1
  Mg  Mg14  1  0.71094479  0.71094479  0.57089024  1
  Mg  Mg15  1  -0.00000000  0.63047157  0.41129247  1
  Mg  Mg16  1  -0.00000000  -0.00000000  0.30659437  1
  Mg  Mg17  1  0.66666600  0.33333300  0.69961223  1
  Ir  Ir0  1  0.32855242  0.32855242  0.74017636  1
  Ir  Ir1  1  0.67144858  0.67144858  0.24017636  1
  Ir  Ir2  1  0.32855142  -0.00000000  0.24017636  1
  Ir  Ir3  1  0.67144858  0.00000000  0.74017636  1
  Ir  Ir4  1  0.00000000  0.67144858  0.74017636  1
  Ir  Ir5  1  -0.00000000  0.32855142  0.24017636  1
loop_
_geom_bond_atom_site_label_1
_geom_bond_atom_site_label_2
_geom_bond_distance
_geom_bond_site_symmetry_2
Mg0 Mg9 2.852631 1_555
Mg0 Mg12 2.948985 1_546
Mg0 Mg11 2.948992 1_556
Mg0 Mg5 2.983083 1_556
Mg0 Mg2 3.027213 1_555
Mg0 Mg17 3.031351 1_555
Mg0 Mg1 3.031362 1_545
Mg0 Mg4 3.427533 1_556
Mg0 Mg7 3.427533 1_546
Mg1 Mg13 2.999990 1_555
Mg1 Mg14 3.000000 1_555
Mg1 Mg9 3.000005 1_565
Mg1 Mg3 3.031351 1_555
Mg1 Mg6 3.031364 1_555
Mg1 Mg8 3.427526 1_555
Mg1 Mg10 3.427533 1_565
Mg1 Mg15 3.427533 1_555
Mg2 Mg9 2.978127 1_555
Mg2 Mg6 3.027209 1_445
Mg2 Mg3 3.027213 1_555
Mg2 Mg5 3.134305 1_456
Mg3 Mg5 2.948985 1_456
Mg3 Mg7 3.427533 1_556
Mg3 Mg4 3.427533 1_456
Mg4 Mg5 3.000005 1_555
Mg4 Mg8 3.031364 1_555
Mg4 Mg6 3.427526 1_554
Mg5 Mg6 2.948986 1_544
Mg5 Mg7 2.999990 1_545
Mg6 Mg7 3.427526 1_556
Mg7 Mg8 3.031364 1_555
Mg8 Mg9 2.948986 1_555
Mg10 Mg5 2.852631 1_555
Mg10 Mg13 2.948985 1_655
Mg10 Mg14 2.948992 1_545
Mg10 Mg9 2.983083 1_555
Mg10 Mg16 3.027213 1_655
Mg10 Mg7 3.031351 1_545
Mg10 Mg4 3.031362 1_555
Mg10 Mg17 3.427533 1_555
Mg11 Mg8 2.852638 1_555
Mg11 Mg3 2.948992 1_554
Mg11 Mg16 2.978123 1_555
Mg11 Mg6 2.983073 1_554
Mg11 Mg4 3.000000 1_555
Mg11 Mg7 3.000000 1_555
Mg11 Mg2 3.134301 1_554
Mg12 Mg15 2.852631 1_555
Mg12 Mg6 2.948986 1_454
Mg12 Mg16 2.978128 1_565
Mg12 Mg3 2.983083 1_554
Mg12 Mg4 2.999990 1_455
Mg12 Mg7 3.000005 1_555
Mg12 Mg2 3.134305 1_564
Mg13 Mg3 2.852631 1_555
Mg13 Mg8 2.948986 1_555
Mg13 Mg2 2.978128 1_555
Mg13 Mg15 2.983083 1_555
Mg13 Mg17 3.000005 1_455
Mg13 Mg16 3.134305 1_555
Mg14 Mg6 2.852638 1_555
Mg14 Mg15 2.948992 1_655
Mg14 Mg2 2.978123 1_665
Mg14 Mg8 2.983073 1_555
Mg14 Mg17 3.000000 1_555
Mg14 Mg16 3.134301 1_665
Mg15 Mg9 2.948985 1_565
Mg15 Mg16 3.027213 1_565
Mg15 Mg4 3.031351 1_455
Mg15 Mg7 3.031362 1_555
Mg15 Mg17 3.427533 1_455
Mg16 Mg5 2.978127 1_455
Mg16 Mg8 3.027209 1_555
Mg16 Mg9 3.134305 1_555
Mg17 Mg9 2.999990 1_555
Mg17 Mg3 3.031362 1_655
Mg17 Mg6 3.031364 1_555
Mg17 Mg8 3.427526 1_555
Ir0 Mg2 2.638228 1_555
Ir0 Mg17 2.659094 1_555
Ir0 Mg1 2.659095 1_555
Ir0 Mg8 2.706745 1_555
Ir0 Mg11 2.720251 1_556
Ir0 Mg6 2.753921 1_555
Ir0 Mg13 2.806131 1_555
Ir0 Mg9 2.806131 1_555
Ir0 Mg3 3.091274 1_555
Ir0 Mg0 3.091274 1_555
Ir0 Mg14 3.308012 1_555
Ir1 Mg16 2.638220 1_665
Ir1 Mg7 2.659098 1_555
Ir1 Mg4 2.659098 1_555
Ir1 Mg6 2.706746 1_554
Ir1 Mg14 2.720250 1_555
Ir1 Mg8 2.753928 1_555
Ir1 Mg12 2.806127 1_655
Ir1 Mg5 2.806127 1_565
Ir1 Mg15 3.091271 1_655
Ir1 Mg10 3.091271 1_565
Ir1 Mg11 3.308019 1_555
Ir2 Mg16 2.638227 1_555
Ir2 Mg4 2.659100 1_555
Ir2 Mg7 2.659103 1_545
Ir2 Mg0 2.706754 1_554
Ir2 Mg9 2.720250 1_555
Ir2 Mg10 2.753929 1_555
Ir2 Mg12 2.806123 1_545
Ir2 Mg11 2.806128 1_555
Ir2 Mg15 3.091264 1_545
Ir2 Mg8 3.091273 1_555
Ir2 Mg5 3.308025 1_555
Ir3 Mg2 2.638227 1_655
Ir3 Mg1 2.659100 1_545
Ir3 Mg17 2.659103 1_555
Ir3 Mg10 2.706754 1_555
Ir3 Mg5 2.720250 1_556
Ir3 Mg0 2.753929 1_555
Ir3 Mg13 2.806123 1_655
Ir3 Mg14 2.806128 1_545
Ir3 Mg3 3.091264 1_655
Ir3 Mg6 3.091273 1_545
Ir3 Mg9 3.308025 1_555
Ir4 Mg2 2.638227 1_565
Ir4 Mg17 2.659100 1_455
Ir4 Mg1 2.659103 1_555
Ir4 Mg15 2.706754 1_555
Ir4 Mg12 2.720250 1_556
Ir4 Mg3 2.753929 1_555
Ir4 Mg9 2.806123 1_565
Ir4 Mg14 2.806128 1_455
Ir4 Mg0 3.091264 1_565
Ir4 Mg6 3.091273 1_455
Ir4 Mg13 3.308026 1_555
Ir5 Mg16 2.638227 1_555
Ir5 Mg7 2.659100 1_555
Ir5 Mg4 2.659103 1_455
Ir5 Mg3 2.706754 1_554
Ir5 Mg13 2.720250 1_555
Ir5 Mg15 2.753929 1_555
Ir5 Mg5 2.806123 1_455
Ir5 Mg11 2.806128 1_555
Ir5 Mg10 3.091264 1_455
Ir5 Mg8 3.091273 1_555
Ir5 Mg12 3.308026 1_555
