# generated using pymatgen
data_BaSc3AgS6
_symmetry_space_group_name_H-M   'P 1'
_cell_length_a   11.02160200
_cell_length_b   11.23221000
_cell_length_c   16.32738700
_cell_angle_alpha   90.00000000
_cell_angle_beta   90.00000000
_cell_angle_gamma   90.00000000
_symmetry_Int_Tables_number   1
_chemical_formula_structural   BaSc3AgS6
_chemical_formula_sum   'Ba8 Sc24 Ag8 S48'
_cell_volume   2021.28068269
_cell_formula_units_Z   8
loop_
 _symmetry_equiv_pos_site_id
 _symmetry_equiv_pos_as_xyz
  1  'x, y, z'
loop_
 _atom_site_type_symbol
 _atom_site_label
 _atom_site_symmetry_multiplicity
 _atom_site_fract_x
 _atom_site_fract_y
 _atom_site_fract_z
 _atom_site_occupancy
  Ba  Ba0  1  0.73418400  0.94426000  0.79633900  1
  Ba  Ba1  1  0.76581600  0.55574000  0.29633900  1
  Ba  Ba2  1  0.76581600  0.94426000  0.29633900  1
  Ba  Ba3  1  0.23418400  0.44426000  0.70366100  1
  Ba  Ba4  1  0.73418400  0.55574000  0.79633900  1
  Ba  Ba5  1  0.26581600  0.44426000  0.20366100  1
  Ba  Ba6  1  0.26581600  0.05574000  0.20366100  1
  Ba  Ba7  1  0.23418400  0.05574000  0.70366100  1
  Sc  Sc0  1  0.92171500  0.08561600  0.58626200  1
  Sc  Sc1  1  0.86057200  0.25000000  0.02493800  1
  Sc  Sc2  1  0.57828500  0.08561600  0.08626200  1
  Sc  Sc3  1  0.07828500  0.91438400  0.41373800  1
  Sc  Sc4  1  0.14110500  0.41671500  0.96575500  1
  Sc  Sc5  1  0.07828500  0.58561600  0.41373800  1
  Sc  Sc6  1  0.35889500  0.41671500  0.46575500  1
  Sc  Sc7  1  0.57828500  0.41438400  0.08626200  1
  Sc  Sc8  1  0.63942800  0.25000000  0.52493800  1
  Sc  Sc9  1  0.64110500  0.91671500  0.53424500  1
  Sc  Sc10  1  0.85889500  0.91671500  0.03424500  1
  Sc  Sc11  1  0.36057200  0.75000000  0.47506200  1
  Sc  Sc12  1  0.93012400  0.75000000  0.59314600  1
  Sc  Sc13  1  0.42171500  0.58561600  0.91373800  1
  Sc  Sc14  1  0.13942800  0.75000000  0.97506200  1
  Sc  Sc15  1  0.06987600  0.25000000  0.40685400  1
  Sc  Sc16  1  0.85889500  0.58328500  0.03424500  1
  Sc  Sc17  1  0.43012400  0.25000000  0.90685400  1
  Sc  Sc18  1  0.92171500  0.41438400  0.58626200  1
  Sc  Sc19  1  0.56987600  0.75000000  0.09314600  1
  Sc  Sc20  1  0.14110500  0.08328500  0.96575500  1
  Sc  Sc21  1  0.64110500  0.58328500  0.53424500  1
  Sc  Sc22  1  0.35889500  0.08328500  0.46575500  1
  Sc  Sc23  1  0.42171500  0.91438400  0.91373800  1
  Ag  Ag0  1  0.95681600  0.25000000  0.21174200  1
  Ag  Ag1  1  0.04920900  0.75000000  0.17681700  1
  Ag  Ag2  1  0.95079200  0.25000000  0.82318300  1
  Ag  Ag3  1  0.45079200  0.75000000  0.67681700  1
  Ag  Ag4  1  0.04318400  0.75000000  0.78825800  1
  Ag  Ag5  1  0.45681600  0.75000000  0.28825800  1
  Ag  Ag6  1  0.54920800  0.25000000  0.32318300  1
  Ag  Ag7  1  0.54318400  0.25000000  0.71174200  1
  S  S0  1  0.36487300  0.08374700  0.01447800  1
  S  S1  1  0.59075900  0.75000000  0.42734600  1
  S  S2  1  0.13512700  0.41625300  0.51447800  1
  S  S3  1  0.29645900  0.25000000  0.36291200  1
  S  S4  1  0.40924100  0.25000000  0.57265400  1
  S  S5  1  0.20354100  0.25000000  0.86291200  1
  S  S6  1  0.02090400  0.07809100  0.31062700  1
  S  S7  1  0.08576200  0.57865400  0.07532200  1
  S  S8  1  0.36344400  0.75000000  0.01913600  1
  S  S9  1  0.80108700  0.41181400  0.13107600  1
  S  S10  1  0.91423800  0.07865400  0.92467800  1
  S  S11  1  0.63512700  0.91625300  0.98552200  1
  S  S12  1  0.63655600  0.25000000  0.98086400  1
  S  S13  1  0.41423800  0.92134600  0.57532200  1
  S  S14  1  0.51009200  0.75000000  0.82111700  1
  S  S15  1  0.08576200  0.92134600  0.07532200  1
  S  S16  1  0.97909600  0.92190900  0.68937300  1
  S  S17  1  0.86487300  0.91625300  0.48552200  1
  S  S18  1  0.98990800  0.75000000  0.32111700  1
  S  S19  1  0.19891300  0.58818600  0.86892400  1
  S  S20  1  0.47909600  0.07809100  0.81062700  1
  S  S21  1  0.47909600  0.42190900  0.81062700  1
  S  S22  1  0.30108700  0.58818600  0.36892400  1
  S  S23  1  0.86344400  0.25000000  0.48086400  1
  S  S24  1  0.48990800  0.25000000  0.17888300  1
  S  S25  1  0.13512700  0.08374700  0.51447800  1
  S  S26  1  0.63512700  0.58374700  0.98552200  1
  S  S27  1  0.80108700  0.08818600  0.13107600  1
  S  S28  1  0.58576200  0.42134600  0.42467800  1
  S  S29  1  0.86487300  0.58374700  0.48552200  1
  S  S30  1  0.13655600  0.75000000  0.51913600  1
  S  S31  1  0.69891300  0.41181400  0.63107600  1
  S  S32  1  0.01009200  0.25000000  0.67888300  1
  S  S33  1  0.90924100  0.75000000  0.92734600  1
  S  S34  1  0.52090400  0.92190900  0.18937300  1
  S  S35  1  0.58576200  0.07865400  0.42467800  1
  S  S36  1  0.36487300  0.41625300  0.01447800  1
  S  S37  1  0.09075900  0.25000000  0.07265400  1
  S  S38  1  0.79645900  0.75000000  0.13708800  1
  S  S39  1  0.30108700  0.91181400  0.36892400  1
  S  S40  1  0.19891300  0.91181400  0.86892400  1
  S  S41  1  0.52090400  0.57809100  0.18937300  1
  S  S42  1  0.97909600  0.57809100  0.68937300  1
  S  S43  1  0.91423800  0.42134600  0.92467800  1
  S  S44  1  0.41423800  0.57865400  0.57532200  1
  S  S45  1  0.70354100  0.75000000  0.63708800  1
  S  S46  1  0.02090400  0.42190900  0.31062700  1
  S  S47  1  0.69891300  0.08818600  0.63107600  1
loop_
_geom_bond_atom_site_label_1
_geom_bond_atom_site_label_2
_geom_bond_distance
_geom_bond_site_symmetry_2
Ba0 S47 3.169453 1_565
Ba0 S20 3.196638 1_565
Ba0 S16 3.224833 1_555
Ba0 S10 3.256956 1_565
Ba0 S11 3.291200 1_555
Ba0 S14 3.320366 1_555
Ba0 S45 3.411136 1_555
Ba0 S33 3.613715 1_555
Ba1 S9 3.169453 1_555
Ba1 S46 3.196638 1_655
Ba1 S41 3.224833 1_555
Ba1 S28 3.256956 1_555
Ba1 S29 3.291200 1_555
Ba1 S18 3.320366 1_555
Ba1 S38 3.411136 1_555
Ba1 S1 3.613715 1_555
Ba2 S27 3.169453 1_565
Ba2 S6 3.196638 1_665
Ba2 S34 3.224833 1_555
Ba2 S35 3.256956 1_565
Ba2 S17 3.291200 1_555
Ba2 S18 3.320366 1_555
Ba2 S38 3.411136 1_555
Ba2 S1 3.613715 1_555
Ba3 S19 3.169453 1_555
Ba3 S42 3.196638 1_455
Ba3 S21 3.224833 1_555
Ba3 S44 3.256956 1_555
Ba3 S2 3.291200 1_555
Ba3 S32 3.320366 1_555
Ba3 S5 3.411136 1_555
Ba3 S4 3.613715 1_555
Ba4 S31 3.169453 1_555
Ba4 S21 3.196638 1_555
Ba4 S42 3.224833 1_555
Ba4 S43 3.256956 1_555
Ba4 S26 3.291200 1_555
Ba4 S14 3.320366 1_555
Ba4 S45 3.411136 1_555
Ba4 S33 3.613715 1_555
Ba5 S22 3.169453 1_555
Ba5 S41 3.196638 1_555
Ba5 S46 3.224833 1_555
Ba5 S7 3.256956 1_555
Ba5 S36 3.291200 1_555
Ba5 S24 3.320366 1_555
Ba5 S3 3.411136 1_555
Ba5 S37 3.613715 1_555
Ba6 S39 3.169453 1_545
Ba6 S34 3.196638 1_545
Ba6 S6 3.224833 1_555
Ba6 S15 3.256956 1_545
Ba6 S0 3.291200 1_555
Ba6 S24 3.320366 1_555
Ba6 S3 3.411136 1_555
Ba6 S37 3.613715 1_555
Ba7 S40 3.169453 1_545
Ba7 S16 3.196638 1_445
Ba7 S20 3.224833 1_555
Ba7 S13 3.256956 1_545
Ba7 S25 3.291200 1_555
Ba7 S32 3.320366 1_555
Ba7 S5 3.411136 1_555
Ba7 S4 3.613715 1_555
Ag0 S46 2.614211 1_655
Ag0 S6 2.614211 1_655
Ag0 S37 2.708606 1_655
Ag0 S9 2.825605 1_555
Ag0 S27 2.825605 1_555
Ag1 S18 2.445019 1_455
Ag1 S7 2.571480 1_555
Ag1 S15 2.571480 1_555
Ag1 S38 2.860237 1_455
Ag2 S32 2.445016 1_655
Ag2 S10 2.571482 1_555
Ag2 S43 2.571482 1_555
Ag2 S5 2.860226 1_655
Ag3 S14 2.445016 1_555
Ag3 S44 2.571482 1_555
Ag3 S13 2.571482 1_555
Ag3 S45 2.860226 1_555
Ag4 S42 2.614211 1_455
Ag4 S16 2.614211 1_455
Ag4 S33 2.708606 1_455
Ag4 S19 2.825605 1_555
Ag4 S40 2.825605 1_555
Ag5 S34 2.614211 1_555
Ag5 S41 2.614211 1_555
Ag5 S1 2.708606 1_555
Ag5 S22 2.825605 1_555
Ag5 S39 2.825605 1_555
Ag6 S24 2.445016 1_555
Ag6 S28 2.571482 1_555
Ag6 S35 2.571482 1_555
Ag6 S3 2.860226 1_555
Ag7 S21 2.614211 1_555
Ag7 S20 2.614211 1_555
Ag7 S4 2.708606 1_555
Ag7 S31 2.825605 1_555
Ag7 S47 2.825605 1_555
S0 Sc20 2.591414 1_554
S0 Sc23 2.591669 1_544
S0 Sc2 2.628061 1_555
S0 Sc17 2.663112 1_554
S1 Sc9 2.619315 1_555
S1 Sc21 2.619315 1_555
S1 Sc11 2.653956 1_555
S2 Sc6 2.591414 1_555
S2 Sc5 2.591669 1_555
S2 Sc18 2.628061 1_455
S2 Sc15 2.663112 1_555
S3 Sc15 2.598325 1_555
S3 Sc6 2.607616 1_555
S3 Sc22 2.607616 1_555
S4 Sc6 2.619315 1_555
S4 Sc22 2.619315 1_555
S4 Sc8 2.653956 1_555
S5 Sc17 2.598325 1_555
S5 Sc4 2.607616 1_555
S5 Sc20 2.607616 1_555
S6 Sc15 2.547203 1_555
S6 Sc3 2.572043 1_545
S7 Sc16 2.589345 1_455
S7 Sc14 2.594925 1_554
S7 Sc4 2.623146 1_554
S8 Sc14 2.571746 1_554
S8 Sc19 2.576197 1_555
S8 Sc13 2.604430 1_554
S8 Sc23 2.604430 1_554
S9 Sc7 2.562490 1_555
S9 Sc16 2.571957 1_555
S9 Sc1 2.595455 1_555
S10 Sc20 2.589345 1_655
S10 Sc1 2.594925 1_556
S10 Sc10 2.623146 1_546
S11 Sc10 2.591414 1_556
S11 Sc2 2.591669 1_566
S11 Sc23 2.628061 1_555
S11 Sc19 2.663112 1_556
S12 Sc1 2.571746 1_556
S12 Sc17 2.576197 1_555
S12 Sc7 2.604430 1_556
S12 Sc2 2.604430 1_556
S13 Sc9 2.589345 1_555
S13 Sc11 2.594925 1_555
S13 Sc22 2.623146 1_565
S14 Sc23 2.577768 1_555
S14 Sc13 2.577768 1_555
S15 Sc10 2.589345 1_455
S15 Sc14 2.594925 1_554
S15 Sc20 2.623146 1_564
S16 Sc12 2.547203 1_555
S16 Sc0 2.572043 1_565
S17 Sc9 2.591414 1_555
S17 Sc0 2.591669 1_565
S17 Sc3 2.628061 1_655
S17 Sc12 2.663112 1_555
S18 Sc5 2.577768 1_655
S18 Sc3 2.577768 1_655
S19 Sc13 2.562490 1_555
S19 Sc4 2.571957 1_555
S19 Sc14 2.595455 1_555
S20 Sc17 2.547203 1_555
S20 Sc23 2.572043 1_545
S21 Sc17 2.547203 1_555
S21 Sc13 2.572043 1_555
S22 Sc5 2.562490 1_555
S22 Sc6 2.571957 1_555
S22 Sc11 2.595455 1_555
S23 Sc8 2.571746 1_555
S23 Sc15 2.576197 1_655
S23 Sc0 2.604430 1_555
S23 Sc18 2.604430 1_555
S24 Sc7 2.577768 1_555
S24 Sc2 2.577768 1_555
S25 Sc22 2.591414 1_555
S25 Sc3 2.591669 1_545
S25 Sc0 2.628061 1_455
S25 Sc15 2.663112 1_555
S26 Sc16 2.591414 1_556
S26 Sc7 2.591669 1_556
S26 Sc13 2.628061 1_555
S26 Sc19 2.663112 1_556
S27 Sc2 2.562490 1_555
S27 Sc10 2.571957 1_545
S27 Sc1 2.595455 1_555
S28 Sc6 2.589345 1_555
S28 Sc8 2.594925 1_555
S28 Sc21 2.623146 1_555
S29 Sc21 2.591414 1_555
S29 Sc18 2.591669 1_555
S29 Sc5 2.628061 1_655
S29 Sc12 2.663112 1_555
S30 Sc11 2.571746 1_555
S30 Sc12 2.576197 1_455
S30 Sc5 2.604430 1_555
S30 Sc3 2.604430 1_555
S31 Sc18 2.562490 1_555
S31 Sc21 2.571957 1_555
S31 Sc8 2.595455 1_555
S32 Sc18 2.577768 1_455
S32 Sc0 2.577768 1_455
S33 Sc10 2.619315 1_556
S33 Sc16 2.619315 1_556
S33 Sc14 2.653956 1_655
S34 Sc19 2.547203 1_555
S34 Sc2 2.572043 1_565
S35 Sc22 2.589345 1_555
S35 Sc8 2.594925 1_555
S35 Sc9 2.623146 1_545
S36 Sc4 2.591414 1_554
S36 Sc13 2.591669 1_554
S36 Sc7 2.628061 1_555
S36 Sc17 2.663112 1_554
S37 Sc4 2.619315 1_554
S37 Sc20 2.619315 1_554
S37 Sc1 2.653956 1_455
S38 Sc19 2.598325 1_555
S38 Sc10 2.607616 1_555
S38 Sc16 2.607616 1_555
S39 Sc3 2.562490 1_555
S39 Sc22 2.571957 1_565
S39 Sc11 2.595455 1_555
S40 Sc23 2.562490 1_555
S40 Sc20 2.571957 1_565
S40 Sc14 2.595455 1_555
S41 Sc19 2.547203 1_555
S41 Sc7 2.572043 1_555
S42 Sc12 2.547203 1_555
S42 Sc18 2.572043 1_555
S43 Sc4 2.589345 1_655
S43 Sc1 2.594925 1_556
S43 Sc16 2.623146 1_556
S44 Sc21 2.589345 1_555
S44 Sc11 2.594925 1_555
S44 Sc6 2.623146 1_555
S45 Sc12 2.598325 1_555
S45 Sc9 2.607616 1_555
S45 Sc21 2.607616 1_555
S46 Sc15 2.547203 1_555
S46 Sc5 2.572043 1_555
S47 Sc0 2.562490 1_555
S47 Sc9 2.571957 1_545
S47 Sc8 2.595455 1_555
