# generated using pymatgen
data_Cs7Co4F15
_symmetry_space_group_name_H-M   'P 1'
_cell_length_a   10.91588859
_cell_length_b   7.88086023
_cell_length_c   11.55044895
_cell_angle_alpha   87.42509440
_cell_angle_beta   90.00000000
_cell_angle_gamma   90.00000000
_symmetry_Int_Tables_number   1
_chemical_formula_structural   Cs7Co4F15
_chemical_formula_sum   'Cs14 Co8 F30'
_cell_volume   992.64252007
_cell_formula_units_Z   2
loop_
 _symmetry_equiv_pos_site_id
 _symmetry_equiv_pos_as_xyz
  1  'x, y, z'
loop_
 _atom_site_type_symbol
 _atom_site_label
 _atom_site_symmetry_multiplicity
 _atom_site_fract_x
 _atom_site_fract_y
 _atom_site_fract_z
 _atom_site_occupancy
  Cs  Cs0  1  0.65445254  0.83831707  0.80351277  1
  Cs  Cs1  1  0.99723444  0.67177715  0.66577621  1
  Cs  Cs2  1  0.81906439  0.50197413  0.02830414  1
  Cs  Cs3  1  0.49723444  0.32822285  0.83422379  1
  Cs  Cs4  1  0.50276556  0.67177715  0.16577621  1
  Cs  Cs5  1  0.50000000  -0.00000000  0.50000000  1
  Cs  Cs6  1  0.15445254  0.16168293  0.69648723  1
  Cs  Cs7  1  0.84554746  0.83831707  0.30351277  1
  Cs  Cs8  1  0.00276556  0.32822285  0.33422379  1
  Cs  Cs9  1  0.34554746  0.16168293  0.19648723  1
  Cs  Cs10  1  0.68093561  0.50197413  0.52830414  1
  Cs  Cs11  1  0.31906439  0.49802587  0.47169586  1
  Cs  Cs12  1  0.00000000  -0.00000000  -0.00000000  1
  Cs  Cs13  1  0.18093561  0.49802587  0.97169586  1
  Co  Co0  1  0.17080187  0.73924870  0.23036140  1
  Co  Co1  1  0.83705970  0.07645822  0.57012426  1
  Co  Co2  1  0.66294030  0.07645822  0.07012426  1
  Co  Co3  1  0.32919813  0.73924870  0.73036140  1
  Co  Co4  1  0.67080187  0.26075130  0.26963860  1
  Co  Co5  1  0.82919813  0.26075130  0.76963860  1
  Co  Co6  1  0.16294030  0.92354178  0.42987574  1
  Co  Co7  1  0.33705970  0.92354178  0.92987574  1
  F  F0  1  0.09052413  0.68801820  0.39573898  1
  F  F1  1  0.40947587  0.68801820  0.89573898  1
  F  F2  1  0.24815930  0.51251605  0.22131174  1
  F  F3  1  0.97467881  0.33124882  0.85737412  1
  F  F4  1  0.23701158  0.82958862  0.58156003  1
  F  F5  1  0.25184070  0.51251605  0.72131174  1
  F  F6  1  0.74815930  0.48748395  0.27868826  1
  F  F7  1  0.73701158  0.17041138  0.91843997  1
  F  F8  1  0.18867560  0.82622003  0.83461369  1
  F  F9  1  0.75184070  0.48748395  0.77868826  1
  F  F10  1  0.59052413  0.31198180  0.10426102  1
  F  F11  1  0.90947587  0.31198180  0.60426102  1
  F  F12  1  0.47467881  0.66875118  0.64262588  1
  F  F13  1  0.31132440  0.82622003  0.33461369  1
  F  F14  1  0.26238170  0.14888880  0.94228790  1
  F  F15  1  0.81132440  0.17377997  0.16538631  1
  F  F16  1  0.60042565  0.02109104  0.24097921  1
  F  F17  1  0.52532119  0.33124882  0.35737412  1
  F  F18  1  0.73761830  0.85111120  0.05771210  1
  F  F19  1  0.76238170  0.85111120  0.55771210  1
  F  F20  1  0.68867560  0.17377997  0.66538631  1
  F  F21  1  0.02532119  0.66875118  0.14262588  1
  F  F22  1  0.10042565  0.97890896  0.25902079  1
  F  F23  1  0.23761830  0.14888880  0.44228790  1
  F  F24  1  0.76298842  0.17041138  0.41843997  1
  F  F25  1  0.39957435  0.97890896  0.75902079  1
  F  F26  1  0.26298842  0.82958862  0.08156003  1
  F  F27  1  0.00000000  -0.00000000  0.50000000  1
  F  F28  1  0.89957435  0.02109104  0.74097921  1
  F  F29  1  0.50000000  -0.00000000  -0.00000000  1
loop_
_geom_bond_atom_site_label_1
_geom_bond_atom_site_label_2
_geom_bond_distance
_geom_bond_site_symmetry_2
Cs0 F9 2.987988 1_555
Cs0 F25 3.030070 1_555
Cs0 F20 3.048818 1_565
Cs0 F12 3.051754 1_555
Cs0 F19 3.071319 1_555
Cs0 F18 3.079237 1_556
Cs0 F1 3.094416 1_555
Cs0 F28 3.108458 1_565
Cs0 F7 3.120282 1_565
Cs0 F29 3.142717 1_566
Cs1 F4 3.038908 1_655
Cs1 F5 3.104625 1_655
Cs1 F11 3.105416 1_555
Cs1 F28 3.111953 1_565
Cs1 F8 3.140835 1_655
Cs1 F27 3.148525 1_665
Cs1 F19 3.157386 1_555
Cs1 F0 3.278111 1_655
Cs1 F9 3.288696 1_555
Cs1 F3 3.409774 1_555
Cs2 F18 2.925839 1_555
Cs2 F21 2.948937 1_655
Cs2 F3 2.971928 1_554
Cs2 F15 2.972531 1_555
Cs2 F9 2.982247 1_554
Cs2 F6 2.991050 1_555
Cs2 F10 3.019475 1_555
Cs2 F7 3.088406 1_554
Cs3 F7 3.038908 1_555
Cs3 F9 3.104625 1_555
Cs3 F1 3.105416 1_555
Cs3 F25 3.111953 1_545
Cs3 F20 3.140835 1_555
Cs3 F29 3.148525 1_556
Cs3 F14 3.157386 1_555
Cs3 F10 3.278111 1_556
Cs3 F5 3.288696 1_555
Cs3 F12 3.409774 1_555
Cs4 F26 3.038908 1_555
Cs4 F2 3.104625 1_555
Cs4 F10 3.105416 1_555
Cs4 F16 3.111953 1_565
Cs4 F13 3.140835 1_555
Cs4 F29 3.148525 1_565
Cs4 F18 3.157386 1_555
Cs4 F1 3.278111 1_554
Cs4 F6 3.288696 1_555
Cs4 F17 3.409774 1_555
Cs5 F12 3.036237 1_545
Cs5 F17 3.036237 1_555
Cs5 F23 3.155014 1_555
Cs5 F19 3.155014 1_545
Cs5 F13 3.162544 1_545
Cs5 F20 3.162544 1_555
Cs5 F25 3.183643 1_545
Cs5 F16 3.183643 1_555
Cs5 F24 3.289168 1_555
Cs5 F4 3.289168 1_545
Cs6 F5 2.987988 1_555
Cs6 F28 3.030070 1_455
Cs6 F8 3.048818 1_545
Cs6 F3 3.051754 1_455
Cs6 F14 3.071319 1_555
Cs6 F23 3.079237 1_555
Cs6 F11 3.094416 1_455
Cs6 F25 3.108458 1_545
Cs6 F4 3.120282 1_545
Cs6 F27 3.142717 1_555
Cs7 F6 2.987988 1_555
Cs7 F22 3.030070 1_655
Cs7 F15 3.048818 1_565
Cs7 F21 3.051754 1_655
Cs7 F18 3.071319 1_555
Cs7 F19 3.079237 1_555
Cs7 F0 3.094416 1_655
Cs7 F16 3.108458 1_565
Cs7 F24 3.120282 1_565
Cs7 F27 3.142717 1_665
Cs8 F24 3.038908 1_455
Cs8 F6 3.104625 1_455
Cs8 F0 3.105416 1_555
Cs8 F22 3.111953 1_545
Cs8 F15 3.140835 1_455
Cs8 F27 3.148525 1_555
Cs8 F23 3.157386 1_555
Cs8 F11 3.278111 1_455
Cs8 F2 3.288696 1_555
Cs8 F21 3.409774 1_555
Cs9 F2 2.987988 1_555
Cs9 F16 3.030070 1_555
Cs9 F13 3.048818 1_545
Cs9 F17 3.051754 1_555
Cs9 F23 3.071319 1_555
Cs9 F14 3.079237 1_554
Cs9 F10 3.094416 1_555
Cs9 F22 3.108458 1_545
Cs9 F26 3.120282 1_545
Cs9 F29 3.142717 1_555
Cs10 F19 2.925839 1_555
Cs10 F12 2.948937 1_555
Cs10 F17 2.971928 1_555
Cs10 F20 2.972531 1_555
Cs10 F6 2.982247 1_555
Cs10 F9 2.991050 1_555
Cs10 F11 3.019475 1_555
Cs10 F24 3.088406 1_555
Cs11 F23 2.925839 1_555
Cs11 F17 2.948937 1_555
Cs11 F12 2.971928 1_555
Cs11 F13 2.972531 1_555
Cs11 F5 2.982247 1_555
Cs11 F2 2.991050 1_555
Cs11 F0 3.019475 1_555
Cs11 F4 3.088406 1_555
Cs12 F3 3.036237 1_454
Cs12 F21 3.036237 1_545
Cs12 F14 3.155014 1_554
Cs12 F18 3.155014 1_445
Cs12 F15 3.162544 1_455
Cs12 F8 3.162544 1_544
Cs12 F22 3.183643 1_545
Cs12 F28 3.183643 1_454
Cs12 F7 3.289168 1_454
Cs12 F26 3.289168 1_545
Cs13 F14 2.925839 1_555
Cs13 F3 2.948937 1_455
Cs13 F21 2.971928 1_556
Cs13 F8 2.972531 1_555
Cs13 F2 2.982247 1_556
Cs13 F5 2.991050 1_555
Cs13 F1 3.019475 1_555
Cs13 F26 3.088406 1_556
Co0 F21 1.976895 1_555
Co0 F2 1.983328 1_555
Co0 F22 2.079234 1_555
Co0 F13 2.084918 1_555
Co0 F26 2.088918 1_555
Co0 F0 2.123776 1_555
Co1 F19 1.965163 1_545
Co1 F24 2.038386 1_555
Co1 F27 2.055852 1_655
Co1 F11 2.071548 1_555
Co1 F28 2.114996 1_555
Co1 F20 2.120933 1_555
Co2 F18 1.965163 1_545
Co2 F7 2.038386 1_554
Co2 F29 2.055852 1_555
Co2 F10 2.071548 1_555
Co2 F16 2.114996 1_555
Co2 F15 2.120933 1_555
Co3 F12 1.976895 1_555
Co3 F5 1.983328 1_555
Co3 F25 2.079234 1_555
Co3 F8 2.084918 1_555
Co3 F4 2.088918 1_555
Co3 F1 2.123776 1_555
Co4 F17 1.976895 1_555
Co4 F6 1.983328 1_555
Co4 F16 2.079234 1_555
Co4 F15 2.084918 1_555
Co4 F24 2.088918 1_555
Co4 F10 2.123776 1_555
Co5 F3 1.976895 1_555
Co5 F9 1.983328 1_555
Co5 F28 2.079234 1_555
Co5 F20 2.084918 1_555
Co5 F7 2.088918 1_555
Co5 F11 2.123776 1_555
Co6 F23 1.965163 1_565
Co6 F4 2.038386 1_555
Co6 F27 2.055852 1_565
Co6 F0 2.071548 1_555
Co6 F22 2.114996 1_555
Co6 F13 2.120933 1_555
Co7 F14 1.965163 1_565
Co7 F26 2.038386 1_556
Co7 F29 2.055852 1_566
Co7 F1 2.071548 1_555
Co7 F25 2.114996 1_555
Co7 F8 2.120933 1_555
