# generated using pymatgen
data_K2Mn2(SO4)3
_symmetry_space_group_name_H-M   'P 1'
_cell_length_a   10.22437600
_cell_length_b   10.23606200
_cell_length_c   10.27934600
_cell_angle_alpha   90.00000000
_cell_angle_beta   90.00000000
_cell_angle_gamma   90.00000000
_symmetry_Int_Tables_number   1
_chemical_formula_structural   K2Mn2(SO4)3
_chemical_formula_sum   'K8 Mn8 S12 O48'
_cell_volume   1075.80907763
_cell_formula_units_Z   4
loop_
 _symmetry_equiv_pos_site_id
 _symmetry_equiv_pos_as_xyz
  1  'x, y, z'
loop_
 _atom_site_type_symbol
 _atom_site_label
 _atom_site_symmetry_multiplicity
 _atom_site_fract_x
 _atom_site_fract_y
 _atom_site_fract_z
 _atom_site_occupancy
  K  K0  1  0.69054300  0.17199200  0.31296100  1
  K  K1  1  0.80945700  0.82800800  0.81296100  1
  K  K2  1  0.44108100  0.96256600  0.55709700  1
  K  K3  1  0.94108100  0.53743400  0.44290300  1
  K  K4  1  0.19054300  0.32800800  0.68703900  1
  K  K5  1  0.05891900  0.03743400  0.05709700  1
  K  K6  1  0.30945700  0.67199200  0.18703900  1
  K  K7  1  0.55891900  0.46256600  0.94290300  1
  Mn  Mn0  1  0.66262400  0.81361600  0.15429000  1
  Mn  Mn1  1  0.33737600  0.31361600  0.34571000  1
  Mn  Mn2  1  0.58085300  0.60851700  0.59453000  1
  Mn  Mn3  1  0.83737600  0.18638400  0.65429000  1
  Mn  Mn4  1  0.41914700  0.10851700  0.90547000  1
  Mn  Mn5  1  0.16262400  0.68638400  0.84571000  1
  Mn  Mn6  1  0.91914700  0.39148300  0.09453000  1
  Mn  Mn7  1  0.08085300  0.89148300  0.40547000  1
  S  S0  1  0.63082400  0.50295700  0.28729500  1
  S  S1  1  0.26171900  0.61662500  0.51332400  1
  S  S2  1  0.97339300  0.71155500  0.12805700  1
  S  S3  1  0.86917600  0.49704300  0.78729500  1
  S  S4  1  0.02660700  0.21155500  0.37194300  1
  S  S5  1  0.73828100  0.11662500  0.98667600  1
  S  S6  1  0.76171900  0.88337500  0.48667600  1
  S  S7  1  0.52660700  0.28844500  0.62805700  1
  S  S8  1  0.47339300  0.78844500  0.87194300  1
  S  S9  1  0.36917600  0.00295700  0.21270500  1
  S  S10  1  0.13082400  0.99704300  0.71270500  1
  S  S11  1  0.23828100  0.38337500  0.01332400  1
  O  O0  1  0.33188100  0.30183800  0.93664200  1
  O  O1  1  0.99850600  0.07395200  0.33208400  1
  O  O2  1  0.06968200  0.75420300  0.02775400  1
  O  O3  1  0.97650600  0.59363700  0.80145400  1
  O  O4  1  0.16205900  0.22118900  0.42428200  1
  O  O5  1  0.75329900  0.01896400  0.53985600  1
  O  O6  1  0.17635000  0.95127400  0.58236100  1
  O  O7  1  0.33794100  0.77881100  0.92428200  1
  O  O8  1  0.22240200  0.61271100  0.65253100  1
  O  O9  1  0.43031800  0.24579700  0.52775400  1
  O  O10  1  0.98714600  0.79911500  0.24159500  1
  O  O11  1  0.51285400  0.20088500  0.74159500  1
  O  O12  1  0.66811900  0.80183800  0.56335800  1
  O  O13  1  0.56968200  0.74579700  0.97224600  1
  O  O14  1  0.58258000  0.61627100  0.20951800  1
  O  O15  1  0.24670100  0.51896400  0.96014400  1
  O  O16  1  0.72240200  0.88728900  0.34746900  1
  O  O17  1  0.10388800  0.32979600  0.99554600  1
  O  O18  1  0.16811900  0.69816200  0.43664200  1
  O  O19  1  0.00149400  0.57395200  0.16791600  1
  O  O20  1  0.50149400  0.92604800  0.83208400  1
  O  O21  1  0.24231100  0.06227300  0.77925400  1
  O  O22  1  0.77759800  0.11271100  0.84746900  1
  O  O23  1  0.02349400  0.09363700  0.69854600  1
  O  O24  1  0.41742000  0.11627100  0.29048200  1
  O  O25  1  0.08258000  0.88372900  0.79048200  1
  O  O26  1  0.52349400  0.40636300  0.30145400  1
  O  O27  1  0.82365000  0.45127400  0.91763900  1
  O  O28  1  0.39611200  0.67020400  0.49554600  1
  O  O29  1  0.27759800  0.38728900  0.15253100  1
  O  O30  1  0.93031800  0.25420300  0.47224600  1
  O  O31  1  0.89611200  0.82979600  0.50445400  1
  O  O32  1  0.49850600  0.42604800  0.66791600  1
  O  O33  1  0.74670100  0.98103600  0.03985600  1
  O  O34  1  0.67635000  0.54872600  0.41763900  1
  O  O35  1  0.01285400  0.29911500  0.25840500  1
  O  O36  1  0.32365000  0.04872600  0.08236100  1
  O  O37  1  0.25768900  0.93772700  0.27925400  1
  O  O38  1  0.75768900  0.56227300  0.72074600  1
  O  O39  1  0.60388800  0.17020400  0.00445400  1
  O  O40  1  0.83188100  0.19816200  0.06335800  1
  O  O41  1  0.25329900  0.48103600  0.46014400  1
  O  O42  1  0.48714600  0.70088500  0.75840500  1
  O  O43  1  0.91742000  0.38372900  0.70951800  1
  O  O44  1  0.83794100  0.72118900  0.07571800  1
  O  O45  1  0.47650600  0.90636300  0.19854600  1
  O  O46  1  0.74231100  0.43772700  0.22074600  1
  O  O47  1  0.66205900  0.27881100  0.57571800  1
loop_
_geom_bond_atom_site_label_1
_geom_bond_atom_site_label_2
_geom_bond_distance
_geom_bond_site_symmetry_2
K0 O24 2.859516 1_555
K0 O5 2.881857 1_555
K0 O47 2.928411 1_555
K0 O46 2.928741 1_555
K0 O26 2.947292 1_555
K0 O16 2.953762 1_545
K0 O40 2.956882 1_555
K0 O30 3.065803 1_555
K0 O39 3.292742 1_555
K0 O1 3.310625 1_555
K1 O25 2.859516 1_655
K1 O33 2.881857 1_556
K1 O44 2.928411 1_556
K1 O38 2.928741 1_555
K1 O3 2.947292 1_555
K1 O22 2.953762 1_565
K1 O12 2.956882 1_555
K1 O13 3.065803 1_555
K1 O31 3.292742 1_555
K1 O20 3.310625 1_555
K2 O6 2.721595 1_555
K2 O12 2.845950 1_555
K2 O9 2.916895 1_565
K2 O20 2.917434 1_555
K2 O28 3.093150 1_555
K2 O24 3.169376 1_565
K2 O11 3.175878 1_565
K2 O21 3.222862 1_565
K2 O5 3.248852 1_565
K3 O34 2.721595 1_555
K3 O18 2.845950 1_655
K3 O30 2.916895 1_555
K3 O19 2.917434 1_655
K3 O31 3.093150 1_555
K3 O43 3.169376 1_555
K3 O35 3.175878 1_655
K3 O46 3.222862 1_555
K3 O41 3.248852 1_655
K4 O43 2.859516 1_455
K4 O41 2.881857 1_555
K4 O4 2.928411 1_555
K4 O21 2.928741 1_555
K4 O23 2.947292 1_555
K4 O8 2.953762 1_555
K4 O0 2.956882 1_555
K4 O9 3.065803 1_555
K4 O17 3.292742 1_555
K4 O32 3.310625 1_555
K5 O36 2.721595 1_555
K5 O40 2.845950 1_455
K5 O2 2.916895 1_545
K5 O1 2.917434 1_455
K5 O17 3.093150 1_554
K5 O25 3.169376 1_544
K5 O10 3.175878 1_445
K5 O37 3.222862 1_545
K5 O33 3.248852 1_445
K6 O14 2.859516 1_555
K6 O15 2.881857 1_554
K6 O7 2.928411 1_554
K6 O37 2.928741 1_555
K6 O45 2.947292 1_555
K6 O29 2.953762 1_555
K6 O18 2.956882 1_555
K6 O2 3.065803 1_555
K6 O28 3.292742 1_555
K6 O19 3.310625 1_555
K7 O27 2.721595 1_555
K7 O0 2.845950 1_555
K7 O13 2.916895 1_555
K7 O32 2.917434 1_555
K7 O39 3.093150 1_556
K7 O14 3.169376 1_556
K7 O42 3.175878 1_555
K7 O38 3.222862 1_555
K7 O15 3.248852 1_555
Mn0 O45 2.174725 1_555
Mn0 O44 2.181855 1_555
Mn0 O16 2.210311 1_555
Mn0 O13 2.210582 1_554
Mn0 O33 2.249336 1_555
Mn0 O14 2.252247 1_555
Mn1 O26 2.174725 1_555
Mn1 O4 2.181855 1_555
Mn1 O29 2.210311 1_555
Mn1 O9 2.210582 1_555
Mn1 O41 2.249336 1_555
Mn1 O24 2.252247 1_555
Mn2 O34 2.152725 1_555
Mn2 O42 2.156275 1_555
Mn2 O32 2.183226 1_555
Mn2 O12 2.194219 1_555
Mn2 O28 2.236469 1_555
Mn2 O38 2.275162 1_555
Mn3 O23 2.174725 1_655
Mn3 O47 2.181855 1_555
Mn3 O22 2.210311 1_555
Mn3 O30 2.210582 1_555
Mn3 O5 2.249336 1_555
Mn3 O43 2.252247 1_555
Mn4 O36 2.152725 1_556
Mn4 O11 2.156275 1_555
Mn4 O20 2.183226 1_545
Mn4 O0 2.194219 1_555
Mn4 O39 2.236469 1_556
Mn4 O21 2.275162 1_555
Mn5 O3 2.174725 1_455
Mn5 O7 2.181855 1_555
Mn5 O8 2.210311 1_555
Mn5 O2 2.210582 1_556
Mn5 O15 2.249336 1_555
Mn5 O25 2.252247 1_555
Mn6 O27 2.152725 1_554
Mn6 O35 2.156275 1_655
Mn6 O19 2.183226 1_655
Mn6 O40 2.194219 1_555
Mn6 O17 2.236469 1_654
Mn6 O46 2.275162 1_555
Mn7 O6 2.152725 1_555
Mn7 O10 2.156275 1_455
Mn7 O1 2.183226 1_465
Mn7 O18 2.194219 1_555
Mn7 O31 2.236469 1_455
Mn7 O37 2.275162 1_555
O0 S11 1.494578 1_556
O1 S4 1.494768 1_655
O2 S2 1.490928 1_455
O3 S3 1.484265 1_555
O4 S4 1.489014 1_555
O5 S6 1.494156 1_545
O6 S10 1.493772 1_555
O7 S8 1.489014 1_555
O8 S1 1.486889 1_555
O9 S7 1.490928 1_555
O10 S2 1.478237 1_555
O11 S7 1.478237 1_555
O12 S6 1.494578 1_555
O13 S8 1.490928 1_555
O14 S0 1.492598 1_555
O15 S11 1.494156 1_556
O16 S6 1.486889 1_555
O17 S11 1.490734 1_556
O18 S1 1.494578 1_555
O19 S2 1.494768 1_455
O20 S8 1.494768 1_555
O21 S10 1.487657 1_545
O22 S5 1.486889 1_555
O23 S10 1.484265 1_545
O24 S9 1.492598 1_555
O25 S10 1.492598 1_555
O26 S0 1.484265 1_555
O27 S3 1.493772 1_555
O28 S1 1.490734 1_555
O29 S11 1.486889 1_555
O30 S4 1.490928 1_655
O31 S6 1.490734 1_555
O32 S7 1.494768 1_555
O33 S5 1.494156 1_564
O34 S0 1.493772 1_555
O35 S4 1.478237 1_555
O36 S9 1.493772 1_555
O37 S9 1.487657 1_565
O38 S3 1.487657 1_555
O39 S5 1.490734 1_554
O40 S5 1.494578 1_554
O41 S1 1.494156 1_555
O42 S8 1.478237 1_555
O43 S3 1.492598 1_555
O44 S2 1.489014 1_555
O45 S9 1.484265 1_565
O46 S0 1.487657 1_555
O47 S7 1.489014 1_555
