# generated using pymatgen
data_MnTlCl3
_symmetry_space_group_name_H-M   'P 1'
_cell_length_a   3.82193433
_cell_length_b   8.99668546
_cell_length_c   14.68728821
_cell_angle_alpha   90.00000000
_cell_angle_beta   90.00000000
_cell_angle_gamma   90.00000000
_symmetry_Int_Tables_number   1
_chemical_formula_structural   MnTlCl3
_chemical_formula_sum   'Mn4 Tl4 Cl12'
_cell_volume   505.01860133
_cell_formula_units_Z   4
loop_
 _symmetry_equiv_pos_site_id
 _symmetry_equiv_pos_as_xyz
  1  'x, y, z'
loop_
 _atom_site_type_symbol
 _atom_site_label
 _atom_site_symmetry_multiplicity
 _atom_site_fract_x
 _atom_site_fract_y
 _atom_site_fract_z
 _atom_site_occupancy
  Mn  Mn0  1  0.75000000  0.83685481  0.94600316  1
  Mn  Mn1  1  0.25000000  0.16314519  0.05399684  1
  Mn  Mn2  1  0.25000000  0.66314519  0.44600316  1
  Mn  Mn3  1  0.75000000  0.33685481  0.55399684  1
  Tl  Tl0  1  0.75000000  0.55699482  0.17642475  1
  Tl  Tl1  1  0.25000000  0.44300518  0.82357525  1
  Tl  Tl2  1  0.25000000  0.94300518  0.67642475  1
  Tl  Tl3  1  0.75000000  0.05699482  0.32357525  1
  Cl  Cl0  1  0.25000000  0.27494379  0.20486168  1
  Cl  Cl1  1  0.75000000  0.82325303  0.50368485  1
  Cl  Cl2  1  0.75000000  0.47875090  0.40136913  1
  Cl  Cl3  1  0.75000000  0.97875090  0.09863187  1
  Cl  Cl4  1  0.75000000  0.32325303  0.99631515  1
  Cl  Cl5  1  0.25000000  0.02124910  0.90136813  1
  Cl  Cl6  1  0.75000000  0.22505621  0.70486168  1
  Cl  Cl7  1  0.25000000  0.52124910  0.59863187  1
  Cl  Cl8  1  0.25000000  0.17674697  0.49631515  1
  Cl  Cl9  1  0.25000000  0.77494379  0.29513832  1
  Cl  Cl10  1  0.25000000  0.67674697  0.00368485  1
  Cl  Cl11  1  0.75000000  0.72505621  0.79513832  1
loop_
_geom_bond_atom_site_label_1
_geom_bond_atom_site_label_2
_geom_bond_distance
_geom_bond_site_symmetry_2
Cl0 Mn1 2.433396 1_555
Cl0 Tl0 3.203945 1_555
Cl0 Tl0 3.203945 1_455
Cl0 Tl3 3.246025 1_555
Cl0 Tl3 3.246025 1_455
Cl1 Mn2 2.538580 1_655
Cl1 Mn2 2.538580 1_555
Cl2 Mn3 2.579701 1_555
Cl2 Mn2 2.614119 1_655
Cl2 Mn2 2.614119 1_555
Cl3 Mn0 2.579713 1_554
Cl3 Mn1 2.614123 1_665
Cl3 Mn1 2.614123 1_565
Cl4 Mn1 2.538580 1_556
Cl4 Mn1 2.538580 1_656
Cl5 Mn1 2.579713 1_556
Cl5 Mn0 2.614123 1_545
Cl5 Mn0 2.614123 1_445
Cl6 Mn3 2.433396 1_555
Cl6 Tl2 3.203945 1_645
Cl6 Tl2 3.203945 1_545
Cl6 Tl1 3.246025 1_555
Cl6 Tl1 3.246025 1_655
Cl7 Mn2 2.579713 1_555
Cl7 Mn3 2.614123 1_455
Cl7 Mn3 2.614123 1_555
Cl8 Mn3 2.538580 1_455
Cl8 Mn3 2.538580 1_555
Cl9 Mn2 2.433396 1_555
Cl9 Tl3 3.203945 1_465
Cl9 Tl3 3.203945 1_565
Cl9 Tl0 3.246025 1_555
Cl9 Tl0 3.246025 1_455
Cl10 Mn0 2.538580 1_454
Cl10 Mn0 2.538580 1_554
Cl11 Mn0 2.433396 1_555
Cl11 Tl1 3.203945 1_655
Cl11 Tl1 3.203945 1_555
Cl11 Tl2 3.246025 1_555
Cl11 Tl2 3.246025 1_655
