# generated using pymatgen
data_BaSnHgS4
_symmetry_space_group_name_H-M   'P 1'
_cell_length_a   6.46951818
_cell_length_b   6.46951818
_cell_length_c   11.09067000
_cell_angle_alpha   90.00000000
_cell_angle_beta   90.00000000
_cell_angle_gamma   117.18815644
_symmetry_Int_Tables_number   1
_chemical_formula_structural   BaSnHgS4
_chemical_formula_sum   'Ba2 Sn2 Hg2 S8'
_cell_volume   412.90762636
_cell_formula_units_Z   2
loop_
 _symmetry_equiv_pos_site_id
 _symmetry_equiv_pos_as_xyz
  1  'x, y, z'
loop_
 _atom_site_type_symbol
 _atom_site_label
 _atom_site_symmetry_multiplicity
 _atom_site_fract_x
 _atom_site_fract_y
 _atom_site_fract_z
 _atom_site_occupancy
  Ba  Ba0  1  0.94957500  0.94957500  0.50000000  1
  Ba  Ba1  1  0.94957500  0.94957500  0.00000000  1
  Sn  Sn0  1  0.25175100  0.67545700  0.75000000  1
  Sn  Sn1  1  0.67545700  0.25175100  0.25000000  1
  Hg  Hg0  1  0.67325400  0.33045400  0.75000000  1
  Hg  Hg1  1  0.33045400  0.67325400  0.25000000  1
  S  S0  1  0.99966000  0.46930700  0.58174800  1
  S  S1  1  0.46930700  0.99966000  0.41825200  1
  S  S2  1  0.64857500  0.75291600  0.75000000  1
  S  S3  1  0.75291600  0.64857500  0.25000000  1
  S  S4  1  0.99966000  0.46930700  0.91825200  1
  S  S5  1  0.46930700  0.99966000  0.08174800  1
  S  S6  1  0.25398700  0.05732200  0.75000000  1
  S  S7  1  0.05732200  0.25398700  0.25000000  1
loop_
_geom_bond_atom_site_label_1
_geom_bond_atom_site_label_2
_geom_bond_distance
_geom_bond_site_symmetry_2
Ba0 S7 3.285972 1_665
Ba0 S6 3.285972 1_665
Ba0 S2 3.291567 1_555
Ba0 S3 3.291567 1_555
Ba0 S1 3.352194 1_655
Ba0 S0 3.352194 1_565
Ba0 S1 3.391327 1_555
Ba0 S0 3.391327 1_555
Ba1 S7 3.285972 1_665
Ba1 S6 3.285972 1_664
Ba1 S2 3.291567 1_554
Ba1 S3 3.291567 1_555
Ba1 S5 3.352194 1_655
Ba1 S4 3.352194 1_564
Ba1 S4 3.391327 1_554
Ba1 S5 3.391327 1_555
Hg0 S6 2.469786 1_555
Hg0 S4 2.648540 1_555
Hg0 S0 2.648540 1_555
Hg0 S2 2.809669 1_555
Hg1 S7 2.469786 1_555
Hg1 S5 2.648540 1_555
Hg1 S1 2.648540 1_555
Hg1 S3 2.809669 1_555
S0 Sn0 2.435766 1_655
S1 Sn1 2.435766 1_565
S2 Sn0 2.380399 1_555
S3 Sn1 2.380399 1_555
S4 Sn0 2.435766 1_655
S5 Sn1 2.435766 1_565
S6 Sn0 2.463907 1_545
S7 Sn1 2.463907 1_455
