# generated using pymatgen
data_CsBSe3
_symmetry_space_group_name_H-M   'P 1'
_cell_length_a   6.20677942
_cell_length_b   7.70296069
_cell_length_c   12.95795499
_cell_angle_alpha   90.00000000
_cell_angle_beta   90.00000000
_cell_angle_gamma   106.82415711
_symmetry_Int_Tables_number   1
_chemical_formula_structural   CsBSe3
_chemical_formula_sum   'Cs4 B4 Se12'
_cell_volume   593.01003007
_cell_formula_units_Z   4
loop_
 _symmetry_equiv_pos_site_id
 _symmetry_equiv_pos_as_xyz
  1  'x, y, z'
loop_
 _atom_site_type_symbol
 _atom_site_label
 _atom_site_symmetry_multiplicity
 _atom_site_fract_x
 _atom_site_fract_y
 _atom_site_fract_z
 _atom_site_occupancy
  Cs  Cs0  1  0.78656679  0.74007043  0.57770197  1
  Cs  Cs1  1  0.21343321  0.25992957  0.42229803  1
  Cs  Cs2  1  0.71343321  0.25992957  0.07770197  1
  Cs  Cs3  1  0.28656679  0.74007043  0.92229803  1
  B  B0  1  0.84318206  0.29482597  0.73075429  1
  B  B1  1  0.34318206  0.29482597  0.76924571  1
  B  B2  1  0.65681794  0.70517403  0.23075429  1
  B  B3  1  0.15681794  0.70517403  0.26924571  1
  Se  Se0  1  0.33799541  0.06472400  0.68201406  1
  Se  Se1  1  0.16359185  0.44840929  0.69551492  1
  Se  Se2  1  0.31870244  0.79867735  0.40467811  1
  Se  Se3  1  0.81870244  0.79867735  0.09532189  1
  Se  Se4  1  0.66359185  0.44840929  0.80448508  1
  Se  Se5  1  0.83799541  0.06472400  0.81798594  1
  Se  Se6  1  0.83640815  0.55159071  0.30448508  1
  Se  Se7  1  0.18129756  0.20132265  0.90467811  1
  Se  Se8  1  0.33640815  0.55159071  0.19551492  1
  Se  Se9  1  0.66200459  0.93527600  0.31798594  1
  Se  Se10  1  0.16200459  0.93527600  0.18201406  1
  Se  Se11  1  0.68129756  0.20132265  0.59532189  1
loop_
_geom_bond_atom_site_label_1
_geom_bond_atom_site_label_2
_geom_bond_distance
_geom_bond_site_symmetry_2
Cs0 Se4 3.643216 1_555
Cs0 Se2 3.797660 1_555
Cs0 Se11 3.800886 1_565
Cs0 Se0 3.852333 1_665
Cs0 Se9 3.854545 1_555
Cs0 Se6 3.872663 1_555
Cs0 Se2 3.908479 1_655
Cs0 Se5 3.948190 1_565
Cs0 Se1 3.987167 1_655
Cs0 Se11 4.016408 1_555
Cs0 Se1 4.159380 1_555
Cs1 Se8 3.643216 1_555
Cs1 Se11 3.797660 1_555
Cs1 Se2 3.800886 1_545
Cs1 Se9 3.852333 1_445
Cs1 Se0 3.854545 1_555
Cs1 Se1 3.872663 1_555
Cs1 Se11 3.908479 1_455
Cs1 Se10 3.948190 1_545
Cs1 Se6 3.987167 1_455
Cs1 Se2 4.016408 1_555
Cs1 Se6 4.159380 1_555
Cs2 Se6 3.643216 1_555
Cs2 Se7 3.797660 1_654
Cs2 Se3 3.800886 1_545
Cs2 Se10 3.852333 1_545
Cs2 Se5 3.854545 1_554
Cs2 Se4 3.872663 1_554
Cs2 Se7 3.908479 1_554
Cs2 Se9 3.948190 1_545
Cs2 Se8 3.987167 1_555
Cs2 Se3 4.016408 1_555
Cs2 Se8 4.159380 1_655
Cs3 Se1 3.643216 1_555
Cs3 Se3 3.797660 1_456
Cs3 Se7 3.800886 1_565
Cs3 Se5 3.852333 1_565
Cs3 Se10 3.854545 1_556
Cs3 Se8 3.872663 1_556
Cs3 Se3 3.908479 1_556
Cs3 Se0 3.948190 1_565
Cs3 Se4 3.987167 1_555
Cs3 Se7 4.016408 1_555
Cs3 Se4 4.159380 1_455
B0 Se11 2.046751 1_555
B0 Se1 2.049672 1_655
B0 Se4 2.078042 1_555
B0 Se5 2.094593 1_555
B1 Se7 2.046751 1_555
B1 Se4 2.049672 1_555
B1 Se1 2.078042 1_555
B1 Se0 2.094593 1_555
B2 Se3 2.046751 1_555
B2 Se8 2.049672 1_555
B2 Se6 2.078042 1_555
B2 Se9 2.094593 1_555
B3 Se2 2.046751 1_555
B3 Se6 2.049672 1_455
B3 Se8 2.078042 1_555
B3 Se10 2.094593 1_555
