# generated using pymatgen
data_K2Th(PSe3)3
_symmetry_space_group_name_H-M   'P 1'
_cell_length_a   7.85756121
_cell_length_b   10.36645180
_cell_length_c   20.66248519
_cell_angle_alpha   93.35969859
_cell_angle_beta   90.00000000
_cell_angle_gamma   90.00000000
_symmetry_Int_Tables_number   1
_chemical_formula_structural   K2Th(PSe3)3
_chemical_formula_sum   'K8 Th4 P12 Se36'
_cell_volume   1680.17065450
_cell_formula_units_Z   4
loop_
 _symmetry_equiv_pos_site_id
 _symmetry_equiv_pos_as_xyz
  1  'x, y, z'
loop_
 _atom_site_type_symbol
 _atom_site_label
 _atom_site_symmetry_multiplicity
 _atom_site_fract_x
 _atom_site_fract_y
 _atom_site_fract_z
 _atom_site_occupancy
  K  K0  1  0.41349305  0.75665411  0.00052033  1
  K  K1  1  0.89845590  0.73779306  0.17713472  1
  K  K2  1  0.58650695  0.24334589  -0.00052033  1
  K  K3  1  0.08650695  0.25665411  0.50052033  1
  K  K4  1  0.10154410  0.26220694  0.82286528  1
  K  K5  1  0.91349305  0.74334589  0.49947967  1
  K  K6  1  0.60154410  0.23779306  0.67713472  1
  K  K7  1  0.39845590  0.76220694  0.32286528  1
  Th  Th0  1  0.40792481  0.74982327  0.64482870  1
  Th  Th1  1  0.59207519  0.25017673  0.35517130  1
  Th  Th2  1  0.90792481  0.75017673  0.85517130  1
  Th  Th3  1  0.09207519  0.24982327  0.14482870  1
  P  P0  1  0.87634238  0.95895109  0.34213792  1
  P  P1  1  0.12365762  0.04104891  0.65786208  1
  P  P2  1  0.11133387  0.05651085  0.98566071  1
  P  P3  1  0.61133387  0.44348915  0.51433929  1
  P  P4  1  0.91399397  0.91694576  0.69261681  1
  P  P5  1  0.08600603  0.08305424  0.30738319  1
  P  P6  1  0.37634238  0.54104891  0.15786208  1
  P  P7  1  0.41399397  0.58305424  0.80738319  1
  P  P8  1  0.88866613  0.94348915  0.01433929  1
  P  P9  1  0.62365762  0.45895109  0.84213792  1
  P  P10  1  0.58600603  0.41694576  0.19261681  1
  P  P11  1  0.38866613  0.55651085  0.48566071  1
  Se  Se0  1  0.17656840  0.00258517  0.21391366  1
  Se  Se1  1  0.04340295  0.73021947  0.70889937  1
  Se  Se2  1  0.28763338  0.43696736  0.06751817  1
  Se  Se3  1  0.32970293  0.00761783  0.72530627  1
  Se  Se4  1  0.02935860  0.23389067  0.65642100  1
  Se  Se5  1  0.22039975  0.58599788  0.88391466  1
  Se  Se6  1  0.69841305  0.53174619  0.60628387  1
  Se  Se7  1  0.80158695  0.03174619  0.10628387  1
  Se  Se8  1  0.67656840  0.49741483  0.28608634  1
  Se  Se9  1  0.30158695  0.46825381  0.39371613  1
  Se  Se10  1  0.82970293  0.49238217  0.77469373  1
  Se  Se11  1  0.52935860  0.26610933  0.84357900  1
  Se  Se12  1  0.70445471  0.95280524  0.93501341  1
  Se  Se13  1  0.52017537  0.24395326  0.50948400  1
  Se  Se14  1  0.97982463  0.74395326  0.00948400  1
  Se  Se15  1  0.29554529  0.04719476  0.06498659  1
  Se  Se16  1  0.32343160  0.50258517  0.71391366  1
  Se  Se17  1  0.47064140  0.73389067  0.15642100  1
  Se  Se18  1  0.21236662  0.93696736  0.56751817  1
  Se  Se19  1  0.45659805  0.23021947  0.20889937  1
  Se  Se20  1  0.47982463  0.75604674  0.49051600  1
  Se  Se21  1  0.79554529  0.45280524  0.43501341  1
  Se  Se22  1  0.19841305  0.96825381  0.89371613  1
  Se  Se23  1  0.78763338  0.06303264  0.43248183  1
  Se  Se24  1  0.17029707  0.50761783  0.22530627  1
  Se  Se25  1  0.54340295  0.76978053  0.79110063  1
  Se  Se26  1  0.67029707  0.99238217  0.27469373  1
  Se  Se27  1  0.71236662  0.56303264  0.93248183  1
  Se  Se28  1  0.95659705  0.26978053  0.29110063  1
  Se  Se29  1  0.97064140  0.76610933  0.34357900  1
  Se  Se30  1  0.82343160  0.99741483  0.78608634  1
  Se  Se31  1  0.27960025  0.08599788  0.38391466  1
  Se  Se32  1  0.20445471  0.54719476  0.56498659  1
  Se  Se33  1  0.77960025  0.41400212  0.11608534  1
  Se  Se34  1  0.02017537  0.25604674  0.99051600  1
  Se  Se35  1  0.72039975  0.91400212  0.61608534  1
loop_
_geom_bond_atom_site_label_1
_geom_bond_atom_site_label_2
_geom_bond_distance
_geom_bond_site_symmetry_2
K0 Se17 3.274625 1_555
K0 Se5 3.276763 1_554
K0 Se27 3.345064 1_554
K0 Se15 3.351776 1_565
K0 Se12 3.393562 1_554
K0 Se14 3.415563 1_455
K0 Se22 3.620117 1_554
K0 Se2 3.796690 1_555
K1 Se17 3.388657 1_555
K1 Se24 3.394862 1_655
K1 Se29 3.480995 1_555
K1 Se14 3.526846 1_555
K1 Se7 3.539933 1_565
K1 Se0 3.555737 1_665
K1 Se33 3.637809 1_555
K1 Se26 3.690429 1_555
K1 Se8 3.869709 1_555
K2 Se11 3.274625 1_554
K2 Se33 3.276763 1_555
K2 Se2 3.345064 1_555
K2 Se12 3.351776 1_544
K2 Se15 3.393562 1_555
K2 Se34 3.415563 1_654
K2 Se7 3.620117 1_555
K2 Se27 3.796690 1_554
K3 Se4 3.274625 1_555
K3 Se31 3.276763 1_555
K3 Se23 3.345064 1_455
K3 Se32 3.351776 1_555
K3 Se21 3.393562 1_455
K3 Se13 3.415563 1_555
K3 Se9 3.620117 1_555
K3 Se18 3.796690 1_545
K4 Se11 3.388657 1_555
K4 Se10 3.394862 1_455
K4 Se4 3.480995 1_555
K4 Se34 3.526846 1_555
K4 Se22 3.539933 1_545
K4 Se30 3.555737 1_445
K4 Se5 3.637809 1_555
K4 Se3 3.690429 1_555
K4 Se16 3.869709 1_555
K5 Se29 3.274625 1_555
K5 Se35 3.276763 1_555
K5 Se18 3.345064 1_655
K5 Se21 3.351776 1_555
K5 Se32 3.393562 1_655
K5 Se20 3.415563 1_555
K5 Se6 3.620117 1_555
K5 Se23 3.796690 1_565
K6 Se4 3.388657 1_655
K6 Se3 3.394862 1_555
K6 Se11 3.480995 1_555
K6 Se13 3.526846 1_555
K6 Se6 3.539933 1_555
K6 Se16 3.555737 1_555
K6 Se35 3.637809 1_545
K6 Se10 3.690429 1_555
K6 Se30 3.869709 1_545
K7 Se29 3.388657 1_455
K7 Se26 3.394862 1_555
K7 Se17 3.480995 1_555
K7 Se20 3.526846 1_555
K7 Se9 3.539933 1_555
K7 Se8 3.555737 1_555
K7 Se31 3.637809 1_565
K7 Se24 3.690429 1_555
K7 Se0 3.869709 1_565
P0 Se29 2.133829 1_555
P0 Se26 2.177140 1_555
P0 Se23 2.213281 1_565
P0 P5 2.234538 1_665
P1 Se4 2.133829 1_555
P1 Se3 2.177140 1_555
P1 Se18 2.213281 1_545
P1 P4 2.234538 1_445
P2 Se22 2.170429 1_545
P2 Se34 2.185729 1_555
P2 Se15 2.193068 1_556
P2 P8 2.205999 1_446
P3 Se6 2.170429 1_555
P3 Se13 2.185729 1_555
P3 Se21 2.193068 1_555
P4 Se30 2.177927 1_555
P4 Se35 2.193140 1_555
P4 Se1 2.229434 1_655
P5 Se0 2.177927 1_555
P5 Se31 2.193140 1_555
P5 Se28 2.229434 1_455
P6 Se17 2.133829 1_555
P6 Se24 2.177140 1_555
P6 Se2 2.213281 1_555
P7 Se16 2.177927 1_555
P7 Se5 2.193140 1_555
P7 Se25 2.229434 1_555
P7 P9 2.234538 1_555
P8 Se7 2.170429 1_565
P8 Se14 2.185729 1_555
P8 Se12 2.193068 1_554
P9 Se11 2.133829 1_555
P9 Se10 2.177140 1_555
P9 Se27 2.213281 1_555
P10 Se8 2.177927 1_555
P10 Se33 2.193140 1_555
P10 Se19 2.229430 1_555
P10 P6 2.234538 1_555
P11 Se9 2.170429 1_555
P11 Se20 2.185729 1_555
P11 Se32 2.193068 1_555
P11 P3 2.205999 1_555
Se0 Th3 3.078332 1_555
Se1 Th0 3.166920 1_555
Se1 Th2 3.199575 1_455
Se2 Th3 3.006636 1_555
Se3 Th0 3.124715 1_545
Se5 Th2 3.065338 1_455
Se6 Th0 3.277790 1_555
Se7 Th3 3.277790 1_655
Se8 Th1 3.078332 1_555
Se9 Th1 3.277790 1_555
Se10 Th2 3.124715 1_555
Se12 Th2 3.046936 1_555
Se13 Th1 3.242511 1_555
Se14 Th2 3.242511 1_554
Se15 Th3 3.046936 1_555
Se16 Th0 3.078332 1_555
Se18 Th0 3.006636 1_555
Se19 Th3 3.166927 1_555
Se19 Th1 3.199573 1_555
Se20 Th0 3.242511 1_555
Se21 Th1 3.046936 1_555
Se22 Th2 3.277790 1_455
Se23 Th1 3.006636 1_555
Se24 Th3 3.124715 1_555
Se25 Th2 3.166920 1_555
Se25 Th0 3.199575 1_555
Se26 Th1 3.124715 1_565
Se27 Th2 3.006636 1_555
Se28 Th1 3.166920 1_555
Se28 Th3 3.199575 1_655
Se30 Th2 3.078332 1_555
Se31 Th1 3.065338 1_555
Se32 Th0 3.046936 1_555
Se33 Th3 3.065338 1_655
Se34 Th3 3.242511 1_556
Se35 Th0 3.065338 1_555
