# generated using pymatgen
data_K2Cu(PS3)3
_symmetry_space_group_name_H-M   'P 1'
_cell_length_a   24.34122500
_cell_length_b   6.90597400
_cell_length_c   10.99058614
_cell_angle_alpha   61.12564788
_cell_angle_beta   90.00000000
_cell_angle_gamma   90.00000000
_symmetry_Int_Tables_number   1
_chemical_formula_structural   K2Cu(PS3)3
_chemical_formula_sum   'K8 Cu4 P12 S36'
_cell_volume   1617.83430427
_cell_formula_units_Z   4
loop_
 _symmetry_equiv_pos_site_id
 _symmetry_equiv_pos_as_xyz
  1  'x, y, z'
loop_
 _atom_site_type_symbol
 _atom_site_label
 _atom_site_symmetry_multiplicity
 _atom_site_fract_x
 _atom_site_fract_y
 _atom_site_fract_z
 _atom_site_occupancy
  K  K0  1  0.54415400  0.49052500  0.73805200  1
  K  K1  1  0.80429900  0.79787800  0.37237700  1
  K  K2  1  0.19570100  0.20212200  0.62762300  1
  K  K3  1  0.69570100  0.79787800  0.87237700  1
  K  K4  1  0.30429900  0.20212200  0.12762300  1
  K  K5  1  0.95584600  0.49052500  0.23805200  1
  K  K6  1  0.04415400  0.50947500  0.76194800  1
  K  K7  1  0.45584600  0.50947500  0.26194800  1
  Cu  Cu0  1  0.89146400  0.73713700  0.69220200  1
  Cu  Cu1  1  0.39146400  0.26286300  0.80779800  1
  Cu  Cu2  1  0.10853600  0.26286300  0.30779800  1
  Cu  Cu3  1  0.60853600  0.73713700  0.19220200  1
  P  P0  1  0.59915400  0.27766500  0.16097400  1
  P  P1  1  0.90084600  0.27766500  0.66097400  1
  P  P2  1  0.89819100  0.24889200  0.98883500  1
  P  P3  1  0.27912300  0.59563700  0.71908400  1
  P  P4  1  0.40084600  0.72233500  0.83902600  1
  P  P5  1  0.77912300  0.40436300  0.78091600  1
  P  P6  1  0.22087700  0.59563700  0.21908400  1
  P  P7  1  0.10180900  0.75110800  0.01116500  1
  P  P8  1  0.09915400  0.72233500  0.33902600  1
  P  P9  1  0.39819100  0.75110800  0.51116500  1
  P  P10  1  0.72087700  0.40436300  0.28091600  1
  P  P11  1  0.60180900  0.24889200  0.48883500  1
  S  S0  1  0.41865100  0.96581900  0.31710400  1
  S  S1  1  0.29663100  0.27220500  0.80708100  1
  S  S2  1  0.92432100  0.55978700  0.91694800  1
  S  S3  1  0.57480200  0.09243100  0.07549100  1
  S  S4  1  0.81309500  0.25387700  0.66625100  1
  S  S5  1  0.18872600  0.78594300  0.01397500  1
  S  S6  1  0.07480200  0.90756900  0.42450900  1
  S  S7  1  0.68690500  0.25387700  0.16625100  1
  S  S8  1  0.43045600  0.89714400  0.63043700  1
  S  S9  1  0.57567900  0.55978700  0.41694800  1
  S  S10  1  0.57249500  0.59164200  0.05813300  1
  S  S11  1  0.81127400  0.21405700  0.98602500  1
  S  S12  1  0.18690500  0.74612300  0.33374900  1
  S  S13  1  0.42432100  0.44021300  0.58305200  1
  S  S14  1  0.31127400  0.78594300  0.51397500  1
  S  S15  1  0.58134900  0.03418100  0.68289600  1
  S  S16  1  0.56954400  0.10285600  0.36956300  1
  S  S17  1  0.92519800  0.09243100  0.57549100  1
  S  S18  1  0.20336900  0.27220500  0.30708100  1
  S  S19  1  0.42750500  0.40835800  0.94186700  1
  S  S20  1  0.70067300  0.32439900  0.80278500  1
  S  S21  1  0.92750500  0.59164200  0.55813300  1
  S  S22  1  0.08134900  0.96581900  0.81710400  1
  S  S23  1  0.20067300  0.67560100  0.69721500  1
  S  S24  1  0.79932700  0.32439900  0.30278500  1
  S  S25  1  0.07249500  0.40835800  0.44186700  1
  S  S26  1  0.29932700  0.67560100  0.19721500  1
  S  S27  1  0.91865100  0.03418100  0.18289600  1
  S  S28  1  0.93045600  0.10285600  0.86956300  1
  S  S29  1  0.42519800  0.90756900  0.92450900  1
  S  S30  1  0.68872600  0.21405700  0.48602500  1
  S  S31  1  0.06954400  0.89714400  0.13043700  1
  S  S32  1  0.31309500  0.74612300  0.83374900  1
  S  S33  1  0.79663100  0.72779500  0.69291900  1
  S  S34  1  0.07567900  0.44021300  0.08305200  1
  S  S35  1  0.70336900  0.72779500  0.19291900  1
loop_
_geom_bond_atom_site_label_1
_geom_bond_atom_site_label_2
_geom_bond_distance
_geom_bond_site_symmetry_2
K0 S9 3.412042 1_555
K0 S3 3.467254 1_556
K0 S13 3.478882 1_555
K0 S19 3.489165 1_555
K0 S15 3.600580 1_555
K0 S15 3.617344 1_565
K0 S8 3.706214 1_555
K1 S33 3.321670 1_555
K1 S35 3.328965 1_555
K1 S24 3.336946 1_565
K1 S27 3.386071 1_565
K1 S21 3.518835 1_555
K1 S4 3.587878 1_555
K1 S24 3.702275 1_555
K2 S18 3.321670 1_555
K2 S1 3.328965 1_555
K2 S23 3.336946 1_545
K2 S22 3.386071 1_545
K2 S25 3.518835 1_555
K2 S12 3.587878 1_555
K2 S23 3.702275 1_555
K3 S35 3.321670 1_556
K3 S33 3.328965 1_555
K3 S20 3.336946 1_565
K3 S15 3.386071 1_565
K3 S10 3.518835 1_556
K3 S7 3.587878 1_556
K3 S20 3.702275 1_555
K4 S1 3.321670 1_554
K4 S18 3.328965 1_555
K4 S26 3.336946 1_545
K4 S0 3.386071 1_545
K4 S19 3.518835 1_554
K4 S32 3.587878 1_554
K4 S26 3.702275 1_555
K5 S2 3.412042 1_554
K5 S17 3.467254 1_555
K5 S34 3.478882 1_655
K5 S25 3.489165 1_655
K5 S27 3.600580 1_555
K5 S27 3.617344 1_565
K5 S31 3.706214 1_655
K6 S34 3.412042 1_556
K6 S6 3.467254 1_555
K6 S2 3.478882 1_455
K6 S21 3.489165 1_455
K6 S22 3.600580 1_555
K6 S22 3.617344 1_545
K6 S28 3.706214 1_455
K7 S13 3.412042 1_555
K7 S29 3.467254 1_554
K7 S9 3.478882 1_555
K7 S10 3.489165 1_555
K7 S0 3.600580 1_555
K7 S0 3.617344 1_545
K7 S16 3.706214 1_555
Cu0 S17 2.302255 1_565
Cu0 S2 2.306358 1_555
Cu0 S33 2.309160 1_555
Cu0 S21 2.319546 1_555
Cu1 S29 2.302255 1_545
Cu1 S13 2.306358 1_555
Cu1 S1 2.309160 1_555
Cu1 S19 2.319546 1_555
Cu2 S6 2.302255 1_545
Cu2 S34 2.306358 1_555
Cu2 S18 2.309160 1_555
Cu2 S25 2.319546 1_555
Cu3 S3 2.302255 1_565
Cu3 S9 2.306358 1_555
Cu3 S35 2.309160 1_555
Cu3 S10 2.319546 1_555
P0 S3 2.007774 1_555
P0 S10 2.008302 1_555
P0 S16 2.135325 1_555
P0 S7 2.140912 1_555
P1 S17 2.007774 1_555
P1 S21 2.008302 1_555
P1 S28 2.135325 1_555
P1 S4 2.140912 1_555
P2 S27 1.985290 1_556
P2 S2 2.000059 1_555
P2 S11 2.131208 1_555
P2 S28 2.151534 1_555
P3 S23 1.970024 1_555
P3 S1 2.004921 1_555
P3 S14 2.135448 1_555
P3 S32 2.148702 1_555
P4 S29 2.007774 1_555
P4 S19 2.008302 1_555
P4 S8 2.135325 1_555
P4 S32 2.140912 1_555
P5 S20 1.970024 1_555
P5 S33 2.004921 1_555
P5 S11 2.135448 1_555
P5 S4 2.148702 1_555
P6 S26 1.970024 1_555
P6 S18 2.004921 1_555
P6 S5 2.135448 1_555
P6 S12 2.148702 1_555
P7 S22 1.985290 1_554
P7 S34 2.000059 1_555
P7 S5 2.131208 1_555
P7 S31 2.151534 1_555
P8 S6 2.007774 1_555
P8 S25 2.008302 1_555
P8 S31 2.135325 1_555
P8 S12 2.140912 1_555
P9 S0 1.985290 1_555
P9 S13 2.000059 1_555
P9 S14 2.131208 1_555
P9 S8 2.151534 1_555
P10 S24 1.970024 1_555
P10 S35 2.004921 1_555
P10 S30 2.135448 1_555
P10 S7 2.148702 1_555
P11 S15 1.985290 1_555
P11 S9 2.000059 1_555
P11 S30 2.131208 1_555
P11 S16 2.151534 1_555
