# generated using pymatgen
data_BaSbAu
_symmetry_space_group_name_H-M   'P 1'
_cell_length_a   4.80366085
_cell_length_b   4.80366018
_cell_length_c   9.47545318
_cell_angle_alpha   90.00000000
_cell_angle_beta   90.00000000
_cell_angle_gamma   120.00000469
_symmetry_Int_Tables_number   1
_chemical_formula_structural   BaSbAu
_chemical_formula_sum   'Ba2 Sb2 Au2'
_cell_volume   189.35431913
_cell_formula_units_Z   2
loop_
 _symmetry_equiv_pos_site_id
 _symmetry_equiv_pos_as_xyz
  1  'x, y, z'
loop_
 _atom_site_type_symbol
 _atom_site_label
 _atom_site_symmetry_multiplicity
 _atom_site_fract_x
 _atom_site_fract_y
 _atom_site_fract_z
 _atom_site_occupancy
  Ba  Ba0  1  -0.00000000  -0.00000000  0.00000000  1
  Ba  Ba1  1  -0.00000000  -0.00000000  0.50000000  1
  Sb  Sb0  1  0.66666700  0.33333300  0.25000000  1
  Sb  Sb1  1  0.33333300  0.66666700  0.75000000  1
  Au  Au0  1  0.33333300  0.66666700  0.25000000  1
  Au  Au1  1  0.66666700  0.33333300  0.75000000  1
loop_
_geom_bond_atom_site_label_1
_geom_bond_atom_site_label_2
_geom_bond_distance
_geom_bond_site_symmetry_2
Ba0 Sb0 3.647357 1_455
Ba0 Sb1 3.647357 1_544
Ba0 Sb0 3.647360 1_445
Ba0 Sb1 3.647360 1_554
Ba0 Sb1 3.647361 1_444
Ba0 Sb0 3.647361 1_555
Ba1 Sb1 3.647357 1_545
Ba1 Sb0 3.647357 1_455
Ba1 Sb0 3.647360 1_445
Ba1 Sb1 3.647360 1_555
Ba1 Sb1 3.647361 1_445
Ba1 Sb0 3.647361 1_555
Au0 Sb0 2.773392 1_565
Au0 Sb0 2.773392 1_455
Au0 Sb0 2.773400 1_555
Au0 Ba1 3.647357 1_565
Au0 Ba0 3.647357 1_565
Au0 Ba1 3.647360 1_555
Au0 Ba0 3.647360 1_555
Au0 Ba1 3.647361 1_665
Au0 Ba0 3.647361 1_665
Au1 Sb1 2.773392 1_545
Au1 Sb1 2.773392 1_655
Au1 Sb1 2.773400 1_555
Au1 Ba1 3.647357 1_655
Au1 Ba0 3.647357 1_656
Au1 Ba1 3.647360 1_665
Au1 Ba0 3.647360 1_666
Au1 Ba1 3.647361 1_555
Au1 Ba0 3.647361 1_556
