# generated using pymatgen
data_V(SeO3)2
_symmetry_space_group_name_H-M   'P 1'
_cell_length_a   11.26106079
_cell_length_b   11.26105578
_cell_length_c   7.76658442
_cell_angle_alpha   90.00000000
_cell_angle_beta   90.00000000
_cell_angle_gamma   90.00000000
_symmetry_Int_Tables_number   1
_chemical_formula_structural   V(SeO3)2
_chemical_formula_sum   'V8 Se16 O48'
_cell_volume   984.89170524
_cell_formula_units_Z   8
loop_
 _symmetry_equiv_pos_site_id
 _symmetry_equiv_pos_as_xyz
  1  'x, y, z'
loop_
 _atom_site_type_symbol
 _atom_site_label
 _atom_site_symmetry_multiplicity
 _atom_site_fract_x
 _atom_site_fract_y
 _atom_site_fract_z
 _atom_site_occupancy
  V  V0  1  -0.00000000  0.50000000  0.10311041  1
  V  V1  1  0.50000000  0.50000000  0.42474621  1
  V  V2  1  -0.00000000  0.00000000  0.67017919  1
  V  V3  1  0.50000000  0.50000000  0.92474621  1
  V  V4  1  -0.00000000  0.00000000  0.17017919  1
  V  V5  1  0.50000000  0.00000000  0.60311512  1
  V  V6  1  -0.00000000  0.50000000  0.60311041  1
  V  V7  1  0.50000000  0.00000000  0.10311512  1
  Se  Se0  1  0.63163649  0.71698324  0.60544884  1
  Se  Se1  1  0.10243264  0.24072743  0.49925609  1
  Se  Se2  1  0.89756736  0.75927257  0.49925609  1
  Se  Se3  1  0.75926813  0.10242425  0.49924113  1
  Se  Se4  1  0.89756736  0.24072743  0.99925609  1
  Se  Se5  1  0.71697491  0.36835909  0.60542918  1
  Se  Se6  1  0.28302509  0.63164091  0.60542918  1
  Se  Se7  1  0.75926813  0.89757575  0.99924113  1
  Se  Se8  1  0.28302509  0.36835909  0.10542918  1
  Se  Se9  1  0.71697491  0.63164091  0.10542918  1
  Se  Se10  1  0.63163649  0.28301676  0.10544884  1
  Se  Se11  1  0.36836351  0.71698324  0.10544884  1
  Se  Se12  1  0.24073187  0.10242425  0.99924113  1
  Se  Se13  1  0.10243264  0.75927257  0.99925609  1
  Se  Se14  1  0.36836351  0.28301676  0.60544884  1
  Se  Se15  1  0.24073187  0.89757575  0.49924113  1
  O  O0  1  0.25559955  0.25491913  0.43757882  1
  O  O1  1  0.50000000  0.50000000  0.21132245  1
  O  O2  1  0.67280278  0.47608672  0.46482936  1
  O  O3  1  -0.00000000  0.00000000  0.38291333  1
  O  O4  1  0.12085804  0.87608333  0.62986933  1
  O  O5  1  -0.00000000  0.50000000  0.39319777  1
  O  O6  1  0.32719722  0.47608672  0.96482936  1
  O  O7  1  0.59533034  0.85557352  0.65384722  1
  O  O8  1  0.35098942  0.90694527  0.64466139  1
  O  O9  1  0.67280278  0.52391328  0.96482936  1
  O  O10  1  0.25492587  0.25559046  0.93756524  1
  O  O11  1  0.90694421  0.35099177  0.14466827  1
  O  O12  1  0.74507413  0.74440954  0.93756524  1
  O  O13  1  0.47608939  0.32719306  0.46484665  1
  O  O14  1  0.50000000  0.00000000  0.89320086  1
  O  O15  1  0.35098942  0.09305473  0.14466139  1
  O  O16  1  0.09305579  0.35099177  0.64466827  1
  O  O17  1  0.87914196  0.12391667  0.62986933  1
  O  O18  1  0.85556039  0.40467831  0.65384000  1
  O  O19  1  0.12392453  0.12085363  0.62987280  1
  O  O20  1  0.40466966  0.85557352  0.15384722  1
  O  O21  1  0.87607547  0.12085363  0.12987280  1
  O  O22  1  0.52391061  0.67280694  0.46484665  1
  O  O23  1  0.87914196  0.87608333  0.12986933  1
  O  O24  1  0.74440045  0.74508087  0.43757882  1
  O  O25  1  0.50000000  0.50000000  0.71132245  1
  O  O26  1  0.74507413  0.25559046  0.43756524  1
  O  O27  1  0.90694421  0.64900823  0.64466827  1
  O  O28  1  0.87607547  0.87914637  0.62987280  1
  O  O29  1  0.74440045  0.25491913  0.93757882  1
  O  O30  1  0.59533034  0.14442648  0.15384722  1
  O  O31  1  -0.00000000  0.00000000  0.88291333  1
  O  O32  1  0.64901058  0.09305473  0.64466139  1
  O  O33  1  -0.00000000  0.50000000  0.89319777  1
  O  O34  1  0.32719722  0.52391328  0.46482936  1
  O  O35  1  0.12392453  0.87914637  0.12987280  1
  O  O36  1  0.47608939  0.67280694  0.96484665  1
  O  O37  1  0.40466966  0.14442648  0.65384722  1
  O  O38  1  0.25492587  0.74440954  0.43756524  1
  O  O39  1  0.12085804  0.12391667  0.12986933  1
  O  O40  1  0.85556039  0.59532169  0.15384000  1
  O  O41  1  0.64901058  0.90694527  0.14466139  1
  O  O42  1  0.09305579  0.64900823  0.14466827  1
  O  O43  1  0.50000000  0.00000000  0.39320086  1
  O  O44  1  0.52391061  0.32719306  0.96484665  1
  O  O45  1  0.14443961  0.59532169  0.65384000  1
  O  O46  1  0.14443961  0.40467831  0.15384000  1
  O  O47  1  0.25559955  0.74508087  0.93757882  1
loop_
_geom_bond_atom_site_label_1
_geom_bond_atom_site_label_2
_geom_bond_distance
_geom_bond_site_symmetry_2
O0 Se1 1.797224 1_555
O0 Se14 1.847281 1_555
O1 V1 1.657574 1_555
O1 V3 2.225719 1_554
O2 Se5 1.706320 1_555
O2 V1 1.989000 1_555
O3 V4 1.652218 1_555
O3 V2 2.231075 1_555
O4 Se15 1.705903 1_555
O4 V2 1.974218 1_565
O5 V6 1.630304 1_555
O5 V0 2.252988 1_555
O6 Se8 1.706320 1_556
O6 V3 1.989000 1_555
O7 Se0 1.656547 1_555
O7 V5 1.988179 1_565
O8 Se15 1.681765 1_555
O8 V5 2.004481 1_565
O9 Se9 1.706320 1_556
O9 V3 1.989000 1_555
O10 Se12 1.797215 1_555
O10 Se8 1.847286 1_556
O11 Se4 1.681784 1_554
O11 V0 2.004479 1_655
O12 Se7 1.797215 1_555
O12 Se9 1.847286 1_556
O13 Se14 1.706332 1_555
O13 V1 1.989062 1_555
O14 V7 1.630317 1_556
O14 V5 2.252975 1_555
O15 Se12 1.681765 1_554
O15 V7 2.004481 1_555
O16 Se1 1.681784 1_555
O16 V6 2.004479 1_555
O17 Se3 1.705903 1_555
O17 V2 1.974218 1_655
O18 Se5 1.656555 1_555
O18 V6 1.988243 1_655
O19 Se1 1.705849 1_555
O19 V2 1.974242 1_555
O20 Se11 1.656547 1_555
O20 V7 1.988179 1_565
O21 Se4 1.705849 1_554
O21 V4 1.974242 1_655
O22 Se0 1.706332 1_555
O22 V1 1.989062 1_555
O23 Se7 1.705903 1_554
O23 V4 1.974218 1_665
O24 Se2 1.797224 1_555
O24 Se0 1.847281 1_555
O25 V3 1.657574 1_555
O25 V1 2.225719 1_555
O26 Se3 1.797215 1_555
O26 Se5 1.847286 1_555
O27 Se2 1.681784 1_555
O27 V6 2.004479 1_655
O28 Se2 1.705849 1_555
O28 V2 1.974242 1_665
O29 Se4 1.797224 1_555
O29 Se10 1.847281 1_556
O30 Se10 1.656547 1_555
O30 V7 1.988179 1_555
O31 V2 1.652218 1_555
O31 V4 2.231075 1_556
O32 Se3 1.681765 1_555
O32 V5 2.004481 1_555
O33 V0 1.630304 1_556
O33 V6 2.252988 1_555
O34 Se6 1.706320 1_555
O34 V1 1.989000 1_555
O35 Se13 1.705849 1_554
O35 V4 1.974242 1_565
O36 Se11 1.706332 1_556
O36 V3 1.989062 1_555
O37 Se14 1.656547 1_555
O37 V5 1.988179 1_555
O38 Se15 1.797215 1_555
O38 Se6 1.847286 1_555
O39 Se12 1.705903 1_554
O39 V4 1.974218 1_555
O40 Se9 1.656555 1_555
O40 V0 1.988243 1_655
O41 Se7 1.681765 1_554
O41 V7 2.004481 1_565
O42 Se13 1.681784 1_554
O42 V0 2.004479 1_555
O43 V5 1.630317 1_555
O43 V7 2.252975 1_555
O44 Se10 1.706332 1_556
O44 V3 1.989062 1_555
O45 Se6 1.656555 1_555
O45 V6 1.988243 1_555
O46 Se8 1.656555 1_555
O46 V0 1.988243 1_555
O47 Se13 1.797224 1_555
O47 Se11 1.847281 1_556
