# generated using pymatgen
data_Y(SiRu)2
_symmetry_space_group_name_H-M   'P 1'
_cell_length_a   4.16743371
_cell_length_b   4.16743211
_cell_length_c   5.60696258
_cell_angle_alpha   111.81617966
_cell_angle_beta   111.81617863
_cell_angle_gamma   89.99999824
_symmetry_Int_Tables_number   1
_chemical_formula_structural   Y(SiRu)2
_chemical_formula_sum   'Y1 Si2 Ru2'
_cell_volume   82.84548901
_cell_formula_units_Z   1
loop_
 _symmetry_equiv_pos_site_id
 _symmetry_equiv_pos_as_xyz
  1  'x, y, z'
loop_
 _atom_site_type_symbol
 _atom_site_label
 _atom_site_symmetry_multiplicity
 _atom_site_fract_x
 _atom_site_fract_y
 _atom_site_fract_z
 _atom_site_occupancy
  Y  Y0  1  -0.00000000  0.00000000  -0.00000000  1
  Si  Si0  1  0.36724653  0.36724653  0.73449305  1
  Si  Si1  1  0.63275347  0.63275347  0.26550695  1
  Ru  Ru0  1  0.75000000  0.25000000  0.50000000  1
  Ru  Ru1  1  0.25000000  0.75000000  0.50000000  1
loop_
_geom_bond_atom_site_label_1
_geom_bond_atom_site_label_2
_geom_bond_distance
_geom_bond_site_symmetry_2
Si0 Y0 3.207458 1_556
Si0 Y0 3.207458 1_566
Si0 Y0 3.207458 1_656
Si0 Y0 3.207459 1_666
Si1 Y0 3.207458 1_665
Si1 Y0 3.207458 1_655
Si1 Y0 3.207458 1_565
Si1 Y0 3.207459 1_555
Ru0 Si1 2.364966 1_555
Ru0 Si1 2.364966 1_545
Ru0 Si0 2.364966 1_555
Ru0 Si0 2.364967 1_655
Ru0 Y0 3.167088 1_656
Ru0 Y0 3.167088 1_655
Ru0 Y0 3.167088 1_666
Ru0 Y0 3.167089 1_555
Ru1 Si0 2.364966 1_555
Ru1 Si0 2.364966 1_565
Ru1 Si1 2.364966 1_555
Ru1 Si1 2.364967 1_455
Ru1 Y0 3.167088 1_565
Ru1 Y0 3.167088 1_566
Ru1 Y0 3.167088 1_555
Ru1 Y0 3.167089 1_666
