# generated using pymatgen
data_K3Mo2BrO7
_symmetry_space_group_name_H-M   'P 1'
_cell_length_a   6.15560225
_cell_length_b   6.15560225
_cell_length_c   15.93393700
_cell_angle_alpha   90.00000000
_cell_angle_beta   90.00000000
_cell_angle_gamma   120.00000272
_symmetry_Int_Tables_number   1
_chemical_formula_structural   K3Mo2BrO7
_chemical_formula_sum   'K6 Mo4 Br2 O14'
_cell_volume   522.87131324
_cell_formula_units_Z   2
loop_
 _symmetry_equiv_pos_site_id
 _symmetry_equiv_pos_as_xyz
  1  'x, y, z'
loop_
 _atom_site_type_symbol
 _atom_site_label
 _atom_site_symmetry_multiplicity
 _atom_site_fract_x
 _atom_site_fract_y
 _atom_site_fract_z
 _atom_site_occupancy
  K  K0  1  0.66666700  0.33333300  0.45851200  1
  K  K1  1  0.33333300  0.66666700  0.54148800  1
  K  K2  1  0.33333300  0.66666700  0.95851200  1
  K  K3  1  0.66666700  0.33333300  0.75000000  1
  K  K4  1  0.66666700  0.33333300  0.04148800  1
  K  K5  1  0.33333300  0.66666700  0.25000000  1
  Mo  Mo0  1  0.00000000  0.00000000  0.36962100  1
  Mo  Mo1  1  0.00000000  0.00000000  0.13037900  1
  Mo  Mo2  1  0.00000000  0.00000000  0.63037900  1
  Mo  Mo3  1  0.00000000  0.00000000  0.86962100  1
  Br  Br0  1  0.66666700  0.33333300  0.25000000  1
  Br  Br1  1  0.33333300  0.66666700  0.75000000  1
  O  O0  1  0.84449700  0.15550300  0.59180200  1
  O  O1  1  0.15550300  0.84449700  0.40819800  1
  O  O2  1  0.84449700  0.68899500  0.90819800  1
  O  O3  1  0.15550300  0.31100500  0.40819800  1
  O  O4  1  0.15550300  0.84449700  0.09180200  1
  O  O5  1  0.31100500  0.15550300  0.59180200  1
  O  O6  1  0.68899500  0.84449700  0.40819800  1
  O  O7  1  0.31100500  0.15550300  0.90819800  1
  O  O8  1  0.68899500  0.84449700  0.09180200  1
  O  O9  1  0.00000000  0.00000000  0.75000000  1
  O  O10  1  0.15550300  0.31100500  0.09180200  1
  O  O11  1  0.84449700  0.68899500  0.59180200  1
  O  O12  1  0.00000000  0.00000000  0.25000000  1
  O  O13  1  0.84449700  0.15550300  0.90819800  1
loop_
_geom_bond_atom_site_label_1
_geom_bond_atom_site_label_2
_geom_bond_distance
_geom_bond_site_symmetry_2
K0 O0 2.847008 1_555
K0 O5 2.847015 1_555
K0 O11 2.847015 1_555
K0 O1 3.182727 1_545
K0 O1 3.182727 1_655
K0 O3 3.182727 1_555
K0 O6 3.182727 1_555
K0 O6 3.182727 1_545
K0 O3 3.182727 1_655
K1 O1 2.847008 1_555
K1 O3 2.847015 1_555
K1 O6 2.847015 1_555
K1 O0 3.182727 1_455
K1 O0 3.182727 1_565
K1 O5 3.182727 1_555
K1 O11 3.182727 1_555
K1 O11 3.182727 1_455
K1 O5 3.182727 1_565
K2 O4 2.847008 1_556
K2 O8 2.847015 1_556
K2 O10 2.847015 1_556
K2 O13 3.182727 1_455
K2 O13 3.182727 1_565
K2 O7 3.182727 1_555
K2 O2 3.182727 1_555
K2 O2 3.182727 1_455
K2 O7 3.182727 1_565
K3 O13 3.154171 1_555
K3 O0 3.154171 1_555
K3 O5 3.154177 1_555
K3 O2 3.154177 1_555
K3 O11 3.154177 1_555
K3 O7 3.154177 1_555
K4 O13 2.847008 1_554
K4 O2 2.847015 1_554
K4 O7 2.847015 1_554
K4 O4 3.182727 1_545
K4 O4 3.182727 1_655
K4 O10 3.182727 1_555
K4 O8 3.182727 1_555
K4 O8 3.182727 1_545
K4 O10 3.182727 1_655
K5 O4 3.154171 1_555
K5 O1 3.154171 1_555
K5 O10 3.154177 1_555
K5 O6 3.154177 1_555
K5 O8 3.154177 1_555
K5 O3 3.154177 1_555
Mo0 O3 1.768219 1_555
Mo0 O6 1.768219 1_445
Mo0 O1 1.768224 1_545
Mo0 O12 1.906033 1_555
Mo1 O10 1.768219 1_555
Mo1 O8 1.768219 1_445
Mo1 O4 1.768224 1_545
Mo1 O12 1.906033 1_555
Mo2 O5 1.768219 1_555
Mo2 O11 1.768219 1_445
Mo2 O0 1.768224 1_455
Mo2 O9 1.906033 1_555
Mo3 O7 1.768219 1_555
Mo3 O2 1.768219 1_445
Mo3 O13 1.768224 1_455
Mo3 O9 1.906033 1_555
Br0 K0 3.322417 1_555
Br0 K4 3.322417 1_555
Br0 K5 3.553935 1_545
Br0 K5 3.553935 1_655
Br0 K5 3.553946 1_555
Br1 K2 3.322417 1_555
Br1 K1 3.322417 1_555
Br1 K3 3.553935 1_455
Br1 K3 3.553935 1_565
Br1 K3 3.553946 1_555
