# generated using pymatgen
data_Tm(GeRu)2
_symmetry_space_group_name_H-M   'P 1'
_cell_length_a   4.22560581
_cell_length_b   4.22560552
_cell_length_c   5.70738386
_cell_angle_alpha   111.72719064
_cell_angle_beta   111.72719139
_cell_angle_gamma   90.00001228
_symmetry_Int_Tables_number   1
_chemical_formula_structural   Tm(GeRu)2
_chemical_formula_sum   'Tm1 Ge2 Ru2'
_cell_volume   86.82804767
_cell_formula_units_Z   1
loop_
 _symmetry_equiv_pos_site_id
 _symmetry_equiv_pos_as_xyz
  1  'x, y, z'
loop_
 _atom_site_type_symbol
 _atom_site_label
 _atom_site_symmetry_multiplicity
 _atom_site_fract_x
 _atom_site_fract_y
 _atom_site_fract_z
 _atom_site_occupancy
  Tm  Tm0  1  0.00000000  0.00000000  0.00000000  1
  Ge  Ge0  1  0.37019922  0.37019922  0.74040044  1
  Ge  Ge1  1  0.62980078  0.62980078  0.25959956  1
  Ru  Ru0  1  0.75000000  0.25000000  0.50000000  1
  Ru  Ru1  1  0.25000000  0.75000000  0.50000000  1
loop_
_geom_bond_atom_site_label_1
_geom_bond_atom_site_label_2
_geom_bond_distance
_geom_bond_site_symmetry_2
Ge0 Ru1 2.414642 1_545
Ge0 Ru0 2.414642 1_455
Ge0 Ru1 2.414650 1_555
Ge0 Ru0 2.414650 1_555
Ge0 Ge1 2.524736 1_556
Ge0 Tm0 3.243672 1_556
Ge0 Tm0 3.243678 1_566
Ge0 Tm0 3.243678 1_656
Ge0 Tm0 3.243683 1_666
Ge1 Ru0 2.414642 1_565
Ge1 Ru1 2.414642 1_655
Ge1 Ru0 2.414650 1_555
Ge1 Ru1 2.414650 1_555
Ge1 Tm0 3.243672 1_665
Ge1 Tm0 3.243678 1_655
Ge1 Tm0 3.243678 1_565
Ge1 Tm0 3.243683 1_555
Ru0 Tm0 3.221106 1_666
Ru0 Tm0 3.221106 1_555
Ru0 Tm0 3.221106 1_656
Ru0 Tm0 3.221106 1_655
Ru1 Tm0 3.221106 1_555
Ru1 Tm0 3.221106 1_666
Ru1 Tm0 3.221106 1_565
Ru1 Tm0 3.221106 1_566
