# generated using pymatgen
data_CsHSO4
_symmetry_space_group_name_H-M   'P 1'
_cell_length_a   7.73265102
_cell_length_b   7.58094715
_cell_length_c   8.01376746
_cell_angle_alpha   90.00000000
_cell_angle_beta   90.00000000
_cell_angle_gamma   105.65148318
_symmetry_Int_Tables_number   1
_chemical_formula_structural   CsHSO4
_chemical_formula_sum   'Cs4 H4 S4 O16'
_cell_volume   452.35465778
_cell_formula_units_Z   4
loop_
 _symmetry_equiv_pos_site_id
 _symmetry_equiv_pos_as_xyz
  1  'x, y, z'
loop_
 _atom_site_type_symbol
 _atom_site_label
 _atom_site_symmetry_multiplicity
 _atom_site_fract_x
 _atom_site_fract_y
 _atom_site_fract_z
 _atom_site_occupancy
  Cs  Cs0  1  0.18896908  0.21772531  0.87374200  1
  Cs  Cs1  1  0.31103092  0.78227469  0.37374200  1
  Cs  Cs2  1  0.81103092  0.78227469  0.12625800  1
  Cs  Cs3  1  0.68896908  0.21772531  0.62625800  1
  H  H0  1  0.48644992  0.35469094  0.15036803  1
  H  H1  1  0.01355008  0.64530906  0.65036803  1
  H  H2  1  0.51355008  0.64530906  0.84963197  1
  H  H3  1  0.98644992  0.35469094  0.34963197  1
  S  S0  1  0.21846136  0.24629457  0.36179209  1
  S  S1  1  0.28153864  0.75370543  0.86179209  1
  S  S2  1  0.78153864  0.75370543  0.63820791  1
  S  S3  1  0.71846136  0.24629457  0.13820791  1
  O  O0  1  0.07713707  0.33887055  0.43709454  1
  O  O1  1  0.42286293  0.66112945  0.93709454  1
  O  O2  1  0.92286293  0.66112945  0.56290546  1
  O  O3  1  0.57713707  0.33887055  0.06290546  1
  O  O4  1  0.33937777  0.39043155  0.26116949  1
  O  O5  1  0.16062223  0.60956845  0.76116949  1
  O  O6  1  0.66062223  0.60956845  0.73883051  1
  O  O7  1  0.83937777  0.39043155  0.23883051  1
  O  O8  1  0.30596143  0.19514798  0.50526644  1
  O  O9  1  0.19403857  0.80485202  0.00526644  1
  O  O10  1  0.69403857  0.80485202  0.49473356  1
  O  O11  1  0.80596143  0.19514798  0.99473356  1
  O  O12  1  0.12260034  0.09415758  0.25953907  1
  O  O13  1  0.37739966  0.90584242  0.75953907  1
  O  O14  1  0.87739966  0.90584242  0.74046093  1
  O  O15  1  0.62260034  0.09415758  0.24046093  1
loop_
_geom_bond_atom_site_label_1
_geom_bond_atom_site_label_2
_geom_bond_distance
_geom_bond_site_symmetry_2
Cs0 O14 3.076031 1_445
Cs0 O11 3.076907 1_455
Cs0 O8 3.106564 1_555
Cs0 H0 3.161503 1_556
Cs0 O5 3.168176 1_555
Cs0 O13 3.226408 1_545
Cs0 O12 3.231105 1_556
Cs0 O3 3.265494 1_556
Cs0 O9 3.312912 1_546
Cs0 O1 3.398189 1_555
Cs0 O4 3.447429 1_556
Cs1 O15 3.076031 1_565
Cs1 O10 3.076907 1_555
Cs1 O9 3.106564 1_555
Cs1 H1 3.161503 1_555
Cs1 O4 3.168176 1_555
Cs1 O12 3.226408 1_565
Cs1 O13 3.231105 1_555
Cs1 O2 3.265494 1_455
Cs1 O8 3.312912 1_565
Cs1 O0 3.398189 1_555
Cs1 O5 3.447429 1_555
Cs2 O12 3.076031 1_665
Cs2 O9 3.076907 1_655
Cs2 O10 3.106564 1_555
Cs2 H2 3.161503 1_554
Cs2 O7 3.168176 1_555
Cs2 O15 3.226408 1_565
Cs2 O14 3.231105 1_554
Cs2 O1 3.265494 1_554
Cs2 O11 3.312912 1_564
Cs2 O3 3.398189 1_555
Cs2 O6 3.447429 1_554
Cs3 O13 3.076031 1_545
Cs3 O8 3.076907 1_555
Cs3 O11 3.106564 1_555
Cs3 H3 3.161503 1_555
Cs3 O6 3.168176 1_555
Cs3 O14 3.226408 1_545
Cs3 O15 3.231105 1_555
Cs3 O0 3.265494 1_655
Cs3 O10 3.312912 1_545
Cs3 O2 3.398189 1_555
Cs3 O7 3.447429 1_555
H0 O3 1.021169 1_555
H0 O4 1.523634 1_555
H1 O2 1.021169 1_455
H1 O5 1.523634 1_555
H2 O1 1.021169 1_555
H2 O6 1.523634 1_555
H3 O0 1.021169 1_655
H3 O7 1.523634 1_555
O0 S0 1.569956 1_555
O1 S1 1.569956 1_555
O2 S2 1.569956 1_555
O3 S3 1.569956 1_555
O4 S0 1.472133 1_555
O5 S1 1.472133 1_555
O6 S2 1.472133 1_555
O7 S3 1.472133 1_555
O8 S0 1.439328 1_555
O9 S1 1.439328 1_554
O10 S2 1.439328 1_555
O11 S3 1.439328 1_556
O12 S0 1.445628 1_555
O13 S1 1.445628 1_555
O14 S2 1.445628 1_555
O15 S3 1.445628 1_555
