# generated using pymatgen
data_Ba2V5(PO6)4
_symmetry_space_group_name_H-M   'P 1'
_cell_length_a   13.27209765
_cell_length_b   13.27209765
_cell_length_c   7.81630574
_cell_angle_alpha   79.10020509
_cell_angle_beta   79.10020509
_cell_angle_gamma   123.76410227
_symmetry_Int_Tables_number   1
_chemical_formula_structural   Ba2V5(PO6)4
_chemical_formula_sum   'Ba4 V10 P8 O48'
_cell_volume   1048.43541449
_cell_formula_units_Z   2
loop_
 _symmetry_equiv_pos_site_id
 _symmetry_equiv_pos_as_xyz
  1  'x, y, z'
loop_
 _atom_site_type_symbol
 _atom_site_label
 _atom_site_symmetry_multiplicity
 _atom_site_fract_x
 _atom_site_fract_y
 _atom_site_fract_z
 _atom_site_occupancy
  Ba  Ba0  1  0.96990000  0.47375400  0.53164600  1
  Ba  Ba1  1  0.26656000  0.26656000  0.99516900  1
  Ba  Ba2  1  0.12000600  0.12000600  0.57453000  1
  Ba  Ba3  1  0.47375400  0.96990000  0.53164600  1
  V  V0  1  0.59234200  0.22920500  0.79397000  1
  V  V1  1  0.38855100  0.66465000  0.32389600  1
  V  V2  1  0.78426400  0.07023800  0.73414400  1
  V  V3  1  0.22782700  0.85423200  0.26846800  1
  V  V4  1  0.66465000  0.38855100  0.32389600  1
  V  V5  1  0.57175700  0.57175700  0.82045400  1
  V  V6  1  0.07023800  0.78426400  0.73414400  1
  V  V7  1  0.22920500  0.59234200  0.79397000  1
  V  V8  1  0.91572700  0.91572700  0.20279000  1
  V  V9  1  0.85423200  0.22782700  0.26846800  1
  P  P0  1  0.51696300  0.77724200  0.84600600  1
  P  P1  1  0.68546700  0.94143900  0.21414200  1
  P  P2  1  0.28780300  0.02255000  0.84766100  1
  P  P3  1  0.42656800  0.16403100  0.21711800  1
  P  P4  1  0.94143900  0.68546700  0.21414200  1
  P  P5  1  0.02255000  0.28780300  0.84766100  1
  P  P6  1  0.77724200  0.51696300  0.84600600  1
  P  P7  1  0.16403100  0.42656800  0.21711800  1
  O  O0  1  0.83415700  0.53563900  0.31581400  1
  O  O1  1  0.15552600  0.65045500  0.86242100  1
  O  O2  1  0.12562800  0.27195200  0.77902300  1
  O  O3  1  0.29198600  0.65546900  0.54066000  1
  O  O4  1  0.48220200  0.48220200  0.04165300  1
  O  O5  1  0.08069800  0.43587100  0.79181500  1
  O  O6  1  0.17618600  0.32128800  0.28718400  1
  O  O7  1  0.37759200  0.02062300  0.26940700  1
  O  O8  1  0.02953000  0.87130000  0.64143000  1
  O  O9  1  0.05206500  0.70973200  0.28589500  1
  O  O10  1  0.58998300  0.72679200  0.76820300  1
  O  O11  1  0.02062300  0.37759200  0.26940700  1
  O  O12  1  0.48360000  0.48360000  0.70954700  1
  O  O13  1  0.79087600  0.17569500  0.51193300  1
  O  O14  1  0.02559400  0.02559400  0.27274200  1
  O  O15  1  0.47006300  0.72578000  0.05936700  1
  O  O16  1  0.22398100  0.95937400  0.06528600  1
  O  O17  1  0.97413300  0.97413300  0.97383200  1
  O  O18  1  0.75767500  0.89086800  0.28375100  1
  O  O19  1  0.27195200  0.12562800  0.77902300  1
  O  O20  1  0.98324300  0.72605000  0.00436100  1
  O  O21  1  0.30892700  0.80479000  0.19040500  1
  O  O22  1  0.70973200  0.05206500  0.28589500  1
  O  O23  1  0.80479000  0.30892700  0.19040500  1
  O  O24  1  0.32128800  0.17618600  0.28718400  1
  O  O25  1  0.23075900  0.48703300  0.99686700  1
  O  O26  1  0.72605000  0.98324300  0.00436100  1
  O  O27  1  0.40103700  0.73376500  0.77809300  1
  O  O28  1  0.53563900  0.83415700  0.31581400  1
  O  O29  1  0.57468500  0.42718600  0.39635500  1
  O  O30  1  0.43587100  0.08069800  0.79181500  1
  O  O31  1  0.23944500  0.91955000  0.75318600  1
  O  O32  1  0.53671000  0.22316100  0.30014400  1
  O  O33  1  0.65045500  0.15552600  0.86242100  1
  O  O34  1  0.73376500  0.40103700  0.77809300  1
  O  O35  1  0.42718600  0.57468500  0.39635500  1
  O  O36  1  0.87130000  0.02953000  0.64143000  1
  O  O37  1  0.91955000  0.23944500  0.75318600  1
  O  O38  1  0.22316100  0.53671000  0.30014400  1
  O  O39  1  0.17569500  0.79087600  0.51193300  1
  O  O40  1  0.65546900  0.29198600  0.54066000  1
  O  O41  1  0.92630800  0.60396500  0.75513500  1
  O  O42  1  0.89086800  0.75767500  0.28375100  1
  O  O43  1  0.48703300  0.23075900  0.99686700  1
  O  O44  1  0.72679200  0.58998300  0.76820300  1
  O  O45  1  0.60396500  0.92630800  0.75513500  1
  O  O46  1  0.95937400  0.22398100  0.06528600  1
  O  O47  1  0.72578000  0.47006300  0.05936700  1
loop_
_geom_bond_atom_site_label_1
_geom_bond_atom_site_label_2
_geom_bond_distance
_geom_bond_site_symmetry_2
Ba0 O11 2.775972 1_655
Ba0 O9 2.797171 1_655
Ba0 O34 2.848831 1_555
Ba0 O5 2.848978 1_655
Ba0 O41 2.871181 1_555
Ba0 O37 2.886472 1_555
Ba0 O0 3.006083 1_555
Ba0 O38 3.045804 1_655
Ba1 O12 2.737165 1_555
Ba1 O2 2.766983 1_555
Ba1 O19 2.766983 1_555
Ba1 O6 2.781371 1_556
Ba1 O24 2.781371 1_556
Ba1 O4 2.862862 1_556
Ba1 O14 2.923363 1_556
Ba1 O25 3.216520 1_555
Ba1 O43 3.216520 1_555
Ba2 O8 2.704611 1_545
Ba2 O36 2.704611 1_455
Ba2 O24 2.760515 1_555
Ba2 O6 2.760515 1_555
Ba2 O2 2.779226 1_555
Ba2 O19 2.779226 1_555
Ba2 O17 2.915619 1_445
Ba2 O14 3.032306 1_555
Ba3 O7 2.775972 1_565
Ba3 O22 2.797171 1_565
Ba3 O27 2.848831 1_555
Ba3 O30 2.848978 1_565
Ba3 O45 2.871181 1_555
Ba3 O31 2.886472 1_555
Ba3 O28 3.006083 1_555
Ba3 O32 3.045804 1_565
O0 P4 1.562172 1_555
O0 V4 1.973335 1_555
O1 V7 1.622936 1_555
O2 P5 1.512846 1_555
O3 V7 1.813611 1_555
O3 V1 1.858806 1_555
O4 V5 1.640151 1_554
O5 P5 1.584434 1_555
O5 V7 1.916721 1_555
O6 P7 1.507625 1_555
O7 P3 1.562802 1_555
O7 V3 1.990046 1_545
O8 V6 1.636047 1_555
O9 P4 1.558243 1_455
O9 V3 1.986567 1_555
O10 P0 1.552343 1_555
O10 V5 1.884346 1_555
O11 P7 1.562802 1_555
O11 V9 1.990046 1_455
O12 V5 1.653757 1_555
O13 V9 1.748536 1_555
O13 V2 1.967198 1_555
O14 V8 1.670644 1_445
O15 P0 1.529457 1_554
O15 V1 1.909913 1_555
O16 P2 1.562134 1_564
O16 V3 1.934885 1_555
O17 V8 1.639292 1_556
O18 P1 1.561738 1_555
O18 V8 1.886613 1_555
O19 P2 1.512846 1_555
O20 P4 1.508762 1_555
O20 V6 1.964699 1_654
O21 V3 1.627762 1_555
O22 P1 1.558243 1_545
O22 V9 1.986567 1_555
O23 V9 1.627762 1_555
O24 P3 1.507625 1_555
O25 P7 1.582087 1_556
O25 V7 1.917067 1_555
O26 P1 1.508762 1_555
O26 V2 1.964699 1_564
O27 P0 1.555584 1_555
O27 V7 1.945829 1_555
O28 P1 1.562172 1_555
O28 V1 1.973335 1_555
O29 V4 1.595000 1_555
O30 P2 1.584434 1_555
O30 V0 1.916721 1_555
O31 P2 1.552979 1_565
O31 V6 2.008678 1_555
O32 P3 1.565288 1_555
O32 V4 1.966311 1_555
O33 V0 1.622936 1_555
O34 P6 1.555584 1_555
O34 V0 1.945829 1_555
O35 V1 1.595000 1_555
O36 V2 1.636047 1_555
O37 P5 1.552979 1_655
O37 V2 2.008678 1_555
O38 P7 1.565288 1_555
O38 V1 1.966311 1_555
O39 V3 1.748536 1_555
O39 V6 1.967198 1_555
O40 V0 1.813611 1_555
O40 V4 1.858806 1_555
O41 P6 1.539821 1_555
O41 V6 2.013486 1_655
O42 P4 1.561738 1_555
O42 V8 1.886613 1_555
O43 P3 1.582087 1_556
O43 V0 1.917067 1_555
O44 P6 1.552343 1_555
O44 V5 1.884346 1_555
O45 P0 1.539821 1_555
O45 V2 2.013486 1_565
O46 P5 1.562134 1_654
O46 V9 1.934885 1_555
O47 P6 1.529457 1_554
O47 V4 1.909913 1_555
