# generated using pymatgen
data_Sr4Mn2CoO9
_symmetry_space_group_name_H-M   'P 1'
_cell_length_a   9.69705031
_cell_length_b   9.69705031
_cell_length_c   7.88733400
_cell_angle_alpha   90.00000000
_cell_angle_beta   90.00000000
_cell_angle_gamma   120.00000212
_symmetry_Int_Tables_number   1
_chemical_formula_structural   Sr4Mn2CoO9
_chemical_formula_sum   'Sr12 Mn6 Co3 O27'
_cell_volume   642.30329818
_cell_formula_units_Z   3
loop_
 _symmetry_equiv_pos_site_id
 _symmetry_equiv_pos_as_xyz
  1  'x, y, z'
loop_
 _atom_site_type_symbol
 _atom_site_label
 _atom_site_symmetry_multiplicity
 _atom_site_fract_x
 _atom_site_fract_y
 _atom_site_fract_z
 _atom_site_occupancy
  Sr  Sr0  1  0.33345100  0.30955000  0.75020100  1
  Sr  Sr1  1  0.66654900  0.97609900  0.24979900  1
  Sr  Sr2  1  0.00000000  0.35751200  0.50000000  1
  Sr  Sr3  1  0.64248800  0.64248800  0.50000000  1
  Sr  Sr4  1  0.30955000  0.33345100  0.24979900  1
  Sr  Sr5  1  0.00000000  0.32759800  0.00000000  1
  Sr  Sr6  1  0.67240200  0.67240200  0.00000000  1
  Sr  Sr7  1  0.97609900  0.66654900  0.75020100  1
  Sr  Sr8  1  0.35751200  0.00000000  0.50000000  1
  Sr  Sr9  1  0.02390100  0.69045000  0.24979900  1
  Sr  Sr10  1  0.32759800  0.00000000  0.00000000  1
  Sr  Sr11  1  0.69045000  0.02390100  0.75020100  1
  Mn  Mn0  1  0.00000000  0.00000000  0.83536000  1
  Mn  Mn1  1  0.66666700  0.33333300  0.92775100  1
  Mn  Mn2  1  0.33333300  0.66666700  0.07224900  1
  Mn  Mn3  1  0.33333300  0.66666700  0.40538600  1
  Mn  Mn4  1  0.00000000  0.00000000  0.16464000  1
  Mn  Mn5  1  0.66666700  0.33333300  0.59461400  1
  Co  Co0  1  0.66666700  0.33333300  0.25897400  1
  Co  Co1  1  0.00000000  0.00000000  0.50000000  1
  Co  Co2  1  0.33333300  0.66666700  0.74102600  1
  O  O0  1  0.68219600  0.18152700  0.45565100  1
  O  O1  1  0.83507400  0.84292100  0.69785700  1
  O  O2  1  0.34871800  0.82964800  0.24044100  1
  O  O3  1  0.31780400  0.49933000  0.54434900  1
  O  O4  1  0.49933000  0.31780400  0.45565100  1
  O  O5  1  0.00000000  0.84773500  0.00000000  1
  O  O6  1  0.17035200  0.51907000  0.24044100  1
  O  O7  1  0.18295300  0.67944200  0.93412700  1
  O  O8  1  0.67944200  0.18295300  0.06587300  1
  O  O9  1  0.82964800  0.34871800  0.75955900  1
  O  O10  1  0.32055800  0.50351200  0.93412700  1
  O  O11  1  0.16492600  0.00784700  0.30214300  1
  O  O12  1  0.18152700  0.68219600  0.54434900  1
  O  O13  1  0.81847300  0.50067000  0.45565100  1
  O  O14  1  0.84773500  0.00000000  0.00000000  1
  O  O15  1  0.15226500  0.15226500  0.00000000  1
  O  O16  1  0.65128200  0.48093000  0.75955900  1
  O  O17  1  0.49648800  0.81704700  0.93412700  1
  O  O18  1  0.99215300  0.15707900  0.30214300  1
  O  O19  1  0.00784700  0.16492600  0.69785700  1
  O  O20  1  0.50351200  0.32055800  0.06587300  1
  O  O21  1  0.48093000  0.65128200  0.24044100  1
  O  O22  1  0.50067000  0.81847300  0.54434900  1
  O  O23  1  0.84292100  0.83507400  0.30214300  1
  O  O24  1  0.15707900  0.99215300  0.69785700  1
  O  O25  1  0.51907000  0.17035200  0.75955900  1
  O  O26  1  0.81704700  0.49648800  0.06587300  1
loop_
_geom_bond_atom_site_label_1
_geom_bond_atom_site_label_2
_geom_bond_distance
_geom_bond_site_symmetry_2
Mn0 O1 1.902118 1_445
Mn0 O19 1.902118 1_555
Mn0 O24 1.902118 1_545
Mn0 O15 1.966317 1_556
Mn0 O5 1.966317 1_546
Mn0 O14 1.966317 1_456
Mn1 O26 1.873309 1_556
Mn1 O20 1.873309 1_556
Mn1 O8 1.873309 1_556
Mn1 O9 2.010990 1_555
Mn1 O25 2.010993 1_555
Mn1 O16 2.010997 1_555
Mn2 O17 1.873309 1_554
Mn2 O10 1.873309 1_554
Mn2 O7 1.873309 1_554
Mn2 O2 2.010990 1_555
Mn2 O6 2.010993 1_555
Mn2 O21 2.010997 1_555
Mn3 O12 1.900700 1_555
Mn3 O22 1.900709 1_555
Mn3 O3 1.900716 1_555
Mn3 O2 1.994188 1_555
Mn3 O6 1.994192 1_555
Mn3 O21 1.994196 1_555
Mn4 O23 1.902118 1_445
Mn4 O11 1.902118 1_555
Mn4 O18 1.902118 1_455
Mn4 O15 1.966317 1_555
Mn4 O14 1.966317 1_455
Mn4 O5 1.966317 1_545
Mn5 O0 1.900700 1_555
Mn5 O13 1.900709 1_555
Mn5 O4 1.900716 1_555
Mn5 O9 1.994188 1_555
Mn5 O25 1.994192 1_555
Mn5 O16 1.994196 1_555
Co0 O26 2.154565 1_555
Co0 O20 2.154565 1_555
Co0 O8 2.154565 1_555
Co0 O0 2.194935 1_555
Co0 O13 2.194943 1_555
Co0 O4 2.194948 1_555
Co1 O23 2.208439 1_445
Co1 O1 2.208439 1_445
Co1 O19 2.208439 1_555
Co1 O11 2.208439 1_555
Co1 O24 2.208439 1_545
Co1 O18 2.208439 1_455
Co2 O17 2.154565 1_555
Co2 O10 2.154565 1_555
Co2 O7 2.154565 1_555
Co2 O12 2.194935 1_555
Co2 O22 2.194943 1_555
Co2 O3 2.194948 1_555
O0 Sr1 2.514989 1_545
O0 Sr2 2.696801 1_655
O0 Sr8 2.755294 1_555
O0 Sr11 2.803998 1_555
O1 Sr3 2.463914 1_555
O1 Sr7 2.702689 1_555
O1 Sr11 2.770992 1_565
O1 Sr6 2.879811 1_556
O2 Sr10 2.589508 1_565
O2 Sr8 2.605065 1_565
O2 Sr1 2.672865 1_555
O2 Sr9 2.738043 1_555
O3 Sr0 2.514981 1_555
O3 Sr2 2.696802 1_555
O3 Sr3 2.755294 1_555
O3 Sr4 2.803993 1_555
O4 Sr4 2.514981 1_555
O4 Sr8 2.696802 1_555
O4 Sr3 2.755294 1_555
O4 Sr0 2.803993 1_555
O5 Sr7 2.572028 1_454
O5 Sr9 2.572028 1_555
O5 Sr6 2.753405 1_455
O5 Sr10 2.753405 1_565
O6 Sr5 2.589508 1_555
O6 Sr2 2.605065 1_555
O6 Sr9 2.672865 1_555
O6 Sr4 2.738043 1_555
O7 Sr7 2.427523 1_455
O7 Sr10 2.745879 1_566
O7 Sr9 2.958714 1_556
O7 Sr5 3.000855 1_556
O8 Sr1 2.427523 1_545
O8 Sr5 2.745879 1_655
O8 Sr11 2.958714 1_554
O8 Sr10 3.000855 1_555
O9 Sr5 2.589508 1_656
O9 Sr2 2.605065 1_655
O9 Sr7 2.672865 1_555
O9 Sr11 2.738043 1_555
O10 Sr0 2.427531 1_555
O10 Sr5 2.745880 1_556
O10 Sr4 2.958719 1_556
O10 Sr6 3.000855 1_556
O11 Sr8 2.463914 1_555
O11 Sr9 2.702689 1_545
O11 Sr4 2.770992 1_555
O11 Sr10 2.879811 1_555
O12 Sr7 2.514989 1_455
O12 Sr8 2.696801 1_565
O12 Sr2 2.755294 1_555
O12 Sr9 2.803998 1_555
O13 Sr9 2.514985 1_655
O13 Sr3 2.696793 1_555
O13 Sr2 2.755303 1_655
O13 Sr7 2.803995 1_555
O14 Sr1 2.572028 1_545
O14 Sr11 2.572028 1_554
O14 Sr6 2.753405 1_545
O14 Sr5 2.753405 1_655
O15 Sr0 2.572028 1_554
O15 Sr4 2.572028 1_555
O15 Sr5 2.753405 1_555
O15 Sr10 2.753405 1_555
O16 Sr6 2.589508 1_556
O16 Sr3 2.605065 1_555
O16 Sr0 2.672865 1_555
O16 Sr7 2.738043 1_555
O17 Sr11 2.427526 1_565
O17 Sr6 2.745888 1_556
O17 Sr1 2.958716 1_556
O17 Sr10 3.000847 1_566
O18 Sr2 2.463914 1_655
O18 Sr4 2.702689 1_655
O18 Sr1 2.770992 1_545
O18 Sr5 2.879811 1_655
O19 Sr2 2.463914 1_555
O19 Sr11 2.702689 1_455
O19 Sr0 2.770992 1_555
O19 Sr5 2.879811 1_556
O20 Sr4 2.427531 1_555
O20 Sr10 2.745880 1_555
O20 Sr0 2.958719 1_554
O20 Sr6 3.000855 1_555
O21 Sr6 2.589508 1_555
O21 Sr3 2.605065 1_555
O21 Sr4 2.672865 1_555
O21 Sr1 2.738043 1_555
O22 Sr11 2.514985 1_565
O22 Sr3 2.696793 1_555
O22 Sr8 2.755303 1_565
O22 Sr1 2.803995 1_555
O23 Sr3 2.463914 1_555
O23 Sr1 2.702689 1_555
O23 Sr9 2.770992 1_655
O23 Sr6 2.879811 1_555
O24 Sr8 2.463914 1_565
O24 Sr0 2.702689 1_565
O24 Sr7 2.770992 1_455
O24 Sr10 2.879811 1_566
O25 Sr10 2.589508 1_556
O25 Sr8 2.605065 1_555
O25 Sr11 2.672865 1_555
O25 Sr0 2.738043 1_555
O26 Sr9 2.427526 1_655
O26 Sr6 2.745888 1_555
O26 Sr7 2.958716 1_554
O26 Sr5 3.000847 1_655
