# generated using pymatgen
data_SrAsH3O5
_symmetry_space_group_name_H-M   'P 1'
_cell_length_a   7.60027800
_cell_length_b   8.51575400
_cell_length_c   14.45274300
_cell_angle_alpha   90.00000000
_cell_angle_beta   90.00000000
_cell_angle_gamma   90.00000000
_symmetry_Int_Tables_number   1
_chemical_formula_structural   SrAsH3O5
_chemical_formula_sum   'Sr8 As8 H24 O40'
_cell_volume   935.41184563
_cell_formula_units_Z   8
loop_
 _symmetry_equiv_pos_site_id
 _symmetry_equiv_pos_as_xyz
  1  'x, y, z'
loop_
 _atom_site_type_symbol
 _atom_site_label
 _atom_site_symmetry_multiplicity
 _atom_site_fract_x
 _atom_site_fract_y
 _atom_site_fract_z
 _atom_site_occupancy
  Sr  Sr0  1  0.63605800  0.17823700  0.08322000  1
  Sr  Sr1  1  0.13605800  0.32176300  0.91678000  1
  Sr  Sr2  1  0.36394200  0.67823700  0.41678000  1
  Sr  Sr3  1  0.86394200  0.82176300  0.58322000  1
  Sr  Sr4  1  0.36394200  0.82176300  0.91678000  1
  Sr  Sr5  1  0.86394200  0.67823700  0.08322000  1
  Sr  Sr6  1  0.63605800  0.32176300  0.58322000  1
  Sr  Sr7  1  0.13605800  0.17823700  0.41678000  1
  As  As0  1  0.14596500  0.05361000  0.11370900  1
  As  As1  1  0.64596500  0.44639000  0.88629100  1
  As  As2  1  0.85403500  0.55361000  0.38629100  1
  As  As3  1  0.35403500  0.94639000  0.61370900  1
  As  As4  1  0.85403500  0.94639000  0.88629100  1
  As  As5  1  0.35403500  0.55361000  0.11370900  1
  As  As6  1  0.14596500  0.44639000  0.61370900  1
  As  As7  1  0.64596500  0.05361000  0.38629100  1
  H  H0  1  0.27886900  0.25307600  0.19398400  1
  H  H1  1  0.77886900  0.24692400  0.80601600  1
  H  H2  1  0.72113100  0.75307600  0.30601600  1
  H  H3  1  0.22113100  0.74692400  0.69398400  1
  H  H4  1  0.72113100  0.74692400  0.80601600  1
  H  H5  1  0.22113100  0.75307600  0.19398400  1
  H  H6  1  0.27886900  0.24692400  0.69398400  1
  H  H7  1  0.77886900  0.25307600  0.30601600  1
  H  H8  1  0.94621700  0.16740000  0.62186300  1
  H  H9  1  0.44621700  0.33260000  0.37813700  1
  H  H10  1  0.05378300  0.66740000  0.87813700  1
  H  H11  1  0.55378300  0.83260000  0.12186300  1
  H  H12  1  0.05378300  0.83260000  0.37813700  1
  H  H13  1  0.55378300  0.66740000  0.62186300  1
  H  H14  1  0.94621700  0.33260000  0.12186300  1
  H  H15  1  0.44621700  0.16740000  0.87813700  1
  H  H16  1  0.89602000  0.10064200  0.72118500  1
  H  H17  1  0.39602000  0.39935800  0.27881500  1
  H  H18  1  0.10398000  0.60064200  0.77881500  1
  H  H19  1  0.60398000  0.89935800  0.22118500  1
  H  H20  1  0.10398000  0.89935800  0.27881500  1
  H  H21  1  0.60398000  0.60064200  0.72118500  1
  H  H22  1  0.89602000  0.39935800  0.22118500  1
  H  H23  1  0.39602000  0.10064200  0.77881500  1
  O  O0  1  0.20256100  0.16237000  0.21548700  1
  O  O1  1  0.70256100  0.33763000  0.78451300  1
  O  O2  1  0.79743900  0.66237000  0.28451300  1
  O  O3  1  0.29743900  0.83763000  0.71548700  1
  O  O4  1  0.79743900  0.83763000  0.78451300  1
  O  O5  1  0.29743900  0.66237000  0.21548700  1
  O  O6  1  0.20256100  0.33763000  0.71548700  1
  O  O7  1  0.70256100  0.16237000  0.28451300  1
  O  O8  1  0.07341000  0.88021700  0.16016900  1
  O  O9  1  0.57341000  0.61978300  0.83983100  1
  O  O10  1  0.92659000  0.38021700  0.33983100  1
  O  O11  1  0.42659000  0.11978300  0.66016900  1
  O  O12  1  0.92659000  0.11978300  0.83983100  1
  O  O13  1  0.42659000  0.38021700  0.16016900  1
  O  O14  1  0.07341000  0.61978300  0.66016900  1
  O  O15  1  0.57341000  0.88021700  0.33983100  1
  O  O16  1  0.32929700  0.03832200  0.04670400  1
  O  O17  1  0.82929700  0.46167800  0.95329600  1
  O  O18  1  0.67070300  0.53832200  0.45329600  1
  O  O19  1  0.17070300  0.96167800  0.54670400  1
  O  O20  1  0.67070300  0.96167800  0.95329600  1
  O  O21  1  0.17070300  0.53832200  0.04670400  1
  O  O22  1  0.32929700  0.46167800  0.54670400  1
  O  O23  1  0.82929700  0.03832200  0.45329600  1
  O  O24  1  0.98931100  0.16221600  0.05713100  1
  O  O25  1  0.48931100  0.33778400  0.94286900  1
  O  O26  1  0.01068900  0.66221600  0.44286900  1
  O  O27  1  0.51068900  0.83778400  0.55713100  1
  O  O28  1  0.01068900  0.83778400  0.94286900  1
  O  O29  1  0.51068900  0.66221600  0.05713100  1
  O  O30  1  0.98931100  0.33778400  0.55713100  1
  O  O31  1  0.48931100  0.16221600  0.44286900  1
  O  O32  1  0.86210400  0.09700700  0.65453500  1
  O  O33  1  0.36210400  0.40299300  0.34546500  1
  O  O34  1  0.13789600  0.59700700  0.84546500  1
  O  O35  1  0.63789600  0.90299300  0.15453500  1
  O  O36  1  0.13789600  0.90299300  0.34546500  1
  O  O37  1  0.63789600  0.59700700  0.65453500  1
  O  O38  1  0.86210400  0.40299300  0.15453500  1
  O  O39  1  0.36210400  0.09700700  0.84546500  1
loop_
_geom_bond_atom_site_label_1
_geom_bond_atom_site_label_2
_geom_bond_distance
_geom_bond_site_symmetry_2
As0 O16 1.701838 1_555
As0 O8 1.713250 1_545
As0 O24 1.715102 1_455
As0 O0 1.790692 1_555
As1 O17 1.701838 1_555
As1 O9 1.713250 1_555
As1 O25 1.715102 1_555
As1 O1 1.790692 1_555
As2 O18 1.701838 1_555
As2 O10 1.713250 1_555
As2 O26 1.715102 1_655
As2 O2 1.790692 1_555
As3 O19 1.701838 1_555
As3 O11 1.713250 1_565
As3 O27 1.715102 1_555
As3 O3 1.790692 1_555
As4 O20 1.701838 1_555
As4 O12 1.713250 1_565
As4 O28 1.715102 1_655
As4 O4 1.790692 1_555
As5 O21 1.701838 1_555
As5 O13 1.713250 1_555
As5 O29 1.715102 1_555
As5 O5 1.790692 1_555
As6 O22 1.701838 1_555
As6 O14 1.713250 1_555
As6 O30 1.715102 1_455
As6 O6 1.790692 1_555
As7 O23 1.701838 1_555
As7 O15 1.713250 1_545
As7 O31 1.715102 1_555
As7 O7 1.790692 1_555
H0 O0 1.014685 1_555
H0 O13 1.634500 1_555
H1 O1 1.014685 1_555
H1 O12 1.634500 1_555
H2 O2 1.014685 1_555
H2 O15 1.634500 1_555
H3 O3 1.014685 1_555
H3 O14 1.634500 1_555
H4 O4 1.014685 1_555
H4 O9 1.634500 1_555
H5 O5 1.014685 1_555
H5 O8 1.634500 1_555
H6 O6 1.014685 1_555
H6 O11 1.634500 1_555
H7 O7 1.014685 1_555
H7 O10 1.634500 1_555
H8 O32 0.995487 1_555
H8 O30 1.757210 1_555
H8 Sr6 2.756214 1_555
H9 O33 0.995487 1_555
H9 O31 1.757210 1_555
H9 Sr7 2.756214 1_555
H10 O34 0.995487 1_555
H10 O28 1.757210 1_555
H10 Sr4 2.756214 1_555
H11 O35 0.995487 1_555
H11 O29 1.757210 1_555
H11 Sr5 2.756214 1_555
H12 O36 0.995487 1_555
H12 O26 1.757210 1_555
H12 Sr2 2.756214 1_555
H13 O37 0.995487 1_555
H13 O27 1.757210 1_555
H13 Sr3 2.756214 1_555
H14 O38 0.995487 1_555
H14 O24 1.757210 1_555
H14 Sr0 2.756214 1_555
H15 O39 0.995487 1_555
H15 O25 1.757210 1_555
H15 Sr1 2.756214 1_555
H16 O32 0.997649 1_555
H16 O12 1.738089 1_555
H17 O33 0.997649 1_555
H17 O13 1.738089 1_555
H18 O34 0.997649 1_555
H18 O14 1.738089 1_555
H19 O35 0.997649 1_555
H19 O15 1.738089 1_555
H20 O36 0.997649 1_555
H20 O8 1.738089 1_555
H21 O37 0.997649 1_555
H21 O9 1.738089 1_555
H22 O38 0.997649 1_555
H22 O10 1.738089 1_555
H23 O39 0.997649 1_555
H23 O11 1.738089 1_555
O0 Sr7 2.955906 1_555
O1 Sr6 2.955906 1_555
O2 Sr5 2.955906 1_555
O3 Sr4 2.955906 1_555
O4 Sr3 2.955906 1_555
O5 Sr2 2.955906 1_555
O6 Sr1 2.955906 1_555
O7 Sr0 2.955906 1_555
O8 Sr5 2.594181 1_455
O9 Sr4 2.594181 1_555
O10 Sr7 2.594181 1_655
O11 Sr6 2.594181 1_555
O12 Sr1 2.594181 1_655
O13 Sr0 2.594181 1_555
O14 Sr3 2.594181 1_455
O15 Sr2 2.594181 1_555
O16 Sr4 2.645042 1_544
O16 Sr0 2.670937 1_555
O17 Sr5 2.645042 1_556
O17 Sr1 2.670937 1_655
O18 Sr6 2.645042 1_555
O18 Sr2 2.670937 1_555
O19 Sr7 2.645042 1_565
O19 Sr3 2.670937 1_455
O20 Sr0 2.645042 1_566
O20 Sr4 2.670937 1_555
O21 Sr1 2.645042 1_554
O21 Sr5 2.670937 1_455
O22 Sr2 2.645042 1_555
O22 Sr6 2.670937 1_555
O23 Sr3 2.645042 1_545
O23 Sr7 2.670937 1_655
O24 Sr1 2.684127 1_654
O24 Sr0 2.714599 1_555
O25 Sr0 2.684127 1_556
O25 Sr1 2.714599 1_555
O26 Sr3 2.684127 1_455
O26 Sr2 2.714599 1_555
O27 Sr2 2.684127 1_555
O27 Sr3 2.714599 1_555
O28 Sr5 2.684127 1_456
O28 Sr4 2.714599 1_555
O29 Sr4 2.684127 1_554
O29 Sr5 2.714599 1_555
O30 Sr7 2.684127 1_655
O30 Sr6 2.714599 1_555
O31 Sr6 2.684127 1_555
O31 Sr7 2.714599 1_555
O32 Sr3 2.560556 1_545
O32 Sr6 2.770771 1_555
O33 Sr2 2.560556 1_555
O33 Sr7 2.770771 1_555
O34 Sr1 2.560556 1_555
O34 Sr4 2.770771 1_555
O35 Sr0 2.560556 1_565
O35 Sr5 2.770771 1_555
O36 Sr7 2.560556 1_565
O36 Sr2 2.770771 1_555
O37 Sr6 2.560556 1_555
O37 Sr3 2.770771 1_555
O38 Sr5 2.560556 1_555
O38 Sr0 2.770771 1_555
O39 Sr4 2.560556 1_545
O39 Sr1 2.770771 1_555
