# generated using pymatgen
data_KV4P7O24
_symmetry_space_group_name_H-M   'P 1'
_cell_length_a   10.26458800
_cell_length_b   10.37746153
_cell_length_c   10.84352675
_cell_angle_alpha   108.80334649
_cell_angle_beta   111.68263982
_cell_angle_gamma   104.42620712
_symmetry_Int_Tables_number   1
_chemical_formula_structural   KV4P7O24
_chemical_formula_sum   'K2 V8 P14 O48'
_cell_volume   922.74535662
_cell_formula_units_Z   2
loop_
 _symmetry_equiv_pos_site_id
 _symmetry_equiv_pos_as_xyz
  1  'x, y, z'
loop_
 _atom_site_type_symbol
 _atom_site_label
 _atom_site_symmetry_multiplicity
 _atom_site_fract_x
 _atom_site_fract_y
 _atom_site_fract_z
 _atom_site_occupancy
  K  K0  1  0.54071400  0.24910300  0.67468200  1
  K  K1  1  0.45928600  0.75089700  0.32531800  1
  V  V0  1  0.98636800  0.83025200  0.41179600  1
  V  V1  1  0.49940200  0.89519200  0.74511700  1
  V  V2  1  0.99996800  0.38552600  0.07508800  1
  V  V3  1  0.48927200  0.33845100  0.11395900  1
  V  V4  1  0.50059800  0.10480800  0.25488300  1
  V  V5  1  0.51072800  0.66154900  0.88604100  1
  V  V6  1  0.00003200  0.61447400  0.92491200  1
  V  V7  1  0.01363200  0.16974800  0.58820400  1
  P  P0  1  0.80737600  0.37698900  0.56530200  1
  P  P1  1  0.74999700  0.54129100  0.05246700  1
  P  P2  1  0.26050200  0.03550800  0.75944400  1
  P  P3  1  0.80270600  0.05902000  0.73900500  1
  P  P4  1  0.77259700  0.78084100  0.77316300  1
  P  P5  1  0.25000300  0.45870900  0.94753300  1
  P  P6  1  0.24931400  0.39094500  0.52190400  1
  P  P7  1  0.26731600  0.82339300  0.88381000  1
  P  P8  1  0.73268400  0.17660700  0.11619000  1
  P  P9  1  0.19262400  0.62301100  0.43469800  1
  P  P10  1  0.19729400  0.94098000  0.26099500  1
  P  P11  1  0.73949800  0.96449200  0.24055600  1
  P  P12  1  0.75068600  0.60905500  0.47809600  1
  P  P13  1  0.22740300  0.21915900  0.22683700  1
  O  O0  1  0.83875900  0.44050200  0.72692000  1
  O  O1  1  0.87121000  0.49718100  0.00955100  1
  O  O2  1  0.88039900  0.97284200  0.36956700  1
  O  O3  1  0.30733300  0.33655600  0.40144700  1
  O  O4  1  0.36339300  0.59131300  0.95125200  1
  O  O5  1  0.39416100  0.49094400  0.66921800  1
  O  O6  1  0.63660700  0.40868700  0.04874800  1
  O  O7  1  0.91043600  0.30273100  0.53907200  1
  O  O8  1  0.08956400  0.69726900  0.46092800  1
  O  O9  1  0.86529300  0.31420800  0.15665900  1
  O  O10  1  0.85456100  0.74990400  0.49233800  1
  O  O11  1  0.83753700  0.67821800  0.20321100  1
  O  O12  1  0.37908900  0.78277200  0.82651600  1
  O  O13  1  0.13917200  0.05800400  0.20611000  1
  O  O14  1  0.62710000  0.99248000  0.29693900  1
  O  O15  1  0.69266700  0.66344400  0.59855300  1
  O  O16  1  0.88541200  0.74248300  0.86965600  1
  O  O17  1  0.37290000  0.00752000  0.70306100  1
  O  O18  1  0.16246300  0.32178200  0.79678900  1
  O  O19  1  0.11458800  0.25751700  0.13034400  1
  O  O20  1  0.65287300  0.56527000  0.92044900  1
  O  O21  1  0.64373800  0.05989600  0.95369800  1
  O  O22  1  0.12639100  0.79208400  0.12450400  1
  O  O23  1  0.11960100  0.02715800  0.63043300  1
  O  O24  1  0.36637100  0.72200600  0.53846800  1
  O  O25  1  0.35626200  0.94010400  0.04630200  1
  O  O26  1  0.15253200  0.47983900  0.47004700  1
  O  O27  1  0.84746800  0.52016100  0.52995300  1
  O  O28  1  0.62091100  0.21722800  0.17348400  1
  O  O29  1  0.63362900  0.27799400  0.46153200  1
  O  O30  1  0.18607400  0.89540300  0.78278900  1
  O  O31  1  0.81392600  0.10459700  0.21721100  1
  O  O32  1  0.60583900  0.50905600  0.33078200  1
  O  O33  1  0.14543900  0.25009600  0.50766200  1
  O  O34  1  0.34712700  0.43473000  0.07955100  1
  O  O35  1  0.14534900  0.93399700  0.37323900  1
  O  O36  1  0.16124100  0.55949800  0.27308000  1
  O  O37  1  0.87360900  0.20791600  0.87549600  1
  O  O38  1  0.36533500  0.22074400  0.20078500  1
  O  O39  1  0.13470700  0.68579200  0.84334100  1
  O  O40  1  0.62585200  0.98550000  0.66191100  1
  O  O41  1  0.33831000  0.17484800  0.90513800  1
  O  O42  1  0.37414800  0.01450000  0.33808900  1
  O  O43  1  0.12879000  0.50281900  0.99044900  1
  O  O44  1  0.86082800  0.94199600  0.79389000  1
  O  O45  1  0.85465100  0.06600300  0.62676100  1
  O  O46  1  0.63466500  0.77925600  0.79921500  1
  O  O47  1  0.66169000  0.82515200  0.09486200  1
loop_
_geom_bond_atom_site_label_1
_geom_bond_atom_site_label_2
_geom_bond_distance
_geom_bond_site_symmetry_2
K0 O17 2.843285 1_555
K0 O29 2.876578 1_555
K0 O0 2.931186 1_555
K0 O40 3.049982 1_545
K0 O20 3.067036 1_555
K0 O42 3.123854 1_555
K0 O5 3.236687 1_555
K1 O14 2.843285 1_555
K1 O24 2.876578 1_555
K1 O36 2.931186 1_555
K1 O42 3.049982 1_565
K1 O34 3.067036 1_555
K1 O40 3.123854 1_555
K1 O32 3.236687 1_555
O0 P0 1.530330 1_555
O0 V6 1.998777 1_655
O1 P1 1.596381 1_555
O1 V2 2.047970 1_555
O1 V6 2.210735 1_654
O2 P11 1.555841 1_555
O2 V0 2.110246 1_555
O2 V7 2.180650 1_665
O3 P13 1.615355 1_555
O3 P6 1.626769 1_555
O4 P5 1.543187 1_555
O4 V5 1.972724 1_555
O5 P6 1.498932 1_555
O5 V5 2.067931 1_555
O6 P1 1.543187 1_555
O6 V3 1.972724 1_555
O7 P0 1.510315 1_555
O7 V7 2.023777 1_655
O8 P9 1.510315 1_555
O8 V0 2.023777 1_455
O9 P8 1.506854 1_555
O9 V2 2.014162 1_555
O10 P12 1.501140 1_555
O10 V0 2.017157 1_555
O11 P1 1.509836 1_555
O11 V0 1.970832 1_555
O12 P7 1.574431 1_555
O12 V1 2.101581 1_555
O12 V5 2.133279 1_555
O13 P13 1.587512 1_555
O13 P10 1.658155 1_545
O14 P11 1.537185 1_555
O14 V4 1.977919 1_565
O15 P4 1.615355 1_555
O15 P12 1.626769 1_555
O16 P4 1.482247 1_555
O16 V6 2.068533 1_655
O17 P2 1.537185 1_555
O17 V1 1.977919 1_545
O18 P5 1.509836 1_555
O18 V7 1.970832 1_555
O19 P13 1.482247 1_555
O19 V2 2.068533 1_455
O20 P1 1.550417 1_556
O20 V5 1.957229 1_555
O21 P8 1.513173 1_556
O21 V1 2.000505 1_545
O22 P10 1.509047 1_555
O22 V6 1.981566 1_554
O23 P2 1.555841 1_555
O23 V7 2.110246 1_555
O23 V0 2.180650 1_445
O24 P9 1.536628 1_555
O24 V1 2.008957 1_555
O25 P7 1.513173 1_554
O25 V4 2.000505 1_565
O26 P6 1.591330 1_555
O26 P9 1.644019 1_555
O27 P12 1.591330 1_555
O27 P0 1.644019 1_555
O28 P8 1.574431 1_555
O28 V4 2.101581 1_555
O28 V3 2.133279 1_555
O29 P0 1.536628 1_555
O29 V4 2.008957 1_555
O30 P2 1.608841 1_565
O30 P7 1.617712 1_555
O31 P11 1.608841 1_545
O31 P8 1.617712 1_555
O32 P12 1.498932 1_555
O32 V3 2.067931 1_555
O33 P6 1.501140 1_555
O33 V7 2.017157 1_555
O34 P5 1.550417 1_554
O34 V3 1.957229 1_555
O35 P10 1.512638 1_555
O35 V0 1.978846 1_455
O36 P9 1.530330 1_555
O36 V2 1.998777 1_455
O37 P3 1.509047 1_555
O37 V2 1.981566 1_556
O38 P13 1.539981 1_555
O38 V4 2.098756 1_555
O38 V3 2.202048 1_555
O39 P7 1.506854 1_555
O39 V6 2.014162 1_555
O40 P3 1.534191 1_565
O40 V1 2.044837 1_555
O41 P2 1.498074 1_555
O41 V3 2.007259 1_556
O42 P10 1.534191 1_545
O42 V4 2.044837 1_555
O43 P5 1.596381 1_555
O43 V6 2.047970 1_555
O43 V2 2.210735 1_456
O44 P4 1.587512 1_555
O44 P3 1.658155 1_565
O45 P3 1.512638 1_555
O45 V7 1.978846 1_655
O46 P4 1.539981 1_555
O46 V1 2.098756 1_555
O46 V5 2.202048 1_555
O47 P11 1.498074 1_555
O47 V5 2.007259 1_554
