# generated using pymatgen
data_Nb4CrS8
_symmetry_space_group_name_H-M   'P 1'
_cell_length_a   6.70030072
_cell_length_b   6.70030009
_cell_length_c   12.11626501
_cell_angle_alpha   89.99983250
_cell_angle_beta   90.00018874
_cell_angle_gamma   119.99996568
_symmetry_Int_Tables_number   1
_chemical_formula_structural   Nb4CrS8
_chemical_formula_sum   'Nb8 Cr2 S16'
_cell_volume   471.07287168
_cell_formula_units_Z   2
loop_
 _symmetry_equiv_pos_site_id
 _symmetry_equiv_pos_as_xyz
  1  'x, y, z'
loop_
 _atom_site_type_symbol
 _atom_site_label
 _atom_site_symmetry_multiplicity
 _atom_site_fract_x
 _atom_site_fract_y
 _atom_site_fract_z
 _atom_site_occupancy
  Nb  Nb0  1  0.50640935  0.01282130  0.74996099  1
  Nb  Nb1  1  0.49359066  0.50640962  0.25003920  1
  Nb  Nb2  1  0.01282337  0.50641020  0.25003827  1
  Nb  Nb3  1  0.98717869  0.49359076  0.74996097  1
  Nb  Nb4  1  0.50640973  0.49359100  0.74996082  1
  Nb  Nb5  1  0.49358993  0.98717664  0.25003823  1
  Nb  Nb6  1  -0.00000057  0.00000068  0.74994716  1
  Nb  Nb7  1  0.00000046  -0.00000036  0.25005529  1
  Cr  Cr0  1  0.00000052  -0.00000049  0.50000245  1
  Cr  Cr1  1  -0.00000020  0.00000054  -0.00000264  1
  S  S0  1  0.83396489  0.16603518  0.12063370  1
  S  S1  1  0.83396494  0.66792995  0.12063395  1
  S  S2  1  0.33207021  0.16603522  0.12063399  1
  S  S3  1  0.66792855  0.83396582  0.62058495  1
  S  S4  1  0.16604105  0.33208345  0.87936131  1
  S  S5  1  0.16603482  0.83396514  0.62058521  1
  S  S6  1  0.16603448  0.33207166  0.62058500  1
  S  S7  1  0.83396665  0.16603334  0.37941809  1
  S  S8  1  0.33206883  0.16603107  0.37941794  1
  S  S9  1  0.66791687  0.83395925  0.87936138  1
  S  S10  1  0.33333397  0.66666595  0.11789547  1
  S  S11  1  0.66666575  0.33333443  0.61784040  1
  S  S12  1  0.66666622  0.33333388  0.88210429  1
  S  S13  1  0.33333464  0.66666539  0.38216277  1
  S  S14  1  0.83396904  0.66793129  0.37941796  1
  S  S15  1  0.16604114  0.83395908  0.87936183  1
loop_
_geom_bond_atom_site_label_1
_geom_bond_atom_site_label_2
_geom_bond_distance
_geom_bond_site_symmetry_2
Nb0 S11 2.453876 1_555
Nb0 S12 2.454057 1_555
Nb0 S5 2.522196 1_545
Nb0 S3 2.522205 1_545
Nb0 S9 2.522357 1_545
Nb0 S15 2.522363 1_545
Nb1 S13 2.453899 1_555
Nb1 S10 2.454055 1_555
Nb1 S14 2.522236 1_555
Nb1 S8 2.522237 1_555
Nb1 S2 2.522421 1_555
Nb1 S1 2.522422 1_555
Nb2 S13 2.453898 1_555
Nb2 S10 2.454045 1_555
Nb2 S14 2.522235 1_455
Nb2 S7 2.522238 1_455
Nb2 S0 2.522420 1_455
Nb2 S1 2.522425 1_455
Nb3 S11 2.453874 1_555
Nb3 S12 2.454057 1_555
Nb3 S5 2.522196 1_655
Nb3 S6 2.522205 1_655
Nb3 S4 2.522357 1_655
Nb3 S15 2.522362 1_655
Nb4 S11 2.453878 1_555
Nb4 S12 2.454056 1_555
Nb4 S3 2.522198 1_555
Nb4 S6 2.522199 1_555
Nb4 S9 2.522360 1_555
Nb4 S4 2.522362 1_555
Nb5 S13 2.453899 1_555
Nb5 S10 2.454044 1_555
Nb5 S8 2.522236 1_565
Nb5 S7 2.522237 1_565
Nb5 S0 2.522420 1_565
Nb5 S2 2.522425 1_565
Nb6 S3 2.483863 1_445
Nb6 S6 2.483864 1_555
Nb6 S5 2.483867 1_545
Nb6 S15 2.484318 1_545
Nb6 S4 2.484318 1_555
Nb6 S9 2.484318 1_445
Nb7 S8 2.483855 1_555
Nb7 S14 2.483856 1_445
Nb7 S7 2.483858 1_455
Nb7 S1 2.484314 1_445
Nb7 S2 2.484315 1_555
Nb7 S0 2.484316 1_455
Cr0 S5 2.418134 1_545
Cr0 S7 2.418141 1_455
Cr0 S14 2.418151 1_445
Cr0 S8 2.418152 1_555
Cr0 S3 2.418155 1_445
Cr0 S6 2.418155 1_555
Cr1 S0 2.418539 1_455
Cr1 S2 2.418539 1_555
Cr1 S1 2.418540 1_445
Cr1 S9 2.418592 1_444
Cr1 S4 2.418593 1_554
Cr1 S15 2.418594 1_544
