# generated using pymatgen
data_EuZr6(PO4)9
_symmetry_space_group_name_H-M   'P 1'
_cell_length_a   8.97278187
_cell_length_b   8.97278187
_cell_length_c   23.12320100
_cell_angle_alpha   90.00000000
_cell_angle_beta   90.00000000
_cell_angle_gamma   119.99999901
_symmetry_Int_Tables_number   1
_chemical_formula_structural   EuZr6(PO4)9
_chemical_formula_sum   'Eu2 Zr12 P18 O72'
_cell_volume   1612.25157612
_cell_formula_units_Z   2
loop_
 _symmetry_equiv_pos_site_id
 _symmetry_equiv_pos_as_xyz
  1  'x, y, z'
loop_
 _atom_site_type_symbol
 _atom_site_label
 _atom_site_symmetry_multiplicity
 _atom_site_fract_x
 _atom_site_fract_y
 _atom_site_fract_z
 _atom_site_occupancy
  Eu  Eu0  1  0.00000000  0.00000000  0.50000000  1
  Eu  Eu1  1  0.00000000  0.00000000  0.00000000  1
  Zr  Zr0  1  0.66666700  0.33333300  0.02854100  1
  Zr  Zr1  1  0.00000000  0.00000000  0.85071800  1
  Zr  Zr2  1  0.33333300  0.66666700  0.68869500  1
  Zr  Zr3  1  0.66666700  0.33333300  0.52854100  1
  Zr  Zr4  1  0.66666700  0.33333300  0.31130500  1
  Zr  Zr5  1  0.66666700  0.33333300  0.81130500  1
  Zr  Zr6  1  0.33333300  0.66666700  0.47145900  1
  Zr  Zr7  1  0.33333300  0.66666700  0.18869500  1
  Zr  Zr8  1  0.00000000  0.00000000  0.35071800  1
  Zr  Zr9  1  0.00000000  0.00000000  0.14928200  1
  Zr  Zr10  1  0.33333300  0.66666700  0.97145900  1
  Zr  Zr11  1  0.00000000  0.00000000  0.64928200  1
  P  P0  1  0.70960600  0.00000000  0.75000000  1
  P  P1  1  0.05360000  0.67735600  0.08004100  1
  P  P2  1  0.94640000  0.32264400  0.91995900  1
  P  P3  1  0.70960600  0.70960600  0.25000000  1
  P  P4  1  0.67735600  0.05360000  0.41995900  1
  P  P5  1  0.32264400  0.37624400  0.08004100  1
  P  P6  1  0.29039400  0.29039400  0.75000000  1
  P  P7  1  0.67735600  0.62375600  0.91995900  1
  P  P8  1  0.37624400  0.32264400  0.41995900  1
  P  P9  1  0.62375600  0.67735600  0.58004100  1
  P  P10  1  0.32264400  0.94640000  0.58004100  1
  P  P11  1  0.05360000  0.37624400  0.58004100  1
  P  P12  1  0.94640000  0.62375600  0.41995900  1
  P  P13  1  0.37624400  0.05360000  0.91995900  1
  P  P14  1  0.29039400  0.00000000  0.25000000  1
  P  P15  1  0.62375600  0.94640000  0.08004100  1
  P  P16  1  0.00000000  0.70960600  0.75000000  1
  P  P17  1  0.00000000  0.29039400  0.25000000  1
  O  O0  1  0.32842200  0.47406800  0.13488700  1
  O  O1  1  0.84111100  0.53339900  0.75962100  1
  O  O2  1  0.46028400  0.16061200  0.97465100  1
  O  O3  1  0.16061200  0.70032800  0.02534900  1
  O  O4  1  0.96999300  0.17378200  0.19640200  1
  O  O5  1  0.16169000  0.97329700  0.58235800  1
  O  O6  1  0.81160700  0.97329700  0.08235800  1
  O  O7  1  0.15888900  0.46660100  0.24037900  1
  O  O8  1  0.85435400  0.52593200  0.36511300  1
  O  O9  1  0.53971600  0.83938800  0.02534900  1
  O  O10  1  0.79621200  0.96999300  0.80359800  1
  O  O11  1  0.83831000  0.81160700  0.91764200  1
  O  O12  1  0.29967200  0.46028400  0.02534900  1
  O  O13  1  0.36114500  0.48582700  0.42390600  1
  O  O14  1  0.85435400  0.32842200  0.86511300  1
  O  O15  1  0.20378800  0.03000700  0.19640200  1
  O  O16  1  0.36114500  0.87531800  0.92390600  1
  O  O17  1  0.32842200  0.85435400  0.63488700  1
  O  O18  1  0.30771200  0.84111100  0.24037900  1
  O  O19  1  0.46660100  0.30771200  0.75962100  1
  O  O20  1  0.52593200  0.67157800  0.63488700  1
  O  O21  1  0.51417300  0.63885500  0.92390600  1
  O  O22  1  0.46660100  0.15888900  0.25962100  1
  O  O23  1  0.52593200  0.85435400  0.13488700  1
  O  O24  1  0.70032800  0.16061200  0.47465100  1
  O  O25  1  0.16169000  0.18839300  0.08235800  1
  O  O26  1  0.14564600  0.47406800  0.63488700  1
  O  O27  1  0.51417300  0.87531800  0.42390600  1
  O  O28  1  0.20378800  0.17378200  0.69640200  1
  O  O29  1  0.87531800  0.51417300  0.07609400  1
  O  O30  1  0.70032800  0.53971600  0.97465100  1
  O  O31  1  0.63885500  0.12468200  0.07609400  1
  O  O32  1  0.82621800  0.03000700  0.69640200  1
  O  O33  1  0.63885500  0.51417300  0.57609400  1
  O  O34  1  0.53339900  0.84111100  0.74037900  1
  O  O35  1  0.84111100  0.30771200  0.25962100  1
  O  O36  1  0.18839300  0.02670300  0.91764200  1
  O  O37  1  0.97329700  0.81160700  0.41764200  1
  O  O38  1  0.79621200  0.82621800  0.30359800  1
  O  O39  1  0.02670300  0.83831000  0.08235800  1
  O  O40  1  0.48582700  0.12468200  0.57609400  1
  O  O41  1  0.47406800  0.32842200  0.36511300  1
  O  O42  1  0.12468200  0.48582700  0.92390600  1
  O  O43  1  0.81160700  0.83831000  0.58235800  1
  O  O44  1  0.18839300  0.16169000  0.41764200  1
  O  O45  1  0.47406800  0.14564600  0.86511300  1
  O  O46  1  0.48582700  0.36114500  0.07609400  1
  O  O47  1  0.17378200  0.20378800  0.80359800  1
  O  O48  1  0.53339900  0.69228800  0.24037900  1
  O  O49  1  0.69228800  0.15888900  0.75962100  1
  O  O50  1  0.97329700  0.16169000  0.91764200  1
  O  O51  1  0.03000700  0.82621800  0.80359800  1
  O  O52  1  0.16061200  0.46028400  0.52534900  1
  O  O53  1  0.12468200  0.63885500  0.42390600  1
  O  O54  1  0.14564600  0.67157800  0.13488700  1
  O  O55  1  0.69228800  0.53339900  0.25962100  1
  O  O56  1  0.96999300  0.79621200  0.69640200  1
  O  O57  1  0.67157800  0.52593200  0.86511300  1
  O  O58  1  0.83938800  0.53971600  0.47465100  1
  O  O59  1  0.83938800  0.29967200  0.97465100  1
  O  O60  1  0.17378200  0.96999300  0.30359800  1
  O  O61  1  0.87531800  0.36114500  0.57609400  1
  O  O62  1  0.82621800  0.79621200  0.19640200  1
  O  O63  1  0.03000700  0.20378800  0.30359800  1
  O  O64  1  0.30771200  0.46660100  0.74037900  1
  O  O65  1  0.29967200  0.83938800  0.52534900  1
  O  O66  1  0.02670300  0.18839300  0.58235800  1
  O  O67  1  0.53971600  0.70032800  0.52534900  1
  O  O68  1  0.67157800  0.14564600  0.36511300  1
  O  O69  1  0.15888900  0.69228800  0.74037900  1
  O  O70  1  0.83831000  0.02670300  0.41764200  1
  O  O71  1  0.46028400  0.29967200  0.47465100  1
loop_
_geom_bond_atom_site_label_1
_geom_bond_atom_site_label_2
_geom_bond_distance
_geom_bond_site_symmetry_2
Eu0 O70 2.477203 1_455
Eu0 O5 2.477203 1_545
Eu0 O37 2.477203 1_445
Eu0 O66 2.477203 1_555
Eu0 O44 2.477203 1_555
Eu0 O43 2.477203 1_445
Eu1 O39 2.477203 1_545
Eu1 O50 2.477203 1_454
Eu1 O6 2.477203 1_445
Eu1 O36 2.477203 1_554
Eu1 O25 2.477203 1_555
Eu1 O11 2.477203 1_444
O0 P5 1.528398 1_555
O0 Zr7 2.111955 1_555
O1 P16 1.525689 1_655
O1 Zr5 2.071466 1_555
O2 P13 1.538146 1_555
O2 Zr0 2.124608 1_556
O3 P1 1.538146 1_555
O3 Zr10 2.124604 1_554
O4 P17 1.556147 1_655
O4 Zr9 2.027542 1_655
O5 P10 1.579680 1_555
O5 Zr11 2.214637 1_565
O6 P15 1.579680 1_555
O6 Zr9 2.214637 1_665
O7 P17 1.525689 1_555
O7 Zr7 2.071466 1_555
O8 P12 1.528398 1_555
O8 Zr4 2.111952 1_555
O9 P15 1.538146 1_555
O9 Zr10 2.124608 1_554
O10 P0 1.556152 1_565
O10 Zr1 2.027534 1_665
O11 P7 1.579680 1_555
O11 Zr1 2.214637 1_665
O12 P5 1.538146 1_555
O12 Zr10 2.124611 1_554
O13 P8 1.539140 1_555
O13 Zr6 2.075869 1_555
O14 P2 1.528398 1_555
O14 Zr5 2.111948 1_555
O15 P14 1.556152 1_555
O15 Zr9 2.027534 1_555
O16 P13 1.539140 1_565
O16 Zr10 2.075861 1_555
O17 P10 1.528398 1_555
O17 Zr2 2.111948 1_555
O18 P14 1.525689 1_565
O18 Zr7 2.071461 1_555
O19 P6 1.525689 1_555
O19 Zr5 2.071469 1_555
O20 P9 1.528398 1_555
O20 Zr2 2.111955 1_555
O21 P7 1.539140 1_555
O21 Zr10 2.075869 1_555
O22 P14 1.525689 1_555
O22 Zr4 2.071466 1_555
O23 P15 1.528398 1_555
O23 Zr7 2.111952 1_555
O24 P4 1.538146 1_555
O24 Zr3 2.124604 1_555
O25 P5 1.579680 1_555
O25 Zr9 2.214637 1_555
O26 P11 1.528398 1_555
O26 Zr2 2.111952 1_555
O27 P4 1.539140 1_565
O27 Zr6 2.075864 1_555
O28 P6 1.556148 1_555
O28 Zr11 2.027537 1_555
O29 P1 1.539140 1_655
O29 Zr0 2.075864 1_555
O30 P7 1.538146 1_555
O30 Zr0 2.124611 1_556
O31 P15 1.539140 1_545
O31 Zr0 2.075861 1_555
O32 P0 1.556147 1_555
O32 Zr11 2.027542 1_655
O33 P9 1.539140 1_555
O33 Zr3 2.075869 1_555
O34 P0 1.525689 1_565
O34 Zr2 2.071466 1_555
O35 P17 1.525689 1_655
O35 Zr4 2.071461 1_555
O36 P13 1.579680 1_555
O36 Zr1 2.214637 1_555
O37 P12 1.579680 1_555
O37 Zr8 2.214637 1_665
O38 P3 1.556148 1_555
O38 Zr8 2.027537 1_665
O39 P1 1.579680 1_555
O39 Zr9 2.214637 1_565
O40 P10 1.539140 1_545
O40 Zr3 2.075864 1_555
O41 P8 1.528398 1_555
O41 Zr4 2.111955 1_555
O42 P2 1.539140 1_455
O42 Zr10 2.075864 1_555
O43 P9 1.579680 1_555
O43 Zr11 2.214637 1_665
O44 P8 1.579680 1_555
O44 Zr8 2.214637 1_555
O45 P13 1.528398 1_555
O45 Zr5 2.111952 1_555
O46 P5 1.539140 1_555
O46 Zr0 2.075869 1_555
O47 P6 1.556148 1_555
O47 Zr1 2.027537 1_555
O48 P3 1.525689 1_555
O48 Zr7 2.071469 1_555
O49 P0 1.525689 1_555
O49 Zr5 2.071461 1_555
O50 P2 1.579680 1_555
O50 Zr1 2.214637 1_655
O51 P16 1.556147 1_555
O51 Zr1 2.027542 1_565
O52 P11 1.538146 1_555
O52 Zr6 2.124608 1_555
O53 P12 1.539140 1_455
O53 Zr6 2.075861 1_555
O54 P1 1.528398 1_555
O54 Zr7 2.111948 1_555
O55 P3 1.525689 1_555
O55 Zr4 2.071469 1_555
O56 P16 1.556152 1_655
O56 Zr11 2.027534 1_665
O57 P7 1.528398 1_555
O57 Zr5 2.111955 1_555
O58 P12 1.538146 1_555
O58 Zr3 2.124608 1_555
O59 P2 1.538146 1_555
O59 Zr0 2.124604 1_556
O60 P14 1.556147 1_565
O60 Zr8 2.027542 1_565
O61 P11 1.539140 1_655
O61 Zr3 2.075861 1_555
O62 P3 1.556148 1_555
O62 Zr9 2.027537 1_665
O63 P17 1.556152 1_555
O63 Zr8 2.027534 1_555
O64 P6 1.525689 1_555
O64 Zr2 2.071469 1_555
O65 P10 1.538146 1_555
O65 Zr6 2.124604 1_555
O66 P11 1.579680 1_555
O66 Zr11 2.214637 1_555
O67 P9 1.538146 1_555
O67 Zr6 2.124611 1_555
O68 P4 1.528398 1_555
O68 Zr4 2.111948 1_555
O69 P16 1.525689 1_555
O69 Zr2 2.071461 1_555
O70 P4 1.579680 1_555
O70 Zr8 2.214637 1_655
O71 P8 1.538146 1_555
O71 Zr3 2.124611 1_555
