# generated using pymatgen
data_La10Mn9O30
_symmetry_space_group_name_H-M   'P 1'
_cell_length_a   11.03456134
_cell_length_b   27.64512257
_cell_length_c   18.17810594
_cell_angle_alpha   25.64742476
_cell_angle_beta   41.99460901
_cell_angle_gamma   61.17334271
_symmetry_Int_Tables_number   1
_chemical_formula_structural   La10Mn9O30
_chemical_formula_sum   'La20 Mn18 O60'
_cell_volume   1222.29932515
_cell_formula_units_Z   2
loop_
 _symmetry_equiv_pos_site_id
 _symmetry_equiv_pos_as_xyz
  1  'x, y, z'
loop_
 _atom_site_type_symbol
 _atom_site_label
 _atom_site_symmetry_multiplicity
 _atom_site_fract_x
 _atom_site_fract_y
 _atom_site_fract_z
 _atom_site_occupancy
  La  La0  1  0.00838218  0.14736170  0.24521577  1
  La  La1  1  0.01563028  0.34976393  0.24576997  1
  La  La2  1  0.00037659  0.55423934  0.24389697  1
  La  La3  1  0.49830801  0.15587259  0.24784805  1
  La  La4  1  0.98036421  0.73896263  0.27662060  1
  La  La5  1  0.50168310  0.35444882  0.23025866  1
  La  La6  1  0.99694943  0.94522733  0.27182825  1
  La  La7  1  0.98436974  0.45023607  0.75422997  1
  La  La8  1  0.51995199  0.56362248  0.21946823  1
  La  La9  1  0.50053163  0.05450250  0.74358584  1
  La  La10  1  0.99161792  0.65263836  0.75478407  1
  La  La11  1  0.49946844  0.74549753  0.25641408  1
  La  La12  1  0.48004797  0.23637750  0.78053179  1
  La  La13  1  0.47995408  0.94575754  0.26165746  1
  La  La14  1  0.49831697  0.44555121  0.76974130  1
  La  La15  1  0.01963581  0.06103734  0.72337944  1
  La  La16  1  0.50169196  0.64412741  0.75215196  1
  La  La17  1  0.99962334  0.24576059  0.75610318  1
  La  La18  1  0.52004587  0.85424242  0.73834258  1
  La  La19  1  0.00305049  0.85477265  0.72817181  1
  Mn  Mn0  1  0.99858031  0.99977833  0.00121376  1
  Mn  Mn1  1  0.00375505  0.20497657  0.99046727  1
  Mn  Mn2  1  0.00000015  0.40000009  -0.00000017  1
  Mn  Mn3  1  0.50431618  0.00039433  0.99580954  1
  Mn  Mn4  1  0.99624473  0.59502350  0.00953288  1
  Mn  Mn5  1  0.99624553  0.09740588  0.50440690  1
  Mn  Mn6  1  0.50696812  0.20323818  0.99331867  1
  Mn  Mn7  1  0.00141961  0.80022151  0.99878650  1
  Mn  Mn8  1  0.99643891  0.29964021  0.50267346  1
  Mn  Mn9  1  0.00356109  0.50035978  0.49732658  1
  Mn  Mn10  1  0.49303184  0.59676163  0.00668161  1
  Mn  Mn11  1  0.49769689  0.09567645  0.50749089  1
  Mn  Mn12  1  0.00375454  0.70259417  0.49559304  1
  Mn  Mn13  1  0.49568360  0.79960555  0.00419063  1
  Mn  Mn14  1  0.50281004  0.30021952  0.49697698  1
  Mn  Mn15  1  0.49719003  0.49978048  0.50302294  1
  Mn  Mn16  1  0.50230319  0.70432359  0.49250902  1
  Mn  Mn17  1  0.50000007  0.90000019  0.49999975  1
  O  O0  1  0.24380972  0.07696399  0.22186224  1
  O  O1  1  0.29012051  0.18961019  0.18328393  1
  O  O2  1  0.19662317  0.24686536  0.27851709  1
  O  O3  1  0.43132128  0.01746114  0.32173518  1
  O  O4  1  0.25832664  0.38475940  0.20488766  1
  O  O5  1  0.21348514  0.46649372  0.24919672  1
  O  O6  1  0.44016541  0.21308314  0.32910539  1
  O  O7  1  0.72395420  0.07319412  0.23129839  1
  O  O8  1  0.07128838  0.17722584  0.67921319  1
  O  O9  1  0.28078043  0.59364643  0.18067631  1
  O  O10  1  0.21556529  0.00579465  0.82304891  1
  O  O11  1  0.78383231  0.19296709  0.17696086  1
  O  O12  1  0.21313208  0.66267989  0.25603946  1
  O  O13  1  0.42922979  0.42210987  0.31967720  1
  O  O14  1  0.71381198  0.26307636  0.25174109  1
  O  O15  1  0.94181285  0.04000588  0.28831043  1
  O  O16  1  0.08561548  0.38098598  0.66719900  1
  O  O17  1  0.28459901  0.13858983  0.74631889  1
  O  O18  1  0.29839801  0.79834742  0.16710627  1
  O  O19  1  0.21914917  0.20829193  0.81915203  1
  O  O20  1  0.78715235  0.39367508  0.17603276  1
  O  O21  1  0.20653838  0.86067798  0.25917043  1
  O  O22  1  0.42644712  0.62395491  0.32236658  1
  O  O23  1  0.71902363  0.46551524  0.24381426  1
  O  O24  1  0.93203076  0.22403701  0.31672015  1
  O  O25  1  0.06796924  0.57596298  0.68327985  1
  O  O26  1  0.28097636  0.33448475  0.75618575  1
  O  O27  1  0.57355288  0.17604508  0.67763344  1
  O  O28  1  0.30469830  0.99036820  0.16914796  1
  O  O29  1  0.21284764  0.40632491  0.82396724  1
  O  O30  1  0.78085084  0.59170807  0.18084795  1
  O  O31  1  0.70160200  0.00165259  0.83289372  1
  O  O32  1  0.42419009  0.81792611  0.32816605  1
  O  O33  1  0.71540100  0.66141017  0.25368109  1
  O  O34  1  0.91438455  0.41901403  0.33280097  1
  O  O35  1  0.05818714  0.75999411  0.71168958  1
  O  O36  1  0.28618803  0.53692363  0.74825892  1
  O  O37  1  0.57077021  0.37789013  0.68032280  1
  O  O38  1  0.78686793  0.13732011  0.74396054  1
  O  O39  1  0.21616769  0.60703292  0.82303912  1
  O  O40  1  0.78443469  0.79420534  0.17695111  1
  O  O41  1  0.71921958  0.20635360  0.81932364  1
  O  O42  1  0.71134773  0.86579347  0.24866809  1
  O  O43  1  0.92871162  0.62277417  0.32078680  1
  O  O44  1  0.06596675  0.97700725  0.68668854  1
  O  O45  1  0.27604579  0.72680588  0.76870161  1
  O  O46  1  0.55983461  0.58691688  0.67089457  1
  O  O47  1  0.78651486  0.33350629  0.75080326  1
  O  O48  1  0.21888288  0.81130957  0.81350233  1
  O  O49  1  0.78111714  0.98869043  0.18649765  1
  O  O50  1  0.74167339  0.41524060  0.79511233  1
  O  O51  1  0.93403326  0.82299275  0.31331146  1
  O  O52  1  0.28865227  0.93420652  0.75133191  1
  O  O53  1  0.56867873  0.78253886  0.67826482  1
  O  O54  1  0.80337684  0.55313465  0.72148289  1
  O  O55  1  0.70987950  0.61038982  0.81671606  1
  O  O56  1  0.57580989  0.98207388  0.67183397  1
  O  O57  1  0.75619027  0.72303603  0.77813773  1
  O  O58  1  0.69530167  0.80963180  0.83085206  1
  O  O59  1  0.79346164  0.93932205  0.74082953  1
loop_
_geom_bond_atom_site_label_1
_geom_bond_atom_site_label_2
_geom_bond_distance
_geom_bond_site_symmetry_2
La0 O0 2.385661 1_555
La0 O56 2.434206 1_445
La0 O29 2.456980 1_554
La0 O15 2.648897 1_455
La0 O26 2.679829 1_554
La0 O59 2.800583 1_445
La0 O11 2.829387 1_455
La0 O1 2.867921 1_555
La0 O24 2.917199 1_455
La1 O2 2.381309 1_555
La1 O39 2.427896 1_554
La1 O27 2.486697 1_455
La1 O4 2.627560 1_555
La1 O38 2.702073 1_455
La1 O24 2.799344 1_455
La1 O36 2.805575 1_554
La1 O34 2.861300 1_455
La1 O20 2.908897 1_455
La2 O48 2.401668 1_554
La2 O37 2.414768 1_455
La2 O5 2.416189 1_555
La2 O45 2.695863 1_554
La2 O34 2.781353 1_455
La2 O9 2.790872 1_555
La2 O30 2.796620 1_455
La2 O43 2.802756 1_455
La2 O47 2.810729 1_455
La3 O50 2.383214 1_554
La3 O44 2.430653 1_545
La3 O7 2.480455 1_555
La3 O6 2.630542 1_555
La4 O46 2.372159 1_555
La4 O12 2.440322 1_655
La4 O10 2.475699 1_664
La4 O54 2.626708 1_555
La4 O51 2.691472 1_555
La4 O43 2.778929 1_555
La4 O40 2.817612 1_555
La4 O18 2.872751 1_655
La4 O52 2.895483 1_654
La5 O14 2.427084 1_555
La5 O8 2.428825 1_555
La5 O55 2.441016 1_554
La5 O6 2.654618 1_555
La5 O54 2.658420 1_554
La5 O4 2.664602 1_555
La6 O21 2.414702 1_655
La6 O53 2.415474 1_555
La6 O19 2.433843 1_664
La6 O15 2.632939 1_565
La6 O57 2.638326 1_555
La6 O28 2.653029 1_655
La7 O54 2.381310 1_555
La7 O11 2.427895 1_556
La7 O22 2.486697 1_655
La7 O50 2.627559 1_555
La7 O12 2.702072 1_655
La7 O25 2.799345 1_655
La7 O14 2.805576 1_556
La7 O16 2.861299 1_655
La7 O29 2.908897 1_655
La8 O58 2.377518 1_554
La8 O23 2.431643 1_555
La8 O16 2.443133 1_555
La8 O57 2.612864 1_554
La8 O30 2.748151 1_555
La8 O9 2.783871 1_555
La8 O22 2.905483 1_555
La9 O17 2.403042 1_555
La9 O18 2.409531 1_546
La9 O24 2.425066 1_555
La9 O27 2.699739 1_555
La9 O14 2.754192 1_555
La9 O10 2.759014 1_555
La9 O31 2.764877 1_555
La9 O56 2.809753 1_545
La9 O21 2.846249 1_546
La10 O57 2.385661 1_555
La10 O32 2.434205 1_655
La10 O20 2.456981 1_556
La10 O35 2.648897 1_655
La10 O23 2.679830 1_556
La10 O21 2.800582 1_655
La10 O39 2.829387 1_655
La10 O55 2.867921 1_555
La10 O25 2.917199 1_655
La11 O33 2.403042 1_555
La11 O31 2.409531 1_564
La11 O25 2.425067 1_555
La11 O22 2.699739 1_555
La11 O36 2.754192 1_555
La11 O40 2.759014 1_555
La11 O18 2.764877 1_555
La11 O32 2.809753 1_555
La11 O59 2.846249 1_554
La12 O28 2.377518 1_546
La12 O26 2.431643 1_555
La12 O34 2.443134 1_555
La12 O0 2.612864 1_556
La12 O19 2.748151 1_555
La12 O41 2.783871 1_555
La12 O27 2.905483 1_555
La13 O35 2.380573 1_555
La13 O41 2.423136 1_564
La13 O42 2.462509 1_555
La13 O28 2.623668 1_555
La13 O3 2.723254 1_565
La13 O32 2.759876 1_555
La13 O38 2.853859 1_564
La13 O45 2.893973 1_555
La13 O49 2.906897 1_555
La14 O36 2.427084 1_555
La14 O43 2.428824 1_555
La14 O1 2.441017 1_556
La14 O46 2.654618 1_555
La14 O2 2.658420 1_556
La14 O50 2.664601 1_555
La15 O6 2.372159 1_555
La15 O38 2.440322 1_455
La15 O40 2.475699 1_446
La15 O2 2.626708 1_555
La15 O44 2.691472 1_545
La15 O8 2.778929 1_555
La15 O10 2.817611 1_555
La15 O31 2.872751 1_455
La15 O42 2.895483 1_446
La16 O4 2.383214 1_556
La16 O51 2.430653 1_555
La16 O45 2.480455 1_555
La16 O46 2.630542 1_555
La17 O49 2.401667 1_546
La17 O13 2.414768 1_655
La17 O47 2.416189 1_555
La17 O7 2.695862 1_556
La17 O16 2.781353 1_655
La17 O41 2.790872 1_555
La17 O19 2.796619 1_655
La17 O8 2.802756 1_655
La17 O5 2.810730 1_655
La18 O15 2.380574 1_565
La18 O9 2.423136 1_556
La18 O52 2.462509 1_555
La18 O58 2.623669 1_555
La18 O53 2.723253 1_555
La18 O56 2.759876 1_555
La18 O12 2.853860 1_556
La18 O7 2.893973 1_565
La18 O48 2.906897 1_555
La19 O59 2.414702 1_455
La19 O3 2.415475 1_565
La19 O30 2.433843 1_456
La19 O35 2.632939 1_555
La19 O0 2.638326 1_565
La19 O58 2.653029 1_455
Mn0 O51 1.984761 1_555
Mn0 O8 2.003749 1_664
Mn0 O49 2.007667 1_555
Mn0 O17 2.010129 1_664
Mn0 O42 2.022029 1_555
Mn0 O10 2.033729 1_664
Mn1 O15 1.888580 1_456
Mn1 O16 1.954477 1_555
Mn1 O7 1.992677 1_456
Mn1 O11 2.002791 1_456
Mn1 O26 2.004816 1_555
Mn1 O19 2.012224 1_555
Mn2 O25 1.994561 1_554
Mn2 O24 1.994561 1_455
Mn2 O20 2.000593 1_455
Mn2 O29 2.000593 1_554
Mn2 O36 2.014463 1_554
Mn2 O14 2.014465 1_455
Mn3 O28 1.885403 1_546
Mn3 O31 1.953234 1_555
Mn3 O38 1.982003 1_555
Mn3 O27 1.997095 1_555
Mn3 O32 2.035296 1_546
Mn3 O21 2.037740 1_546
Mn4 O35 1.888579 1_654
Mn4 O34 1.954478 1_555
Mn4 O45 1.992676 1_654
Mn4 O39 2.002794 1_654
Mn4 O23 2.004817 1_555
Mn4 O30 2.012220 1_555
Mn5 O2 1.883369 1_655
Mn5 O59 1.961880 1_545
Mn5 O24 2.016167 1_555
Mn5 O44 2.021200 1_645
Mn5 O1 2.023665 1_655
Mn5 O31 2.043850 1_555
Mn6 O0 1.890407 1_556
Mn6 O47 1.947898 1_555
Mn6 O37 1.993678 1_555
Mn6 O1 2.008426 1_556
Mn6 O3 2.039884 1_556
Mn6 O41 2.046719 1_555
Mn7 O44 1.984763 1_555
Mn7 O43 2.003747 1_456
Mn7 O48 2.007667 1_555
Mn7 O33 2.010129 1_456
Mn7 O52 2.022029 1_555
Mn7 O40 2.033730 1_456
Mn8 O4 1.878916 1_655
Mn8 O41 1.952401 1_555
Mn8 O8 2.024171 1_655
Mn8 O34 2.036515 1_555
Mn8 O38 2.041201 1_555
Mn8 O5 2.043058 1_655
Mn9 O50 1.878916 1_455
Mn9 O9 1.952401 1_555
Mn9 O43 2.024171 1_455
Mn9 O16 2.036515 1_555
Mn9 O12 2.041201 1_555
Mn9 O47 2.043058 1_455
Mn10 O57 1.890407 1_554
Mn10 O5 1.947898 1_555
Mn10 O13 1.993676 1_555
Mn10 O55 2.008425 1_554
Mn10 O53 2.039886 1_554
Mn10 O9 2.046719 1_555
Mn11 O6 1.884118 1_555
Mn11 O56 1.957625 1_545
Mn11 O52 1.988014 1_545
Mn11 O10 1.996934 1_555
Mn11 O14 2.022309 1_555
Mn11 O11 2.039234 1_555
Mn12 O54 1.883369 1_455
Mn12 O21 1.961880 1_555
Mn12 O25 2.016167 1_555
Mn12 O51 2.021200 1_455
Mn12 O55 2.023665 1_455
Mn12 O18 2.043850 1_555
Mn13 O58 1.885403 1_554
Mn13 O18 1.953234 1_555
Mn13 O12 1.982001 1_555
Mn13 O22 1.997096 1_555
Mn13 O56 2.035296 1_554
Mn13 O59 2.037742 1_554
Mn14 O17 1.986318 1_555
Mn14 O20 1.997181 1_555
Mn14 O23 2.007527 1_555
Mn14 O13 2.017957 1_555
Mn14 O27 2.019730 1_555
Mn14 O19 2.035527 1_555
Mn15 O33 1.986319 1_555
Mn15 O29 1.997182 1_555
Mn15 O26 2.007527 1_555
Mn15 O37 2.017957 1_555
Mn15 O22 2.019729 1_555
Mn15 O30 2.035526 1_555
Mn16 O46 1.884118 1_555
Mn16 O32 1.957625 1_555
Mn16 O42 1.988014 1_555
Mn16 O40 1.996933 1_555
Mn16 O36 2.022310 1_555
Mn16 O39 2.039235 1_555
Mn17 O3 1.981190 1_565
Mn17 O53 1.981193 1_555
Mn17 O48 1.994112 1_555
Mn17 O49 1.994113 1_555
Mn17 O7 2.047600 1_565
Mn17 O45 2.047604 1_555
