# generated using pymatgen
data_Ca9PrF20
_symmetry_space_group_name_H-M   'P 1'
_cell_length_a   7.83977200
_cell_length_b   8.83493860
_cell_length_c   13.02669046
_cell_angle_alpha   101.93178954
_cell_angle_beta   90.10870497
_cell_angle_gamma   102.84802466
_symmetry_Int_Tables_number   1
_chemical_formula_structural   Ca9PrF20
_chemical_formula_sum   'Ca18 Pr2 F40'
_cell_volume   859.59867556
_cell_formula_units_Z   2
loop_
 _symmetry_equiv_pos_site_id
 _symmetry_equiv_pos_as_xyz
  1  'x, y, z'
loop_
 _atom_site_type_symbol
 _atom_site_label
 _atom_site_symmetry_multiplicity
 _atom_site_fract_x
 _atom_site_fract_y
 _atom_site_fract_z
 _atom_site_occupancy
  Ca  Ca0  1  0.52178700  0.59619400  0.64965400  1
  Ca  Ca1  1  0.02608600  0.59549500  0.64895200  1
  Ca  Ca2  1  0.32747300  0.79916700  0.45322800  1
  Ca  Ca3  1  0.67252700  0.20083300  0.54677200  1
  Ca  Ca4  1  0.62424600  0.00006300  0.25012100  1
  Ca  Ca5  1  0.82180500  0.79846800  0.45139400  1
  Ca  Ca6  1  0.97391400  0.40450500  0.35104800  1
  Ca  Ca7  1  0.92284200  0.20279100  0.04902200  1
  Ca  Ca8  1  0.17819500  0.20153200  0.54860600  1
  Ca  Ca9  1  0.27638600  0.59557400  0.14994700  1
  Ca  Ca10  1  0.22875700  0.40378200  0.85134500  1
  Ca  Ca11  1  0.47821300  0.40380600  0.35034600  1
  Ca  Ca12  1  0.42727900  0.19967800  0.04638100  1
  Ca  Ca13  1  0.57272100  0.80032200  0.95361900  1
  Ca  Ca14  1  0.77124300  0.59621800  0.14865500  1
  Ca  Ca15  1  0.72361400  0.40442600  0.85005300  1
  Ca  Ca16  1  0.07715800  0.79720900  0.95097800  1
  Ca  Ca17  1  0.37575400  0.99993700  0.74987900  1
  Pr  Pr0  1  0.12685500  0.99983600  0.24972000  1
  Pr  Pr1  1  0.87314500  0.00016400  0.75028000  1
  F  F0  1  0.81026300  0.74000100  0.62416600  1
  F  F1  1  0.10985900  0.94283800  0.42849400  1
  F  F2  1  0.38705400  0.05066100  0.57536600  1
  F  F3  1  0.31209100  0.74865500  0.62539000  1
  F  F4  1  0.46240900  0.35090800  0.52455100  1
  F  F5  1  0.68790900  0.25134500  0.37461000  1
  F  F6  1  0.61294600  0.94933900  0.42463400  1
  F  F7  1  0.89014100  0.05716200  0.57150600  1
  F  F8  1  0.91038400  0.15743400  0.22395400  1
  F  F9  1  0.96325900  0.35123800  0.52468700  1
  F  F10  1  0.03674100  0.64876200  0.47531300  1
  F  F11  1  0.98657800  0.44924800  0.17500000  1
  F  F12  1  0.21364500  0.35194500  0.02482900  1
  F  F13  1  0.18973700  0.25999900  0.37583400  1
  F  F14  1  0.26296100  0.54991100  0.32528900  1
  F  F15  1  0.33989000  0.84085500  0.27689900  1
  F  F16  1  0.28795000  0.64959900  0.97552900  1
  F  F17  1  0.41967500  0.15973500  0.22317400  1
  F  F18  1  0.53759100  0.64909200  0.47544900  1
  F  F19  1  0.56223500  0.74933900  0.12562900  1
  F  F20  1  0.63804800  0.05087200  0.07550900  1
  F  F21  1  0.51180600  0.54941100  0.82569100  1
  F  F22  1  0.48819400  0.45058900  0.17430900  1
  F  F23  1  0.76206500  0.55029900  0.32557600  1
  F  F24  1  0.71205000  0.35040100  0.02447100  1
  F  F25  1  0.83175300  0.84205500  0.27621700  1
  F  F26  1  0.78635500  0.64805500  0.97517100  1
  F  F27  1  0.86150300  0.94261700  0.92871600  1
  F  F28  1  0.05943000  0.73913200  0.12399400  1
  F  F29  1  0.01342200  0.55075200  0.82500000  1
  F  F30  1  0.13849700  0.05738300  0.07128400  1
  F  F31  1  0.08961600  0.84256600  0.77604600  1
  F  F32  1  0.16824700  0.15794500  0.72378300  1
  F  F33  1  0.36195200  0.94912800  0.92449100  1
  F  F34  1  0.43776500  0.25066100  0.87437100  1
  F  F35  1  0.58032500  0.84026500  0.77682600  1
  F  F36  1  0.66011000  0.15914500  0.72310100  1
  F  F37  1  0.73703900  0.45008900  0.67471100  1
  F  F38  1  0.94057000  0.26086800  0.87600600  1
  F  F39  1  0.23793500  0.44970100  0.67442400  1
loop_
_geom_bond_atom_site_label_1
_geom_bond_atom_site_label_2
_geom_bond_distance
_geom_bond_site_symmetry_2
Ca0 F39 2.371886 1_555
Ca0 F4 2.378439 1_555
Ca0 F35 2.384278 1_555
Ca0 F0 2.395545 1_555
Ca0 F37 2.400296 1_555
Ca0 F3 2.403288 1_555
Ca0 F18 2.407781 1_555
Ca0 F21 2.411193 1_555
Ca1 F9 2.366379 1_455
Ca1 F39 2.377756 1_555
Ca1 F0 2.392942 1_455
Ca1 F10 2.401713 1_555
Ca1 F31 2.402706 1_555
Ca1 F3 2.403700 1_555
Ca1 F29 2.404935 1_555
Ca1 F37 2.405086 1_455
Ca2 F3 2.373678 1_555
Ca2 F18 2.384025 1_555
Ca2 F1 2.399101 1_555
Ca2 F15 2.399163 1_555
Ca2 F2 2.400092 1_565
Ca2 F6 2.407244 1_555
Ca2 F10 2.420165 1_555
Ca2 F14 2.422151 1_555
Ca3 F5 2.373678 1_555
Ca3 F4 2.384025 1_555
Ca3 F7 2.399101 1_555
Ca3 F36 2.399163 1_555
Ca3 F6 2.400092 1_545
Ca3 F2 2.407244 1_555
Ca3 F9 2.420165 1_555
Ca3 F37 2.422151 1_555
Ca4 F6 2.404384 1_545
Ca4 F20 2.405957 1_555
Ca4 F19 2.409523 1_545
Ca4 F5 2.413109 1_555
Ca4 F15 2.425117 1_545
Ca4 F8 2.427608 1_555
Ca4 F17 2.427803 1_555
Ca4 F25 2.432072 1_545
Ca5 F18 2.381283 1_555
Ca5 F1 2.386331 1_655
Ca5 F25 2.390078 1_555
Ca5 F6 2.395821 1_555
Ca5 F23 2.401547 1_555
Ca5 F0 2.408554 1_555
Ca5 F10 2.417738 1_655
Ca5 F7 2.435666 1_565
Ca6 F10 2.366379 1_655
Ca6 F23 2.377756 1_555
Ca6 F13 2.392942 1_655
Ca6 F9 2.401713 1_555
Ca6 F8 2.402706 1_555
Ca6 F5 2.403700 1_555
Ca6 F11 2.404935 1_555
Ca6 F14 2.405086 1_655
Ca7 F24 2.379685 1_555
Ca7 F30 2.389777 1_655
Ca7 F11 2.391544 1_555
Ca7 F8 2.392490 1_555
Ca7 F20 2.401509 1_555
Ca7 F38 2.410391 1_554
Ca7 F12 2.423180 1_655
Ca7 F27 2.446830 1_544
Ca8 F4 2.381283 1_555
Ca8 F7 2.386331 1_455
Ca8 F32 2.390078 1_555
Ca8 F2 2.395821 1_555
Ca8 F39 2.401547 1_555
Ca8 F13 2.408554 1_555
Ca8 F9 2.417738 1_455
Ca8 F1 2.435666 1_545
Ca9 F12 2.367897 1_555
Ca9 F22 2.368734 1_555
Ca9 F15 2.390411 1_555
Ca9 F28 2.398019 1_555
Ca9 F14 2.398775 1_555
Ca9 F19 2.407203 1_555
Ca9 F11 2.410580 1_455
Ca9 F16 2.414207 1_554
Ca10 F21 2.366872 1_555
Ca10 F16 2.375953 1_555
Ca10 F38 2.388257 1_455
Ca10 F12 2.394969 1_556
Ca10 F32 2.397942 1_555
Ca10 F34 2.399325 1_555
Ca10 F29 2.410536 1_555
Ca10 F39 2.419844 1_555
Ca11 F23 2.371886 1_555
Ca11 F18 2.378439 1_555
Ca11 F17 2.384278 1_555
Ca11 F13 2.395545 1_555
Ca11 F14 2.400296 1_555
Ca11 F5 2.403288 1_555
Ca11 F4 2.407781 1_555
Ca11 F22 2.411193 1_555
Ca12 F34 2.373193 1_554
Ca12 F24 2.382510 1_555
Ca12 F30 2.391016 1_555
Ca12 F33 2.392249 1_544
Ca12 F17 2.399843 1_555
Ca12 F20 2.402658 1_555
Ca12 F12 2.418695 1_555
Ca12 F22 2.432688 1_555
Ca13 F19 2.373193 1_556
Ca13 F16 2.382510 1_555
Ca13 F27 2.391016 1_555
Ca13 F20 2.392249 1_566
Ca13 F35 2.399843 1_555
Ca13 F33 2.402658 1_555
Ca13 F26 2.418695 1_555
Ca13 F21 2.432688 1_555
Ca14 F22 2.366872 1_555
Ca14 F24 2.375953 1_555
Ca14 F28 2.388257 1_655
Ca14 F26 2.394969 1_554
Ca14 F25 2.397942 1_555
Ca14 F19 2.399325 1_555
Ca14 F11 2.410536 1_555
Ca14 F23 2.419844 1_555
Ca15 F26 2.367897 1_555
Ca15 F21 2.368734 1_555
Ca15 F36 2.390411 1_555
Ca15 F38 2.398019 1_555
Ca15 F37 2.398775 1_555
Ca15 F34 2.407203 1_555
Ca15 F29 2.410580 1_655
Ca15 F24 2.414207 1_556
Ca16 F16 2.379685 1_555
Ca16 F27 2.389777 1_455
Ca16 F29 2.391544 1_555
Ca16 F31 2.392490 1_555
Ca16 F33 2.401509 1_555
Ca16 F28 2.410391 1_556
Ca16 F26 2.423180 1_455
Ca16 F30 2.446830 1_566
Ca17 F2 2.404384 1_565
Ca17 F33 2.405957 1_555
Ca17 F34 2.409523 1_565
Ca17 F3 2.413109 1_555
Ca17 F36 2.425117 1_565
Ca17 F31 2.427608 1_555
Ca17 F35 2.427803 1_555
Ca17 F32 2.432072 1_565
F0 Pr1 2.481285 1_565
F1 Pr0 2.480134 1_555
F7 Pr1 2.480134 1_555
F8 Pr0 2.484634 1_645
F13 Pr0 2.481285 1_545
F15 Pr0 2.476746 1_555
F17 Pr0 2.479515 1_545
F25 Pr0 2.486460 1_655
F27 Pr1 2.477627 1_565
F28 Pr0 2.482418 1_555
F30 Pr0 2.477627 1_545
F31 Pr1 2.484634 1_465
F32 Pr1 2.486460 1_455
F35 Pr1 2.479515 1_565
F36 Pr1 2.476746 1_555
F38 Pr1 2.482418 1_555
