# generated using pymatgen
data_CsUV3O11
_symmetry_space_group_name_H-M   'P 1'
_cell_length_a   6.90933400
_cell_length_b   12.06167900
_cell_length_c   12.64290798
_cell_angle_alpha   73.35560780
_cell_angle_beta   90.00000000
_cell_angle_gamma   90.00000000
_symmetry_Int_Tables_number   1
_chemical_formula_structural   CsUV3O11
_chemical_formula_sum   'Cs4 U4 V12 O44'
_cell_volume   1009.49040636
_cell_formula_units_Z   4
loop_
 _symmetry_equiv_pos_site_id
 _symmetry_equiv_pos_as_xyz
  1  'x, y, z'
loop_
 _atom_site_type_symbol
 _atom_site_label
 _atom_site_symmetry_multiplicity
 _atom_site_fract_x
 _atom_site_fract_y
 _atom_site_fract_z
 _atom_site_occupancy
  Cs  Cs0  1  0.26593900  0.11756900  0.55175800  1
  Cs  Cs1  1  0.23406100  0.61756900  0.55175800  1
  Cs  Cs2  1  0.73406100  0.88243100  0.44824200  1
  Cs  Cs3  1  0.76593900  0.38243100  0.44824200  1
  U  U0  1  0.50226400  0.80435500  0.81525200  1
  U  U1  1  0.49773600  0.19564500  0.18474800  1
  U  U2  1  0.99773600  0.30435500  0.81525200  1
  U  U3  1  0.00226400  0.69564500  0.18474800  1
  V  V0  1  0.74944100  0.06833900  0.76927000  1
  V  V1  1  0.25055900  0.93166100  0.23073000  1
  V  V2  1  0.75055900  0.56833900  0.76927000  1
  V  V3  1  0.50496600  0.68278400  0.22867800  1
  V  V4  1  0.24927600  0.04128600  0.85925000  1
  V  V5  1  0.00496600  0.81721600  0.77132200  1
  V  V6  1  0.74927600  0.45871400  0.14075000  1
  V  V7  1  0.99503400  0.18278400  0.22867800  1
  V  V8  1  0.25072400  0.54128600  0.85925000  1
  V  V9  1  0.49503400  0.31721600  0.77132200  1
  V  V10  1  0.75072400  0.95871400  0.14075000  1
  V  V11  1  0.24944100  0.43166100  0.23073000  1
  O  O0  1  0.99454100  0.26015000  0.96366600  1
  O  O1  1  0.50545900  0.76015000  0.96366600  1
  O  O2  1  0.19189500  0.29444100  0.19435000  1
  O  O3  1  0.99257600  0.64999900  0.33569900  1
  O  O4  1  0.98123200  0.14370400  0.36421500  1
  O  O5  1  0.74797700  0.49920900  0.00735600  1
  O  O6  1  0.25332500  0.88950400  0.36640400  1
  O  O7  1  0.80828900  0.90968200  0.80377800  1
  O  O8  1  0.19256900  0.70077100  0.81588400  1
  O  O9  1  0.50243400  0.40015800  0.19253000  1
  O  O10  1  0.69256900  0.79922900  0.18411600  1
  O  O11  1  0.50742400  0.14999900  0.33569900  1
  O  O12  1  0.99748400  0.48683300  0.19122100  1
  O  O13  1  0.49748400  0.01316700  0.80877900  1
  O  O14  1  0.30730400  0.40861100  0.81339400  1
  O  O15  1  0.30743100  0.20077100  0.81588400  1
  O  O16  1  0.99756600  0.90015800  0.19253000  1
  O  O17  1  0.69269600  0.59138900  0.18660600  1
  O  O18  1  0.80810500  0.70555900  0.80565000  1
  O  O19  1  0.50251600  0.98683300  0.19122100  1
  O  O20  1  0.75332500  0.61049600  0.63359600  1
  O  O21  1  0.49756600  0.59984200  0.80747000  1
  O  O22  1  0.80730400  0.09138900  0.18660600  1
  O  O23  1  0.00251600  0.51316700  0.80877900  1
  O  O24  1  0.49257600  0.85000100  0.66430100  1
  O  O25  1  0.24797700  0.00079100  0.99264400  1
  O  O26  1  0.24667500  0.38950400  0.36640400  1
  O  O27  1  0.80743100  0.29922900  0.18411600  1
  O  O28  1  0.49454100  0.23985000  0.03633400  1
  O  O29  1  0.00545900  0.73985000  0.03633400  1
  O  O30  1  0.74667500  0.11049600  0.63359600  1
  O  O31  1  0.75202300  0.99920900  0.00735600  1
  O  O32  1  0.19171100  0.09031800  0.19622200  1
  O  O33  1  0.01876800  0.85629600  0.63578500  1
  O  O34  1  0.19269600  0.90861100  0.81339400  1
  O  O35  1  0.69171100  0.40968200  0.80377800  1
  O  O36  1  0.30828900  0.59031800  0.19622200  1
  O  O37  1  0.00742400  0.35000100  0.66430100  1
  O  O38  1  0.30810500  0.79444100  0.19435000  1
  O  O39  1  0.25202300  0.50079100  0.99264400  1
  O  O40  1  0.69189500  0.20555900  0.80565000  1
  O  O41  1  0.48123200  0.35629600  0.63578500  1
  O  O42  1  0.00243400  0.09984200  0.80747000  1
  O  O43  1  0.51876800  0.64370400  0.36421500  1
loop_
_geom_bond_atom_site_label_1
_geom_bond_atom_site_label_2
_geom_bond_distance
_geom_bond_site_symmetry_2
Cs0 O4 3.027024 1_455
Cs0 O11 3.128340 1_555
Cs1 O43 3.027024 1_555
Cs1 O3 3.128340 1_455
Cs2 O33 3.027024 1_655
Cs2 O24 3.128340 1_555
Cs3 O41 3.027024 1_555
Cs3 O37 3.128340 1_655
O0 U2 1.797906 1_555
O1 U0 1.797906 1_555
O2 V7 1.875472 1_455
O2 V11 1.882846 1_555
O2 U1 2.446030 1_555
O3 U3 1.829726 1_655
O4 V7 1.644667 1_555
O5 V6 1.615860 1_555
O6 V1 1.643645 1_555
O7 V5 1.876448 1_655
O7 V0 1.881360 1_565
O7 U0 2.449540 1_555
O8 V5 1.875355 1_555
O8 V8 1.886351 1_555
O8 U0 2.476696 1_555
O9 V11 1.881040 1_555
O9 V6 1.889790 1_555
O9 U1 2.496942 1_555
O10 V3 1.875355 1_555
O10 V10 1.886351 1_555
O10 U3 2.476696 1_655
O11 U1 1.829726 1_555
O12 V11 1.879497 1_655
O12 V6 1.894002 1_555
O12 U3 2.496633 1_655
O13 V0 1.879497 1_555
O13 V4 1.894002 1_555
O13 U0 2.496633 1_545
O14 V9 1.875237 1_555
O14 V8 1.892440 1_555
O14 U2 2.477877 1_455
O15 V9 1.875355 1_555
O15 V4 1.886351 1_555
O15 U2 2.476696 1_455
O16 V1 1.881040 1_655
O16 V10 1.889790 1_555
O16 U3 2.496942 1_655
O17 V3 1.875237 1_555
O17 V6 1.892440 1_555
O17 U3 2.477877 1_655
O18 V5 1.875472 1_655
O18 V2 1.882846 1_555
O18 U0 2.446030 1_555
O19 V1 1.879497 1_555
O19 V10 1.894002 1_555
O19 U1 2.496633 1_565
O20 V2 1.643645 1_555
O21 V2 1.881040 1_555
O21 V8 1.889790 1_555
O21 U0 2.496942 1_555
O22 V7 1.875237 1_555
O22 V10 1.892440 1_545
O22 U1 2.477877 1_555
O23 V2 1.879497 1_455
O23 V8 1.894002 1_555
O23 U2 2.496633 1_455
O24 U0 1.829726 1_555
O25 V4 1.615860 1_555
O26 V11 1.643645 1_555
O27 V7 1.875355 1_555
O27 V6 1.886351 1_555
O27 U1 2.476696 1_555
O28 U1 1.797906 1_555
O29 U3 1.797906 1_555
O30 V0 1.643645 1_555
O31 V10 1.615860 1_555
O32 V7 1.876448 1_455
O32 V1 1.881360 1_545
O32 U1 2.449540 1_555
O33 V5 1.644667 1_555
O34 V5 1.875237 1_555
O34 V4 1.892440 1_565
O34 U0 2.477877 1_555
O35 V9 1.876448 1_555
O35 V2 1.881360 1_555
O35 U2 2.449540 1_555
O36 V3 1.876448 1_555
O36 V11 1.881360 1_555
O36 U3 2.449540 1_555
O37 U2 1.829726 1_455
O38 V3 1.875472 1_555
O38 V1 1.882846 1_555
O38 U3 2.446030 1_555
O39 V8 1.615860 1_555
O40 V9 1.875472 1_555
O40 V0 1.882846 1_555
O40 U2 2.446030 1_555
O41 V9 1.644667 1_555
O42 V0 1.881040 1_455
O42 V4 1.889790 1_555
O42 U2 2.496942 1_455
O43 V3 1.644667 1_555
