# generated using pymatgen
data_CdBiS2Cl
_symmetry_space_group_name_H-M   'P 1'
_cell_length_a   4.00969200
_cell_length_b   9.67063500
_cell_length_c   12.79138900
_cell_angle_alpha   90.00000000
_cell_angle_beta   90.00000000
_cell_angle_gamma   90.00000000
_symmetry_Int_Tables_number   1
_chemical_formula_structural   CdBiS2Cl
_chemical_formula_sum   'Cd4 Bi4 S8 Cl4'
_cell_volume   496.00232533
_cell_formula_units_Z   4
loop_
 _symmetry_equiv_pos_site_id
 _symmetry_equiv_pos_as_xyz
  1  'x, y, z'
loop_
 _atom_site_type_symbol
 _atom_site_label
 _atom_site_symmetry_multiplicity
 _atom_site_fract_x
 _atom_site_fract_y
 _atom_site_fract_z
 _atom_site_occupancy
  Cd  Cd0  1  0.75000000  0.99609000  0.76365900  1
  Cd  Cd1  1  0.25000000  0.00391000  0.23634100  1
  Cd  Cd2  1  0.75000000  0.49609000  0.73634100  1
  Cd  Cd3  1  0.25000000  0.50391000  0.26365900  1
  Bi  Bi0  1  0.25000000  0.80644700  0.52730000  1
  Bi  Bi1  1  0.25000000  0.30644700  0.97270000  1
  Bi  Bi2  1  0.75000000  0.69355300  0.02730000  1
  Bi  Bi3  1  0.75000000  0.19355300  0.47270000  1
  S  S0  1  0.75000000  0.75280300  0.66762800  1
  S  S1  1  0.25000000  0.74719700  0.16762800  1
  S  S2  1  0.75000000  0.44729900  0.11190100  1
  S  S3  1  0.25000000  0.55270100  0.88809900  1
  S  S4  1  0.75000000  0.25280300  0.83237200  1
  S  S5  1  0.75000000  0.94729900  0.38809900  1
  S  S6  1  0.25000000  0.05270100  0.61190100  1
  S  S7  1  0.25000000  0.24719700  0.33237200  1
  Cl  Cl0  1  0.75000000  0.07376100  0.10622600  1
  Cl  Cl1  1  0.75000000  0.57376100  0.39377400  1
  Cl  Cl2  1  0.25000000  0.92623900  0.89377400  1
  Cl  Cl3  1  0.25000000  0.42623900  0.60622600  1
loop_
_geom_bond_atom_site_label_1
_geom_bond_atom_site_label_2
_geom_bond_distance
_geom_bond_site_symmetry_2
Cd0 S4 2.633575 1_565
Cd0 S0 2.654106 1_555
Cd0 Cl2 2.691798 1_555
Cd0 Cl2 2.691798 1_655
Cd0 S6 2.843829 1_565
Cd0 S6 2.843829 1_665
Cd1 S1 2.633575 1_545
Cd1 S7 2.654106 1_555
Cd1 Cl0 2.691798 1_455
Cd1 Cl0 2.691798 1_555
Cd1 S5 2.843829 1_545
Cd1 S5 2.843829 1_445
Cd2 S0 2.633575 1_555
Cd2 S4 2.654106 1_555
Cd2 Cl3 2.691798 1_555
Cd2 Cl3 2.691798 1_655
Cd2 S3 2.843829 1_555
Cd2 S3 2.843829 1_655
Cd3 S7 2.633575 1_555
Cd3 S1 2.654106 1_555
Cd3 Cl1 2.691798 1_555
Cd3 Cl1 2.691798 1_455
Cd3 S2 2.843829 1_555
Cd3 S2 2.843829 1_455
Bi0 S6 2.615779 1_565
Bi0 S0 2.740533 1_455
Bi0 S0 2.740533 1_555
Bi0 S5 3.007531 1_555
Bi0 S5 3.007531 1_455
Bi1 S3 2.615779 1_555
Bi1 S4 2.740533 1_555
Bi1 S4 2.740533 1_455
Bi1 S2 3.007531 1_456
Bi1 S2 3.007531 1_556
Bi2 S2 2.615779 1_555
Bi2 S1 2.740533 1_655
Bi2 S1 2.740533 1_555
Bi2 S3 3.007531 1_654
Bi2 S3 3.007531 1_554
Bi3 S5 2.615779 1_545
Bi3 S7 2.740533 1_655
Bi3 S7 2.740533 1_555
Bi3 S6 3.007531 1_655
Bi3 S6 3.007531 1_555
