# generated using pymatgen
data_NdB2Rh2C
_symmetry_space_group_name_H-M   'P 1'
_cell_length_a   5.81042686
_cell_length_b   5.81042686
_cell_length_c   5.81042686
_cell_angle_alpha   141.31790721
_cell_angle_beta   141.31790721
_cell_angle_gamma   55.85760395
_symmetry_Int_Tables_number   1
_chemical_formula_structural   NdB2Rh2C
_chemical_formula_sum   'Nd1 B2 Rh2 C1'
_cell_volume   76.04333282
_cell_formula_units_Z   1
loop_
 _symmetry_equiv_pos_site_id
 _symmetry_equiv_pos_as_xyz
  1  'x, y, z'
loop_
 _atom_site_type_symbol
 _atom_site_label
 _atom_site_symmetry_multiplicity
 _atom_site_fract_x
 _atom_site_fract_y
 _atom_site_fract_z
 _atom_site_occupancy
  Nd  Nd0  1  -0.00000000  -0.00000000  0.00000000  1
  B  B0  1  0.64615164  0.64615164  -0.00000000  1
  B  B1  1  0.35384836  0.35384836  0.00000000  1
  Rh  Rh0  1  0.25000000  0.75000000  0.50000000  1
  Rh  Rh1  1  0.75000000  0.25000000  0.50000000  1
  C  C0  1  0.50000000  0.50000000  0.00000000  1
loop_
_geom_bond_atom_site_label_1
_geom_bond_atom_site_label_2
_geom_bond_distance
_geom_bond_site_symmetry_2
B0 C0 1.500594 1_555
B0 Rh0 2.200010 1_554
B0 Rh1 2.200010 1_554
B0 Rh1 2.200010 1_565
B0 Rh0 2.200010 1_655
B1 C0 1.500594 1_555
B1 Rh1 2.200010 1_555
B1 Rh1 2.200010 1_454
B1 Rh0 2.200010 1_555
B1 Rh0 2.200010 1_544
C0 Nd0 2.721453 1_554
C0 Nd0 2.721453 1_666
C0 Nd0 2.721453 1_565
C0 Nd0 2.721453 1_655
