# generated using pymatgen
data_Ho(PRu)2
_symmetry_space_group_name_H-M   'P 1'
_cell_length_a   4.03089746
_cell_length_b   4.03089746
_cell_length_c   5.52800189
_cell_angle_alpha   111.38228861
_cell_angle_beta   111.38228697
_cell_angle_gamma   90.00001155
_symmetry_Int_Tables_number   1
_chemical_formula_structural   Ho(PRu)2
_chemical_formula_sum   'Ho1 P2 Ru2'
_cell_volume   76.95981429
_cell_formula_units_Z   1
loop_
 _symmetry_equiv_pos_site_id
 _symmetry_equiv_pos_as_xyz
  1  'x, y, z'
loop_
 _atom_site_type_symbol
 _atom_site_label
 _atom_site_symmetry_multiplicity
 _atom_site_fract_x
 _atom_site_fract_y
 _atom_site_fract_z
 _atom_site_occupancy
  Ho  Ho0  1  0.00000000  0.00000000  0.00000000  1
  P  P0  1  0.37511301  0.37511301  0.75022601  1
  P  P1  1  0.62488699  0.62488699  0.24977399  1
  Ru  Ru0  1  0.75000000  0.25000000  0.50000000  1
  Ru  Ru1  1  0.25000000  0.75000000  0.50000000  1
loop_
_geom_bond_atom_site_label_1
_geom_bond_atom_site_label_2
_geom_bond_distance
_geom_bond_site_symmetry_2
Ho0 P0 3.086050 1_444
Ho0 P1 3.086050 1_555
Ho0 P1 3.086050 1_445
Ho0 P0 3.086050 1_554
Ho0 P1 3.086050 1_455
Ho0 P0 3.086050 1_544
Ho0 P1 3.086050 1_545
Ho0 P0 3.086050 1_454
Ho0 Ru1 3.109778 1_555
Ho0 Ru0 3.109778 1_444
Ho0 Ru0 3.109778 1_455
Ho0 Ru1 3.109778 1_544
Ho0 Ru0 3.109778 1_555
Ho0 Ru1 3.109778 1_444
Ho0 Ru0 3.109778 1_454
Ho0 Ru1 3.109778 1_545
P0 Ru0 2.338106 1_555
P0 Ru1 2.338106 1_545
P0 Ru1 2.338106 1_555
P0 Ru0 2.338106 1_455
P0 P1 2.366125 1_556
P1 Ru1 2.338106 1_555
P1 Ru0 2.338106 1_565
P1 Ru0 2.338106 1_555
P1 Ru1 2.338106 1_655
