# generated using pymatgen
data_Ba5Si(Cl3O2)2
_symmetry_space_group_name_H-M   'P 1'
_cell_length_a   8.82848697
_cell_length_b   8.82848697
_cell_length_c   11.81784546
_cell_angle_alpha   82.16545702
_cell_angle_beta   82.16545702
_cell_angle_gamma   114.69271704
_symmetry_Int_Tables_number   1
_chemical_formula_structural   Ba5Si(Cl3O2)2
_chemical_formula_sum   'Ba10 Si2 Cl12 O8'
_cell_volume   809.73602389
_cell_formula_units_Z   2
loop_
 _symmetry_equiv_pos_site_id
 _symmetry_equiv_pos_as_xyz
  1  'x, y, z'
loop_
 _atom_site_type_symbol
 _atom_site_label
 _atom_site_symmetry_multiplicity
 _atom_site_fract_x
 _atom_site_fract_y
 _atom_site_fract_z
 _atom_site_occupancy
  Ba  Ba0  1  0.68087762  0.42588996  0.52007461  1
  Ba  Ba1  1  0.79875417  0.20124583  0.25000000  1
  Ba  Ba2  1  0.76990785  0.92475234  0.63333598  1
  Ba  Ba3  1  0.07524766  0.23009215  0.86666402  1
  Ba  Ba4  1  0.31912238  0.57411004  0.47992539  1
  Ba  Ba5  1  0.20124583  0.79875417  0.75000000  1
  Ba  Ba6  1  0.92475234  0.76990785  0.13333598  1
  Ba  Ba7  1  0.23009215  0.07524766  0.36666402  1
  Ba  Ba8  1  0.42588996  0.68087762  0.02007461  1
  Ba  Ba9  1  0.57411004  0.31912238  0.97992539  1
  Si  Si0  1  0.42235639  0.57764361  0.75000000  1
  Si  Si1  1  0.57764361  0.42235639  0.25000000  1
  Cl  Cl0  1  0.20420873  0.14732509  0.63219077  1
  Cl  Cl1  1  0.01855205  0.71804982  0.54938844  1
  Cl  Cl2  1  0.71804982  0.01855205  0.04938844  1
  Cl  Cl3  1  0.79579127  0.85267491  0.36780923  1
  Cl  Cl4  1  0.85267491  0.79579127  0.86780923  1
  Cl  Cl5  1  0.75877339  0.24122661  0.75000000  1
  Cl  Cl6  1  0.98144795  0.28195018  0.45061156  1
  Cl  Cl7  1  0.14732509  0.20420873  0.13219077  1
  Cl  Cl8  1  0.24122661  0.75877339  0.25000000  1
  Cl  Cl9  1  0.00000000  0.50000000  -0.00000000  1
  Cl  Cl10  1  0.28195018  0.98144795  0.95061156  1
  Cl  Cl11  1  0.50000000  0.00000000  0.50000000  1
  O  O0  1  0.40175204  0.44273900  0.86717359  1
  O  O1  1  0.23524439  0.52274334  0.71457077  1
  O  O2  1  0.55726100  0.59824796  0.63282641  1
  O  O3  1  0.52274334  0.23524439  0.21457077  1
  O  O4  1  0.47725666  0.76475561  0.78542923  1
  O  O5  1  0.44273900  0.40175204  0.36717359  1
  O  O6  1  0.76475561  0.47725666  0.28542923  1
  O  O7  1  0.59824796  0.55726100  0.13282641  1
loop_
_geom_bond_atom_site_label_1
_geom_bond_atom_site_label_2
_geom_bond_distance
_geom_bond_site_symmetry_2
Ba0 O2 2.612625 1_555
Ba0 O6 2.694499 1_555
Ba0 O5 2.914956 1_555
Ba0 Cl1 3.124242 1_655
Ba0 Cl5 3.279112 1_555
Ba0 Cl6 3.440662 1_555
Ba0 Cl11 3.474704 1_555
Ba0 Cl3 3.595023 1_555
Ba0 Cl0 3.802341 1_555
Ba1 O3 2.656722 1_555
Ba1 O6 2.656722 1_555
Ba1 Cl6 3.045103 1_555
Ba1 Cl2 3.045103 1_555
Ba1 Cl7 3.188090 1_655
Ba1 Cl3 3.188090 1_545
Ba1 Cl9 3.372147 1_655
Ba1 Cl11 3.372147 1_555
Ba2 O4 2.625620 1_555
Ba2 O2 2.705545 1_555
Ba2 Cl4 3.145704 1_555
Ba2 Cl6 3.196709 1_565
Ba2 Cl11 3.265467 1_565
Ba2 Cl3 3.282419 1_555
Ba2 Cl5 3.310530 1_565
Ba2 Cl0 3.499479 1_665
Ba2 Cl1 3.518499 1_655
Ba3 O1 2.625620 1_555
Ba3 O0 2.705545 1_555
Ba3 Cl0 3.145704 1_555
Ba3 Cl2 3.196709 1_456
Ba3 Cl9 3.265467 1_556
Ba3 Cl7 3.282419 1_556
Ba3 Cl5 3.310530 1_455
Ba3 Cl4 3.499479 1_445
Ba3 Cl10 3.518499 1_545
Ba4 O5 2.612625 1_555
Ba4 O1 2.694499 1_555
Ba4 O2 2.914956 1_555
Ba4 Cl6 3.124242 1_455
Ba4 Cl8 3.279112 1_555
Ba4 Cl1 3.440662 1_555
Ba4 Cl11 3.474704 1_565
Ba4 Cl0 3.595023 1_555
Ba4 Cl3 3.802341 1_555
Ba5 O4 2.656722 1_555
Ba5 O1 2.656722 1_555
Ba5 Cl10 3.045103 1_555
Ba5 Cl1 3.045103 1_555
Ba5 Cl4 3.188090 1_455
Ba5 Cl0 3.188090 1_565
Ba5 Cl9 3.372147 1_556
Ba5 Cl11 3.372147 1_565
Ba6 O6 2.625620 1_555
Ba6 O7 2.705545 1_555
Ba6 Cl3 3.145704 1_555
Ba6 Cl10 3.196709 1_654
Ba6 Cl9 3.265467 1_655
Ba6 Cl4 3.282419 1_554
Ba6 Cl8 3.310530 1_655
Ba6 Cl7 3.499479 1_665
Ba6 Cl2 3.518499 1_565
Ba7 O3 2.625620 1_555
Ba7 O5 2.705545 1_555
Ba7 Cl7 3.145704 1_555
Ba7 Cl1 3.196709 1_545
Ba7 Cl11 3.265467 1_555
Ba7 Cl0 3.282419 1_555
Ba7 Cl8 3.310530 1_545
Ba7 Cl3 3.499479 1_445
Ba7 Cl6 3.518499 1_455
Ba8 O7 2.612625 1_555
Ba8 O4 2.694499 1_554
Ba8 O0 2.914956 1_554
Ba8 Cl2 3.124242 1_565
Ba8 Cl8 3.279112 1_555
Ba8 Cl10 3.440662 1_554
Ba8 Cl9 3.474704 1_555
Ba8 Cl4 3.595023 1_554
Ba8 Cl7 3.802341 1_555
Ba9 O0 2.612625 1_555
Ba9 O3 2.694499 1_556
Ba9 O7 2.914956 1_556
Ba9 Cl10 3.124242 1_545
Ba9 Cl5 3.279112 1_555
Ba9 Cl2 3.440662 1_556
Ba9 Cl9 3.474704 1_656
Ba9 Cl7 3.595023 1_556
Ba9 Cl4 3.802341 1_555
O0 Si0 1.633945 1_555
O1 Si0 1.647418 1_555
O2 Si0 1.633945 1_555
O3 Si1 1.647418 1_555
O4 Si0 1.647418 1_555
O5 Si1 1.633945 1_555
O6 Si1 1.647418 1_555
O7 Si1 1.633945 1_555
