# generated using pymatgen
data_Co3BPO7
_symmetry_space_group_name_H-M   'P 1'
_cell_length_a   4.94870530
_cell_length_b   8.11304349
_cell_length_c   8.09253815
_cell_angle_alpha   105.14596472
_cell_angle_beta   107.48466760
_cell_angle_gamma   107.73461972
_symmetry_Int_Tables_number   1
_chemical_formula_structural   Co3BPO7
_chemical_formula_sum   'Co6 B2 P2 O14'
_cell_volume   272.00274495
_cell_formula_units_Z   2
loop_
 _symmetry_equiv_pos_site_id
 _symmetry_equiv_pos_as_xyz
  1  'x, y, z'
loop_
 _atom_site_type_symbol
 _atom_site_label
 _atom_site_symmetry_multiplicity
 _atom_site_fract_x
 _atom_site_fract_y
 _atom_site_fract_z
 _atom_site_occupancy
  Co  Co0  1  0.20195000  0.34481900  0.84833300  1
  Co  Co1  1  0.20347900  0.84918200  0.34595100  1
  Co  Co2  1  0.57244800  0.06427100  0.78607500  1
  Co  Co3  1  0.51932800  0.30154700  0.52071500  1
  Co  Co4  1  0.51525800  0.52216700  0.30099200  1
  Co  Co5  1  0.57234800  0.78514700  0.06375100  1
  B  B0  1  0.87030900  0.04921400  0.48217900  1
  B  B1  1  0.87013700  0.48239400  0.05029200  1
  P  P0  1  0.22160200  0.05942000  0.05962100  1
  P  P1  1  0.21031300  0.60278700  0.60227700  1
  O  O0  1  0.43187700  0.23958800  0.24057500  1
  O  O1  1  0.42251500  0.97972000  0.97908300  1
  O  O2  1  0.25535700  0.45738900  0.45662100  1
  O  O3  1  0.85783500  0.55095800  0.55050600  1
  O  O4  1  0.01542200  0.10718200  0.90976500  1
  O  O5  1  0.01477900  0.90877500  0.10695800  1
  O  O6  1  0.36557600  0.79884200  0.59791900  1
  O  O7  1  0.36384900  0.59762100  0.79829900  1
  O  O8  1  0.82042700  0.18263500  0.60306400  1
  O  O9  1  0.82171600  0.60337700  0.18462700  1
  O  O10  1  0.61914300  0.89406400  0.33577000  1
  O  O11  1  0.61967000  0.33747800  0.89371600  1
  O  O12  1  0.17409500  0.51442600  0.07228900  1
  O  O13  1  0.17466900  0.07189600  0.51552100  1
loop_
_geom_bond_atom_site_label_1
_geom_bond_atom_site_label_2
_geom_bond_distance
_geom_bond_site_symmetry_2
Co0 O11 2.010439 1_555
Co0 O8 2.026224 1_455
Co0 O12 2.039518 1_556
Co0 O4 2.123359 1_555
Co0 O7 2.154120 1_555
Co1 O10 2.007941 1_555
Co1 O9 2.027979 1_455
Co1 O13 2.036435 1_565
Co1 O5 2.127153 1_555
Co1 O6 2.149402 1_555
Co2 O4 1.990747 1_655
Co2 O6 2.002658 1_545
Co2 O11 2.068724 1_555
Co2 O1 2.099258 1_545
Co2 O8 2.395607 1_555
Co2 O13 2.495530 1_555
Co3 O8 2.051853 1_555
Co3 O0 2.064432 1_555
Co3 O13 2.088608 1_555
Co3 O3 2.096700 1_555
Co3 O2 2.125049 1_555
Co4 O9 2.048050 1_555
Co4 O12 2.068040 1_555
Co4 O0 2.093309 1_555
Co4 O2 2.103346 1_555
Co4 O3 2.112136 1_555
Co5 O5 1.985160 1_655
Co5 O7 1.999470 1_554
Co5 O10 2.057383 1_555
Co5 O1 2.117586 1_554
Co5 O9 2.406582 1_555
Co5 O12 2.497405 1_555
B0 O10 1.384099 1_545
B0 O13 1.391495 1_655
B0 O8 1.394340 1_555
B1 O11 1.383524 1_554
B1 O12 1.392342 1_655
B1 O9 1.394588 1_555
O0 P0 1.550157 1_555
O1 P0 1.546699 1_566
O2 P1 1.556303 1_555
O3 P1 1.554645 1_655
O4 P0 1.550738 1_556
O5 P0 1.551205 1_565
O6 P1 1.556493 1_555
O7 P1 1.557350 1_555
