# generated using pymatgen
data_VIr
_symmetry_space_group_name_H-M   'P 1'
_cell_length_a   5.63837706
_cell_length_b   8.85030693
_cell_length_c   8.85030672
_cell_angle_alpha   98.96566814
_cell_angle_beta   90.00000000
_cell_angle_gamma   90.00000000
_symmetry_Int_Tables_number   1
_chemical_formula_structural   VIr
_chemical_formula_sum   'V16 Ir16'
_cell_volume   436.24637740
_cell_formula_units_Z   16
loop_
 _symmetry_equiv_pos_site_id
 _symmetry_equiv_pos_as_xyz
  1  'x, y, z'
loop_
 _atom_site_type_symbol
 _atom_site_label
 _atom_site_symmetry_multiplicity
 _atom_site_fract_x
 _atom_site_fract_y
 _atom_site_fract_z
 _atom_site_occupancy
  V  V0_0  1  0.00000000  0.35147758  0.35147758  1
  V  V0_1  1  0.00000000  0.35147758  0.85147758  1
  V  V0_2  1  0.00000000  0.85147758  0.35147758  1
  V  V0_3  1  0.00000000  0.85147758  0.85147758  1
  V  V0_4  1  0.50000000  0.35147758  0.35147758  1
  V  V0_5  1  0.50000000  0.35147758  0.85147758  1
  V  V0_6  1  0.50000000  0.85147758  0.35147758  1
  V  V0_7  1  0.50000000  0.85147758  0.85147758  1
  V  V1_0  1  0.00000000  0.14852242  0.14852242  1
  V  V1_1  1  0.00000000  0.14852242  0.64852242  1
  V  V1_2  1  0.00000000  0.64852242  0.14852242  1
  V  V1_3  1  0.00000000  0.64852242  0.64852242  1
  V  V1_4  1  0.50000000  0.14852242  0.14852242  1
  V  V1_5  1  0.50000000  0.14852242  0.64852242  1
  V  V1_6  1  0.50000000  0.64852242  0.14852242  1
  V  V1_7  1  0.50000000  0.64852242  0.64852242  1
  Ir  Ir0_0  1  0.25000000  0.39173064  0.10826936  1
  Ir  Ir0_1  1  0.25000000  0.39173064  0.60826936  1
  Ir  Ir0_2  1  0.25000000  0.89173064  0.10826936  1
  Ir  Ir0_3  1  0.25000000  0.89173064  0.60826936  1
  Ir  Ir0_4  1  0.75000000  0.39173064  0.10826936  1
  Ir  Ir0_5  1  0.75000000  0.39173064  0.60826936  1
  Ir  Ir0_6  1  0.75000000  0.89173064  0.10826936  1
  Ir  Ir0_7  1  0.75000000  0.89173064  0.60826936  1
  Ir  Ir1_0  1  0.25000000  0.10826936  0.39173064  1
  Ir  Ir1_1  1  0.25000000  0.10826936  0.89173064  1
  Ir  Ir1_2  1  0.25000000  0.60826936  0.39173064  1
  Ir  Ir1_3  1  0.25000000  0.60826936  0.89173064  1
  Ir  Ir1_4  1  0.75000000  0.10826936  0.39173064  1
  Ir  Ir1_5  1  0.75000000  0.10826936  0.89173064  1
  Ir  Ir1_6  1  0.75000000  0.60826936  0.39173064  1
  Ir  Ir1_7  1  0.75000000  0.60826936  0.89173064  1
loop_
_geom_bond_atom_site_label_1
_geom_bond_atom_site_label_2
_geom_bond_distance
_geom_bond_site_symmetry_2
V0_0 V1_0 2.333916 1_555
V0_0 V0_4 2.819189 1_555
V0_0 V0_4 2.819189 1_455
V0_1 V1_1 2.333916 1_555
V0_1 V0_5 2.819189 1_555
V0_1 V0_5 2.819189 1_455
V0_2 V1_2 2.333916 1_555
V0_2 V0_6 2.819189 1_555
V0_2 V0_6 2.819189 1_455
V0_3 V1_3 2.333916 1_555
V0_3 V0_7 2.819189 1_555
V0_3 V0_7 2.819189 1_455
V0_4 V1_4 2.333916 1_555
V0_5 V1_5 2.333916 1_555
V0_6 V1_6 2.333916 1_555
V0_7 V1_7 2.333916 1_555
V1_0 V1_4 2.819189 1_555
V1_0 V1_4 2.819189 1_455
V1_1 V1_5 2.819189 1_555
V1_1 V1_5 2.819189 1_455
V1_2 V1_6 2.819189 1_555
V1_2 V1_6 2.819189 1_455
V1_3 V1_7 2.819189 1_555
V1_3 V1_7 2.819189 1_455
Ir0_0 V0_0 2.643103 1_555
Ir0_0 V0_4 2.643103 1_555
Ir0_0 V1_4 2.643103 1_555
Ir0_0 V1_0 2.643103 1_555
Ir0_0 V0_5 2.650777 1_554
Ir0_0 V0_1 2.650777 1_554
Ir0_0 V1_6 2.650777 1_555
Ir0_0 V1_2 2.650777 1_555
Ir0_0 Ir0_4 2.819189 1_455
Ir0_0 Ir0_4 2.819189 1_555
Ir0_0 Ir1_2 2.909961 1_555
Ir0_0 Ir1_1 2.909961 1_554
Ir0_0 Ir1_3 2.913790 1_554
Ir0_1 V0_1 2.643103 1_555
Ir0_1 V0_5 2.643103 1_555
Ir0_1 V1_5 2.643103 1_555
Ir0_1 V1_1 2.643103 1_555
Ir0_1 V0_0 2.650777 1_555
Ir0_1 V0_4 2.650777 1_555
Ir0_1 V1_7 2.650777 1_555
Ir0_1 V1_3 2.650777 1_555
Ir0_1 Ir0_5 2.819189 1_555
Ir0_1 Ir0_5 2.819189 1_455
Ir0_1 Ir1_3 2.909961 1_555
Ir0_1 Ir1_0 2.909961 1_555
Ir0_1 Ir1_2 2.913790 1_555
Ir0_2 V0_2 2.643103 1_555
Ir0_2 V0_6 2.643103 1_555
Ir0_2 V1_6 2.643103 1_555
Ir0_2 V1_2 2.643103 1_555
Ir0_2 V0_3 2.650777 1_554
Ir0_2 V0_7 2.650777 1_554
Ir0_2 V1_4 2.650777 1_565
Ir0_2 V1_0 2.650777 1_565
Ir0_2 Ir0_6 2.819189 1_555
Ir0_2 Ir0_6 2.819189 1_455
Ir0_2 Ir1_0 2.909961 1_565
Ir0_2 Ir1_3 2.909961 1_554
Ir0_2 Ir1_1 2.913790 1_564
Ir0_3 V0_7 2.643103 1_555
Ir0_3 V0_3 2.643103 1_555
Ir0_3 V1_7 2.643103 1_555
Ir0_3 V1_3 2.643103 1_555
Ir0_3 V0_6 2.650777 1_555
Ir0_3 V0_2 2.650777 1_555
Ir0_3 V1_1 2.650777 1_565
Ir0_3 V1_5 2.650777 1_565
Ir0_3 Ir0_7 2.819189 1_455
Ir0_3 Ir0_7 2.819189 1_555
Ir0_3 Ir1_1 2.909961 1_565
Ir0_3 Ir1_2 2.909961 1_555
Ir0_3 Ir1_0 2.913790 1_565
Ir0_4 V0_0 2.643103 1_655
Ir0_4 V0_4 2.643103 1_555
Ir0_4 V1_4 2.643103 1_555
Ir0_4 V1_0 2.643103 1_655
Ir0_4 V0_1 2.650777 1_654
Ir0_4 V0_5 2.650777 1_554
Ir0_4 V1_2 2.650777 1_655
Ir0_4 V1_6 2.650777 1_555
Ir0_4 Ir1_6 2.909961 1_555
Ir0_4 Ir1_5 2.909961 1_554
Ir0_4 Ir1_7 2.913790 1_554
Ir0_5 V0_1 2.643103 1_655
Ir0_5 V0_5 2.643103 1_555
Ir0_5 V1_1 2.643103 1_655
Ir0_5 V1_5 2.643103 1_555
Ir0_5 V0_0 2.650777 1_655
Ir0_5 V0_4 2.650777 1_555
Ir0_5 V1_3 2.650777 1_655
Ir0_5 V1_7 2.650777 1_555
Ir0_5 Ir1_7 2.909961 1_555
Ir0_5 Ir1_4 2.909961 1_555
Ir0_5 Ir1_6 2.913790 1_555
Ir0_6 V0_6 2.643103 1_555
Ir0_6 V0_2 2.643103 1_655
Ir0_6 V1_2 2.643103 1_655
Ir0_6 V1_6 2.643103 1_555
Ir0_6 V0_3 2.650777 1_654
Ir0_6 V0_7 2.650777 1_554
Ir0_6 V1_0 2.650777 1_665
Ir0_6 V1_4 2.650777 1_565
Ir0_6 Ir1_4 2.909961 1_565
Ir0_6 Ir1_7 2.909961 1_554
Ir0_6 Ir1_5 2.913790 1_564
Ir0_7 V0_3 2.643103 1_655
Ir0_7 V0_7 2.643103 1_555
Ir0_7 V1_3 2.643103 1_655
Ir0_7 V1_7 2.643103 1_555
Ir0_7 V0_6 2.650777 1_555
Ir0_7 V0_2 2.650777 1_655
Ir0_7 V1_1 2.650777 1_665
Ir0_7 V1_5 2.650777 1_565
Ir0_7 Ir1_5 2.909961 1_565
Ir0_7 Ir1_6 2.909961 1_555
Ir0_7 Ir1_4 2.913790 1_565
Ir1_0 V1_0 2.643103 1_555
Ir1_0 V1_4 2.643103 1_555
Ir1_0 V0_4 2.643103 1_555
Ir1_0 V0_0 2.643103 1_555
Ir1_0 V1_5 2.650777 1_555
Ir1_0 V1_1 2.650777 1_555
Ir1_0 V0_2 2.650777 1_545
Ir1_0 V0_6 2.650777 1_545
Ir1_0 Ir1_4 2.819189 1_555
Ir1_0 Ir1_4 2.819189 1_455
Ir1_1 V1_1 2.643103 1_555
Ir1_1 V1_5 2.643103 1_555
Ir1_1 V0_1 2.643103 1_555
Ir1_1 V0_5 2.643103 1_555
Ir1_1 V1_0 2.650777 1_556
Ir1_1 V1_4 2.650777 1_556
Ir1_1 V0_3 2.650777 1_545
Ir1_1 V0_7 2.650777 1_545
Ir1_1 Ir1_5 2.819189 1_555
Ir1_1 Ir1_5 2.819189 1_455
Ir1_2 V1_6 2.643103 1_555
Ir1_2 V1_2 2.643103 1_555
Ir1_2 V0_2 2.643103 1_555
Ir1_2 V0_6 2.643103 1_555
Ir1_2 V1_3 2.650777 1_555
Ir1_2 V1_7 2.650777 1_555
Ir1_2 V0_4 2.650777 1_555
Ir1_2 V0_0 2.650777 1_555
Ir1_2 Ir1_6 2.819189 1_455
Ir1_2 Ir1_6 2.819189 1_555
Ir1_3 V1_3 2.643103 1_555
Ir1_3 V1_7 2.643103 1_555
Ir1_3 V0_7 2.643103 1_555
Ir1_3 V0_3 2.643103 1_555
Ir1_3 V1_6 2.650777 1_556
Ir1_3 V1_2 2.650777 1_556
Ir1_3 V0_1 2.650777 1_555
Ir1_3 V0_5 2.650777 1_555
Ir1_3 Ir1_7 2.819189 1_555
Ir1_3 Ir1_7 2.819189 1_455
Ir1_4 V1_0 2.643103 1_655
Ir1_4 V1_4 2.643103 1_555
Ir1_4 V0_4 2.643103 1_555
Ir1_4 V0_0 2.643103 1_655
Ir1_4 V1_1 2.650777 1_655
Ir1_4 V1_5 2.650777 1_555
Ir1_4 V0_2 2.650777 1_645
Ir1_4 V0_6 2.650777 1_545
Ir1_5 V1_5 2.643103 1_555
Ir1_5 V1_1 2.643103 1_655
Ir1_5 V0_5 2.643103 1_555
Ir1_5 V0_1 2.643103 1_655
Ir1_5 V1_4 2.650777 1_556
Ir1_5 V1_0 2.650777 1_656
Ir1_5 V0_3 2.650777 1_645
Ir1_5 V0_7 2.650777 1_545
Ir1_6 V1_6 2.643103 1_555
Ir1_6 V1_2 2.643103 1_655
Ir1_6 V0_6 2.643103 1_555
Ir1_6 V0_2 2.643103 1_655
Ir1_6 V1_3 2.650777 1_655
Ir1_6 V1_7 2.650777 1_555
Ir1_6 V0_4 2.650777 1_555
Ir1_6 V0_0 2.650777 1_655
Ir1_7 V1_3 2.643103 1_655
Ir1_7 V1_7 2.643103 1_555
Ir1_7 V0_3 2.643103 1_655
Ir1_7 V0_7 2.643103 1_555
Ir1_7 V1_6 2.650777 1_556
Ir1_7 V1_2 2.650777 1_656
Ir1_7 V0_1 2.650777 1_655
Ir1_7 V0_5 2.650777 1_555
