# generated using pymatgen
data_CsK2Ho(PO4)2
_symmetry_space_group_name_H-M   'P 1'
_cell_length_a   5.69448194
_cell_length_b   5.69448194
_cell_length_c   8.16320500
_cell_angle_alpha   90.00000000
_cell_angle_beta   90.00000000
_cell_angle_gamma   119.99999926
_symmetry_Int_Tables_number   1
_chemical_formula_structural   CsK2Ho(PO4)2
_chemical_formula_sum   'Cs1 K2 Ho1 P2 O8'
_cell_volume   229.24494986
_cell_formula_units_Z   1
loop_
 _symmetry_equiv_pos_site_id
 _symmetry_equiv_pos_as_xyz
  1  'x, y, z'
loop_
 _atom_site_type_symbol
 _atom_site_label
 _atom_site_symmetry_multiplicity
 _atom_site_fract_x
 _atom_site_fract_y
 _atom_site_fract_z
 _atom_site_occupancy
  Cs  Cs0  1  0.00000000  0.00000000  0.50000000  1
  K  K0  1  0.33333300  0.66666700  0.25709400  1
  K  K1  1  0.66666700  0.33333300  0.74290600  1
  Ho  Ho0  1  0.00000000  0.00000000  0.00000000  1
  P  P0  1  0.66666700  0.33333300  0.22757000  1
  P  P1  1  0.33333300  0.66666700  0.77243000  1
  O  O0  1  0.81600400  0.18399600  0.16172700  1
  O  O1  1  0.33333300  0.66666700  0.58518200  1
  O  O2  1  0.66666700  0.33333300  0.41481800  1
  O  O3  1  0.36799100  0.18399600  0.16172700  1
  O  O4  1  0.18399600  0.36799100  0.83827300  1
  O  O5  1  0.18399600  0.81600400  0.83827300  1
  O  O6  1  0.63200900  0.81600400  0.83827300  1
  O  O7  1  0.81600400  0.63200900  0.16172700  1
loop_
_geom_bond_atom_site_label_1
_geom_bond_atom_site_label_2
_geom_bond_distance
_geom_bond_site_symmetry_2
Cs0 O4 3.304343 1_555
Cs0 O6 3.304343 1_445
Cs0 O3 3.304343 1_555
Cs0 O7 3.304343 1_445
Cs0 O5 3.304346 1_545
Cs0 O0 3.304346 1_455
Cs0 O1 3.360438 1_545
Cs0 O2 3.360438 1_455
Cs0 O1 3.360443 1_555
Cs0 O1 3.360443 1_445
Cs0 O2 3.360443 1_555
Cs0 O2 3.360443 1_445
K0 O1 2.678250 1_555
K0 O3 2.956697 1_555
K0 O7 2.956697 1_555
K0 O7 2.956697 1_455
K0 O3 2.956697 1_565
K0 O0 2.956697 1_565
K0 O0 2.956697 1_455
K1 O2 2.678250 1_555
K1 O4 2.956697 1_555
K1 O6 2.956697 1_555
K1 O6 2.956697 1_545
K1 O4 2.956697 1_655
K1 O5 2.956697 1_655
K1 O5 2.956697 1_545
Ho0 O3 2.244182 1_555
Ho0 O7 2.244182 1_445
Ho0 O4 2.244182 1_554
Ho0 O6 2.244182 1_444
Ho0 O0 2.244186 1_455
Ho0 O5 2.244186 1_544
O0 P0 1.567935 1_555
O1 P1 1.528544 1_555
O2 P0 1.528544 1_555
O3 P0 1.567944 1_555
O4 P1 1.567944 1_555
O5 P1 1.567935 1_555
O6 P1 1.567944 1_555
O7 P0 1.567944 1_555
