# generated using pymatgen
data_KMnVO4
_symmetry_space_group_name_H-M   'P 1'
_cell_length_a   5.72037500
_cell_length_b   12.29139700
_cell_length_c   24.29417837
_cell_angle_alpha   76.38773989
_cell_angle_beta   90.00000000
_cell_angle_gamma   90.00000000
_symmetry_Int_Tables_number   1
_chemical_formula_structural   KMnVO4
_chemical_formula_sum   'K16 Mn16 V16 O64'
_cell_volume   1660.17667818
_cell_formula_units_Z   16
loop_
 _symmetry_equiv_pos_site_id
 _symmetry_equiv_pos_as_xyz
  1  'x, y, z'
loop_
 _atom_site_type_symbol
 _atom_site_label
 _atom_site_symmetry_multiplicity
 _atom_site_fract_x
 _atom_site_fract_y
 _atom_site_fract_z
 _atom_site_occupancy
  K  K0  1  0.78635500  0.44120600  0.18716600  1
  K  K1  1  0.28418900  0.80701100  0.06438100  1
  K  K2  1  0.27004900  0.37667100  0.30481600  1
  K  K3  1  0.21581100  0.30701100  0.56438100  1
  K  K4  1  0.77004900  0.12332900  0.19518400  1
  K  K5  1  0.27268700  0.73455600  0.31501200  1
  K  K6  1  0.21364500  0.55879400  0.81283400  1
  K  K7  1  0.22731300  0.23455600  0.81501200  1
  K  K8  1  0.78418900  0.69298900  0.43561900  1
  K  K9  1  0.77268700  0.76544400  0.18498800  1
  K  K10  1  0.71581100  0.19298900  0.93561900  1
  K  K11  1  0.72995100  0.62332900  0.69518400  1
  K  K12  1  0.28635500  0.05879400  0.31283400  1
  K  K13  1  0.72731300  0.26544400  0.68498800  1
  K  K14  1  0.22995100  0.87667100  0.80481600  1
  K  K15  1  0.71364500  0.94120600  0.68716600  1
  Mn  Mn0  1  0.23558000  0.44057700  0.68158700  1
  Mn  Mn1  1  0.74223100  0.38605500  0.43929000  1
  Mn  Mn2  1  0.76442000  0.55942300  0.31841300  1
  Mn  Mn3  1  0.25768200  0.67636600  0.94158200  1
  Mn  Mn4  1  0.24231800  0.17636600  0.44158200  1
  Mn  Mn5  1  0.74231800  0.32363400  0.05841800  1
  Mn  Mn6  1  0.27716500  0.49962700  0.07717000  1
  Mn  Mn7  1  0.75776900  0.88605500  0.93929000  1
  Mn  Mn8  1  0.22283500  0.99962700  0.57717000  1
  Mn  Mn9  1  0.77716500  0.00037300  0.42283000  1
  Mn  Mn10  1  0.24223100  0.11394500  0.06071000  1
  Mn  Mn11  1  0.73558000  0.05942300  0.81841300  1
  Mn  Mn12  1  0.25776900  0.61394500  0.56071000  1
  Mn  Mn13  1  0.72283500  0.50037300  0.92283000  1
  Mn  Mn14  1  0.75768200  0.82363400  0.55841800  1
  Mn  Mn15  1  0.26442000  0.94057700  0.18158700  1
  V  V0  1  0.27025900  0.86465500  0.46395300  1
  V  V1  1  0.72689600  0.38576000  0.79112300  1
  V  V2  1  0.75489900  0.23392800  0.34736400  1
  V  V3  1  0.77025900  0.63534500  0.03604700  1
  V  V4  1  0.22974100  0.36465500  0.96395300  1
  V  V5  1  0.24510100  0.76607200  0.65263600  1
  V  V6  1  0.77310400  0.88576000  0.29112300  1
  V  V7  1  0.22698000  0.99431600  0.92985300  1
  V  V8  1  0.25489900  0.26607200  0.15263600  1
  V  V9  1  0.22689600  0.11424000  0.70887700  1
  V  V10  1  0.27310400  0.61424000  0.20887700  1
  V  V11  1  0.72698000  0.50568400  0.57014700  1
  V  V12  1  0.27302000  0.49431600  0.42985300  1
  V  V13  1  0.74510100  0.73392800  0.84736400  1
  V  V14  1  0.77302000  0.00568400  0.07014700  1
  V  V15  1  0.72974100  0.13534500  0.53604700  1
  O  O0  1  0.49418600  0.01448000  0.89273000  1
  O  O1  1  0.25268000  0.31264900  0.90618800  1
  O  O2  1  0.74967600  0.45493100  0.50994200  1
  O  O3  1  0.74732000  0.68735100  0.09381200  1
  O  O4  1  0.22159200  0.26036100  0.68838300  1
  O  O5  1  0.81558000  0.72612700  0.78101000  1
  O  O6  1  0.75032400  0.95493100  0.00994200  1
  O  O7  1  0.95429200  0.80403100  0.63549900  1
  O  O8  1  0.38688300  0.27541200  0.01986700  1
  O  O9  1  0.28380100  0.62574500  0.64835800  1
  O  O10  1  0.92453800  0.38042400  0.97838500  1
  O  O11  1  0.50581400  0.98552000  0.10727000  1
  O  O12  1  0.97975700  0.06852000  0.74995300  1
  O  O13  1  0.15051900  0.85019200  0.94609400  1
  O  O14  1  0.24967600  0.04506900  0.99005800  1
  O  O15  1  0.27840800  0.76036100  0.18838300  1
  O  O16  1  0.50161900  0.44073700  0.61386800  1
  O  O17  1  0.73429700  0.44424100  0.84968300  1
  O  O18  1  0.45429200  0.69596900  0.86450100  1
  O  O19  1  0.78380100  0.87425500  0.85164200  1
  O  O20  1  0.56332200  0.14262200  0.39589100  1
  O  O21  1  0.18442000  0.27387300  0.21899000  1
  O  O22  1  0.24732000  0.81264900  0.40618800  1
  O  O23  1  0.04570800  0.19596900  0.36450100  1
  O  O24  1  0.31558000  0.77387300  0.71899000  1
  O  O25  1  0.54570800  0.30403100  0.13549900  1
  O  O26  1  0.93667800  0.64262200  0.89589100  1
  O  O27  1  0.26570300  0.55575900  0.15031700  1
  O  O28  1  0.62792100  0.50342500  0.05099900  1
  O  O29  1  0.43667800  0.85737800  0.60410900  1
  O  O30  1  0.77840800  0.73963900  0.31161700  1
  O  O31  1  0.84948100  0.14980800  0.05390600  1
  O  O32  1  0.88688300  0.22458800  0.48013300  1
  O  O33  1  0.99838100  0.94073700  0.11386800  1
  O  O34  1  0.12792100  0.99657500  0.44900100  1
  O  O35  1  0.76570300  0.94424100  0.34968300  1
  O  O36  1  0.02024300  0.93148000  0.25004700  1
  O  O37  1  0.53032700  0.92946000  0.24753300  1
  O  O38  1  0.61311700  0.72458800  0.98013300  1
  O  O39  1  0.42453800  0.11957600  0.52161500  1
  O  O40  1  0.00161900  0.05926300  0.88613200  1
  O  O41  1  0.96967300  0.42946000  0.74753300  1
  O  O42  1  0.25032400  0.54506900  0.49005800  1
  O  O43  1  0.23429700  0.05575900  0.65031700  1
  O  O44  1  0.37207900  0.49657500  0.94900100  1
  O  O45  1  0.87207900  0.00342500  0.55099900  1
  O  O46  1  0.06332200  0.35737800  0.10410900  1
  O  O47  1  0.07546200  0.61957600  0.02161500  1
  O  O48  1  0.21619900  0.12574500  0.14835800  1
  O  O49  1  0.52024300  0.56852000  0.24995300  1
  O  O50  1  0.34948100  0.35019200  0.44609400  1
  O  O51  1  0.57546200  0.88042400  0.47838500  1
  O  O52  1  0.11311700  0.77541200  0.51986700  1
  O  O53  1  0.65051900  0.64980800  0.55390600  1
  O  O54  1  0.00581400  0.51448000  0.39273000  1
  O  O55  1  0.49838100  0.55926300  0.38613200  1
  O  O56  1  0.46967300  0.07054000  0.75246700  1
  O  O57  1  0.75268000  0.18735100  0.59381200  1
  O  O58  1  0.99418600  0.48552000  0.60727000  1
  O  O59  1  0.72159200  0.23963900  0.81161700  1
  O  O60  1  0.71619900  0.37425500  0.35164200  1
  O  O61  1  0.68442000  0.22612700  0.28101000  1
  O  O62  1  0.47975700  0.43148000  0.75004700  1
  O  O63  1  0.03032700  0.57054000  0.25246700  1
loop_
_geom_bond_atom_site_label_1
_geom_bond_atom_site_label_2
_geom_bond_distance
_geom_bond_site_symmetry_2
K0 O25 2.703621 1_555
K0 O63 2.859846 1_655
K0 O49 2.866419 1_555
K0 O46 2.936319 1_655
K0 O21 3.043781 1_655
K0 O61 3.112807 1_555
K0 O27 3.116000 1_655
K0 O27 3.325813 1_555
K0 O3 3.334242 1_555
K0 O28 3.340468 1_555
K1 O33 2.783922 1_455
K1 O13 2.899401 1_554
K1 O11 2.929712 1_555
K1 O15 2.931232 1_555
K1 O47 2.989886 1_555
K1 O3 3.032845 1_555
K1 O14 3.061733 1_564
K1 O38 3.119597 1_554
K1 O27 3.297311 1_555
K1 O6 3.321595 1_555
K1 O3 3.407500 1_455
K2 O23 2.677063 1_555
K2 O21 2.724712 1_555
K2 O63 2.783831 1_555
K2 O60 2.791515 1_555
K2 O49 2.811767 1_555
K3 O16 2.783922 1_555
K3 O50 2.899401 1_555
K3 O58 2.929712 1_455
K3 O4 2.931232 1_555
K3 O39 2.989886 1_555
K3 O57 3.032845 1_455
K3 O42 3.061733 1_555
K3 O32 3.119597 1_455
K3 O43 3.297311 1_555
K3 O2 3.321595 1_455
K3 O57 3.407500 1_555
K4 O25 2.677063 1_555
K4 O61 2.724712 1_555
K4 O37 2.783831 1_545
K4 O48 2.791515 1_655
K4 O36 2.811767 1_645
K5 O22 2.617179 1_555
K5 O55 2.746292 1_555
K5 O30 2.828925 1_455
K5 O30 2.894345 1_555
K5 O36 2.938847 1_555
K5 O37 2.958051 1_555
K5 O15 3.017665 1_555
K5 O63 3.120411 1_555
K5 O49 3.191669 1_555
K5 O54 3.287652 1_555
K6 O18 2.703621 1_555
K6 O41 2.859846 1_455
K6 O62 2.866419 1_555
K6 O26 2.936319 1_455
K6 O5 3.043781 1_455
K6 O24 3.112807 1_555
K6 O17 3.116000 1_455
K6 O17 3.325813 1_555
K6 O1 3.334242 1_555
K6 O44 3.340468 1_555
K7 O1 2.617179 1_555
K7 O40 2.746292 1_555
K7 O59 2.828925 1_555
K7 O59 2.894345 1_455
K7 O62 2.938847 1_555
K7 O41 2.958051 1_455
K7 O4 3.017665 1_555
K7 O56 3.120411 1_555
K7 O12 3.191669 1_455
K7 O0 3.287652 1_555
K8 O55 2.783922 1_555
K8 O53 2.899401 1_555
K8 O54 2.929712 1_655
K8 O30 2.931232 1_555
K8 O51 2.989886 1_555
K8 O22 3.032845 1_655
K8 O2 3.061733 1_555
K8 O52 3.119597 1_655
K8 O35 3.297311 1_555
K8 O42 3.321595 1_655
K8 O22 3.407500 1_555
K9 O3 2.617179 1_555
K9 O33 2.746292 1_555
K9 O15 2.828925 1_555
K9 O15 2.894345 1_655
K9 O49 2.938847 1_555
K9 O63 2.958051 1_655
K9 O30 3.017665 1_555
K9 O37 3.120411 1_555
K9 O36 3.191669 1_655
K9 O11 3.287652 1_555
K10 O40 2.783922 1_655
K10 O31 2.899401 1_556
K10 O0 2.929712 1_555
K10 O59 2.931232 1_555
K10 O10 2.989886 1_555
K10 O1 3.032845 1_555
K10 O6 3.061733 1_546
K10 O8 3.119597 1_556
K10 O17 3.297311 1_555
K10 O14 3.321595 1_555
K10 O1 3.407500 1_655
K11 O7 2.677063 1_555
K11 O5 2.724712 1_555
K11 O41 2.783831 1_555
K11 O9 2.791515 1_555
K11 O62 2.811767 1_555
K12 O23 2.703621 1_555
K12 O37 2.859846 1_545
K12 O36 2.866419 1_545
K12 O20 2.936319 1_555
K12 O61 3.043781 1_555
K12 O21 3.112807 1_555
K12 O35 3.116000 1_545
K12 O35 3.325813 1_445
K12 O22 3.334242 1_545
K12 O34 3.340468 1_545
K13 O57 2.617179 1_555
K13 O16 2.746292 1_555
K13 O4 2.828925 1_655
K13 O4 2.894345 1_555
K13 O12 2.938847 1_555
K13 O56 2.958051 1_555
K13 O59 3.017665 1_555
K13 O41 3.120411 1_555
K13 O62 3.191669 1_555
K13 O58 3.287652 1_555
K14 O18 2.677063 1_555
K14 O24 2.724712 1_555
K14 O56 2.783831 1_565
K14 O19 2.791515 1_455
K14 O12 2.811767 1_465
K15 O7 2.703621 1_555
K15 O56 2.859846 1_565
K15 O12 2.866419 1_565
K15 O29 2.936319 1_555
K15 O24 3.043781 1_555
K15 O5 3.112807 1_555
K15 O43 3.116000 1_565
K15 O43 3.325813 1_665
K15 O57 3.334242 1_565
K15 O45 3.340468 1_565
Mn0 O62 2.154562 1_555
Mn0 O4 2.183624 1_555
Mn0 O41 2.189994 1_455
Mn0 O58 2.236562 1_455
Mn0 O16 2.240780 1_555
Mn0 O9 2.245663 1_555
Mn1 O2 2.085337 1_555
Mn1 O32 2.163601 1_555
Mn1 O60 2.173166 1_555
Mn1 O54 2.281271 1_655
Mn1 O50 2.287989 1_555
Mn1 O55 2.617619 1_555
Mn2 O49 2.154562 1_555
Mn2 O30 2.183624 1_555
Mn2 O63 2.189994 1_655
Mn2 O54 2.236562 1_655
Mn2 O55 2.240780 1_555
Mn2 O60 2.245663 1_555
Mn3 O18 2.148788 1_555
Mn3 O47 2.171492 1_556
Mn3 O26 2.234447 1_455
Mn3 O13 2.250099 1_555
Mn3 O44 2.270862 1_555
Mn3 O38 2.371444 1_555
Mn4 O23 2.148788 1_555
Mn4 O39 2.171492 1_555
Mn4 O20 2.234447 1_555
Mn4 O50 2.250099 1_555
Mn4 O34 2.270862 1_545
Mn4 O32 2.371444 1_455
Mn5 O25 2.148788 1_555
Mn5 O10 2.171492 1_554
Mn5 O46 2.234447 1_655
Mn5 O31 2.250099 1_555
Mn5 O28 2.270862 1_555
Mn5 O8 2.371444 1_555
Mn6 O27 2.053123 1_555
Mn6 O47 2.095217 1_555
Mn6 O28 2.101980 1_555
Mn6 O46 2.107869 1_555
Mn7 O6 2.085337 1_556
Mn7 O38 2.163601 1_555
Mn7 O19 2.173166 1_555
Mn7 O0 2.281271 1_565
Mn7 O13 2.287989 1_655
Mn7 O40 2.617619 1_665
Mn8 O43 2.053123 1_565
Mn8 O39 2.095217 1_565
Mn8 O45 2.101980 1_465
Mn8 O29 2.107869 1_555
Mn9 O35 2.053123 1_545
Mn9 O51 2.095217 1_545
Mn9 O34 2.101980 1_645
Mn9 O20 2.107869 1_555
Mn10 O14 2.085337 1_554
Mn10 O8 2.163601 1_555
Mn10 O48 2.173166 1_555
Mn10 O11 2.281271 1_545
Mn10 O31 2.287989 1_455
Mn10 O33 2.617619 1_445
Mn11 O12 2.154562 1_555
Mn11 O59 2.183624 1_555
Mn11 O56 2.189994 1_555
Mn11 O0 2.236562 1_555
Mn11 O40 2.240780 1_655
Mn11 O19 2.245663 1_545
Mn12 O42 2.085337 1_555
Mn12 O52 2.163601 1_555
Mn12 O9 2.173166 1_555
Mn12 O58 2.281271 1_455
Mn12 O53 2.287989 1_555
Mn12 O16 2.617619 1_555
Mn13 O17 2.053123 1_555
Mn13 O10 2.095217 1_555
Mn13 O44 2.101980 1_555
Mn13 O26 2.107869 1_555
Mn14 O7 2.148788 1_555
Mn14 O51 2.171492 1_555
Mn14 O29 2.234447 1_555
Mn14 O53 2.250099 1_555
Mn14 O45 2.270862 1_565
Mn14 O52 2.371444 1_655
Mn15 O36 2.154562 1_555
Mn15 O15 2.183624 1_555
Mn15 O37 2.189994 1_555
Mn15 O11 2.236562 1_555
Mn15 O33 2.240780 1_455
Mn15 O48 2.245663 1_565
O0 V7 1.762373 1_545
O1 V4 1.678534 1_555
O2 V11 1.724756 1_555
O3 V3 1.678534 1_555
O4 V9 1.747464 1_555
O5 V13 1.686146 1_555
O6 V14 1.724756 1_565
O7 V5 1.751268 1_655
O8 V4 1.776267 1_554
O9 V5 1.766118 1_555
O10 V4 1.800157 1_655
O11 V14 1.762373 1_565
O12 V9 1.745361 1_655
O13 V7 1.776554 1_555
O14 V7 1.724756 1_545
O15 V10 1.747464 1_555
O16 V11 1.740188 1_555
O17 V1 1.738913 1_555
O18 V13 1.751268 1_555
O19 V13 1.766118 1_555
O20 V2 1.796545 1_555
O21 V8 1.686146 1_555
O22 V0 1.678534 1_555
O23 V2 1.751268 1_455
O24 V5 1.686146 1_555
O25 V8 1.751268 1_555
O26 V13 1.796545 1_555
O27 V10 1.738913 1_555
O28 V3 1.773943 1_555
O29 V5 1.796545 1_555
O30 V6 1.747464 1_555
O31 V14 1.776554 1_555
O32 V15 1.776267 1_555
O33 V14 1.740188 1_565
O34 V0 1.773943 1_555
O35 V6 1.738913 1_555
O36 V6 1.745361 1_455
O37 V6 1.752402 1_555
O38 V3 1.776267 1_556
O39 V15 1.800157 1_555
O40 V7 1.740188 1_545
O41 V1 1.752402 1_555
O42 V12 1.724756 1_555
O43 V9 1.738913 1_555
O44 V4 1.773943 1_555
O45 V15 1.773943 1_555
O46 V8 1.796545 1_555
O47 V3 1.800157 1_455
O48 V8 1.766118 1_555
O49 V10 1.745361 1_555
O50 V12 1.776554 1_555
O51 V0 1.800157 1_555
O52 V0 1.776267 1_555
O53 V11 1.776554 1_555
O54 V12 1.762373 1_555
O55 V12 1.740188 1_555
O56 V9 1.752402 1_555
O57 V15 1.678534 1_555
O58 V11 1.762373 1_555
O59 V1 1.747464 1_555
O60 V2 1.766118 1_555
O61 V2 1.686146 1_555
O62 V1 1.745361 1_555
O63 V10 1.752402 1_555
