# generated using pymatgen
data_YCu2Bi2(SeO2)2
_symmetry_space_group_name_H-M   'P 1'
_cell_length_a   12.68832259
_cell_length_b   12.68832259
_cell_length_c   12.68832259
_cell_angle_alpha   162.48335445
_cell_angle_beta   162.48335445
_cell_angle_gamma   24.87071451
_symmetry_Int_Tables_number   1
_chemical_formula_structural   YCu2Bi2(SeO2)2
_chemical_formula_sum   'Y1 Cu2 Bi2 Se2 O4'
_cell_volume   185.00088049
_cell_formula_units_Z   1
loop_
 _symmetry_equiv_pos_site_id
 _symmetry_equiv_pos_as_xyz
  1  'x, y, z'
loop_
 _atom_site_type_symbol
 _atom_site_label
 _atom_site_symmetry_multiplicity
 _atom_site_fract_x
 _atom_site_fract_y
 _atom_site_fract_z
 _atom_site_occupancy
  Y  Y0  1  -0.00000000  -0.00000000  0.00000000  1
  Cu  Cu0  1  0.75000000  0.25000000  0.50000000  1
  Cu  Cu1  1  0.25000000  0.75000000  0.50000000  1
  Bi  Bi0  1  0.39916552  0.39916552  -0.00000000  1
  Bi  Bi1  1  0.60083448  0.60083448  0.00000000  1
  Se  Se0  1  0.81052750  0.81052750  0.00000000  1
  Se  Se1  1  0.18947250  0.18947250  -0.00000000  1
  O  O0  1  0.05567672  0.55567672  0.50000000  1
  O  O1  1  0.44432328  0.94432328  0.50000000  1
  O  O2  1  0.55567672  0.05567672  0.50000000  1
  O  O3  1  0.94432328  0.44432328  0.50000000  1
loop_
_geom_bond_atom_site_label_1
_geom_bond_atom_site_label_2
_geom_bond_distance
_geom_bond_site_symmetry_2
Cu0 Se0 2.445919 1_545
Cu0 Se0 2.445919 1_556
Cu0 Se1 2.445919 1_555
Cu0 Se1 2.445919 1_656
Cu1 Se0 2.445919 1_455
Cu1 Se0 2.445919 1_556
Cu1 Se1 2.445919 1_566
Cu1 Se1 2.445919 1_555
Bi0 O3 2.232708 1_555
Bi0 O1 2.232708 1_555
Bi0 O1 2.232708 1_544
Bi0 O3 2.232708 1_454
Bi1 O0 2.232708 1_554
Bi1 O2 2.232708 1_565
Bi1 O0 2.232708 1_655
Bi1 O2 2.232708 1_554
O0 Y0 2.374101 1_555
O0 Y0 2.374101 1_566
O1 Y0 2.374101 1_666
O1 Y0 2.374101 1_565
O2 Y0 2.374101 1_656
O2 Y0 2.374101 1_555
O3 Y0 2.374101 1_655
O3 Y0 2.374101 1_666
