# generated using pymatgen
data_SnPO3F
_symmetry_space_group_name_H-M   'P 1'
_cell_length_a   13.11275900
_cell_length_b   4.79256700
_cell_length_c   6.40396495
_cell_angle_alpha   79.76337616
_cell_angle_beta   90.00000000
_cell_angle_gamma   90.00000000
_symmetry_Int_Tables_number   1
_chemical_formula_structural   SnPO3F
_chemical_formula_sum   'Sn4 P4 O12 F4'
_cell_volume   396.04323637
_cell_formula_units_Z   4
loop_
 _symmetry_equiv_pos_site_id
 _symmetry_equiv_pos_as_xyz
  1  'x, y, z'
loop_
 _atom_site_type_symbol
 _atom_site_label
 _atom_site_symmetry_multiplicity
 _atom_site_fract_x
 _atom_site_fract_y
 _atom_site_fract_z
 _atom_site_occupancy
  Sn  Sn0  1  0.36865400  0.03142200  0.71324200  1
  Sn  Sn1  1  0.63134600  0.96857800  0.28675800  1
  Sn  Sn2  1  0.13134600  0.03142200  0.21324200  1
  Sn  Sn3  1  0.86865400  0.96857800  0.78675800  1
  P  P0  1  0.85100200  0.38441500  0.16415500  1
  P  P1  1  0.35100200  0.61558500  0.33584500  1
  P  P2  1  0.14899800  0.61558500  0.83584500  1
  P  P3  1  0.64899800  0.38441500  0.66415500  1
  O  O0  1  0.69391200  0.66812900  0.55456700  1
  O  O1  1  0.08288700  0.76647600  0.97911500  1
  O  O2  1  0.91711300  0.23352400  0.02088500  1
  O  O3  1  0.27392400  0.80350000  0.19902400  1
  O  O4  1  0.22607600  0.80350000  0.69902400  1
  O  O5  1  0.19391200  0.33187100  0.94543300  1
  O  O6  1  0.30608800  0.33187100  0.44543300  1
  O  O7  1  0.80608800  0.66812900  0.05456700  1
  O  O8  1  0.77392400  0.19650000  0.30097600  1
  O  O9  1  0.58288700  0.23352400  0.52088500  1
  O  O10  1  0.72607600  0.19650000  0.80097600  1
  O  O11  1  0.41711300  0.76647600  0.47911500  1
  F  F0  1  0.57039800  0.46380200  0.83419200  1
  F  F1  1  0.92960200  0.46380200  0.33419200  1
  F  F2  1  0.42960200  0.53619800  0.16580800  1
  F  F3  1  0.07039800  0.53619800  0.66580800  1
loop_
_geom_bond_atom_site_label_1
_geom_bond_atom_site_label_2
_geom_bond_distance
_geom_bond_site_symmetry_2
O0 P3 1.532660 1_555
O0 Sn1 2.193189 1_555
O1 P2 1.533652 1_555
O1 Sn2 2.222788 1_566
O2 P0 1.533652 1_555
O2 Sn3 2.222788 1_544
O3 P1 1.523105 1_555
O3 Sn2 2.175362 1_565
O4 P2 1.523105 1_555
O4 Sn0 2.175362 1_565
O5 P2 1.532660 1_555
O5 Sn2 2.193189 1_556
O6 P1 1.532660 1_555
O6 Sn0 2.193189 1_555
O7 P0 1.532660 1_555
O7 Sn3 2.193189 1_554
O8 P0 1.523105 1_555
O8 Sn1 2.175362 1_545
O9 P3 1.533652 1_555
O9 Sn1 2.222788 1_545
O10 P3 1.523105 1_555
O10 Sn3 2.175362 1_545
O11 P1 1.533652 1_555
O11 Sn0 2.222788 1_565
F0 P3 1.593738 1_555
F1 P0 1.593738 1_555
F2 P1 1.593738 1_555
F3 P2 1.593738 1_555
