# generated using pymatgen
data_YbClO
_symmetry_space_group_name_H-M   'P 1'
_cell_length_a   9.67438939
_cell_length_b   9.67438939
_cell_length_c   9.67438934
_cell_angle_alpha   22.01395731
_cell_angle_beta   22.01395731
_cell_angle_gamma   22.01395803
_symmetry_Int_Tables_number   1
_chemical_formula_structural   YbClO
_chemical_formula_sum   'Yb2 Cl2 O2'
_cell_volume   111.52790483
_cell_formula_units_Z   2
loop_
 _symmetry_equiv_pos_site_id
 _symmetry_equiv_pos_as_xyz
  1  'x, y, z'
loop_
 _atom_site_type_symbol
 _atom_site_label
 _atom_site_symmetry_multiplicity
 _atom_site_fract_x
 _atom_site_fract_y
 _atom_site_fract_z
 _atom_site_occupancy
  Yb  Yb0  1  0.38250449  0.38250449  0.38250449  1
  Yb  Yb1  1  0.61749551  0.61749551  0.61749551  1
  Cl  Cl0  1  0.10980241  0.10980241  0.10980241  1
  Cl  Cl1  1  0.89019759  0.89019759  0.89019759  1
  O  O0  1  0.30396039  0.30396039  0.30396039  1
  O  O1  1  0.69603961  0.69603961  0.69603961  1
loop_
_geom_bond_atom_site_label_1
_geom_bond_atom_site_label_2
_geom_bond_distance
_geom_bond_site_symmetry_2
Cl0 Yb0 2.737736 1_554
Cl0 Yb0 2.737736 1_455
Cl0 Yb0 2.737736 1_545
Cl1 Yb1 2.737736 1_556
Cl1 Yb1 2.737736 1_565
Cl1 Yb1 2.737736 1_655
O0 Yb1 2.205277 1_554
O0 Yb1 2.205277 1_545
O0 Yb1 2.205277 1_455
O0 Yb0 2.223508 1_555
O1 Yb0 2.205277 1_556
O1 Yb0 2.205277 1_655
O1 Yb0 2.205277 1_565
O1 Yb1 2.223508 1_555
