# generated using pymatgen
data_Cs2UMoO7
_symmetry_space_group_name_H-M   'P 1'
_cell_length_a   12.24627876
_cell_length_b   12.81334719
_cell_length_c   18.14487301
_cell_angle_alpha   90.00000000
_cell_angle_beta   90.00000000
_cell_angle_gamma   90.00000000
_symmetry_Int_Tables_number   1
_chemical_formula_structural   Cs2UMoO7
_chemical_formula_sum   'Cs24 U12 Mo12 O84'
_cell_volume   2847.21765506
_cell_formula_units_Z   12
loop_
 _symmetry_equiv_pos_site_id
 _symmetry_equiv_pos_as_xyz
  1  'x, y, z'
loop_
 _atom_site_type_symbol
 _atom_site_label
 _atom_site_symmetry_multiplicity
 _atom_site_fract_x
 _atom_site_fract_y
 _atom_site_fract_z
 _atom_site_occupancy
  Cs  Cs0  1  0.63206785  0.49440792  0.40303255  1
  Cs  Cs1  1  0.63950255  0.95815292  0.40523477  1
  Cs  Cs2  1  0.36793215  0.50559208  0.90303255  1
  Cs  Cs3  1  0.86455148  0.52081256  0.24140539  1
  Cs  Cs4  1  0.86623712  0.51626213  0.56879545  1
  Cs  Cs5  1  0.63544852  0.52081256  0.74140539  1
  Cs  Cs6  1  0.13376288  0.48373787  0.06879545  1
  Cs  Cs7  1  0.37585854  0.99771683  0.56500754  1
  Cs  Cs8  1  0.13950255  0.04184708  0.40523477  1
  Cs  Cs9  1  0.87585854  0.00228317  0.56500754  1
  Cs  Cs10  1  0.12414146  0.99771683  0.06500754  1
  Cs  Cs11  1  0.63376288  0.51626213  0.06879545  1
  Cs  Cs12  1  0.13206785  0.50559208  0.40303255  1
  Cs  Cs13  1  0.36049745  0.04184708  0.90523477  1
  Cs  Cs14  1  0.87231625  0.00113564  0.24461371  1
  Cs  Cs15  1  0.13544852  0.47918744  0.74140539  1
  Cs  Cs16  1  0.12768375  0.99886436  0.74461371  1
  Cs  Cs17  1  0.37231625  0.99886436  0.24461371  1
  Cs  Cs18  1  0.86793215  0.49440792  0.90303255  1
  Cs  Cs19  1  0.86049745  0.95815292  0.90523477  1
  Cs  Cs20  1  0.62768375  0.00113564  0.74461371  1
  Cs  Cs21  1  0.62414146  0.00228317  0.06500754  1
  Cs  Cs22  1  0.36455148  0.47918744  0.24140539  1
  Cs  Cs23  1  0.36623712  0.48373787  0.56879545  1
  U  U0  1  0.86354631  0.26261668  0.40484805  1
  U  U1  1  0.37047892  0.75906137  0.73616169  1
  U  U2  1  0.12964953  0.75438092  0.57287240  1
  U  U3  1  0.13645369  0.73738332  0.90484805  1
  U  U4  1  0.63645369  0.26261668  0.90484805  1
  U  U5  1  0.62952108  0.24093863  0.23616169  1
  U  U6  1  0.87035047  0.24561908  0.07287240  1
  U  U7  1  0.36354631  0.73738332  0.40484805  1
  U  U8  1  0.37035047  0.75438092  0.07287240  1
  U  U9  1  0.87047892  0.24093863  0.73616169  1
  U  U10  1  0.12952108  0.75906137  0.23616169  1
  U  U11  1  0.62964953  0.24561908  0.57287240  1
  Mo  Mo0  1  0.91412489  0.74542238  0.40521998  1
  Mo  Mo1  1  0.41260343  0.24576338  0.73752657  1
  Mo  Mo2  1  0.08587511  0.25457762  0.90521998  1
  Mo  Mo3  1  0.40922923  0.24011063  0.07399891  1
  Mo  Mo4  1  0.59077077  0.75988937  0.57399891  1
  Mo  Mo5  1  0.58739657  0.75423662  0.23752657  1
  Mo  Mo6  1  0.58587511  0.74542238  0.90521998  1
  Mo  Mo7  1  0.41412489  0.25457762  0.40521998  1
  Mo  Mo8  1  0.91260343  0.75423662  0.73752657  1
  Mo  Mo9  1  0.09077077  0.24011063  0.57399891  1
  Mo  Mo10  1  0.08739657  0.24576338  0.23752657  1
  Mo  Mo11  1  0.90922923  0.75988937  0.07399891  1
  O  O0  1  0.62248643  0.10750437  0.53933606  1
  O  O1  1  0.11237608  0.11879890  0.90741981  1
  O  O2  1  0.50249786  0.76685246  0.49295764  1
  O  O3  1  0.29175591  0.17242124  0.74846320  1
  O  O4  1  0.20185370  0.15513496  0.55888134  1
  O  O5  1  0.38266204  0.62248004  0.70156452  1
  O  O6  1  0.37447217  0.89826437  0.76847445  1
  O  O7  1  0.75261100  0.28783315  0.81792562  1
  O  O8  1  0.49304750  0.29490067  0.48626261  1
  O  O9  1  0.99750214  0.76685246  0.99295764  1
  O  O10  1  0.61237608  0.88120110  0.90741981  1
  O  O11  1  0.98605552  0.80709614  0.15423165  1
  O  O12  1  0.49997377  0.22047587  0.81736326  1
  O  O13  1  0.38762392  0.11879890  0.40741981  1
  O  O14  1  0.01394448  0.19290386  0.65423165  1
  O  O15  1  0.00894278  0.28862310  0.82201977  1
  O  O16  1  0.88052969  0.61952956  0.73231082  1
  O  O17  1  0.40261918  0.59472130  0.40195514  1
  O  O18  1  0.13873247  0.36920616  0.58726312  1
  O  O19  1  0.00249786  0.23314754  0.49295764  1
  O  O20  1  0.11947031  0.38047044  0.23231082  1
  O  O21  1  0.09738082  0.59472130  0.90195514  1
  O  O22  1  0.87751357  0.10750437  0.03933606  1
  O  O23  1  0.61733796  0.37751996  0.20156452  1
  O  O24  1  0.62071116  0.38248186  0.60750920  1
  O  O25  1  0.16376805  0.88075320  0.90778432  1
  O  O26  1  0.51594584  0.79898044  0.15436289  1
  O  O27  1  0.70824409  0.82757876  0.24846320  1
  O  O28  1  0.36126753  0.36920616  0.08726312  1
  O  O29  1  0.87447217  0.10173563  0.76847445  1
  O  O30  1  0.63873247  0.63079384  0.58726312  1
  O  O31  1  0.70975621  0.67458214  0.90501283  1
  O  O32  1  0.79814630  0.84486504  0.05888134  1
  O  O33  1  0.99105722  0.71137690  0.32201977  1
  O  O34  1  0.48405416  0.20101956  0.65436289  1
  O  O35  1  0.24906015  0.70707658  0.49167889  1
  O  O36  1  0.37928884  0.61751814  0.10750920  1
  O  O37  1  0.99304750  0.70509933  0.48626261  1
  O  O38  1  0.83623195  0.11924680  0.40778432  1
  O  O39  1  0.01594584  0.20101956  0.15436289  1
  O  O40  1  0.29024379  0.32541786  0.40501283  1
  O  O41  1  0.88266204  0.37751996  0.70156452  1
  O  O42  1  0.50002623  0.77952413  0.31736326  1
  O  O43  1  0.12248643  0.89249563  0.53933606  1
  O  O44  1  0.25078246  0.79924219  0.15454584  1
  O  O45  1  0.38052969  0.38047044  0.73231082  1
  O  O46  1  0.20975621  0.32541786  0.90501283  1
  O  O47  1  0.33623195  0.88075320  0.40778432  1
  O  O48  1  0.25093985  0.70707658  0.99167889  1
  O  O49  1  0.74906015  0.29292342  0.49167889  1
  O  O50  1  0.51394448  0.80709614  0.65423165  1
  O  O51  1  0.24738900  0.71216685  0.31792562  1
  O  O52  1  0.11733796  0.62248004  0.20156452  1
  O  O53  1  0.99997377  0.77952413  0.81736326  1
  O  O54  1  0.88762392  0.88120110  0.40741981  1
  O  O55  1  0.00695250  0.29490067  0.98626261  1
  O  O56  1  0.74738900  0.28783315  0.31792562  1
  O  O57  1  0.29814630  0.15513496  0.05888134  1
  O  O58  1  0.24921754  0.79924219  0.65454584  1
  O  O59  1  0.75078246  0.20075781  0.15454584  1
  O  O60  1  0.62552783  0.10173563  0.26847445  1
  O  O61  1  0.66376805  0.11924680  0.90778432  1
  O  O62  1  0.61947031  0.61952956  0.23231082  1
  O  O63  1  0.20824409  0.17242124  0.24846320  1
  O  O64  1  0.49750214  0.23314754  0.99295764  1
  O  O65  1  0.12552783  0.89826437  0.26847445  1
  O  O66  1  0.00002623  0.22047587  0.31736326  1
  O  O67  1  0.79175591  0.82757876  0.74846320  1
  O  O68  1  0.79024379  0.67458214  0.40501283  1
  O  O69  1  0.86126753  0.63079384  0.08726312  1
  O  O70  1  0.48605552  0.19290386  0.15423165  1
  O  O71  1  0.70185370  0.84486504  0.55888134  1
  O  O72  1  0.37751357  0.89249563  0.03933606  1
  O  O73  1  0.90261918  0.40527870  0.40195514  1
  O  O74  1  0.75093985  0.29292342  0.99167889  1
  O  O75  1  0.50894278  0.71137690  0.82201977  1
  O  O76  1  0.59738082  0.40527870  0.90195514  1
  O  O77  1  0.87928884  0.38248186  0.10750920  1
  O  O78  1  0.25261100  0.71216685  0.81792562  1
  O  O79  1  0.49105722  0.28862310  0.32201977  1
  O  O80  1  0.98405416  0.79898044  0.65436289  1
  O  O81  1  0.12071116  0.61751814  0.60750920  1
  O  O82  1  0.74921754  0.20075781  0.65454584  1
  O  O83  1  0.50695250  0.70509933  0.98626261  1
loop_
_geom_bond_atom_site_label_1
_geom_bond_atom_site_label_2
_geom_bond_distance
_geom_bond_site_symmetry_2
Cs0 O68 3.013854 1_555
Cs0 O17 3.089984 1_555
Cs0 O49 3.362293 1_555
Cs0 O56 3.374217 1_555
Cs0 O8 3.422587 1_555
Cs0 O79 3.477859 1_555
Cs0 O62 3.491423 1_555
Cs0 O73 3.504604 1_555
Cs0 O30 3.772958 1_555
Cs1 O60 3.093848 1_565
Cs1 O0 3.102636 1_565
Cs1 O38 3.172873 1_565
Cs1 O54 3.194786 1_555
Cs1 O71 3.234586 1_555
Cs1 O42 3.270843 1_555
Cs1 O2 3.370008 1_555
Cs1 O27 3.405828 1_555
Cs1 O13 3.708537 1_565
Cs2 O46 3.013854 1_555
Cs2 O76 3.089984 1_555
Cs2 O48 3.362293 1_555
Cs2 O78 3.374217 1_555
Cs2 O83 3.422587 1_555
Cs2 O75 3.477859 1_555
Cs2 O45 3.491423 1_555
Cs2 O21 3.504604 1_555
Cs2 O28 3.772958 1_556
Cs3 O77 3.012784 1_555
Cs3 O69 3.132115 1_555
Cs3 O33 3.240667 1_555
Cs3 O62 3.261163 1_555
Cs3 O73 3.300805 1_555
Cs3 O52 3.435541 1_655
Cs3 O56 3.591400 1_555
Cs3 O20 3.606469 1_655
Cs3 O23 3.613742 1_555
Cs3 O68 3.677361 1_555
Cs4 O41 3.000753 1_555
Cs4 O30 3.166736 1_555
Cs4 O37 3.241753 1_555
Cs4 O16 3.253365 1_555
Cs4 O73 3.374213 1_555
Cs4 O81 3.447965 1_655
Cs4 O49 3.493787 1_555
Cs4 O24 3.531651 1_555
Cs4 O68 3.716587 1_555
Cs4 O18 3.846911 1_655
Cs5 O24 3.012784 1_555
Cs5 O30 3.132115 1_555
Cs5 O75 3.240667 1_555
Cs5 O16 3.261163 1_555
Cs5 O76 3.300805 1_555
Cs5 O5 3.435541 1_555
Cs5 O7 3.591400 1_555
Cs5 O45 3.606469 1_555
Cs5 O41 3.613742 1_555
Cs5 O31 3.677361 1_555
Cs6 O52 3.000753 1_555
Cs6 O28 3.166736 1_555
Cs6 O55 3.241753 1_554
Cs6 O20 3.253365 1_555
Cs6 O21 3.374213 1_554
Cs6 O77 3.447965 1_455
Cs6 O48 3.493787 1_554
Cs6 O36 3.531651 1_555
Cs6 O46 3.716587 1_554
Cs6 O69 3.846911 1_455
Cs7 O4 2.936264 1_565
Cs7 O13 3.256383 1_565
Cs7 O47 3.258838 1_555
Cs7 O34 3.342203 1_565
Cs7 O0 3.364218 1_565
Cs7 O50 3.383253 1_555
Cs7 O58 3.392969 1_555
Cs7 O43 3.415039 1_555
Cs7 O2 3.586770 1_555
Cs8 O65 3.093848 1_545
Cs8 O43 3.102636 1_545
Cs8 O47 3.172873 1_545
Cs8 O13 3.194786 1_555
Cs8 O4 3.234586 1_555
Cs8 O66 3.270843 1_555
Cs8 O19 3.370008 1_555
Cs8 O63 3.405828 1_555
Cs8 O54 3.708537 1_445
Cs9 O71 2.936264 1_545
Cs9 O54 3.256383 1_545
Cs9 O38 3.258838 1_555
Cs9 O80 3.342203 1_545
Cs9 O43 3.364218 1_645
Cs9 O14 3.383253 1_655
Cs9 O82 3.392969 1_555
Cs9 O0 3.415039 1_555
Cs9 O19 3.586770 1_655
Cs10 O57 2.936264 1_565
Cs10 O1 3.256383 1_564
Cs10 O25 3.258838 1_554
Cs10 O39 3.342203 1_565
Cs10 O22 3.364218 1_465
Cs10 O11 3.383253 1_455
Cs10 O44 3.392969 1_555
Cs10 O72 3.415039 1_555
Cs10 O9 3.586770 1_454
Cs11 O23 3.000753 1_555
Cs11 O69 3.166736 1_555
Cs11 O83 3.241753 1_554
Cs11 O62 3.253365 1_555
Cs11 O76 3.374213 1_554
Cs11 O36 3.447965 1_555
Cs11 O74 3.493787 1_554
Cs11 O77 3.531651 1_555
Cs11 O31 3.716587 1_554
Cs11 O28 3.846911 1_555
Cs12 O40 3.013854 1_555
Cs12 O73 3.089984 1_455
Cs12 O35 3.362293 1_555
Cs12 O51 3.374217 1_555
Cs12 O37 3.422587 1_455
Cs12 O33 3.477859 1_455
Cs12 O20 3.491423 1_555
Cs12 O17 3.504604 1_555
Cs12 O18 3.772958 1_555
Cs13 O6 3.093848 1_545
Cs13 O72 3.102636 1_546
Cs13 O25 3.172873 1_545
Cs13 O1 3.194786 1_555
Cs13 O57 3.234586 1_556
Cs13 O12 3.270843 1_555
Cs13 O64 3.370008 1_555
Cs13 O3 3.405828 1_555
Cs13 O10 3.708537 1_545
Cs14 O27 2.997923 1_545
Cs14 O11 3.288053 1_545
Cs14 O60 3.314055 1_555
Cs14 O54 3.335186 1_545
Cs14 O38 3.354319 1_555
Cs14 O59 3.380602 1_555
Cs14 O65 3.397128 1_645
Cs14 O66 3.476680 1_655
Cs14 O39 3.512148 1_655
Cs15 O81 3.012784 1_555
Cs15 O18 3.132115 1_555
Cs15 O15 3.240667 1_555
Cs15 O45 3.261163 1_555
Cs15 O21 3.300805 1_555
Cs15 O41 3.435541 1_455
Cs15 O78 3.591400 1_555
Cs15 O16 3.606469 1_455
Cs15 O5 3.613742 1_555
Cs15 O46 3.677361 1_555
Cs16 O3 2.997923 1_565
Cs16 O14 3.288053 1_565
Cs16 O6 3.314055 1_555
Cs16 O1 3.335186 1_565
Cs16 O25 3.354319 1_555
Cs16 O58 3.380602 1_555
Cs16 O29 3.397128 1_465
Cs16 O53 3.476680 1_455
Cs16 O80 3.512148 1_455
Cs17 O63 2.997923 1_565
Cs17 O70 3.288053 1_565
Cs17 O65 3.314055 1_555
Cs17 O13 3.335186 1_565
Cs17 O47 3.354319 1_555
Cs17 O44 3.380602 1_555
Cs17 O60 3.397128 1_565
Cs17 O42 3.476680 1_555
Cs17 O26 3.512148 1_555
Cs18 O31 3.013854 1_555
Cs18 O21 3.089984 1_655
Cs18 O74 3.362293 1_555
Cs18 O7 3.374217 1_555
Cs18 O55 3.422587 1_655
Cs18 O15 3.477859 1_655
Cs18 O16 3.491423 1_555
Cs18 O76 3.504604 1_555
Cs18 O69 3.772958 1_556
Cs19 O29 3.093848 1_565
Cs19 O22 3.102636 1_566
Cs19 O61 3.172873 1_565
Cs19 O10 3.194786 1_555
Cs19 O32 3.234586 1_556
Cs19 O53 3.270843 1_555
Cs19 O9 3.370008 1_555
Cs19 O67 3.405828 1_555
Cs19 O1 3.708537 1_665
Cs20 O67 2.997923 1_545
Cs20 O50 3.288053 1_545
Cs20 O29 3.314055 1_555
Cs20 O10 3.335186 1_545
Cs20 O61 3.354319 1_555
Cs20 O82 3.380602 1_555
Cs20 O6 3.397128 1_545
Cs20 O12 3.476680 1_555
Cs20 O34 3.512148 1_555
Cs21 O32 2.936264 1_545
Cs21 O10 3.256383 1_544
Cs21 O61 3.258838 1_554
Cs21 O26 3.342203 1_545
Cs21 O72 3.364218 1_545
Cs21 O70 3.383253 1_555
Cs21 O59 3.392969 1_555
Cs21 O22 3.415039 1_555
Cs21 O64 3.586770 1_554
Cs22 O36 3.012784 1_555
Cs22 O28 3.132115 1_555
Cs22 O79 3.240667 1_555
Cs22 O20 3.261163 1_555
Cs22 O17 3.300805 1_555
Cs22 O23 3.435541 1_555
Cs22 O51 3.591400 1_555
Cs22 O62 3.606469 1_555
Cs22 O52 3.613742 1_555
Cs22 O40 3.677361 1_555
Cs23 O5 3.000753 1_555
Cs23 O18 3.166736 1_555
Cs23 O8 3.241753 1_555
Cs23 O45 3.253365 1_555
Cs23 O17 3.374213 1_555
Cs23 O24 3.447965 1_555
Cs23 O35 3.493787 1_555
Cs23 O81 3.531651 1_555
Cs23 O40 3.716587 1_555
Cs23 O30 3.846911 1_555
Mo0 O68 1.767901 1_555
Mo0 O54 1.770241 1_555
Mo0 O33 1.832208 1_555
Mo0 O37 1.833980 1_555
Mo1 O3 1.764292 1_555
Mo1 O45 1.772704 1_555
Mo1 O12 1.829843 1_555
Mo1 O34 1.836135 1_555
Mo2 O46 1.767901 1_555
Mo2 O1 1.770241 1_555
Mo2 O15 1.832208 1_555
Mo2 O55 1.833980 1_555
Mo3 O57 1.763899 1_555
Mo3 O28 1.771752 1_555
Mo3 O64 1.827259 1_554
Mo3 O70 1.835876 1_555
Mo4 O71 1.763899 1_555
Mo4 O30 1.771752 1_555
Mo4 O2 1.827259 1_555
Mo4 O50 1.835876 1_555
Mo5 O27 1.764292 1_555
Mo5 O62 1.772704 1_555
Mo5 O42 1.829843 1_555
Mo5 O26 1.836135 1_555
Mo6 O31 1.767901 1_555
Mo6 O10 1.770241 1_555
Mo6 O75 1.832208 1_555
Mo6 O83 1.833980 1_555
Mo7 O40 1.767901 1_555
Mo7 O13 1.770241 1_555
Mo7 O79 1.832208 1_555
Mo7 O8 1.833980 1_555
Mo8 O67 1.764292 1_555
Mo8 O16 1.772704 1_555
Mo8 O53 1.829843 1_555
Mo8 O80 1.836135 1_555
Mo9 O4 1.763899 1_555
Mo9 O18 1.771752 1_555
Mo9 O19 1.827259 1_555
Mo9 O14 1.835876 1_555
Mo10 O63 1.764292 1_555
Mo10 O20 1.772704 1_555
Mo10 O66 1.829843 1_555
Mo10 O39 1.836135 1_555
Mo11 O32 1.763899 1_555
Mo11 O69 1.771752 1_555
Mo11 O9 1.827259 1_554
Mo11 O11 1.835876 1_555
O0 U11 1.873463 1_555
O2 U7 2.365189 1_555
O5 U1 1.865226 1_555
O6 U1 1.878186 1_555
O7 U4 2.148357 1_555
O7 U9 2.155374 1_555
O8 U11 2.380528 1_555
O9 U3 2.365189 1_655
O11 U10 2.382351 1_655
O12 U4 2.367464 1_555
O14 U9 2.382351 1_455
O15 U9 2.382353 1_455
O17 U7 1.890296 1_555
O19 U0 2.365189 1_455
O21 U3 1.890296 1_555
O22 U6 1.873463 1_555
O23 U5 1.865226 1_555
O24 U11 1.866100 1_555
O25 U3 1.868013 1_555
O26 U8 2.385798 1_555
O29 U9 1.878186 1_555
O33 U10 2.382353 1_655
O34 U11 2.385798 1_555
O35 U7 2.144480 1_555
O35 U2 2.162468 1_555
O36 U8 1.866100 1_555
O37 U2 2.380528 1_655
O38 U0 1.868013 1_555
O39 U6 2.385798 1_455
O41 U9 1.865226 1_555
O42 U7 2.367464 1_555
O43 U2 1.873463 1_555
O44 U10 2.159488 1_555
O44 U8 2.161175 1_555
O47 U7 1.868013 1_555
O48 U3 2.144480 1_555
O48 U8 2.162468 1_556
O49 U0 2.144480 1_555
O49 U11 2.162468 1_555
O50 U1 2.382351 1_555
O51 U7 2.148357 1_555
O51 U10 2.155374 1_555
O52 U10 1.865226 1_555
O53 U3 2.367464 1_655
O55 U6 2.380528 1_456
O56 U0 2.148357 1_555
O56 U5 2.155374 1_555
O58 U1 2.159488 1_555
O58 U2 2.161175 1_555
O59 U5 2.159488 1_555
O59 U6 2.161175 1_555
O60 U5 1.878186 1_555
O61 U4 1.868013 1_555
O64 U4 2.365189 1_555
O65 U10 1.878186 1_555
O66 U0 2.367464 1_455
O70 U5 2.382351 1_555
O72 U8 1.873463 1_555
O73 U0 1.890296 1_555
O74 U4 2.144480 1_555
O74 U6 2.162468 1_556
O75 U1 2.382353 1_555
O76 U4 1.890296 1_555
O77 U6 1.866100 1_555
O78 U3 2.148357 1_555
O78 U1 2.155374 1_555
O79 U5 2.382353 1_555
O80 U2 2.385798 1_655
O81 U2 1.866100 1_555
O82 U9 2.159488 1_555
O82 U11 2.161175 1_555
O83 U8 2.380528 1_556
