# generated using pymatgen
data_YbGeAu
_symmetry_space_group_name_H-M   'P 1'
_cell_length_a   4.53000200
_cell_length_b   7.78765800
_cell_length_c   21.35109300
_cell_angle_alpha   90.00000000
_cell_angle_beta   90.00000000
_cell_angle_gamma   90.00000000
_symmetry_Int_Tables_number   1
_chemical_formula_structural   YbGeAu
_chemical_formula_sum   'Yb12 Ge12 Au12'
_cell_volume   753.22612880
_cell_formula_units_Z   12
loop_
 _symmetry_equiv_pos_site_id
 _symmetry_equiv_pos_as_xyz
  1  'x, y, z'
loop_
 _atom_site_type_symbol
 _atom_site_label
 _atom_site_symmetry_multiplicity
 _atom_site_fract_x
 _atom_site_fract_y
 _atom_site_fract_z
 _atom_site_occupancy
  Yb  Yb0  1  0.25000000  0.78805300  0.16608300  1
  Yb  Yb1  1  0.25000000  0.78102700  0.50074200  1
  Yb  Yb2  1  0.25000000  0.71152300  0.33282900  1
  Yb  Yb3  1  0.75000000  0.21897300  0.49925800  1
  Yb  Yb4  1  0.75000000  0.28847700  0.66717100  1
  Yb  Yb5  1  0.75000000  0.28102700  0.99925800  1
  Yb  Yb6  1  0.25000000  0.78847700  0.83282900  1
  Yb  Yb7  1  0.25000000  0.71897300  0.00074200  1
  Yb  Yb8  1  0.75000000  0.21152300  0.16717100  1
  Yb  Yb9  1  0.75000000  0.28805300  0.33391700  1
  Yb  Yb10  1  0.25000000  0.71194700  0.66608300  1
  Yb  Yb11  1  0.75000000  0.21194700  0.83391700  1
  Ge  Ge0  1  0.25000000  0.41336800  0.89716500  1
  Ge  Ge1  1  0.75000000  0.91670500  0.72908900  1
  Ge  Ge2  1  0.75000000  0.58329500  0.22908900  1
  Ge  Ge3  1  0.25000000  0.08907000  0.07017900  1
  Ge  Ge4  1  0.75000000  0.91093000  0.92982100  1
  Ge  Ge5  1  0.75000000  0.91336800  0.60283500  1
  Ge  Ge6  1  0.25000000  0.41093000  0.57017900  1
  Ge  Ge7  1  0.25000000  0.08663200  0.39716500  1
  Ge  Ge8  1  0.25000000  0.08329500  0.27091100  1
  Ge  Ge9  1  0.75000000  0.58907000  0.42982100  1
  Ge  Ge10  1  0.25000000  0.41670500  0.77091100  1
  Ge  Ge11  1  0.75000000  0.58663200  0.10283500  1
  Au  Au0  1  0.75000000  0.58291700  0.90757100  1
  Au  Au1  1  0.25000000  0.41613400  0.43218600  1
  Au  Au2  1  0.75000000  0.58386600  0.56781400  1
  Au  Au3  1  0.75000000  0.91708300  0.40757100  1
  Au  Au4  1  0.25000000  0.41708300  0.09242900  1
  Au  Au5  1  0.25000000  0.41298500  0.23980000  1
  Au  Au6  1  0.75000000  0.91298500  0.26020000  1
  Au  Au7  1  0.25000000  0.08701500  0.73980000  1
  Au  Au8  1  0.25000000  0.08386600  0.93218600  1
  Au  Au9  1  0.75000000  0.91613400  0.06781400  1
  Au  Au10  1  0.25000000  0.08291700  0.59242900  1
  Au  Au11  1  0.75000000  0.58701500  0.76020000  1
loop_
_geom_bond_atom_site_label_1
_geom_bond_atom_site_label_2
_geom_bond_distance
_geom_bond_site_symmetry_2
Ge0 Ge10 2.695786 1_555
Ge0 Yb11 3.068281 1_455
Ge0 Yb11 3.068281 1_555
Ge0 Yb6 3.228069 1_555
Ge0 Yb7 3.248815 1_556
Ge0 Yb5 3.308162 1_455
Ge0 Yb5 3.308162 1_555
Ge1 Ge5 2.695786 1_555
Ge1 Yb10 3.079386 1_655
Ge1 Yb10 3.079386 1_555
Ge1 Yb4 3.182782 1_565
Ge1 Yb11 3.208742 1_565
Ge1 Yb6 3.321668 1_555
Ge1 Yb6 3.321668 1_655
Ge2 Yb0 3.079386 1_555
Ge2 Yb0 3.079386 1_655
Ge2 Yb8 3.182782 1_555
Ge2 Yb9 3.208742 1_555
Ge2 Yb2 3.321668 1_655
Ge2 Yb2 3.321668 1_555
Ge3 Yb5 3.107711 1_554
Ge3 Yb5 3.107711 1_454
Ge3 Yb0 3.112595 1_545
Ge3 Yb8 3.213750 1_455
Ge3 Yb8 3.213750 1_555
Ge3 Yb7 3.241139 1_545
Ge4 Yb7 3.107711 1_556
Ge4 Yb7 3.107711 1_656
Ge4 Yb11 3.112595 1_565
Ge4 Yb6 3.213750 1_555
Ge4 Yb6 3.213750 1_655
Ge4 Yb5 3.241139 1_565
Ge5 Yb10 3.068281 1_555
Ge5 Yb10 3.068281 1_655
Ge5 Yb4 3.228069 1_565
Ge5 Yb3 3.248815 1_565
Ge5 Yb1 3.308162 1_655
Ge5 Yb1 3.308162 1_555
Ge6 Yb3 3.107711 1_555
Ge6 Yb3 3.107711 1_455
Ge6 Yb10 3.112595 1_555
Ge6 Yb4 3.213750 1_455
Ge6 Yb4 3.213750 1_555
Ge6 Yb1 3.241139 1_555
Ge7 Ge8 2.695786 1_555
Ge7 Yb9 3.068281 1_455
Ge7 Yb9 3.068281 1_555
Ge7 Yb2 3.228069 1_545
Ge7 Yb1 3.248815 1_545
Ge7 Yb3 3.308162 1_455
Ge7 Yb3 3.308162 1_555
Ge8 Yb9 3.079386 1_555
Ge8 Yb9 3.079386 1_455
Ge8 Yb2 3.182782 1_545
Ge8 Yb0 3.208742 1_545
Ge8 Yb8 3.321668 1_455
Ge8 Yb8 3.321668 1_555
Ge9 Yb1 3.107711 1_655
Ge9 Yb1 3.107711 1_555
Ge9 Yb9 3.112595 1_555
Ge9 Yb2 3.213750 1_555
Ge9 Yb2 3.213750 1_655
Ge9 Yb3 3.241139 1_555
Ge10 Yb11 3.079386 1_455
Ge10 Yb11 3.079386 1_555
Ge10 Yb6 3.182782 1_555
Ge10 Yb10 3.208742 1_555
Ge10 Yb4 3.321668 1_555
Ge10 Yb4 3.321668 1_455
Ge11 Ge2 2.695786 1_555
Ge11 Yb0 3.068281 1_555
Ge11 Yb0 3.068281 1_655
Ge11 Yb8 3.228069 1_555
Ge11 Yb5 3.248815 1_554
Ge11 Yb7 3.308162 1_555
Ge11 Yb7 3.308162 1_655
Au0 Ge4 2.598252 1_555
Au0 Ge0 2.631164 1_655
Au0 Ge0 2.631164 1_555
Au0 Yb5 3.059337 1_555
Au0 Au11 3.146694 1_555
Au0 Yb7 3.195343 1_556
Au0 Yb7 3.195343 1_656
Au0 Yb6 3.199928 1_555
Au0 Yb6 3.199928 1_655
Au0 Yb11 3.289270 1_555
Au1 Ge9 2.635633 1_555
Au1 Ge9 2.635633 1_455
Au1 Ge7 2.672773 1_555
Au1 Ge6 2.946580 1_555
Au1 Yb3 3.088454 1_455
Au1 Yb3 3.088454 1_555
Au1 Yb2 3.129224 1_555
Au1 Yb1 3.196497 1_555
Au1 Yb9 3.244591 1_455
Au1 Yb9 3.244591 1_555
Au2 Ge6 2.635633 1_555
Au2 Ge6 2.635633 1_655
Au2 Ge5 2.672773 1_555
Au2 Ge9 2.946580 1_555
Au2 Yb1 3.088454 1_655
Au2 Yb1 3.088454 1_555
Au2 Yb4 3.129224 1_555
Au2 Yb3 3.196497 1_555
Au2 Yb10 3.244591 1_655
Au2 Yb10 3.244591 1_555
Au3 Ge9 2.598252 1_555
Au3 Ge7 2.631164 1_665
Au3 Ge7 2.631164 1_565
Au3 Yb3 3.059337 1_565
Au3 Au6 3.146694 1_555
Au3 Yb1 3.195343 1_655
Au3 Yb1 3.195343 1_555
Au3 Yb2 3.199928 1_555
Au3 Yb2 3.199928 1_655
Au3 Yb9 3.289270 1_565
Au4 Ge3 2.598252 1_555
Au4 Ge11 2.631164 1_555
Au4 Ge11 2.631164 1_455
Au4 Yb7 3.059337 1_555
Au4 Au5 3.146694 1_555
Au4 Yb5 3.195343 1_454
Au4 Yb5 3.195343 1_554
Au4 Yb8 3.199928 1_455
Au4 Yb8 3.199928 1_555
Au4 Yb0 3.289270 1_555
Au5 Ge2 2.634700 1_455
Au5 Ge2 2.634700 1_555
Au5 Ge8 2.652048 1_555
Au5 Yb2 3.057857 1_555
Au5 Yb8 3.161713 1_455
Au5 Yb8 3.161713 1_555
Au5 Yb9 3.180395 1_455
Au5 Yb9 3.180395 1_555
Au5 Yb0 3.317973 1_555
Au6 Ge8 2.634700 1_565
Au6 Ge8 2.634700 1_665
Au6 Ge2 2.652048 1_555
Au6 Yb8 3.057857 1_565
Au6 Yb2 3.161713 1_555
Au6 Yb2 3.161713 1_655
Au6 Yb0 3.180395 1_555
Au6 Yb0 3.180395 1_655
Au6 Yb9 3.317973 1_565
Au7 Ge1 2.634700 1_445
Au7 Ge1 2.634700 1_545
Au7 Ge10 2.652048 1_555
Au7 Yb6 3.057857 1_545
Au7 Yb4 3.161713 1_455
Au7 Yb4 3.161713 1_555
Au7 Yb11 3.180395 1_555
Au7 Yb11 3.180395 1_455
Au7 Yb10 3.317973 1_545
Au8 Ge4 2.635633 1_445
Au8 Ge4 2.635633 1_545
Au8 Ge0 2.672773 1_555
Au8 Ge3 2.946580 1_556
Au8 Yb5 3.088454 1_455
Au8 Yb5 3.088454 1_555
Au8 Yb6 3.129224 1_545
Au8 Yb7 3.196497 1_546
Au8 Yb11 3.244591 1_455
Au8 Yb11 3.244591 1_555
Au9 Ge3 2.635633 1_565
Au9 Ge3 2.635633 1_665
Au9 Ge11 2.672773 1_555
Au9 Ge4 2.946580 1_554
Au9 Yb7 3.088454 1_555
Au9 Yb7 3.088454 1_655
Au9 Yb8 3.129224 1_565
Au9 Yb5 3.196497 1_564
Au9 Yb0 3.244591 1_555
Au9 Yb0 3.244591 1_655
Au10 Ge6 2.598252 1_555
Au10 Ge5 2.631164 1_445
Au10 Ge5 2.631164 1_545
Au10 Yb1 3.059337 1_545
Au10 Au7 3.146694 1_555
Au10 Yb3 3.195343 1_455
Au10 Yb3 3.195343 1_555
Au10 Yb4 3.199928 1_455
Au10 Yb4 3.199928 1_555
Au10 Yb10 3.289270 1_545
Au11 Ge10 2.634700 1_555
Au11 Ge10 2.634700 1_655
Au11 Ge1 2.652048 1_555
Au11 Yb4 3.057857 1_555
Au11 Yb6 3.161713 1_555
Au11 Yb6 3.161713 1_655
Au11 Yb10 3.180395 1_555
Au11 Yb10 3.180395 1_655
Au11 Yb11 3.317973 1_555
