# generated using pymatgen
data_CuBiTeO
_symmetry_space_group_name_H-M   'P 1'
_cell_length_a   4.06110800
_cell_length_b   4.06110800
_cell_length_c   9.62391000
_cell_angle_alpha   90.00000000
_cell_angle_beta   90.00000000
_cell_angle_gamma   90.00000000
_symmetry_Int_Tables_number   1
_chemical_formula_structural   CuBiTeO
_chemical_formula_sum   'Cu2 Bi2 Te2 O2'
_cell_volume   158.72328062
_cell_formula_units_Z   2
loop_
 _symmetry_equiv_pos_site_id
 _symmetry_equiv_pos_as_xyz
  1  'x, y, z'
loop_
 _atom_site_type_symbol
 _atom_site_label
 _atom_site_symmetry_multiplicity
 _atom_site_fract_x
 _atom_site_fract_y
 _atom_site_fract_z
 _atom_site_occupancy
  Cu  Cu0  1  0.00000000  0.00000000  0.50000000  1
  Cu  Cu1  1  0.50000000  0.50000000  0.50000000  1
  Bi  Bi0  1  0.00000000  0.50000000  0.87273600  1
  Bi  Bi1  1  0.50000000  0.00000000  0.12726400  1
  Te  Te0  1  0.00000000  0.50000000  0.31956300  1
  Te  Te1  1  0.50000000  0.00000000  0.68043700  1
  O  O0  1  0.00000000  0.00000000  0.00000000  1
  O  O1  1  0.50000000  0.50000000  0.00000000  1
loop_
_geom_bond_atom_site_label_1
_geom_bond_atom_site_label_2
_geom_bond_distance
_geom_bond_site_symmetry_2
Cu0 Te1 2.671819 1_455
Cu0 Te1 2.671819 1_555
Cu0 Te0 2.671819 1_555
Cu0 Te0 2.671819 1_545
Cu0 Cu1 2.871637 1_455
Cu0 Cu1 2.871637 1_445
Cu0 Cu1 2.871637 1_545
Cu0 Cu1 2.871637 1_555
Cu1 Te1 2.671819 1_565
Cu1 Te1 2.671819 1_555
Cu1 Te0 2.671819 1_555
Cu1 Te0 2.671819 1_655
Bi0 O1 2.371335 1_556
Bi0 O1 2.371335 1_456
Bi0 O0 2.371335 1_556
Bi0 O0 2.371335 1_566
Bi1 O1 2.371335 1_555
Bi1 O1 2.371335 1_545
Bi1 O0 2.371335 1_555
Bi1 O0 2.371335 1_655
