# generated using pymatgen
data_Nd2NiO4
_symmetry_space_group_name_H-M   'P 1'
_cell_length_a   5.57569500
_cell_length_b   5.57569500
_cell_length_c   12.14209100
_cell_angle_alpha   90.00000000
_cell_angle_beta   90.00000000
_cell_angle_gamma   90.00000000
_symmetry_Int_Tables_number   1
_chemical_formula_structural   Nd2NiO4
_chemical_formula_sum   'Nd8 Ni4 O16'
_cell_volume   377.47787505
_cell_formula_units_Z   4
loop_
 _symmetry_equiv_pos_site_id
 _symmetry_equiv_pos_as_xyz
  1  'x, y, z'
loop_
 _atom_site_type_symbol
 _atom_site_label
 _atom_site_symmetry_multiplicity
 _atom_site_fract_x
 _atom_site_fract_y
 _atom_site_fract_z
 _atom_site_occupancy
  Nd  Nd0  1  0.23322900  0.73322900  0.11317500  1
  Nd  Nd1  1  0.76677100  0.73322900  0.61317500  1
  Nd  Nd2  1  0.23322900  0.26677100  0.61317500  1
  Nd  Nd3  1  0.73322900  0.76677100  0.88682500  1
  Nd  Nd4  1  0.26677100  0.23322900  0.88682500  1
  Nd  Nd5  1  0.76677100  0.26677100  0.11317500  1
  Nd  Nd6  1  0.73322900  0.23322900  0.38682500  1
  Nd  Nd7  1  0.26677100  0.76677100  0.38682500  1
  Ni  Ni0  1  0.25000000  0.75000000  0.75000000  1
  Ni  Ni1  1  0.75000000  0.75000000  0.25000000  1
  Ni  Ni2  1  0.25000000  0.25000000  0.25000000  1
  Ni  Ni3  1  0.75000000  0.25000000  0.75000000  1
  O  O0  1  0.50000000  0.00000000  0.72000500  1
  O  O1  1  0.50000000  0.00000000  0.22000500  1
  O  O2  1  0.00000000  0.50000000  0.27999500  1
  O  O3  1  0.00000000  0.50000000  0.77999500  1
  O  O4  1  0.30380100  0.80380100  0.92998100  1
  O  O5  1  0.69619900  0.80380100  0.42998100  1
  O  O6  1  0.30380100  0.19619900  0.42998100  1
  O  O7  1  0.80380100  0.69619900  0.07001900  1
  O  O8  1  0.19619900  0.30380100  0.07001900  1
  O  O9  1  0.69619900  0.19619900  0.92998100  1
  O  O10  1  0.80380100  0.30380100  0.57001900  1
  O  O11  1  0.19619900  0.69619900  0.57001900  1
  O  O12  1  0.00000000  0.00000000  0.75000000  1
  O  O13  1  0.50000000  0.50000000  0.25000000  1
  O  O14  1  0.50000000  0.50000000  0.75000000  1
  O  O15  1  0.00000000  0.00000000  0.25000000  1
loop_
_geom_bond_atom_site_label_1
_geom_bond_atom_site_label_2
_geom_bond_distance
_geom_bond_site_symmetry_2
Nd0 O4 2.292910 1_554
Nd0 O7 2.459709 1_455
Nd0 O8 2.459709 1_555
Nd0 O1 2.471334 1_565
Nd0 O15 2.581393 1_565
Nd0 O13 2.581393 1_555
Nd0 O2 2.735869 1_555
Nd1 O5 2.292910 1_555
Nd1 O11 2.459709 1_655
Nd1 O10 2.459709 1_555
Nd1 O0 2.471334 1_565
Nd1 O12 2.581393 1_665
Nd1 O14 2.581393 1_555
Nd1 O3 2.735869 1_655
Nd2 O6 2.292910 1_555
Nd2 O10 2.459709 1_455
Nd2 O11 2.459709 1_555
Nd2 O0 2.471334 1_555
Nd2 O14 2.581393 1_555
Nd2 O12 2.581393 1_555
Nd2 O3 2.735869 1_555
Nd3 O7 2.292910 1_556
Nd3 O9 2.459709 1_565
Nd3 O4 2.459709 1_555
Nd3 O3 2.471334 1_655
Nd3 O12 2.581393 1_665
Nd3 O14 2.581393 1_555
Nd3 O0 2.735869 1_565
Nd4 O8 2.292910 1_556
Nd4 O9 2.459709 1_555
Nd4 O4 2.459709 1_545
Nd4 O3 2.471334 1_555
Nd4 O14 2.581393 1_555
Nd4 O12 2.581393 1_555
Nd4 O0 2.735869 1_555
Nd5 O9 2.292910 1_554
Nd5 O7 2.459709 1_555
Nd5 O8 2.459709 1_655
Nd5 O1 2.471334 1_555
Nd5 O15 2.581393 1_655
Nd5 O13 2.581393 1_555
Nd5 O2 2.735869 1_655
Nd6 O10 2.292910 1_555
Nd6 O5 2.459709 1_545
Nd6 O6 2.459709 1_555
Nd6 O2 2.471334 1_655
Nd6 O13 2.581393 1_555
Nd6 O15 2.581393 1_655
Nd6 O1 2.735869 1_555
Nd7 O11 2.292910 1_555
Nd7 O6 2.459709 1_565
Nd7 O5 2.459709 1_555
Nd7 O2 2.471334 1_555
Nd7 O13 2.581393 1_555
Nd7 O15 2.581393 1_565
Nd7 O1 2.735869 1_565
Ni0 O12 1.971306 1_565
Ni0 O14 1.971306 1_555
Ni0 O3 2.004667 1_555
Ni0 O0 2.004667 1_565
Ni0 O4 2.226142 1_555
Ni0 O11 2.226142 1_555
Ni1 O13 1.971306 1_555
Ni1 O15 1.971306 1_665
Ni1 O1 2.004667 1_565
Ni1 O2 2.004667 1_655
Ni1 O7 2.226142 1_555
Ni1 O5 2.226142 1_555
Ni2 O15 1.971306 1_555
Ni2 O13 1.971306 1_555
Ni2 O2 2.004667 1_555
Ni2 O1 2.004667 1_555
Ni2 O6 2.226142 1_555
Ni2 O8 2.226142 1_555
Ni3 O12 1.971306 1_655
Ni3 O14 1.971306 1_555
Ni3 O0 2.004667 1_555
Ni3 O3 2.004667 1_655
Ni3 O9 2.226142 1_555
Ni3 O10 2.226142 1_555
