# generated using pymatgen
data_Li2Co(WO4)2
_symmetry_space_group_name_H-M   'P 1'
_cell_length_a   5.71369648
_cell_length_b   7.87139048
_cell_length_c   6.73775970
_cell_angle_alpha   76.66296400
_cell_angle_beta   75.92865828
_cell_angle_gamma   86.86918848
_symmetry_Int_Tables_number   1
_chemical_formula_structural   Li2Co(WO4)2
_chemical_formula_sum   'Li4 Co2 W4 O16'
_cell_volume   286.00838449
_cell_formula_units_Z   2
loop_
 _symmetry_equiv_pos_site_id
 _symmetry_equiv_pos_as_xyz
  1  'x, y, z'
loop_
 _atom_site_type_symbol
 _atom_site_label
 _atom_site_symmetry_multiplicity
 _atom_site_fract_x
 _atom_site_fract_y
 _atom_site_fract_z
 _atom_site_occupancy
  Li  Li0  1  0.68677100  0.35478600  0.39425400  1
  Li  Li1  1  0.18683500  0.85479500  0.89436000  1
  Li  Li2  1  0.31316300  0.64520600  0.60563900  1
  Li  Li3  1  0.81322700  0.14521500  0.10574500  1
  Co  Co0  1  0.24999800  0.25000100  0.75000100  1
  Co  Co1  1  0.74999900  0.75000000  0.24999900  1
  W  W0  1  0.77264800  0.95950900  0.70218500  1
  W  W1  1  0.72735200  0.54049000  0.79781700  1
  W  W2  1  0.27245400  0.45955400  0.20243600  1
  W  W3  1  0.22754700  0.04044400  0.29756200  1
  O  O0  1  0.28265800  0.44401100  0.47884900  1
  O  O1  1  0.78257500  0.94422900  0.97859300  1
  O  O2  1  0.71742200  0.55577600  0.52141300  1
  O  O3  1  0.21734500  0.05599000  0.02115200  1
  O  O4  1  0.88786000  0.94227900  0.39034400  1
  O  O5  1  0.38782400  0.44238700  0.89052600  1
  O  O6  1  0.11217300  0.05761700  0.60947800  1
  O  O7  1  0.61214900  0.55772600  0.10965000  1
  O  O8  1  0.52744300  0.79005600  0.75352000  1
  O  O9  1  0.02745800  0.29013100  0.25355300  1
  O  O10  1  0.47254200  0.20986600  0.24644600  1
  O  O11  1  0.97255800  0.70994100  0.74648200  1
  O  O12  1  0.40306100  0.84304400  0.35101300  1
  O  O13  1  0.90303700  0.34310600  0.85122100  1
  O  O14  1  0.59695600  0.15688800  0.64878500  1
  O  O15  1  0.09694100  0.65695300  0.14897700  1
loop_
_geom_bond_atom_site_label_1
_geom_bond_atom_site_label_2
_geom_bond_distance
_geom_bond_site_symmetry_2
Li0 O2 1.999062 1_555
Li0 O14 2.014415 1_555
Li0 O9 2.040577 1_655
Li0 O10 2.249605 1_555
Li0 O7 2.306652 1_555
Li0 O0 2.348855 1_555
Li1 O3 1.998755 1_566
Li1 O15 2.014550 1_556
Li1 O8 2.040677 1_555
Li1 O11 2.249786 1_455
Li1 O6 2.307619 1_565
Li1 O1 2.349937 1_455
Li2 O0 1.998740 1_555
Li2 O12 2.014570 1_555
Li2 O11 2.040659 1_455
Li2 O8 2.249791 1_555
Li2 O5 2.307629 1_555
Li2 O2 2.349919 1_555
Li3 O1 1.999005 1_544
Li3 O13 2.014351 1_554
Li3 O10 2.040557 1_555
Li3 O9 2.249593 1_655
Li3 O4 2.306634 1_545
Li3 O3 2.348880 1_655
Co0 O0 2.069512 1_555
Co0 O3 2.069515 1_556
Co0 O13 2.084875 1_455
Co0 O14 2.084880 1_555
Co0 O6 2.228024 1_555
Co0 O5 2.228048 1_555
Co1 O1 2.071664 1_554
Co1 O2 2.071679 1_555
Co1 O12 2.084338 1_555
Co1 O15 2.084376 1_655
Co1 O7 2.226621 1_555
Co1 O4 2.226666 1_555
O0 W2 1.853056 1_555
O1 W0 1.852940 1_555
O2 W1 1.852909 1_555
O3 W3 1.853028 1_555
O4 W3 2.026278 1_665
O4 W0 2.077391 1_555
O5 W1 2.025286 1_555
O5 W2 2.077754 1_556
O6 W0 2.025285 1_445
O6 W3 2.077807 1_555
O7 W2 2.026339 1_555
O7 W1 2.077349 1_554
O8 W0 1.901909 1_555
O8 W1 2.214252 1_555
O9 W2 1.901105 1_555
O9 W3 2.215448 1_555
O10 W3 1.901096 1_555
O10 W2 2.215452 1_555
O11 W1 1.901902 1_555
O11 W0 2.214268 1_555
O12 W3 1.815751 1_565
O13 W1 1.816151 1_555
O14 W0 1.816139 1_545
O15 W2 1.815749 1_555
