# generated using pymatgen
data_Ti5Ge3
_symmetry_space_group_name_H-M   'P 1'
_cell_length_a   7.54957994
_cell_length_b   7.54959608
_cell_length_c   5.19891579
_cell_angle_alpha   89.99999640
_cell_angle_beta   89.99999604
_cell_angle_gamma   120.00003152
_symmetry_Int_Tables_number   1
_chemical_formula_structural   Ti5Ge3
_chemical_formula_sum   'Ti10 Ge6'
_cell_volume   256.61957509
_cell_formula_units_Z   2
loop_
 _symmetry_equiv_pos_site_id
 _symmetry_equiv_pos_as_xyz
  1  'x, y, z'
loop_
 _atom_site_type_symbol
 _atom_site_label
 _atom_site_symmetry_multiplicity
 _atom_site_fract_x
 _atom_site_fract_y
 _atom_site_fract_z
 _atom_site_occupancy
  Ti  Ti0  1  -0.00000893  0.74912862  0.75000690  1
  Ti  Ti1  1  0.25086758  0.25086310  0.75000686  1
  Ti  Ti2  1  -0.00000481  0.25086919  0.24999311  1
  Ti  Ti3  1  0.33332725  0.66666196  0.50000274  1
  Ti  Ti4  1  0.74913779  0.00000584  0.75000691  1
  Ti  Ti5  1  0.74913349  0.74912625  0.24999312  1
  Ti  Ti6  1  0.33332723  0.66666199  -0.00000273  1
  Ti  Ti7  1  0.25087336  0.00000740  0.24999311  1
  Ti  Ti8  1  0.66667282  0.33333733  0.50000278  1
  Ti  Ti9  1  0.66667283  0.33333731  -0.00000278  1
  Ge  Ge0  1  0.61066295  0.61064310  0.74999761  1
  Ge  Ge1  1  0.38935280  0.00001692  0.74999758  1
  Ge  Ge2  1  0.99998139  0.61065088  0.25000241  1
  Ge  Ge3  1  0.61066871  0.00002111  0.25000243  1
  Ge  Ge4  1  0.99997953  0.38933048  0.74999754  1
  Ge  Ge5  1  0.38935401  0.38933652  0.25000241  1
loop_
_geom_bond_atom_site_label_1
_geom_bond_atom_site_label_2
_geom_bond_distance
_geom_bond_site_symmetry_2
Ti3 Ti6 2.599429 1_556
Ti3 Ti6 2.599486 1_555
Ti8 Ti9 2.599429 1_556
Ti8 Ti9 2.599487 1_555
Ge0 Ti0 2.580568 1_655
Ge0 Ti4 2.580832 1_565
Ge0 Ti8 2.671371 1_555
Ge0 Ti9 2.671384 1_556
Ge0 Ti3 2.671600 1_555
Ge0 Ti6 2.671613 1_556
Ge0 Ti1 2.716248 1_555
Ge0 Ti5 2.801787 1_556
Ge0 Ti5 2.801830 1_555
Ge1 Ti1 2.580596 1_555
Ge1 Ti0 2.580821 1_545
Ge1 Ti8 2.671423 1_555
Ge1 Ti9 2.671435 1_556
Ge1 Ti3 2.671591 1_545
Ge1 Ti6 2.671603 1_546
Ge1 Ti4 2.716267 1_555
Ge1 Ti7 2.801781 1_556
Ge1 Ti7 2.801824 1_555
Ge2 Ti5 2.580549 1_555
Ge2 Ti7 2.580799 1_665
Ge2 Ti8 2.671371 1_555
Ge2 Ti9 2.671383 1_555
Ge2 Ti3 2.671575 1_655
Ge2 Ti6 2.671587 1_655
Ge2 Ti2 2.716259 1_655
Ge2 Ti0 2.801776 1_654
Ge2 Ti0 2.801820 1_655
Ge3 Ti2 2.580566 1_655
Ge3 Ti5 2.580821 1_545
Ge3 Ti8 2.671403 1_555
Ge3 Ti9 2.671415 1_555
Ge3 Ti3 2.671648 1_545
Ge3 Ti6 2.671660 1_545
Ge3 Ti7 2.716252 1_555
Ge3 Ti4 2.801786 1_554
Ge3 Ti4 2.801830 1_555
Ge4 Ti4 2.580551 1_555
Ge4 Ti1 2.580786 1_655
Ge4 Ti8 2.671348 1_555
Ge4 Ti9 2.671360 1_556
Ge4 Ti3 2.671561 1_655
Ge4 Ti6 2.671574 1_656
Ge4 Ti0 2.716287 1_655
Ge4 Ti2 2.801766 1_656
Ge4 Ti2 2.801809 1_655
Ge5 Ti7 2.580587 1_555
Ge5 Ti2 2.580807 1_555
Ge5 Ti8 2.671423 1_555
Ge5 Ti9 2.671435 1_555
Ge5 Ti3 2.671584 1_555
Ge5 Ti6 2.671596 1_555
Ge5 Ti5 2.716224 1_555
Ge5 Ti1 2.801796 1_554
Ge5 Ti1 2.801839 1_555
