# generated using pymatgen
data_Ba14MnBi11
_symmetry_space_group_name_H-M   'P 1'
_cell_length_a   18.23619210
_cell_length_b   18.23619210
_cell_length_c   18.23619210
_cell_angle_alpha   117.45216489
_cell_angle_beta   117.45216489
_cell_angle_gamma   94.47270632
_symmetry_Int_Tables_number   1
_chemical_formula_structural   Ba14MnBi11
_chemical_formula_sum   'Ba56 Mn4 Bi44'
_cell_volume   4438.83552400
_cell_formula_units_Z   4
loop_
 _symmetry_equiv_pos_site_id
 _symmetry_equiv_pos_as_xyz
  1  'x, y, z'
loop_
 _atom_site_type_symbol
 _atom_site_label
 _atom_site_symmetry_multiplicity
 _atom_site_fract_x
 _atom_site_fract_y
 _atom_site_fract_z
 _atom_site_occupancy
  Ba  Ba0  1  0.59082100  0.86963000  0.36584000  1
  Ba  Ba1  1  0.12357000  0.96233900  0.52284400  1
  Ba  Ba2  1  0.76840200  0.37500000  0.89340200  1
  Ba  Ba3  1  0.12500000  0.73159800  0.10659800  1
  Ba  Ba4  1  0.85072600  0.18949500  0.97715600  1
  Ba  Ba5  1  0.12643000  0.14927400  0.33876900  1
  Ba  Ba6  1  0.35318700  0.74861300  0.35395600  1
  Ba  Ba7  1  0.89927400  0.06050500  0.52284400  1
  Ba  Ba8  1  0.93949500  0.46233900  0.83876900  1
  Ba  Ba9  1  0.03766100  0.56050500  0.16123100  1
  Ba  Ba10  1  0.15917900  0.38037000  0.13416000  1
  Ba  Ba11  1  0.00379000  0.36963000  0.27880800  1
  Ba  Ba12  1  0.43949500  0.60072600  0.47715600  1
  Ba  Ba13  1  0.31050500  0.64927400  0.02284400  1
  Ba  Ba14  1  0.61963000  0.75379000  0.77880800  1
  Ba  Ba15  1  0.24621000  0.02501800  0.86584000  1
  Ba  Ba16  1  0.12500000  0.23159800  0.60659800  1
  Ba  Ba17  1  0.50076900  0.10534400  0.35395600  1
  Ba  Ba18  1  0.39465600  0.99923100  0.64604400  1
  Ba  Ba19  1  0.35534400  0.25076900  0.85395600  1
  Ba  Ba20  1  0.62357000  0.10072600  0.16123100  1
  Ba  Ba21  1  0.48159800  0.87500000  0.10659800  1
  Ba  Ba22  1  0.27501800  0.99621000  0.36584000  1
  Ba  Ba23  1  0.74923100  0.60318700  0.10457500  1
  Ba  Ba24  1  0.62500000  0.01840200  0.89340200  1
  Ba  Ba25  1  0.49861300  0.64465600  0.89542500  1
  Ba  Ba26  1  0.97498200  0.84082100  0.22119200  1
  Ba  Ba27  1  0.00076900  0.64681300  0.39542500  1
  Ba  Ba28  1  0.24923100  0.14465600  0.14604400  1
  Ba  Ba29  1  0.39927400  0.87643000  0.83876900  1
  Ba  Ba30  1  0.62500000  0.51840200  0.39340200  1
  Ba  Ba31  1  0.99861300  0.10318700  0.85395600  1
  Ba  Ba32  1  0.65917900  0.52501800  0.77880800  1
  Ba  Ba33  1  0.63037000  0.90917900  0.63416000  1
  Ba  Ba34  1  0.77501800  0.40917900  0.27880800  1
  Ba  Ba35  1  0.21233900  0.87357000  0.02284400  1
  Ba  Ba36  1  0.89465600  0.24861300  0.39542500  1
  Ba  Ba37  1  0.81050500  0.78766100  0.66123100  1
  Ba  Ba38  1  0.85318700  0.49923100  0.60457500  1
  Ba  Ba39  1  0.74621000  0.88037000  0.22119200  1
  Ba  Ba40  1  0.62643000  0.28766100  0.97715600  1
  Ba  Ba41  1  0.75138700  0.14681300  0.64604400  1
  Ba  Ba42  1  0.13037000  0.49621000  0.72119200  1
  Ba  Ba43  1  0.98159800  0.87500000  0.60659800  1
  Ba  Ba44  1  0.09082100  0.72498200  0.72119200  1
  Ba  Ba45  1  0.11963000  0.34082100  0.86584000  1
  Ba  Ba46  1  0.25138700  0.60534400  0.60457500  1
  Ba  Ba47  1  0.39681300  0.50138700  0.14604400  1
  Ba  Ba48  1  0.35072600  0.37357000  0.66123100  1
  Ba  Ba49  1  0.85534400  0.00138700  0.10457500  1
  Ba  Ba50  1  0.47498200  0.25379000  0.13416000  1
  Ba  Ba51  1  0.26840200  0.37500000  0.39340200  1
  Ba  Ba52  1  0.50379000  0.22498200  0.63416000  1
  Ba  Ba53  1  0.53766100  0.37643000  0.47715600  1
  Ba  Ba54  1  0.89681300  0.75076900  0.89542500  1
  Ba  Ba55  1  0.71233900  0.68949500  0.33876900  1
  Mn  Mn0  1  0.00000000  0.00000000  0.00000000  1
  Mn  Mn1  1  0.25000000  0.75000000  0.50000000  1
  Mn  Mn2  1  0.75000000  0.25000000  0.50000000  1
  Mn  Mn3  1  0.50000000  0.50000000  0.00000000  1
  Bi  Bi0  1  0.55438800  0.69755200  0.40845600  1
  Bi  Bi1  1  0.13103700  0.36896300  0.50000000  1
  Bi  Bi2  1  0.44233900  0.81144600  0.63649400  1
  Bi  Bi3  1  0.05584500  0.92495300  0.86350600  1
  Bi  Bi4  1  0.30766100  0.43855400  0.86350600  1
  Bi  Bi5  1  0.85406800  0.44561200  0.14316400  1
  Bi  Bi6  1  0.36896300  0.86896300  0.23792600  1
  Bi  Bi7  1  0.25000000  0.25000000  0.00000000  1
  Bi  Bi8  1  0.07504700  0.93855400  0.13089300  1
  Bi  Bi9  1  0.96090400  0.05244800  0.35683600  1
  Bi  Bi10  1  0.30244800  0.71090400  0.85683600  1
  Bi  Bi11  1  0.63103700  0.13103700  0.76207400  1
  Bi  Bi12  1  0.78909600  0.19755200  0.14316400  1
  Bi  Bi13  1  0.88103700  0.61896300  0.00000000  1
  Bi  Bi14  1  0.44755200  0.53909600  0.64316400  1
  Bi  Bi15  1  0.39593200  0.03909600  0.09154400  1
  Bi  Bi16  1  0.28909600  0.14593200  0.59154400  1
  Bi  Bi17  1  0.55584500  0.69233900  0.13089300  1
  Bi  Bi18  1  0.94233900  0.30584500  0.63089300  1
  Bi  Bi19  1  0.69415500  0.32504700  0.63649400  1
  Bi  Bi20  1  0.50000000  0.00000000  0.50000000  1
  Bi  Bi21  1  0.61896300  0.88103700  0.00000000  1
  Bi  Bi22  1  0.46090400  0.10406800  0.90845600  1
  Bi  Bi23  1  0.94755200  0.30438800  0.90845600  1
  Bi  Bi24  1  0.38103700  0.38103700  0.26207400  1
  Bi  Bi25  1  0.18855400  0.82504700  0.63089300  1
  Bi  Bi26  1  0.19561200  0.55244800  0.09154400  1
  Bi  Bi27  1  0.80244800  0.94561200  0.59154400  1
  Bi  Bi28  1  0.68855400  0.05766100  0.36350600  1
  Bi  Bi29  1  0.69561200  0.60406800  0.64316400  1
  Bi  Bi30  1  0.57504700  0.44415500  0.13649400  1
  Bi  Bi31  1  0.89593200  0.80438800  0.35683600  1
  Bi  Bi32  1  0.05438800  0.64593200  0.85683600  1
  Bi  Bi33  1  0.67495300  0.31144600  0.36910700  1
  Bi  Bi34  1  0.80766100  0.94415500  0.86910700  1
  Bi  Bi35  1  0.06144600  0.19233900  0.13649400  1
  Bi  Bi36  1  0.56144600  0.42495300  0.86910700  1
  Bi  Bi37  1  0.17495300  0.80584500  0.36350600  1
  Bi  Bi38  1  0.86896300  0.63103700  0.50000000  1
  Bi  Bi39  1  0.75000000  0.75000000  0.00000000  1
  Bi  Bi40  1  0.11896300  0.11896300  0.73792600  1
  Bi  Bi41  1  0.19415500  0.55766100  0.36910700  1
  Bi  Bi42  1  0.00000000  0.50000000  0.50000000  1
  Bi  Bi43  1  0.35406800  0.21090400  0.40845600  1
loop_
_geom_bond_atom_site_label_1
_geom_bond_atom_site_label_2
_geom_bond_distance
_geom_bond_site_symmetry_2
Ba0 Bi27 3.607882 1_555
Ba0 Bi6 3.615921 1_555
Ba0 Bi0 3.645846 1_555
Ba0 Bi20 3.656268 1_565
Ba0 Bi17 3.688315 1_555
Ba0 Bi28 3.766628 1_565
Ba1 Bi37 3.570349 1_555
Ba1 Bi16 3.600024 1_565
Ba1 Bi31 3.633502 1_455
Ba1 Bi40 3.682572 1_565
Ba1 Bi25 3.796530 1_555
Ba1 Bi9 4.210899 1_465
Ba2 Bi5 3.544297 1_556
Ba2 Bi23 3.544297 1_555
Ba2 Bi19 3.825757 1_555
Ba2 Bi36 3.825770 1_555
Ba2 Bi13 3.835399 1_556
Ba2 Bi11 3.835399 1_555
Ba3 Bi26 3.544297 1_555
Ba3 Bi32 3.544297 1_554
Ba3 Bi37 3.825757 1_555
Ba3 Bi8 3.825770 1_555
Ba3 Bi6 3.835399 1_555
Ba3 Bi13 3.835399 1_455
Ba4 Bi35 3.570337 1_656
Ba4 Bi23 3.600024 1_555
Ba4 Bi12 3.633502 1_556
Ba4 Bi11 3.682572 1_555
Ba4 Bi34 3.796513 1_545
Ba4 Bi5 4.210899 1_556
Ba5 Bi8 3.570331 1_545
Ba5 Bi9 3.600024 1_455
Ba5 Bi43 3.633502 1_555
Ba5 Bi1 3.682572 1_555
Ba5 Bi35 3.796513 1_555
Ba5 Bi16 4.210899 1_555
Ba6 Bi37 3.545075 1_555
Ba6 Bi0 3.652575 1_555
Ba6 Bi26 3.726742 1_555
Ba6 Bi6 3.757842 1_555
Ba6 Mn1 3.898816 1_555
Ba6 Bi20 3.940978 1_565
Ba6 Bi2 4.128689 1_555
Ba7 Bi28 3.570337 1_555
Ba7 Bi27 3.600024 1_545
Ba7 Bi9 3.633502 1_555
Ba7 Bi40 3.682572 1_655
Ba7 Bi18 3.796513 1_555
Ba7 Bi31 4.210899 1_545
Ba8 Bi18 3.570337 1_555
Ba8 Bi32 3.600024 1_655
Ba8 Bi23 3.633502 1_555
Ba8 Bi13 3.682572 1_556
Ba8 Bi19 3.796516 1_555
Ba8 Bi26 4.210899 1_656
Ba9 Bi41 3.570337 1_555
Ba9 Bi5 3.600024 1_455
Ba9 Bi26 3.633502 1_555
Ba9 Bi13 3.682572 1_455
Ba9 Bi37 3.796516 1_555
Ba9 Bi23 4.210899 1_454
Ba10 Bi23 3.607882 1_454
Ba10 Bi24 3.615921 1_555
Ba10 Bi26 3.645846 1_555
Ba10 Bi7 3.656268 1_555
Ba10 Bi41 3.688315 1_555
Ba10 Bi35 3.766628 1_555
Ba11 Bi5 3.607873 1_455
Ba11 Bi1 3.615936 1_555
Ba11 Bi12 3.645849 1_455
Ba11 Bi42 3.656282 1_555
Ba11 Bi35 3.688307 1_555
Ba11 Bi41 3.766620 1_555
Ba12 Bi2 3.570337 1_555
Ba12 Bi0 3.600024 1_555
Ba12 Bi14 3.633502 1_555
Ba12 Bi24 3.682572 1_555
Ba12 Bi41 3.796513 1_555
Ba12 Bi29 4.210899 1_555
Ba13 Bi4 3.570337 1_554
Ba13 Bi26 3.600024 1_555
Ba13 Bi10 3.633502 1_554
Ba13 Bi6 3.682572 1_555
Ba13 Bi17 3.796513 1_555
Ba13 Bi32 4.210899 1_554
Ba14 Bi29 3.607873 1_555
Ba14 Bi21 3.615936 1_556
Ba14 Bi14 3.645849 1_555
Ba14 Bi39 3.656282 1_556
Ba14 Bi2 3.688307 1_555
Ba14 Bi34 3.766620 1_555
Ba15 Bi15 3.607873 1_556
Ba15 Bi40 3.615936 1_555
Ba15 Bi22 3.645849 1_555
Ba15 Bi7 3.656282 1_556
Ba15 Bi25 3.688315 1_545
Ba15 Bi3 3.766613 1_545
Ba16 Bi16 3.544297 1_555
Ba16 Bi9 3.544297 1_455
Ba16 Bi4 3.825763 1_555
Ba16 Bi18 3.825763 1_455
Ba16 Bi1 3.835399 1_555
Ba16 Bi40 3.835399 1_555
Ba17 Bi28 3.545099 1_555
Ba17 Bi43 3.652567 1_555
Ba17 Bi15 3.726736 1_555
Ba17 Bi6 3.757857 1_545
Ba17 Mn2 3.898811 1_555
Ba17 Bi20 3.940992 1_555
Ba17 Bi19 4.128677 1_555
Ba18 Bi2 3.545099 1_555
Ba18 Bi16 3.652567 1_565
Ba18 Bi22 3.726736 1_565
Ba18 Bi11 3.757857 1_565
Ba18 Mn1 3.898811 1_555
Ba18 Bi20 3.940992 1_565
Ba18 Bi37 4.128677 1_555
Ba19 Bi4 3.545099 1_555
Ba19 Bi22 3.652567 1_555
Ba19 Bi16 3.726736 1_555
Ba19 Bi40 3.757857 1_555
Ba19 Mn3 3.898811 1_556
Ba19 Bi7 3.940992 1_556
Ba19 Bi30 4.128677 1_556
Ba20 Bi33 3.570331 1_555
Ba20 Bi12 3.600024 1_555
Ba20 Bi15 3.633502 1_555
Ba20 Bi21 3.682572 1_545
Ba20 Bi28 3.796513 1_555
Ba20 Bi22 4.210899 1_554
Ba21 Bi15 3.544297 1_565
Ba21 Bi10 3.544297 1_554
Ba21 Bi28 3.825763 1_565
Ba21 Bi17 3.825763 1_555
Ba21 Bi6 3.835399 1_555
Ba21 Bi21 3.835399 1_555
Ba22 Bi16 3.607873 1_565
Ba22 Bi6 3.615936 1_555
Ba22 Bi43 3.645849 1_565
Ba22 Bi20 3.656282 1_565
Ba22 Bi8 3.688315 1_555
Ba22 Bi37 3.766613 1_555
Ba23 Bi36 3.545094 1_554
Ba23 Bi31 3.652567 1_555
Ba23 Bi5 3.726736 1_555
Ba23 Bi13 3.757857 1_555
Ba23 Mn3 3.898811 1_555
Ba23 Bi39 3.940992 1_555
Ba23 Bi17 4.128683 1_555
Ba24 Bi12 3.544297 1_556
Ba24 Bi22 3.544297 1_555
Ba24 Bi2 3.825763 1_545
Ba24 Bi34 3.825763 1_545
Ba24 Bi21 3.835399 1_546
Ba24 Bi11 3.835399 1_555
Ba25 Bi17 3.545104 1_556
Ba25 Bi14 3.652560 1_555
Ba25 Bi10 3.726752 1_555
Ba25 Bi21 3.757852 1_556
Ba25 Mn3 3.898814 1_556
Ba25 Bi39 3.940976 1_556
Ba25 Bi36 4.128658 1_555
Ba26 Bi9 3.607887 1_565
Ba26 Bi13 3.615925 1_555
Ba26 Bi31 3.645841 1_555
Ba26 Bi39 3.656285 1_555
Ba26 Bi37 3.688309 1_655
Ba26 Bi8 3.766620 1_655
Ba27 Bi25 3.545094 1_555
Ba27 Bi5 3.652567 1_455
Ba27 Bi31 3.726736 1_455
Ba27 Bi38 3.757857 1_455
Ba27 Mn1 3.898811 1_555
Ba27 Bi42 3.940992 1_555
Ba27 Bi41 4.128683 1_555
Ba28 Bi35 3.545099 1_555
Ba28 Bi15 3.652567 1_555
Ba28 Bi43 3.726736 1_555
Ba28 Bi24 3.757857 1_555
Ba28 Mn0 3.898811 1_555
Ba28 Bi7 3.940992 1_555
Ba28 Bi3 4.128677 1_544
Ba29 Bi25 3.570331 1_555
Ba29 Bi10 3.600024 1_555
Ba29 Bi22 3.633502 1_565
Ba29 Bi21 3.682572 1_556
Ba29 Bi2 3.796513 1_555
Ba29 Bi15 4.210899 1_566
Ba30 Bi0 3.544297 1_555
Ba30 Bi29 3.544297 1_555
Ba30 Bi30 3.825757 1_555
Ba30 Bi33 3.825770 1_555
Ba30 Bi38 3.835399 1_555
Ba30 Bi24 3.835399 1_555
Ba31 Bi3 3.545075 1_645
Ba31 Bi23 3.652575 1_555
Ba31 Bi27 3.726742 1_545
Ba31 Bi40 3.757842 1_655
Ba31 Mn0 3.898816 1_656
Ba31 Bi7 3.940978 1_656
Ba31 Bi35 4.128689 1_656
Ba32 Bi14 3.607887 1_555
Ba32 Bi13 3.615925 1_556
Ba32 Bi29 3.645841 1_555
Ba32 Bi39 3.656285 1_556
Ba32 Bi19 3.688309 1_555
Ba32 Bi36 3.766620 1_555
Ba33 Bi0 3.607882 1_555
Ba33 Bi11 3.615921 1_565
Ba33 Bi27 3.645846 1_555
Ba33 Bi20 3.656268 1_565
Ba33 Bi34 3.688315 1_555
Ba33 Bi2 3.766628 1_555
Ba34 Bi12 3.607887 1_555
Ba34 Bi38 3.615925 1_555
Ba34 Bi5 3.645841 1_555
Ba34 Bi42 3.656285 1_655
Ba34 Bi30 3.688309 1_555
Ba34 Bi33 3.766620 1_555
Ba35 Bi3 3.570349 1_554
Ba35 Bi15 3.600024 1_565
Ba35 Bi32 3.633502 1_554
Ba35 Bi6 3.682572 1_555
Ba35 Bi8 3.796530 1_555
Ba35 Bi10 4.210899 1_554
Ba36 Bi18 3.545104 1_555
Ba36 Bi12 3.652560 1_555
Ba36 Bi9 3.726752 1_555
Ba36 Bi1 3.757852 1_655
Ba36 Mn2 3.898814 1_555
Ba36 Bi42 3.940976 1_655
Ba36 Bi33 4.128658 1_555
Ba37 Bi34 3.570337 1_555
Ba37 Bi29 3.600024 1_555
Ba37 Bi27 3.633502 1_555
Ba37 Bi38 3.682572 1_555
Ba37 Bi3 3.796516 1_655
Ba37 Bi0 4.210899 1_555
Ba38 Bi33 3.545094 1_555
Ba38 Bi32 3.652567 1_655
Ba38 Bi29 3.726736 1_555
Ba38 Bi38 3.757857 1_555
Ba38 Mn2 3.898811 1_555
Ba38 Bi42 3.940992 1_655
Ba38 Bi18 4.128683 1_555
Ba39 Bi31 3.607873 1_555
Ba39 Bi21 3.615936 1_555
Ba39 Bi9 3.645849 1_565
Ba39 Bi39 3.656282 1_555
Ba39 Bi28 3.688307 1_565
Ba39 Bi17 3.766620 1_555
Ba40 Bi30 3.570349 1_556
Ba40 Bi22 3.600024 1_555
Ba40 Bi5 3.633502 1_556
Ba40 Bi11 3.682572 1_555
Ba40 Bi36 3.796530 1_555
Ba40 Bi12 4.210899 1_556
Ba41 Bi19 3.545075 1_555
Ba41 Bi27 3.652575 1_545
Ba41 Bi23 3.726742 1_555
Ba41 Bi11 3.757842 1_555
Ba41 Mn2 3.898816 1_555
Ba41 Bi20 3.940978 1_555
Ba41 Bi28 4.128689 1_555
Ba42 Bi32 3.607873 1_555
Ba42 Bi1 3.615936 1_555
Ba42 Bi10 3.645849 1_555
Ba42 Bi42 3.656282 1_555
Ba42 Bi4 3.688307 1_555
Ba42 Bi18 3.766620 1_455
Ba43 Bi31 3.544297 1_555
Ba43 Bi27 3.544297 1_555
Ba43 Bi3 3.825757 1_655
Ba43 Bi25 3.825770 1_655
Ba43 Bi40 3.835399 1_665
Ba43 Bi38 3.835399 1_555
Ba44 Bi10 3.607887 1_555
Ba44 Bi38 3.615925 1_455
Ba44 Bi32 3.645841 1_555
Ba44 Bi42 3.656285 1_555
Ba44 Bi3 3.688309 1_555
Ba44 Bi25 3.766620 1_555
Ba45 Bi26 3.607882 1_556
Ba45 Bi40 3.615921 1_555
Ba45 Bi23 3.645846 1_455
Ba45 Bi7 3.656268 1_556
Ba45 Bi18 3.688315 1_455
Ba45 Bi4 3.766628 1_555
Ba46 Bi41 3.545104 1_555
Ba46 Bi10 3.652560 1_555
Ba46 Bi14 3.726752 1_555
Ba46 Bi1 3.757852 1_555
Ba46 Mn1 3.898814 1_555
Ba46 Bi42 3.940976 1_555
Ba46 Bi25 4.128658 1_555
Ba47 Bi30 3.545075 1_555
Ba47 Bi26 3.652575 1_555
Ba47 Bi0 3.726742 1_555
Ba47 Bi24 3.757842 1_555
Ba47 Mn3 3.898816 1_555
Ba47 Bi7 3.940978 1_555
Ba47 Bi4 4.128689 1_554
Ba48 Bi36 3.570331 1_555
Ba48 Bi14 3.600024 1_555
Ba48 Bi16 3.633502 1_555
Ba48 Bi1 3.682572 1_555
Ba48 Bi4 3.796513 1_555
Ba48 Bi43 4.210899 1_555
Ba49 Bi34 3.545104 1_544
Ba49 Bi9 3.652560 1_555
Ba49 Bi12 3.726752 1_555
Ba49 Bi21 3.757852 1_545
Ba49 Mn0 3.898814 1_655
Ba49 Bi39 3.940976 1_545
Ba49 Bi8 4.128658 1_645
Ba50 Bi22 3.607873 1_554
Ba50 Bi24 3.615936 1_555
Ba50 Bi15 3.645849 1_555
Ba50 Bi7 3.656282 1_555
Ba50 Bi33 3.688315 1_555
Ba50 Bi30 3.766613 1_555
Ba51 Bi14 3.544297 1_555
Ba51 Bi43 3.544297 1_555
Ba51 Bi35 3.825763 1_555
Ba51 Bi41 3.825763 1_555
Ba51 Bi24 3.835399 1_555
Ba51 Bi1 3.835399 1_555
Ba52 Bi43 3.607873 1_555
Ba52 Bi11 3.615936 1_555
Ba52 Bi16 3.645849 1_555
Ba52 Bi20 3.656282 1_555
Ba52 Bi36 3.688315 1_555
Ba52 Bi19 3.766613 1_555
Ba53 Bi19 3.570349 1_555
Ba53 Bi43 3.600024 1_555
Ba53 Bi29 3.633502 1_555
Ba53 Bi24 3.682572 1_555
Ba53 Bi33 3.796530 1_555
Ba53 Bi14 4.210899 1_555
Ba54 Bi8 3.545094 1_656
Ba54 Bi29 3.652567 1_555
Ba54 Bi32 3.726736 1_655
Ba54 Bi13 3.757857 1_556
Ba54 Mn0 3.898811 1_666
Ba54 Bi39 3.940992 1_556
Ba54 Bi34 4.128683 1_555
Ba55 Bi17 3.570337 1_555
Ba55 Bi31 3.600024 1_555
Ba55 Bi0 3.633502 1_555
Ba55 Bi38 3.682572 1_555
Ba55 Bi30 3.796516 1_555
Ba55 Bi27 4.210899 1_555
Bi1 Bi42 3.508725 1_555
Bi2 Mn1 2.918843 1_555
Bi3 Mn0 2.918841 1_566
Bi4 Mn3 2.918843 1_556
Bi8 Mn0 2.918840 1_565
Bi11 Bi20 3.508725 1_555
Bi13 Bi39 3.508725 1_555
Bi17 Mn3 2.918843 1_555
Bi18 Mn2 2.918843 1_555
Bi19 Mn2 2.918841 1_555
Bi20 Bi6 3.508725 1_545
Bi21 Bi39 3.508725 1_555
Bi24 Bi7 3.508725 1_555
Bi25 Mn1 2.918840 1_555
Bi28 Mn2 2.918843 1_555
Bi30 Mn3 2.918841 1_555
Bi33 Mn2 2.918840 1_555
Bi34 Mn0 2.918843 1_666
Bi35 Mn0 2.918843 1_555
Bi36 Mn3 2.918840 1_556
Bi37 Mn1 2.918841 1_555
Bi38 Bi42 3.508725 1_655
Bi40 Bi7 3.508725 1_556
Bi41 Mn1 2.918843 1_555
