# generated using pymatgen
data_Tb3BWO9
_symmetry_space_group_name_H-M   'P 1'
_cell_length_a   8.59774921
_cell_length_b   8.59774921
_cell_length_c   5.42446500
_cell_angle_alpha   90.00000000
_cell_angle_beta   90.00000000
_cell_angle_gamma   119.99999390
_symmetry_Int_Tables_number   1
_chemical_formula_structural   Tb3BWO9
_chemical_formula_sum   'Tb6 B2 W2 O18'
_cell_volume   347.26188258
_cell_formula_units_Z   2
loop_
 _symmetry_equiv_pos_site_id
 _symmetry_equiv_pos_as_xyz
  1  'x, y, z'
loop_
 _atom_site_type_symbol
 _atom_site_label
 _atom_site_symmetry_multiplicity
 _atom_site_fract_x
 _atom_site_fract_y
 _atom_site_fract_z
 _atom_site_occupancy
  Tb  Tb0  1  0.07939800  0.72344000  0.70052900  1
  Tb  Tb1  1  0.64404200  0.92060200  0.70052900  1
  Tb  Tb2  1  0.92060200  0.27656000  0.20052900  1
  Tb  Tb3  1  0.27656000  0.35595800  0.70052900  1
  Tb  Tb4  1  0.72344000  0.64404200  0.20052900  1
  Tb  Tb5  1  0.35595800  0.07939800  0.20052900  1
  B  B0  1  0.00000000  0.00000000  0.87161600  1
  B  B1  1  0.00000000  0.00000000  0.37161600  1
  W  W0  1  0.66666700  0.33333300  0.74368300  1
  W  W1  1  0.33333300  0.66666700  0.24368300  1
  O  O0  1  0.26017900  0.79798400  0.03518700  1
  O  O1  1  0.73982100  0.20201600  0.53518700  1
  O  O2  1  0.12446600  0.18091700  0.36265500  1
  O  O3  1  0.51747800  0.38664300  0.97426400  1
  O  O4  1  0.05645100  0.87553400  0.36265500  1
  O  O5  1  0.86916500  0.48252200  0.97426400  1
  O  O6  1  0.81908300  0.94354900  0.36265500  1
  O  O7  1  0.13083500  0.51747800  0.47426400  1
  O  O8  1  0.79798400  0.53780500  0.53518700  1
  O  O9  1  0.18091700  0.05645100  0.86265500  1
  O  O10  1  0.94354900  0.12446600  0.86265500  1
  O  O11  1  0.87553400  0.81908300  0.86265500  1
  O  O12  1  0.48252200  0.61335700  0.47426400  1
  O  O13  1  0.20201600  0.46219500  0.03518700  1
  O  O14  1  0.46219500  0.26017900  0.53518700  1
  O  O15  1  0.61335700  0.13083500  0.97426400  1
  O  O16  1  0.53780500  0.73982100  0.03518700  1
  O  O17  1  0.38664300  0.86916500  0.47426400  1
loop_
_geom_bond_atom_site_label_1
_geom_bond_atom_site_label_2
_geom_bond_distance
_geom_bond_site_symmetry_2
B0 O10 1.379308 1_455
B0 O9 1.379308 1_555
B0 O11 1.379308 1_445
B1 O4 1.379308 1_545
B1 O6 1.379308 1_445
B1 O2 1.379308 1_555
O0 W1 1.912990 1_555
O0 Tb0 2.264052 1_554
O0 Tb5 2.311755 1_565
O1 W0 1.912990 1_555
O1 Tb2 2.264052 1_555
O1 Tb1 2.311755 1_545
O2 Tb3 2.316465 1_555
O2 Tb2 2.441959 1_455
O2 Tb5 2.689575 1_555
O3 W0 2.001933 1_555
O3 Tb4 2.370844 1_556
O3 Tb3 2.453255 1_555
O3 Tb5 2.597044 1_556
O4 Tb0 2.316465 1_555
O4 Tb5 2.441960 1_565
O4 Tb4 2.689575 1_455
O5 W0 2.001929 1_555
O5 Tb2 2.370844 1_556
O5 Tb0 2.453256 1_655
O5 Tb4 2.597044 1_556
O6 Tb1 2.316465 1_555
O6 Tb4 2.441959 1_555
O6 Tb2 2.689575 1_565
O7 W1 2.001929 1_555
O7 Tb0 2.370844 1_555
O7 Tb2 2.453256 1_455
O7 Tb3 2.597044 1_555
O8 W0 1.912995 1_555
O8 Tb4 2.264052 1_555
O8 Tb0 2.311755 1_655
O9 Tb5 2.316465 1_556
O9 Tb3 2.441959 1_555
O9 Tb0 2.689575 1_545
O10 Tb2 2.316465 1_556
O10 Tb1 2.441960 1_545
O10 Tb3 2.689575 1_655
O11 Tb4 2.316465 1_556
O11 Tb0 2.441959 1_655
O11 Tb1 2.689575 1_555
O12 W1 2.001933 1_555
O12 Tb3 2.370844 1_555
O12 Tb4 2.453255 1_555
O12 Tb1 2.597044 1_555
O13 W1 1.912995 1_555
O13 Tb3 2.264052 1_554
O13 Tb2 2.311755 1_455
O14 W0 1.912996 1_555
O14 Tb5 2.264052 1_555
O14 Tb3 2.311755 1_555
O15 W0 2.001927 1_555
O15 Tb5 2.370844 1_556
O15 Tb1 2.453255 1_545
O15 Tb2 2.597044 1_556
O16 W1 1.912996 1_555
O16 Tb1 2.264052 1_554
O16 Tb4 2.311755 1_555
O17 W1 2.001927 1_555
O17 Tb1 2.370844 1_555
O17 Tb5 2.453255 1_565
O17 Tb0 2.597044 1_555
