# generated using pymatgen
data_YbPr11Se16
_symmetry_space_group_name_H-M   'P 1'
_cell_length_a   8.99712800
_cell_length_b   9.00292900
_cell_length_c   17.96796900
_cell_angle_alpha   90.00000000
_cell_angle_beta   90.00000000
_cell_angle_gamma   90.00000000
_symmetry_Int_Tables_number   1
_chemical_formula_structural   YbPr11Se16
_chemical_formula_sum   'Yb2 Pr22 Se32'
_cell_volume   1455.41455542
_cell_formula_units_Z   2
loop_
 _symmetry_equiv_pos_site_id
 _symmetry_equiv_pos_as_xyz
  1  'x, y, z'
loop_
 _atom_site_type_symbol
 _atom_site_label
 _atom_site_symmetry_multiplicity
 _atom_site_fract_x
 _atom_site_fract_y
 _atom_site_fract_z
 _atom_site_occupancy
  Yb  Yb0  1  0.50000000  0.62482100  0.00000000  1
  Yb  Yb1  1  0.00000000  0.37517900  0.50000000  1
  Pr  Pr0  1  0.37661900  0.25029400  0.37560400  1
  Pr  Pr1  1  0.12584400  0.74848200  0.37557600  1
  Pr  Pr2  1  0.74991200  0.50044600  0.31255800  1
  Pr  Pr3  1  0.49941100  0.87234900  0.24901400  1
  Pr  Pr4  1  0.87661900  0.74970600  0.12439600  1
  Pr  Pr5  1  0.24991200  0.49955400  0.18744200  1
  Pr  Pr6  1  0.99941100  0.12765100  0.25098600  1
  Pr  Pr7  1  0.62584400  0.25151800  0.12442400  1
  Pr  Pr8  1  0.25049500  0.99891600  0.06259200  1
  Pr  Pr9  1  0.00000000  0.37748400  0.00000000  1
  Pr  Pr10  1  0.74950500  0.99891600  0.93740800  1
  Pr  Pr11  1  0.37415600  0.25151800  0.87557600  1
  Pr  Pr12  1  0.12338100  0.74970600  0.87560400  1
  Pr  Pr13  1  0.75008800  0.49955400  0.81255800  1
  Pr  Pr14  1  0.50058900  0.87234900  0.75098600  1
  Pr  Pr15  1  0.87415600  0.74848200  0.62442400  1
  Pr  Pr16  1  0.25008800  0.50044600  0.68744200  1
  Pr  Pr17  1  0.00058900  0.12765100  0.74901400  1
  Pr  Pr18  1  0.62338100  0.25029400  0.62439600  1
  Pr  Pr19  1  0.24950500  0.00108400  0.56259200  1
  Pr  Pr20  1  0.75049500  0.00108400  0.43740800  1
  Pr  Pr21  1  0.50000000  0.62251600  0.50000000  1
  Se  Se0  1  0.07454100  0.42441300  0.33830300  1
  Se  Se1  1  0.67421700  0.17520800  0.28765000  1
  Se  Se2  1  0.42481900  0.57545200  0.33763900  1
  Se  Se3  1  0.57454100  0.57558700  0.16169700  1
  Se  Se4  1  0.92481900  0.42454800  0.16236100  1
  Se  Se5  1  0.82439100  0.82529000  0.28709600  1
  Se  Se6  1  0.32439100  0.17471000  0.21290400  1
  Se  Se7  1  0.57517300  0.92680300  0.08760600  1
  Se  Se8  1  0.17421700  0.82479200  0.21235000  1
  Se  Se9  1  0.17791100  0.67392800  0.03716900  1
  Se  Se10  1  0.92647700  0.07491000  0.08752100  1
  Se  Se11  1  0.07352300  0.07491000  0.91247900  1
  Se  Se12  1  0.42482700  0.92680300  0.91239400  1
  Se  Se13  1  0.32478400  0.32391000  0.03723000  1
  Se  Se14  1  0.82208900  0.67392800  0.96283100  1
  Se  Se15  1  0.07518100  0.42454800  0.83763900  1
  Se  Se16  1  0.67521600  0.32391000  0.96277000  1
  Se  Se17  1  0.67560900  0.17471000  0.78709600  1
  Se  Se18  1  0.42545900  0.57558700  0.83830300  1
  Se  Se19  1  0.57518100  0.57545200  0.66236100  1
  Se  Se20  1  0.92545900  0.42441300  0.66169700  1
  Se  Se21  1  0.82578300  0.82479200  0.78765000  1
  Se  Se22  1  0.32578300  0.17520800  0.71235000  1
  Se  Se23  1  0.57352300  0.92509000  0.58752100  1
  Se  Se24  1  0.17560900  0.82529000  0.71290400  1
  Se  Se25  1  0.17521600  0.67609000  0.53723000  1
  Se  Se26  1  0.92482700  0.07319700  0.58760600  1
  Se  Se27  1  0.07517300  0.07319700  0.41239400  1
  Se  Se28  1  0.42647700  0.92509000  0.41247900  1
  Se  Se29  1  0.82478400  0.67609000  0.46277000  1
  Se  Se30  1  0.32208900  0.32607200  0.53716900  1
  Se  Se31  1  0.67791100  0.32607200  0.46283100  1
loop_
_geom_bond_atom_site_label_1
_geom_bond_atom_site_label_2
_geom_bond_distance
_geom_bond_site_symmetry_2
Pr0 Se30 3.022170 1_555
Pr0 Se28 3.035155 1_545
Pr0 Se2 3.036926 1_555
Pr0 Se6 3.038101 1_555
Pr0 Se1 3.181767 1_555
Pr0 Se31 3.204695 1_555
Pr0 Se0 3.208291 1_555
Pr0 Se27 3.214780 1_555
Pr1 Se25 3.009776 1_555
Pr1 Se0 3.028828 1_555
Pr1 Se27 3.031776 1_565
Pr1 Se8 3.043510 1_555
Pr1 Se2 3.182289 1_555
Pr1 Se29 3.196284 1_455
Pr1 Se28 3.206845 1_555
Pr1 Se5 3.218966 1_455
Pr2 Se5 3.035015 1_555
Pr2 Se0 3.035327 1_655
Pr2 Se2 3.035481 1_555
Pr2 Se1 3.039383 1_555
Pr2 Se31 3.189781 1_555
Pr2 Se4 3.197887 1_555
Pr2 Se29 3.199836 1_555
Pr2 Se3 3.208568 1_555
Pr3 Se7 3.019269 1_555
Pr3 Se8 3.029468 1_555
Pr3 Se5 3.032625 1_555
Pr3 Se28 3.046770 1_555
Pr3 Se3 3.171201 1_555
Pr3 Se2 3.182890 1_555
Pr3 Se6 3.211012 1_565
Pr3 Se1 3.223340 1_565
Pr4 Se14 3.022170 1_554
Pr4 Se10 3.035155 1_565
Pr4 Se4 3.036926 1_555
Pr4 Se5 3.038101 1_555
Pr4 Se8 3.181767 1_655
Pr4 Se9 3.204695 1_655
Pr4 Se3 3.208291 1_555
Pr4 Se7 3.214780 1_555
Pr5 Se6 3.035015 1_555
Pr5 Se3 3.035327 1_555
Pr5 Se4 3.035481 1_455
Pr5 Se8 3.039383 1_555
Pr5 Se9 3.189781 1_555
Pr5 Se2 3.197887 1_555
Pr5 Se13 3.199836 1_555
Pr5 Se0 3.208568 1_555
Pr6 Se27 3.019269 1_655
Pr6 Se1 3.029468 1_555
Pr6 Se6 3.032625 1_655
Pr6 Se10 3.046770 1_555
Pr6 Se0 3.171201 1_655
Pr6 Se4 3.182890 1_555
Pr6 Se5 3.211012 1_545
Pr6 Se8 3.223340 1_645
Pr7 Se16 3.009776 1_554
Pr7 Se3 3.028828 1_555
Pr7 Se7 3.031776 1_545
Pr7 Se1 3.043510 1_555
Pr7 Se4 3.182289 1_555
Pr7 Se13 3.196284 1_555
Pr7 Se10 3.206845 1_555
Pr7 Se6 3.218966 1_555
Pr8 Se7 3.026010 1_555
Pr8 Se10 3.027754 1_465
Pr8 Se9 3.032441 1_555
Pr8 Se13 3.035669 1_565
Pr8 Se12 3.188247 1_554
Pr8 Se8 3.188902 1_555
Pr8 Se6 3.200183 1_565
Pr8 Se11 3.205985 1_564
Pr9 Se15 3.024515 1_554
Pr9 Se4 3.024515 1_455
Pr9 Se16 3.036269 1_454
Pr9 Se13 3.036269 1_555
Pr9 Se14 3.182933 1_454
Pr9 Se9 3.182933 1_555
Pr9 Se11 3.214192 1_554
Pr9 Se10 3.214192 1_455
Pr10 Se12 3.026010 1_555
Pr10 Se11 3.027754 1_665
Pr10 Se14 3.032441 1_555
Pr10 Se16 3.035669 1_565
Pr10 Se7 3.188247 1_556
Pr10 Se21 3.188902 1_555
Pr10 Se17 3.200183 1_565
Pr10 Se10 3.205985 1_566
Pr11 Se13 3.009776 1_556
Pr11 Se18 3.028828 1_555
Pr11 Se12 3.031776 1_545
Pr11 Se22 3.043510 1_555
Pr11 Se15 3.182289 1_555
Pr11 Se16 3.196284 1_555
Pr11 Se11 3.206845 1_555
Pr11 Se17 3.218966 1_555
Pr12 Se9 3.022170 1_556
Pr12 Se11 3.035155 1_565
Pr12 Se15 3.036926 1_555
Pr12 Se24 3.038101 1_555
Pr12 Se21 3.181767 1_455
Pr12 Se14 3.204695 1_455
Pr12 Se18 3.208291 1_555
Pr12 Se12 3.214780 1_555
Pr13 Se17 3.035015 1_555
Pr13 Se18 3.035327 1_555
Pr13 Se15 3.035481 1_655
Pr13 Se21 3.039383 1_555
Pr13 Se14 3.189781 1_555
Pr13 Se19 3.197887 1_555
Pr13 Se16 3.199836 1_555
Pr13 Se20 3.208568 1_555
Pr14 Se12 3.019269 1_555
Pr14 Se21 3.029468 1_555
Pr14 Se24 3.032625 1_555
Pr14 Se23 3.046770 1_555
Pr14 Se18 3.171201 1_555
Pr14 Se19 3.182890 1_555
Pr14 Se17 3.211012 1_565
Pr14 Se22 3.223340 1_565
Pr15 Se29 3.009776 1_555
Pr15 Se20 3.028828 1_555
Pr15 Se26 3.031776 1_565
Pr15 Se21 3.043510 1_555
Pr15 Se19 3.182289 1_555
Pr15 Se25 3.196284 1_655
Pr15 Se23 3.206845 1_555
Pr15 Se24 3.218966 1_655
Pr16 Se24 3.035015 1_555
Pr16 Se20 3.035327 1_455
Pr16 Se19 3.035481 1_555
Pr16 Se22 3.039383 1_555
Pr16 Se30 3.189781 1_555
Pr16 Se15 3.197887 1_555
Pr16 Se25 3.199836 1_555
Pr16 Se18 3.208568 1_555
Pr17 Se26 3.019269 1_455
Pr17 Se22 3.029468 1_555
Pr17 Se17 3.032625 1_455
Pr17 Se11 3.046770 1_555
Pr17 Se20 3.171201 1_455
Pr17 Se15 3.182890 1_555
Pr17 Se24 3.211012 1_545
Pr17 Se21 3.223340 1_445
Pr18 Se31 3.022170 1_555
Pr18 Se23 3.035155 1_545
Pr18 Se19 3.036926 1_555
Pr18 Se17 3.038101 1_555
Pr18 Se22 3.181767 1_555
Pr18 Se30 3.204695 1_555
Pr18 Se20 3.208291 1_555
Pr18 Se26 3.214780 1_555
Pr19 Se26 3.026010 1_455
Pr19 Se23 3.027754 1_545
Pr19 Se30 3.032441 1_555
Pr19 Se25 3.035669 1_545
Pr19 Se27 3.188247 1_555
Pr19 Se22 3.188902 1_555
Pr19 Se24 3.200183 1_545
Pr19 Se28 3.205985 1_545
Pr20 Se27 3.026010 1_655
Pr20 Se28 3.027754 1_545
Pr20 Se31 3.032441 1_555
Pr20 Se29 3.035669 1_545
Pr20 Se26 3.188247 1_555
Pr20 Se1 3.188902 1_555
Pr20 Se5 3.200183 1_545
Pr20 Se23 3.205985 1_545
Pr21 Se2 3.024515 1_555
Pr21 Se19 3.024515 1_555
Pr21 Se29 3.036269 1_555
Pr21 Se25 3.036269 1_555
Pr21 Se30 3.182933 1_555
Pr21 Se31 3.182933 1_555
Pr21 Se23 3.214192 1_555
Pr21 Se28 3.214192 1_555
Se0 Yb1 3.014532 1_555
Se3 Yb0 3.014532 1_555
Se7 Yb0 3.213516 1_555
Se9 Yb0 3.006521 1_555
Se12 Yb0 3.213516 1_556
Se13 Yb0 3.204961 1_555
Se14 Yb0 3.006521 1_556
Se16 Yb0 3.204961 1_556
Se18 Yb0 3.014532 1_556
Se20 Yb1 3.014532 1_655
Se25 Yb1 3.204961 1_555
Se26 Yb1 3.213516 1_655
Se27 Yb1 3.213516 1_555
Se29 Yb1 3.204961 1_655
Se30 Yb1 3.006521 1_555
Se31 Yb1 3.006521 1_655
