# generated using pymatgen
data_Ca3(AlN2)2
_symmetry_space_group_name_H-M   'P 1'
_cell_length_a   6.70681437
_cell_length_b   6.70681437
_cell_length_c   5.49639854
_cell_angle_alpha   88.31770330
_cell_angle_beta   88.31770330
_cell_angle_gamma   75.76571166
_symmetry_Int_Tables_number   1
_chemical_formula_structural   Ca3(AlN2)2
_chemical_formula_sum   'Ca6 Al4 N8'
_cell_volume   239.47911031
_cell_formula_units_Z   2
loop_
 _symmetry_equiv_pos_site_id
 _symmetry_equiv_pos_as_xyz
  1  'x, y, z'
loop_
 _atom_site_type_symbol
 _atom_site_label
 _atom_site_symmetry_multiplicity
 _atom_site_fract_x
 _atom_site_fract_y
 _atom_site_fract_z
 _atom_site_occupancy
  Ca  Ca0  1  0.74642056  0.02168804  0.54514495  1
  Ca  Ca1  1  0.25357944  0.97831196  0.45485505  1
  Ca  Ca2  1  0.39855158  0.60144842  0.75000000  1
  Ca  Ca3  1  0.60144842  0.39855158  0.25000000  1
  Ca  Ca4  1  0.02168804  0.74642056  0.04514495  1
  Ca  Ca5  1  0.97831196  0.25357944  0.95485505  1
  Al  Al0  1  0.41422068  0.17648586  0.91225092  1
  Al  Al1  1  0.58577932  0.82351414  0.08774908  1
  Al  Al2  1  0.82351414  0.58577932  0.58774908  1
  Al  Al3  1  0.17648586  0.41422068  0.41225092  1
  N  N0  1  0.69627782  0.05836330  0.01994632  1
  N  N1  1  0.26354645  0.40978035  0.08226734  1
  N  N2  1  0.94163670  0.30372218  0.48005368  1
  N  N3  1  0.40978035  0.26354645  0.58226734  1
  N  N4  1  0.05836330  0.69627782  0.51994632  1
  N  N5  1  0.59021965  0.73645355  0.41773266  1
  N  N6  1  0.30372218  0.94163670  0.98005368  1
  N  N7  1  0.73645355  0.59021965  0.91773266  1
loop_
_geom_bond_atom_site_label_1
_geom_bond_atom_site_label_2
_geom_bond_distance
_geom_bond_site_symmetry_2
Ca0 N3 2.441671 1_555
Ca0 N5 2.520882 1_545
Ca0 N2 2.563366 1_555
Ca0 N4 2.629577 1_645
Ca0 N0 2.632414 1_556
Ca0 N0 2.912262 1_555
Ca1 N5 2.441671 1_555
Ca1 N3 2.520882 1_565
Ca1 N4 2.563366 1_555
Ca1 N2 2.629577 1_465
Ca1 N6 2.632414 1_554
Ca1 N6 2.912262 1_555
Ca2 N3 2.454823 1_555
Ca2 N7 2.454823 1_555
Ca2 N1 2.478922 1_556
Ca2 N5 2.478922 1_555
Ca2 N4 2.572459 1_555
Ca2 N6 2.572459 1_555
Ca3 N1 2.454823 1_555
Ca3 N5 2.454823 1_555
Ca3 N3 2.478922 1_555
Ca3 N7 2.478922 1_554
Ca3 N0 2.572459 1_555
Ca3 N2 2.572459 1_555
Ca4 N1 2.441671 1_555
Ca4 N7 2.520882 1_454
Ca4 N6 2.563366 1_554
Ca4 N0 2.629577 1_465
Ca4 N4 2.632414 1_555
Ca4 N4 2.912262 1_554
Ca5 N7 2.441671 1_555
Ca5 N1 2.520882 1_656
Ca5 N0 2.563366 1_556
Ca5 N6 2.629577 1_645
Ca5 N2 2.632414 1_555
Ca5 N2 2.912262 1_556
Al0 N3 1.887816 1_555
Al0 N1 1.896166 1_556
Al0 N6 1.921555 1_545
Al0 N0 1.964120 1_556
Al1 N5 1.887816 1_555
Al1 N7 1.896166 1_554
Al1 N0 1.921555 1_565
Al1 N6 1.964120 1_554
Al2 N7 1.887816 1_555
Al2 N5 1.896166 1_555
Al2 N4 1.921555 1_655
Al2 N2 1.964120 1_555
Al3 N1 1.887816 1_555
Al3 N3 1.896166 1_555
Al3 N2 1.921555 1_455
Al3 N4 1.964120 1_555
