# generated using pymatgen
data_Ba2LaIrO6
_symmetry_space_group_name_H-M   'P 1'
_cell_length_a   6.09325676
_cell_length_b   6.09325698
_cell_length_c   6.09325676
_cell_angle_alpha   60.38927765
_cell_angle_beta   60.38927955
_cell_angle_gamma   60.38927765
_symmetry_Int_Tables_number   1
_chemical_formula_structural   Ba2LaIrO6
_chemical_formula_sum   'Ba2 La1 Ir1 O6'
_cell_volume   161.37648239
_cell_formula_units_Z   1
loop_
 _symmetry_equiv_pos_site_id
 _symmetry_equiv_pos_as_xyz
  1  'x, y, z'
loop_
 _atom_site_type_symbol
 _atom_site_label
 _atom_site_symmetry_multiplicity
 _atom_site_fract_x
 _atom_site_fract_y
 _atom_site_fract_z
 _atom_site_occupancy
  Ba  Ba0  1  0.25126500  0.25126500  0.25126500  1
  Ba  Ba1  1  0.74873500  0.74873500  0.74873500  1
  La  La0  1  0.00000000  0.00000000  0.00000000  1
  Ir  Ir0  1  0.50000000  0.50000000  0.50000000  1
  O  O0  1  0.23774400  0.30477300  0.72656400  1
  O  O1  1  0.72656400  0.23774400  0.30477300  1
  O  O2  1  0.30477300  0.72656400  0.23774400  1
  O  O3  1  0.76225600  0.69522700  0.27343600  1
  O  O4  1  0.27343600  0.76225600  0.69522700  1
  O  O5  1  0.69522700  0.27343600  0.76225600  1
loop_
_geom_bond_atom_site_label_1
_geom_bond_atom_site_label_2
_geom_bond_distance
_geom_bond_site_symmetry_2
Ba0 O3 2.865743 1_455
Ba0 O4 2.865743 1_545
Ba0 O5 2.865743 1_554
Ba0 O1 3.028427 1_555
Ba0 O0 3.028427 1_555
Ba0 O2 3.028427 1_555
Ba0 O0 3.088435 1_554
Ba0 O1 3.088435 1_455
Ba0 O2 3.088436 1_545
Ba0 O4 3.275738 1_554
Ba0 O3 3.275738 1_545
Ba0 O5 3.275738 1_455
Ba1 O0 2.865743 1_655
Ba1 O1 2.865743 1_565
Ba1 O2 2.865743 1_556
Ba1 O4 3.028427 1_555
Ba1 O3 3.028427 1_555
Ba1 O5 3.028427 1_555
Ba1 O3 3.088435 1_556
Ba1 O4 3.088435 1_655
Ba1 O5 3.088436 1_565
Ba1 O1 3.275738 1_556
Ba1 O0 3.275738 1_565
Ba1 O2 3.275738 1_655
La0 O5 2.353489 1_454
La0 O2 2.353489 1_545
La0 O4 2.353489 1_544
La0 O1 2.353489 1_455
La0 O3 2.353489 1_445
La0 O0 2.353489 1_554
Ir0 O2 1.987483 1_555
Ir0 O5 1.987483 1_555
Ir0 O0 1.987483 1_555
Ir0 O3 1.987483 1_555
Ir0 O1 1.987483 1_555
Ir0 O4 1.987483 1_555
