# generated using pymatgen
data_CoSbS
_symmetry_space_group_name_H-M   'P 1'
_cell_length_a   5.82273515
_cell_length_b   5.94471784
_cell_length_c   11.62631546
_cell_angle_alpha   90.00000000
_cell_angle_beta   90.00000000
_cell_angle_gamma   90.00000000
_symmetry_Int_Tables_number   1
_chemical_formula_structural   CoSbS
_chemical_formula_sum   'Co8 Sb8 S8'
_cell_volume   402.43930023
_cell_formula_units_Z   8
loop_
 _symmetry_equiv_pos_site_id
 _symmetry_equiv_pos_as_xyz
  1  'x, y, z'
loop_
 _atom_site_type_symbol
 _atom_site_label
 _atom_site_symmetry_multiplicity
 _atom_site_fract_x
 _atom_site_fract_y
 _atom_site_fract_z
 _atom_site_occupancy
  Co  Co0  1  0.01368848  0.16650839  0.38452652  1
  Co  Co1  1  0.01368848  0.33349161  0.88452652  1
  Co  Co2  1  0.48631152  0.66650839  0.38452652  1
  Co  Co3  1  0.98631152  0.83349161  0.61547348  1
  Co  Co4  1  0.51368848  0.33349161  0.61547348  1
  Co  Co5  1  0.48631152  0.83349161  0.88452652  1
  Co  Co6  1  0.98631152  0.66650839  0.11547348  1
  Co  Co7  1  0.51368848  0.16650839  0.11547348  1
  Sb  Sb0  1  0.11926556  0.05050463  0.17993640  1
  Sb  Sb1  1  0.61926556  0.44949537  0.82006360  1
  Sb  Sb2  1  0.88073444  0.55050463  0.32006360  1
  Sb  Sb3  1  0.38073444  0.94949537  0.67993640  1
  Sb  Sb4  1  0.88073444  0.94949537  0.82006360  1
  Sb  Sb5  1  0.38073444  0.55050463  0.17993640  1
  Sb  Sb6  1  0.11926556  0.44949537  0.67993640  1
  Sb  Sb7  1  0.61926556  0.05050463  0.32006360  1
  S  S0  1  0.63260880  0.68740888  0.56532139  1
  S  S1  1  0.86739120  0.31259112  0.06532139  1
  S  S2  1  0.36739120  0.18740888  0.93467861  1
  S  S3  1  0.13260880  0.81259112  0.43467861  1
  S  S4  1  0.13260880  0.68740888  0.93467861  1
  S  S5  1  0.63260880  0.81259112  0.06532139  1
  S  S6  1  0.86739120  0.18740888  0.56532139  1
  S  S7  1  0.36739120  0.31259112  0.43467861  1
loop_
_geom_bond_atom_site_label_1
_geom_bond_atom_site_label_2
_geom_bond_distance
_geom_bond_site_symmetry_2
Co0 S6 2.271431 1_455
Co0 S3 2.290419 1_545
Co0 S7 2.309925 1_555
Co0 Sb7 2.512315 1_455
Co0 Sb2 2.524275 1_455
Co0 Sb0 2.551735 1_555
Co1 S1 2.271431 1_456
Co1 S4 2.290419 1_555
Co1 S2 2.309925 1_555
Co1 Sb1 2.512315 1_455
Co1 Sb4 2.524275 1_445
Co1 Sb6 2.551735 1_555
Co2 S0 2.271431 1_555
Co2 S7 2.290419 1_555
Co2 S3 2.309925 1_555
Co2 Sb2 2.512315 1_555
Co2 Sb7 2.524275 1_565
Co2 Sb5 2.551735 1_555
Co3 S3 2.271431 1_655
Co3 S6 2.290419 1_565
Co3 S0 2.309925 1_555
Co3 Sb3 2.512315 1_655
Co3 Sb6 2.524275 1_655
Co3 Sb4 2.551735 1_555
Co4 S7 2.271431 1_555
Co4 S0 2.290419 1_555
Co4 S6 2.309925 1_555
Co4 Sb6 2.512315 1_555
Co4 Sb3 2.524275 1_545
Co4 Sb1 2.551735 1_555
Co5 S5 2.271431 1_556
Co5 S2 2.290419 1_565
Co5 S4 2.309925 1_555
Co5 Sb4 2.512315 1_555
Co5 Sb1 2.524275 1_555
Co5 Sb3 2.551735 1_555
Co6 S4 2.271431 1_654
Co6 S1 2.290419 1_555
Co6 S5 2.309925 1_555
Co6 Sb5 2.512315 1_655
Co6 Sb0 2.524275 1_665
Co6 Sb2 2.551735 1_555
Co7 S2 2.271431 1_554
Co7 S5 2.290419 1_545
Co7 S1 2.309925 1_555
Co7 Sb0 2.512315 1_555
Co7 Sb5 2.524275 1_555
Co7 Sb7 2.551735 1_555
S0 Sb3 2.520726 1_555
S1 Sb0 2.520726 1_655
S2 Sb1 2.520726 1_555
S3 Sb2 2.520726 1_455
S4 Sb4 2.520726 1_455
S5 Sb5 2.520726 1_555
S6 Sb6 2.520726 1_655
S7 Sb7 2.520726 1_555
