# generated using pymatgen
data_Mo2P3O13
_symmetry_space_group_name_H-M   'P 1'
_cell_length_a   19.23403800
_cell_length_b   6.43607100
_cell_length_c   9.90514761
_cell_angle_alpha   73.50778173
_cell_angle_beta   90.00000000
_cell_angle_gamma   90.00000000
_symmetry_Int_Tables_number   1
_chemical_formula_structural   Mo2P3O13
_chemical_formula_sum   'Mo8 P12 O52'
_cell_volume   1175.72750996
_cell_formula_units_Z   4
loop_
 _symmetry_equiv_pos_site_id
 _symmetry_equiv_pos_as_xyz
  1  'x, y, z'
loop_
 _atom_site_type_symbol
 _atom_site_label
 _atom_site_symmetry_multiplicity
 _atom_site_fract_x
 _atom_site_fract_y
 _atom_site_fract_z
 _atom_site_occupancy
  Mo  Mo0  1  0.21294300  0.93692500  0.38897500  1
  Mo  Mo1  1  0.18351100  0.62951200  0.93854600  1
  Mo  Mo2  1  0.49849900  0.86847100  0.06820700  1
  Mo  Mo3  1  0.46781000  0.56113900  0.61938900  1
  Mo  Mo4  1  0.96781000  0.43886100  0.38061100  1
  Mo  Mo5  1  0.99849900  0.13152900  0.93179300  1
  Mo  Mo6  1  0.68351100  0.37048800  0.06145400  1
  Mo  Mo7  1  0.71294300  0.06307500  0.61102500  1
  P  P0  1  0.66389600  0.91117800  0.96235200  1
  P  P1  1  0.93107500  0.98400900  0.28839200  1
  P  P2  1  0.30687400  0.76035400  0.69696900  1
  P  P3  1  0.37448500  0.73833200  0.31033700  1
  P  P4  1  0.51694100  0.40966800  0.96785400  1
  P  P5  1  0.75005400  0.51762800  0.70353300  1
  P  P6  1  0.25005400  0.48237200  0.29646700  1
  P  P7  1  0.01694100  0.59033200  0.03214600  1
  P  P8  1  0.87448500  0.26166800  0.68966300  1
  P  P9  1  0.80687400  0.23964600  0.30303100  1
  P  P10  1  0.43107500  0.01599100  0.71160800  1
  P  P11  1  0.16389600  0.08882200  0.03764800  1
  O  O0  1  0.44905500  0.96347900  0.86818900  1
  O  O1  1  0.18609700  0.93057000  0.95342700  1
  O  O2  1  0.58387800  0.92310200  0.94084200  1
  O  O3  1  0.70214500  0.96143600  0.82411100  1
  O  O4  1  0.34797900  0.97251900  0.70597700  1
  O  O5  1  0.99870900  0.82165600  0.93852800  1
  O  O6  1  0.46789600  0.87457700  0.63364000  1
  O  O7  1  0.12793300  0.94197200  0.43183800  1
  O  O8  1  0.24750800  0.83594300  0.59492700  1
  O  O9  1  0.32536400  0.90366600  0.33747300  1
  O  O10  1  0.13559500  0.70154600  0.78853300  1
  O  O11  1  0.27447900  0.67130300  0.84971600  1
  O  O12  1  0.74243500  0.75471700  0.62061100  1
  O  O13  1  0.93888100  0.74720300  0.37170400  1
  O  O14  1  0.54761000  0.79745200  0.21663300  1
  O  O15  1  0.40781400  0.82624900  0.15832900  1
  O  O16  1  0.35569900  0.59542200  0.66849200  1
  O  O17  1  0.73138200  0.46508500  0.85978700  1
  O  O18  1  0.99648200  0.43310200  0.94597300  1
  O  O19  1  0.43365100  0.66284500  0.41314300  1
  O  O20  1  0.59643700  0.42417800  0.93888400  1
  O  O21  1  0.47571300  0.45894300  0.83301400  1
  O  O22  1  0.55326200  0.55480900  0.58004000  1
  O  O23  1  0.21355100  0.62335600  0.37518900  1
  O  O24  1  0.83323000  0.47364900  0.69906100  1
  O  O25  1  0.18391500  0.31957700  0.94561600  1
  O  O26  1  0.68391500  0.68042300  0.05438400  1
  O  O27  1  0.33323000  0.52635100  0.30093900  1
  O  O28  1  0.71355100  0.37664400  0.62481100  1
  O  O29  1  0.05326200  0.44519100  0.41996000  1
  O  O30  1  0.97571300  0.54105700  0.16698600  1
  O  O31  1  0.09643700  0.57582200  0.06111600  1
  O  O32  1  0.93365100  0.33715500  0.58685700  1
  O  O33  1  0.49648200  0.56689800  0.05402700  1
  O  O34  1  0.23138200  0.53491500  0.14021300  1
  O  O35  1  0.85569900  0.40457800  0.33150800  1
  O  O36  1  0.90781400  0.17375100  0.84167100  1
  O  O37  1  0.04761000  0.20254800  0.78336700  1
  O  O38  1  0.43888100  0.25279700  0.62829600  1
  O  O39  1  0.24243500  0.24528300  0.37938900  1
  O  O40  1  0.77447900  0.32869700  0.15028400  1
  O  O41  1  0.63559500  0.29845400  0.21146700  1
  O  O42  1  0.82536400  0.09633400  0.66252700  1
  O  O43  1  0.74750800  0.16405700  0.40507300  1
  O  O44  1  0.62793300  0.05802800  0.56816200  1
  O  O45  1  0.96789600  0.12542300  0.36636000  1
  O  O46  1  0.49870900  0.17834400  0.06147200  1
  O  O47  1  0.84797900  0.02748100  0.29402300  1
  O  O48  1  0.20214500  0.03856400  0.17588900  1
  O  O49  1  0.08387800  0.07689800  0.05915800  1
  O  O50  1  0.68609700  0.06943000  0.04657300  1
  O  O51  1  0.94905500  0.03652100  0.13181100  1
loop_
_geom_bond_atom_site_label_1
_geom_bond_atom_site_label_2
_geom_bond_distance
_geom_bond_site_symmetry_2
Mo0 O7 1.691935 1_555
Mo0 O48 2.035184 1_565
Mo0 O39 2.040218 1_565
Mo0 O23 2.061114 1_555
Mo0 O8 2.067163 1_555
Mo0 O9 2.245805 1_555
Mo1 O10 1.697378 1_555
Mo1 O11 1.942561 1_555
Mo1 O25 1.976040 1_555
Mo1 O1 1.985137 1_555
Mo1 O31 2.039630 1_556
Mo1 O34 2.125589 1_556
Mo2 O14 1.697379 1_555
Mo2 O15 1.943025 1_555
Mo2 O46 1.976466 1_565
Mo2 O33 1.985770 1_555
Mo2 O2 2.039632 1_554
Mo2 O0 2.125011 1_554
Mo3 O22 1.692325 1_555
Mo3 O21 2.035418 1_555
Mo3 O38 2.038692 1_555
Mo3 O6 2.061830 1_555
Mo3 O19 2.067445 1_555
Mo3 O16 2.235175 1_555
Mo4 O29 1.692325 1_655
Mo4 O30 2.035418 1_555
Mo4 O13 2.038692 1_555
Mo4 O45 2.061830 1_555
Mo4 O32 2.067445 1_555
Mo4 O35 2.235175 1_555
Mo5 O37 1.697379 1_655
Mo5 O36 1.943025 1_555
Mo5 O5 1.976466 1_545
Mo5 O18 1.985770 1_555
Mo5 O49 2.039632 1_656
Mo5 O51 2.125011 1_556
Mo6 O41 1.697378 1_555
Mo6 O40 1.942561 1_555
Mo6 O26 1.976040 1_555
Mo6 O50 1.985137 1_555
Mo6 O20 2.039630 1_554
Mo6 O17 2.125589 1_554
Mo7 O44 1.691935 1_555
Mo7 O3 2.035184 1_545
Mo7 O12 2.040218 1_545
Mo7 O28 2.061114 1_555
Mo7 O43 2.067163 1_555
Mo7 O42 2.245805 1_555
O0 P10 1.530254 1_565
O1 P11 1.548571 1_566
O2 P0 1.552654 1_555
O3 P0 1.506439 1_555
O4 P2 1.602131 1_555
O4 P10 1.626261 1_565
O5 P7 1.554215 1_656
O6 P10 1.524943 1_565
O8 P2 1.510929 1_555
O9 P3 1.503192 1_555
O11 P2 1.585401 1_555
O12 P5 1.520834 1_555
O13 P1 1.520630 1_555
O15 P3 1.585692 1_555
O16 P2 1.502761 1_555
O17 P5 1.530231 1_555
O18 P7 1.548499 1_656
O19 P3 1.512330 1_555
O20 P4 1.553634 1_555
O21 P4 1.507567 1_555
O23 P6 1.525130 1_555
O24 P8 1.603683 1_555
O24 P5 1.627450 1_555
O25 P11 1.554435 1_556
O26 P0 1.554435 1_554
O27 P3 1.603683 1_555
O27 P6 1.627450 1_555
O28 P5 1.525130 1_555
O30 P7 1.507567 1_655
O31 P7 1.553634 1_555
O32 P8 1.512330 1_555
O33 P4 1.548499 1_554
O34 P6 1.530231 1_555
O35 P9 1.502761 1_555
O36 P8 1.585692 1_555
O38 P10 1.520630 1_555
O39 P6 1.520834 1_555
O40 P9 1.585401 1_555
O42 P8 1.503192 1_555
O43 P9 1.510929 1_555
O45 P1 1.524943 1_545
O46 P4 1.554215 1_554
O47 P9 1.602131 1_555
O47 P1 1.626261 1_545
O48 P11 1.506439 1_555
O49 P11 1.552654 1_555
O50 P0 1.548571 1_544
O51 P1 1.530254 1_545
