# generated using pymatgen
data_Fe3BO5
_symmetry_space_group_name_H-M   'P 1'
_cell_length_a   6.10859200
_cell_length_b   9.45637500
_cell_length_c   12.56957300
_cell_angle_alpha   90.00000000
_cell_angle_beta   90.00000000
_cell_angle_gamma   90.00000000
_symmetry_Int_Tables_number   1
_chemical_formula_structural   Fe3BO5
_chemical_formula_sum   'Fe24 B8 O40'
_cell_volume   726.08310228
_cell_formula_units_Z   8
loop_
 _symmetry_equiv_pos_site_id
 _symmetry_equiv_pos_as_xyz
  1  'x, y, z'
loop_
 _atom_site_type_symbol
 _atom_site_label
 _atom_site_symmetry_multiplicity
 _atom_site_fract_x
 _atom_site_fract_y
 _atom_site_fract_z
 _atom_site_occupancy
  Fe  Fe0  1  0.75000000  0.49673900  0.00224600  1
  Fe  Fe1  1  0.75000000  0.00326100  0.50224600  1
  Fe  Fe2  1  0.75000000  0.25595200  0.61124300  1
  Fe  Fe3  1  0.51215600  0.00000500  0.27805100  1
  Fe  Fe4  1  0.01215600  0.99999500  0.72194900  1
  Fe  Fe5  1  0.25000000  0.25985400  0.61169200  1
  Fe  Fe6  1  0.51215600  0.49999500  0.77805100  1
  Fe  Fe7  1  0.98784400  0.49999500  0.77805100  1
  Fe  Fe8  1  0.75000000  0.24404800  0.11124300  1
  Fe  Fe9  1  0.25000000  0.24014600  0.11169200  1
  Fe  Fe10  1  0.01215600  0.50000500  0.22194900  1
  Fe  Fe11  1  0.50000000  0.50000000  0.50000000  1
  Fe  Fe12  1  0.25000000  0.99673900  0.49775400  1
  Fe  Fe13  1  0.25000000  0.50326100  0.99775400  1
  Fe  Fe14  1  0.48784400  0.99999500  0.72194900  1
  Fe  Fe15  1  0.48784400  0.50000500  0.22194900  1
  Fe  Fe16  1  0.98784400  0.00000500  0.27805100  1
  Fe  Fe17  1  0.75000000  0.74014600  0.38830800  1
  Fe  Fe18  1  0.00000000  0.50000000  0.50000000  1
  Fe  Fe19  1  0.75000000  0.75985400  0.88830800  1
  Fe  Fe20  1  0.00000000  0.00000000  0.00000000  1
  Fe  Fe21  1  0.25000000  0.75595200  0.88875700  1
  Fe  Fe22  1  0.50000000  0.00000000  0.00000000  1
  Fe  Fe23  1  0.25000000  0.74404800  0.38875700  1
  B  B0  1  0.25000000  0.27065900  0.36043500  1
  B  B1  1  0.75000000  0.22272900  0.85850400  1
  B  B2  1  0.25000000  0.77727100  0.14149600  1
  B  B3  1  0.75000000  0.77065900  0.13956500  1
  B  B4  1  0.25000000  0.72272900  0.64149600  1
  B  B5  1  0.25000000  0.22934100  0.86043500  1
  B  B6  1  0.75000000  0.72934100  0.63956500  1
  B  B7  1  0.75000000  0.27727100  0.35850400  1
  O  O0  1  0.75000000  0.35020800  0.45447000  1
  O  O1  1  0.25000000  0.63038000  0.14086100  1
  O  O2  1  0.49840700  0.89679300  0.85719500  1
  O  O3  1  0.50427500  0.89018600  0.42233600  1
  O  O4  1  0.25000000  0.65009800  0.73714300  1
  O  O5  1  0.25000000  0.37551600  0.85862000  1
  O  O6  1  0.99572500  0.60981400  0.92233600  1
  O  O7  1  0.99840700  0.39679300  0.64280500  1
  O  O8  1  0.50159300  0.39679300  0.64280500  1
  O  O9  1  0.99572500  0.89018600  0.42233600  1
  O  O10  1  0.99840700  0.10320700  0.14280500  1
  O  O11  1  0.49572500  0.39018600  0.07766400  1
  O  O12  1  0.50159300  0.10320700  0.14280500  1
  O  O13  1  0.50427500  0.60981400  0.92233600  1
  O  O14  1  0.49572500  0.10981400  0.57766400  1
  O  O15  1  0.25000000  0.15616500  0.76460900  1
  O  O16  1  0.75000000  0.65350200  0.54491600  1
  O  O17  1  0.25000000  0.34383500  0.26460900  1
  O  O18  1  0.25000000  0.85020800  0.04553000  1
  O  O19  1  0.75000000  0.62448400  0.14138000  1
  O  O20  1  0.00427500  0.39018600  0.07766400  1
  O  O21  1  0.75000000  0.14979200  0.95447000  1
  O  O22  1  0.25000000  0.64979200  0.54553000  1
  O  O23  1  0.49840700  0.60320700  0.35719500  1
  O  O24  1  0.75000000  0.87551600  0.64138000  1
  O  O25  1  0.00159300  0.89679300  0.85719500  1
  O  O26  1  0.25000000  0.34649800  0.45508400  1
  O  O27  1  0.75000000  0.84383500  0.23539100  1
  O  O28  1  0.25000000  0.15350200  0.95508400  1
  O  O29  1  0.75000000  0.13038000  0.35913900  1
  O  O30  1  0.00427500  0.10981400  0.57766400  1
  O  O31  1  0.75000000  0.84649800  0.04491600  1
  O  O32  1  0.75000000  0.65616500  0.73539100  1
  O  O33  1  0.25000000  0.86962000  0.64086100  1
  O  O34  1  0.00159300  0.60320700  0.35719500  1
  O  O35  1  0.25000000  0.84990200  0.23714300  1
  O  O36  1  0.75000000  0.34990200  0.26285700  1
  O  O37  1  0.75000000  0.36962000  0.85913900  1
  O  O38  1  0.75000000  0.15009800  0.76285700  1
  O  O39  1  0.25000000  0.12448400  0.35862000  1
loop_
_geom_bond_atom_site_label_1
_geom_bond_atom_site_label_2
_geom_bond_distance
_geom_bond_site_symmetry_2
Fe0 O20 2.080034 1_655
Fe0 O11 2.080034 1_555
Fe0 O6 2.098893 1_554
Fe0 O13 2.098893 1_554
Fe0 O19 2.125504 1_555
Fe0 O37 2.163485 1_554
Fe1 O30 2.080034 1_655
Fe1 O14 2.080034 1_555
Fe1 O3 2.098893 1_545
Fe1 O9 2.098893 1_545
Fe1 O24 2.125504 1_545
Fe1 O29 2.163485 1_555
Fe2 O7 2.057609 1_555
Fe2 O8 2.057609 1_555
Fe2 O30 2.121442 1_655
Fe2 O14 2.121442 1_555
Fe2 O38 2.152620 1_555
Fe2 O0 2.162775 1_555
Fe3 O12 1.961256 1_555
Fe3 O3 2.090437 1_545
Fe3 O27 2.139946 1_545
Fe3 O29 2.160956 1_555
Fe3 O35 2.200835 1_545
Fe3 O39 2.230629 1_555
Fe4 O25 1.961256 1_555
Fe4 O30 2.090437 1_565
Fe4 O15 2.139946 1_565
Fe4 O33 2.160956 1_555
Fe4 O38 2.200835 1_465
Fe4 O24 2.230629 1_455
Fe5 O8 2.047395 1_555
Fe5 O7 2.047395 1_455
Fe5 O14 2.109297 1_555
Fe5 O30 2.109297 1_555
Fe5 O26 2.132203 1_555
Fe5 O15 2.157753 1_555
Fe6 O8 1.961256 1_555
Fe6 O13 2.090437 1_555
Fe6 O32 2.139946 1_555
Fe6 O37 2.160956 1_555
Fe6 O4 2.200835 1_555
Fe6 O5 2.230629 1_555
Fe7 O7 1.961256 1_555
Fe7 O6 2.090437 1_555
Fe7 O32 2.139946 1_555
Fe7 O37 2.160956 1_555
Fe7 O4 2.200835 1_655
Fe7 O5 2.230629 1_655
Fe8 O10 2.057609 1_555
Fe8 O12 2.057609 1_555
Fe8 O20 2.121442 1_655
Fe8 O11 2.121442 1_555
Fe8 O36 2.152620 1_555
Fe8 O21 2.162775 1_554
Fe9 O12 2.047395 1_555
Fe9 O10 2.047395 1_455
Fe9 O11 2.109297 1_555
Fe9 O20 2.109297 1_555
Fe9 O28 2.132203 1_554
Fe9 O17 2.157753 1_555
Fe10 O34 1.961256 1_555
Fe10 O20 2.090437 1_555
Fe10 O17 2.139946 1_555
Fe10 O1 2.160956 1_555
Fe10 O36 2.200835 1_455
Fe10 O19 2.230629 1_455
Fe11 O23 2.043188 1_555
Fe11 O8 2.043188 1_555
Fe11 O22 2.160125 1_555
Fe11 O0 2.160125 1_555
Fe11 O16 2.181281 1_555
Fe11 O26 2.181281 1_555
Fe12 O9 2.080034 1_455
Fe12 O3 2.080034 1_555
Fe12 O14 2.098893 1_565
Fe12 O30 2.098893 1_565
Fe12 O39 2.125504 1_565
Fe12 O33 2.163485 1_555
Fe13 O6 2.080034 1_455
Fe13 O13 2.080034 1_555
Fe13 O11 2.098893 1_556
Fe13 O20 2.098893 1_556
Fe13 O5 2.125504 1_555
Fe13 O1 2.163485 1_556
Fe14 O2 1.961256 1_555
Fe14 O14 2.090437 1_565
Fe14 O15 2.139946 1_565
Fe14 O33 2.160956 1_555
Fe14 O38 2.200835 1_565
Fe14 O24 2.230629 1_555
Fe15 O23 1.961256 1_555
Fe15 O11 2.090437 1_555
Fe15 O17 2.139946 1_555
Fe15 O1 2.160956 1_555
Fe15 O36 2.200835 1_555
Fe15 O19 2.230629 1_555
Fe16 O10 1.961256 1_555
Fe16 O9 2.090437 1_545
Fe16 O27 2.139946 1_545
Fe16 O29 2.160956 1_555
Fe16 O35 2.200835 1_645
Fe16 O39 2.230629 1_655
Fe17 O34 2.047395 1_655
Fe17 O23 2.047395 1_555
Fe17 O9 2.109297 1_555
Fe17 O3 2.109297 1_555
Fe17 O16 2.132203 1_555
Fe17 O27 2.157753 1_555
Fe18 O34 2.043188 1_555
Fe18 O7 2.043188 1_455
Fe18 O22 2.160125 1_555
Fe18 O0 2.160125 1_455
Fe18 O16 2.181281 1_455
Fe18 O26 2.181281 1_555
Fe19 O25 2.047395 1_655
Fe19 O2 2.047395 1_555
Fe19 O6 2.109297 1_555
Fe19 O13 2.109297 1_555
Fe19 O31 2.132203 1_556
Fe19 O32 2.157753 1_555
Fe20 O10 2.043188 1_455
Fe20 O25 2.043188 1_544
Fe20 O21 2.160125 1_454
Fe20 O18 2.160125 1_545
Fe20 O31 2.181281 1_445
Fe20 O28 2.181281 1_554
Fe21 O2 2.057609 1_555
Fe21 O25 2.057609 1_555
Fe21 O6 2.121442 1_455
Fe21 O13 2.121442 1_555
Fe21 O4 2.152620 1_555
Fe21 O18 2.162775 1_556
Fe22 O12 2.043188 1_555
Fe22 O2 2.043188 1_544
Fe22 O21 2.160125 1_554
Fe22 O18 2.160125 1_545
Fe22 O31 2.181281 1_545
Fe22 O28 2.181281 1_554
Fe23 O23 2.057609 1_555
Fe23 O34 2.057609 1_555
Fe23 O9 2.121442 1_455
Fe23 O3 2.121442 1_555
Fe23 O35 2.152620 1_555
Fe23 O22 2.162775 1_555
B0 O39 1.382474 1_555
B0 O17 1.389114 1_555
B0 O26 1.389137 1_555
B1 O38 1.384599 1_555
B1 O37 1.389079 1_555
B1 O21 1.389517 1_555
B2 O35 1.384599 1_555
B2 O1 1.389079 1_555
B2 O18 1.389517 1_555
B3 O19 1.382474 1_555
B3 O27 1.389114 1_555
B3 O31 1.389137 1_555
B4 O4 1.384599 1_555
B4 O33 1.389079 1_555
B4 O22 1.389517 1_555
B5 O5 1.382474 1_555
B5 O15 1.389114 1_555
B5 O28 1.389137 1_555
B6 O24 1.382474 1_555
B6 O32 1.389114 1_555
B6 O16 1.389137 1_555
B7 O36 1.384599 1_555
B7 O29 1.389079 1_555
B7 O0 1.389517 1_555
