# generated using pymatgen
data_Cs2S
_symmetry_space_group_name_H-M   'P 1'
_cell_length_a   5.38962240
_cell_length_b   8.67889093
_cell_length_c   10.50526095
_cell_angle_alpha   90.00000000
_cell_angle_beta   90.00000000
_cell_angle_gamma   90.00000000
_symmetry_Int_Tables_number   1
_chemical_formula_structural   Cs2S
_chemical_formula_sum   'Cs8 S4'
_cell_volume   491.39350802
_cell_formula_units_Z   4
loop_
 _symmetry_equiv_pos_site_id
 _symmetry_equiv_pos_as_xyz
  1  'x, y, z'
loop_
 _atom_site_type_symbol
 _atom_site_label
 _atom_site_symmetry_multiplicity
 _atom_site_fract_x
 _atom_site_fract_y
 _atom_site_fract_z
 _atom_site_occupancy
  Cs  Cs0  1  0.75000000  0.97579376  0.82887612  1
  Cs  Cs1  1  0.25000000  0.02420624  0.17112388  1
  Cs  Cs2  1  0.75000000  0.47579376  0.67112388  1
  Cs  Cs3  1  0.25000000  0.52420624  0.32887612  1
  Cs  Cs4  1  0.75000000  0.85515434  0.42590942  1
  Cs  Cs5  1  0.25000000  0.14484566  0.57409058  1
  Cs  Cs6  1  0.75000000  0.35515434  0.07409058  1
  Cs  Cs7  1  0.25000000  0.64484566  0.92590942  1
  S  S0  1  0.75000000  0.75470159  0.11089072  1
  S  S1  1  0.25000000  0.24529941  0.88910928  1
  S  S2  1  0.75000000  0.25470159  0.38910928  1
  S  S3  1  0.25000000  0.74529841  0.61089072  1
loop_
_geom_bond_atom_site_label_1
_geom_bond_atom_site_label_2
_geom_bond_distance
_geom_bond_site_symmetry_2
Cs0 S0 3.529751 1_556
Cs0 S1 3.623999 1_565
Cs0 S1 3.623999 1_665
Cs0 S3 4.062986 1_655
Cs0 S3 4.062986 1_555
Cs1 S1 3.529756 1_554
Cs1 S0 3.623993 1_445
Cs1 S0 3.623993 1_545
Cs1 S2 4.062986 1_455
Cs1 S2 4.062986 1_555
Cs2 S2 3.529751 1_555
Cs2 S3 3.623993 1_655
Cs2 S3 3.623993 1_555
Cs2 S1 4.062982 1_655
Cs2 S1 4.062982 1_555
Cs3 S3 3.529751 1_555
Cs3 S2 3.623993 1_555
Cs3 S2 3.623993 1_455
Cs3 S0 4.062986 1_455
Cs3 S0 4.062986 1_555
Cs4 S0 3.422264 1_555
Cs4 S3 3.456495 1_555
Cs4 S3 3.456495 1_655
Cs4 S2 3.489111 1_565
Cs5 S1 3.422266 1_555
Cs5 S2 3.456495 1_555
Cs5 S2 3.456495 1_455
Cs5 S3 3.489111 1_545
Cs6 S2 3.422264 1_555
Cs6 S1 3.456492 1_554
Cs6 S1 3.456492 1_654
Cs6 S0 3.489111 1_555
Cs7 S3 3.422264 1_555
Cs7 S0 3.456495 1_556
Cs7 S0 3.456495 1_456
Cs7 S1 3.489102 1_555
