# generated using pymatgen
data_AsS(IF3)2
_symmetry_space_group_name_H-M   'P 1'
_cell_length_a   7.96991312
_cell_length_b   7.96991312
_cell_length_c   13.52051869
_cell_angle_alpha   86.06344242
_cell_angle_beta   86.06344242
_cell_angle_gamma   106.20263612
_symmetry_Int_Tables_number   1
_chemical_formula_structural   AsS(IF3)2
_chemical_formula_sum   'As4 S4 I8 F24'
_cell_volume   819.29633099
_cell_formula_units_Z   4
loop_
 _symmetry_equiv_pos_site_id
 _symmetry_equiv_pos_as_xyz
  1  'x, y, z'
loop_
 _atom_site_type_symbol
 _atom_site_label
 _atom_site_symmetry_multiplicity
 _atom_site_fract_x
 _atom_site_fract_y
 _atom_site_fract_z
 _atom_site_occupancy
  As  As0  1  0.81651977  0.18348023  0.25000000  1
  As  As1  1  0.18348023  0.81651977  0.75000000  1
  As  As2  1  0.50000000  0.50000000  0.00000000  1
  As  As3  1  0.50000000  0.50000000  0.50000000  1
  S  S0  1  0.78369314  0.41015677  0.74420439  1
  S  S1  1  0.21630686  0.58984323  0.25579561  1
  S  S2  1  0.41015677  0.78369314  0.24420439  1
  S  S3  1  0.58984323  0.21630686  0.75579561  1
  I  I0  1  0.24604822  0.98466558  0.07382643  1
  I  I1  1  0.98466558  0.24604822  0.57382643  1
  I  I2  1  0.00495448  0.68349447  0.11543631  1
  I  I3  1  0.75395178  0.01533442  0.92617357  1
  I  I4  1  0.99504552  0.31650553  0.88456369  1
  I  I5  1  0.31650553  0.99504552  0.38456369  1
  I  I6  1  0.68349447  0.00495448  0.61543631  1
  I  I7  1  0.01533442  0.75395178  0.42617357  1
  F  F0  1  0.58507289  0.53075660  0.11468843  1
  F  F1  1  0.28002811  0.90953480  0.63153590  1
  F  F2  1  0.97609636  0.80176940  0.71143154  1
  F  F3  1  0.71997089  0.09046520  0.36846410  1
  F  F4  1  0.41492711  0.46924340  0.88531157  1
  F  F5  1  0.39367742  0.83312522  0.78639196  1
  F  F6  1  0.09046520  0.71997089  0.86846410  1
  F  F7  1  0.83312522  0.39367742  0.28639196  1
  F  F8  1  0.51914680  0.28494137  0.00661858  1
  F  F9  1  0.28494137  0.51914680  0.50661858  1
  F  F10  1  0.53075660  0.58507289  0.61468843  1
  F  F11  1  0.80176940  0.97609636  0.21143154  1
  F  F12  1  0.02390364  0.19823060  0.28856846  1
  F  F13  1  0.71505863  0.48085320  0.49338142  1
  F  F14  1  0.60632258  0.16687478  0.21360804  1
  F  F15  1  0.16687478  0.60632258  0.71360804  1
  F  F16  1  0.42135747  0.28833316  0.55924100  1
  F  F17  1  0.46924340  0.41492711  0.38531157  1
  F  F18  1  0.90953480  0.28002911  0.13153590  1
  F  F19  1  0.48085320  0.71505863  0.99338142  1
  F  F20  1  0.19823060  0.02390364  0.78856846  1
  F  F21  1  0.57864253  0.71166684  0.44075900  1
  F  F22  1  0.71166684  0.57864253  0.94075900  1
  F  F23  1  0.28833316  0.42135747  0.05924100  1
loop_
_geom_bond_atom_site_label_1
_geom_bond_atom_site_label_2
_geom_bond_distance
_geom_bond_site_symmetry_2
As0 F11 1.742389 1_545
As0 F12 1.742389 1_655
As0 F3 1.748284 1_555
As0 F18 1.748284 1_555
As0 F14 1.750565 1_555
As0 F7 1.750565 1_555
As1 F2 1.742389 1_455
As1 F20 1.742389 1_565
As1 F1 1.748282 1_555
As1 F6 1.748284 1_555
As1 F15 1.750565 1_555
As1 F5 1.750565 1_555
As2 F4 1.740145 1_554
As2 F0 1.740145 1_555
As2 F23 1.742332 1_555
As2 F22 1.742332 1_554
As2 F8 1.759507 1_555
As2 F19 1.759507 1_554
As3 F17 1.740145 1_555
As3 F10 1.740145 1_555
As3 F16 1.742332 1_555
As3 F21 1.742332 1_555
As3 F9 1.759507 1_555
As3 F13 1.759507 1_555
S0 S3 1.843867 1_555
S1 S2 1.843867 1_555
I0 I2 2.619612 1_555
I1 I6 2.619612 1_555
I2 S1 2.818148 1_555
I3 I4 2.619612 1_555
I4 S0 2.818148 1_555
I5 I7 2.619612 1_555
I5 S2 2.818148 1_555
I6 S3 2.818148 1_555
