# generated using pymatgen
data_YCo3B2
_symmetry_space_group_name_H-M   'P 1'
_cell_length_a   10.06572370
_cell_length_b   10.06576411
_cell_length_c   5.85878584
_cell_angle_alpha   90.00000000
_cell_angle_beta   90.00000000
_cell_angle_gamma   119.99988103
_symmetry_Int_Tables_number   1
_chemical_formula_structural   YCo3B2
_chemical_formula_sum   'Y8 Co24 B16'
_cell_volume   514.07978815
_cell_formula_units_Z   8
loop_
 _symmetry_equiv_pos_site_id
 _symmetry_equiv_pos_as_xyz
  1  'x, y, z'
loop_
 _atom_site_type_symbol
 _atom_site_label
 _atom_site_symmetry_multiplicity
 _atom_site_fract_x
 _atom_site_fract_y
 _atom_site_fract_z
 _atom_site_occupancy
  Y  Y0_0  1  0.00000000  0.00000000  0.00000000  1
  Y  Y0_1  1  0.00000000  0.00000000  0.50000000  1
  Y  Y0_2  1  0.00000000  0.50000000  0.00000000  1
  Y  Y0_3  1  0.00000000  0.50000000  0.50000000  1
  Y  Y0_4  1  0.50000000  0.00000000  0.00000000  1
  Y  Y0_5  1  0.50000000  0.00000000  0.50000000  1
  Y  Y0_6  1  0.50000000  0.50000000  0.00000000  1
  Y  Y0_7  1  0.50000000  0.50000000  0.50000000  1
  Co  Co0_0  1  0.25000000  0.00000000  0.25000000  1
  Co  Co0_1  1  0.25000000  0.00000000  0.75000000  1
  Co  Co0_2  1  0.25000000  0.50000000  0.25000000  1
  Co  Co0_3  1  0.25000000  0.50000000  0.75000000  1
  Co  Co0_4  1  0.75000000  0.00000000  0.25000000  1
  Co  Co0_5  1  0.75000000  0.00000000  0.75000000  1
  Co  Co0_6  1  0.75000000  0.50000000  0.25000000  1
  Co  Co0_7  1  0.75000000  0.50000000  0.75000000  1
  Co  Co1_0  1  0.25000000  0.25000000  0.25000000  1
  Co  Co1_1  1  0.25000000  0.25000000  0.75000000  1
  Co  Co1_2  1  0.25000000  0.75000000  0.25000000  1
  Co  Co1_3  1  0.25000000  0.75000000  0.75000000  1
  Co  Co1_4  1  0.75000000  0.25000000  0.25000000  1
  Co  Co1_5  1  0.75000000  0.25000000  0.75000000  1
  Co  Co1_6  1  0.75000000  0.75000000  0.25000000  1
  Co  Co1_7  1  0.75000000  0.75000000  0.75000000  1
  Co  Co2_0  1  0.00000000  0.25000000  0.25000000  1
  Co  Co2_1  1  0.00000000  0.25000000  0.75000000  1
  Co  Co2_2  1  0.00000000  0.75000000  0.25000000  1
  Co  Co2_3  1  0.00000000  0.75000000  0.75000000  1
  Co  Co2_4  1  0.50000000  0.25000000  0.25000000  1
  Co  Co2_5  1  0.50000000  0.25000000  0.75000000  1
  Co  Co2_6  1  0.50000000  0.75000000  0.25000000  1
  Co  Co2_7  1  0.50000000  0.75000000  0.75000000  1
  B  B0_0  1  0.16666303  0.33332656  0.00000000  1
  B  B0_1  1  0.16666303  0.33332656  0.50000000  1
  B  B0_2  1  0.16666303  0.83332656  0.00000000  1
  B  B0_3  1  0.16666303  0.83332656  0.50000000  1
  B  B0_4  1  0.66666303  0.33332656  0.00000000  1
  B  B0_5  1  0.66666303  0.33332656  0.50000000  1
  B  B0_6  1  0.66666303  0.83332656  0.00000000  1
  B  B0_7  1  0.66666303  0.83332656  0.50000000  1
  B  B1_0  1  0.33333697  0.16667344  0.00000000  1
  B  B1_1  1  0.33333697  0.16667344  0.50000000  1
  B  B1_2  1  0.33333697  0.66667344  0.00000000  1
  B  B1_3  1  0.33333697  0.66667344  0.50000000  1
  B  B1_4  1  0.83333697  0.16667344  0.00000000  1
  B  B1_5  1  0.83333697  0.16667344  0.50000000  1
  B  B1_6  1  0.83333697  0.66667344  0.00000000  1
  B  B1_7  1  0.83333697  0.66667344  0.50000000  1
loop_
_geom_bond_atom_site_label_1
_geom_bond_atom_site_label_2
_geom_bond_distance
_geom_bond_site_symmetry_2
Y0_0 Y0_1 2.929393 1_554
Y0_0 Y0_1 2.929393 1_555
Y0_2 Y0_3 2.929393 1_554
Y0_2 Y0_3 2.929393 1_555
Y0_4 Y0_5 2.929393 1_554
Y0_4 Y0_5 2.929393 1_555
Y0_6 Y0_7 2.929393 1_554
Y0_6 Y0_7 2.929393 1_555
Co0_0 Y0_0 2.911659 1_555
Co0_0 Y0_5 2.911659 1_555
Co0_0 Y0_4 2.911659 1_555
Co0_0 Y0_1 2.911659 1_555
Co0_1 Y0_0 2.911659 1_556
Co0_1 Y0_4 2.911659 1_556
Co0_1 Y0_5 2.911659 1_555
Co0_1 Y0_1 2.911659 1_555
Co0_2 Y0_3 2.911659 1_555
Co0_2 Y0_6 2.911659 1_555
Co0_2 Y0_7 2.911659 1_555
Co0_2 Y0_2 2.911659 1_555
Co0_3 Y0_6 2.911659 1_556
Co0_3 Y0_2 2.911659 1_556
Co0_3 Y0_7 2.911659 1_555
Co0_3 Y0_3 2.911659 1_555
Co0_4 Y0_1 2.911659 1_655
Co0_4 Y0_5 2.911659 1_555
Co0_4 Y0_4 2.911659 1_555
Co0_4 Y0_0 2.911659 1_655
Co0_5 Y0_4 2.911659 1_556
Co0_5 Y0_0 2.911659 1_656
Co0_5 Y0_1 2.911659 1_655
Co0_5 Y0_5 2.911659 1_555
Co0_6 Y0_2 2.911659 1_655
Co0_6 Y0_6 2.911659 1_555
Co0_6 Y0_3 2.911659 1_655
Co0_6 Y0_7 2.911659 1_555
Co0_7 Y0_2 2.911659 1_656
Co0_7 Y0_6 2.911659 1_556
Co0_7 Y0_3 2.911659 1_655
Co0_7 Y0_7 2.911659 1_555
Co1_0 Y0_6 2.911668 1_555
Co1_0 Y0_0 2.911668 1_555
Co1_0 Y0_7 2.911668 1_555
Co1_0 Y0_1 2.911668 1_555
Co1_1 Y0_0 2.911668 1_556
Co1_1 Y0_6 2.911668 1_556
Co1_1 Y0_1 2.911668 1_555
Co1_1 Y0_7 2.911668 1_555
Co1_2 Y0_4 2.911668 1_565
Co1_2 Y0_5 2.911668 1_565
Co1_2 Y0_2 2.911668 1_555
Co1_2 Y0_3 2.911668 1_555
Co1_3 Y0_4 2.911668 1_566
Co1_3 Y0_5 2.911668 1_565
Co1_3 Y0_2 2.911668 1_556
Co1_3 Y0_3 2.911668 1_555
Co1_4 Y0_3 2.911668 1_655
Co1_4 Y0_2 2.911668 1_655
Co1_4 Y0_5 2.911668 1_555
Co1_4 Y0_4 2.911668 1_555
Co1_5 Y0_2 2.911668 1_656
Co1_5 Y0_3 2.911668 1_655
Co1_5 Y0_4 2.911668 1_556
Co1_5 Y0_5 2.911668 1_555
Co1_6 Y0_0 2.911668 1_665
Co1_6 Y0_1 2.911668 1_665
Co1_6 Y0_6 2.911668 1_555
Co1_6 Y0_7 2.911668 1_555
Co1_7 Y0_0 2.911668 1_666
Co1_7 Y0_1 2.911668 1_665
Co1_7 Y0_6 2.911668 1_556
Co1_7 Y0_7 2.911668 1_555
Co2_0 Y0_1 2.911668 1_555
Co2_0 Y0_2 2.911668 1_555
Co2_0 Y0_3 2.911668 1_555
Co2_0 Y0_0 2.911668 1_555
Co2_1 Y0_2 2.911668 1_556
Co2_1 Y0_0 2.911668 1_556
Co2_1 Y0_1 2.911668 1_555
Co2_1 Y0_3 2.911668 1_555
Co2_2 Y0_2 2.911668 1_555
Co2_2 Y0_3 2.911668 1_555
Co2_2 Y0_0 2.911668 1_565
Co2_2 Y0_1 2.911668 1_565
Co2_3 Y0_0 2.911668 1_566
Co2_3 Y0_2 2.911668 1_556
Co2_3 Y0_1 2.911668 1_565
Co2_3 Y0_3 2.911668 1_555
Co2_4 Y0_6 2.911668 1_555
Co2_4 Y0_7 2.911668 1_555
Co2_4 Y0_4 2.911668 1_555
Co2_4 Y0_5 2.911668 1_555
Co2_5 Y0_6 2.911668 1_556
Co2_5 Y0_7 2.911668 1_555
Co2_5 Y0_4 2.911668 1_556
Co2_5 Y0_5 2.911668 1_555
Co2_6 Y0_5 2.911668 1_565
Co2_6 Y0_4 2.911668 1_565
Co2_6 Y0_7 2.911668 1_555
Co2_6 Y0_6 2.911668 1_555
Co2_7 Y0_4 2.911668 1_566
Co2_7 Y0_6 2.911668 1_556
Co2_7 Y0_5 2.911668 1_565
Co2_7 Y0_7 2.911668 1_555
B0_0 Co2_1 2.063021 1_554
B0_0 Co2_0 2.063021 1_555
B0_0 Co1_1 2.063025 1_554
B0_0 Co1_0 2.063025 1_555
B0_0 Co0_3 2.063089 1_554
B0_0 Co0_2 2.063089 1_555
B0_0 Y0_0 2.905680 1_555
B0_0 Y0_2 2.905756 1_555
B0_0 Y0_6 2.905759 1_555
B0_1 Co2_0 2.063021 1_555
B0_1 Co2_1 2.063021 1_555
B0_1 Co1_0 2.063025 1_555
B0_1 Co1_1 2.063025 1_555
B0_1 Co0_2 2.063089 1_555
B0_1 Co0_3 2.063089 1_555
B0_1 Y0_1 2.905680 1_555
B0_1 Y0_3 2.905756 1_555
B0_1 Y0_7 2.905759 1_555
B0_2 Co2_3 2.063021 1_554
B0_2 Co2_2 2.063021 1_555
B0_2 Co1_3 2.063025 1_554
B0_2 Co1_2 2.063025 1_555
B0_2 Co0_1 2.063089 1_564
B0_2 Co0_0 2.063089 1_565
B0_2 Y0_2 2.905680 1_555
B0_2 Y0_0 2.905756 1_565
B0_2 Y0_4 2.905759 1_565
B0_3 Co2_2 2.063021 1_555
B0_3 Co2_3 2.063021 1_555
B0_3 Co1_2 2.063025 1_555
B0_3 Co1_3 2.063025 1_555
B0_3 Co0_0 2.063089 1_565
B0_3 Co0_1 2.063089 1_565
B0_3 Y0_3 2.905680 1_555
B0_3 Y0_1 2.905756 1_565
B0_3 Y0_5 2.905759 1_565
B0_4 Co2_5 2.063021 1_554
B0_4 Co2_4 2.063021 1_555
B0_4 Co1_5 2.063025 1_554
B0_4 Co1_4 2.063025 1_555
B0_4 Co0_7 2.063089 1_554
B0_4 Co0_6 2.063089 1_555
B0_4 Y0_4 2.905680 1_555
B0_4 Y0_6 2.905756 1_555
B0_4 Y0_2 2.905759 1_655
B0_5 Co2_4 2.063021 1_555
B0_5 Co2_5 2.063021 1_555
B0_5 Co1_4 2.063025 1_555
B0_5 Co1_5 2.063025 1_555
B0_5 Co0_6 2.063089 1_555
B0_5 Co0_7 2.063089 1_555
B0_5 Y0_5 2.905680 1_555
B0_5 Y0_7 2.905756 1_555
B0_5 Y0_3 2.905759 1_655
B0_6 Co2_7 2.063021 1_554
B0_6 Co2_6 2.063021 1_555
B0_6 Co1_7 2.063025 1_554
B0_6 Co1_6 2.063025 1_555
B0_6 Co0_5 2.063089 1_564
B0_6 Co0_4 2.063089 1_565
B0_6 Y0_6 2.905680 1_555
B0_6 Y0_4 2.905756 1_565
B0_6 Y0_0 2.905759 1_665
B0_7 Co2_6 2.063021 1_555
B0_7 Co2_7 2.063021 1_555
B0_7 Co1_6 2.063025 1_555
B0_7 Co1_7 2.063025 1_555
B0_7 Co0_4 2.063089 1_565
B0_7 Co0_5 2.063089 1_565
B0_7 Y0_7 2.905680 1_555
B0_7 Y0_5 2.905756 1_565
B0_7 Y0_1 2.905759 1_665
B1_0 Co2_5 2.063021 1_554
B1_0 Co2_4 2.063021 1_555
B1_0 Co1_1 2.063025 1_554
B1_0 Co1_0 2.063025 1_555
B1_0 Co0_1 2.063089 1_554
B1_0 Co0_0 2.063089 1_555
B1_0 Y0_6 2.905680 1_555
B1_0 Y0_4 2.905756 1_555
B1_0 Y0_0 2.905759 1_555
B1_1 Co2_4 2.063021 1_555
B1_1 Co2_5 2.063021 1_555
B1_1 Co1_0 2.063025 1_555
B1_1 Co1_1 2.063025 1_555
B1_1 Co0_0 2.063089 1_555
B1_1 Co0_1 2.063089 1_555
B1_1 Y0_7 2.905680 1_555
B1_1 Y0_5 2.905756 1_555
B1_1 Y0_1 2.905759 1_555
B1_2 Co2_7 2.063021 1_554
B1_2 Co2_6 2.063021 1_555
B1_2 Co1_3 2.063025 1_554
B1_2 Co1_2 2.063025 1_555
B1_2 Co0_3 2.063089 1_554
B1_2 Co0_2 2.063089 1_555
B1_2 Y0_4 2.905680 1_565
B1_2 Y0_6 2.905756 1_555
B1_2 Y0_2 2.905759 1_555
B1_3 Co2_6 2.063021 1_555
B1_3 Co2_7 2.063021 1_555
B1_3 Co1_2 2.063025 1_555
B1_3 Co1_3 2.063025 1_555
B1_3 Co0_2 2.063089 1_555
B1_3 Co0_3 2.063089 1_555
B1_3 Y0_5 2.905680 1_565
B1_3 Y0_7 2.905756 1_555
B1_3 Y0_3 2.905759 1_555
B1_4 Co2_1 2.063021 1_654
B1_4 Co2_0 2.063021 1_655
B1_4 Co1_5 2.063025 1_554
B1_4 Co1_4 2.063025 1_555
B1_4 Co0_5 2.063089 1_554
B1_4 Co0_4 2.063089 1_555
B1_4 Y0_2 2.905680 1_655
B1_4 Y0_0 2.905756 1_655
B1_4 Y0_4 2.905759 1_555
B1_5 Co2_0 2.063021 1_655
B1_5 Co2_1 2.063021 1_655
B1_5 Co1_4 2.063025 1_555
B1_5 Co1_5 2.063025 1_555
B1_5 Co0_4 2.063089 1_555
B1_5 Co0_5 2.063089 1_555
B1_5 Y0_3 2.905680 1_655
B1_5 Y0_1 2.905756 1_655
B1_5 Y0_5 2.905759 1_555
B1_6 Co2_3 2.063021 1_654
B1_6 Co2_2 2.063021 1_655
B1_6 Co1_7 2.063025 1_554
B1_6 Co1_6 2.063025 1_555
B1_6 Co0_7 2.063089 1_554
B1_6 Co0_6 2.063089 1_555
B1_6 Y0_0 2.905680 1_665
B1_6 Y0_2 2.905756 1_655
B1_6 Y0_6 2.905759 1_555
B1_7 Co2_2 2.063021 1_655
B1_7 Co2_3 2.063021 1_655
B1_7 Co1_6 2.063025 1_555
B1_7 Co1_7 2.063025 1_555
B1_7 Co0_6 2.063089 1_555
B1_7 Co0_7 2.063089 1_555
B1_7 Y0_1 2.905680 1_665
B1_7 Y0_3 2.905756 1_655
B1_7 Y0_7 2.905759 1_555
