# generated using pymatgen
data_Mg3Hg
_symmetry_space_group_name_H-M   'P 1'
_cell_length_a   9.96089010
_cell_length_b   9.96089055
_cell_length_c   9.96088894
_cell_angle_alpha   48.95669917
_cell_angle_beta   48.95669533
_cell_angle_gamma   48.95670429
_symmetry_Int_Tables_number   1
_chemical_formula_structural   Mg3Hg
_chemical_formula_sum   'Mg18 Hg6'
_cell_volume   516.14276846
_cell_formula_units_Z   6
loop_
 _symmetry_equiv_pos_site_id
 _symmetry_equiv_pos_as_xyz
  1  'x, y, z'
loop_
 _atom_site_type_symbol
 _atom_site_label
 _atom_site_symmetry_multiplicity
 _atom_site_fract_x
 _atom_site_fract_y
 _atom_site_fract_z
 _atom_site_occupancy
  Mg  Mg0  1  0.08357310  0.32860859  0.75622847  1
  Mg  Mg1  1  0.86362266  0.86362266  0.86362266  1
  Mg  Mg2  1  0.03261722  0.76974542  0.52340839  1
  Mg  Mg3  1  0.44397313  0.44397313  0.44397313  1
  Mg  Mg4  1  0.32860859  0.75622847  0.08357310  1
  Mg  Mg5  1  0.24377153  0.67139141  0.91642690  1
  Mg  Mg6  1  0.23025458  0.96738278  0.47659161  1
  Mg  Mg7  1  0.52340839  0.03261722  0.76974542  1
  Mg  Mg8  1  0.76974542  0.52340839  0.03261722  1
  Mg  Mg9  1  0.67863188  0.67863188  0.67863188  1
  Mg  Mg10  1  0.75622847  0.08357310  0.32860859  1
  Mg  Mg11  1  0.67139141  0.91642690  0.24377153  1
  Mg  Mg12  1  0.13637734  0.13637734  0.13637734  1
  Mg  Mg13  1  0.96738278  0.47659161  0.23025458  1
  Mg  Mg14  1  0.55602687  0.55602687  0.55602687  1
  Mg  Mg15  1  0.47659161  0.23025458  0.96738278  1
  Mg  Mg16  1  0.91642690  0.24377153  0.67139141  1
  Mg  Mg17  1  0.32136812  0.32136812  0.32136812  1
  Hg  Hg0  1  0.81996939  0.18003061  0.50000000  1
  Hg  Hg1  1  0.32954886  1.00000000  0.67045114  1
  Hg  Hg2  1  0.67045114  0.32954886  1.00000000  1
  Hg  Hg3  1  0.00000000  0.67045114  0.32954886  1
  Hg  Hg4  1  0.18003061  0.50000000  0.81996939  1
  Hg  Hg5  1  0.50000000  0.81996939  0.18003061  1
loop_
_geom_bond_atom_site_label_1
_geom_bond_atom_site_label_2
_geom_bond_distance
_geom_bond_site_symmetry_2
Mg0 Mg3 3.153132 1_555
Mg2 Mg3 3.098071 1_555
Mg3 Mg8 3.098071 1_555
Mg3 Mg7 3.098071 1_555
Mg3 Mg4 3.153132 1_555
Mg10 Mg3 3.153133 1_555
Mg11 Mg14 3.153132 1_555
Mg13 Mg14 3.098071 1_555
Mg14 Mg3 2.940338 1_555
Mg14 Mg15 3.098071 1_555
Mg14 Mg6 3.098071 1_555
Mg14 Mg5 3.153132 1_555
Mg14 Mg16 3.153133 1_555
Mg14 Mg9 3.217207 1_555
Mg17 Mg3 3.217207 1_555
Hg0 Mg7 2.862393 1_555
Hg0 Mg13 2.862393 1_555
Hg0 Mg12 2.918614 1_655
Hg0 Mg1 2.918614 1_545
Hg0 Mg16 2.935911 1_555
Hg0 Mg10 2.935911 1_555
Hg0 Mg3 3.022813 1_555
Hg0 Mg14 3.022813 1_555
Hg0 Mg6 3.044979 1_645
Hg0 Mg2 3.044979 1_645
Hg1 Mg17 2.785032 1_565
Hg1 Mg9 2.785032 1_555
Hg1 Mg5 2.799763 1_555
Hg1 Mg0 2.799763 1_565
Hg1 Mg6 2.926893 1_555
Hg1 Mg7 2.926893 1_565
Hg1 Mg4 3.112380 1_556
Hg1 Mg16 3.112380 1_465
Hg2 Mg17 2.785032 1_556
Hg2 Mg9 2.785032 1_555
Hg2 Mg16 2.799763 1_555
Hg2 Mg10 2.799763 1_556
Hg2 Mg15 2.926893 1_555
Hg2 Mg8 2.926893 1_556
Hg2 Mg0 3.112380 1_655
Hg2 Mg11 3.112380 1_546
Hg3 Mg9 2.785032 1_455
Hg3 Mg17 2.785032 1_555
Hg3 Mg4 2.799763 1_555
Hg3 Mg11 2.799763 1_455
Hg3 Mg2 2.926893 1_555
Hg3 Mg13 2.926893 1_455
Hg3 Mg5 3.112380 1_554
Hg3 Mg10 3.112380 1_465
Hg4 Mg2 2.862393 1_555
Hg4 Mg15 2.862394 1_555
Hg4 Mg12 2.918614 1_556
Hg4 Mg1 2.918614 1_455
Hg4 Mg5 2.935911 1_555
Hg4 Mg0 2.935911 1_555
Hg4 Mg3 3.022812 1_555
Hg4 Mg14 3.022813 1_555
Hg4 Mg13 3.044978 1_456
Hg4 Mg8 3.044979 1_456
Hg5 Mg6 2.862393 1_555
Hg5 Mg8 2.862394 1_555
Hg5 Mg1 2.918614 1_554
Hg5 Mg12 2.918614 1_565
Hg5 Mg4 2.935911 1_555
Hg5 Mg11 2.935911 1_555
Hg5 Mg14 3.022812 1_555
Hg5 Mg3 3.022813 1_555
Hg5 Mg7 3.044978 1_564
Hg5 Mg15 3.044979 1_564
