# generated using pymatgen
data_KTa(AgSe2)2
_symmetry_space_group_name_H-M   'P 1'
_cell_length_a   10.42076555
_cell_length_b   10.42076555
_cell_length_c   8.37579900
_cell_angle_alpha   90.00000000
_cell_angle_beta   90.00000000
_cell_angle_gamma   145.59204863
_symmetry_Int_Tables_number   1
_chemical_formula_structural   KTa(AgSe2)2
_chemical_formula_sum   'K2 Ta2 Ag4 Se8'
_cell_volume   513.96860338
_cell_formula_units_Z   2
loop_
 _symmetry_equiv_pos_site_id
 _symmetry_equiv_pos_as_xyz
  1  'x, y, z'
loop_
 _atom_site_type_symbol
 _atom_site_label
 _atom_site_symmetry_multiplicity
 _atom_site_fract_x
 _atom_site_fract_y
 _atom_site_fract_z
 _atom_site_occupancy
  K  K0  1  0.45354100  0.82195900  0.75000000  1
  K  K1  1  0.82195900  0.45354100  0.25000000  1
  Ta  Ta0  1  0.52260100  0.29715400  0.75000000  1
  Ta  Ta1  1  0.29715400  0.52260100  0.25000000  1
  Ag  Ag0  1  0.37357100  0.37357100  0.00000000  1
  Ag  Ag1  1  0.37357100  0.37357100  0.50000000  1
  Ag  Ag2  1  0.02463800  0.79551600  0.75000000  1
  Ag  Ag3  1  0.79551600  0.02463800  0.25000000  1
  Se  Se0  1  0.65082400  0.63091200  0.75000000  1
  Se  Se1  1  0.63091200  0.65082400  0.25000000  1
  Se  Se2  1  0.30665800  0.06793300  0.99356100  1
  Se  Se3  1  0.06793300  0.30665800  0.49356100  1
  Se  Se4  1  0.41057800  0.83937200  0.25000000  1
  Se  Se5  1  0.06793300  0.30665800  0.00643900  1
  Se  Se6  1  0.30665800  0.06793300  0.50643900  1
  Se  Se7  1  0.83937200  0.41057800  0.75000000  1
loop_
_geom_bond_atom_site_label_1
_geom_bond_atom_site_label_2
_geom_bond_distance
_geom_bond_site_symmetry_2
K0 Se7 3.618792 1_565
K0 Se5 3.740408 1_556
K0 Se3 3.740408 1_555
K0 Se7 3.750540 1_455
K0 Se0 3.865686 1_555
K1 Se4 3.618792 1_655
K1 Se6 3.740408 1_555
K1 Se2 3.740408 1_554
K1 Se4 3.750540 1_545
K1 Se1 3.865686 1_555
Ag0 Se5 2.639827 1_555
Ag0 Se2 2.639827 1_554
Ag0 Se0 2.671873 1_554
Ag0 Se1 2.671873 1_555
Ag1 Se3 2.639827 1_555
Ag1 Se6 2.639827 1_555
Ag1 Se0 2.671873 1_555
Ag1 Se1 2.671873 1_555
Ag2 Se7 2.653195 1_455
Ag2 Se2 2.662911 1_565
Ag2 Se6 2.662911 1_565
Ag2 Se0 2.662918 1_455
Ag3 Se4 2.653195 1_545
Ag3 Se3 2.662911 1_655
Ag3 Se5 2.662911 1_655
Ag3 Se1 2.662918 1_545
Se0 Ta0 2.492721 1_555
Se1 Ta1 2.492721 1_555
Se2 Ta0 2.462063 1_555
Se3 Ta1 2.462063 1_555
Se4 Ta1 2.419835 1_555
Se5 Ta1 2.462063 1_555
Se6 Ta0 2.462063 1_555
Se7 Ta0 2.419835 1_555
