# generated using pymatgen
data_Yb2PrDyS6
_symmetry_space_group_name_H-M   'P 1'
_cell_length_a   4.13495100
_cell_length_b   10.95720100
_cell_length_c   11.48754568
_cell_angle_alpha   75.15177442
_cell_angle_beta   90.00000000
_cell_angle_gamma   90.00000000
_symmetry_Int_Tables_number   1
_chemical_formula_structural   Yb2PrDyS6
_chemical_formula_sum   'Yb4 Pr2 Dy2 S12'
_cell_volume   503.09227629
_cell_formula_units_Z   2
loop_
 _symmetry_equiv_pos_site_id
 _symmetry_equiv_pos_as_xyz
  1  'x, y, z'
loop_
 _atom_site_type_symbol
 _atom_site_label
 _atom_site_symmetry_multiplicity
 _atom_site_fract_x
 _atom_site_fract_y
 _atom_site_fract_z
 _atom_site_occupancy
  Yb  Yb0  1  0.25000000  0.32677700  0.58554100  1
  Yb  Yb1  1  0.25000000  0.05014800  0.35019900  1
  Yb  Yb2  1  0.75000000  0.94985200  0.64980100  1
  Yb  Yb3  1  0.75000000  0.67322300  0.41445900  1
  Pr  Pr0  1  0.25000000  0.47227100  0.18006100  1
  Pr  Pr1  1  0.75000000  0.52772900  0.81993900  1
  Dy  Dy0  1  0.75000000  0.16927900  0.96632100  1
  Dy  Dy1  1  0.25000000  0.83072100  0.03367900  1
  S  S0  1  0.25000000  0.37129200  0.96644500  1
  S  S1  1  0.75000000  0.40201900  0.38115200  1
  S  S2  1  0.75000000  0.62870800  0.03355500  1
  S  S3  1  0.25000000  0.59798100  0.61884800  1
  S  S4  1  0.75000000  0.90079000  0.43108500  1
  S  S5  1  0.75000000  0.30277200  0.73960000  1
  S  S6  1  0.25000000  0.05182100  0.10248100  1
  S  S7  1  0.75000000  0.94817900  0.89751900  1
  S  S8  1  0.25000000  0.69722800  0.26040000  1
  S  S9  1  0.75000000  0.27530900  0.26938600  1
  S  S10  1  0.25000000  0.09921000  0.56891500  1
  S  S11  1  0.25000000  0.72469100  0.73061400  1
loop_
_geom_bond_atom_site_label_1
_geom_bond_atom_site_label_2
_geom_bond_distance
_geom_bond_site_symmetry_2
Pr0 S8 2.844885 1_555
Pr0 S2 2.926870 1_455
Pr0 S2 2.926870 1_555
Pr0 S0 2.938967 1_554
Pr0 S9 2.974898 1_455
Pr0 S9 2.974898 1_555
Pr0 S1 3.048267 1_555
Pr0 S1 3.048267 1_455
Pr1 S5 2.844885 1_555
Pr1 S0 2.926870 1_555
Pr1 S0 2.926870 1_655
Pr1 S2 2.938967 1_556
Pr1 S11 2.974898 1_655
Pr1 S11 2.974898 1_555
Pr1 S3 3.048267 1_555
Pr1 S3 3.048267 1_655
Dy0 S5 2.640131 1_555
Dy0 S6 2.710288 1_556
Dy0 S6 2.710288 1_656
Dy0 S7 2.734082 1_545
Dy0 S0 3.029132 1_555
Dy0 S0 3.029132 1_655
Dy1 S8 2.640131 1_555
Dy1 S7 2.710288 1_454
Dy1 S7 2.710288 1_554
Dy1 S6 2.734082 1_565
Dy1 S2 3.029132 1_455
Dy1 S2 3.029132 1_555
S1 S9 2.118883 1_555
S1 Yb0 3.078121 1_555
S1 Yb0 3.078121 1_655
S1 Yb3 3.091885 1_555
S3 Yb3 3.078121 1_555
S3 Yb3 3.078121 1_455
S3 Yb0 3.091885 1_555
S4 Yb3 2.549135 1_555
S4 Yb1 2.652688 1_665
S4 Yb1 2.652688 1_565
S4 Yb2 2.700732 1_555
S5 Yb0 2.690188 1_555
S5 Yb0 2.690188 1_655
S6 Yb1 2.841030 1_555
S7 Yb2 2.841030 1_555
S8 Yb3 2.690188 1_555
S8 Yb3 2.690188 1_455
S9 Yb1 3.170044 1_655
S9 Yb1 3.170044 1_555
S10 Yb0 2.549135 1_555
S10 Yb2 2.652688 1_545
S10 Yb2 2.652688 1_445
S10 Yb1 2.700732 1_555
S11 S3 2.118883 1_555
S11 Yb2 3.170044 1_555
S11 Yb2 3.170044 1_455
