# generated using pymatgen
data_Ce13Zn58
_symmetry_space_group_name_H-M   'P 1'
_cell_length_a   14.56028337
_cell_length_b   14.56028348
_cell_length_c   14.00747863
_cell_angle_alpha   90.00000000
_cell_angle_beta   90.00000000
_cell_angle_gamma   119.99999972
_symmetry_Int_Tables_number   1
_chemical_formula_structural   Ce13Zn58
_chemical_formula_sum   'Ce26 Zn116'
_cell_volume   2571.75894699
_cell_formula_units_Z   2
loop_
 _symmetry_equiv_pos_site_id
 _symmetry_equiv_pos_as_xyz
  1  'x, y, z'
loop_
 _atom_site_type_symbol
 _atom_site_label
 _atom_site_symmetry_multiplicity
 _atom_site_fract_x
 _atom_site_fract_y
 _atom_site_fract_z
 _atom_site_occupancy
  Ce  Ce0  1  0.79489066  0.58978133  0.94865034  1
  Ce  Ce1  1  0.41021867  0.20510934  0.55134966  1
  Ce  Ce2  1  0.08258815  0.54129408  0.75000000  1
  Ce  Ce3  1  0.20510934  0.79489066  0.44865034  1
  Ce  Ce4  1  0.20510934  0.41021867  0.44865034  1
  Ce  Ce5  1  0.87257003  0.12742997  0.25000000  1
  Ce  Ce6  1  0.20510934  0.79489066  0.05134966  1
  Ce  Ce7  1  0.54129408  0.45870592  0.25000000  1
  Ce  Ce8  1  0.12742997  0.87257003  0.75000000  1
  Ce  Ce9  1  0.12742997  0.25485994  0.75000000  1
  Ce  Ce10  1  0.41021867  0.20510934  0.94865034  1
  Ce  Ce11  1  0.79489066  0.58978133  0.55134966  1
  Ce  Ce12  1  0.87257003  0.74514006  0.25000000  1
  Ce  Ce13  1  0.79489066  0.20510934  0.55134966  1
  Ce  Ce14  1  0.58978133  0.79489066  0.05134966  1
  Ce  Ce15  1  0.91741185  0.45870592  0.25000000  1
  Ce  Ce16  1  0.25485994  0.12742997  0.25000000  1
  Ce  Ce17  1  0.00000000  0.00000000  0.50000000  1
  Ce  Ce18  1  0.45870592  0.91741185  0.75000000  1
  Ce  Ce19  1  0.20510934  0.41021867  0.05134966  1
  Ce  Ce20  1  0.74514006  0.87257003  0.75000000  1
  Ce  Ce21  1  0.54129408  0.08258815  0.25000000  1
  Ce  Ce22  1  0.45870592  0.54129408  0.75000000  1
  Ce  Ce23  1  0.00000000  0.00000000  0.00000000  1
  Ce  Ce24  1  0.58978133  0.79489066  0.44865034  1
  Ce  Ce25  1  0.79489066  0.20510934  0.94865034  1
  Zn  Zn0  1  0.47406084  0.23703042  0.15785437  1
  Zn  Zn1  1  0.96499750  0.63441982  0.39738714  1
  Zn  Zn2  1  0.20148178  0.00000000  0.00000000  1
  Zn  Zn3  1  0.73085821  0.46171642  0.75000000  1
  Zn  Zn4  1  0.33333300  0.66666700  0.09734421  1
  Zn  Zn5  1  0.90532753  0.09467247  0.84373860  1
  Zn  Zn6  1  0.71885460  0.63446916  0.75000000  1
  Zn  Zn7  1  0.03500250  0.36558018  0.89738714  1
  Zn  Zn8  1  0.76296958  0.23703042  0.34214563  1
  Zn  Zn9  1  0.36553084  0.28114540  0.75000000  1
  Zn  Zn10  1  0.12872674  0.56436337  0.14283429  1
  Zn  Zn11  1  0.90532753  0.81065506  0.84373860  1
  Zn  Zn12  1  0.66942232  0.63441982  0.39738714  1
  Zn  Zn13  1  0.96499750  0.33057768  0.39738714  1
  Zn  Zn14  1  0.03500250  0.66942232  0.60261286  1
  Zn  Zn15  1  0.66666700  0.33333300  0.59734421  1
  Zn  Zn16  1  0.00000000  0.50000000  0.50000000  1
  Zn  Zn17  1  0.63441982  0.66942232  0.60261286  1
  Zn  Zn18  1  0.00000000  0.79851822  0.50000000  1
  Zn  Zn19  1  0.39832092  0.79664184  0.94893434  1
  Zn  Zn20  1  0.56436337  0.43563663  0.85716571  1
  Zn  Zn21  1  0.91561455  0.63446916  0.75000000  1
  Zn  Zn22  1  0.09467247  0.18934494  0.34373860  1
  Zn  Zn23  1  0.20148178  0.20148178  0.00000000  1
  Zn  Zn24  1  0.63446916  0.71885460  0.25000000  1
  Zn  Zn25  1  0.26914179  0.73085821  0.25000000  1
  Zn  Zn26  1  0.00000000  0.79851822  0.00000000  1
  Zn  Zn27  1  1.00000000  0.20148178  0.00000000  1
  Zn  Zn28  1  1.00000000  0.20148178  0.50000000  1
  Zn  Zn29  1  0.63441982  0.96499750  0.60261286  1
  Zn  Zn30  1  0.79851822  0.79851822  0.00000000  1
  Zn  Zn31  1  0.66942232  0.03500250  0.10261286  1
  Zn  Zn32  1  0.50000000  0.00000000  0.50000000  1
  Zn  Zn33  1  0.23703042  0.47406084  0.65785437  1
  Zn  Zn34  1  0.33333300  0.66666700  0.75000000  1
  Zn  Zn35  1  0.09467247  0.18934494  0.15626140  1
  Zn  Zn36  1  0.12872674  0.56436337  0.35716571  1
  Zn  Zn37  1  0.23703042  0.47406084  0.84214563  1
  Zn  Zn38  1  0.39832092  0.79664184  0.55106566  1
  Zn  Zn39  1  0.79851822  0.79851822  0.50000000  1
  Zn  Zn40  1  0.46171642  0.73085821  0.25000000  1
  Zn  Zn41  1  0.36558018  0.03500250  0.39738714  1
  Zn  Zn42  1  0.43563663  0.87127326  0.35716571  1
  Zn  Zn43  1  0.71885460  0.08438545  0.75000000  1
  Zn  Zn44  1  0.09467247  0.90532753  0.15626140  1
  Zn  Zn45  1  0.09467247  0.90532753  0.34373860  1
  Zn  Zn46  1  0.63441982  0.66942232  0.89738714  1
  Zn  Zn47  1  0.20148178  0.20148178  0.50000000  1
  Zn  Zn48  1  0.50000000  0.50000000  0.00000000  1
  Zn  Zn49  1  0.43563663  0.56436337  0.35716571  1
  Zn  Zn50  1  0.66666700  0.33333300  0.90265579  1
  Zn  Zn51  1  0.60167908  0.39832092  0.05106566  1
  Zn  Zn52  1  0.90532753  0.81065506  0.65626140  1
  Zn  Zn53  1  0.03500250  0.36558018  0.60261286  1
  Zn  Zn54  1  0.73085821  0.26914179  0.75000000  1
  Zn  Zn55  1  0.90532753  0.09467247  0.65626140  1
  Zn  Zn56  1  0.96499750  0.63441982  0.10261286  1
  Zn  Zn57  1  0.08438545  0.36553084  0.25000000  1
  Zn  Zn58  1  0.60167908  0.20335816  0.44893434  1
  Zn  Zn59  1  0.20335816  0.60167908  0.94893434  1
  Zn  Zn60  1  0.76296958  0.52593916  0.15785437  1
  Zn  Zn61  1  0.56436337  0.43563663  0.64283429  1
  Zn  Zn62  1  0.79851822  0.00000000  0.50000000  1
  Zn  Zn63  1  0.96499750  0.33057768  0.10261286  1
  Zn  Zn64  1  0.50000000  0.00000000  0.00000000  1
  Zn  Zn65  1  0.36558018  0.33057768  0.39738714  1
  Zn  Zn66  1  0.66942232  0.63441982  0.10261286  1
  Zn  Zn67  1  0.33333300  0.66666700  0.40265579  1
  Zn  Zn68  1  0.00000000  0.00000000  0.25000000  1
  Zn  Zn69  1  0.76296958  0.52593916  0.34214563  1
  Zn  Zn70  1  0.81065506  0.90532753  0.15626140  1
  Zn  Zn71  1  0.91561455  0.28114540  0.75000000  1
  Zn  Zn72  1  0.56436337  0.12872674  0.64283429  1
  Zn  Zn73  1  0.33057768  0.96499750  0.89738714  1
  Zn  Zn74  1  0.43563663  0.56436337  0.14283429  1
  Zn  Zn75  1  0.03500250  0.66942232  0.89738714  1
  Zn  Zn76  1  0.66942232  0.03500250  0.39738714  1
  Zn  Zn77  1  0.60167908  0.39832092  0.44893434  1
  Zn  Zn78  1  0.79664184  0.39832092  0.44893434  1
  Zn  Zn79  1  0.87127326  0.43563663  0.85716571  1
  Zn  Zn80  1  0.36553084  0.08438545  0.75000000  1
  Zn  Zn81  1  0.33057768  0.36558018  0.89738714  1
  Zn  Zn82  1  0.23703042  0.76296958  0.65785437  1
  Zn  Zn83  1  0.08438545  0.71885460  0.25000000  1
  Zn  Zn84  1  0.52593916  0.76296958  0.84214563  1
  Zn  Zn85  1  0.18934494  0.09467247  0.84373860  1
  Zn  Zn86  1  0.81065506  0.90532753  0.34373860  1
  Zn  Zn87  1  0.66666700  0.33333300  0.25000000  1
  Zn  Zn88  1  0.39832092  0.60167908  0.94893434  1
  Zn  Zn89  1  0.00000000  0.00000000  0.75000000  1
  Zn  Zn90  1  0.20335816  0.60167908  0.55106566  1
  Zn  Zn91  1  0.39832092  0.60167908  0.55106566  1
  Zn  Zn92  1  0.18934494  0.09467247  0.65626140  1
  Zn  Zn93  1  0.52593916  0.76296958  0.65785437  1
  Zn  Zn94  1  0.76296958  0.23703042  0.15785437  1
  Zn  Zn95  1  0.50000000  0.50000000  0.50000000  1
  Zn  Zn96  1  0.79664184  0.39832092  0.05106566  1
  Zn  Zn97  1  0.23703042  0.76296958  0.84214563  1
  Zn  Zn98  1  0.63446916  0.91561455  0.25000000  1
  Zn  Zn99  1  0.33057768  0.36558018  0.60261286  1
  Zn  Zn100  1  0.60167908  0.20335816  0.05106566  1
  Zn  Zn101  1  0.87127326  0.43563663  0.64283429  1
  Zn  Zn102  1  0.20148178  0.00000000  0.50000000  1
  Zn  Zn103  1  0.36558018  0.03500250  0.10261286  1
  Zn  Zn104  1  0.33057768  0.96499750  0.60261286  1
  Zn  Zn105  1  0.56436337  0.12872674  0.85716571  1
  Zn  Zn106  1  0.28114540  0.91561455  0.25000000  1
  Zn  Zn107  1  0.28114540  0.36553084  0.25000000  1
  Zn  Zn108  1  0.00000000  0.50000000  0.00000000  1
  Zn  Zn109  1  0.47406084  0.23703042  0.34214563  1
  Zn  Zn110  1  0.63441982  0.96499750  0.89738714  1
  Zn  Zn111  1  0.79851822  0.00000000  0.00000000  1
  Zn  Zn112  1  0.36558018  0.33057768  0.10261286  1
  Zn  Zn113  1  0.26914179  0.53828358  0.25000000  1
  Zn  Zn114  1  0.43563663  0.87127326  0.14283429  1
  Zn  Zn115  1  0.53828358  0.26914179  0.75000000  1
loop_
_geom_bond_atom_site_label_1
_geom_bond_atom_site_label_2
_geom_bond_distance
_geom_bond_site_symmetry_2
Ce0 Zn60 3.038985 1_556
Ce0 Zn30 3.097866 1_556
Ce0 Zn26 3.097866 1_656
Ce0 Zn66 3.098101 1_556
Ce0 Zn56 3.098102 1_556
Ce0 Zn51 3.146605 1_556
Ce0 Zn96 3.146605 1_556
Ce0 Zn11 3.149046 1_555
Ce0 Zn46 3.166846 1_555
Ce0 Zn75 3.166846 1_655
Ce0 Zn6 3.179972 1_555
Ce0 Zn21 3.179972 1_555
Ce0 Zn3 3.217224 1_555
Ce0 Zn20 3.226831 1_555
Ce0 Zn79 3.226831 1_555
Ce0 Zn50 3.297260 1_555
Ce1 Zn109 3.038985 1_555
Ce1 Zn47 3.097866 1_555
Ce1 Zn102 3.097866 1_555
Ce1 Zn65 3.098101 1_555
Ce1 Zn41 3.098102 1_555
Ce1 Zn77 3.146605 1_555
Ce1 Zn58 3.146605 1_555
Ce1 Zn92 3.149046 1_555
Ce1 Zn99 3.166846 1_555
Ce1 Zn104 3.166846 1_545
Ce1 Zn9 3.179972 1_555
Ce1 Zn80 3.179972 1_555
Ce1 Zn115 3.217224 1_555
Ce1 Zn61 3.226831 1_555
Ce1 Zn72 3.226831 1_555
Ce1 Zn15 3.297260 1_555
Ce2 Zn101 3.058335 1_455
Ce2 Zn79 3.058335 1_455
Ce2 Zn14 3.084688 1_555
Ce2 Zn75 3.084688 1_555
Ce2 Zn53 3.084688 1_555
Ce2 Zn7 3.084688 1_555
Ce2 Zn82 3.143629 1_555
Ce2 Zn97 3.143629 1_555
Ce2 Zn37 3.143629 1_555
Ce2 Zn33 3.143629 1_555
Ce2 Zn34 3.161786 1_555
Ce2 Zn59 3.175541 1_555
Ce2 Zn90 3.175541 1_555
Ce2 Zn21 3.324070 1_455
Ce2 Zn71 3.324070 1_455
Ce3 Zn82 3.038985 1_555
Ce3 Zn18 3.097866 1_555
Ce3 Zn102 3.097866 1_565
Ce3 Zn14 3.098102 1_555
Ce3 Zn104 3.098102 1_555
Ce3 Zn38 3.146605 1_555
Ce3 Zn90 3.146605 1_555
Ce3 Zn45 3.149046 1_555
Ce3 Zn1 3.166846 1_455
Ce3 Zn41 3.166846 1_565
Ce3 Zn83 3.179972 1_555
Ce3 Zn106 3.179972 1_555
Ce3 Zn25 3.217224 1_555
Ce3 Zn42 3.226831 1_555
Ce3 Zn36 3.226831 1_555
Ce3 Zn67 3.297248 1_555
Ce4 Zn33 3.038985 1_555
Ce4 Zn47 3.097866 1_555
Ce4 Zn28 3.097866 1_455
Ce4 Zn99 3.098101 1_555
Ce4 Zn53 3.098102 1_555
Ce4 Zn91 3.146605 1_555
Ce4 Zn90 3.146605 1_555
Ce4 Zn22 3.149046 1_555
Ce4 Zn65 3.166846 1_555
Ce4 Zn13 3.166846 1_455
Ce4 Zn107 3.179972 1_555
Ce4 Zn57 3.179972 1_555
Ce4 Zn113 3.217224 1_555
Ce4 Zn49 3.226831 1_555
Ce4 Zn36 3.226831 1_555
Ce4 Zn67 3.297260 1_555
Ce5 Zn94 3.050548 1_555
Ce5 Zn8 3.050548 1_555
Ce5 Zn22 3.174805 1_655
Ce5 Zn35 3.174805 1_655
Ce5 Zn86 3.174805 1_545
Ce5 Zn70 3.174805 1_545
Ce5 Zn68 3.213676 1_655
Ce5 Zn98 3.292182 1_545
Ce5 Zn57 3.292182 1_655
Ce5 Zn31 3.292691 1_555
Ce5 Zn76 3.292691 1_555
Ce5 Zn13 3.292691 1_555
Ce5 Zn63 3.292691 1_555
Ce6 Zn97 3.038985 1_554
Ce6 Zn26 3.097866 1_555
Ce6 Zn2 3.097866 1_565
Ce6 Zn75 3.098102 1_554
Ce6 Zn73 3.098102 1_554
Ce6 Zn19 3.146605 1_554
Ce6 Zn59 3.146605 1_554
Ce6 Zn44 3.149046 1_555
Ce6 Zn56 3.166846 1_455
Ce6 Zn103 3.166846 1_565
Ce6 Zn83 3.179972 1_555
Ce6 Zn106 3.179972 1_555
Ce6 Zn25 3.217224 1_555
Ce6 Zn114 3.226831 1_555
Ce6 Zn10 3.226831 1_555
Ce6 Zn4 3.297248 1_555
Ce7 Zn74 3.058335 1_555
Ce7 Zn49 3.058335 1_555
Ce7 Zn112 3.084688 1_555
Ce7 Zn65 3.084688 1_555
Ce7 Zn66 3.084688 1_555
Ce7 Zn12 3.084688 1_555
Ce7 Zn60 3.143629 1_555
Ce7 Zn69 3.143629 1_555
Ce7 Zn0 3.143629 1_555
Ce7 Zn109 3.143629 1_555
Ce7 Zn87 3.161799 1_555
Ce7 Zn51 3.175541 1_555
Ce7 Zn77 3.175541 1_555
Ce7 Zn107 3.324070 1_555
Ce7 Zn24 3.324070 1_555
Ce8 Zn97 3.050548 1_555
Ce8 Zn82 3.050548 1_555
Ce8 Zn52 3.174805 1_455
Ce8 Zn11 3.174805 1_455
Ce8 Zn92 3.174805 1_565
Ce8 Zn85 3.174805 1_565
Ce8 Zn89 3.213676 1_565
Ce8 Zn80 3.292182 1_565
Ce8 Zn21 3.292182 1_455
Ce8 Zn104 3.292691 1_555
Ce8 Zn73 3.292691 1_555
Ce8 Zn75 3.292691 1_555
Ce8 Zn14 3.292691 1_555
Ce9 Zn33 3.050548 1_555
Ce9 Zn37 3.050548 1_555
Ce9 Zn85 3.174805 1_555
Ce9 Zn92 3.174805 1_555
Ce9 Zn5 3.174805 1_455
Ce9 Zn55 3.174805 1_455
Ce9 Zn89 3.213676 1_555
Ce9 Zn9 3.292181 1_555
Ce9 Zn71 3.292182 1_455
Ce9 Zn7 3.292691 1_555
Ce9 Zn53 3.292691 1_555
Ce9 Zn99 3.292691 1_555
Ce9 Zn81 3.292691 1_555
Ce10 Zn0 3.038985 1_556
Ce10 Zn23 3.097866 1_556
Ce10 Zn2 3.097866 1_556
Ce10 Zn112 3.098101 1_556
Ce10 Zn103 3.098102 1_556
Ce10 Zn51 3.146605 1_556
Ce10 Zn100 3.146605 1_556
Ce10 Zn85 3.149046 1_555
Ce10 Zn81 3.166846 1_555
Ce10 Zn73 3.166846 1_545
Ce10 Zn9 3.179972 1_555
Ce10 Zn80 3.179972 1_555
Ce10 Zn115 3.217224 1_555
Ce10 Zn20 3.226831 1_555
Ce10 Zn105 3.226831 1_555
Ce10 Zn50 3.297260 1_555
Ce11 Zn69 3.038985 1_555
Ce11 Zn39 3.097866 1_555
Ce11 Zn18 3.097866 1_655
Ce11 Zn12 3.098101 1_555
Ce11 Zn1 3.098102 1_555
Ce11 Zn77 3.146605 1_555
Ce11 Zn78 3.146605 1_555
Ce11 Zn52 3.149046 1_555
Ce11 Zn17 3.166846 1_555
Ce11 Zn14 3.166846 1_655
Ce11 Zn6 3.179972 1_555
Ce11 Zn21 3.179972 1_555
Ce11 Zn3 3.217224 1_555
Ce11 Zn61 3.226831 1_555
Ce11 Zn101 3.226831 1_555
Ce11 Zn15 3.297260 1_555
Ce12 Zn60 3.050548 1_555
Ce12 Zn69 3.050548 1_555
Ce12 Zn86 3.174805 1_555
Ce12 Zn70 3.174805 1_555
Ce12 Zn45 3.174805 1_655
Ce12 Zn44 3.174805 1_655
Ce12 Zn68 3.213676 1_665
Ce12 Zn24 3.292181 1_555
Ce12 Zn83 3.292182 1_655
Ce12 Zn56 3.292691 1_555
Ce12 Zn1 3.292691 1_555
Ce12 Zn66 3.292691 1_555
Ce12 Zn12 3.292691 1_555
Ce13 Zn8 3.038985 1_555
Ce13 Zn28 3.097866 1_555
Ce13 Zn62 3.097866 1_555
Ce13 Zn13 3.098102 1_555
Ce13 Zn76 3.098102 1_555
Ce13 Zn58 3.146605 1_555
Ce13 Zn78 3.146605 1_555
Ce13 Zn55 3.149046 1_555
Ce13 Zn53 3.166846 1_655
Ce13 Zn29 3.166846 1_545
Ce13 Zn71 3.179972 1_555
Ce13 Zn43 3.179972 1_555
Ce13 Zn54 3.217224 1_555
Ce13 Zn72 3.226831 1_555
Ce13 Zn101 3.226831 1_555
Ce13 Zn15 3.297248 1_555
Ce14 Zn84 3.038985 1_554
Ce14 Zn30 3.097866 1_555
Ce14 Zn111 3.097866 1_565
Ce14 Zn46 3.098101 1_554
Ce14 Zn110 3.098102 1_554
Ce14 Zn88 3.146605 1_554
Ce14 Zn19 3.146605 1_554
Ce14 Zn70 3.149046 1_555
Ce14 Zn66 3.166846 1_555
Ce14 Zn31 3.166846 1_565
Ce14 Zn24 3.179972 1_555
Ce14 Zn98 3.179972 1_555
Ce14 Zn40 3.217224 1_555
Ce14 Zn74 3.226831 1_555
Ce14 Zn114 3.226831 1_555
Ce14 Zn4 3.297260 1_555
Ce15 Zn10 3.058335 1_655
Ce15 Zn36 3.058335 1_655
Ce15 Zn63 3.084688 1_555
Ce15 Zn13 3.084688 1_555
Ce15 Zn56 3.084688 1_555
Ce15 Zn1 3.084688 1_555
Ce15 Zn94 3.143629 1_555
Ce15 Zn8 3.143629 1_555
Ce15 Zn60 3.143629 1_555
Ce15 Zn69 3.143629 1_555
Ce15 Zn87 3.161786 1_555
Ce15 Zn96 3.175541 1_555
Ce15 Zn78 3.175541 1_555
Ce15 Zn57 3.324070 1_655
Ce15 Zn83 3.324070 1_655
Ce16 Zn0 3.050548 1_555
Ce16 Zn109 3.050548 1_555
Ce16 Zn22 3.174805 1_555
Ce16 Zn35 3.174805 1_555
Ce16 Zn44 3.174805 1_545
Ce16 Zn45 3.174805 1_545
Ce16 Zn68 3.213676 1_555
Ce16 Zn107 3.292181 1_555
Ce16 Zn106 3.292182 1_545
Ce16 Zn41 3.292691 1_555
Ce16 Zn103 3.292691 1_555
Ce16 Zn112 3.292691 1_555
Ce16 Zn65 3.292691 1_555
Ce17 Zn62 2.933632 1_455
Ce17 Zn102 2.933632 1_555
Ce17 Zn18 2.933632 1_545
Ce17 Zn28 2.933632 1_455
Ce17 Zn39 2.933632 1_445
Ce17 Zn47 2.933632 1_555
Ce17 Zn45 3.239044 1_545
Ce17 Zn55 3.239044 1_455
Ce17 Zn86 3.239044 1_445
Ce17 Zn92 3.239044 1_555
Ce17 Zn22 3.239044 1_555
Ce17 Zn52 3.239044 1_445
Ce17 Zn68 3.501870 1_555
Ce17 Zn89 3.501870 1_555
Ce18 Zn105 3.058335 1_565
Ce18 Zn72 3.058335 1_565
Ce18 Zn73 3.084688 1_555
Ce18 Zn104 3.084688 1_555
Ce18 Zn29 3.084688 1_555
Ce18 Zn110 3.084688 1_555
Ce18 Zn82 3.143629 1_555
Ce18 Zn97 3.143629 1_555
Ce18 Zn84 3.143629 1_555
Ce18 Zn93 3.143629 1_555
Ce18 Zn34 3.161786 1_555
Ce18 Zn38 3.175541 1_555
Ce18 Zn19 3.175541 1_555
Ce18 Zn80 3.324070 1_565
Ce18 Zn43 3.324070 1_565
Ce19 Zn37 3.038985 1_554
Ce19 Zn23 3.097866 1_555
Ce19 Zn27 3.097866 1_455
Ce19 Zn81 3.098101 1_554
Ce19 Zn7 3.098102 1_554
Ce19 Zn88 3.146605 1_554
Ce19 Zn59 3.146605 1_554
Ce19 Zn35 3.149046 1_555
Ce19 Zn112 3.166846 1_555
Ce19 Zn63 3.166846 1_455
Ce19 Zn107 3.179972 1_555
Ce19 Zn57 3.179972 1_555
Ce19 Zn113 3.217224 1_555
Ce19 Zn74 3.226831 1_555
Ce19 Zn10 3.226831 1_555
Ce19 Zn4 3.297260 1_555
Ce20 Zn93 3.050548 1_555
Ce20 Zn84 3.050548 1_555
Ce20 Zn11 3.174805 1_555
Ce20 Zn52 3.174805 1_555
Ce20 Zn5 3.174805 1_565
Ce20 Zn55 3.174805 1_565
Ce20 Zn89 3.213676 1_665
Ce20 Zn6 3.292181 1_555
Ce20 Zn43 3.292182 1_565
Ce20 Zn29 3.292691 1_555
Ce20 Zn110 3.292691 1_555
Ce20 Zn17 3.292691 1_555
Ce20 Zn46 3.292691 1_555
Ce21 Zn114 3.058335 1_545
Ce21 Zn42 3.058335 1_545
Ce21 Zn31 3.084688 1_555
Ce21 Zn76 3.084688 1_555
Ce21 Zn103 3.084688 1_555
Ce21 Zn41 3.084688 1_555
Ce21 Zn94 3.143629 1_555
Ce21 Zn8 3.143629 1_555
Ce21 Zn0 3.143629 1_555
Ce21 Zn109 3.143629 1_555
Ce21 Zn87 3.161786 1_555
Ce21 Zn58 3.175541 1_555
Ce21 Zn100 3.175541 1_555
Ce21 Zn98 3.324070 1_545
Ce21 Zn106 3.324070 1_545
Ce22 Zn20 3.058335 1_555
Ce22 Zn61 3.058335 1_555
Ce22 Zn17 3.084688 1_555
Ce22 Zn46 3.084688 1_555
Ce22 Zn99 3.084688 1_555
Ce22 Zn81 3.084688 1_555
Ce22 Zn33 3.143629 1_555
Ce22 Zn37 3.143629 1_555
Ce22 Zn84 3.143629 1_555
Ce22 Zn93 3.143629 1_555
Ce22 Zn34 3.161799 1_555
Ce22 Zn91 3.175541 1_555
Ce22 Zn88 3.175541 1_555
Ce22 Zn6 3.324070 1_555
Ce22 Zn9 3.324070 1_555
Ce23 Zn111 2.933632 1_455
Ce23 Zn2 2.933632 1_555
Ce23 Zn26 2.933632 1_545
Ce23 Zn27 2.933632 1_455
Ce23 Zn30 2.933632 1_445
Ce23 Zn23 2.933632 1_555
Ce23 Zn5 3.239044 1_454
Ce23 Zn44 3.239044 1_545
Ce23 Zn70 3.239044 1_445
Ce23 Zn85 3.239044 1_554
Ce23 Zn11 3.239044 1_444
Ce23 Zn35 3.239044 1_555
Ce23 Zn68 3.501870 1_555
Ce23 Zn89 3.501870 1_554
Ce24 Zn93 3.038985 1_555
Ce24 Zn39 3.097866 1_555
Ce24 Zn62 3.097866 1_565
Ce24 Zn17 3.098101 1_555
Ce24 Zn29 3.098102 1_555
Ce24 Zn91 3.146605 1_555
Ce24 Zn38 3.146605 1_555
Ce24 Zn86 3.149046 1_555
Ce24 Zn12 3.166846 1_555
Ce24 Zn76 3.166846 1_565
Ce24 Zn24 3.179972 1_555
Ce24 Zn98 3.179972 1_555
Ce24 Zn40 3.217224 1_555
Ce24 Zn49 3.226831 1_555
Ce24 Zn42 3.226831 1_555
Ce24 Zn67 3.297260 1_555
Ce25 Zn94 3.038985 1_556
Ce25 Zn27 3.097866 1_556
Ce25 Zn111 3.097866 1_556
Ce25 Zn63 3.098102 1_556
Ce25 Zn31 3.098102 1_556
Ce25 Zn100 3.146605 1_556
Ce25 Zn96 3.146605 1_556
Ce25 Zn5 3.149046 1_555
Ce25 Zn7 3.166846 1_655
Ce25 Zn110 3.166846 1_545
Ce25 Zn71 3.179972 1_555
Ce25 Zn43 3.179972 1_555
Ce25 Zn54 3.217224 1_555
Ce25 Zn105 3.226831 1_555
Ce25 Zn79 3.226831 1_555
Ce25 Zn50 3.297248 1_555
Zn0 Zn109 2.581456 1_555
Zn0 Zn100 2.615659 1_555
Zn0 Zn51 2.615660 1_555
Zn0 Zn112 2.664632 1_555
Zn0 Zn103 2.664632 1_555
Zn0 Zn87 2.750359 1_555
Zn1 Zn83 2.580377 1_655
Zn1 Zn18 2.610909 1_655
Zn1 Zn69 2.664632 1_555
Zn1 Zn16 2.674655 1_655
Zn1 Zn36 3.077794 1_655
Zn2 Zn73 2.610909 1_544
Zn2 Zn85 2.639307 1_554
Zn2 Zn44 2.639307 1_545
Zn2 Zn23 2.933632 1_555
Zn2 Zn26 2.933632 1_545
Zn3 Zn6 2.607114 1_555
Zn3 Zn50 2.682002 1_555
Zn3 Zn79 2.711793 1_555
Zn3 Zn61 2.711793 1_555
Zn3 Zn54 2.803941 1_555
Zn4 Zn59 2.647205 1_554
Zn4 Zn88 2.647213 1_554
Zn4 Zn74 2.657533 1_555
Zn4 Zn40 2.682002 1_555
Zn5 Zn55 2.626083 1_555
Zn5 Zn89 2.724797 1_655
Zn5 Zn71 2.951542 1_555
Zn6 Zn61 3.030254 1_555
Zn7 Zn71 2.580377 1_455
Zn7 Zn79 3.077794 1_455
Zn8 Zn94 2.581456 1_555
Zn8 Zn87 2.750348 1_555
Zn9 Zn99 2.580377 1_555
Zn9 Zn92 2.951542 1_555
Zn10 Zn108 2.576381 1_555
Zn10 Zn4 2.657521 1_555
Zn10 Zn113 2.711793 1_555
Zn10 Zn25 2.711793 1_555
Zn10 Zn59 2.874463 1_554
Zn10 Zn36 3.002243 1_555
Zn10 Zn83 3.030254 1_555
Zn10 Zn57 3.030254 1_555
Zn10 Zn56 3.077794 1_455
Zn10 Zn63 3.077794 1_455
Zn11 Zn52 2.626083 1_555
Zn11 Zn26 2.639307 1_656
Zn11 Zn30 2.639307 1_556
Zn11 Zn89 2.724797 1_665
Zn11 Zn21 2.951542 1_555
Zn11 Zn6 2.951542 1_555
Zn12 Zn24 2.580377 1_555
Zn12 Zn39 2.610909 1_555
Zn12 Zn69 2.664632 1_555
Zn12 Zn95 2.674655 1_555
Zn12 Zn49 3.077794 1_555
Zn13 Zn57 2.580377 1_655
Zn13 Zn28 2.610909 1_555
Zn13 Zn8 2.664632 1_555
Zn13 Zn16 2.674655 1_655
Zn13 Zn36 3.077794 1_655
Zn14 Zn21 2.580377 1_455
Zn14 Zn18 2.610909 1_555
Zn14 Zn82 2.664632 1_555
Zn14 Zn16 2.674655 1_555
Zn15 Zn78 2.647205 1_555
Zn15 Zn58 2.647205 1_555
Zn15 Zn77 2.647213 1_555
Zn15 Zn72 2.657521 1_555
Zn15 Zn61 2.657533 1_555
Zn15 Zn54 2.681994 1_555
Zn15 Zn3 2.682002 1_555
Zn16 Zn36 2.576381 1_555
Zn16 Zn78 2.662158 1_455
Zn16 Zn90 2.662158 1_555
Zn16 Zn53 2.674655 1_555
Zn17 Zn6 2.580377 1_555
Zn17 Zn39 2.610909 1_555
Zn17 Zn93 2.664632 1_555
Zn17 Zn95 2.674655 1_555
Zn17 Zn61 3.077794 1_555
Zn18 Zn52 2.639307 1_455
Zn18 Zn45 2.639307 1_555
Zn18 Zn39 2.933632 1_455
Zn19 Zn84 2.615659 1_555
Zn19 Zn97 2.615659 1_555
Zn19 Zn4 2.647205 1_556
Zn19 Zn64 2.662158 1_566
Zn19 Zn88 2.838713 1_555
Zn19 Zn59 2.838713 1_555
Zn20 Zn48 2.576381 1_556
Zn20 Zn50 2.657533 1_555
Zn20 Zn3 2.711793 1_555
Zn20 Zn51 2.874463 1_556
Zn20 Zn61 3.002243 1_555
Zn20 Zn9 3.030254 1_555
Zn20 Zn6 3.030254 1_555
Zn20 Zn81 3.077794 1_555
Zn20 Zn46 3.077794 1_555
Zn21 Zn75 2.580377 1_655
Zn21 Zn3 2.607114 1_555
Zn21 Zn6 2.864881 1_555
Zn21 Zn52 2.951542 1_555
Zn21 Zn79 3.030254 1_555
Zn22 Zn35 2.626083 1_555
Zn22 Zn28 2.639307 1_455
Zn22 Zn47 2.639307 1_555
Zn22 Zn68 2.724797 1_555
Zn22 Zn57 2.951542 1_555
Zn23 Zn81 2.610909 1_554
Zn23 Zn35 2.639307 1_555
Zn23 Zn85 2.639307 1_554
Zn23 Zn27 2.933632 1_455
Zn24 Zn66 2.580377 1_555
Zn24 Zn40 2.607114 1_555
Zn24 Zn98 2.864881 1_555
Zn24 Zn70 2.951542 1_555
Zn24 Zn86 2.951542 1_555
Zn24 Zn74 3.030254 1_555
Zn24 Zn49 3.030254 1_555
Zn25 Zn83 2.607114 1_555
Zn25 Zn67 2.681994 1_555
Zn25 Zn4 2.681994 1_555
Zn25 Zn42 2.711793 1_555
Zn25 Zn36 2.711793 1_555
Zn25 Zn40 2.803941 1_555
Zn26 Zn75 2.610909 1_554
Zn26 Zn56 2.610909 1_455
Zn26 Zn44 2.639307 1_555
Zn26 Zn30 2.933632 1_455
Zn27 Zn63 2.610909 1_555
Zn27 Zn7 2.610909 1_654
Zn27 Zn35 2.639307 1_655
Zn27 Zn5 2.639307 1_554
Zn28 Zn53 2.610909 1_655
Zn28 Zn55 2.639307 1_555
Zn28 Zn47 2.933632 1_655
Zn28 Zn62 2.933632 1_555
Zn29 Zn43 2.580377 1_565
Zn29 Zn62 2.610909 1_565
Zn29 Zn93 2.664632 1_555
Zn29 Zn32 2.674655 1_565
Zn29 Zn72 3.077794 1_565
Zn30 Zn46 2.610909 1_554
Zn30 Zn66 2.610909 1_555
Zn30 Zn70 2.639307 1_555
Zn31 Zn98 2.580377 1_545
Zn31 Zn94 2.664632 1_555
Zn31 Zn64 2.674655 1_555
Zn32 Zn42 2.576381 1_545
Zn32 Zn72 2.576381 1_555
Zn32 Zn38 2.662158 1_545
Zn32 Zn58 2.662158 1_555
Zn32 Zn41 2.674655 1_555
Zn32 Zn76 2.674655 1_555
Zn33 Zn37 2.581456 1_555
Zn33 Zn90 2.615660 1_555
Zn33 Zn91 2.615660 1_555
Zn33 Zn99 2.664632 1_555
Zn33 Zn53 2.664632 1_555
Zn33 Zn34 2.750359 1_555
Zn34 Zn82 2.750348 1_555
Zn34 Zn97 2.750348 1_555
Zn34 Zn93 2.750359 1_555
Zn34 Zn84 2.750359 1_555
Zn34 Zn37 2.750359 1_555
Zn35 Zn68 2.724797 1_555
Zn35 Zn57 2.951542 1_555
Zn36 Zn67 2.657521 1_555
Zn36 Zn90 2.874463 1_555
Zn36 Zn83 3.030254 1_555
Zn36 Zn57 3.030254 1_555
Zn37 Zn59 2.615660 1_555
Zn37 Zn88 2.615660 1_555
Zn37 Zn81 2.664632 1_555
Zn37 Zn7 2.664632 1_555
Zn38 Zn93 2.615659 1_555
Zn38 Zn82 2.615659 1_555
Zn38 Zn67 2.647205 1_555
Zn38 Zn91 2.838713 1_555
Zn38 Zn90 2.838713 1_555
Zn38 Zn42 2.874463 1_555
Zn39 Zn52 2.639307 1_555
Zn39 Zn86 2.639307 1_555
Zn39 Zn62 2.933632 1_565
Zn40 Zn98 2.607114 1_555
Zn40 Zn67 2.682002 1_555
Zn40 Zn42 2.711793 1_555
Zn40 Zn49 2.711793 1_555
Zn40 Zn74 2.711793 1_555
Zn41 Zn42 3.077794 1_545
Zn42 Zn67 2.657521 1_555
Zn42 Zn98 3.030254 1_555
Zn42 Zn76 3.077794 1_565
Zn43 Zn54 2.607114 1_555
Zn43 Zn71 2.864881 1_555
Zn43 Zn5 2.951542 1_555
Zn43 Zn55 2.951542 1_555
Zn43 Zn72 3.030254 1_555
Zn44 Zn45 2.626083 1_555
Zn44 Zn68 2.724797 1_565
Zn44 Zn83 2.951542 1_555
Zn45 Zn68 2.724797 1_565
Zn45 Zn83 2.951542 1_555
Zn46 Zn6 2.580377 1_555
Zn46 Zn84 2.664632 1_555
Zn46 Zn48 2.674655 1_556
Zn47 Zn65 2.610909 1_555
Zn47 Zn99 2.610909 1_555
Zn47 Zn92 2.639307 1_555
Zn48 Zn74 2.576381 1_555
Zn48 Zn88 2.662158 1_554
Zn48 Zn51 2.662158 1_555
Zn48 Zn66 2.674655 1_555
Zn48 Zn81 2.674655 1_554
Zn49 Zn95 2.576381 1_555
Zn49 Zn67 2.657533 1_555
Zn49 Zn91 2.874463 1_555
Zn49 Zn74 3.002243 1_555
Zn49 Zn65 3.077794 1_555
Zn50 Zn96 2.647205 1_556
Zn50 Zn51 2.647213 1_556
Zn50 Zn79 2.657521 1_555
Zn50 Zn54 2.681994 1_555
Zn51 Zn60 2.615660 1_555
Zn51 Zn96 2.838713 1_555
Zn52 Zn89 2.724797 1_665
Zn52 Zn6 2.951542 1_555
Zn53 Zn71 2.580377 1_455
Zn54 Zn71 2.607114 1_555
Zn54 Zn72 2.711793 1_555
Zn54 Zn79 2.711793 1_555
Zn55 Zn62 2.639307 1_555
Zn55 Zn89 2.724797 1_655
Zn55 Zn71 2.951542 1_555
Zn56 Zn83 2.580377 1_655
Zn56 Zn60 2.664632 1_555
Zn57 Zn63 2.580377 1_455
Zn58 Zn8 2.615659 1_555
Zn58 Zn77 2.838713 1_555
Zn58 Zn78 2.838713 1_555
Zn58 Zn72 2.874463 1_555
Zn59 Zn97 2.615660 1_555
Zn59 Zn88 2.838713 1_555
Zn60 Zn69 2.581456 1_555
Zn60 Zn96 2.615660 1_555
Zn60 Zn66 2.664632 1_555
Zn60 Zn87 2.750359 1_555
Zn61 Zn95 2.576381 1_555
Zn61 Zn77 2.874463 1_555
Zn61 Zn9 3.030254 1_555
Zn61 Zn99 3.077794 1_555
Zn62 Zn76 2.610909 1_555
Zn62 Zn86 2.639307 1_545
Zn63 Zn94 2.664632 1_555
Zn64 Zn73 2.674655 1_544
Zn65 Zn95 2.674655 1_555
Zn66 Zn74 3.077794 1_555
Zn67 Zn90 2.647205 1_555
Zn67 Zn91 2.647213 1_555
Zn68 Zn70 2.724797 1_445
Zn68 Zn86 2.724797 1_445
Zn69 Zn78 2.615660 1_555
Zn69 Zn77 2.615660 1_555
Zn69 Zn87 2.750359 1_555
Zn70 Zn86 2.626083 1_555
Zn70 Zn98 2.951542 1_555
Zn71 Zn79 3.030254 1_555
Zn72 Zn80 3.030254 1_555
Zn73 Zn80 2.580377 1_565
Zn73 Zn97 2.664632 1_555
Zn74 Zn88 2.874463 1_554
Zn75 Zn97 2.664632 1_555
Zn75 Zn79 3.077794 1_455
Zn76 Zn98 2.580377 1_545
Zn76 Zn8 2.664632 1_555
Zn77 Zn95 2.662158 1_555
Zn77 Zn78 2.838713 1_555
Zn78 Zn8 2.615660 1_555
Zn79 Zn96 2.874463 1_556
Zn80 Zn9 2.864881 1_555
Zn80 Zn85 2.951542 1_555
Zn80 Zn92 2.951542 1_555
Zn81 Zn9 2.580377 1_555
Zn82 Zn97 2.581456 1_555
Zn82 Zn90 2.615660 1_555
Zn84 Zn93 2.581456 1_555
Zn84 Zn88 2.615660 1_555
Zn85 Zn92 2.626083 1_555
Zn85 Zn89 2.724797 1_555
Zn85 Zn9 2.951542 1_555
Zn86 Zn98 2.951542 1_555
Zn87 Zn94 2.750348 1_555
Zn89 Zn92 2.724797 1_555
Zn90 Zn91 2.838713 1_555
Zn91 Zn93 2.615660 1_555
Zn91 Zn95 2.662158 1_555
Zn94 Zn96 2.615660 1_555
Zn95 Zn99 2.674655 1_555
Zn100 Zn94 2.615659 1_555
Zn100 Zn50 2.647205 1_554
Zn100 Zn64 2.662158 1_555
Zn100 Zn51 2.838713 1_555
Zn100 Zn96 2.838713 1_555
Zn100 Zn105 2.874463 1_554
Zn101 Zn16 2.576381 1_655
Zn101 Zn15 2.657521 1_555
Zn101 Zn3 2.711793 1_555
Zn101 Zn54 2.711793 1_555
Zn101 Zn78 2.874463 1_555
Zn101 Zn79 3.002243 1_555
Zn101 Zn71 3.030254 1_555
Zn101 Zn21 3.030254 1_555
Zn101 Zn53 3.077794 1_655
Zn101 Zn14 3.077794 1_655
Zn102 Zn104 2.610909 1_545
Zn102 Zn41 2.610909 1_555
Zn102 Zn92 2.639307 1_555
Zn102 Zn45 2.639307 1_545
Zn102 Zn47 2.933632 1_555
Zn102 Zn18 2.933632 1_545
Zn103 Zn106 2.580377 1_545
Zn103 Zn2 2.610909 1_555
Zn103 Zn64 2.674655 1_555
Zn103 Zn114 3.077794 1_545
Zn104 Zn80 2.580377 1_565
Zn104 Zn82 2.664632 1_555
Zn104 Zn32 2.674655 1_565
Zn104 Zn72 3.077794 1_565
Zn105 Zn64 2.576381 1_556
Zn105 Zn50 2.657521 1_555
Zn105 Zn115 2.711793 1_555
Zn105 Zn54 2.711793 1_555
Zn105 Zn72 3.002243 1_555
Zn105 Zn43 3.030254 1_555
Zn105 Zn80 3.030254 1_555
Zn105 Zn110 3.077794 1_545
Zn105 Zn73 3.077794 1_545
Zn106 Zn41 2.580377 1_565
Zn106 Zn25 2.607114 1_555
Zn106 Zn83 2.864881 1_555
Zn106 Zn44 2.951542 1_555
Zn106 Zn45 2.951542 1_555
Zn106 Zn114 3.030254 1_555
Zn106 Zn42 3.030254 1_555
Zn107 Zn112 2.580377 1_555
Zn107 Zn65 2.580377 1_555
Zn107 Zn113 2.607114 1_555
Zn107 Zn57 2.864881 1_555
Zn107 Zn22 2.951542 1_555
Zn107 Zn35 2.951542 1_555
Zn107 Zn74 3.030254 1_555
Zn107 Zn49 3.030254 1_555
Zn108 Zn79 2.576381 1_454
Zn108 Zn96 2.662158 1_455
Zn108 Zn59 2.662158 1_554
Zn108 Zn7 2.674655 1_554
Zn108 Zn56 2.674655 1_455
Zn108 Zn63 2.674655 1_455
Zn108 Zn75 2.674655 1_554
Zn109 Zn58 2.615659 1_555
Zn109 Zn77 2.615660 1_555
Zn109 Zn65 2.664632 1_555
Zn109 Zn41 2.664632 1_555
Zn109 Zn87 2.750359 1_555
Zn110 Zn43 2.580377 1_565
Zn110 Zn111 2.610909 1_566
Zn110 Zn84 2.664632 1_555
Zn110 Zn64 2.674655 1_566
Zn111 Zn31 2.610909 1_555
Zn111 Zn70 2.639307 1_545
Zn111 Zn5 2.639307 1_554
Zn111 Zn30 2.933632 1_545
Zn111 Zn27 2.933632 1_555
Zn112 Zn23 2.610909 1_555
Zn112 Zn48 2.674655 1_555
Zn112 Zn74 3.077794 1_555
Zn113 Zn57 2.607114 1_555
Zn113 Zn4 2.682002 1_555
Zn113 Zn67 2.682002 1_555
Zn113 Zn36 2.711793 1_555
Zn113 Zn49 2.711793 1_555
Zn113 Zn74 2.711793 1_555
Zn113 Zn25 2.803941 1_555
Zn113 Zn40 2.803941 1_555
Zn114 Zn64 2.576381 1_565
Zn114 Zn4 2.657521 1_555
Zn114 Zn40 2.711793 1_555
Zn114 Zn25 2.711793 1_555
Zn114 Zn19 2.874463 1_554
Zn114 Zn42 3.002243 1_555
Zn114 Zn98 3.030254 1_555
Zn114 Zn31 3.077794 1_565
Zn115 Zn80 2.607114 1_555
Zn115 Zn9 2.607114 1_555
Zn115 Zn15 2.682002 1_555
Zn115 Zn50 2.682002 1_555
Zn115 Zn72 2.711793 1_555
Zn115 Zn61 2.711793 1_555
Zn115 Zn20 2.711793 1_555
Zn115 Zn54 2.803941 1_555
Zn115 Zn3 2.803941 1_555
