# generated using pymatgen
data_K3Na2InO4
_symmetry_space_group_name_H-M   'P 1'
_cell_length_a   9.81555600
_cell_length_b   7.35206400
_cell_length_c   12.54969766
_cell_angle_alpha   54.98890173
_cell_angle_beta   90.00000000
_cell_angle_gamma   90.00000000
_symmetry_Int_Tables_number   1
_chemical_formula_structural   K3Na2InO4
_chemical_formula_sum   'K12 Na8 In4 O16'
_cell_volume   741.75938659
_cell_formula_units_Z   4
loop_
 _symmetry_equiv_pos_site_id
 _symmetry_equiv_pos_as_xyz
  1  'x, y, z'
loop_
 _atom_site_type_symbol
 _atom_site_label
 _atom_site_symmetry_multiplicity
 _atom_site_fract_x
 _atom_site_fract_y
 _atom_site_fract_z
 _atom_site_occupancy
  K  K0  1  0.99304500  0.78168100  0.48196400  1
  K  K1  1  0.66215800  0.07094600  0.60229900  1
  K  K2  1  0.25472800  0.44125300  0.66244800  1
  K  K3  1  0.16215800  0.92905400  0.89770100  1
  K  K4  1  0.33784200  0.92905400  0.39770100  1
  K  K5  1  0.50695500  0.78168100  0.98196400  1
  K  K6  1  0.83784200  0.07094600  0.10229900  1
  K  K7  1  0.00695500  0.21831900  0.51803600  1
  K  K8  1  0.49304500  0.21831900  0.01803600  1
  K  K9  1  0.75472800  0.55874700  0.83755200  1
  K  K10  1  0.74527200  0.55874700  0.33755200  1
  K  K11  1  0.24527200  0.44125300  0.16244800  1
  Na  Na0  1  0.83467800  0.74830400  0.00754200  1
  Na  Na1  1  0.06761400  0.68485000  0.77477400  1
  Na  Na2  1  0.93238600  0.31515000  0.22522600  1
  Na  Na3  1  0.43238600  0.68485000  0.27477400  1
  Na  Na4  1  0.56761400  0.31515000  0.72522600  1
  Na  Na5  1  0.66532200  0.74830400  0.50754200  1
  Na  Na6  1  0.16532200  0.25169600  0.99245800  1
  Na  Na7  1  0.33467800  0.25169600  0.49245800  1
  In  In0  1  0.36646000  0.79470900  0.72914300  1
  In  In1  1  0.13354000  0.79470900  0.22914300  1
  In  In2  1  0.63354000  0.20529100  0.27085700  1
  In  In3  1  0.86646000  0.20529100  0.77085700  1
  O  O0  1  0.47565200  0.33984600  0.31763500  1
  O  O1  1  0.91816400  0.90854000  0.79010800  1
  O  O2  1  0.70553900  0.10473700  0.90822200  1
  O  O3  1  0.02434800  0.33984600  0.81763500  1
  O  O4  1  0.71264000  0.43033800  0.08279000  1
  O  O5  1  0.21264000  0.56966200  0.41721000  1
  O  O6  1  0.79446100  0.10473700  0.40822200  1
  O  O7  1  0.20553900  0.89526300  0.59177800  1
  O  O8  1  0.97565200  0.66015400  0.18236500  1
  O  O9  1  0.41816400  0.09146000  0.70989200  1
  O  O10  1  0.52434800  0.66015400  0.68236500  1
  O  O11  1  0.58183600  0.90854000  0.29010800  1
  O  O12  1  0.08183600  0.09146000  0.20989200  1
  O  O13  1  0.78736000  0.43033800  0.58279000  1
  O  O14  1  0.28736000  0.56966200  0.91721000  1
  O  O15  1  0.29446100  0.89526300  0.09177800  1
loop_
_geom_bond_atom_site_label_1
_geom_bond_atom_site_label_2
_geom_bond_distance
_geom_bond_site_symmetry_2
K0 O6 2.788354 1_565
K0 O7 2.875318 1_655
K0 O13 2.932402 1_555
K0 O12 2.946478 1_665
K0 O5 3.031445 1_655
K1 O6 2.643108 1_555
K1 O13 2.794548 1_555
K1 O9 2.795594 1_555
K1 O10 2.911803 1_545
K1 O1 3.172695 1_545
K2 O5 2.683269 1_555
K2 O9 2.790097 1_555
K2 O3 2.792165 1_555
K2 O7 2.960475 1_555
K2 O10 3.180873 1_555
K3 O15 2.643108 1_556
K3 O14 2.794548 1_555
K3 O1 2.795594 1_455
K3 O3 2.911803 1_565
K3 O9 3.172695 1_565
K4 O7 2.643108 1_555
K4 O5 2.794548 1_555
K4 O11 2.795594 1_555
K4 O0 2.911803 1_565
K4 O12 3.172695 1_565
K5 O2 2.788354 1_565
K5 O15 2.875318 1_556
K5 O4 2.932402 1_556
K5 O9 2.946478 1_565
K5 O14 3.031445 1_555
K6 O2 2.643108 1_554
K6 O4 2.794548 1_555
K6 O12 2.795594 1_655
K6 O8 2.911803 1_545
K6 O11 3.172695 1_545
K7 O7 2.788354 1_545
K7 O6 2.875318 1_455
K7 O5 2.932402 1_555
K7 O1 2.946478 1_445
K7 O13 3.031445 1_455
K8 O15 2.788354 1_545
K8 O2 2.875318 1_554
K8 O14 2.932402 1_554
K8 O11 2.946478 1_545
K8 O4 3.031445 1_555
K9 O4 2.683269 1_556
K9 O1 2.790097 1_555
K9 O10 2.792165 1_555
K9 O2 2.960475 1_555
K9 O3 3.180873 1_655
K10 O13 2.683269 1_555
K10 O11 2.790097 1_555
K10 O8 2.792165 1_555
K10 O6 2.960475 1_555
K10 O0 3.180873 1_555
K11 O14 2.683269 1_554
K11 O12 2.790097 1_555
K11 O0 2.792165 1_555
K11 O15 2.960475 1_555
K11 O8 3.180873 1_455
Na0 O4 2.293120 1_555
Na0 O8 2.348767 1_555
Na0 O1 2.411772 1_554
Na0 O2 2.505886 1_564
Na1 O1 2.292757 1_455
Na1 O3 2.310391 1_555
Na1 O7 2.328827 1_555
Na1 O14 2.612996 1_555
Na2 O12 2.292757 1_655
Na2 O8 2.310391 1_555
Na2 O6 2.328827 1_555
Na2 O4 2.612996 1_555
Na3 O11 2.292757 1_555
Na3 O0 2.310391 1_555
Na3 O15 2.328827 1_555
Na3 O5 2.612996 1_555
Na4 O9 2.292757 1_555
Na4 O10 2.310391 1_555
Na4 O2 2.328827 1_555
Na4 O13 2.612996 1_555
Na5 O13 2.293120 1_555
Na5 O10 2.348767 1_555
Na5 O11 2.411772 1_555
Na5 O6 2.505886 1_565
Na6 O14 2.293120 1_555
Na6 O3 2.348767 1_555
Na6 O12 2.411772 1_556
Na6 O15 2.505886 1_546
Na7 O5 2.293120 1_555
Na7 O0 2.348767 1_555
Na7 O9 2.411772 1_555
Na7 O7 2.505886 1_545
In0 O10 2.095565 1_555
In0 O14 2.104734 1_555
In0 O9 2.114488 1_565
In0 O7 2.133275 1_555
In1 O8 2.095565 1_455
In1 O5 2.104734 1_555
In1 O12 2.114488 1_565
In1 O15 2.133275 1_555
In2 O0 2.095565 1_555
In2 O4 2.104734 1_555
In2 O11 2.114488 1_545
In2 O6 2.133275 1_555
In3 O3 2.095565 1_655
In3 O13 2.104734 1_555
In3 O1 2.114488 1_545
In3 O2 2.133275 1_555
