# generated using pymatgen
data_KMnPO4
_symmetry_space_group_name_H-M   'P 1'
_cell_length_a   5.56653770
_cell_length_b   8.78321256
_cell_length_c   9.05735215
_cell_angle_alpha   88.03092912
_cell_angle_beta   89.14462778
_cell_angle_gamma   87.71850980
_symmetry_Int_Tables_number   1
_chemical_formula_structural   KMnPO4
_chemical_formula_sum   'K4 Mn4 P4 O16'
_cell_volume   442.17973951
_cell_formula_units_Z   4
loop_
 _symmetry_equiv_pos_site_id
 _symmetry_equiv_pos_as_xyz
  1  'x, y, z'
loop_
 _atom_site_type_symbol
 _atom_site_label
 _atom_site_symmetry_multiplicity
 _atom_site_fract_x
 _atom_site_fract_y
 _atom_site_fract_z
 _atom_site_occupancy
  K  K0  1  0.76127600  0.99915700  0.67921200  1
  K  K1  1  0.23871800  0.00074700  0.32077800  1
  K  K2  1  0.78240800  0.49490000  0.82332400  1
  K  K3  1  0.21755300  0.50507300  0.17666400  1
  Mn  Mn0  1  0.72747600  0.82383600  0.10379000  1
  Mn  Mn1  1  0.69032400  0.34196000  0.42107100  1
  Mn  Mn2  1  0.27241200  0.17643700  0.89619000  1
  Mn  Mn3  1  0.30971900  0.65807100  0.57896600  1
  P  P0  1  0.76649200  0.20329200  0.09288400  1
  P  P1  1  0.23355600  0.79672700  0.90711500  1
  P  P2  1  0.78109100  0.70385800  0.44364900  1
  P  P3  1  0.21889800  0.29610000  0.55632400  1
  O  O0  1  0.24377500  0.95686700  0.82966300  1
  O  O1  1  0.75625500  0.04318700  0.17039200  1
  O  O2  1  0.00183000  0.21952900  0.48814500  1
  O  O3  1  0.99817200  0.78038100  0.51186100  1
  O  O4  1  0.34986900  0.67408700  0.80564600  1
  O  O5  1  0.65019500  0.32588000  0.19443900  1
  O  O6  1  0.73522000  0.54821000  0.52711300  1
  O  O7  1  0.26477900  0.45175000  0.47287000  1
  O  O8  1  0.96581800  0.75682100  0.93882400  1
  O  O9  1  0.03419200  0.24312600  0.06113100  1
  O  O10  1  0.63009400  0.20785200  0.94304200  1
  O  O11  1  0.36998600  0.79214500  0.05692300  1
  O  O12  1  0.17144600  0.32303700  0.72313200  1
  O  O13  1  0.82845100  0.67705100  0.27679900  1
  O  O14  1  0.45055500  0.19412800  0.53325500  1
  O  O15  1  0.54944000  0.80579100  0.46679600  1
loop_
_geom_bond_atom_site_label_1
_geom_bond_atom_site_label_2
_geom_bond_distance
_geom_bond_site_symmetry_2
K0 O14 2.710854 1_565
K0 O3 2.769038 1_555
K0 O15 2.903136 1_555
K0 O2 2.905397 1_665
K0 O0 3.033766 1_655
K0 O10 3.121810 1_565
K0 O0 3.197884 1_555
K0 O8 3.301358 1_555
K1 O15 2.711042 1_545
K1 O2 2.769137 1_555
K1 O14 2.903601 1_555
K1 O3 2.905423 1_445
K1 O1 3.033413 1_455
K1 O11 3.121589 1_545
K1 O1 3.198005 1_555
K1 O9 3.301778 1_555
K2 O6 2.722324 1_555
K2 O12 2.750839 1_655
K2 O8 2.795235 1_555
K2 O4 2.827070 1_555
K2 O10 2.864608 1_555
K3 O7 2.722317 1_555
K3 O13 2.751471 1_455
K3 O9 2.795441 1_555
K3 O5 2.827618 1_555
K3 O11 2.865081 1_555
Mn0 O1 2.051511 1_565
Mn0 O13 2.064789 1_555
Mn0 O8 2.068398 1_554
Mn0 O11 2.072472 1_555
Mn1 O5 2.078338 1_555
Mn1 O2 2.090529 1_655
Mn1 O6 2.104611 1_555
Mn1 O14 2.122872 1_555
Mn1 O7 2.564628 1_555
Mn2 O0 2.053026 1_545
Mn2 O12 2.064151 1_555
Mn2 O9 2.067003 1_556
Mn2 O10 2.073043 1_555
Mn3 O4 2.078724 1_555
Mn3 O3 2.090294 1_455
Mn3 O7 2.105438 1_555
Mn3 O15 2.122033 1_555
Mn3 O6 2.564711 1_555
O0 P1 1.552768 1_555
O1 P0 1.552714 1_555
O2 P3 1.552157 1_555
O3 P2 1.552140 1_555
O4 P1 1.555275 1_555
O5 P0 1.555397 1_555
O6 P2 1.567362 1_555
O7 P3 1.567347 1_555
O8 P1 1.564750 1_655
O9 P0 1.564450 1_455
O10 P0 1.563525 1_556
O11 P1 1.563340 1_554
O12 P3 1.554367 1_555
O13 P2 1.554457 1_555
O14 P3 1.556140 1_555
O15 P2 1.556026 1_555
