# generated using pymatgen
data_CdI2
_symmetry_space_group_name_H-M   'P 1'
_cell_length_a   4.28710881
_cell_length_b   4.28710712
_cell_length_c   71.53228878
_cell_angle_alpha   90.00000000
_cell_angle_beta   90.00000000
_cell_angle_gamma   119.99998910
_symmetry_Int_Tables_number   1
_chemical_formula_structural   CdI2
_chemical_formula_sum   'Cd10 I20'
_cell_volume   1138.57499511
_cell_formula_units_Z   10
loop_
 _symmetry_equiv_pos_site_id
 _symmetry_equiv_pos_as_xyz
  1  'x, y, z'
loop_
 _atom_site_type_symbol
 _atom_site_label
 _atom_site_symmetry_multiplicity
 _atom_site_fract_x
 _atom_site_fract_y
 _atom_site_fract_z
 _atom_site_occupancy
  Cd  Cd0  1  0.66666700  0.33333300  0.22512474  1
  Cd  Cd1  1  0.33333300  0.66666700  0.92511913  1
  Cd  Cd2  1  0.66666700  0.33333300  0.02514590  1
  Cd  Cd3  1  0.00000000  -0.00000000  0.82461733  1
  Cd  Cd4  1  0.66666700  0.33333300  0.42512241  1
  Cd  Cd5  1  0.33333300  0.66666700  0.52514217  1
  Cd  Cd6  1  0.33333300  0.66666700  0.72510059  1
  Cd  Cd7  1  0.33333300  0.66666700  0.32461330  1
  Cd  Cd8  1  0.33333300  0.66666700  0.12513332  1
  Cd  Cd9  1  0.00000000  -0.00000000  0.62502877  1
  I  I0  1  0.00000000  -0.00000000  0.10102484  1
  I  I1  1  0.33333300  0.66666700  0.44916783  1
  I  I2  1  0.66666700  0.33333300  0.64901892  1
  I  I3  1  0.00000000  -0.00000000  0.30059604  1
  I  I4  1  0.66666700  0.33333300  0.94917184  1
  I  I5  1  0.00000000  -0.00000000  0.20103077  1
  I  I6  1  0.00000000  0.00000000  0.40101577  1
  I  I7  1  0.66666700  0.33333300  0.34861606  1
  I  I8  1  0.66666700  0.33333300  0.54918481  1
  I  I9  1  0.00000000  -0.00000000  0.90102639  1
  I  I10  1  0.33333300  0.66666700  0.80058448  1
  I  I11  1  0.66666700  0.33333300  0.14917518  1
  I  I12  1  -0.00000000  -0.00000000  0.00105489  1
  I  I13  1  0.33333300  0.66666700  0.04917205  1
  I  I14  1  0.66666700  0.33333300  0.84863478  1
  I  I15  1  0.33333300  0.66666700  0.60099011  1
  I  I16  1  0.33333300  0.66666700  0.24916798  1
  I  I17  1  -0.00000000  0.00000000  0.50103066  1
  I  I18  1  -0.00000000  -0.00000000  0.70102658  1
  I  I19  1  0.66666700  0.33333300  0.74916434  1
loop_
_geom_bond_atom_site_label_1
_geom_bond_atom_site_label_2
_geom_bond_distance
_geom_bond_site_symmetry_2
Cd0 I16 3.014028 1_545
Cd0 I16 3.014029 1_655
Cd0 I16 3.014034 1_555
Cd0 I5 3.016100 1_655
Cd0 I5 3.016103 1_665
Cd0 I5 3.016104 1_555
Cd1 I4 3.014414 1_565
Cd1 I4 3.014415 1_455
Cd1 I4 3.014421 1_555
Cd1 I9 3.016050 1_565
Cd1 I9 3.016053 1_555
Cd1 I9 3.016054 1_665
Cd2 I13 3.013330 1_545
Cd2 I13 3.013331 1_655
Cd2 I13 3.013337 1_555
Cd2 I12 3.015979 1_655
Cd2 I12 3.015982 1_665
Cd2 I12 3.015983 1_555
Cd3 I14 3.012976 1_455
Cd3 I14 3.012979 1_445
Cd3 I14 3.012979 1_555
Cd3 I10 3.013604 1_545
Cd3 I10 3.013607 1_555
Cd3 I10 3.013608 1_445
Cd4 I1 3.014117 1_545
Cd4 I1 3.014118 1_655
Cd4 I1 3.014123 1_555
Cd4 I6 3.016618 1_655
Cd4 I6 3.016621 1_665
Cd4 I6 3.016622 1_555
Cd5 I8 3.014003 1_565
Cd5 I8 3.014004 1_455
Cd5 I8 3.014010 1_555
Cd5 I17 3.016817 1_565
Cd5 I17 3.016820 1_555
Cd5 I17 3.016821 1_665
Cd6 I19 3.014865 1_565
Cd6 I19 3.014866 1_455
Cd6 I19 3.014871 1_555
Cd6 I18 3.015284 1_565
Cd6 I18 3.015287 1_555
Cd6 I18 3.015288 1_665
Cd7 I7 3.012377 1_565
Cd7 I7 3.012377 1_455
Cd7 I7 3.012383 1_555
Cd7 I3 3.012968 1_565
Cd7 I3 3.012971 1_555
Cd7 I3 3.012972 1_665
Cd8 I11 3.013972 1_565
Cd8 I11 3.013972 1_455
Cd8 I11 3.013978 1_555
Cd8 I0 3.016693 1_565
Cd8 I0 3.016696 1_555
Cd8 I0 3.016697 1_665
Cd9 I2 3.011863 1_455
Cd9 I2 3.011866 1_445
Cd9 I2 3.011866 1_555
Cd9 I15 3.013841 1_545
Cd9 I15 3.013844 1_555
Cd9 I15 3.013845 1_445
