# generated using pymatgen
data_Zr6NCl15
_symmetry_space_group_name_H-M   'P 1'
_cell_length_a   18.57043095
_cell_length_b   18.57043095
_cell_length_c   18.57043095
_cell_angle_alpha   109.47122063
_cell_angle_beta   109.47122063
_cell_angle_gamma   109.47122063
_symmetry_Int_Tables_number   1
_chemical_formula_structural   Zr6NCl15
_chemical_formula_sum   'Zr48 N8 Cl120'
_cell_volume   4929.96749808
_cell_formula_units_Z   8
loop_
 _symmetry_equiv_pos_site_id
 _symmetry_equiv_pos_as_xyz
  1  'x, y, z'
loop_
 _atom_site_type_symbol
 _atom_site_label
 _atom_site_symmetry_multiplicity
 _atom_site_fract_x
 _atom_site_fract_y
 _atom_site_fract_z
 _atom_site_occupancy
  Zr  Zr0  1  0.59562208  0.98100010  0.95465441  1
  Zr  Zr1  1  0.59562208  0.11462198  0.64096768  1
  Zr  Zr2  1  0.51899990  0.90437792  0.54534559  1
  Zr  Zr3  1  0.09562208  0.45465441  0.48100010  1
  Zr  Zr4  1  0.09562208  0.14096768  0.61462198  1
  Zr  Zr5  1  0.01899990  0.04534559  0.40437792  1
  Zr  Zr6  1  0.64096768  0.54534559  0.52634570  1
  Zr  Zr7  1  0.95465441  0.85903232  0.97365430  1
  Zr  Zr8  1  0.97365430  0.95465441  0.85903232  1
  Zr  Zr9  1  0.85903232  0.38537802  0.90437792  1
  Zr  Zr10  1  0.95465441  0.59562208  0.98100010  1
  Zr  Zr11  1  0.97365430  0.51899990  0.11462198  1
  Zr  Zr12  1  0.14096768  0.02634570  0.04534559  1
  Zr  Zr13  1  0.45465441  0.47365430  0.35903232  1
  Zr  Zr14  1  0.47365430  0.35903232  0.45465441  1
  Zr  Zr15  1  0.35903232  0.40437792  0.88537802  1
  Zr  Zr16  1  0.45465441  0.48100010  0.09562208  1
  Zr  Zr17  1  0.47365430  0.61462198  0.01899990  1
  Zr  Zr18  1  0.11462198  0.97365430  0.51899990  1
  Zr  Zr19  1  0.98100010  0.52634570  0.38537802  1
  Zr  Zr20  1  0.11462198  0.64096768  0.59562208  1
  Zr  Zr21  1  0.61462198  0.01899990  0.47365430  1
  Zr  Zr22  1  0.48100010  0.88537802  0.02634570  1
  Zr  Zr23  1  0.61462198  0.09562208  0.14096768  1
  Zr  Zr24  1  0.38537802  0.90437792  0.85903232  1
  Zr  Zr25  1  0.51899990  0.11462198  0.97365430  1
  Zr  Zr26  1  0.38537802  0.98100010  0.52634570  1
  Zr  Zr27  1  0.88537802  0.35903232  0.40437792  1
  Zr  Zr28  1  0.01899990  0.47365430  0.61462198  1
  Zr  Zr29  1  0.88537802  0.02634570  0.48100010  1
  Zr  Zr30  1  0.52634570  0.38537802  0.98100010  1
  Zr  Zr31  1  0.54534559  0.51899990  0.90437792  1
  Zr  Zr32  1  0.64096768  0.59562208  0.11462198  1
  Zr  Zr33  1  0.52634570  0.64096768  0.54534559  1
  Zr  Zr34  1  0.54534559  0.52634570  0.64096768  1
  Zr  Zr35  1  0.85903232  0.97365430  0.95465441  1
  Zr  Zr36  1  0.02634570  0.48100010  0.88537802  1
  Zr  Zr37  1  0.04534559  0.40437792  0.01899990  1
  Zr  Zr38  1  0.14096768  0.61462198  0.09562208  1
  Zr  Zr39  1  0.02634570  0.04534559  0.14096768  1
  Zr  Zr40  1  0.04534559  0.14096768  0.02634570  1
  Zr  Zr41  1  0.35903232  0.45465441  0.47365430  1
  Zr  Zr42  1  0.98100010  0.95465441  0.59562208  1
  Zr  Zr43  1  0.90437792  0.85903232  0.38537802  1
  Zr  Zr44  1  0.90437792  0.54534559  0.51899990  1
  Zr  Zr45  1  0.48100010  0.09562208  0.45465441  1
  Zr  Zr46  1  0.40437792  0.88537802  0.35903232  1
  Zr  Zr47  1  0.40437792  0.01899990  0.04534559  1
  N  N0  1  0.00000000  0.50000000  0.50000000  1
  N  N1  1  0.00000000  -0.00000000  0.50000000  1
  N  N2  1  0.00000000  0.50000000  0.00000000  1
  N  N3  1  0.00000000  -0.00000000  0.00000000  1
  N  N4  1  0.50000000  0.50000000  0.50000000  1
  N  N5  1  0.50000000  -0.00000000  0.50000000  1
  N  N6  1  0.50000000  0.50000000  0.00000000  1
  N  N7  1  0.50000000  -0.00000000  0.00000000  1
  Cl  Cl0  1  0.05195830  0.44804170  0.75000000  1
  Cl  Cl1  1  0.73152197  0.08875363  0.10391914  1
  Cl  Cl2  1  0.41124637  0.76847803  0.39608086  1
  Cl  Cl3  1  0.73152197  0.14276733  0.62760282  1
  Cl  Cl4  1  0.55195830  0.25000000  0.94804170  1
  Cl  Cl5  1  0.23152197  0.60391914  0.58875363  1
  Cl  Cl6  1  0.91124637  0.89608086  0.26847803  1
  Cl  Cl7  1  0.23152197  0.12760282  0.64276733  1
  Cl  Cl8  1  0.30195830  0.75000000  0.19804170  1
  Cl  Cl9  1  0.62760282  0.39608086  0.48483449  1
  Cl  Cl10  1  0.01516551  0.10391914  0.87239718  1
  Cl  Cl11  1  0.39484773  0.02122033  0.81578076  1
  Cl  Cl12  1  0.10391914  0.87239718  0.01516551  1
  Cl  Cl13  1  0.80195830  0.69804170  0.25000000  1
  Cl  Cl14  1  0.87239718  0.35723267  0.76847803  1
  Cl  Cl15  1  0.10391914  0.73152197  0.08875363  1
  Cl  Cl16  1  0.01516551  0.41124637  0.14276733  1
  Cl  Cl17  1  0.12760282  0.98483449  0.89608086  1
  Cl  Cl18  1  0.51516551  0.37239718  0.60391914  1
  Cl  Cl19  1  0.47877967  0.10515227  0.68421924  1
  Cl  Cl20  1  0.39484773  0.87362740  0.57906696  1
  Cl  Cl21  1  0.05195830  0.10391760  0.30195830  1
  Cl  Cl22  1  0.47877967  0.87362740  0.79456044  1
  Cl  Cl23  1  0.89484773  0.31578076  0.52122033  1
  Cl  Cl24  1  0.62637260  0.10515227  0.92093304  1
  Cl  Cl25  1  0.60391914  0.51516551  0.37239718  1
  Cl  Cl26  1  0.10391760  0.30195830  0.05195830  1
  Cl  Cl27  1  0.37239718  0.26847803  0.85723267  1
  Cl  Cl28  1  0.51516551  0.64276733  0.91124637  1
  Cl  Cl29  1  0.60391914  0.58875363  0.23152197  1
  Cl  Cl30  1  0.14276733  0.01516551  0.41124637  1
  Cl  Cl31  1  0.14276733  0.62760282  0.73152197  1
  Cl  Cl32  1  0.97877967  0.18421924  0.60515227  1
  Cl  Cl33  1  0.62637260  0.02122033  0.70543956  1
  Cl  Cl34  1  0.89484773  0.07906696  0.37362740  1
  Cl  Cl35  1  0.55195830  0.80195830  0.60391760  1
  Cl  Cl36  1  0.97877967  0.29456044  0.37362740  1
  Cl  Cl37  1  0.57906696  0.68421924  0.70543956  1
  Cl  Cl38  1  0.12637260  0.42093304  0.60515227  1
  Cl  Cl39  1  0.08875363  0.48483449  0.35723267  1
  Cl  Cl40  1  0.60391760  0.55195830  0.80195830  1
  Cl  Cl41  1  0.57906696  0.39484773  0.87362740  1
  Cl  Cl42  1  0.70543956  0.62637260  0.02122033  1
  Cl  Cl43  1  0.68421924  0.47877967  0.10515227  1
  Cl  Cl44  1  0.64276733  0.91124637  0.51516551  1
  Cl  Cl45  1  0.64276733  0.23152197  0.12760282  1
  Cl  Cl46  1  0.79456044  0.81578076  0.92093304  1
  Cl  Cl47  1  0.12637260  0.20543956  0.52122033  1
  Cl  Cl48  1  0.81578076  0.92093304  0.79456044  1
  Cl  Cl49  1  0.19804170  0.39608240  0.44804170  1
  Cl  Cl50  1  0.75000000  0.05195830  0.44804170  1
  Cl  Cl51  1  0.75000000  0.19804170  0.30195830  1
  Cl  Cl52  1  0.30195830  0.05195830  0.10391760  1
  Cl  Cl53  1  0.68421924  0.70543956  0.57906696  1
  Cl  Cl54  1  0.07906696  0.20543956  0.18421924  1
  Cl  Cl55  1  0.70543956  0.57906696  0.68421924  1
  Cl  Cl56  1  0.58875363  0.85723267  0.98483449  1
  Cl  Cl57  1  0.07906696  0.37362740  0.89484773  1
  Cl  Cl58  1  0.18421924  0.60515227  0.97877967  1
  Cl  Cl59  1  0.20543956  0.52122033  0.12637260  1
  Cl  Cl60  1  0.79456044  0.47877967  0.87362740  1
  Cl  Cl61  1  0.81578076  0.39484773  0.02122033  1
  Cl  Cl62  1  0.92093304  0.62637260  0.10515227  1
  Cl  Cl63  1  0.41124637  0.14276733  0.01516551  1
  Cl  Cl64  1  0.29456044  0.42093304  0.31578076  1
  Cl  Cl65  1  0.92093304  0.79456044  0.81578076  1
  Cl  Cl66  1  0.31578076  0.29456044  0.42093304  1
  Cl  Cl67  1  0.69804170  0.94804170  0.89608240  1
  Cl  Cl68  1  0.25000000  0.80195830  0.69804170  1
  Cl  Cl69  1  0.25000000  0.94804170  0.55195830  1
  Cl  Cl70  1  0.80195830  0.60391760  0.55195830  1
  Cl  Cl71  1  0.18421924  0.07906696  0.20543956  1
  Cl  Cl72  1  0.87362740  0.79456044  0.47877967  1
  Cl  Cl73  1  0.20543956  0.18421924  0.07906696  1
  Cl  Cl74  1  0.35723267  0.76847803  0.87239718  1
  Cl  Cl75  1  0.35723267  0.08875363  0.48483449  1
  Cl  Cl76  1  0.31578076  0.52122033  0.89484773  1
  Cl  Cl77  1  0.29456044  0.37362740  0.97877967  1
  Cl  Cl78  1  0.42093304  0.60515227  0.12637260  1
  Cl  Cl79  1  0.39608240  0.44804170  0.19804170  1
  Cl  Cl80  1  0.91124637  0.51516551  0.64276733  1
  Cl  Cl81  1  0.87362740  0.57906696  0.39484773  1
  Cl  Cl82  1  0.42093304  0.31578076  0.29456044  1
  Cl  Cl83  1  0.02122033  0.70543956  0.62637260  1
  Cl  Cl84  1  0.44804170  0.19804170  0.39608240  1
  Cl  Cl85  1  0.10515227  0.92093304  0.62637260  1
  Cl  Cl86  1  0.37362740  0.97877967  0.29456044  1
  Cl  Cl87  1  0.02122033  0.81578076  0.39484773  1
  Cl  Cl88  1  0.85723267  0.37239718  0.26847803  1
  Cl  Cl89  1  0.85723267  0.98483449  0.58875363  1
  Cl  Cl90  1  0.39608086  0.41124637  0.76847803  1
  Cl  Cl91  1  0.48483449  0.35723267  0.08875363  1
  Cl  Cl92  1  0.62760282  0.73152197  0.14276733  1
  Cl  Cl93  1  0.89608240  0.69804170  0.94804170  1
  Cl  Cl94  1  0.39608086  0.48483449  0.62760282  1
  Cl  Cl95  1  0.37362740  0.89484773  0.07906696  1
  Cl  Cl96  1  0.10515227  0.68421924  0.47877967  1
  Cl  Cl97  1  0.52122033  0.12637260  0.20543956  1
  Cl  Cl98  1  0.94804170  0.89608240  0.69804170  1
  Cl  Cl99  1  0.60515227  0.12637260  0.42093304  1
  Cl  Cl100  1  0.52122033  0.89484773  0.31578076  1
  Cl  Cl101  1  0.48483449  0.62760282  0.39608086  1
  Cl  Cl102  1  0.87239718  0.01516551  0.10391914  1
  Cl  Cl103  1  0.98483449  0.58875363  0.85723267  1
  Cl  Cl104  1  0.89608086  0.26847803  0.91124637  1
  Cl  Cl105  1  0.12760282  0.64276733  0.23152197  1
  Cl  Cl106  1  0.19804170  0.30195830  0.75000000  1
  Cl  Cl107  1  0.89608086  0.12760282  0.98483449  1
  Cl  Cl108  1  0.60515227  0.97877967  0.18421924  1
  Cl  Cl109  1  0.98483449  0.89608086  0.12760282  1
  Cl  Cl110  1  0.37239718  0.60391914  0.51516551  1
  Cl  Cl111  1  0.69804170  0.25000000  0.80195830  1
  Cl  Cl112  1  0.76847803  0.87239718  0.35723267  1
  Cl  Cl113  1  0.08875363  0.10391914  0.73152197  1
  Cl  Cl114  1  0.76847803  0.39608086  0.41124637  1
  Cl  Cl115  1  0.44804170  0.75000000  0.05195830  1
  Cl  Cl116  1  0.26847803  0.85723267  0.37239718  1
  Cl  Cl117  1  0.58875363  0.23152197  0.60391914  1
  Cl  Cl118  1  0.26847803  0.91124637  0.89608086  1
  Cl  Cl119  1  0.94804170  0.55195830  0.25000000  1
loop_
_geom_bond_atom_site_label_1
_geom_bond_atom_site_label_2
_geom_bond_distance
_geom_bond_site_symmetry_2
N0 Zr3 2.281090 1_555
N0 Zr44 2.281090 1_455
N0 Zr27 2.281091 1_455
N0 Zr28 2.281091 1_555
N0 Zr20 2.281091 1_555
N0 Zr19 2.281091 1_455
N1 Zr5 2.281090 1_555
N1 Zr42 2.281090 1_445
N1 Zr29 2.281091 1_455
N1 Zr4 2.281091 1_555
N1 Zr18 2.281091 1_545
N1 Zr43 2.281091 1_445
N2 Zr37 2.281090 1_555
N2 Zr10 2.281090 1_454
N2 Zr36 2.281091 1_554
N2 Zr38 2.281091 1_555
N2 Zr9 2.281091 1_454
N2 Zr11 2.281091 1_455
N3 Zr40 2.281091 1_555
N3 Zr39 2.281091 1_555
N3 Zr7 2.281091 1_444
N3 Zr35 2.281091 1_444
N3 Zr12 2.281091 1_555
N3 Zr8 2.281091 1_444
N4 Zr14 2.281091 1_555
N4 Zr41 2.281091 1_555
N4 Zr13 2.281091 1_555
N4 Zr33 2.281091 1_555
N4 Zr34 2.281091 1_555
N4 Zr6 2.281091 1_555
N5 Zr45 2.281090 1_555
N5 Zr2 2.281090 1_545
N5 Zr1 2.281091 1_555
N5 Zr46 2.281091 1_545
N5 Zr26 2.281091 1_545
N5 Zr21 2.281091 1_555
N6 Zr16 2.281090 1_555
N6 Zr31 2.281090 1_554
N6 Zr15 2.281091 1_554
N6 Zr32 2.281091 1_555
N6 Zr17 2.281091 1_555
N6 Zr30 2.281091 1_554
N7 Zr47 2.281090 1_555
N7 Zr0 2.281090 1_544
N7 Zr22 2.281091 1_545
N7 Zr23 2.281091 1_555
N7 Zr24 2.281091 1_544
N7 Zr25 2.281091 1_554
Cl0 Zr36 2.624237 1_555
Cl0 Zr28 2.624237 1_555
Cl1 Zr23 2.514791 1_555
Cl1 Zr0 2.515673 1_544
Cl2 Zr46 2.514791 1_555
Cl2 Zr2 2.515673 1_555
Cl3 Zr21 2.514786 1_555
Cl3 Zr1 2.515675 1_555
Cl4 Zr25 2.624237 1_555
Cl4 Zr30 2.624237 1_555
Cl5 Zr20 2.514791 1_555
Cl5 Zr3 2.515673 1_555
Cl6 Zr43 2.514791 1_555
Cl6 Zr5 2.515673 1_665
Cl7 Zr18 2.514786 1_545
Cl7 Zr4 2.515675 1_555
Cl8 Zr38 2.624237 1_555
Cl8 Zr46 2.624237 1_555
Cl9 Zr14 2.514791 1_555
Cl9 Zr6 2.515673 1_555
Cl10 Zr40 2.514791 1_556
Cl10 Zr8 2.515673 1_445
Cl11 Zr25 2.521320 1_555
Cl11 Zr24 2.527013 1_545
Cl12 Zr12 2.514791 1_565
Cl12 Zr7 2.515673 1_454
Cl13 Zr43 2.624237 1_555
Cl13 Zr32 2.624237 1_555
Cl14 Zr36 2.514786 1_655
Cl14 Zr9 2.515675 1_555
Cl15 Zr38 2.514791 1_555
Cl15 Zr10 2.515673 1_454
Cl16 Zr37 2.514773 1_555
Cl16 Zr11 2.515666 1_455
Cl17 Zr8 2.514791 1_455
Cl17 Zr12 2.515673 1_566
Cl18 Zr34 2.514791 1_555
Cl18 Zr14 2.515673 1_555
Cl19 Zr26 2.521320 1_545
Cl19 Zr1 2.527013 1_555
Cl20 Zr2 2.521320 1_555
Cl20 Zr26 2.527013 1_555
Cl21 Zr39 2.624236 1_555
Cl21 Zr5 2.624248 1_555
Cl22 Zr24 2.521320 1_555
Cl22 Zr0 2.527013 1_555
Cl23 Zr28 2.521320 1_655
Cl23 Zr27 2.527013 1_555
Cl24 Zr0 2.521320 1_545
Cl24 Zr25 2.527013 1_555
Cl25 Zr6 2.514791 1_555
Cl25 Zr13 2.515673 1_555
Cl26 Zr40 2.624236 1_555
Cl26 Zr37 2.624248 1_555
Cl27 Zr30 2.514786 1_555
Cl27 Zr15 2.515675 1_555
Cl28 Zr31 2.514773 1_555
Cl28 Zr17 2.515666 1_556
Cl29 Zr32 2.514791 1_555
Cl29 Zr16 2.515673 1_555
Cl30 Zr5 2.514773 1_555
Cl30 Zr18 2.515666 1_545
Cl31 Zr28 2.514786 1_555
Cl31 Zr20 2.515675 1_555
Cl32 Zr29 2.521320 1_555
Cl32 Zr4 2.527013 1_655
Cl33 Zr1 2.521320 1_555
Cl33 Zr2 2.527013 1_545
Cl34 Zr5 2.521320 1_655
Cl34 Zr29 2.527013 1_555
Cl35 Zr33 2.624236 1_555
Cl35 Zr2 2.624248 1_555
Cl36 Zr27 2.521320 1_555
Cl36 Zr3 2.527013 1_655
Cl37 Zr34 2.521320 1_555
Cl37 Zr33 2.527013 1_555
Cl38 Zr3 2.521320 1_555
Cl38 Zr28 2.527013 1_555
Cl39 Zr3 2.514773 1_555
Cl39 Zr19 2.515666 1_455
Cl40 Zr34 2.624236 1_555
Cl40 Zr31 2.624248 1_555
Cl41 Zr31 2.521320 1_555
Cl41 Zr30 2.527013 1_555
Cl42 Zr32 2.521320 1_555
Cl42 Zr31 2.527013 1_554
Cl43 Zr30 2.521320 1_554
Cl43 Zr32 2.527013 1_555
Cl44 Zr2 2.514773 1_555
Cl44 Zr21 2.515666 1_565
Cl45 Zr25 2.514786 1_554
Cl45 Zr23 2.515675 1_555
Cl46 Zr35 2.521320 1_555
Cl46 Zr7 2.527013 1_555
Cl47 Zr4 2.521320 1_555
Cl47 Zr5 2.527013 1_555
Cl48 Zr8 2.521320 1_555
Cl48 Zr35 2.527013 1_555
Cl49 Zr41 2.624236 1_555
Cl49 Zr3 2.624248 1_555
Cl50 Zr29 2.624237 1_555
Cl50 Zr21 2.624237 1_555
Cl51 Zr23 2.624237 1_555
Cl51 Zr27 2.624237 1_555
Cl52 Zr12 2.624236 1_555
Cl52 Zr47 2.624248 1_555
Cl53 Zr33 2.521320 1_555
Cl53 Zr6 2.527013 1_555
Cl54 Zr40 2.521320 1_555
Cl54 Zr39 2.527013 1_555
Cl55 Zr6 2.521320 1_555
Cl55 Zr34 2.527013 1_555
Cl56 Zr0 2.514773 1_555
Cl56 Zr22 2.515666 1_556
Cl57 Zr37 2.521320 1_556
Cl57 Zr36 2.527013 1_555
Cl58 Zr36 2.521320 1_555
Cl58 Zr38 2.527013 1_556
Cl59 Zr38 2.521320 1_555
Cl59 Zr37 2.527013 1_555
Cl60 Zr9 2.521320 1_555
Cl60 Zr10 2.527013 1_555
Cl61 Zr11 2.521320 1_555
Cl61 Zr9 2.527013 1_554
Cl62 Zr10 2.521320 1_554
Cl62 Zr11 2.527013 1_555
Cl63 Zr47 2.514773 1_555
Cl63 Zr25 2.515666 1_554
Cl64 Zr41 2.521320 1_555
Cl64 Zr13 2.527013 1_555
Cl65 Zr7 2.521320 1_555
Cl65 Zr8 2.527013 1_555
Cl66 Zr14 2.521320 1_555
Cl66 Zr41 2.527013 1_555
Cl67 Zr35 2.624236 1_555
Cl67 Zr0 2.624248 1_555
Cl68 Zr24 2.624237 1_555
Cl68 Zr20 2.624237 1_555
Cl69 Zr26 2.624237 1_555
Cl69 Zr18 2.624237 1_555
Cl70 Zr6 2.624236 1_555
Cl70 Zr44 2.624248 1_555
Cl71 Zr39 2.521320 1_555
Cl71 Zr12 2.527013 1_555
Cl72 Zr43 2.521320 1_555
Cl72 Zr42 2.527013 1_555
Cl73 Zr12 2.521320 1_555
Cl73 Zr40 2.527013 1_555
Cl74 Zr22 2.514786 1_556
Cl74 Zr24 2.515675 1_555
Cl75 Zr45 2.514773 1_555
Cl75 Zr26 2.515666 1_545
Cl76 Zr17 2.521320 1_556
Cl76 Zr15 2.527013 1_555
Cl77 Zr15 2.521320 1_555
Cl77 Zr16 2.527013 1_556
Cl78 Zr16 2.521320 1_555
Cl78 Zr17 2.527013 1_555
Cl79 Zr13 2.624236 1_555
Cl79 Zr16 2.624248 1_555
Cl80 Zr44 2.514773 1_555
Cl80 Zr28 2.515666 1_655
Cl81 Zr44 2.521320 1_555
Cl81 Zr19 2.527013 1_555
Cl82 Zr13 2.521320 1_555
Cl82 Zr14 2.527013 1_555
Cl83 Zr20 2.521320 1_555
Cl83 Zr44 2.527013 1_455
Cl84 Zr14 2.624236 1_555
Cl84 Zr45 2.624248 1_555
Cl85 Zr42 2.521320 1_455
Cl85 Zr18 2.527013 1_555
Cl86 Zr46 2.521320 1_555
Cl86 Zr45 2.527013 1_565
Cl87 Zr18 2.521320 1_555
Cl87 Zr43 2.527013 1_455
Cl88 Zr19 2.514786 1_555
Cl88 Zr27 2.515675 1_555
Cl89 Zr42 2.514773 1_555
Cl89 Zr29 2.515666 1_565
Cl90 Zr15 2.514791 1_555
Cl90 Zr31 2.515673 1_555
Cl91 Zr16 2.514773 1_555
Cl91 Zr30 2.515666 1_554
Cl92 Zr17 2.514786 1_555
Cl92 Zr32 2.515675 1_555
Cl93 Zr7 2.624236 1_555
Cl93 Zr10 2.624248 1_555
Cl94 Zr41 2.514791 1_555
Cl94 Zr34 2.515673 1_555
Cl95 Zr47 2.521320 1_565
Cl95 Zr22 2.527013 1_555
Cl96 Zr19 2.521320 1_455
Cl96 Zr20 2.527013 1_555
Cl97 Zr23 2.521320 1_555
Cl97 Zr47 2.527013 1_555
Cl98 Zr8 2.624236 1_555
Cl98 Zr42 2.624248 1_555
Cl99 Zr45 2.521320 1_555
Cl99 Zr21 2.527013 1_555
Cl100 Zr21 2.521320 1_565
Cl100 Zr46 2.527013 1_555
Cl101 Zr13 2.514791 1_555
Cl101 Zr33 2.515673 1_555
Cl102 Zr39 2.514791 1_655
Cl102 Zr35 2.515673 1_544
Cl103 Zr10 2.514773 1_555
Cl103 Zr36 2.515666 1_655
Cl104 Zr9 2.514791 1_555
Cl104 Zr37 2.515673 1_656
Cl105 Zr11 2.514786 1_455
Cl105 Zr38 2.515675 1_555
Cl106 Zr4 2.624237 1_555
Cl106 Zr15 2.624237 1_555
Cl107 Zr35 2.514791 1_545
Cl107 Zr40 2.515673 1_656
Cl108 Zr22 2.521320 1_555
Cl108 Zr23 2.527013 1_565
Cl109 Zr7 2.514791 1_554
Cl109 Zr39 2.515673 1_665
Cl110 Zr33 2.514791 1_555
Cl110 Zr41 2.515673 1_555
Cl111 Zr9 2.624237 1_555
Cl111 Zr1 2.624237 1_555
Cl112 Zr29 2.514786 1_565
Cl112 Zr43 2.515675 1_555
Cl113 Zr4 2.514791 1_555
Cl113 Zr42 2.515673 1_445
Cl114 Zr27 2.514791 1_555
Cl114 Zr44 2.515673 1_555
Cl115 Zr22 2.624237 1_555
Cl115 Zr17 2.624237 1_555
Cl116 Zr26 2.514786 1_555
Cl116 Zr46 2.515675 1_555
Cl117 Zr1 2.514791 1_555
Cl117 Zr45 2.515673 1_555
Cl118 Zr24 2.514791 1_555
Cl118 Zr47 2.515673 1_566
Cl119 Zr11 2.624237 1_555
Cl119 Zr19 2.624237 1_555
