# generated using pymatgen
data_H3CSN(ClO)2
_symmetry_space_group_name_H-M   'P 1'
_cell_length_a   6.40655800
_cell_length_b   9.70130700
_cell_length_c   10.01845600
_cell_angle_alpha   90.00000000
_cell_angle_beta   90.00000000
_cell_angle_gamma   90.00000000
_symmetry_Int_Tables_number   1
_chemical_formula_structural   H3CSN(ClO)2
_chemical_formula_sum   'H12 C4 S4 N4 Cl8 O8'
_cell_volume   622.66693677
_cell_formula_units_Z   4
loop_
 _symmetry_equiv_pos_site_id
 _symmetry_equiv_pos_as_xyz
  1  'x, y, z'
loop_
 _atom_site_type_symbol
 _atom_site_label
 _atom_site_symmetry_multiplicity
 _atom_site_fract_x
 _atom_site_fract_y
 _atom_site_fract_z
 _atom_site_occupancy
  H  H0  1  0.88527200  0.84382400  0.56055600  1
  H  H1  1  0.26913600  0.75000000  0.07591700  1
  H  H2  1  0.11472800  0.15617600  0.43944400  1
  H  H3  1  0.88527200  0.65617600  0.56055600  1
  H  H4  1  0.23086400  0.25000000  0.57591700  1
  H  H5  1  0.73086400  0.25000000  0.92408300  1
  H  H6  1  0.61472800  0.34382400  0.06055600  1
  H  H7  1  0.61472800  0.15617600  0.06055600  1
  H  H8  1  0.11472800  0.34382400  0.43944400  1
  H  H9  1  0.76913600  0.75000000  0.42408300  1
  H  H10  1  0.38527200  0.65617600  0.93944400  1
  H  H11  1  0.38527200  0.84382400  0.93944400  1
  C  C0  1  0.60693100  0.25000000  0.99981200  1
  C  C1  1  0.39306900  0.75000000  0.00018800  1
  C  C2  1  0.10693100  0.25000000  0.50018800  1
  C  C3  1  0.89306900  0.75000000  0.49981200  1
  S  S0  1  0.63045900  0.75000000  0.09181000  1
  S  S1  1  0.86954100  0.25000000  0.59181000  1
  S  S2  1  0.13045900  0.75000000  0.40819000  1
  S  S3  1  0.36954100  0.25000000  0.90819000  1
  N  N0  1  0.84149100  0.75000000  0.97501400  1
  N  N1  1  0.65850900  0.25000000  0.47501400  1
  N  N2  1  0.15850900  0.25000000  0.02498600  1
  N  N3  1  0.34149100  0.75000000  0.52498600  1
  Cl  Cl0  1  0.66721900  0.39755500  0.37452000  1
  Cl  Cl1  1  0.16721900  0.10244500  0.12548000  1
  Cl  Cl2  1  0.16721900  0.39755500  0.12548000  1
  Cl  Cl3  1  0.33278100  0.60244500  0.62548000  1
  Cl  Cl4  1  0.83278100  0.89755500  0.87452000  1
  Cl  Cl5  1  0.66721900  0.10244500  0.37452000  1
  Cl  Cl6  1  0.83278100  0.60244500  0.87452000  1
  Cl  Cl7  1  0.33278100  0.89755500  0.62548000  1
  O  O0  1  0.84329300  0.37895800  0.66126600  1
  O  O1  1  0.65670700  0.87895800  0.16126600  1
  O  O2  1  0.15670700  0.87895800  0.33873400  1
  O  O3  1  0.34329300  0.12104200  0.83873400  1
  O  O4  1  0.84329300  0.12104200  0.66126600  1
  O  O5  1  0.34329300  0.37895800  0.83873400  1
  O  O6  1  0.65670700  0.62104200  0.16126600  1
  O  O7  1  0.15670700  0.62104200  0.33873400  1
loop_
_geom_bond_atom_site_label_1
_geom_bond_atom_site_label_2
_geom_bond_distance
_geom_bond_site_symmetry_2
C0 H7 1.096054 1_556
C0 H6 1.096054 1_556
C0 H5 1.098188 1_555
C0 S3 1.776388 1_555
C1 H11 1.096054 1_554
C1 H10 1.096054 1_554
C1 H1 1.098188 1_555
C1 S0 1.776388 1_555
C2 H8 1.096054 1_555
C2 H2 1.096054 1_555
C2 H4 1.098188 1_555
C2 S1 1.776388 1_455
C3 H3 1.096054 1_555
C3 H0 1.096054 1_555
C3 H9 1.098188 1_555
C3 S2 1.776388 1_655
N0 S0 1.788028 1_556
N1 S1 1.788028 1_555
N2 S3 1.788028 1_554
N3 S2 1.788028 1_555
Cl0 N1 1.750964 1_555
Cl1 N2 1.750964 1_555
Cl2 N2 1.750964 1_555
Cl3 N3 1.750964 1_555
Cl4 N0 1.750964 1_555
Cl5 N1 1.750964 1_555
Cl6 N0 1.750964 1_555
Cl7 N3 1.750964 1_555
O0 S1 1.441398 1_555
O1 S0 1.441398 1_555
O2 S2 1.441398 1_555
O3 S3 1.441398 1_555
O4 S1 1.441398 1_555
O5 S3 1.441398 1_555
O6 S0 1.441398 1_555
O7 S2 1.441398 1_555
