# generated using pymatgen
data_KTe3O6F
_symmetry_space_group_name_H-M   'P 1'
_cell_length_a   7.31635250
_cell_length_b   7.31635250
_cell_length_c   7.31635343
_cell_angle_alpha   82.31706386
_cell_angle_beta   82.31706386
_cell_angle_gamma   82.31706808
_symmetry_Int_Tables_number   1
_chemical_formula_structural   KTe3O6F
_chemical_formula_sum   'K2 Te6 O12 F2'
_cell_volume   381.95351416
_cell_formula_units_Z   2
loop_
 _symmetry_equiv_pos_site_id
 _symmetry_equiv_pos_as_xyz
  1  'x, y, z'
loop_
 _atom_site_type_symbol
 _atom_site_label
 _atom_site_symmetry_multiplicity
 _atom_site_fract_x
 _atom_site_fract_y
 _atom_site_fract_z
 _atom_site_occupancy
  K  K0  1  0.15280100  0.15280100  0.15280100  1
  K  K1  1  0.84719900  0.84719900  0.84719900  1
  Te  Te0  1  0.64716400  0.87849400  0.36549000  1
  Te  Te1  1  0.12150600  0.63451000  0.35283600  1
  Te  Te2  1  0.63451000  0.35283600  0.12150600  1
  Te  Te3  1  0.87849400  0.36549000  0.64716400  1
  Te  Te4  1  0.36549000  0.64716400  0.87849400  1
  Te  Te5  1  0.35283600  0.12150600  0.63451000  1
  O  O0  1  0.95558600  0.45210500  0.34913100  1
  O  O1  1  0.34913100  0.95558600  0.45210500  1
  O  O2  1  0.54789500  0.65086900  0.04441400  1
  O  O3  1  0.45210500  0.34913100  0.95558600  1
  O  O4  1  0.65699900  0.06236400  0.14753400  1
  O  O5  1  0.14753400  0.65699900  0.06236400  1
  O  O6  1  0.06236400  0.14753400  0.65699900  1
  O  O7  1  0.04441400  0.54789500  0.65086900  1
  O  O8  1  0.34300100  0.93763600  0.85246600  1
  O  O9  1  0.93763600  0.85246600  0.34300100  1
  O  O10  1  0.85246600  0.34300100  0.93763600  1
  O  O11  1  0.65086900  0.04441400  0.54789500  1
  F  F0  1  0.65033500  0.65033500  0.65033500  1
  F  F1  1  0.34966500  0.34966500  0.34966500  1
loop_
_geom_bond_atom_site_label_1
_geom_bond_atom_site_label_2
_geom_bond_distance
_geom_bond_site_symmetry_2
K0 O3 2.895265 1_554
K0 O0 2.895265 1_455
K0 O1 2.895266 1_545
K0 O9 2.960506 1_445
K0 O10 2.960507 1_454
K0 O8 2.960507 1_544
K1 O2 2.895265 1_556
K1 O7 2.895265 1_655
K1 O11 2.895266 1_565
K1 O6 2.960506 1_665
K1 O5 2.960507 1_656
K1 O4 2.960507 1_566
O0 Te1 1.925355 1_655
O0 Te3 2.207173 1_555
O1 Te5 1.925356 1_565
O1 Te0 2.207173 1_555
O2 Te4 1.925356 1_554
O2 Te2 2.207173 1_555
O3 Te2 1.925356 1_556
O3 Te4 2.207173 1_555
O4 Te0 1.944067 1_545
O4 Te2 2.094389 1_555
O5 Te4 1.944067 1_554
O5 Te1 2.094389 1_555
O6 Te3 1.944067 1_455
O6 Te5 2.094389 1_555
O7 Te3 1.925355 1_455
O7 Te1 2.207173 1_555
O8 Te5 1.944067 1_565
O8 Te4 2.094389 1_555
O9 Te1 1.944067 1_655
O9 Te0 2.094389 1_555
O10 Te2 1.944067 1_556
O10 Te3 2.094389 1_555
O11 Te0 1.925356 1_545
O11 Te5 2.207173 1_555
F0 Te3 2.490508 1_555
F0 Te4 2.490508 1_555
F0 Te0 2.490508 1_555
F0 K1 2.808506 1_555
F1 Te1 2.490508 1_555
F1 Te2 2.490508 1_555
F1 Te5 2.490508 1_555
F1 K0 2.808506 1_555
