# generated using pymatgen
data_Pr5Ti4FeO17
_symmetry_space_group_name_H-M   'P 1'
_cell_length_a   5.54064400
_cell_length_b   7.78651600
_cell_length_c   32.15888294
_cell_angle_alpha   82.99639727
_cell_angle_beta   90.00000000
_cell_angle_gamma   90.00000000
_symmetry_Int_Tables_number   1
_chemical_formula_structural   Pr5Ti4FeO17
_chemical_formula_sum   'Pr20 Ti16 Fe4 O68'
_cell_volume   1377.05643053
_cell_formula_units_Z   4
loop_
 _symmetry_equiv_pos_site_id
 _symmetry_equiv_pos_as_xyz
  1  'x, y, z'
loop_
 _atom_site_type_symbol
 _atom_site_label
 _atom_site_symmetry_multiplicity
 _atom_site_fract_x
 _atom_site_fract_y
 _atom_site_fract_z
 _atom_site_occupancy
  Pr  Pr0  1  0.48141700  0.21124900  0.58016800  1
  Pr  Pr1  1  0.98141700  0.78875100  0.91983200  1
  Pr  Pr2  1  0.95458200  0.64546900  0.70040800  1
  Pr  Pr3  1  0.04541800  0.35453100  0.29959200  1
  Pr  Pr4  1  0.38666800  0.85650600  0.77927900  1
  Pr  Pr5  1  0.00105300  0.70114800  0.09550300  1
  Pr  Pr6  1  0.99220700  0.74541200  0.50729500  1
  Pr  Pr7  1  0.49894700  0.70114800  0.59550300  1
  Pr  Pr8  1  0.99894700  0.29885200  0.90449700  1
  Pr  Pr9  1  0.50779300  0.74541200  0.00729500  1
  Pr  Pr10  1  0.50105300  0.29885200  0.40449700  1
  Pr  Pr11  1  0.49220700  0.25458800  0.99270500  1
  Pr  Pr12  1  0.01858300  0.21124900  0.08016800  1
  Pr  Pr13  1  0.00779300  0.25458800  0.49270500  1
  Pr  Pr14  1  0.45458200  0.35453100  0.79959200  1
  Pr  Pr15  1  0.61333200  0.14349400  0.22072100  1
  Pr  Pr16  1  0.54541800  0.64546900  0.20040800  1
  Pr  Pr17  1  0.88666800  0.14349400  0.72072100  1
  Pr  Pr18  1  0.11333200  0.85650600  0.27927900  1
  Pr  Pr19  1  0.51858300  0.78875100  0.41983200  1
  Ti  Ti0  1  0.98431100  0.95486000  0.59308700  1
  Ti  Ti1  1  0.01276100  0.54615400  0.40593500  1
  Ti  Ti2  1  0.51568900  0.95486000  0.09308700  1
  Ti  Ti3  1  0.44583000  0.40906200  0.67881300  1
  Ti  Ti4  1  0.45635900  0.92401500  0.67618000  1
  Ti  Ti5  1  0.55417000  0.59093800  0.32118700  1
  Ti  Ti6  1  0.04364100  0.92401500  0.17618000  1
  Ti  Ti7  1  0.48431100  0.04514000  0.90691300  1
  Ti  Ti8  1  0.48723900  0.54615400  0.90593500  1
  Ti  Ti9  1  0.94583000  0.59093800  0.82118700  1
  Ti  Ti10  1  0.51276100  0.45384600  0.09406500  1
  Ti  Ti11  1  0.01568900  0.04514000  0.40691300  1
  Ti  Ti12  1  0.98723900  0.45384600  0.59406500  1
  Ti  Ti13  1  0.05417000  0.40906200  0.17881300  1
  Ti  Ti14  1  0.54364100  0.07598500  0.32382000  1
  Ti  Ti15  1  0.95635900  0.07598500  0.82382000  1
  Fe  Fe0  1  0.00000000  0.50000000  0.00000000  1
  Fe  Fe1  1  0.50000000  0.00000000  0.50000000  1
  Fe  Fe2  1  0.50000000  0.50000000  0.50000000  1
  Fe  Fe3  1  0.00000000  0.00000000  0.00000000  1
  O  O0  1  0.18836200  0.91793000  0.71109000  1
  O  O1  1  0.41760600  0.75166400  0.49699100  1
  O  O2  1  0.84517400  0.40684700  0.22565600  1
  O  O3  1  0.10789500  0.66293400  0.17067300  1
  O  O4  1  0.82714300  0.86762000  0.22035600  1
  O  O5  1  0.81163800  0.08207000  0.28891000  1
  O  O6  1  0.28143400  0.48802000  0.44762600  1
  O  O7  1  0.21357400  0.12753700  0.36249500  1
  O  O8  1  0.58239400  0.24833600  0.50300900  1
  O  O9  1  0.17285700  0.13238000  0.77964400  1
  O  O10  1  0.70196700  0.03660300  0.38019400  1
  O  O11  1  0.29803300  0.96339700  0.61980600  1
  O  O12  1  0.29164300  0.50844400  0.86148700  1
  O  O13  1  0.70835700  0.49155600  0.13851300  1
  O  O14  1  0.28081100  0.06463500  0.44806500  1
  O  O15  1  0.28642600  0.12753700  0.86249500  1
  O  O16  1  0.33738900  0.37012500  0.20408500  1
  O  O17  1  0.71918900  0.93536500  0.55193500  1
  O  O18  1  0.32714300  0.13238000  0.27964400  1
  O  O19  1  0.16261100  0.37012500  0.70408500  1
  O  O20  1  0.66261100  0.62987500  0.79591500  1
  O  O21  1  0.92269500  0.20438900  0.59115100  1
  O  O22  1  0.78081100  0.93536500  0.05193500  1
  O  O23  1  0.79164300  0.49155600  0.63851300  1
  O  O24  1  0.31163800  0.91793000  0.21109000  1
  O  O25  1  0.78642600  0.87246300  0.63750500  1
  O  O26  1  0.08239400  0.75166400  0.99699100  1
  O  O27  1  0.78976600  0.97290000  0.46290500  1
  O  O28  1  0.79803300  0.03660300  0.88019400  1
  O  O29  1  0.68836200  0.08207000  0.78891000  1
  O  O30  1  0.20196700  0.96339700  0.11980600  1
  O  O31  1  0.30142200  0.41759900  0.61914400  1
  O  O32  1  0.21023400  0.02710000  0.53709500  1
  O  O33  1  0.04380300  0.83494800  0.82925300  1
  O  O34  1  0.28976600  0.02710000  0.03709500  1
  O  O35  1  0.20835700  0.50844400  0.36148700  1
  O  O36  1  0.39210500  0.66293400  0.67067300  1
  O  O37  1  0.60789500  0.33706600  0.32932700  1
  O  O38  1  0.07730500  0.79561100  0.40884900  1
  O  O39  1  0.57730500  0.20438900  0.09115100  1
  O  O40  1  0.28983700  0.43677700  0.03673800  1
  O  O41  1  0.71856600  0.51198000  0.55237400  1
  O  O42  1  0.80142200  0.58240100  0.88085600  1
  O  O43  1  0.57060800  0.29099800  0.91776100  1
  O  O44  1  0.78983700  0.56322300  0.46326200  1
  O  O45  1  0.34517400  0.59315300  0.27434400  1
  O  O46  1  0.19857800  0.41759900  0.11914400  1
  O  O47  1  0.92939200  0.29099800  0.41776100  1
  O  O48  1  0.42269500  0.79561100  0.90884900  1
  O  O49  1  0.21856600  0.48802000  0.94762600  1
  O  O50  1  0.83738900  0.62987500  0.29591500  1
  O  O51  1  0.07060800  0.70900200  0.58223900  1
  O  O52  1  0.78143400  0.51198000  0.05237400  1
  O  O53  1  0.95619700  0.16505200  0.17074700  1
  O  O54  1  0.42939200  0.70900200  0.08223900  1
  O  O55  1  0.71016300  0.56322300  0.96326200  1
  O  O56  1  0.67285700  0.86762000  0.72035600  1
  O  O57  1  0.21918900  0.06463500  0.94806500  1
  O  O58  1  0.65482600  0.40684700  0.72565600  1
  O  O59  1  0.71023400  0.97290000  0.96290500  1
  O  O60  1  0.21016300  0.43677700  0.53673800  1
  O  O61  1  0.89210500  0.33706600  0.82932700  1
  O  O62  1  0.71357400  0.87246300  0.13750500  1
  O  O63  1  0.15482600  0.59315300  0.77434400  1
  O  O64  1  0.91760600  0.24833600  0.00300900  1
  O  O65  1  0.69857800  0.58240100  0.38085600  1
  O  O66  1  0.45619700  0.83494800  0.32925300  1
  O  O67  1  0.54380300  0.16505200  0.67074700  1
loop_
_geom_bond_atom_site_label_1
_geom_bond_atom_site_label_2
_geom_bond_distance
_geom_bond_site_symmetry_2
Fe0 O26 2.002874 1_554
Fe0 O64 2.002874 1_455
Fe0 O40 2.018714 1_555
Fe0 O55 2.018714 1_454
Fe0 O52 2.085751 1_455
Fe0 O49 2.085751 1_554
Fe1 O1 2.000622 1_545
Fe1 O8 2.000622 1_555
Fe1 O27 2.026476 1_545
Fe1 O32 2.026476 1_555
Fe1 O17 2.076696 1_545
Fe1 O14 2.076696 1_555
Fe2 O8 2.002874 1_555
Fe2 O1 2.002874 1_555
Fe2 O44 2.018714 1_555
Fe2 O60 2.018714 1_555
Fe2 O6 2.085751 1_555
Fe2 O41 2.085751 1_555
Fe3 O64 2.000622 1_455
Fe3 O26 2.000622 1_544
Fe3 O59 2.026476 1_444
Fe3 O34 2.026476 1_555
Fe3 O57 2.076696 1_554
Fe3 O22 2.076696 1_445
O0 Ti4 1.858631 1_555
O0 Pr4 2.447234 1_555
O0 Pr17 2.471347 1_465
O0 Pr2 2.544478 1_455
O1 Pr6 2.379835 1_455
O1 Pr19 2.525619 1_555
O2 Ti13 1.898462 1_655
O2 Pr15 2.441229 1_555
O2 Pr16 2.549911 1_555
O2 Pr3 2.610391 1_655
O3 Ti13 1.984589 1_555
O3 Ti6 2.092518 1_555
O3 Pr5 2.471295 1_555
O3 Pr16 2.603408 1_555
O4 Ti6 1.870250 1_655
O4 Pr15 2.454385 1_565
O4 Pr18 2.464243 1_655
O4 Pr16 2.472005 1_555
O5 Ti14 1.858631 1_555
O5 Pr15 2.447234 1_555
O5 Pr18 2.471347 1_645
O5 Pr3 2.544478 1_655
O6 Ti1 2.017540 1_555
O6 Pr10 2.464185 1_555
O6 Pr13 2.657344 1_555
O6 Pr19 2.738303 1_555
O7 Ti11 1.852209 1_555
O7 Ti14 2.274694 1_555
O7 Pr10 2.565224 1_555
O7 Pr3 2.685562 1_555
O8 Pr13 2.379835 1_655
O8 Pr0 2.525619 1_555
O9 Ti15 1.870250 1_455
O9 Pr4 2.454385 1_545
O9 Pr17 2.464243 1_455
O9 Pr14 2.472005 1_555
O10 Ti11 1.943728 1_655
O10 Ti14 2.003669 1_555
O10 Pr19 2.404556 1_545
O10 Pr10 2.531603 1_555
O11 Ti0 1.943728 1_455
O11 Ti4 2.003669 1_555
O11 Pr0 2.404556 1_565
O11 Pr7 2.531603 1_555
O12 Ti8 1.845594 1_555
O12 Ti9 2.358044 1_455
O12 Pr8 2.579928 1_455
O12 Pr14 2.606725 1_555
O13 Ti10 1.845594 1_555
O13 Ti13 2.358044 1_655
O13 Pr5 2.579928 1_655
O13 Pr16 2.606725 1_555
O14 Ti11 1.995302 1_555
O14 Pr10 2.480936 1_555
O14 Pr13 2.656044 1_555
O14 Pr19 2.765903 1_545
O15 Ti7 1.852209 1_555
O15 Ti15 2.274694 1_455
O15 Pr8 2.565224 1_455
O15 Pr14 2.685562 1_555
O16 Ti13 1.776171 1_555
O16 Pr15 2.346823 1_555
O16 Pr16 2.424312 1_555
O17 Ti0 1.995302 1_555
O17 Pr7 2.480936 1_555
O17 Pr6 2.656044 1_555
O17 Pr0 2.765903 1_565
O18 Ti14 1.870250 1_555
O18 Pr18 2.454385 1_545
O18 Pr15 2.464243 1_555
O18 Pr3 2.472005 1_555
O19 Ti3 1.776171 1_555
O19 Pr17 2.346823 1_455
O19 Pr2 2.424312 1_455
O20 Ti9 1.776171 1_555
O20 Pr4 2.346823 1_555
O20 Pr14 2.424312 1_555
O21 Ti0 1.966221 1_545
O21 Ti12 1.988462 1_555
O21 Pr0 2.469991 1_555
O21 Pr0 3.115483 1_655
O22 Ti2 1.995302 1_555
O22 Pr5 2.480936 1_655
O22 Pr9 2.656044 1_555
O22 Pr12 2.765903 1_665
O23 Ti12 1.845594 1_555
O23 Ti3 2.358044 1_555
O23 Pr7 2.579928 1_555
O23 Pr2 2.606725 1_555
O24 Ti6 1.858631 1_555
O24 Pr18 2.447234 1_555
O24 Pr15 2.471347 1_565
O24 Pr16 2.544478 1_555
O25 Ti0 1.852209 1_555
O25 Ti4 2.274694 1_555
O25 Pr7 2.565224 1_555
O25 Pr2 2.685562 1_555
O26 Pr9 2.379835 1_556
O26 Pr1 2.525619 1_455
O27 Ti11 2.208758 1_665
O27 Pr6 2.411836 1_555
O27 Pr19 2.591656 1_555
O27 Pr13 2.775095 1_665
O28 Ti7 1.943728 1_555
O28 Ti15 2.003669 1_555
O28 Pr1 2.404556 1_545
O28 Pr8 2.531603 1_555
O29 Ti15 1.858631 1_555
O29 Pr17 2.447234 1_555
O29 Pr4 2.471347 1_545
O29 Pr14 2.544478 1_555
O30 Ti2 1.943728 1_555
O30 Ti6 2.003669 1_555
O30 Pr12 2.404556 1_565
O30 Pr5 2.531603 1_555
O31 Ti12 1.924815 1_455
O31 Ti3 2.072589 1_555
O31 Pr0 2.374536 1_555
O31 Pr7 2.498210 1_555
O32 Ti0 2.208758 1_445
O32 Pr13 2.411836 1_555
O32 Pr0 2.591656 1_555
O32 Pr6 2.775095 1_445
O33 Ti15 1.925570 1_465
O33 Ti9 2.022892 1_455
O33 Pr4 2.480730 1_555
O33 Pr1 2.911778 1_455
O34 Ti2 2.208758 1_545
O34 Pr11 2.411836 1_554
O34 Pr12 2.591656 1_555
O34 Pr9 2.775095 1_545
O35 Ti1 1.845594 1_555
O35 Ti5 2.358044 1_555
O35 Pr10 2.579928 1_555
O35 Pr3 2.606725 1_555
O36 Ti3 1.984589 1_555
O36 Ti4 2.092518 1_555
O36 Pr7 2.471295 1_555
O36 Pr2 2.603408 1_455
O37 Ti5 1.984589 1_555
O37 Ti14 2.092518 1_555
O37 Pr10 2.471295 1_555
O37 Pr3 2.603408 1_655
O38 Ti11 1.966221 1_565
O38 Ti1 1.988462 1_555
O38 Pr19 2.469991 1_555
O38 Pr19 3.115483 1_455
O39 Ti2 1.966221 1_545
O39 Ti10 1.988462 1_555
O39 Pr12 2.469991 1_655
O39 Pr12 3.115483 1_555
O40 Ti10 2.236460 1_555
O40 Pr11 2.400997 1_554
O40 Pr12 2.587495 1_555
O40 Pr9 2.752325 1_555
O41 Ti12 2.017540 1_555
O41 Pr7 2.464185 1_555
O41 Pr6 2.657344 1_555
O41 Pr0 2.738303 1_555
O42 Ti8 1.924815 1_555
O42 Ti9 2.072589 1_555
O42 Pr1 2.374536 1_555
O42 Pr8 2.498210 1_555
O43 Ti8 2.030030 1_555
O43 Ti7 2.044022 1_555
O43 Pr8 2.410759 1_555
O43 Pr11 2.431275 1_555
O44 Ti1 2.236460 1_655
O44 Pr6 2.400997 1_555
O44 Pr19 2.587495 1_555
O44 Pr13 2.752325 1_655
O45 Ti5 1.898462 1_555
O45 Pr18 2.441229 1_555
O45 Pr3 2.549911 1_555
O45 Pr16 2.610391 1_555
O46 Ti10 1.924815 1_555
O46 Ti13 2.072589 1_555
O46 Pr12 2.374536 1_555
O46 Pr5 2.498210 1_555
O47 Ti1 2.030030 1_655
O47 Ti11 2.044022 1_655
O47 Pr10 2.410759 1_555
O47 Pr13 2.431275 1_655
O48 Ti7 1.966221 1_565
O48 Ti8 1.988462 1_555
O48 Pr1 2.469991 1_455
O48 Pr1 3.115483 1_555
O49 Ti8 2.017540 1_555
O49 Pr8 2.464185 1_455
O49 Pr11 2.657344 1_555
O49 Pr1 2.738303 1_455
O50 Ti5 1.776171 1_555
O50 Pr18 2.346823 1_655
O50 Pr3 2.424312 1_655
O51 Ti12 2.030030 1_455
O51 Ti0 2.044022 1_455
O51 Pr7 2.410759 1_555
O51 Pr6 2.431275 1_455
O52 Ti10 2.017540 1_555
O52 Pr5 2.464185 1_655
O52 Pr9 2.657344 1_555
O52 Pr12 2.738303 1_655
O53 Ti6 1.925570 1_645
O53 Ti13 2.022892 1_655
O53 Pr15 2.480730 1_555
O53 Pr12 2.911778 1_655
O54 Ti10 2.030030 1_555
O54 Ti2 2.044022 1_555
O54 Pr5 2.410759 1_555
O54 Pr9 2.431275 1_555
O55 Ti8 2.236460 1_555
O55 Pr9 2.400997 1_556
O55 Pr1 2.587495 1_555
O55 Pr11 2.752325 1_555
O56 Ti4 1.870250 1_555
O56 Pr17 2.454385 1_565
O56 Pr4 2.464243 1_555
O56 Pr2 2.472005 1_555
O57 Ti7 1.995302 1_555
O57 Pr8 2.480936 1_455
O57 Pr11 2.656044 1_555
O57 Pr1 2.765903 1_445
O58 Ti3 1.898462 1_555
O58 Pr17 2.441229 1_555
O58 Pr2 2.549911 1_555
O58 Pr14 2.610391 1_555
O59 Ti7 2.208758 1_565
O59 Pr9 2.411836 1_556
O59 Pr1 2.591656 1_555
O59 Pr11 2.775095 1_565
O60 Ti12 2.236460 1_455
O60 Pr13 2.400997 1_555
O60 Pr0 2.587495 1_555
O60 Pr6 2.752325 1_455
O61 Ti9 1.984589 1_555
O61 Ti15 2.092518 1_555
O61 Pr8 2.471295 1_555
O61 Pr14 2.603408 1_555
O62 Ti2 1.852209 1_555
O62 Ti6 2.274694 1_655
O62 Pr5 2.565224 1_655
O62 Pr16 2.685562 1_555
O63 Ti9 1.898462 1_455
O63 Pr4 2.441229 1_555
O63 Pr14 2.549911 1_555
O63 Pr2 2.610391 1_455
O64 Pr11 2.379835 1_554
O64 Pr12 2.525619 1_655
O65 Ti1 1.924815 1_655
O65 Ti5 2.072589 1_555
O65 Pr19 2.374536 1_555
O65 Pr10 2.498210 1_555
O66 Ti14 1.925570 1_565
O66 Ti5 2.022892 1_555
O66 Pr18 2.480730 1_555
O66 Pr19 2.911778 1_555
O67 Ti4 1.925570 1_545
O67 Ti3 2.022892 1_555
O67 Pr17 2.480730 1_555
O67 Pr0 2.911778 1_555
