# generated using pymatgen
data_Zr3Al3C5
_symmetry_space_group_name_H-M   'P 1'
_cell_length_a   3.31038878
_cell_length_b   3.31038878
_cell_length_c   29.40013400
_cell_angle_alpha   90.00000000
_cell_angle_beta   90.00000000
_cell_angle_gamma   120.00001550
_symmetry_Int_Tables_number   1
_chemical_formula_structural   Zr3Al3C5
_chemical_formula_sum   'Zr6 Al6 C10'
_cell_volume   279.02163244
_cell_formula_units_Z   2
loop_
 _symmetry_equiv_pos_site_id
 _symmetry_equiv_pos_as_xyz
  1  'x, y, z'
loop_
 _atom_site_type_symbol
 _atom_site_label
 _atom_site_symmetry_multiplicity
 _atom_site_fract_x
 _atom_site_fract_y
 _atom_site_fract_z
 _atom_site_occupancy
  Zr  Zr0  1  0.00000000  0.00000000  0.00000000  1
  Zr  Zr1  1  0.66666700  0.33333300  0.09049300  1
  Zr  Zr2  1  0.33333300  0.66666700  0.90950700  1
  Zr  Zr3  1  0.33333300  0.66666700  0.59049300  1
  Zr  Zr4  1  0.66666700  0.33333300  0.40950700  1
  Zr  Zr5  1  0.00000000  0.00000000  0.50000000  1
  Al  Al0  1  0.66666700  0.33333300  0.32125500  1
  Al  Al1  1  0.33333300  0.66666700  0.82125500  1
  Al  Al2  1  0.66666700  0.33333300  0.17874500  1
  Al  Al3  1  0.33333300  0.66666700  0.67874500  1
  Al  Al4  1  0.00000000  0.00000000  0.75000000  1
  Al  Al5  1  0.00000000  0.00000000  0.25000000  1
  C  C0  1  0.00000000  0.00000000  0.35025500  1
  C  C1  1  0.00000000  0.00000000  0.85025500  1
  C  C2  1  0.33333300  0.66666700  0.45216000  1
  C  C3  1  0.66666700  0.33333300  0.54784000  1
  C  C4  1  0.66666700  0.33333300  0.95216000  1
  C  C5  1  0.00000000  0.00000000  0.14974500  1
  C  C6  1  0.00000000  0.00000000  0.64974500  1
  C  C7  1  0.33333300  0.66666700  0.04784000  1
  C  C8  1  0.66666700  0.33333300  0.75000000  1
  C  C9  1  0.33333300  0.66666700  0.25000000  1
loop_
_geom_bond_atom_site_label_1
_geom_bond_atom_site_label_2
_geom_bond_distance
_geom_bond_site_symmetry_2
Al0 C0 2.092801 1_655
Al0 C0 2.092804 1_555
Al0 C0 2.092804 1_665
Al1 C1 2.092801 1_565
Al1 C1 2.092804 1_665
Al1 C1 2.092804 1_555
Al2 C5 2.092801 1_655
Al2 C5 2.092804 1_555
Al2 C5 2.092804 1_665
Al3 C6 2.092801 1_565
Al3 C6 2.092804 1_665
Al3 C6 2.092804 1_555
Al4 C8 1.911252 1_455
Al4 C8 1.911255 1_445
Al4 C8 1.911255 1_555
Al5 C9 1.911252 1_545
Al5 C9 1.911255 1_445
Al5 C9 1.911255 1_555
C0 Zr4 2.586021 1_455
C0 Zr4 2.586023 1_445
C0 Zr4 2.586023 1_555
C1 Zr2 2.586021 1_545
C1 Zr2 2.586023 1_555
C1 Zr2 2.586023 1_445
C2 Zr4 2.285915 1_565
C2 Zr4 2.285915 1_455
C2 Zr4 2.285920 1_555
C2 Zr5 2.373001 1_565
C2 Zr5 2.373003 1_555
C2 Zr5 2.373003 1_665
C3 Zr3 2.285915 1_545
C3 Zr3 2.285915 1_655
C3 Zr3 2.285920 1_555
C3 Zr5 2.373001 1_655
C3 Zr5 2.373003 1_665
C3 Zr5 2.373003 1_555
C4 Zr2 2.285915 1_545
C4 Zr2 2.285915 1_655
C4 Zr2 2.285920 1_555
C4 Zr0 2.373001 1_656
C4 Zr0 2.373003 1_666
C4 Zr0 2.373003 1_556
C5 Zr1 2.586021 1_455
C5 Zr1 2.586023 1_445
C5 Zr1 2.586023 1_555
C6 Zr3 2.586021 1_545
C6 Zr3 2.586023 1_445
C6 Zr3 2.586023 1_555
C7 Zr1 2.285915 1_455
C7 Zr1 2.285915 1_565
C7 Zr1 2.285920 1_555
C7 Zr0 2.373001 1_565
C7 Zr0 2.373003 1_665
C7 Zr0 2.373003 1_555
