# generated using pymatgen
data_ZrO2
_symmetry_space_group_name_H-M   'P 1'
_cell_length_a   5.07466648
_cell_length_b   5.10110803
_cell_length_c   5.28340254
_cell_angle_alpha   90.00000000
_cell_angle_beta   90.00000000
_cell_angle_gamma   90.00000000
_symmetry_Int_Tables_number   1
_chemical_formula_structural   ZrO2
_chemical_formula_sum   'Zr4 O8'
_cell_volume   136.76838738
_cell_formula_units_Z   4
loop_
 _symmetry_equiv_pos_site_id
 _symmetry_equiv_pos_as_xyz
  1  'x, y, z'
loop_
 _atom_site_type_symbol
 _atom_site_label
 _atom_site_symmetry_multiplicity
 _atom_site_fract_x
 _atom_site_fract_y
 _atom_site_fract_z
 _atom_site_occupancy
  Zr  Zr0  1  0.73353745  0.74905537  0.03027406  1
  Zr  Zr1  1  0.26646255  0.74905537  0.53027406  1
  Zr  Zr2  1  0.26646255  0.24905537  0.96972594  1
  Zr  Zr3  1  0.73353745  0.24905537  0.46972594  1
  O  O0  1  0.46329811  0.50083504  0.22987690  1
  O  O1  1  0.93263965  0.60611058  0.36503085  1
  O  O2  1  0.06736035  0.60611058  0.86503085  1
  O  O3  1  0.53670189  0.50083504  0.72987690  1
  O  O4  1  0.93263965  0.10611058  0.13496915  1
  O  O5  1  0.53670189  0.00083504  0.77012310  1
  O  O6  1  0.06736035  0.10611058  0.63496915  1
  O  O7  1  0.46329811  0.00083504  0.27012310  1
loop_
_geom_bond_atom_site_label_1
_geom_bond_atom_site_label_2
_geom_bond_distance
_geom_bond_site_symmetry_2
O0 Zr2 2.129911 1_554
O0 Zr0 2.143845 1_555
O0 Zr1 2.262732 1_555
O0 Zr3 2.266292 1_555
O1 Zr1 2.040510 1_655
O1 Zr3 2.155052 1_555
O1 Zr0 2.163493 1_555
O2 Zr0 2.040510 1_456
O2 Zr2 2.155052 1_555
O2 Zr1 2.163493 1_555
O3 Zr3 2.129911 1_555
O3 Zr1 2.143845 1_555
O3 Zr0 2.262732 1_556
O3 Zr2 2.266292 1_555
O4 Zr2 2.040510 1_654
O4 Zr0 2.155052 1_545
O4 Zr3 2.163493 1_555
O5 Zr0 2.129911 1_546
O5 Zr2 2.143845 1_555
O5 Zr3 2.262732 1_555
O5 Zr1 2.266292 1_545
O6 Zr3 2.040510 1_455
O6 Zr1 2.155052 1_545
O6 Zr2 2.163493 1_555
O7 Zr1 2.129911 1_545
O7 Zr3 2.143845 1_555
O7 Zr2 2.262732 1_554
O7 Zr0 2.266292 1_545
