# generated using pymatgen
data_LaMnO3
_symmetry_space_group_name_H-M   'P 1'
_cell_length_a   5.97148532
_cell_length_b   5.43342909
_cell_length_c   10.41317900
_cell_angle_alpha   90.00000000
_cell_angle_beta   90.00000000
_cell_angle_gamma   61.57895617
_symmetry_Int_Tables_number   1
_chemical_formula_structural   LaMnO3
_chemical_formula_sum   'La4 Mn4 O12'
_cell_volume   297.14103004
_cell_formula_units_Z   4
loop_
 _symmetry_equiv_pos_site_id
 _symmetry_equiv_pos_as_xyz
  1  'x, y, z'
loop_
 _atom_site_type_symbol
 _atom_site_label
 _atom_site_symmetry_multiplicity
 _atom_site_fract_x
 _atom_site_fract_y
 _atom_site_fract_z
 _atom_site_occupancy
  La  La0  1  0.47605700  0.01831500  0.32822900  1
  La  La1  1  0.02394300  0.98168500  0.82822900  1
  La  La2  1  0.97605700  0.01831500  0.17177100  1
  La  La3  1  0.52394300  0.98168500  0.67177100  1
  Mn  Mn0  1  0.00000000  0.00000000  0.50000000  1
  Mn  Mn1  1  0.00000000  0.50000000  0.00000000  1
  Mn  Mn2  1  0.50000000  0.00000000  0.00000000  1
  Mn  Mn3  1  0.50000000  0.50000000  0.50000000  1
  O  O0  1  0.75212400  0.25244100  0.62191100  1
  O  O1  1  0.80088600  0.71189400  0.85758000  1
  O  O2  1  0.72813500  0.17861100  0.99334800  1
  O  O3  1  0.24787600  0.74755900  0.37808900  1
  O  O4  1  0.19911400  0.28810600  0.14242000  1
  O  O5  1  0.77186500  0.82138900  0.49334800  1
  O  O6  1  0.25212400  0.25244100  0.87808900  1
  O  O7  1  0.30088600  0.71189400  0.64242000  1
  O  O8  1  0.27186500  0.82138900  0.00665200  1
  O  O9  1  0.22813500  0.17861100  0.50665200  1
  O  O10  1  0.74787600  0.74755900  0.12191100  1
  O  O11  1  0.69911400  0.28810600  0.35758000  1
loop_
_geom_bond_atom_site_label_1
_geom_bond_atom_site_label_2
_geom_bond_distance
_geom_bond_site_symmetry_2
La0 O9 2.274846 1_555
La0 O5 2.328594 1_545
La0 O11 2.423847 1_555
La0 O3 2.489685 1_545
La0 O4 2.513929 1_555
La0 O10 2.672379 1_545
La1 O8 2.274846 1_556
La1 O2 2.328594 1_465
La1 O1 2.423847 1_455
La1 O6 2.489685 1_565
La1 O7 2.513929 1_555
La1 O0 2.672379 1_465
La2 O2 2.274846 1_554
La2 O8 2.328594 1_645
La2 O4 2.423847 1_655
La2 O10 2.489685 1_545
La2 O11 2.513929 1_555
La2 O3 2.672379 1_645
La3 O5 2.274846 1_555
La3 O9 2.328594 1_565
La3 O7 2.423847 1_555
La3 O0 2.489685 1_565
La3 O1 2.513929 1_555
La3 O6 2.672379 1_565
Mn0 O3 1.936825 1_545
Mn0 O0 1.936825 1_455
Mn0 O5 2.015183 1_445
Mn0 O9 2.015183 1_555
Mn0 O11 2.280539 1_455
Mn0 O7 2.280539 1_545
Mn1 O1 1.906728 1_454
Mn1 O4 1.906728 1_555
Mn1 O6 1.939036 1_554
Mn1 O10 1.939036 1_455
Mn2 O6 1.936825 1_554
Mn2 O10 1.936825 1_545
Mn2 O2 2.015183 1_554
Mn2 O8 2.015183 1_545
Mn2 O4 2.280539 1_555
Mn2 O1 2.280539 1_544
Mn3 O7 1.906728 1_555
Mn3 O11 1.906728 1_555
Mn3 O0 1.939036 1_555
Mn3 O3 1.939036 1_555
