# generated using pymatgen
data_Li2Ca2Si5O13
_symmetry_space_group_name_H-M   'P 1'
_cell_length_a   7.58673900
_cell_length_b   7.85068355
_cell_length_c   10.30638509
_cell_angle_alpha   83.21769583
_cell_angle_beta   68.82669943
_cell_angle_gamma   75.76770662
_symmetry_Int_Tables_number   1
_chemical_formula_structural   Li2Ca2Si5O13
_chemical_formula_sum   'Li4 Ca4 Si10 O26'
_cell_volume   554.55836050
_cell_formula_units_Z   2
loop_
 _symmetry_equiv_pos_site_id
 _symmetry_equiv_pos_as_xyz
  1  'x, y, z'
loop_
 _atom_site_type_symbol
 _atom_site_label
 _atom_site_symmetry_multiplicity
 _atom_site_fract_x
 _atom_site_fract_y
 _atom_site_fract_z
 _atom_site_occupancy
  Li  Li0  1  0.16227000  0.40749300  0.74767700  1
  Li  Li1  1  0.83773000  0.59250700  0.25232300  1
  Li  Li2  1  0.17738700  0.07827100  0.87266000  1
  Li  Li3  1  0.82261300  0.92172900  0.12734000  1
  Ca  Ca0  1  0.45094500  0.85244600  0.39127900  1
  Ca  Ca1  1  0.54905500  0.14755400  0.60872100  1
  Ca  Ca2  1  0.97610800  0.83295300  0.39399000  1
  Ca  Ca3  1  0.02389200  0.16704700  0.60601000  1
  Si  Si0  1  0.73526200  0.23194400  0.26605100  1
  Si  Si1  1  0.63563300  0.69887000  0.03887300  1
  Si  Si2  1  0.78210500  0.30756900  0.96209100  1
  Si  Si3  1  0.26473800  0.76805600  0.73394900  1
  Si  Si4  1  0.68476300  0.55080500  0.59186800  1
  Si  Si5  1  0.36436700  0.30113000  0.96112700  1
  Si  Si6  1  0.31523700  0.44919500  0.40813200  1
  Si  Si7  1  0.85392000  0.77142100  0.73603500  1
  Si  Si8  1  0.14608000  0.22857900  0.26396500  1
  Si  Si9  1  0.21789500  0.69243100  0.03790900  1
  O  O0  1  0.28897900  0.17846300  0.10362900  1
  O  O1  1  0.77890100  0.50196400  0.00664500  1
  O  O2  1  0.07653900  0.69143500  0.74116900  1
  O  O3  1  0.29769600  0.94241000  0.63596600  1
  O  O4  1  0.74585600  0.34045000  0.57743500  1
  O  O5  1  0.78159200  0.17541900  0.10322900  1
  O  O6  1  0.65275100  0.77441300  0.17073500  1
  O  O7  1  0.34724900  0.22558700  0.82926500  1
  O  O8  1  0.92346100  0.30856500  0.25883100  1
  O  O9  1  0.02804900  0.76440400  0.16734600  1
  O  O10  1  0.84120500  0.94163000  0.63194800  1
  O  O11  1  0.70230400  0.05759000  0.36403400  1
  O  O12  1  0.71102100  0.82153700  0.89637100  1
  O  O13  1  0.25414400  0.65955000  0.42256500  1
  O  O14  1  0.97195100  0.23559600  0.83265400  1
  O  O15  1  0.21840800  0.82458100  0.89677100  1
  O  O16  1  0.41427200  0.68815600  0.06715300  1
  O  O17  1  0.19602200  0.39460800  0.31623000  1
  O  O18  1  0.44913900  0.60214800  0.68863800  1
  O  O19  1  0.15879500  0.05837000  0.36805200  1
  O  O20  1  0.80397800  0.60539200  0.68377000  1
  O  O21  1  0.58572800  0.31184400  0.93284700  1
  O  O22  1  0.27715300  0.32916200  0.55189800  1
  O  O23  1  0.72284700  0.67083800  0.44810200  1
  O  O24  1  0.55086100  0.39785200  0.31136200  1
  O  O25  1  0.22109900  0.49803600  0.99335500  1
loop_
_geom_bond_atom_site_label_1
_geom_bond_atom_site_label_2
_geom_bond_distance
_geom_bond_site_symmetry_2
Li0 O22 1.992071 1_555
Li0 O7 2.073493 1_555
Li0 O14 2.106778 1_455
Li0 O2 2.163305 1_555
Li1 O23 1.992071 1_555
Li1 O6 2.073493 1_555
Li1 O9 2.106778 1_655
Li1 O8 2.163305 1_555
Li2 O7 1.841918 1_555
Li2 O14 1.876724 1_455
Li2 O15 1.938925 1_545
Li2 O3 2.539511 1_545
Li3 O6 1.841918 1_555
Li3 O9 1.876724 1_655
Li3 O5 1.938925 1_565
Li3 O11 2.539511 1_565
Ca0 O6 2.289048 1_555
Ca0 O13 2.296786 1_555
Ca0 O23 2.420826 1_555
Ca0 O3 2.471669 1_555
Ca0 O19 2.472558 1_565
Ca0 O11 2.706618 1_565
Ca1 O7 2.289048 1_555
Ca1 O4 2.296786 1_555
Ca1 O22 2.420826 1_555
Ca1 O11 2.471669 1_555
Ca1 O10 2.472558 1_545
Ca1 O3 2.706618 1_545
Ca2 O13 2.309017 1_655
Ca2 O9 2.330007 1_655
Ca2 O23 2.425572 1_555
Ca2 O19 2.439440 1_665
Ca2 O10 2.457999 1_555
Ca2 O11 2.460467 1_565
Ca3 O4 2.309017 1_455
Ca3 O14 2.330007 1_455
Ca3 O22 2.425572 1_555
Ca3 O10 2.439440 1_445
Ca3 O19 2.457999 1_555
Ca3 O3 2.460467 1_545
O0 Si8 1.646368 1_555
O0 Si5 1.655752 1_554
O1 Si2 1.636994 1_554
O1 Si1 1.647935 1_555
O2 Si3 1.655603 1_555
O2 Si7 1.668800 1_455
O3 Si3 1.617197 1_555
O4 Si4 1.611219 1_555
O5 Si0 1.676190 1_555
O5 Si2 1.683369 1_554
O6 Si1 1.603517 1_555
O7 Si5 1.603517 1_555
O8 Si0 1.655603 1_555
O8 Si8 1.668800 1_655
O9 Si9 1.601023 1_555
O10 Si7 1.618177 1_555
O11 Si0 1.617197 1_555
O12 Si7 1.646368 1_555
O12 Si1 1.655752 1_556
O13 Si6 1.611219 1_555
O14 Si2 1.601023 1_555
O15 Si3 1.676190 1_555
O15 Si9 1.683369 1_556
O16 Si9 1.615258 1_555
O16 Si1 1.619416 1_555
O17 Si8 1.639753 1_555
O17 Si6 1.674556 1_555
O18 Si3 1.627116 1_555
O18 Si4 1.674960 1_555
O19 Si8 1.618177 1_555
O20 Si7 1.639753 1_555
O20 Si4 1.674556 1_555
O21 Si2 1.615258 1_555
O21 Si5 1.619416 1_555
O22 Si6 1.631494 1_555
O23 Si4 1.631494 1_555
O24 Si0 1.627116 1_555
O24 Si6 1.674960 1_555
O25 Si9 1.636994 1_556
O25 Si5 1.647935 1_555
