# generated using pymatgen
data_As3Pb2ClO6
_symmetry_space_group_name_H-M   'P 1'
_cell_length_a   5.46680200
_cell_length_b   8.40169900
_cell_length_c   19.93165100
_cell_angle_alpha   90.00000000
_cell_angle_beta   90.00000000
_cell_angle_gamma   90.00000000
_symmetry_Int_Tables_number   1
_chemical_formula_structural   As3Pb2ClO6
_chemical_formula_sum   'As12 Pb8 Cl4 O24'
_cell_volume   915.46919932
_cell_formula_units_Z   4
loop_
 _symmetry_equiv_pos_site_id
 _symmetry_equiv_pos_as_xyz
  1  'x, y, z'
loop_
 _atom_site_type_symbol
 _atom_site_label
 _atom_site_symmetry_multiplicity
 _atom_site_fract_x
 _atom_site_fract_y
 _atom_site_fract_z
 _atom_site_occupancy
  As  As0  1  0.75000000  0.96048800  0.17708100  1
  As  As1  1  0.25000000  0.68764000  0.45606000  1
  As  As2  1  0.75000000  0.23973200  0.83285400  1
  As  As3  1  0.25000000  0.46048800  0.32291900  1
  As  As4  1  0.25000000  0.76026800  0.16714600  1
  As  As5  1  0.25000000  0.81236000  0.95606000  1
  As  As6  1  0.75000000  0.53951200  0.67708100  1
  As  As7  1  0.75000000  0.31236000  0.54394000  1
  As  As8  1  0.75000000  0.26026800  0.33285400  1
  As  As9  1  0.25000000  0.03951200  0.82291900  1
  As  As10  1  0.75000000  0.18764000  0.04394000  1
  As  As11  1  0.25000000  0.73973200  0.66714600  1
  Pb  Pb0  1  0.25000000  0.15635800  0.64126100  1
  Pb  Pb1  1  0.75000000  0.61039900  0.05871700  1
  Pb  Pb2  1  0.25000000  0.38960100  0.94128300  1
  Pb  Pb3  1  0.75000000  0.84364200  0.35873900  1
  Pb  Pb4  1  0.25000000  0.34364200  0.14126100  1
  Pb  Pb5  1  0.75000000  0.65635800  0.85873900  1
  Pb  Pb6  1  0.25000000  0.11039900  0.44128300  1
  Pb  Pb7  1  0.75000000  0.88960100  0.55871700  1
  Cl  Cl0  1  0.75000000  0.95176000  0.71297100  1
  Cl  Cl1  1  0.75000000  0.54824000  0.21297100  1
  Cl  Cl2  1  0.25000000  0.45176000  0.78702900  1
  Cl  Cl3  1  0.25000000  0.04824000  0.28702900  1
  O  O0  1  0.50857700  0.16772600  0.54645200  1
  O  O1  1  0.00857700  0.66772600  0.95354800  1
  O  O2  1  0.25000000  0.60781800  0.10536600  1
  O  O3  1  0.00334700  0.12501900  0.87448200  1
  O  O4  1  0.75000000  0.34543700  0.63761100  1
  O  O5  1  0.25000000  0.65456300  0.36238900  1
  O  O6  1  0.25000000  0.84543700  0.86238900  1
  O  O7  1  0.00857700  0.83227400  0.45354800  1
  O  O8  1  0.50334700  0.87498100  0.12551800  1
  O  O9  1  0.25000000  0.89218200  0.60536600  1
  O  O10  1  0.99142300  0.33227400  0.04645200  1
  O  O11  1  0.75000000  0.15456300  0.13761100  1
  O  O12  1  0.49142300  0.66772600  0.95354800  1
  O  O13  1  0.99665300  0.87498100  0.12551800  1
  O  O14  1  0.49665300  0.37498100  0.37448200  1
  O  O15  1  0.75000000  0.10781800  0.39463400  1
  O  O16  1  0.99665300  0.62501900  0.62551800  1
  O  O17  1  0.99142300  0.16772600  0.54645200  1
  O  O18  1  0.49142300  0.83227400  0.45354800  1
  O  O19  1  0.50857700  0.33227400  0.04645200  1
  O  O20  1  0.00334700  0.37498100  0.37448200  1
  O  O21  1  0.49665300  0.12501900  0.87448200  1
  O  O22  1  0.75000000  0.39218200  0.89463400  1
  O  O23  1  0.50334700  0.62501900  0.62551800  1
loop_
_geom_bond_atom_site_label_1
_geom_bond_atom_site_label_2
_geom_bond_distance
_geom_bond_site_symmetry_2
As0 O11 1.810421 1_565
As0 O13 1.841341 1_555
As0 O8 1.841341 1_555
As1 O18 1.794729 1_555
As1 O7 1.794729 1_555
As1 O5 1.887587 1_555
As2 O22 1.776750 1_555
As2 O3 1.880299 1_655
As2 O21 1.880299 1_555
As3 O5 1.810421 1_555
As3 O14 1.841341 1_555
As3 O20 1.841341 1_555
As4 O2 1.776750 1_555
As4 O8 1.880299 1_555
As4 O13 1.880299 1_455
As5 O1 1.794729 1_555
As5 O12 1.794729 1_555
As5 O6 1.887587 1_555
As6 O4 1.810421 1_555
As6 O16 1.841341 1_555
As6 O23 1.841341 1_555
As7 O17 1.794729 1_555
As7 O0 1.794729 1_555
As7 O4 1.887587 1_555
As8 O15 1.776750 1_555
As8 O20 1.880299 1_655
As8 O14 1.880299 1_555
As9 O6 1.810421 1_545
As9 O21 1.841341 1_555
As9 O3 1.841341 1_555
As10 O10 1.794729 1_555
As10 O19 1.794729 1_555
As10 O11 1.887587 1_555
As11 O9 1.776750 1_555
As11 O23 1.880299 1_555
As11 O16 1.880299 1_455
Cl0 Pb7 3.118575 1_555
Cl1 Pb1 3.118575 1_555
Cl2 Pb2 3.118575 1_555
Cl3 Pb6 3.118575 1_555
O0 Pb0 2.361847 1_555
O0 Pb6 2.573759 1_555
O0 Pb7 2.694798 1_545
O1 Pb5 2.361847 1_455
O1 Pb1 2.573759 1_456
O1 Pb2 2.694798 1_555
O2 Pb4 2.331987 1_555
O7 Pb3 2.361847 1_455
O7 Pb7 2.573759 1_455
O7 Pb6 2.694798 1_565
O9 Pb0 2.331987 1_565
O10 Pb4 2.361847 1_655
O10 Pb2 2.573759 1_654
O10 Pb1 2.694798 1_555
O12 Pb5 2.361847 1_555
O12 Pb1 2.573759 1_556
O12 Pb2 2.694798 1_555
O15 Pb3 2.331987 1_545
O17 Pb0 2.361847 1_655
O17 Pb6 2.573759 1_655
O17 Pb7 2.694798 1_545
O18 Pb3 2.361847 1_555
O18 Pb7 2.573759 1_555
O18 Pb6 2.694798 1_565
O19 Pb4 2.361847 1_555
O19 Pb2 2.573759 1_554
O19 Pb1 2.694798 1_555
O22 Pb5 2.331987 1_555
