# generated using pymatgen
data_RbSiBiS4
_symmetry_space_group_name_H-M   'P 1'
_cell_length_a   6.89040500
_cell_length_b   6.58470600
_cell_length_c   18.19786149
_cell_angle_alpha   72.01593433
_cell_angle_beta   90.00000000
_cell_angle_gamma   90.00000000
_symmetry_Int_Tables_number   1
_chemical_formula_structural   RbSiBiS4
_chemical_formula_sum   'Rb4 Si4 Bi4 S16'
_cell_volume   785.32069859
_cell_formula_units_Z   4
loop_
 _symmetry_equiv_pos_site_id
 _symmetry_equiv_pos_as_xyz
  1  'x, y, z'
loop_
 _atom_site_type_symbol
 _atom_site_label
 _atom_site_symmetry_multiplicity
 _atom_site_fract_x
 _atom_site_fract_y
 _atom_site_fract_z
 _atom_site_occupancy
  Rb  Rb0  1  0.25324600  0.70978200  0.03600000  1
  Rb  Rb1  1  0.24675400  0.70978200  0.53600000  1
  Rb  Rb2  1  0.75324600  0.29021800  0.46400000  1
  Rb  Rb3  1  0.74675400  0.29021800  0.96400000  1
  Si  Si0  1  0.27082600  0.20234000  0.84062100  1
  Si  Si1  1  0.22917400  0.20234000  0.34062100  1
  Si  Si2  1  0.77082600  0.79766000  0.65937900  1
  Si  Si3  1  0.72917400  0.79766000  0.15937900  1
  Bi  Bi0  1  0.80955400  0.23915000  0.22322600  1
  Bi  Bi1  1  0.19044600  0.76085000  0.77677400  1
  Bi  Bi2  1  0.69044600  0.23915000  0.72322600  1
  Bi  Bi3  1  0.30955400  0.76085000  0.27677400  1
  S  S0  1  0.51544600  0.99092300  0.64592300  1
  S  S1  1  0.18115600  0.39772100  0.22229000  1
  S  S2  1  0.48455400  0.00907700  0.35407700  1
  S  S3  1  0.01544600  0.00907700  0.85407700  1
  S  S4  1  0.31884400  0.39772100  0.72229000  1
  S  S5  1  0.24536300  0.40864900  0.91004000  1
  S  S6  1  0.75463700  0.59135100  0.08996000  1
  S  S7  1  0.81884400  0.60227900  0.77771000  1
  S  S8  1  0.74536300  0.59135100  0.58996000  1
  S  S9  1  0.25463700  0.40864900  0.41004000  1
  S  S10  1  0.50779200  0.98670100  0.86519700  1
  S  S11  1  0.00779200  0.01329900  0.63480300  1
  S  S12  1  0.49220800  0.01329900  0.13480300  1
  S  S13  1  0.98455400  0.99092300  0.14592300  1
  S  S14  1  0.99220800  0.98670100  0.36519700  1
  S  S15  1  0.68115600  0.60227900  0.27771000  1
loop_
_geom_bond_atom_site_label_1
_geom_bond_atom_site_label_2
_geom_bond_distance
_geom_bond_site_symmetry_2
Rb0 S1 3.414695 1_555
Rb0 S5 3.463463 1_554
Rb0 S12 3.486714 1_565
Rb0 S10 3.544368 1_554
Rb0 S6 3.592073 1_455
Rb0 S6 3.610411 1_555
Rb0 S13 3.625312 1_455
Rb0 S3 3.674234 1_564
Rb1 S4 3.414695 1_555
Rb1 S9 3.463463 1_555
Rb1 S11 3.486714 1_565
Rb1 S14 3.544368 1_455
Rb1 S8 3.592073 1_555
Rb1 S8 3.610411 1_455
Rb1 S0 3.625312 1_555
Rb1 S2 3.674234 1_565
Rb2 S15 3.414695 1_555
Rb2 S8 3.463463 1_555
Rb2 S14 3.486714 1_545
Rb2 S11 3.544368 1_655
Rb2 S9 3.592073 1_555
Rb2 S9 3.610411 1_655
Rb2 S2 3.625312 1_555
Rb2 S0 3.674234 1_545
Rb3 S7 3.414695 1_555
Rb3 S6 3.463463 1_556
Rb3 S10 3.486714 1_545
Rb3 S12 3.544368 1_556
Rb3 S5 3.592073 1_655
Rb3 S5 3.610411 1_555
Rb3 S3 3.625312 1_655
Rb3 S13 3.674234 1_546
Bi0 S13 2.743063 1_545
Bi0 S1 2.763267 1_655
Bi0 S6 2.816019 1_555
Bi0 S14 2.893107 1_545
Bi0 S15 2.991167 1_555
Bi1 S3 2.743063 1_565
Bi1 S7 2.763267 1_455
Bi1 S5 2.816019 1_555
Bi1 S11 2.893107 1_565
Bi1 S4 2.991167 1_555
Bi2 S0 2.743063 1_545
Bi2 S4 2.763267 1_555
Bi2 S8 2.816019 1_555
Bi2 S10 2.893107 1_545
Bi2 S7 2.991167 1_555
Bi3 S2 2.743063 1_565
Bi3 S15 2.763267 1_555
Bi3 S9 2.816019 1_555
Bi3 S12 2.893107 1_565
Bi3 S1 2.991167 1_555
S0 Si2 2.140897 1_555
S1 Si1 2.165851 1_555
S2 Si1 2.140897 1_555
S3 Si0 2.140897 1_555
S4 Si0 2.165851 1_555
S5 Si0 2.128816 1_555
S6 Si3 2.128816 1_555
S7 Si2 2.165851 1_555
S8 Si2 2.128816 1_555
S9 Si1 2.128816 1_555
S10 Si0 2.118976 1_565
S11 Si2 2.118976 1_445
S12 Si3 2.118976 1_545
S13 Si3 2.140897 1_555
S14 Si1 2.118976 1_665
S15 Si3 2.165851 1_555
