# generated using pymatgen
data_Co2P2O7
_symmetry_space_group_name_H-M   'P 1'
_cell_length_a   5.23299644
_cell_length_b   5.31072409
_cell_length_c   8.93974291
_cell_angle_alpha   97.82918836
_cell_angle_beta   98.24154174
_cell_angle_gamma   103.83055058
_symmetry_Int_Tables_number   1
_chemical_formula_structural   Co2P2O7
_chemical_formula_sum   'Co4 P4 O14'
_cell_volume   234.96254395
_cell_formula_units_Z   2
loop_
 _symmetry_equiv_pos_site_id
 _symmetry_equiv_pos_as_xyz
  1  'x, y, z'
loop_
 _atom_site_type_symbol
 _atom_site_label
 _atom_site_symmetry_multiplicity
 _atom_site_fract_x
 _atom_site_fract_y
 _atom_site_fract_z
 _atom_site_occupancy
  Co  Co0  1  0.31001243  0.68769853  0.74570566  1
  Co  Co1  1  0.68993618  0.31225568  0.25429987  1
  Co  Co2  1  0.31006761  0.68780087  0.24569304  1
  Co  Co3  1  0.69011164  0.31230892  0.75427358  1
  P  P0  1  0.77980240  0.78485209  0.04676329  1
  P  P1  1  0.77966428  0.78483908  0.54677178  1
  P  P2  1  0.22017261  0.21520374  0.45323275  1
  P  P3  1  0.22036746  0.21515151  0.95322633  1
  O  O0  1  0.99982618  0.00014107  0.99992500  1
  O  O1  1  0.99998405  0.99979053  0.49989008  1
  O  O2  1  0.07364294  0.37373471  0.35896469  1
  O  O3  1  0.07404335  0.37357979  0.85873466  1
  O  O4  1  0.92635229  0.62634750  0.14104947  1
  O  O5  1  0.92608408  0.62636995  0.64117895  1
  O  O6  1  0.61631844  0.92551696  0.13874855  1
  O  O7  1  0.61620655  0.92571042  0.63866394  1
  O  O8  1  0.38372424  0.07455411  0.36128911  1
  O  O9  1  0.38399444  0.07429949  0.86147214  1
  O  O10  1  0.38040185  0.37554252  0.10638151  1
  O  O11  1  0.38027866  0.37547082  0.60643126  1
  O  O12  1  0.61940371  0.62441746  0.39367315  1
  O  O13  1  0.61960858  0.62441427  0.89362718  1
loop_
_geom_bond_atom_site_label_1
_geom_bond_atom_site_label_2
_geom_bond_distance
_geom_bond_site_symmetry_2
Co0 O5 2.020328 1_455
Co0 O13 2.062428 1_555
Co0 O11 2.072486 1_555
Co0 O9 2.088662 1_565
Co0 O7 2.209444 1_555
Co0 O3 2.271735 1_555
Co1 O2 2.019554 1_655
Co1 O10 2.062182 1_555
Co1 O12 2.073311 1_555
Co1 O6 2.088887 1_545
Co1 O8 2.208463 1_555
Co1 O4 2.273884 1_555
Co2 O4 2.019556 1_455
Co2 O12 2.061951 1_555
Co2 O10 2.072943 1_555
Co2 O8 2.089063 1_565
Co2 O6 2.208384 1_555
Co2 O2 2.273931 1_555
Co3 O3 2.020212 1_655
Co3 O11 2.062662 1_555
Co3 O13 2.072922 1_555
Co3 O7 2.088230 1_545
Co3 O9 2.210039 1_555
Co3 O5 2.271904 1_555
O0 P0 1.564449 1_546
O0 P3 1.564612 1_655
O1 P1 1.564504 1_555
O1 P2 1.564592 1_665
O2 P2 1.524359 1_555
O3 P3 1.524467 1_555
O4 P0 1.524403 1_555
O5 P1 1.524486 1_555
O6 P0 1.518570 1_555
O7 P1 1.518611 1_555
O8 P2 1.518588 1_555
O9 P3 1.518543 1_555
O10 P3 1.521183 1_554
O11 P2 1.521378 1_555
O12 P1 1.521197 1_555
O13 P0 1.521372 1_556
