# generated using pymatgen
data_Fe2AgS3
_symmetry_space_group_name_H-M   'P 1'
_cell_length_a   6.30803404
_cell_length_b   6.30803404
_cell_length_c   12.83969900
_cell_angle_alpha   90.00000000
_cell_angle_beta   90.00000000
_cell_angle_gamma   118.67891604
_symmetry_Int_Tables_number   1
_chemical_formula_structural   Fe2AgS3
_chemical_formula_sum   'Fe8 Ag4 S12'
_cell_volume   448.23144979
_cell_formula_units_Z   4
loop_
 _symmetry_equiv_pos_site_id
 _symmetry_equiv_pos_as_xyz
  1  'x, y, z'
loop_
 _atom_site_type_symbol
 _atom_site_label
 _atom_site_symmetry_multiplicity
 _atom_site_fract_x
 _atom_site_fract_y
 _atom_site_fract_z
 _atom_site_occupancy
  Fe  Fe0  1  0.50292400  0.16623800  0.44105900  1
  Fe  Fe1  1  0.66623800  0.00292400  0.05894100  1
  Fe  Fe2  1  0.99707600  0.33376200  0.94105900  1
  Fe  Fe3  1  0.83376200  0.49707600  0.55894100  1
  Fe  Fe4  1  0.49707600  0.83376200  0.55894100  1
  Fe  Fe5  1  0.33376200  0.99707600  0.94105900  1
  Fe  Fe6  1  0.00292400  0.66623800  0.05894100  1
  Fe  Fe7  1  0.16623800  0.50292400  0.44105900  1
  Ag  Ag0  1  0.85064200  0.85064200  0.29501300  1
  Ag  Ag1  1  0.35064200  0.35064200  0.20498700  1
  Ag  Ag2  1  0.64935800  0.64935800  0.79501300  1
  Ag  Ag3  1  0.14935800  0.14935800  0.70498700  1
  S  S0  1  0.70119800  0.70119800  0.11470300  1
  S  S1  1  0.20119800  0.20119800  0.38529700  1
  S  S2  1  0.79880200  0.79880200  0.61470300  1
  S  S3  1  0.29880200  0.29880200  0.88529700  1
  S  S4  1  0.47621200  0.83173700  0.39216000  1
  S  S5  1  0.33173700  0.97621200  0.10784000  1
  S  S6  1  0.02378800  0.66826300  0.89216000  1
  S  S7  1  0.16826300  0.52378800  0.60784000  1
  S  S8  1  0.52378800  0.16826300  0.60784000  1
  S  S9  1  0.66826300  0.02378800  0.89216000  1
  S  S10  1  0.97621200  0.33173700  0.10784000  1
  S  S11  1  0.83173700  0.47621200  0.39216000  1
loop_
_geom_bond_atom_site_label_1
_geom_bond_atom_site_label_2
_geom_bond_distance
_geom_bond_site_symmetry_2
Fe0 S4 2.129230 1_545
Fe0 S1 2.141645 1_555
Fe0 S8 2.145120 1_555
Fe0 S11 2.151050 1_555
Fe1 S5 2.129230 1_545
Fe1 S0 2.141645 1_545
Fe1 S9 2.145120 1_554
Fe1 S10 2.151050 1_555
Fe2 S6 2.129230 1_655
Fe2 S3 2.141645 1_655
Fe2 S10 2.145120 1_556
Fe2 S9 2.151050 1_555
Fe3 S7 2.129230 1_655
Fe3 S2 2.141645 1_555
Fe3 S11 2.145120 1_555
Fe3 S8 2.151050 1_555
Fe4 S8 2.129230 1_565
Fe4 S2 2.141645 1_555
Fe4 S4 2.145120 1_555
Fe4 S7 2.151050 1_555
Fe5 S9 2.129230 1_565
Fe5 S3 2.141645 1_565
Fe5 S5 2.145120 1_556
Fe5 S6 2.151050 1_555
Fe6 S10 2.129230 1_455
Fe6 S0 2.141645 1_455
Fe6 S6 2.145120 1_554
Fe6 S5 2.151050 1_555
Fe7 S11 2.129230 1_455
Fe7 S1 2.141645 1_555
Fe7 S7 2.145120 1_555
Fe7 S4 2.151050 1_555
Ag0 S0 2.506833 1_555
Ag0 S1 2.535802 1_665
Ag0 S11 2.622667 1_555
Ag0 S4 2.622667 1_555
Ag1 S1 2.506833 1_555
Ag1 S0 2.535802 1_555
Ag1 S5 2.622667 1_545
Ag1 S10 2.622667 1_455
Ag2 S2 2.506833 1_555
Ag2 S3 2.535802 1_555
Ag2 S9 2.622667 1_565
Ag2 S6 2.622667 1_655
Ag3 S3 2.506833 1_555
Ag3 S2 2.535802 1_445
Ag3 S8 2.622667 1_555
Ag3 S7 2.622667 1_555
