# generated using pymatgen
data_LuInPt
_symmetry_space_group_name_H-M   'P 1'
_cell_length_a   7.55683787
_cell_length_b   7.55683924
_cell_length_c   3.76768429
_cell_angle_alpha   90.00000000
_cell_angle_beta   90.00000000
_cell_angle_gamma   119.99999403
_symmetry_Int_Tables_number   1
_chemical_formula_structural   LuInPt
_chemical_formula_sum   'Lu3 In3 Pt3'
_cell_volume   186.33114396
_cell_formula_units_Z   3
loop_
 _symmetry_equiv_pos_site_id
 _symmetry_equiv_pos_as_xyz
  1  'x, y, z'
loop_
 _atom_site_type_symbol
 _atom_site_label
 _atom_site_symmetry_multiplicity
 _atom_site_fract_x
 _atom_site_fract_y
 _atom_site_fract_z
 _atom_site_occupancy
  Lu  Lu0  1  -0.00000000  0.59536711  0.50000000  1
  Lu  Lu1  1  0.59536711  -0.00000000  0.50000000  1
  Lu  Lu2  1  0.40463289  0.40463289  0.50000000  1
  In  In0  1  -0.00000000  0.26338447  0.00000000  1
  In  In1  1  0.26338447  -0.00000000  0.00000000  1
  In  In2  1  0.73661553  0.73661553  -0.00000000  1
  Pt  Pt0  1  0.00000000  -0.00000000  0.50000000  1
  Pt  Pt1  1  0.66666700  0.33333300  0.00000000  1
  Pt  Pt2  1  0.33333300  0.66666700  0.00000000  1
loop_
_geom_bond_atom_site_label_1
_geom_bond_atom_site_label_2
_geom_bond_distance
_geom_bond_site_symmetry_2
Lu0 Pt2 2.971032 1_556
Lu0 Pt2 2.971032 1_555
Lu0 Pt1 2.971034 1_455
Lu0 Pt1 2.971034 1_456
Lu0 Pt0 3.057746 1_565
Lu1 Pt1 2.971033 1_555
Lu1 Pt1 2.971033 1_556
Lu1 Pt2 2.971035 1_545
Lu1 Pt2 2.971035 1_546
Lu1 Pt0 3.057745 1_655
Lu2 Pt1 2.971038 1_555
Lu2 Pt1 2.971038 1_556
Lu2 Pt2 2.971038 1_556
Lu2 Pt2 2.971038 1_555
Lu2 Pt0 3.057746 1_555
In0 Pt0 2.740506 1_555
In0 Pt0 2.740506 1_554
In0 Pt1 2.820633 1_455
In0 Pt2 2.820638 1_555
In0 Lu0 3.137297 1_555
In0 Lu0 3.137297 1_554
In0 Lu2 3.282405 1_555
In0 Lu2 3.282405 1_554
In0 Lu1 3.282405 1_455
In0 Lu1 3.282405 1_454
In1 Pt0 2.740505 1_554
In1 Pt0 2.740505 1_555
In1 Pt2 2.820633 1_545
In1 Pt1 2.820638 1_555
In1 Lu1 3.137297 1_555
In1 Lu1 3.137297 1_554
In1 Lu0 3.282405 1_545
In1 Lu0 3.282405 1_544
In1 Lu2 3.282405 1_555
In1 Lu2 3.282405 1_554
In2 Pt0 2.740506 1_664
In2 Pt0 2.740506 1_665
In2 Pt2 2.820641 1_555
In2 Pt1 2.820641 1_555
In2 Lu2 3.137297 1_555
In2 Lu2 3.137297 1_554
In2 Lu0 3.282405 1_655
In2 Lu0 3.282405 1_654
In2 Lu1 3.282405 1_564
In2 Lu1 3.282405 1_565
