# generated using pymatgen
data_YbPt
_symmetry_space_group_name_H-M   'P 1'
_cell_length_a   4.46735469
_cell_length_b   5.45600867
_cell_length_c   6.80745301
_cell_angle_alpha   90.00000000
_cell_angle_beta   90.00000000
_cell_angle_gamma   90.00000000
_symmetry_Int_Tables_number   1
_chemical_formula_structural   YbPt
_chemical_formula_sum   'Yb4 Pt4'
_cell_volume   165.92435556
_cell_formula_units_Z   4
loop_
 _symmetry_equiv_pos_site_id
 _symmetry_equiv_pos_as_xyz
  1  'x, y, z'
loop_
 _atom_site_type_symbol
 _atom_site_label
 _atom_site_symmetry_multiplicity
 _atom_site_fract_x
 _atom_site_fract_y
 _atom_site_fract_z
 _atom_site_occupancy
  Yb  Yb0  1  0.25000000  0.14165117  0.18190123  1
  Yb  Yb1  1  0.75000000  0.64165117  0.31809877  1
  Yb  Yb2  1  0.75000000  0.85834883  0.81809877  1
  Yb  Yb3  1  0.25000000  0.35834883  0.68190123  1
  Pt  Pt0  1  0.75000000  0.15676207  0.45681315  1
  Pt  Pt1  1  0.25000000  0.84323793  0.54318685  1
  Pt  Pt2  1  0.25000000  0.65676207  0.04318685  1
  Pt  Pt3  1  0.75000000  0.34323793  0.95681315  1
loop_
_geom_bond_atom_site_label_1
_geom_bond_atom_site_label_2
_geom_bond_distance
_geom_bond_site_symmetry_2
Pt0 Yb1 2.809034 1_555
Pt0 Pt1 2.874223 1_645
Pt0 Pt1 2.874223 1_545
Pt0 Yb0 2.915208 1_555
Pt0 Yb0 2.915208 1_655
Pt0 Yb3 2.923504 1_555
Pt0 Yb3 2.923504 1_655
Pt0 Yb2 2.949521 1_545
Pt0 Yb1 2.964846 1_545
Pt1 Yb3 2.809034 1_555
Pt1 Yb2 2.915208 1_455
Pt1 Yb2 2.915208 1_555
Pt1 Yb1 2.923504 1_455
Pt1 Yb1 2.923504 1_555
Pt1 Yb0 2.949521 1_565
Pt1 Yb3 2.964846 1_565
Pt2 Yb0 2.809034 1_565
Pt2 Pt3 2.874223 1_554
Pt2 Pt3 2.874223 1_454
Pt2 Yb1 2.915208 1_555
Pt2 Yb1 2.915208 1_455
Pt2 Yb2 2.923504 1_454
Pt2 Yb2 2.923504 1_554
Pt2 Yb3 2.949521 1_554
Pt2 Yb0 2.964846 1_555
Pt3 Yb2 2.809034 1_545
Pt3 Yb3 2.915208 1_655
Pt3 Yb3 2.915208 1_555
Pt3 Yb0 2.923504 1_656
Pt3 Yb0 2.923504 1_556
Pt3 Yb1 2.949521 1_556
Pt3 Yb2 2.964846 1_555
