# generated using pymatgen
data_Y7C3I6O
_symmetry_space_group_name_H-M   'P 1'
_cell_length_a   3.86192500
_cell_length_b   11.52909400
_cell_length_c   22.65131900
_cell_angle_alpha   90.00000000
_cell_angle_beta   90.00000000
_cell_angle_gamma   90.00000000
_symmetry_Int_Tables_number   1
_chemical_formula_structural   Y7C3I6O
_chemical_formula_sum   'Y14 C6 I12 O2'
_cell_volume   1008.53857005
_cell_formula_units_Z   2
loop_
 _symmetry_equiv_pos_site_id
 _symmetry_equiv_pos_as_xyz
  1  'x, y, z'
loop_
 _atom_site_type_symbol
 _atom_site_label
 _atom_site_symmetry_multiplicity
 _atom_site_fract_x
 _atom_site_fract_y
 _atom_site_fract_z
 _atom_site_occupancy
  Y  Y0  1  0.50000000  0.63721100  0.96947800  1
  Y  Y1  1  0.00000000  0.70195600  0.66483100  1
  Y  Y2  1  0.50000000  0.51622600  0.75000000  1
  Y  Y3  1  0.00000000  0.43761400  0.60500800  1
  Y  Y4  1  0.00000000  0.29804400  0.16483100  1
  Y  Y5  1  0.50000000  0.48377400  0.25000000  1
  Y  Y6  1  0.50000000  0.36278900  0.46947800  1
  Y  Y7  1  0.00000000  0.43761400  0.89499200  1
  Y  Y8  1  0.00000000  0.56238600  0.10500800  1
  Y  Y9  1  0.00000000  0.70195600  0.83516900  1
  Y  Y10  1  0.50000000  0.63721100  0.53052200  1
  Y  Y11  1  0.50000000  0.36278900  0.03052200  1
  Y  Y12  1  0.00000000  0.29804400  0.33516900  1
  Y  Y13  1  0.00000000  0.56238600  0.39499200  1
  C  C0  1  0.50000000  0.42395400  0.13656300  1
  C  C1  1  0.50000000  0.57604600  0.63656300  1
  C  C2  1  0.00000000  0.50000000  0.00000000  1
  C  C3  1  0.50000000  0.57604600  0.86343700  1
  C  C4  1  0.00000000  0.50000000  0.50000000  1
  C  C5  1  0.50000000  0.42395400  0.36343700  1
  I  I0  1  0.50000000  0.12995900  0.25000000  1
  I  I1  1  0.00000000  0.69290100  0.25000000  1
  I  I2  1  0.00000000  0.14260700  0.05807800  1
  I  I3  1  0.50000000  0.22795200  0.90813100  1
  I  I4  1  0.50000000  0.77204800  0.40813100  1
  I  I5  1  0.00000000  0.85739300  0.94192200  1
  I  I6  1  0.00000000  0.14260700  0.44192200  1
  I  I7  1  0.50000000  0.77204800  0.09186900  1
  I  I8  1  0.00000000  0.85739300  0.55807800  1
  I  I9  1  0.00000000  0.30709900  0.75000000  1
  I  I10  1  0.50000000  0.22795200  0.59186900  1
  I  I11  1  0.50000000  0.87004100  0.75000000  1
  O  O0  1  0.00000000  0.61281200  0.75000000  1
  O  O1  1  0.00000000  0.38718800  0.25000000  1
loop_
_geom_bond_atom_site_label_1
_geom_bond_atom_site_label_2
_geom_bond_distance
_geom_bond_site_symmetry_2
C0 Y4 2.499167 1_555
C0 Y4 2.499167 1_655
C0 Y11 2.503343 1_555
C0 Y8 2.605130 1_655
C0 Y8 2.605130 1_555
C0 Y5 2.660444 1_555
C1 Y1 2.499167 1_555
C1 Y1 2.499167 1_655
C1 Y10 2.503343 1_555
C1 Y3 2.605130 1_555
C1 Y3 2.605130 1_655
C1 Y2 2.660444 1_555
C2 Y7 2.484939 1_554
C2 Y8 2.484939 1_555
C2 Y0 2.590186 1_554
C2 Y0 2.590186 1_454
C2 Y11 2.590186 1_455
C2 Y11 2.590186 1_555
C3 Y9 2.499167 1_555
C3 Y9 2.499167 1_655
C3 Y0 2.503343 1_555
C3 Y7 2.605130 1_555
C3 Y7 2.605130 1_655
C3 Y2 2.660444 1_555
C4 Y3 2.484939 1_555
C4 Y13 2.484939 1_555
C4 Y10 2.590186 1_455
C4 Y10 2.590186 1_555
C4 Y6 2.590186 1_455
C4 Y6 2.590186 1_555
C5 Y12 2.499167 1_655
C5 Y12 2.499167 1_555
C5 Y6 2.503343 1_555
C5 Y13 2.605130 1_555
C5 Y13 2.605130 1_655
C5 Y5 2.660444 1_555
I0 Y4 3.347495 1_655
I0 Y4 3.347495 1_555
I0 Y12 3.347495 1_555
I0 Y12 3.347495 1_655
I1 Y5 3.088973 1_455
I1 Y5 3.088973 1_555
I1 Y13 3.612554 1_555
I1 Y8 3.612554 1_555
I2 Y4 3.009755 1_555
I2 Y11 3.249953 1_555
I2 Y11 3.249953 1_455
I3 Y7 3.108072 1_655
I3 Y7 3.108072 1_555
I3 Y11 3.178422 1_556
I4 Y13 3.108072 1_555
I4 Y13 3.108072 1_655
I4 Y10 3.178422 1_555
I5 Y9 3.009755 1_555
I5 Y0 3.249953 1_455
I5 Y0 3.249953 1_555
I6 Y12 3.009755 1_555
I6 Y6 3.249953 1_455
I6 Y6 3.249953 1_555
I7 Y8 3.108072 1_555
I7 Y8 3.108072 1_655
I7 Y0 3.178422 1_554
I8 Y1 3.009755 1_555
I8 Y10 3.249953 1_455
I8 Y10 3.249953 1_555
I9 Y2 3.088973 1_455
I9 Y2 3.088973 1_555
I9 Y3 3.612554 1_555
I9 Y7 3.612554 1_555
I10 Y3 3.108072 1_655
I10 Y3 3.108072 1_555
I10 Y6 3.178422 1_555
I11 Y9 3.347495 1_655
I11 Y9 3.347495 1_555
I11 Y1 3.347495 1_555
I11 Y1 3.347495 1_655
O0 Y1 2.185874 1_555
O0 Y9 2.185874 1_555
O0 Y2 2.229037 1_455
O0 Y2 2.229037 1_555
O1 Y4 2.185874 1_555
O1 Y12 2.185874 1_555
O1 Y5 2.229037 1_455
O1 Y5 2.229037 1_555
