# generated using pymatgen
data_Na2CaSiO4
_symmetry_space_group_name_H-M   'P 1'
_cell_length_a   7.54125000
_cell_length_b   7.54125000
_cell_length_c   7.54125000
_cell_angle_alpha   90.00000000
_cell_angle_beta   90.00000000
_cell_angle_gamma   90.00000000
_symmetry_Int_Tables_number   1
_chemical_formula_structural   Na2CaSiO4
_chemical_formula_sum   'Na8 Ca4 Si4 O16'
_cell_volume   428.87429285
_cell_formula_units_Z   4
loop_
 _symmetry_equiv_pos_site_id
 _symmetry_equiv_pos_as_xyz
  1  'x, y, z'
loop_
 _atom_site_type_symbol
 _atom_site_label
 _atom_site_symmetry_multiplicity
 _atom_site_fract_x
 _atom_site_fract_y
 _atom_site_fract_z
 _atom_site_occupancy
  Na  Na0  1  0.99263600  0.00736400  0.50736400  1
  Na  Na1  1  0.22513600  0.77486400  0.27486400  1
  Na  Na2  1  0.72513600  0.72513600  0.72513600  1
  Na  Na3  1  0.00736400  0.50736400  0.99263600  1
  Na  Na4  1  0.49263600  0.49263600  0.49263600  1
  Na  Na5  1  0.77486400  0.27486400  0.22513600  1
  Na  Na6  1  0.50736400  0.99263600  0.00736400  1
  Na  Na7  1  0.27486400  0.22513600  0.77486400  1
  Ca  Ca0  1  0.03778600  0.46221400  0.53778600  1
  Ca  Ca1  1  0.96221400  0.96221400  0.96221400  1
  Ca  Ca2  1  0.46221400  0.53778600  0.03778600  1
  Ca  Ca3  1  0.53778600  0.03778600  0.46221400  1
  Si  Si0  1  0.25792200  0.25792200  0.25792200  1
  Si  Si1  1  0.74207800  0.75792200  0.24207800  1
  Si  Si2  1  0.24207800  0.74207800  0.75792200  1
  Si  Si3  1  0.75792200  0.24207800  0.74207800  1
  O  O0  1  0.86645300  0.63354700  0.36645300  1
  O  O1  1  0.47094000  0.23498900  0.20951000  1
  O  O2  1  0.76501100  0.70951000  0.02906000  1
  O  O3  1  0.23498900  0.20951000  0.47094000  1
  O  O4  1  0.13354700  0.13354700  0.13354700  1
  O  O5  1  0.97094000  0.26501100  0.79049000  1
  O  O6  1  0.02906000  0.76501100  0.70951000  1
  O  O7  1  0.52906000  0.73498900  0.29049000  1
  O  O8  1  0.63354700  0.36645300  0.86645300  1
  O  O9  1  0.79049000  0.97094000  0.26501100  1
  O  O10  1  0.29049000  0.52906000  0.73498900  1
  O  O11  1  0.70951000  0.02906000  0.76501100  1
  O  O12  1  0.36645300  0.86645300  0.63354700  1
  O  O13  1  0.26501100  0.79049000  0.97094000  1
  O  O14  1  0.20951000  0.47094000  0.23498900  1
  O  O15  1  0.73498900  0.29049000  0.52906000  1
loop_
_geom_bond_atom_site_label_1
_geom_bond_atom_site_label_2
_geom_bond_distance
_geom_bond_site_symmetry_2
Na0 O3 2.395753 1_655
Na0 O9 2.395753 1_545
Na0 O6 2.395753 1_645
Na0 O15 2.891487 1_555
Na0 O11 2.891487 1_555
Na0 O5 2.891487 1_555
Na1 O13 2.314611 1_554
Na1 O7 2.314611 1_555
Na1 O14 2.314611 1_555
Na2 O11 2.314611 1_565
Na2 O6 2.314611 1_655
Na2 O2 2.314611 1_556
Na3 O14 2.395753 1_556
Na3 O5 2.395753 1_455
Na3 O2 2.395753 1_456
Na3 O10 2.891487 1_555
Na3 O6 2.891487 1_555
Na3 O13 2.891487 1_555
Na4 O10 2.395753 1_555
Na4 O15 2.395753 1_555
Na4 O7 2.395753 1_555
Na4 O14 2.891487 1_555
Na4 O3 2.891487 1_555
Na4 O1 2.891487 1_555
Na5 O9 2.314611 1_545
Na5 O15 2.314611 1_555
Na5 O1 2.314611 1_555
Na6 O1 2.395753 1_565
Na6 O13 2.395753 1_554
Na6 O11 2.395753 1_564
Na6 O7 2.891487 1_555
Na6 O2 2.891487 1_555
Na6 O9 2.891487 1_555
Na7 O5 2.314611 1_455
Na7 O10 2.314611 1_555
Na7 O3 2.314611 1_555
Ca0 O0 2.237922 1_455
Ca0 O3 2.469304 1_555
Ca0 O5 2.469304 1_455
Ca0 O10 2.469304 1_555
Ca0 O15 2.625951 1_455
Ca0 O14 2.625951 1_555
Ca0 O6 2.625951 1_555
Ca1 O4 2.237922 1_666
Ca1 O6 2.469304 1_655
Ca1 O2 2.469304 1_556
Ca1 O11 2.469304 1_565
Ca1 O5 2.625951 1_565
Ca1 O13 2.625951 1_655
Ca1 O9 2.625951 1_556
Ca2 O8 2.237922 1_554
Ca2 O14 2.469304 1_555
Ca2 O13 2.469304 1_554
Ca2 O7 2.469304 1_555
Ca2 O10 2.625951 1_554
Ca2 O1 2.625951 1_555
Ca2 O2 2.625951 1_555
Ca3 O12 2.237922 1_545
Ca3 O1 2.469304 1_555
Ca3 O9 2.469304 1_545
Ca3 O15 2.469304 1_555
Ca3 O7 2.625951 1_545
Ca3 O3 2.625951 1_555
Ca3 O11 2.625951 1_555
O0 Si1 1.624565 1_555
O1 Si0 1.656439 1_555
O2 Si1 1.656439 1_555
O3 Si0 1.656439 1_555
O4 Si0 1.624565 1_555
O5 Si3 1.656439 1_555
O6 Si2 1.656439 1_555
O7 Si1 1.656439 1_555
O8 Si3 1.624565 1_555
O9 Si1 1.656439 1_555
O10 Si2 1.656439 1_555
O11 Si3 1.656439 1_555
O12 Si2 1.624565 1_555
O13 Si2 1.656439 1_555
O14 Si0 1.656439 1_555
O15 Si3 1.656439 1_555
