# generated using pymatgen
data_Nd2Ti2S2O5
_symmetry_space_group_name_H-M   'P 1'
_cell_length_a   3.86802800
_cell_length_b   3.86802800
_cell_length_c   12.01295884
_cell_angle_alpha   99.26459480
_cell_angle_beta   99.26459480
_cell_angle_gamma   90.00000000
_symmetry_Int_Tables_number   1
_chemical_formula_structural   Nd2Ti2S2O5
_chemical_formula_sum   'Nd2 Ti2 S2 O5'
_cell_volume   175.01305790
_cell_formula_units_Z   1
loop_
 _symmetry_equiv_pos_site_id
 _symmetry_equiv_pos_as_xyz
  1  'x, y, z'
loop_
 _atom_site_type_symbol
 _atom_site_label
 _atom_site_symmetry_multiplicity
 _atom_site_fract_x
 _atom_site_fract_y
 _atom_site_fract_z
 _atom_site_occupancy
  Nd  Nd0  1  0.33429600  0.33429600  0.66859200  1
  Nd  Nd1  1  0.66570400  0.66570400  0.33140800  1
  Ti  Ti0  1  0.07742600  0.07742600  0.15485200  1
  Ti  Ti1  1  0.92257400  0.92257400  0.84514800  1
  S  S0  1  0.20358400  0.20358400  0.40716800  1
  S  S1  1  0.79641600  0.79641600  0.59283200  1
  O  O0  1  0.90353300  0.40353300  0.80706600  1
  O  O1  1  0.09646700  0.59646700  0.19293400  1
  O  O2  1  0.40353300  0.90353300  0.80706600  1
  O  O3  1  0.59646700  0.09646700  0.19293400  1
  O  O4  1  0.00000000  0.00000000  0.00000000  1
loop_
_geom_bond_atom_site_label_1
_geom_bond_atom_site_label_2
_geom_bond_distance
_geom_bond_site_symmetry_2
Nd0 O0 2.522725 1_455
Nd0 O2 2.522725 1_545
Nd0 O0 2.522725 1_555
Nd0 O2 2.522725 1_555
Nd0 S1 2.875095 1_545
Nd0 S1 2.875095 1_445
Nd0 S1 2.875095 1_455
Nd0 S1 2.875095 1_555
Nd0 S0 3.057994 1_555
Nd1 O1 2.522725 1_655
Nd1 O3 2.522725 1_555
Nd1 O3 2.522725 1_565
Nd1 O1 2.522725 1_555
Nd1 S0 2.875095 1_555
Nd1 S0 2.875095 1_655
Nd1 S0 2.875095 1_665
Nd1 S0 2.875095 1_565
Nd1 S1 3.057994 1_555
S0 Ti0 2.951454 1_555
S1 Ti1 2.951454 1_555
O0 Ti1 1.984653 1_545
O0 Ti1 1.984653 1_555
O1 Ti0 1.984653 1_555
O1 Ti0 1.984653 1_565
O2 Ti1 1.984653 1_455
O2 Ti1 1.984653 1_555
O3 Ti0 1.984653 1_555
O3 Ti0 1.984653 1_655
O4 Ti1 1.811374 1_444
O4 Ti0 1.811374 1_555
