# generated using pymatgen
data_KTh(SbSe3)2
_symmetry_space_group_name_H-M   'P 1'
_cell_length_a   15.31653200
_cell_length_b   4.30029100
_cell_length_c   17.29398677
_cell_angle_alpha   87.40213221
_cell_angle_beta   90.00000000
_cell_angle_gamma   90.00000000
_symmetry_Int_Tables_number   1
_chemical_formula_structural   KTh(SbSe3)2
_chemical_formula_sum   'K4 Th4 Sb8 Se24'
_cell_volume   1137.90717979
_cell_formula_units_Z   4
loop_
 _symmetry_equiv_pos_site_id
 _symmetry_equiv_pos_as_xyz
  1  'x, y, z'
loop_
 _atom_site_type_symbol
 _atom_site_label
 _atom_site_symmetry_multiplicity
 _atom_site_fract_x
 _atom_site_fract_y
 _atom_site_fract_z
 _atom_site_occupancy
  K  K0  1  0.28673000  0.73547800  0.67286700  1
  K  K1  1  0.21327000  0.73547800  0.17286700  1
  K  K2  1  0.71327000  0.26452200  0.32713300  1
  K  K3  1  0.78673000  0.26452200  0.82713300  1
  Th  Th0  1  0.87095000  0.29982300  0.09104600  1
  Th  Th1  1  0.12905000  0.70017700  0.90895400  1
  Th  Th2  1  0.62905000  0.29982300  0.59104600  1
  Th  Th3  1  0.37095000  0.70017700  0.40895400  1
  Sb  Sb0  1  0.87366900  0.73070200  0.52577300  1
  Sb  Sb1  1  0.62633100  0.73070200  0.02577300  1
  Sb  Sb2  1  0.37366900  0.26929800  0.97422700  1
  Sb  Sb3  1  0.97426400  0.75359200  0.29654300  1
  Sb  Sb4  1  0.47426400  0.24640800  0.20345700  1
  Sb  Sb5  1  0.02573600  0.24640800  0.70345700  1
  Sb  Sb6  1  0.12633100  0.26929800  0.47422700  1
  Sb  Sb7  1  0.52573600  0.75359200  0.79654300  1
  Se  Se0  1  0.52942000  0.66386000  0.30257400  1
  Se  Se1  1  0.02942000  0.33614000  0.19742600  1
  Se  Se2  1  0.97058000  0.66386000  0.80257400  1
  Se  Se3  1  0.17075600  0.73075500  0.37334300  1
  Se  Se4  1  0.82924400  0.26924500  0.62665700  1
  Se  Se5  1  0.91871500  0.31994400  0.40831500  1
  Se  Se6  1  0.08128500  0.68005600  0.59168500  1
  Se  Se7  1  0.79457000  0.79080000  0.98489700  1
  Se  Se8  1  0.32924400  0.73075500  0.87334300  1
  Se  Se9  1  0.70543000  0.79080000  0.48489700  1
  Se  Se10  1  0.67075600  0.26924500  0.12665700  1
  Se  Se11  1  0.41871500  0.68005600  0.09168500  1
  Se  Se12  1  0.01334300  0.81965100  0.05896000  1
  Se  Se13  1  0.17251000  0.21160800  0.78946700  1
  Se  Se14  1  0.47058000  0.33614000  0.69742600  1
  Se  Se15  1  0.32749000  0.21160800  0.28946700  1
  Se  Se16  1  0.58128500  0.31994400  0.90831500  1
  Se  Se17  1  0.82749000  0.78839200  0.21053300  1
  Se  Se18  1  0.67251000  0.78839200  0.71053300  1
  Se  Se19  1  0.20543000  0.20920000  0.01510300  1
  Se  Se20  1  0.98665700  0.18034900  0.94104000  1
  Se  Se21  1  0.48665700  0.81965100  0.55896000  1
  Se  Se22  1  0.51334300  0.18034900  0.44104000  1
  Se  Se23  1  0.29457000  0.20920000  0.51510300  1
loop_
_geom_bond_atom_site_label_1
_geom_bond_atom_site_label_2
_geom_bond_distance
_geom_bond_site_symmetry_2
K0 Se14 3.315544 1_555
K0 Se23 3.332344 1_565
K0 Se13 3.419547 1_565
K0 Se13 3.433664 1_555
K0 Se6 3.458322 1_555
K0 Se8 3.526803 1_555
K0 Se23 3.624914 1_555
K0 Se21 3.650193 1_555
K0 Se14 3.857640 1_565
K1 Se1 3.315544 1_555
K1 Se19 3.332344 1_565
K1 Se15 3.419547 1_565
K1 Se15 3.433664 1_555
K1 Se11 3.458322 1_555
K1 Se3 3.526803 1_555
K1 Se19 3.624914 1_555
K1 Se12 3.650193 1_555
K1 Se1 3.857640 1_565
K2 Se0 3.315544 1_555
K2 Se9 3.332344 1_545
K2 Se17 3.419547 1_545
K2 Se17 3.433664 1_555
K2 Se5 3.458322 1_555
K2 Se10 3.526803 1_555
K2 Se9 3.624914 1_555
K2 Se22 3.650193 1_555
K2 Se0 3.857640 1_545
K3 Se2 3.315544 1_555
K3 Se7 3.332344 1_545
K3 Se18 3.419547 1_545
K3 Se18 3.433664 1_555
K3 Se16 3.458322 1_555
K3 Se4 3.526803 1_555
K3 Se7 3.624914 1_555
K3 Se20 3.650193 1_555
K3 Se2 3.857640 1_545
Sb0 Se4 2.670378 1_555
Sb0 Se9 2.681426 1_555
Sb0 Se5 2.836836 1_555
Sb0 Se4 3.039171 1_565
Sb0 Se5 3.249060 1_565
Sb0 Se6 3.381772 1_655
Sb1 Se10 2.670378 1_555
Sb1 Se7 2.681426 1_554
Sb1 Se16 2.836836 1_554
Sb1 Se10 3.039171 1_565
Sb1 Se16 3.249060 1_564
Sb1 Se11 3.381772 1_555
Sb2 Se8 2.670378 1_555
Sb2 Se19 2.681426 1_556
Sb2 Se11 2.836836 1_556
Sb2 Se8 3.039171 1_545
Sb2 Se11 3.249060 1_546
Sb2 Se16 3.381772 1_555
Sb3 Se1 2.674600 1_655
Sb3 Se17 2.696026 1_555
Sb3 Se5 2.758818 1_555
Sb3 Se1 3.088415 1_665
Sb3 Se5 3.289169 1_565
Sb3 Se3 3.289289 1_655
Sb4 Se0 2.674600 1_555
Sb4 Se15 2.696026 1_555
Sb4 Se11 2.758818 1_555
Sb4 Se0 3.088415 1_545
Sb4 Se11 3.289169 1_545
Sb4 Se10 3.289289 1_555
Sb5 Se2 2.674600 1_455
Sb5 Se13 2.696026 1_555
Sb5 Se6 2.758818 1_555
Sb5 Se2 3.088415 1_445
Sb5 Se6 3.289169 1_545
Sb5 Se4 3.289289 1_455
Sb6 Se3 2.670378 1_555
Sb6 Se23 2.681426 1_555
Sb6 Se6 2.836836 1_555
Sb6 Se3 3.039171 1_545
Sb6 Se6 3.249060 1_545
Sb6 Se5 3.381772 1_455
Sb7 Se14 2.674600 1_555
Sb7 Se18 2.696026 1_555
Sb7 Se16 2.758818 1_555
Sb7 Se14 3.088415 1_565
Sb7 Se16 3.289169 1_565
Sb7 Se8 3.289289 1_555
Se0 Th3 3.053917 1_555
Se1 Th0 3.053917 1_455
Se2 Th1 3.053917 1_655
Se3 Th3 3.129103 1_555
Se4 Th2 3.129103 1_555
Se7 Th0 2.974049 1_556
Se7 Th0 3.145522 1_566
Se8 Th1 3.129103 1_555
Se9 Th2 2.974049 1_555
Se9 Th2 3.145522 1_565
Se10 Th0 3.129103 1_555
Se12 Se20 2.538705 1_464
Se12 Th0 3.071176 1_465
Se12 Th0 3.154226 1_455
Se12 Th1 3.202416 1_554
Se13 Th1 3.022926 1_545
Se13 Th1 3.085588 1_555
Se14 Th2 3.053917 1_555
Se15 Th3 3.022926 1_545
Se15 Th3 3.085588 1_555
Se17 Th0 3.022926 1_565
Se17 Th0 3.085588 1_555
Se18 Th2 3.022926 1_565
Se18 Th2 3.085588 1_555
Se19 Th1 2.974049 1_554
Se19 Th1 3.145522 1_544
Se20 Th1 3.071176 1_645
Se20 Th1 3.154226 1_655
Se20 Th0 3.202416 1_556
Se21 Se22 2.538705 1_565
Se21 Th2 3.071176 1_565
Se21 Th2 3.154226 1_555
Se21 Th3 3.202416 1_555
Se22 Th3 3.071176 1_545
Se22 Th3 3.154226 1_555
Se22 Th2 3.202416 1_555
Se23 Th3 2.974049 1_555
Se23 Th3 3.145522 1_545
