# generated using pymatgen
data_TaBi4BrO8
_symmetry_space_group_name_H-M   'P 1'
_cell_length_a   5.49521318
_cell_length_b   5.54216272
_cell_length_c   29.45139572
_cell_angle_alpha   90.00000000
_cell_angle_beta   90.00000000
_cell_angle_gamma   90.00000000
_symmetry_Int_Tables_number   1
_chemical_formula_structural   TaBi4BrO8
_chemical_formula_sum   'Ta4 Bi16 Br4 O32'
_cell_volume   896.95302481
_cell_formula_units_Z   4
loop_
 _symmetry_equiv_pos_site_id
 _symmetry_equiv_pos_as_xyz
  1  'x, y, z'
loop_
 _atom_site_type_symbol
 _atom_site_label
 _atom_site_symmetry_multiplicity
 _atom_site_fract_x
 _atom_site_fract_y
 _atom_site_fract_z
 _atom_site_occupancy
  Ta  Ta0  1  0.50000000  0.51745879  0.25000000  1
  Ta  Ta1  1  0.50000000  0.48254121  0.75000000  1
  Ta  Ta2  1  0.00000000  0.01745879  0.25000000  1
  Ta  Ta3  1  0.00000000  0.98254121  0.75000000  1
  Bi  Bi0  1  0.52175105  0.05437959  0.65880792  1
  Bi  Bi1  1  0.99106248  0.00993494  0.92825839  1
  Bi  Bi2  1  0.02175105  0.44562041  0.34119208  1
  Bi  Bi3  1  0.52175105  0.94562041  0.15880792  1
  Bi  Bi4  1  0.02175105  0.55437959  0.84119208  1
  Bi  Bi5  1  0.00893752  0.00993494  0.57174161  1
  Bi  Bi6  1  0.49106248  0.49006506  0.07174161  1
  Bi  Bi7  1  0.47824895  0.05437959  0.84119208  1
  Bi  Bi8  1  0.50893752  0.50993494  0.92825839  1
  Bi  Bi9  1  0.97824895  0.55437959  0.65880792  1
  Bi  Bi10  1  0.00893752  0.99006506  0.07174161  1
  Bi  Bi11  1  0.47824895  0.94562041  0.34119208  1
  Bi  Bi12  1  0.97824895  0.44562041  0.15880792  1
  Bi  Bi13  1  0.50893752  0.49006506  0.42825839  1
  Bi  Bi14  1  0.49106248  0.50993494  0.57174161  1
  Bi  Bi15  1  0.99106248  0.99006506  0.42825839  1
  Br  Br0  1  0.00000000  0.50000000  0.50000000  1
  Br  Br1  1  0.00000000  0.50000000  0.00000000  1
  Br  Br2  1  0.50000000  0.00000000  0.00000000  1
  Br  Br3  1  0.50000000  0.00000000  0.50000000  1
  O  O0  1  0.25554708  0.25631780  0.60922087  1
  O  O1  1  0.90590965  0.93281420  0.68549498  1
  O  O2  1  0.74920318  0.74916312  0.60785314  1
  O  O3  1  0.74697353  0.20459555  0.76410153  1
  O  O4  1  0.24445292  0.75631780  0.60922087  1
  O  O5  1  0.59409035  0.43281420  0.68549498  1
  O  O6  1  0.75554708  0.24368220  0.39077913  1
  O  O7  1  0.74920318  0.25083688  0.10785314  1
  O  O8  1  0.09409035  0.93281420  0.81450502  1
  O  O9  1  0.75079682  0.24916312  0.60785314  1
  O  O10  1  0.75302647  0.70459555  0.76410153  1
  O  O11  1  0.25302647  0.20459555  0.73589847  1
  O  O12  1  0.24697353  0.70459555  0.73589847  1
  O  O13  1  0.74445292  0.25631780  0.89077913  1
  O  O14  1  0.74697353  0.79540445  0.26410153  1
  O  O15  1  0.75079682  0.75083688  0.10785314  1
  O  O16  1  0.24920318  0.75083688  0.39214686  1
  O  O17  1  0.24445292  0.24368220  0.10922087  1
  O  O18  1  0.25302647  0.79540445  0.23589847  1
  O  O19  1  0.40590965  0.56718580  0.31450502  1
  O  O20  1  0.40590965  0.43281420  0.81450502  1
  O  O21  1  0.09409035  0.06718580  0.31450502  1
  O  O22  1  0.24920318  0.24916312  0.89214686  1
  O  O23  1  0.59409035  0.56718580  0.18549498  1
  O  O24  1  0.25554708  0.74368220  0.10922087  1
  O  O25  1  0.90590965  0.06718580  0.18549498  1
  O  O26  1  0.24697353  0.29540445  0.23589847  1
  O  O27  1  0.75554708  0.75631780  0.89077913  1
  O  O28  1  0.25079682  0.25083688  0.39214686  1
  O  O29  1  0.74445292  0.74368220  0.39077913  1
  O  O30  1  0.25079682  0.74916312  0.89214686  1
  O  O31  1  0.75302647  0.29540445  0.26410153  1
loop_
_geom_bond_atom_site_label_1
_geom_bond_atom_site_label_2
_geom_bond_distance
_geom_bond_site_symmetry_2
Bi0 O9 2.236437 1_555
Bi0 O5 2.274782 1_555
Bi0 O0 2.350588 1_555
Bi0 O1 2.351198 1_545
Bi0 O2 2.583735 1_545
Bi0 O4 2.680222 1_545
Bi0 O11 2.833471 1_555
Bi1 O27 2.206595 1_545
Bi1 O22 2.213868 1_655
Bi1 O13 2.217989 1_555
Bi1 O30 2.292814 1_645
Bi2 O28 2.236437 1_555
Bi2 O21 2.274782 1_555
Bi2 O6 2.350588 1_455
Bi2 O19 2.351198 1_555
Bi2 O16 2.583735 1_555
Bi2 O29 2.680222 1_455
Bi2 O31 2.833471 1_455
Bi3 O15 2.236437 1_555
Bi3 O23 2.274782 1_555
Bi3 O24 2.350588 1_555
Bi3 O25 2.351198 1_565
Bi3 O7 2.583735 1_565
Bi3 O17 2.680222 1_565
Bi3 O18 2.833471 1_555
Bi4 O30 2.236437 1_555
Bi4 O8 2.274782 1_555
Bi4 O27 2.350588 1_455
Bi4 O20 2.351198 1_555
Bi4 O22 2.583735 1_555
Bi4 O13 2.680222 1_455
Bi4 O10 2.833471 1_455
Bi5 O4 2.206595 1_545
Bi5 O9 2.213868 1_455
Bi5 O0 2.217989 1_555
Bi5 O2 2.292814 1_445
Bi6 O24 2.206595 1_555
Bi6 O7 2.213868 1_555
Bi6 O17 2.217989 1_555
Bi6 O15 2.292814 1_555
Bi7 O22 2.236437 1_555
Bi7 O20 2.274782 1_555
Bi7 O13 2.350588 1_555
Bi7 O8 2.351198 1_545
Bi7 O30 2.583735 1_545
Bi7 O27 2.680222 1_545
Bi7 O3 2.833471 1_555
Bi8 O13 2.206595 1_555
Bi8 O30 2.213868 1_555
Bi8 O27 2.217989 1_555
Bi8 O22 2.292814 1_555
Bi9 O2 2.236437 1_555
Bi9 O1 2.274782 1_555
Bi9 O4 2.350588 1_655
Bi9 O5 2.351198 1_555
Bi9 O9 2.583735 1_555
Bi9 O0 2.680222 1_655
Bi9 O12 2.833471 1_655
Bi10 O17 2.206595 1_565
Bi10 O15 2.213868 1_455
Bi10 O24 2.217989 1_555
Bi10 O7 2.292814 1_465
Bi11 O16 2.236437 1_555
Bi11 O19 2.274782 1_555
Bi11 O29 2.350588 1_555
Bi11 O21 2.351198 1_565
Bi11 O28 2.583735 1_565
Bi11 O6 2.680222 1_565
Bi11 O14 2.833471 1_555
Bi12 O7 2.236437 1_555
Bi12 O25 2.274782 1_555
Bi12 O17 2.350588 1_655
Bi12 O23 2.351198 1_555
Bi12 O15 2.583735 1_555
Bi12 O24 2.680222 1_655
Bi12 O26 2.833471 1_655
Bi13 O29 2.206595 1_555
Bi13 O28 2.213868 1_555
Bi13 O6 2.217989 1_555
Bi13 O16 2.292814 1_555
Bi14 O0 2.206595 1_555
Bi14 O2 2.213868 1_555
Bi14 O4 2.217989 1_555
Bi14 O9 2.292814 1_555
Bi15 O6 2.206595 1_565
Bi15 O16 2.213868 1_655
Bi15 O29 2.217989 1_555
Bi15 O28 2.292814 1_665
O1 Ta3 1.988062 1_655
O3 Ta3 1.902713 1_645
O3 Ta1 2.094586 1_555
O5 Ta1 1.988062 1_555
O8 Ta3 1.988062 1_555
O10 Ta1 1.902713 1_555
O10 Ta3 2.094586 1_655
O11 Ta3 1.902713 1_545
O11 Ta1 2.094586 1_555
O12 Ta1 1.902713 1_555
O12 Ta3 2.094586 1_555
O14 Ta2 1.902713 1_665
O14 Ta0 2.094586 1_555
O18 Ta2 1.902713 1_565
O18 Ta0 2.094586 1_555
O19 Ta0 1.988062 1_555
O20 Ta1 1.988062 1_555
O21 Ta2 1.988062 1_555
O23 Ta0 1.988062 1_555
O25 Ta2 1.988062 1_655
O26 Ta0 1.902713 1_555
O26 Ta2 2.094586 1_555
O31 Ta0 1.902713 1_555
O31 Ta2 2.094586 1_655
