# generated using pymatgen
data_YAlGeO5
_symmetry_space_group_name_H-M   'P 1'
_cell_length_a   5.67449000
_cell_length_b   7.32674300
_cell_length_c   8.41988500
_cell_angle_alpha   90.00000000
_cell_angle_beta   90.00000000
_cell_angle_gamma   90.00000000
_symmetry_Int_Tables_number   1
_chemical_formula_structural   YAlGeO5
_chemical_formula_sum   'Y4 Al4 Ge4 O20'
_cell_volume   350.06118045
_cell_formula_units_Z   4
loop_
 _symmetry_equiv_pos_site_id
 _symmetry_equiv_pos_as_xyz
  1  'x, y, z'
loop_
 _atom_site_type_symbol
 _atom_site_label
 _atom_site_symmetry_multiplicity
 _atom_site_fract_x
 _atom_site_fract_y
 _atom_site_fract_z
 _atom_site_occupancy
  Y  Y0  1  0.00000000  0.35725000  0.32610400  1
  Y  Y1  1  0.00000000  0.64275000  0.67389600  1
  Y  Y2  1  0.00000000  0.85725000  0.17389600  1
  Y  Y3  1  0.00000000  0.14275000  0.82610400  1
  Al  Al0  1  0.24957100  0.50000000  0.00000000  1
  Al  Al1  1  0.75042900  0.00000000  0.50000000  1
  Al  Al2  1  0.75042900  0.50000000  0.00000000  1
  Al  Al3  1  0.24957100  0.00000000  0.50000000  1
  Ge  Ge0  1  0.50000000  0.12024800  0.14426400  1
  Ge  Ge1  1  0.50000000  0.87975200  0.85573600  1
  Ge  Ge2  1  0.50000000  0.62024800  0.35573600  1
  Ge  Ge3  1  0.50000000  0.37975200  0.64426400  1
  O  O0  1  0.00000000  0.33912900  0.05324000  1
  O  O1  1  0.00000000  0.66087100  0.94676000  1
  O  O2  1  0.00000000  0.83912900  0.44676000  1
  O  O3  1  0.00000000  0.16087100  0.55324000  1
  O  O4  1  0.50000000  0.34659000  0.06891400  1
  O  O5  1  0.50000000  0.65341000  0.93108600  1
  O  O6  1  0.50000000  0.84659000  0.43108600  1
  O  O7  1  0.50000000  0.15341000  0.56891400  1
  O  O8  1  0.25326300  0.10570400  0.28738500  1
  O  O9  1  0.25326300  0.89429600  0.71261500  1
  O  O10  1  0.74673700  0.60570400  0.21261500  1
  O  O11  1  0.74673700  0.39429600  0.78738500  1
  O  O12  1  0.74673700  0.89429600  0.71261500  1
  O  O13  1  0.74673700  0.10570400  0.28738500  1
  O  O14  1  0.25326300  0.39429600  0.78738500  1
  O  O15  1  0.25326300  0.60570400  0.21261500  1
  O  O16  1  0.28515400  0.00000000  0.00000000  1
  O  O17  1  0.71484600  0.50000000  0.50000000  1
  O  O18  1  0.71484600  0.00000000  0.00000000  1
  O  O19  1  0.28515400  0.50000000  0.50000000  1
loop_
_geom_bond_atom_site_label_1
_geom_bond_atom_site_label_2
_geom_bond_distance
_geom_bond_site_symmetry_2
Al0 O1 1.896254 1_554
Al0 O0 1.896254 1_555
Al0 O4 1.902487 1_555
Al0 O5 1.902487 1_554
Al0 O14 1.950649 1_554
Al0 O15 1.950649 1_555
Al1 O2 1.896254 1_645
Al1 O3 1.896254 1_655
Al1 O7 1.902487 1_555
Al1 O6 1.902487 1_545
Al1 O13 1.950649 1_555
Al1 O12 1.950649 1_545
Al2 O1 1.896254 1_654
Al2 O0 1.896254 1_655
Al2 O4 1.902487 1_555
Al2 O5 1.902487 1_554
Al2 O10 1.950649 1_555
Al2 O11 1.950649 1_554
Al3 O2 1.896254 1_545
Al3 O3 1.896254 1_555
Al3 O7 1.902487 1_555
Al3 O6 1.902487 1_545
Al3 O8 1.950649 1_555
Al3 O9 1.950649 1_545
Ge0 O4 1.775566 1_555
Ge0 O8 1.850359 1_555
Ge0 O13 1.850359 1_555
Ge0 O18 1.933385 1_555
Ge0 O16 1.933385 1_555
Ge1 O5 1.775566 1_555
Ge1 O12 1.850359 1_555
Ge1 O9 1.850359 1_555
Ge1 O18 1.933385 1_566
Ge1 O16 1.933385 1_566
Ge2 O6 1.775566 1_555
Ge2 O15 1.850359 1_555
Ge2 O10 1.850359 1_555
Ge2 O17 1.933385 1_555
Ge2 O19 1.933385 1_555
Ge3 O7 1.775566 1_555
Ge3 O14 1.850359 1_555
Ge3 O11 1.850359 1_555
Ge3 O17 1.933385 1_555
Ge3 O19 1.933385 1_555
O0 Y0 2.301317 1_555
O0 Y3 2.393261 1_554
O1 Y1 2.301317 1_555
O1 Y2 2.393261 1_556
O2 Y2 2.301317 1_555
O2 Y1 2.393261 1_555
O3 Y3 2.301317 1_555
O3 Y0 2.393261 1_555
O8 Y0 2.359734 1_555
O8 Y2 2.508421 1_545
O9 Y1 2.359734 1_555
O9 Y3 2.508421 1_565
O10 Y2 2.359734 1_655
O10 Y0 2.508421 1_655
O11 Y3 2.359734 1_655
O11 Y1 2.508421 1_655
O12 Y1 2.359734 1_655
O12 Y3 2.508421 1_665
O13 Y0 2.359734 1_655
O13 Y2 2.508421 1_645
O14 Y3 2.359734 1_555
O14 Y1 2.508421 1_555
O15 Y2 2.359734 1_555
O15 Y0 2.508421 1_555
O16 Y2 2.419914 1_545
O16 Y3 2.419914 1_554
O17 Y1 2.419914 1_655
O17 Y0 2.419914 1_655
O18 Y2 2.419914 1_645
O18 Y3 2.419914 1_654
O19 Y1 2.419914 1_555
O19 Y0 2.419914 1_555
