# generated using pymatgen
data_MgAl2O4
_symmetry_space_group_name_H-M   'P 1'
_cell_length_a   5.77533481
_cell_length_b   5.77533481
_cell_length_c   33.20920048
_cell_angle_alpha   85.04121647
_cell_angle_beta   85.04121647
_cell_angle_gamma   59.92625382
_symmetry_Int_Tables_number   1
_chemical_formula_structural   MgAl2O4
_chemical_formula_sum   'Mg14 Al28 O56'
_cell_volume   953.77879707
_cell_formula_units_Z   14
loop_
 _symmetry_equiv_pos_site_id
 _symmetry_equiv_pos_as_xyz
  1  'x, y, z'
loop_
 _atom_site_type_symbol
 _atom_site_label
 _atom_site_symmetry_multiplicity
 _atom_site_fract_x
 _atom_site_fract_y
 _atom_site_fract_z
 _atom_site_occupancy
  Mg  Mg0  1  0.00000000  0.50000000  0.00000000  1
  Mg  Mg1  1  0.80644800  0.80644800  0.08719800  1
  Mg  Mg2  1  0.50000000  0.00000000  0.00000000  1
  Mg  Mg3  1  0.08930700  0.08930700  0.23256000  1
  Mg  Mg4  1  0.37513500  0.37513500  0.37486100  1
  Mg  Mg5  1  0.76818600  0.76818600  0.19553400  1
  Mg  Mg6  1  0.66081900  0.66081900  0.51782000  1
  Mg  Mg7  1  0.05352800  0.05352800  0.33926800  1
  Mg  Mg8  1  0.94647200  0.94647200  0.66073200  1
  Mg  Mg9  1  0.33918100  0.33918100  0.48218000  1
  Mg  Mg10  1  0.23181400  0.23181400  0.80446600  1
  Mg  Mg11  1  0.62486500  0.62486500  0.62513900  1
  Mg  Mg12  1  0.91069300  0.91069300  0.76744000  1
  Mg  Mg13  1  0.19355200  0.19355200  0.91280200  1
  Al  Al0  1  0.52206500  0.52206500  0.94482200  1
  Al  Al1  1  0.85757600  0.85757600  0.92704000  1
  Al  Al2  1  0.00000000  0.00000000  0.00000000  1
  Al  Al3  1  0.28474300  0.78857200  0.14325100  1
  Al  Al4  1  0.14242400  0.14242400  0.07296000  1
  Al  Al5  1  0.28424200  0.28424200  0.14308600  1
  Al  Al6  1  0.57162300  0.07136800  0.28553000  1
  Al  Al7  1  0.78857200  0.28474300  0.14325100  1
  Al  Al8  1  0.47793500  0.47793500  0.05517800  1
  Al  Al9  1  0.42852900  0.42852900  0.21419600  1
  Al  Al10  1  0.57152500  0.57152500  0.28551600  1
  Al  Al11  1  0.71431800  0.71431800  0.35703000  1
  Al  Al12  1  0.07136800  0.57162300  0.28553000  1
  Al  Al13  1  0.85715900  0.85715900  0.42853700  1
  Al  Al14  1  0.14295800  0.64279700  0.57145200  1
  Al  Al15  1  0.64279700  0.14295800  0.57145200  1
  Al  Al16  1  0.35720300  0.85704200  0.42854800  1
  Al  Al17  1  0.00000000  0.00000000  0.50000000  1
  Al  Al18  1  0.14284100  0.14284100  0.57146300  1
  Al  Al19  1  0.85704200  0.35720300  0.42854800  1
  Al  Al20  1  0.42837700  0.92863200  0.71447000  1
  Al  Al21  1  0.28568200  0.28568200  0.64297000  1
  Al  Al22  1  0.71525700  0.21142800  0.85674900  1
  Al  Al23  1  0.42847500  0.42847500  0.71448400  1
  Al  Al24  1  0.57147100  0.57147100  0.78580400  1
  Al  Al25  1  0.92863200  0.42837700  0.71447000  1
  Al  Al26  1  0.71575800  0.71575800  0.85691400  1
  Al  Al27  1  0.21142800  0.71525700  0.85674900  1
  O  O0  1  0.68910600  0.68910600  0.95949800  1
  O  O1  1  0.83600500  0.83600500  0.02868400  1
  O  O2  1  0.16831300  0.69518000  0.96132600  1
  O  O3  1  0.69518000  0.16831300  0.96132600  1
  O  O4  1  0.30482000  0.83168700  0.03867400  1
  O  O5  1  0.98103300  0.98103300  0.11078400  1
  O  O6  1  0.16399500  0.16399500  0.97131600  1
  O  O7  1  0.83168700  0.30482000  0.03867400  1
  O  O8  1  0.10953500  0.10953500  0.17361300  1
  O  O9  1  0.43003500  0.97847700  0.11048100  1
  O  O10  1  0.31089400  0.31089400  0.04050200  1
  O  O11  1  0.97847700  0.43003500  0.11048100  1
  O  O12  1  0.58879700  0.14681100  0.17621500  1
  O  O13  1  0.26780900  0.26780900  0.25185200  1
  O  O14  1  0.14681100  0.58879700  0.17621500  1
  O  O15  1  0.46336300  0.46336300  0.11064700  1
  O  O16  1  0.71285200  0.26742700  0.25187400  1
  O  O17  1  0.39493800  0.39493800  0.31548500  1
  O  O18  1  0.26742700  0.71285200  0.25187400  1
  O  O19  1  0.58841900  0.58841900  0.17638100  1
  O  O20  1  0.87560400  0.42981300  0.31929200  1
  O  O21  1  0.55332400  0.55332400  0.39472100  1
  O  O22  1  0.42981300  0.87560400  0.31929200  1
  O  O23  1  0.74813500  0.74813500  0.25537800  1
  O  O24  1  0.68064500  0.68064500  0.45841100  1
  O  O25  1  0.99889500  0.55304100  0.39475200  1
  O  O26  1  0.87533100  0.87533100  0.31933300  1
  O  O27  1  0.55304100  0.99889500  0.39475200  1
  O  O28  1  0.16132000  0.71542200  0.46231100  1
  O  O29  1  0.83901800  0.83901800  0.53764600  1
  O  O30  1  0.96634100  0.96634100  0.60132500  1
  O  O31  1  0.71542200  0.16132000  0.46231100  1
  O  O32  1  0.03365900  0.03365900  0.39867500  1
  O  O33  1  0.28457800  0.83868000  0.53768900  1
  O  O34  1  0.16098200  0.16098200  0.46235400  1
  O  O35  1  0.83868000  0.28457800  0.53768900  1
  O  O36  1  0.44695900  0.00110500  0.60524800  1
  O  O37  1  0.12466900  0.12466900  0.68066700  1
  O  O38  1  0.00110500  0.44695900  0.60524800  1
  O  O39  1  0.25186500  0.25186500  0.74462200  1
  O  O40  1  0.31935500  0.31935500  0.54158900  1
  O  O41  1  0.57018700  0.12439600  0.68070800  1
  O  O42  1  0.44667600  0.44667600  0.60527900  1
  O  O43  1  0.12439600  0.57018700  0.68070800  1
  O  O44  1  0.73257300  0.28714800  0.74812600  1
  O  O45  1  0.41158100  0.41158100  0.82361900  1
  O  O46  1  0.28714800  0.73257300  0.74812600  1
  O  O47  1  0.60506200  0.60506200  0.68451500  1
  O  O48  1  0.53663700  0.53663700  0.88935300  1
  O  O49  1  0.85318900  0.41120300  0.82378500  1
  O  O50  1  0.41120300  0.85318900  0.82378500  1
  O  O51  1  0.73219100  0.73219100  0.74814800  1
  O  O52  1  0.02152300  0.56996500  0.88951900  1
  O  O53  1  0.89046500  0.89046500  0.82638700  1
  O  O54  1  0.56996500  0.02152300  0.88951900  1
  O  O55  1  0.01896700  0.01896700  0.88921600  1
loop_
_geom_bond_atom_site_label_1
_geom_bond_atom_site_label_2
_geom_bond_distance
_geom_bond_site_symmetry_2
Mg0 O1 1.972740 1_455
Mg0 O6 1.972740 1_554
Mg0 O10 2.103333 1_555
Mg0 O0 2.103333 1_454
Mg0 O2 2.120645 1_554
Mg0 O7 2.120645 1_455
Mg1 O1 1.936190 1_555
Mg1 O5 1.984634 1_555
Mg1 O9 1.997099 1_555
Mg1 O11 1.997099 1_555
Mg2 O1 1.972740 1_545
Mg2 O6 1.972740 1_554
Mg2 O10 2.103333 1_555
Mg2 O0 2.103333 1_544
Mg2 O3 2.120645 1_554
Mg2 O4 2.120645 1_545
Mg3 O8 1.947828 1_555
Mg3 O18 1.956532 1_545
Mg3 O16 1.956532 1_455
Mg3 O13 1.956914 1_555
Mg4 O25 1.960919 1_455
Mg4 O27 1.960919 1_545
Mg4 O21 1.961930 1_555
Mg4 O17 1.961991 1_555
Mg5 O14 1.966830 1_655
Mg5 O12 1.966830 1_565
Mg5 O19 1.966968 1_555
Mg5 O23 1.977456 1_555
Mg6 O33 1.960715 1_555
Mg6 O35 1.960715 1_555
Mg6 O29 1.961542 1_555
Mg6 O24 1.963081 1_555
Mg7 O20 1.961941 1_455
Mg7 O22 1.961941 1_545
Mg7 O32 1.963016 1_555
Mg7 O26 1.963070 1_445
Mg8 O41 1.961941 1_565
Mg8 O43 1.961941 1_655
Mg8 O30 1.963016 1_555
Mg8 O37 1.963070 1_665
Mg9 O28 1.960715 1_555
Mg9 O31 1.960715 1_555
Mg9 O34 1.961542 1_555
Mg9 O40 1.963081 1_555
Mg10 O49 1.966830 1_455
Mg10 O50 1.966830 1_545
Mg10 O45 1.966968 1_555
Mg10 O39 1.977456 1_555
Mg11 O36 1.960919 1_565
Mg11 O38 1.960919 1_655
Mg11 O42 1.961930 1_555
Mg11 O47 1.961991 1_555
Mg12 O53 1.947828 1_555
Mg12 O44 1.956532 1_565
Mg12 O46 1.956532 1_655
Mg12 O51 1.956914 1_555
Mg13 O6 1.936190 1_555
Mg13 O55 1.984634 1_555
Mg13 O52 1.997099 1_555
Mg13 O54 1.997099 1_555
Al0 O0 1.787238 1_555
Al0 O3 1.824271 1_555
Al0 O2 1.824271 1_555
Al0 O48 1.833283 1_555
Al1 O0 1.908241 1_555
Al1 O55 1.944552 1_665
Al1 O54 1.945716 1_565
Al1 O52 1.945716 1_655
Al1 O3 1.969375 1_565
Al1 O2 1.969375 1_655
Al2 O1 1.813448 1_445
Al2 O6 1.813448 1_554
Al2 O3 2.038022 1_454
Al2 O2 2.038022 1_544
Al2 O4 2.038022 1_545
Al2 O7 2.038022 1_455
Al3 O5 1.907981 1_455
Al3 O9 1.910358 1_555
Al3 O19 1.924705 1_555
Al3 O14 1.927739 1_555
Al3 O8 1.934817 1_565
Al3 O15 1.995185 1_555
Al4 O10 1.908241 1_555
Al4 O5 1.944552 1_445
Al4 O9 1.945716 1_545
Al4 O11 1.945716 1_455
Al4 O4 1.969375 1_545
Al4 O7 1.969375 1_455
Al5 O11 1.918990 1_455
Al5 O9 1.918990 1_545
Al5 O12 1.928354 1_555
Al5 O14 1.928354 1_555
Al5 O8 1.931459 1_555
Al5 O15 1.997011 1_555
Al6 O13 1.934300 1_555
Al6 O16 1.935420 1_555
Al6 O26 1.936223 1_545
Al6 O22 1.938108 1_545
Al6 O17 1.938488 1_555
Al6 O23 1.940655 1_545
Al7 O5 1.907981 1_545
Al7 O11 1.910358 1_555
Al7 O19 1.924705 1_555
Al7 O12 1.927739 1_555
Al7 O8 1.934817 1_655
Al7 O15 1.995185 1_555
Al8 O10 1.787238 1_555
Al8 O7 1.824271 1_555
Al8 O4 1.824271 1_555
Al8 O15 1.833283 1_555
Al9 O19 1.932900 1_555
Al9 O14 1.933511 1_555
Al9 O12 1.933511 1_555
Al9 O13 1.936267 1_555
Al9 O18 1.936599 1_555
Al9 O16 1.936599 1_555
Al10 O18 1.934878 1_555
Al10 O16 1.934878 1_555
Al10 O20 1.937372 1_555
Al10 O22 1.937372 1_555
Al10 O17 1.939631 1_555
Al10 O23 1.942204 1_555
Al11 O27 1.938561 1_555
Al11 O25 1.938561 1_555
Al11 O22 1.938646 1_555
Al11 O20 1.938646 1_555
Al11 O21 1.939022 1_555
Al11 O26 1.939280 1_555
Al12 O13 1.934300 1_555
Al12 O18 1.935420 1_555
Al12 O26 1.936223 1_455
Al12 O20 1.938108 1_455
Al12 O17 1.938488 1_555
Al12 O23 1.940655 1_455
Al13 O32 1.937384 1_665
Al13 O24 1.937672 1_555
Al13 O28 1.937672 1_655
Al13 O31 1.937672 1_565
Al13 O25 1.937714 1_555
Al13 O27 1.937714 1_555
Al14 O40 1.936257 1_555
Al14 O42 1.936784 1_555
Al14 O30 1.936877 1_455
Al14 O29 1.937257 1_455
Al14 O33 1.937907 1_555
Al14 O38 1.939147 1_555
Al15 O40 1.936257 1_555
Al15 O42 1.936784 1_555
Al15 O30 1.936877 1_545
Al15 O29 1.937257 1_545
Al15 O35 1.937907 1_555
Al15 O36 1.939147 1_555
Al16 O24 1.936257 1_555
Al16 O21 1.936784 1_555
Al16 O32 1.936877 1_565
Al16 O34 1.937257 1_565
Al16 O28 1.937907 1_555
Al16 O27 1.939147 1_555
Al17 O28 1.937822 1_545
Al17 O31 1.937822 1_455
Al17 O35 1.937822 1_455
Al17 O33 1.937822 1_545
Al17 O29 1.938089 1_445
Al17 O34 1.938089 1_555
Al18 O30 1.937384 1_445
Al18 O40 1.937672 1_555
Al18 O35 1.937672 1_455
Al18 O33 1.937672 1_545
Al18 O38 1.937714 1_555
Al18 O36 1.937714 1_555
Al19 O24 1.936257 1_555
Al19 O21 1.936784 1_555
Al19 O32 1.936877 1_655
Al19 O34 1.937257 1_655
Al19 O31 1.937907 1_555
Al19 O25 1.939147 1_555
Al20 O51 1.934300 1_555
Al20 O46 1.935420 1_555
Al20 O37 1.936223 1_565
Al20 O41 1.938108 1_565
Al20 O47 1.938488 1_555
Al20 O39 1.940655 1_565
Al21 O38 1.938561 1_555
Al21 O36 1.938561 1_555
Al21 O41 1.938646 1_555
Al21 O43 1.938646 1_555
Al21 O42 1.939022 1_555
Al21 O37 1.939280 1_555
Al22 O55 1.907981 1_655
Al22 O54 1.910358 1_555
Al22 O45 1.924705 1_555
Al22 O49 1.927739 1_555
Al22 O53 1.934817 1_545
Al22 O48 1.995185 1_555
Al23 O46 1.934878 1_555
Al23 O44 1.934878 1_555
Al23 O41 1.937372 1_555
Al23 O43 1.937372 1_555
Al23 O47 1.939631 1_555
Al23 O39 1.942204 1_555
Al24 O45 1.932900 1_555
Al24 O49 1.933511 1_555
Al24 O50 1.933511 1_555
Al24 O51 1.936267 1_555
Al24 O44 1.936599 1_555
Al24 O46 1.936599 1_555
Al25 O51 1.934300 1_555
Al25 O44 1.935420 1_555
Al25 O37 1.936223 1_655
Al25 O43 1.938108 1_655
Al25 O47 1.938488 1_555
Al25 O39 1.940655 1_655
Al26 O54 1.918990 1_565
Al26 O52 1.918990 1_655
Al26 O49 1.928354 1_555
Al26 O50 1.928354 1_555
Al26 O53 1.931459 1_555
Al26 O48 1.997011 1_555
Al27 O55 1.907981 1_565
Al27 O52 1.910358 1_555
Al27 O45 1.924705 1_555
Al27 O50 1.927739 1_555
Al27 O53 1.934817 1_455
Al27 O48 1.995185 1_555
