# generated using pymatgen
data_CaSiN2
_symmetry_space_group_name_H-M   'P 1'
_cell_length_a   5.12572645
_cell_length_b   10.20527365
_cell_length_c   14.81879670
_cell_angle_alpha   90.00000000
_cell_angle_beta   90.00000000
_cell_angle_gamma   90.00000000
_symmetry_Int_Tables_number   1
_chemical_formula_structural   CaSiN2
_chemical_formula_sum   'Ca16 Si16 N32'
_cell_volume   775.16297282
_cell_formula_units_Z   16
loop_
 _symmetry_equiv_pos_site_id
 _symmetry_equiv_pos_as_xyz
  1  'x, y, z'
loop_
 _atom_site_type_symbol
 _atom_site_label
 _atom_site_symmetry_multiplicity
 _atom_site_fract_x
 _atom_site_fract_y
 _atom_site_fract_z
 _atom_site_occupancy
  Ca  Ca0  1  0.65259141  0.77417956  0.31237198  1
  Ca  Ca1  1  0.74095227  0.00910950  0.43483495  1
  Ca  Ca2  1  0.24095227  0.49089050  0.56516505  1
  Ca  Ca3  1  0.84740859  0.22582044  0.81237198  1
  Ca  Ca4  1  0.34740859  0.22582044  0.68762802  1
  Ca  Ca5  1  0.25904773  0.50910950  0.06516505  1
  Ca  Ca6  1  0.25904773  0.99089050  0.56516505  1
  Ca  Ca7  1  0.34740859  0.27417956  0.18762802  1
  Ca  Ca8  1  0.15259141  0.72582044  0.68762802  1
  Ca  Ca9  1  0.15259141  0.77417956  0.18762802  1
  Ca  Ca10  1  0.74095227  0.49089050  0.93483495  1
  Ca  Ca11  1  0.65259141  0.72582044  0.81237198  1
  Ca  Ca12  1  0.24095227  0.00910950  0.06516505  1
  Ca  Ca13  1  0.75904773  0.50910950  0.43483495  1
  Ca  Ca14  1  0.75904773  0.99089050  0.93483495  1
  Ca  Ca15  1  0.84740859  0.27417956  0.31237198  1
  Si  Si0  1  0.27317392  0.98358114  0.81200209  1
  Si  Si1  1  0.68347106  0.73007027  0.56266942  1
  Si  Si2  1  0.68347106  0.76992973  0.06266942  1
  Si  Si3  1  0.18347106  0.76992973  0.43733058  1
  Si  Si4  1  0.81652894  0.26992973  0.06266942  1
  Si  Si5  1  0.31652894  0.26992973  0.43733058  1
  Si  Si6  1  0.81652894  0.23007027  0.56266942  1
  Si  Si7  1  0.72682608  0.01641886  0.18799791  1
  Si  Si8  1  0.18347106  0.73007027  0.93733058  1
  Si  Si9  1  0.22682608  0.48358114  0.81200209  1
  Si  Si10  1  0.72682608  0.48358114  0.68799791  1
  Si  Si11  1  0.31652894  0.23007027  0.93733058  1
  Si  Si12  1  0.22682608  0.01641886  0.31200209  1
  Si  Si13  1  0.27317392  0.51641886  0.31200209  1
  Si  Si14  1  0.77317392  0.98358114  0.68799791  1
  Si  Si15  1  0.77317392  0.51641886  0.18799791  1
  N  N0  1  0.30276223  0.92676911  0.40894451  1
  N  N1  1  0.59484698  0.02269472  0.78410713  1
  N  N2  1  0.35142306  0.77604089  0.03538532  1
  N  N3  1  0.77644083  0.17978727  0.16153294  1
  N  N4  1  0.90515302  0.52269472  0.78410713  1
  N  N5  1  0.72355917  0.67978727  0.16153294  1
  N  N6  1  0.22355917  0.82021273  0.83846706  1
  N  N7  1  0.40515302  0.97730528  0.21589287  1
  N  N8  1  0.59484698  0.47730528  0.28410713  1
  N  N9  1  0.14857694  0.22395911  0.53538532  1
  N  N10  1  0.19723777  0.42676911  0.40894451  1
  N  N11  1  0.09484698  0.47730528  0.21589287  1
  N  N12  1  0.27644083  0.32021273  0.83846706  1
  N  N13  1  0.80276223  0.92676911  0.09105549  1
  N  N14  1  0.14857694  0.27604089  0.03538532  1
  N  N15  1  0.85142306  0.72395911  0.96461468  1
  N  N16  1  0.64857694  0.22395911  0.96461468  1
  N  N17  1  0.69723777  0.42676911  0.09105549  1
  N  N18  1  0.09484698  0.02269472  0.71589287  1
  N  N19  1  0.19723777  0.07323089  0.90894451  1
  N  N20  1  0.22355917  0.67978727  0.33846706  1
  N  N21  1  0.35142306  0.72395911  0.53538532  1
  N  N22  1  0.40515302  0.52269472  0.71589287  1
  N  N23  1  0.64857694  0.27604089  0.46461468  1
  N  N24  1  0.27644083  0.17978727  0.33846706  1
  N  N25  1  0.72355917  0.82021273  0.66153294  1
  N  N26  1  0.90515302  0.97730528  0.28410713  1
  N  N27  1  0.80276223  0.57323089  0.59105549  1
  N  N28  1  0.85142306  0.77604089  0.46461468  1
  N  N29  1  0.77644083  0.32021273  0.66153294  1
  N  N30  1  0.30276223  0.57323089  0.90894451  1
  N  N31  1  0.69723777  0.07323089  0.59105549  1
loop_
_geom_bond_atom_site_label_1
_geom_bond_atom_site_label_2
_geom_bond_distance
_geom_bond_site_symmetry_2
Ca0 N20 2.431775 1_555
Ca0 N5 2.461021 1_555
Ca0 N28 2.475645 1_555
Ca0 N26 2.479609 1_555
Ca1 N26 2.408881 1_545
Ca1 N31 2.416121 1_555
Ca1 N0 2.428584 1_545
Ca1 N28 2.484507 1_545
Ca1 N23 2.799947 1_555
Ca2 N22 2.408881 1_555
Ca2 N10 2.416121 1_555
Ca2 N27 2.428584 1_455
Ca2 N21 2.484507 1_555
Ca2 N9 2.799947 1_555
Ca3 N12 2.431775 1_655
Ca3 N29 2.461021 1_555
Ca3 N16 2.475645 1_555
Ca3 N1 2.479609 1_555
Ca4 N29 2.431775 1_555
Ca4 N12 2.461021 1_555
Ca4 N9 2.475645 1_555
Ca4 N18 2.479609 1_555
Ca5 N11 2.408881 1_555
Ca5 N30 2.416121 1_554
Ca5 N17 2.428584 1_555
Ca5 N14 2.484507 1_555
Ca5 N2 2.799947 1_555
Ca6 N18 2.408881 1_565
Ca6 N0 2.416121 1_555
Ca6 N31 2.428584 1_565
Ca6 N9 2.484507 1_565
Ca6 N21 2.799947 1_555
Ca7 N3 2.431775 1_555
Ca7 N24 2.461021 1_555
Ca7 N14 2.475645 1_555
Ca7 N11 2.479609 1_555
Ca8 N25 2.431775 1_455
Ca8 N6 2.461021 1_555
Ca8 N21 2.475645 1_555
Ca8 N22 2.479609 1_555
Ca9 N5 2.431775 1_455
Ca9 N20 2.461021 1_555
Ca9 N2 2.475645 1_555
Ca9 N7 2.479609 1_555
Ca10 N4 2.408881 1_555
Ca10 N17 2.416121 1_556
Ca10 N30 2.428584 1_555
Ca10 N15 2.484507 1_555
Ca10 N16 2.799947 1_555
Ca11 N6 2.431775 1_555
Ca11 N25 2.461021 1_555
Ca11 N15 2.475645 1_555
Ca11 N4 2.479609 1_555
Ca12 N7 2.408881 1_545
Ca12 N19 2.416121 1_554
Ca12 N13 2.428584 1_445
Ca12 N2 2.484507 1_545
Ca12 N14 2.799947 1_555
Ca13 N8 2.408881 1_555
Ca13 N27 2.416121 1_555
Ca13 N10 2.428584 1_655
Ca13 N23 2.484507 1_555
Ca13 N28 2.799947 1_555
Ca14 N1 2.408881 1_565
Ca14 N13 2.416121 1_556
Ca14 N19 2.428584 1_665
Ca14 N16 2.484507 1_565
Ca14 N15 2.799947 1_555
Ca15 N24 2.431775 1_655
Ca15 N3 2.461021 1_555
Ca15 N23 2.475645 1_555
Ca15 N8 2.479609 1_555
N0 Si12 1.747076 1_565
N0 Si3 1.764286 1_555
N1 Si14 1.738747 1_545
N1 Si0 1.746074 1_545
N2 Si2 1.750464 1_555
N2 Si8 1.752874 1_554
N3 Si7 1.731502 1_555
N3 Si4 1.742076 1_555
N4 Si10 1.738747 1_555
N4 Si9 1.746074 1_655
N5 Si15 1.731502 1_555
N5 Si2 1.742076 1_555
N6 Si0 1.731502 1_555
N6 Si8 1.742076 1_555
N7 Si12 1.738747 1_565
N7 Si7 1.746074 1_565
N8 Si15 1.738747 1_555
N8 Si13 1.746074 1_555
N9 Si6 1.750464 1_455
N9 Si5 1.752874 1_555
N10 Si13 1.747076 1_555
N10 Si5 1.764286 1_555
N11 Si13 1.738747 1_555
N11 Si15 1.746074 1_455
N12 Si9 1.731502 1_555
N12 Si11 1.742076 1_555
N13 Si7 1.747076 1_565
N13 Si2 1.764286 1_555
N14 Si4 1.750464 1_455
N14 Si11 1.752874 1_554
N15 Si8 1.750464 1_655
N15 Si2 1.752874 1_556
N16 Si11 1.750464 1_555
N16 Si4 1.752874 1_556
N17 Si15 1.747076 1_555
N17 Si4 1.764286 1_555
N18 Si0 1.738747 1_545
N18 Si14 1.746074 1_445
N19 Si0 1.747076 1_545
N19 Si11 1.764286 1_555
N20 Si13 1.731502 1_555
N20 Si3 1.742076 1_555
N21 Si1 1.750464 1_555
N21 Si3 1.752874 1_555
N22 Si9 1.738747 1_555
N22 Si10 1.746074 1_555
N23 Si5 1.750464 1_555
N23 Si6 1.752874 1_555
N24 Si12 1.731502 1_555
N24 Si5 1.742076 1_555
N25 Si14 1.731502 1_555
N25 Si1 1.742076 1_555
N26 Si7 1.738747 1_565
N26 Si12 1.746074 1_665
N27 Si10 1.747076 1_555
N27 Si1 1.764286 1_555
N28 Si3 1.750464 1_655
N28 Si1 1.752874 1_555
N29 Si10 1.731502 1_555
N29 Si6 1.742076 1_555
N30 Si9 1.747076 1_555
N30 Si8 1.764286 1_555
N31 Si14 1.747076 1_545
N31 Si6 1.764286 1_555
