# generated using pymatgen
data_MnV2O4
_symmetry_space_group_name_H-M   'P 1'
_cell_length_a   6.03465565
_cell_length_b   6.03465597
_cell_length_c   24.49686530
_cell_angle_alpha   60.48259375
_cell_angle_beta   60.48259199
_cell_angle_gamma   60.00000046
_symmetry_Int_Tables_number   1
_chemical_formula_structural   MnV2O4
_chemical_formula_sum   'Mn8 V16 O32'
_cell_volume   635.37514710
_cell_formula_units_Z   8
loop_
 _symmetry_equiv_pos_site_id
 _symmetry_equiv_pos_as_xyz
  1  'x, y, z'
loop_
 _atom_site_type_symbol
 _atom_site_label
 _atom_site_symmetry_multiplicity
 _atom_site_fract_x
 _atom_site_fract_y
 _atom_site_fract_z
 _atom_site_occupancy
  Mn  Mn0  1  0.50299000  0.50299000  0.99775800  1
  Mn  Mn1  1  0.49843900  0.49843900  0.25117100  1
  Mn  Mn2  1  0.13020400  0.13020400  0.52734700  1
  Mn  Mn3  1  0.12873100  0.12873100  0.77845100  1
  Mn  Mn4  1  0.87773200  0.87773200  0.21670100  1
  Mn  Mn5  1  0.87593600  0.87593600  0.46804800  1
  Mn  Mn6  1  0.87422200  0.87422200  0.71933400  1
  Mn  Mn7  1  0.87670600  0.87670600  0.96747100  1
  V  V0  1  0.12412700  0.12412700  0.03190500  1
  V  V1  1  0.50023500  0.99872000  0.12520300  1
  V  V2  1  0.12316200  0.12316200  0.28262900  1
  V  V3  1  0.50023500  0.50023500  0.12520300  1
  V  V4  1  0.50413400  0.98727000  0.37611600  1
  V  V5  1  0.99872000  0.50023500  0.12520300  1
  V  V6  1  0.50413400  0.50413400  0.37611600  1
  V  V7  1  0.49212000  0.49212000  0.50591000  1
  V  V8  1  0.50300800  0.99517100  0.62470300  1
  V  V9  1  0.98727000  0.50413400  0.37611600  1
  V  V10  1  0.50300800  0.50300800  0.62470300  1
  V  V11  1  0.49787500  0.49787500  0.75159400  1
  V  V12  1  0.50000600  0.00586700  0.87353100  1
  V  V13  1  0.99517100  0.50300800  0.62470300  1
  V  V14  1  0.50000600  0.50000600  0.87353100  1
  V  V15  1  0.00586700  0.50000600  0.87353100  1
  O  O0  1  0.24865100  0.24865100  0.06663400  1
  O  O1  1  0.24865100  0.73616500  0.06663400  1
  O  O2  1  0.25387100  0.25387100  0.18459700  1
  O  O3  1  0.73616500  0.24865100  0.06663400  1
  O  O4  1  0.24199200  0.24199200  0.31997000  1
  O  O5  1  0.28801600  0.74668700  0.17965300  1
  O  O6  1  0.73873900  0.73873900  0.07094600  1
  O  O7  1  0.74668700  0.28801600  0.17965300  1
  O  O8  1  0.26644700  0.26644700  0.42516500  1
  O  O9  1  0.24199200  0.73613500  0.31997000  1
  O  O10  1  0.73613500  0.24199200  0.31997000  1
  O  O11  1  0.74668700  0.74668700  0.17965300  1
  O  O12  1  0.28965600  0.72782900  0.43867100  1
  O  O13  1  0.25619200  0.25619200  0.56812500  1
  O  O14  1  0.73977600  0.73977600  0.32016800  1
  O  O15  1  0.26523600  0.26523600  0.67607300  1
  O  O16  1  0.72782900  0.28965600  0.43867100  1
  O  O17  1  0.25619200  0.71511500  0.56812500  1
  O  O18  1  0.72782900  0.72782900  0.43867100  1
  O  O19  1  0.71511500  0.25619200  0.56812500  1
  O  O20  1  0.26327700  0.26327700  0.81462300  1
  O  O21  1  0.29013200  0.73431600  0.68530900  1
  O  O22  1  0.73887300  0.73887300  0.57084600  1
  O  O23  1  0.73431600  0.29013200  0.68530900  1
  O  O24  1  0.25383600  0.25383600  0.93462300  1
  O  O25  1  0.26327700  0.71495200  0.81462300  1
  O  O26  1  0.71495200  0.26327700  0.81462300  1
  O  O27  1  0.73431600  0.73431600  0.68530900  1
  O  O28  1  0.28933700  0.75198100  0.92667500  1
  O  O29  1  0.73783000  0.73783000  0.82162800  1
  O  O30  1  0.75198100  0.28933700  0.92667500  1
  O  O31  1  0.75198100  0.75198100  0.92667500  1
loop_
_geom_bond_atom_site_label_1
_geom_bond_atom_site_label_2
_geom_bond_distance
_geom_bond_site_symmetry_2
Mn0 O31 2.156150 1_555
Mn0 O30 2.156162 1_555
Mn0 O28 2.156162 1_555
Mn0 O0 2.193282 1_556
Mn0 O1 2.193286 1_556
Mn0 O3 2.193286 1_556
Mn1 O7 2.151687 1_555
Mn1 O5 2.151687 1_555
Mn1 O11 2.151691 1_555
Mn1 O9 2.210244 1_555
Mn1 O10 2.210244 1_555
Mn1 O4 2.210252 1_555
Mn2 O13 2.056395 1_555
Mn2 O19 2.056400 1_455
Mn2 O17 2.056400 1_545
Mn2 O8 2.058586 1_555
Mn3 O26 2.044692 1_455
Mn3 O25 2.044692 1_545
Mn3 O20 2.044697 1_555
Mn3 O15 2.062534 1_555
Mn4 O11 2.028359 1_555
Mn4 O5 2.028368 1_655
Mn4 O7 2.028369 1_565
Mn4 O14 2.084474 1_555
Mn5 O12 2.044978 1_655
Mn5 O16 2.044978 1_565
Mn5 O18 2.044988 1_555
Mn5 O22 2.070996 1_555
Mn6 O21 2.054262 1_655
Mn6 O23 2.054262 1_565
Mn6 O27 2.054271 1_555
Mn6 O29 2.060842 1_555
Mn7 O28 2.044661 1_655
Mn7 O30 2.044661 1_565
Mn7 O31 2.044676 1_555
Mn7 O6 2.084635 1_556
O0 V0 1.917750 1_555
O0 V5 2.088680 1_455
O0 V1 2.088680 1_545
O1 V0 1.917740 1_565
O1 V3 2.088680 1_555
O1 V5 2.088685 1_455
O2 V2 1.974979 1_555
O2 V5 2.117768 1_455
O2 V1 2.117768 1_545
O2 V3 2.117772 1_555
O3 V0 1.917740 1_655
O3 V3 2.088680 1_555
O3 V1 2.088685 1_545
O4 V2 1.916288 1_555
O4 V4 2.094304 1_545
O4 V9 2.094304 1_455
O5 V3 1.999512 1_555
O5 V1 1.999512 1_555
O6 V3 2.052120 1_555
O6 V5 2.052124 1_555
O6 V1 2.052124 1_555
O7 V3 1.999512 1_555
O7 V5 1.999512 1_555
O8 V9 2.054109 1_455
O8 V4 2.054109 1_545
O8 V6 2.054113 1_555
O9 V2 1.916303 1_565
O9 V9 2.094291 1_455
O9 V6 2.094304 1_555
O10 V2 1.916303 1_655
O10 V4 2.094291 1_545
O10 V6 2.094304 1_555
O11 V5 1.999512 1_555
O11 V1 1.999512 1_555
O12 V7 2.040988 1_555
O12 V6 2.045126 1_555
O12 V4 2.045144 1_555
O13 V7 2.031656 1_555
O13 V13 2.038962 1_455
O13 V8 2.038962 1_545
O14 V6 2.025815 1_555
O14 V9 2.025823 1_555
O14 V4 2.025823 1_555
O15 V10 2.049797 1_555
O15 V13 2.049802 1_455
O15 V8 2.049802 1_545
O16 V7 2.040988 1_555
O16 V6 2.045126 1_555
O16 V9 2.045144 1_555
O17 V7 2.031652 1_555
O17 V10 2.038962 1_555
O17 V13 2.038962 1_455
O18 V7 2.040980 1_555
O18 V9 2.045128 1_555
O18 V4 2.045128 1_555
O19 V7 2.031652 1_555
O19 V10 2.038962 1_555
O19 V8 2.038962 1_545
O20 V11 2.022105 1_555
O20 V15 2.034616 1_555
O20 V12 2.034616 1_555
O21 V8 2.042660 1_555
O21 V10 2.042664 1_555
O21 V11 2.044091 1_555
O22 V13 2.029189 1_555
O22 V8 2.029189 1_555
O22 V10 2.029206 1_555
O23 V13 2.042660 1_555
O23 V10 2.042664 1_555
O23 V11 2.044091 1_555
O24 V0 1.959869 1_556
O24 V12 2.116322 1_555
O24 V15 2.116322 1_555
O24 V14 2.116334 1_555
O25 V11 2.022093 1_555
O25 V15 2.034596 1_555
O25 V14 2.034618 1_555
O26 V11 2.022093 1_555
O26 V12 2.034596 1_555
O26 V14 2.034618 1_555
O27 V13 2.042664 1_555
O27 V8 2.042664 1_555
O27 V11 2.044087 1_555
O28 V14 2.002469 1_555
O28 V12 2.002488 1_565
O29 V14 2.049316 1_555
O29 V15 2.049320 1_655
O29 V12 2.049320 1_565
O30 V14 2.002469 1_555
O30 V15 2.002488 1_655
O31 V15 2.002471 1_655
O31 V12 2.002471 1_565
