# generated using pymatgen
data_TlInAs2O7
_symmetry_space_group_name_H-M   'P 1'
_cell_length_a   7.97513500
_cell_length_b   8.80857738
_cell_length_c   10.70454718
_cell_angle_alpha   91.25381155
_cell_angle_beta   89.99063318
_cell_angle_gamma   105.68975067
_symmetry_Int_Tables_number   1
_chemical_formula_structural   TlInAs2O7
_chemical_formula_sum   'Tl4 In4 As8 O28'
_cell_volume   723.78477262
_cell_formula_units_Z   4
loop_
 _symmetry_equiv_pos_site_id
 _symmetry_equiv_pos_as_xyz
  1  'x, y, z'
loop_
 _atom_site_type_symbol
 _atom_site_label
 _atom_site_symmetry_multiplicity
 _atom_site_fract_x
 _atom_site_fract_y
 _atom_site_fract_z
 _atom_site_occupancy
  Tl  Tl0  1  0.31805000  0.94221700  0.18421100  1
  Tl  Tl1  1  0.68195000  0.05778300  0.81578900  1
  Tl  Tl2  1  0.65406100  0.53833100  0.68122700  1
  Tl  Tl3  1  0.34593900  0.46166900  0.31877300  1
  In  In0  1  0.73829900  0.26144700  0.40396100  1
  In  In1  1  0.26170100  0.73855300  0.59603900  1
  In  In2  1  0.73651000  0.76892400  0.10206800  1
  In  In3  1  0.26349000  0.23107600  0.89793200  1
  As  As0  1  0.62893400  0.33084600  0.09970200  1
  As  As1  1  0.06725200  0.32689400  0.64155700  1
  As  As2  1  0.37106600  0.66915400  0.90029800  1
  As  As3  1  0.93274800  0.67310600  0.35844300  1
  As  As4  1  0.34362900  0.14938700  0.57304900  1
  As  As5  1  0.05000200  0.79833600  0.86757900  1
  As  As6  1  0.65637100  0.85061300  0.42695100  1
  As  As7  1  0.94999800  0.20166400  0.13242100  1
  O  O0  1  0.48922300  0.78040900  0.02028300  1
  O  O1  1  0.04442700  0.76895100  0.70902800  1
  O  O2  1  0.95828600  0.74716800  0.21063500  1
  O  O3  1  0.49192300  0.28616200  0.48932700  1
  O  O4  1  0.12716800  0.66108500  0.41587400  1
  O  O5  1  0.16952500  0.97479000  0.92744700  1
  O  O6  1  0.14752100  0.65540100  0.93561000  1
  O  O7  1  0.50807700  0.71383800  0.51067300  1
  O  O8  1  0.31138500  0.96439800  0.51253100  1
  O  O9  1  0.76603200  0.50677400  0.36974000  1
  O  O10  1  0.04171400  0.25283200  0.78936500  1
  O  O11  1  0.95557300  0.23104900  0.29097200  1
  O  O12  1  0.68861500  0.03560200  0.48746900  1
  O  O13  1  0.87283200  0.33891500  0.58412600  1
  O  O14  1  0.60320200  0.82224500  0.27179800  1
  O  O15  1  0.16083900  0.25917200  0.08231800  1
  O  O16  1  0.83047500  0.02521000  0.07255300  1
  O  O17  1  0.39537300  0.48497600  0.88343300  1
  O  O18  1  0.60462700  0.51502400  0.11656700  1
  O  O19  1  0.83916100  0.74082800  0.91768200  1
  O  O20  1  0.39679800  0.17775500  0.72820200  1
  O  O21  1  0.57698000  0.22151700  0.23233500  1
  O  O22  1  0.51077700  0.21959100  0.97971700  1
  O  O23  1  0.86420700  0.81415800  0.45526400  1
  O  O24  1  0.42302000  0.77848300  0.76766500  1
  O  O25  1  0.13579300  0.18584200  0.54473600  1
  O  O26  1  0.85247900  0.34459900  0.06439000  1
  O  O27  1  0.23396800  0.49322600  0.63026000  1
loop_
_geom_bond_atom_site_label_1
_geom_bond_atom_site_label_2
_geom_bond_distance
_geom_bond_site_symmetry_2
In0 O12 2.136601 1_555
In0 O9 2.151526 1_555
In0 O11 2.184771 1_555
In0 O21 2.209497 1_555
In0 O13 2.209828 1_555
In0 O3 2.228286 1_555
In1 O8 2.136601 1_555
In1 O27 2.151526 1_555
In1 O1 2.184771 1_555
In1 O24 2.209497 1_555
In1 O4 2.209828 1_555
In1 O7 2.228286 1_555
In2 O2 2.170107 1_555
In2 O19 2.171378 1_554
In2 O0 2.185955 1_555
In2 O16 2.207695 1_565
In2 O18 2.207971 1_555
In2 O14 2.209988 1_555
In3 O10 2.170107 1_555
In3 O15 2.171378 1_556
In3 O22 2.185955 1_555
In3 O5 2.207695 1_545
In3 O17 2.207971 1_555
In3 O20 2.209988 1_555
As0 O18 1.690989 1_555
As0 O22 1.715766 1_554
As0 O21 1.720089 1_555
As0 O26 1.794690 1_555
As1 O27 1.697989 1_555
As1 O13 1.698602 1_455
As1 O10 1.715721 1_555
As1 O25 1.796521 1_555
As2 O17 1.690989 1_555
As2 O0 1.715766 1_556
As2 O24 1.720089 1_555
As2 O6 1.794690 1_555
As3 O9 1.697989 1_555
As3 O4 1.698602 1_655
As3 O2 1.715721 1_555
As3 O23 1.796521 1_555
As4 O8 1.693593 1_545
As4 O20 1.710380 1_555
As4 O3 1.711627 1_555
As4 O25 1.798511 1_555
As5 O5 1.700139 1_555
As5 O19 1.709548 1_455
As5 O1 1.709998 1_555
As5 O6 1.813927 1_555
As6 O12 1.693593 1_565
As6 O14 1.710380 1_555
As6 O7 1.711627 1_555
As6 O23 1.798511 1_555
As7 O16 1.700139 1_555
As7 O15 1.709548 1_655
As7 O11 1.709998 1_555
As7 O26 1.813927 1_555
O0 Tl0 2.813610 1_555
O21 Tl0 2.789173 1_545
O22 Tl1 2.813610 1_555
O24 Tl1 2.789173 1_565
