# generated using pymatgen
data_Na2B8O13
_symmetry_space_group_name_H-M   'P 1'
_cell_length_a   17.78548023
_cell_length_b   6.48488632
_cell_length_c   8.33967354
_cell_angle_alpha   82.99579713
_cell_angle_beta   90.00000000
_cell_angle_gamma   90.00000000
_symmetry_Int_Tables_number   1
_chemical_formula_structural   Na2B8O13
_chemical_formula_sum   'Na8 B32 O52'
_cell_volume   954.69316036
_cell_formula_units_Z   4
loop_
 _symmetry_equiv_pos_site_id
 _symmetry_equiv_pos_as_xyz
  1  'x, y, z'
loop_
 _atom_site_type_symbol
 _atom_site_label
 _atom_site_symmetry_multiplicity
 _atom_site_fract_x
 _atom_site_fract_y
 _atom_site_fract_z
 _atom_site_occupancy
  Na  Na0  1  0.36381642  0.59225846  0.02565632  1
  Na  Na1  1  0.86381642  0.90774154  0.97434368  1
  Na  Na2  1  0.63618358  0.40774154  0.97434368  1
  Na  Na3  1  0.13618358  0.09225846  0.02565632  1
  Na  Na4  1  0.40026129  0.95509102  0.57249944  1
  Na  Na5  1  0.90026129  0.54490898  0.42750056  1
  Na  Na6  1  0.59973871  0.04490898  0.42750056  1
  Na  Na7  1  0.09973871  0.45509102  0.57249944  1
  B  B0  1  0.51177160  0.58345952  0.80577970  1
  B  B1  1  0.01177160  0.91654048  0.19422030  1
  B  B2  1  0.48822840  0.41654048  0.19422030  1
  B  B3  1  0.98822840  0.08345952  0.80577970  1
  B  B4  1  0.49463414  0.23385525  0.73923606  1
  B  B5  1  0.99463414  0.26614475  0.26076394  1
  B  B6  1  0.50536586  0.76614475  0.26076394  1
  B  B7  1  0.00536586  0.73385525  0.73923606  1
  B  B8  1  0.39175352  0.48942480  0.68381297  1
  B  B9  1  0.89175352  0.01057520  0.31618703  1
  B  B10  1  0.60824648  0.51057520  0.31618703  1
  B  B11  1  0.10824648  0.98942480  0.68381297  1
  B  B12  1  0.29921611  0.55964666  0.46680616  1
  B  B13  1  0.79921611  0.94035334  0.53319384  1
  B  B14  1  0.70078389  0.44035334  0.53319384  1
  B  B15  1  0.20078389  0.05964666  0.46680616  1
  B  B16  1  0.25408220  0.46268436  0.73402778  1
  B  B17  1  0.75408220  0.03731564  0.26597222  1
  B  B18  1  0.74591780  0.53731564  0.26597222  1
  B  B19  1  0.24591780  0.96268436  0.73402778  1
  B  B20  1  0.21776477  0.59101632  0.22520942  1
  B  B21  1  0.71776477  0.90898368  0.77479058  1
  B  B22  1  0.78223523  0.40898368  0.77479058  1
  B  B23  1  0.28223523  0.09101632  0.22520942  1
  B  B24  1  0.17221579  0.51583916  0.97126806  1
  B  B25  1  0.67221579  0.98416084  0.02873194  1
  B  B26  1  0.82778421  0.48416084  0.02873194  1
  B  B27  1  0.32778421  0.01583916  0.97126806  1
  B  B28  1  0.08206739  0.57123899  0.18377472  1
  B  B29  1  0.58206739  0.92876101  0.81622528  1
  B  B30  1  0.91793261  0.42876101  0.81622528  1
  B  B31  1  0.41793261  0.07123899  0.18377472  1
  O  O0  1  0.56258591  0.71110995  0.86216964  1
  O  O1  1  0.06258591  0.78889005  0.13783036  1
  O  O2  1  0.43741409  0.28889005  0.13783036  1
  O  O3  1  0.93741409  0.21110995  0.86216964  1
  O  O4  1  0.53487264  0.37729709  0.81414011  1
  O  O5  1  0.03487264  0.12270291  0.18585989  1
  O  O6  1  0.46512736  0.62270291  0.18585989  1
  O  O7  1  0.96512736  0.87729709  0.81414011  1
  O  O8  1  0.52231829  0.04192704  0.72492172  1
  O  O9  1  0.02231829  0.45807296  0.27507828  1
  O  O10  1  0.47768171  0.95807296  0.27507828  1
  O  O11  1  0.97768171  0.54192704  0.72492172  1
  O  O12  1  0.42680002  0.28925545  0.66975374  1
  O  O13  1  0.92680002  0.21074455  0.33024626  1
  O  O14  1  0.57319998  0.71074455  0.33024626  1
  O  O15  1  0.07319998  0.78925545  0.66975374  1
  O  O16  1  0.44125417  0.63649287  0.75250113  1
  O  O17  1  0.94125417  0.86350713  0.24749887  1
  O  O18  1  0.55874583  0.36350713  0.24749887  1
  O  O19  1  0.05874583  0.13649287  0.75250113  1
  O  O20  1  0.36840328  0.58867014  0.52425450  1
  O  O21  1  0.86840328  0.91132986  0.47574550  1
  O  O22  1  0.63159672  0.41132986  0.47574550  1
  O  O23  1  0.13159672  0.08867014  0.52425450  1
  O  O24  1  0.24141183  0.47960783  0.56864220  1
  O  O25  1  0.74141183  0.02039217  0.43135780  1
  O  O26  1  0.75858817  0.52039217  0.43135780  1
  O  O27  1  0.25858817  0.97960783  0.56864220  1
  O  O28  1  0.18883705  0.45270655  0.82344409  1
  O  O29  1  0.68883705  0.04729345  0.17655591  1
  O  O30  1  0.81116295  0.54729345  0.17655591  1
  O  O31  1  0.31116295  0.95270655  0.82344409  1
  O  O32  1  0.32426082  0.45792395  0.79390782  1
  O  O33  1  0.82426082  0.04207605  0.20609218  1
  O  O34  1  0.67573918  0.54207605  0.20609218  1
  O  O35  1  0.17573918  0.95792395  0.79390782  1
  O  O36  1  0.28440706  0.61025088  0.30577614  1
  O  O37  1  0.78440706  0.88974912  0.69422386  1
  O  O38  1  0.71559294  0.38974912  0.69422386  1
  O  O39  1  0.21559294  0.11025088  0.30577614  1
  O  O40  1  0.22963308  0.59385755  0.05935563  1
  O  O41  1  0.72963308  0.90614245  0.94064437  1
  O  O42  1  0.77036692  0.40614245  0.94064437  1
  O  O43  1  0.27036692  0.09385755  0.05935563  1
  O  O44  1  0.10338705  0.48182864  0.03478812  1
  O  O45  1  0.60338705  0.01817136  0.96521188  1
  O  O46  1  0.89661295  0.51817136  0.96521188  1
  O  O47  1  0.39661295  0.98182864  0.03478812  1
  O  O48  1  0.14950487  0.57017521  0.29233935  1
  O  O49  1  0.64950487  0.92982479  0.70766065  1
  O  O50  1  0.85049513  0.42982479  0.70766065  1
  O  O51  1  0.35049513  0.07017521  0.29233935  1
loop_
_geom_bond_atom_site_label_1
_geom_bond_atom_site_label_2
_geom_bond_distance
_geom_bond_site_symmetry_2
Na0 O6 2.266062 1_555
Na0 O32 2.323747 1_554
Na0 O40 2.403176 1_555
Na0 O2 2.451533 1_555
Na0 O47 2.602931 1_555
Na0 O16 2.647486 1_554
Na0 O36 2.744481 1_555
Na1 O7 2.266062 1_555
Na1 O33 2.323747 1_566
Na1 O41 2.403176 1_555
Na1 O3 2.451533 1_565
Na1 O46 2.602931 1_555
Na1 O17 2.647486 1_556
Na1 O37 2.744481 1_555
Na2 O4 2.266062 1_555
Na2 O34 2.323747 1_556
Na2 O42 2.403176 1_555
Na2 O0 2.451533 1_555
Na2 O45 2.602931 1_555
Na2 O18 2.647486 1_556
Na2 O38 2.744481 1_555
Na3 O5 2.266062 1_555
Na3 O35 2.323747 1_544
Na3 O43 2.403176 1_555
Na3 O1 2.451533 1_545
Na3 O44 2.602931 1_555
Na3 O19 2.647486 1_554
Na3 O39 2.744481 1_555
Na4 O12 2.450559 1_565
Na4 O16 2.509437 1_555
Na4 O20 2.522382 1_555
Na4 O27 2.524693 1_555
Na4 O51 2.524700 1_565
Na4 O8 2.611526 1_565
Na4 O31 2.623601 1_555
Na4 O10 2.834970 1_555
Na5 O13 2.450559 1_555
Na5 O17 2.509437 1_555
Na5 O21 2.522382 1_555
Na5 O26 2.524693 1_555
Na5 O50 2.524700 1_555
Na5 O9 2.611526 1_655
Na5 O30 2.623601 1_555
Na5 O11 2.834970 1_555
Na6 O14 2.450559 1_545
Na6 O18 2.509437 1_555
Na6 O22 2.522382 1_555
Na6 O25 2.524693 1_555
Na6 O49 2.524700 1_545
Na6 O10 2.611526 1_545
Na6 O29 2.623601 1_555
Na6 O8 2.834970 1_555
Na7 O15 2.450559 1_555
Na7 O19 2.509437 1_555
Na7 O23 2.522382 1_555
Na7 O24 2.524693 1_555
Na7 O48 2.524700 1_555
Na7 O11 2.611526 1_455
Na7 O28 2.623601 1_555
Na7 O9 2.834970 1_555
B0 O0 1.348379 1_555
B0 O16 1.360668 1_555
B0 O4 1.392244 1_555
B1 O1 1.348379 1_555
B1 O17 1.360668 1_455
B1 O5 1.392244 1_565
B2 O2 1.348379 1_555
B2 O18 1.360668 1_555
B2 O6 1.392244 1_555
B3 O3 1.348379 1_555
B3 O19 1.360668 1_655
B3 O7 1.392244 1_545
B4 O8 1.357215 1_555
B4 O12 1.367342 1_555
B4 O4 1.381805 1_555
B5 O9 1.357215 1_655
B5 O13 1.367342 1_555
B5 O5 1.381805 1_655
B6 O10 1.357215 1_555
B6 O14 1.367342 1_555
B6 O6 1.381805 1_555
B7 O11 1.357215 1_455
B7 O15 1.367342 1_555
B7 O7 1.381805 1_455
B8 O12 1.457530 1_555
B8 O16 1.464942 1_555
B8 O20 1.465773 1_555
B8 O32 1.509944 1_555
B9 O13 1.457530 1_555
B9 O17 1.464942 1_545
B9 O21 1.465773 1_545
B9 O33 1.509944 1_555
B10 O14 1.457530 1_555
B10 O18 1.464942 1_555
B10 O22 1.465773 1_555
B10 O34 1.509944 1_555
B11 O15 1.457530 1_555
B11 O19 1.464942 1_565
B11 O23 1.465773 1_565
B11 O35 1.509944 1_555
B12 O20 1.342069 1_555
B12 O36 1.368599 1_555
B12 O24 1.392880 1_555
B13 O21 1.342069 1_555
B13 O37 1.368599 1_555
B13 O25 1.392880 1_565
B14 O22 1.342069 1_555
B14 O38 1.368599 1_555
B14 O26 1.392880 1_555
B15 O23 1.342069 1_555
B15 O39 1.368599 1_555
B15 O27 1.392880 1_545
B16 O32 1.343309 1_555
B16 O28 1.376611 1_555
B16 O24 1.388623 1_555
B17 O33 1.343309 1_555
B17 O29 1.376611 1_555
B17 O25 1.388623 1_555
B18 O34 1.343309 1_555
B18 O30 1.376611 1_555
B18 O26 1.388623 1_555
B19 O35 1.343309 1_555
B19 O31 1.376611 1_555
B19 O27 1.388623 1_555
B20 O48 1.336831 1_555
B20 O36 1.375609 1_555
B20 O40 1.397079 1_555
B21 O49 1.336831 1_555
B21 O37 1.375609 1_555
B21 O41 1.397079 1_555
B22 O50 1.336831 1_555
B22 O38 1.375609 1_555
B22 O42 1.397079 1_555
B23 O51 1.336831 1_555
B23 O39 1.375609 1_555
B23 O43 1.397079 1_555
B24 O44 1.341387 1_556
B24 O28 1.377644 1_555
B24 O40 1.388930 1_556
B25 O45 1.341387 1_564
B25 O29 1.377644 1_565
B25 O41 1.388930 1_554
B26 O46 1.341387 1_554
B26 O30 1.377644 1_555
B26 O42 1.388930 1_554
B27 O47 1.341387 1_546
B27 O31 1.377644 1_545
B27 O43 1.388930 1_556
B28 O9 1.453043 1_555
B28 O1 1.458472 1_555
B28 O44 1.483061 1_555
B28 O48 1.502279 1_555
B29 O8 1.453043 1_565
B29 O0 1.458472 1_555
B29 O45 1.483061 1_565
B29 O49 1.502279 1_555
B30 O11 1.453043 1_555
B30 O3 1.458472 1_555
B30 O46 1.483061 1_555
B30 O50 1.502279 1_555
B31 O10 1.453043 1_545
B31 O2 1.458472 1_555
B31 O47 1.483061 1_545
B31 O51 1.502279 1_555
