# generated using pymatgen
data_K3Bi
_symmetry_space_group_name_H-M   'P 1'
_cell_length_a   6.17935249
_cell_length_b   6.17935345
_cell_length_c   10.97446524
_cell_angle_alpha   90.00000000
_cell_angle_beta   90.00000000
_cell_angle_gamma   120.00000028
_symmetry_Int_Tables_number   1
_chemical_formula_structural   K3Bi
_chemical_formula_sum   'K6 Bi2'
_cell_volume   362.91089300
_cell_formula_units_Z   2
loop_
 _symmetry_equiv_pos_site_id
 _symmetry_equiv_pos_as_xyz
  1  'x, y, z'
loop_
 _atom_site_type_symbol
 _atom_site_label
 _atom_site_symmetry_multiplicity
 _atom_site_fract_x
 _atom_site_fract_y
 _atom_site_fract_z
 _atom_site_occupancy
  K  K0  1  0.33333300  0.66666700  0.91812589  1
  K  K1  1  0.66666700  0.33333300  0.41812589  1
  K  K2  1  0.00000000  0.00000000  0.25000000  1
  K  K3  1  0.66666700  0.33333300  0.08187411  1
  K  K4  1  0.00000000  0.00000000  0.75000000  1
  K  K5  1  0.33333300  0.66666700  0.58187411  1
  Bi  Bi0  1  0.66666700  0.33333300  0.75000000  1
  Bi  Bi1  1  0.33333300  0.66666700  0.25000000  1
loop_
_geom_bond_atom_site_label_1
_geom_bond_atom_site_label_2
_geom_bond_distance
_geom_bond_site_symmetry_2
K0 K5 3.690183 1_555
K0 K3 3.994683 1_456
K0 K3 3.994684 1_566
K0 K3 3.994693 1_556
K0 K4 4.016525 1_565
K0 K4 4.016529 1_665
K0 K4 4.016530 1_555
K1 K3 3.690183 1_555
K1 K5 3.994683 1_655
K1 K5 3.994684 1_545
K1 K5 3.994693 1_555
K1 K2 4.016525 1_655
K1 K2 4.016529 1_555
K1 K2 4.016530 1_665
K2 K3 4.016525 1_455
K2 K3 4.016529 1_555
K2 K3 4.016530 1_445
K4 K5 4.016525 1_545
K4 K5 4.016529 1_445
K4 K5 4.016530 1_555
Bi0 K4 3.567648 1_655
Bi0 K4 3.567653 1_555
Bi0 K4 3.567653 1_665
Bi0 K3 3.642141 1_556
Bi0 K1 3.642141 1_555
Bi0 K5 4.016525 1_655
Bi0 K0 4.016525 1_655
Bi0 K0 4.016525 1_545
Bi0 K5 4.016525 1_545
Bi0 K5 4.016534 1_555
Bi0 K0 4.016534 1_555
Bi1 K2 3.567648 1_565
Bi1 K2 3.567653 1_665
Bi1 K2 3.567653 1_555
Bi1 K0 3.642141 1_554
Bi1 K5 3.642141 1_555
Bi1 K1 4.016525 1_455
Bi1 K3 4.016525 1_455
Bi1 K3 4.016525 1_565
Bi1 K1 4.016525 1_565
Bi1 K1 4.016534 1_555
Bi1 K3 4.016534 1_555
