# generated using pymatgen
data_TiBr4
_symmetry_space_group_name_H-M   'P 1'
_cell_length_a   11.44447252
_cell_length_b   11.44447252
_cell_length_c   11.44447252
_cell_angle_alpha   90.00000000
_cell_angle_beta   90.00000000
_cell_angle_gamma   90.00000000
_symmetry_Int_Tables_number   1
_chemical_formula_structural   TiBr4
_chemical_formula_sum   'Ti8 Br32'
_cell_volume   1498.95067499
_cell_formula_units_Z   8
loop_
 _symmetry_equiv_pos_site_id
 _symmetry_equiv_pos_as_xyz
  1  'x, y, z'
loop_
 _atom_site_type_symbol
 _atom_site_label
 _atom_site_symmetry_multiplicity
 _atom_site_fract_x
 _atom_site_fract_y
 _atom_site_fract_z
 _atom_site_occupancy
  Ti  Ti0  1  0.13065265  0.13065265  0.13065265  1
  Ti  Ti1  1  0.36934735  0.63065265  0.13065265  1
  Ti  Ti2  1  0.63065265  0.36934735  0.86934735  1
  Ti  Ti3  1  0.13065265  0.36934735  0.63065265  1
  Ti  Ti4  1  0.86934735  0.86934735  0.86934735  1
  Ti  Ti5  1  0.36934735  0.86934735  0.63065265  1
  Ti  Ti6  1  0.86934735  0.63065265  0.36934735  1
  Ti  Ti7  1  0.63065265  0.13065265  0.36934735  1
  Br  Br0  1  0.75215590  0.75215590  0.75215590  1
  Br  Br1  1  0.01102143  0.24792242  0.01561614  1
  Br  Br2  1  0.24784410  0.24784410  0.24784410  1
  Br  Br3  1  0.25207758  0.98438386  0.51102143  1
  Br  Br4  1  0.24792242  0.48438386  0.51102143  1
  Br  Br5  1  0.24792242  0.01561614  0.01102143  1
  Br  Br6  1  0.74792242  0.01561614  0.48897857  1
  Br  Br7  1  0.48897857  0.74792242  0.01561614  1
  Br  Br8  1  0.48897857  0.75207758  0.51561614  1
  Br  Br9  1  0.75207758  0.51561614  0.48897857  1
  Br  Br10  1  0.24784410  0.25215590  0.74784410  1
  Br  Br11  1  0.98897857  0.74792242  0.48438386  1
  Br  Br12  1  0.51102143  0.24792242  0.48438386  1
  Br  Br13  1  0.25207758  0.51561614  0.01102143  1
  Br  Br14  1  0.01561614  0.01102143  0.24792242  1
  Br  Br15  1  0.75207758  0.98438386  0.98897857  1
  Br  Br16  1  0.98438386  0.98897857  0.75207758  1
  Br  Br17  1  0.51561614  0.48897857  0.75207758  1
  Br  Br18  1  0.25215590  0.75215590  0.74784410  1
  Br  Br19  1  0.74784410  0.25215590  0.75215590  1
  Br  Br20  1  0.98897857  0.75207758  0.98438386  1
  Br  Br21  1  0.51102143  0.25207758  0.98438386  1
  Br  Br22  1  0.48438386  0.51102143  0.24792242  1
  Br  Br23  1  0.74784410  0.24784410  0.25215590  1
  Br  Br24  1  0.74792242  0.48438386  0.98897857  1
  Br  Br25  1  0.48438386  0.98897857  0.74792242  1
  Br  Br26  1  0.51561614  0.01102143  0.25207758  1
  Br  Br27  1  0.01102143  0.25207758  0.51561614  1
  Br  Br28  1  0.25215590  0.74784410  0.24784410  1
  Br  Br29  1  0.75215590  0.74784410  0.25215590  1
  Br  Br30  1  0.01561614  0.48897857  0.74792242  1
  Br  Br31  1  0.98438386  0.51102143  0.25207758  1
loop_
_geom_bond_atom_site_label_1
_geom_bond_atom_site_label_2
_geom_bond_distance
_geom_bond_site_symmetry_2
Br0 Ti4 2.323017 1_555
Br1 Ti0 2.325714 1_555
Br2 Ti0 2.323017 1_555
Br3 Ti5 2.325714 1_555
Br4 Ti3 2.325714 1_555
Br5 Ti0 2.325714 1_555
Br6 Ti7 2.325714 1_555
Br7 Ti1 2.325714 1_555
Br8 Ti5 2.325714 1_555
Br9 Ti6 2.325714 1_555
Br10 Ti3 2.323017 1_555
Br11 Ti6 2.325714 1_555
Br12 Ti7 2.325714 1_555
Br13 Ti1 2.325714 1_555
Br14 Ti0 2.325714 1_555
Br15 Ti4 2.325714 1_555
Br16 Ti4 2.325714 1_555
Br17 Ti2 2.325714 1_555
Br18 Ti5 2.323017 1_555
Br19 Ti2 2.323017 1_555
Br20 Ti4 2.325714 1_555
Br21 Ti2 2.325714 1_555
Br22 Ti1 2.325714 1_555
Br23 Ti7 2.323017 1_555
Br24 Ti2 2.325714 1_555
Br25 Ti5 2.325714 1_555
Br26 Ti7 2.325714 1_555
Br27 Ti3 2.325714 1_555
Br28 Ti1 2.323017 1_555
Br29 Ti6 2.323017 1_555
Br30 Ti3 2.325714 1_555
Br31 Ti6 2.325714 1_555
