# generated using pymatgen
data_Pr3CuGeS7
_symmetry_space_group_name_H-M   'P 1'
_cell_length_a   10.26685813
_cell_length_b   10.26685813
_cell_length_c   5.89394300
_cell_angle_alpha   90.00000000
_cell_angle_beta   90.00000000
_cell_angle_gamma   120.00000086
_symmetry_Int_Tables_number   1
_chemical_formula_structural   Pr3CuGeS7
_chemical_formula_sum   'Pr6 Cu2 Ge2 S14'
_cell_volume   538.03642892
_cell_formula_units_Z   2
loop_
 _symmetry_equiv_pos_site_id
 _symmetry_equiv_pos_as_xyz
  1  'x, y, z'
loop_
 _atom_site_type_symbol
 _atom_site_label
 _atom_site_symmetry_multiplicity
 _atom_site_fract_x
 _atom_site_fract_y
 _atom_site_fract_z
 _atom_site_occupancy
  Pr  Pr0  1  0.22906600  0.87261500  0.75056800  1
  Pr  Pr1  1  0.35645000  0.22906600  0.25056800  1
  Pr  Pr2  1  0.77093400  0.12738500  0.25056800  1
  Pr  Pr3  1  0.64355000  0.77093400  0.75056800  1
  Pr  Pr4  1  0.12738500  0.35645000  0.75056800  1
  Pr  Pr5  1  0.87261500  0.64355000  0.25056800  1
  Cu  Cu0  1  0.00000000  0.00000000  0.72133900  1
  Cu  Cu1  1  0.00000000  0.00000000  0.22133900  1
  Ge  Ge0  1  0.33333300  0.66666700  0.33236000  1
  Ge  Ge1  1  0.66666700  0.33333300  0.83236000  1
  S  S0  1  0.83836300  0.09014100  0.73335300  1
  S  S1  1  0.33333300  0.66666700  0.95862400  1
  S  S2  1  0.16163700  0.90985900  0.23335300  1
  S  S3  1  0.41622000  0.52114400  0.48547200  1
  S  S4  1  0.89507700  0.41622000  0.98547200  1
  S  S5  1  0.25177800  0.16163700  0.73335300  1
  S  S6  1  0.10492300  0.58378000  0.48547200  1
  S  S7  1  0.52114400  0.10492300  0.98547200  1
  S  S8  1  0.66666700  0.33333300  0.45862400  1
  S  S9  1  0.47885600  0.89507700  0.48547200  1
  S  S10  1  0.90985900  0.74822200  0.73335300  1
  S  S11  1  0.09014100  0.25177800  0.23335300  1
  S  S12  1  0.74822200  0.83836300  0.23335300  1
  S  S13  1  0.58378000  0.47885600  0.98547200  1
loop_
_geom_bond_atom_site_label_1
_geom_bond_atom_site_label_2
_geom_bond_distance
_geom_bond_site_symmetry_2
Pr0 S5 2.859702 1_565
Pr0 S10 2.862913 1_455
Pr0 S9 2.912044 1_555
Pr0 S2 2.997849 1_556
Pr0 S6 3.013293 1_555
Pr0 S1 3.063339 1_555
Pr0 S7 3.073371 1_565
Pr0 S2 3.191104 1_555
Pr1 S11 2.859691 1_555
Pr1 S2 2.862911 1_545
Pr1 S13 2.912052 1_554
Pr1 S5 2.997846 1_555
Pr1 S7 3.013309 1_554
Pr1 S8 3.063356 1_555
Pr1 S3 3.073371 1_555
Pr1 S5 3.191102 1_554
Pr2 S12 2.859702 1_545
Pr2 S11 2.862913 1_655
Pr2 S7 2.912044 1_554
Pr2 S0 2.997849 1_555
Pr2 S4 3.013293 1_554
Pr2 S8 3.063339 1_555
Pr2 S9 3.073371 1_545
Pr2 S0 3.191104 1_554
Pr3 S10 2.859691 1_555
Pr3 S0 2.862911 1_565
Pr3 S3 2.912052 1_555
Pr3 S12 2.997846 1_556
Pr3 S9 3.013309 1_555
Pr3 S1 3.063356 1_555
Pr3 S13 3.073371 1_555
Pr3 S12 3.191102 1_555
Pr4 S0 2.859697 1_455
Pr4 S5 2.862903 1_555
Pr4 S6 2.912062 1_555
Pr4 S11 2.997846 1_556
Pr4 S3 3.013294 1_555
Pr4 S1 3.063353 1_555
Pr4 S4 3.073371 1_455
Pr4 S11 3.191101 1_555
Pr5 S2 2.859697 1_655
Pr5 S12 2.862903 1_555
Pr5 S4 2.912062 1_554
Pr5 S10 2.997846 1_555
Pr5 S13 3.013294 1_554
Pr5 S8 3.063353 1_555
Pr5 S6 3.073371 1_655
Pr5 S10 3.191101 1_554
Cu0 S5 2.269640 1_555
Cu0 S10 2.269640 1_445
Cu0 S0 2.269640 1_455
Cu1 S12 2.269640 1_445
Cu1 S11 2.269640 1_555
Cu1 S2 2.269640 1_545
Ge0 S1 2.202779 1_554
Ge0 S9 2.245491 1_555
Ge0 S6 2.245491 1_555
Ge0 S3 2.245491 1_555
Ge1 S8 2.202779 1_555
Ge1 S7 2.245491 1_555
Ge1 S4 2.245491 1_555
Ge1 S13 2.245491 1_555
