# generated using pymatgen
data_SrPbF6
_symmetry_space_group_name_H-M   'P 1'
_cell_length_a   5.45734600
_cell_length_b   5.45734600
_cell_length_c   8.60999000
_cell_angle_alpha   90.00000000
_cell_angle_beta   90.00000000
_cell_angle_gamma   90.00000000
_symmetry_Int_Tables_number   1
_chemical_formula_structural   SrPbF6
_chemical_formula_sum   'Sr2 Pb2 F12'
_cell_volume   256.42810656
_cell_formula_units_Z   2
loop_
 _symmetry_equiv_pos_site_id
 _symmetry_equiv_pos_as_xyz
  1  'x, y, z'
loop_
 _atom_site_type_symbol
 _atom_site_label
 _atom_site_symmetry_multiplicity
 _atom_site_fract_x
 _atom_site_fract_y
 _atom_site_fract_z
 _atom_site_occupancy
  Sr  Sr0  1  0.00000000  0.00000000  0.00000000  1
  Sr  Sr1  1  0.00000000  0.00000000  0.50000000  1
  Pb  Pb0  1  0.50000000  0.50000000  0.75000000  1
  Pb  Pb1  1  0.50000000  0.50000000  0.25000000  1
  F  F0  1  0.23023200  0.23023200  0.25000000  1
  F  F1  1  0.23023200  0.23023200  0.75000000  1
  F  F2  1  0.23023200  0.76976800  0.75000000  1
  F  F3  1  0.50000000  0.00000000  0.00000000  1
  F  F4  1  0.50000000  0.50000000  0.00000000  1
  F  F5  1  0.00000000  0.50000000  0.50000000  1
  F  F6  1  0.50000000  0.50000000  0.50000000  1
  F  F7  1  0.23023200  0.76976800  0.25000000  1
  F  F8  1  0.76976800  0.23023200  0.75000000  1
  F  F9  1  0.76976800  0.23023200  0.25000000  1
  F  F10  1  0.76976800  0.76976800  0.75000000  1
  F  F11  1  0.76976800  0.76976800  0.25000000  1
loop_
_geom_bond_atom_site_label_1
_geom_bond_atom_site_label_2
_geom_bond_distance
_geom_bond_site_symmetry_2
F0 Pb1 2.082030 1_555
F0 Sr1 2.791166 1_555
F0 Sr0 2.791166 1_555
F1 Pb0 2.082030 1_555
F1 Sr1 2.791166 1_555
F1 Sr0 2.791166 1_556
F2 Pb0 2.082030 1_555
F2 Sr0 2.791166 1_566
F2 Sr1 2.791166 1_565
F3 Sr0 2.728673 1_555
F3 Sr0 2.728673 1_655
F4 Pb0 2.152497 1_554
F4 Pb1 2.152497 1_555
F5 Sr1 2.728673 1_565
F5 Sr1 2.728673 1_555
F6 Pb1 2.152497 1_555
F6 Pb0 2.152497 1_555
F7 Pb1 2.082030 1_555
F7 Sr0 2.791166 1_565
F7 Sr1 2.791166 1_565
F8 Pb0 2.082030 1_555
F8 Sr0 2.791166 1_656
F8 Sr1 2.791166 1_655
F9 Pb1 2.082030 1_555
F9 Sr1 2.791166 1_655
F9 Sr0 2.791166 1_655
F10 Pb0 2.082030 1_555
F10 Sr1 2.791166 1_665
F10 Sr0 2.791166 1_666
F11 Pb1 2.082030 1_555
F11 Sr1 2.791166 1_665
F11 Sr0 2.791166 1_665
