# generated using pymatgen
data_Sr3U(Te2O7)2
_symmetry_space_group_name_H-M   'P 1'
_cell_length_a   10.89485692
_cell_length_b   10.89485692
_cell_length_c   13.24355433
_cell_angle_alpha   86.36075584
_cell_angle_beta   86.36075584
_cell_angle_gamma   30.53204772
_symmetry_Int_Tables_number   1
_chemical_formula_structural   Sr3U(Te2O7)2
_chemical_formula_sum   'Sr6 U2 Te8 O28'
_cell_volume   796.86826883
_cell_formula_units_Z   2
loop_
 _symmetry_equiv_pos_site_id
 _symmetry_equiv_pos_as_xyz
  1  'x, y, z'
loop_
 _atom_site_type_symbol
 _atom_site_label
 _atom_site_symmetry_multiplicity
 _atom_site_fract_x
 _atom_site_fract_y
 _atom_site_fract_z
 _atom_site_occupancy
  Sr  Sr0  1  0.29385500  0.82752200  0.94191400  1
  Sr  Sr1  1  0.82752200  0.29385500  0.44191400  1
  Sr  Sr2  1  0.17247800  0.70614500  0.55808600  1
  Sr  Sr3  1  0.72145100  0.27854900  0.75000000  1
  Sr  Sr4  1  0.70614500  0.17247800  0.05808600  1
  Sr  Sr5  1  0.27854900  0.72145100  0.25000000  1
  U  U0  1  0.00000000  0.50000000  0.50000000  1
  U  U1  1  0.50000000  0.00000000  0.00000000  1
  Te  Te0  1  0.53813900  0.11315200  0.66351700  1
  Te  Te1  1  0.82561300  0.37558900  0.12733700  1
  Te  Te2  1  0.46186100  0.88684800  0.33648300  1
  Te  Te3  1  0.37558900  0.82561300  0.62733700  1
  Te  Te4  1  0.62441100  0.17438700  0.37266300  1
  Te  Te5  1  0.11315200  0.53813900  0.16351700  1
  Te  Te6  1  0.17438700  0.62441100  0.87266300  1
  Te  Te7  1  0.88684800  0.46186100  0.83648300  1
  O  O0  1  0.92542100  0.25995800  0.86515000  1
  O  O1  1  0.72311800  0.45821200  0.26497100  1
  O  O2  1  0.35293100  0.30425300  0.05912400  1
  O  O3  1  0.07457900  0.74004200  0.13485000  1
  O  O4  1  0.46563600  0.45405800  0.41368500  1
  O  O5  1  0.69574700  0.64706900  0.44087600  1
  O  O6  1  0.93601700  0.97721300  0.38418900  1
  O  O7  1  0.17132800  0.26608400  0.90425500  1
  O  O8  1  0.06398300  0.02278700  0.61581100  1
  O  O9  1  0.53436400  0.54594200  0.58631500  1
  O  O10  1  0.54178800  0.27688200  0.23502900  1
  O  O11  1  0.96184700  0.65403200  0.39630100  1
  O  O12  1  0.45821200  0.72311800  0.76497100  1
  O  O13  1  0.34596800  0.03815300  0.10369900  1
  O  O14  1  0.65403200  0.96184700  0.89630100  1
  O  O15  1  0.25995800  0.92542100  0.36515000  1
  O  O16  1  0.97721300  0.93601700  0.88418900  1
  O  O17  1  0.64706900  0.69574700  0.94087600  1
  O  O18  1  0.74004200  0.07457900  0.63485000  1
  O  O19  1  0.54594200  0.53436400  0.08631500  1
  O  O20  1  0.45405800  0.46563600  0.91368500  1
  O  O21  1  0.30425300  0.35293100  0.55912400  1
  O  O22  1  0.82867200  0.73391600  0.09574500  1
  O  O23  1  0.73391600  0.82867200  0.59574500  1
  O  O24  1  0.02278700  0.06398300  0.11581100  1
  O  O25  1  0.26608400  0.17132800  0.40425500  1
  O  O26  1  0.27688200  0.54178800  0.73502900  1
  O  O27  1  0.03815300  0.34596800  0.60369900  1
loop_
_geom_bond_atom_site_label_1
_geom_bond_atom_site_label_2
_geom_bond_distance
_geom_bond_site_symmetry_2
O0 Te7 1.865795 1_555
O0 Sr0 2.583425 1_645
O0 Sr3 2.630689 1_555
O1 Te1 1.896837 1_555
O1 Sr1 2.507681 1_555
O1 Sr5 2.800712 1_555
O2 Te5 1.936549 1_555
O2 U1 2.277905 1_555
O2 Sr4 2.710799 1_555
O3 Te5 1.865795 1_555
O3 Sr4 2.583425 1_465
O3 Sr5 2.630689 1_555
O4 Te4 1.892747 1_555
O4 Sr2 2.486230 1_555
O4 Sr5 2.621183 1_555
O4 Sr1 2.642069 1_555
O5 Te2 1.936549 1_555
O5 U0 2.277905 1_655
O5 Sr1 2.710799 1_555
O6 Te4 1.903721 1_565
O6 Sr5 2.592740 1_655
O6 Sr1 2.660438 1_565
O6 Sr2 2.728667 1_655
O7 Te7 1.919085 1_455
O7 U1 2.249716 1_556
O8 Te3 1.903721 1_545
O8 Sr3 2.592740 1_455
O8 Sr2 2.660438 1_545
O8 Sr1 2.728667 1_455
O9 Te3 1.892747 1_555
O9 Sr1 2.486230 1_555
O9 Sr3 2.621183 1_555
O9 Sr2 2.642069 1_555
O10 Te4 1.896837 1_555
O10 Sr4 2.507681 1_555
O10 Sr5 2.800712 1_555
O11 U0 1.858299 1_655
O12 Te3 1.896837 1_555
O12 Sr0 2.507681 1_555
O12 Sr3 2.800712 1_555
O13 U1 1.858299 1_555
O14 U1 1.858299 1_566
O15 Te2 1.865795 1_555
O15 Sr1 2.583425 1_465
O15 Sr5 2.630689 1_555
O16 Te6 1.903721 1_655
O16 Sr3 2.592740 1_565
O16 Sr0 2.660438 1_655
O16 Sr4 2.728667 1_566
O17 Te7 1.936549 1_555
O17 U1 2.277905 1_566
O17 Sr0 2.710799 1_555
O18 Te0 1.865795 1_555
O18 Sr2 2.583425 1_645
O18 Sr3 2.630689 1_555
O19 Te1 1.892747 1_555
O19 Sr0 2.486230 1_554
O19 Sr5 2.621183 1_555
O19 Sr4 2.642069 1_555
O20 Te6 1.892747 1_555
O20 Sr4 2.486230 1_556
O20 Sr3 2.621183 1_555
O20 Sr0 2.642069 1_555
O21 Te0 1.936549 1_555
O21 U0 2.277905 1_555
O21 Sr2 2.710799 1_555
O22 Te5 1.919085 1_655
O22 U1 2.249716 1_565
O23 Te0 1.919085 1_565
O23 U0 2.249716 1_655
O24 Te1 1.903721 1_455
O24 Sr5 2.592740 1_545
O24 Sr4 2.660438 1_455
O24 Sr0 2.728667 1_544
O25 Te2 1.919085 1_545
O25 U0 2.249716 1_555
O26 Te6 1.896837 1_555
O26 Sr2 2.507681 1_555
O26 Sr3 2.800712 1_555
O27 U0 1.858299 1_555
