# generated using pymatgen
data_Ga2Te2MoO10
_symmetry_space_group_name_H-M   'P 1'
_cell_length_a   6.16133100
_cell_length_b   8.96499100
_cell_length_c   15.30237600
_cell_angle_alpha   90.00000000
_cell_angle_beta   90.00000000
_cell_angle_gamma   90.00000000
_symmetry_Int_Tables_number   1
_chemical_formula_structural   Ga2Te2MoO10
_chemical_formula_sum   'Ga8 Te8 Mo4 O40'
_cell_volume   845.24627893
_cell_formula_units_Z   4
loop_
 _symmetry_equiv_pos_site_id
 _symmetry_equiv_pos_as_xyz
  1  'x, y, z'
loop_
 _atom_site_type_symbol
 _atom_site_label
 _atom_site_symmetry_multiplicity
 _atom_site_fract_x
 _atom_site_fract_y
 _atom_site_fract_z
 _atom_site_occupancy
  Ga  Ga0  1  0.49562800  0.50614800  0.85219300  1
  Ga  Ga1  1  0.50437200  0.49385200  0.14780700  1
  Ga  Ga2  1  0.49562800  0.00614800  0.64780700  1
  Ga  Ga3  1  0.99562800  0.49385200  0.14780700  1
  Ga  Ga4  1  0.00437200  0.00614800  0.64780700  1
  Ga  Ga5  1  0.99562800  0.99385200  0.35219300  1
  Ga  Ga6  1  0.00437200  0.50614800  0.85219300  1
  Ga  Ga7  1  0.50437200  0.99385200  0.35219300  1
  Te  Te0  1  0.75000000  0.68808600  0.68421700  1
  Te  Te1  1  0.75000000  0.75425700  0.00841200  1
  Te  Te2  1  0.25000000  0.24574300  0.99158800  1
  Te  Te3  1  0.75000000  0.18808600  0.81578300  1
  Te  Te4  1  0.25000000  0.81191400  0.18421700  1
  Te  Te5  1  0.75000000  0.25425700  0.49158800  1
  Te  Te6  1  0.25000000  0.31191400  0.31578300  1
  Te  Te7  1  0.25000000  0.74574300  0.50841200  1
  Mo  Mo0  1  0.25000000  0.32553700  0.66426400  1
  Mo  Mo1  1  0.25000000  0.82553700  0.83573600  1
  Mo  Mo2  1  0.75000000  0.67446300  0.33573600  1
  Mo  Mo3  1  0.75000000  0.17446300  0.16426400  1
  O  O0  1  0.01686000  0.82491400  0.57575800  1
  O  O1  1  0.48555600  0.83295700  0.26568700  1
  O  O2  1  0.98314000  0.67508600  0.07575800  1
  O  O3  1  0.75000000  0.58526900  0.22465000  1
  O  O4  1  0.48314000  0.32491400  0.92424200  1
  O  O5  1  0.75000000  0.08526900  0.27535000  1
  O  O6  1  0.52880700  0.09097000  0.11090600  1
  O  O7  1  0.25000000  0.90364500  0.42330200  1
  O  O8  1  0.48314000  0.82491400  0.57575800  1
  O  O9  1  0.75000000  0.40383600  0.79621200  1
  O  O10  1  0.98314000  0.17508600  0.42424200  1
  O  O11  1  0.97119300  0.09097000  0.11090600  1
  O  O12  1  0.02880700  0.90903000  0.88909400  1
  O  O13  1  0.25000000  0.62537300  0.89526200  1
  O  O14  1  0.25000000  0.91473100  0.72465000  1
  O  O15  1  0.75000000  0.87462700  0.39526200  1
  O  O16  1  0.75000000  0.59635500  0.92330200  1
  O  O17  1  0.52880700  0.59097000  0.38909400  1
  O  O18  1  0.51444400  0.16704300  0.73431300  1
  O  O19  1  0.75000000  0.37462700  0.10473800  1
  O  O20  1  0.25000000  0.40364500  0.07669800  1
  O  O21  1  0.47119300  0.90903000  0.88909400  1
  O  O22  1  0.01444400  0.33295700  0.23431300  1
  O  O23  1  0.98555600  0.66704300  0.76568700  1
  O  O24  1  0.97119300  0.59097000  0.38909400  1
  O  O25  1  0.51444400  0.66704300  0.76568700  1
  O  O26  1  0.25000000  0.12537300  0.60473800  1
  O  O27  1  0.25000000  0.59616400  0.20378800  1
  O  O28  1  0.51686000  0.67508600  0.07575800  1
  O  O29  1  0.51686000  0.17508600  0.42424200  1
  O  O30  1  0.02880700  0.40903000  0.61090600  1
  O  O31  1  0.25000000  0.09616400  0.29621200  1
  O  O32  1  0.98555600  0.16704300  0.73431300  1
  O  O33  1  0.47119300  0.40903000  0.61090600  1
  O  O34  1  0.75000000  0.90383600  0.70378800  1
  O  O35  1  0.48555600  0.33295700  0.23431300  1
  O  O36  1  0.25000000  0.41473100  0.77535000  1
  O  O37  1  0.75000000  0.09635500  0.57669800  1
  O  O38  1  0.01686000  0.32491400  0.92424200  1
  O  O39  1  0.01444400  0.83295700  0.26568700  1
loop_
_geom_bond_atom_site_label_1
_geom_bond_atom_site_label_2
_geom_bond_distance
_geom_bond_site_symmetry_2
Ga0 O25 1.961206 1_555
Ga0 O4 1.965025 1_555
Ga0 O13 1.966511 1_555
Ga0 O9 2.007853 1_555
Ga0 O16 2.072289 1_555
Ga0 O36 2.084401 1_555
Ga1 O35 1.961206 1_555
Ga1 O28 1.965025 1_555
Ga1 O19 1.966511 1_555
Ga1 O27 2.007853 1_555
Ga1 O20 2.072289 1_555
Ga1 O3 2.084401 1_555
Ga2 O18 1.961206 1_555
Ga2 O8 1.965025 1_545
Ga2 O26 1.966511 1_555
Ga2 O34 2.007853 1_545
Ga2 O37 2.072289 1_555
Ga2 O14 2.084401 1_545
Ga3 O22 1.961206 1_655
Ga3 O2 1.965025 1_555
Ga3 O19 1.966511 1_555
Ga3 O27 2.007853 1_655
Ga3 O20 2.072289 1_655
Ga3 O3 2.084401 1_555
Ga4 O32 1.961206 1_455
Ga4 O0 1.965025 1_545
Ga4 O26 1.966511 1_555
Ga4 O34 2.007853 1_445
Ga4 O37 2.072289 1_455
Ga4 O14 2.084401 1_545
Ga5 O39 1.961206 1_655
Ga5 O10 1.965025 1_565
Ga5 O15 1.966511 1_555
Ga5 O31 2.007853 1_665
Ga5 O7 2.072289 1_655
Ga5 O5 2.084401 1_565
Ga6 O23 1.961206 1_455
Ga6 O38 1.965025 1_555
Ga6 O13 1.966511 1_555
Ga6 O9 2.007853 1_455
Ga6 O16 2.072289 1_455
Ga6 O36 2.084401 1_555
Ga7 O1 1.961206 1_555
Ga7 O29 1.965025 1_565
Ga7 O15 1.966511 1_555
Ga7 O31 2.007853 1_565
Ga7 O7 2.072289 1_555
Ga7 O5 2.084401 1_565
Mo0 O33 1.756216 1_555
Mo0 O30 1.756216 1_555
Mo0 O36 1.878560 1_555
Mo0 O26 2.012420 1_555
Mo0 O32 2.413019 1_455
Mo0 O18 2.413019 1_555
Mo1 O21 1.756216 1_555
Mo1 O12 1.756216 1_555
Mo1 O14 1.878560 1_555
Mo1 O13 2.012420 1_555
Mo1 O25 2.413019 1_555
Mo1 O23 2.413019 1_455
Mo2 O24 1.756216 1_555
Mo2 O17 1.756216 1_555
Mo2 O3 1.878560 1_555
Mo2 O15 2.012420 1_555
Mo2 O39 2.413019 1_655
Mo2 O1 2.413019 1_555
Mo3 O11 1.756216 1_555
Mo3 O6 1.756216 1_555
Mo3 O5 1.878560 1_555
Mo3 O19 2.012420 1_555
Mo3 O22 2.413019 1_655
Mo3 O35 2.413019 1_555
O0 Te7 1.905048 1_555
O1 Te4 1.922549 1_555
O2 Te1 1.905048 1_555
O4 Te2 1.905048 1_555
O7 Te7 1.923565 1_555
O8 Te7 1.905048 1_555
O9 Te3 1.957245 1_555
O10 Te5 1.905048 1_555
O16 Te1 1.923565 1_556
O18 Te3 1.922549 1_555
O20 Te2 1.923565 1_554
O22 Te6 1.922549 1_555
O23 Te0 1.922549 1_555
O25 Te0 1.922549 1_555
O27 Te4 1.957245 1_555
O28 Te1 1.905048 1_555
O29 Te5 1.905048 1_555
O31 Te6 1.957245 1_555
O32 Te3 1.922549 1_555
O34 Te0 1.957245 1_555
O35 Te6 1.922549 1_555
O37 Te5 1.923565 1_555
O38 Te2 1.905048 1_555
O39 Te4 1.922549 1_555
