# generated using pymatgen
data_K4GeS4
_symmetry_space_group_name_H-M   'P 1'
_cell_length_a   12.79187977
_cell_length_b   12.79187977
_cell_length_c   12.79187977
_cell_angle_alpha   90.00000000
_cell_angle_beta   90.00000000
_cell_angle_gamma   90.00000000
_symmetry_Int_Tables_number   1
_chemical_formula_structural   K4GeS4
_chemical_formula_sum   'K32 Ge8 S32'
_cell_volume   2093.16327604
_cell_formula_units_Z   8
loop_
 _symmetry_equiv_pos_site_id
 _symmetry_equiv_pos_as_xyz
  1  'x, y, z'
loop_
 _atom_site_type_symbol
 _atom_site_label
 _atom_site_symmetry_multiplicity
 _atom_site_fract_x
 _atom_site_fract_y
 _atom_site_fract_z
 _atom_site_occupancy
  K  K0  1  0.36570697  0.15072161  0.41365527  1
  K  K1  1  0.15072161  0.58634473  0.63429303  1
  K  K2  1  0.91365527  0.34927839  0.13429303  1
  K  K3  1  0.65184767  0.65184767  0.65184767  1
  K  K4  1  0.15184767  0.84815233  0.84815233  1
  K  K5  1  0.63429303  0.84927839  0.41365527  1
  K  K6  1  0.86570697  0.08634473  0.34927839  1
  K  K7  1  0.41365527  0.36570697  0.15072161  1
  K  K8  1  0.84927839  0.58634473  0.36570697  1
  K  K9  1  0.65072161  0.13429303  0.08634473  1
  K  K10  1  0.84815233  0.15184767  0.84815233  1
  K  K11  1  0.84927839  0.41365527  0.63429303  1
  K  K12  1  0.65184767  0.34815233  0.34815233  1
  K  K13  1  0.65072161  0.86570697  0.91365527  1
  K  K14  1  0.13429303  0.08634473  0.65072161  1
  K  K15  1  0.15072161  0.41365527  0.36570697  1
  K  K16  1  0.15184767  0.15184767  0.15184767  1
  K  K17  1  0.34815233  0.34815233  0.65184767  1
  K  K18  1  0.63429303  0.15072161  0.58634473  1
  K  K19  1  0.34927839  0.86570697  0.08634473  1
  K  K20  1  0.34927839  0.13429303  0.91365527  1
  K  K21  1  0.08634473  0.34927839  0.86570697  1
  K  K22  1  0.41365527  0.63429303  0.84927839  1
  K  K23  1  0.36570697  0.84927839  0.58634473  1
  K  K24  1  0.13429303  0.91365527  0.34927839  1
  K  K25  1  0.86570697  0.91365527  0.65072161  1
  K  K26  1  0.34815233  0.65184767  0.34815233  1
  K  K27  1  0.91365527  0.65072161  0.86570697  1
  K  K28  1  0.58634473  0.36570697  0.84927839  1
  K  K29  1  0.08634473  0.65072161  0.13429303  1
  K  K30  1  0.58634473  0.63429303  0.15072161  1
  K  K31  1  0.84815233  0.84815233  0.15184767  1
  Ge  Ge0  1  -0.00000000  0.75000000  0.50000000  1
  Ge  Ge1  1  0.50000000  -0.00000000  0.25000000  1
  Ge  Ge2  1  0.50000000  -0.00000000  0.75000000  1
  Ge  Ge3  1  0.25000000  0.50000000  -0.00000000  1
  Ge  Ge4  1  -0.00000000  0.25000000  0.50000000  1
  Ge  Ge5  1  0.75000000  0.50000000  -0.00000000  1
  Ge  Ge6  1  -0.00000000  -0.00000000  -0.00000000  1
  Ge  Ge7  1  0.50000000  0.50000000  0.50000000  1
  S  S0  1  0.84498229  0.59581017  0.11015839  1
  S  S1  1  0.89970436  0.10029564  0.10029564  1
  S  S2  1  0.38984161  0.09581017  0.65501771  1
  S  S3  1  0.65501771  0.38984161  0.09581017  1
  S  S4  1  0.89970436  0.89970436  0.89970436  1
  S  S5  1  0.60029564  0.39970436  0.60029564  1
  S  S6  1  0.34498229  0.61015839  0.09581017  1
  S  S7  1  0.11015839  0.15501771  0.40418983  1
  S  S8  1  0.09581017  0.65501771  0.38984161  1
  S  S9  1  0.34498229  0.38984161  0.90418983  1
  S  S10  1  0.88984161  0.84498229  0.40418983  1
  S  S11  1  0.11015839  0.84498229  0.59581017  1
  S  S12  1  0.59581017  0.88984161  0.15501771  1
  S  S13  1  0.61015839  0.90418983  0.65501771  1
  S  S14  1  0.15501771  0.40418983  0.11015839  1
  S  S15  1  0.90418983  0.34498229  0.38984161  1
  S  S16  1  0.61015839  0.09581017  0.34498229  1
  S  S17  1  0.40418983  0.11015839  0.15501771  1
  S  S18  1  0.39970436  0.39970436  0.39970436  1
  S  S19  1  0.59581017  0.11015839  0.84498229  1
  S  S20  1  0.88984161  0.15501771  0.59581017  1
  S  S21  1  0.39970436  0.60029564  0.60029564  1
  S  S22  1  0.65501771  0.61015839  0.90418983  1
  S  S23  1  0.10029564  0.89970436  0.10029564  1
  S  S24  1  0.90418983  0.65501771  0.61015839  1
  S  S25  1  0.10029564  0.10029564  0.89970436  1
  S  S26  1  0.84498229  0.40418983  0.88984161  1
  S  S27  1  0.38984161  0.90418983  0.34498229  1
  S  S28  1  0.09581017  0.34498229  0.61015839  1
  S  S29  1  0.40418983  0.88984161  0.84498229  1
  S  S30  1  0.15501771  0.59581017  0.88984161  1
  S  S31  1  0.60029564  0.60029564  0.39970436  1
loop_
_geom_bond_atom_site_label_1
_geom_bond_atom_site_label_2
_geom_bond_distance
_geom_bond_site_symmetry_2
K0 S2 3.181389 1_555
K0 S18 3.219461 1_555
K0 S7 3.271650 1_555
K0 S27 3.288194 1_545
K0 S16 3.323126 1_555
K0 S17 3.384889 1_555
K1 S28 3.181389 1_555
K1 S21 3.219461 1_555
K1 S30 3.271650 1_555
K1 S24 3.288194 1_455
K1 S8 3.323126 1_555
K1 S11 3.384889 1_555
K2 S14 3.181389 1_655
K2 S1 3.219461 1_555
K2 S15 3.271650 1_555
K2 S0 3.288194 1_555
K2 S26 3.323126 1_554
K2 S3 3.384889 1_555
K3 S22 3.271937 1_555
K3 S24 3.271937 1_555
K3 S13 3.271937 1_555
K3 S31 3.357508 1_555
K3 S5 3.357508 1_555
K3 S21 3.357508 1_555
K4 S30 3.271937 1_555
K4 S11 3.271937 1_555
K4 S29 3.271937 1_555
K4 S25 3.357508 1_565
K4 S23 3.357508 1_556
K4 S4 3.357508 1_455
K5 S13 3.181389 1_555
K5 S31 3.219461 1_555
K5 S10 3.271650 1_555
K5 S16 3.288194 1_565
K5 S27 3.323126 1_555
K5 S12 3.384889 1_555
K6 S10 3.181389 1_545
K6 S1 3.219461 1_555
K6 S16 3.271650 1_555
K6 S20 3.288194 1_555
K6 S7 3.323126 1_655
K6 S15 3.384889 1_555
K7 S3 3.181389 1_555
K7 S18 3.219461 1_555
K7 S17 3.271650 1_555
K7 S9 3.288194 1_554
K7 S6 3.323126 1_555
K7 S14 3.384889 1_555
K8 S15 3.181389 1_555
K8 S31 3.219461 1_555
K8 S0 3.271650 1_555
K8 S8 3.288194 1_655
K8 S24 3.323126 1_555
K8 S10 3.384889 1_555
K9 S19 3.181389 1_554
K9 S1 3.219461 1_555
K9 S3 3.271650 1_555
K9 S17 3.288194 1_555
K9 S12 3.323126 1_545
K9 S16 3.384889 1_555
K10 S19 3.271937 1_555
K10 S20 3.271937 1_555
K10 S26 3.271937 1_555
K10 S25 3.357508 1_655
K10 S1 3.357508 1_556
K10 S4 3.357508 1_545
K11 S24 3.181389 1_555
K11 S5 3.219461 1_555
K11 S26 3.271650 1_555
K11 S28 3.288194 1_655
K11 S15 3.323126 1_555
K11 S20 3.384889 1_555
K12 S3 3.271937 1_555
K12 S15 3.271937 1_555
K12 S16 3.271937 1_555
K12 S18 3.357508 1_555
K12 S31 3.357508 1_555
K12 S5 3.357508 1_555
K13 S12 3.181389 1_556
K13 S4 3.219461 1_555
K13 S22 3.271650 1_555
K13 S29 3.288194 1_555
K13 S19 3.323126 1_565
K13 S13 3.384889 1_555
K14 S11 3.181389 1_545
K14 S25 3.219461 1_555
K14 S2 3.271650 1_555
K14 S7 3.288194 1_555
K14 S20 3.323126 1_455
K14 S28 3.384889 1_555
K15 S8 3.181389 1_555
K15 S18 3.219461 1_555
K15 S14 3.271650 1_555
K15 S15 3.288194 1_455
K15 S28 3.323126 1_555
K15 S7 3.384889 1_555
K16 S7 3.271937 1_555
K16 S14 3.271937 1_555
K16 S17 3.271937 1_555
K16 S1 3.357508 1_455
K16 S23 3.357508 1_545
K16 S25 3.357508 1_554
K17 S2 3.271937 1_555
K17 S28 3.271937 1_555
K17 S9 3.271937 1_555
K17 S18 3.357508 1_555
K17 S21 3.357508 1_555
K17 S5 3.357508 1_555
K18 S16 3.181389 1_555
K18 S5 3.219461 1_555
K18 S20 3.271650 1_555
K18 S13 3.288194 1_545
K18 S2 3.323126 1_555
K18 S19 3.384889 1_555
K19 S29 3.181389 1_554
K19 S23 3.219461 1_555
K19 S6 3.271650 1_555
K19 S12 3.288194 1_555
K19 S17 3.323126 1_565
K19 S27 3.384889 1_555
K20 S17 3.181389 1_556
K20 S25 3.219461 1_555
K20 S9 3.271650 1_555
K20 S19 3.288194 1_555
K20 S29 3.323126 1_545
K20 S2 3.384889 1_555
K21 S26 3.181389 1_455
K21 S25 3.219461 1_555
K21 S28 3.271650 1_555
K21 S30 3.288194 1_555
K21 S14 3.323126 1_556
K21 S9 3.384889 1_555
K22 S22 3.181389 1_555
K22 S21 3.219461 1_555
K22 S29 3.271650 1_555
K22 S6 3.288194 1_556
K22 S9 3.323126 1_555
K22 S30 3.384889 1_555
K23 S27 3.181389 1_555
K23 S21 3.219461 1_555
K23 S11 3.271650 1_555
K23 S2 3.288194 1_565
K23 S13 3.323126 1_555
K23 S29 3.384889 1_555
K24 S7 3.181389 1_565
K24 S23 3.219461 1_555
K24 S27 3.271650 1_555
K24 S11 3.288194 1_555
K24 S10 3.323126 1_455
K24 S8 3.384889 1_555
K25 S20 3.181389 1_565
K25 S4 3.219461 1_555
K25 S13 3.271650 1_555
K25 S10 3.288194 1_555
K25 S11 3.323126 1_655
K25 S24 3.384889 1_555
K26 S27 3.271937 1_555
K26 S8 3.271937 1_555
K26 S6 3.271937 1_555
K26 S18 3.357508 1_555
K26 S31 3.357508 1_555
K26 S21 3.357508 1_555
K27 S30 3.181389 1_655
K27 S4 3.219461 1_555
K27 S24 3.271650 1_555
K27 S26 3.288194 1_555
K27 S0 3.323126 1_556
K27 S22 3.384889 1_555
K28 S9 3.181389 1_555
K28 S5 3.219461 1_555
K28 S19 3.271650 1_555
K28 S3 3.288194 1_556
K28 S22 3.323126 1_555
K28 S26 3.384889 1_555
K29 S0 3.181389 1_455
K29 S23 3.219461 1_555
K29 S8 3.271650 1_555
K29 S14 3.288194 1_555
K29 S30 3.323126 1_554
K29 S6 3.384889 1_555
K30 S6 3.181389 1_555
K30 S31 3.219461 1_555
K30 S12 3.271650 1_555
K30 S22 3.288194 1_554
K30 S3 3.323126 1_555
K30 S0 3.384889 1_555
K31 S0 3.271937 1_555
K31 S12 3.271937 1_555
K31 S10 3.271937 1_555
K31 S1 3.357508 1_565
K31 S23 3.357508 1_655
K31 S4 3.357508 1_554
Ge0 S8 2.227995 1_555
Ge0 S11 2.227995 1_555
Ge0 S10 2.227995 1_455
Ge0 S24 2.227995 1_455
Ge0 K8 3.324281 1_455
Ge0 K25 3.324281 1_455
Ge0 K24 3.324281 1_555
Ge0 K1 3.324281 1_555
Ge1 S17 2.227995 1_555
Ge1 S27 2.227995 1_545
Ge1 S12 2.227995 1_545
Ge1 S16 2.227995 1_555
Ge1 K9 3.324281 1_555
Ge1 K5 3.324281 1_545
Ge1 K19 3.324281 1_545
Ge1 K0 3.324281 1_555
Ge2 S2 2.227995 1_555
Ge2 S19 2.227995 1_555
Ge2 S29 2.227995 1_545
Ge2 S13 2.227995 1_545
Ge2 K23 3.324281 1_545
Ge2 K18 3.324281 1_555
Ge2 K13 3.324281 1_545
Ge2 K20 3.324281 1_555
Ge3 S14 2.227995 1_555
Ge3 S9 2.227995 1_554
Ge3 S6 2.227995 1_555
Ge3 S30 2.227995 1_554
Ge3 K22 3.324281 1_554
Ge3 K29 3.324281 1_555
Ge3 K7 3.324281 1_555
Ge3 K21 3.324281 1_554
Ge4 S7 2.227995 1_555
Ge4 S28 2.227995 1_555
Ge4 S20 2.227995 1_455
Ge4 S15 2.227995 1_455
Ge4 K14 3.324281 1_555
Ge4 K6 3.324281 1_455
Ge4 K15 3.324281 1_555
Ge4 K11 3.324281 1_455
Ge5 S3 2.227995 1_555
Ge5 S0 2.227995 1_555
Ge5 S26 2.227995 1_554
Ge5 S22 2.227995 1_554
Ge5 K28 3.324281 1_554
Ge5 K2 3.324281 1_555
Ge5 K30 3.324281 1_555
Ge5 K27 3.324281 1_554
Ge6 S25 2.222169 1_554
Ge6 S1 2.222169 1_455
Ge6 S4 2.222169 1_444
Ge6 S23 2.222169 1_545
Ge7 S21 2.222169 1_555
Ge7 S31 2.222169 1_555
Ge7 S5 2.222169 1_555
Ge7 S18 2.222169 1_555
