# generated using pymatgen
data_ZnS
_symmetry_space_group_name_H-M   'P 1'
_cell_length_a   37.83798865
_cell_length_b   37.83798863
_cell_length_c   37.83798932
_cell_angle_alpha   5.84502688
_cell_angle_beta   5.84502719
_cell_angle_gamma   5.84502626
_symmetry_Int_Tables_number   1
_chemical_formula_structural   ZnS
_chemical_formula_sum   'Zn12 S12'
_cell_volume   486.98086194
_cell_formula_units_Z   12
loop_
 _symmetry_equiv_pos_site_id
 _symmetry_equiv_pos_as_xyz
  1  'x, y, z'
loop_
 _atom_site_type_symbol
 _atom_site_label
 _atom_site_symmetry_multiplicity
 _atom_site_fract_x
 _atom_site_fract_y
 _atom_site_fract_z
 _atom_site_occupancy
  Zn  Zn0  1  0.08333572  0.08333572  0.08333572  1
  Zn  Zn1  1  0.52778632  0.52778632  0.52778632  1
  Zn  Zn2  1  0.16667369  0.16667369  0.16667369  1
  Zn  Zn3  1  0.38888658  0.38888658  0.38888658  1
  Zn  Zn4  1  0.91666951  0.91666951  0.91666951  1
  Zn  Zn5  1  0.44445867  0.44445867  0.44445867  1
  Zn  Zn6  1  0.27779267  0.27779267  0.27779267  1
  Zn  Zn7  1  0.80555012  0.80555012  0.80555012  1
  Zn  Zn8  1  0.00000393  0.00000393  0.00000393  1
  Zn  Zn9  1  0.63888768  0.63888768  0.63888768  1
  Zn  Zn10  1  0.22222869  0.22222869  0.22222869  1
  Zn  Zn11  1  0.69445985  0.69445985  0.69445985  1
  S  S0  1  0.29860634  0.29860634  0.29860634  1
  S  S1  1  0.54862232  0.54862232  0.54862232  1
  S  S2  1  0.24303453  0.24303453  0.24303453  1
  S  S3  1  0.93751150  0.93751150  0.93751150  1
  S  S4  1  0.65969974  0.65969974  0.65969974  1
  S  S5  1  0.02084464  0.02084464  0.02084464  1
  S  S6  1  0.82637882  0.82637882  0.82637882  1
  S  S7  1  0.10417808  0.10417808  0.10417808  1
  S  S8  1  0.40970004  0.40970004  0.40970004  1
  S  S9  1  0.18748351  0.18748351  0.18748351  1
  S  S10  1  0.46526932  0.46526932  0.46526932  1
  S  S11  1  0.71527374  0.71527374  0.71527374  1
loop_
_geom_bond_atom_site_label_1
_geom_bond_atom_site_label_2
_geom_bond_distance
_geom_bond_site_symmetry_2
S0 Zn6 2.358544 1_555
S0 Zn9 2.362672 1_545
S0 Zn9 2.362672 1_455
S0 Zn9 2.362672 1_554
S1 Zn1 2.361075 1_555
S1 Zn10 2.362358 1_565
S1 Zn10 2.362358 1_655
S1 Zn10 2.362359 1_556
S2 Zn10 2.357657 1_555
S2 Zn4 2.363439 1_454
S2 Zn4 2.363439 1_544
S2 Zn4 2.363440 1_445
S3 Zn4 2.361753 1_555
S3 Zn6 2.362665 1_656
S3 Zn6 2.362665 1_566
S3 Zn6 2.362665 1_665
S4 Zn9 2.358362 1_555
S4 Zn8 2.363536 1_656
S4 Zn8 2.363536 1_566
S4 Zn8 2.363536 1_665
S5 Zn8 2.361608 1_555
S5 Zn11 2.362692 1_454
S5 Zn11 2.362692 1_544
S5 Zn11 2.362692 1_445
S6 Zn7 2.360247 1_555
S6 Zn2 2.363183 1_656
S6 Zn2 2.363183 1_566
S6 Zn2 2.363183 1_665
S7 Zn0 2.361795 1_555
S7 Zn5 2.362643 1_545
S7 Zn5 2.362644 1_455
S7 Zn5 2.362644 1_554
S8 Zn3 2.358520 1_555
S8 Zn0 2.363466 1_565
S8 Zn0 2.363466 1_655
S8 Zn0 2.363466 1_556
S9 Zn2 2.358108 1_555
S9 Zn1 2.363484 1_545
S9 Zn1 2.363484 1_455
S9 Zn1 2.363484 1_554
S10 Zn5 2.358202 1_555
S10 Zn7 2.362651 1_545
S10 Zn7 2.362651 1_455
S10 Zn7 2.362651 1_554
S11 Zn11 2.358569 1_555
S11 Zn3 2.362602 1_565
S11 Zn3 2.362602 1_655
S11 Zn3 2.362603 1_556
