# generated using pymatgen
data_TiFe5O8
_symmetry_space_group_name_H-M   'P 1'
_cell_length_a   6.05103305
_cell_length_b   6.02785837
_cell_length_c   30.08870960
_cell_angle_alpha   59.99674623
_cell_angle_beta   60.12695238
_cell_angle_gamma   60.19729369
_symmetry_Int_Tables_number   1
_chemical_formula_structural   TiFe5O8
_chemical_formula_sum   'Ti5 Fe25 O40'
_cell_volume   777.91109986
_cell_formula_units_Z   5
loop_
 _symmetry_equiv_pos_site_id
 _symmetry_equiv_pos_as_xyz
  1  'x, y, z'
loop_
 _atom_site_type_symbol
 _atom_site_label
 _atom_site_symmetry_multiplicity
 _atom_site_fract_x
 _atom_site_fract_y
 _atom_site_fract_z
 _atom_site_occupancy
  Ti  Ti0  1  0.99977600  0.50032100  0.30002200  1
  Ti  Ti1  1  0.49999900  0.00004100  0.09999300  1
  Ti  Ti2  1  0.00005800  0.50001600  0.49997400  1
  Ti  Ti3  1  0.99994600  0.49998900  0.70002500  1
  Ti  Ti4  1  0.00017600  0.49967400  0.89998600  1
  Fe  Fe0  1  0.12216500  0.12324300  0.02554700  1
  Fe  Fe1  1  0.49171300  0.50853800  0.99998500  1
  Fe  Fe2  1  0.12201800  0.12356500  0.22545800  1
  Fe  Fe3  1  0.49997200  0.50000100  0.10000200  1
  Fe  Fe4  1  0.11727600  0.12722200  0.42556400  1
  Fe  Fe5  1  0.50827600  0.49147200  0.20001600  1
  Fe  Fe6  1  0.00000700  0.50000700  0.10000300  1
  Fe  Fe7  1  0.50045200  0.49934800  0.30007100  1
  Fe  Fe8  1  0.49980500  0.50037900  0.39995100  1
  Fe  Fe9  1  0.87785500  0.87676500  0.17445500  1
  Fe  Fe10  1  0.50055400  0.00113700  0.29967600  1
  Fe  Fe11  1  0.11731600  0.12726300  0.62557500  1
  Fe  Fe12  1  0.50006500  0.49998100  0.49999000  1
  Fe  Fe13  1  0.88299800  0.87266700  0.37438900  1
  Fe  Fe14  1  0.50002700  0.99995900  0.50000300  1
  Fe  Fe15  1  0.50002200  0.49998900  0.60000800  1
  Fe  Fe16  1  0.11698500  0.12728900  0.82562000  1
  Fe  Fe17  1  0.49994500  0.50005900  0.70000300  1
  Fe  Fe18  1  0.49999000  0.00004700  0.69999400  1
  Fe  Fe19  1  0.88274100  0.87277100  0.57441700  1
  Fe  Fe20  1  0.50021000  0.49960400  0.80003900  1
  Fe  Fe21  1  0.49955800  0.50063300  0.89993300  1
  Fe  Fe22  1  0.88273000  0.87276900  0.77442500  1
  Fe  Fe23  1  0.49945200  0.99880900  0.90032500  1
  Fe  Fe24  1  0.87796800  0.87642700  0.97454600  1
  O  O0  1  0.26653900  0.23933300  0.05282900  1
  O  O1  1  0.26512300  0.23957000  0.14602400  1
  O  O2  1  0.25630500  0.73030000  0.05173800  1
  O  O3  1  0.72640000  0.24174300  0.05298600  1
  O  O4  1  0.23941400  0.26651300  0.25277100  1
  O  O5  1  0.27362600  0.75823100  0.14702200  1
  O  O6  1  0.74366600  0.26973000  0.14825500  1
  O  O7  1  0.73482800  0.76042900  0.05398100  1
  O  O8  1  0.24155600  0.72615100  0.25308700  1
  O  O9  1  0.24054700  0.26397100  0.34603200  1
  O  O10  1  0.73072600  0.25687800  0.25158900  1
  O  O11  1  0.73342100  0.76067300  0.14717900  1
  O  O12  1  0.27488400  0.74211800  0.34821900  1
  O  O13  1  0.23951200  0.26515700  0.45298900  1
  O  O14  1  0.76042900  0.26937700  0.34708000  1
  O  O15  1  0.76160400  0.73393500  0.25393100  1
  O  O16  1  0.23953800  0.26506000  0.54605000  1
  O  O17  1  0.23958700  0.73041900  0.45298400  1
  O  O18  1  0.72530300  0.25826500  0.45163600  1
  O  O19  1  0.76081200  0.73489000  0.34691300  1
  O  O20  1  0.27461300  0.74186300  0.54833000  1
  O  O21  1  0.23952800  0.26508700  0.65301800  1
  O  O22  1  0.76037700  0.26968200  0.54700600  1
  O  O23  1  0.76052500  0.73498000  0.45391400  1
  O  O24  1  0.23962600  0.73033700  0.65298600  1
  O  O25  1  0.23946600  0.26504400  0.74608900  1
  O  O26  1  0.76052100  0.73491200  0.54698100  1
  O  O27  1  0.72543600  0.25811000  0.65167600  1
  O  O28  1  0.23918000  0.26510400  0.85309400  1
  O  O29  1  0.27470000  0.74176300  0.74835900  1
  O  O30  1  0.76043200  0.26957900  0.74700500  1
  O  O31  1  0.23836300  0.26605600  0.94607900  1
  O  O32  1  0.76050000  0.73497300  0.65394000  1
  O  O33  1  0.23958000  0.73056500  0.85293000  1
  O  O34  1  0.72508200  0.25783700  0.85179100  1
  O  O35  1  0.76047800  0.73487100  0.74700200  1
  O  O36  1  0.26925400  0.74316200  0.94840300  1
  O  O37  1  0.75842000  0.27384100  0.94692200  1
  O  O38  1  0.75947700  0.73601800  0.85395800  1
  O  O39  1  0.76057000  0.73348800  0.94722800  1
loop_
_geom_bond_atom_site_label_1
_geom_bond_atom_site_label_2
_geom_bond_distance
_geom_bond_site_symmetry_2
Fe0 O2 1.936360 1_545
Fe0 O31 1.954758 1_554
Fe0 O0 1.955319 1_555
Fe0 O3 1.961301 1_455
Fe1 O36 2.052938 1_555
Fe1 O2 2.054303 1_556
Fe1 O39 2.114883 1_555
Fe1 O0 2.115934 1_556
Fe1 O3 2.137070 1_556
Fe1 O37 2.139565 1_555
Fe2 O10 1.938077 1_455
Fe2 O1 1.954479 1_555
Fe2 O4 1.954653 1_555
Fe2 O8 1.959054 1_545
Fe3 O6 2.071642 1_555
Fe3 O2 2.071755 1_555
Fe3 O5 2.110290 1_555
Fe3 O3 2.110305 1_555
Fe3 O1 2.117692 1_555
Fe3 O7 2.117710 1_555
Fe4 O18 1.941354 1_455
Fe4 O9 1.955168 1_555
Fe4 O17 1.955638 1_545
Fe4 O13 1.955714 1_555
Fe5 O10 2.052703 1_555
Fe5 O6 2.054399 1_555
Fe5 O4 2.114937 1_555
Fe5 O11 2.115793 1_555
Fe5 O5 2.136764 1_555
Fe5 O8 2.139667 1_555
Fe6 O2 2.078821 1_555
Fe6 O6 2.078947 1_455
Fe6 O1 2.119174 1_555
Fe6 O7 2.119463 1_455
Fe6 O0 2.125059 1_555
Fe6 O11 2.125084 1_455
Fe7 O12 2.065970 1_555
Fe7 O10 2.070945 1_555
Fe7 O8 2.113312 1_555
Fe7 O14 2.117765 1_555
Fe7 O9 2.118506 1_555
Fe7 O15 2.120507 1_555
Fe8 O12 2.066181 1_555
Fe8 O18 2.067541 1_555
Fe8 O17 2.118483 1_555
Fe8 O14 2.118971 1_555
Fe8 O13 2.119187 1_555
Fe8 O19 2.119382 1_555
Fe9 O6 1.936473 1_565
Fe9 O15 1.954947 1_555
Fe9 O11 1.955483 1_555
Fe9 O5 1.961325 1_655
Fe10 O12 2.070645 1_545
Fe10 O10 2.075054 1_555
Fe10 O9 2.115914 1_555
Fe10 O4 2.121014 1_555
Fe10 O15 2.122772 1_545
Fe10 O19 2.124141 1_545
Fe11 O27 1.940891 1_455
Fe11 O16 1.955117 1_555
Fe11 O21 1.955492 1_555
Fe11 O24 1.956249 1_545
Fe12 O18 2.065922 1_555
Fe12 O20 2.066292 1_555
Fe12 O16 2.119221 1_555
Fe12 O23 2.119226 1_555
Fe12 O22 2.119340 1_555
Fe12 O17 2.119840 1_555
Fe13 O12 1.940918 1_655
Fe13 O23 1.955087 1_555
Fe13 O14 1.955151 1_565
Fe13 O19 1.955951 1_555
Fe14 O20 2.065535 1_555
Fe14 O18 2.065886 1_565
Fe14 O16 2.119590 1_565
Fe14 O26 2.119620 1_555
Fe14 O23 2.119904 1_555
Fe14 O13 2.120471 1_565
Fe15 O27 2.066819 1_555
Fe15 O20 2.067017 1_555
Fe15 O24 2.118583 1_555
Fe15 O21 2.118722 1_555
Fe15 O26 2.118852 1_555
Fe15 O22 2.118921 1_555
Fe16 O34 1.941002 1_455
Fe16 O33 1.955218 1_545
Fe16 O25 1.955235 1_555
Fe16 O28 1.956133 1_555
Fe17 O29 2.065911 1_555
Fe17 O27 2.066292 1_555
Fe17 O32 2.119313 1_555
Fe17 O25 2.119366 1_555
Fe17 O24 2.119399 1_555
Fe17 O30 2.119783 1_555
Fe18 O27 2.065523 1_555
Fe18 O29 2.065847 1_545
Fe18 O21 2.119443 1_555
Fe18 O32 2.119619 1_545
Fe18 O25 2.120107 1_555
Fe18 O35 2.120231 1_545
Fe19 O20 1.940852 1_655
Fe19 O32 1.955066 1_555
Fe19 O26 1.955532 1_555
Fe19 O22 1.956168 1_565
Fe20 O34 2.066417 1_555
Fe20 O29 2.067481 1_555
Fe20 O30 2.118446 1_555
Fe20 O33 2.119235 1_555
Fe20 O35 2.119259 1_555
Fe20 O28 2.119460 1_555
Fe21 O34 2.065964 1_555
Fe21 O36 2.070937 1_555
Fe21 O37 2.113269 1_555
Fe21 O33 2.117653 1_555
Fe21 O38 2.118582 1_555
Fe21 O31 2.120651 1_555
Fe22 O29 1.941339 1_655
Fe22 O38 1.955194 1_555
Fe22 O35 1.955558 1_555
Fe22 O30 1.955674 1_565
Fe23 O34 2.070520 1_565
Fe23 O36 2.074753 1_555
Fe23 O38 2.115955 1_555
Fe23 O39 2.120864 1_555
Fe23 O31 2.123154 1_565
Fe23 O28 2.124096 1_565
Fe24 O36 1.938046 1_655
Fe24 O7 1.954508 1_556
Fe24 O39 1.954742 1_555
Fe24 O37 1.959053 1_565
O0 Ti1 2.003612 1_555
O1 Ti1 2.005528 1_555
O3 Ti1 1.998227 1_555
O4 Ti0 2.007252 1_455
O5 Ti1 1.998577 1_565
O7 Ti1 2.005484 1_565
O8 Ti0 1.996685 1_455
O9 Ti0 2.010538 1_455
O11 Ti1 2.003922 1_565
O13 Ti2 2.006060 1_555
O14 Ti0 2.007579 1_555
O15 Ti0 2.000957 1_555
O16 Ti2 2.006308 1_555
O17 Ti2 2.006088 1_555
O19 Ti0 2.002803 1_555
O21 Ti3 2.006719 1_455
O22 Ti2 2.006455 1_655
O23 Ti2 2.006202 1_655
O24 Ti3 2.006509 1_455
O25 Ti3 2.006229 1_455
O26 Ti2 2.006688 1_655
O28 Ti4 2.002834 1_555
O30 Ti3 2.006053 1_555
O31 Ti4 2.001064 1_555
O32 Ti3 2.006350 1_555
O33 Ti4 2.007602 1_555
O35 Ti3 2.005991 1_555
O37 Ti4 1.996593 1_655
O38 Ti4 2.010602 1_655
O39 Ti4 2.007084 1_655
