# generated using pymatgen
data_UTe3Pb2O11
_symmetry_space_group_name_H-M   'P 1'
_cell_length_a   13.53832200
_cell_length_b   7.19098700
_cell_length_c   13.57222113
_cell_angle_alpha   59.72815675
_cell_angle_beta   90.00000000
_cell_angle_gamma   90.00000000
_symmetry_Int_Tables_number   1
_chemical_formula_structural   UTe3Pb2O11
_chemical_formula_sum   'U4 Te12 Pb8 O44'
_cell_volume   1141.13945347
_cell_formula_units_Z   4
loop_
 _symmetry_equiv_pos_site_id
 _symmetry_equiv_pos_as_xyz
  1  'x, y, z'
loop_
 _atom_site_type_symbol
 _atom_site_label
 _atom_site_symmetry_multiplicity
 _atom_site_fract_x
 _atom_site_fract_y
 _atom_site_fract_z
 _atom_site_occupancy
  U  U0  1  0.72074100  0.63376200  0.25671200  1
  U  U1  1  0.77925900  0.63376200  0.75671200  1
  U  U2  1  0.27925900  0.36623800  0.74328800  1
  U  U3  1  0.22074100  0.36623800  0.24328800  1
  Te  Te0  1  0.74131300  0.33632400  0.07267100  1
  Te  Te1  1  0.73914200  0.02253900  0.91324700  1
  Te  Te2  1  0.24131300  0.66367600  0.42732900  1
  Te  Te3  1  0.26085800  0.97746100  0.08675300  1
  Te  Te4  1  0.48194300  0.98649900  0.74208800  1
  Te  Te5  1  0.25868700  0.66367600  0.92732900  1
  Te  Te6  1  0.98194300  0.01350100  0.75791200  1
  Te  Te7  1  0.51805700  0.01350100  0.25791200  1
  Te  Te8  1  0.76085800  0.02253900  0.41324700  1
  Te  Te9  1  0.23914200  0.97746100  0.58675300  1
  Te  Te10  1  0.01805700  0.98649900  0.24208800  1
  Te  Te11  1  0.75868700  0.33632400  0.57267100  1
  Pb  Pb0  1  0.55271200  0.65542000  0.56666900  1
  Pb  Pb1  1  0.49310000  0.30282700  0.93839600  1
  Pb  Pb2  1  0.44728800  0.34458000  0.43333100  1
  Pb  Pb3  1  0.50690000  0.69717300  0.06160400  1
  Pb  Pb4  1  0.00690000  0.30282700  0.43839700  1
  Pb  Pb5  1  0.99310000  0.69717300  0.56160400  1
  Pb  Pb6  1  0.05271200  0.34458000  0.93333100  1
  Pb  Pb7  1  0.94728800  0.65542000  0.06666900  1
  O  O0  1  0.71316100  0.29320300  0.90826600  1
  O  O1  1  0.59568200  0.51355000  0.26992800  1
  O  O2  1  0.67989200  0.84958100  0.06125000  1
  O  O3  1  0.78683900  0.29320300  0.40826600  1
  O  O4  1  0.60477500  0.41705900  0.05439400  1
  O  O5  1  0.40431800  0.48645000  0.73007200  1
  O  O6  1  0.37343800  0.99533900  0.54472400  1
  O  O7  1  0.65428500  0.75363200  0.73782600  1
  O  O8  1  0.28683900  0.70679700  0.09173400  1
  O  O9  1  0.27720100  0.55535700  0.32467600  1
  O  O10  1  0.90431800  0.51355000  0.76992800  1
  O  O11  1  0.65057000  0.93365000  0.24391700  1
  O  O12  1  0.52668500  0.25228200  0.61596700  1
  O  O13  1  0.21316100  0.70679700  0.59173400  1
  O  O14  1  0.22279900  0.55535700  0.82467600  1
  O  O15  1  0.72279900  0.44464300  0.67532400  1
  O  O16  1  0.79802400  0.59017900  0.94789300  1
  O  O17  1  0.89522500  0.41705900  0.55439400  1
  O  O18  1  0.03615700  0.99555700  0.63278400  1
  O  O19  1  0.10477500  0.58294100  0.44560600  1
  O  O20  1  0.02668500  0.74771800  0.88403300  1
  O  O21  1  0.47331500  0.74771800  0.38403300  1
  O  O22  1  0.77720100  0.44464300  0.17532400  1
  O  O23  1  0.84571500  0.75363200  0.23782600  1
  O  O24  1  0.46384300  0.99555700  0.13278400  1
  O  O25  1  0.29802400  0.40982100  0.55210700  1
  O  O26  1  0.12656200  0.99533900  0.04472400  1
  O  O27  1  0.82010800  0.84958100  0.56125000  1
  O  O28  1  0.32010800  0.15041900  0.93875000  1
  O  O29  1  0.34943000  0.06635000  0.75608300  1
  O  O30  1  0.97331500  0.25228200  0.11596700  1
  O  O31  1  0.70197600  0.59017900  0.44789300  1
  O  O32  1  0.53615700  0.00444300  0.86721600  1
  O  O33  1  0.15057000  0.06635000  0.25608300  1
  O  O34  1  0.96384300  0.00444300  0.36721600  1
  O  O35  1  0.62656200  0.00466100  0.45527600  1
  O  O36  1  0.15428500  0.24636800  0.76217400  1
  O  O37  1  0.39522500  0.58294100  0.94560600  1
  O  O38  1  0.34571500  0.24636800  0.26217400  1
  O  O39  1  0.09568200  0.48645000  0.23007200  1
  O  O40  1  0.87343800  0.00466100  0.95527600  1
  O  O41  1  0.20197600  0.40982100  0.05210700  1
  O  O42  1  0.17989200  0.15041900  0.43875000  1
  O  O43  1  0.84943000  0.93365000  0.74391700  1
loop_
_geom_bond_atom_site_label_1
_geom_bond_atom_site_label_2
_geom_bond_distance
_geom_bond_site_symmetry_2
O0 Te1 1.945219 1_555
O0 Te0 2.432668 1_556
O0 U1 2.439351 1_555
O1 U0 1.868063 1_555
O1 Pb3 2.723691 1_555
O1 Pb2 2.777418 1_555
O2 Te1 1.925222 1_564
O2 U0 2.366672 1_555
O2 Pb3 2.584747 1_555
O3 Te8 1.945219 1_555
O3 Te11 2.432668 1_555
O3 U0 2.439351 1_555
O4 Te0 1.915810 1_555
O4 Pb3 2.453871 1_555
O4 Pb1 2.596731 1_554
O5 U2 1.868063 1_555
O5 Pb1 2.723691 1_555
O5 Pb0 2.777418 1_555
O6 Te9 1.890402 1_555
O6 Pb2 2.400910 1_565
O7 U1 1.857044 1_555
O8 Te3 1.945219 1_555
O8 Te5 2.432668 1_554
O8 U3 2.439351 1_555
O9 Te2 1.969261 1_555
O9 U3 2.273426 1_555
O9 Pb2 2.742428 1_555
O10 U1 1.868063 1_555
O10 Pb5 2.723691 1_555
O10 Pb6 2.777418 1_655
O11 Te7 1.922031 1_565
O11 U0 2.281566 1_555
O12 Te4 1.910868 1_545
O12 Pb2 2.466082 1_555
O12 Pb0 2.649573 1_555
O13 Te9 1.945219 1_555
O13 Te2 2.432668 1_555
O13 U2 2.439351 1_555
O14 Te5 1.969261 1_555
O14 U2 2.273426 1_555
O14 Pb6 2.742428 1_555
O15 Te11 1.969261 1_555
O15 U1 2.273426 1_555
O15 Pb0 2.742428 1_555
O16 Te0 1.916500 1_556
O16 U1 2.464876 1_555
O16 Pb7 2.768553 1_556
O17 Te11 1.915810 1_555
O17 Pb5 2.453871 1_555
O17 Pb4 2.596720 1_655
O18 Te6 1.913216 1_465
O18 Pb4 2.474321 1_565
O18 Pb5 2.822569 1_455
O19 Te2 1.915810 1_555
O19 Pb4 2.453865 1_555
O19 Pb5 2.596731 1_455
O20 Te6 1.910868 1_465
O20 Pb7 2.466082 1_456
O20 Pb6 2.649573 1_555
O21 Te7 1.910868 1_565
O21 Pb0 2.466082 1_555
O21 Pb2 2.649573 1_555
O22 Te0 1.969261 1_555
O22 U0 2.273426 1_555
O22 Pb7 2.742428 1_555
O23 U0 1.857044 1_555
O24 Te7 1.913216 1_565
O24 Pb1 2.474329 1_564
O24 Pb3 2.822569 1_555
O25 Te2 1.916500 1_555
O25 U2 2.464876 1_555
O25 Pb2 2.768553 1_555
O26 Te3 1.890402 1_555
O26 Pb6 2.400910 1_564
O27 Te8 1.925222 1_565
O27 U1 2.366672 1_555
O27 Pb5 2.584747 1_555
O28 Te3 1.925222 1_546
O28 U2 2.366672 1_555
O28 Pb1 2.584747 1_555
O29 Te4 1.922031 1_545
O29 U2 2.281566 1_555
O30 Te10 1.910868 1_645
O30 Pb6 2.466082 1_654
O30 Pb7 2.649573 1_555
O31 Te11 1.916500 1_555
O31 U0 2.464876 1_555
O31 Pb0 2.768553 1_555
O32 Te4 1.913216 1_545
O32 Pb3 2.474329 1_546
O32 Pb1 2.822569 1_555
O33 Te10 1.922031 1_545
O33 U3 2.281566 1_555
O34 Te10 1.913216 1_645
O34 Pb5 2.474329 1_545
O34 Pb4 2.822579 1_655
O35 Te8 1.890402 1_555
O35 Pb0 2.400910 1_545
O36 U2 1.857044 1_555
O37 Te5 1.915810 1_555
O37 Pb1 2.453871 1_555
O37 Pb3 2.596731 1_556
O38 U3 1.857044 1_555
O39 U3 1.868063 1_555
O39 Pb4 2.723702 1_555
O39 Pb7 2.777418 1_455
O40 Te1 1.890402 1_555
O40 Pb7 2.400910 1_546
O41 Te5 1.916500 1_554
O41 U3 2.464876 1_555
O41 Pb6 2.768553 1_554
O42 Te9 1.925222 1_545
O42 U3 2.366672 1_555
O42 Pb4 2.584750 1_555
O43 Te6 1.922031 1_565
O43 U1 2.281566 1_555
