# generated using pymatgen
data_RbCO2
_symmetry_space_group_name_H-M   'P 1'
_cell_length_a   3.59256883
_cell_length_b   6.29648466
_cell_length_c   11.29576821
_cell_angle_alpha   90.00000000
_cell_angle_beta   90.00000000
_cell_angle_gamma   90.00000000
_symmetry_Int_Tables_number   1
_chemical_formula_structural   RbCO2
_chemical_formula_sum   'Rb4 C4 O8'
_cell_volume   255.51654073
_cell_formula_units_Z   4
loop_
 _symmetry_equiv_pos_site_id
 _symmetry_equiv_pos_as_xyz
  1  'x, y, z'
loop_
 _atom_site_type_symbol
 _atom_site_label
 _atom_site_symmetry_multiplicity
 _atom_site_fract_x
 _atom_site_fract_y
 _atom_site_fract_z
 _atom_site_occupancy
  Rb  Rb0  1  0.50000000  0.09505004  0.15142549  1
  Rb  Rb1  1  0.50000000  0.40494996  0.65142549  1
  Rb  Rb2  1  0.50000000  0.90494996  0.84857451  1
  Rb  Rb3  1  0.50000000  0.59505004  0.34857451  1
  C  C0  1  -0.00000000  0.06802245  0.44108667  1
  C  C1  1  -0.00000000  0.56802245  0.05891333  1
  C  C2  1  0.00000000  0.93197755  0.55891333  1
  C  C3  1  0.00000000  0.43197755  0.94108667  1
  O  O0  1  0.00000000  0.46658303  0.15543074  1
  O  O1  1  -0.00000000  0.26724348  0.45221740  1
  O  O2  1  0.00000000  0.23275652  0.95221740  1
  O  O3  1  0.00000000  0.96658303  0.34456926  1
  O  O4  1  -0.00000000  0.03341697  0.65543074  1
  O  O5  1  0.00000000  0.53341697  0.84456926  1
  O  O6  1  0.00000000  0.73275652  0.54778260  1
  O  O7  1  0.00000000  0.76724348  0.04778260  1
loop_
_geom_bond_atom_site_label_1
_geom_bond_atom_site_label_2
_geom_bond_distance
_geom_bond_site_symmetry_2
C0 O1 1.260678 1_555
C0 O3 1.263555 1_545
C1 O7 1.260678 1_555
C1 O0 1.263555 1_555
C2 O6 1.260678 1_555
C2 O4 1.263555 1_565
C3 O2 1.260678 1_555
C3 O5 1.263555 1_555
O0 Rb3 2.939522 1_455
O0 Rb3 2.939522 1_555
O0 Rb0 2.949788 1_455
O0 Rb0 2.949788 1_555
O1 Rb3 2.976147 1_555
O1 Rb3 2.976147 1_455
O1 Rb1 3.006972 1_555
O1 Rb1 3.006972 1_455
O2 Rb2 2.976147 1_545
O2 Rb2 2.976147 1_445
O2 Rb0 3.006972 1_456
O2 Rb0 3.006972 1_556
O3 Rb0 2.939522 1_465
O3 Rb0 2.939522 1_565
O3 Rb3 2.949788 1_455
O3 Rb3 2.949788 1_555
O4 Rb2 2.939522 1_445
O4 Rb2 2.939522 1_545
O4 Rb1 2.949788 1_455
O4 Rb1 2.949788 1_555
O5 Rb1 2.939522 1_455
O5 Rb1 2.939522 1_555
O5 Rb2 2.949788 1_555
O5 Rb2 2.949788 1_455
O6 Rb1 2.976147 1_555
O6 Rb1 2.976147 1_455
O6 Rb3 3.006972 1_555
O6 Rb3 3.006972 1_455
O7 Rb0 2.976147 1_465
O7 Rb0 2.976147 1_565
O7 Rb2 3.006972 1_454
O7 Rb2 3.006972 1_554
