# generated using pymatgen
data_SnH4C2NO4F
_symmetry_space_group_name_H-M   'P 1'
_cell_length_a   9.84124300
_cell_length_b   7.80460100
_cell_length_c   8.65014197
_cell_angle_alpha   69.96792338
_cell_angle_beta   90.00000000
_cell_angle_gamma   90.00000000
_symmetry_Int_Tables_number   1
_chemical_formula_structural   SnH4C2NO4F
_chemical_formula_sum   'Sn4 H16 C8 N4 O16 F4'
_cell_volume   624.19622982
_cell_formula_units_Z   4
loop_
 _symmetry_equiv_pos_site_id
 _symmetry_equiv_pos_as_xyz
  1  'x, y, z'
loop_
 _atom_site_type_symbol
 _atom_site_label
 _atom_site_symmetry_multiplicity
 _atom_site_fract_x
 _atom_site_fract_y
 _atom_site_fract_z
 _atom_site_occupancy
  Sn  Sn0  1  0.81315900  0.00555100  0.62312800  1
  Sn  Sn1  1  0.31315900  0.49444900  0.37687200  1
  Sn  Sn2  1  0.18684100  0.99444900  0.37687200  1
  Sn  Sn3  1  0.68684100  0.50555100  0.62312800  1
  H  H0  1  0.75175600  0.72118400  0.99979300  1
  H  H1  1  0.25175600  0.77881600  0.00020700  1
  H  H2  1  0.73696900  0.02828400  0.16258400  1
  H  H3  1  0.64975800  0.54213100  0.01208200  1
  H  H4  1  0.12591600  0.83170500  0.86028900  1
  H  H5  1  0.24824400  0.27881600  0.00020700  1
  H  H6  1  0.62591600  0.66829500  0.13971100  1
  H  H7  1  0.23696900  0.47171600  0.83741600  1
  H  H8  1  0.87408400  0.16829500  0.13971100  1
  H  H9  1  0.26303100  0.97171600  0.83741600  1
  H  H10  1  0.76303100  0.52828400  0.16258400  1
  H  H11  1  0.14975800  0.95786900  0.98791800  1
  H  H12  1  0.74824400  0.22118400  0.99979300  1
  H  H13  1  0.85024200  0.04213100  0.01208200  1
  H  H14  1  0.37408400  0.33170500  0.86028900  1
  H  H15  1  0.35024200  0.45786900  0.98791800  1
  C  C0  1  0.01042300  0.62206700  0.29949000  1
  C  C1  1  0.48395600  0.93053500  0.27891400  1
  C  C2  1  0.51042300  0.87793300  0.70051000  1
  C  C3  1  0.01604400  0.43053500  0.27891400  1
  C  C4  1  0.98957700  0.37793300  0.70051000  1
  C  C5  1  0.51604400  0.06946500  0.72108600  1
  C  C6  1  0.98395600  0.56946500  0.72108600  1
  C  C7  1  0.48957700  0.12206700  0.29949000  1
  N  N0  1  0.30493700  0.38570900  0.92097400  1
  N  N1  1  0.80493700  0.11429100  0.07902600  1
  N  N2  1  0.69506300  0.61429100  0.07902600  1
  N  N3  1  0.19506300  0.88570900  0.92097400  1
  O  O0  1  0.59937500  0.20233500  0.28828500  1
  O  O1  1  0.63150000  0.15287500  0.68675000  1
  O  O2  1  0.08751500  0.63020100  0.76747400  1
  O  O3  1  0.13150000  0.34712500  0.31325000  1
  O  O4  1  0.90062500  0.70233500  0.28828500  1
  O  O5  1  0.36850000  0.84712500  0.31325000  1
  O  O6  1  0.41248500  0.13020100  0.76747400  1
  O  O7  1  0.62794500  0.81756700  0.67177700  1
  O  O8  1  0.09937500  0.29766500  0.71171500  1
  O  O9  1  0.58751500  0.86979900  0.23252600  1
  O  O10  1  0.91248500  0.36979900  0.23252600  1
  O  O11  1  0.37205500  0.18243300  0.32822300  1
  O  O12  1  0.86850000  0.65287500  0.68675000  1
  O  O13  1  0.12794500  0.68243300  0.32822300  1
  O  O14  1  0.87205500  0.31756700  0.67177700  1
  O  O15  1  0.40062500  0.79766500  0.71171500  1
  F  F0  1  0.64797700  0.40735000  0.87803600  1
  F  F1  1  0.14797700  0.09265000  0.12196400  1
  F  F2  1  0.85202300  0.90735000  0.87803600  1
  F  F3  1  0.35202300  0.59265000  0.12196400  1
loop_
_geom_bond_atom_site_label_1
_geom_bond_atom_site_label_2
_geom_bond_distance
_geom_bond_site_symmetry_2
H0 N2 1.041772 1_556
H1 N3 1.041772 1_554
H2 N1 1.043085 1_555
H3 N2 1.036684 1_555
H4 N3 1.033367 1_555
H5 N0 1.041772 1_554
H6 N2 1.033367 1_555
H7 N0 1.043085 1_555
H8 N1 1.033367 1_555
H9 N3 1.043085 1_555
H10 N2 1.043085 1_555
H11 N3 1.036684 1_555
H12 N1 1.041772 1_556
H13 N1 1.036684 1_555
H14 N0 1.033367 1_555
H15 N0 1.036684 1_555
C0 O4 1.236056 1_455
C0 O13 1.304454 1_555
C1 O9 1.246869 1_555
C1 O5 1.292498 1_555
C2 O15 1.236056 1_555
C2 O7 1.304454 1_555
C3 O10 1.246869 1_455
C3 O3 1.292498 1_555
C4 O8 1.236056 1_655
C4 O14 1.304454 1_555
C5 O6 1.246869 1_555
C5 O1 1.292498 1_555
C6 O2 1.246869 1_655
C6 O12 1.292498 1_555
C7 O0 1.236056 1_555
C7 O11 1.304454 1_555
O1 Sn0 2.292268 1_555
O1 Sn3 2.671692 1_555
O3 Sn1 2.292268 1_555
O3 Sn2 2.671692 1_545
O5 Sn2 2.292268 1_555
O5 Sn1 2.671692 1_555
O7 Sn0 2.286696 1_565
O7 Sn3 2.673033 1_555
O11 Sn2 2.286696 1_545
O11 Sn1 2.673033 1_555
O12 Sn3 2.292268 1_555
O12 Sn0 2.671692 1_565
O13 Sn1 2.286696 1_555
O13 Sn2 2.673033 1_555
O14 Sn3 2.286696 1_555
O14 Sn0 2.673033 1_555
F0 Sn3 2.106631 1_555
F1 Sn2 2.106631 1_545
F2 Sn0 2.106631 1_565
F3 Sn1 2.106631 1_555
