# generated using pymatgen
data_In2Cu3(PO4)4
_symmetry_space_group_name_H-M   'P 1'
_cell_length_a   8.91289900
_cell_length_b   7.99886200
_cell_length_c   9.08343764
_cell_angle_alpha   72.33461439
_cell_angle_beta   90.00000000
_cell_angle_gamma   90.00000000
_symmetry_Int_Tables_number   1
_chemical_formula_structural   In2Cu3(PO4)4
_chemical_formula_sum   'In4 Cu6 P8 O32'
_cell_volume   617.04903979
_cell_formula_units_Z   2
loop_
 _symmetry_equiv_pos_site_id
 _symmetry_equiv_pos_as_xyz
  1  'x, y, z'
loop_
 _atom_site_type_symbol
 _atom_site_label
 _atom_site_symmetry_multiplicity
 _atom_site_fract_x
 _atom_site_fract_y
 _atom_site_fract_z
 _atom_site_occupancy
  In  In0  1  0.49924200  0.75337300  0.24415300  1
  In  In1  1  0.50075800  0.24662700  0.75584700  1
  In  In2  1  0.99924200  0.74662700  0.75584700  1
  In  In3  1  0.00075800  0.25337300  0.24415300  1
  Cu  Cu0  1  0.87252500  0.61363600  0.40407600  1
  Cu  Cu1  1  0.62747500  0.11363600  0.40407600  1
  Cu  Cu2  1  0.00000000  0.00000000  0.00000000  1
  Cu  Cu3  1  0.12747500  0.38636400  0.59592400  1
  Cu  Cu4  1  0.50000000  0.50000000  0.00000000  1
  Cu  Cu5  1  0.37252500  0.88636400  0.59592400  1
  P  P0  1  0.68704400  0.14499200  0.08638700  1
  P  P1  1  0.31295600  0.85500800  0.91361300  1
  P  P2  1  0.18704400  0.35500800  0.91361300  1
  P  P3  1  0.83831400  0.15864600  0.59810600  1
  P  P4  1  0.16168600  0.84135400  0.40189400  1
  P  P5  1  0.81295600  0.64499200  0.08638700  1
  P  P6  1  0.66168600  0.65864600  0.59810600  1
  P  P7  1  0.33831400  0.34135400  0.40189400  1
  O  O0  1  0.08449300  0.66841200  0.40500300  1
  O  O1  1  0.60996500  0.50067000  0.72918300  1
  O  O2  1  0.36068500  0.89469700  0.06073800  1
  O  O3  1  0.64758200  0.62108300  0.43597900  1
  O  O4  1  0.85241800  0.12108300  0.43597900  1
  O  O5  1  0.41550700  0.16841200  0.40500300  1
  O  O6  1  0.16292600  0.31078100  0.40420900  1
  O  O7  1  0.10996500  0.99933000  0.27081700  1
  O  O8  1  0.39003500  0.49933000  0.27081700  1
  O  O9  1  0.33707400  0.81078100  0.40420900  1
  O  O10  1  0.14758200  0.87891700  0.56402100  1
  O  O11  1  0.86068500  0.60530300  0.93926200  1
  O  O12  1  0.66292600  0.18921900  0.59579100  1
  O  O13  1  0.91550700  0.33158800  0.59499700  1
  O  O14  1  0.86747900  0.49442700  0.23557200  1
  O  O15  1  0.36747900  0.00557300  0.76442800  1
  O  O16  1  0.13647400  0.84232500  0.91272600  1
  O  O17  1  0.58449300  0.83158800  0.59499700  1
  O  O18  1  0.62545000  0.31320100  0.11118900  1
  O  O19  1  0.83707400  0.68921900  0.59579100  1
  O  O20  1  0.36352600  0.34232500  0.91272600  1
  O  O21  1  0.63252100  0.99442700  0.23557200  1
  O  O22  1  0.89003500  0.00067000  0.72918300  1
  O  O23  1  0.12545000  0.18679900  0.88881100  1
  O  O24  1  0.63647400  0.65767500  0.08727400  1
  O  O25  1  0.13931500  0.39469700  0.06073800  1
  O  O26  1  0.87455000  0.81320100  0.11118900  1
  O  O27  1  0.63931500  0.10530300  0.93926200  1
  O  O28  1  0.86352600  0.15767500  0.08727400  1
  O  O29  1  0.13252100  0.50557300  0.76442800  1
  O  O30  1  0.37455000  0.68679900  0.88881100  1
  O  O31  1  0.35241800  0.37891700  0.56402100  1
loop_
_geom_bond_atom_site_label_1
_geom_bond_atom_site_label_2
_geom_bond_distance
_geom_bond_site_symmetry_2
In0 O2 2.106091 1_555
In0 O24 2.185100 1_555
In0 O3 2.187428 1_555
In0 O9 2.195198 1_555
In0 O8 2.199231 1_555
In0 O21 2.245833 1_555
In1 O27 2.106091 1_555
In1 O20 2.185100 1_555
In1 O31 2.187428 1_555
In1 O12 2.195198 1_555
In1 O1 2.199231 1_555
In1 O15 2.245833 1_555
In2 O11 2.106091 1_555
In2 O16 2.185100 1_655
In2 O10 2.187428 1_655
In2 O19 2.195198 1_555
In2 O22 2.199231 1_565
In2 O29 2.245833 1_655
In3 O25 2.106091 1_555
In3 O28 2.185100 1_455
In3 O4 2.187428 1_455
In3 O6 2.195198 1_555
In3 O7 2.199231 1_545
In3 O14 2.245833 1_455
Cu0 O0 1.939986 1_655
Cu0 O3 2.029188 1_555
Cu0 O19 2.033941 1_555
Cu0 O14 2.034639 1_555
Cu0 O13 2.422713 1_555
Cu1 O5 1.939986 1_555
Cu1 O4 2.029188 1_555
Cu1 O12 2.033941 1_555
Cu1 O21 2.034639 1_545
Cu1 O17 2.422713 1_545
Cu2 O26 1.893922 1_445
Cu2 O23 1.893922 1_554
Cu2 O16 2.074974 1_544
Cu2 O28 2.074974 1_455
Cu3 O13 1.939986 1_455
Cu3 O31 2.029188 1_555
Cu3 O6 2.033941 1_555
Cu3 O29 2.034639 1_555
Cu3 O0 2.422713 1_555
Cu4 O18 1.893922 1_555
Cu4 O30 1.893922 1_554
Cu4 O20 2.074974 1_554
Cu4 O24 2.074974 1_555
Cu5 O17 1.939986 1_555
Cu5 O10 2.029188 1_555
Cu5 O9 2.033941 1_555
Cu5 O15 2.034639 1_565
Cu5 O5 2.422713 1_565
O0 P4 1.537556 1_555
O1 P6 1.521102 1_555
O2 P1 1.524865 1_554
O3 P6 1.594800 1_555
O4 P3 1.594800 1_555
O5 P7 1.537556 1_555
O6 P7 1.581382 1_555
O7 P4 1.521102 1_555
O8 P7 1.521102 1_555
O9 P4 1.581382 1_555
O10 P4 1.594800 1_555
O11 P5 1.524865 1_556
O12 P3 1.581382 1_555
O13 P3 1.537556 1_555
O14 P5 1.591364 1_555
O15 P1 1.591364 1_545
O16 P1 1.576412 1_555
O17 P6 1.537556 1_555
O18 P0 1.531803 1_555
O19 P6 1.581382 1_555
O20 P2 1.576412 1_555
O21 P0 1.591364 1_565
O22 P3 1.521102 1_555
O23 P2 1.531803 1_555
O24 P5 1.576412 1_555
O25 P2 1.524865 1_554
O26 P5 1.531803 1_555
O27 P0 1.524865 1_556
O28 P0 1.576412 1_555
O29 P2 1.591364 1_555
O30 P1 1.531803 1_555
O31 P7 1.594800 1_555
