# generated using pymatgen
data_B4C
_symmetry_space_group_name_H-M   'P 1'
_cell_length_a   5.17473800
_cell_length_b   5.17473800
_cell_length_c   5.17473800
_cell_angle_alpha   91.20952889
_cell_angle_beta   91.20952889
_cell_angle_gamma   91.20952949
_symmetry_Int_Tables_number   1
_chemical_formula_structural   B4C
_chemical_formula_sum   'B12 C3'
_cell_volume   138.47473610
_cell_formula_units_Z   3
loop_
 _symmetry_equiv_pos_site_id
 _symmetry_equiv_pos_as_xyz
  1  'x, y, z'
loop_
 _atom_site_type_symbol
 _atom_site_label
 _atom_site_symmetry_multiplicity
 _atom_site_fract_x
 _atom_site_fract_y
 _atom_site_fract_z
 _atom_site_occupancy
  B  B0  1  0.61364900  0.61364900  0.96146800  1
  B  B1  1  0.83739400  0.83739400  0.08003100  1
  B  B2  1  0.38635100  0.38635100  0.03853200  1
  B  B3  1  0.91996900  0.16260600  0.16260600  1
  B  B4  1  0.08003100  0.83739400  0.83739400  1
  B  B5  1  0.03853200  0.38635100  0.38635100  1
  B  B6  1  0.83739400  0.08003100  0.83739400  1
  B  B7  1  0.96146800  0.61364900  0.61364900  1
  B  B8  1  0.16260600  0.91996900  0.16260600  1
  B  B9  1  0.38635100  0.03853200  0.38635100  1
  B  B10  1  0.16260600  0.16260600  0.91996900  1
  B  B11  1  0.61364900  0.96146800  0.61364900  1
  C  C0  1  0.35054100  0.35054100  0.35054100  1
  C  C1  1  0.64945900  0.64945900  0.64945900  1
  C  C2  1  0.50000000  0.50000000  0.50000000  1
loop_
_geom_bond_atom_site_label_1
_geom_bond_atom_site_label_2
_geom_bond_distance
_geom_bond_site_symmetry_2
B0 C1 1.642958 1_555
B0 B2 1.705039 1_556
B0 B1 1.714920 1_556
B1 B8 1.768858 1_655
B1 B3 1.768858 1_565
B1 B4 1.794305 1_654
B1 B6 1.794305 1_564
B2 C0 1.642958 1_555
B3 B5 1.714920 1_655
B3 B6 1.768858 1_554
B3 B8 1.794305 1_645
B4 B7 1.714920 1_455
B4 B8 1.768858 1_556
B4 B6 1.794305 1_465
B5 C0 1.642958 1_555
B5 B7 1.705039 1_455
B7 C1 1.642958 1_555
B8 B9 1.714920 1_565
B9 C0 1.642958 1_555
B10 B2 1.714920 1_556
B10 B6 1.768858 1_455
B10 B4 1.768858 1_545
B10 B3 1.794305 1_456
B10 B8 1.794305 1_546
B11 C1 1.642958 1_555
B11 B9 1.705039 1_565
B11 B6 1.714920 1_565
C0 C2 1.311006 1_555
C1 C2 1.311006 1_555
