# generated using pymatgen
data_KMnP3HO10
_symmetry_space_group_name_H-M   'P 1'
_cell_length_a   8.34822909
_cell_length_b   9.39471624
_cell_length_c   12.34747741
_cell_angle_alpha   69.70130440
_cell_angle_beta   89.99997352
_cell_angle_gamma   89.99994901
_symmetry_Int_Tables_number   1
_chemical_formula_structural   KMnP3HO10
_chemical_formula_sum   'K4 Mn4 P12 H4 O40'
_cell_volume   908.26239891
_cell_formula_units_Z   4
loop_
 _symmetry_equiv_pos_site_id
 _symmetry_equiv_pos_as_xyz
  1  'x, y, z'
loop_
 _atom_site_type_symbol
 _atom_site_label
 _atom_site_symmetry_multiplicity
 _atom_site_fract_x
 _atom_site_fract_y
 _atom_site_fract_z
 _atom_site_occupancy
  K  K0  1  0.94275600  0.25000100  0.50000000  1
  K  K1  1  0.44275400  0.25000100  0.99999900  1
  K  K2  1  0.05724600  0.74999900  0.50000300  1
  K  K3  1  0.55724300  0.75000100  0.99999800  1
  Mn  Mn0  1  0.74999800  0.50000100  0.75000000  1
  Mn  Mn1  1  0.25000000  0.00000100  0.74999800  1
  Mn  Mn2  1  0.25000100  0.49999900  0.25000100  1
  Mn  Mn3  1  0.74999800  0.99999800  0.25000200  1
  P  P0  1  0.37093300  0.24999600  0.50001000  1
  P  P1  1  0.87093500  0.25000500  0.99999000  1
  P  P2  1  0.62906700  0.74999600  0.50001000  1
  P  P3  1  0.12906600  0.75000400  0.99999000  1
  P  P4  1  0.06615700  0.29491500  0.79258100  1
  P  P5  1  0.56615300  0.29490800  0.29259000  1
  P  P6  1  0.06615300  0.20509200  0.20741000  1
  P  P7  1  0.56615700  0.20508500  0.70741800  1
  P  P8  1  0.93384700  0.70509200  0.20741000  1
  P  P9  1  0.43384300  0.70508500  0.70741800  1
  P  P10  1  0.93384400  0.79491500  0.79258100  1
  P  P11  1  0.43384800  0.79490900  0.29258900  1
  H  H0  1  0.75000000  0.50000000  0.25000000  1
  H  H1  1  0.25000000  0.50000000  0.75000000  1
  H  H2  1  0.25000000  0.00000000  0.25000000  1
  H  H3  1  0.75000000  0.00000000  0.75000000  1
  O  O0  1  0.88990900  0.67851600  0.73774200  1
  O  O1  1  0.38990800  0.67851800  0.23774200  1
  O  O2  1  0.88990800  0.82148100  0.26225700  1
  O  O3  1  0.38991000  0.82148200  0.76225800  1
  O  O4  1  0.11009200  0.32148100  0.26225700  1
  O  O5  1  0.61009000  0.32148300  0.76225800  1
  O  O6  1  0.11009000  0.17851800  0.73774200  1
  O  O7  1  0.61009100  0.17851900  0.23774400  1
  O  O8  1  0.93741000  0.40042700  0.71581300  1
  O  O9  1  0.43740800  0.40043200  0.21581200  1
  O  O10  1  0.93740700  0.09956900  0.28418800  1
  O  O11  1  0.43740900  0.09957200  0.78418800  1
  O  O12  1  0.06259300  0.59956900  0.28418800  1
  O  O13  1  0.56259100  0.59957200  0.78418700  1
  O  O14  1  0.06259000  0.90042700  0.71581300  1
  O  O15  1  0.56259200  0.90043100  0.21581300  1
  O  O16  1  0.27818100  0.39014300  0.43267100  1
  O  O17  1  0.77818400  0.39013100  0.93268600  1
  O  O18  1  0.27818400  0.10986900  0.56731400  1
  O  O19  1  0.77818100  0.10985700  0.06732800  1
  O  O20  1  0.72181700  0.60986800  0.56731400  1
  O  O21  1  0.22181800  0.60985700  0.06732800  1
  O  O22  1  0.72181900  0.89014300  0.43267200  1
  O  O23  1  0.22181800  0.89013300  0.93268600  1
  O  O24  1  0.98894500  0.30070700  0.08305200  1
  O  O25  1  0.48893900  0.30071100  0.58304000  1
  O  O26  1  0.98893900  0.19928800  0.91696100  1
  O  O27  1  0.48894400  0.19929400  0.41694700  1
  O  O28  1  0.01106100  0.69928900  0.91696100  1
  O  O29  1  0.51105600  0.69929300  0.41694700  1
  O  O30  1  0.01105600  0.80070600  0.08305300  1
  O  O31  1  0.51106100  0.80071000  0.58304000  1
  O  O32  1  0.70780300  0.38079500  0.32031100  1
  O  O33  1  0.20780500  0.38079200  0.82031400  1
  O  O34  1  0.70780600  0.11920900  0.67968600  1
  O  O35  1  0.20780400  0.11920700  0.17969000  1
  O  O36  1  0.29219300  0.61920700  0.67968600  1
  O  O37  1  0.79219700  0.61920600  0.17969000  1
  O  O38  1  0.29219700  0.88079400  0.32031000  1
  O  O39  1  0.79219500  0.88079200  0.82031300  1
loop_
_geom_bond_atom_site_label_1
_geom_bond_atom_site_label_2
_geom_bond_distance
_geom_bond_site_symmetry_2
K0 O34 2.896199 1_555
K0 O32 2.896242 1_555
K0 O18 3.083193 1_655
K0 O16 3.083225 1_655
K0 O6 3.106749 1_655
K0 O4 3.106770 1_655
K1 O33 2.896184 1_555
K1 O35 2.896240 1_556
K1 O17 3.083202 1_555
K1 O19 3.083245 1_556
K1 O5 3.106746 1_555
K1 O7 3.106793 1_556
K2 O36 2.896159 1_555
K2 O38 2.896262 1_555
K2 O20 3.083194 1_455
K2 O22 3.083248 1_455
K2 O0 3.106727 1_455
K2 O2 3.106808 1_455
K3 O39 2.896201 1_555
K3 O37 2.896272 1_556
K3 O23 3.083167 1_555
K3 O21 3.083233 1_556
K3 O3 3.106726 1_555
K3 O1 3.106773 1_556
Mn0 O13 1.942915 1_555
Mn0 O8 1.942965 1_555
Mn0 O0 2.005915 1_555
Mn0 O5 2.005923 1_555
Mn0 O20 2.143252 1_555
Mn0 O17 2.143260 1_555
Mn1 O14 1.942943 1_545
Mn1 O11 1.942945 1_555
Mn1 O6 2.005929 1_555
Mn1 O3 2.005933 1_545
Mn1 O18 2.143234 1_555
Mn1 O23 2.143276 1_545
Mn2 O9 1.942904 1_555
Mn2 O12 1.942917 1_555
Mn2 O1 2.005923 1_555
Mn2 O4 2.005933 1_555
Mn2 O16 2.143064 1_555
Mn2 O21 2.143102 1_555
Mn3 O15 1.942899 1_555
Mn3 O10 1.942926 1_565
Mn3 O2 2.005931 1_555
Mn3 O7 2.005939 1_565
Mn3 O22 2.143062 1_555
Mn3 O19 2.143114 1_565
H0 O32 1.207226 1_555
H0 O37 1.207227 1_555
H1 O36 1.207244 1_555
H1 O33 1.207255 1_555
H2 O38 1.207227 1_545
H2 O35 1.207231 1_555
H3 O39 1.207250 1_545
H3 O34 1.207259 1_555
O0 P10 1.517431 1_555
O1 P11 1.517444 1_555
O2 P8 1.517425 1_555
O3 P9 1.517418 1_555
O4 P6 1.517425 1_555
O5 P7 1.517427 1_555
O6 P4 1.517409 1_555
O7 P5 1.517414 1_555
O8 P4 1.544143 1_655
O9 P5 1.544228 1_555
O10 P6 1.544230 1_655
O11 P7 1.544163 1_555
O12 P8 1.544229 1_455
O13 P9 1.544157 1_555
O14 P10 1.544137 1_455
O15 P11 1.544205 1_555
O16 P0 1.504952 1_555
O17 P1 1.504705 1_555
O18 P0 1.504704 1_555
O19 P1 1.504964 1_554
O20 P2 1.504714 1_555
O21 P3 1.504949 1_554
O22 P2 1.504949 1_555
O23 P3 1.504729 1_555
O24 P1 1.608815 1_554
O24 P6 1.619606 1_655
O25 P0 1.608565 1_555
O25 P7 1.619849 1_555
O26 P1 1.608554 1_555
O26 P4 1.619870 1_655
O27 P0 1.608828 1_555
O27 P5 1.619598 1_555
O28 P3 1.608551 1_555
O28 P10 1.619864 1_455
O29 P2 1.608834 1_555
O29 P11 1.619608 1_555
O30 P3 1.608823 1_554
O30 P8 1.619598 1_455
O31 P2 1.608559 1_555
O31 P9 1.619847 1_555
O32 P5 1.535648 1_555
O33 P4 1.535639 1_555
O34 P7 1.535633 1_555
O35 P6 1.535637 1_555
O36 P9 1.535652 1_555
O37 P8 1.535638 1_555
O38 P11 1.535642 1_555
O39 P10 1.535639 1_555
