# generated using pymatgen
data_Ca3Ta4(O6F)2
_symmetry_space_group_name_H-M   'P 1'
_cell_length_a   10.53827700
_cell_length_b   10.53827700
_cell_length_c   10.53827700
_cell_angle_alpha   90.00000000
_cell_angle_beta   90.00000000
_cell_angle_gamma   90.00000000
_symmetry_Int_Tables_number   1
_chemical_formula_structural   Ca3Ta4(O6F)2
_chemical_formula_sum   'Ca12 Ta16 O48 F8'
_cell_volume   1170.33132539
_cell_formula_units_Z   4
loop_
 _symmetry_equiv_pos_site_id
 _symmetry_equiv_pos_as_xyz
  1  'x, y, z'
loop_
 _atom_site_type_symbol
 _atom_site_label
 _atom_site_symmetry_multiplicity
 _atom_site_fract_x
 _atom_site_fract_y
 _atom_site_fract_z
 _atom_site_occupancy
  Ca  Ca0  1  0.38702900  0.37500000  0.63702900  1
  Ca  Ca1  1  0.63702900  0.38702900  0.37500000  1
  Ca  Ca2  1  0.61297100  0.87500000  0.86297100  1
  Ca  Ca3  1  0.37500000  0.63702900  0.38702900  1
  Ca  Ca4  1  0.87500000  0.86297100  0.61297100  1
  Ca  Ca5  1  0.12500000  0.36297100  0.88702900  1
  Ca  Ca6  1  0.86297100  0.61297100  0.87500000  1
  Ca  Ca7  1  0.88702900  0.12500000  0.36297100  1
  Ca  Ca8  1  0.62500000  0.13702900  0.11297100  1
  Ca  Ca9  1  0.13702900  0.11297100  0.62500000  1
  Ca  Ca10  1  0.11297100  0.62500000  0.13702900  1
  Ca  Ca11  1  0.36297100  0.88702900  0.12500000  1
  Ta  Ta0  1  0.87630600  0.37369400  0.62500000  1
  Ta  Ta1  1  0.37369400  0.62500000  0.87630600  1
  Ta  Ta2  1  0.12500000  0.12500000  0.12500000  1
  Ta  Ta3  1  0.12369400  0.87369400  0.87500000  1
  Ta  Ta4  1  0.87369400  0.87500000  0.12369400  1
  Ta  Ta5  1  0.87500000  0.12369400  0.87369400  1
  Ta  Ta6  1  0.12500000  0.62369400  0.62630600  1
  Ta  Ta7  1  0.37500000  0.87500000  0.62500000  1
  Ta  Ta8  1  0.12630600  0.37500000  0.37630600  1
  Ta  Ta9  1  0.37630600  0.12630600  0.37500000  1
  Ta  Ta10  1  0.62369400  0.62630600  0.12500000  1
  Ta  Ta11  1  0.62630600  0.12500000  0.62369400  1
  Ta  Ta12  1  0.37500000  0.37630600  0.12630600  1
  Ta  Ta13  1  0.62500000  0.37500000  0.87500000  1
  Ta  Ta14  1  0.62500000  0.87630600  0.37369400  1
  Ta  Ta15  1  0.87500000  0.62500000  0.37500000  1
  O  O0  1  0.24212700  0.25967100  0.06261400  1
  O  O1  1  0.75787200  0.75967100  0.43738600  1
  O  O2  1  0.30385100  0.50161000  0.00429900  1
  O  O3  1  0.99032900  0.00787300  0.18738600  1
  O  O4  1  0.74212800  0.24032900  0.93738600  1
  O  O5  1  0.49570100  0.69614900  0.00161000  1
  O  O6  1  0.49839000  0.50429900  0.19614900  1
  O  O7  1  0.81261400  0.49032900  0.49212700  1
  O  O8  1  0.50967100  0.99212800  0.68738600  1
  O  O9  1  0.49032900  0.49212700  0.81261400  1
  O  O10  1  0.25787300  0.74032900  0.56261400  1
  O  O11  1  0.31261400  0.00967100  0.50787200  1
  O  O12  1  0.69614900  0.00161000  0.49570100  1
  O  O13  1  0.99212800  0.68738600  0.50967100  1
  O  O14  1  0.00161000  0.49570100  0.69614900  1
  O  O15  1  0.24032900  0.93738600  0.74212800  1
  O  O16  1  0.80385100  0.99839000  0.99570100  1
  O  O17  1  0.50429900  0.19614900  0.49839000  1
  O  O18  1  0.24839000  0.55385100  0.75429900  1
  O  O19  1  0.00429900  0.30385100  0.50161000  1
  O  O20  1  0.19614900  0.49839000  0.50429900  1
  O  O21  1  0.50161000  0.00429900  0.30385100  1
  O  O22  1  0.24570100  0.74839000  0.94614900  1
  O  O23  1  0.93738600  0.74212800  0.24032900  1
  O  O24  1  0.43738600  0.75787200  0.75967100  1
  O  O25  1  0.05385100  0.74570100  0.75161000  1
  O  O26  1  0.75161000  0.05385100  0.74570100  1
  O  O27  1  0.49212700  0.81261400  0.49032900  1
  O  O28  1  0.75967100  0.43738600  0.75787200  1
  O  O29  1  0.74032900  0.56261400  0.25787300  1
  O  O30  1  0.99570100  0.80385100  0.99839000  1
  O  O31  1  0.55385100  0.75429900  0.24839000  1
  O  O32  1  0.68738600  0.50967100  0.99212800  1
  O  O33  1  0.25429900  0.25161000  0.44614900  1
  O  O34  1  0.18738600  0.99032900  0.00787300  1
  O  O35  1  0.75429900  0.24839000  0.55385100  1
  O  O36  1  0.00967100  0.50787200  0.31261400  1
  O  O37  1  0.56261400  0.25787300  0.74032900  1
  O  O38  1  0.50787200  0.31261400  0.00967100  1
  O  O39  1  0.25967100  0.06261400  0.24212700  1
  O  O40  1  0.25161000  0.44614900  0.25429900  1
  O  O41  1  0.44614900  0.25429900  0.25161000  1
  O  O42  1  0.74570100  0.75161000  0.05385100  1
  O  O43  1  0.74839000  0.94614900  0.24570100  1
  O  O44  1  0.94614900  0.24570100  0.74839000  1
  O  O45  1  0.06261400  0.24212700  0.25967100  1
  O  O46  1  0.00787300  0.18738600  0.99032900  1
  O  O47  1  0.99839000  0.99570100  0.80385100  1
  F  F0  1  0.98810400  0.01189600  0.51189600  1
  F  F1  1  0.01189600  0.51189600  0.98810400  1
  F  F2  1  0.23810400  0.26189600  0.73810400  1
  F  F3  1  0.51189600  0.98810400  0.01189600  1
  F  F4  1  0.73810400  0.23810400  0.26189600  1
  F  F5  1  0.48810400  0.48810400  0.48810400  1
  F  F6  1  0.26189600  0.73810400  0.23810400  1
  F  F7  1  0.76189600  0.76189600  0.76189600  1
loop_
_geom_bond_atom_site_label_1
_geom_bond_atom_site_label_2
_geom_bond_distance
_geom_bond_site_symmetry_2
Ca0 F5 2.240154 1_555
Ca0 F2 2.240154 1_555
Ca0 O9 2.476377 1_555
Ca0 O37 2.476377 1_555
Ca0 O18 2.685932 1_555
Ca0 O17 2.685932 1_555
Ca0 O20 2.773740 1_555
Ca0 O33 2.773740 1_555
Ca1 F5 2.240154 1_555
Ca1 F4 2.240154 1_555
Ca1 O7 2.476377 1_555
Ca1 O29 2.476377 1_555
Ca1 O35 2.685932 1_555
Ca1 O6 2.685932 1_555
Ca1 O17 2.773740 1_555
Ca1 O41 2.773740 1_555
Ca2 F3 2.240154 1_556
Ca2 F7 2.240154 1_555
Ca2 O24 2.476382 1_555
Ca2 O8 2.476382 1_555
Ca2 O26 2.685932 1_565
Ca2 O5 2.685932 1_556
Ca2 O42 2.773740 1_556
Ca2 O16 2.773740 1_555
Ca3 F5 2.240154 1_555
Ca3 F6 2.240154 1_555
Ca3 O27 2.476377 1_555
Ca3 O10 2.476377 1_555
Ca3 O31 2.685932 1_555
Ca3 O20 2.685932 1_555
Ca3 O6 2.773740 1_555
Ca3 O40 2.773740 1_555
Ca4 F0 2.240154 1_565
Ca4 F7 2.240154 1_555
Ca4 O1 2.476382 1_555
Ca4 O13 2.476382 1_555
Ca4 O25 2.685932 1_655
Ca4 O12 2.685932 1_565
Ca4 O26 2.773740 1_565
Ca4 O47 2.773740 1_555
Ca5 F2 2.240154 1_555
Ca5 F1 2.240154 1_555
Ca5 O0 2.476377 1_556
Ca5 O46 2.476377 1_555
Ca5 O2 2.685932 1_556
Ca5 O44 2.685932 1_455
Ca5 O14 2.773740 1_555
Ca5 O18 2.773740 1_555
Ca6 F1 2.240154 1_655
Ca6 F7 2.240154 1_555
Ca6 O28 2.476382 1_555
Ca6 O32 2.476382 1_555
Ca6 O42 2.685932 1_556
Ca6 O14 2.685932 1_655
Ca6 O25 2.773740 1_655
Ca6 O30 2.773740 1_555
Ca7 F4 2.240154 1_555
Ca7 F0 2.240154 1_555
Ca7 O45 2.476377 1_655
Ca7 O3 2.476377 1_555
Ca7 O19 2.685932 1_655
Ca7 O43 2.685932 1_545
Ca7 O12 2.773740 1_555
Ca7 O35 2.773740 1_555
Ca8 F3 2.240154 1_545
Ca8 F4 2.240154 1_555
Ca8 O4 2.476382 1_554
Ca8 O38 2.476382 1_555
Ca8 O16 2.685932 1_544
Ca8 O41 2.685932 1_555
Ca8 O21 2.773740 1_555
Ca8 O43 2.773740 1_545
Ca9 F0 2.240154 1_455
Ca9 F2 2.240154 1_555
Ca9 O15 2.476382 1_545
Ca9 O11 2.476382 1_555
Ca9 O47 2.685932 1_445
Ca9 O33 2.685932 1_555
Ca9 O19 2.773740 1_555
Ca9 O44 2.773740 1_455
Ca10 F1 2.240154 1_554
Ca10 F6 2.240154 1_555
Ca10 O23 2.476382 1_455
Ca10 O36 2.476382 1_555
Ca10 O30 2.685932 1_454
Ca10 O40 2.685932 1_555
Ca10 O2 2.773740 1_555
Ca10 O22 2.773740 1_554
Ca11 F6 2.240154 1_555
Ca11 F3 2.240154 1_555
Ca11 O39 2.476377 1_565
Ca11 O34 2.476377 1_555
Ca11 O21 2.685932 1_565
Ca11 O22 2.685932 1_554
Ca11 O5 2.773740 1_555
Ca11 O31 2.773740 1_555
O0 Ta12 1.980401 1_555
O0 Ta2 1.992460 1_555
O1 Ta14 1.980393 1_555
O1 Ta15 1.992466 1_555
O2 Ta12 1.989726 1_555
O2 Ta1 2.012931 1_554
O3 Ta4 1.980401 1_545
O3 Ta2 1.992460 1_655
O4 Ta5 1.980393 1_555
O4 Ta13 1.992466 1_555
O5 Ta1 1.989726 1_554
O5 Ta10 2.012931 1_555
O6 Ta10 1.989726 1_555
O6 Ta12 2.012931 1_555
O7 Ta0 1.980401 1_555
O7 Ta15 1.992460 1_555
O8 Ta11 1.980393 1_565
O8 Ta7 1.992466 1_555
O9 Ta1 1.980401 1_555
O9 Ta13 1.992460 1_555
O10 Ta6 1.980401 1_555
O10 Ta7 1.992460 1_555
O11 Ta9 1.980393 1_555
O11 Ta7 1.992466 1_545
O12 Ta14 1.989726 1_545
O12 Ta11 2.012931 1_555
O13 Ta6 1.980393 1_655
O13 Ta15 1.992466 1_555
O14 Ta0 1.989726 1_455
O14 Ta6 2.012931 1_555
O15 Ta3 1.980393 1_555
O15 Ta7 1.992466 1_555
O16 Ta5 1.989726 1_565
O16 Ta4 2.012931 1_556
O17 Ta11 1.989726 1_555
O17 Ta9 2.012931 1_555
O18 Ta1 1.989726 1_555
O18 Ta6 2.012931 1_555
O19 Ta8 1.989726 1_555
O19 Ta0 2.012931 1_455
O20 Ta6 1.989726 1_555
O20 Ta8 2.012931 1_555
O21 Ta9 1.989726 1_555
O21 Ta14 2.012931 1_545
O22 Ta3 1.989726 1_555
O22 Ta1 2.012931 1_555
O23 Ta4 1.980393 1_555
O23 Ta15 1.992466 1_555
O24 Ta1 1.980393 1_555
O24 Ta7 1.992466 1_555
O25 Ta6 1.989726 1_555
O25 Ta3 2.012931 1_555
O26 Ta11 1.989726 1_555
O26 Ta5 2.012931 1_555
O27 Ta14 1.980401 1_555
O27 Ta7 1.992460 1_555
O28 Ta0 1.980393 1_555
O28 Ta13 1.992466 1_555
O29 Ta10 1.980401 1_555
O29 Ta15 1.992460 1_555
O30 Ta4 1.989726 1_556
O30 Ta3 2.012931 1_655
O31 Ta14 1.989726 1_555
O31 Ta10 2.012931 1_555
O32 Ta10 1.980393 1_556
O32 Ta13 1.992466 1_555
O33 Ta9 1.989726 1_555
O33 Ta8 2.012931 1_555
O34 Ta3 1.980401 1_554
O34 Ta2 1.992460 1_565
O35 Ta0 1.989726 1_555
O35 Ta11 2.012931 1_555
O36 Ta8 1.980393 1_555
O36 Ta15 1.992466 1_455
O37 Ta11 1.980401 1_555
O37 Ta13 1.992460 1_555
O38 Ta12 1.980393 1_555
O38 Ta13 1.992466 1_554
O39 Ta9 1.980401 1_555
O39 Ta2 1.992460 1_555
O40 Ta8 1.989726 1_555
O40 Ta12 2.012931 1_555
O41 Ta12 1.989726 1_555
O41 Ta9 2.012931 1_555
O42 Ta10 1.989726 1_555
O42 Ta4 2.012931 1_555
O43 Ta4 1.989726 1_555
O43 Ta14 2.012931 1_555
O44 Ta5 1.989726 1_555
O44 Ta0 2.012931 1_555
O45 Ta8 1.980401 1_555
O45 Ta2 1.992460 1_555
O46 Ta5 1.980401 1_455
O46 Ta2 1.992460 1_556
O47 Ta3 1.989726 1_655
O47 Ta5 2.012931 1_565
