# generated using pymatgen
data_K2Ge4O9
_symmetry_space_group_name_H-M   'P 1'
_cell_length_a   12.05450650
_cell_length_b   12.05450650
_cell_length_c   9.95996700
_cell_angle_alpha   90.00000000
_cell_angle_beta   90.00000000
_cell_angle_gamma   120.00000273
_symmetry_Int_Tables_number   1
_chemical_formula_structural   K2Ge4O9
_chemical_formula_sum   'K12 Ge24 O54'
_cell_volume   1253.39336100
_cell_formula_units_Z   6
loop_
 _symmetry_equiv_pos_site_id
 _symmetry_equiv_pos_as_xyz
  1  'x, y, z'
loop_
 _atom_site_type_symbol
 _atom_site_label
 _atom_site_symmetry_multiplicity
 _atom_site_fract_x
 _atom_site_fract_y
 _atom_site_fract_z
 _atom_site_occupancy
  K  K0  1  0.00190600  0.66534200  0.92820200  1
  K  K1  1  0.66343600  0.99809400  0.92820200  1
  K  K2  1  0.33465800  0.33656400  0.92820200  1
  K  K3  1  0.00190600  0.33656400  0.42820200  1
  K  K4  1  0.33465800  0.99809400  0.42820200  1
  K  K5  1  0.66343600  0.66534200  0.42820200  1
  K  K6  1  0.99809400  0.33465800  0.07179800  1
  K  K7  1  0.33656400  0.00190600  0.07179800  1
  K  K8  1  0.66534200  0.66343600  0.07179800  1
  K  K9  1  0.99809400  0.66343600  0.57179800  1
  K  K10  1  0.66534200  0.00190600  0.57179800  1
  K  K11  1  0.33656400  0.33465800  0.57179800  1
  Ge  Ge0  1  0.00000000  0.00000000  0.00000000  1
  Ge  Ge1  1  0.00000000  0.00000000  0.50000000  1
  Ge  Ge2  1  0.00000000  0.82354800  0.25000000  1
  Ge  Ge3  1  0.82354800  0.00000000  0.25000000  1
  Ge  Ge4  1  0.17645200  0.17645200  0.25000000  1
  Ge  Ge5  1  0.00000000  0.17645200  0.75000000  1
  Ge  Ge6  1  0.17645200  0.00000000  0.75000000  1
  Ge  Ge7  1  0.82354800  0.82354800  0.75000000  1
  Ge  Ge8  1  0.15063900  0.66473900  0.21440300  1
  Ge  Ge9  1  0.51410000  0.84936100  0.21440300  1
  Ge  Ge10  1  0.33526100  0.48590000  0.21440300  1
  Ge  Ge11  1  0.15063900  0.48590000  0.71440300  1
  Ge  Ge12  1  0.33526100  0.84936100  0.71440300  1
  Ge  Ge13  1  0.51410000  0.66473900  0.71440300  1
  Ge  Ge14  1  0.84936100  0.33526100  0.78559700  1
  Ge  Ge15  1  0.48590000  0.15063900  0.78559700  1
  Ge  Ge16  1  0.66473900  0.51410000  0.78559700  1
  Ge  Ge17  1  0.84936100  0.51410000  0.28559700  1
  Ge  Ge18  1  0.66473900  0.15063900  0.28559700  1
  Ge  Ge19  1  0.48590000  0.33526100  0.28559700  1
  Ge  Ge20  1  0.33333300  0.66666700  0.46211000  1
  Ge  Ge21  1  0.33333300  0.66666700  0.96211000  1
  Ge  Ge22  1  0.66666700  0.33333300  0.53789000  1
  Ge  Ge23  1  0.66666700  0.33333300  0.03789000  1
  O  O0  1  0.92016600  0.84966300  0.11518500  1
  O  O1  1  0.92949600  0.07983400  0.11518500  1
  O  O2  1  0.15033700  0.07050400  0.11518500  1
  O  O3  1  0.92016600  0.07050400  0.61518500  1
  O  O4  1  0.15033700  0.07983400  0.61518500  1
  O  O5  1  0.92949600  0.84966300  0.61518500  1
  O  O6  1  0.07983400  0.15033700  0.88481500  1
  O  O7  1  0.07050400  0.92016600  0.88481500  1
  O  O8  1  0.84966300  0.92949600  0.88481500  1
  O  O9  1  0.07983400  0.92949600  0.38481500  1
  O  O10  1  0.84966300  0.92016600  0.38481500  1
  O  O11  1  0.07050400  0.15033700  0.38481500  1
  O  O12  1  0.11386300  0.78827000  0.16817700  1
  O  O13  1  0.67440800  0.88613700  0.16817700  1
  O  O14  1  0.21173000  0.32559200  0.16817700  1
  O  O15  1  0.11386300  0.32559200  0.66817700  1
  O  O16  1  0.21173000  0.88613700  0.66817700  1
  O  O17  1  0.67440800  0.78827000  0.66817700  1
  O  O18  1  0.88613700  0.21173000  0.83182300  1
  O  O19  1  0.32559200  0.11386300  0.83182300  1
  O  O20  1  0.78827000  0.67440800  0.83182300  1
  O  O21  1  0.88613700  0.67440800  0.33182300  1
  O  O22  1  0.78827000  0.11386300  0.33182300  1
  O  O23  1  0.32559200  0.21173000  0.33182300  1
  O  O24  1  0.25219300  0.73651300  0.35195600  1
  O  O25  1  0.48432000  0.74780700  0.35195600  1
  O  O26  1  0.26348700  0.51568000  0.35195600  1
  O  O27  1  0.25219300  0.51568000  0.85195600  1
  O  O28  1  0.26348700  0.74780700  0.85195600  1
  O  O29  1  0.48432000  0.73651300  0.85195600  1
  O  O30  1  0.74780700  0.26348700  0.64804400  1
  O  O31  1  0.51568000  0.25219300  0.64804400  1
  O  O32  1  0.73651300  0.48432000  0.64804400  1
  O  O33  1  0.74780700  0.48432000  0.14804400  1
  O  O34  1  0.73651300  0.25219300  0.14804400  1
  O  O35  1  0.51568000  0.26348700  0.14804400  1
  O  O36  1  0.18318200  0.60231600  0.06996600  1
  O  O37  1  0.41913400  0.81681800  0.06996600  1
  O  O38  1  0.39768400  0.58086600  0.06996600  1
  O  O39  1  0.18318200  0.58086600  0.56996600  1
  O  O40  1  0.39768400  0.81681800  0.56996600  1
  O  O41  1  0.41913400  0.60231600  0.56996600  1
  O  O42  1  0.81681800  0.39768400  0.93003400  1
  O  O43  1  0.58086600  0.18318200  0.93003400  1
  O  O44  1  0.60231600  0.41913400  0.93003400  1
  O  O45  1  0.81681800  0.41913400  0.43003400  1
  O  O46  1  0.60231600  0.18318200  0.43003400  1
  O  O47  1  0.58086600  0.39768400  0.43003400  1
  O  O48  1  0.00000000  0.52342000  0.25000000  1
  O  O49  1  0.52342000  0.00000000  0.25000000  1
  O  O50  1  0.47658000  0.47658000  0.25000000  1
  O  O51  1  0.00000000  0.47658000  0.75000000  1
  O  O52  1  0.47658000  0.00000000  0.75000000  1
  O  O53  1  0.52342000  0.52342000  0.75000000  1
loop_
_geom_bond_atom_site_label_1
_geom_bond_atom_site_label_2
_geom_bond_distance
_geom_bond_site_symmetry_2
K0 O12 2.780313 1_556
K0 O7 2.786798 1_555
K0 O20 2.801233 1_455
K0 O42 2.861781 1_455
K0 O51 2.876815 1_555
K0 O28 2.893648 1_555
K0 O36 3.001020 1_556
K1 O13 2.780316 1_556
K1 O8 2.786810 1_555
K1 O18 2.801226 1_565
K1 O43 2.861781 1_565
K1 O52 2.876815 1_565
K1 O29 2.893648 1_555
K1 O37 3.001020 1_556
K2 O14 2.780310 1_556
K2 O6 2.786801 1_555
K2 O19 2.801221 1_555
K2 O44 2.861781 1_555
K2 O53 2.876815 1_555
K2 O27 2.893648 1_555
K2 O38 3.001020 1_556
K3 O15 2.780316 1_555
K3 O11 2.786810 1_555
K3 O22 2.801226 1_455
K3 O45 2.861781 1_455
K3 O48 2.876815 1_555
K3 O26 2.893648 1_555
K3 O39 3.001020 1_555
K4 O16 2.780313 1_555
K4 O9 2.786798 1_555
K4 O23 2.801233 1_565
K4 O46 2.861781 1_565
K4 O49 2.876815 1_565
K4 O24 2.893648 1_555
K4 O40 3.001020 1_555
K5 O17 2.780310 1_555
K5 O10 2.786801 1_555
K5 O21 2.801221 1_555
K5 O47 2.861781 1_555
K5 O50 2.876815 1_555
K5 O25 2.893648 1_555
K5 O41 3.001020 1_555
K6 O18 2.780313 1_554
K6 O1 2.786798 1_555
K6 O14 2.801233 1_655
K6 O36 2.861781 1_655
K6 O48 2.876815 1_655
K6 O34 2.893648 1_555
K6 O42 3.001020 1_554
K7 O19 2.780316 1_554
K7 O2 2.786810 1_555
K7 O12 2.801226 1_545
K7 O37 2.861781 1_545
K7 O49 2.876815 1_555
K7 O35 2.893648 1_555
K7 O43 3.001020 1_554
K8 O20 2.780310 1_554
K8 O0 2.786801 1_555
K8 O13 2.801221 1_555
K8 O38 2.861781 1_555
K8 O50 2.876815 1_555
K8 O33 2.893648 1_555
K8 O44 3.001020 1_554
K9 O21 2.780316 1_555
K9 O5 2.786810 1_555
K9 O16 2.801226 1_655
K9 O39 2.861781 1_655
K9 O51 2.876815 1_655
K9 O32 2.893648 1_555
K9 O45 3.001020 1_555
K10 O22 2.780313 1_555
K10 O3 2.786798 1_555
K10 O17 2.801233 1_545
K10 O40 2.861781 1_545
K10 O52 2.876815 1_555
K10 O30 2.893648 1_555
K10 O46 3.001020 1_555
K11 O23 2.780310 1_555
K11 O4 2.786801 1_555
K11 O15 2.801221 1_555
K11 O41 2.861781 1_555
K11 O53 2.876815 1_555
K11 O31 2.893648 1_555
K11 O47 3.001020 1_555
Ge0 O2 1.944858 1_555
Ge0 O8 1.944858 1_444
Ge0 O0 1.944859 1_445
Ge0 O6 1.944859 1_554
Ge0 O1 1.944867 1_455
Ge0 O7 1.944867 1_544
Ge1 O5 1.944858 1_445
Ge1 O11 1.944858 1_555
Ge1 O4 1.944859 1_555
Ge1 O10 1.944859 1_445
Ge1 O9 1.944867 1_545
Ge1 O3 1.944867 1_455
Ge2 O9 1.769508 1_555
Ge2 O0 1.769513 1_455
Ge2 O21 1.820052 1_455
Ge2 O12 1.820060 1_555
Ge3 O1 1.769508 1_555
Ge3 O10 1.769513 1_545
Ge3 O13 1.820052 1_545
Ge3 O22 1.820060 1_555
Ge4 O11 1.769505 1_555
Ge4 O2 1.769505 1_555
Ge4 O14 1.820049 1_555
Ge4 O23 1.820049 1_555
Ge5 O3 1.769508 1_455
Ge5 O6 1.769513 1_555
Ge5 O15 1.820052 1_555
Ge5 O18 1.820060 1_455
Ge6 O7 1.769508 1_545
Ge6 O4 1.769513 1_555
Ge6 O19 1.820052 1_555
Ge6 O16 1.820060 1_545
Ge7 O8 1.769505 1_555
Ge7 O5 1.769505 1_555
Ge7 O17 1.820049 1_555
Ge7 O20 1.820049 1_555
Ge8 O24 1.750713 1_555
Ge8 O36 1.756371 1_555
Ge8 O48 1.797701 1_555
Ge8 O12 1.812756 1_555
Ge9 O25 1.750713 1_555
Ge9 O37 1.756371 1_555
Ge9 O49 1.797701 1_565
Ge9 O13 1.812768 1_555
Ge10 O26 1.750713 1_555
Ge10 O38 1.756371 1_555
Ge10 O50 1.797701 1_555
Ge10 O14 1.812764 1_555
Ge11 O27 1.750713 1_555
Ge11 O39 1.756371 1_555
Ge11 O51 1.797701 1_555
Ge11 O15 1.812768 1_555
Ge12 O28 1.750713 1_555
Ge12 O40 1.756371 1_555
Ge12 O52 1.797701 1_565
Ge12 O16 1.812756 1_555
Ge13 O29 1.750713 1_555
Ge13 O41 1.756371 1_555
Ge13 O53 1.797701 1_555
Ge13 O17 1.812764 1_555
Ge14 O30 1.750713 1_555
Ge14 O42 1.756371 1_555
Ge14 O51 1.797701 1_655
Ge14 O18 1.812756 1_555
Ge15 O31 1.750713 1_555
Ge15 O43 1.756371 1_555
Ge15 O52 1.797701 1_555
Ge15 O19 1.812768 1_555
Ge16 O32 1.750713 1_555
Ge16 O44 1.756371 1_555
Ge16 O53 1.797701 1_555
Ge16 O20 1.812764 1_555
Ge17 O33 1.750713 1_555
Ge17 O45 1.756371 1_555
Ge17 O48 1.797701 1_655
Ge17 O21 1.812768 1_555
Ge18 O34 1.750713 1_555
Ge18 O46 1.756371 1_555
Ge18 O49 1.797701 1_555
Ge18 O22 1.812756 1_555
Ge19 O35 1.750713 1_555
Ge19 O47 1.756371 1_555
Ge19 O50 1.797701 1_555
Ge19 O23 1.812764 1_555
Ge20 O40 1.904672 1_555
Ge20 O39 1.904672 1_555
Ge20 O41 1.904681 1_555
Ge20 O24 1.921665 1_555
Ge20 O25 1.921673 1_555
Ge20 O26 1.921674 1_555
Ge21 O36 1.904672 1_556
Ge21 O37 1.904672 1_556
Ge21 O38 1.904681 1_556
Ge21 O28 1.921665 1_555
Ge21 O27 1.921673 1_555
Ge21 O29 1.921674 1_555
Ge22 O46 1.904672 1_555
Ge22 O45 1.904672 1_555
Ge22 O47 1.904681 1_555
Ge22 O30 1.921665 1_555
Ge22 O31 1.921673 1_555
Ge22 O32 1.921674 1_555
Ge23 O42 1.904672 1_554
Ge23 O43 1.904672 1_554
Ge23 O44 1.904681 1_554
Ge23 O34 1.921665 1_555
Ge23 O33 1.921673 1_555
Ge23 O35 1.921674 1_555
