# generated using pymatgen
data_Pr6S4N3Cl
_symmetry_space_group_name_H-M   'P 1'
_cell_length_a   4.06621800
_cell_length_b   11.87080600
_cell_length_c   26.94832000
_cell_angle_alpha   90.00000000
_cell_angle_beta   90.00000000
_cell_angle_gamma   90.00000000
_symmetry_Int_Tables_number   1
_chemical_formula_structural   Pr6S4N3Cl
_chemical_formula_sum   'Pr24 S16 N12 Cl4'
_cell_volume   1300.77613921
_cell_formula_units_Z   4
loop_
 _symmetry_equiv_pos_site_id
 _symmetry_equiv_pos_as_xyz
  1  'x, y, z'
loop_
 _atom_site_type_symbol
 _atom_site_label
 _atom_site_symmetry_multiplicity
 _atom_site_fract_x
 _atom_site_fract_y
 _atom_site_fract_z
 _atom_site_occupancy
  Pr  Pr0  1  0.75000000  0.76464600  0.33085400  1
  Pr  Pr1  1  0.25000000  0.73535400  0.83085400  1
  Pr  Pr2  1  0.25000000  0.73463100  0.56549600  1
  Pr  Pr3  1  0.25000000  0.41156900  0.54043500  1
  Pr  Pr4  1  0.25000000  0.94533300  0.69070300  1
  Pr  Pr5  1  0.75000000  0.55466700  0.19070300  1
  Pr  Pr6  1  0.25000000  0.91156900  0.95956500  1
  Pr  Pr7  1  0.75000000  0.58843100  0.45956500  1
  Pr  Pr8  1  0.75000000  0.08843100  0.04043500  1
  Pr  Pr9  1  0.25000000  0.38304900  0.29473800  1
  Pr  Pr10  1  0.75000000  0.11695100  0.79473800  1
  Pr  Pr11  1  0.75000000  0.26536900  0.43450400  1
  Pr  Pr12  1  0.75000000  0.05836900  0.57382800  1
  Pr  Pr13  1  0.75000000  0.55836900  0.92617200  1
  Pr  Pr14  1  0.75000000  0.26464600  0.16914600  1
  Pr  Pr15  1  0.75000000  0.76536900  0.06549600  1
  Pr  Pr16  1  0.25000000  0.23535400  0.66914600  1
  Pr  Pr17  1  0.25000000  0.23463100  0.93450400  1
  Pr  Pr18  1  0.25000000  0.88304900  0.20526200  1
  Pr  Pr19  1  0.25000000  0.44533300  0.80929700  1
  Pr  Pr20  1  0.75000000  0.61695100  0.70526200  1
  Pr  Pr21  1  0.75000000  0.05466700  0.30929700  1
  Pr  Pr22  1  0.25000000  0.44163100  0.07382800  1
  Pr  Pr23  1  0.25000000  0.94163100  0.42617200  1
  S  S0  1  0.75000000  0.95481200  0.13472600  1
  S  S1  1  0.75000000  0.45481200  0.36527400  1
  S  S2  1  0.75000000  0.28622100  0.60374600  1
  S  S3  1  0.25000000  0.64593600  0.00722700  1
  S  S4  1  0.75000000  0.85406400  0.50722700  1
  S  S5  1  0.25000000  0.18194900  0.35909300  1
  S  S6  1  0.75000000  0.81805100  0.64090700  1
  S  S7  1  0.25000000  0.04518800  0.86527400  1
  S  S8  1  0.75000000  0.78622100  0.89625400  1
  S  S9  1  0.25000000  0.14593600  0.49277300  1
  S  S10  1  0.25000000  0.54518800  0.63472600  1
  S  S11  1  0.25000000  0.68194900  0.14090700  1
  S  S12  1  0.25000000  0.21377900  0.10374600  1
  S  S13  1  0.75000000  0.31805100  0.85909300  1
  S  S14  1  0.25000000  0.71377900  0.39625400  1
  S  S15  1  0.75000000  0.35406400  0.99277300  1
  N  N0  1  0.25000000  0.11193600  0.73963600  1
  N  N1  1  0.75000000  0.38806400  0.23963600  1
  N  N2  1  0.25000000  0.06204500  0.62378500  1
  N  N3  1  0.75000000  0.88806400  0.26036400  1
  N  N4  1  0.25000000  0.56204500  0.87621500  1
  N  N5  1  0.25000000  0.59772400  0.50951800  1
  N  N6  1  0.25000000  0.61193600  0.76036400  1
  N  N7  1  0.75000000  0.90227600  0.00951800  1
  N  N8  1  0.75000000  0.93795500  0.37621500  1
  N  N9  1  0.75000000  0.40227600  0.49048200  1
  N  N10  1  0.25000000  0.09772400  0.99048200  1
  N  N11  1  0.75000000  0.43795500  0.12378500  1
  Cl  Cl0  1  0.75000000  0.36790500  0.73279100  1
  Cl  Cl1  1  0.25000000  0.13209500  0.23279100  1
  Cl  Cl2  1  0.75000000  0.86790500  0.76720900  1
  Cl  Cl3  1  0.25000000  0.63209500  0.26720900  1
loop_
_geom_bond_atom_site_label_1
_geom_bond_atom_site_label_2
_geom_bond_distance
_geom_bond_site_symmetry_2
Pr0 S14 2.757584 1_655
Pr0 S14 2.757584 1_555
Pr1 S8 2.757584 1_455
Pr1 S8 2.757584 1_555
Pr2 S10 2.921963 1_555
Pr2 S4 2.934158 1_555
Pr2 S4 2.934158 1_455
Pr2 S6 3.040393 1_455
Pr2 S6 3.040393 1_555
Pr3 S10 2.995417 1_555
Pr3 S2 3.042776 1_455
Pr3 S2 3.042776 1_555
Pr3 S9 3.404831 1_555
Pr4 S6 2.866569 1_555
Pr4 S6 2.866569 1_455
Pr5 S11 2.866569 1_655
Pr5 S11 2.866569 1_555
Pr6 S7 2.995417 1_565
Pr6 S8 3.042776 1_455
Pr6 S8 3.042776 1_555
Pr6 S3 3.404831 1_556
Pr7 S1 2.995417 1_555
Pr7 S14 3.042776 1_555
Pr7 S14 3.042776 1_655
Pr7 S4 3.404831 1_555
Pr8 S0 2.995417 1_545
Pr8 S12 3.042776 1_655
Pr8 S12 3.042776 1_555
Pr8 S15 3.404831 1_554
Pr9 S1 2.910736 1_455
Pr9 S1 2.910736 1_555
Pr9 S5 2.950673 1_555
Pr10 S7 2.910736 1_655
Pr10 S7 2.910736 1_555
Pr10 S13 2.950673 1_555
Pr11 S1 2.921963 1_555
Pr11 S9 2.934158 1_555
Pr11 S9 2.934158 1_655
Pr11 S5 3.040393 1_555
Pr11 S5 3.040393 1_655
Pr12 S2 2.822392 1_555
Pr12 S4 3.017145 1_545
Pr12 S9 3.159940 1_555
Pr12 S9 3.159940 1_655
Pr12 S6 3.377269 1_545
Pr13 S8 2.822392 1_555
Pr13 S15 3.017145 1_555
Pr13 S3 3.159940 1_556
Pr13 S3 3.159940 1_656
Pr13 S13 3.377269 1_555
Pr14 S12 2.757584 1_555
Pr14 S12 2.757584 1_655
Pr15 S0 2.921963 1_555
Pr15 S3 2.934158 1_655
Pr15 S3 2.934158 1_555
Pr15 S11 3.040393 1_655
Pr15 S11 3.040393 1_555
Pr16 S2 2.757584 1_555
Pr16 S2 2.757584 1_455
Pr17 S7 2.921963 1_555
Pr17 S15 2.934158 1_455
Pr17 S15 2.934158 1_555
Pr17 S13 3.040393 1_555
Pr17 S13 3.040393 1_455
Pr18 S0 2.910736 1_455
Pr18 S0 2.910736 1_555
Pr18 S11 2.950673 1_555
Pr19 S13 2.866569 1_455
Pr19 S13 2.866569 1_555
Pr20 S10 2.910736 1_655
Pr20 S10 2.910736 1_555
Pr20 S6 2.950673 1_555
Pr21 S5 2.866569 1_555
Pr21 S5 2.866569 1_655
Pr22 S12 2.822392 1_555
Pr22 S3 3.017145 1_555
Pr22 S15 3.159940 1_454
Pr22 S15 3.159940 1_554
Pr22 S11 3.377269 1_555
Pr23 S14 2.822392 1_555
Pr23 S9 3.017145 1_565
Pr23 S4 3.159940 1_455
Pr23 S4 3.159940 1_555
Pr23 S5 3.377269 1_565
N0 Pr4 2.377018 1_545
N0 Pr16 2.398930 1_555
N0 Pr10 2.518337 1_555
N0 Pr10 2.518337 1_455
N1 Pr5 2.377018 1_555
N1 Pr14 2.398930 1_555
N1 Pr9 2.518337 1_555
N1 Pr9 2.518337 1_655
N2 Pr4 2.274094 1_545
N2 Pr16 2.393078 1_555
N2 Pr12 2.438820 1_455
N2 Pr12 2.438820 1_555
N3 Pr21 2.377018 1_565
N3 Pr0 2.398930 1_555
N3 Pr18 2.518337 1_655
N3 Pr18 2.518337 1_555
N4 Pr19 2.274094 1_555
N4 Pr1 2.393078 1_555
N4 Pr13 2.438820 1_455
N4 Pr13 2.438820 1_555
N5 Pr2 2.217403 1_555
N5 Pr3 2.361656 1_555
N5 Pr7 2.440865 1_455
N5 Pr7 2.440865 1_555
N6 Pr19 2.377018 1_555
N6 Pr1 2.398930 1_555
N6 Pr20 2.518337 1_455
N6 Pr20 2.518337 1_555
N7 Pr15 2.217403 1_555
N7 Pr8 2.361656 1_565
N7 Pr6 2.440865 1_654
N7 Pr6 2.440865 1_554
N8 Pr21 2.274094 1_565
N8 Pr0 2.393078 1_555
N8 Pr23 2.438820 1_655
N8 Pr23 2.438820 1_555
N9 Pr11 2.217403 1_555
N9 Pr7 2.361656 1_555
N9 Pr3 2.440865 1_555
N9 Pr3 2.440865 1_655
N10 Pr17 2.217403 1_555
N10 Pr6 2.361656 1_545
N10 Pr8 2.440865 1_556
N10 Pr8 2.440865 1_456
N11 Pr5 2.274094 1_555
N11 Pr14 2.393078 1_555
N11 Pr22 2.438820 1_655
N11 Pr22 2.438820 1_555
Cl0 Pr19 3.037923 1_655
Cl0 Pr19 3.037923 1_555
Cl0 Pr20 3.048035 1_555
Cl0 Pr16 3.090477 1_555
Cl0 Pr16 3.090477 1_655
Cl0 Pr10 3.414877 1_555
Cl1 Pr21 3.037923 1_455
Cl1 Pr21 3.037923 1_555
Cl1 Pr18 3.048035 1_545
Cl1 Pr14 3.090477 1_555
Cl1 Pr14 3.090477 1_455
Cl1 Pr9 3.414877 1_555
Cl2 Pr4 3.037923 1_555
Cl2 Pr4 3.037923 1_655
Cl2 Pr10 3.048035 1_565
Cl2 Pr1 3.090477 1_655
Cl2 Pr1 3.090477 1_555
Cl2 Pr20 3.414877 1_555
Cl3 Pr5 3.037923 1_555
Cl3 Pr5 3.037923 1_455
Cl3 Pr9 3.048035 1_555
Cl3 Pr0 3.090477 1_555
Cl3 Pr0 3.090477 1_455
Cl3 Pr18 3.414877 1_555
