# generated using pymatgen
data_Hg6BiSb4Br7
_symmetry_space_group_name_H-M   'P 1'
_cell_length_a   13.19633962
_cell_length_b   13.19633962
_cell_length_c   13.19633962
_cell_angle_alpha   90.00000000
_cell_angle_beta   90.00000000
_cell_angle_gamma   90.00000000
_symmetry_Int_Tables_number   1
_chemical_formula_structural   Hg6BiSb4Br7
_chemical_formula_sum   'Hg24 Bi4 Sb16 Br28'
_cell_volume   2298.05517669
_cell_formula_units_Z   4
loop_
 _symmetry_equiv_pos_site_id
 _symmetry_equiv_pos_as_xyz
  1  'x, y, z'
loop_
 _atom_site_type_symbol
 _atom_site_label
 _atom_site_symmetry_multiplicity
 _atom_site_fract_x
 _atom_site_fract_y
 _atom_site_fract_z
 _atom_site_occupancy
  Hg  Hg0  1  0.18476708  0.30194867  0.44816223  1
  Hg  Hg1  1  0.31523292  0.69805133  0.94816223  1
  Hg  Hg2  1  0.19805133  0.55183777  0.68476708  1
  Hg  Hg3  1  0.80194867  0.05183777  0.81523292  1
  Hg  Hg4  1  0.44816223  0.18476708  0.30194867  1
  Hg  Hg5  1  0.55183777  0.81523292  0.69805133  1
  Hg  Hg6  1  0.94816223  0.18476708  0.19805133  1
  Hg  Hg7  1  0.30194867  0.44816223  0.18476708  1
  Hg  Hg8  1  0.81523292  0.69805133  0.55183777  1
  Hg  Hg9  1  0.05183777  0.68476708  0.30194867  1
  Hg  Hg10  1  0.68476708  0.19805133  0.55183777  1
  Hg  Hg11  1  0.94816223  0.31523292  0.69805133  1
  Hg  Hg12  1  0.81523292  0.80194867  0.05183777  1
  Hg  Hg13  1  0.68476708  0.30194867  0.05183777  1
  Hg  Hg14  1  0.80194867  0.44816223  0.31523292  1
  Hg  Hg15  1  0.18476708  0.19805133  0.94816223  1
  Hg  Hg16  1  0.30194867  0.05183777  0.68476708  1
  Hg  Hg17  1  0.69805133  0.55183777  0.81523292  1
  Hg  Hg18  1  0.05183777  0.81523292  0.80194867  1
  Hg  Hg19  1  0.44816223  0.31523292  0.80194867  1
  Hg  Hg20  1  0.55183777  0.68476708  0.19805133  1
  Hg  Hg21  1  0.31523292  0.80194867  0.44816223  1
  Hg  Hg22  1  0.69805133  0.94816223  0.31523292  1
  Hg  Hg23  1  0.19805133  0.94816223  0.18476708  1
  Bi  Bi0  1  0.00000000  0.50000000  0.00000000  1
  Bi  Bi1  1  0.50000000  0.50000000  0.50000000  1
  Bi  Bi2  1  0.00000000  -0.00000000  0.50000000  1
  Bi  Bi3  1  0.50000000  -0.00000000  0.00000000  1
  Sb  Sb0  1  0.26374362  0.23625638  0.76374362  1
  Sb  Sb1  1  0.86156180  0.63843820  0.36156180  1
  Sb  Sb2  1  0.23625638  0.76374362  0.26374362  1
  Sb  Sb3  1  0.73625638  0.73625638  0.73625638  1
  Sb  Sb4  1  0.13843820  0.36156180  0.63843820  1
  Sb  Sb5  1  0.63843820  0.36156180  0.86156180  1
  Sb  Sb6  1  0.36156180  0.86156180  0.63843820  1
  Sb  Sb7  1  0.63843820  0.13843820  0.36156180  1
  Sb  Sb8  1  0.36156180  0.63843820  0.13843820  1
  Sb  Sb9  1  0.73625638  0.76374362  0.23625638  1
  Sb  Sb10  1  0.23625638  0.73625638  0.76374362  1
  Sb  Sb11  1  0.76374362  0.23625638  0.73625638  1
  Sb  Sb12  1  0.86156180  0.86156180  0.86156180  1
  Sb  Sb13  1  0.13843820  0.13843820  0.13843820  1
  Sb  Sb14  1  0.76374362  0.26374362  0.23625638  1
  Sb  Sb15  1  0.26374362  0.26374362  0.26374362  1
  Br  Br0  1  0.70726812  0.45568828  0.55285072  1
  Br  Br1  1  0.45568828  0.55285072  0.70726812  1
  Br  Br2  1  0.54431172  0.05285072  0.79273188  1
  Br  Br3  1  0.44714928  0.20726812  0.04431172  1
  Br  Br4  1  0.54431172  0.44714928  0.29273188  1
  Br  Br5  1  0.00000000  -0.00000000  0.00000000  1
  Br  Br6  1  0.45568828  0.94714928  0.20726812  1
  Br  Br7  1  0.70726812  0.04431172  0.05285072  1
  Br  Br8  1  0.29273188  0.95568828  0.94714928  1
  Br  Br9  1  0.95568828  0.94714928  0.29273188  1
  Br  Br10  1  0.05285072  0.70726812  0.04431172  1
  Br  Br11  1  0.50000000  -0.00000000  0.50000000  1
  Br  Br12  1  0.44714928  0.29273188  0.54431172  1
  Br  Br13  1  0.00000000  0.50000000  0.50000000  1
  Br  Br14  1  0.05285072  0.79273188  0.54431172  1
  Br  Br15  1  0.04431172  0.05285072  0.70726812  1
  Br  Br16  1  0.29273188  0.54431172  0.44714928  1
  Br  Br17  1  0.20726812  0.04431172  0.44714928  1
  Br  Br18  1  0.20726812  0.45568828  0.94714928  1
  Br  Br19  1  0.94714928  0.29273188  0.95568828  1
  Br  Br20  1  0.79273188  0.54431172  0.05285072  1
  Br  Br21  1  0.04431172  0.44714928  0.20726812  1
  Br  Br22  1  0.55285072  0.70726812  0.45568828  1
  Br  Br23  1  0.95568828  0.55285072  0.79273188  1
  Br  Br24  1  0.79273188  0.95568828  0.55285072  1
  Br  Br25  1  0.55285072  0.79273188  0.95568828  1
  Br  Br26  1  0.94714928  0.20726812  0.45568828  1
  Br  Br27  1  0.50000000  0.50000000  0.00000000  1
loop_
_geom_bond_atom_site_label_1
_geom_bond_atom_site_label_2
_geom_bond_distance
_geom_bond_site_symmetry_2
Hg0 Sb15 2.695000 1_555
Hg0 Sb4 2.701386 1_555
Hg1 Sb10 2.695000 1_555
Hg1 Sb8 2.701386 1_556
Hg2 Sb10 2.695000 1_555
Hg2 Sb4 2.701386 1_555
Hg3 Sb11 2.695000 1_555
Hg3 Sb12 2.701386 1_545
Hg4 Sb15 2.695000 1_555
Hg4 Sb7 2.701386 1_555
Hg5 Sb3 2.695000 1_555
Hg5 Sb6 2.701386 1_555
Hg6 Sb14 2.695000 1_555
Hg6 Sb13 2.701386 1_655
Hg7 Sb15 2.695000 1_555
Hg7 Sb8 2.701386 1_555
Hg8 Sb3 2.695000 1_555
Hg8 Sb1 2.701386 1_555
Hg9 Sb2 2.695000 1_555
Hg9 Sb1 2.701386 1_455
Hg10 Sb11 2.695000 1_555
Hg10 Sb7 2.701386 1_555
Hg11 Sb11 2.695000 1_555
Hg11 Sb4 2.701386 1_655
Hg12 Sb9 2.695000 1_555
Hg12 Sb12 2.701386 1_554
Hg13 Sb14 2.695000 1_555
Hg13 Sb5 2.701386 1_554
Hg14 Sb14 2.695000 1_555
Hg14 Sb1 2.701386 1_555
Hg15 Sb0 2.695000 1_555
Hg15 Sb13 2.701386 1_556
Hg16 Sb0 2.695000 1_555
Hg16 Sb6 2.701386 1_545
Hg17 Sb3 2.695000 1_555
Hg17 Sb5 2.701386 1_555
Hg18 Sb10 2.695000 1_555
Hg18 Sb12 2.701386 1_455
Hg19 Sb0 2.695000 1_555
Hg19 Sb5 2.701386 1_555
Hg20 Sb9 2.695000 1_555
Hg20 Sb8 2.701386 1_555
Hg21 Sb2 2.695000 1_555
Hg21 Sb6 2.701386 1_555
Hg22 Sb9 2.695000 1_555
Hg22 Sb7 2.701386 1_565
Hg23 Sb2 2.695000 1_555
Hg23 Sb13 2.701386 1_565
Bi0 Br23 2.882632 1_454
Bi0 Br20 2.882632 1_455
Bi0 Br19 2.882632 1_454
Bi0 Br21 2.882632 1_555
Bi0 Br18 2.882632 1_554
Bi0 Br10 2.882632 1_555
Bi1 Br4 2.882632 1_555
Bi1 Br12 2.882632 1_555
Bi1 Br16 2.882632 1_555
Bi1 Br22 2.882632 1_555
Bi1 Br0 2.882632 1_555
Bi1 Br1 2.882632 1_555
Bi2 Br24 2.882632 1_445
Bi2 Br14 2.882632 1_545
Bi2 Br17 2.882632 1_555
Bi2 Br9 2.882632 1_445
Bi2 Br26 2.882632 1_455
Bi2 Br15 2.882632 1_555
Bi3 Br25 2.882632 1_544
Bi3 Br2 2.882632 1_554
Bi3 Br6 2.882632 1_545
Bi3 Br3 2.882632 1_555
Bi3 Br8 2.882632 1_544
Bi3 Br7 2.882632 1_555
Sb0 Sb4 2.864072 1_555
Sb1 Sb9 2.864072 1_555
Sb2 Sb8 2.864072 1_555
Sb10 Sb6 2.864072 1_555
Sb11 Sb5 2.864072 1_555
Sb12 Sb3 2.864072 1_555
Sb13 Sb15 2.864072 1_555
Sb14 Sb7 2.864072 1_555
Br5 Sb13 3.164245 1_555
Br5 Sb12 3.164245 1_444
Br11 Sb7 3.164245 1_555
Br11 Sb6 3.164245 1_545
Br13 Sb4 3.164245 1_555
Br13 Sb1 3.164245 1_455
Br27 Sb8 3.164245 1_555
Br27 Sb5 3.164245 1_554
