# generated using pymatgen
data_Sr3GaSb3
_symmetry_space_group_name_H-M   'P 1'
_cell_length_a   14.60229990
_cell_length_b   11.81344449
_cell_length_c   13.56343532
_cell_angle_alpha   55.02929365
_cell_angle_beta   90.00000000
_cell_angle_gamma   90.00000000
_symmetry_Int_Tables_number   1
_chemical_formula_structural   Sr3GaSb3
_chemical_formula_sum   'Sr24 Ga8 Sb24'
_cell_volume   1917.28828862
_cell_formula_units_Z   8
loop_
 _symmetry_equiv_pos_site_id
 _symmetry_equiv_pos_as_xyz
  1  'x, y, z'
loop_
 _atom_site_type_symbol
 _atom_site_label
 _atom_site_symmetry_multiplicity
 _atom_site_fract_x
 _atom_site_fract_y
 _atom_site_fract_z
 _atom_site_occupancy
  Sr  Sr0  1  0.56726211  0.92134705  0.66462205  1
  Sr  Sr1  1  0.71719683  0.59646485  0.09121980  1
  Sr  Sr2  1  0.28280317  0.40353515  0.90878020  1
  Sr  Sr3  1  0.74969728  0.13623842  0.34174505  1
  Sr  Sr4  1  0.42448118  0.64905633  0.02368652  1
  Sr  Sr5  1  0.24969728  0.86376158  0.15825495  1
  Sr  Sr6  1  0.92863994  0.86091492  0.68179380  1
  Sr  Sr7  1  0.43273789  0.07865295  0.33537795  1
  Sr  Sr8  1  0.09505924  0.61870211  0.03819603  1
  Sr  Sr9  1  0.75030272  0.13623842  0.84174505  1
  Sr  Sr10  1  0.40494076  0.61870211  0.53819603  1
  Sr  Sr11  1  0.78280317  0.59646485  0.59121980  1
  Sr  Sr12  1  0.07136006  0.13908508  0.31820620  1
  Sr  Sr13  1  0.90494076  0.38129789  0.96180397  1
  Sr  Sr14  1  0.07551882  0.64905633  0.52368652  1
  Sr  Sr15  1  0.92448118  0.35094367  0.47631348  1
  Sr  Sr16  1  0.25030272  0.86376158  0.65825495  1
  Sr  Sr17  1  0.57136006  0.86091492  0.18179380  1
  Sr  Sr18  1  0.06726211  0.07865295  0.83537795  1
  Sr  Sr19  1  0.93273789  0.92134705  0.16462205  1
  Sr  Sr20  1  0.57551882  0.35094367  0.97631348  1
  Sr  Sr21  1  0.59505924  0.38129789  0.46180397  1
  Sr  Sr22  1  0.21719683  0.40353515  0.40878020  1
  Sr  Sr23  1  0.42863994  0.13908508  0.81820620  1
  Ga  Ga0  1  0.24505811  0.12931814  0.67806839  1
  Ga  Ga1  1  0.40902731  0.37171761  0.31147655  1
  Ga  Ga2  1  0.59097269  0.62828239  0.68852345  1
  Ga  Ga3  1  0.09097269  0.37171761  0.81147655  1
  Ga  Ga4  1  0.74505811  0.87068186  0.82193161  1
  Ga  Ga5  1  0.75494189  0.87068186  0.32193161  1
  Ga  Ga6  1  0.25494189  0.12931814  0.17806839  1
  Ga  Ga7  1  0.90902731  0.62828239  0.18852345  1
  Sb  Sb0  1  0.90011015  0.84473014  0.94969863  1
  Sb  Sb1  1  0.09302840  0.60846679  0.79560290  1
  Sb  Sb2  1  0.59087110  0.88465880  0.92650970  1
  Sb  Sb3  1  0.25833962  0.89068338  0.89869694  1
  Sb  Sb4  1  0.24166038  0.89068338  0.39869694  1
  Sb  Sb5  1  0.90912890  0.88465880  0.42650970  1
  Sb  Sb6  1  0.09988985  0.15526986  0.05030137  1
  Sb  Sb7  1  0.06702019  0.64951151  0.27404972  1
  Sb  Sb8  1  0.56702019  0.35048849  0.22595028  1
  Sb  Sb9  1  0.73707983  0.63411124  0.81997577  1
  Sb  Sb10  1  0.09087110  0.11534120  0.57349030  1
  Sb  Sb11  1  0.23707983  0.36588876  0.68002423  1
  Sb  Sb12  1  0.76292017  0.63411124  0.31997577  1
  Sb  Sb13  1  0.74166038  0.10931662  0.10130306  1
  Sb  Sb14  1  0.40697160  0.60846679  0.29560290  1
  Sb  Sb15  1  0.40912890  0.11534120  0.07349030  1
  Sb  Sb16  1  0.59988985  0.84473014  0.44969863  1
  Sb  Sb17  1  0.40011015  0.15526986  0.55030137  1
  Sb  Sb18  1  0.59302840  0.39153321  0.70439710  1
  Sb  Sb19  1  0.43297981  0.64951151  0.77404972  1
  Sb  Sb20  1  0.75833962  0.10931662  0.60130306  1
  Sb  Sb21  1  0.90697160  0.39153321  0.20439710  1
  Sb  Sb22  1  0.26292017  0.36588876  0.18002423  1
  Sb  Sb23  1  0.93297981  0.35048849  0.72595028  1
loop_
_geom_bond_atom_site_label_1
_geom_bond_atom_site_label_2
_geom_bond_distance
_geom_bond_site_symmetry_2
Ga0 Sb3 2.696191 1_545
Ga0 Sb10 2.716043 1_555
Ga0 Sb17 2.759409 1_555
Ga0 Sb11 2.812417 1_555
Ga0 Sr18 3.191745 1_555
Ga0 Sr22 3.230620 1_555
Ga0 Sr16 3.299415 1_545
Ga0 Sr23 3.326230 1_555
Ga1 Sb8 2.657927 1_555
Ga1 Sb14 2.679405 1_555
Ga1 Sb17 2.748346 1_555
Ga1 Sb22 2.806456 1_555
Ga1 Sr22 3.209091 1_555
Ga1 Sr7 3.305230 1_555
Ga1 Sr4 3.370734 1_555
Ga1 Sr21 3.437152 1_555
Ga2 Sb19 2.657927 1_555
Ga2 Sb18 2.679405 1_555
Ga2 Sb16 2.748346 1_555
Ga2 Sb9 2.806456 1_555
Ga2 Sr11 3.209091 1_555
Ga2 Sr0 3.305230 1_555
Ga2 Sr20 3.370734 1_555
Ga2 Sr10 3.437152 1_555
Ga3 Sb23 2.657927 1_455
Ga3 Sb1 2.679405 1_555
Ga3 Sb6 2.748346 1_556
Ga3 Sb11 2.806456 1_555
Ga3 Sr2 3.209091 1_555
Ga3 Sr18 3.305230 1_555
Ga3 Sr14 3.370734 1_555
Ga3 Sr13 3.437152 1_455
Ga4 Sb20 2.696191 1_565
Ga4 Sb2 2.716043 1_555
Ga4 Sb0 2.759409 1_555
Ga4 Sb9 2.812417 1_555
Ga4 Sr0 3.191745 1_555
Ga4 Sr1 3.230620 1_556
Ga4 Sr9 3.299415 1_565
Ga4 Sr6 3.326230 1_555
Ga5 Sb13 2.696191 1_565
Ga5 Sb5 2.716043 1_555
Ga5 Sb16 2.759409 1_555
Ga5 Sb12 2.812417 1_555
Ga5 Sr19 3.191745 1_555
Ga5 Sr11 3.230620 1_555
Ga5 Sr3 3.299415 1_565
Ga5 Sr17 3.326230 1_555
Ga6 Sb4 2.696191 1_545
Ga6 Sb15 2.716043 1_555
Ga6 Sb6 2.759409 1_555
Ga6 Sb22 2.812417 1_555
Ga6 Sr7 3.191745 1_555
Ga6 Sr2 3.230620 1_554
Ga6 Sr5 3.299415 1_545
Ga6 Sr12 3.326230 1_555
Ga7 Sb7 2.657927 1_655
Ga7 Sb21 2.679405 1_555
Ga7 Sb0 2.748346 1_554
Ga7 Sb12 2.806456 1_555
Ga7 Sr1 3.209091 1_555
Ga7 Sr19 3.305230 1_555
Ga7 Sr15 3.370734 1_555
Ga7 Sr8 3.437152 1_655
Sb0 Sr18 3.329641 1_665
Sb0 Sr19 3.545217 1_556
Sb0 Sr6 3.552119 1_555
Sb0 Sr1 3.600953 1_556
Sb0 Sr8 3.605592 1_656
Sb0 Sr9 3.606701 1_565
Sb1 Sr8 3.361291 1_556
Sb1 Sr16 3.376381 1_555
Sb1 Sr2 3.411248 1_555
Sb1 Sr6 3.429555 1_455
Sb1 Sr14 3.445332 1_555
Sb1 Sr13 3.590569 1_455
Sb2 Sr17 3.321991 1_556
Sb2 Sr0 3.340554 1_555
Sb2 Sr4 3.343943 1_556
Sb2 Sr1 3.356473 1_556
Sb2 Sr9 3.414344 1_565
Sb2 Sr23 3.426734 1_565
Sb3 Sr5 3.350747 1_556
Sb3 Sr18 3.356702 1_565
Sb3 Sr4 3.370525 1_556
Sb3 Sr16 3.455348 1_555
Sb3 Sr23 3.509230 1_565
Sb3 Sr8 3.552392 1_556
Sb4 Sr16 3.350747 1_555
Sb4 Sr7 3.356702 1_565
Sb4 Sr14 3.370525 1_555
Sb4 Sr5 3.455348 1_555
Sb4 Sr12 3.509230 1_565
Sb4 Sr10 3.552392 1_555
Sb5 Sr6 3.321991 1_555
Sb5 Sr19 3.340554 1_555
Sb5 Sr14 3.343943 1_655
Sb5 Sr11 3.356473 1_555
Sb5 Sr3 3.414344 1_565
Sb5 Sr12 3.426734 1_665
Sb6 Sr19 3.329641 1_445
Sb6 Sr18 3.545217 1_554
Sb6 Sr12 3.552119 1_555
Sb6 Sr2 3.600953 1_554
Sb6 Sr13 3.605592 1_454
Sb6 Sr5 3.606701 1_545
Sb7 Sr22 3.241155 1_555
Sb7 Sr19 3.301004 1_455
Sb7 Sr5 3.381066 1_555
Sb7 Sr14 3.385129 1_555
Sb7 Sr8 3.445040 1_555
Sb7 Sr15 3.634131 1_455
Sb8 Sr1 3.241155 1_555
Sb8 Sr7 3.301004 1_555
Sb8 Sr3 3.381066 1_555
Sb8 Sr20 3.385129 1_554
Sb8 Sr21 3.445040 1_555
Sb8 Sr4 3.634131 1_555
Sb9 Sr11 3.442702 1_555
Sb9 Sr1 3.455656 1_556
Sb9 Sr13 3.470244 1_555
Sb9 Sr6 3.572051 1_555
Sb9 Sr20 3.622302 1_555
Sb9 Sr0 3.729209 1_555
Sb10 Sr12 3.321991 1_555
Sb10 Sr18 3.340554 1_555
Sb10 Sr15 3.343943 1_455
Sb10 Sr22 3.356473 1_555
Sb10 Sr16 3.414344 1_545
Sb10 Sr6 3.426734 1_445
Sb11 Sr2 3.442702 1_555
Sb11 Sr22 3.455656 1_555
Sb11 Sr10 3.470244 1_555
Sb11 Sr23 3.572051 1_555
Sb11 Sr14 3.622302 1_555
Sb11 Sr18 3.729209 1_555
Sb12 Sr1 3.442702 1_555
Sb12 Sr11 3.455656 1_555
Sb12 Sr21 3.470244 1_555
Sb12 Sr17 3.572051 1_555
Sb12 Sr15 3.622302 1_555
Sb12 Sr19 3.729209 1_555
Sb13 Sr9 3.350747 1_554
Sb13 Sr19 3.356702 1_545
Sb13 Sr20 3.370525 1_554
Sb13 Sr3 3.455348 1_555
Sb13 Sr17 3.509230 1_545
Sb13 Sr13 3.552392 1_554
Sb14 Sr10 3.361291 1_555
Sb14 Sr5 3.376381 1_555
Sb14 Sr22 3.411248 1_555
Sb14 Sr17 3.429555 1_555
Sb14 Sr4 3.445332 1_555
Sb14 Sr21 3.590569 1_555
Sb15 Sr23 3.321991 1_554
Sb15 Sr7 3.340554 1_555
Sb15 Sr20 3.343943 1_554
Sb15 Sr2 3.356473 1_554
Sb15 Sr5 3.414344 1_545
Sb15 Sr17 3.426734 1_545
Sb16 Sr7 3.329641 1_565
Sb16 Sr0 3.545217 1_555
Sb16 Sr17 3.552119 1_555
Sb16 Sr11 3.600953 1_555
Sb16 Sr10 3.605592 1_555
Sb16 Sr3 3.606701 1_565
Sb17 Sr0 3.329641 1_545
Sb17 Sr7 3.545217 1_555
Sb17 Sr23 3.552119 1_555
Sb17 Sr22 3.600953 1_555
Sb17 Sr21 3.605592 1_555
Sb17 Sr16 3.606701 1_545
Sb18 Sr21 3.361291 1_555
Sb18 Sr9 3.376381 1_555
Sb18 Sr11 3.411248 1_555
Sb18 Sr23 3.429555 1_555
Sb18 Sr20 3.445332 1_555
Sb18 Sr10 3.590569 1_555
Sb19 Sr2 3.241155 1_555
Sb19 Sr0 3.301004 1_555
Sb19 Sr16 3.381066 1_555
Sb19 Sr4 3.385129 1_556
Sb19 Sr10 3.445040 1_555
Sb19 Sr20 3.634131 1_555
Sb20 Sr3 3.350747 1_555
Sb20 Sr0 3.356702 1_545
Sb20 Sr15 3.370525 1_555
Sb20 Sr9 3.455348 1_555
Sb20 Sr6 3.509230 1_545
Sb20 Sr21 3.552392 1_555
Sb21 Sr13 3.361291 1_554
Sb21 Sr3 3.376381 1_555
Sb21 Sr1 3.411248 1_555
Sb21 Sr12 3.429555 1_655
Sb21 Sr15 3.445332 1_555
Sb21 Sr8 3.590569 1_655
Sb22 Sr22 3.442702 1_555
Sb22 Sr2 3.455656 1_554
Sb22 Sr8 3.470244 1_555
Sb22 Sr12 3.572051 1_555
Sb22 Sr4 3.622302 1_555
Sb22 Sr7 3.729209 1_555
Sb23 Sr11 3.241155 1_555
Sb23 Sr18 3.301004 1_655
Sb23 Sr9 3.381066 1_555
Sb23 Sr15 3.385129 1_555
Sb23 Sr13 3.445040 1_555
Sb23 Sr14 3.634131 1_655
