# generated using pymatgen
data_Sr3In11
_symmetry_space_group_name_H-M   'P 1'
_cell_length_a   4.84491270
_cell_length_b   9.52599487
_cell_length_c   9.52599457
_cell_angle_alpha   73.66506366
_cell_angle_beta   75.17807802
_cell_angle_gamma   75.17810417
_symmetry_Int_Tables_number   1
_chemical_formula_structural   Sr3In11
_chemical_formula_sum   'Sr3 In11'
_cell_volume   399.77307003
_cell_formula_units_Z   1
loop_
 _symmetry_equiv_pos_site_id
 _symmetry_equiv_pos_as_xyz
  1  'x, y, z'
loop_
 _atom_site_type_symbol
 _atom_site_label
 _atom_site_symmetry_multiplicity
 _atom_site_fract_x
 _atom_site_fract_y
 _atom_site_fract_z
 _atom_site_occupancy
  Sr  Sr0  1  0.31331301  0.68628299  0.68628299  1
  Sr  Sr1  1  0.68668699  0.31371701  0.31371701  1
  Sr  Sr2  1  0.00000000  -0.00000000  -0.00000000  1
  In  In0  1  0.14880997  0.57519587  0.12822205  1
  In  In1  1  0.14880997  0.12822205  0.57519587  1
  In  In2  1  0.34093987  0.03257160  0.28481322  1
  In  In3  1  0.85119003  0.42480413  0.87177795  1
  In  In4  1  0.65906013  0.96742840  0.71518678  1
  In  In5  1  0.50000000  0.70050407  0.29949593  1
  In  In6  1  0.50000000  0.29949593  0.70050407  1
  In  In7  1  0.85119003  0.87177795  0.42480413  1
  In  In8  1  0.65906013  0.71518678  0.96742840  1
  In  In9  1  0.00000000  0.50000000  0.50000000  1
  In  In10  1  0.34093987  0.28481322  0.03257160  1
loop_
_geom_bond_atom_site_label_1
_geom_bond_atom_site_label_2
_geom_bond_distance
_geom_bond_site_symmetry_2
In0 In8 2.972585 1_554
In0 In8 2.974269 1_454
In0 In10 3.002482 1_555
In0 In5 3.243415 1_455
In0 In5 3.246056 1_555
In0 In9 3.332622 1_555
In0 Sr1 3.560463 1_555
In0 Sr1 3.562712 1_455
In0 Sr2 3.816395 1_565
In0 Sr0 3.960713 1_554
In1 In4 2.972586 1_545
In1 In4 2.974268 1_445
In1 In2 3.002482 1_555
In1 In6 3.243415 1_455
In1 In6 3.246056 1_555
In1 In9 3.332622 1_555
In1 Sr1 3.560461 1_555
In1 Sr1 3.562713 1_455
In1 Sr2 3.816394 1_556
In1 Sr0 3.960713 1_545
In2 In7 2.972586 1_545
In2 In7 2.974268 1_445
In2 In5 3.029653 1_545
In2 Sr1 3.594579 1_455
In2 Sr1 3.605635 1_555
In2 Sr2 3.631445 1_655
In2 Sr2 3.635182 1_555
In3 In8 3.002482 1_555
In3 In6 3.243415 1_655
In3 In6 3.246056 1_555
In3 In9 3.332622 1_655
In3 Sr0 3.560463 1_555
In3 Sr0 3.562712 1_655
In3 Sr2 3.816395 1_656
In3 Sr1 3.960713 1_556
In4 In8 2.880915 1_555
In4 In7 3.002482 1_555
In4 In6 3.029653 1_565
In4 Sr0 3.594579 1_655
In4 Sr0 3.605635 1_555
In4 Sr2 3.631445 1_566
In4 Sr2 3.635182 1_666
In5 In8 3.029653 1_554
In5 In7 3.243415 1_455
In5 In7 3.246056 1_555
In5 In9 3.333530 1_555
In5 In9 3.333532 1_655
In5 Sr0 3.533988 1_555
In5 Sr1 3.533989 1_555
In6 In9 3.333530 1_655
In6 In9 3.333532 1_555
In6 Sr1 3.533988 1_555
In6 Sr0 3.533989 1_555
In7 In9 3.332622 1_655
In7 Sr0 3.560461 1_555
In7 Sr0 3.562713 1_655
In7 Sr2 3.816394 1_665
In7 Sr1 3.960713 1_565
In8 Sr0 3.594578 1_655
In8 Sr0 3.605635 1_555
In8 Sr2 3.631446 1_566
In8 Sr2 3.635181 1_666
In9 Sr1 3.618930 1_555
In9 Sr0 3.618930 1_455
In9 Sr1 3.623509 1_455
In9 Sr0 3.623509 1_555
In10 In2 2.880915 1_555
In10 In3 2.972585 1_554
In10 In3 2.974269 1_454
In10 In6 3.029653 1_554
In10 Sr1 3.594578 1_455
In10 Sr1 3.605635 1_555
In10 Sr2 3.631446 1_655
In10 Sr2 3.635181 1_555
