# generated using pymatgen
data_Rb3InP2
_symmetry_space_group_name_H-M   'P 1'
_cell_length_a   9.46421664
_cell_length_b   12.57021648
_cell_length_c   15.95120073
_cell_angle_alpha   97.28707323
_cell_angle_beta   107.04234864
_cell_angle_gamma   106.27284375
_symmetry_Int_Tables_number   1
_chemical_formula_structural   Rb3InP2
_chemical_formula_sum   'Rb24 In8 P16'
_cell_volume   1695.91071442
_cell_formula_units_Z   8
loop_
 _symmetry_equiv_pos_site_id
 _symmetry_equiv_pos_as_xyz
  1  'x, y, z'
loop_
 _atom_site_type_symbol
 _atom_site_label
 _atom_site_symmetry_multiplicity
 _atom_site_fract_x
 _atom_site_fract_y
 _atom_site_fract_z
 _atom_site_occupancy
  Rb  Rb0  1  0.68431443  0.12002165  0.52062882  1
  Rb  Rb1  1  0.14774898  0.58762422  0.47377954  1
  Rb  Rb2  1  0.39424343  0.39773066  0.35502640  1
  Rb  Rb3  1  0.31568557  0.87997835  0.47937118  1
  Rb  Rb4  1  0.60575657  0.60226934  0.64497360  1
  Rb  Rb5  1  0.46357986  0.42215646  0.80513259  1
  Rb  Rb6  1  0.07917554  0.39319524  0.08950167  1
  Rb  Rb7  1  0.58306187  0.93020236  0.74658840  1
  Rb  Rb8  1  0.77957082  0.41236026  0.24448884  1
  Rb  Rb9  1  0.83206780  0.92252300  0.34443219  1
  Rb  Rb10  1  0.02012231  0.26724246  0.82215903  1
  Rb  Rb11  1  0.61206863  0.12246122  0.08525594  1
  Rb  Rb12  1  0.97987769  0.73275754  0.17784097  1
  Rb  Rb13  1  0.41693813  0.06979764  0.25341160  1
  Rb  Rb14  1  0.85225102  0.41237578  0.52622046  1
  Rb  Rb15  1  0.33639995  0.74853701  0.11944001  1
  Rb  Rb16  1  0.53642014  0.57784354  0.19486741  1
  Rb  Rb17  1  0.01640086  0.09644888  0.19537740  1
  Rb  Rb18  1  0.92082446  0.60680476  0.91049833  1
  Rb  Rb19  1  0.98359914  0.90355112  0.80462260  1
  Rb  Rb20  1  0.66360005  0.25146299  0.88055999  1
  Rb  Rb21  1  0.38793137  0.87753878  0.91474406  1
  Rb  Rb22  1  0.16793220  0.07747700  0.65556781  1
  Rb  Rb23  1  0.22042918  0.58763974  0.75551116  1
  In  In0  1  0.43684607  0.28330839  0.57796612  1
  In  In1  1  0.07573372  0.23171083  0.44284145  1
  In  In2  1  0.17324783  0.10879939  0.01148117  1
  In  In3  1  0.92426628  0.76828917  0.55715855  1
  In  In4  1  0.57787270  0.64459206  0.99143538  1
  In  In5  1  0.82675217  0.89120061  0.98851883  1
  In  In6  1  0.56315393  0.71669161  0.42203388  1
  In  In7  1  0.42212730  0.35540794  0.00856462  1
  P  P0  1  0.27496855  0.13031647  0.43225604  1
  P  P1  1  0.62878660  0.72192963  0.85306305  1
  P  P2  1  0.28882904  0.51288530  0.96264140  1
  P  P3  1  0.12445931  0.90176631  0.03885578  1
  P  P4  1  0.76812182  0.62102118  0.41099133  1
  P  P5  1  0.70150992  0.33910209  0.68618688  1
  P  P6  1  0.18787511  0.80464827  0.65807496  1
  P  P7  1  0.31151118  0.15635746  0.89226401  1
  P  P8  1  0.68848882  0.84364254  0.10773599  1
  P  P9  1  0.87554069  0.09823369  0.96114422  1
  P  P10  1  0.23187818  0.37897882  0.58900867  1
  P  P11  1  0.71117096  0.48711470  0.03735860  1
  P  P12  1  0.72503145  0.86968353  0.56774396  1
  P  P13  1  0.81212489  0.19535173  0.34192504  1
  P  P14  1  0.29849008  0.66089791  0.31381312  1
  P  P15  1  0.37121340  0.27807037  0.14693695  1
loop_
_geom_bond_atom_site_label_1
_geom_bond_atom_site_label_2
_geom_bond_distance
_geom_bond_site_symmetry_2
Rb15 Rb16 3.351295 1_555
Rb16 Rb8 3.504563 1_555
Rb20 Rb5 3.351295 1_555
Rb23 Rb5 3.504563 1_555
In0 P5 2.433074 1_555
In0 P0 2.564261 1_555
In0 P10 2.587329 1_555
In0 Rb22 3.697655 1_555
In0 Rb5 3.721735 1_555
In0 Rb4 3.754015 1_555
In0 Rb2 3.957228 1_555
In1 P13 2.417587 1_455
In1 P10 2.529660 1_555
In1 P0 2.585995 1_555
In1 Rb2 3.885260 1_555
In1 Rb17 3.905236 1_555
In2 P3 2.628621 1_545
In2 P15 2.633049 1_555
In2 P7 2.644729 1_554
In2 P9 2.652955 1_454
In2 Rb19 3.541098 1_444
In2 Rb17 3.656639 1_555
In3 P6 2.417587 1_655
In3 P4 2.529660 1_555
In3 P12 2.585995 1_555
In3 Rb4 3.885260 1_555
In3 Rb19 3.905236 1_555
In4 P1 2.637090 1_555
In4 P2 2.639649 1_555
In4 P8 2.648422 1_556
In4 P11 2.696733 1_556
In4 Rb5 3.483138 1_555
In4 Rb16 3.555315 1_556
In5 P9 2.628621 1_565
In5 P1 2.633049 1_555
In5 P8 2.644729 1_556
In5 P3 2.652955 1_656
In5 Rb17 3.541098 1_666
In5 Rb19 3.656639 1_555
In6 P14 2.433074 1_555
In6 P12 2.564261 1_555
In6 P4 2.587329 1_555
In6 Rb9 3.697655 1_555
In6 Rb16 3.721735 1_555
In6 Rb2 3.754015 1_555
In6 Rb4 3.957228 1_555
In7 P15 2.637090 1_555
In7 P11 2.639649 1_555
In7 P7 2.648422 1_554
In7 P2 2.696733 1_554
In7 Rb16 3.483138 1_555
In7 Rb5 3.555315 1_554
P0 Rb3 3.424248 1_545
P0 Rb13 3.576523 1_555
P0 Rb2 3.718913 1_555
P0 Rb17 3.746326 1_555
P0 Rb0 3.760178 1_555
P1 Rb7 3.355299 1_555
P1 Rb4 3.384262 1_555
P1 Rb18 3.415614 1_555
P1 Rb23 3.515653 1_555
P1 Rb5 3.534857 1_555
P1 Rb21 3.649041 1_555
P1 Rb19 3.841548 1_555
P2 Rb10 3.395118 1_555
P2 Rb6 3.427590 1_556
P2 Rb15 3.456296 1_556
P2 Rb23 3.477518 1_555
P2 Rb16 3.598862 1_556
P2 Rb5 3.621364 1_555
P2 Rb18 3.882198 1_455
P3 Rb15 3.266139 1_555
P3 Rb12 3.555927 1_455
P3 Rb19 3.585537 1_454
P3 Rb13 3.629486 1_565
P3 Rb21 3.660075 1_554
P3 Rb18 3.662000 1_454
P3 Rb17 3.823285 1_565
P4 Rb16 3.378638 1_555
P4 Rb14 3.525110 1_555
P4 Rb8 3.536390 1_555
P4 Rb1 3.595940 1_655
P4 Rb2 3.625277 1_555
P5 Rb14 3.374644 1_555
P5 Rb0 3.498066 1_555
P5 Rb20 3.500338 1_555
P5 Rb10 3.578098 1_655
P5 Rb5 3.616607 1_555
P5 Rb4 3.752241 1_555
P6 Rb23 3.349257 1_555
P6 Rb7 3.391787 1_555
P6 Rb22 3.491695 1_565
P6 Rb3 3.542509 1_555
P6 Rb1 3.599862 1_555
P6 Rb19 3.742531 1_455
P6 Rb21 3.836542 1_555
P7 Rb20 3.279733 1_555
P7 Rb10 3.397142 1_555
P7 Rb22 3.517479 1_555
P7 Rb19 3.533722 1_445
P7 Rb11 3.691743 1_556
P7 Rb21 3.810878 1_545
P7 Rb5 3.849928 1_555
P8 Rb15 3.279733 1_555
P8 Rb12 3.397142 1_555
P8 Rb9 3.517479 1_555
P8 Rb17 3.533722 1_665
P8 Rb21 3.691743 1_554
P8 Rb11 3.810878 1_565
P8 Rb16 3.849928 1_555
P9 Rb20 3.266139 1_555
P9 Rb10 3.555927 1_655
P9 Rb17 3.585537 1_656
P9 Rb7 3.629486 1_545
P9 Rb11 3.660075 1_556
P9 Rb6 3.662000 1_656
P9 Rb19 3.823285 1_545
P10 Rb5 3.378638 1_555
P10 Rb1 3.525110 1_555
P10 Rb23 3.536390 1_555
P10 Rb14 3.595940 1_455
P10 Rb4 3.625277 1_555
P11 Rb12 3.395118 1_555
P11 Rb18 3.427590 1_554
P11 Rb20 3.456296 1_554
P11 Rb8 3.477518 1_555
P11 Rb5 3.598862 1_554
P11 Rb16 3.621364 1_555
P11 Rb6 3.882198 1_655
P12 Rb0 3.424248 1_565
P12 Rb7 3.576523 1_555
P12 Rb4 3.718913 1_555
P12 Rb19 3.746326 1_555
P12 Rb3 3.760178 1_555
P13 Rb8 3.349257 1_555
P13 Rb13 3.391787 1_555
P13 Rb9 3.491695 1_545
P13 Rb0 3.542509 1_555
P13 Rb14 3.599862 1_555
P13 Rb17 3.742531 1_655
P13 Rb11 3.836542 1_555
P14 Rb1 3.374644 1_555
P14 Rb3 3.498066 1_555
P14 Rb15 3.500338 1_555
P14 Rb12 3.578098 1_455
P14 Rb16 3.616607 1_555
P14 Rb2 3.752241 1_555
P15 Rb13 3.355299 1_555
P15 Rb2 3.384262 1_555
P15 Rb6 3.415614 1_555
P15 Rb8 3.515653 1_555
P15 Rb16 3.534857 1_555
P15 Rb11 3.649041 1_555
P15 Rb17 3.841548 1_555
