# generated using pymatgen
data_K2SO4
_symmetry_space_group_name_H-M   'P 1'
_cell_length_a   5.44268434
_cell_length_b   5.44268434
_cell_length_c   9.56330500
_cell_angle_alpha   90.00000000
_cell_angle_beta   90.00000000
_cell_angle_gamma   120.00000412
_symmetry_Int_Tables_number   1
_chemical_formula_structural   K2SO4
_chemical_formula_sum   'K4 S2 O8'
_cell_volume   245.33805321
_cell_formula_units_Z   2
loop_
 _symmetry_equiv_pos_site_id
 _symmetry_equiv_pos_as_xyz
  1  'x, y, z'
loop_
 _atom_site_type_symbol
 _atom_site_label
 _atom_site_symmetry_multiplicity
 _atom_site_fract_x
 _atom_site_fract_y
 _atom_site_fract_z
 _atom_site_occupancy
  K  K0  1  0.00000000  0.00000000  0.00000000  1
  K  K1  1  0.66666700  0.33333300  0.92113000  1
  K  K2  1  0.00000000  0.00000000  0.50000000  1
  K  K3  1  0.33333300  0.66666700  0.07887000  1
  S  S0  1  0.33333300  0.66666700  0.71582600  1
  S  S1  1  0.66666700  0.33333300  0.28417400  1
  O  O0  1  0.66666700  0.33333300  0.43695100  1
  O  O1  1  0.33333300  0.66666700  0.56304900  1
  O  O2  1  0.86590300  0.73180500  0.76071600  1
  O  O3  1  0.26819500  0.13409700  0.76071600  1
  O  O4  1  0.13409700  0.86590300  0.23928400  1
  O  O5  1  0.13409700  0.26819500  0.23928400  1
  O  O6  1  0.73180500  0.86590300  0.23928400  1
  O  O7  1  0.86590300  0.13409700  0.76071600  1
loop_
_geom_bond_atom_site_label_1
_geom_bond_atom_site_label_2
_geom_bond_distance
_geom_bond_site_symmetry_2
K0 O4 2.614299 1_545
K0 O7 2.614299 1_454
K0 O5 2.614301 1_555
K0 O6 2.614301 1_445
K0 O2 2.614301 1_444
K0 O3 2.614301 1_554
K1 O3 2.425089 1_555
K1 O2 2.425089 1_555
K1 O7 2.425089 1_555
K2 O7 2.795463 1_455
K2 O4 2.795463 1_545
K2 O2 2.795465 1_445
K2 O3 2.795465 1_555
K2 O6 2.795465 1_445
K2 O5 2.795465 1_555
K2 O0 3.199658 1_455
K2 O1 3.199658 1_545
K2 O1 3.199662 1_555
K2 O0 3.199662 1_555
K2 O0 3.199662 1_445
K2 O1 3.199662 1_445
K3 O5 2.425089 1_555
K3 O6 2.425089 1_555
K3 O4 2.425089 1_555
O0 S1 1.461053 1_555
O1 S0 1.461053 1_555
