# generated using pymatgen
data_LiVCuO4
_symmetry_space_group_name_H-M   'P 1'
_cell_length_a   6.07695958
_cell_length_b   6.07695958
_cell_length_c   6.07695958
_cell_angle_alpha   123.89970139
_cell_angle_beta   122.81690350
_cell_angle_gamma   84.27827991
_symmetry_Int_Tables_number   1
_chemical_formula_structural   LiVCuO4
_chemical_formula_sum   'Li2 V2 Cu2 O8'
_cell_volume   149.79679304
_cell_formula_units_Z   2
loop_
 _symmetry_equiv_pos_site_id
 _symmetry_equiv_pos_as_xyz
  1  'x, y, z'
loop_
 _atom_site_type_symbol
 _atom_site_label
 _atom_site_symmetry_multiplicity
 _atom_site_fract_x
 _atom_site_fract_y
 _atom_site_fract_z
 _atom_site_occupancy
  Li  Li0  1  0.50000000  0.00000000  0.00000000  1
  Li  Li1  1  0.50000000  0.50000000  0.50000000  1
  V  V0  1  0.13509000  0.38509000  0.75000000  1
  V  V1  1  0.86491000  0.61491000  0.25000000  1
  Cu  Cu0  1  0.50000000  0.00000000  0.50000000  1
  Cu  Cu1  1  0.00000000  0.00000000  0.00000000  1
  O  O0  1  0.24976900  0.23449400  0.48472500  1
  O  O1  1  0.75023100  0.23495700  0.98472500  1
  O  O2  1  0.75023100  0.76550600  0.51527500  1
  O  O3  1  0.24976900  0.76504300  0.01527500  1
  O  O4  1  0.78777500  0.27567700  0.51209800  1
  O  O5  1  0.21222500  0.72432300  0.48790200  1
  O  O6  1  0.73642000  0.72432300  0.01209800  1
  O  O7  1  0.26358000  0.27567700  0.98790200  1
loop_
_geom_bond_atom_site_label_1
_geom_bond_atom_site_label_2
_geom_bond_distance
_geom_bond_site_symmetry_2
Li0 O7 2.102163 1_554
Li0 O6 2.102163 1_545
Li0 O5 2.102167 1_544
Li0 O4 2.102167 1_555
Li0 O1 2.256862 1_554
Li0 O3 2.256862 1_545
Li1 O4 2.102167 1_555
Li1 O5 2.102167 1_555
Li1 O6 2.102167 1_556
Li1 O7 2.102167 1_554
Li1 O2 2.256858 1_555
Li1 O0 2.256858 1_555
Cu0 O1 1.978411 1_555
Cu0 O3 1.978411 1_545
Cu0 O2 1.978411 1_545
Cu0 O0 1.978411 1_555
Cu0 O5 2.485493 1_545
Cu0 O4 2.485493 1_555
Cu1 O2 1.978411 1_444
Cu1 O0 1.978411 1_555
Cu1 O3 1.978415 1_545
Cu1 O1 1.978415 1_454
Cu1 O6 2.485497 1_445
Cu1 O7 2.485497 1_554
O0 V0 1.834891 1_555
O1 V1 1.834886 1_556
O2 V1 1.834891 1_555
O3 V0 1.834886 1_554
O4 V0 1.699133 1_655
O5 V1 1.699133 1_455
O6 V1 1.699133 1_555
O7 V0 1.699133 1_555
