# generated using pymatgen
data_AsSeS3N5F6
_symmetry_space_group_name_H-M   'P 1'
_cell_length_a   6.85199100
_cell_length_b   12.16995700
_cell_length_c   13.14661284
_cell_angle_alpha   84.64418879
_cell_angle_beta   90.00000000
_cell_angle_gamma   90.00000000
_symmetry_Int_Tables_number   1
_chemical_formula_structural   AsSeS3N5F6
_chemical_formula_sum   'As4 Se4 S12 N20 F24'
_cell_volume   1091.48941532
_cell_formula_units_Z   4
loop_
 _symmetry_equiv_pos_site_id
 _symmetry_equiv_pos_as_xyz
  1  'x, y, z'
loop_
 _atom_site_type_symbol
 _atom_site_label
 _atom_site_symmetry_multiplicity
 _atom_site_fract_x
 _atom_site_fract_y
 _atom_site_fract_z
 _atom_site_occupancy
  As  As0  1  0.07431700  0.99625200  0.39814900  1
  As  As1  1  0.14887900  0.49459500  0.90459100  1
  As  As2  1  0.85112100  0.49459500  0.40459100  1
  As  As3  1  0.92568300  0.99625200  0.89814900  1
  Se  Se0  1  0.66033400  0.86606900  0.22487600  1
  Se  Se1  1  0.65749000  0.12613500  0.57986800  1
  Se  Se2  1  0.34251000  0.12613500  0.07986800  1
  Se  Se3  1  0.33966600  0.86606900  0.72487600  1
  S  S0  1  0.18401400  0.68730300  0.60326800  1
  S  S1  1  0.33913100  0.29001700  0.51989500  1
  S  S2  1  0.66086900  0.29001700  0.01989500  1
  S  S3  1  0.65751300  0.70207000  0.78793300  1
  S  S4  1  0.18483200  0.30374500  0.20308400  1
  S  S5  1  0.42212000  0.76134700  0.07723400  1
  S  S6  1  0.34248700  0.70207000  0.28793300  1
  S  S7  1  0.42281400  0.22875500  0.73011500  1
  S  S8  1  0.57718600  0.22875500  0.23011500  1
  S  S9  1  0.81516800  0.30374500  0.70308400  1
  S  S10  1  0.81598600  0.68730300  0.10326800  1
  S  S11  1  0.57788000  0.76134700  0.57723400  1
  N  N0  1  0.48902900  0.77777000  0.81982300  1
  N  N1  1  0.49736200  0.21205100  0.98596600  1
  N  N2  1  0.60989000  0.31628300  0.75231500  1
  N  N3  1  0.50359700  0.87572500  0.61323800  1
  N  N4  1  0.14837800  0.76768300  0.68687200  1
  N  N5  1  0.68499700  0.31171000  0.13457500  1
  N  N6  1  0.49640300  0.87572500  0.11323800  1
  N  N7  1  0.50394500  0.11497700  0.19250300  1
  N  N8  1  0.68852700  0.68071000  0.67357300  1
  N  N9  1  0.39011000  0.31628300  0.25231500  1
  N  N10  1  0.51097100  0.77777000  0.31982300  1
  N  N11  1  0.15352400  0.22676800  0.11626300  1
  N  N12  1  0.60836100  0.67261700  0.05735800  1
  N  N13  1  0.39163900  0.67261700  0.55735800  1
  N  N14  1  0.31147300  0.68071000  0.17357300  1
  N  N15  1  0.50263800  0.21205100  0.48596600  1
  N  N16  1  0.31500300  0.31171000  0.63457500  1
  N  N17  1  0.49605500  0.11497700  0.69250300  1
  N  N18  1  0.84647600  0.22676800  0.61626300  1
  N  N19  1  0.85162200  0.76768300  0.18687200  1
  F  F0  1  0.93770500  0.84995600  0.91769700  1
  F  F1  1  0.06587700  0.98838200  0.26348800  1
  F  F2  1  0.64815000  0.47013500  0.48804500  1
  F  F3  1  0.91946300  0.14264200  0.87806900  1
  F  F4  1  0.85007400  0.63610500  0.42670400  1
  F  F5  1  0.35185000  0.47013500  0.98804500  1
  F  F6  1  0.06229500  0.84995600  0.41769700  1
  F  F7  1  0.93412300  0.98838200  0.76348800  1
  F  F8  1  0.33145700  0.99082600  0.39600100  1
  F  F9  1  0.66854300  0.99082600  0.89600100  1
  F  F10  1  0.69032700  0.52381800  0.29920600  1
  F  F11  1  0.08053700  0.14264200  0.37806900  1
  F  F12  1  0.01250500  0.46704300  0.51016000  1
  F  F13  1  0.30967300  0.52381800  0.79920600  1
  F  F14  1  0.92312100  0.00463300  0.03255900  1
  F  F15  1  0.94496700  0.51733100  0.82132900  1
  F  F16  1  0.85344300  0.35305300  0.38257700  1
  F  F17  1  0.14992600  0.63610500  0.92670400  1
  F  F18  1  0.07687900  0.00463300  0.53255900  1
  F  F19  1  0.98749500  0.46704300  0.01016000  1
  F  F20  1  0.18630300  0.00159500  0.90016500  1
  F  F21  1  0.05503300  0.51733100  0.32132900  1
  F  F22  1  0.14655700  0.35305300  0.88257700  1
  F  F23  1  0.81369700  0.00159500  0.40016500  1
loop_
_geom_bond_atom_site_label_1
_geom_bond_atom_site_label_2
_geom_bond_distance
_geom_bond_site_symmetry_2
As0 F8 1.763483 1_555
As0 F6 1.776878 1_555
As0 F11 1.776982 1_565
As0 F18 1.779543 1_565
As0 F1 1.782768 1_555
As0 F23 1.787236 1_465
As1 F17 1.773104 1_555
As1 F22 1.773214 1_555
As1 F5 1.779200 1_555
As1 F13 1.779848 1_555
As1 F15 1.780555 1_455
As1 F19 1.781727 1_456
As2 F4 1.773104 1_555
As2 F16 1.773214 1_555
As2 F2 1.779200 1_555
As2 F10 1.779848 1_555
As2 F21 1.780555 1_655
As2 F12 1.781727 1_655
As3 F9 1.763483 1_555
As3 F0 1.776878 1_555
As3 F3 1.776982 1_565
As3 F14 1.779543 1_566
As3 F7 1.782768 1_555
As3 F20 1.787236 1_665
N0 S3 1.558640 1_555
N0 Se3 1.873459 1_555
N1 S2 1.559953 1_556
N1 Se2 1.871388 1_556
N2 S9 1.561740 1_555
N2 S7 1.709097 1_555
N3 S11 1.594899 1_555
N3 Se3 1.843188 1_555
N4 S0 1.557336 1_555
N4 Se3 1.874273 1_555
N5 S2 1.563443 1_555
N5 S8 1.704642 1_555
N6 S5 1.594899 1_555
N6 Se0 1.843188 1_555
N7 S8 1.594205 1_555
N7 Se2 1.843136 1_555
N8 S3 1.563983 1_555
N8 S11 1.705847 1_555
N9 S4 1.561740 1_555
N9 S8 1.709097 1_555
N10 S6 1.558640 1_555
N10 Se0 1.873459 1_555
N11 S4 1.557574 1_555
N11 Se2 1.874849 1_555
N12 S10 1.562141 1_555
N12 S5 1.707482 1_555
N13 S0 1.562141 1_555
N13 S11 1.707482 1_555
N14 S6 1.563983 1_555
N14 S5 1.705847 1_555
N15 S1 1.559953 1_555
N15 Se1 1.871388 1_555
N16 S1 1.563443 1_555
N16 S7 1.704642 1_555
N17 S7 1.594205 1_555
N17 Se1 1.843136 1_555
N18 S9 1.557574 1_555
N18 Se1 1.874849 1_555
N19 S10 1.557336 1_555
N19 Se0 1.874273 1_555
