# generated using pymatgen
data_CsCrI3
_symmetry_space_group_name_H-M   'P 1'
_cell_length_a   7.04458400
_cell_length_b   8.28795100
_cell_length_c   14.11246600
_cell_angle_alpha   90.00000000
_cell_angle_beta   90.00000000
_cell_angle_gamma   90.00000000
_symmetry_Int_Tables_number   1
_chemical_formula_structural   CsCrI3
_chemical_formula_sum   'Cs4 Cr4 I12'
_cell_volume   823.95868430
_cell_formula_units_Z   4
loop_
 _symmetry_equiv_pos_site_id
 _symmetry_equiv_pos_as_xyz
  1  'x, y, z'
loop_
 _atom_site_type_symbol
 _atom_site_label
 _atom_site_symmetry_multiplicity
 _atom_site_fract_x
 _atom_site_fract_y
 _atom_site_fract_z
 _atom_site_occupancy
  Cs  Cs0  1  0.75000000  0.00000000  0.66619500  1
  Cs  Cs1  1  0.25000000  0.00000000  0.33380500  1
  Cs  Cs2  1  0.75000000  0.50000000  0.16619500  1
  Cs  Cs3  1  0.25000000  0.50000000  0.83380500  1
  Cr  Cr0  1  0.50000000  0.00000000  0.00000000  1
  Cr  Cr1  1  0.00000000  0.00000000  0.00000000  1
  Cr  Cr2  1  0.00000000  0.50000000  0.50000000  1
  Cr  Cr3  1  0.50000000  0.50000000  0.50000000  1
  I  I0  1  0.28483600  0.75572200  0.08278800  1
  I  I1  1  0.71516400  0.25572200  0.41721200  1
  I  I2  1  0.21516400  0.24427800  0.08278800  1
  I  I3  1  0.78483600  0.75572200  0.91721200  1
  I  I4  1  0.28483600  0.74427800  0.58278800  1
  I  I5  1  0.71516400  0.24427800  0.91721200  1
  I  I6  1  0.75000000  0.00000000  0.15607400  1
  I  I7  1  0.21516400  0.25572200  0.58278800  1
  I  I8  1  0.25000000  0.50000000  0.34392600  1
  I  I9  1  0.75000000  0.50000000  0.65607400  1
  I  I10  1  0.25000000  0.00000000  0.84392600  1
  I  I11  1  0.78483600  0.74427800  0.41721200  1
loop_
_geom_bond_atom_site_label_1
_geom_bond_atom_site_label_2
_geom_bond_distance
_geom_bond_site_symmetry_2
Cs0 I7 4.076200 1_655
Cs0 I4 4.076200 1_545
Cs0 I3 4.087563 1_545
Cs0 I5 4.087563 1_555
Cs0 I1 4.110799 1_555
Cs0 I11 4.110799 1_545
Cs0 I9 4.146436 1_545
Cs0 I9 4.146436 1_555
Cs0 I10 4.324086 1_655
Cs0 I10 4.324086 1_555
Cs0 I4 4.480286 1_645
Cs0 I7 4.480286 1_555
Cs1 I11 4.076200 1_445
Cs1 I1 4.076200 1_555
Cs1 I0 4.087563 1_545
Cs1 I2 4.087563 1_555
Cs1 I4 4.110799 1_545
Cs1 I7 4.110799 1_555
Cs1 I8 4.146436 1_545
Cs1 I8 4.146436 1_555
Cs1 I6 4.324086 1_555
Cs1 I6 4.324086 1_455
Cs1 I11 4.480286 1_545
Cs1 I1 4.480286 1_455
Cs2 I2 4.076200 1_655
Cs2 I0 4.076200 1_555
Cs2 I1 4.087563 1_555
Cs2 I11 4.087563 1_555
Cs2 I5 4.110799 1_554
Cs2 I3 4.110799 1_554
Cs2 I6 4.146436 1_565
Cs2 I6 4.146436 1_555
Cs2 I8 4.324086 1_655
Cs2 I8 4.324086 1_555
Cs2 I2 4.480286 1_555
Cs2 I0 4.480286 1_655
Cs3 I5 4.076200 1_555
Cs3 I3 4.076200 1_455
Cs3 I7 4.087563 1_555
Cs3 I4 4.087563 1_555
Cs3 I2 4.110799 1_556
Cs3 I0 4.110799 1_556
Cs3 I10 4.146436 1_555
Cs3 I10 4.146436 1_565
Cs3 I9 4.324086 1_555
Cs3 I9 4.324086 1_455
Cs3 I5 4.480286 1_455
Cs3 I3 4.480286 1_555
Cr0 I0 2.785921 1_545
Cr0 I5 2.785921 1_554
Cr0 I6 2.820112 1_555
Cr0 I10 2.820112 1_554
Cr0 I2 3.080606 1_555
Cr0 I3 3.080606 1_544
Cr1 I2 2.785921 1_555
Cr1 I3 2.785921 1_444
Cr1 I6 2.820112 1_455
Cr1 I10 2.820112 1_554
Cr1 I0 3.080606 1_545
Cr1 I5 3.080606 1_454
Cr2 I7 2.785921 1_555
Cr2 I11 2.785921 1_455
Cr2 I9 2.820112 1_455
Cr2 I8 2.820112 1_555
Cr2 I4 3.080606 1_555
Cr2 I1 3.080606 1_455
Cr3 I4 2.785921 1_555
Cr3 I1 2.785921 1_555
Cr3 I9 2.820112 1_555
Cr3 I8 2.820112 1_555
Cr3 I7 3.080606 1_555
Cr3 I11 3.080606 1_555
