# generated using pymatgen
data_CsPt2Se3
_symmetry_space_group_name_H-M   'P 1'
_cell_length_a   8.39479541
_cell_length_b   8.39479618
_cell_length_c   8.39479752
_cell_angle_alpha   52.63042770
_cell_angle_beta   52.63042414
_cell_angle_gamma   52.63043210
_symmetry_Int_Tables_number   1
_chemical_formula_structural   CsPt2Se3
_chemical_formula_sum   'Cs2 Pt4 Se6'
_cell_volume   345.98222386
_cell_formula_units_Z   2
loop_
 _symmetry_equiv_pos_site_id
 _symmetry_equiv_pos_as_xyz
  1  'x, y, z'
loop_
 _atom_site_type_symbol
 _atom_site_label
 _atom_site_symmetry_multiplicity
 _atom_site_fract_x
 _atom_site_fract_y
 _atom_site_fract_z
 _atom_site_occupancy
  Cs  Cs0  1  0.19974210  0.19974210  0.19974210  1
  Cs  Cs1  1  0.80025790  0.80025790  0.80025790  1
  Pt  Pt0  1  0.50000000  0.00000000  0.50000000  1
  Pt  Pt1  1  -0.00000000  0.50000000  0.50000000  1
  Pt  Pt2  1  -0.00000000  0.00000000  0.00000000  1
  Pt  Pt3  1  0.50000000  0.50000000  0.00000000  1
  Se  Se0  1  0.22824126  0.22824126  0.71578344  1
  Se  Se1  1  0.77175874  0.77175874  0.28421656  1
  Se  Se2  1  0.71578344  0.22824126  0.22824126  1
  Se  Se3  1  0.22824126  0.71578344  0.22824126  1
  Se  Se4  1  0.77175874  0.28421656  0.77175874  1
  Se  Se5  1  0.28421656  0.77175874  0.77175874  1
loop_
_geom_bond_atom_site_label_1
_geom_bond_atom_site_label_2
_geom_bond_distance
_geom_bond_site_symmetry_2
Cs0 Pt3 3.601357 1_555
Cs0 Pt0 3.601358 1_555
Cs0 Pt1 3.601358 1_555
Cs0 Se2 3.785493 1_455
Cs0 Se3 3.785494 1_545
Cs0 Se0 3.785494 1_554
Cs0 Se4 4.070371 1_554
Cs0 Se5 4.070371 1_554
Cs0 Se1 4.070372 1_545
Cs0 Se1 4.070372 1_455
Cs0 Se4 4.070372 1_455
Cs0 Se5 4.070372 1_545
Cs1 Pt3 3.601357 1_556
Cs1 Pt0 3.601358 1_565
Cs1 Pt1 3.601358 1_655
Cs1 Se5 3.785493 1_655
Cs1 Se4 3.785494 1_565
Cs1 Se1 3.785494 1_556
Cs1 Se3 4.070371 1_556
Cs1 Se2 4.070371 1_556
Cs1 Se0 4.070372 1_565
Cs1 Se0 4.070372 1_655
Cs1 Se3 4.070372 1_655
Cs1 Se2 4.070372 1_565
Pt0 Se5 2.459200 1_545
Pt0 Se2 2.459200 1_555
Pt0 Se1 2.459200 1_545
Pt0 Se0 2.459200 1_555
Pt1 Se4 2.459200 1_455
Pt1 Se3 2.459200 1_555
Pt1 Se1 2.459200 1_455
Pt1 Se0 2.459200 1_555
Pt2 Se1 2.528385 1_445
Pt2 Se0 2.528385 1_554
Pt2 Se2 2.528386 1_455
Pt2 Se5 2.528386 1_544
Pt2 Se3 2.528386 1_545
Pt2 Se4 2.528386 1_454
Pt3 Se4 2.459200 1_554
Pt3 Se3 2.459200 1_555
Pt3 Se5 2.459200 1_554
Pt3 Se2 2.459200 1_555
