# generated using pymatgen
data_BaNaCr2F9
_symmetry_space_group_name_H-M   'P 1'
_cell_length_a   17.36435710
_cell_length_b   5.37680431
_cell_length_c   8.93629988
_cell_angle_alpha   54.67451597
_cell_angle_beta   90.00000000
_cell_angle_gamma   90.00000000
_symmetry_Int_Tables_number   1
_chemical_formula_structural   BaNaCr2F9
_chemical_formula_sum   'Ba4 Na4 Cr8 F36'
_cell_volume   680.71797850
_cell_formula_units_Z   4
loop_
 _symmetry_equiv_pos_site_id
 _symmetry_equiv_pos_as_xyz
  1  'x, y, z'
loop_
 _atom_site_type_symbol
 _atom_site_label
 _atom_site_symmetry_multiplicity
 _atom_site_fract_x
 _atom_site_fract_y
 _atom_site_fract_z
 _atom_site_occupancy
  Ba  Ba0  1  0.71489182  0.33962015  0.93188006  1
  Ba  Ba1  1  0.21489182  0.66037985  0.56811994  1
  Ba  Ba2  1  0.28510818  0.66037985  0.06811994  1
  Ba  Ba3  1  0.78510818  0.33962015  0.43188006  1
  Na  Na0  1  0.96047336  0.56001489  0.69170362  1
  Na  Na1  1  0.46047336  0.43998511  0.80829638  1
  Na  Na2  1  0.53952664  0.56001489  0.19170362  1
  Na  Na3  1  0.03952664  0.43998511  0.30829638  1
  Cr  Cr0  1  0.57925060  0.00552272  0.72798844  1
  Cr  Cr1  1  0.12112579  0.18957602  0.09172879  1
  Cr  Cr2  1  0.87887421  0.81042398  0.90827121  1
  Cr  Cr3  1  0.37887421  0.18957602  0.59172879  1
  Cr  Cr4  1  0.92074940  0.00552272  0.22798844  1
  Cr  Cr5  1  0.42074940  0.99447728  0.27201156  1
  Cr  Cr6  1  0.62112579  0.81042398  0.40827121  1
  Cr  Cr7  1  0.07925060  0.99447728  0.77201156  1
  F  F0  1  0.93326186  0.81930225  0.09531146  1
  F  F1  1  0.43326186  0.18069775  0.40468854  1
  F  F2  1  0.06673814  0.18069775  0.90468854  1
  F  F3  1  0.56673814  0.81930225  0.59531146  1
  F  F4  1  0.79191738  0.62766425  0.05998010  1
  F  F5  1  0.29191738  0.37233575  0.44001990  1
  F  F6  1  0.20808262  0.37233575  0.94001990  1
  F  F7  1  0.70808262  0.62766425  0.55998010  1
  F  F8  1  0.53216824  0.00087951  0.25101219  1
  F  F9  1  0.03216824  0.99912049  0.24898781  1
  F  F10  1  0.46783176  0.99912049  0.74898781  1
  F  F11  1  0.96783176  0.00087951  0.75101219  1
  F  F12  1  0.66191461  0.20225665  0.29816997  1
  F  F13  1  0.16191461  0.79774335  0.20183003  1
  F  F14  1  0.33808539  0.79774335  0.70183003  1
  F  F15  1  0.83808539  0.20225665  0.79816997  1
  F  F16  1  0.57989105  0.17106088  0.86321001  1
  F  F17  1  0.07989105  0.82893912  0.63678999  1
  F  F18  1  0.42010895  0.82893912  0.13678999  1
  F  F19  1  0.92010895  0.17106088  0.36321001  1
  F  F20  1  0.07513074  0.58734582  0.00187734  1
  F  F21  1  0.57513074  0.41265418  0.49812266  1
  F  F22  1  0.92486926  0.41265418  0.99812266  1
  F  F23  1  0.42486926  0.58734582  0.50187734  1
  F  F24  1  0.68701053  0.99087293  0.71936235  1
  F  F25  1  0.18701053  0.00912707  0.78063765  1
  F  F26  1  0.31298947  0.00912707  0.28063765  1
  F  F27  1  0.81298947  0.99087293  0.21936235  1
  F  F28  1  0.08105235  0.39294747  0.55830824  1
  F  F29  1  0.58105235  0.60705253  0.94169176  1
  F  F30  1  0.91894765  0.60705253  0.44169176  1
  F  F31  1  0.41894765  0.39294747  0.05830824  1
  F  F32  1  0.83570684  0.78350691  0.72494434  1
  F  F33  1  0.33570684  0.21649309  0.77505566  1
  F  F34  1  0.16429316  0.21649309  0.27505566  1
  F  F35  1  0.66429316  0.78350691  0.22494434  1
loop_
_geom_bond_atom_site_label_1
_geom_bond_atom_site_label_2
_geom_bond_distance
_geom_bond_site_symmetry_2
Ba0 F16 2.708583 1_555
Ba0 F27 2.728870 1_546
Ba0 F7 2.739580 1_555
Ba0 F35 2.741445 1_546
Ba0 F4 2.747411 1_556
Ba0 F15 2.751338 1_555
Ba0 F29 2.760848 1_555
Ba0 F24 2.900388 1_555
Ba0 F32 2.900524 1_555
Ba0 F12 3.051279 1_556
Ba1 F17 2.708583 1_555
Ba1 F26 2.728870 1_565
Ba1 F6 2.739580 1_555
Ba1 F34 2.741445 1_565
Ba1 F5 2.747411 1_555
Ba1 F14 2.751338 1_555
Ba1 F28 2.760848 1_555
Ba1 F25 2.900388 1_555
Ba1 F33 2.900524 1_555
Ba1 F13 3.051279 1_555
Ba2 F18 2.708583 1_555
Ba2 F25 2.728870 1_564
Ba2 F5 2.739580 1_555
Ba2 F33 2.741445 1_564
Ba2 F6 2.747411 1_554
Ba2 F13 2.751338 1_555
Ba2 F31 2.760848 1_555
Ba2 F26 2.900388 1_555
Ba2 F34 2.900524 1_555
Ba2 F14 3.051279 1_554
Ba3 F19 2.708583 1_555
Ba3 F24 2.728870 1_545
Ba3 F4 2.739580 1_555
Ba3 F32 2.741445 1_545
Ba3 F7 2.747411 1_555
Ba3 F12 2.751338 1_555
Ba3 F30 2.760848 1_555
Ba3 F27 2.900388 1_555
Ba3 F35 2.900524 1_555
Ba3 F15 3.051279 1_555
Cr0 F16 1.869846 1_555
Cr0 F29 1.872602 1_545
Cr0 F24 1.876297 1_545
Cr0 F10 1.942179 1_545
Cr0 F21 1.953593 1_555
Cr0 F3 1.956620 1_545
Cr1 F13 1.873813 1_545
Cr1 F34 1.881731 1_555
Cr1 F6 1.882263 1_554
Cr1 F9 1.935304 1_545
Cr1 F2 1.944272 1_554
Cr1 F20 1.967444 1_555
Cr2 F15 1.873813 1_565
Cr2 F32 1.881731 1_555
Cr2 F4 1.882263 1_556
Cr2 F11 1.935304 1_565
Cr2 F0 1.944272 1_556
Cr2 F22 1.967444 1_555
Cr3 F14 1.873813 1_545
Cr3 F33 1.881731 1_555
Cr3 F5 1.882263 1_555
Cr3 F10 1.935304 1_545
Cr3 F1 1.944272 1_555
Cr3 F23 1.967444 1_555
Cr4 F19 1.869846 1_555
Cr4 F30 1.872602 1_545
Cr4 F27 1.876297 1_545
Cr4 F9 1.942179 1_645
Cr4 F22 1.953593 1_554
Cr4 F0 1.956620 1_545
Cr5 F18 1.869846 1_555
Cr5 F31 1.872602 1_565
Cr5 F26 1.876297 1_565
Cr5 F8 1.942179 1_565
Cr5 F23 1.953593 1_555
Cr5 F1 1.956620 1_565
Cr6 F12 1.873813 1_565
Cr6 F35 1.881731 1_555
Cr6 F7 1.882263 1_555
Cr6 F8 1.935304 1_565
Cr6 F3 1.944272 1_555
Cr6 F21 1.967444 1_555
Cr7 F17 1.869846 1_555
Cr7 F28 1.872602 1_565
Cr7 F25 1.876297 1_565
Cr7 F11 1.942179 1_465
Cr7 F20 1.953593 1_556
Cr7 F2 1.956620 1_565
F0 Na3 2.588034 1_655
F1 Na2 2.588034 1_555
F2 Na0 2.588034 1_455
F3 Na1 2.588034 1_555
F8 Na2 2.714608 1_545
F8 Na2 2.737297 1_555
F9 Na3 2.714608 1_565
F9 Na3 2.737297 1_555
F10 Na1 2.714608 1_565
F10 Na1 2.737297 1_555
F11 Na0 2.714608 1_545
F11 Na0 2.737297 1_555
F12 Na2 2.646770 1_555
F13 Na3 2.646770 1_555
F14 Na1 2.646770 1_555
F15 Na0 2.646770 1_555
F16 Na1 2.410578 1_555
F16 Na2 2.957954 1_546
F17 Na0 2.410578 1_455
F17 Na3 2.957954 1_565
F18 Na2 2.410578 1_555
F18 Na1 2.957954 1_564
F19 Na3 2.410578 1_655
F19 Na0 2.957954 1_545
F20 Na3 2.449290 1_555
F21 Na2 2.449290 1_555
F22 Na0 2.449290 1_555
F23 Na1 2.449290 1_555
F28 Na3 2.218562 1_555
F28 Na0 2.801815 1_455
F29 Na2 2.218562 1_556
F29 Na1 2.801815 1_555
F30 Na0 2.218562 1_555
F30 Na3 2.801815 1_655
F31 Na1 2.218562 1_554
F31 Na2 2.801815 1_555
F32 Na0 2.576574 1_555
F33 Na1 2.576574 1_555
F34 Na3 2.576574 1_555
F35 Na2 2.576574 1_555
