# generated using pymatgen
data_Lu2CCl2
_symmetry_space_group_name_H-M   'P 1'
_cell_length_a   9.38394942
_cell_length_b   9.38394942
_cell_length_c   9.38394853
_cell_angle_alpha   22.03569645
_cell_angle_beta   22.03569645
_cell_angle_gamma   22.03569006
_symmetry_Int_Tables_number   1
_chemical_formula_structural   Lu2CCl2
_chemical_formula_sum   'Lu2 C1 Cl2'
_cell_volume   101.97525169
_cell_formula_units_Z   1
loop_
 _symmetry_equiv_pos_site_id
 _symmetry_equiv_pos_as_xyz
  1  'x, y, z'
loop_
 _atom_site_type_symbol
 _atom_site_label
 _atom_site_symmetry_multiplicity
 _atom_site_fract_x
 _atom_site_fract_y
 _atom_site_fract_z
 _atom_site_occupancy
  Lu  Lu0  1  0.88025411  0.88025411  0.88025411  1
  Lu  Lu1  1  0.11974589  0.11974589  0.11974589  1
  C  C0  1  0.50000000  0.50000000  0.50000000  1
  Cl  Cl0  1  0.27620644  0.27620644  0.27620644  1
  Cl  Cl1  1  0.72379356  0.72379356  0.72379356  1
loop_
_geom_bond_atom_site_label_1
_geom_bond_atom_site_label_2
_geom_bond_distance
_geom_bond_site_symmetry_2
C0 Lu0 2.438904 1_455
C0 Lu0 2.438904 1_545
C0 Lu1 2.438904 1_655
C0 Lu1 2.438904 1_565
C0 Lu0 2.438905 1_554
C0 Lu1 2.438905 1_556
Cl0 Lu0 2.691597 1_544
Cl0 Lu0 2.691597 1_454
Cl0 Lu0 2.691598 1_445
Cl1 Lu1 2.691597 1_566
Cl1 Lu1 2.691597 1_656
Cl1 Lu1 2.691598 1_665
