# generated using pymatgen
data_FeClO
_symmetry_space_group_name_H-M   'P 1'
_cell_length_a   3.27690450
_cell_length_b   3.84810861
_cell_length_c   8.17801630
_cell_angle_alpha   90.00000000
_cell_angle_beta   90.00000000
_cell_angle_gamma   90.00000000
_symmetry_Int_Tables_number   1
_chemical_formula_structural   FeClO
_chemical_formula_sum   'Fe2 Cl2 O2'
_cell_volume   103.12384033
_cell_formula_units_Z   2
loop_
 _symmetry_equiv_pos_site_id
 _symmetry_equiv_pos_as_xyz
  1  'x, y, z'
loop_
 _atom_site_type_symbol
 _atom_site_label
 _atom_site_symmetry_multiplicity
 _atom_site_fract_x
 _atom_site_fract_y
 _atom_site_fract_z
 _atom_site_occupancy
  Fe  Fe0  1  0.50000000  0.00000000  0.10924739  1
  Fe  Fe1  1  -0.00000000  0.50000000  0.89075261  1
  Cl  Cl0  1  0.00000000  -0.00000000  0.31957286  1
  Cl  Cl1  1  0.50000000  0.50000000  0.68042714  1
  O  O0  1  0.00000000  0.00000000  0.95295788  1
  O  O1  1  0.50000000  0.50000000  0.04704212  1
loop_
_geom_bond_atom_site_label_1
_geom_bond_atom_site_label_2
_geom_bond_distance
_geom_bond_site_symmetry_2
Fe0 O1 1.990170 1_545
Fe0 O1 1.990170 1_555
Fe0 O0 2.078019 1_654
Fe0 O0 2.078019 1_554
Fe1 O0 1.990170 1_555
Fe1 O0 1.990170 1_565
Fe1 O1 2.078019 1_456
Fe1 O1 2.078019 1_556
Cl0 Fe0 2.375517 1_555
Cl0 Fe0 2.375517 1_455
Cl1 Fe1 2.375517 1_655
Cl1 Fe1 2.375517 1_555
