# generated using pymatgen
data_Tl2CuAsO4
_symmetry_space_group_name_H-M   'P 1'
_cell_length_a   5.48876600
_cell_length_b   6.16701600
_cell_length_c   8.94657728
_cell_angle_alpha   80.53516675
_cell_angle_beta   90.00000000
_cell_angle_gamma   90.00000000
_symmetry_Int_Tables_number   1
_chemical_formula_structural   Tl2CuAsO4
_chemical_formula_sum   'Tl4 Cu2 As2 O8'
_cell_volume   298.71286322
_cell_formula_units_Z   2
loop_
 _symmetry_equiv_pos_site_id
 _symmetry_equiv_pos_as_xyz
  1  'x, y, z'
loop_
 _atom_site_type_symbol
 _atom_site_label
 _atom_site_symmetry_multiplicity
 _atom_site_fract_x
 _atom_site_fract_y
 _atom_site_fract_z
 _atom_site_occupancy
  Tl  Tl0  1  0.01194500  0.21133200  0.81461800  1
  Tl  Tl1  1  0.50052400  0.26610300  0.48820800  1
  Tl  Tl2  1  0.51194500  0.78866800  0.18538200  1
  Tl  Tl3  1  0.00052400  0.73389700  0.51179200  1
  Cu  Cu0  1  0.43708200  0.33605500  0.01223700  1
  Cu  Cu1  1  0.93708200  0.66394500  0.98776300  1
  As  As0  1  0.01115600  0.24379100  0.21765100  1
  As  As1  1  0.51115600  0.75620900  0.78234900  1
  O  O0  1  0.82717700  0.80430300  0.79697500  1
  O  O1  1  0.43049900  0.85744100  0.59818800  1
  O  O2  1  0.97882200  0.52950600  0.18863400  1
  O  O3  1  0.47882200  0.47049400  0.81136600  1
  O  O4  1  0.85019500  0.12083000  0.08954200  1
  O  O5  1  0.32717700  0.19569700  0.20302500  1
  O  O6  1  0.93049900  0.14255900  0.40181200  1
  O  O7  1  0.35019500  0.87917000  0.91045800  1
loop_
_geom_bond_atom_site_label_1
_geom_bond_atom_site_label_2
_geom_bond_distance
_geom_bond_site_symmetry_2
Cu0 O3 1.865327 1_554
Cu0 O5 1.881684 1_555
Cu0 O4 2.660753 1_555
Cu1 O2 1.865327 1_556
Cu1 O0 1.881684 1_555
Cu1 O7 2.660753 1_655
As0 O4 1.719018 1_455
As0 O6 1.721066 1_455
As0 O2 1.747320 1_455
As0 O5 1.768212 1_555
As1 O7 1.719018 1_555
As1 O1 1.721066 1_555
As1 O3 1.747320 1_555
As1 O0 1.768212 1_555
O0 Tl0 2.735799 1_665
O0 Tl3 2.822737 1_655
O1 Tl1 2.579118 1_565
O1 Tl3 2.634648 1_555
O4 Tl0 2.588048 1_654
O4 Tl2 2.792947 1_545
O5 Tl2 2.735799 1_545
O5 Tl1 2.822737 1_555
O6 Tl3 2.579118 1_645
O6 Tl1 2.634648 1_555
O7 Tl2 2.588048 1_556
O7 Tl0 2.792947 1_565
