# generated using pymatgen
data_AlF3
_symmetry_space_group_name_H-M   'P 1'
_cell_length_a   3.58978725
_cell_length_b   11.47306517
_cell_length_c   11.47306517
_cell_angle_alpha   90.00000000
_cell_angle_beta   90.00000000
_cell_angle_gamma   90.00000000
_symmetry_Int_Tables_number   1
_chemical_formula_structural   AlF3
_chemical_formula_sum   'Al10 F30'
_cell_volume   472.52809104
_cell_formula_units_Z   10
loop_
 _symmetry_equiv_pos_site_id
 _symmetry_equiv_pos_as_xyz
  1  'x, y, z'
loop_
 _atom_site_type_symbol
 _atom_site_label
 _atom_site_symmetry_multiplicity
 _atom_site_fract_x
 _atom_site_fract_y
 _atom_site_fract_z
 _atom_site_occupancy
  Al  Al0  1  0.00000000  0.70794471  0.42422090  1
  Al  Al1  1  0.00000000  0.57577910  0.70794471  1
  Al  Al2  1  0.00000000  0.92422090  0.20794471  1
  Al  Al3  1  -0.00000000  0.42422090  0.29205529  1
  Al  Al4  1  -0.00000000  0.07577910  0.79205529  1
  Al  Al5  1  -0.00000000  0.79205529  0.92422090  1
  Al  Al6  1  0.00000000  0.20794471  0.07577910  1
  Al  Al7  1  -0.00000000  0.29205529  0.57577910  1
  Al  Al8  1  0.00000000  0.50000000  -0.00000000  1
  Al  Al9  1  0.00000000  0.00000000  0.50000000  1
  F  F0  1  -0.00000000  0.34447361  0.00004562  1
  F  F1  1  -0.00000000  0.56704763  0.35885952  1
  F  F2  1  0.50000000  0.79157367  0.92297961  1
  F  F3  1  0.00000000  0.21533315  0.71533315  1
  F  F4  1  0.50000000  0.42297961  0.29157367  1
  F  F5  1  -0.00000000  0.85885952  0.06704763  1
  F  F6  1  0.00000000  0.35885952  0.43295237  1
  F  F7  1  -0.00000000  0.78466685  0.28466685  1
  F  F8  1  0.00000000  0.71533315  0.78466685  1
  F  F9  1  -0.00000000  0.50004562  0.84447361  1
  F  F10  1  0.50000000  0.57702039  0.70842633  1
  F  F11  1  0.50000000  0.20842633  0.07702039  1
  F  F12  1  -0.00000000  0.64114048  0.56704763  1
  F  F13  1  0.00000000  0.49995438  0.15552639  1
  F  F14  1  0.00000000  0.43295237  0.64114048  1
  F  F15  1  -0.00000000  0.84447361  0.49995438  1
  F  F16  1  0.50000000  0.29157367  0.57702039  1
  F  F17  1  -0.00000000  0.06704763  0.14114048  1
  F  F18  1  0.00000000  0.14114048  0.93295237  1
  F  F19  1  0.50000000  0.70842633  0.42297961  1
  F  F20  1  0.50000000  0.00000000  0.50000000  1
  F  F21  1  0.00000000  0.00004562  0.65552639  1
  F  F22  1  0.00000000  0.15552639  0.50004562  1
  F  F23  1  0.50000000  0.07702039  0.79157367  1
  F  F24  1  0.00000000  0.93295237  0.85885952  1
  F  F25  1  -0.00000000  -0.00004562  0.34447361  1
  F  F26  1  0.50000000  0.92297961  0.20842633  1
  F  F27  1  0.00000000  0.65552639  -0.00004562  1
  F  F28  1  -0.00000000  0.28466685  0.21533315  1
  F  F29  1  0.50000000  0.50000000  -0.00000000  1
loop_
_geom_bond_atom_site_label_1
_geom_bond_atom_site_label_2
_geom_bond_distance
_geom_bond_site_symmetry_2
Al0 F1 1.781989 1_555
Al0 F15 1.791257 1_555
Al0 F19 1.794959 1_555
Al0 F19 1.794959 1_455
Al0 F12 1.809047 1_555
Al0 F7 1.827124 1_555
Al1 F12 1.781989 1_555
Al1 F9 1.791257 1_555
Al1 F10 1.794959 1_555
Al1 F10 1.794959 1_455
Al1 F14 1.809047 1_555
Al1 F8 1.827124 1_555
Al2 F5 1.781989 1_555
Al2 F25 1.791257 1_565
Al2 F26 1.794959 1_455
Al2 F26 1.794959 1_555
Al2 F17 1.809047 1_565
Al2 F7 1.827124 1_555
Al3 F6 1.781989 1_555
Al3 F13 1.791257 1_555
Al3 F4 1.794959 1_555
Al3 F4 1.794959 1_455
Al3 F1 1.809047 1_555
Al3 F28 1.827124 1_555
Al4 F18 1.781989 1_555
Al4 F21 1.791257 1_555
Al4 F23 1.794959 1_455
Al4 F23 1.794959 1_555
Al4 F24 1.809047 1_545
Al4 F3 1.827124 1_555
Al5 F24 1.781989 1_555
Al5 F27 1.791257 1_556
Al5 F2 1.794959 1_455
Al5 F2 1.794959 1_555
Al5 F5 1.809047 1_556
Al5 F8 1.827124 1_555
Al6 F17 1.781989 1_555
Al6 F0 1.791257 1_555
Al6 F11 1.794959 1_455
Al6 F11 1.794959 1_555
Al6 F18 1.809047 1_554
Al6 F28 1.827124 1_555
Al7 F14 1.781989 1_555
Al7 F22 1.791257 1_555
Al7 F16 1.794959 1_555
Al7 F16 1.794959 1_455
Al7 F6 1.809047 1_555
Al7 F3 1.827124 1_555
Al8 F13 1.784364 1_555
Al8 F0 1.784364 1_555
Al8 F27 1.784364 1_555
Al8 F9 1.784364 1_554
Al8 F29 1.794894 1_555
Al8 F29 1.794894 1_455
Al9 F22 1.784364 1_555
Al9 F21 1.784364 1_555
Al9 F25 1.784364 1_555
Al9 F15 1.784364 1_545
Al9 F20 1.794894 1_455
Al9 F20 1.794894 1_555
