# generated using pymatgen
data_P4N6O
_symmetry_space_group_name_H-M   'P 1'
_cell_length_a   6.13371300
_cell_length_b   9.75467000
_cell_length_c   15.36019394
_cell_angle_alpha   72.16379363
_cell_angle_beta   90.00000000
_cell_angle_gamma   90.00000000
_symmetry_Int_Tables_number   1
_chemical_formula_structural   P4N6O
_chemical_formula_sum   'P24 N36 O6'
_cell_volume   874.86389906
_cell_formula_units_Z   6
loop_
 _symmetry_equiv_pos_site_id
 _symmetry_equiv_pos_as_xyz
  1  'x, y, z'
loop_
 _atom_site_type_symbol
 _atom_site_label
 _atom_site_symmetry_multiplicity
 _atom_site_fract_x
 _atom_site_fract_y
 _atom_site_fract_z
 _atom_site_occupancy
  P  P0  1  0.25854200  0.60304200  0.10369000  1
  P  P1  1  0.24742700  0.93751500  0.43792500  1
  P  P2  1  0.24970500  0.06241100  0.56239800  1
  P  P3  1  0.25113200  0.27439800  0.77153200  1
  P  P4  1  0.25504000  0.39800600  0.89385700  1
  P  P5  1  0.05272700  0.90776300  0.04640900  1
  P  P6  1  0.04796800  0.23953300  0.37954600  1
  P  P7  1  0.04282700  0.57576500  0.71421600  1
  P  P8  1  0.94727300  0.40776300  0.04640900  1
  P  P9  1  0.95203200  0.73953300  0.37954600  1
  P  P10  1  0.95717300  0.07576500  0.71421600  1
  P  P11  1  0.74145800  0.10304200  0.10369000  1
  P  P12  1  0.75583600  0.22647900  0.22822100  1
  P  P13  1  0.75257300  0.43751500  0.43792500  1
  P  P14  1  0.75029500  0.56241100  0.56239800  1
  P  P15  1  0.74886800  0.77439800  0.77153200  1
  P  P16  1  0.74496000  0.89800600  0.89385700  1
  P  P17  1  0.53951200  0.92571000  0.28543400  1
  P  P18  1  0.54390600  0.26165800  0.62083200  1
  P  P19  1  0.55349800  0.59285700  0.95654000  1
  P  P20  1  0.46048800  0.42571000  0.28543400  1
  P  P21  1  0.45609400  0.76165800  0.62083200  1
  P  P22  1  0.44650200  0.09285700  0.95654000  1
  P  P23  1  0.24416400  0.72647900  0.22822100  1
  N  N0  1  0.24027400  0.99618400  0.98983800  1
  N  N1  1  0.13500400  0.75069500  0.12127000  1
  N  N2  1  0.14983600  0.09180500  0.45469700  1
  N  N3  1  0.13967600  0.42531900  0.78995500  1
  N  N4  1  0.10287400  0.47545300  0.10305800  1
  N  N5  1  0.07405000  0.68160500  0.30804700  1
  N  N6  1  0.06684800  0.82300000  0.43961600  1
  N  N7  1  0.07087700  0.02210400  0.63916800  1
  N  N8  1  0.07991200  0.15444700  0.77471200  1
  N  N9  1  0.89712600  0.97545300  0.10305800  1
  N  N10  1  0.92595000  0.18160500  0.30804700  1
  N  N11  1  0.93315200  0.32300000  0.43961600  1
  N  N12  1  0.92912300  0.52210400  0.63916800  1
  N  N13  1  0.92008800  0.65444700  0.77471200  1
  N  N14  1  0.86499600  0.25069500  0.12127000  1
  N  N15  1  0.85016400  0.59180500  0.45469700  1
  N  N16  1  0.86032400  0.92531900  0.78995500  1
  N  N17  1  0.75972600  0.49618400  0.98983800  1
  N  N18  1  0.64732500  0.07410800  0.21265300  1
  N  N19  1  0.65183400  0.40750200  0.54645800  1
  N  N20  1  0.64062200  0.74813800  0.87794800  1
  N  N21  1  0.56143900  0.15577200  0.02879900  1
  N  N22  1  0.58600000  0.34923500  0.22376200  1
  N  N23  1  0.57447400  0.47802200  0.36127100  1
  N  N24  1  0.57266400  0.67857200  0.56114400  1
  N  N25  1  0.57743900  0.82111300  0.69220200  1
  N  N26  1  0.60567400  0.02693300  0.89672800  1
  N  N27  1  0.43856100  0.65577200  0.02879900  1
  N  N28  1  0.41400000  0.84923500  0.22376200  1
  N  N29  1  0.42552600  0.97802200  0.36127100  1
  N  N30  1  0.42733600  0.17857200  0.56114400  1
  N  N31  1  0.42256100  0.32111300  0.69220200  1
  N  N32  1  0.39432600  0.52693300  0.89672800  1
  N  N33  1  0.35267500  0.57410800  0.21265300  1
  N  N34  1  0.34816600  0.90750200  0.54645800  1
  N  N35  1  0.35937800  0.24813800  0.87794800  1
  O  O0  1  0.25570800  0.32840700  0.33036000  1
  O  O1  1  0.25448700  0.66656500  0.67200800  1
  O  O2  1  0.08535900  0.33988200  0.97570600  1
  O  O3  1  0.91464100  0.83988200  0.97570600  1
  O  O4  1  0.74429200  0.82840700  0.33036000  1
  O  O5  1  0.74551300  0.16656500  0.67200800  1
loop_
_geom_bond_atom_site_label_1
_geom_bond_atom_site_label_2
_geom_bond_distance
_geom_bond_site_symmetry_2
N0 P5 1.537270 1_556
N0 P22 1.566999 1_565
N1 P5 1.686749 1_555
N1 P0 1.720417 1_555
N1 P23 1.721957 1_555
N2 P6 1.667476 1_555
N2 P2 1.703999 1_555
N2 P1 1.710958 1_545
N3 P7 1.677538 1_555
N3 P4 1.690647 1_555
N3 P3 1.723361 1_555
N4 P8 1.567162 1_455
N4 P0 1.571045 1_555
N5 P23 1.566841 1_555
N5 P9 1.570265 1_455
N6 P1 1.567653 1_555
N6 P9 1.571762 1_455
N7 P10 1.568081 1_455
N7 P2 1.569787 1_555
N8 P3 1.561863 1_555
N8 P10 1.567236 1_455
N9 P5 1.567162 1_655
N9 P11 1.571045 1_565
N10 P12 1.566841 1_555
N10 P6 1.570265 1_655
N11 P13 1.567653 1_555
N11 P6 1.571762 1_655
N12 P7 1.568081 1_655
N12 P14 1.569787 1_555
N13 P15 1.561863 1_555
N13 P7 1.567236 1_655
N14 P8 1.686749 1_555
N14 P11 1.720417 1_555
N14 P12 1.721957 1_555
N15 P9 1.667476 1_555
N15 P14 1.703999 1_555
N15 P13 1.710958 1_555
N16 P10 1.677538 1_565
N16 P16 1.690647 1_555
N16 P15 1.723361 1_555
N17 P8 1.537270 1_556
N17 P19 1.566999 1_555
N18 P17 1.670687 1_545
N18 P11 1.710234 1_555
N18 P12 1.710870 1_555
N19 P18 1.664832 1_555
N19 P14 1.713099 1_555
N19 P13 1.716890 1_555
N20 P16 1.680869 1_555
N20 P19 1.707948 1_555
N20 P15 1.709318 1_555
N21 P11 1.563525 1_555
N21 P22 1.588346 1_554
N22 P12 1.572741 1_555
N22 P20 1.574624 1_555
N23 P13 1.565504 1_555
N23 P20 1.571711 1_555
N24 P14 1.567813 1_555
N24 P21 1.569668 1_555
N25 P15 1.567783 1_555
N25 P21 1.575308 1_555
N26 P16 1.532148 1_545
N26 P22 1.603964 1_555
N27 P0 1.563525 1_555
N27 P19 1.588346 1_554
N28 P23 1.572741 1_555
N28 P17 1.574624 1_555
N29 P1 1.565504 1_555
N29 P17 1.571711 1_555
N30 P2 1.567813 1_555
N30 P18 1.569668 1_555
N31 P3 1.567783 1_555
N31 P18 1.575308 1_555
N32 P4 1.532148 1_555
N32 P19 1.603964 1_555
N33 P20 1.670687 1_555
N33 P0 1.710234 1_555
N33 P23 1.710870 1_555
N34 P21 1.664832 1_555
N34 P2 1.713099 1_565
N34 P1 1.716890 1_555
N35 P4 1.680869 1_555
N35 P22 1.707948 1_555
N35 P3 1.709318 1_555
O0 P6 1.595232 1_555
O0 P20 1.597983 1_555
O1 P7 1.593280 1_555
O1 P21 1.600266 1_555
O2 P4 1.596435 1_555
O2 P8 1.666064 1_456
O3 P16 1.596435 1_555
O3 P5 1.666064 1_656
O4 P9 1.595232 1_555
O4 P17 1.597983 1_555
O5 P10 1.593280 1_555
O5 P18 1.600266 1_555
