# generated using pymatgen
data_Yb8Ge3Sb5
_symmetry_space_group_name_H-M   'P 1'
_cell_length_a   11.93623721
_cell_length_b   11.93623721
_cell_length_c   11.93623721
_cell_angle_alpha   94.67832401
_cell_angle_beta   94.67832401
_cell_angle_gamma   146.81180202
_symmetry_Int_Tables_number   1
_chemical_formula_structural   Yb8Ge3Sb5
_chemical_formula_sum   'Yb16 Ge6 Sb10'
_cell_volume   892.12335263
_cell_formula_units_Z   2
loop_
 _symmetry_equiv_pos_site_id
 _symmetry_equiv_pos_as_xyz
  1  'x, y, z'
loop_
 _atom_site_type_symbol
 _atom_site_label
 _atom_site_symmetry_multiplicity
 _atom_site_fract_x
 _atom_site_fract_y
 _atom_site_fract_z
 _atom_site_occupancy
  Yb  Yb0  1  0.60198100  0.39801900  0.50000000  1
  Yb  Yb1  1  0.62862500  0.62862500  0.25725000  1
  Yb  Yb2  1  0.89801900  0.10198100  0.50000000  1
  Yb  Yb3  1  0.62862500  0.37137500  0.00000000  1
  Yb  Yb4  1  0.10198100  0.60198100  0.20396300  1
  Yb  Yb5  1  0.81420100  0.00000000  0.81420100  1
  Yb  Yb6  1  0.39801900  0.89801900  0.79603700  1
  Yb  Yb7  1  0.60198100  0.10198100  0.20396300  1
  Yb  Yb8  1  0.89801900  0.39801900  0.79603700  1
  Yb  Yb9  1  0.00000000  0.81420100  0.81420100  1
  Yb  Yb10  1  0.39801900  0.60198100  0.50000000  1
  Yb  Yb11  1  0.18579900  0.00000000  0.18579900  1
  Yb  Yb12  1  0.00000000  0.18579900  0.18579900  1
  Yb  Yb13  1  0.37137500  0.37137500  0.74275000  1
  Yb  Yb14  1  0.10198100  0.89801900  0.50000000  1
  Yb  Yb15  1  0.37137500  0.62862500  0.00000000  1
  Ge  Ge0  1  0.61791200  0.00000000  0.61791200  1
  Ge  Ge1  1  0.00000000  0.38208800  0.38208800  1
  Ge  Ge2  1  0.00000000  0.61791200  0.61791200  1
  Ge  Ge3  1  0.38208800  0.00000000  0.38208800  1
  Ge  Ge4  1  0.25000000  0.75000000  0.50000000  1
  Ge  Ge5  1  0.75000000  0.25000000  0.50000000  1
  Sb  Sb0  1  0.77069700  0.50000000  0.27069700  1
  Sb  Sb1  1  0.19434200  0.80565800  0.00000000  1
  Sb  Sb2  1  0.80565800  0.19434200  0.00000000  1
  Sb  Sb3  1  0.80565800  0.80565800  0.61131600  1
  Sb  Sb4  1  0.50000000  0.22930300  0.72930300  1
  Sb  Sb5  1  0.19434200  0.19434200  0.38868400  1
  Sb  Sb6  1  0.50000000  0.77069700  0.27069700  1
  Sb  Sb7  1  0.23956300  0.23956300  0.00000000  1
  Sb  Sb8  1  0.22930300  0.50000000  0.72930300  1
  Sb  Sb9  1  0.76043700  0.76043700  0.00000000  1
loop_
_geom_bond_atom_site_label_1
_geom_bond_atom_site_label_2
_geom_bond_distance
_geom_bond_site_symmetry_2
Ge0 Ge4 2.558059 1_545
Ge0 Ge5 2.558059 1_555
Ge0 Yb6 2.979287 1_545
Ge0 Yb8 2.979291 1_555
Ge0 Yb10 2.979297 1_545
Ge0 Yb2 2.979297 1_555
Ge0 Yb5 3.175437 1_555
Ge1 Ge4 2.558059 1_555
Ge1 Ge5 2.558059 1_455
Ge1 Yb4 2.979287 1_555
Ge1 Yb7 2.979291 1_455
Ge1 Yb2 2.979297 1_455
Ge1 Yb10 2.979297 1_555
Ge1 Yb12 3.175437 1_555
Ge2 Ge4 2.558059 1_555
Ge2 Ge5 2.558059 1_455
Ge2 Yb8 2.979287 1_455
Ge2 Yb6 2.979291 1_555
Ge2 Yb0 2.979297 1_455
Ge2 Yb14 2.979297 1_555
Ge2 Yb9 3.175437 1_555
Ge3 Ge5 2.558059 1_555
Ge3 Ge4 2.558059 1_545
Ge3 Yb7 2.979287 1_555
Ge3 Yb4 2.979291 1_545
Ge3 Yb14 2.979297 1_545
Ge3 Yb0 2.979297 1_555
Ge3 Yb11 3.175437 1_555
Ge4 Yb6 3.386402 1_555
Ge4 Yb4 3.386402 1_555
Ge4 Yb10 3.386413 1_555
Ge4 Yb14 3.386413 1_555
Ge5 Yb8 3.386402 1_555
Ge5 Yb7 3.386402 1_555
Ge5 Yb2 3.386413 1_555
Ge5 Yb0 3.386413 1_555
Sb0 Yb1 3.100353 1_555
Sb0 Yb3 3.100353 1_555
Sb0 Yb4 3.219950 1_655
Sb0 Yb7 3.219954 1_555
Sb0 Yb14 3.219955 1_655
Sb0 Yb0 3.219955 1_555
Sb0 Yb11 3.675141 1_665
Sb0 Yb11 3.675141 1_555
Sb1 Yb11 3.146975 1_565
Sb1 Yb9 3.146975 1_554
Sb1 Yb7 3.157552 1_565
Sb1 Yb8 3.157552 1_454
Sb1 Yb4 3.157556 1_555
Sb1 Yb6 3.157556 1_554
Sb1 Yb3 3.725701 1_455
Sb1 Yb3 3.725701 1_565
Sb2 Yb5 3.146975 1_554
Sb2 Yb12 3.146975 1_655
Sb2 Yb6 3.157552 1_544
Sb2 Yb4 3.157552 1_655
Sb2 Yb7 3.157556 1_555
Sb2 Yb8 3.157556 1_554
Sb2 Yb15 3.725701 1_655
Sb2 Yb15 3.725701 1_545
Sb3 Yb9 3.146975 1_655
Sb3 Yb5 3.146975 1_565
Sb3 Yb10 3.157546 1_555
Sb3 Yb0 3.157546 1_555
Sb3 Yb2 3.157546 1_565
Sb3 Yb14 3.157546 1_655
Sb3 Yb13 3.725701 1_665
Sb3 Yb13 3.725701 1_555
Sb4 Yb3 3.100353 1_556
Sb4 Yb13 3.100353 1_555
Sb4 Yb6 3.219950 1_545
Sb4 Yb8 3.219954 1_555
Sb4 Yb14 3.219955 1_545
Sb4 Yb0 3.219955 1_555
Sb4 Yb9 3.675141 1_655
Sb4 Yb9 3.675141 1_545
Sb5 Yb12 3.146975 1_555
Sb5 Yb11 3.146975 1_555
Sb5 Yb0 3.157546 1_555
Sb5 Yb10 3.157546 1_555
Sb5 Yb14 3.157546 1_545
Sb5 Yb2 3.157546 1_455
Sb5 Yb1 3.725701 1_555
Sb5 Yb1 3.725701 1_445
Sb6 Yb1 3.100353 1_555
Sb6 Yb15 3.100353 1_555
Sb6 Yb7 3.219950 1_565
Sb6 Yb4 3.219954 1_555
Sb6 Yb10 3.219955 1_555
Sb6 Yb2 3.219955 1_565
Sb6 Yb12 3.675141 1_555
Sb6 Yb12 3.675141 1_665
Sb7 Yb12 3.420825 1_555
Sb7 Yb11 3.420825 1_555
Sb7 Yb5 3.420825 1_454
Sb7 Yb9 3.420825 1_544
Sb7 Yb1 3.436899 1_555
Sb7 Yb15 3.436899 1_555
Sb7 Yb13 3.436899 1_554
Sb7 Yb3 3.436899 1_555
Sb8 Yb15 3.100353 1_556
Sb8 Yb13 3.100353 1_555
Sb8 Yb8 3.219950 1_455
Sb8 Yb6 3.219954 1_555
Sb8 Yb10 3.219955 1_555
Sb8 Yb2 3.219955 1_455
Sb8 Yb5 3.675141 1_455
Sb8 Yb5 3.675141 1_565
Sb9 Yb12 3.420825 1_665
Sb9 Yb11 3.420825 1_665
Sb9 Yb5 3.420825 1_564
Sb9 Yb9 3.420825 1_654
Sb9 Yb1 3.436899 1_555
Sb9 Yb15 3.436899 1_555
Sb9 Yb13 3.436899 1_554
Sb9 Yb3 3.436899 1_555
