# generated using pymatgen
data_CS2(NCl)3
_symmetry_space_group_name_H-M   'P 1'
_cell_length_a   7.71574300
_cell_length_b   9.65845240
_cell_length_c   11.98297563
_cell_angle_alpha   85.22423259
_cell_angle_beta   77.87454171
_cell_angle_gamma   76.00105227
_symmetry_Int_Tables_number   1
_chemical_formula_structural   CS2(NCl)3
_chemical_formula_sum   'C4 S8 N12 Cl12'
_cell_volume   846.64846376
_cell_formula_units_Z   4
loop_
 _symmetry_equiv_pos_site_id
 _symmetry_equiv_pos_as_xyz
  1  'x, y, z'
loop_
 _atom_site_type_symbol
 _atom_site_label
 _atom_site_symmetry_multiplicity
 _atom_site_fract_x
 _atom_site_fract_y
 _atom_site_fract_z
 _atom_site_occupancy
  C  C0  1  0.74555800  0.32989800  0.62592400  1
  C  C1  1  0.74022500  0.90046200  0.16830000  1
  C  C2  1  0.25977500  0.09953800  0.83170000  1
  C  C3  1  0.25444200  0.67010200  0.37407600  1
  S  S0  1  0.80451000  0.57870900  0.63641600  1
  S  S1  1  0.03459300  0.33414000  0.89298200  1
  S  S2  1  0.19549000  0.42129100  0.36358400  1
  S  S3  1  0.96540700  0.66586000  0.10701800  1
  S  S4  1  0.52192700  0.48143200  0.78297200  1
  S  S5  1  0.69884100  0.80601200  0.98374900  1
  S  S6  1  0.47807300  0.51856800  0.21702800  1
  S  S7  1  0.30115900  0.19398800  0.01625100  1
  N  N0  1  0.87839900  0.79736400  0.19136600  1
  N  N1  1  0.34618000  0.07677000  0.91873900  1
  N  N2  1  0.33742900  0.41514500  0.24229200  1
  N  N3  1  0.15653800  0.57610900  0.41906000  1
  N  N4  1  0.83434300  0.66008100  0.01974900  1
  N  N5  1  0.16565700  0.33991900  0.98025100  1
  N  N6  1  0.12160100  0.20263600  0.80863400  1
  N  N7  1  0.84346200  0.42389100  0.58094000  1
  N  N8  1  0.60314900  0.33725100  0.71143400  1
  N  N9  1  0.65382000  0.92323000  0.08126100  1
  N  N10  1  0.39685100  0.66274900  0.28856600  1
  N  N11  1  0.66257100  0.58485500  0.75770800  1
  Cl  Cl0  1  0.70794600  0.41744800  0.29586500  1
  Cl  Cl1  1  0.85603100  0.89883400  0.84077800  1
  Cl  Cl2  1  0.79323500  0.26932000  0.99265300  1
  Cl  Cl3  1  0.20676500  0.73068000  0.00734700  1
  Cl  Cl4  1  0.34908400  0.97645200  0.72617500  1
  Cl  Cl5  1  0.14396900  0.10116600  0.15922200  1
  Cl  Cl6  1  0.29205400  0.58255200  0.70413500  1
  Cl  Cl7  1  0.33896400  0.28082400  0.47995400  1
  Cl  Cl8  1  0.65091600  0.02354800  0.27382500  1
  Cl  Cl9  1  0.82298600  0.16428800  0.56536200  1
  Cl  Cl10  1  0.17701400  0.83571200  0.43463800  1
  Cl  Cl11  1  0.66103600  0.71917600  0.52004600  1
loop_
_geom_bond_atom_site_label_1
_geom_bond_atom_site_label_2
_geom_bond_distance
_geom_bond_site_symmetry_2
C0 N8 1.328041 1_555
C0 N7 1.328376 1_555
C0 Cl9 1.729425 1_555
C1 N9 1.328019 1_555
C1 N0 1.330001 1_555
C1 Cl8 1.724825 1_565
C2 N1 1.328019 1_555
C2 N6 1.330001 1_555
C2 Cl4 1.724825 1_545
C3 N10 1.328041 1_555
C3 N3 1.328376 1_555
C3 Cl10 1.729425 1_555
N0 S3 1.612970 1_555
N1 S7 1.620883 1_556
N2 S6 1.613424 1_555
N2 S2 1.621605 1_555
N3 S2 1.622446 1_555
N4 S3 1.612646 1_555
N4 S5 1.625132 1_554
N5 S1 1.612646 1_555
N5 S7 1.625132 1_556
N6 S1 1.612970 1_555
N7 S0 1.622446 1_555
N8 S4 1.617930 1_555
N9 S5 1.620883 1_554
N10 S6 1.617930 1_555
N11 S4 1.613424 1_555
N11 S0 1.621605 1_555
Cl0 S6 2.168948 1_555
Cl1 S5 2.146444 1_555
Cl2 S1 2.188971 1_655
Cl3 S3 2.188971 1_455
Cl5 S7 2.146444 1_555
Cl6 S4 2.168948 1_555
Cl7 S2 2.148831 1_555
Cl11 S0 2.148831 1_555
