# generated using pymatgen
data_TiFe(BiO3)2
_symmetry_space_group_name_H-M   'P 1'
_cell_length_a   5.70885582
_cell_length_b   9.97085935
_cell_length_c   9.90784619
_cell_angle_alpha   79.48644687
_cell_angle_beta   106.69170436
_cell_angle_gamma   89.75455272
_symmetry_Int_Tables_number   1
_chemical_formula_structural   TiFe(BiO3)2
_chemical_formula_sum   'Ti4 Fe4 Bi8 O24'
_cell_volume   530.18028989
_cell_formula_units_Z   4
loop_
 _symmetry_equiv_pos_site_id
 _symmetry_equiv_pos_as_xyz
  1  'x, y, z'
loop_
 _atom_site_type_symbol
 _atom_site_label
 _atom_site_symmetry_multiplicity
 _atom_site_fract_x
 _atom_site_fract_y
 _atom_site_fract_z
 _atom_site_occupancy
  Ti  Ti0  1  0.18254200  0.91172200  0.36412200  1
  Ti  Ti1  1  0.43088800  0.16182600  0.86381500  1
  Ti  Ti2  1  0.68224900  0.41129800  0.36508000  1
  Ti  Ti3  1  0.93187800  0.66144900  0.86446300  1
  Fe  Fe0  1  0.55868700  0.78885500  0.11546700  1
  Fe  Fe1  1  0.80663400  0.03841000  0.61615600  1
  Fe  Fe2  1  0.05586800  0.28912300  0.11368800  1
  Fe  Fe3  1  0.30543800  0.53838300  0.61487700  1
  Bi  Bi0  1  0.12869300  0.63685200  0.25480300  1
  Bi  Bi1  1  0.37651100  0.88749100  0.75463900  1
  Bi  Bi2  1  0.62915200  0.13823300  0.25458500  1
  Bi  Bi3  1  0.87680100  0.38813200  0.75374600  1
  Bi  Bi4  1  0.00070600  0.00816800  0.00278100  1
  Bi  Bi5  1  0.25115600  0.25797200  0.50234500  1
  Bi  Bi6  1  0.50054900  0.50856600  0.00405600  1
  Bi  Bi7  1  0.75185600  0.75824300  0.50356500  1
  O  O0  1  0.91845500  0.84341000  0.19359400  1
  O  O1  1  0.17192200  0.09480400  0.69331700  1
  O  O2  1  0.42011300  0.34461400  0.19382000  1
  O  O3  1  0.67185000  0.59535300  0.69445400  1
  O  O4  1  0.14200000  0.70785000  0.46345300  1
  O  O5  1  0.38955800  0.95849600  0.96118700  1
  O  O6  1  0.63983800  0.20839100  0.46183700  1
  O  O7  1  0.89073700  0.45748000  0.96374100  1
  O  O8  1  0.40985300  0.79780900  0.28466700  1
  O  O9  1  0.66400100  0.04673000  0.78420600  1
  O  O10  1  0.91170900  0.29728200  0.28628100  1
  O  O11  1  0.16301900  0.54627900  0.78709400  1
  O  O12  1  0.21925200  0.67826600  0.01593000  1
  O  O13  1  0.46714200  0.92785000  0.51396800  1
  O  O14  1  0.71784400  0.17695500  0.01448800  1
  O  O15  1  0.96724300  0.42703200  0.51660800  1
  O  O16  1  0.43493400  0.46529000  0.44175200  1
  O  O17  1  0.68641900  0.71601500  0.94112100  1
  O  O18  1  0.93565600  0.96536800  0.44233000  1
  O  O19  1  0.18596800  0.21508400  0.94065800  1
  O  O20  1  0.68949300  0.57189600  0.23026800  1
  O  O21  1  0.94018000  0.82153500  0.72913300  1
  O  O22  1  0.18520200  0.07317800  0.22788300  1
  O  O23  1  0.43699700  0.32331000  0.72802500  1
loop_
_geom_bond_atom_site_label_1
_geom_bond_atom_site_label_2
_geom_bond_distance
_geom_bond_site_symmetry_2
Fe0 O5 2.079545 1_554
Fe0 O0 2.088874 1_555
Fe0 O8 2.100586 1_555
Fe0 O20 2.265260 1_555
Fe0 O17 2.284729 1_554
Fe0 O12 2.293653 1_555
Fe1 O9 2.066599 1_555
Fe1 O6 2.078736 1_555
Fe1 O1 2.121447 1_655
Fe1 O21 2.263321 1_545
Fe1 O18 2.284930 1_545
Fe1 O13 2.301086 1_545
Fe2 O7 2.045866 1_454
Fe2 O10 2.113463 1_455
Fe2 O2 2.117136 1_555
Fe2 O22 2.253626 1_555
Fe2 O19 2.285658 1_554
Fe2 O14 2.295830 1_455
Fe3 O4 2.057631 1_555
Fe3 O11 2.103357 1_555
Fe3 O3 2.132164 1_555
Fe3 O23 2.246056 1_555
Fe3 O16 2.280339 1_555
Fe3 O15 2.289388 1_455
Bi0 O0 2.270459 1_455
Bi0 O8 2.272022 1_555
Bi0 O4 2.285790 1_555
Bi0 O16 2.524175 1_555
Bi0 O12 2.527289 1_555
Bi0 O20 2.546863 1_455
Bi1 O1 2.262632 1_565
Bi1 O5 2.266352 1_555
Bi1 O9 2.283924 1_565
Bi1 O17 2.531925 1_555
Bi1 O21 2.532640 1_455
Bi1 O13 2.544789 1_555
Bi2 O10 2.264562 1_555
Bi2 O2 2.266109 1_555
Bi2 O6 2.272053 1_555
Bi2 O14 2.534313 1_555
Bi2 O18 2.535177 1_545
Bi2 O22 2.570156 1_555
Bi3 O3 2.263768 1_555
Bi3 O11 2.273241 1_655
Bi3 O7 2.289920 1_555
Bi3 O15 2.510640 1_555
Bi3 O19 2.540087 1_655
Bi3 O23 2.548166 1_555
Bi4 O14 2.368326 1_455
Bi4 O19 2.383940 1_554
Bi4 O22 2.384887 1_555
Bi4 O9 2.414765 1_454
Bi4 O0 2.424155 1_445
Bi4 O5 2.435913 1_544
Bi5 O16 2.379440 1_555
Bi5 O15 2.384034 1_455
Bi5 O23 2.392596 1_555
Bi5 O10 2.407463 1_455
Bi5 O1 2.409600 1_555
Bi5 O6 2.429755 1_555
Bi6 O12 2.369313 1_555
Bi6 O20 2.391464 1_555
Bi6 O17 2.391949 1_554
Bi6 O11 2.407209 1_554
Bi6 O2 2.408100 1_555
Bi6 O7 2.440599 1_554
Bi7 O13 2.376706 1_555
Bi7 O18 2.379330 1_555
Bi7 O21 2.385191 1_555
Bi7 O3 2.409374 1_555
Bi7 O8 2.433125 1_555
Bi7 O4 2.437814 1_655
O0 Ti0 2.134725 1_655
O1 Ti1 2.114636 1_555
O2 Ti2 2.126583 1_555
O3 Ti3 2.110060 1_555
O4 Ti0 2.135210 1_555
O5 Ti1 2.125496 1_565
O6 Ti2 2.121447 1_555
O7 Ti3 2.136722 1_555
O8 Ti0 2.119975 1_555
O9 Ti1 2.151839 1_555
O10 Ti2 2.125219 1_555
O11 Ti3 2.129986 1_455
O12 Ti3 1.910925 1_454
O13 Ti0 1.890381 1_555
O14 Ti1 1.901176 1_554
O15 Ti2 1.900170 1_555
O16 Ti2 1.902409 1_555
O17 Ti3 1.895295 1_555
O18 Ti0 1.909246 1_655
O19 Ti1 1.889268 1_555
O20 Ti2 1.897818 1_555
O21 Ti3 1.898424 1_555
O22 Ti0 1.906012 1_545
O23 Ti1 1.908063 1_555
