# generated using pymatgen
data_Sn3Te3Ir2
_symmetry_space_group_name_H-M   'P 1'
_cell_length_a   9.47555989
_cell_length_b   9.47555989
_cell_length_c   9.47555907
_cell_angle_alpha   89.93265734
_cell_angle_beta   89.93265734
_cell_angle_gamma   89.93265841
_symmetry_Int_Tables_number   1
_chemical_formula_structural   Sn3Te3Ir2
_chemical_formula_sum   'Sn12 Te12 Ir8'
_cell_volume   850.77301526
_cell_formula_units_Z   4
loop_
 _symmetry_equiv_pos_site_id
 _symmetry_equiv_pos_as_xyz
  1  'x, y, z'
loop_
 _atom_site_type_symbol
 _atom_site_label
 _atom_site_symmetry_multiplicity
 _atom_site_fract_x
 _atom_site_fract_y
 _atom_site_fract_z
 _atom_site_occupancy
  Sn  Sn0  1  0.17429500  0.66059800  0.50031300  1
  Sn  Sn1  1  0.82570500  0.33940200  0.49968700  1
  Sn  Sn2  1  0.33940200  0.49968700  0.82570500  1
  Sn  Sn3  1  0.49968700  0.82570500  0.33940200  1
  Sn  Sn4  1  0.66059800  0.50031300  0.17429500  1
  Sn  Sn5  1  0.50031300  0.17429500  0.66059800  1
  Sn  Sn6  1  0.32523600  0.16000600  0.99859700  1
  Sn  Sn7  1  0.16000600  0.99859700  0.32523600  1
  Sn  Sn8  1  0.00140300  0.67476400  0.83999400  1
  Sn  Sn9  1  0.83999400  0.00140300  0.67476400  1
  Sn  Sn10  1  0.67476400  0.83999400  0.00140300  1
  Sn  Sn11  1  0.99859700  0.32523600  0.16000600  1
  Te  Te0  1  0.84937800  0.99989400  0.34532500  1
  Te  Te1  1  0.34532500  0.84937800  0.99989400  1
  Te  Te2  1  0.49808400  0.15458600  0.34988900  1
  Te  Te3  1  0.34988900  0.49808400  0.15458600  1
  Te  Te4  1  0.84541400  0.65011100  0.50191600  1
  Te  Te5  1  0.15458600  0.34988900  0.49808400  1
  Te  Te6  1  0.50191600  0.84541400  0.65011100  1
  Te  Te7  1  0.65011100  0.50191600  0.84541400  1
  Te  Te8  1  0.00010600  0.65467500  0.15062200  1
  Te  Te9  1  0.15062200  0.00010600  0.65467500  1
  Te  Te10  1  0.65467500  0.15062200  0.00010600  1
  Te  Te11  1  0.99989400  0.34532500  0.84937800  1
  Ir  Ir0  1  0.75189400  0.75167000  0.25235100  1
  Ir  Ir1  1  0.75167000  0.25235100  0.75189400  1
  Ir  Ir2  1  0.25235100  0.75189400  0.75167000  1
  Ir  Ir3  1  0.24810600  0.24833000  0.74764900  1
  Ir  Ir4  1  0.24833000  0.74764900  0.24810600  1
  Ir  Ir5  1  0.74764900  0.24810600  0.24833000  1
  Ir  Ir6  1  0.25109000  0.25109000  0.25109000  1
  Ir  Ir7  1  0.74891000  0.74891000  0.74891000  1
loop_
_geom_bond_atom_site_label_1
_geom_bond_atom_site_label_2
_geom_bond_distance
_geom_bond_site_symmetry_2
Sn0 Te5 2.950380 1_555
Sn0 Te4 3.118051 1_455
Sn1 Te4 2.950380 1_555
Sn1 Te5 3.118051 1_655
Sn2 Te7 2.950380 1_555
Sn2 Te3 3.118051 1_556
Sn3 Te6 2.950380 1_555
Sn3 Te2 3.118051 1_565
Sn4 Te3 2.950380 1_555
Sn4 Te7 3.118051 1_554
Sn5 Te2 2.950380 1_555
Sn5 Te6 3.118051 1_545
Sn6 Te1 2.949312 1_545
Sn6 Te10 3.122830 1_556
Sn7 Te0 2.949312 1_455
Sn7 Te9 3.122829 1_565
Sn8 Te8 2.949312 1_556
Sn8 Te11 3.122830 1_455
Sn9 Te9 2.949312 1_655
Sn9 Te0 3.122829 1_545
Sn10 Te10 2.949312 1_565
Sn10 Te1 3.122830 1_554
Sn11 Te11 2.949312 1_554
Sn11 Te8 3.122830 1_655
Ir0 Sn3 2.622302 1_555
Ir0 Sn10 2.624276 1_555
Ir0 Sn4 2.641708 1_555
Ir0 Te0 2.678332 1_555
Ir0 Te8 2.701337 1_655
Ir0 Te4 2.702045 1_555
Ir1 Sn1 2.622301 1_555
Ir1 Sn9 2.624276 1_555
Ir1 Sn5 2.641708 1_555
Ir1 Te11 2.678332 1_555
Ir1 Te10 2.701337 1_556
Ir1 Te7 2.702045 1_555
Ir2 Sn2 2.622302 1_555
Ir2 Sn8 2.624276 1_555
Ir2 Sn0 2.641708 1_555
Ir2 Te1 2.678332 1_555
Ir2 Te9 2.701337 1_565
Ir2 Te6 2.702045 1_555
Ir3 Sn5 2.622302 1_555
Ir3 Sn6 2.624276 1_555
Ir3 Sn2 2.641708 1_555
Ir3 Te9 2.678332 1_555
Ir3 Te11 2.701337 1_455
Ir3 Te5 2.702045 1_555
Ir4 Sn0 2.622301 1_555
Ir4 Sn7 2.624276 1_555
Ir4 Sn3 2.641708 1_555
Ir4 Te8 2.678332 1_555
Ir4 Te1 2.701337 1_554
Ir4 Te3 2.702045 1_555
Ir5 Sn4 2.622302 1_555
Ir5 Sn11 2.624276 1_555
Ir5 Sn1 2.641708 1_555
Ir5 Te10 2.678332 1_555
Ir5 Te0 2.701337 1_545
Ir5 Te2 2.702045 1_555
Ir6 Sn6 2.638579 1_554
Ir6 Sn7 2.638579 1_545
Ir6 Sn11 2.638579 1_455
Ir6 Te5 2.681085 1_555
Ir6 Te3 2.681085 1_555
Ir6 Te2 2.681085 1_555
Ir7 Sn10 2.638579 1_556
Ir7 Sn9 2.638579 1_565
Ir7 Sn8 2.638579 1_655
Ir7 Te4 2.681085 1_555
Ir7 Te7 2.681085 1_555
Ir7 Te6 2.681085 1_555
