# generated using pymatgen
data_MgSiO3
_symmetry_space_group_name_H-M   'P 1'
_cell_length_a   5.34617629
_cell_length_b   5.34617629
_cell_length_c   5.34617681
_cell_angle_alpha   53.18962100
_cell_angle_beta   53.18962100
_cell_angle_gamma   53.18962004
_symmetry_Int_Tables_number   1
_chemical_formula_structural   MgSiO3
_chemical_formula_sum   'Mg2 Si2 O6'
_cell_volume   90.81105493
_cell_formula_units_Z   2
loop_
 _symmetry_equiv_pos_site_id
 _symmetry_equiv_pos_as_xyz
  1  'x, y, z'
loop_
 _atom_site_type_symbol
 _atom_site_label
 _atom_site_symmetry_multiplicity
 _atom_site_fract_x
 _atom_site_fract_y
 _atom_site_fract_z
 _atom_site_occupancy
  Mg  Mg0  1  0.36042400  0.36042400  0.36042400  1
  Mg  Mg1  1  0.63957600  0.63957600  0.63957600  1
  Si  Si0  1  0.15790300  0.15790300  0.15790300  1
  Si  Si1  1  0.84209700  0.84209700  0.84209700  1
  O  O0  1  0.79656400  0.04491300  0.43788700  1
  O  O1  1  0.43788700  0.79656400  0.04491300  1
  O  O2  1  0.04491300  0.43788700  0.79656400  1
  O  O3  1  0.20343600  0.95508700  0.56211300  1
  O  O4  1  0.95508700  0.56211300  0.20343600  1
  O  O5  1  0.56211300  0.20343600  0.95508700  1
loop_
_geom_bond_atom_site_label_1
_geom_bond_atom_site_label_2
_geom_bond_distance
_geom_bond_site_symmetry_2
Mg0 O0 2.015046 1_555
Mg0 O1 2.015046 1_555
Mg0 O2 2.015047 1_555
Mg0 O3 2.204068 1_545
Mg0 O4 2.204068 1_455
Mg0 O5 2.204068 1_554
Mg1 O3 2.015046 1_555
Mg1 O5 2.015046 1_555
Mg1 O4 2.015047 1_555
Mg1 O0 2.204068 1_565
Mg1 O2 2.204068 1_655
Mg1 O1 2.204068 1_556
O0 Si0 1.785210 1_655
O0 Si1 1.846887 1_545
O1 Si0 1.785210 1_565
O1 Si1 1.846886 1_554
O2 Si0 1.785210 1_556
O2 Si1 1.846887 1_455
O3 Si1 1.785210 1_455
O3 Si0 1.846887 1_565
O4 Si1 1.785210 1_554
O4 Si0 1.846887 1_655
O5 Si1 1.785210 1_545
O5 Si0 1.846886 1_556
