# generated using pymatgen
data_UPO5
_symmetry_space_group_name_H-M   'P 1'
_cell_length_a   5.48970943
_cell_length_b   8.81490795
_cell_length_c   9.22060849
_cell_angle_alpha   102.55565659
_cell_angle_beta   102.62287723
_cell_angle_gamma   97.79869790
_symmetry_Int_Tables_number   1
_chemical_formula_structural   UPO5
_chemical_formula_sum   'U4 P4 O20'
_cell_volume   417.06437423
_cell_formula_units_Z   4
loop_
 _symmetry_equiv_pos_site_id
 _symmetry_equiv_pos_as_xyz
  1  'x, y, z'
loop_
 _atom_site_type_symbol
 _atom_site_label
 _atom_site_symmetry_multiplicity
 _atom_site_fract_x
 _atom_site_fract_y
 _atom_site_fract_z
 _atom_site_occupancy
  U  U0  1  0.35464781  0.29824822  0.04979862  1
  U  U1  1  0.64535219  0.70175178  0.95020138  1
  U  U2  1  0.33832923  0.80405538  0.55342591  1
  U  U3  1  0.66167077  0.19594462  0.44657409  1
  P  P0  1  0.09422035  0.51359455  0.75959736  1
  P  P1  1  0.90577965  0.48640545  0.24040264  1
  P  P2  1  0.27402293  0.92218410  0.18086109  1
  P  P3  1  0.72597707  0.07781590  0.81913891  1
  O  O0  1  0.00829926  0.13752995  0.89019459  1
  O  O1  1  0.99170074  0.86247005  0.10980541  1
  O  O2  1  0.98069376  0.37199719  0.62594923  1
  O  O3  1  0.01930624  0.62800281  0.37405077  1
  O  O4  1  0.71918836  0.36076209  0.27673129  1
  O  O5  1  0.28081164  0.63923791  0.72326871  1
  O  O6  1  0.41983999  0.81303369  0.09438159  1
  O  O7  1  0.58016001  0.18696631  0.90561841  1
  O  O8  1  0.43653385  0.30650279  0.50594071  1
  O  O9  1  0.56346615  0.69349721  0.49405929  1
  O  O10  1  0.88584351  0.58932029  0.81711853  1
  O  O11  1  0.11415649  0.41067971  0.18288147  1
  O  O12  1  0.27252062  0.47228862  0.89505887  1
  O  O13  1  0.72747938  0.52771138  0.10494113  1
  O  O14  1  0.88097907  0.08634809  0.37815494  1
  O  O15  1  0.11902093  0.91365191  0.62184506  1
  O  O16  1  0.35227697  0.93244692  0.35346878  1
  O  O17  1  0.64772303  0.06755308  0.64653122  1
  O  O18  1  0.36228983  0.09436580  0.17540743  1
  O  O19  1  0.63771017  0.90563420  0.82459257  1
loop_
_geom_bond_atom_site_label_1
_geom_bond_atom_site_label_2
_geom_bond_distance
_geom_bond_site_symmetry_2
O0 P3 1.514352 1_455
O0 U0 2.219801 1_556
O1 P2 1.514352 1_655
O1 U1 2.219801 1_554
O2 P0 1.499805 1_655
O2 U3 2.256442 1_555
O3 P1 1.499805 1_455
O3 U2 2.256442 1_555
O4 P1 1.546441 1_555
O4 U3 2.396633 1_555
O4 U0 2.460920 1_555
O5 P0 1.546441 1_555
O5 U2 2.396633 1_555
O5 U1 2.460920 1_555
O6 P2 1.535187 1_555
O6 U1 2.178114 1_554
O7 P3 1.535187 1_555
O7 U0 2.178114 1_556
O8 U3 1.779772 1_555
O9 U2 1.779772 1_555
O10 P0 1.534252 1_655
O10 U1 2.182985 1_555
O11 P1 1.534252 1_455
O11 U0 2.182985 1_555
O12 P0 1.552693 1_555
O12 U0 2.334711 1_556
O12 U1 2.552148 1_555
O13 P1 1.552693 1_555
O13 U1 2.334711 1_554
O13 U0 2.552148 1_555
O14 U3 1.778597 1_555
O15 U2 1.778597 1_555
O16 P2 1.534204 1_555
O16 U2 2.373074 1_555
O16 U3 2.538095 1_565
O17 P3 1.534204 1_555
O17 U3 2.373074 1_555
O17 U2 2.538095 1_545
O18 P2 1.544404 1_545
O18 U0 2.340368 1_555
O18 U3 2.566263 1_555
O19 P3 1.544404 1_565
O19 U1 2.340368 1_555
O19 U2 2.566263 1_555
