# generated using pymatgen
data_K3Nb(SO4)4
_symmetry_space_group_name_H-M   'P 1'
_cell_length_a   8.15948900
_cell_length_b   12.75518100
_cell_length_c   14.88765000
_cell_angle_alpha   90.00000000
_cell_angle_beta   90.00000000
_cell_angle_gamma   90.00000000
_symmetry_Int_Tables_number   1
_chemical_formula_structural   K3Nb(SO4)4
_chemical_formula_sum   'K12 Nb4 S16 O64'
_cell_volume   1549.44347441
_cell_formula_units_Z   4
loop_
 _symmetry_equiv_pos_site_id
 _symmetry_equiv_pos_as_xyz
  1  'x, y, z'
loop_
 _atom_site_type_symbol
 _atom_site_label
 _atom_site_symmetry_multiplicity
 _atom_site_fract_x
 _atom_site_fract_y
 _atom_site_fract_z
 _atom_site_occupancy
  K  K0  1  0.86327200  0.75000000  0.93127800  1
  K  K1  1  0.36327200  0.75000000  0.56872200  1
  K  K2  1  0.60754200  0.48664500  0.72918400  1
  K  K3  1  0.63672800  0.25000000  0.43127800  1
  K  K4  1  0.10754200  0.48664500  0.77081600  1
  K  K5  1  0.89245800  0.98664500  0.22918400  1
  K  K6  1  0.60754200  0.01335500  0.72918400  1
  K  K7  1  0.39245800  0.98664500  0.27081600  1
  K  K8  1  0.39245800  0.51335500  0.27081600  1
  K  K9  1  0.10754200  0.01335500  0.77081600  1
  K  K10  1  0.13672800  0.25000000  0.06872200  1
  K  K11  1  0.89245800  0.51335500  0.22918400  1
  Nb  Nb0  1  0.14891100  0.25000000  0.51030900  1
  Nb  Nb1  1  0.85108900  0.75000000  0.48969100  1
  Nb  Nb2  1  0.35108900  0.75000000  0.01030900  1
  Nb  Nb3  1  0.64891100  0.25000000  0.98969100  1
  S  S0  1  0.56938900  0.75000000  0.15780100  1
  S  S1  1  0.72998100  0.54458100  0.47461400  1
  S  S2  1  0.87797400  0.75000000  0.68077300  1
  S  S3  1  0.22998100  0.54458100  0.02538600  1
  S  S4  1  0.37797400  0.75000000  0.81922700  1
  S  S5  1  0.93061100  0.25000000  0.65780100  1
  S  S6  1  0.22998100  0.95541900  0.02538600  1
  S  S7  1  0.12202600  0.25000000  0.31922700  1
  S  S8  1  0.62202600  0.25000000  0.18077300  1
  S  S9  1  0.06938900  0.75000000  0.34219900  1
  S  S10  1  0.72998100  0.95541900  0.47461400  1
  S  S11  1  0.43061100  0.25000000  0.84219900  1
  S  S12  1  0.77001900  0.04458100  0.97461400  1
  S  S13  1  0.27001900  0.04458100  0.52538600  1
  S  S14  1  0.77001900  0.45541900  0.97461400  1
  S  S15  1  0.27001900  0.45541900  0.52538600  1
  O  O0  1  0.66647900  0.01125400  0.55154800  1
  O  O1  1  0.88334000  0.84550300  0.73435900  1
  O  O2  1  0.87520000  0.34610500  0.70012100  1
  O  O3  1  0.72972800  0.01513500  0.39147400  1
  O  O4  1  0.51023200  0.75000000  0.89290200  1
  O  O5  1  0.90268800  0.91013200  0.49534200  1
  O  O6  1  0.59731200  0.08986800  0.99534200  1
  O  O7  1  0.61666000  0.34550300  0.23435900  1
  O  O8  1  0.72972800  0.48486500  0.39147400  1
  O  O9  1  0.77340000  0.25000000  0.11814500  1
  O  O10  1  0.35601600  0.15208300  0.53866400  1
  O  O11  1  0.85601600  0.34791700  0.96133600  1
  O  O12  1  0.37847200  0.75000000  0.15077900  1
  O  O13  1  0.89526200  0.25000000  0.55614400  1
  O  O14  1  0.16647900  0.01125400  0.94845200  1
  O  O15  1  0.38334000  0.84550300  0.76564100  1
  O  O16  1  0.10473800  0.75000000  0.44385600  1
  O  O17  1  0.61666000  0.15449700  0.23435900  1
  O  O18  1  0.37520000  0.15389500  0.79987900  1
  O  O19  1  0.77027200  0.51513500  0.89147400  1
  O  O20  1  0.85601600  0.15208300  0.96133600  1
  O  O21  1  0.40268800  0.58986800  0.00465800  1
  O  O22  1  0.27027200  0.51513500  0.60852600  1
  O  O23  1  0.62152800  0.25000000  0.84922100  1
  O  O24  1  0.22972800  0.01513500  0.10852600  1
  O  O25  1  0.77027200  0.98486500  0.89147400  1
  O  O26  1  0.09731200  0.41013200  0.50465800  1
  O  O27  1  0.14398400  0.84791700  0.03866400  1
  O  O28  1  0.66647900  0.48874600  0.55154800  1
  O  O29  1  0.01023200  0.75000000  0.60709800  1
  O  O30  1  0.22972800  0.48486500  0.10852600  1
  O  O31  1  0.09731200  0.08986800  0.50465800  1
  O  O32  1  0.33352100  0.51125400  0.44845200  1
  O  O33  1  0.62480000  0.65389500  0.20012100  1
  O  O34  1  0.27027200  0.98486500  0.60852600  1
  O  O35  1  0.11666000  0.34550300  0.26564100  1
  O  O36  1  0.14398400  0.65208300  0.03866400  1
  O  O37  1  0.64398400  0.65208300  0.46133600  1
  O  O38  1  0.33352100  0.98874600  0.44845200  1
  O  O39  1  0.16647900  0.48874600  0.94845200  1
  O  O40  1  0.72660000  0.75000000  0.61814500  1
  O  O41  1  0.62480000  0.84610500  0.20012100  1
  O  O42  1  0.27340000  0.25000000  0.38185500  1
  O  O43  1  0.39526200  0.25000000  0.94385600  1
  O  O44  1  0.87520000  0.15389500  0.70012100  1
  O  O45  1  0.83352100  0.51125400  0.05154800  1
  O  O46  1  0.12152800  0.25000000  0.65077900  1
  O  O47  1  0.64398400  0.84791700  0.46133600  1
  O  O48  1  0.12480000  0.65389500  0.29987900  1
  O  O49  1  0.11666000  0.15449700  0.26564100  1
  O  O50  1  0.87847200  0.75000000  0.34922100  1
  O  O51  1  0.88334000  0.65449700  0.73435900  1
  O  O52  1  0.60473800  0.75000000  0.05614400  1
  O  O53  1  0.90268800  0.58986800  0.49534200  1
  O  O54  1  0.48976800  0.25000000  0.10709800  1
  O  O55  1  0.35601600  0.34791700  0.53866400  1
  O  O56  1  0.12480000  0.84610500  0.29987900  1
  O  O57  1  0.59731200  0.41013200  0.99534200  1
  O  O58  1  0.22660000  0.75000000  0.88185500  1
  O  O59  1  0.98976800  0.25000000  0.39290200  1
  O  O60  1  0.83352100  0.98874600  0.05154800  1
  O  O61  1  0.37520000  0.34610500  0.79987900  1
  O  O62  1  0.38334000  0.65449700  0.76564100  1
  O  O63  1  0.40268800  0.91013200  0.00465800  1
loop_
_geom_bond_atom_site_label_1
_geom_bond_atom_site_label_2
_geom_bond_distance
_geom_bond_site_symmetry_2
K0 O52 2.811717 1_556
K0 O4 2.936737 1_555
K0 O58 3.054516 1_655
K0 O27 3.059744 1_656
K0 O36 3.059744 1_656
K0 O19 3.146662 1_555
K0 O25 3.146662 1_555
K0 O1 3.178893 1_555
K0 O51 3.178893 1_555
K1 O16 2.811717 1_555
K1 O29 2.936737 1_555
K1 O40 3.054516 1_555
K1 O47 3.059744 1_555
K1 O37 3.059744 1_555
K1 O22 3.146662 1_555
K1 O34 3.146662 1_555
K1 O62 3.178893 1_555
K1 O15 3.178893 1_555
K2 O28 2.688084 1_555
K2 O19 2.780775 1_555
K2 O61 2.813398 1_555
K2 O2 2.858378 1_555
K2 O62 2.867926 1_555
K2 O51 3.107074 1_555
K2 O22 3.306363 1_555
K3 O13 2.811717 1_555
K3 O59 2.936737 1_555
K3 O42 3.054516 1_555
K3 O55 3.059744 1_555
K3 O10 3.059744 1_555
K3 O8 3.146662 1_555
K3 O3 3.146662 1_555
K3 O7 3.178893 1_555
K3 O17 3.178893 1_555
K4 O39 2.688084 1_555
K4 O22 2.780775 1_555
K4 O2 2.813398 1_455
K4 O61 2.858378 1_555
K4 O51 2.867926 1_455
K4 O62 3.107074 1_555
K4 O19 3.306363 1_455
K5 O60 2.688084 1_555
K5 O3 2.780775 1_565
K5 O56 2.813398 1_655
K5 O41 2.858378 1_555
K5 O49 2.867926 1_665
K5 O17 3.107074 1_565
K5 O24 3.306363 1_665
K6 O0 2.688084 1_555
K6 O25 2.780775 1_545
K6 O18 2.813398 1_555
K6 O44 2.858378 1_555
K6 O15 2.867926 1_545
K6 O1 3.107074 1_545
K6 O34 3.306363 1_545
K7 O38 2.688084 1_555
K7 O24 2.780775 1_565
K7 O41 2.813398 1_555
K7 O56 2.858378 1_555
K7 O17 2.867926 1_565
K7 O49 3.107074 1_565
K7 O3 3.306363 1_565
K8 O32 2.688084 1_555
K8 O30 2.780775 1_555
K8 O33 2.813398 1_555
K8 O48 2.858378 1_555
K8 O7 2.867926 1_555
K8 O35 3.107074 1_555
K8 O8 3.306363 1_555
K9 O14 2.688084 1_555
K9 O34 2.780775 1_545
K9 O44 2.813398 1_455
K9 O18 2.858378 1_555
K9 O1 2.867926 1_445
K9 O15 3.107074 1_545
K9 O25 3.306363 1_445
K10 O43 2.811717 1_554
K10 O54 2.936737 1_555
K10 O9 3.054516 1_455
K10 O11 3.059744 1_454
K10 O20 3.059744 1_454
K10 O30 3.146662 1_555
K10 O24 3.146662 1_555
K10 O49 3.178893 1_555
K10 O35 3.178893 1_555
K11 O45 2.688084 1_555
K11 O8 2.780775 1_555
K11 O48 2.813398 1_655
K11 O33 2.858378 1_555
K11 O35 2.867926 1_655
K11 O7 3.107074 1_555
K11 O30 3.306363 1_655
Nb0 O26 2.087150 1_555
Nb0 O31 2.087150 1_555
Nb0 O46 2.103170 1_555
Nb0 O55 2.143301 1_555
Nb0 O10 2.143301 1_555
Nb0 O42 2.165403 1_555
Nb0 O59 2.177469 1_455
Nb0 O13 2.179237 1_455
Nb1 O5 2.087150 1_555
Nb1 O53 2.087150 1_555
Nb1 O50 2.103170 1_555
Nb1 O47 2.143301 1_555
Nb1 O37 2.143301 1_555
Nb1 O40 2.165403 1_555
Nb1 O29 2.177469 1_655
Nb1 O16 2.179237 1_655
Nb2 O63 2.087150 1_555
Nb2 O21 2.087150 1_555
Nb2 O12 2.103170 1_555
Nb2 O27 2.143301 1_555
Nb2 O36 2.143301 1_555
Nb2 O58 2.165403 1_554
Nb2 O4 2.177469 1_554
Nb2 O52 2.179237 1_555
Nb3 O57 2.087150 1_555
Nb3 O6 2.087150 1_555
Nb3 O23 2.103170 1_555
Nb3 O11 2.143301 1_555
Nb3 O20 2.143301 1_555
Nb3 O9 2.165403 1_556
Nb3 O54 2.177469 1_556
Nb3 O43 2.179237 1_555
O0 S10 1.444834 1_545
O1 S2 1.456799 1_555
O2 S5 1.450534 1_555
O3 S10 1.453348 1_545
O4 S4 1.538719 1_555
O5 S10 1.553946 1_555
O6 S12 1.553946 1_555
O7 S8 1.456799 1_555
O8 S1 1.453348 1_555
O9 S8 1.547545 1_555
O10 S13 1.552951 1_555
O11 S14 1.552951 1_555
O12 S0 1.561289 1_555
O13 S5 1.540673 1_555
O14 S6 1.444834 1_546
O15 S4 1.456799 1_555
O16 S9 1.540673 1_555
O17 S8 1.456799 1_555
O18 S11 1.450534 1_555
O19 S14 1.453348 1_555
O20 S12 1.552951 1_555
O21 S3 1.553946 1_555
O22 S15 1.453348 1_555
O23 S11 1.561289 1_555
O24 S6 1.453348 1_545
O25 S12 1.453348 1_565
O26 S15 1.553946 1_555
O27 S6 1.552951 1_555
O28 S1 1.444834 1_555
O29 S2 1.538719 1_455
O30 S3 1.453348 1_555
O31 S13 1.553946 1_555
O32 S15 1.444834 1_555
O33 S0 1.450534 1_555
O34 S13 1.453348 1_565
O35 S7 1.456799 1_555
O36 S3 1.552951 1_555
O37 S1 1.552951 1_555
O38 S13 1.444834 1_565
O39 S3 1.444834 1_556
O40 S2 1.547545 1_555
O41 S0 1.450534 1_555
O42 S7 1.547545 1_555
O43 S11 1.540673 1_555
O44 S5 1.450534 1_555
O45 S14 1.444834 1_554
O46 S5 1.561289 1_455
O47 S10 1.552951 1_555
O48 S9 1.450534 1_555
O49 S7 1.456799 1_555
O50 S9 1.561289 1_655
O51 S2 1.456799 1_555
O52 S0 1.540673 1_555
O53 S1 1.553946 1_555
O54 S8 1.538719 1_555
O55 S15 1.552951 1_555
O56 S9 1.450534 1_555
O57 S14 1.553946 1_555
O58 S4 1.547545 1_555
O59 S7 1.538719 1_655
O60 S12 1.444834 1_564
O61 S11 1.450534 1_555
O62 S4 1.456799 1_555
O63 S6 1.553946 1_555
