# generated using pymatgen
data_BaI2
_symmetry_space_group_name_H-M   'P 1'
_cell_length_a   9.24779625
_cell_length_b   9.24779541
_cell_length_c   5.24446703
_cell_angle_alpha   90.00000000
_cell_angle_beta   90.00000000
_cell_angle_gamma   120.00000676
_symmetry_Int_Tables_number   1
_chemical_formula_structural   BaI2
_chemical_formula_sum   'Ba3 I6'
_cell_volume   388.42612061
_cell_formula_units_Z   3
loop_
 _symmetry_equiv_pos_site_id
 _symmetry_equiv_pos_as_xyz
  1  'x, y, z'
loop_
 _atom_site_type_symbol
 _atom_site_label
 _atom_site_symmetry_multiplicity
 _atom_site_fract_x
 _atom_site_fract_y
 _atom_site_fract_z
 _atom_site_occupancy
  Ba  Ba0  1  0.00000000  0.00000000  0.50000000  1
  Ba  Ba1  1  0.66666700  0.33333300  0.00000000  1
  Ba  Ba2  1  0.33333300  0.66666700  0.00000000  1
  I  I0  1  0.59313505  0.00000000  0.50000000  1
  I  I1  1  0.00000000  0.25717171  -0.00000000  1
  I  I2  1  0.25717171  0.00000000  0.00000000  1
  I  I3  1  0.00000000  0.59313505  0.50000000  1
  I  I4  1  0.40686495  0.40686495  0.50000000  1
  I  I5  1  0.74282829  0.74282829  0.00000000  1
loop_
_geom_bond_atom_site_label_1
_geom_bond_atom_site_label_2
_geom_bond_distance
_geom_bond_site_symmetry_2
Ba0 I5 3.540096 1_445
Ba0 I5 3.540096 1_446
Ba0 I1 3.540097 1_556
Ba0 I1 3.540097 1_555
Ba0 I2 3.540097 1_556
Ba0 I2 3.540097 1_555
Ba0 I4 3.762604 1_555
Ba0 I3 3.762604 1_545
Ba0 I0 3.762604 1_455
Ba1 I1 3.488498 1_655
Ba1 I2 3.488503 1_555
Ba1 I5 3.488506 1_555
Ba1 I0 3.839886 1_555
Ba1 I0 3.839886 1_554
Ba1 I3 3.839888 1_655
Ba1 I3 3.839888 1_654
Ba1 I4 3.839893 1_554
Ba1 I4 3.839893 1_555
Ba2 I2 3.488497 1_565
Ba2 I1 3.488503 1_555
Ba2 I5 3.488507 1_555
Ba2 I3 3.839886 1_555
Ba2 I3 3.839886 1_554
Ba2 I0 3.839888 1_565
Ba2 I0 3.839888 1_564
Ba2 I4 3.839893 1_555
Ba2 I4 3.839893 1_554
