# generated using pymatgen
data_AsSXeNF10
_symmetry_space_group_name_H-M   'P 1'
_cell_length_a   9.10127800
_cell_length_b   12.78938700
_cell_length_c   16.78788400
_cell_angle_alpha   90.00000000
_cell_angle_beta   90.00000000
_cell_angle_gamma   90.00000000
_symmetry_Int_Tables_number   1
_chemical_formula_structural   AsSXeNF10
_chemical_formula_sum   'As8 S8 Xe8 N8 F80'
_cell_volume   1954.10577824
_cell_formula_units_Z   8
loop_
 _symmetry_equiv_pos_site_id
 _symmetry_equiv_pos_as_xyz
  1  'x, y, z'
loop_
 _atom_site_type_symbol
 _atom_site_label
 _atom_site_symmetry_multiplicity
 _atom_site_fract_x
 _atom_site_fract_y
 _atom_site_fract_z
 _atom_site_occupancy
  As  As0  1  0.22271800  0.09028300  0.13667300  1
  As  As1  1  0.72271800  0.09028300  0.36332700  1
  As  As2  1  0.77728200  0.59028300  0.36332700  1
  As  As3  1  0.72271800  0.40971700  0.86332700  1
  As  As4  1  0.22271800  0.40971700  0.63667300  1
  As  As5  1  0.77728200  0.90971700  0.86332700  1
  As  As6  1  0.27728200  0.59028300  0.13667300  1
  As  As7  1  0.27728200  0.90971700  0.63667300  1
  S  S0  1  0.78941600  0.84095900  0.56164800  1
  S  S1  1  0.71058400  0.34095900  0.56164800  1
  S  S2  1  0.28941600  0.65904100  0.43835200  1
  S  S3  1  0.21058400  0.15904100  0.43835200  1
  S  S4  1  0.71058400  0.15904100  0.06164800  1
  S  S5  1  0.78941600  0.65904100  0.06164800  1
  S  S6  1  0.21058400  0.34095900  0.93835200  1
  S  S7  1  0.28941600  0.84095900  0.93835200  1
  Xe  Xe0  1  0.94854800  0.68325500  0.70757700  1
  Xe  Xe1  1  0.55145200  0.18325500  0.70757700  1
  Xe  Xe2  1  0.44854800  0.68325500  0.79242300  1
  Xe  Xe3  1  0.05145200  0.31674500  0.29242300  1
  Xe  Xe4  1  0.44854800  0.81674500  0.29242300  1
  Xe  Xe5  1  0.94854800  0.81674500  0.20757700  1
  Xe  Xe6  1  0.05145200  0.18325500  0.79242300  1
  Xe  Xe7  1  0.55145200  0.31674500  0.20757700  1
  N  N0  1  0.31368200  0.75429300  0.39600400  1
  N  N1  1  0.68631800  0.24570700  0.60399600  1
  N  N2  1  0.18631800  0.24570700  0.89600400  1
  N  N3  1  0.68631800  0.25429300  0.10399600  1
  N  N4  1  0.31368200  0.74570700  0.89600400  1
  N  N5  1  0.18631800  0.25429300  0.39600400  1
  N  N6  1  0.81368200  0.75429300  0.10399600  1
  N  N7  1  0.81368200  0.74570700  0.60399600  1
  F  F0  1  0.14358100  0.65646800  0.48480500  1
  F  F1  1  0.03212000  0.08597600  0.15846300  1
  F  F2  1  0.23764000  0.95457000  0.15583000  1
  F  F3  1  0.61019400  0.12506700  0.99213000  1
  F  F4  1  0.68567400  0.06445200  0.46511300  1
  F  F5  1  0.38980600  0.87493300  0.00787000  1
  F  F6  1  0.23836300  0.88144000  0.73802000  1
  F  F7  1  0.26236000  0.04543000  0.65583000  1
  F  F8  1  0.43396000  0.37491600  0.29981100  1
  F  F9  1  0.79023500  0.72673800  0.38253700  1
  F  F10  1  0.06604000  0.62508400  0.79981100  1
  F  F11  1  0.29023500  0.77326200  0.61746300  1
  F  F12  1  0.22346600  0.44907100  0.89799400  1
  F  F13  1  0.31432600  0.93554800  0.53488700  1
  F  F14  1  0.73764000  0.54543000  0.84417000  1
  F  F15  1  0.43396000  0.12508400  0.79981100  1
  F  F16  1  0.22346600  0.05092900  0.39799400  1
  F  F17  1  0.18567400  0.43554800  0.53488700  1
  F  F18  1  0.41449200  0.40413700  0.61537000  1
  F  F19  1  0.76236000  0.04543000  0.84417000  1
  F  F20  1  0.03212000  0.41402400  0.65846300  1
  F  F21  1  0.76163700  0.11856000  0.26198000  1
  F  F22  1  0.18567400  0.06445200  0.03488700  1
  F  F23  1  0.81432600  0.56445200  0.46511300  1
  F  F24  1  0.72346600  0.05092900  0.10200600  1
  F  F25  1  0.26163700  0.38144000  0.73802000  1
  F  F26  1  0.77653400  0.94907100  0.60200600  1
  F  F27  1  0.88980600  0.87493300  0.49213000  1
  F  F28  1  0.08550800  0.59586300  0.11537000  1
  F  F29  1  0.72346600  0.44907100  0.60200600  1
  F  F30  1  0.11019400  0.12506700  0.50787000  1
  F  F31  1  0.61019400  0.37493300  0.49213000  1
  F  F32  1  0.76163700  0.38144000  0.76198000  1
  F  F33  1  0.20976500  0.22673800  0.11746300  1
  F  F34  1  0.35641900  0.34353200  0.98480500  1
  F  F35  1  0.26236000  0.45457000  0.15583000  1
  F  F36  1  0.38980600  0.62506700  0.50787000  1
  F  F37  1  0.81432600  0.93554800  0.96511300  1
  F  F38  1  0.77653400  0.55092900  0.10200600  1
  F  F39  1  0.76236000  0.45457000  0.34417000  1
  F  F40  1  0.53212000  0.08597600  0.34153700  1
  F  F41  1  0.79023500  0.77326200  0.88253700  1
  F  F42  1  0.46788000  0.91402400  0.65846300  1
  F  F43  1  0.73836300  0.88144000  0.76198000  1
  F  F44  1  0.88980600  0.62506700  0.99213000  1
  F  F45  1  0.56604000  0.87491600  0.20018900  1
  F  F46  1  0.73836300  0.61856000  0.26198000  1
  F  F47  1  0.31432600  0.56445200  0.03488700  1
  F  F48  1  0.96788000  0.58597600  0.34153700  1
  F  F49  1  0.27653400  0.94907100  0.89799400  1
  F  F50  1  0.85641900  0.34353200  0.51519500  1
  F  F51  1  0.64358100  0.84353200  0.51519500  1
  F  F52  1  0.14358100  0.84353200  0.98480500  1
  F  F53  1  0.70976500  0.27326200  0.88253700  1
  F  F54  1  0.20976500  0.27326200  0.61746300  1
  F  F55  1  0.91449200  0.09586300  0.38463000  1
  F  F56  1  0.41449200  0.09586300  0.11537000  1
  F  F57  1  0.73764000  0.95457000  0.34417000  1
  F  F58  1  0.27653400  0.55092900  0.39799400  1
  F  F59  1  0.85641900  0.15646800  0.01519500  1
  F  F60  1  0.56604000  0.62508400  0.70018900  1
  F  F61  1  0.58550800  0.59586300  0.38463000  1
  F  F62  1  0.08550800  0.90413700  0.61537000  1
  F  F63  1  0.46788000  0.58597600  0.15846300  1
  F  F64  1  0.23836300  0.61856000  0.23802000  1
  F  F65  1  0.29023500  0.72673800  0.11746300  1
  F  F66  1  0.64358100  0.65646800  0.01519500  1
  F  F67  1  0.11019400  0.37493300  0.00787000  1
  F  F68  1  0.23764000  0.54543000  0.65583000  1
  F  F69  1  0.93396000  0.12508400  0.70018900  1
  F  F70  1  0.53212000  0.41402400  0.84153700  1
  F  F71  1  0.35641900  0.15646800  0.48480500  1
  F  F72  1  0.96788000  0.91402400  0.84153700  1
  F  F73  1  0.93396000  0.37491600  0.20018900  1
  F  F74  1  0.68567400  0.43554800  0.96511300  1
  F  F75  1  0.91449200  0.40413700  0.88463000  1
  F  F76  1  0.70976500  0.22673800  0.38253700  1
  F  F77  1  0.26163700  0.11856000  0.23802000  1
  F  F78  1  0.58550800  0.90413700  0.88463000  1
  F  F79  1  0.06604000  0.87491600  0.29981100  1
loop_
_geom_bond_atom_site_label_1
_geom_bond_atom_site_label_2
_geom_bond_distance
_geom_bond_site_symmetry_2
As0 F2 1.770446 1_545
As0 F22 1.772769 1_555
As0 F1 1.773692 1_555
As0 F77 1.775112 1_555
As0 F33 1.778634 1_555
As0 F56 1.783080 1_555
As1 F57 1.770446 1_545
As1 F4 1.772769 1_555
As1 F40 1.773692 1_555
As1 F21 1.775112 1_555
As1 F76 1.778634 1_555
As1 F55 1.783080 1_555
As2 F39 1.770446 1_555
As2 F23 1.772769 1_555
As2 F48 1.773692 1_555
As2 F46 1.775112 1_555
As2 F9 1.778634 1_555
As2 F61 1.783080 1_555
As3 F14 1.770446 1_555
As3 F74 1.772769 1_555
As3 F70 1.773692 1_555
As3 F32 1.775112 1_555
As3 F53 1.778634 1_555
As3 F75 1.783080 1_555
As4 F68 1.770446 1_555
As4 F17 1.772769 1_555
As4 F20 1.773692 1_555
As4 F25 1.775112 1_555
As4 F54 1.778634 1_555
As4 F18 1.783080 1_555
As5 F19 1.770446 1_565
As5 F37 1.772769 1_555
As5 F72 1.773692 1_555
As5 F43 1.775112 1_555
As5 F41 1.778634 1_555
As5 F78 1.783080 1_555
As6 F35 1.770446 1_555
As6 F47 1.772769 1_555
As6 F63 1.773692 1_555
As6 F64 1.775112 1_555
As6 F65 1.778634 1_555
As6 F28 1.783080 1_555
As7 F7 1.770446 1_565
As7 F13 1.772769 1_555
As7 F42 1.773692 1_555
As7 F6 1.775112 1_555
As7 F11 1.778634 1_555
As7 F62 1.783080 1_555
N0 S2 1.427672 1_555
N0 Xe4 2.273410 1_555
N1 S1 1.427672 1_555
N1 Xe1 2.273410 1_555
N2 S6 1.427672 1_555
N2 Xe6 2.273410 1_555
N3 S4 1.427672 1_555
N3 Xe7 2.273410 1_555
N4 S7 1.427672 1_555
N4 Xe2 2.273410 1_555
N5 S3 1.427672 1_555
N5 Xe3 2.273410 1_555
N6 S5 1.427672 1_555
N6 Xe5 2.273410 1_555
N7 S0 1.427672 1_555
N7 Xe0 2.273410 1_555
F0 S2 1.539783 1_555
F3 S4 1.544549 1_556
F5 S7 1.544549 1_554
F8 Xe7 2.023497 1_555
F10 Xe0 2.023497 1_455
F12 S6 1.544218 1_555
F15 Xe1 2.023497 1_555
F16 S3 1.544218 1_555
F24 S4 1.544218 1_555
F26 S0 1.544218 1_555
F27 S0 1.544549 1_555
F29 S1 1.544218 1_555
F30 S3 1.544549 1_555
F31 S1 1.544549 1_555
F34 S6 1.539783 1_555
F36 S2 1.544549 1_555
F38 S5 1.544218 1_555
F44 S5 1.544549 1_556
F45 Xe4 2.023497 1_555
F49 S7 1.544218 1_555
F50 S1 1.539783 1_555
F51 S0 1.539783 1_555
F52 S7 1.539783 1_555
F58 S2 1.544218 1_555
F59 S4 1.539783 1_555
F60 Xe2 2.023497 1_555
F66 S5 1.539783 1_555
F67 S6 1.544549 1_554
F69 Xe6 2.023497 1_655
F71 S3 1.539783 1_555
F73 Xe3 2.023497 1_655
F79 Xe5 2.023497 1_455
