# generated using pymatgen
data_La2Ti2O7
_symmetry_space_group_name_H-M   'P 1'
_cell_length_a   5.54446040
_cell_length_b   7.77667229
_cell_length_c   13.06432967
_cell_angle_alpha   98.57158814
_cell_angle_beta   90.00000000
_cell_angle_gamma   90.00000000
_symmetry_Int_Tables_number   1
_chemical_formula_structural   La2Ti2O7
_chemical_formula_sum   'La8 Ti8 O28'
_cell_volume   557.00876566
_cell_formula_units_Z   4
loop_
 _symmetry_equiv_pos_site_id
 _symmetry_equiv_pos_as_xyz
  1  'x, y, z'
loop_
 _atom_site_type_symbol
 _atom_site_label
 _atom_site_symmetry_multiplicity
 _atom_site_fract_x
 _atom_site_fract_y
 _atom_site_fract_z
 _atom_site_occupancy
  La  La0  1  0.34637091  0.14740792  0.58077204  1
  La  La1  1  0.84637091  0.85259208  0.41922796  1
  La  La2  1  0.30134068  0.64963141  0.61012249  1
  La  La3  1  0.26013929  0.77294331  0.09813082  1
  La  La4  1  0.25454097  0.27881075  0.11481088  1
  La  La5  1  0.80134068  0.35036859  0.38987751  1
  La  La6  1  0.75454097  0.72118925  0.88518912  1
  La  La7  1  0.76013929  0.22705669  0.90186918  1
  Ti  Ti0  1  0.79672319  0.41788704  0.67457243  1
  Ti  Ti1  1  0.76558252  0.03063674  0.11806833  1
  Ti  Ti2  1  0.26446775  0.47360119  0.87969634  1
  Ti  Ti3  1  0.79257221  0.92339021  0.67828193  1
  Ti  Ti4  1  0.26558252  0.96936326  0.88193167  1
  Ti  Ti5  1  0.76446775  0.52639881  0.12030366  1
  Ti  Ti6  1  0.29672319  0.58211296  0.32542757  1
  Ti  Ti7  1  0.29257221  0.07660979  0.32171807  1
  O  O0  1  0.57275670  0.87743462  0.56970175  1
  O  O1  1  0.07275670  0.12256538  0.43029825  1
  O  O2  1  0.71506741  0.17461837  0.69549693  1
  O  O3  1  0.95608775  0.97186380  0.81417889  1
  O  O4  1  0.08403560  0.59570985  0.43945713  1
  O  O5  1  0.19001074  0.72709463  0.90745370  1
  O  O6  1  0.46796363  0.89683121  0.77417875  1
  O  O7  1  0.05516347  0.91430511  0.59189599  1
  O  O8  1  0.52446702  0.52499799  0.98087891  1
  O  O9  1  0.02446702  0.47500201  0.01912109  1
  O  O10  1  0.07167781  0.38305630  0.60353045  1
  O  O11  1  0.45608775  0.02813620  0.18582111  1
  O  O12  1  0.33206418  0.32679663  0.30780368  1
  O  O13  1  0.52416753  0.96631378  0.98314843  1
  O  O14  1  0.95076202  0.43780118  0.81579960  1
  O  O15  1  0.69001074  0.27290537  0.09254630  1
  O  O16  1  0.96796363  0.10316879  0.22582125  1
  O  O17  1  0.57167781  0.61694370  0.39646955  1
  O  O18  1  0.80333652  0.77610492  0.10715496  1
  O  O19  1  0.96180410  0.50903740  0.22948550  1
  O  O20  1  0.02416753  0.03368622  0.01685157  1
  O  O21  1  0.83206418  0.67320337  0.69219632  1
  O  O22  1  0.45076202  0.56219882  0.18420040  1
  O  O23  1  0.55516347  0.08569489  0.40810401  1
  O  O24  1  0.58403560  0.40429015  0.56054287  1
  O  O25  1  0.30333652  0.22389508  0.89284504  1
  O  O26  1  0.21506741  0.82538163  0.30450307  1
  O  O27  1  0.46180410  0.49096260  0.77051450  1
loop_
_geom_bond_atom_site_label_1
_geom_bond_atom_site_label_2
_geom_bond_distance
_geom_bond_site_symmetry_2
La0 O10 2.367248 1_555
La0 O0 2.431825 1_545
La0 O24 2.440159 1_555
La0 O7 2.447991 1_545
La0 O1 2.467804 1_555
La0 O23 2.517210 1_555
La0 O2 2.524975 1_555
La1 O17 2.367248 1_555
La1 O1 2.431825 1_665
La1 O4 2.440159 1_655
La1 O23 2.447991 1_565
La1 O0 2.467804 1_555
La1 O7 2.517210 1_655
La1 O26 2.524975 1_655
La2 O10 2.423477 1_555
La2 O0 2.441455 1_555
La2 O24 2.479537 1_555
La2 O7 2.510443 1_555
La2 O4 2.513965 1_555
La2 O27 2.734150 1_555
La2 O21 2.809718 1_455
La2 O6 2.813278 1_555
La3 O22 2.369958 1_555
La3 O11 2.398643 1_565
La3 O5 2.493787 1_554
La3 O18 2.535416 1_455
La3 O26 2.677694 1_555
La3 O8 2.707726 1_554
La3 O13 2.708174 1_554
La3 O9 2.725507 1_555
La3 O20 2.755492 1_565
La4 O15 2.431518 1_555
La4 O9 2.467067 1_555
La4 O20 2.485135 1_555
La4 O22 2.503334 1_555
La4 O12 2.529941 1_555
La4 O11 2.539422 1_555
La4 O16 2.661610 1_455
La4 O19 2.699029 1_455
La4 O25 2.880184 1_554
La5 O17 2.423477 1_555
La5 O1 2.441455 1_655
La5 O4 2.479537 1_655
La5 O23 2.510443 1_555
La5 O24 2.513965 1_555
La5 O19 2.734150 1_555
La5 O12 2.809718 1_555
La5 O16 2.813278 1_555
La6 O5 2.431518 1_655
La6 O8 2.467067 1_555
La6 O13 2.485135 1_555
La6 O14 2.503334 1_555
La6 O21 2.529941 1_555
La6 O3 2.539422 1_555
La6 O6 2.661610 1_555
La6 O27 2.699029 1_555
La6 O18 2.880184 1_556
La7 O14 2.369958 1_555
La7 O3 2.398643 1_545
La7 O15 2.493787 1_556
La7 O25 2.535416 1_555
La7 O2 2.677694 1_555
La7 O9 2.707726 1_656
La7 O20 2.708174 1_656
La7 O8 2.725507 1_555
La7 O13 2.755492 1_545
O0 Ti3 1.863919 1_555
O1 Ti7 1.863919 1_555
O2 Ti3 1.980222 1_545
O2 Ti0 2.003208 1_555
O3 Ti4 1.932248 1_655
O3 Ti3 1.979037 1_555
O4 Ti6 1.890527 1_555
O5 Ti2 1.993739 1_555
O5 Ti4 2.005896 1_555
O6 Ti4 1.822700 1_555
O6 Ti3 2.220040 1_555
O7 Ti3 1.837016 1_455
O8 Ti2 1.956455 1_555
O8 Ti5 2.254491 1_556
O9 Ti5 1.956455 1_455
O9 Ti2 2.254491 1_554
O10 Ti0 1.784336 1_455
O11 Ti1 1.932248 1_555
O11 Ti7 1.979037 1_555
O12 Ti6 1.974181 1_555
O12 Ti7 1.992952 1_555
O13 Ti4 1.952947 1_555
O13 Ti1 2.210409 1_566
O14 Ti2 1.931408 1_655
O14 Ti0 2.018018 1_555
O15 Ti5 1.993739 1_555
O15 Ti1 2.005896 1_555
O16 Ti1 1.822700 1_555
O16 Ti7 2.220040 1_655
O17 Ti6 1.784336 1_555
O18 Ti1 1.974357 1_565
O18 Ti5 1.986528 1_555
O19 Ti5 1.818605 1_555
O19 Ti6 2.264934 1_655
O20 Ti1 1.952947 1_455
O20 Ti4 2.210409 1_544
O21 Ti0 1.974181 1_555
O21 Ti3 1.992952 1_555
O22 Ti5 1.931408 1_555
O22 Ti6 2.018018 1_555
O23 Ti7 1.837016 1_555
O24 Ti0 1.890527 1_555
O25 Ti4 1.974357 1_545
O25 Ti2 1.986528 1_555
O26 Ti7 1.980222 1_565
O26 Ti6 2.003208 1_555
O27 Ti2 1.818605 1_555
O27 Ti0 2.264934 1_555
