# generated using pymatgen
data_TiIn2O5
_symmetry_space_group_name_H-M   'P 1'
_cell_length_a   3.51601024
_cell_length_b   7.27430298
_cell_length_c   14.95963191
_cell_angle_alpha   90.00000000
_cell_angle_beta   90.00000000
_cell_angle_gamma   90.00000000
_symmetry_Int_Tables_number   1
_chemical_formula_structural   TiIn2O5
_chemical_formula_sum   'Ti4 In8 O20'
_cell_volume   382.61538108
_cell_formula_units_Z   4
loop_
 _symmetry_equiv_pos_site_id
 _symmetry_equiv_pos_as_xyz
  1  'x, y, z'
loop_
 _atom_site_type_symbol
 _atom_site_label
 _atom_site_symmetry_multiplicity
 _atom_site_fract_x
 _atom_site_fract_y
 _atom_site_fract_z
 _atom_site_occupancy
  Ti  Ti0  1  0.75000000  0.39245743  0.07736818  1
  Ti  Ti1  1  0.25000000  0.60754257  0.92263182  1
  Ti  Ti2  1  0.75000000  0.89245743  0.42263182  1
  Ti  Ti3  1  0.25000000  0.10754257  0.57736818  1
  In  In0  1  0.75000000  0.40092250  0.41636190  1
  In  In1  1  0.25000000  0.59907750  0.58363810  1
  In  In2  1  0.75000000  0.90092250  0.08363810  1
  In  In3  1  0.25000000  0.09907750  0.91636190  1
  In  In4  1  0.25000000  0.17369244  0.26035157  1
  In  In5  1  0.75000000  0.82630756  0.73964843  1
  In  In6  1  0.25000000  0.67369244  0.23964843  1
  In  In7  1  0.75000000  0.32630756  0.76035157  1
  O  O0  1  0.75000000  0.25959778  0.18051730  1
  O  O1  1  0.25000000  0.74040222  0.81948270  1
  O  O2  1  0.75000000  0.75959778  0.31948270  1
  O  O3  1  0.25000000  0.24040222  0.68051730  1
  O  O4  1  0.75000000  0.15425036  0.00421760  1
  O  O5  1  0.25000000  0.84574964  0.99578240  1
  O  O6  1  0.75000000  0.65425036  0.49578240  1
  O  O7  1  0.25000000  0.34574964  0.50421760  1
  O  O8  1  0.75000000  0.12955309  0.35129218  1
  O  O9  1  0.25000000  0.87044691  0.64870782  1
  O  O10  1  0.75000000  0.62955309  0.14870782  1
  O  O11  1  0.25000000  0.37044691  0.85129218  1
  O  O12  1  0.25000000  0.44017335  0.32455983  1
  O  O13  1  0.75000000  0.55982665  0.67544017  1
  O  O14  1  0.25000000  0.94017335  0.17544017  1
  O  O15  1  0.75000000  0.05982665  0.82455983  1
  O  O16  1  0.25000000  0.42808311  0.04548120  1
  O  O17  1  0.75000000  0.57191689  0.95451880  1
  O  O18  1  0.25000000  0.92808311  0.45451880  1
  O  O19  1  0.75000000  0.07191689  0.54548120  1
loop_
_geom_bond_atom_site_label_1
_geom_bond_atom_site_label_2
_geom_bond_distance
_geom_bond_site_symmetry_2
In0 O6 2.192587 1_555
In0 O8 2.200980 1_555
In0 O7 2.231371 1_555
In0 O7 2.231371 1_655
In0 O12 2.249028 1_555
In0 O12 2.249028 1_655
In1 O7 2.192587 1_555
In1 O9 2.200980 1_555
In1 O6 2.231371 1_555
In1 O6 2.231371 1_455
In1 O13 2.249028 1_455
In1 O13 2.249028 1_555
In2 O4 2.192587 1_565
In2 O10 2.200980 1_555
In2 O5 2.231371 1_654
In2 O5 2.231371 1_554
In2 O14 2.249028 1_555
In2 O14 2.249028 1_655
In3 O5 2.192587 1_545
In3 O11 2.200980 1_555
In3 O4 2.231371 1_456
In3 O4 2.231371 1_556
In3 O15 2.249028 1_455
In3 O15 2.249028 1_555
In4 O14 2.121099 1_545
In4 O12 2.163391 1_555
In4 O0 2.215269 1_555
In4 O0 2.215269 1_455
In4 O8 2.245989 1_455
In4 O8 2.245989 1_555
In5 O15 2.121099 1_565
In5 O13 2.163391 1_555
In5 O1 2.215269 1_555
In5 O1 2.215269 1_655
In5 O9 2.245989 1_555
In5 O9 2.245989 1_655
In6 O12 2.121099 1_555
In6 O14 2.163391 1_555
In6 O2 2.215269 1_455
In6 O2 2.215269 1_555
In6 O10 2.245989 1_455
In6 O10 2.245989 1_555
In7 O13 2.121099 1_555
In7 O15 2.163391 1_555
In7 O3 2.215269 1_555
In7 O3 2.215269 1_655
In7 O11 2.245989 1_555
In7 O11 2.245989 1_655
O0 Ti0 1.820747 1_555
O1 Ti1 1.820747 1_555
O2 Ti2 1.820747 1_555
O3 Ti3 1.820747 1_555
O4 Ti0 2.049407 1_555
O5 Ti1 2.049407 1_555
O6 Ti2 2.049407 1_555
O7 Ti3 2.049407 1_555
O8 Ti2 2.028191 1_545
O9 Ti3 2.028191 1_565
O10 Ti0 2.028191 1_555
O11 Ti1 2.028191 1_555
O16 Ti0 1.839915 1_455
O16 Ti0 1.839915 1_555
O16 Ti1 2.254245 1_554
O17 Ti1 1.839915 1_555
O17 Ti1 1.839915 1_655
O17 Ti0 2.254245 1_556
O18 Ti2 1.839915 1_455
O18 Ti2 1.839915 1_555
O18 Ti3 2.254245 1_565
O19 Ti3 1.839915 1_555
O19 Ti3 1.839915 1_655
O19 Ti2 2.254245 1_545
