# generated using pymatgen
data_Na3Fe2P2O8F3
_symmetry_space_group_name_H-M   'P 1'
_cell_length_a   10.79922100
_cell_length_b   12.95190700
_cell_length_c   12.95589200
_cell_angle_alpha   90.00000000
_cell_angle_beta   90.00000000
_cell_angle_gamma   90.00000000
_symmetry_Int_Tables_number   1
_chemical_formula_structural   Na3Fe2P2O8F3
_chemical_formula_sum   'Na24 Fe16 P16 O64 F24'
_cell_volume   1812.14717056
_cell_formula_units_Z   8
loop_
 _symmetry_equiv_pos_site_id
 _symmetry_equiv_pos_as_xyz
  1  'x, y, z'
loop_
 _atom_site_type_symbol
 _atom_site_label
 _atom_site_symmetry_multiplicity
 _atom_site_fract_x
 _atom_site_fract_y
 _atom_site_fract_z
 _atom_site_occupancy
  Na  Na0  1  0.50000000  0.12509100  0.13248500  1
  Na  Na1  1  0.00000000  0.13043100  0.87838800  1
  Na  Na2  1  0.50000000  0.90789500  0.62465400  1
  Na  Na3  1  0.50000000  0.40789500  0.87534600  1
  Na  Na4  1  0.00000000  0.34072000  0.62382300  1
  Na  Na5  1  0.00000000  0.87692100  0.59052800  1
  Na  Na6  1  0.00000000  0.12307900  0.40947200  1
  Na  Na7  1  0.00000000  0.62307900  0.09052800  1
  Na  Na8  1  0.50000000  0.09210500  0.37534600  1
  Na  Na9  1  0.00000000  0.63043100  0.62161200  1
  Na  Na10  1  0.50000000  0.87927500  0.15574200  1
  Na  Na11  1  0.00000000  0.37692100  0.90947200  1
  Na  Na12  1  0.50000000  0.59210500  0.12465400  1
  Na  Na13  1  0.50000000  0.87490900  0.86751500  1
  Na  Na14  1  0.00000000  0.65928000  0.37617700  1
  Na  Na15  1  0.50000000  0.12072500  0.84425800  1
  Na  Na16  1  0.00000000  0.15928000  0.12382300  1
  Na  Na17  1  0.00000000  0.84072000  0.87617700  1
  Na  Na18  1  0.50000000  0.37490900  0.63248500  1
  Na  Na19  1  0.50000000  0.62509100  0.36751500  1
  Na  Na20  1  0.00000000  0.36956900  0.37838800  1
  Na  Na21  1  0.00000000  0.86956900  0.12161200  1
  Na  Na22  1  0.50000000  0.62072500  0.65574200  1
  Na  Na23  1  0.50000000  0.37927500  0.34425800  1
  Fe  Fe0  1  0.68926800  0.24847000  0.49723100  1
  Fe  Fe1  1  0.68926800  0.74847000  0.00276900  1
  Fe  Fe2  1  0.18908300  0.00221100  0.25147400  1
  Fe  Fe3  1  0.81091700  0.00221100  0.25147400  1
  Fe  Fe4  1  0.68926800  0.25153000  0.99723100  1
  Fe  Fe5  1  0.31073200  0.25153000  0.99723100  1
  Fe  Fe6  1  0.18908300  0.50221100  0.24852600  1
  Fe  Fe7  1  0.81091700  0.49778900  0.75147400  1
  Fe  Fe8  1  0.18908300  0.49778900  0.75147400  1
  Fe  Fe9  1  0.31073200  0.74847000  0.00276900  1
  Fe  Fe10  1  0.31073200  0.24847000  0.49723100  1
  Fe  Fe11  1  0.18908300  0.99778900  0.74852600  1
  Fe  Fe12  1  0.68926800  0.75153000  0.50276900  1
  Fe  Fe13  1  0.81091700  0.50221100  0.24852600  1
  Fe  Fe14  1  0.31073200  0.75153000  0.50276900  1
  Fe  Fe15  1  0.81091700  0.99778900  0.74852600  1
  P  P0  1  0.74996800  0.75080000  0.74866700  1
  P  P1  1  0.25003200  0.24920000  0.25133300  1
  P  P2  1  0.24999000  0.00000000  0.00000000  1
  P  P3  1  0.24976100  0.50000000  0.00000000  1
  P  P4  1  0.75001000  0.50000000  0.50000000  1
  P  P5  1  0.25003200  0.25080000  0.75133300  1
  P  P6  1  0.75023900  0.00000000  0.50000000  1
  P  P7  1  0.74996800  0.74920000  0.24866700  1
  P  P8  1  0.24976100  0.00000000  0.50000000  1
  P  P9  1  0.74996800  0.24920000  0.25133300  1
  P  P10  1  0.24999000  0.50000000  0.50000000  1
  P  P11  1  0.75001000  0.00000000  0.00000000  1
  P  P12  1  0.25003200  0.75080000  0.74866700  1
  P  P13  1  0.75023900  0.50000000  0.00000000  1
  P  P14  1  0.25003200  0.74920000  0.24866700  1
  P  P15  1  0.74996800  0.25080000  0.75133300  1
  O  O0  1  0.67462800  0.25699200  0.65014400  1
  O  O1  1  0.67462800  0.74300800  0.34985600  1
  O  O2  1  0.15653400  0.65807900  0.24191900  1
  O  O3  1  0.83698800  0.01084700  0.09504300  1
  O  O4  1  0.66490800  0.09587900  0.49770000  1
  O  O5  1  0.84346600  0.15807900  0.25808100  1
  O  O6  1  0.16428900  0.00140500  0.59584800  1
  O  O7  1  0.16301200  0.01084700  0.09504300  1
  O  O8  1  0.84346600  0.34192100  0.75808100  1
  O  O9  1  0.33692400  0.40490100  0.48940700  1
  O  O10  1  0.66490800  0.40412100  0.99770000  1
  O  O11  1  0.83698800  0.51084700  0.40495700  1
  O  O12  1  0.82708100  0.15056800  0.75866900  1
  O  O13  1  0.33692400  0.59509900  0.51059300  1
  O  O14  1  0.32537200  0.74300800  0.34985600  1
  O  O15  1  0.15653400  0.34192100  0.75808100  1
  O  O16  1  0.17291900  0.15056800  0.75866900  1
  O  O17  1  0.65486300  0.75638900  0.65867500  1
  O  O18  1  0.16301200  0.51084700  0.40495700  1
  O  O19  1  0.65486300  0.74361100  0.15867500  1
  O  O20  1  0.15653400  0.84192100  0.74191900  1
  O  O21  1  0.17291900  0.65056800  0.74133100  1
  O  O22  1  0.82708100  0.84943200  0.24133100  1
  O  O23  1  0.15653400  0.15807900  0.25808100  1
  O  O24  1  0.65486300  0.24361100  0.34132500  1
  O  O25  1  0.33692400  0.90490100  0.01059300  1
  O  O26  1  0.32537200  0.24300800  0.15014400  1
  O  O27  1  0.82708100  0.65056800  0.74133100  1
  O  O28  1  0.33509200  0.90412100  0.50230000  1
  O  O29  1  0.33692400  0.09509900  0.98940700  1
  O  O30  1  0.32537200  0.25699200  0.65014400  1
  O  O31  1  0.83571100  0.99859500  0.40415200  1
  O  O32  1  0.82708100  0.34943200  0.25866900  1
  O  O33  1  0.83571100  0.00140500  0.59584800  1
  O  O34  1  0.67462800  0.24300800  0.15014400  1
  O  O35  1  0.16428900  0.49859500  0.09584800  1
  O  O36  1  0.66307600  0.09509900  0.98940700  1
  O  O37  1  0.83571100  0.49859500  0.09584800  1
  O  O38  1  0.34513700  0.75638900  0.65867500  1
  O  O39  1  0.84346600  0.84192100  0.74191900  1
  O  O40  1  0.16428900  0.50140500  0.90415200  1
  O  O41  1  0.16301200  0.48915300  0.59504300  1
  O  O42  1  0.17291900  0.34943200  0.25866900  1
  O  O43  1  0.67462800  0.75699200  0.84985600  1
  O  O44  1  0.83571100  0.50140500  0.90415200  1
  O  O45  1  0.32537200  0.75699200  0.84985600  1
  O  O46  1  0.33509200  0.40412100  0.99770000  1
  O  O47  1  0.34513700  0.24361100  0.34132500  1
  O  O48  1  0.83698800  0.48915300  0.59504300  1
  O  O49  1  0.33509200  0.59587900  0.00230000  1
  O  O50  1  0.84346600  0.65807900  0.24191900  1
  O  O51  1  0.65486300  0.25638900  0.84132500  1
  O  O52  1  0.66307600  0.40490100  0.48940700  1
  O  O53  1  0.83698800  0.98915300  0.90495700  1
  O  O54  1  0.33509200  0.09587900  0.49770000  1
  O  O55  1  0.66490800  0.90412100  0.50230000  1
  O  O56  1  0.66307600  0.59509900  0.51059300  1
  O  O57  1  0.66490800  0.59587900  0.00230000  1
  O  O58  1  0.16428900  0.99859500  0.40415200  1
  O  O59  1  0.16301200  0.98915300  0.90495700  1
  O  O60  1  0.34513700  0.74361100  0.15867500  1
  O  O61  1  0.17291900  0.84943200  0.24133100  1
  O  O62  1  0.34513700  0.25638900  0.84132500  1
  O  O63  1  0.66307600  0.90490100  0.01059300  1
  F  F0  1  0.36903700  0.51221900  0.25747600  1
  F  F1  1  0.86921400  0.75691900  0.01221200  1
  F  F2  1  0.00000000  0.49781800  0.74652500  1
  F  F3  1  0.36903700  0.48778100  0.74252400  1
  F  F4  1  0.00000000  0.99781800  0.75347500  1
  F  F5  1  0.13078600  0.25691900  0.48778800  1
  F  F6  1  0.00000000  0.00218200  0.24652500  1
  F  F7  1  0.00000000  0.50218200  0.25347500  1
  F  F8  1  0.36903700  0.98778100  0.75747600  1
  F  F9  1  0.63096300  0.98778100  0.75747600  1
  F  F10  1  0.13078600  0.24308100  0.98778800  1
  F  F11  1  0.50000000  0.75312500  0.00102700  1
  F  F12  1  0.36903700  0.01221900  0.24252400  1
  F  F13  1  0.50000000  0.74687500  0.50102700  1
  F  F14  1  0.50000000  0.24687500  0.99897300  1
  F  F15  1  0.63096300  0.48778100  0.74252400  1
  F  F16  1  0.86921400  0.24308100  0.98778800  1
  F  F17  1  0.13078600  0.74308100  0.51221200  1
  F  F18  1  0.50000000  0.25312500  0.49897300  1
  F  F19  1  0.86921400  0.25691900  0.48778800  1
  F  F20  1  0.86921400  0.74308100  0.51221200  1
  F  F21  1  0.63096300  0.01221900  0.24252400  1
  F  F22  1  0.63096300  0.51221900  0.25747600  1
  F  F23  1  0.13078600  0.75691900  0.01221200  1
loop_
_geom_bond_atom_site_label_1
_geom_bond_atom_site_label_2
_geom_bond_distance
_geom_bond_site_symmetry_2
Na0 O34 2.437469 1_555
Na0 O26 2.437469 1_555
Na0 O36 2.586226 1_554
Na0 O29 2.586226 1_554
Na1 O16 2.441511 1_555
Na1 O12 2.441511 1_455
Na1 O59 2.562372 1_545
Na1 O53 2.562372 1_445
Na2 O28 2.384699 1_555
Na2 O55 2.384699 1_555
Na2 O17 2.615681 1_555
Na2 O38 2.615681 1_555
Na3 O46 2.384699 1_555
Na3 O10 2.384699 1_555
Na3 O51 2.615681 1_555
Na3 O62 2.615681 1_555
Na4 O15 2.425587 1_555
Na4 O8 2.425587 1_455
Na4 O41 2.633253 1_555
Na4 O48 2.633253 1_455
Na5 O33 2.398341 1_465
Na5 O6 2.398341 1_565
Na5 O39 2.628728 1_455
Na5 O20 2.628728 1_555
Na6 O31 2.398341 1_445
Na6 O58 2.398341 1_545
Na6 O5 2.628728 1_455
Na6 O23 2.628728 1_555
Na7 O37 2.398341 1_455
Na7 O35 2.398341 1_555
Na7 O50 2.628728 1_455
Na7 O2 2.628728 1_555
Na8 O54 2.384699 1_555
Na8 O4 2.384699 1_555
Na8 O24 2.615681 1_555
Na8 O47 2.615681 1_555
Na9 O21 2.441511 1_555
Na9 O27 2.441511 1_455
Na9 O41 2.562372 1_555
Na9 O48 2.562372 1_455
Na10 O60 2.426065 1_555
Na10 O19 2.426065 1_555
Na10 O25 2.597696 1_555
Na10 O63 2.597696 1_555
Na11 O44 2.398341 1_455
Na11 O40 2.398341 1_555
Na11 O15 2.628728 1_555
Na11 O8 2.628728 1_455
Na12 O49 2.384699 1_555
Na12 O57 2.384699 1_555
Na12 O60 2.615681 1_555
Na12 O19 2.615681 1_555
Na13 O45 2.437469 1_555
Na13 O43 2.437469 1_555
Na13 O63 2.586226 1_556
Na13 O25 2.586226 1_556
Na14 O2 2.425587 1_555
Na14 O50 2.425587 1_455
Na14 O18 2.633253 1_555
Na14 O11 2.633253 1_455
Na15 O51 2.426065 1_555
Na15 O62 2.426065 1_555
Na15 O29 2.597696 1_555
Na15 O36 2.597696 1_555
Na16 O23 2.425587 1_555
Na16 O5 2.425587 1_455
Na16 O7 2.633253 1_555
Na16 O3 2.633253 1_455
Na17 O20 2.425587 1_555
Na17 O39 2.425587 1_455
Na17 O59 2.633253 1_555
Na17 O53 2.633253 1_455
Na18 O0 2.437469 1_555
Na18 O30 2.437469 1_555
Na18 O52 2.586226 1_555
Na18 O9 2.586226 1_555
Na19 O14 2.437469 1_555
Na19 O1 2.437469 1_555
Na19 O13 2.586226 1_555
Na19 O56 2.586226 1_555
Na20 O42 2.441511 1_555
Na20 O32 2.441511 1_455
Na20 O18 2.562372 1_555
Na20 O11 2.562372 1_455
Na21 O61 2.441511 1_555
Na21 O22 2.441511 1_455
Na21 O7 2.562372 1_565
Na21 O3 2.562372 1_465
Na22 O38 2.426065 1_555
Na22 O17 2.426065 1_555
Na22 O13 2.597696 1_555
Na22 O56 2.597696 1_555
Na23 O47 2.426065 1_555
Na23 O24 2.426065 1_555
Na23 O52 2.597696 1_555
Na23 O9 2.597696 1_555
Fe0 O0 1.990485 1_555
Fe0 O4 1.993785 1_555
Fe0 O52 2.048238 1_555
Fe0 O24 2.054753 1_555
Fe1 O43 1.990485 1_554
Fe1 O57 1.993785 1_555
Fe1 O63 2.048238 1_555
Fe1 O19 2.054753 1_555
Fe2 O61 1.990806 1_545
Fe2 O58 1.996669 1_545
Fe2 O7 2.049221 1_555
Fe2 O23 2.050948 1_555
Fe3 O22 1.990806 1_545
Fe3 O31 1.996669 1_545
Fe3 O3 2.049221 1_555
Fe3 O5 2.050948 1_555
Fe4 O34 1.990485 1_556
Fe4 O10 1.993785 1_555
Fe4 O36 2.048238 1_555
Fe4 O51 2.054753 1_555
Fe5 O26 1.990485 1_556
Fe5 O46 1.993785 1_555
Fe5 O29 2.048238 1_555
Fe5 O62 2.054753 1_555
Fe6 O42 1.990806 1_555
Fe6 O35 1.996669 1_555
Fe6 O18 2.049221 1_555
Fe6 O2 2.050948 1_555
Fe7 O27 1.990806 1_555
Fe7 O44 1.996669 1_555
Fe7 O48 2.049221 1_555
Fe7 O8 2.050948 1_555
Fe8 O21 1.990806 1_555
Fe8 O40 1.996669 1_555
Fe8 O41 2.049221 1_555
Fe8 O15 2.050948 1_555
Fe9 O45 1.990485 1_554
Fe9 O49 1.993785 1_555
Fe9 O25 2.048238 1_555
Fe9 O60 2.054753 1_555
Fe10 O30 1.990485 1_555
Fe10 O54 1.993785 1_555
Fe10 O9 2.048238 1_555
Fe10 O47 2.054753 1_555
Fe11 O16 1.990806 1_565
Fe11 O6 1.996669 1_565
Fe11 O59 2.049221 1_555
Fe11 O20 2.050948 1_555
Fe12 O1 1.990485 1_555
Fe12 O55 1.993785 1_555
Fe12 O56 2.048238 1_555
Fe12 O17 2.054753 1_555
Fe13 O32 1.990806 1_555
Fe13 O37 1.996669 1_555
Fe13 O11 2.049221 1_555
Fe13 O50 2.050948 1_555
Fe14 O14 1.990485 1_555
Fe14 O28 1.993785 1_555
Fe14 O13 2.048238 1_555
Fe14 O38 2.054753 1_555
Fe15 O12 1.990806 1_565
Fe15 O33 1.996669 1_565
Fe15 O53 2.049221 1_555
Fe15 O39 2.050948 1_555
O0 P15 1.545025 1_555
O1 P7 1.545025 1_555
O2 P14 1.555635 1_555
O3 P11 1.555081 1_555
O4 P6 1.546665 1_555
O5 P9 1.555635 1_555
O6 P8 1.547377 1_555
O7 P2 1.555081 1_555
O8 P15 1.555635 1_555
O9 P10 1.554778 1_555
O10 P13 1.546665 1_556
O11 P4 1.555081 1_555
O12 P15 1.545262 1_555
O13 P10 1.554778 1_555
O14 P14 1.545025 1_555
O15 P5 1.555635 1_555
O16 P5 1.545262 1_555
O17 P0 1.555467 1_555
O18 P10 1.555081 1_555
O19 P7 1.555467 1_555
O20 P12 1.555635 1_555
O21 P12 1.545262 1_555
O22 P7 1.545262 1_555
O23 P1 1.555635 1_555
O24 P9 1.555467 1_555
O25 P2 1.554778 1_565
O26 P1 1.545025 1_555
O27 P0 1.545262 1_555
O28 P8 1.546665 1_565
O29 P2 1.554778 1_556
O30 P5 1.545025 1_555
O31 P6 1.547377 1_565
O32 P9 1.545262 1_555
O33 P6 1.547377 1_555
O34 P9 1.545025 1_555
O35 P3 1.547377 1_555
O36 P11 1.554778 1_556
O37 P13 1.547377 1_555
O38 P12 1.555467 1_555
O39 P0 1.555635 1_555
O40 P3 1.547377 1_556
O41 P10 1.555081 1_555
O42 P1 1.545262 1_555
O43 P0 1.545025 1_555
O44 P13 1.547377 1_556
O45 P12 1.545025 1_555
O46 P3 1.546665 1_556
O47 P1 1.555467 1_555
O48 P4 1.555081 1_555
O49 P3 1.546665 1_555
O50 P7 1.555635 1_555
O51 P15 1.555467 1_555
O52 P4 1.554778 1_555
O53 P11 1.555081 1_566
O54 P8 1.546665 1_555
O55 P6 1.546665 1_565
O56 P4 1.554778 1_555
O57 P13 1.546665 1_555
O58 P8 1.547377 1_565
O59 P2 1.555081 1_566
O60 P14 1.555467 1_555
O61 P14 1.545262 1_555
O62 P5 1.555467 1_555
O63 P11 1.554778 1_565
F0 Fe6 1.951130 1_555
F0 Na12 2.456022 1_555
F0 Na19 2.483929 1_555
F0 Na23 2.495845 1_555
F1 Fe1 1.950197 1_555
F1 Na7 2.455468 1_655
F1 Na21 2.476401 1_655
F1 Na17 2.505821 1_654
F2 Fe7 2.042956 1_455
F2 Fe8 2.042956 1_555
F2 Na9 2.359917 1_555
F2 Na4 2.582106 1_555
F2 Na11 2.628444 1_555
F3 Fe8 1.951130 1_555
F3 Na3 2.456022 1_555
F3 Na18 2.483929 1_555
F3 Na22 2.495845 1_555
F4 Fe15 2.042956 1_455
F4 Fe11 2.042956 1_555
F4 Na1 2.359917 1_565
F4 Na17 2.582106 1_555
F4 Na5 2.628444 1_555
F5 Fe10 1.950197 1_555
F5 Na6 2.455468 1_555
F5 Na20 2.476401 1_555
F5 Na4 2.505821 1_555
F6 Fe2 2.042956 1_555
F6 Fe3 2.042956 1_455
F6 Na21 2.359917 1_545
F6 Na16 2.582106 1_555
F6 Na6 2.628444 1_555
F7 Fe13 2.042956 1_455
F7 Fe6 2.042956 1_555
F7 Na20 2.359917 1_555
F7 Na14 2.582106 1_555
F7 Na7 2.628444 1_555
F8 Fe11 1.951130 1_555
F8 Na2 2.456022 1_555
F8 Na13 2.483929 1_555
F8 Na15 2.495845 1_565
F9 Fe15 1.951130 1_555
F9 Na2 2.456022 1_555
F9 Na13 2.483929 1_555
F9 Na15 2.495845 1_565
F10 Fe5 1.950197 1_555
F10 Na11 2.455468 1_555
F10 Na1 2.476401 1_555
F10 Na16 2.505821 1_556
F11 Fe1 2.044961 1_555
F11 Fe9 2.044961 1_555
F11 Na13 2.340957 1_554
F11 Na10 2.586016 1_555
F11 Na12 2.629603 1_555
F12 Fe2 1.951130 1_555
F12 Na8 2.456022 1_555
F12 Na0 2.483929 1_555
F12 Na10 2.495845 1_545
F13 Fe14 2.044961 1_555
F13 Fe12 2.044961 1_555
F13 Na19 2.340957 1_555
F13 Na22 2.586016 1_555
F13 Na2 2.629603 1_555
F14 Fe4 2.044961 1_555
F14 Fe5 2.044961 1_555
F14 Na0 2.340957 1_556
F14 Na15 2.586016 1_555
F14 Na3 2.629603 1_555
F15 Fe7 1.951130 1_555
F15 Na3 2.456022 1_555
F15 Na18 2.483929 1_555
F15 Na22 2.495845 1_555
F16 Fe4 1.950197 1_555
F16 Na11 2.455468 1_655
F16 Na1 2.476401 1_655
F16 Na16 2.505821 1_656
F17 Fe14 1.950197 1_555
F17 Na5 2.455468 1_555
F17 Na9 2.476401 1_555
F17 Na14 2.505821 1_555
F18 Fe10 2.044961 1_555
F18 Fe0 2.044961 1_555
F18 Na18 2.340957 1_555
F18 Na23 2.586016 1_555
F18 Na8 2.629603 1_555
F19 Fe0 1.950197 1_555
F19 Na6 2.455468 1_655
F19 Na20 2.476401 1_655
F19 Na4 2.505821 1_655
F20 Fe12 1.950197 1_555
F20 Na5 2.455468 1_655
F20 Na9 2.476401 1_655
F20 Na14 2.505821 1_655
F21 Fe3 1.951130 1_555
F21 Na8 2.456022 1_555
F21 Na0 2.483929 1_555
F21 Na10 2.495845 1_545
F22 Fe13 1.951130 1_555
F22 Na12 2.456022 1_555
F22 Na19 2.483929 1_555
F22 Na23 2.495845 1_555
F23 Fe9 1.950197 1_555
F23 Na7 2.455468 1_555
F23 Na21 2.476401 1_555
F23 Na17 2.505821 1_554
