# generated using pymatgen
data_LaZnAsO
_symmetry_space_group_name_H-M   'P 1'
_cell_length_a   4.11063400
_cell_length_b   4.11063400
_cell_length_c   9.16709800
_cell_angle_alpha   90.00000000
_cell_angle_beta   90.00000000
_cell_angle_gamma   90.00000000
_symmetry_Int_Tables_number   1
_chemical_formula_structural   LaZnAsO
_chemical_formula_sum   'La2 Zn2 As2 O2'
_cell_volume   154.89931396
_cell_formula_units_Z   2
loop_
 _symmetry_equiv_pos_site_id
 _symmetry_equiv_pos_as_xyz
  1  'x, y, z'
loop_
 _atom_site_type_symbol
 _atom_site_label
 _atom_site_symmetry_multiplicity
 _atom_site_fract_x
 _atom_site_fract_y
 _atom_site_fract_z
 _atom_site_occupancy
  La  La0  1  0.50000000  0.00000000  0.13286300  1
  La  La1  1  0.00000000  0.50000000  0.86713700  1
  Zn  Zn0  1  0.50000000  0.50000000  0.50000000  1
  Zn  Zn1  1  0.00000000  0.00000000  0.50000000  1
  As  As0  1  0.00000000  0.50000000  0.32887700  1
  As  As1  1  0.50000000  0.00000000  0.67112300  1
  O  O0  1  0.50000000  0.50000000  0.00000000  1
  O  O1  1  0.00000000  0.00000000  0.00000000  1
loop_
_geom_bond_atom_site_label_1
_geom_bond_atom_site_label_2
_geom_bond_distance
_geom_bond_site_symmetry_2
La0 O1 2.389095 1_555
La0 O0 2.389095 1_545
La0 O0 2.389095 1_555
La0 O1 2.389095 1_655
La1 O1 2.389095 1_556
La1 O0 2.389095 1_456
La1 O0 2.389095 1_556
La1 O1 2.389095 1_566
As0 Zn1 2.585566 1_555
As0 Zn0 2.585566 1_555
As0 Zn0 2.585566 1_455
As0 Zn1 2.585566 1_565
As0 La0 3.417226 1_455
As0 La0 3.417226 1_565
As0 La0 3.417226 1_555
As0 La0 3.417226 1_465
As1 Zn1 2.585566 1_555
As1 Zn1 2.585566 1_655
As1 Zn0 2.585566 1_555
As1 Zn0 2.585566 1_545
As1 La1 3.417226 1_655
As1 La1 3.417226 1_645
As1 La1 3.417226 1_545
As1 La1 3.417226 1_555
