# generated using pymatgen
data_Sb2ClO2F11
_symmetry_space_group_name_H-M   'P 1'
_cell_length_a   10.53498000
_cell_length_b   7.77626800
_cell_length_c   15.07622214
_cell_angle_alpha   62.96219298
_cell_angle_beta   90.00000000
_cell_angle_gamma   90.00000000
_symmetry_Int_Tables_number   1
_chemical_formula_structural   Sb2ClO2F11
_chemical_formula_sum   'Sb8 Cl4 O8 F44'
_cell_volume   1100.10012039
_cell_formula_units_Z   4
loop_
 _symmetry_equiv_pos_site_id
 _symmetry_equiv_pos_as_xyz
  1  'x, y, z'
loop_
 _atom_site_type_symbol
 _atom_site_label
 _atom_site_symmetry_multiplicity
 _atom_site_fract_x
 _atom_site_fract_y
 _atom_site_fract_z
 _atom_site_occupancy
  Sb  Sb0  1  0.53757600  0.11028100  0.22618100  1
  Sb  Sb1  1  0.16297800  0.28326100  0.89430200  1
  Sb  Sb2  1  0.33702200  0.28326100  0.39430200  1
  Sb  Sb3  1  0.66297800  0.71673900  0.60569800  1
  Sb  Sb4  1  0.83702200  0.71673900  0.10569800  1
  Sb  Sb5  1  0.96242400  0.11028100  0.72618100  1
  Sb  Sb6  1  0.46242400  0.88971900  0.77381900  1
  Sb  Sb7  1  0.03757600  0.88971900  0.27381900  1
  Cl  Cl0  1  0.16744800  0.72315300  0.61020500  1
  Cl  Cl1  1  0.66744800  0.27684700  0.88979500  1
  Cl  Cl2  1  0.33255200  0.72315300  0.11020500  1
  Cl  Cl3  1  0.83255200  0.27684700  0.38979500  1
  O  O0  1  0.74866400  0.39907000  0.40923500  1
  O  O1  1  0.45429500  0.76440100  0.06393600  1
  O  O2  1  0.95429500  0.23559900  0.43606400  1
  O  O3  1  0.54570500  0.23559900  0.93606400  1
  O  O4  1  0.24866400  0.60093000  0.09076500  1
  O  O5  1  0.25133600  0.60093000  0.59076500  1
  O  O6  1  0.04570500  0.76440100  0.56393600  1
  O  O7  1  0.75133600  0.39907000  0.90923500  1
  F  F0  1  0.90789800  0.88393700  0.16920500  1
  F  F1  1  0.45917100  0.34606300  0.13672700  1
  F  F2  1  0.90964300  0.02657000  0.30551900  1
  F  F3  1  0.72837200  0.56533100  0.54785900  1
  F  F4  1  0.50403500  0.76082600  0.54105600  1
  F  F5  1  0.54082900  0.65393700  0.86327300  1
  F  F6  1  0.09679300  0.12451400  0.17027100  1
  F  F7  1  0.15368800  0.88436200  0.37117100  1
  F  F8  1  0.34631200  0.88436200  0.87117100  1
  F  F9  1  0.90875900  0.49616800  0.21917800  1
  F  F10  1  0.00403500  0.23917400  0.95894400  1
  F  F11  1  0.19084900  0.30942500  0.31601000  1
  F  F12  1  0.35312200  0.74891000  0.72918200  1
  F  F13  1  0.69084900  0.69057500  0.18399000  1
  F  F14  1  0.59035700  0.02657000  0.80551900  1
  F  F15  1  0.40964300  0.97343000  0.19448100  1
  F  F16  1  0.27113000  0.04585800  0.49718300  1
  F  F17  1  0.59679300  0.87548600  0.32972900  1
  F  F18  1  0.22837200  0.43466900  0.95214100  1
  F  F19  1  0.49596500  0.23917400  0.45894400  1
  F  F20  1  0.72887000  0.95414200  0.50281700  1
  F  F21  1  0.04082900  0.34606300  0.63672700  1
  F  F22  1  0.64687800  0.25109000  0.27081800  1
  F  F23  1  0.99596500  0.76082600  0.04105600  1
  F  F24  1  0.95917100  0.65393700  0.36327300  1
  F  F25  1  0.85312200  0.25109000  0.77081800  1
  F  F26  1  0.84631200  0.11563800  0.62882900  1
  F  F27  1  0.77113000  0.95414200  0.00281700  1
  F  F28  1  0.09210200  0.11606300  0.83079500  1
  F  F29  1  0.30915100  0.30942500  0.81601000  1
  F  F30  1  0.90320700  0.87548600  0.82972900  1
  F  F31  1  0.09035700  0.97343000  0.69448100  1
  F  F32  1  0.65368800  0.11563800  0.12882900  1
  F  F33  1  0.27162800  0.43466900  0.45214100  1
  F  F34  1  0.59210200  0.88393700  0.66920500  1
  F  F35  1  0.80915100  0.69057500  0.68399000  1
  F  F36  1  0.09124100  0.50383200  0.78082200  1
  F  F37  1  0.14687800  0.74891000  0.22918200  1
  F  F38  1  0.40789800  0.11606300  0.33079500  1
  F  F39  1  0.77162800  0.56533100  0.04785900  1
  F  F40  1  0.40320700  0.12451400  0.67027100  1
  F  F41  1  0.40875900  0.50383200  0.28082200  1
  F  F42  1  0.22887000  0.04585800  0.99718300  1
  F  F43  1  0.59124100  0.49616800  0.71917800  1
loop_
_geom_bond_atom_site_label_1
_geom_bond_atom_site_label_2
_geom_bond_distance
_geom_bond_site_symmetry_2
Cl0 O5 1.422502 1_555
Cl0 O6 1.425137 1_555
Cl1 O7 1.422502 1_555
Cl1 O3 1.425137 1_555
Cl2 O4 1.422502 1_555
Cl2 O1 1.425137 1_555
Cl3 O0 1.422502 1_555
Cl3 O2 1.425137 1_555
F0 Sb4 2.072788 1_555
F0 Sb7 2.102471 1_655
F1 Sb0 1.901241 1_555
F2 Sb7 1.907822 1_645
F3 Sb3 1.885376 1_555
F4 Sb3 1.888745 1_555
F5 Sb6 1.901241 1_555
F6 Sb7 1.889053 1_545
F7 Sb7 1.896471 1_555
F8 Sb6 1.896471 1_555
F9 Sb4 1.942224 1_555
F10 Sb1 1.888745 1_555
F11 Sb2 1.894113 1_555
F12 Sb6 1.909894 1_555
F13 Sb4 1.894113 1_555
F14 Sb6 1.907822 1_545
F15 Sb0 1.907822 1_565
F16 Sb2 1.921581 1_555
F17 Sb0 1.889053 1_565
F18 Sb1 1.885376 1_555
F19 Sb2 1.888745 1_555
F20 Sb3 1.921581 1_555
F21 Sb5 1.901241 1_455
F22 Sb0 1.909894 1_555
F23 Sb4 1.888745 1_555
F24 Sb7 1.901241 1_655
F25 Sb5 1.909894 1_555
F26 Sb5 1.896471 1_555
F27 Sb4 1.921581 1_555
F28 Sb1 2.072788 1_555
F28 Sb5 2.102471 1_455
F29 Sb1 1.894113 1_555
F30 Sb5 1.889053 1_565
F31 Sb5 1.907822 1_465
F32 Sb0 1.896471 1_555
F33 Sb2 1.885376 1_555
F34 Sb3 2.072788 1_555
F34 Sb6 2.102471 1_555
F35 Sb3 1.894113 1_555
F36 Sb1 1.942224 1_555
F37 Sb7 1.909894 1_555
F38 Sb2 2.072788 1_555
F38 Sb0 2.102471 1_555
F39 Sb4 1.885376 1_555
F40 Sb6 1.889053 1_545
F41 Sb2 1.942224 1_555
F42 Sb1 1.921581 1_555
F43 Sb3 1.942224 1_555
