# generated using pymatgen
data_Nd10S14O
_symmetry_space_group_name_H-M   'P 1'
_cell_length_a   14.67889284
_cell_length_b   14.67889284
_cell_length_c   14.67889284
_cell_angle_alpha   117.88156456
_cell_angle_beta   117.88156456
_cell_angle_gamma   93.71015288
_symmetry_Int_Tables_number   1
_chemical_formula_structural   Nd10S14O
_chemical_formula_sum   'Nd40 S56 O4'
_cell_volume   2302.86897983
_cell_formula_units_Z   4
loop_
 _symmetry_equiv_pos_site_id
 _symmetry_equiv_pos_as_xyz
  1  'x, y, z'
loop_
 _atom_site_type_symbol
 _atom_site_label
 _atom_site_symmetry_multiplicity
 _atom_site_fract_x
 _atom_site_fract_y
 _atom_site_fract_z
 _atom_site_occupancy
  Nd  Nd0  1  0.13487800  0.36512200  0.50000000  1
  Nd  Nd1  1  0.20046200  0.55091000  0.09485700  1
  Nd  Nd2  1  0.39439500  0.04394700  0.09485700  1
  Nd  Nd3  1  0.11512200  0.11512200  0.73024500  1
  Nd  Nd4  1  0.95605300  0.05091000  0.35044800  1
  Nd  Nd5  1  0.30042200  0.42627100  0.86144000  1
  Nd  Nd6  1  0.57372900  0.43516900  0.87415100  1
  Nd  Nd7  1  0.54953800  0.69909000  0.40514300  1
  Nd  Nd8  1  0.30091000  0.70605300  0.85044800  1
  Nd  Nd9  1  0.18516900  0.81101800  0.36144000  1
  Nd  Nd10  1  0.94957800  0.31101800  0.62584900  1
  Nd  Nd11  1  0.80091000  0.95046200  0.59485700  1
  Nd  Nd12  1  0.07372900  0.19957800  0.13856000  1
  Nd  Nd13  1  0.29394700  0.14439500  0.59485700  1
  Nd  Nd14  1  0.38487800  0.38487800  0.26975500  1
  Nd  Nd15  1  0.88487800  0.61512200  0.00000000  1
  Nd  Nd16  1  0.80042200  0.93898200  0.87415100  1
  Nd  Nd17  1  0.61512200  0.88487800  0.00000000  1
  Nd  Nd18  1  0.89439500  0.79953800  0.35044800  1
  Nd  Nd19  1  0.68898200  0.31483100  0.63856000  1
  Nd  Nd20  1  0.18898200  0.55042200  0.37415100  1
  Nd  Nd21  1  0.70046200  0.60560500  0.64955200  1
  Nd  Nd22  1  0.06101800  0.93516900  0.86144000  1
  Nd  Nd23  1  0.17627100  0.81483100  0.62584900  1
  Nd  Nd24  1  0.06483100  0.92627100  0.12584900  1
  Nd  Nd25  1  0.45605300  0.10560500  0.90514300  1
  Nd  Nd26  1  0.85560500  0.45046200  0.14955200  1
  Nd  Nd27  1  0.35560500  0.20605300  0.40514300  1
  Nd  Nd28  1  0.44957800  0.82372900  0.63856000  1
  Nd  Nd29  1  0.04953800  0.64439500  0.85044800  1
  Nd  Nd30  1  0.94909000  0.29953800  0.90514300  1
  Nd  Nd31  1  0.56483100  0.43898200  0.13856000  1
  Nd  Nd32  1  0.67627100  0.05042200  0.36144000  1
  Nd  Nd33  1  0.36512200  0.86512200  0.23024500  1
  Nd  Nd34  1  0.86512200  0.63487800  0.50000000  1
  Nd  Nd35  1  0.56101800  0.69957800  0.12584900  1
  Nd  Nd36  1  0.63487800  0.13487800  0.76975500  1
  Nd  Nd37  1  0.68516900  0.32372900  0.37415100  1
  Nd  Nd38  1  0.44909000  0.54394700  0.64955200  1
  Nd  Nd39  1  0.79394700  0.19909000  0.14955200  1
  S  S0  1  0.50829200  0.22590000  0.64115800  1
  S  S1  1  0.34688600  0.23876100  0.84265600  1
  S  S2  1  0.99576900  0.10389500  0.84265600  1
  S  S3  1  0.62517800  0.10449100  0.16623200  1
  S  S4  1  0.12500000  0.72715100  0.10215100  1
  S  S5  1  0.89550900  0.06174100  0.52068700  1
  S  S6  1  0.84688600  0.00423100  0.10812600  1
  S  S7  1  0.48876100  0.09688600  0.34265600  1
  S  S8  1  0.12482200  0.14550900  0.33376800  1
  S  S9  1  0.35449100  0.37517800  0.66623200  1
  S  S10  1  0.75423100  0.14610500  0.65734400  1
  S  S11  1  0.54105300  0.37482200  0.47931300  1
  S  S12  1  0.74170800  0.88286600  0.21760800  1
  S  S13  1  0.63286600  0.91525800  0.64115800  1
  S  S14  1  0.35389500  0.74576900  0.34265600  1
  S  S15  1  0.24170800  0.02410000  0.85884200  1
  S  S16  1  0.08474200  0.72590000  0.71760800  1
  S  S17  1  0.98876100  0.64610500  0.39187400  1
  S  S18  1  0.39550900  0.87482200  0.83376800  1
  S  S19  1  0.66525800  0.52410000  0.78239200  1
  S  S20  1  0.39610500  0.50423100  0.15734400  1
  S  S21  1  0.47715100  0.87500000  0.10215100  1
  S  S22  1  0.13286600  0.49170800  0.71760800  1
  S  S23  1  0.61713400  0.75829200  0.78239200  1
  S  S24  1  0.58474200  0.86713400  0.35884200  1
  S  S25  1  0.89610500  0.73876100  0.89187400  1
  S  S26  1  0.81174100  0.79105300  0.66623200  1
  S  S27  1  0.04105300  0.56174100  0.16623200  1
  S  S28  1  0.97590000  0.83474200  0.21760800  1
  S  S29  1  0.77284900  0.37500000  0.89784900  1
  S  S30  1  0.40311400  0.01123900  0.65734400  1
  S  S31  1  0.47590000  0.25829200  0.14115800  1
  S  S32  1  0.11713400  0.33474200  0.85884200  1
  S  S33  1  0.12500000  0.22715100  0.60215100  1
  S  S34  1  0.12517800  0.95894700  0.52068700  1
  S  S35  1  0.20894700  0.87517800  0.02068700  1
  S  S36  1  0.31174100  0.64550900  0.02068700  1
  S  S37  1  0.25423100  0.59688600  0.60812600  1
  S  S38  1  0.90311400  0.24576900  0.39187400  1
  S  S39  1  0.93825900  0.45894700  0.83376800  1
  S  S40  1  0.62500000  0.02284900  0.89784900  1
  S  S41  1  0.76123900  0.60389500  0.10812600  1
  S  S42  1  0.85449100  0.18825900  0.97931300  1
  S  S43  1  0.00829200  0.36713400  0.28239200  1
  S  S44  1  0.16525800  0.38286600  0.14115800  1
  S  S45  1  0.77410000  0.41525800  0.28239200  1
  S  S46  1  0.27284900  0.37500000  0.39784900  1
  S  S47  1  0.62500000  0.52284900  0.39784900  1
  S  S48  1  0.62482200  0.29105300  0.97931300  1
  S  S49  1  0.26123900  0.15311400  0.15734400  1
  S  S50  1  0.97715100  0.87500000  0.60215100  1
  S  S51  1  0.49576900  0.65311400  0.89187400  1
  S  S52  1  0.27410000  0.99170800  0.35884200  1
  S  S53  1  0.85389500  0.51123900  0.60812600  1
  S  S54  1  0.43825900  0.60449100  0.47931300  1
  S  S55  1  0.70894700  0.68825900  0.33376800  1
  O  O0  1  0.75000000  0.25000000  0.50000000  1
  O  O1  1  0.50000000  0.50000000  0.00000000  1
  O  O2  1  0.00000000  0.00000000  0.00000000  1
  O  O3  1  0.25000000  0.75000000  0.50000000  1
loop_
_geom_bond_atom_site_label_1
_geom_bond_atom_site_label_2
_geom_bond_distance
_geom_bond_site_symmetry_2
Nd0 S43 2.863706 1_555
Nd0 S22 2.863706 1_555
Nd0 S8 2.934692 1_555
Nd0 S9 2.934692 1_555
Nd0 S38 2.956359 1_455
Nd0 S37 2.956359 1_555
Nd0 S33 3.062147 1_555
Nd0 S46 3.062147 1_555
Nd1 S20 2.817264 1_555
Nd1 S4 2.855499 1_555
Nd1 S14 2.873659 1_555
Nd1 S44 2.923198 1_555
Nd1 S36 2.926688 1_555
Nd1 S27 2.963716 1_555
Nd1 S32 2.969802 1_554
Nd1 S39 3.466493 1_454
Nd2 S49 2.817271 1_555
Nd2 S21 2.855499 1_545
Nd2 S7 2.873664 1_555
Nd2 S31 2.923198 1_555
Nd2 S35 2.926678 1_545
Nd2 S3 2.963702 1_555
Nd2 S15 2.969802 1_554
Nd2 S18 3.466490 1_544
Nd3 S15 2.863697 1_555
Nd3 S32 2.863704 1_555
Nd3 S5 2.934699 1_455
Nd3 S34 2.934699 1_545
Nd3 S2 2.956359 1_455
Nd3 S1 2.956363 1_555
Nd3 S50 3.062143 1_445
Nd3 S33 3.062160 1_555
Nd4 S6 2.817263 1_555
Nd4 S33 2.855499 1_655
Nd4 S38 2.873652 1_555
Nd4 S12 2.923198 1_545
Nd4 S8 2.926688 1_655
Nd4 S5 2.963702 1_555
Nd4 S28 2.969802 1_545
Nd4 S34 3.466478 1_645
Nd5 O1 2.418365 1_556
Nd5 S1 2.797526 1_555
Nd5 S36 2.894839 1_556
Nd5 S32 2.904043 1_555
Nd5 S22 2.962305 1_555
Nd5 S33 3.019054 1_555
Nd5 S9 3.097941 1_555
Nd5 S20 3.403794 1_556
Nd6 O1 2.418365 1_556
Nd6 S41 2.797531 1_556
Nd6 S9 2.894839 1_555
Nd6 S19 2.904043 1_555
Nd6 S0 2.962305 1_555
Nd6 S29 3.019054 1_555
Nd6 S48 3.097955 1_555
Nd6 S51 3.403808 1_555
Nd7 S14 2.817264 1_555
Nd7 S47 2.855499 1_555
Nd7 S20 2.873659 1_555
Nd7 S24 2.923198 1_555
Nd7 S54 2.926688 1_555
Nd7 S55 2.963716 1_555
Nd7 S13 2.969802 1_555
Nd7 S26 3.466493 1_555
Nd8 S37 2.817263 1_555
Nd8 S21 2.855499 1_556
Nd8 S51 2.873652 1_555
Nd8 S22 2.923198 1_555
Nd8 S18 2.926688 1_555
Nd8 S36 2.963702 1_556
Nd8 S16 2.969802 1_555
Nd8 S35 3.466478 1_556
Nd9 O3 2.418365 1_555
Nd9 S14 2.797531 1_555
Nd9 S34 2.894845 1_555
Nd9 S52 2.904043 1_555
Nd9 S28 2.962305 1_455
Nd9 S4 3.019054 1_555
Nd9 S27 3.097944 1_555
Nd9 S30 3.403798 1_565
Nd10 O0 2.418365 1_555
Nd10 S38 2.797537 1_555
Nd10 S39 2.894843 1_555
Nd10 S22 2.904043 1_655
Nd10 S32 2.962305 1_655
Nd10 S33 3.019054 1_655
Nd10 S5 3.097941 1_555
Nd10 S53 3.403794 1_555
Nd11 S10 2.817264 1_565
Nd11 S50 2.855499 1_555
Nd11 S2 2.873659 1_565
Nd11 S13 2.923198 1_555
Nd11 S5 2.926688 1_565
Nd11 S26 2.963716 1_555
Nd11 S24 2.969802 1_555
Nd11 S55 3.466493 1_555
Nd12 O2 2.418365 1_555
Nd12 S49 2.797526 1_555
Nd12 S42 2.894839 1_454
Nd12 S44 2.904043 1_555
Nd12 S43 2.962305 1_555
Nd12 S46 3.019054 1_555
Nd12 S8 3.097941 1_555
Nd12 S2 3.403794 1_454
Nd13 S30 2.817271 1_555
Nd13 S33 2.855499 1_555
Nd13 S1 2.873664 1_555
Nd13 S0 2.923198 1_555
Nd13 S34 2.926678 1_545
Nd13 S9 2.963702 1_555
Nd13 S52 2.969802 1_545
Nd13 S8 3.466490 1_555
Nd14 S31 2.863697 1_555
Nd14 S44 2.863704 1_555
Nd14 S54 2.934699 1_555
Nd14 S11 2.934699 1_555
Nd14 S20 2.956359 1_555
Nd14 S49 2.956363 1_555
Nd14 S47 3.062143 1_555
Nd14 S46 3.062160 1_555
Nd15 S19 2.863706 1_554
Nd15 S28 2.863706 1_555
Nd15 S39 2.934686 1_554
Nd15 S27 2.934686 1_655
Nd15 S41 2.956372 1_555
Nd15 S25 2.956372 1_554
Nd15 S29 3.062147 1_554
Nd15 S4 3.062147 1_655
Nd16 O2 2.418365 1_666
Nd16 S6 2.797537 1_566
Nd16 S26 2.894843 1_555
Nd16 S23 2.904043 1_555
Nd16 S13 2.962305 1_555
Nd16 S40 3.019054 1_565
Nd16 S42 3.097941 1_565
Nd16 S25 3.403794 1_555
Nd17 S12 2.863706 1_555
Nd17 S23 2.863706 1_554
Nd17 S18 2.934692 1_554
Nd17 S3 2.934692 1_565
Nd17 S6 2.956359 1_565
Nd17 S51 2.956359 1_554
Nd17 S21 3.062147 1_555
Nd17 S40 3.062147 1_564
Nd18 S41 2.817264 1_555
Nd18 S50 2.855499 1_555
Nd18 S17 2.873659 1_555
Nd18 S28 2.923198 1_555
Nd18 S55 2.926676 1_555
Nd18 S34 2.963706 1_655
Nd18 S12 2.969802 1_555
Nd18 S5 3.466490 1_565
Nd19 O0 2.418365 1_555
Nd19 S10 2.797531 1_555
Nd19 S11 2.894845 1_555
Nd19 S0 2.904043 1_555
Nd19 S19 2.962305 1_555
Nd19 S29 3.019054 1_555
Nd19 S39 3.097944 1_555
Nd19 S7 3.403798 1_555
Nd20 O3 2.418365 1_555
Nd20 S37 2.797537 1_555
Nd20 S27 2.894843 1_555
Nd20 S43 2.904043 1_555
Nd20 S44 2.962305 1_555
Nd20 S46 3.019054 1_555
Nd20 S54 3.097941 1_555
Nd20 S17 3.403794 1_455
Nd21 S25 2.817264 1_555
Nd21 S47 2.855499 1_555
Nd21 S53 2.873659 1_555
Nd21 S19 2.923198 1_555
Nd21 S26 2.926676 1_555
Nd21 S11 2.963706 1_555
Nd21 S23 2.969802 1_555
Nd21 S54 3.466490 1_555
Nd22 O2 2.418365 1_566
Nd22 S2 2.797531 1_465
Nd22 S35 2.894845 1_556
Nd22 S15 2.904043 1_565
Nd22 S16 2.962305 1_555
Nd22 S50 3.019054 1_455
Nd22 S26 3.097944 1_455
Nd22 S49 3.403798 1_566
Nd23 O3 2.418365 1_555
Nd23 S17 2.797531 1_455
Nd23 S18 2.894839 1_555
Nd23 S16 2.904043 1_555
Nd23 S15 2.962305 1_565
Nd23 S50 3.019054 1_455
Nd23 S34 3.097955 1_555
Nd23 S37 3.403808 1_555
Nd24 O2 2.418365 1_565
Nd24 S25 2.797531 1_454
Nd24 S8 2.894839 1_565
Nd24 S28 2.904043 1_455
Nd24 S52 2.962305 1_555
Nd24 S4 3.019054 1_555
Nd24 S35 3.097955 1_555
Nd24 S6 3.403808 1_465
Nd25 S1 2.817271 1_555
Nd25 S40 2.855499 1_555
Nd25 S30 2.873664 1_555
Nd25 S15 2.923198 1_555
Nd25 S48 2.926678 1_555
Nd25 S18 2.963702 1_545
Nd25 S31 2.969802 1_556
Nd25 S3 3.466490 1_556
Nd26 S17 2.817264 1_555
Nd26 S29 2.855499 1_554
Nd26 S41 2.873659 1_555
Nd26 S45 2.923198 1_555
Nd26 S27 2.926676 1_655
Nd26 S48 2.963706 1_554
Nd26 S43 2.969802 1_655
Nd26 S42 3.466490 1_554
Nd27 S7 2.817271 1_555
Nd27 S46 2.855499 1_555
Nd27 S49 2.873664 1_555
Nd27 S52 2.923198 1_545
Nd27 S11 2.926678 1_555
Nd27 S8 2.963702 1_555
Nd27 S0 2.969802 1_555
Nd27 S9 3.466490 1_555
Nd28 O3 2.418365 1_555
Nd28 S30 2.797526 1_565
Nd28 S54 2.894839 1_555
Nd28 S13 2.904043 1_555
Nd28 S23 2.962305 1_555
Nd28 S40 3.019054 1_565
Nd28 S18 3.097941 1_555
Nd28 S14 3.403794 1_555
Nd29 S53 2.817264 1_455
Nd29 S4 2.855499 1_556
Nd29 S25 2.873659 1_455
Nd29 S16 2.923198 1_555
Nd29 S39 2.926676 1_455
Nd29 S35 2.963706 1_556
Nd29 S22 2.969802 1_555
Nd29 S36 3.466490 1_556
Nd30 S2 2.817264 1_555
Nd30 S29 2.855499 1_555
Nd30 S10 2.873659 1_555
Nd30 S32 2.923198 1_655
Nd30 S42 2.926688 1_555
Nd30 S39 2.963716 1_555
Nd30 S44 2.969802 1_656
Nd30 S27 3.466493 1_656
Nd31 O1 2.418365 1_555
Nd31 S20 2.797531 1_555
Nd31 S48 2.894845 1_554
Nd31 S31 2.904043 1_555
Nd31 S45 2.962305 1_555
Nd31 S47 3.019054 1_555
Nd31 S55 3.097944 1_555
Nd31 S1 3.403798 1_554
Nd32 O0 2.418365 1_555
Nd32 S7 2.797526 1_555
Nd32 S5 2.894839 1_555
Nd32 S24 2.904043 1_545
Nd32 S12 2.962305 1_545
Nd32 S21 3.019054 1_545
Nd32 S3 3.097941 1_555
Nd32 S10 3.403794 1_555
Nd33 S52 2.863697 1_555
Nd33 S24 2.863704 1_555
Nd33 S36 2.934699 1_555
Nd33 S35 2.934699 1_555
Nd33 S14 2.956359 1_555
Nd33 S7 2.956363 1_565
Nd33 S4 3.062143 1_555
Nd33 S21 3.062160 1_555
Nd34 S16 2.863706 1_655
Nd34 S45 2.863706 1_555
Nd34 S26 2.934686 1_555
Nd34 S55 2.934686 1_555
Nd34 S53 2.956372 1_555
Nd34 S17 2.956372 1_555
Nd34 S47 3.062147 1_555
Nd34 S50 3.062147 1_555
Nd35 O1 2.418365 1_555
Nd35 S51 2.797537 1_554
Nd35 S55 2.894843 1_555
Nd35 S12 2.904043 1_555
Nd35 S24 2.962305 1_555
Nd35 S21 3.019054 1_555
Nd35 S36 3.097941 1_555
Nd35 S41 3.403794 1_555
Nd36 S0 2.863697 1_555
Nd36 S13 2.863704 1_545
Nd36 S42 2.934699 1_555
Nd36 S48 2.934699 1_555
Nd36 S10 2.956359 1_555
Nd36 S30 2.956363 1_555
Nd36 S29 3.062143 1_555
Nd36 S40 3.062160 1_555
Nd37 O0 2.418365 1_555
Nd37 S53 2.797531 1_555
Nd37 S3 2.894839 1_555
Nd37 S45 2.904043 1_555
Nd37 S31 2.962305 1_555
Nd37 S47 3.019054 1_555
Nd37 S11 3.097955 1_555
Nd37 S38 3.403808 1_555
Nd38 S51 2.817263 1_555
Nd38 S46 2.855499 1_555
Nd38 S37 2.873652 1_555
Nd38 S23 2.923198 1_555
Nd38 S9 2.926688 1_555
Nd38 S54 2.963702 1_555
Nd38 S19 2.969802 1_555
Nd38 S11 3.466478 1_555
Nd39 S38 2.817263 1_555
Nd39 S40 2.855499 1_554
Nd39 S6 2.873652 1_555
Nd39 S43 2.923198 1_655
Nd39 S3 2.926688 1_555
Nd39 S42 2.963702 1_554
Nd39 S45 2.969802 1_555
Nd39 S48 3.466478 1_554
