# generated using pymatgen
data_Sm3Ga5O12
_symmetry_space_group_name_H-M   'P 1'
_cell_length_a   10.77696189
_cell_length_b   10.77696207
_cell_length_c   10.77696247
_cell_angle_alpha   109.47113994
_cell_angle_beta   109.47113842
_cell_angle_gamma   109.47113405
_symmetry_Int_Tables_number   1
_chemical_formula_structural   Sm3Ga5O12
_chemical_formula_sum   'Sm12 Ga20 O48'
_cell_volume   963.53727130
_cell_formula_units_Z   4
loop_
 _symmetry_equiv_pos_site_id
 _symmetry_equiv_pos_as_xyz
  1  'x, y, z'
loop_
 _atom_site_type_symbol
 _atom_site_label
 _atom_site_symmetry_multiplicity
 _atom_site_fract_x
 _atom_site_fract_y
 _atom_site_fract_z
 _atom_site_occupancy
  Sm  Sm0  1  0.87500007  0.75000003  0.62499987  1
  Sm  Sm1  1  0.87499990  0.62500006  0.24999998  1
  Sm  Sm2  1  0.62499994  0.87500013  0.75000005  1
  Sm  Sm3  1  0.24999997  0.87499994  0.62500006  1
  Sm  Sm4  1  0.74999992  0.62499991  0.87500013  1
  Sm  Sm5  1  0.62500007  0.25000000  0.87499998  1
  Sm  Sm6  1  0.12499988  0.25000001  0.37500013  1
  Sm  Sm7  1  0.12500002  0.37499996  0.74999997  1
  Sm  Sm8  1  0.37500013  0.12499990  0.25000005  1
  Sm  Sm9  1  0.75000000  0.12500014  0.37499998  1
  Sm  Sm10  1  0.25000002  0.37500018  0.12499993  1
  Sm  Sm11  1  0.37499989  0.75000003  0.12500005  1
  Ga  Ga0  1  0.12500037  0.75000074  0.87500082  1
  Ga  Ga1  1  0.87499980  0.24999934  0.12499913  1
  Ga  Ga2  1  0.74999920  0.37499970  0.62499919  1
  Ga  Ga3  1  0.12499916  0.87499976  0.24999935  1
  Ga  Ga4  1  0.24999922  0.12499923  0.87499978  1
  Ga  Ga5  1  0.37499959  0.62499908  0.74999928  1
  Ga  Ga6  1  0.37500083  0.25000055  0.62500025  1
  Ga  Ga7  1  0.87500094  0.12500038  0.75000076  1
  Ga  Ga8  1  0.62500028  0.37500092  0.25000074  1
  Ga  Ga9  1  0.75000071  0.87500115  0.12500044  1
  Ga  Ga10  1  0.25000071  0.62500042  0.37500097  1
  Ga  Ga11  1  0.62499910  0.74999925  0.37499975  1
  Ga  Ga12  1  0.49999994  0.00000003  0.50000000  1
  Ga  Ga13  1  0.00000001  0.50000000  -0.00000001  1
  Ga  Ga14  1  0.49999996  0.50000001  0.50000002  1
  Ga  Ga15  1  0.00000000  0.00000009  0.50000009  1
  Ga  Ga16  1  -0.00000000  0.00000003  0.00000002  1
  Ga  Ga17  1  -0.00000000  0.49999994  0.49999996  1
  Ga  Ga18  1  0.49999995  0.49999997  -0.00000007  1
  Ga  Ga19  1  0.50000006  0.00000005  0.00000009  1
  O  O0  1  0.58283065  0.90478096  0.38029263  1
  O  O1  1  0.38029296  0.58283088  0.90478089  1
  O  O2  1  0.29746128  0.32194993  0.91717032  1
  O  O3  1  0.47551267  0.59521956  0.17805082  1
  O  O4  1  0.32194935  0.90478049  0.02448755  1
  O  O5  1  0.11970684  0.02448788  0.20253795  1
  O  O6  1  0.38029311  0.29746209  0.47551207  1
  O  O7  1  0.90478096  0.38029281  0.58283082  1
  O  O8  1  0.17805009  0.20253881  0.58282978  1
  O  O9  1  0.47551219  0.38029320  0.29746206  1
  O  O10  1  0.90478054  0.02448756  0.32194933  1
  O  O11  1  0.59521898  0.91716912  0.11970710  1
  O  O12  1  0.91716915  0.11970712  0.59521917  1
  O  O13  1  0.29746199  0.47551197  0.38029301  1
  O  O14  1  0.58282984  0.17805021  0.20253874  1
  O  O15  1  0.20253881  0.58282972  0.17805010  1
  O  O16  1  0.02448727  0.32194922  0.90478042  1
  O  O17  1  0.91717036  0.29746121  0.32195009  1
  O  O18  1  0.02448775  0.20253796  0.11970677  1
  O  O19  1  0.82194988  0.79746121  0.41717030  1
  O  O20  1  0.17805083  0.47551283  0.59521963  1
  O  O21  1  0.59521946  0.17805072  0.47551259  1
  O  O22  1  0.20253788  0.11970692  0.02448794  1
  O  O23  1  0.11970714  0.59521907  0.91716925  1
  O  O24  1  0.41716905  0.09521911  0.61970698  1
  O  O25  1  0.61970709  0.41716913  0.09521916  1
  O  O26  1  0.70253876  0.67805013  0.08282979  1
  O  O27  1  0.52448793  0.40477963  0.82194946  1
  O  O28  1  0.67805067  0.09521954  0.97551258  1
  O  O29  1  0.88029319  0.97551223  0.79746202  1
  O  O30  1  0.61970693  0.70253801  0.52448800  1
  O  O31  1  0.09521906  0.61970721  0.41716933  1
  O  O32  1  0.88029274  0.40478098  0.08283081  1
  O  O33  1  0.79746205  0.88029327  0.97551212  1
  O  O34  1  0.40478043  0.82194941  0.52448742  1
  O  O35  1  0.67805018  0.08282986  0.70253878  1
  O  O36  1  0.82194922  0.52448732  0.40478040  1
  O  O37  1  0.97551152  0.79746167  0.88029179  1
  O  O38  1  0.08282989  0.70253876  0.67805030  1
  O  O39  1  0.97551276  0.67805078  0.09521964  1
  O  O40  1  0.79746123  0.41717008  0.82194981  1
  O  O41  1  0.41717012  0.82194976  0.79746120  1
  O  O42  1  0.70253792  0.52448788  0.61970676  1
  O  O43  1  0.08283087  0.88029292  0.40478085  1
  O  O44  1  0.40478094  0.08283077  0.88029275  1
  O  O45  1  0.09522044  0.97551227  0.67805079  1
  O  O46  1  0.52448774  0.61970677  0.70253788  1
  O  O47  1  0.32194966  0.91717015  0.29746129  1
loop_
_geom_bond_atom_site_label_1
_geom_bond_atom_site_label_2
_geom_bond_distance
_geom_bond_site_symmetry_2
Ga0 O4 1.857805 1_556
Ga0 O37 1.857807 1_455
Ga0 O23 1.857813 1_555
Ga0 O38 1.857814 1_555
Ga1 O18 1.857803 1_655
Ga1 O28 1.857806 1_554
Ga1 O32 1.857812 1_555
Ga1 O17 1.857818 1_555
Ga2 O21 1.857805 1_555
Ga2 O42 1.857805 1_555
Ga2 O7 1.857813 1_555
Ga2 O40 1.857815 1_555
Ga3 O39 1.857805 1_455
Ga3 O5 1.857805 1_565
Ga3 O43 1.857810 1_555
Ga3 O47 1.857814 1_555
Ga4 O45 1.857803 1_545
Ga4 O22 1.857805 1_556
Ga4 O44 1.857814 1_555
Ga4 O2 1.857815 1_555
Ga5 O20 1.857803 1_555
Ga5 O46 1.857806 1_555
Ga5 O1 1.857810 1_555
Ga5 O41 1.857815 1_555
Ga6 O27 1.857806 1_555
Ga6 O6 1.857807 1_555
Ga6 O24 1.857809 1_555
Ga6 O8 1.857816 1_555
Ga7 O16 1.857803 1_655
Ga7 O29 1.857805 1_545
Ga7 O12 1.857810 1_555
Ga7 O35 1.857816 1_555
Ga8 O36 1.857804 1_555
Ga8 O9 1.857804 1_555
Ga8 O25 1.857810 1_555
Ga8 O14 1.857816 1_555
Ga9 O10 1.857804 1_565
Ga9 O33 1.857807 1_554
Ga9 O11 1.857810 1_555
Ga9 O26 1.857818 1_555
Ga10 O34 1.857805 1_555
Ga10 O13 1.857807 1_555
Ga10 O31 1.857812 1_555
Ga10 O15 1.857817 1_555
Ga11 O3 1.857804 1_555
Ga11 O30 1.857805 1_555
Ga11 O0 1.857814 1_555
Ga11 O19 1.857816 1_555
Ga12 O24 2.002509 1_555
Ga12 O0 2.002510 1_545
Ga12 O34 2.002514 1_545
Ga12 O21 2.002515 1_555
Ga12 O47 2.002525 1_545
Ga12 O35 2.002525 1_555
Ga13 O23 2.002509 1_554
Ga13 O32 2.002510 1_455
Ga13 O16 2.002514 1_554
Ga13 O39 2.002515 1_455
Ga13 O40 2.002524 1_454
Ga13 O15 2.002525 1_555
Ga14 O6 2.002512 1_555
Ga14 O46 2.002512 1_555
Ga14 O13 2.002512 1_555
Ga14 O42 2.002512 1_555
Ga14 O30 2.002513 1_555
Ga14 O9 2.002513 1_555
Ga15 O12 2.002509 1_455
Ga15 O43 2.002511 1_545
Ga15 O10 2.002515 1_455
Ga15 O45 2.002520 1_545
Ga15 O8 2.002524 1_555
Ga15 O19 2.002525 1_445
Ga16 O22 2.002512 1_555
Ga16 O33 2.002512 1_444
Ga16 O5 2.002512 1_555
Ga16 O18 2.002513 1_555
Ga16 O29 2.002513 1_444
Ga16 O37 2.002517 1_444
Ga17 O31 2.002509 1_555
Ga17 O7 2.002510 1_455
Ga17 O20 2.002514 1_555
Ga17 O36 2.002515 1_455
Ga17 O17 2.002523 1_455
Ga17 O38 2.002526 1_555
Ga18 O1 2.002509 1_554
Ga18 O25 2.002510 1_555
Ga18 O3 2.002516 1_555
Ga18 O27 2.002519 1_554
Ga18 O2 2.002524 1_554
Ga18 O26 2.002525 1_555
Ga19 O11 2.002509 1_545
Ga19 O44 2.002510 1_554
Ga19 O28 2.002514 1_554
Ga19 O4 2.002515 1_545
Ga19 O14 2.002524 1_555
Ga19 O41 2.002526 1_544
O0 Sm11 2.389600 1_555
O0 Sm9 2.487926 1_565
O1 Sm7 2.389603 1_555
O1 Sm11 2.487927 1_556
O2 Sm10 2.389577 1_556
O2 Sm7 2.487927 1_555
O3 Sm11 2.389597 1_555
O3 Sm10 2.487930 1_555
O4 Sm11 2.389594 1_555
O4 Sm8 2.487929 1_565
O5 Sm8 2.389601 1_555
O5 Sm6 2.487927 1_555
O6 Sm6 2.389600 1_555
O6 Sm8 2.487926 1_555
O7 Sm9 2.389601 1_555
O7 Sm7 2.487925 1_655
O8 Sm6 2.389577 1_555
O8 Sm7 2.487926 1_555
O9 Sm8 2.389601 1_555
O9 Sm10 2.487927 1_555
O10 Sm9 2.389596 1_555
O10 Sm6 2.487929 1_655
O11 Sm9 2.389603 1_565
O11 Sm11 2.487926 1_555
O12 Sm7 2.389602 1_655
O12 Sm9 2.487927 1_555
O13 Sm10 2.389599 1_555
O13 Sm6 2.487926 1_555
O14 Sm8 2.389578 1_555
O14 Sm9 2.487926 1_555
O15 Sm10 2.389576 1_555
O15 Sm11 2.487926 1_555
O16 Sm7 2.389596 1_555
O16 Sm10 2.487931 1_556
O17 Sm6 2.389575 1_655
O17 Sm9 2.487925 1_555
O18 Sm6 2.389602 1_555
O18 Sm10 2.487927 1_555
O19 Sm0 2.389576 1_555
O19 Sm1 2.487926 1_555
O20 Sm7 2.389596 1_555
O20 Sm6 2.487931 1_555
O21 Sm9 2.389596 1_555
O21 Sm8 2.487929 1_555
O22 Sm10 2.389600 1_555
O22 Sm8 2.487927 1_555
O23 Sm11 2.389601 1_556
O23 Sm7 2.487926 1_555
O24 Sm5 2.389604 1_555
O24 Sm3 2.487927 1_545
O25 Sm1 2.389602 1_555
O25 Sm5 2.487927 1_554
O26 Sm4 2.389577 1_554
O26 Sm1 2.487926 1_555
O27 Sm5 2.389583 1_555
O27 Sm4 2.487932 1_555
O28 Sm5 2.389595 1_555
O28 Sm2 2.487930 1_545
O29 Sm2 2.389601 1_555
O29 Sm0 2.487927 1_555
O30 Sm0 2.389600 1_555
O30 Sm2 2.487926 1_555
O31 Sm3 2.389601 1_555
O31 Sm1 2.487927 1_455
O32 Sm5 2.389601 1_554
O32 Sm1 2.487925 1_555
O33 Sm4 2.389601 1_555
O33 Sm2 2.487926 1_555
O34 Sm3 2.389595 1_555
O34 Sm2 2.487931 1_555
O35 Sm2 2.389578 1_545
O35 Sm5 2.487926 1_555
O36 Sm1 2.389596 1_555
O36 Sm0 2.487931 1_555
O37 Sm0 2.389589 1_555
O37 Sm4 2.487929 1_555
O38 Sm0 2.389579 1_455
O38 Sm3 2.487927 1_555
O39 Sm1 2.389596 1_555
O39 Sm4 2.487932 1_554
O40 Sm4 2.389579 1_555
O40 Sm5 2.487926 1_555
O41 Sm2 2.389578 1_555
O41 Sm3 2.487926 1_555
O42 Sm4 2.389602 1_555
O42 Sm0 2.487927 1_555
O43 Sm1 2.389603 1_455
O43 Sm3 2.487927 1_555
O44 Sm3 2.389601 1_545
O44 Sm5 2.487926 1_555
O45 Sm3 2.389584 1_555
O45 Sm0 2.487933 1_455
O46 Sm2 2.389601 1_555
O46 Sm4 2.487927 1_555
O47 Sm8 2.389578 1_565
O47 Sm11 2.487927 1_555
