# generated using pymatgen
data_Zn4Cu5(TeO6)3
_symmetry_space_group_name_H-M   'P 1'
_cell_length_a   8.75317349
_cell_length_b   8.75317349
_cell_length_c   10.52292373
_cell_angle_alpha   84.62132230
_cell_angle_beta   84.62132230
_cell_angle_gamma   61.11008989
_symmetry_Int_Tables_number   1
_chemical_formula_structural   Zn4Cu5(TeO6)3
_chemical_formula_sum   'Zn8 Cu10 Te6 O36'
_cell_volume   701.71364476
_cell_formula_units_Z   2
loop_
 _symmetry_equiv_pos_site_id
 _symmetry_equiv_pos_as_xyz
  1  'x, y, z'
loop_
 _atom_site_type_symbol
 _atom_site_label
 _atom_site_symmetry_multiplicity
 _atom_site_fract_x
 _atom_site_fract_y
 _atom_site_fract_z
 _atom_site_occupancy
  Zn  Zn0  1  0.33941900  0.06467600  0.08164400  1
  Zn  Zn1  1  0.36202200  0.67681800  0.96140400  1
  Zn  Zn2  1  0.93532400  0.66058100  0.41835600  1
  Zn  Zn3  1  0.32318200  0.63797800  0.53859700  1
  Zn  Zn4  1  0.67681800  0.36202200  0.46140300  1
  Zn  Zn5  1  0.06467600  0.33941900  0.58164400  1
  Zn  Zn6  1  0.66058100  0.93532400  0.91835600  1
  Zn  Zn7  1  0.63797800  0.32318200  0.03859700  1
  Cu  Cu0  1  0.31422100  0.98624200  0.73580400  1
  Cu  Cu1  1  0.98624200  0.31422100  0.23580400  1
  Cu  Cu2  1  0.14344100  0.52964200  0.05309300  1
  Cu  Cu3  1  0.52964200  0.14344100  0.55309300  1
  Cu  Cu4  1  0.47035800  0.85655900  0.44690700  1
  Cu  Cu5  1  0.83040300  0.16959700  0.75000000  1
  Cu  Cu6  1  0.16959700  0.83040300  0.25000000  1
  Cu  Cu7  1  0.85655900  0.47035800  0.94690700  1
  Cu  Cu8  1  0.68577900  0.01375800  0.26419600  1
  Cu  Cu9  1  0.01375800  0.68577900  0.76419600  1
  Te  Te0  1  0.66587900  0.65007500  0.69828500  1
  Te  Te1  1  0.00000000  0.00000000  0.00000000  1
  Te  Te2  1  0.00000000  0.00000000  0.50000000  1
  Te  Te3  1  0.65007500  0.66587900  0.19828500  1
  Te  Te4  1  0.33412100  0.34992500  0.30171500  1
  Te  Te5  1  0.34992500  0.33412100  0.80171500  1
  O  O0  1  0.88612800  0.58999500  0.59898900  1
  O  O1  1  0.24310100  0.90016700  0.55075100  1
  O  O2  1  0.42803400  0.76782600  0.29884600  1
  O  O3  1  0.92004100  0.93416800  0.16549600  1
  O  O4  1  0.09983300  0.75689900  0.94924900  1
  O  O5  1  0.06583200  0.07995900  0.33450400  1
  O  O6  1  0.57141300  0.57954100  0.06865500  1
  O  O7  1  0.91644100  0.22781700  0.57549800  1
  O  O8  1  0.08355900  0.77218300  0.42450200  1
  O  O9  1  0.22323700  0.27934200  0.17084000  1
  O  O10  1  0.44562200  0.74953300  0.80186900  1
  O  O11  1  0.77676300  0.72065800  0.82916000  1
  O  O12  1  0.75689900  0.09983300  0.44924900  1
  O  O13  1  0.54615100  0.88837500  0.61246100  1
  O  O14  1  0.25046700  0.55437800  0.69813100  1
  O  O15  1  0.42858700  0.42045900  0.93134500  1
  O  O16  1  0.55437800  0.25046700  0.19813100  1
  O  O17  1  0.11162500  0.45384900  0.88753900  1
  O  O18  1  0.23217400  0.57196600  0.20115400  1
  O  O19  1  0.74953300  0.44562200  0.30186900  1
  O  O20  1  0.58999500  0.88612800  0.09898900  1
  O  O21  1  0.45384900  0.11162500  0.38753900  1
  O  O22  1  0.77218300  0.08355900  0.92450200  1
  O  O23  1  0.57954100  0.57141300  0.56865500  1
  O  O24  1  0.57196600  0.23217400  0.70115400  1
  O  O25  1  0.93416800  0.92004100  0.66549600  1
  O  O26  1  0.27934200  0.22323700  0.67084000  1
  O  O27  1  0.42045900  0.42858700  0.43134500  1
  O  O28  1  0.90016700  0.24310100  0.05075100  1
  O  O29  1  0.88837500  0.54615100  0.11246100  1
  O  O30  1  0.11387200  0.41000500  0.40101100  1
  O  O31  1  0.07995900  0.06583200  0.83450400  1
  O  O32  1  0.22781700  0.91644100  0.07549800  1
  O  O33  1  0.72065800  0.77676300  0.32916000  1
  O  O34  1  0.76782600  0.42803400  0.79884600  1
  O  O35  1  0.41000500  0.11387200  0.90101100  1
loop_
_geom_bond_atom_site_label_1
_geom_bond_atom_site_label_2
_geom_bond_distance
_geom_bond_site_symmetry_2
Cu0 O10 1.917385 1_555
Cu0 O26 2.006293 1_565
Cu0 O31 2.030962 1_565
Cu0 O13 2.138670 1_555
Cu0 O1 2.388031 1_555
Cu0 O35 2.552577 1_565
Cu1 O19 1.917385 1_555
Cu1 O9 2.006293 1_655
Cu1 O5 2.030962 1_655
Cu1 O29 2.138670 1_555
Cu1 O28 2.388031 1_555
Cu1 O30 2.552577 1_655
Cu2 O18 1.944502 1_555
Cu2 O17 2.009679 1_554
Cu2 O4 2.057616 1_554
Cu2 O29 2.199892 1_455
Cu2 O9 2.235594 1_555
Cu2 O15 2.471753 1_554
Cu3 O24 1.944502 1_555
Cu3 O21 2.009679 1_555
Cu3 O12 2.057616 1_555
Cu3 O13 2.199892 1_545
Cu3 O26 2.235594 1_555
Cu3 O27 2.471753 1_555
Cu4 O2 1.944502 1_555
Cu4 O13 2.009679 1_555
Cu4 O1 2.057616 1_555
Cu4 O21 2.199892 1_565
Cu4 O33 2.235594 1_555
Cu4 O23 2.471753 1_555
Cu5 O22 2.033446 1_555
Cu5 O7 2.033446 1_555
Cu5 O34 2.156259 1_555
Cu5 O24 2.156259 1_555
Cu5 O31 2.164018 1_655
Cu5 O25 2.164018 1_545
Cu6 O32 2.033446 1_555
Cu6 O8 2.033446 1_555
Cu6 O2 2.156259 1_555
Cu6 O18 2.156259 1_555
Cu6 O5 2.164018 1_565
Cu6 O3 2.164018 1_455
Cu7 O34 1.944502 1_555
Cu7 O29 2.009679 1_556
Cu7 O28 2.057616 1_556
Cu7 O17 2.199892 1_655
Cu7 O11 2.235594 1_555
Cu7 O6 2.471753 1_556
Cu8 O16 1.917385 1_555
Cu8 O33 2.006293 1_545
Cu8 O3 2.030962 1_545
Cu8 O21 2.138670 1_555
Cu8 O12 2.388031 1_555
Cu8 O20 2.552577 1_545
Cu9 O14 1.917385 1_555
Cu9 O11 2.006293 1_455
Cu9 O25 2.030962 1_455
Cu9 O17 2.138670 1_555
Cu9 O4 2.388031 1_555
Cu9 O0 2.552577 1_455
O0 Te0 1.957238 1_555
O0 Zn5 1.998983 1_655
O0 Zn2 2.015843 1_555
O1 Te2 1.976267 1_565
O1 Zn3 2.063606 1_555
O2 Te3 1.951703 1_555
O3 Te1 1.956473 1_665
O4 Te1 1.976267 1_566
O4 Zn1 2.063607 1_555
O5 Te2 1.956473 1_555
O6 Te3 1.943732 1_555
O6 Zn1 2.014375 1_554
O6 Zn7 2.076064 1_555
O7 Zn5 1.973413 1_655
O7 Te2 1.980257 1_655
O7 Zn4 2.246707 1_555
O8 Zn2 1.973413 1_455
O8 Te2 1.980257 1_565
O8 Zn3 2.246707 1_555
O9 Zn0 1.936789 1_555
O9 Te4 2.051809 1_555
O10 Zn1 1.943783 1_555
O10 Te0 1.955796 1_555
O11 Zn6 1.936789 1_555
O11 Te0 2.051809 1_555
O12 Te2 1.976267 1_655
O12 Zn4 2.063606 1_555
O13 Te0 1.994207 1_555
O14 Zn3 1.943775 1_555
O14 Te5 1.955796 1_555
O15 Te5 1.943732 1_555
O15 Zn7 2.014381 1_556
O15 Zn1 2.076067 1_555
O16 Zn7 1.943775 1_555
O16 Te4 1.955796 1_555
O17 Te5 1.994207 1_555
O18 Te4 1.951703 1_555
O19 Zn4 1.943775 1_555
O19 Te3 1.955796 1_555
O20 Te3 1.957238 1_555
O20 Zn0 1.998983 1_565
O20 Zn6 2.015843 1_554
O21 Te4 1.994207 1_555
O22 Zn6 1.973413 1_545
O22 Te1 1.980257 1_656
O22 Zn7 2.246707 1_556
O23 Te0 1.943732 1_555
O23 Zn4 2.014381 1_555
O23 Zn3 2.076064 1_555
O24 Te5 1.951703 1_555
O25 Te2 1.956473 1_665
O26 Zn5 1.936789 1_555
O26 Te5 2.051809 1_555
O27 Te4 1.943732 1_555
O27 Zn3 2.014381 1_555
O27 Zn4 2.076064 1_555
O28 Te1 1.976267 1_655
O28 Zn7 2.063606 1_555
O29 Te3 1.994207 1_555
O30 Te4 1.957238 1_555
O30 Zn2 1.998983 1_455
O30 Zn5 2.015843 1_555
O31 Te1 1.956473 1_556
O32 Zn0 1.973413 1_565
O32 Te1 1.980257 1_565
O32 Zn1 2.246701 1_554
O33 Zn2 1.936789 1_555
O33 Te3 2.051809 1_555
O34 Te0 1.951703 1_555
O35 Te5 1.957238 1_555
O35 Zn6 1.998983 1_545
O35 Zn0 2.015843 1_556
