# generated using pymatgen
data_BaTb2Mn2O7
_symmetry_space_group_name_H-M   'P 1'
_cell_length_a   10.35677827
_cell_length_b   10.35677827
_cell_length_c   5.60331803
_cell_angle_alpha   89.99829004
_cell_angle_beta   89.99829004
_cell_angle_gamma   148.23141635
_symmetry_Int_Tables_number   1
_chemical_formula_structural   BaTb2Mn2O7
_chemical_formula_sum   'Ba2 Tb4 Mn4 O14'
_cell_volume   316.43499716
_cell_formula_units_Z   2
loop_
 _symmetry_equiv_pos_site_id
 _symmetry_equiv_pos_as_xyz
  1  'x, y, z'
loop_
 _atom_site_type_symbol
 _atom_site_label
 _atom_site_symmetry_multiplicity
 _atom_site_fract_x
 _atom_site_fract_y
 _atom_site_fract_z
 _atom_site_occupancy
  Ba  Ba0  1  0.74125300  0.74125300  0.74589900  1
  Ba  Ba1  1  0.25874700  0.25874700  0.25410100  1
  Tb  Tb0  1  0.90596500  0.53948000  0.72690800  1
  Tb  Tb1  1  0.09403500  0.46052000  0.27309200  1
  Tb  Tb2  1  0.46052000  0.09403500  0.27309200  1
  Tb  Tb3  1  0.53948000  0.90596500  0.72690800  1
  Mn  Mn0  1  0.14093700  0.34921600  0.75534700  1
  Mn  Mn1  1  0.65078400  0.85906300  0.24465300  1
  Mn  Mn2  1  0.85906300  0.65078400  0.24465300  1
  Mn  Mn3  1  0.34921600  0.14093700  0.75534700  1
  O  O0  1  0.11825000  0.88175000  0.50000000  1
  O  O1  1  0.40000400  0.59999600  0.50000000  1
  O  O2  1  0.53544800  0.11446300  0.71649100  1
  O  O3  1  0.46455200  0.88553700  0.28350900  1
  O  O4  1  0.12754600  0.87245400  0.00000000  1
  O  O5  1  0.87245400  0.12754600  0.00000000  1
  O  O6  1  0.59999600  0.40000400  0.50000000  1
  O  O7  1  0.88553700  0.46455200  0.28350900  1
  O  O8  1  0.22000000  0.22000000  0.76442700  1
  O  O9  1  0.11446300  0.53544800  0.71649100  1
  O  O10  1  0.39146400  0.60853600  0.00000000  1
  O  O11  1  0.60853600  0.39146400  0.00000000  1
  O  O12  1  0.78000000  0.78000000  0.23557300  1
  O  O13  1  0.88175000  0.11825000  0.50000000  1
loop_
_geom_bond_atom_site_label_1
_geom_bond_atom_site_label_2
_geom_bond_distance
_geom_bond_site_symmetry_2
Ba0 O8 2.716112 1_665
Ba0 O12 2.752602 1_556
Ba0 O6 2.781784 1_555
Ba0 O1 2.781784 1_555
Ba0 O12 2.867920 1_555
Ba0 O11 2.927984 1_556
Ba0 O10 2.927984 1_556
Ba0 O8 2.956903 1_555
Ba0 O0 3.098360 1_655
Ba0 O13 3.098360 1_565
Ba0 O4 3.261350 1_656
Ba0 O5 3.261350 1_566
Ba1 O12 2.716112 1_445
Ba1 O8 2.752602 1_554
Ba1 O6 2.781784 1_555
Ba1 O1 2.781784 1_555
Ba1 O8 2.867920 1_555
Ba1 O11 2.927984 1_555
Ba1 O10 2.927984 1_555
Ba1 O12 2.956903 1_555
Ba1 O0 3.098360 1_545
Ba1 O13 3.098360 1_455
Ba1 O4 3.261350 1_545
Ba1 O5 3.261350 1_455
Mn0 O10 1.993998 1_556
Mn0 O5 2.006669 1_456
Mn0 O13 2.014206 1_455
Mn0 O1 2.035232 1_555
Mn0 O8 2.080220 1_555
Mn0 O9 2.177592 1_555
Mn1 O10 1.993998 1_555
Mn1 O5 2.006669 1_565
Mn1 O13 2.014206 1_565
Mn1 O1 2.035232 1_555
Mn1 O12 2.080220 1_555
Mn1 O3 2.177592 1_555
Mn2 O11 1.993998 1_555
Mn2 O4 2.006669 1_655
Mn2 O0 2.014206 1_655
Mn2 O6 2.035232 1_555
Mn2 O12 2.080220 1_555
Mn2 O7 2.177592 1_555
Mn3 O11 1.993998 1_556
Mn3 O4 2.006669 1_546
Mn3 O0 2.014206 1_545
Mn3 O6 2.035232 1_555
Mn3 O8 2.080220 1_555
Mn3 O2 2.177592 1_555
O0 Tb0 2.400769 1_455
O0 Tb2 2.400769 1_565
O1 Tb3 2.441680 1_555
O1 Tb1 2.441680 1_555
O2 Tb3 2.195754 1_545
O2 Tb0 2.320194 1_555
O2 Tb2 2.557480 1_555
O3 Tb2 2.195754 1_565
O3 Tb1 2.320194 1_555
O3 Tb3 2.557480 1_555
O4 Tb0 2.458530 1_454
O4 Tb2 2.458530 1_565
O5 Tb3 2.458530 1_544
O5 Tb1 2.458530 1_655
O6 Tb0 2.441680 1_555
O6 Tb2 2.441680 1_555
O7 Tb1 2.195754 1_655
O7 Tb2 2.320194 1_555
O7 Tb0 2.557480 1_555
O9 Tb0 2.195754 1_455
O9 Tb3 2.320194 1_555
O9 Tb1 2.557480 1_555
O10 Tb3 2.480051 1_554
O10 Tb1 2.480051 1_555
O11 Tb0 2.480051 1_554
O11 Tb2 2.480051 1_555
O13 Tb3 2.400769 1_545
O13 Tb1 2.400769 1_655
