# generated using pymatgen
data_KNiIO6
_symmetry_space_group_name_H-M   'P 1'
_cell_length_a   5.02106848
_cell_length_b   5.02106848
_cell_length_c   6.11732300
_cell_angle_alpha   90.00000000
_cell_angle_beta   90.00000000
_cell_angle_gamma   120.00000637
_symmetry_Int_Tables_number   1
_chemical_formula_structural   KNiIO6
_chemical_formula_sum   'K1 Ni1 I1 O6'
_cell_volume   133.56242810
_cell_formula_units_Z   1
loop_
 _symmetry_equiv_pos_site_id
 _symmetry_equiv_pos_as_xyz
  1  'x, y, z'
loop_
 _atom_site_type_symbol
 _atom_site_label
 _atom_site_symmetry_multiplicity
 _atom_site_fract_x
 _atom_site_fract_y
 _atom_site_fract_z
 _atom_site_occupancy
  K  K0  1  0.00000000  0.00000000  0.00000000  1
  Ni  Ni0  1  0.33333300  0.66666700  0.50000000  1
  I  I0  1  0.66666700  0.33333300  0.50000000  1
  O  O0  1  0.37639700  0.99760800  0.67495500  1
  O  O1  1  0.00239200  0.37879000  0.67495500  1
  O  O2  1  0.62121000  0.62360300  0.67495500  1
  O  O3  1  0.00239200  0.62360300  0.32504500  1
  O  O4  1  0.62121000  0.99760800  0.32504500  1
  O  O5  1  0.37639700  0.37879000  0.32504500  1
loop_
_geom_bond_atom_site_label_1
_geom_bond_atom_site_label_2
_geom_bond_distance
_geom_bond_site_symmetry_2
K0 O3 2.747431 1_545
K0 O0 2.747431 1_544
K0 O2 2.747433 1_444
K0 O5 2.747433 1_555
K0 O4 2.747435 1_445
K0 O1 2.747435 1_554
Ni0 O4 1.895804 1_555
Ni0 O1 1.895804 1_555
Ni0 O0 1.895804 1_555
Ni0 O3 1.895804 1_555
Ni0 O5 1.895804 1_555
Ni0 O2 1.895804 1_555
I0 O1 1.911642 1_655
I0 O4 1.911642 1_545
I0 O3 1.911645 1_655
I0 O0 1.911645 1_545
I0 O2 1.911650 1_555
I0 O5 1.911650 1_555
