# generated using pymatgen
data_Fe3B7IO13
_symmetry_space_group_name_H-M   'P 1'
_cell_length_a   8.75888900
_cell_length_b   8.76254800
_cell_length_c   12.38782500
_cell_angle_alpha   90.00000000
_cell_angle_beta   90.00000000
_cell_angle_gamma   90.00000000
_symmetry_Int_Tables_number   1
_chemical_formula_structural   Fe3B7IO13
_chemical_formula_sum   'Fe12 B28 I4 O52'
_cell_volume   950.76786408
_cell_formula_units_Z   4
loop_
 _symmetry_equiv_pos_site_id
 _symmetry_equiv_pos_as_xyz
  1  'x, y, z'
loop_
 _atom_site_type_symbol
 _atom_site_label
 _atom_site_symmetry_multiplicity
 _atom_site_fract_x
 _atom_site_fract_y
 _atom_site_fract_z
 _atom_site_occupancy
  Fe  Fe0  1  0.00077600  0.98020000  0.01048400  1
  Fe  Fe1  1  0.49922400  0.98020000  0.51048400  1
  Fe  Fe2  1  0.49824600  0.51782400  0.50762500  1
  Fe  Fe3  1  0.00175400  0.51782400  0.00762500  1
  Fe  Fe4  1  0.24202000  0.74864500  0.74215200  1
  Fe  Fe5  1  0.99824600  0.48217600  0.50762500  1
  Fe  Fe6  1  0.74202000  0.25135500  0.74215200  1
  Fe  Fe7  1  0.75798000  0.25135500  0.24215200  1
  Fe  Fe8  1  0.99922400  0.01980000  0.51048400  1
  Fe  Fe9  1  0.50077600  0.01980000  0.01048400  1
  Fe  Fe10  1  0.25798000  0.74864500  0.24215200  1
  Fe  Fe11  1  0.50175400  0.48217600  0.00762500  1
  B  B0  1  0.00118500  0.49645800  0.75601100  1
  B  B1  1  0.99881500  0.50354200  0.25601100  1
  B  B2  1  0.54859000  0.75134500  0.85594500  1
  B  B3  1  0.24325000  0.24498600  0.00396900  1
  B  B4  1  0.25675000  0.24498600  0.50396900  1
  B  B5  1  0.49881500  0.49645800  0.25601100  1
  B  B6  1  0.24392600  0.40017700  0.17651800  1
  B  B7  1  0.25701900  0.09633800  0.67739000  1
  B  B8  1  0.04859000  0.24865500  0.85594500  1
  B  B9  1  0.09316800  0.24983500  0.32883200  1
  B  B10  1  0.40683200  0.24983500  0.82883200  1
  B  B11  1  0.50130200  0.99725400  0.75733200  1
  B  B12  1  0.00130200  0.00274600  0.75733200  1
  B  B13  1  0.74325000  0.75501400  0.00396900  1
  B  B14  1  0.50118500  0.50354200  0.75601100  1
  B  B15  1  0.49869800  0.00274600  0.25733200  1
  B  B16  1  0.74298100  0.90366200  0.17739000  1
  B  B17  1  0.75607400  0.59982300  0.67651800  1
  B  B18  1  0.25607400  0.40017700  0.67651800  1
  B  B19  1  0.75675000  0.75501400  0.50396900  1
  B  B20  1  0.45141000  0.24865500  0.35594500  1
  B  B21  1  0.74392600  0.59982300  0.17651800  1
  B  B22  1  0.90683200  0.75016500  0.82883200  1
  B  B23  1  0.99869800  0.99725400  0.25733200  1
  B  B24  1  0.24298100  0.09633800  0.17739000  1
  B  B25  1  0.59316800  0.75016500  0.32883200  1
  B  B26  1  0.95141000  0.75134500  0.35594500  1
  B  B27  1  0.75701900  0.90366200  0.67739000  1
  I  I0  1  0.75482700  0.25109700  0.51002000  1
  I  I1  1  0.24517300  0.74890300  0.01002000  1
  I  I2  1  0.25482700  0.74890300  0.51002000  1
  I  I3  1  0.74517300  0.25109700  0.01002000  1
  O  O0  1  0.68436000  0.64030800  0.57398700  1
  O  O1  1  0.22627200  0.24941300  0.24456900  1
  O  O2  1  0.66504200  0.48760800  0.73565100  1
  O  O3  1  0.87884700  0.67637200  0.43957000  1
  O  O4  1  0.58785600  0.53968500  0.15942300  1
  O  O5  1  0.95408700  0.59244100  0.84853900  1
  O  O6  1  0.82575500  0.87542900  0.57092200  1
  O  O7  1  0.14096100  0.17805500  0.43059600  1
  O  O8  1  0.17424500  0.12457100  0.07092200  1
  O  O9  1  0.53771500  0.33207800  0.28240100  1
  O  O10  1  0.64096100  0.82194500  0.43059600  1
  O  O11  1  0.67424500  0.87542900  0.07092200  1
  O  O12  1  0.09491300  0.05609400  0.66586300  1
  O  O13  1  0.04591300  0.40755900  0.34853900  1
  O  O14  1  0.16504200  0.51239200  0.73565100  1
  O  O15  1  0.16135100  0.97667100  0.23398000  1
  O  O16  1  0.53924500  0.90875000  0.85722700  1
  O  O17  1  0.91214400  0.53968500  0.65942300  1
  O  O18  1  0.72627200  0.75058700  0.24456900  1
  O  O19  1  0.31564000  0.35969200  0.07398700  1
  O  O20  1  0.40508700  0.05609400  0.16586300  1
  O  O21  1  0.12115300  0.32362800  0.93957000  1
  O  O22  1  0.37884700  0.32362800  0.43957000  1
  O  O23  1  0.03297500  0.83947700  0.78059500  1
  O  O24  1  0.96075500  0.90875000  0.35722700  1
  O  O25  1  0.35903900  0.17805500  0.93059600  1
  O  O26  1  0.54591300  0.59244100  0.34853900  1
  O  O27  1  0.08785600  0.46031500  0.15942300  1
  O  O28  1  0.83864900  0.02332900  0.73398000  1
  O  O29  1  0.45408700  0.40755900  0.84853900  1
  O  O30  1  0.62115300  0.67637200  0.93957000  1
  O  O31  1  0.27372800  0.24941300  0.74456900  1
  O  O32  1  0.96228500  0.33207800  0.78240100  1
  O  O33  1  0.59491300  0.94390600  0.66586300  1
  O  O34  1  0.85903900  0.82194500  0.93059600  1
  O  O35  1  0.33495800  0.51239200  0.23565100  1
  O  O36  1  0.46075500  0.09125000  0.35722700  1
  O  O37  1  0.18436000  0.35969200  0.57398700  1
  O  O38  1  0.96702500  0.16052300  0.28059500  1
  O  O39  1  0.81564000  0.64030800  0.07398700  1
  O  O40  1  0.41214400  0.46031500  0.65942300  1
  O  O41  1  0.33864900  0.97667100  0.73398000  1
  O  O42  1  0.46228500  0.66792200  0.78240100  1
  O  O43  1  0.90508700  0.94390600  0.16586300  1
  O  O44  1  0.03924500  0.09125000  0.85722700  1
  O  O45  1  0.53297500  0.16052300  0.78059500  1
  O  O46  1  0.83495800  0.48760800  0.23565100  1
  O  O47  1  0.32575500  0.12457100  0.57092200  1
  O  O48  1  0.03771500  0.66792200  0.28240100  1
  O  O49  1  0.66135100  0.02332900  0.23398000  1
  O  O50  1  0.46702500  0.83947700  0.28059500  1
  O  O51  1  0.77372800  0.75058700  0.74456900  1
loop_
_geom_bond_atom_site_label_1
_geom_bond_atom_site_label_2
_geom_bond_distance
_geom_bond_site_symmetry_2
Fe0 O34 2.107982 1_454
Fe0 O8 2.114114 1_565
Fe0 O43 2.123320 1_455
Fe0 O44 2.159815 1_564
Fe0 I1 2.947901 1_555
Fe0 I3 3.262963 1_465
Fe1 O10 2.107982 1_555
Fe1 O47 2.114114 1_565
Fe1 O33 2.123320 1_555
Fe1 O36 2.159815 1_565
Fe1 I2 2.947901 1_555
Fe1 I0 3.262963 1_565
Fe2 O40 2.087768 1_555
Fe2 O0 2.117811 1_555
Fe2 O26 2.117921 1_555
Fe2 O22 2.167962 1_555
Fe2 I2 2.940515 1_555
Fe2 I0 3.242541 1_555
Fe3 O27 2.087768 1_555
Fe3 O39 2.117811 1_455
Fe3 O5 2.117921 1_454
Fe3 O21 2.167962 1_554
Fe3 I1 2.940515 1_555
Fe3 I3 3.242541 1_455
Fe4 O23 2.052522 1_555
Fe4 O42 2.114483 1_555
Fe4 O41 2.172311 1_555
Fe4 O14 2.178698 1_555
Fe4 I2 2.877799 1_555
Fe4 I1 3.318418 1_556
Fe5 O17 2.087768 1_555
Fe5 O37 2.117811 1_655
Fe5 O13 2.117921 1_655
Fe5 O3 2.167962 1_555
Fe5 I0 2.940515 1_555
Fe5 I2 3.242541 1_655
Fe6 O45 2.052522 1_555
Fe6 O32 2.114483 1_555
Fe6 O28 2.172311 1_555
Fe6 O2 2.178698 1_555
Fe6 I0 2.877799 1_555
Fe6 I3 3.318418 1_556
Fe7 O38 2.052522 1_555
Fe7 O9 2.114483 1_555
Fe7 O49 2.172311 1_555
Fe7 O46 2.178698 1_555
Fe7 I3 2.877799 1_555
Fe7 I0 3.318418 1_555
Fe8 O7 2.107982 1_655
Fe8 O6 2.114114 1_545
Fe8 O12 2.123320 1_655
Fe8 O24 2.159815 1_545
Fe8 I0 2.947901 1_555
Fe8 I2 3.262963 1_645
Fe9 O25 2.107982 1_554
Fe9 O11 2.114114 1_545
Fe9 O20 2.123320 1_555
Fe9 O16 2.159815 1_544
Fe9 I3 2.947901 1_555
Fe9 I1 3.262963 1_545
Fe10 O50 2.052522 1_555
Fe10 O48 2.114483 1_555
Fe10 O15 2.172311 1_555
Fe10 O35 2.178698 1_555
Fe10 I1 2.877799 1_555
Fe10 I2 3.318418 1_555
Fe11 O4 2.087768 1_555
Fe11 O19 2.117811 1_555
Fe11 O29 2.117921 1_554
Fe11 O30 2.167962 1_554
Fe11 I3 2.940515 1_555
Fe11 I1 3.242541 1_555
B0 O14 1.463872 1_555
B0 O17 1.477622 1_455
B0 O5 1.480329 1_455
B0 O32 1.515810 1_455
B1 O46 1.463872 1_555
B1 O27 1.477622 1_655
B1 O13 1.480329 1_655
B1 O48 1.515810 1_655
B2 O30 1.381555 1_555
B2 O16 1.381787 1_555
B2 O42 1.391334 1_555
B3 O19 1.471264 1_555
B3 O8 1.471917 1_555
B3 O25 1.482798 1_554
B3 O21 1.501659 1_554
B4 O37 1.471264 1_555
B4 O47 1.471917 1_555
B4 O7 1.482798 1_555
B4 O22 1.501659 1_555
B5 O35 1.463872 1_555
B5 O4 1.477622 1_555
B5 O26 1.480329 1_555
B5 O9 1.515810 1_555
B6 O19 1.460701 1_555
B6 O35 1.462603 1_555
B6 O27 1.480278 1_555
B6 O1 1.574741 1_555
B7 O41 1.449891 1_545
B7 O12 1.469956 1_555
B7 O47 1.470777 1_555
B7 O31 1.585288 1_555
B8 O21 1.381555 1_555
B8 O44 1.381787 1_555
B8 O32 1.391334 1_455
B9 O13 1.463220 1_555
B9 O7 1.469710 1_555
B9 O38 1.479958 1_455
B9 O1 1.564863 1_555
B10 O29 1.463220 1_555
B10 O25 1.469710 1_555
B10 O45 1.479958 1_555
B10 O31 1.564863 1_555
B11 O41 1.464878 1_555
B11 O33 1.474695 1_555
B11 O45 1.485522 1_565
B11 O16 1.497746 1_555
B12 O28 1.464878 1_455
B12 O12 1.474695 1_555
B12 O23 1.485522 1_545
B12 O44 1.497746 1_555
B13 O39 1.471264 1_555
B13 O11 1.471917 1_555
B13 O34 1.482798 1_554
B13 O30 1.501659 1_554
B14 O2 1.463872 1_555
B14 O40 1.477622 1_555
B14 O29 1.480329 1_555
B14 O42 1.515810 1_555
B15 O49 1.464878 1_555
B15 O20 1.474695 1_555
B15 O50 1.485522 1_545
B15 O36 1.497746 1_555
B16 O49 1.449891 1_565
B16 O43 1.469956 1_555
B16 O11 1.470777 1_555
B16 O18 1.585288 1_555
B17 O0 1.460701 1_555
B17 O2 1.462603 1_555
B17 O17 1.480278 1_555
B17 O51 1.574741 1_555
B18 O37 1.460701 1_555
B18 O14 1.462603 1_555
B18 O40 1.480278 1_555
B18 O31 1.574741 1_555
B19 O0 1.471264 1_555
B19 O6 1.471917 1_555
B19 O10 1.482798 1_555
B19 O3 1.501659 1_555
B20 O22 1.381555 1_555
B20 O36 1.381787 1_555
B20 O9 1.391334 1_555
B21 O39 1.460701 1_555
B21 O46 1.462603 1_555
B21 O4 1.480278 1_555
B21 O18 1.574741 1_555
B22 O5 1.463220 1_555
B22 O34 1.469710 1_555
B22 O23 1.479958 1_655
B22 O51 1.564863 1_555
B23 O15 1.464878 1_655
B23 O43 1.474695 1_555
B23 O38 1.485522 1_565
B23 O24 1.497746 1_555
B24 O15 1.449891 1_545
B24 O20 1.469956 1_555
B24 O8 1.470777 1_555
B24 O1 1.585288 1_555
B25 O26 1.463220 1_555
B25 O10 1.469710 1_555
B25 O50 1.479958 1_555
B25 O18 1.564863 1_555
B26 O3 1.381555 1_555
B26 O24 1.381787 1_555
B26 O48 1.391334 1_655
B27 O28 1.449891 1_565
B27 O33 1.469956 1_555
B27 O6 1.470777 1_555
B27 O51 1.585288 1_555
