# generated using pymatgen
data_CuO
_symmetry_space_group_name_H-M   'P 1'
_cell_length_a   5.74839200
_cell_length_b   5.74839200
_cell_length_c   12.65157300
_cell_angle_alpha   90.00000000
_cell_angle_beta   90.00000000
_cell_angle_gamma   90.00000000
_symmetry_Int_Tables_number   1
_chemical_formula_structural   CuO
_chemical_formula_sum   'Cu16 O16'
_cell_volume   418.05871214
_cell_formula_units_Z   16
loop_
 _symmetry_equiv_pos_site_id
 _symmetry_equiv_pos_as_xyz
  1  'x, y, z'
loop_
 _atom_site_type_symbol
 _atom_site_label
 _atom_site_symmetry_multiplicity
 _atom_site_fract_x
 _atom_site_fract_y
 _atom_site_fract_z
 _atom_site_occupancy
  Cu  Cu0  1  0.24605500  0.50000000  0.75327400  1
  Cu  Cu1  1  0.50000000  0.24605500  0.24672600  1
  Cu  Cu2  1  0.50000000  0.75394500  0.24672600  1
  Cu  Cu3  1  0.75394500  0.50000000  0.75327400  1
  Cu  Cu4  1  0.74605500  0.00000000  0.74672600  1
  Cu  Cu5  1  0.00000000  0.74605500  0.25327400  1
  Cu  Cu6  1  0.00000000  0.25394500  0.25327400  1
  Cu  Cu7  1  0.25394500  0.00000000  0.74672600  1
  Cu  Cu8  1  0.24742400  0.50000000  0.09883200  1
  Cu  Cu9  1  0.50000000  0.24742400  0.90116800  1
  Cu  Cu10  1  0.50000000  0.75257600  0.90116800  1
  Cu  Cu11  1  0.75257600  0.50000000  0.09883200  1
  Cu  Cu12  1  0.74742400  0.00000000  0.40116800  1
  Cu  Cu13  1  0.00000000  0.74742400  0.59883200  1
  Cu  Cu14  1  0.00000000  0.25257600  0.59883200  1
  Cu  Cu15  1  0.25257600  0.00000000  0.40116800  1
  O  O0  1  0.28594500  0.00000000  0.89032800  1
  O  O1  1  0.28575800  0.50000000  0.89739400  1
  O  O2  1  0.50000000  0.78594500  0.39032800  1
  O  O3  1  0.50000000  0.21405500  0.39032800  1
  O  O4  1  0.50000000  0.28575800  0.10260600  1
  O  O5  1  0.50000000  0.71424200  0.10260600  1
  O  O6  1  0.71424200  0.50000000  0.89739400  1
  O  O7  1  0.71405500  0.00000000  0.89032800  1
  O  O8  1  0.78594500  0.50000000  0.60967200  1
  O  O9  1  0.78575800  0.00000000  0.60260600  1
  O  O10  1  0.00000000  0.71405500  0.10967200  1
  O  O11  1  0.00000000  0.28594500  0.10967200  1
  O  O12  1  0.00000000  0.78575800  0.39739400  1
  O  O13  1  0.00000000  0.21424200  0.39739400  1
  O  O14  1  0.21424200  0.00000000  0.60260600  1
  O  O15  1  0.21405500  0.50000000  0.60967200  1
loop_
_geom_bond_atom_site_label_1
_geom_bond_atom_site_label_2
_geom_bond_distance
_geom_bond_site_symmetry_2
Cu0 O15 1.826080 1_555
Cu0 O1 1.837573 1_555
Cu1 O3 1.826080 1_555
Cu1 O4 1.837573 1_555
Cu2 O2 1.826080 1_555
Cu2 O5 1.837573 1_555
Cu3 O8 1.826080 1_555
Cu3 O6 1.837573 1_555
Cu4 O7 1.826080 1_555
Cu4 O9 1.837573 1_555
Cu5 O10 1.826080 1_555
Cu5 O12 1.837573 1_555
Cu6 O11 1.826080 1_555
Cu6 O13 1.837573 1_555
Cu7 O0 1.826080 1_555
Cu7 O14 1.837573 1_555
Cu8 O10 1.885677 1_555
Cu8 O11 1.885677 1_555
Cu8 O5 1.904473 1_555
Cu8 O4 1.904473 1_555
Cu8 O1 2.558017 1_554
Cu9 O7 1.885677 1_555
Cu9 O0 1.885677 1_555
Cu9 O6 1.904473 1_555
Cu9 O1 1.904473 1_555
Cu9 O4 2.558017 1_556
Cu10 O7 1.885677 1_565
Cu10 O0 1.885677 1_565
Cu10 O6 1.904473 1_555
Cu10 O1 1.904473 1_555
Cu10 O5 2.558017 1_556
Cu11 O11 1.885677 1_655
Cu11 O10 1.885677 1_655
Cu11 O5 1.904473 1_555
Cu11 O4 1.904473 1_555
Cu11 O6 2.558017 1_554
Cu12 O3 1.885677 1_555
Cu12 O2 1.885677 1_545
Cu12 O13 1.904473 1_655
Cu12 O12 1.904473 1_645
Cu12 O9 2.558017 1_555
Cu13 O15 1.885677 1_555
Cu13 O8 1.885677 1_455
Cu13 O9 1.904473 1_465
Cu13 O14 1.904473 1_565
Cu13 O12 2.558017 1_555
Cu14 O8 1.885677 1_455
Cu14 O15 1.885677 1_555
Cu14 O14 1.904473 1_555
Cu14 O9 1.904473 1_455
Cu14 O13 2.558017 1_555
Cu15 O2 1.885677 1_545
Cu15 O3 1.885677 1_555
Cu15 O13 1.904473 1_555
Cu15 O12 1.904473 1_545
Cu15 O14 2.558017 1_555
