# generated using pymatgen
data_Ba3NaBiO6
_symmetry_space_group_name_H-M   'P 1'
_cell_length_a   7.35353121
_cell_length_b   7.35353121
_cell_length_c   7.35353127
_cell_angle_alpha   91.80812226
_cell_angle_beta   91.80812226
_cell_angle_gamma   91.80812559
_symmetry_Int_Tables_number   1
_chemical_formula_structural   Ba3NaBiO6
_chemical_formula_sum   'Ba6 Na2 Bi2 O12'
_cell_volume   397.03118589
_cell_formula_units_Z   2
loop_
 _symmetry_equiv_pos_site_id
 _symmetry_equiv_pos_as_xyz
  1  'x, y, z'
loop_
 _atom_site_type_symbol
 _atom_site_label
 _atom_site_symmetry_multiplicity
 _atom_site_fract_x
 _atom_site_fract_y
 _atom_site_fract_z
 _atom_site_occupancy
  Ba  Ba0  1  0.25000000  0.89890300  0.60109700  1
  Ba  Ba1  1  0.75000000  0.10109700  0.39890300  1
  Ba  Ba2  1  0.89890300  0.60109700  0.25000000  1
  Ba  Ba3  1  0.39890300  0.75000000  0.10109700  1
  Ba  Ba4  1  0.10109700  0.39890300  0.75000000  1
  Ba  Ba5  1  0.60109700  0.25000000  0.89890300  1
  Na  Na0  1  0.75000000  0.75000000  0.75000000  1
  Na  Na1  1  0.25000000  0.25000000  0.25000000  1
  Bi  Bi0  1  0.00000000  0.00000000  0.00000000  1
  Bi  Bi1  1  0.50000000  0.50000000  0.50000000  1
  O  O0  1  0.72098700  0.91810100  0.05258500  1
  O  O1  1  0.05258500  0.72098700  0.91810100  1
  O  O2  1  0.08189900  0.94741500  0.27901300  1
  O  O3  1  0.91810100  0.05258500  0.72098700  1
  O  O4  1  0.44741500  0.58189900  0.77901300  1
  O  O5  1  0.58189900  0.77901300  0.44741500  1
  O  O6  1  0.27901300  0.08189900  0.94741500  1
  O  O7  1  0.94741500  0.27901300  0.08189900  1
  O  O8  1  0.22098700  0.55258500  0.41810100  1
  O  O9  1  0.55258500  0.41810100  0.22098700  1
  O  O10  1  0.41810100  0.22098700  0.55258500  1
  O  O11  1  0.77901300  0.44741500  0.58189900  1
loop_
_geom_bond_atom_site_label_1
_geom_bond_atom_site_label_2
_geom_bond_distance
_geom_bond_site_symmetry_2
Ba0 O10 2.676053 1_565
Ba0 O2 2.676053 1_555
Ba0 O8 2.841330 1_555
Ba0 O6 2.841330 1_565
Ba0 O5 2.873677 1_555
Ba0 O3 2.873677 1_465
Ba0 O1 3.088572 1_555
Ba0 O4 3.088572 1_555
Ba1 O5 2.676053 1_545
Ba1 O3 2.676053 1_555
Ba1 O11 2.841330 1_555
Ba1 O0 2.841330 1_545
Ba1 O10 2.873677 1_555
Ba1 O2 2.873677 1_645
Ba1 O7 3.088572 1_555
Ba1 O9 3.088572 1_555
Ba2 O7 2.676053 1_555
Ba2 O8 2.676053 1_655
Ba2 O2 2.841329 1_655
Ba2 O9 2.841329 1_555
Ba2 O11 2.873677 1_555
Ba2 O1 2.873677 1_654
Ba2 O0 3.088572 1_555
Ba2 O5 3.088572 1_555
Ba3 O0 2.676053 1_555
Ba3 O4 2.676053 1_554
Ba3 O1 2.841330 1_554
Ba3 O5 2.841330 1_555
Ba3 O6 2.873677 1_564
Ba3 O9 2.873677 1_555
Ba3 O8 3.088572 1_555
Ba3 O2 3.088572 1_555
Ba4 O1 2.676053 1_555
Ba4 O11 2.676053 1_455
Ba4 O3 2.841329 1_455
Ba4 O4 2.841329 1_555
Ba4 O7 2.873677 1_456
Ba4 O8 2.873677 1_555
Ba4 O10 3.088572 1_555
Ba4 O6 3.088572 1_555
Ba5 O6 2.676053 1_555
Ba5 O9 2.676053 1_556
Ba5 O7 2.841330 1_556
Ba5 O10 2.841330 1_555
Ba5 O0 2.873677 1_546
Ba5 O4 2.873677 1_555
Ba5 O11 3.088572 1_555
Ba5 O3 3.088572 1_555
Na0 O4 2.529330 1_555
Na0 O3 2.529330 1_565
Na0 O11 2.529330 1_555
Na0 O1 2.529330 1_655
Na0 O5 2.529330 1_555
Na0 O0 2.529330 1_556
Na1 O9 2.529330 1_555
Na1 O2 2.529330 1_545
Na1 O7 2.529330 1_455
Na1 O8 2.529330 1_555
Na1 O6 2.529330 1_554
Na1 O10 2.529330 1_555
Bi0 O0 2.169934 1_445
Bi0 O6 2.169934 1_554
Bi0 O3 2.169934 1_454
Bi0 O2 2.169934 1_545
Bi0 O1 2.169934 1_544
Bi0 O7 2.169934 1_455
Bi1 O10 2.169934 1_555
Bi1 O5 2.169934 1_555
Bi1 O4 2.169934 1_555
Bi1 O9 2.169934 1_555
Bi1 O11 2.169934 1_555
Bi1 O8 2.169934 1_555
