# generated using pymatgen
data_SbOF
_symmetry_space_group_name_H-M   'P 1'
_cell_length_a   5.51749620
_cell_length_b   11.64951291
_cell_length_c   12.31453893
_cell_angle_alpha   90.00000000
_cell_angle_beta   90.00000000
_cell_angle_gamma   90.00000000
_symmetry_Int_Tables_number   1
_chemical_formula_structural   SbOF
_chemical_formula_sum   'Sb16 O16 F16'
_cell_volume   791.53106786
_cell_formula_units_Z   16
loop_
 _symmetry_equiv_pos_site_id
 _symmetry_equiv_pos_as_xyz
  1  'x, y, z'
loop_
 _atom_site_type_symbol
 _atom_site_label
 _atom_site_symmetry_multiplicity
 _atom_site_fract_x
 _atom_site_fract_y
 _atom_site_fract_z
 _atom_site_occupancy
  Sb  Sb0  1  0.68706535  0.64547860  0.20773517  1
  Sb  Sb1  1  0.78313603  0.38719369  0.49206211  1
  Sb  Sb2  1  0.78313603  0.88719369  0.00793789  1
  Sb  Sb3  1  0.81293465  0.64547860  0.70773517  1
  Sb  Sb4  1  0.21686397  0.61280631  0.50793789  1
  Sb  Sb5  1  0.18706535  0.85452140  0.20773517  1
  Sb  Sb6  1  0.71686397  0.88719369  0.50793789  1
  Sb  Sb7  1  0.31293465  0.85452140  0.70773517  1
  Sb  Sb8  1  0.28313603  0.11280631  0.49206211  1
  Sb  Sb9  1  0.68706535  0.14547860  0.29226483  1
  Sb  Sb10  1  0.71686397  0.38719369  0.99206211  1
  Sb  Sb11  1  0.81293465  0.14547860  0.79226483  1
  Sb  Sb12  1  0.31293465  0.35452140  0.79226483  1
  Sb  Sb13  1  0.28313603  0.61280631  0.00793789  1
  Sb  Sb14  1  0.21686397  0.11280631  0.99206211  1
  Sb  Sb15  1  0.18706535  0.35452140  0.29226483  1
  O  O0  1  0.92478798  0.54722574  0.58345147  1
  O  O1  1  0.12251918  0.73683535  0.62378725  1
  O  O2  1  0.37748082  0.23683535  0.37621275  1
  O  O3  1  0.57521202  0.04722574  0.41654853  1
  O  O4  1  0.07521202  0.45277426  0.41654853  1
  O  O5  1  0.42478798  0.95277426  0.58345147  1
  O  O6  1  0.07521202  0.95277426  0.08345147  1
  O  O7  1  0.12251918  0.23683535  0.87621275  1
  O  O8  1  0.62251918  0.26316465  0.87621275  1
  O  O9  1  0.42478798  0.45277426  0.91654853  1
  O  O10  1  0.87748082  0.26316465  0.37621275  1
  O  O11  1  0.92478798  0.04722574  0.91654853  1
  O  O12  1  0.57521202  0.54722574  0.08345147  1
  O  O13  1  0.62251918  0.76316465  0.62378725  1
  O  O14  1  0.37748082  0.73683535  0.12378725  1
  O  O15  1  0.87748082  0.76316465  0.12378725  1
  F  F0  1  0.49970865  0.94856407  0.19028629  1
  F  F1  1  0.50029135  0.05143593  0.80971371  1
  F  F2  1  0.50248998  0.30301713  0.09171231  1
  F  F3  1  0.99751002  0.30301713  0.59171231  1
  F  F4  1  0.49970865  0.44856407  0.30971371  1
  F  F5  1  -0.00029135  0.55143593  0.19028629  1
  F  F6  1  0.00029135  0.94856407  0.69028629  1
  F  F7  1  0.00248998  0.19698287  0.09171231  1
  F  F8  1  0.49751002  0.19698287  0.59171231  1
  F  F9  1  0.50029135  0.55143593  0.69028629  1
  F  F10  1  0.49751002  0.69698287  0.90828769  1
  F  F11  1  0.00029135  0.44856407  0.80971371  1
  F  F12  1  -0.00029135  0.05143593  0.30971371  1
  F  F13  1  0.50248998  0.80301713  0.40828769  1
  F  F14  1  0.00248998  0.69698287  0.40828769  1
  F  F15  1  0.99751002  0.80301713  0.90828769  1
loop_
_geom_bond_atom_site_label_1
_geom_bond_atom_site_label_2
_geom_bond_distance
_geom_bond_site_symmetry_2
O0 Sb3 2.008332 1_555
O0 Sb4 2.011326 1_655
O0 Sb1 2.313656 1_555
O1 Sb7 2.012982 1_555
O1 Sb4 2.096168 1_555
O1 Sb3 2.262535 1_455
O2 Sb15 2.012982 1_555
O2 Sb8 2.096168 1_555
O2 Sb9 2.262535 1_555
O3 Sb9 2.008332 1_555
O3 Sb8 2.011326 1_555
O3 Sb6 2.313656 1_545
O4 Sb15 2.008332 1_555
O4 Sb1 2.011326 1_455
O4 Sb4 2.313656 1_555
O5 Sb7 2.008332 1_555
O5 Sb6 2.011326 1_555
O5 Sb8 2.313656 1_565
O6 Sb5 2.008332 1_555
O6 Sb2 2.011326 1_455
O6 Sb14 2.313656 1_564
O7 Sb12 2.012982 1_555
O7 Sb14 2.096168 1_555
O7 Sb11 2.262535 1_455
O8 Sb11 2.012982 1_555
O8 Sb10 2.096168 1_555
O8 Sb12 2.262535 1_555
O9 Sb12 2.008332 1_555
O9 Sb10 2.011326 1_555
O9 Sb13 2.313656 1_556
O10 Sb9 2.012982 1_555
O10 Sb1 2.096168 1_555
O10 Sb15 2.262535 1_655
O11 Sb11 2.008332 1_555
O11 Sb14 2.011326 1_655
O11 Sb2 2.313656 1_546
O12 Sb0 2.008332 1_555
O12 Sb13 2.011326 1_555
O12 Sb10 2.313656 1_554
O13 Sb3 2.012982 1_555
O13 Sb6 2.096168 1_555
O13 Sb7 2.262535 1_555
O14 Sb5 2.012982 1_555
O14 Sb13 2.096168 1_555
O14 Sb0 2.262535 1_555
O15 Sb0 2.012982 1_555
O15 Sb2 2.096168 1_555
O15 Sb5 2.262535 1_655
F0 Sb5 2.054765 1_555
F1 Sb11 2.054765 1_555
F2 Sb10 1.966349 1_554
F3 Sb1 1.966349 1_555
F4 Sb15 2.054765 1_555
F5 Sb0 2.054765 1_455
F6 Sb7 2.054765 1_555
F7 Sb14 1.966349 1_554
F8 Sb8 1.966349 1_555
F9 Sb3 2.054765 1_555
F10 Sb13 1.966349 1_556
F11 Sb12 2.054765 1_555
F12 Sb9 2.054765 1_455
F13 Sb6 1.966349 1_555
F14 Sb4 1.966349 1_555
F15 Sb2 1.966349 1_556
