# generated using pymatgen
data_K2YNb5O15
_symmetry_space_group_name_H-M   'P 1'
_cell_length_a   9.35185659
_cell_length_b   9.35185659
_cell_length_c   3.97510100
_cell_angle_alpha   90.00000000
_cell_angle_beta   90.00000000
_cell_angle_gamma   111.88706881
_symmetry_Int_Tables_number   1
_chemical_formula_structural   K2YNb5O15
_chemical_formula_sum   'K2 Y1 Nb5 O15'
_cell_volume   322.59272693
_cell_formula_units_Z   1
loop_
 _symmetry_equiv_pos_site_id
 _symmetry_equiv_pos_as_xyz
  1  'x, y, z'
loop_
 _atom_site_type_symbol
 _atom_site_label
 _atom_site_symmetry_multiplicity
 _atom_site_fract_x
 _atom_site_fract_y
 _atom_site_fract_z
 _atom_site_occupancy
  K  K0  1  0.29805700  0.70194300  0.00000000  1
  K  K1  1  0.70194300  0.29805700  0.00000000  1
  Y  Y0  1  0.00000000  0.00000000  0.00000000  1
  Nb  Nb0  1  0.31833000  0.05939100  0.50000000  1
  Nb  Nb1  1  0.05939100  0.31833000  0.50000000  1
  Nb  Nb2  1  0.68167000  0.94060900  0.50000000  1
  Nb  Nb3  1  0.94060900  0.68167000  0.50000000  1
  Nb  Nb4  1  0.50000000  0.50000000  0.50000000  1
  O  O0  1  0.12732500  0.12732500  0.50000000  1
  O  O1  1  0.16139300  0.83860700  0.50000000  1
  O  O2  1  0.27273700  0.45758900  0.50000000  1
  O  O3  1  0.83860700  0.16139300  0.50000000  1
  O  O4  1  0.87267500  0.87267500  0.50000000  1
  O  O5  1  0.27929500  0.04757900  0.00000000  1
  O  O6  1  0.72070500  0.95242100  0.00000000  1
  O  O7  1  0.54241100  0.72726300  0.50000000  1
  O  O8  1  0.04757900  0.27929500  0.00000000  1
  O  O9  1  0.50000000  0.00000000  0.50000000  1
  O  O10  1  0.45758900  0.27273700  0.50000000  1
  O  O11  1  0.95242100  0.72070500  0.00000000  1
  O  O12  1  0.50000000  0.50000000  0.00000000  1
  O  O13  1  0.72726300  0.54241100  0.50000000  1
  O  O14  1  0.00000000  0.50000000  0.50000000  1
loop_
_geom_bond_atom_site_label_1
_geom_bond_atom_site_label_2
_geom_bond_distance
_geom_bond_site_symmetry_2
K0 O1 2.904319 1_555
K0 O1 2.904319 1_554
K0 O2 2.970686 1_555
K0 O7 2.970686 1_555
K0 O2 2.970686 1_554
K0 O7 2.970686 1_554
K0 O12 3.129261 1_555
K0 O5 3.301762 1_565
K0 O11 3.301762 1_455
K0 O14 3.370725 1_555
K0 O14 3.370725 1_554
K0 O9 3.370725 1_564
K0 O9 3.370725 1_565
K1 O3 2.904319 1_555
K1 O3 2.904319 1_554
K1 O10 2.970686 1_555
K1 O13 2.970686 1_554
K1 O13 2.970686 1_555
K1 O10 2.970686 1_554
K1 O12 3.129261 1_555
K1 O8 3.301762 1_655
K1 O6 3.301762 1_545
K1 O9 3.370725 1_554
K1 O14 3.370725 1_655
K1 O14 3.370725 1_654
K1 O9 3.370725 1_555
Nb0 O10 1.933796 1_555
Nb0 O9 1.974449 1_555
Nb0 O5 2.016372 1_555
Nb0 O5 2.016372 1_556
Nb0 O1 2.039088 1_545
Nb0 O0 2.107222 1_555
Nb1 O2 1.933796 1_555
Nb1 O14 1.974449 1_555
Nb1 O8 2.016372 1_555
Nb1 O8 2.016372 1_556
Nb1 O3 2.039088 1_455
Nb1 O0 2.107222 1_555
Nb2 O7 1.933796 1_555
Nb2 O9 1.974449 1_565
Nb2 O6 2.016372 1_556
Nb2 O6 2.016372 1_555
Nb2 O3 2.039088 1_565
Nb2 O4 2.107222 1_555
Nb3 O13 1.933796 1_555
Nb3 O14 1.974449 1_655
Nb3 O11 2.016372 1_556
Nb3 O11 2.016372 1_555
Nb3 O1 2.039088 1_655
Nb3 O4 2.107222 1_555
Nb4 O12 1.987550 1_556
Nb4 O12 1.987550 1_555
Nb4 O7 2.011435 1_555
Nb4 O10 2.011435 1_555
Nb4 O2 2.011435 1_555
Nb4 O13 2.011435 1_555
O0 Y0 2.393520 1_556
O0 Y0 2.393520 1_555
O4 Y0 2.393520 1_666
O4 Y0 2.393520 1_665
O5 Y0 2.480659 1_555
O6 Y0 2.480659 1_665
O8 Y0 2.480659 1_555
O11 Y0 2.480659 1_665
