# generated using pymatgen
data_Bi14Te13S8
_symmetry_space_group_name_H-M   'P 1'
_cell_length_a   12.39169835
_cell_length_b   12.39169835
_cell_length_c   12.39169804
_cell_angle_alpha   54.33466598
_cell_angle_beta   54.33466598
_cell_angle_gamma   54.33466699
_symmetry_Int_Tables_number   1
_chemical_formula_structural   Bi14Te13S8
_chemical_formula_sum   'Bi14 Te13 S8'
_cell_volume   1167.65869711
_cell_formula_units_Z   1
loop_
 _symmetry_equiv_pos_site_id
 _symmetry_equiv_pos_as_xyz
  1  'x, y, z'
loop_
 _atom_site_type_symbol
 _atom_site_label
 _atom_site_symmetry_multiplicity
 _atom_site_fract_x
 _atom_site_fract_y
 _atom_site_fract_z
 _atom_site_occupancy
  Bi  Bi0  1  0.39092700  0.39092700  0.39092700  1
  Bi  Bi1  1  0.11218500  0.25543100  0.81103100  1
  Bi  Bi2  1  0.60907300  0.60907300  0.60907300  1
  Bi  Bi3  1  0.53537700  0.95103900  0.67931600  1
  Bi  Bi4  1  0.04896100  0.32068400  0.46462300  1
  Bi  Bi5  1  0.25543100  0.81103100  0.11218500  1
  Bi  Bi6  1  0.88781500  0.74456900  0.18896900  1
  Bi  Bi7  1  0.46462300  0.04896100  0.32068400  1
  Bi  Bi8  1  0.95103900  0.67931600  0.53537700  1
  Bi  Bi9  1  0.74456900  0.18896900  0.88781500  1
  Bi  Bi10  1  0.32068400  0.46462300  0.04896100  1
  Bi  Bi11  1  0.81103100  0.11218500  0.25543100  1
  Bi  Bi12  1  0.67931600  0.53537700  0.95103900  1
  Bi  Bi13  1  0.18896900  0.88781500  0.74456900  1
  Te  Te0  1  0.48992200  0.37121200  0.79324700  1
  Te  Te1  1  0.06176300  0.92500600  0.35508500  1
  Te  Te2  1  0.64491500  0.93823700  0.07499400  1
  Te  Te3  1  0.20675300  0.51007800  0.62878800  1
  Te  Te4  1  0.37121200  0.79324700  0.48992200  1
  Te  Te5  1  0.62878800  0.20675300  0.51007800  1
  Te  Te6  1  0.00000000  0.00000000  0.00000000  1
  Te  Te7  1  0.07499400  0.64491500  0.93823700  1
  Te  Te8  1  0.79324700  0.48992200  0.37121200  1
  Te  Te9  1  0.93823700  0.07499400  0.64491500  1
  Te  Te10  1  0.92500600  0.35508500  0.06176300  1
  Te  Te11  1  0.51007800  0.62878800  0.20675300  1
  Te  Te12  1  0.35508500  0.06176300  0.92500600  1
  S  S0  1  0.57199900  0.29195900  0.13828700  1
  S  S1  1  0.76565000  0.76565000  0.76565000  1
  S  S2  1  0.13828700  0.57199900  0.29195900  1
  S  S3  1  0.42800100  0.70804100  0.86171300  1
  S  S4  1  0.86171300  0.42800100  0.70804100  1
  S  S5  1  0.29195900  0.13828700  0.57199900  1
  S  S6  1  0.70804100  0.86171300  0.42800100  1
  S  S7  1  0.23435000  0.23435000  0.23435000  1
loop_
_geom_bond_atom_site_label_1
_geom_bond_atom_site_label_2
_geom_bond_distance
_geom_bond_site_symmetry_2
Bi0 Te3 3.062279 1_555
Bi0 Te11 3.062279 1_555
Bi0 Te5 3.062279 1_555
Bi0 S0 3.068633 1_555
Bi0 S5 3.068633 1_555
Bi0 S2 3.068633 1_555
Bi1 Te10 3.047743 1_456
Bi1 Te3 3.057241 1_555
Bi1 S5 3.064613 1_555
Bi1 Te12 3.065177 1_555
Bi1 S4 3.087396 1_455
Bi1 Te6 3.182238 1_556
Bi2 Te8 3.062279 1_555
Bi2 Te0 3.062279 1_555
Bi2 Te4 3.062279 1_555
Bi2 S3 3.068633 1_555
Bi2 S6 3.068633 1_555
Bi2 S4 3.068633 1_555
Bi3 S1 2.759375 1_555
Bi3 S6 2.998256 1_555
Bi3 S5 3.027991 1_565
Bi3 S3 3.029009 1_555
Bi3 Te5 3.078322 1_565
Bi3 Te12 3.083491 1_565
Bi4 S7 2.759375 1_555
Bi4 S2 2.998257 1_555
Bi4 S4 3.027991 1_455
Bi4 S5 3.029009 1_555
Bi4 Te8 3.078322 1_455
Bi4 Te9 3.083491 1_455
Bi5 Te12 3.047743 1_564
Bi5 Te11 3.057241 1_555
Bi5 S2 3.064613 1_555
Bi5 Te1 3.065177 1_555
Bi5 S3 3.087396 1_554
Bi5 Te6 3.182238 1_565
Bi6 Te7 3.047743 1_654
Bi6 Te8 3.057241 1_555
Bi6 S6 3.064613 1_555
Bi6 Te2 3.065177 1_555
Bi6 S2 3.087396 1_655
Bi6 Te6 3.182238 1_665
Bi7 S7 2.759375 1_555
Bi7 S5 2.998256 1_555
Bi7 S6 3.027991 1_545
Bi7 S0 3.029009 1_555
Bi7 Te4 3.078322 1_545
Bi7 Te2 3.083491 1_545
Bi8 S1 2.759375 1_555
Bi8 S4 2.998257 1_555
Bi8 S2 3.027991 1_655
Bi8 S6 3.029009 1_555
Bi8 Te3 3.078322 1_655
Bi8 Te1 3.083491 1_655
Bi9 Te2 3.047743 1_546
Bi9 Te0 3.057241 1_555
Bi9 S4 3.064613 1_555
Bi9 Te9 3.065177 1_555
Bi9 S0 3.087396 1_556
Bi9 Te6 3.182238 1_656
Bi10 S7 2.759375 1_555
Bi10 S0 2.998257 1_555
Bi10 S3 3.027991 1_554
Bi10 S2 3.029009 1_555
Bi10 Te0 3.078322 1_554
Bi10 Te7 3.083491 1_554
Bi11 Te1 3.047743 1_645
Bi11 Te5 3.057240 1_555
Bi11 S0 3.064613 1_555
Bi11 Te10 3.065177 1_555
Bi11 S6 3.087396 1_545
Bi11 Te6 3.182238 1_655
Bi12 S1 2.759375 1_555
Bi12 S3 2.998257 1_555
Bi12 S0 3.027991 1_556
Bi12 S4 3.029009 1_555
Bi12 Te11 3.078322 1_556
Bi12 Te10 3.083491 1_556
Bi13 Te9 3.047743 1_465
Bi13 Te4 3.057240 1_555
Bi13 S3 3.064613 1_555
Bi13 Te7 3.065177 1_555
Bi13 S5 3.087396 1_565
Bi13 Te6 3.182238 1_566
