# generated using pymatgen
data_Na4Li5(BO3)3
_symmetry_space_group_name_H-M   'P 1'
_cell_length_a   7.29891445
_cell_length_b   7.29891445
_cell_length_c   9.87367656
_cell_angle_alpha   75.09956363
_cell_angle_beta   75.09956363
_cell_angle_gamma   61.09429701
_symmetry_Int_Tables_number   1
_chemical_formula_structural   Na4Li5(BO3)3
_chemical_formula_sum   'Na8 Li10 B6 O18'
_cell_volume   439.47442545
_cell_formula_units_Z   2
loop_
 _symmetry_equiv_pos_site_id
 _symmetry_equiv_pos_as_xyz
  1  'x, y, z'
loop_
 _atom_site_type_symbol
 _atom_site_label
 _atom_site_symmetry_multiplicity
 _atom_site_fract_x
 _atom_site_fract_y
 _atom_site_fract_z
 _atom_site_occupancy
  Na  Na0  1  0.36659200  0.87870200  0.48360300  1
  Na  Na1  1  0.33358800  0.22278800  0.78696600  1
  Na  Na2  1  0.77721200  0.66641200  0.71303400  1
  Na  Na3  1  0.12129800  0.63340800  0.01639700  1
  Na  Na4  1  0.22278800  0.33358800  0.28696600  1
  Na  Na5  1  0.66641200  0.77721200  0.21303400  1
  Na  Na6  1  0.87870200  0.36659200  0.98360300  1
  Na  Na7  1  0.63340800  0.12129800  0.51639700  1
  Li  Li0  1  0.07725700  0.01270100  0.86066600  1
  Li  Li1  1  0.72302300  0.27697700  0.75000000  1
  Li  Li2  1  0.48206500  0.70457000  0.98792200  1
  Li  Li3  1  0.98729900  0.92274300  0.63933400  1
  Li  Li4  1  0.29543000  0.51793500  0.51207800  1
  Li  Li5  1  0.27697700  0.72302300  0.25000000  1
  Li  Li6  1  0.01270100  0.07725700  0.36066600  1
  Li  Li7  1  0.70457000  0.48206500  0.48792200  1
  Li  Li8  1  0.51793500  0.29543000  0.01207800  1
  Li  Li9  1  0.92274300  0.98729900  0.13933400  1
  B  B0  1  0.39586700  0.60413300  0.75000000  1
  B  B1  1  0.60413300  0.39586700  0.25000000  1
  B  B2  1  0.08355400  0.25115300  0.59686500  1
  B  B3  1  0.25115300  0.08355400  0.09686500  1
  B  B4  1  0.74884700  0.91644600  0.90313500  1
  B  B5  1  0.91644600  0.74884700  0.40313500  1
  O  O0  1  0.03190800  0.79176100  0.47503800  1
  O  O1  1  0.20823900  0.96809200  0.02496200  1
  O  O2  1  0.52154000  0.53278500  0.85486600  1
  O  O3  1  0.29057300  0.00122900  0.23673500  1
  O  O4  1  0.96809200  0.20823900  0.52496200  1
  O  O5  1  0.00122900  0.29057300  0.73673500  1
  O  O6  1  0.72372500  0.75133800  0.46978600  1
  O  O7  1  0.24866200  0.27627500  0.03021400  1
  O  O8  1  0.20964300  0.79035700  0.75000000  1
  O  O9  1  0.46721500  0.47846000  0.64513400  1
  O  O10  1  0.79176100  0.03190800  0.97503800  1
  O  O11  1  0.53278500  0.52154000  0.35486600  1
  O  O12  1  0.47846000  0.46721500  0.14513400  1
  O  O13  1  0.79035700  0.20964300  0.25000000  1
  O  O14  1  0.70942700  0.99877100  0.76326500  1
  O  O15  1  0.99877100  0.70942700  0.26326500  1
  O  O16  1  0.75133800  0.72372500  0.96978600  1
  O  O17  1  0.27627500  0.24866200  0.53021400  1
loop_
_geom_bond_atom_site_label_1
_geom_bond_atom_site_label_2
_geom_bond_distance
_geom_bond_site_symmetry_2
Na0 O6 2.284144 1_555
Na0 O3 2.478670 1_565
Na0 O17 2.588482 1_565
Na0 O8 2.634179 1_555
Na0 O4 2.746470 1_465
Na0 O11 2.781577 1_555
Na0 O9 2.783770 1_555
Na0 O0 2.830141 1_555
Na1 O5 2.389106 1_555
Na1 O14 2.404981 1_545
Na1 O7 2.405759 1_556
Na1 O9 2.471431 1_555
Na1 O17 2.619183 1_555
Na1 O1 2.847267 1_546
Na2 O14 2.389106 1_555
Na2 O5 2.404981 1_655
Na2 O6 2.405759 1_555
Na2 O2 2.471431 1_555
Na2 O16 2.619183 1_555
Na2 O0 2.847267 1_655
Na3 O7 2.284144 1_555
Na3 O15 2.478670 1_455
Na3 O16 2.588482 1_454
Na3 O8 2.634179 1_554
Na3 O10 2.746470 1_464
Na3 O12 2.781577 1_555
Na3 O2 2.783770 1_554
Na3 O1 2.830141 1_555
Na4 O3 2.389106 1_555
Na4 O15 2.404981 1_455
Na4 O17 2.405759 1_555
Na4 O12 2.471431 1_555
Na4 O7 2.619183 1_555
Na4 O4 2.847267 1_455
Na5 O15 2.389106 1_555
Na5 O3 2.404981 1_565
Na5 O16 2.405759 1_554
Na5 O11 2.471431 1_555
Na5 O6 2.619183 1_555
Na5 O10 2.847267 1_564
Na6 O16 2.284144 1_555
Na6 O5 2.478670 1_655
Na6 O7 2.588482 1_656
Na6 O13 2.634179 1_556
Na6 O1 2.746470 1_646
Na6 O2 2.781577 1_555
Na6 O12 2.783770 1_556
Na6 O10 2.830141 1_555
Na7 O17 2.284144 1_555
Na7 O14 2.478670 1_545
Na7 O6 2.588482 1_545
Na7 O13 2.634179 1_555
Na7 O0 2.746470 1_645
Na7 O9 2.781577 1_555
Na7 O11 2.783770 1_555
Na7 O4 2.830141 1_555
Li0 O8 1.901140 1_545
Li0 O1 1.968901 1_546
Li0 O5 1.975744 1_555
Li0 O10 2.055719 1_455
Li1 O5 2.049803 1_655
Li1 O14 2.049803 1_545
Li1 O2 2.068229 1_555
Li1 O9 2.068229 1_555
Li1 O10 2.459694 1_555
Li1 O4 2.459694 1_555
Li2 O2 1.919456 1_555
Li2 O16 1.996543 1_555
Li2 O12 2.012858 1_556
Li2 O1 2.024190 1_556
Li3 O8 1.901140 1_655
Li3 O0 1.968901 1_655
Li3 O14 1.975744 1_555
Li3 O4 2.055719 1_565
Li4 O9 1.919456 1_555
Li4 O17 1.996543 1_555
Li4 O11 2.012858 1_555
Li4 O0 2.024190 1_555
Li5 O15 2.049803 1_455
Li5 O3 2.049803 1_565
Li5 O12 2.068229 1_555
Li5 O11 2.068229 1_555
Li5 O0 2.459694 1_555
Li5 O1 2.459694 1_555
Li6 O13 1.901140 1_455
Li6 O4 1.968901 1_455
Li6 O3 1.975744 1_555
Li6 O0 2.055719 1_545
Li7 O11 1.919456 1_555
Li7 O6 1.996543 1_555
Li7 O9 2.012858 1_555
Li7 O4 2.024190 1_555
Li8 O12 1.919456 1_555
Li8 O7 1.996543 1_555
Li8 O2 2.012858 1_554
Li8 O10 2.024190 1_554
Li9 O13 1.901140 1_565
Li9 O10 1.968901 1_564
Li9 O15 1.975744 1_555
Li9 O1 2.055719 1_655
B0 O8 1.381653 1_555
B0 O2 1.390689 1_555
B0 O9 1.390689 1_555
B1 O13 1.381653 1_555
B1 O11 1.390689 1_555
B1 O12 1.390689 1_555
B2 O17 1.384719 1_555
B2 O5 1.400549 1_555
B2 O4 1.410534 1_455
B3 O7 1.384719 1_555
B3 O3 1.400549 1_555
B3 O1 1.410534 1_545
B4 O16 1.384719 1_555
B4 O14 1.400549 1_555
B4 O10 1.410534 1_565
B5 O6 1.384719 1_555
B5 O15 1.400549 1_555
B5 O0 1.410534 1_655
