# generated using pymatgen
data_CuCSN
_symmetry_space_group_name_H-M   'P 1'
_cell_length_a   3.83999456
_cell_length_b   3.83999456
_cell_length_c   10.95317200
_cell_angle_alpha   90.00000000
_cell_angle_beta   90.00000000
_cell_angle_gamma   120.00000963
_symmetry_Int_Tables_number   1
_chemical_formula_structural   CuCSN
_chemical_formula_sum   'Cu2 C2 S2 N2'
_cell_volume   139.87229962
_cell_formula_units_Z   2
loop_
 _symmetry_equiv_pos_site_id
 _symmetry_equiv_pos_as_xyz
  1  'x, y, z'
loop_
 _atom_site_type_symbol
 _atom_site_label
 _atom_site_symmetry_multiplicity
 _atom_site_fract_x
 _atom_site_fract_y
 _atom_site_fract_z
 _atom_site_occupancy
  Cu  Cu0  1  0.66666700  0.33333300  0.50026900  1
  Cu  Cu1  1  0.33333300  0.66666700  0.00026900  1
  C  C0  1  0.33333300  0.66666700  0.28048800  1
  C  C1  1  0.66666700  0.33333300  0.78048800  1
  S  S0  1  0.66666700  0.33333300  0.93230500  1
  S  S1  1  0.33333300  0.66666700  0.43230500  1
  N  N0  1  0.66666700  0.33333300  0.67313800  1
  N  N1  1  0.33333300  0.66666700  0.17313800  1
loop_
_geom_bond_atom_site_label_1
_geom_bond_atom_site_label_2
_geom_bond_distance
_geom_bond_site_symmetry_2
Cu0 N0 1.893464 1_555
Cu0 S1 2.338662 1_545
Cu0 S1 2.338662 1_655
Cu0 S1 2.338668 1_555
Cu1 N1 1.893464 1_555
Cu1 S0 2.338662 1_454
Cu1 S0 2.338662 1_564
Cu1 S0 2.338668 1_554
C0 N1 1.175823 1_555
C0 S1 1.662878 1_555
C1 N0 1.175823 1_555
C1 S0 1.662878 1_555
