# generated using pymatgen
data_Ba3Lu4O9
_symmetry_space_group_name_H-M   'P 1'
_cell_length_a   8.93278296
_cell_length_b   8.93278360
_cell_length_c   8.93278296
_cell_angle_alpha   39.09340552
_cell_angle_beta   39.09340553
_cell_angle_gamma   39.09340364
_symmetry_Int_Tables_number   1
_chemical_formula_structural   Ba3Lu4O9
_chemical_formula_sum   'Ba3 Lu4 O9'
_cell_volume   254.94013190
_cell_formula_units_Z   1
loop_
 _symmetry_equiv_pos_site_id
 _symmetry_equiv_pos_as_xyz
  1  'x, y, z'
loop_
 _atom_site_type_symbol
 _atom_site_label
 _atom_site_symmetry_multiplicity
 _atom_site_fract_x
 _atom_site_fract_y
 _atom_site_fract_z
 _atom_site_occupancy
  Ba  Ba0  1  0.99906666  0.99906666  0.99906666  1
  Ba  Ba1  1  0.15972033  0.15972033  0.15972033  1
  Ba  Ba2  1  0.57935626  0.57935626  0.57935626  1
  Lu  Lu0  1  0.42198538  0.42198538  0.42198538  1
  Lu  Lu1  1  0.86118047  0.86118047  0.86118047  1
  Lu  Lu2  1  0.73647148  0.73647148  0.73647148  1
  Lu  Lu3  1  0.29750483  0.29750483  0.29750483  1
  O  O0  1  0.10337431  0.05545359  0.57948061  1
  O  O1  1  0.57948061  0.10337431  0.05545359  1
  O  O2  1  0.05545359  0.57948061  0.10337431  1
  O  O3  1  0.12060439  0.69087361  0.59218246  1
  O  O4  1  0.59218246  0.12060439  0.69087361  1
  O  O5  1  0.69087361  0.59218246  0.12060439  1
  O  O6  1  0.03757923  0.46215432  0.57171107  1
  O  O7  1  0.57171107  0.03757923  0.46215432  1
  O  O8  1  0.46215432  0.57171107  0.03757923  1
loop_
_geom_bond_atom_site_label_1
_geom_bond_atom_site_label_2
_geom_bond_distance
_geom_bond_site_symmetry_2
Ba0 O8 2.731586 1_656
Ba0 O7 2.731586 1_566
Ba0 O6 2.731586 1_665
Ba0 O1 2.747200 1_566
Ba0 O0 2.747200 1_665
Ba0 O2 2.747200 1_656
Ba1 O1 2.749127 1_555
Ba1 O0 2.749127 1_555
Ba1 O2 2.749128 1_555
Ba1 O5 2.765567 1_455
Ba1 O4 2.765567 1_554
Ba1 O3 2.765567 1_545
Ba2 O0 2.845467 1_565
Ba2 O2 2.845468 1_655
Ba2 O1 2.845468 1_556
Ba2 O0 3.131907 1_655
Ba2 O2 3.131908 1_556
Ba2 O1 3.131908 1_565
Ba2 O6 3.298529 1_655
Ba2 O8 3.298529 1_556
Ba2 O7 3.298529 1_565
Ba2 O3 3.303078 1_555
Ba2 O5 3.303078 1_555
Ba2 O4 3.303078 1_555
Lu0 O4 2.146180 1_555
Lu0 O3 2.146181 1_555
Lu0 O5 2.146181 1_555
Lu0 O8 2.326418 1_555
Lu0 O6 2.326418 1_555
Lu0 O7 2.326418 1_555
Lu1 O2 2.150156 1_656
Lu1 O1 2.150157 1_566
Lu1 O0 2.150157 1_665
Lu1 O4 2.239866 1_565
Lu1 O3 2.239866 1_655
Lu1 O5 2.239866 1_556
Lu2 O7 2.151240 1_565
Lu2 O6 2.151240 1_655
Lu2 O8 2.151240 1_556
Lu2 O5 2.319879 1_556
Lu2 O3 2.319879 1_655
Lu2 O4 2.319879 1_565
Lu3 O2 2.147787 1_555
Lu3 O1 2.147788 1_555
Lu3 O0 2.147788 1_555
Lu3 O7 2.239914 1_555
Lu3 O6 2.239914 1_555
Lu3 O8 2.239914 1_555
