# generated using pymatgen
data_Rb5Nb3OF18
_symmetry_space_group_name_H-M   'P 1'
_cell_length_a   11.87740078
_cell_length_b   11.87740078
_cell_length_c   11.87740078
_cell_angle_alpha   96.46941803
_cell_angle_beta   96.46941803
_cell_angle_gamma   140.77369662
_symmetry_Int_Tables_number   1
_chemical_formula_structural   Rb5Nb3OF18
_chemical_formula_sum   'Rb10 Nb6 O2 F36'
_cell_volume   998.13129166
_cell_formula_units_Z   2
loop_
 _symmetry_equiv_pos_site_id
 _symmetry_equiv_pos_as_xyz
  1  'x, y, z'
loop_
 _atom_site_type_symbol
 _atom_site_label
 _atom_site_symmetry_multiplicity
 _atom_site_fract_x
 _atom_site_fract_y
 _atom_site_fract_z
 _atom_site_occupancy
  Rb  Rb0  1  0.23717100  0.73717100  0.50000000  1
  Rb  Rb1  1  0.73717100  0.23717100  0.50000000  1
  Rb  Rb2  1  0.18825800  0.88153600  0.13968200  1
  Rb  Rb3  1  0.04857500  0.18825800  0.30672200  1
  Rb  Rb4  1  0.88153600  0.74185300  0.69327800  1
  Rb  Rb5  1  0.74185300  0.04857500  0.86031800  1
  Rb  Rb6  1  0.38153600  0.68825800  0.13968200  1
  Rb  Rb7  1  0.54857500  0.24185300  0.86031800  1
  Rb  Rb8  1  0.68825800  0.54857500  0.30672200  1
  Rb  Rb9  1  0.24185300  0.38153600  0.69327800  1
  Nb  Nb0  1  0.34402300  0.15636200  0.50000000  1
  Nb  Nb1  1  0.84402300  0.34402300  0.18766200  1
  Nb  Nb2  1  0.15636200  0.65636200  0.81233800  1
  Nb  Nb3  1  0.65636200  0.84402300  0.50000000  1
  Nb  Nb4  1  0.73362500  0.73362500  0.00000000  1
  Nb  Nb5  1  0.23362500  0.23362500  0.00000000  1
  O  O0  1  0.00708500  0.00708500  0.00000000  1
  O  O1  1  0.50708500  0.50708500  0.00000000  1
  F  F0  1  0.60777600  0.37907100  0.50000000  1
  F  F1  1  0.10777600  0.60777600  0.22870500  1
  F  F2  1  0.37907100  0.87907100  0.77129500  1
  F  F3  1  0.87907100  0.10777600  0.50000000  1
  F  F4  1  0.01142700  0.62177100  0.66992500  1
  F  F5  1  0.34150200  0.01142700  0.38965600  1
  F  F6  1  0.62177100  0.95184600  0.61034400  1
  F  F7  1  0.95184600  0.34150200  0.33007500  1
  F  F8  1  0.12177100  0.51142700  0.66992500  1
  F  F9  1  0.84150200  0.45184600  0.33007500  1
  F  F10  1  0.51142700  0.84150200  0.38965600  1
  F  F11  1  0.45184600  0.12177100  0.61034400  1
  F  F12  1  0.39955600  0.60822300  0.50000000  1
  F  F13  1  0.89955600  0.39955600  0.79133300  1
  F  F14  1  0.60822300  0.10822300  0.20866700  1
  F  F15  1  0.10822300  0.89955600  0.50000000  1
  F  F16  1  0.64909100  0.71937600  0.84014600  1
  F  F17  1  0.80894500  0.64909100  0.92971500  1
  F  F18  1  0.71937600  0.87923000  0.07028500  1
  F  F19  1  0.87923000  0.80894500  0.15985400  1
  F  F20  1  0.21937600  0.14909100  0.84014600  1
  F  F21  1  0.30894500  0.37923000  0.15985400  1
  F  F22  1  0.14909100  0.30894500  0.92971500  1
  F  F23  1  0.37923000  0.21937600  0.07028500  1
  F  F24  1  0.80100400  0.45980300  0.12320100  1
  F  F25  1  0.67780300  0.80100400  0.34120100  1
  F  F26  1  0.45980300  0.33660200  0.65879900  1
  F  F27  1  0.33660200  0.67780300  0.87679900  1
  F  F28  1  0.95980300  0.30100400  0.12320100  1
  F  F29  1  0.17780300  0.83660200  0.87679900  1
  F  F30  1  0.30100400  0.17780300  0.34120100  1
  F  F31  1  0.83660200  0.95980300  0.65879900  1
  F  F32  1  0.65969800  0.67884900  0.50000000  1
  F  F33  1  0.15969800  0.65969800  0.98084900  1
  F  F34  1  0.67884900  0.17884900  0.01915100  1
  F  F35  1  0.17884900  0.15969800  0.50000000  1
loop_
_geom_bond_atom_site_label_1
_geom_bond_atom_site_label_2
_geom_bond_distance
_geom_bond_site_symmetry_2
Nb4 O1 1.806367 1_555
Nb4 O0 2.180494 1_665
Nb5 O0 1.806367 1_555
Nb5 O1 2.180494 1_555
F0 Nb0 1.993080 1_555
F0 Rb8 2.965015 1_555
F0 Rb4 2.965015 1_555
F0 Rb1 3.035734 1_555
F1 Nb1 1.993081 1_455
F1 Rb6 2.965021 1_555
F1 Rb2 2.965021 1_555
F1 Rb0 3.035734 1_555
F2 Nb2 1.993073 1_555
F2 Rb5 2.965016 1_565
F2 Rb7 2.965016 1_565
F2 Rb0 3.035734 1_555
F3 Nb3 1.993080 1_545
F3 Rb9 2.965015 1_655
F3 Rb3 2.965015 1_655
F3 Rb1 3.035734 1_555
F4 Nb2 2.021093 1_555
F4 Rb4 2.812056 1_455
F4 Rb1 2.989707 1_455
F4 Rb0 3.047988 1_555
F5 Nb0 2.021101 1_555
F5 Rb2 2.812067 1_545
F5 Rb0 2.989707 1_545
F5 Rb1 3.047988 1_555
F6 Nb3 2.021101 1_555
F6 Rb5 2.812067 1_565
F6 Rb0 2.989707 1_555
F6 Rb1 3.047988 1_565
F7 Nb1 2.021092 1_555
F7 Rb3 2.812056 1_655
F7 Rb1 2.989707 1_555
F7 Rb0 3.047988 1_655
F8 Nb2 2.021093 1_555
F8 Rb9 2.812056 1_555
F8 Rb1 2.989707 1_455
F8 Rb0 3.047988 1_555
F9 Nb1 2.021092 1_555
F9 Rb8 2.812056 1_555
F9 Rb1 2.989707 1_555
F9 Rb0 3.047988 1_655
F10 Nb3 2.021101 1_555
F10 Rb6 2.812067 1_555
F10 Rb0 2.989707 1_555
F10 Rb1 3.047988 1_565
F11 Nb0 2.021101 1_555
F11 Rb7 2.812067 1_555
F11 Rb0 2.989707 1_545
F11 Rb1 3.047988 1_555
F12 Nb3 1.977964 1_555
F12 Rb9 3.252086 1_555
F12 Rb3 3.252086 1_555
F12 Rb0 3.262240 1_555
F13 Nb2 1.977966 1_655
F13 Rb5 3.252091 1_555
F13 Rb7 3.252091 1_555
F13 Rb1 3.262240 1_555
F14 Nb1 1.977959 1_555
F14 Rb2 3.252086 1_545
F14 Rb6 3.252086 1_545
F14 Rb1 3.262240 1_555
F15 Nb0 1.977964 1_565
F15 Rb4 3.252086 1_455
F15 Rb8 3.252086 1_455
F15 Rb0 3.262240 1_555
F16 Nb4 1.968847 1_556
F16 Rb9 2.998517 1_555
F16 Rb5 3.100755 1_565
F16 Rb4 3.284019 1_555
F17 Nb4 1.968847 1_556
F17 Rb7 2.998517 1_555
F17 Rb4 3.100756 1_555
F17 Rb2 3.284013 1_656
F18 Nb4 1.968847 1_555
F18 Rb6 2.998511 1_555
F18 Rb3 3.100756 1_665
F18 Rb5 3.284009 1_564
F19 Nb4 1.968847 1_555
F19 Rb8 2.998517 1_555
F19 Rb2 3.100759 1_655
F19 Rb3 3.284019 1_665
F20 Nb5 1.968847 1_556
F20 Rb4 2.998517 1_445
F20 Rb7 3.100755 1_555
F20 Rb9 3.284019 1_555
F21 Nb5 1.968847 1_555
F21 Rb3 2.998517 1_555
F21 Rb6 3.100759 1_555
F21 Rb8 3.284019 1_555
F22 Nb5 1.968847 1_556
F22 Rb5 2.998517 1_455
F22 Rb9 3.100756 1_555
F22 Rb6 3.284013 1_556
F23 Nb5 1.968847 1_555
F23 Rb2 2.998511 1_545
F23 Rb8 3.100756 1_555
F23 Rb7 3.284009 1_554
F24 Nb1 1.994006 1_555
F24 Rb7 3.079590 1_554
F24 Rb8 3.159703 1_555
F24 Rb2 3.188410 1_655
F25 Nb3 1.994001 1_555
F25 Rb8 3.079599 1_555
F25 Rb6 3.159710 1_555
F25 Rb3 3.188406 1_665
F26 Nb0 1.994001 1_555
F26 Rb9 3.079599 1_555
F26 Rb7 3.159712 1_555
F26 Rb4 3.188406 1_555
F27 Nb2 1.994004 1_555
F27 Rb6 3.079588 1_556
F27 Rb9 3.159703 1_555
F27 Rb5 3.188402 1_565
F28 Nb1 1.994006 1_555
F28 Rb5 3.079590 1_554
F28 Rb3 3.159703 1_655
F28 Rb6 3.188410 1_655
F29 Nb2 1.994004 1_555
F29 Rb2 3.079588 1_556
F29 Rb4 3.159703 1_455
F29 Rb7 3.188402 1_565
F30 Nb0 1.994001 1_555
F30 Rb3 3.079599 1_555
F30 Rb2 3.159710 1_545
F30 Rb8 3.188406 1_555
F31 Nb3 1.994001 1_555
F31 Rb4 3.079599 1_555
F31 Rb5 3.159712 1_565
F31 Rb9 3.188406 1_665
F32 Nb3 1.992689 1_555
F32 Rb8 2.822668 1_555
F32 Rb4 2.822668 1_555
F33 Nb2 1.992701 1_555
F33 Rb6 2.822662 1_556
F33 Rb2 2.822662 1_556
F34 Nb1 1.992699 1_555
F34 Rb7 2.822661 1_554
F34 Rb5 2.822661 1_554
F35 Nb0 1.992689 1_555
F35 Rb3 2.822668 1_555
F35 Rb9 2.822668 1_555
