# generated using pymatgen
data_Fe(SbO3)2
_symmetry_space_group_name_H-M   'P 1'
_cell_length_a   4.68125106
_cell_length_b   9.36241506
_cell_length_c   9.40562073
_cell_angle_alpha   90.00000000
_cell_angle_beta   90.00000000
_cell_angle_gamma   90.00000000
_symmetry_Int_Tables_number   1
_chemical_formula_structural   Fe(SbO3)2
_chemical_formula_sum   'Fe4 Sb8 O24'
_cell_volume   412.22780930
_cell_formula_units_Z   4
loop_
 _symmetry_equiv_pos_site_id
 _symmetry_equiv_pos_as_xyz
  1  'x, y, z'
loop_
 _atom_site_type_symbol
 _atom_site_label
 _atom_site_symmetry_multiplicity
 _atom_site_fract_x
 _atom_site_fract_y
 _atom_site_fract_z
 _atom_site_occupancy
  Fe  Fe0  1  0.99984887  0.50014039  -0.00000000  1
  Fe  Fe1  1  0.49984887  0.74985961  0.50000000  1
  Fe  Fe2  1  0.99984887  0.00014039  -0.00000000  1
  Fe  Fe3  1  0.49984887  0.24985961  0.50000000  1
  Sb  Sb0  1  -0.00001814  0.99995952  0.33240937  1
  Sb  Sb1  1  -0.00001814  0.49995952  0.33240937  1
  Sb  Sb2  1  0.49998186  0.25004048  0.83240937  1
  Sb  Sb3  1  0.49998186  0.75004048  0.83240937  1
  Sb  Sb4  1  0.49998186  0.25004048  0.16759063  1
  Sb  Sb5  1  0.49998186  0.75004048  0.16759063  1
  Sb  Sb6  1  -0.00001814  0.99995952  0.66759063  1
  Sb  Sb7  1  -0.00001814  0.49995952  0.66759063  1
  O  O0  1  0.30961528  0.15480036  -0.00000000  1
  O  O1  1  0.30961528  0.65480036  -0.00000000  1
  O  O2  1  0.19050329  0.40472254  0.50000000  1
  O  O3  1  0.19050329  0.90472254  0.50000000  1
  O  O4  1  0.80961528  0.09519964  0.50000000  1
  O  O5  1  0.80961528  0.59519964  0.50000000  1
  O  O6  1  0.69050329  0.34527746  -0.00000000  1
  O  O7  1  0.69050329  0.84527746  -0.00000000  1
  O  O8  1  0.30247892  0.15117065  0.32850118  1
  O  O9  1  0.30247892  0.65117065  0.32850118  1
  O  O10  1  0.19755650  0.40124880  0.82856349  1
  O  O11  1  0.19755650  0.90124880  0.82856349  1
  O  O12  1  0.80247892  0.09882935  0.82850118  1
  O  O13  1  0.80247892  0.59882935  0.82850118  1
  O  O14  1  0.80247892  0.09882935  0.17149882  1
  O  O15  1  0.80247892  0.59882935  0.17149882  1
  O  O16  1  0.19755650  0.40124880  0.17143651  1
  O  O17  1  0.19755650  0.90124880  0.17143651  1
  O  O18  1  0.69755650  0.34875120  0.32856349  1
  O  O19  1  0.69755650  0.84875120  0.32856349  1
  O  O20  1  0.30247892  0.15117065  0.67149882  1
  O  O21  1  0.30247892  0.65117065  0.67149882  1
  O  O22  1  0.69755650  0.34875120  0.67143651  1
  O  O23  1  0.69755650  0.84875120  0.67143651  1
loop_
_geom_bond_atom_site_label_1
_geom_bond_atom_site_label_2
_geom_bond_distance
_geom_bond_site_symmetry_2
Fe0 O6 2.049207 1_555
Fe0 O1 2.049256 1_655
Fe0 O15 2.075889 1_555
Fe0 O13 2.075889 1_554
Fe0 O16 2.076983 1_655
Fe0 O10 2.076983 1_654
Fe1 O3 2.049207 1_555
Fe1 O5 2.049256 1_555
Fe1 O9 2.075889 1_555
Fe1 O21 2.075889 1_555
Fe1 O19 2.076983 1_555
Fe1 O23 2.076983 1_555
Fe2 O7 2.049207 1_545
Fe2 O0 2.049256 1_655
Fe2 O14 2.075889 1_555
Fe2 O12 2.075889 1_554
Fe2 O17 2.076983 1_645
Fe2 O11 2.076983 1_644
Fe3 O2 2.049207 1_555
Fe3 O4 2.049256 1_555
Fe3 O8 2.075889 1_555
Fe3 O20 2.075889 1_555
Fe3 O22 2.076983 1_555
Fe3 O18 2.076983 1_555
O0 Sb4 2.018402 1_555
O0 Sb2 2.018402 1_554
O1 Sb3 2.018402 1_554
O1 Sb5 2.018402 1_555
O2 Sb7 2.018709 1_555
O2 Sb1 2.018709 1_555
O3 Sb6 2.018709 1_555
O3 Sb0 2.018709 1_555
O4 Sb6 2.018402 1_645
O4 Sb0 2.018402 1_645
O5 Sb7 2.018402 1_655
O5 Sb1 2.018402 1_655
O6 Sb2 2.018709 1_554
O6 Sb4 2.018709 1_555
O7 Sb3 2.018709 1_554
O7 Sb5 2.018709 1_555
O8 Sb4 2.000558 1_555
O8 Sb0 2.002698 1_545
O9 Sb5 2.000558 1_555
O9 Sb1 2.002698 1_555
O10 Sb7 2.000468 1_555
O10 Sb2 2.002432 1_555
O11 Sb6 2.000468 1_555
O11 Sb3 2.002432 1_555
O12 Sb6 2.000558 1_645
O12 Sb2 2.002698 1_555
O13 Sb7 2.000558 1_655
O13 Sb3 2.002698 1_555
O14 Sb0 2.000558 1_645
O14 Sb4 2.002698 1_555
O15 Sb1 2.000558 1_655
O15 Sb5 2.002698 1_555
O16 Sb1 2.000468 1_555
O16 Sb4 2.002432 1_555
O17 Sb0 2.000468 1_555
O17 Sb5 2.002432 1_555
O18 Sb4 2.000468 1_555
O18 Sb1 2.002432 1_655
O19 Sb5 2.000468 1_555
O19 Sb0 2.002432 1_655
O20 Sb2 2.000558 1_555
O20 Sb6 2.002698 1_545
O21 Sb3 2.000558 1_555
O21 Sb7 2.002698 1_555
O22 Sb2 2.000468 1_555
O22 Sb7 2.002432 1_655
O23 Sb3 2.000468 1_555
O23 Sb6 2.002432 1_655
