# generated using pymatgen
data_WO3
_symmetry_space_group_name_H-M   'P 1'
_cell_length_a   3.89936073
_cell_length_b   7.49762830
_cell_length_c   7.66546572
_cell_angle_alpha   90.00000000
_cell_angle_beta   90.00000000
_cell_angle_gamma   90.00000000
_symmetry_Int_Tables_number   1
_chemical_formula_structural   WO3
_chemical_formula_sum   'W4 O12'
_cell_volume   224.10722894
_cell_formula_units_Z   4
loop_
 _symmetry_equiv_pos_site_id
 _symmetry_equiv_pos_as_xyz
  1  'x, y, z'
loop_
 _atom_site_type_symbol
 _atom_site_label
 _atom_site_symmetry_multiplicity
 _atom_site_fract_x
 _atom_site_fract_y
 _atom_site_fract_z
 _atom_site_occupancy
  W  W0  1  0.94280150  0.75000000  0.02586135  1
  W  W1  1  0.05719850  0.75000000  0.52586135  1
  W  W2  1  0.94280150  0.25000000  0.47413865  1
  W  W3  1  0.05719850  0.25000000  0.97413865  1
  O  O0  1  0.99303569  0.25000000  0.24128477  1
  O  O1  1  0.51078601  0.25000000  0.98948026  1
  O  O2  1  -0.00000000  0.50000000  -0.00000000  1
  O  O3  1  0.00696431  0.25000000  0.74128477  1
  O  O4  1  0.51078601  0.75000000  0.51051974  1
  O  O5  1  -0.00000000  -0.00000000  -0.00000000  1
  O  O6  1  0.00696431  0.75000000  0.75871523  1
  O  O7  1  0.48921399  0.75000000  0.01051974  1
  O  O8  1  0.99303569  0.75000000  0.25871523  1
  O  O9  1  -0.00000000  0.50000000  0.50000000  1
  O  O10  1  0.48921399  0.25000000  0.48948026  1
  O  O11  1  -0.00000000  0.00000000  0.50000000  1
loop_
_geom_bond_atom_site_label_1
_geom_bond_atom_site_label_2
_geom_bond_distance
_geom_bond_site_symmetry_2
O0 W2 1.795649 1_555
O0 W3 2.063027 1_654
O1 W3 1.772607 1_555
O1 W3 2.133902 1_655
O2 W0 1.898011 1_455
O2 W3 1.898011 1_554
O3 W3 1.795649 1_555
O3 W2 2.063027 1_455
O4 W1 1.772607 1_555
O4 W1 2.133902 1_655
O5 W0 1.898011 1_445
O5 W3 1.898011 1_554
O6 W1 1.795649 1_555
O6 W0 2.063027 1_456
O7 W0 1.772607 1_555
O7 W0 2.133902 1_455
O8 W0 1.795649 1_555
O8 W1 2.063027 1_655
O9 W1 1.898011 1_555
O9 W2 1.898011 1_455
O10 W2 1.772607 1_555
O10 W2 2.133902 1_455
O11 W1 1.898011 1_545
O11 W2 1.898011 1_455
