# generated using pymatgen
data_LuSF
_symmetry_space_group_name_H-M   'P 1'
_cell_length_a   8.49666015
_cell_length_b   8.49666015
_cell_length_c   8.49666040
_cell_angle_alpha   26.71395782
_cell_angle_beta   26.71395782
_cell_angle_gamma   26.71395399
_symmetry_Int_Tables_number   1
_chemical_formula_structural   LuSF
_chemical_formula_sum   'Lu2 S2 F2'
_cell_volume   109.29380601
_cell_formula_units_Z   2
loop_
 _symmetry_equiv_pos_site_id
 _symmetry_equiv_pos_as_xyz
  1  'x, y, z'
loop_
 _atom_site_type_symbol
 _atom_site_label
 _atom_site_symmetry_multiplicity
 _atom_site_fract_x
 _atom_site_fract_y
 _atom_site_fract_z
 _atom_site_occupancy
  Lu  Lu0  1  0.00000000  0.00000000  -0.00000000  1
  Lu  Lu1  1  0.50000000  0.50000000  0.50000000  1
  S  S0  1  0.39105797  0.39105797  0.39105797  1
  S  S1  1  0.60894203  0.60894203  0.60894203  1
  F  F0  1  0.16762840  0.16762840  0.16762840  1
  F  F1  1  0.83237160  0.83237160  0.83237160  1
loop_
_geom_bond_atom_site_label_1
_geom_bond_atom_site_label_2
_geom_bond_distance
_geom_bond_site_symmetry_2
Lu0 S1 2.673600 1_544
Lu0 S1 2.673600 1_454
Lu0 S0 2.673600 1_545
Lu0 S0 2.673600 1_455
Lu0 S1 2.673600 1_445
Lu0 S0 2.673600 1_554
Lu1 S0 2.676306 1_555
Lu1 S1 2.676306 1_555
F0 Lu1 2.266657 1_545
F0 Lu1 2.266657 1_455
F0 Lu1 2.266658 1_554
F1 Lu1 2.266657 1_565
F1 Lu1 2.266657 1_655
F1 Lu1 2.266658 1_556
