# generated using pymatgen
data_Dy4Ni12Sn25
_symmetry_space_group_name_H-M   'P 1'
_cell_length_a   10.35010862
_cell_length_b   10.35010862
_cell_length_c   10.35010862
_cell_angle_alpha   109.47122063
_cell_angle_beta   109.47122063
_cell_angle_gamma   109.47122063
_symmetry_Int_Tables_number   1
_chemical_formula_structural   Dy4Ni12Sn25
_chemical_formula_sum   'Dy4 Ni12 Sn25'
_cell_volume   853.51829067
_cell_formula_units_Z   1
loop_
 _symmetry_equiv_pos_site_id
 _symmetry_equiv_pos_as_xyz
  1  'x, y, z'
loop_
 _atom_site_type_symbol
 _atom_site_label
 _atom_site_symmetry_multiplicity
 _atom_site_fract_x
 _atom_site_fract_y
 _atom_site_fract_z
 _atom_site_occupancy
  Dy  Dy0  1  0.50000000  0.50000000  0.50000000  1
  Dy  Dy1  1  0.00000000  0.50000000  0.00000000  1
  Dy  Dy2  1  0.50000000  0.00000000  0.00000000  1
  Dy  Dy3  1  0.00000000  0.00000000  0.50000000  1
  Ni  Ni0  1  0.31995500  0.15706000  0.83710500  1
  Ni  Ni1  1  0.31995500  0.48285000  0.16289500  1
  Ni  Ni2  1  0.48285000  0.16289500  0.31995500  1
  Ni  Ni3  1  0.51715000  0.83710500  0.68004500  1
  Ni  Ni4  1  0.83710500  0.31995500  0.15706000  1
  Ni  Ni5  1  0.83710500  0.68004500  0.51715000  1
  Ni  Ni6  1  0.68004500  0.84294000  0.16289500  1
  Ni  Ni7  1  0.16289500  0.68004500  0.84294000  1
  Ni  Ni8  1  0.15706000  0.83710500  0.31995500  1
  Ni  Ni9  1  0.68004500  0.51715000  0.83710500  1
  Ni  Ni10  1  0.84294000  0.16289500  0.68004500  1
  Ni  Ni11  1  0.16289500  0.31995500  0.48285000  1
  Sn  Sn0  1  0.87342300  0.62482000  0.75139700  1
  Sn  Sn1  1  0.62482000  0.75139700  0.87342300  1
  Sn  Sn2  1  0.37257900  0.74329300  0.37071400  1
  Sn  Sn3  1  0.37257900  0.00186500  0.62928600  1
  Sn  Sn4  1  0.12657700  0.87797300  0.75139700  1
  Sn  Sn5  1  0.24860300  0.12657700  0.37518000  1
  Sn  Sn6  1  0.37518000  0.24860300  0.12657700  1
  Sn  Sn7  1  0.37071400  0.62742100  0.99813500  1
  Sn  Sn8  1  0.62742100  0.25670700  0.62928600  1
  Sn  Sn9  1  0.87342300  0.12202700  0.24860300  1
  Sn  Sn10  1  0.99813500  0.37071400  0.62742100  1
  Sn  Sn11  1  0.24860300  0.87342300  0.12202700  1
  Sn  Sn12  1  0.12657700  0.37518000  0.24860300  1
  Sn  Sn13  1  0.62928600  0.62742100  0.25670700  1
  Sn  Sn14  1  0.75139700  0.12657700  0.87797300  1
  Sn  Sn15  1  0.00000000  0.00000000  0.00000000  1
  Sn  Sn16  1  0.75139700  0.87342300  0.62482000  1
  Sn  Sn17  1  0.62928600  0.37257900  0.00186500  1
  Sn  Sn18  1  0.00186500  0.62928600  0.37257900  1
  Sn  Sn19  1  0.87797300  0.75139700  0.12657700  1
  Sn  Sn20  1  0.37071400  0.37257900  0.74329300  1
  Sn  Sn21  1  0.25670800  0.62928600  0.62742100  1
  Sn  Sn22  1  0.74329300  0.37071400  0.37257900  1
  Sn  Sn23  1  0.12202700  0.24860300  0.87342300  1
  Sn  Sn24  1  0.62742100  0.99813500  0.37071400  1
loop_
_geom_bond_atom_site_label_1
_geom_bond_atom_site_label_2
_geom_bond_distance
_geom_bond_site_symmetry_2
Dy0 Ni9 3.272577 1_555
Dy0 Ni3 3.272577 1_555
Dy0 Ni5 3.272577 1_555
Dy0 Ni2 3.272577 1_555
Dy0 Ni11 3.272577 1_555
Dy0 Ni1 3.272577 1_555
Dy0 Sn1 3.332139 1_555
Dy0 Sn6 3.332139 1_555
Dy0 Sn12 3.332139 1_555
Dy0 Sn16 3.332139 1_555
Dy0 Sn0 3.332139 1_555
Dy0 Sn5 3.332139 1_555
Dy0 Sn21 3.626912 1_555
Dy0 Sn2 3.626921 1_555
Dy0 Sn20 3.626921 1_555
Dy0 Sn22 3.626921 1_555
Dy0 Sn13 3.626921 1_555
Dy0 Sn8 3.626921 1_555
Dy1 Ni7 3.272577 1_554
Dy1 Ni1 3.272577 1_555
Dy1 Ni9 3.272577 1_454
Dy1 Ni8 3.272577 1_555
Dy1 Ni4 3.272577 1_455
Dy1 Ni10 3.272577 1_454
Dy1 Sn11 3.332136 1_555
Dy1 Sn14 3.332136 1_454
Dy1 Sn12 3.332139 1_555
Dy1 Sn0 3.332139 1_454
Dy1 Sn23 3.332147 1_554
Dy1 Sn19 3.332147 1_455
Dy1 Sn17 3.626921 1_455
Dy1 Sn7 3.626921 1_554
Dy1 Sn18 3.626921 1_555
Dy1 Sn2 3.626921 1_555
Dy1 Sn8 3.626921 1_454
Dy1 Sn10 3.626921 1_454
Dy2 Ni6 3.272577 1_545
Dy2 Ni2 3.272577 1_555
Dy2 Ni0 3.272577 1_554
Dy2 Ni4 3.272577 1_555
Dy2 Ni3 3.272577 1_544
Dy2 Ni7 3.272577 1_544
Dy2 Sn9 3.332136 1_555
Dy2 Sn4 3.332136 1_544
Dy2 Sn6 3.332139 1_555
Dy2 Sn1 3.332139 1_544
Dy2 Sn14 3.332147 1_554
Dy2 Sn11 3.332147 1_545
Dy2 Sn22 3.626921 1_555
Dy2 Sn7 3.626921 1_544
Dy2 Sn17 3.626921 1_555
Dy2 Sn3 3.626921 1_554
Dy2 Sn24 3.626921 1_545
Dy2 Sn21 3.626922 1_544
Dy3 Ni10 3.272577 1_455
Dy3 Ni11 3.272577 1_555
Dy3 Ni0 3.272577 1_555
Dy3 Ni5 3.272577 1_445
Dy3 Ni8 3.272577 1_545
Dy3 Ni6 3.272577 1_445
Dy3 Sn23 3.332136 1_555
Dy3 Sn19 3.332136 1_445
Dy3 Sn5 3.332139 1_555
Dy3 Sn16 3.332139 1_445
Dy3 Sn9 3.332147 1_455
Dy3 Sn4 3.332147 1_545
Dy3 Sn18 3.626921 1_545
Dy3 Sn13 3.626921 1_445
Dy3 Sn10 3.626921 1_455
Dy3 Sn20 3.626921 1_555
Dy3 Sn24 3.626921 1_445
Dy3 Sn3 3.626921 1_555
Ni0 Sn4 2.527947 1_545
Ni0 Sn3 2.562093 1_555
Ni0 Sn23 2.608755 1_555
Ni0 Sn6 2.608765 1_556
Ni0 Sn17 2.682775 1_556
Ni0 Sn20 2.682775 1_555
Ni1 Sn12 2.527940 1_555
Ni1 Sn2 2.562093 1_555
Ni1 Sn23 2.608764 1_554
Ni1 Sn6 2.608765 1_555
Ni1 Sn7 2.682775 1_554
Ni1 Sn13 2.682775 1_555
Ni2 Sn6 2.527940 1_555
Ni2 Sn22 2.562093 1_555
Ni2 Sn11 2.608764 1_545
Ni2 Sn5 2.608765 1_555
Ni2 Sn24 2.682775 1_545
Ni2 Sn8 2.682775 1_555
Ni3 Sn1 2.527940 1_555
Ni3 Sn21 2.562086 1_555
Ni3 Sn14 2.608764 1_565
Ni3 Sn16 2.608765 1_555
Ni3 Sn2 2.682775 1_555
Ni3 Sn3 2.682775 1_565
Ni4 Sn14 2.527947 1_554
Ni4 Sn17 2.562093 1_555
Ni4 Sn9 2.608755 1_555
Ni4 Sn12 2.608765 1_655
Ni4 Sn22 2.682775 1_555
Ni4 Sn18 2.682775 1_655
Ni5 Sn16 2.527940 1_555
Ni5 Sn13 2.562093 1_555
Ni5 Sn4 2.608764 1_655
Ni5 Sn0 2.608765 1_555
Ni5 Sn22 2.682775 1_555
Ni5 Sn18 2.682775 1_655
Ni6 Sn9 2.527947 1_565
Ni6 Sn24 2.562093 1_555
Ni6 Sn19 2.608755 1_555
Ni6 Sn1 2.608765 1_554
Ni6 Sn13 2.682775 1_555
Ni6 Sn7 2.682775 1_554
Ni7 Sn11 2.527947 1_556
Ni7 Sn7 2.562093 1_555
Ni7 Sn4 2.608755 1_555
Ni7 Sn0 2.608765 1_455
Ni7 Sn10 2.682775 1_455
Ni7 Sn21 2.682782 1_555
Ni8 Sn19 2.527947 1_455
Ni8 Sn18 2.562093 1_555
Ni8 Sn11 2.608755 1_555
Ni8 Sn5 2.608765 1_565
Ni8 Sn2 2.682775 1_555
Ni8 Sn3 2.682775 1_565
Ni9 Sn0 2.527940 1_555
Ni9 Sn8 2.562093 1_555
Ni9 Sn19 2.608764 1_556
Ni9 Sn1 2.608765 1_555
Ni9 Sn17 2.682775 1_556
Ni9 Sn20 2.682775 1_555
Ni10 Sn23 2.527947 1_655
Ni10 Sn10 2.562093 1_555
Ni10 Sn14 2.608755 1_555
Ni10 Sn16 2.608765 1_545
Ni10 Sn24 2.682775 1_545
Ni10 Sn8 2.682775 1_555
Ni11 Sn5 2.527940 1_555
Ni11 Sn20 2.562093 1_555
Ni11 Sn9 2.608764 1_455
Ni11 Sn12 2.608765 1_555
Ni11 Sn21 2.682772 1_555
Ni11 Sn10 2.682775 1_455
Sn0 Sn15 3.334067 1_666
Sn1 Sn15 3.334067 1_666
Sn2 Sn24 3.045687 1_555
Sn3 Sn8 3.045687 1_555
Sn10 Sn22 3.045687 1_555
Sn11 Sn15 3.334070 1_565
Sn12 Sn15 3.334067 1_555
Sn13 Sn17 3.045687 1_555
Sn14 Sn15 3.334070 1_656
Sn15 Sn5 3.334067 1_555
Sn15 Sn16 3.334067 1_444
Sn15 Sn6 3.334067 1_555
Sn15 Sn4 3.334070 1_544
Sn15 Sn9 3.334070 1_455
Sn15 Sn19 3.334070 1_445
Sn15 Sn23 3.334070 1_554
Sn18 Sn21 3.045693 1_555
Sn20 Sn7 3.045687 1_555
