# generated using pymatgen
data_Yb4Mn2Sn5
_symmetry_space_group_name_H-M   'P 1'
_cell_length_a   8.50294144
_cell_length_b   8.50294144
_cell_length_c   7.57378793
_cell_angle_alpha   74.72422457
_cell_angle_beta   74.72422457
_cell_angle_gamma   29.74422525
_symmetry_Int_Tables_number   1
_chemical_formula_structural   Yb4Mn2Sn5
_chemical_formula_sum   'Yb4 Mn2 Sn5'
_cell_volume   261.38407855
_cell_formula_units_Z   1
loop_
 _symmetry_equiv_pos_site_id
 _symmetry_equiv_pos_as_xyz
  1  'x, y, z'
loop_
 _atom_site_type_symbol
 _atom_site_label
 _atom_site_symmetry_multiplicity
 _atom_site_fract_x
 _atom_site_fract_y
 _atom_site_fract_z
 _atom_site_occupancy
  Yb  Yb0  1  0.07958076  0.07958076  0.14110222  1
  Yb  Yb1  1  0.15079546  0.15079546  0.57266361  1
  Yb  Yb2  1  0.92041924  0.92041924  0.85889778  1
  Yb  Yb3  1  0.84920454  0.84920454  0.42733639  1
  Mn  Mn0  1  0.72371989  0.72371989  0.90060908  1
  Mn  Mn1  1  0.27628011  0.27628011  0.09939092  1
  Sn  Sn0  1  0.57000963  0.57000963  0.84241026  1
  Sn  Sn1  1  0.69179037  0.69179037  0.27622048  1
  Sn  Sn2  1  0.50000000  0.50000000  0.50000000  1
  Sn  Sn3  1  0.42999037  0.42999037  0.15758974  1
  Sn  Sn4  1  0.30820963  0.30820963  0.72377952  1
loop_
_geom_bond_atom_site_label_1
_geom_bond_atom_site_label_2
_geom_bond_distance
_geom_bond_site_symmetry_2
Mn0 Sn0 2.680333 1_555
Mn0 Sn4 2.733303 1_565
Mn0 Sn4 2.733303 1_655
Mn0 Sn1 2.748520 1_556
Mn0 Yb2 3.161519 1_555
Mn0 Yb0 3.367564 1_566
Mn0 Yb0 3.367564 1_656
Mn1 Sn3 2.680333 1_555
Mn1 Sn1 2.733303 1_545
Mn1 Sn1 2.733303 1_455
Mn1 Sn4 2.748520 1_554
Mn1 Yb0 3.161519 1_555
Mn1 Yb2 3.367564 1_454
Mn1 Yb2 3.367564 1_544
Sn0 Sn3 2.828344 1_556
Sn0 Yb1 3.036576 1_565
Sn0 Yb1 3.036576 1_655
Sn0 Sn2 3.110700 1_555
Sn0 Yb0 3.177933 1_566
Sn0 Yb0 3.177933 1_656
Sn0 Yb2 3.264385 1_545
Sn0 Yb2 3.264385 1_455
Sn1 Yb1 3.071310 1_655
Sn1 Yb1 3.071310 1_565
Sn1 Yb3 3.101360 1_555
Sn1 Sn2 3.145912 1_555
Sn1 Yb0 3.200077 1_565
Sn1 Yb0 3.200077 1_655
Sn2 Sn3 3.110700 1_555
Sn2 Sn4 3.145912 1_555
Sn2 Yb2 3.453111 1_545
Sn2 Yb2 3.453111 1_455
Sn2 Yb0 3.453111 1_655
Sn2 Yb0 3.453111 1_565
Sn2 Yb1 3.457213 1_565
Sn2 Yb1 3.457213 1_655
Sn2 Yb3 3.457213 1_455
Sn2 Yb3 3.457213 1_545
Sn3 Yb3 3.036576 1_455
Sn3 Yb3 3.036576 1_545
Sn3 Yb2 3.177933 1_454
Sn3 Yb2 3.177933 1_544
Sn3 Yb0 3.264385 1_565
Sn3 Yb0 3.264385 1_655
Sn4 Yb3 3.071310 1_545
Sn4 Yb3 3.071310 1_455
Sn4 Yb1 3.101360 1_555
Sn4 Yb2 3.200077 1_455
Sn4 Yb2 3.200077 1_545
