# generated using pymatgen
data_Cs7Np3(Cl2O)6
_symmetry_space_group_name_H-M   'P 1'
_cell_length_a   13.31688649
_cell_length_b   13.31688649
_cell_length_c   13.31688649
_cell_angle_alpha   109.47122063
_cell_angle_beta   109.47122063
_cell_angle_gamma   109.47122063
_symmetry_Int_Tables_number   1
_chemical_formula_structural   Cs7Np3(Cl2O)6
_chemical_formula_sum   'Cs14 Np6 Cl24 O12'
_cell_volume   1817.96786867
_cell_formula_units_Z   2
loop_
 _symmetry_equiv_pos_site_id
 _symmetry_equiv_pos_as_xyz
  1  'x, y, z'
loop_
 _atom_site_type_symbol
 _atom_site_label
 _atom_site_symmetry_multiplicity
 _atom_site_fract_x
 _atom_site_fract_y
 _atom_site_fract_z
 _atom_site_occupancy
  Cs  Cs0  1  0.70407200  0.50000000  0.00000000  1
  Cs  Cs1  1  0.50000000  0.00000000  0.70407200  1
  Cs  Cs2  1  0.00000000  0.70407200  0.50000000  1
  Cs  Cs3  1  0.79592800  0.79592800  0.79592800  1
  Cs  Cs4  1  0.50000000  0.00000000  0.20407200  1
  Cs  Cs5  1  0.20407200  0.50000000  0.00000000  1
  Cs  Cs6  1  0.00000000  0.20407200  0.50000000  1
  Cs  Cs7  1  0.29592800  0.29592800  0.29592800  1
  Cs  Cs8  1  0.87500000  0.25000000  0.12500000  1
  Cs  Cs9  1  0.62500000  0.75000000  0.37500000  1
  Cs  Cs10  1  0.25000000  0.12500000  0.87500000  1
  Cs  Cs11  1  0.75000000  0.37500000  0.62500000  1
  Cs  Cs12  1  0.12500000  0.87500000  0.25000000  1
  Cs  Cs13  1  0.37500000  0.62500000  0.75000000  1
  Np  Np0  1  0.12500000  0.75000000  0.87500000  1
  Np  Np1  1  0.37500000  0.25000000  0.62500000  1
  Np  Np2  1  0.75000000  0.87500000  0.12500000  1
  Np  Np3  1  0.25000000  0.62500000  0.37500000  1
  Np  Np4  1  0.87500000  0.12500000  0.75000000  1
  Np  Np5  1  0.62500000  0.37500000  0.25000000  1
  Cl  Cl0  1  0.18933700  0.97492100  0.04585600  1
  Cl  Cl1  1  0.07093500  0.52507900  0.71441600  1
  Cl  Cl2  1  0.42906500  0.14348100  0.45414400  1
  Cl  Cl3  1  0.31066300  0.35651900  0.78558400  1
  Cl  Cl4  1  0.54585600  0.47492100  0.68933700  1
  Cl  Cl5  1  0.21441600  0.02507900  0.57093500  1
  Cl  Cl6  1  0.95414400  0.64348100  0.92906500  1
  Cl  Cl7  1  0.28558400  0.85651900  0.81066300  1
  Cl  Cl8  1  0.97492100  0.04585600  0.18933700  1
  Cl  Cl9  1  0.52507900  0.71441600  0.07093500  1
  Cl  Cl10  1  0.14348100  0.45414400  0.42906500  1
  Cl  Cl11  1  0.35651900  0.78558400  0.31066300  1
  Cl  Cl12  1  0.47492100  0.68933700  0.54585600  1
  Cl  Cl13  1  0.02507900  0.57093500  0.21441600  1
  Cl  Cl14  1  0.64348100  0.92906500  0.95414400  1
  Cl  Cl15  1  0.85651900  0.81066300  0.28558400  1
  Cl  Cl16  1  0.04585600  0.18933700  0.97492100  1
  Cl  Cl17  1  0.71441600  0.07093500  0.52507900  1
  Cl  Cl18  1  0.45414400  0.42906500  0.14348100  1
  Cl  Cl19  1  0.78558400  0.31066300  0.35651900  1
  Cl  Cl20  1  0.68933700  0.54585600  0.47492100  1
  Cl  Cl21  1  0.57093500  0.21441600  0.02507900  1
  Cl  Cl22  1  0.92906500  0.95414400  0.64348100  1
  Cl  Cl23  1  0.81066300  0.28558400  0.85651900  1
  O  O0  1  0.24283200  0.75000000  0.99283200  1
  O  O1  1  0.25716800  0.25000000  0.50716800  1
  O  O2  1  0.49283200  0.25000000  0.74283200  1
  O  O3  1  0.00716800  0.75000000  0.75716800  1
  O  O4  1  0.75000000  0.99283200  0.24283200  1
  O  O5  1  0.25000000  0.50716800  0.25716800  1
  O  O6  1  0.25000000  0.74283200  0.49283200  1
  O  O7  1  0.75000000  0.75716800  0.00716800  1
  O  O8  1  0.99283200  0.24283200  0.75000000  1
  O  O9  1  0.50716800  0.25716800  0.25000000  1
  O  O10  1  0.74283200  0.49283200  0.25000000  1
  O  O11  1  0.75716800  0.00716800  0.75000000  1
loop_
_geom_bond_atom_site_label_1
_geom_bond_atom_site_label_2
_geom_bond_distance
_geom_bond_site_symmetry_2
Cs0 O7 3.233937 1_555
Cs0 O10 3.233937 1_555
Cs0 O2 3.233937 1_554
Cs1 O11 3.233937 1_555
Cs1 O2 3.233937 1_555
Cs1 O6 3.233937 1_545
Cs2 O3 3.233937 1_555
Cs2 O6 3.233937 1_555
Cs2 O10 3.233937 1_455
Cs3 O3 3.233937 1_655
Cs3 O11 3.233937 1_565
Cs3 O7 3.233937 1_556
Cs4 O9 3.233937 1_555
Cs4 O0 3.233937 1_544
Cs4 O4 3.233937 1_545
Cs5 O5 3.233937 1_555
Cs5 O8 3.233937 1_454
Cs5 O0 3.233937 1_554
Cs6 O1 3.233937 1_555
Cs6 O4 3.233937 1_445
Cs6 O8 3.233937 1_455
Cs7 O1 3.233937 1_555
Cs7 O5 3.233937 1_555
Cs7 O9 3.233937 1_555
Np0 O0 1.811905 1_555
Np0 O3 1.811905 1_555
Np1 O2 1.811905 1_555
Np1 O1 1.811905 1_555
Np2 O4 1.811905 1_555
Np2 O7 1.811905 1_555
Np3 O6 1.811905 1_555
Np3 O5 1.811905 1_555
Np4 O8 1.811905 1_555
Np4 O11 1.811905 1_555
Np5 O10 1.811905 1_555
Np5 O9 1.811905 1_555
Cl0 Np0 2.707152 1_554
Cl0 Cs10 3.606156 1_564
Cl0 Cs12 3.619336 1_555
Cl0 Cs4 3.803260 1_565
Cl0 Cs7 3.832981 1_565
Cl1 Np0 2.707152 1_555
Cl1 Cs11 3.606156 1_455
Cl1 Cs13 3.619336 1_555
Cl1 Cs5 3.803260 1_556
Cl1 Cs6 3.832981 1_555
Cl2 Np1 2.707152 1_555
Cl2 Cs11 3.606156 1_555
Cl2 Cs12 3.619336 1_545
Cl2 Cs7 3.803260 1_555
Cl2 Cs4 3.832981 1_555
Cl3 Np1 2.707152 1_555
Cl3 Cs10 3.606156 1_555
Cl3 Cs13 3.619336 1_555
Cl3 Cs6 3.803260 1_555
Cl3 Cs5 3.832981 1_556
Cl4 Np1 2.707152 1_555
Cl4 Cs13 3.606156 1_555
Cl4 Cs11 3.619336 1_555
Cl4 Cs0 3.803260 1_556
Cl4 Cs3 3.832981 1_555
Cl5 Np1 2.707152 1_555
Cl5 Cs12 3.606156 1_545
Cl5 Cs10 3.619336 1_555
Cl5 Cs1 3.803260 1_555
Cl5 Cs2 3.832981 1_545
Cl6 Np0 2.707152 1_655
Cl6 Cs12 3.606156 1_656
Cl6 Cs11 3.619336 1_555
Cl6 Cs3 3.803260 1_555
Cl6 Cs0 3.832981 1_556
Cl7 Np0 2.707152 1_555
Cl7 Cs13 3.606156 1_555
Cl7 Cs10 3.619336 1_565
Cl7 Cs2 3.803260 1_555
Cl7 Cs1 3.832981 1_565
Cl8 Np2 2.707152 1_545
Cl8 Cs12 3.606156 1_645
Cl8 Cs8 3.619336 1_555
Cl8 Cs6 3.803260 1_655
Cl8 Cs7 3.832981 1_655
Cl9 Np2 2.707152 1_555
Cl9 Cs13 3.606156 1_554
Cl9 Cs9 3.619336 1_555
Cl9 Cs4 3.803260 1_565
Cl9 Cs5 3.832981 1_555
Cl10 Np3 2.707152 1_555
Cl10 Cs13 3.606156 1_555
Cl10 Cs8 3.619336 1_455
Cl10 Cs7 3.803260 1_555
Cl10 Cs6 3.832981 1_555
Cl11 Np3 2.707152 1_555
Cl11 Cs12 3.606156 1_555
Cl11 Cs9 3.619336 1_555
Cl11 Cs5 3.803260 1_555
Cl11 Cs4 3.832981 1_565
Cl12 Np3 2.707152 1_555
Cl12 Cs9 3.606156 1_555
Cl12 Cs13 3.619336 1_555
Cl12 Cs1 3.803260 1_565
Cl12 Cs3 3.832981 1_555
Cl13 Np3 2.707152 1_555
Cl13 Cs8 3.606156 1_455
Cl13 Cs12 3.619336 1_555
Cl13 Cs2 3.803260 1_555
Cl13 Cs0 3.832981 1_455
Cl14 Np2 2.707152 1_556
Cl14 Cs8 3.606156 1_566
Cl14 Cs13 3.619336 1_555
Cl14 Cs3 3.803260 1_555
Cl14 Cs1 3.832981 1_565
Cl15 Np2 2.707152 1_555
Cl15 Cs9 3.606156 1_555
Cl15 Cs12 3.619336 1_655
Cl15 Cs0 3.803260 1_555
Cl15 Cs2 3.832981 1_655
Cl16 Np4 2.707152 1_455
Cl16 Cs8 3.606156 1_456
Cl16 Cs10 3.619336 1_555
Cl16 Cs5 3.803260 1_556
Cl16 Cs7 3.832981 1_556
Cl17 Np4 2.707152 1_555
Cl17 Cs9 3.606156 1_545
Cl17 Cs11 3.619336 1_555
Cl17 Cs6 3.803260 1_655
Cl17 Cs4 3.832981 1_555
Cl18 Np5 2.707152 1_555
Cl18 Cs9 3.606156 1_555
Cl18 Cs10 3.619336 1_554
Cl18 Cs7 3.803260 1_555
Cl18 Cs5 3.832981 1_555
Cl19 Np5 2.707152 1_555
Cl19 Cs8 3.606156 1_555
Cl19 Cs11 3.619336 1_555
Cl19 Cs4 3.803260 1_555
Cl19 Cs6 3.832981 1_655
Cl20 Np5 2.707152 1_555
Cl20 Cs11 3.606156 1_555
Cl20 Cs9 3.619336 1_555
Cl20 Cs2 3.803260 1_655
Cl20 Cs3 3.832981 1_555
Cl21 Np5 2.707152 1_555
Cl21 Cs10 3.606156 1_554
Cl21 Cs8 3.619336 1_555
Cl21 Cs0 3.803260 1_555
Cl21 Cs1 3.832981 1_554
Cl22 Np4 2.707152 1_565
Cl22 Cs10 3.606156 1_665
Cl22 Cs9 3.619336 1_555
Cl22 Cs3 3.803260 1_555
Cl22 Cs2 3.832981 1_655
Cl23 Np4 2.707152 1_555
Cl23 Cs11 3.606156 1_555
Cl23 Cs8 3.619336 1_556
Cl23 Cs1 3.803260 1_555
Cl23 Cs0 3.832981 1_556
