# generated using pymatgen
data_Rb2MnF6
_symmetry_space_group_name_H-M   'P 1'
_cell_length_a   5.95155567
_cell_length_b   5.95155640
_cell_length_c   5.95155607
_cell_angle_alpha   60.00000178
_cell_angle_beta   59.99999770
_cell_angle_gamma   60.00000258
_symmetry_Int_Tables_number   1
_chemical_formula_structural   Rb2MnF6
_chemical_formula_sum   'Rb2 Mn1 F6'
_cell_volume   149.06531151
_cell_formula_units_Z   1
loop_
 _symmetry_equiv_pos_site_id
 _symmetry_equiv_pos_as_xyz
  1  'x, y, z'
loop_
 _atom_site_type_symbol
 _atom_site_label
 _atom_site_symmetry_multiplicity
 _atom_site_fract_x
 _atom_site_fract_y
 _atom_site_fract_z
 _atom_site_occupancy
  Rb  Rb0  1  0.75000000  0.75000000  0.75000000  1
  Rb  Rb1  1  0.25000000  0.25000000  0.25000000  1
  Mn  Mn0  1  0.00000000  0.00000000  -0.00000000  1
  F  F0  1  0.21575872  0.78424128  0.78424128  1
  F  F1  1  0.21575872  0.78424128  0.21575872  1
  F  F2  1  0.78424128  0.21575872  0.78424128  1
  F  F3  1  0.78424128  0.21575872  0.21575872  1
  F  F4  1  0.78424128  0.78424128  0.21575872  1
  F  F5  1  0.21575872  0.21575872  0.78424128  1
loop_
_geom_bond_atom_site_label_1
_geom_bond_atom_site_label_2
_geom_bond_distance
_geom_bond_site_symmetry_2
F0 Mn0 1.815992 1_566
F0 Rb0 2.989701 1_555
F0 Rb0 2.989701 1_455
F0 Rb1 2.989702 1_565
F0 Rb1 2.989702 1_556
F1 Mn0 1.815992 1_565
F1 Rb0 2.989701 1_554
F1 Rb0 2.989701 1_455
F1 Rb1 2.989702 1_565
F1 Rb1 2.989702 1_555
F2 Mn0 1.815992 1_656
F2 Rb1 2.989701 1_556
F2 Rb1 2.989701 1_655
F2 Rb0 2.989702 1_545
F2 Rb0 2.989702 1_555
F3 Mn0 1.815992 1_655
F3 Rb1 2.989701 1_555
F3 Rb1 2.989701 1_655
F3 Rb0 2.989702 1_545
F3 Rb0 2.989702 1_554
F4 Mn0 1.815992 1_665
F4 Rb0 2.989701 1_555
F4 Rb0 2.989701 1_554
F4 Rb1 2.989701 1_565
F4 Rb1 2.989702 1_655
F5 Mn0 1.815992 1_556
F5 Rb1 2.989701 1_555
F5 Rb1 2.989701 1_556
F5 Rb0 2.989701 1_545
F5 Rb0 2.989702 1_455
