# generated using pymatgen
data_Na6CoS4
_symmetry_space_group_name_H-M   'P 1'
_cell_length_a   8.91390150
_cell_length_b   8.91390150
_cell_length_c   6.91809100
_cell_angle_alpha   90.00000000
_cell_angle_beta   90.00000000
_cell_angle_gamma   119.99999628
_symmetry_Int_Tables_number   1
_chemical_formula_structural   Na6CoS4
_chemical_formula_sum   'Na12 Co2 S8'
_cell_volume   476.05001125
_cell_formula_units_Z   2
loop_
 _symmetry_equiv_pos_site_id
 _symmetry_equiv_pos_as_xyz
  1  'x, y, z'
loop_
 _atom_site_type_symbol
 _atom_site_label
 _atom_site_symmetry_multiplicity
 _atom_site_fract_x
 _atom_site_fract_y
 _atom_site_fract_z
 _atom_site_occupancy
  Na  Na0  1  0.14725700  0.85274300  0.53976100  1
  Na  Na1  1  0.29451400  0.14725700  0.03976100  1
  Na  Na2  1  0.85274300  0.70548600  0.03976100  1
  Na  Na3  1  0.14725700  0.29451400  0.53976100  1
  Na  Na4  1  0.70548600  0.85274300  0.53976100  1
  Na  Na5  1  0.85274300  0.14725700  0.03976100  1
  Na  Na6  1  0.53098500  0.46901500  0.36738200  1
  Na  Na7  1  0.06197000  0.53098500  0.86738200  1
  Na  Na8  1  0.46901500  0.93803000  0.86738200  1
  Na  Na9  1  0.53098500  0.06197000  0.36738200  1
  Na  Na10  1  0.93803000  0.46901500  0.36738200  1
  Na  Na11  1  0.46901500  0.53098500  0.86738200  1
  Co  Co0  1  0.66666700  0.33333300  0.75249000  1
  Co  Co1  1  0.33333300  0.66666700  0.25249000  1
  S  S0  1  0.80968600  0.19031400  0.64602600  1
  S  S1  1  0.61937300  0.80968600  0.14602600  1
  S  S2  1  0.33333300  0.66666700  0.58770500  1
  S  S3  1  0.66666700  0.33333300  0.08770500  1
  S  S4  1  0.19031400  0.80968600  0.14602600  1
  S  S5  1  0.38062700  0.19031400  0.64602600  1
  S  S6  1  0.80968600  0.61937300  0.64602600  1
  S  S7  1  0.19031400  0.38062700  0.14602600  1
loop_
_geom_bond_atom_site_label_1
_geom_bond_atom_site_label_2
_geom_bond_distance
_geom_bond_site_symmetry_2
Na0 S6 2.768172 1_455
Na0 S5 2.768172 1_565
Na0 S4 2.803841 1_555
Na0 S2 2.891972 1_555
Na1 S7 2.768165 1_555
Na1 S4 2.768174 1_545
Na1 S5 2.803839 1_554
Na1 S3 2.891980 1_555
Na2 S1 2.768165 1_555
Na2 S4 2.768174 1_655
Na2 S6 2.803839 1_554
Na2 S3 2.891980 1_555
Na3 S5 2.768165 1_555
Na3 S0 2.768174 1_455
Na3 S7 2.803839 1_555
Na3 S2 2.891980 1_555
Na4 S6 2.768165 1_555
Na4 S0 2.768174 1_565
Na4 S1 2.803839 1_555
Na4 S2 2.891980 1_555
Na5 S1 2.768172 1_545
Na5 S7 2.768172 1_655
Na5 S0 2.803841 1_554
Na5 S3 2.891972 1_555
Na6 S3 2.851652 1_555
Na6 S5 2.890407 1_555
Na6 S6 2.890407 1_555
Na6 S7 3.129673 1_555
Na6 S1 3.129673 1_555
Na7 S2 2.851647 1_555
Na7 S4 2.890407 1_556
Na7 S7 2.890413 1_556
Na7 S0 3.129675 1_455
Na7 S6 3.129680 1_455
Na8 S2 2.851647 1_555
Na8 S4 2.890407 1_556
Na8 S1 2.890413 1_556
Na8 S0 3.129675 1_565
Na8 S5 3.129680 1_565
Na9 S3 2.851647 1_555
Na9 S0 2.890407 1_555
Na9 S5 2.890413 1_555
Na9 S4 3.129675 1_545
Na9 S1 3.129680 1_545
Na10 S3 2.851647 1_555
Na10 S0 2.890407 1_555
Na10 S6 2.890413 1_555
Na10 S4 3.129675 1_655
Na10 S7 3.129680 1_655
Na11 S2 2.851652 1_555
Na11 S7 2.890407 1_556
Na11 S1 2.890407 1_556
Na11 S5 3.129673 1_555
Na11 S6 3.129673 1_555
Co0 S3 2.319048 1_556
Co0 S0 2.327715 1_555
Co0 S6 2.327730 1_555
Co0 S5 2.327730 1_555
Co1 S2 2.319048 1_555
Co1 S4 2.327715 1_555
Co1 S1 2.327730 1_555
Co1 S7 2.327730 1_555
