# generated using pymatgen
data_La3BCCl3
_symmetry_space_group_name_H-M   'P 1'
_cell_length_a   3.77272800
_cell_length_b   8.35332800
_cell_length_c   11.37175295
_cell_angle_alpha   79.16298489
_cell_angle_beta   90.00000000
_cell_angle_gamma   90.00000000
_symmetry_Int_Tables_number   1
_chemical_formula_structural   La3BCCl3
_chemical_formula_sum   'La6 B2 C2 Cl6'
_cell_volume   351.98757859
_cell_formula_units_Z   2
loop_
 _symmetry_equiv_pos_site_id
 _symmetry_equiv_pos_as_xyz
  1  'x, y, z'
loop_
 _atom_site_type_symbol
 _atom_site_label
 _atom_site_symmetry_multiplicity
 _atom_site_fract_x
 _atom_site_fract_y
 _atom_site_fract_z
 _atom_site_occupancy
  La  La0  1  0.25000000  0.79174700  0.88826600  1
  La  La1  1  0.25000000  0.39291900  0.81323200  1
  La  La2  1  0.75000000  0.20825300  0.11173400  1
  La  La3  1  0.25000000  0.28620100  0.39748000  1
  La  La4  1  0.75000000  0.60708100  0.18676800  1
  La  La5  1  0.75000000  0.71379900  0.60252000  1
  B  B0  1  0.25000000  0.46524900  0.04142900  1
  B  B1  1  0.75000000  0.53475100  0.95857100  1
  C  C0  1  0.75000000  0.60668200  0.81892200  1
  C  C1  1  0.25000000  0.39331800  0.18107800  1
  Cl  Cl0  1  0.25000000  0.64390600  0.40490100  1
  Cl  Cl1  1  0.75000000  0.35609400  0.59509900  1
  Cl  Cl2  1  0.25000000  0.90587600  0.12405600  1
  Cl  Cl3  1  0.25000000  0.96782900  0.63604600  1
  Cl  Cl4  1  0.75000000  0.03217100  0.36395400  1
  Cl  Cl5  1  0.75000000  0.09412400  0.87594400  1
loop_
_geom_bond_atom_site_label_1
_geom_bond_atom_site_label_2
_geom_bond_distance
_geom_bond_site_symmetry_2
B0 C1 1.588755 1_555
B0 La1 2.772842 1_554
B0 La2 2.856710 1_455
B0 La2 2.856710 1_555
B0 La0 2.947164 1_554
B1 C0 1.588755 1_555
B1 La4 2.772842 1_556
B1 La0 2.856710 1_555
B1 La0 2.856710 1_655
B1 La2 2.947164 1_556
C0 La5 2.455304 1_555
C0 La1 2.606623 1_555
C0 La1 2.606623 1_655
C0 La0 2.651119 1_655
C0 La0 2.651119 1_555
C1 La3 2.455304 1_555
C1 La4 2.606623 1_555
C1 La4 2.606623 1_455
C1 La2 2.651119 1_455
C1 La2 2.651119 1_555
Cl0 La3 3.005037 1_555
Cl0 La5 3.072922 1_555
Cl0 La5 3.072922 1_455
Cl0 La4 3.176960 1_455
Cl0 La4 3.176960 1_555
Cl1 La5 3.005037 1_555
Cl1 La3 3.072922 1_555
Cl1 La3 3.072922 1_655
Cl1 La1 3.176960 1_555
Cl1 La1 3.176960 1_655
Cl2 La0 3.009941 1_554
Cl2 La4 3.102790 1_455
Cl2 La4 3.102790 1_555
Cl2 La2 3.134462 1_565
Cl2 La2 3.134462 1_465
Cl3 La5 2.917328 1_555
Cl3 La5 2.917328 1_455
Cl3 La0 2.967080 1_555
Cl3 La3 3.423394 1_565
Cl4 La3 2.917328 1_555
Cl4 La3 2.917328 1_655
Cl4 La2 2.967080 1_555
Cl4 La5 3.423394 1_545
Cl5 La2 3.009941 1_556
Cl5 La1 3.102790 1_655
Cl5 La1 3.102790 1_555
Cl5 La0 3.134462 1_545
Cl5 La0 3.134462 1_645
