# generated using pymatgen
data_UTl2(TeO4)2
_symmetry_space_group_name_H-M   'P 1'
_cell_length_a   5.43564161
_cell_length_b   8.22558175
_cell_length_c   20.82178596
_cell_angle_alpha   90.00000000
_cell_angle_beta   92.23462657
_cell_angle_gamma   90.00000000
_symmetry_Int_Tables_number   1
_chemical_formula_structural   UTl2(TeO4)2
_chemical_formula_sum   'U4 Tl8 Te8 O32'
_cell_volume   930.26144854
_cell_formula_units_Z   4
loop_
 _symmetry_equiv_pos_site_id
 _symmetry_equiv_pos_as_xyz
  1  'x, y, z'
loop_
 _atom_site_type_symbol
 _atom_site_label
 _atom_site_symmetry_multiplicity
 _atom_site_fract_x
 _atom_site_fract_y
 _atom_site_fract_z
 _atom_site_occupancy
  U  U0  1  0.73999625  0.17624618  0.14293001  1
  U  U1  1  0.26000375  0.82375382  0.85706999  1
  U  U2  1  0.23999625  0.32375382  0.64293001  1
  U  U3  1  0.76000375  0.67624618  0.35706999  1
  Tl  Tl0  1  0.73681422  0.10910848  0.94946859  1
  Tl  Tl1  1  0.77543980  0.16892064  0.35269435  1
  Tl  Tl2  1  0.72456020  0.66892064  0.14730565  1
  Tl  Tl3  1  0.76318578  0.60910948  0.55053141  1
  Tl  Tl4  1  0.23681422  0.39089052  0.44946859  1
  Tl  Tl5  1  0.22456020  0.83107936  0.64730565  1
  Tl  Tl6  1  0.27543980  0.33107936  0.85269435  1
  Tl  Tl7  1  0.26318578  0.89089052  0.05053141  1
  Te  Te0  1  0.75493215  0.07908698  0.76573343  1
  Te  Te1  1  0.72864232  0.07250777  0.55255525  1
  Te  Te2  1  0.24506785  0.92091302  0.23426657  1
  Te  Te3  1  0.22864232  0.42749223  0.05255525  1
  Te  Te4  1  0.25493215  0.42091302  0.26573343  1
  Te  Te5  1  0.27135768  0.92749223  0.44744475  1
  Te  Te6  1  0.74506785  0.57908698  0.73426657  1
  Te  Te7  1  0.77135768  0.57250777  0.94744475  1
  O  O0  1  0.85650762  0.03257801  0.08175609  1
  O  O1  1  0.96650850  0.90128055  0.78740295  1
  O  O2  1  0.03349150  0.09871945  0.21259705  1
  O  O3  1  0.99450151  0.48799442  0.32017167  1
  O  O4  1  0.42054903  0.84589235  0.52273957  1
  O  O5  1  0.51294790  0.87470250  0.38841228  1
  O  O6  1  0.53349150  0.40128055  0.71259705  1
  O  O7  1  0.37780187  0.67515772  0.79776418  1
  O  O8  1  0.00549849  0.51200558  0.67982833  1
  O  O9  1  0.12219813  0.17515772  0.70223582  1
  O  O10  1  0.94383243  0.25253455  0.57023525  1
  O  O11  1  0.35650762  0.46742199  0.58175609  1
  O  O12  1  0.62219813  0.32484228  0.20223582  1
  O  O13  1  0.86430905  0.23282523  0.82523629  1
  O  O14  1  0.57945097  0.15410765  0.47726043  1
  O  O15  1  0.55616757  0.75253455  0.92976475  1
  O  O16  1  0.92054903  0.65410765  0.02273957  1
  O  O17  1  0.64349238  0.53257801  0.41824391  1
  O  O18  1  0.46650850  0.59871945  0.28740295  1
  O  O19  1  0.48705210  0.12529750  0.61158772  1
  O  O20  1  0.05616757  0.74746545  0.42976475  1
  O  O21  1  0.50549849  0.98799442  0.17982833  1
  O  O22  1  0.87780187  0.82484228  0.29776418  1
  O  O23  1  0.07945097  0.34589235  0.97726043  1
  O  O24  1  0.36430905  0.26717477  0.32523629  1
  O  O25  1  0.49450151  0.01200558  0.82017167  1
  O  O26  1  0.63569095  0.73282523  0.67476371  1
  O  O27  1  0.98705210  0.37470250  0.11158772  1
  O  O28  1  0.44383243  0.24746545  0.07023525  1
  O  O29  1  0.13569095  0.76717477  0.17476371  1
  O  O30  1  0.14349238  0.96742199  0.91824391  1
  O  O31  1  0.01294790  0.62529750  0.88841228  1
loop_
_geom_bond_atom_site_label_1
_geom_bond_atom_site_label_2
_geom_bond_distance
_geom_bond_site_symmetry_2
O0 U0 1.866274 1_555
O0 Tl7 2.603774 1_645
O1 Te0 1.903897 1_565
O1 U1 2.208055 1_655
O2 Te2 1.903897 1_545
O2 U0 2.208055 1_455
O3 Te4 1.928307 1_655
O3 U3 2.165444 1_555
O4 Te5 1.861968 1_555
O4 Te1 2.565845 1_565
O4 Tl3 2.740983 1_555
O5 Te5 1.884079 1_555
O5 U3 2.227650 1_555
O6 Te6 1.903897 1_555
O6 U2 2.208055 1_555
O7 U1 1.868290 1_555
O7 Te6 2.561964 1_555
O8 Te6 1.928307 1_455
O8 U2 2.165444 1_555
O9 U2 1.868290 1_555
O9 Te0 2.561964 1_455
O10 Te1 1.913889 1_555
O10 U2 2.244067 1_655
O11 U2 1.866274 1_555
O11 Tl3 2.603774 1_555
O12 U0 1.868290 1_555
O12 Te4 2.561964 1_555
O13 Te0 1.852085 1_555
O13 Tl6 2.423750 1_655
O14 Te1 1.861968 1_555
O14 Te5 2.565845 1_545
O14 Tl4 2.740983 1_555
O15 Te7 1.913889 1_555
O15 U1 2.244067 1_555
O16 Te7 1.861968 1_554
O16 Te3 2.565845 1_655
O16 Tl7 2.740983 1_655
O17 U3 1.866274 1_555
O17 Tl4 2.603774 1_555
O18 Te4 1.903897 1_555
O18 U3 2.208055 1_555
O19 Te1 1.884079 1_555
O19 U2 2.227650 1_555
O20 Te5 1.913889 1_555
O20 U3 2.244067 1_455
O21 Te2 1.928307 1_555
O21 U0 2.165444 1_565
O22 U3 1.868290 1_555
O22 Te2 2.561964 1_655
O23 Te3 1.861968 1_556
O23 Te7 2.565845 1_455
O23 Tl0 2.740988 1_455
O24 Te4 1.852085 1_555
O24 Tl1 2.423750 1_555
O25 Te0 1.928307 1_555
O25 U1 2.165444 1_545
O26 Te6 1.852085 1_555
O26 Tl5 2.423750 1_555
O27 Te3 1.884079 1_655
O27 U0 2.227650 1_555
O28 Te3 1.913889 1_555
O28 U0 2.244067 1_555
O29 Te2 1.852085 1_555
O29 Tl2 2.423750 1_455
O30 U1 1.866274 1_555
O30 Tl0 2.603771 1_465
O31 Te7 1.884079 1_455
O31 U1 2.227650 1_555
