# generated using pymatgen
data_RbGd2CuSe4
_symmetry_space_group_name_H-M   'P 1'
_cell_length_a   7.52378643
_cell_length_b   7.52378643
_cell_length_c   14.51504000
_cell_angle_alpha   90.00000000
_cell_angle_beta   90.00000000
_cell_angle_gamma   147.72993019
_symmetry_Int_Tables_number   1
_chemical_formula_structural   RbGd2CuSe4
_chemical_formula_sum   'Rb2 Gd4 Cu2 Se8'
_cell_volume   438.69208968
_cell_formula_units_Z   2
loop_
 _symmetry_equiv_pos_site_id
 _symmetry_equiv_pos_as_xyz
  1  'x, y, z'
loop_
 _atom_site_type_symbol
 _atom_site_label
 _atom_site_symmetry_multiplicity
 _atom_site_fract_x
 _atom_site_fract_y
 _atom_site_fract_z
 _atom_site_occupancy
  Rb  Rb0  1  0.89051100  0.10948900  0.75000000  1
  Rb  Rb1  1  0.10948900  0.89051100  0.25000000  1
  Gd  Gd0  1  0.36588200  0.63411800  0.06280000  1
  Gd  Gd1  1  0.63411800  0.36588200  0.56280000  1
  Gd  Gd2  1  0.63411800  0.36588200  0.93720000  1
  Gd  Gd3  1  0.36588200  0.63411800  0.43720000  1
  Cu  Cu0  1  0.16290400  0.83709600  0.75000000  1
  Cu  Cu1  1  0.83709600  0.16290400  0.25000000  1
  Se  Se0  1  0.42837900  0.57162100  0.25000000  1
  Se  Se1  1  0.73824300  0.26175700  0.11049300  1
  Se  Se2  1  0.26175700  0.73824300  0.61049300  1
  Se  Se3  1  0.00000000  0.00000000  0.00000000  1
  Se  Se4  1  0.26175700  0.73824300  0.88950700  1
  Se  Se5  1  0.73824300  0.26175700  0.38950700  1
  Se  Se6  1  0.00000000  0.00000000  0.50000000  1
  Se  Se7  1  0.57162100  0.42837900  0.75000000  1
loop_
_geom_bond_atom_site_label_1
_geom_bond_atom_site_label_2
_geom_bond_distance
_geom_bond_site_symmetry_2
Rb0 Se7 3.350410 1_545
Rb0 Se7 3.350410 1_655
Rb0 Se4 3.454844 1_545
Rb0 Se4 3.454844 1_655
Rb0 Se2 3.454844 1_545
Rb0 Se2 3.454844 1_655
Rb0 Se6 3.958872 1_655
Rb0 Se3 3.958872 1_656
Rb1 Se0 3.350410 1_565
Rb1 Se0 3.350410 1_455
Rb1 Se1 3.454844 1_455
Rb1 Se5 3.454844 1_455
Rb1 Se5 3.454844 1_565
Rb1 Se1 3.454844 1_565
Rb1 Se3 3.958872 1_565
Rb1 Se6 3.958872 1_565
Gd0 Se0 2.863453 1_555
Gd0 Se1 2.873156 1_565
Gd0 Se1 2.873156 1_455
Gd0 Se4 2.931274 1_554
Gd0 Se3 2.993502 1_665
Gd0 Se3 2.993502 1_555
Gd1 Se7 2.863453 1_555
Gd1 Se2 2.873156 1_545
Gd1 Se2 2.873156 1_655
Gd1 Se5 2.931274 1_555
Gd1 Se6 2.993502 1_555
Gd1 Se6 2.993502 1_665
Gd2 Se7 2.863453 1_555
Gd2 Se4 2.873156 1_655
Gd2 Se4 2.873156 1_545
Gd2 Se1 2.931274 1_556
Gd2 Se3 2.993502 1_556
Gd2 Se3 2.993502 1_666
Gd3 Se0 2.863453 1_555
Gd3 Se5 2.873156 1_565
Gd3 Se5 2.873156 1_455
Gd3 Se2 2.931274 1_555
Gd3 Se6 2.993502 1_665
Gd3 Se6 2.993502 1_555
Cu0 Se7 2.472406 1_455
Cu0 Se7 2.472406 1_565
Cu0 Se2 2.478344 1_555
Cu0 Se4 2.478344 1_555
Cu1 Se0 2.472406 1_545
Cu1 Se0 2.472406 1_655
Cu1 Se5 2.478344 1_555
Cu1 Se1 2.478344 1_555
