# generated using pymatgen
data_Na2Li5Sn4
_symmetry_space_group_name_H-M   'P 1'
_cell_length_a   24.39388528
_cell_length_b   24.39388528
_cell_length_c   24.39388549
_cell_angle_alpha   11.70688292
_cell_angle_beta   11.70688292
_cell_angle_gamma   11.70688264
_symmetry_Int_Tables_number   1
_chemical_formula_structural   Na2Li5Sn4
_chemical_formula_sum   'Na4 Li10 Sn8'
_cell_volume   519.35820059
_cell_formula_units_Z   2
loop_
 _symmetry_equiv_pos_site_id
 _symmetry_equiv_pos_as_xyz
  1  'x, y, z'
loop_
 _atom_site_type_symbol
 _atom_site_label
 _atom_site_symmetry_multiplicity
 _atom_site_fract_x
 _atom_site_fract_y
 _atom_site_fract_z
 _atom_site_occupancy
  Na  Na0  1  0.24229500  0.24229500  0.24229500  1
  Na  Na1  1  0.04723500  0.04723500  0.04723500  1
  Na  Na2  1  0.95276500  0.95276500  0.95276500  1
  Na  Na3  1  0.75770500  0.75770500  0.75770500  1
  Li  Li0  1  0.52079800  0.52079800  0.52079800  1
  Li  Li1  1  0.32250200  0.32250200  0.32250200  1
  Li  Li2  1  0.20018800  0.20018800  0.20018800  1
  Li  Li3  1  0.28371100  0.28371100  0.28371100  1
  Li  Li4  1  0.67749800  0.67749800  0.67749800  1
  Li  Li5  1  0.55872400  0.55872400  0.55872400  1
  Li  Li6  1  0.79981200  0.79981200  0.79981200  1
  Li  Li7  1  0.47920200  0.47920200  0.47920200  1
  Li  Li8  1  0.44127600  0.44127600  0.44127600  1
  Li  Li9  1  0.71628900  0.71628900  0.71628900  1
  Sn  Sn0  1  0.36191700  0.36191700  0.36191700  1
  Sn  Sn1  1  0.83998400  0.83998400  0.83998400  1
  Sn  Sn2  1  0.63808300  0.63808300  0.63808300  1
  Sn  Sn3  1  0.88010200  0.88010200  0.88010200  1
  Sn  Sn4  1  0.40083500  0.40083500  0.40083500  1
  Sn  Sn5  1  0.11989800  0.11989800  0.11989800  1
  Sn  Sn6  1  0.16001600  0.16001600  0.16001600  1
  Sn  Sn7  1  0.59916500  0.59916500  0.59916500  1
loop_
_geom_bond_atom_site_label_1
_geom_bond_atom_site_label_2
_geom_bond_distance
_geom_bond_site_symmetry_2
Na0 Sn7 3.343327 1_554
Na0 Sn7 3.343327 1_545
Na0 Sn7 3.343327 1_455
Na0 Sn3 3.556799 1_445
Na0 Sn3 3.556799 1_544
Na0 Sn3 3.556799 1_454
Na1 Sn0 3.176374 1_545
Na1 Sn0 3.176374 1_455
Na1 Sn0 3.176374 1_554
Na1 Sn4 3.228214 1_554
Na1 Sn4 3.228214 1_455
Na1 Sn4 3.228214 1_545
Na2 Sn2 3.176374 1_565
Na2 Sn2 3.176374 1_655
Na2 Sn2 3.176374 1_556
Na2 Sn7 3.228214 1_556
Na2 Sn7 3.228214 1_565
Na2 Sn7 3.228214 1_655
Na3 Sn4 3.343327 1_556
Na3 Sn4 3.343327 1_655
Na3 Sn4 3.343327 1_565
Na3 Sn5 3.556799 1_665
Na3 Sn5 3.556799 1_566
Na3 Sn5 3.556799 1_656
Li0 Li5 2.756175 1_555
Li0 Sn1 3.051094 1_455
Li0 Sn1 3.051094 1_545
Li0 Sn1 3.051094 1_554
Li1 Li3 2.819037 1_555
Li1 Sn0 2.864385 1_555
Li1 Sn2 3.149049 1_455
Li1 Sn2 3.149049 1_545
Li1 Sn2 3.149049 1_554
Li2 Sn6 2.919398 1_555
Li2 Sn3 3.029680 1_454
Li2 Sn3 3.029680 1_544
Li2 Sn3 3.029680 1_445
Li2 Na0 3.060019 1_555
Li3 Na2 2.877888 1_544
Li3 Na2 2.877888 1_454
Li3 Na2 2.877888 1_445
Li3 Na0 3.009802 1_555
Li3 Sn7 3.152842 1_455
Li3 Sn7 3.152842 1_545
Li3 Sn7 3.152842 1_554
Li3 Sn2 3.254193 1_554
Li3 Sn2 3.254193 1_455
Li3 Sn2 3.254193 1_545
Li4 Li9 2.819037 1_555
Li4 Sn2 2.864385 1_555
Li4 Sn0 3.149049 1_655
Li4 Sn0 3.149049 1_565
Li4 Sn0 3.149049 1_556
Li5 Sn7 2.938947 1_555
Li5 Sn3 3.001165 1_545
Li5 Sn3 3.001165 1_455
Li5 Sn3 3.001165 1_554
Li5 Na0 3.124308 1_565
Li5 Na0 3.124308 1_655
Li5 Na0 3.124308 1_556
Li6 Sn1 2.919398 1_555
Li6 Sn5 3.029680 1_656
Li6 Sn5 3.029680 1_566
Li6 Sn5 3.029680 1_665
Li6 Na3 3.060019 1_555
Li7 Li8 2.756175 1_555
Li7 Sn6 3.051094 1_655
Li7 Sn6 3.051094 1_565
Li7 Sn6 3.051094 1_556
Li8 Sn4 2.938947 1_555
Li8 Sn5 3.001165 1_655
Li8 Sn5 3.001165 1_565
Li8 Sn5 3.001165 1_556
Li8 Na3 3.124308 1_545
Li8 Na3 3.124308 1_455
Li8 Na3 3.124308 1_554
Li9 Na1 2.877888 1_566
Li9 Na1 2.877888 1_656
Li9 Na1 2.877888 1_665
Li9 Na3 3.009802 1_555
Li9 Sn4 3.152842 1_655
Li9 Sn4 3.152842 1_565
Li9 Sn4 3.152842 1_556
Li9 Sn0 3.254193 1_556
Li9 Sn0 3.254193 1_655
Li9 Sn0 3.254193 1_565
Sn0 Sn4 2.828267 1_555
Sn2 Sn7 2.828267 1_555
