# generated using pymatgen
data_Sr2GdCoCu2O7
_symmetry_space_group_name_H-M   'P 1'
_cell_length_a   5.46325139
_cell_length_b   5.53272347
_cell_length_c   12.15646205
_cell_angle_alpha   103.16066498
_cell_angle_beta   102.98706165
_cell_angle_gamma   89.99240400
_symmetry_Int_Tables_number   1
_chemical_formula_structural   Sr2GdCoCu2O7
_chemical_formula_sum   'Sr4 Gd2 Co2 Cu4 O14'
_cell_volume   348.14147018
_cell_formula_units_Z   2
loop_
 _symmetry_equiv_pos_site_id
 _symmetry_equiv_pos_as_xyz
  1  'x, y, z'
loop_
 _atom_site_type_symbol
 _atom_site_label
 _atom_site_symmetry_multiplicity
 _atom_site_fract_x
 _atom_site_fract_y
 _atom_site_fract_z
 _atom_site_occupancy
  Sr  Sr0  1  0.84960000  0.83589200  0.69503100  1
  Sr  Sr1  1  0.15479500  0.16406400  0.30521400  1
  Sr  Sr2  1  0.34947900  0.35890200  0.69479600  1
  Sr  Sr3  1  0.65466900  0.64084300  0.30498700  1
  Gd  Gd0  1  0.50229500  0.50017600  0.99991800  1
  Gd  Gd1  1  0.00233800  0.00020400  0.00004300  1
  Co  Co0  1  0.72026700  0.18790800  0.50000400  1
  Co  Co1  1  0.21902500  0.81154300  0.50002300  1
  Cu  Cu0  1  0.93060100  0.42744900  0.85518900  1
  Cu  Cu1  1  0.43050100  0.92781600  0.85508000  1
  Cu  Cu2  1  0.07553800  0.57285300  0.14488400  1
  Cu  Cu3  1  0.57551500  0.07229600  0.14475000  1
  O  O0  1  0.68723300  0.18329300  0.86739500  1
  O  O1  1  0.31459400  0.31097700  0.12637200  1
  O  O2  1  0.81967900  0.81700100  0.13219600  1
  O  O3  1  0.19876100  0.63606200  0.35138500  1
  O  O4  1  0.84950300  0.36399300  0.64835200  1
  O  O5  1  0.18812900  0.68934400  0.87393500  1
  O  O6  1  0.18751300  0.18445400  0.86781900  1
  O  O7  1  0.87005900  0.87064800  0.50000800  1
  O  O8  1  0.68794100  0.68473700  0.87361100  1
  O  O9  1  0.37149600  0.12760700  0.50001000  1
  O  O10  1  0.81408700  0.31537500  0.12608500  1
  O  O11  1  0.70113400  0.21551800  0.35161300  1
  O  O12  1  0.32020000  0.81622800  0.13261600  1
  O  O13  1  0.34724900  0.78481600  0.64868500  1
loop_
_geom_bond_atom_site_label_1
_geom_bond_atom_site_label_2
_geom_bond_distance
_geom_bond_site_symmetry_2
Gd0 O10 2.416345 1_556
Gd0 O8 2.417258 1_555
Gd0 O5 2.436143 1_555
Gd0 O1 2.439665 1_556
Gd0 O6 2.463690 1_555
Gd0 O12 2.466973 1_556
Gd0 O2 2.475695 1_556
Gd0 O0 2.476883 1_555
Gd1 O5 2.415946 1_544
Gd1 O1 2.417828 1_555
Gd1 O10 2.436652 1_455
Gd1 O8 2.439587 1_444
Gd1 O2 2.463017 1_445
Gd1 O0 2.466902 1_454
Gd1 O6 2.474589 1_554
Gd1 O12 2.477436 1_545
Co0 O4 1.824195 1_555
Co0 O11 1.824576 1_555
Co0 O9 1.934474 1_555
Co0 O7 1.936610 1_545
Co1 O3 1.825124 1_555
Co1 O13 1.825166 1_555
Co1 O7 1.934255 1_455
Co1 O9 1.937104 1_565
Cu0 O0 1.948079 1_555
Cu0 O6 1.948771 1_655
Cu0 O8 1.954943 1_555
Cu0 O5 1.958842 1_655
Cu0 O4 2.395651 1_555
Cu1 O6 1.947860 1_565
Cu1 O0 1.948692 1_565
Cu1 O5 1.954811 1_555
Cu1 O8 1.957717 1_555
Cu1 O13 2.389836 1_555
Cu2 O2 1.949317 1_455
Cu2 O12 1.950263 1_555
Cu2 O10 1.956376 1_455
Cu2 O1 1.959270 1_555
Cu2 O3 2.391222 1_555
Cu3 O12 1.946135 1_545
Cu3 O2 1.946943 1_545
Cu3 O1 1.953579 1_555
Cu3 O10 1.957384 1_555
Cu3 O11 2.395784 1_555
O0 Sr0 2.805830 1_545
O0 Sr2 2.817618 1_555
O1 Sr1 2.794189 1_555
O1 Sr3 2.807228 1_555
O2 Sr1 2.809622 1_665
O2 Sr3 2.821062 1_555
O3 Sr1 2.542527 1_555
O3 Sr3 2.675980 1_555
O3 Sr3 2.899632 1_455
O3 Sr1 3.097178 1_565
O4 Sr0 2.542430 1_555
O4 Sr2 2.663586 1_655
O4 Sr2 2.912480 1_555
O4 Sr0 3.100644 1_545
O5 Sr0 2.793311 1_455
O5 Sr2 2.812699 1_555
O6 Sr2 2.810657 1_555
O6 Sr0 2.820058 1_445
O7 Sr3 2.448612 1_555
O7 Sr0 2.448841 1_555
O8 Sr2 2.793589 1_555
O8 Sr0 2.807293 1_555
O9 Sr2 2.450959 1_555
O9 Sr1 2.450965 1_555
O10 Sr3 2.792593 1_555
O10 Sr1 2.813414 1_655
O11 Sr3 2.542800 1_555
O11 Sr1 2.664021 1_655
O11 Sr1 2.911796 1_555
O11 Sr3 3.099991 1_545
O12 Sr3 2.806391 1_555
O12 Sr1 2.817015 1_565
O13 Sr2 2.542775 1_555
O13 Sr0 2.676214 1_555
O13 Sr0 2.899107 1_455
O13 Sr2 3.096639 1_565
