# generated using pymatgen
data_Li2ZnSn3O8
_symmetry_space_group_name_H-M   'P 1'
_cell_length_a   10.52093784
_cell_length_b   10.52093784
_cell_length_c   9.91092506
_cell_angle_alpha   90.00000000
_cell_angle_beta   90.00000000
_cell_angle_gamma   120.05941502
_symmetry_Int_Tables_number   1
_chemical_formula_structural   Li2ZnSn3O8
_chemical_formula_sum   'Li12 Zn6 Sn18 O48'
_cell_volume   949.49658672
_cell_formula_units_Z   6
loop_
 _symmetry_equiv_pos_site_id
 _symmetry_equiv_pos_as_xyz
  1  'x, y, z'
loop_
 _atom_site_type_symbol
 _atom_site_label
 _atom_site_symmetry_multiplicity
 _atom_site_fract_x
 _atom_site_fract_y
 _atom_site_fract_z
 _atom_site_occupancy
  Li  Li0  1  0.33373497  0.69600196  0.71872042  1
  Li  Li1  1  0.33374850  0.83311239  0.49103272  1
  Li  Li2  1  0.66626503  0.30399804  0.21872042  1
  Li  Li3  1  0.83311239  0.33374850  0.49103272  1
  Li  Li4  1  0.16597545  0.16597545  0.99160072  1
  Li  Li5  1  0.30399804  0.66626503  0.21872042  1
  Li  Li6  1  0.66625150  0.16688761  0.99103272  1
  Li  Li7  1  0.16688761  0.66625150  0.99103272  1
  Li  Li8  1  0.98112121  0.98112121  0.71644336  1
  Li  Li9  1  0.69600196  0.33373497  0.71872042  1
  Li  Li10  1  0.01887879  0.01887879  0.21644336  1
  Li  Li11  1  0.83402455  0.83402455  0.49160072  1
  Zn  Zn0  1  0.66588167  0.00059105  0.30561647  1
  Zn  Zn1  1  0.99940895  0.33411833  0.80561647  1
  Zn  Zn2  1  0.66758024  0.66758024  0.80851639  1
  Zn  Zn3  1  0.33241976  0.33241976  0.30851639  1
  Zn  Zn4  1  0.33411833  0.99940895  0.80561647  1
  Zn  Zn5  1  0.00059105  0.66588167  0.30561647  1
  Sn  Sn0  1  0.16089153  0.50560991  0.49753593  1
  Sn  Sn1  1  0.15798958  0.98332176  0.49644788  1
  Sn  Sn2  1  0.50802142  0.68116420  0.49601717  1
  Sn  Sn3  1  0.98332176  0.15798958  0.49644788  1
  Sn  Sn4  1  0.68116420  0.50802142  0.49601717  1
  Sn  Sn5  1  0.50560991  0.16089153  0.49753593  1
  Sn  Sn6  1  0.31883580  0.49197858  0.99601717  1
  Sn  Sn7  1  0.00389848  0.66682170  0.71776121  1
  Sn  Sn8  1  0.67124381  0.67124381  0.21615709  1
  Sn  Sn9  1  0.83910847  0.49439009  0.99753593  1
  Sn  Sn10  1  0.01667824  0.84201042  0.99644788  1
  Sn  Sn11  1  0.66682170  0.00389848  0.71776121  1
  Sn  Sn12  1  0.99610152  0.33317830  0.21776121  1
  Sn  Sn13  1  0.33317830  0.99610152  0.21776121  1
  Sn  Sn14  1  0.49439009  0.83910847  0.99753593  1
  Sn  Sn15  1  0.32875619  0.32875619  0.71615709  1
  Sn  Sn16  1  0.49197858  0.31883580  0.99601717  1
  Sn  Sn17  1  0.84201042  0.01667824  0.99644788  1
  O  O0  1  0.49768068  0.16827277  0.11730028  1
  O  O1  1  0.33562893  0.66613863  0.89745881  1
  O  O2  1  0.83284173  0.99934591  0.61696477  1
  O  O3  1  0.83172723  0.50231932  0.61730028  1
  O  O4  1  0.84230916  0.84230916  0.11172460  1
  O  O5  1  0.66269047  0.66269047  0.60692944  1
  O  O6  1  0.33730953  0.33730953  0.10692944  1
  O  O7  1  0.66510561  0.16900579  0.61646998  1
  O  O8  1  0.33092659  0.14983791  0.37105561  1
  O  O9  1  0.51757373  0.51757373  0.36740596  1
  O  O10  1  0.66738202  0.99715947  0.10392888  1
  O  O11  1  0.66613863  0.33562893  0.89745881  1
  O  O12  1  0.16900579  0.66510561  0.61646998  1
  O  O13  1  0.85016209  0.66907341  0.87105561  1
  O  O14  1  0.16715827  0.00065409  0.11696477  1
  O  O15  1  0.99715947  0.66738202  0.10392888  1
  O  O16  1  0.33386137  0.66437107  0.39745881  1
  O  O17  1  0.66437107  0.33386137  0.39745881  1
  O  O18  1  0.99167557  0.51028019  0.85925532  1
  O  O19  1  0.51028019  0.99167557  0.85925532  1
  O  O20  1  0.82096322  0.15151919  0.85987937  1
  O  O21  1  0.99934591  0.83284173  0.61696477  1
  O  O22  1  0.48242627  0.48242627  0.86740596  1
  O  O23  1  0.17903678  0.84848081  0.35987937  1
  O  O24  1  0.66138805  0.81591489  0.35635182  1
  O  O25  1  0.14983791  0.33092659  0.37105561  1
  O  O26  1  0.33261798  0.00284053  0.60392888  1
  O  O27  1  0.49645159  0.66495972  0.10925009  1
  O  O28  1  0.00284053  0.33261798  0.60392888  1
  O  O29  1  0.16827277  0.49768068  0.11730028  1
  O  O30  1  0.33861195  0.18408511  0.85635182  1
  O  O31  1  0.50231932  0.83172723  0.61730028  1
  O  O32  1  0.99920822  0.99920822  0.89712500  1
  O  O33  1  0.00065409  0.16715827  0.11696477  1
  O  O34  1  0.00079178  0.00079178  0.39712500  1
  O  O35  1  0.15769084  0.15769084  0.61172460  1
  O  O36  1  0.15151919  0.82096322  0.85987937  1
  O  O37  1  0.66907341  0.85016209  0.87105561  1
  O  O38  1  0.18408511  0.33861195  0.85635182  1
  O  O39  1  0.81591489  0.66138805  0.35635182  1
  O  O40  1  0.83099421  0.33489439  0.11646998  1
  O  O41  1  0.00832443  0.48971981  0.35925532  1
  O  O42  1  0.33504028  0.50354841  0.60925009  1
  O  O43  1  0.48971981  0.00832443  0.35925532  1
  O  O44  1  0.33489439  0.83099421  0.11646998  1
  O  O45  1  0.84848081  0.17903678  0.35987937  1
  O  O46  1  0.66495972  0.49645159  0.10925009  1
  O  O47  1  0.50354841  0.33504028  0.60925009  1
loop_
_geom_bond_atom_site_label_1
_geom_bond_atom_site_label_2
_geom_bond_distance
_geom_bond_site_symmetry_2
Li0 O1 1.800962 1_555
Li0 O12 1.889952 1_555
Li0 O31 1.912602 1_555
Li0 O42 2.303247 1_555
Li1 O16 2.003482 1_555
Li1 O26 2.112366 1_565
Li1 O12 2.145901 1_555
Li1 O23 2.151479 1_555
Li1 O31 2.176594 1_555
Li1 O43 2.183168 1_565
Li2 O17 1.800962 1_555
Li2 O40 1.889952 1_555
Li2 O0 1.912602 1_555
Li2 O46 2.303247 1_555
Li3 O17 2.003482 1_555
Li3 O28 2.112366 1_655
Li3 O7 2.145901 1_555
Li3 O45 2.151479 1_555
Li3 O3 2.176594 1_555
Li3 O41 2.183168 1_655
Li4 O32 1.987372 1_445
Li4 O6 2.133072 1_556
Li4 O14 2.142631 1_556
Li4 O33 2.142631 1_556
Li4 O38 2.187543 1_555
Li4 O30 2.187543 1_555
Li5 O16 1.800962 1_555
Li5 O44 1.889952 1_555
Li5 O29 1.912602 1_555
Li5 O27 2.303247 1_555
Li6 O11 2.003482 1_555
Li6 O10 2.112366 1_546
Li6 O40 2.145901 1_556
Li6 O20 2.151479 1_555
Li6 O0 2.176594 1_556
Li6 O19 2.183168 1_545
Li7 O1 2.003482 1_555
Li7 O15 2.112366 1_456
Li7 O44 2.145901 1_556
Li7 O36 2.151479 1_555
Li7 O29 2.176594 1_556
Li7 O18 2.183168 1_455
Li8 O32 1.800787 1_555
Li8 O2 1.934475 1_555
Li8 O21 1.934475 1_555
Li8 O35 2.126482 1_665
Li9 O11 1.800962 1_555
Li9 O7 1.889952 1_555
Li9 O3 1.912602 1_555
Li9 O47 2.303247 1_555
Li10 O34 1.800787 1_555
Li10 O14 1.934475 1_555
Li10 O33 1.934475 1_555
Li10 O4 2.126482 1_445
Li11 O34 1.987372 1_665
Li11 O5 2.133072 1_555
Li11 O2 2.142631 1_555
Li11 O21 2.142631 1_555
Li11 O24 2.187543 1_555
Li11 O39 2.187543 1_555
O0 Sn16 2.013189 1_554
O0 Sn13 2.031564 1_545
O1 Sn6 2.004612 1_555
O1 Sn14 2.010054 1_555
O2 Sn3 2.017865 1_565
O2 Sn11 2.033468 1_565
O3 Sn4 2.013189 1_555
O3 Sn7 2.031564 1_655
O4 Sn8 2.074758 1_555
O4 Sn17 2.162539 1_564
O4 Sn10 2.162539 1_654
O5 Zn2 1.998574 1_555
O5 Sn4 2.052058 1_555
O5 Sn2 2.052058 1_555
O6 Zn3 1.998574 1_555
O6 Sn16 2.052058 1_554
O6 Sn6 2.052058 1_554
O7 Sn11 2.014200 1_555
O7 Sn5 2.017189 1_555
O8 Zn3 2.011013 1_555
O8 Sn1 2.175040 1_545
O8 Sn5 2.179081 1_555
O8 Sn13 2.227854 1_545
O9 Zn3 2.031874 1_555
O9 Sn2 2.184125 1_555
O9 Sn4 2.184125 1_555
O9 Sn8 2.203690 1_555
O10 Zn0 1.999442 1_565
O10 Sn14 2.039016 1_554
O10 Sn17 2.043143 1_564
O11 Sn16 2.004612 1_555
O11 Sn9 2.010054 1_555
O12 Sn7 2.014200 1_555
O12 Sn0 2.017189 1_555
O13 Zn2 2.011013 1_555
O13 Sn10 2.175040 1_655
O13 Sn9 2.179081 1_555
O13 Sn7 2.227854 1_655
O14 Sn10 2.017865 1_544
O14 Sn13 2.033468 1_545
O15 Zn5 1.999442 1_655
O15 Sn9 2.039016 1_554
O15 Sn10 2.043143 1_654
O16 Sn2 2.004612 1_555
O16 Sn0 2.010054 1_555
O17 Sn4 2.004612 1_555
O17 Sn5 2.010054 1_555
O18 Zn1 1.968589 1_555
O18 Sn9 2.052770 1_555
O18 Sn7 2.117405 1_655
O19 Zn4 1.968589 1_555
O19 Sn14 2.052770 1_555
O19 Sn11 2.117405 1_565
O20 Zn1 1.972660 1_555
O20 Sn17 2.051422 1_555
O20 Sn11 2.121984 1_555
O21 Sn1 2.017865 1_655
O21 Sn7 2.033468 1_655
O22 Zn2 2.031874 1_555
O22 Sn16 2.184125 1_555
O22 Sn6 2.184125 1_555
O22 Sn15 2.203690 1_555
O23 Zn5 1.972660 1_555
O23 Sn1 2.051422 1_555
O23 Sn13 2.121984 1_555
O24 Zn0 1.984483 1_565
O24 Sn2 2.058604 1_555
O24 Sn8 2.101469 1_555
O25 Zn3 2.011013 1_555
O25 Sn3 2.175040 1_455
O25 Sn0 2.179081 1_555
O25 Sn12 2.227854 1_455
O26 Zn4 1.999442 1_545
O26 Sn5 2.039016 1_555
O26 Sn1 2.043143 1_545
O27 Sn8 2.094529 1_555
O27 Sn14 2.150148 1_554
O27 Sn6 2.157907 1_554
O28 Zn1 1.999442 1_455
O28 Sn0 2.039016 1_555
O28 Sn3 2.043143 1_455
O29 Sn6 2.013189 1_554
O29 Sn12 2.031564 1_455
O30 Zn4 1.984483 1_545
O30 Sn16 2.058604 1_555
O30 Sn15 2.101469 1_555
O31 Sn2 2.013189 1_555
O31 Sn11 2.031564 1_565
O32 Sn17 2.010621 1_565
O32 Sn10 2.010621 1_655
O33 Sn17 2.017865 1_454
O33 Sn12 2.033468 1_455
O34 Sn1 2.010621 1_545
O34 Sn3 2.010621 1_455
O35 Sn15 2.074758 1_555
O35 Sn3 2.162539 1_455
O35 Sn1 2.162539 1_545
O36 Zn4 1.972660 1_555
O36 Sn10 2.051422 1_555
O36 Sn7 2.121984 1_555
O37 Zn2 2.011013 1_555
O37 Sn17 2.175040 1_565
O37 Sn14 2.179081 1_555
O37 Sn11 2.227854 1_565
O38 Zn1 1.984483 1_455
O38 Sn6 2.058604 1_555
O38 Sn15 2.101469 1_555
O39 Zn5 1.984483 1_655
O39 Sn4 2.058604 1_555
O39 Sn8 2.101469 1_555
O40 Sn12 2.014200 1_555
O40 Sn9 2.017189 1_554
O41 Zn5 1.968589 1_555
O41 Sn0 2.052770 1_555
O41 Sn12 2.117405 1_455
O42 Sn15 2.094529 1_555
O42 Sn0 2.150148 1_555
O42 Sn2 2.157907 1_555
O43 Zn0 1.968589 1_555
O43 Sn5 2.052770 1_555
O43 Sn13 2.117405 1_545
O44 Sn13 2.014200 1_555
O44 Sn14 2.017189 1_554
O45 Zn0 1.972660 1_555
O45 Sn3 2.051422 1_555
O45 Sn12 2.121984 1_555
O46 Sn8 2.094529 1_555
O46 Sn9 2.150148 1_554
O46 Sn16 2.157907 1_554
O47 Sn15 2.094529 1_555
O47 Sn5 2.150148 1_555
O47 Sn4 2.157907 1_555
