# generated using pymatgen
data_Ba3(PS4)2
_symmetry_space_group_name_H-M   'P 1'
_cell_length_a   6.69969840
_cell_length_b   6.69969859
_cell_length_c   8.75186042
_cell_angle_alpha   89.99949305
_cell_angle_beta   90.00050993
_cell_angle_gamma   119.99971755
_symmetry_Int_Tables_number   1
_chemical_formula_structural   Ba3(PS4)2
_chemical_formula_sum   'Ba3 P2 S8'
_cell_volume   340.20662621
_cell_formula_units_Z   1
loop_
 _symmetry_equiv_pos_site_id
 _symmetry_equiv_pos_as_xyz
  1  'x, y, z'
loop_
 _atom_site_type_symbol
 _atom_site_label
 _atom_site_symmetry_multiplicity
 _atom_site_fract_x
 _atom_site_fract_y
 _atom_site_fract_z
 _atom_site_occupancy
  Ba  Ba0  1  0.33333360  0.66666681  0.36729549  1
  Ba  Ba1  1  0.66666633  0.33333244  0.63270433  1
  Ba  Ba2  1  -0.00000017  0.00000033  -0.00000002  1
  P  P0  1  0.66666683  0.33333329  0.21760490  1
  P  P1  1  0.33333335  0.66666685  0.78239511  1
  S  S0  1  0.82914091  0.65828430  0.30718314  1
  S  S1  1  0.17085941  0.34171584  0.69281686  1
  S  S2  1  0.65828442  0.82914080  0.69281697  1
  S  S3  1  0.33333143  0.66666893  0.01160799  1
  S  S4  1  0.66666884  0.33333117  0.98839198  1
  S  S5  1  0.34171582  0.17085926  0.30718323  1
  S  S6  1  0.82914118  0.17085894  0.30719478  1
  S  S7  1  0.17085905  0.82914104  0.69280524  1
loop_
_geom_bond_atom_site_label_1
_geom_bond_atom_site_label_2
_geom_bond_distance
_geom_bond_site_symmetry_2
Ba0 S3 3.112927 1_555
Ba0 S0 3.391253 1_555
Ba0 S5 3.391254 1_555
Ba0 S6 3.391256 1_565
Ba0 S6 3.391257 1_455
Ba0 S5 3.391263 1_565
Ba0 S0 3.391263 1_455
Ba0 S7 3.416217 1_555
Ba0 S1 3.416290 1_555
Ba0 S2 3.416290 1_555
Ba1 S4 3.112929 1_555
Ba1 S7 3.391252 1_545
Ba1 S1 3.391254 1_555
Ba1 S2 3.391258 1_555
Ba1 S2 3.391259 1_545
Ba1 S7 3.391261 1_655
Ba1 S1 3.391263 1_655
Ba1 S6 3.416215 1_555
Ba1 S5 3.416286 1_555
Ba1 S0 3.416291 1_555
Ba2 S2 3.340444 1_444
Ba2 S1 3.340445 1_554
Ba2 S0 3.340447 1_445
Ba2 S5 3.340448 1_555
Ba2 S6 3.340553 1_455
Ba2 S7 3.340557 1_544
P0 S4 2.006039 1_554
P0 S0 2.041909 1_555
P0 S5 2.041909 1_555
P0 S6 2.041917 1_555
P1 S3 2.006039 1_556
P1 S2 2.041909 1_555
P1 S1 2.041909 1_555
P1 S7 2.041916 1_555
