# generated using pymatgen
data_Cu2Te2Br2O5
_symmetry_space_group_name_H-M   'P 1'
_cell_length_a   7.98172100
_cell_length_b   7.98172100
_cell_length_c   6.42250000
_cell_angle_alpha   90.00000000
_cell_angle_beta   90.00000000
_cell_angle_gamma   90.00000000
_symmetry_Int_Tables_number   1
_chemical_formula_structural   Cu2Te2Br2O5
_chemical_formula_sum   'Cu4 Te4 Br4 O10'
_cell_volume   409.16379586
_cell_formula_units_Z   2
loop_
 _symmetry_equiv_pos_site_id
 _symmetry_equiv_pos_as_xyz
  1  'x, y, z'
loop_
 _atom_site_type_symbol
 _atom_site_label
 _atom_site_symmetry_multiplicity
 _atom_site_fract_x
 _atom_site_fract_y
 _atom_site_fract_z
 _atom_site_occupancy
  Cu  Cu0  1  0.72423400  0.53450100  0.15306500  1
  Cu  Cu1  1  0.46549900  0.72423400  0.84693500  1
  Cu  Cu2  1  0.53450100  0.27576600  0.84693500  1
  Cu  Cu3  1  0.27576600  0.46549900  0.15306500  1
  Te  Te0  1  0.63620800  0.18058400  0.36562200  1
  Te  Te1  1  0.81941600  0.63620800  0.63437800  1
  Te  Te2  1  0.18058400  0.36379200  0.63437800  1
  Te  Te3  1  0.36379200  0.81941600  0.36562200  1
  Br  Br0  1  0.91532300  0.76531500  0.18682500  1
  Br  Br1  1  0.23468500  0.91532300  0.81317500  1
  Br  Br2  1  0.76531500  0.08467700  0.81317500  1
  Br  Br3  1  0.08467700  0.23468500  0.18682500  1
  O  O0  1  0.57014600  0.33101600  0.14172400  1
  O  O1  1  0.66898400  0.57014600  0.85827600  1
  O  O2  1  0.33101600  0.42985400  0.85827600  1
  O  O3  1  0.42985400  0.66898400  0.14172400  1
  O  O4  1  0.46442500  0.24166400  0.55902300  1
  O  O5  1  0.75833600  0.46442500  0.44097700  1
  O  O6  1  0.24166400  0.53557500  0.44097700  1
  O  O7  1  0.53557500  0.75833600  0.55902300  1
  O  O8  1  0.50000000  0.00000000  0.24126300  1
  O  O9  1  0.00000000  0.50000000  0.75873700  1
loop_
_geom_bond_atom_site_label_1
_geom_bond_atom_site_label_2
_geom_bond_distance
_geom_bond_site_symmetry_2
Cu0 O5 1.950939 1_555
Cu0 O1 1.964672 1_554
Cu0 O0 2.038584 1_555
Cu0 O3 2.584261 1_555
Cu1 O7 1.950939 1_555
Cu1 O3 1.964672 1_556
Cu1 O1 2.038584 1_555
Cu1 O2 2.584261 1_555
Cu2 O4 1.950939 1_555
Cu2 O0 1.964672 1_556
Cu2 O2 2.038584 1_555
Cu2 O1 2.584261 1_555
Cu3 O6 1.950939 1_555
Cu3 O2 1.964672 1_554
Cu3 O3 2.038584 1_555
Cu3 O0 2.584261 1_555
Br0 Cu0 2.401531 1_555
Br1 Cu1 2.401531 1_555
Br2 Cu2 2.401531 1_555
Br3 Cu3 2.401531 1_555
O0 Te0 1.946158 1_555
O1 Te1 1.946158 1_555
O2 Te2 1.946158 1_555
O3 Te3 1.946158 1_555
O4 Te0 1.913248 1_555
O4 Te2 2.513387 1_555
O5 Te1 1.913248 1_555
O5 Te0 2.513387 1_555
O6 Te2 1.913248 1_555
O6 Te3 2.513387 1_555
O7 Te3 1.913248 1_555
O7 Te1 2.513387 1_555
O8 Te3 1.974187 1_545
O8 Te0 1.974187 1_555
O9 Te2 1.974187 1_555
O9 Te1 1.974187 1_455
