# generated using pymatgen
data_KMo2(PO4)3
_symmetry_space_group_name_H-M   'P 1'
_cell_length_a   9.37617600
_cell_length_b   12.50360800
_cell_length_c   18.00755600
_cell_angle_alpha   90.00000000
_cell_angle_beta   90.00000000
_cell_angle_gamma   90.00000000
_symmetry_Int_Tables_number   1
_chemical_formula_structural   KMo2(PO4)3
_chemical_formula_sum   'K8 Mo16 P24 O96'
_cell_volume   2111.13436181
_cell_formula_units_Z   8
loop_
 _symmetry_equiv_pos_site_id
 _symmetry_equiv_pos_as_xyz
  1  'x, y, z'
loop_
 _atom_site_type_symbol
 _atom_site_label
 _atom_site_symmetry_multiplicity
 _atom_site_fract_x
 _atom_site_fract_y
 _atom_site_fract_z
 _atom_site_occupancy
  K  K0  1  0.33302200  0.75000000  0.90066800  1
  K  K1  1  0.83302200  0.75000000  0.59933200  1
  K  K2  1  0.66697800  0.25000000  0.09933200  1
  K  K3  1  0.15936000  0.25000000  0.92079500  1
  K  K4  1  0.34064000  0.75000000  0.42079500  1
  K  K5  1  0.16697800  0.25000000  0.40066800  1
  K  K6  1  0.84064000  0.75000000  0.07920500  1
  K  K7  1  0.65936000  0.25000000  0.57920500  1
  Mo  Mo0  1  0.52704200  0.39967900  0.87533400  1
  Mo  Mo1  1  0.47053100  0.60056400  0.62152700  1
  Mo  Mo2  1  0.47295800  0.89967900  0.12466600  1
  Mo  Mo3  1  0.02704200  0.10032100  0.62466600  1
  Mo  Mo4  1  0.52946900  0.10056400  0.37847300  1
  Mo  Mo5  1  0.47295800  0.60032100  0.12466600  1
  Mo  Mo6  1  0.97053100  0.60056400  0.87847300  1
  Mo  Mo7  1  0.97295800  0.89967900  0.37533400  1
  Mo  Mo8  1  0.02704200  0.39967900  0.62466600  1
  Mo  Mo9  1  0.47053100  0.89943600  0.62152700  1
  Mo  Mo10  1  0.52704200  0.10032100  0.87533400  1
  Mo  Mo11  1  0.97295800  0.60032100  0.37533400  1
  Mo  Mo12  1  0.02946900  0.10056400  0.12152700  1
  Mo  Mo13  1  0.52946900  0.39943600  0.37847300  1
  Mo  Mo14  1  0.97053100  0.89943600  0.87847300  1
  Mo  Mo15  1  0.02946900  0.39943600  0.12152700  1
  P  P0  1  0.24732000  0.49868000  0.48463900  1
  P  P1  1  0.12996900  0.86864800  0.19825800  1
  P  P2  1  0.37003100  0.36864800  0.69825800  1
  P  P3  1  0.13966400  0.63002400  0.70594800  1
  P  P4  1  0.37003100  0.13135200  0.69825800  1
  P  P5  1  0.87003100  0.36864800  0.80174200  1
  P  P6  1  0.13966400  0.86997600  0.70594800  1
  P  P7  1  0.24732000  0.00132000  0.48463900  1
  P  P8  1  0.25268000  0.99868000  0.98463900  1
  P  P9  1  0.74732000  0.49868000  0.01536100  1
  P  P10  1  0.63966400  0.63002400  0.79405200  1
  P  P11  1  0.75268000  0.99868000  0.51536100  1
  P  P12  1  0.74732000  0.00132000  0.01536100  1
  P  P13  1  0.36033600  0.36997600  0.20594800  1
  P  P14  1  0.36033600  0.13002400  0.20594800  1
  P  P15  1  0.62996900  0.86864800  0.30174200  1
  P  P16  1  0.75268000  0.50132000  0.51536100  1
  P  P17  1  0.12996900  0.63135200  0.19825800  1
  P  P18  1  0.87003100  0.13135200  0.80174200  1
  P  P19  1  0.25268000  0.50132000  0.98463900  1
  P  P20  1  0.63966400  0.86997600  0.79405200  1
  P  P21  1  0.86033600  0.36997600  0.29405200  1
  P  P22  1  0.62996900  0.63135200  0.30174200  1
  P  P23  1  0.86033600  0.13002400  0.29405200  1
  O  O0  1  0.83432300  0.43135100  0.57213900  1
  O  O1  1  0.54578500  0.56244100  0.84572400  1
  O  O2  1  0.45421500  0.06244100  0.15427600  1
  O  O3  1  0.71015700  0.12252900  0.81258600  1
  O  O4  1  0.85651600  0.57253900  0.47116900  1
  O  O5  1  0.59505500  0.61953800  0.22030700  1
  O  O6  1  0.01509100  0.25000000  0.60607700  1
  O  O7  1  0.65234300  0.92046200  0.55657100  1
  O  O8  1  0.28984300  0.62252900  0.18741400  1
  O  O9  1  0.29957000  0.88075500  0.69386200  1
  O  O10  1  0.61049300  0.88118100  0.71143500  1
  O  O11  1  0.33432300  0.43135100  0.92786100  1
  O  O12  1  0.46028100  0.43752000  0.64529000  1
  O  O13  1  0.02308000  0.25000000  0.10473400  1
  O  O14  1  0.95421500  0.06244100  0.34572400  1
  O  O15  1  0.11049300  0.61881900  0.78856500  1
  O  O16  1  0.33296100  0.92112000  0.53232800  1
  O  O17  1  0.48490900  0.75000000  0.10607700  1
  O  O18  1  0.98490900  0.75000000  0.39392300  1
  O  O19  1  0.14348400  0.07253900  0.52883100  1
  O  O20  1  0.11049300  0.88118100  0.78856500  1
  O  O21  1  0.58039900  0.75000000  0.32867500  1
  O  O22  1  0.64348400  0.07253900  0.97116900  1
  O  O23  1  0.83296100  0.57888000  0.96767200  1
  O  O24  1  0.84765700  0.07953800  0.05657100  1
  O  O25  1  0.40831100  0.25000000  0.18024400  1
  O  O26  1  0.83296100  0.92112000  0.96767200  1
  O  O27  1  0.45421500  0.43755900  0.15427600  1
  O  O28  1  0.28984300  0.87747100  0.18741400  1
  O  O29  1  0.09505500  0.88046200  0.27969300  1
  O  O30  1  0.47692000  0.75000000  0.60473400  1
  O  O31  1  0.16567700  0.93135100  0.42786100  1
  O  O32  1  0.03971900  0.93752000  0.14529000  1
  O  O33  1  0.59168900  0.75000000  0.81975600  1
  O  O34  1  0.70043000  0.11924500  0.30613800  1
  O  O35  1  0.53971900  0.56248000  0.35471000  1
  O  O36  1  0.78984300  0.87747100  0.31258600  1
  O  O37  1  0.35651600  0.92746100  0.02883100  1
  O  O38  1  0.04578500  0.56244100  0.65427600  1
  O  O39  1  0.33296100  0.57888000  0.53232800  1
  O  O40  1  0.79957000  0.88075500  0.80613800  1
  O  O41  1  0.38950700  0.38118100  0.28856500  1
  O  O42  1  0.15234300  0.57953800  0.94342900  1
  O  O43  1  0.52308000  0.25000000  0.39526600  1
  O  O44  1  0.03971900  0.56248000  0.14529000  1
  O  O45  1  0.16703900  0.07888000  0.03232800  1
  O  O46  1  0.78984300  0.62252900  0.31258600  1
  O  O47  1  0.16703900  0.42112000  0.03232800  1
  O  O48  1  0.34765700  0.42046200  0.44342900  1
  O  O49  1  0.66567700  0.56864900  0.07213900  1
  O  O50  1  0.96028100  0.06248000  0.85471000  1
  O  O51  1  0.91960100  0.25000000  0.82867500  1
  O  O52  1  0.85651600  0.92746100  0.47116900  1
  O  O53  1  0.16567700  0.56864900  0.42786100  1
  O  O54  1  0.53971900  0.93752000  0.35471000  1
  O  O55  1  0.96028100  0.43752000  0.85471000  1
  O  O56  1  0.35651600  0.57253900  0.02883100  1
  O  O57  1  0.70043000  0.38075500  0.30613800  1
  O  O58  1  0.04578500  0.93755900  0.65427600  1
  O  O59  1  0.88950700  0.11881900  0.21143500  1
  O  O60  1  0.33432300  0.06864900  0.92786100  1
  O  O61  1  0.08039900  0.75000000  0.17132500  1
  O  O62  1  0.34765700  0.07953800  0.44342900  1
  O  O63  1  0.88950700  0.38118100  0.21143500  1
  O  O64  1  0.83432300  0.06864900  0.57213900  1
  O  O65  1  0.46028100  0.06248000  0.64529000  1
  O  O66  1  0.54578500  0.93755900  0.84572400  1
  O  O67  1  0.21015700  0.37747100  0.68741400  1
  O  O68  1  0.84765700  0.42046200  0.05657100  1
  O  O69  1  0.51509100  0.25000000  0.89392300  1
  O  O70  1  0.29957000  0.61924500  0.69386200  1
  O  O71  1  0.15234300  0.92046200  0.94342900  1
  O  O72  1  0.66703900  0.07888000  0.46767200  1
  O  O73  1  0.90494500  0.38046200  0.72030700  1
  O  O74  1  0.59505500  0.88046200  0.22030700  1
  O  O75  1  0.61049300  0.61881900  0.71143500  1
  O  O76  1  0.71015700  0.37747100  0.81258600  1
  O  O77  1  0.90494500  0.11953800  0.72030700  1
  O  O78  1  0.65234300  0.57953800  0.55657100  1
  O  O79  1  0.97692000  0.75000000  0.89526600  1
  O  O80  1  0.14348400  0.42746100  0.52883100  1
  O  O81  1  0.21015700  0.12252900  0.68741400  1
  O  O82  1  0.66703900  0.42112000  0.46767200  1
  O  O83  1  0.79957000  0.61924500  0.80613800  1
  O  O84  1  0.40494500  0.38046200  0.77969300  1
  O  O85  1  0.95421500  0.43755900  0.34572400  1
  O  O86  1  0.09505500  0.61953800  0.27969300  1
  O  O87  1  0.64348400  0.42746100  0.97116900  1
  O  O88  1  0.66567700  0.93135100  0.07213900  1
  O  O89  1  0.38950700  0.11881900  0.28856500  1
  O  O90  1  0.90831100  0.25000000  0.31975600  1
  O  O91  1  0.09168900  0.75000000  0.68024400  1
  O  O92  1  0.40494500  0.11953800  0.77969300  1
  O  O93  1  0.20043000  0.38075500  0.19386200  1
  O  O94  1  0.20043000  0.11924500  0.19386200  1
  O  O95  1  0.41960100  0.25000000  0.67132500  1
loop_
_geom_bond_atom_site_label_1
_geom_bond_atom_site_label_2
_geom_bond_distance
_geom_bond_site_symmetry_2
K0 O33 2.829319 1_555
K0 O71 2.829427 1_555
K0 O42 2.829427 1_555
K0 O37 3.209123 1_556
K0 O56 3.209123 1_556
K0 O1 3.233939 1_555
K0 O66 3.233939 1_555
K0 O20 3.334500 1_555
K0 O15 3.334500 1_555
K0 O79 3.340292 1_455
K1 O91 2.829319 1_655
K1 O78 2.829427 1_555
K1 O7 2.829427 1_555
K1 O52 3.209123 1_555
K1 O4 3.209123 1_555
K1 O38 3.233939 1_655
K1 O58 3.233939 1_655
K1 O75 3.334500 1_555
K1 O10 3.334500 1_555
K1 O30 3.340292 1_555
K2 O25 2.829319 1_555
K2 O24 2.829427 1_555
K2 O68 2.829427 1_555
K2 O22 3.209123 1_554
K2 O87 3.209123 1_554
K2 O27 3.233939 1_555
K2 O2 3.233939 1_555
K2 O59 3.334500 1_555
K2 O63 3.334500 1_555
K2 O13 3.340292 1_655
K3 O51 2.793816 1_455
K3 O60 2.801629 1_555
K3 O11 2.801629 1_555
K3 O47 2.935467 1_556
K3 O45 2.935467 1_556
K3 O50 3.224573 1_455
K3 O55 3.224573 1_455
K4 O21 2.793816 1_555
K4 O31 2.801629 1_555
K4 O53 2.801629 1_555
K4 O16 2.935467 1_555
K4 O39 2.935467 1_555
K4 O35 3.224573 1_555
K4 O54 3.224573 1_555
K5 O90 2.829319 1_455
K5 O62 2.829427 1_555
K5 O48 2.829427 1_555
K5 O19 3.209123 1_555
K5 O80 3.209123 1_555
K5 O85 3.233939 1_455
K5 O14 3.233939 1_455
K5 O89 3.334500 1_555
K5 O41 3.334500 1_555
K5 O43 3.340292 1_555
K6 O61 2.793816 1_655
K6 O88 2.801629 1_555
K6 O49 2.801629 1_555
K6 O23 2.935467 1_554
K6 O26 2.935467 1_554
K6 O32 3.224573 1_655
K6 O44 3.224573 1_655
K7 O95 2.793816 1_555
K7 O0 2.801629 1_555
K7 O64 2.801629 1_555
K7 O82 2.935467 1_555
K7 O72 2.935467 1_555
K7 O65 3.224573 1_555
K7 O12 3.224573 1_555
Mo0 O69 1.904527 1_555
Mo0 O87 2.071444 1_555
Mo0 O76 2.074048 1_555
Mo0 O11 2.077656 1_555
Mo0 O84 2.081944 1_555
Mo0 O1 2.111130 1_555
Mo1 O30 1.893749 1_555
Mo1 O39 2.077826 1_555
Mo1 O70 2.078641 1_555
Mo1 O78 2.084063 1_555
Mo1 O12 2.085280 1_555
Mo1 O75 2.096542 1_555
Mo2 O17 1.904527 1_555
Mo2 O37 2.071444 1_555
Mo2 O28 2.074048 1_555
Mo2 O88 2.077656 1_555
Mo2 O74 2.081944 1_555
Mo2 O2 2.111130 1_565
Mo3 O6 1.904527 1_555
Mo3 O19 2.071444 1_555
Mo3 O81 2.074048 1_555
Mo3 O64 2.077656 1_455
Mo3 O77 2.081944 1_455
Mo3 O58 2.111130 1_545
Mo4 O43 1.893749 1_555
Mo4 O72 2.077826 1_555
Mo4 O34 2.078641 1_555
Mo4 O62 2.084063 1_555
Mo4 O54 2.085280 1_545
Mo4 O89 2.096542 1_555
Mo5 O17 1.904527 1_555
Mo5 O56 2.071444 1_555
Mo5 O8 2.074048 1_555
Mo5 O49 2.077656 1_555
Mo5 O5 2.081944 1_555
Mo5 O27 2.111130 1_555
Mo6 O79 1.893749 1_555
Mo6 O23 2.077826 1_555
Mo6 O83 2.078641 1_555
Mo6 O42 2.084063 1_655
Mo6 O55 2.085280 1_555
Mo6 O15 2.096542 1_655
Mo7 O18 1.904527 1_555
Mo7 O52 2.071444 1_555
Mo7 O36 2.074048 1_555
Mo7 O31 2.077656 1_655
Mo7 O29 2.081944 1_655
Mo7 O14 2.111130 1_565
Mo8 O6 1.904527 1_555
Mo8 O80 2.071444 1_555
Mo8 O67 2.074048 1_555
Mo8 O0 2.077656 1_455
Mo8 O73 2.081944 1_455
Mo8 O38 2.111130 1_555
Mo9 O30 1.893749 1_555
Mo9 O16 2.077826 1_555
Mo9 O9 2.078641 1_555
Mo9 O7 2.084063 1_555
Mo9 O65 2.085280 1_565
Mo9 O10 2.096542 1_555
Mo10 O69 1.904527 1_555
Mo10 O22 2.071444 1_555
Mo10 O3 2.074048 1_555
Mo10 O60 2.077656 1_555
Mo10 O92 2.081944 1_555
Mo10 O66 2.111130 1_545
Mo11 O18 1.904527 1_555
Mo11 O4 2.071444 1_555
Mo11 O46 2.074048 1_555
Mo11 O53 2.077656 1_655
Mo11 O86 2.081944 1_655
Mo11 O85 2.111130 1_555
Mo12 O13 1.893749 1_555
Mo12 O45 2.077826 1_555
Mo12 O94 2.078641 1_555
Mo12 O24 2.084063 1_455
Mo12 O32 2.085280 1_545
Mo12 O59 2.096542 1_455
Mo13 O43 1.893749 1_555
Mo13 O82 2.077826 1_555
Mo13 O57 2.078641 1_555
Mo13 O48 2.084063 1_555
Mo13 O35 2.085280 1_555
Mo13 O41 2.096542 1_555
Mo14 O79 1.893749 1_555
Mo14 O26 2.077826 1_555
Mo14 O40 2.078641 1_555
Mo14 O71 2.084063 1_655
Mo14 O50 2.085280 1_565
Mo14 O20 2.096542 1_655
Mo15 O13 1.893749 1_555
Mo15 O47 2.077826 1_555
Mo15 O93 2.078641 1_555
Mo15 O68 2.084063 1_455
Mo15 O44 2.085280 1_555
Mo15 O63 2.096542 1_455
O0 P16 1.548143 1_555
O1 P10 1.534497 1_555
O2 P14 1.534497 1_555
O3 P18 1.515692 1_555
O4 P16 1.540821 1_555
O5 P22 1.509784 1_555
O7 P11 1.546693 1_555
O8 P17 1.515692 1_555
O9 P6 1.521004 1_555
O10 P20 1.519138 1_555
O11 P19 1.548143 1_555
O12 P2 1.538640 1_555
O14 P23 1.534497 1_555
O15 P3 1.519138 1_555
O16 P7 1.545265 1_565
O19 P7 1.540821 1_555
O20 P6 1.519138 1_555
O21 P15 1.628526 1_555
O21 P22 1.628526 1_555
O22 P12 1.540821 1_556
O23 P9 1.545265 1_556
O24 P12 1.546693 1_555
O25 P14 1.633090 1_555
O25 P13 1.633090 1_555
O26 P12 1.545265 1_566
O27 P13 1.534497 1_555
O28 P1 1.515692 1_555
O29 P1 1.509784 1_555
O31 P7 1.548143 1_565
O32 P1 1.538640 1_555
O33 P20 1.633090 1_555
O33 P10 1.633090 1_555
O34 P23 1.521004 1_555
O35 P22 1.538640 1_555
O36 P15 1.515692 1_555
O37 P8 1.540821 1_554
O38 P3 1.534497 1_555
O39 P0 1.545265 1_555
O40 P20 1.521004 1_555
O41 P13 1.519138 1_555
O42 P19 1.546693 1_555
O44 P17 1.538640 1_555
O45 P8 1.545265 1_544
O46 P22 1.515692 1_555
O47 P19 1.545265 1_554
O48 P0 1.546693 1_555
O49 P9 1.548143 1_555
O50 P18 1.538640 1_555
O51 P5 1.628526 1_555
O51 P18 1.628526 1_555
O52 P11 1.540821 1_555
O53 P0 1.548143 1_555
O54 P15 1.538640 1_555
O55 P5 1.538640 1_555
O56 P19 1.540821 1_554
O57 P21 1.521004 1_555
O58 P6 1.534497 1_555
O59 P23 1.519138 1_555
O60 P8 1.548143 1_545
O61 P17 1.628526 1_555
O61 P1 1.628526 1_555
O62 P7 1.546693 1_555
O63 P21 1.519138 1_555
O64 P11 1.548143 1_545
O65 P4 1.538640 1_555
O66 P20 1.534497 1_555
O67 P2 1.515692 1_555
O68 P9 1.546693 1_555
O70 P3 1.521004 1_555
O71 P8 1.546693 1_555
O72 P11 1.545265 1_545
O73 P5 1.509784 1_555
O74 P15 1.509784 1_555
O75 P10 1.519138 1_555
O76 P5 1.515692 1_555
O77 P18 1.509784 1_555
O78 P16 1.546693 1_555
O80 P0 1.540821 1_555
O81 P4 1.515692 1_555
O82 P16 1.545265 1_555
O83 P10 1.521004 1_555
O84 P2 1.509784 1_555
O85 P21 1.534497 1_555
O86 P17 1.509784 1_555
O87 P9 1.540821 1_556
O88 P12 1.548143 1_565
O89 P14 1.519138 1_555
O90 P23 1.633090 1_555
O90 P21 1.633090 1_555
O91 P3 1.633090 1_555
O91 P6 1.633090 1_555
O92 P4 1.509784 1_555
O93 P13 1.521004 1_555
O94 P14 1.521004 1_555
O95 P2 1.628526 1_555
O95 P4 1.628526 1_555
