# generated using pymatgen
data_Cs2CoSiO4
_symmetry_space_group_name_H-M   'P 1'
_cell_length_a   7.06261948
_cell_length_b   10.91877394
_cell_length_c   8.23289100
_cell_angle_alpha   90.00013151
_cell_angle_beta   90.00016388
_cell_angle_gamma   78.62758452
_symmetry_Int_Tables_number   1
_chemical_formula_structural   Cs2CoSiO4
_chemical_formula_sum   'Cs8 Co4 Si4 O16'
_cell_volume   622.41548265
_cell_formula_units_Z   4
loop_
 _symmetry_equiv_pos_site_id
 _symmetry_equiv_pos_as_xyz
  1  'x, y, z'
loop_
 _atom_site_type_symbol
 _atom_site_label
 _atom_site_symmetry_multiplicity
 _atom_site_fract_x
 _atom_site_fract_y
 _atom_site_fract_z
 _atom_site_occupancy
  Cs  Cs0  1  0.88509500  0.96170100  0.27341100  1
  Cs  Cs1  1  0.38510100  0.46169900  0.27340700  1
  Cs  Cs2  1  0.11490000  0.03830200  0.77340800  1
  Cs  Cs3  1  0.61490300  0.53830000  0.77340800  1
  Cs  Cs4  1  0.60839400  0.20277600  0.91702800  1
  Cs  Cs5  1  0.10838900  0.70277500  0.91702500  1
  Cs  Cs6  1  0.39160400  0.79722700  0.41702600  1
  Cs  Cs7  1  0.89161000  0.29722400  0.41702900  1
  Co  Co0  1  0.81043400  0.60348700  0.19404900  1
  Co  Co1  1  0.68957000  0.89651000  0.69405200  1
  Co  Co2  1  0.31043000  0.10348000  0.19405500  1
  Co  Co3  1  0.18957000  0.39652200  0.69405800  1
  Si  Si0  1  0.45207200  0.15068800  0.47887900  1
  Si  Si1  1  0.95207200  0.65068500  0.47888000  1
  Si  Si2  1  0.54792800  0.84931500  0.97888200  1
  Si  Si3  1  0.04793000  0.34931100  0.97888200  1
  O  O0  1  0.53016800  0.17670200  0.29277700  1
  O  O1  1  0.03016900  0.67669600  0.29277500  1
  O  O2  1  0.46983200  0.82330100  0.79277600  1
  O  O3  1  0.96983300  0.32329800  0.79277800  1
  O  O4  1  0.26086000  0.08696400  0.43757700  1
  O  O5  1  0.76086000  0.58696600  0.43758200  1
  O  O6  1  0.73913800  0.91303600  0.93758300  1
  O  O7  1  0.23914300  0.41303300  0.93758000  1
  O  O8  1  0.62271900  0.05551600  0.57989600  1
  O  O9  1  0.12270900  0.55551200  0.57989800  1
  O  O10  1  0.37729400  0.94448900  0.07989700  1
  O  O11  1  0.87728100  0.44448500  0.07989500  1
  O  O12  1  0.39466200  0.28360900  0.57987300  1
  O  O13  1  0.89466200  0.78360700  0.57987500  1
  O  O14  1  0.60534000  0.71639600  0.07987700  1
  O  O15  1  0.10533400  0.21639100  0.07987600  1
loop_
_geom_bond_atom_site_label_1
_geom_bond_atom_site_label_2
_geom_bond_distance
_geom_bond_site_symmetry_2
Cs0 O6 3.034021 1_554
Cs0 O0 3.082092 1_565
Cs0 O1 3.082490 1_655
Cs0 O13 3.178061 1_555
Cs0 O8 3.178267 1_565
Cs0 O4 3.488828 1_665
Cs1 O7 3.034018 1_554
Cs1 O1 3.082090 1_555
Cs1 O0 3.082403 1_555
Cs1 O12 3.178052 1_555
Cs1 O9 3.178360 1_555
Cs1 O5 3.488845 1_555
Cs2 O4 3.034051 1_555
Cs2 O2 3.082116 1_545
Cs2 O3 3.082392 1_455
Cs2 O15 3.178048 1_556
Cs2 O10 3.178350 1_546
Cs2 O6 3.488865 1_445
Cs3 O5 3.034016 1_555
Cs3 O3 3.082114 1_555
Cs3 O2 3.082447 1_555
Cs3 O14 3.178103 1_556
Cs3 O11 3.178283 1_556
Cs3 O7 3.488850 1_555
Cs4 O6 3.120519 1_545
Cs4 O7 3.120739 1_555
Cs4 O0 3.165134 1_556
Cs4 O8 3.199249 1_555
Cs4 O12 3.199533 1_555
Cs4 O3 3.258718 1_555
Cs5 O7 3.120547 1_555
Cs5 O6 3.120767 1_455
Cs5 O1 3.165141 1_556
Cs5 O9 3.199232 1_555
Cs5 O13 3.199480 1_455
Cs5 O2 3.258765 1_555
Cs6 O4 3.120486 1_565
Cs6 O5 3.120790 1_555
Cs6 O2 3.165141 1_555
Cs6 O10 3.199252 1_555
Cs6 O14 3.199502 1_555
Cs6 O1 3.258745 1_555
Cs7 O5 3.120543 1_555
Cs7 O4 3.120751 1_655
Cs7 O3 3.165126 1_555
Cs7 O11 3.199273 1_555
Cs7 O15 3.199499 1_655
Cs7 O0 3.258735 1_555
Co0 O11 1.948581 1_555
Co0 O14 1.948667 1_555
Co0 O1 2.048715 1_655
Co0 O5 2.049387 1_555
Co1 O8 1.948630 1_565
Co1 O13 1.948648 1_555
Co1 O2 2.048731 1_555
Co1 O6 2.049367 1_555
Co2 O10 1.948504 1_545
Co2 O15 1.948714 1_555
Co2 O0 2.048796 1_555
Co2 O4 2.049286 1_555
Co3 O9 1.948504 1_555
Co3 O12 1.948733 1_555
Co3 O3 2.048800 1_455
Co3 O7 2.049281 1_555
O0 Si0 1.671586 1_555
O1 Si1 1.671603 1_455
O2 Si2 1.671612 1_555
O3 Si3 1.671597 1_655
O4 Si0 1.671538 1_555
O5 Si1 1.671500 1_555
O6 Si2 1.671504 1_555
O7 Si3 1.671534 1_555
O8 Si0 1.652315 1_555
O9 Si1 1.652282 1_455
O10 Si2 1.652263 1_554
O11 Si3 1.652318 1_654
O12 Si0 1.652284 1_555
O13 Si1 1.652297 1_555
O14 Si2 1.652273 1_554
O15 Si3 1.652274 1_554
