# generated using pymatgen
data_ErAgSn
_symmetry_space_group_name_H-M   'P 1'
_cell_length_a   4.67277867
_cell_length_b   4.67277989
_cell_length_c   7.35590051
_cell_angle_alpha   90.00000000
_cell_angle_beta   90.00000000
_cell_angle_gamma   120.00000584
_symmetry_Int_Tables_number   1
_chemical_formula_structural   ErAgSn
_chemical_formula_sum   'Er2 Ag2 Sn2'
_cell_volume   139.09675167
_cell_formula_units_Z   2
loop_
 _symmetry_equiv_pos_site_id
 _symmetry_equiv_pos_as_xyz
  1  'x, y, z'
loop_
 _atom_site_type_symbol
 _atom_site_label
 _atom_site_symmetry_multiplicity
 _atom_site_fract_x
 _atom_site_fract_y
 _atom_site_fract_z
 _atom_site_occupancy
  Er  Er0  1  -0.00000000  -0.00000000  0.24465018  1
  Er  Er1  1  -0.00000000  -0.00000000  0.74465018  1
  Ag  Ag0  1  0.33333300  0.66666700  0.06363343  1
  Ag  Ag1  1  0.66666700  0.33333300  0.56363343  1
  Sn  Sn0  1  0.33333300  0.66666700  0.46471639  1
  Sn  Sn1  1  0.66666700  0.33333300  0.96471639  1
loop_
_geom_bond_atom_site_label_1
_geom_bond_atom_site_label_2
_geom_bond_distance
_geom_bond_site_symmetry_2
Er0 Sn0 3.146226 1_545
Er0 Sn0 3.146229 1_445
Er0 Sn0 3.146230 1_555
Er0 Sn1 3.393882 1_454
Er0 Sn1 3.393885 1_554
Er0 Sn1 3.393885 1_444
Er0 Er1 3.677950 1_554
Er0 Er1 3.677950 1_555
Er1 Sn1 3.146226 1_455
Er1 Sn1 3.146229 1_555
Er1 Sn1 3.146230 1_445
Er1 Sn0 3.393882 1_545
Er1 Sn0 3.393885 1_445
Er1 Sn0 3.393885 1_555
Ag0 Sn1 2.794228 1_454
Ag0 Sn1 2.794228 1_564
Ag0 Sn1 2.794236 1_554
Ag0 Sn0 2.950326 1_555
Ag0 Er0 3.008534 1_565
Ag0 Er0 3.008537 1_665
Ag0 Er0 3.008538 1_555
Ag0 Er1 3.575459 1_564
Ag0 Er1 3.575462 1_664
Ag0 Er1 3.575463 1_554
Ag1 Sn0 2.794228 1_655
Ag1 Sn0 2.794228 1_545
Ag1 Sn0 2.794236 1_555
Ag1 Sn1 2.950326 1_555
Ag1 Er1 3.008534 1_655
Ag1 Er1 3.008537 1_555
Ag1 Er1 3.008538 1_665
Ag1 Er0 3.575459 1_655
Ag1 Er0 3.575462 1_555
Ag1 Er0 3.575463 1_665
