# generated using pymatgen
data_BaCaCo4O7
_symmetry_space_group_name_H-M   'P 1'
_cell_length_a   6.40024900
_cell_length_b   10.30109600
_cell_length_c   11.10306300
_cell_angle_alpha   90.00000000
_cell_angle_beta   90.00000000
_cell_angle_gamma   90.00000000
_symmetry_Int_Tables_number   1
_chemical_formula_structural   BaCaCo4O7
_chemical_formula_sum   'Ba4 Ca4 Co16 O28'
_cell_volume   732.02027334
_cell_formula_units_Z   4
loop_
 _symmetry_equiv_pos_site_id
 _symmetry_equiv_pos_as_xyz
  1  'x, y, z'
loop_
 _atom_site_type_symbol
 _atom_site_label
 _atom_site_symmetry_multiplicity
 _atom_site_fract_x
 _atom_site_fract_y
 _atom_site_fract_z
 _atom_site_occupancy
  Ba  Ba0  1  0.50503100  0.99698300  0.16432900  1
  Ba  Ba1  1  0.00503100  0.49698300  0.33567100  1
  Ba  Ba2  1  0.99496900  0.99698300  0.66432900  1
  Ba  Ba3  1  0.49496900  0.49698300  0.83567100  1
  Ca  Ca0  1  0.50481600  0.12679200  0.82603300  1
  Ca  Ca1  1  0.49518400  0.62679200  0.17396700  1
  Ca  Ca2  1  0.99518400  0.12679200  0.32603300  1
  Ca  Ca3  1  0.00481600  0.62679200  0.67396700  1
  Co  Co0  1  0.23772200  0.81854900  0.42107600  1
  Co  Co1  1  0.73772200  0.31854900  0.07892400  1
  Co  Co2  1  0.99809100  0.81154000  0.17386700  1
  Co  Co3  1  0.25055100  0.30634200  0.58563200  1
  Co  Co4  1  0.74944900  0.80634200  0.41436800  1
  Co  Co5  1  0.24944900  0.30634200  0.08563200  1
  Co  Co6  1  0.50190900  0.81154000  0.67386700  1
  Co  Co7  1  0.49689900  0.55410600  0.50220500  1
  Co  Co8  1  0.49809100  0.31154000  0.32613300  1
  Co  Co9  1  0.99689900  0.05410600  0.99779500  1
  Co  Co10  1  0.76227800  0.31854900  0.57892400  1
  Co  Co11  1  0.00310100  0.55410600  0.00220500  1
  Co  Co12  1  0.00190900  0.31154000  0.82613300  1
  Co  Co13  1  0.50310100  0.05410600  0.49779500  1
  Co  Co14  1  0.75055100  0.80634200  0.91436800  1
  Co  Co15  1  0.26227800  0.81854900  0.92107600  1
  O  O0  1  0.48793500  0.74472400  0.50167800  1
  O  O1  1  0.06935800  0.49629800  0.84645900  1
  O  O2  1  0.43064200  0.49629800  0.34645900  1
  O  O3  1  0.93064200  0.99629800  0.15354100  1
  O  O4  1  0.21108100  0.21616100  0.73659900  1
  O  O5  1  0.98793500  0.24472400  0.99832200  1
  O  O6  1  0.27083600  0.79174300  0.25919100  1
  O  O7  1  0.77083600  0.29174300  0.24080900  1
  O  O8  1  0.71571600  0.99688300  0.39865700  1
  O  O9  1  0.28891900  0.21616100  0.23659900  1
  O  O10  1  0.71108100  0.71616100  0.76340100  1
  O  O11  1  0.01206500  0.74472400  0.00167800  1
  O  O12  1  0.76486600  0.50430000  0.55020500  1
  O  O13  1  0.99244900  0.26938000  0.49236700  1
  O  O14  1  0.22916400  0.79174300  0.75919100  1
  O  O15  1  0.00755100  0.76938000  0.50763300  1
  O  O16  1  0.78428400  0.99688300  0.89865700  1
  O  O17  1  0.26486600  0.00430000  0.94979500  1
  O  O18  1  0.50755100  0.26938000  0.99236700  1
  O  O19  1  0.23513400  0.00430000  0.44979500  1
  O  O20  1  0.56935800  0.99629800  0.65354100  1
  O  O21  1  0.21571600  0.49688300  0.10134300  1
  O  O22  1  0.51206500  0.24472400  0.49832200  1
  O  O23  1  0.72916400  0.29174300  0.74080900  1
  O  O24  1  0.28428400  0.49688300  0.60134300  1
  O  O25  1  0.73513400  0.50430000  0.05020500  1
  O  O26  1  0.78891900  0.71616100  0.26340100  1
  O  O27  1  0.49244900  0.76938000  0.00763300  1
loop_
_geom_bond_atom_site_label_1
_geom_bond_atom_site_label_2
_geom_bond_distance
_geom_bond_site_symmetry_2
Ba0 O3 2.726658 1_555
Ba0 O9 2.766691 1_565
Ba0 O6 2.797482 1_555
Ba0 O17 2.835887 1_564
Ba0 O27 2.920680 1_555
Ba0 O8 2.930432 1_555
Ba1 O2 2.726658 1_555
Ba1 O26 2.766691 1_455
Ba1 O7 2.797482 1_455
Ba1 O12 2.835887 1_455
Ba1 O13 2.920680 1_455
Ba1 O21 2.930432 1_555
Ba2 O20 2.726658 1_555
Ba2 O4 2.766691 1_665
Ba2 O14 2.797482 1_655
Ba2 O19 2.835887 1_665
Ba2 O15 2.920680 1_655
Ba2 O16 2.930432 1_555
Ba3 O1 2.726658 1_555
Ba3 O10 2.766691 1_555
Ba3 O23 2.797482 1_555
Ba3 O25 2.835887 1_556
Ba3 O18 2.920680 1_555
Ba3 O24 2.930432 1_555
Ca0 O4 2.316862 1_555
Ca0 O18 2.359756 1_555
Ca0 O16 2.374934 1_545
Ca0 O20 2.376036 1_545
Ca0 O17 2.416380 1_555
Ca0 O23 2.417508 1_555
Ca1 O26 2.316862 1_555
Ca1 O27 2.359756 1_555
Ca1 O21 2.374934 1_555
Ca1 O2 2.376036 1_555
Ca1 O25 2.416380 1_555
Ca1 O6 2.417508 1_555
Ca2 O9 2.316862 1_655
Ca2 O13 2.359756 1_555
Ca2 O8 2.374934 1_545
Ca2 O3 2.376036 1_545
Ca2 O19 2.416380 1_655
Ca2 O7 2.417508 1_555
Ca3 O10 2.316862 1_455
Ca3 O15 2.359756 1_555
Ca3 O24 2.374934 1_555
Ca3 O1 2.376036 1_555
Ca3 O12 2.416380 1_455
Ca3 O14 2.417508 1_555
Co0 O15 1.830389 1_555
Co0 O6 1.830815 1_555
Co0 O19 1.939897 1_565
Co0 O0 1.985898 1_555
Co1 O18 1.830389 1_554
Co1 O7 1.830815 1_555
Co1 O25 1.939897 1_555
Co1 O5 1.985898 1_554
Co2 O26 1.935412 1_555
Co2 O3 1.964560 1_555
Co2 O6 1.996577 1_655
Co2 O11 2.033913 1_655
Co3 O4 1.932983 1_555
Co3 O24 1.982310 1_555
Co3 O13 1.986483 1_455
Co3 O22 2.035705 1_555
Co4 O26 1.932983 1_555
Co4 O8 1.982310 1_555
Co4 O15 1.986483 1_655
Co4 O0 2.035705 1_555
Co5 O9 1.932983 1_555
Co5 O21 1.982310 1_555
Co5 O18 1.986483 1_554
Co5 O5 2.035705 1_454
Co6 O10 1.935412 1_555
Co6 O20 1.964560 1_555
Co6 O14 1.996577 1_555
Co6 O0 2.033913 1_555
Co7 O24 1.846843 1_555
Co7 O12 1.867799 1_555
Co7 O2 1.877435 1_555
Co7 O0 1.964421 1_555
Co8 O9 1.935412 1_555
Co8 O2 1.964560 1_555
Co8 O7 1.996577 1_555
Co8 O22 2.033913 1_555
Co9 O16 1.846843 1_545
Co9 O17 1.867799 1_655
Co9 O3 1.877435 1_546
Co9 O5 1.964421 1_555
Co10 O13 1.830389 1_555
Co10 O23 1.830815 1_555
Co10 O12 1.939897 1_555
Co10 O22 1.985898 1_555
Co11 O21 1.846843 1_555
Co11 O25 1.867799 1_455
Co11 O1 1.877435 1_554
Co11 O11 1.964421 1_555
Co12 O4 1.935412 1_555
Co12 O1 1.964560 1_555
Co12 O23 1.996577 1_455
Co12 O5 2.033913 1_455
Co13 O8 1.846843 1_545
Co13 O19 1.867799 1_555
Co13 O20 1.877435 1_545
Co13 O22 1.964421 1_555
Co14 O10 1.932983 1_555
Co14 O16 1.982310 1_555
Co14 O27 1.986483 1_556
Co14 O11 2.035705 1_656
Co15 O27 1.830389 1_556
Co15 O14 1.830815 1_555
Co15 O17 1.939897 1_565
Co15 O11 1.985898 1_556
