# generated using pymatgen
data_ZnB2(CN)8
_symmetry_space_group_name_H-M   'P 1'
_cell_length_a   7.57589653
_cell_length_b   7.57589653
_cell_length_c   6.10809400
_cell_angle_alpha   90.00000000
_cell_angle_beta   90.00000000
_cell_angle_gamma   120.00000460
_symmetry_Int_Tables_number   1
_chemical_formula_structural   ZnB2(CN)8
_chemical_formula_sum   'Zn1 B2 C8 N8'
_cell_volume   303.60183503
_cell_formula_units_Z   1
loop_
 _symmetry_equiv_pos_site_id
 _symmetry_equiv_pos_as_xyz
  1  'x, y, z'
loop_
 _atom_site_type_symbol
 _atom_site_label
 _atom_site_symmetry_multiplicity
 _atom_site_fract_x
 _atom_site_fract_y
 _atom_site_fract_z
 _atom_site_occupancy
  Zn  Zn0  1  0.00000000  0.00000000  0.50000000  1
  B  B0  1  0.66666700  0.33333300  0.14910900  1
  B  B1  1  0.33333300  0.66666700  0.85089100  1
  C  C0  1  0.66666700  0.33333300  0.88965800  1
  C  C1  1  0.78057300  0.21942700  0.23804300  1
  C  C2  1  0.43885400  0.21942700  0.23804300  1
  C  C3  1  0.78057300  0.56114600  0.23804300  1
  C  C4  1  0.56114600  0.78057300  0.76195700  1
  C  C5  1  0.21942700  0.43885400  0.76195700  1
  C  C6  1  0.21942700  0.78057300  0.76195700  1
  C  C7  1  0.33333300  0.66666700  0.11034200  1
  N  N0  1  0.66666700  0.33333300  0.69891100  1
  N  N1  1  0.27264200  0.13632100  0.30307900  1
  N  N2  1  0.72735800  0.86367900  0.69692100  1
  N  N3  1  0.13632100  0.86367900  0.69692100  1
  N  N4  1  0.33333300  0.66666700  0.30108900  1
  N  N5  1  0.13632100  0.27264200  0.69692100  1
  N  N6  1  0.86367900  0.13632100  0.30307900  1
  N  N7  1  0.86367900  0.72735800  0.30307900  1
loop_
_geom_bond_atom_site_label_1
_geom_bond_atom_site_label_2
_geom_bond_distance
_geom_bond_site_symmetry_2
B0 C0 1.584751 1_554
B0 C1 1.590309 1_555
B0 C2 1.590315 1_555
B0 C3 1.590315 1_555
B1 C7 1.584751 1_556
B1 C6 1.590309 1_555
B1 C5 1.590315 1_555
B1 C4 1.590315 1_555
C0 N0 1.165101 1_555
C1 N6 1.160604 1_555
C2 N1 1.160604 1_555
C3 N7 1.160604 1_555
C4 N2 1.160604 1_555
C5 N5 1.160604 1_555
C6 N3 1.160604 1_555
C7 N4 1.165101 1_555
N1 Zn0 2.155574 1_555
N2 Zn0 2.155574 1_665
N3 Zn0 2.155574 1_565
N5 Zn0 2.155574 1_555
N6 Zn0 2.155574 1_655
N7 Zn0 2.155574 1_665
