# generated using pymatgen
data_NaV2O5
_symmetry_space_group_name_H-M   'P 1'
_cell_length_a   15.30721202
_cell_length_b   12.06934558
_cell_length_c   10.73154582
_cell_angle_alpha   84.12301417
_cell_angle_beta   51.65877682
_cell_angle_gamma   44.21820902
_symmetry_Int_Tables_number   1
_chemical_formula_structural   NaV2O5
_chemical_formula_sum   'Na8 V16 O40'
_cell_volume   846.03569918
_cell_formula_units_Z   8
loop_
 _symmetry_equiv_pos_site_id
 _symmetry_equiv_pos_as_xyz
  1  'x, y, z'
loop_
 _atom_site_type_symbol
 _atom_site_label
 _atom_site_symmetry_multiplicity
 _atom_site_fract_x
 _atom_site_fract_y
 _atom_site_fract_z
 _atom_site_occupancy
  Na  Na0  1  0.06129300  0.43870700  0.06129300  1
  Na  Na1  1  0.12710000  0.87290000  0.12710000  1
  Na  Na2  1  0.87673200  0.12326800  0.87673200  1
  Na  Na3  1  0.56129300  0.93870700  0.56129300  1
  Na  Na4  1  0.37714500  0.62285500  0.37714500  1
  Na  Na5  1  0.81125200  0.68874800  0.81125200  1
  Na  Na6  1  0.31125200  0.18874800  0.31125200  1
  Na  Na7  1  0.62665900  0.37334100  0.62665900  1
  V  V0  1  0.67014100  0.17986900  0.31940100  1
  V  V1  1  0.06939100  0.08055900  0.42024800  1
  V  V2  1  0.57019800  0.57975200  0.91944100  1
  V  V3  1  0.31940100  0.83058900  0.67014100  1
  V  V4  1  0.42024800  0.42980200  0.06939100  1
  V  V5  1  0.16941100  0.68059900  0.82013100  1
  V  V6  1  0.01797000  0.63563900  0.36436100  1
  V  V7  1  0.26727000  0.38661200  0.61338800  1
  V  V8  1  0.61338800  0.73273000  0.26727000  1
  V  V9  1  0.52024800  0.12797400  0.87202600  1
  V  V10  1  0.77069000  0.87706400  0.12293600  1
  V  V11  1  0.82013100  0.32985900  0.16941100  1
  V  V12  1  0.91944100  0.93060900  0.57019800  1
  V  V13  1  0.12293600  0.22931000  0.77069000  1
  V  V14  1  0.87202600  0.47975200  0.52024800  1
  V  V15  1  0.36436100  0.98203000  0.01797000  1
  O  O0  1  0.14148600  0.98954800  0.51010500  1
  O  O1  1  0.79934500  0.56884200  0.43115800  1
  O  O2  1  0.43115800  0.20065500  0.79934500  1
  O  O3  1  0.01045200  0.85851400  0.64113900  1
  O  O4  1  0.97574000  0.52011400  0.47988600  1
  O  O5  1  0.75936400  0.10964500  0.39210900  1
  O  O6  1  0.62632000  0.19489300  0.80510700  1
  O  O7  1  0.17435300  0.45540400  0.54459600  1
  O  O8  1  0.12591000  0.69639600  0.30360400  1
  O  O9  1  0.04987900  0.31806100  0.68193900  1
  O  O10  1  0.87639900  0.94454900  0.05545100  1
  O  O11  1  0.80872800  0.87064800  0.63760700  1
  O  O12  1  0.80510700  0.37368000  0.62632000  1
  O  O13  1  0.22625000  0.27077100  0.72922900  1
  O  O14  1  0.55331200  0.62429300  0.37570700  1
  O  O15  1  0.71427500  0.28572500  0.21094700  1
  O  O16  1  0.30360400  0.87409000  0.12591000  1
  O  O17  1  0.39210900  0.73888100  0.75936400  1
  O  O18  1  0.46398600  0.53601400  0.96130200  1
  O  O19  1  0.12935200  0.19127200  0.31698400  1
  O  O20  1  0.05928100  0.61994800  0.88701900  1
  O  O21  1  0.05545100  0.12360100  0.87639900  1
  O  O22  1  0.54459600  0.82564700  0.17435300  1
  O  O23  1  0.68193900  0.95012100  0.04987900  1
  O  O24  1  0.56624900  0.11298100  0.38005200  1
  O  O25  1  0.31698400  0.36239300  0.12935200  1
  O  O26  1  0.21094700  0.78905300  0.71427500  1
  O  O27  1  0.89035500  0.24063600  0.26111900  1
  O  O28  1  0.63760700  0.68301600  0.80872800  1
  O  O29  1  0.47988600  0.02426000  0.97574000  1
  O  O30  1  0.26111900  0.60789100  0.89035500  1
  O  O31  1  0.64113900  0.48989500  0.01045200  1
  O  O32  1  0.92529100  0.70470700  0.29529300  1
  O  O33  1  0.38005200  0.94071900  0.56624900  1
  O  O34  1  0.96130200  0.03869800  0.46398600  1
  O  O35  1  0.88701900  0.43375100  0.05928100  1
  O  O36  1  0.29529300  0.07470900  0.92529100  1
  O  O37  1  0.72922900  0.77375000  0.22625000  1
  O  O38  1  0.51010500  0.35886100  0.14148600  1
  O  O39  1  0.37570700  0.44668800  0.55331200  1
loop_
_geom_bond_atom_site_label_1
_geom_bond_atom_site_label_2
_geom_bond_distance
_geom_bond_site_symmetry_2
Na0 O13 2.482412 1_554
Na0 O37 2.482412 1_455
Na0 O36 2.555740 1_554
Na0 O32 2.555740 1_455
Na0 O1 2.608229 1_455
Na0 O2 2.608229 1_554
Na0 O20 2.724114 1_554
Na0 O35 2.724122 1_455
Na1 O34 2.516761 1_465
Na1 O18 2.516761 1_554
Na1 O30 2.585749 1_554
Na1 O17 2.585756 1_554
Na1 O27 2.585758 1_465
Na1 O5 2.585760 1_465
Na1 O16 2.704216 1_555
Na1 O8 2.704216 1_555
Na2 O26 2.505556 1_645
Na2 O15 2.505556 1_556
Na2 O3 2.578981 1_645
Na2 O38 2.578981 1_556
Na2 O31 2.578981 1_556
Na2 O0 2.578981 1_645
Na2 O10 2.736358 1_546
Na2 O21 2.736358 1_655
Na3 O37 2.482412 1_555
Na3 O13 2.482412 1_565
Na3 O36 2.555740 1_565
Na3 O32 2.555740 1_555
Na3 O1 2.608229 1_555
Na3 O2 2.608229 1_565
Na3 O33 2.724107 1_555
Na3 O24 2.724116 1_565
Na4 O15 2.517387 1_555
Na4 O26 2.517387 1_555
Na4 O38 2.580534 1_555
Na4 O3 2.580534 1_555
Na4 O31 2.580534 1_555
Na4 O0 2.580534 1_555
Na4 O39 2.699579 1_555
Na4 O14 2.699579 1_555
Na5 O4 2.481064 1_555
Na5 O29 2.481064 1_565
Na5 O22 2.548087 1_556
Na5 O7 2.548087 1_655
Na5 O9 2.615801 1_655
Na5 O23 2.615801 1_556
Na5 O11 2.724671 1_555
Na5 O28 2.724680 1_555
Na6 O4 2.481064 1_455
Na6 O29 2.481064 1_554
Na6 O7 2.548087 1_555
Na6 O22 2.548087 1_545
Na6 O9 2.615801 1_555
Na6 O23 2.615801 1_545
Na6 O19 2.724665 1_555
Na6 O25 2.724673 1_555
Na7 O18 2.508730 1_555
Na7 O34 2.508730 1_555
Na7 O30 2.573167 1_555
Na7 O17 2.573168 1_555
Na7 O27 2.573171 1_555
Na7 O5 2.573178 1_555
Na7 O12 2.732222 1_555
Na7 O6 2.732222 1_555
O0 V1 1.649295 1_565
O1 V14 1.643916 1_555
O2 V9 1.643916 1_555
O3 V12 1.649295 1_455
O4 V14 1.776929 1_555
O4 V6 1.960257 1_655
O5 V0 1.649231 1_555
O6 V4 1.939145 1_556
O6 V12 1.939145 1_545
O6 V9 2.029435 1_555
O7 V7 1.655847 1_555
O8 V12 1.948478 1_455
O8 V4 1.948478 1_555
O8 V6 1.998746 1_555
O9 V13 1.643363 1_555
O10 V5 1.938268 1_654
O10 V0 1.938268 1_565
O10 V10 2.029923 1_555
O11 V9 1.906125 1_565
O11 V6 1.982750 1_655
O11 V12 2.012161 1_555
O12 V2 1.939145 1_555
O12 V1 1.939145 1_655
O12 V14 2.029435 1_555
O13 V13 1.779069 1_555
O13 V7 1.956629 1_555
O14 V11 1.949229 1_555
O14 V3 1.949229 1_555
O14 V8 1.999560 1_555
O15 V11 1.844025 1_555
O15 V0 1.844025 1_555
O16 V1 1.948478 1_565
O16 V2 1.948478 1_554
O16 V15 1.998746 1_555
O17 V3 1.649233 1_555
O18 V2 1.843693 1_555
O18 V4 1.843693 1_556
O19 V14 1.906125 1_455
O19 V15 1.982757 1_545
O19 V1 2.012159 1_555
O20 V10 1.907278 1_456
O20 V7 1.983117 1_555
O20 V5 2.013172 1_555
O21 V3 1.938268 1_545
O21 V11 1.938268 1_456
O21 V13 2.029923 1_555
O22 V8 1.655847 1_555
O23 V10 1.643363 1_555
O24 V10 1.907283 1_545
O24 V7 1.983122 1_555
O24 V0 2.013159 1_555
O25 V9 1.906130 1_554
O25 V6 1.982755 1_555
O25 V4 2.012147 1_555
O26 V3 1.844025 1_555
O26 V5 1.844025 1_555
O27 V11 1.649241 1_555
O28 V14 1.906124 1_555
O28 V15 1.982755 1_556
O28 V2 2.012150 1_555
O29 V9 1.776929 1_555
O29 V15 1.960257 1_546
O30 V5 1.649243 1_555
O31 V2 1.649295 1_554
O32 V6 1.655244 1_655
O33 V13 1.907278 1_565
O33 V8 1.983124 1_555
O33 V3 2.013170 1_555
O34 V1 1.843693 1_655
O34 V12 1.843693 1_545
O35 V13 1.907277 1_654
O35 V8 1.983122 1_555
O35 V11 2.013161 1_555
O36 V15 1.655244 1_546
O37 V10 1.779069 1_555
O37 V8 1.956629 1_555
O38 V4 1.649295 1_555
O39 V5 1.949229 1_555
O39 V0 1.949229 1_555
O39 V7 1.999560 1_555
