# generated using pymatgen
data_MnCoH18(CN2)6
_symmetry_space_group_name_H-M   'P 1'
_cell_length_a   7.39763987
_cell_length_b   7.39763987
_cell_length_c   7.39764012
_cell_angle_alpha   97.21283029
_cell_angle_beta   97.21283029
_cell_angle_gamma   97.21282389
_symmetry_Int_Tables_number   1
_chemical_formula_structural   MnCoH18(CN2)6
_chemical_formula_sum   'Mn1 Co1 H18 C6 N12'
_cell_volume   394.32584104
_cell_formula_units_Z   1
loop_
 _symmetry_equiv_pos_site_id
 _symmetry_equiv_pos_as_xyz
  1  'x, y, z'
loop_
 _atom_site_type_symbol
 _atom_site_label
 _atom_site_symmetry_multiplicity
 _atom_site_fract_x
 _atom_site_fract_y
 _atom_site_fract_z
 _atom_site_occupancy
  Mn  Mn0  1  0.50000000  0.50000000  0.50000000  1
  Co  Co0  1  0.00000000  0.00000000  0.00000000  1
  H  H0  1  0.86762200  0.30530100  0.04491200  1
  H  H1  1  0.04491200  0.86762200  0.30530100  1
  H  H2  1  0.30530100  0.04491200  0.86762200  1
  H  H3  1  0.13237800  0.69469900  0.95508800  1
  H  H4  1  0.95508800  0.13237800  0.69469900  1
  H  H5  1  0.69469900  0.95508800  0.13237800  1
  H  H6  1  0.87674500  0.21516600  0.23767600  1
  H  H7  1  0.23767600  0.87674500  0.21516600  1
  H  H8  1  0.21516600  0.23767600  0.87674500  1
  H  H9  1  0.12325500  0.78483400  0.76232400  1
  H  H10  1  0.76232400  0.12325500  0.78483400  1
  H  H11  1  0.78483400  0.76232400  0.12325500  1
  H  H12  1  0.06499600  0.32571400  0.18248800  1
  H  H13  1  0.18248800  0.06499600  0.32571400  1
  H  H14  1  0.32571400  0.18248800  0.06499600  1
  H  H15  1  0.93500400  0.67428600  0.81751200  1
  H  H16  1  0.81751200  0.93500400  0.67428600  1
  H  H17  1  0.67428600  0.81751200  0.93500400  1
  C  C0  1  0.44916900  0.73291000  0.62907900  1
  C  C1  1  0.62907900  0.44916900  0.73291000  1
  C  C2  1  0.73291000  0.62907900  0.44916900  1
  C  C3  1  0.55083100  0.26709000  0.37092100  1
  C  C4  1  0.37092100  0.55083100  0.26709000  1
  C  C5  1  0.26709000  0.37092100  0.55083100  1
  N  N0  1  0.94790000  0.23545900  0.12959700  1
  N  N1  1  0.12959700  0.94790100  0.23545900  1
  N  N2  1  0.23545900  0.12959700  0.94790000  1
  N  N3  1  0.05210000  0.76454100  0.87040300  1
  N  N4  1  0.87040300  0.05210000  0.76454100  1
  N  N5  1  0.76454100  0.87040300  0.05210000  1
  N  N6  1  0.41985000  0.87055700  0.71138300  1
  N  N7  1  0.71138300  0.41985000  0.87055700  1
  N  N8  1  0.87055700  0.71138300  0.41985000  1
  N  N9  1  0.58015000  0.12944300  0.28861700  1
  N  N10  1  0.28861700  0.58015000  0.12944300  1
  N  N11  1  0.12944300  0.28861700  0.58015000  1
loop_
_geom_bond_atom_site_label_1
_geom_bond_atom_site_label_2
_geom_bond_distance
_geom_bond_site_symmetry_2
Co0 N1 1.985876 1_545
Co0 N0 1.985879 1_455
Co0 N3 1.985879 1_544
Co0 N4 1.985879 1_454
Co0 N2 1.985879 1_554
Co0 N5 1.985879 1_445
H0 N0 1.037781 1_555
H1 N1 1.037785 1_555
H2 N2 1.037781 1_555
H3 N3 1.037781 1_555
H4 N4 1.037781 1_555
H5 N5 1.037781 1_555
H6 N0 1.027052 1_555
H7 N1 1.027057 1_555
H8 N2 1.027052 1_555
H9 N3 1.027052 1_555
H10 N4 1.027052 1_555
H11 N5 1.027052 1_555
H12 N0 1.026304 1_455
H13 N1 1.026298 1_545
H14 N2 1.026304 1_554
H15 N3 1.026304 1_655
H16 N4 1.026304 1_565
H17 N5 1.026304 1_556
C0 N6 1.177940 1_555
C0 Mn0 1.965092 1_555
C1 N7 1.177940 1_555
C1 Mn0 1.965092 1_555
C2 N8 1.177940 1_555
C2 Mn0 1.965092 1_555
C3 N9 1.177940 1_555
C3 Mn0 1.965092 1_555
C4 N10 1.177940 1_555
C4 Mn0 1.965092 1_555
C5 N11 1.177940 1_555
C5 Mn0 1.965092 1_555
