# generated using pymatgen
data_Y4Al2O9
_symmetry_space_group_name_H-M   'P 1'
_cell_length_a   10.52775800
_cell_length_b   7.41962300
_cell_length_c   11.24528962
_cell_angle_alpha   71.65534017
_cell_angle_beta   90.00000000
_cell_angle_gamma   90.00000000
_symmetry_Int_Tables_number   1
_chemical_formula_structural   Y4Al2O9
_chemical_formula_sum   'Y16 Al8 O36'
_cell_volume   833.75251946
_cell_formula_units_Z   4
loop_
 _symmetry_equiv_pos_site_id
 _symmetry_equiv_pos_as_xyz
  1  'x, y, z'
loop_
 _atom_site_type_symbol
 _atom_site_label
 _atom_site_symmetry_multiplicity
 _atom_site_fract_x
 _atom_site_fract_y
 _atom_site_fract_z
 _atom_site_occupancy
  Y  Y0  1  0.40538300  0.77557700  0.69572000  1
  Y  Y1  1  0.61824300  0.41505000  0.91219800  1
  Y  Y2  1  0.63137100  0.90839200  0.94067400  1
  Y  Y3  1  0.88175700  0.41505000  0.41219800  1
  Y  Y4  1  0.09461700  0.77557700  0.19572000  1
  Y  Y5  1  0.90538300  0.22442300  0.80428000  1
  Y  Y6  1  0.39020300  0.26752900  0.71318900  1
  Y  Y7  1  0.10979700  0.26752900  0.21318900  1
  Y  Y8  1  0.89020300  0.73247100  0.78681100  1
  Y  Y9  1  0.86862900  0.90839200  0.44067400  1
  Y  Y10  1  0.60979700  0.73247100  0.28681100  1
  Y  Y11  1  0.13137100  0.09160800  0.55932600  1
  Y  Y12  1  0.11824300  0.58495000  0.58780200  1
  Y  Y13  1  0.38175700  0.58495000  0.08780200  1
  Y  Y14  1  0.59461700  0.22442300  0.30428000  1
  Y  Y15  1  0.36862900  0.09160800  0.05932600  1
  Al  Al0  1  0.68086800  0.58996100  0.61573400  1
  Al  Al1  1  0.18086800  0.41003900  0.88426600  1
  Al  Al2  1  0.31913200  0.41003900  0.38426600  1
  Al  Al3  1  0.82429800  0.04402900  0.12472900  1
  Al  Al4  1  0.32429800  0.95597100  0.37527100  1
  Al  Al5  1  0.17570200  0.95597100  0.87527100  1
  Al  Al6  1  0.67570200  0.04402900  0.62472900  1
  Al  Al7  1  0.81913200  0.58996100  0.11573400  1
  O  O0  1  0.72802900  0.46761800  0.24738900  1
  O  O1  1  0.74134200  0.02354900  0.26642400  1
  O  O2  1  0.75865800  0.02354900  0.76642400  1
  O  O3  1  0.97454600  0.52743300  0.17064800  1
  O  O4  1  0.22802900  0.53238200  0.25261100  1
  O  O5  1  0.23497000  0.81965500  0.02172900  1
  O  O6  1  0.47454600  0.47256700  0.32935200  1
  O  O7  1  0.27352800  0.18057800  0.38301800  1
  O  O8  1  0.01160200  0.93634600  0.85604600  1
  O  O9  1  0.25865800  0.97645100  0.73357600  1
  O  O10  1  0.52545400  0.52743300  0.67064800  1
  O  O11  1  0.48839800  0.93634600  0.35604600  1
  O  O12  1  0.26503000  0.81965500  0.52172900  1
  O  O13  1  0.72647200  0.81942200  0.61698200  1
  O  O14  1  0.51160200  0.06365400  0.64395400  1
  O  O15  1  0.50166700  0.16726300  0.89140900  1
  O  O16  1  0.99833300  0.16726300  0.39140900  1
  O  O17  1  0.73520400  0.61429300  0.46286100  1
  O  O18  1  0.98839800  0.06365400  0.14395400  1
  O  O19  1  0.77197100  0.46761800  0.74738900  1
  O  O20  1  0.02545400  0.47256700  0.82935200  1
  O  O21  1  0.27197100  0.53238200  0.75261100  1
  O  O22  1  0.24134200  0.97645100  0.23357600  1
  O  O23  1  0.00311800  0.68829400  0.39407000  1
  O  O24  1  0.00166700  0.83273700  0.60859100  1
  O  O25  1  0.99688200  0.31170600  0.60593000  1
  O  O26  1  0.76479600  0.61429300  0.96286100  1
  O  O27  1  0.49833300  0.83273700  0.10859100  1
  O  O28  1  0.77352800  0.81942200  0.11698200  1
  O  O29  1  0.73497000  0.18034500  0.47827100  1
  O  O30  1  0.22647200  0.18057800  0.88301800  1
  O  O31  1  0.49688200  0.68829400  0.89407000  1
  O  O32  1  0.26479600  0.38570700  0.53713900  1
  O  O33  1  0.76503000  0.18034500  0.97827100  1
  O  O34  1  0.50311800  0.31170600  0.10593000  1
  O  O35  1  0.23520400  0.38570700  0.03713900  1
loop_
_geom_bond_atom_site_label_1
_geom_bond_atom_site_label_2
_geom_bond_distance
_geom_bond_site_symmetry_2
Al0 O19 1.757788 1_555
Al0 O10 1.758766 1_555
Al0 O17 1.766287 1_555
Al0 O13 1.773216 1_555
Al1 O21 1.757788 1_555
Al1 O20 1.758766 1_555
Al1 O35 1.766287 1_556
Al1 O30 1.773216 1_555
Al2 O4 1.757788 1_555
Al2 O6 1.758766 1_555
Al2 O32 1.766287 1_555
Al2 O7 1.773216 1_555
Al3 O18 1.752819 1_555
Al3 O33 1.753919 1_554
Al3 O28 1.778167 1_545
Al3 O1 1.781105 1_555
Al4 O11 1.752819 1_555
Al4 O12 1.753919 1_555
Al4 O7 1.778167 1_565
Al4 O22 1.781105 1_555
Al5 O8 1.752819 1_555
Al5 O5 1.753919 1_556
Al5 O30 1.778167 1_565
Al5 O9 1.781105 1_555
Al6 O14 1.752819 1_555
Al6 O29 1.753919 1_555
Al6 O13 1.778167 1_545
Al6 O2 1.781105 1_555
Al7 O0 1.757788 1_555
Al7 O3 1.758766 1_555
Al7 O26 1.766287 1_554
Al7 O28 1.773216 1_555
O0 Y14 2.216136 1_555
O0 Y3 2.398162 1_555
O0 Y10 2.481102 1_555
O1 Y14 2.277712 1_555
O1 Y9 2.304669 1_545
O1 Y10 2.514563 1_545
O2 Y5 2.277712 1_555
O2 Y2 2.304669 1_545
O2 Y8 2.514563 1_545
O3 Y4 2.322480 1_655
O3 Y7 2.322566 1_655
O3 Y3 2.757194 1_555
O4 Y4 2.216136 1_555
O4 Y13 2.398162 1_555
O4 Y7 2.481102 1_555
O5 Y13 2.271173 1_555
O5 Y4 2.390750 1_555
O5 Y15 2.601390 1_565
O6 Y14 2.322480 1_555
O6 Y10 2.322566 1_555
O6 Y13 2.757194 1_555
O7 Y11 2.404696 1_555
O7 Y7 2.501823 1_555
O8 Y8 2.295457 1_455
O8 Y5 2.318343 1_465
O9 Y0 2.277712 1_555
O9 Y11 2.304669 1_565
O9 Y6 2.514563 1_565
O10 Y0 2.322480 1_555
O10 Y6 2.322566 1_555
O10 Y1 2.757194 1_555
O11 Y10 2.295457 1_555
O11 Y14 2.318343 1_565
O12 Y12 2.271173 1_555
O12 Y0 2.390750 1_555
O12 Y11 2.601390 1_565
O13 Y9 2.404696 1_555
O13 Y8 2.501823 1_555
O14 Y6 2.295457 1_555
O14 Y0 2.318343 1_545
O15 Y6 2.237973 1_555
O15 Y15 2.274892 1_556
O15 Y2 2.278348 1_545
O15 Y1 2.282861 1_555
O16 Y7 2.237973 1_655
O16 Y11 2.274892 1_655
O16 Y9 2.278348 1_545
O16 Y3 2.282861 1_555
O17 Y10 2.310534 1_555
O17 Y3 2.328215 1_555
O17 Y9 2.540514 1_555
O18 Y7 2.295457 1_655
O18 Y4 2.318343 1_645
O19 Y5 2.216136 1_555
O19 Y1 2.398162 1_555
O19 Y8 2.481102 1_555
O20 Y5 2.322480 1_455
O20 Y8 2.322566 1_455
O20 Y12 2.757194 1_555
O21 Y0 2.216136 1_555
O21 Y12 2.398162 1_555
O21 Y6 2.481102 1_555
O22 Y4 2.277712 1_555
O22 Y15 2.304669 1_565
O22 Y7 2.514563 1_565
O23 Y4 2.326627 1_555
O23 Y9 2.341984 1_455
O23 Y3 2.350327 1_455
O23 Y12 2.398245 1_555
O24 Y8 2.237973 1_455
O24 Y9 2.274892 1_455
O24 Y11 2.278348 1_565
O24 Y12 2.282861 1_555
O25 Y5 2.326627 1_555
O25 Y11 2.341984 1_655
O25 Y12 2.350327 1_655
O25 Y3 2.398245 1_555
O26 Y8 2.310534 1_555
O26 Y1 2.328215 1_555
O26 Y2 2.540514 1_555
O27 Y10 2.237973 1_555
O27 Y2 2.274892 1_554
O27 Y15 2.278348 1_565
O27 Y13 2.282861 1_555
O28 Y2 2.404696 1_554
O28 Y10 2.501823 1_555
O29 Y3 2.271173 1_555
O29 Y14 2.390750 1_555
O29 Y9 2.601390 1_545
O30 Y15 2.404696 1_556
O30 Y6 2.501823 1_555
O31 Y0 2.326627 1_555
O31 Y2 2.341984 1_555
O31 Y1 2.350327 1_555
O31 Y13 2.398245 1_556
O32 Y6 2.310534 1_555
O32 Y12 2.328215 1_555
O32 Y11 2.540514 1_555
O33 Y1 2.271173 1_555
O33 Y5 2.390750 1_555
O33 Y2 2.601390 1_545
O34 Y14 2.326627 1_555
O34 Y15 2.341984 1_555
O34 Y13 2.350327 1_555
O34 Y1 2.398245 1_554
O35 Y7 2.310534 1_555
O35 Y13 2.328215 1_555
O35 Y15 2.540514 1_555
