# generated using pymatgen
data_LiBi2(PO4)3
_symmetry_space_group_name_H-M   'P 1'
_cell_length_a   9.31979300
_cell_length_b   8.98111900
_cell_length_c   15.46029436
_cell_angle_alpha   55.68534516
_cell_angle_beta   90.00000000
_cell_angle_gamma   90.00000000
_symmetry_Int_Tables_number   1
_chemical_formula_structural   LiBi2(PO4)3
_chemical_formula_sum   'Li4 Bi8 P12 O48'
_cell_volume   1068.83435745
_cell_formula_units_Z   4
loop_
 _symmetry_equiv_pos_site_id
 _symmetry_equiv_pos_as_xyz
  1  'x, y, z'
loop_
 _atom_site_type_symbol
 _atom_site_label
 _atom_site_symmetry_multiplicity
 _atom_site_fract_x
 _atom_site_fract_y
 _atom_site_fract_z
 _atom_site_occupancy
  Li  Li0  1  0.27761900  0.03013900  0.68234200  1
  Li  Li1  1  0.77761900  0.96986100  0.81765800  1
  Li  Li2  1  0.22238100  0.03013900  0.18234200  1
  Li  Li3  1  0.72238100  0.96986100  0.31765800  1
  Bi  Bi0  1  0.45747400  0.85372900  0.89419700  1
  Bi  Bi1  1  0.54252600  0.14627100  0.10580300  1
  Bi  Bi2  1  0.95747400  0.14627100  0.60580300  1
  Bi  Bi3  1  0.96161600  0.37337700  0.87891300  1
  Bi  Bi4  1  0.04252600  0.85372900  0.39419700  1
  Bi  Bi5  1  0.46161600  0.62662300  0.62108700  1
  Bi  Bi6  1  0.03838400  0.62662300  0.12108700  1
  Bi  Bi7  1  0.53838400  0.37337700  0.37891300  1
  P  P0  1  0.75589500  0.54734100  0.99483100  1
  P  P1  1  0.12977600  0.74294000  0.66099200  1
  P  P2  1  0.59719000  0.95987100  0.64470800  1
  P  P3  1  0.74410500  0.54734100  0.49483100  1
  P  P4  1  0.40281000  0.04012900  0.35529200  1
  P  P5  1  0.90281000  0.95987100  0.14470800  1
  P  P6  1  0.87022400  0.25706000  0.33900800  1
  P  P7  1  0.25589500  0.45265900  0.50516900  1
  P  P8  1  0.62977600  0.25706000  0.83900800  1
  P  P9  1  0.24410500  0.45265900  0.00516900  1
  P  P10  1  0.37022400  0.74294000  0.16099200  1
  P  P11  1  0.09719000  0.04012900  0.85529200  1
  O  O0  1  0.38430100  0.21954200  0.35083200  1
  O  O1  1  0.97250700  0.05764900  0.78449400  1
  O  O2  1  0.24210900  0.01660400  0.81535400  1
  O  O3  1  0.11719500  0.48986000  0.92968600  1
  O  O4  1  0.61569900  0.78045800  0.64916800  1
  O  O5  1  0.88430100  0.78045800  0.14916800  1
  O  O6  1  0.51223000  0.40717400  0.78117900  1
  O  O7  1  0.63796100  0.41204900  0.06256100  1
  O  O8  1  0.43437500  0.88410400  0.46969900  1
  O  O9  1  0.78530400  0.33521500  0.80098100  1
  O  O10  1  0.38592300  0.88748800  0.18435500  1
  O  O11  1  0.48777000  0.59282600  0.21882100  1
  O  O12  1  0.86203900  0.41204900  0.56256100  1
  O  O13  1  0.74210900  0.98339600  0.68464600  1
  O  O14  1  0.60908000  0.17620600  0.95551100  1
  O  O15  1  0.21469600  0.66478500  0.19901900  1
  O  O16  1  0.06562500  0.88410400  0.96969900  1
  O  O17  1  0.36203900  0.58795100  0.93743900  1
  O  O18  1  0.93437500  0.11589600  0.03030100  1
  O  O19  1  0.47250700  0.94235100  0.71550600  1
  O  O20  1  0.80542800  0.52543900  0.90532500  1
  O  O21  1  0.89092000  0.17620600  0.45551100  1
  O  O22  1  0.02749300  0.94235100  0.21550600  1
  O  O23  1  0.70059400  0.74305000  0.93708800  1
  O  O24  1  0.38280500  0.48986000  0.42968600  1
  O  O25  1  0.56562500  0.11589600  0.53030100  1
  O  O26  1  0.25789100  0.01660400  0.31535400  1
  O  O27  1  0.39092000  0.82379400  0.04448900  1
  O  O28  1  0.75789100  0.98339600  0.18464600  1
  O  O29  1  0.52749300  0.05764900  0.28449400  1
  O  O30  1  0.69457200  0.52543900  0.40532500  1
  O  O31  1  0.01223000  0.59282600  0.71882100  1
  O  O32  1  0.30542800  0.47456100  0.59467500  1
  O  O33  1  0.19457200  0.47456100  0.09467500  1
  O  O34  1  0.11569900  0.21954200  0.85083200  1
  O  O35  1  0.88280500  0.51014000  0.07031400  1
  O  O36  1  0.79940600  0.74305000  0.43708800  1
  O  O37  1  0.61407700  0.11251200  0.81564500  1
  O  O38  1  0.13796100  0.58795100  0.43743900  1
  O  O39  1  0.11407700  0.88748800  0.68435500  1
  O  O40  1  0.10908000  0.82379400  0.54448900  1
  O  O41  1  0.88592300  0.11251200  0.31564500  1
  O  O42  1  0.28530400  0.66478500  0.69901900  1
  O  O43  1  0.61719500  0.51014000  0.57031400  1
  O  O44  1  0.20059400  0.25695000  0.56291200  1
  O  O45  1  0.71469600  0.33521500  0.30098100  1
  O  O46  1  0.29940600  0.25695000  0.06291200  1
  O  O47  1  0.98777000  0.40717400  0.28117900  1
loop_
_geom_bond_atom_site_label_1
_geom_bond_atom_site_label_2
_geom_bond_distance
_geom_bond_site_symmetry_2
Li0 O19 1.930735 1_545
Li0 O44 1.957902 1_555
Li0 O39 1.980029 1_545
Li0 O2 2.017737 1_555
Li1 O1 1.930735 1_565
Li1 O23 1.957902 1_555
Li1 O37 1.980029 1_565
Li1 O13 2.017737 1_555
Li2 O22 1.930735 1_545
Li2 O46 1.957902 1_555
Li2 O10 1.980029 1_545
Li2 O26 2.017737 1_555
Li3 O29 1.930735 1_565
Li3 O36 1.957902 1_555
Li3 O41 1.980029 1_565
Li3 O28 2.017737 1_555
Bi0 O17 2.266390 1_555
Bi0 O27 2.269718 1_556
Bi0 O2 2.375692 1_565
Bi0 O19 2.409573 1_555
Bi0 O23 2.412177 1_555
Bi0 O37 2.413378 1_565
Bi1 O7 2.266390 1_555
Bi1 O14 2.269718 1_554
Bi1 O28 2.375692 1_545
Bi1 O29 2.409573 1_555
Bi1 O46 2.412177 1_555
Bi1 O10 2.413378 1_545
Bi2 O12 2.266390 1_555
Bi2 O21 2.269718 1_555
Bi2 O13 2.375692 1_545
Bi2 O1 2.409573 1_555
Bi2 O44 2.412177 1_655
Bi2 O39 2.413378 1_645
Bi3 O31 2.175540 1_655
Bi3 O9 2.175960 1_555
Bi3 O3 2.176893 1_655
Bi3 O20 2.186201 1_555
Bi3 O18 2.188068 1_556
Bi3 O34 2.199036 1_655
Bi4 O38 2.266390 1_555
Bi4 O40 2.269718 1_555
Bi4 O26 2.375692 1_565
Bi4 O22 2.409573 1_555
Bi4 O36 2.412177 1_455
Bi4 O41 2.413378 1_465
Bi5 O6 2.175540 1_555
Bi5 O42 2.175960 1_555
Bi5 O43 2.176893 1_555
Bi5 O32 2.186201 1_555
Bi5 O8 2.188068 1_555
Bi5 O4 2.199036 1_555
Bi6 O47 2.175540 1_455
Bi6 O15 2.175960 1_555
Bi6 O35 2.176893 1_455
Bi6 O33 2.186201 1_555
Bi6 O16 2.188068 1_554
Bi6 O5 2.199036 1_455
Bi7 O11 2.175540 1_555
Bi7 O45 2.175960 1_555
Bi7 O24 2.176893 1_555
Bi7 O30 2.186201 1_555
Bi7 O25 2.188068 1_555
Bi7 O0 2.199036 1_555
O0 P4 1.582916 1_555
O1 P11 1.542376 1_655
O2 P11 1.548268 1_555
O3 P9 1.559759 1_556
O4 P2 1.582916 1_555
O5 P5 1.582916 1_555
O6 P8 1.567825 1_555
O7 P0 1.531802 1_554
O8 P4 1.544077 1_565
O9 P8 1.572920 1_555
O10 P10 1.538144 1_555
O11 P10 1.567825 1_555
O12 P3 1.531802 1_555
O13 P2 1.548268 1_555
O14 P8 1.527763 1_555
O15 P10 1.572920 1_555
O16 P11 1.544077 1_565
O17 P9 1.531802 1_556
O18 P5 1.544077 1_545
O19 P2 1.542376 1_555
O20 P0 1.572759 1_555
O21 P6 1.527763 1_555
O22 P5 1.542376 1_455
O23 P0 1.543663 1_555
O24 P7 1.559759 1_555
O25 P2 1.544077 1_545
O26 P4 1.548268 1_555
O27 P10 1.527763 1_555
O28 P5 1.548268 1_555
O29 P4 1.542376 1_555
O30 P3 1.572759 1_555
O31 P1 1.567825 1_555
O32 P7 1.572759 1_555
O33 P9 1.572759 1_555
O34 P11 1.582916 1_555
O35 P0 1.559759 1_554
O36 P3 1.543663 1_555
O37 P8 1.538144 1_555
O38 P7 1.531802 1_555
O39 P1 1.538144 1_555
O40 P1 1.527763 1_555
O41 P6 1.538144 1_555
O42 P1 1.572920 1_555
O43 P3 1.559759 1_555
O44 P7 1.543663 1_555
O45 P6 1.572920 1_555
O46 P9 1.543663 1_555
O47 P6 1.567825 1_555
