# generated using pymatgen
data_Ni2Ag3O4
_symmetry_space_group_name_H-M   'P 1'
_cell_length_a   3.00995432
_cell_length_b   3.00995432
_cell_length_c   28.04255300
_cell_angle_alpha   90.00000000
_cell_angle_beta   90.00000000
_cell_angle_gamma   120.00000708
_symmetry_Int_Tables_number   1
_chemical_formula_structural   Ni2Ag3O4
_chemical_formula_sum   'Ni4 Ag6 O8'
_cell_volume   220.02293819
_cell_formula_units_Z   2
loop_
 _symmetry_equiv_pos_site_id
 _symmetry_equiv_pos_as_xyz
  1  'x, y, z'
loop_
 _atom_site_type_symbol
 _atom_site_label
 _atom_site_symmetry_multiplicity
 _atom_site_fract_x
 _atom_site_fract_y
 _atom_site_fract_z
 _atom_site_occupancy
  Ni  Ni0  1  0.66666700  0.33333300  0.14091300  1
  Ni  Ni1  1  0.66666700  0.33333300  0.35908700  1
  Ni  Ni2  1  0.33333300  0.66666700  0.85908700  1
  Ni  Ni3  1  0.33333300  0.66666700  0.64091300  1
  Ag  Ag0  1  0.66666700  0.33333300  0.95929700  1
  Ag  Ag1  1  0.33333300  0.66666700  0.04070300  1
  Ag  Ag2  1  0.33333300  0.66666700  0.45929700  1
  Ag  Ag3  1  0.66666700  0.33333300  0.75000000  1
  Ag  Ag4  1  0.66666700  0.33333300  0.54070300  1
  Ag  Ag5  1  0.33333300  0.66666700  0.25000000  1
  O  O0  1  0.66666700  0.33333300  0.82341000  1
  O  O1  1  0.00000000  0.00000000  0.10187300  1
  O  O2  1  0.00000000  0.00000000  0.60187300  1
  O  O3  1  0.00000000  0.00000000  0.89812700  1
  O  O4  1  0.00000000  0.00000000  0.39812700  1
  O  O5  1  0.33333300  0.66666700  0.32341000  1
  O  O6  1  0.66666700  0.33333300  0.67659000  1
  O  O7  1  0.33333300  0.66666700  0.17659000  1
loop_
_geom_bond_atom_site_label_1
_geom_bond_atom_site_label_2
_geom_bond_distance
_geom_bond_site_symmetry_2
Ni0 O7 2.005214 1_545
Ni0 O7 2.005214 1_655
Ni0 O7 2.005219 1_555
Ni0 O1 2.053894 1_655
Ni0 O1 2.053896 1_555
Ni0 O1 2.053896 1_665
Ni1 O5 2.005214 1_545
Ni1 O5 2.005214 1_655
Ni1 O5 2.005219 1_555
Ni1 O4 2.053894 1_655
Ni1 O4 2.053896 1_555
Ni1 O4 2.053896 1_665
Ni2 O0 2.005214 1_455
Ni2 O0 2.005214 1_565
Ni2 O0 2.005219 1_555
Ni2 O3 2.053894 1_565
Ni2 O3 2.053896 1_665
Ni2 O3 2.053896 1_555
Ni3 O6 2.005214 1_565
Ni3 O6 2.005214 1_455
Ni3 O6 2.005219 1_555
Ni3 O2 2.053894 1_565
Ni3 O2 2.053896 1_665
Ni3 O2 2.053896 1_555
Ag0 O3 2.441804 1_655
Ag0 O3 2.441806 1_555
Ag0 O3 2.441806 1_665
Ag1 O1 2.441804 1_565
Ag1 O1 2.441806 1_555
Ag1 O1 2.441806 1_665
Ag2 O4 2.441804 1_565
Ag2 O4 2.441806 1_555
Ag2 O4 2.441806 1_665
Ag3 O6 2.058604 1_555
Ag3 O0 2.058604 1_555
Ag4 O2 2.441804 1_655
Ag4 O2 2.441806 1_555
Ag4 O2 2.441806 1_665
Ag5 O7 2.058604 1_555
Ag5 O5 2.058604 1_555
