# generated using pymatgen
data_Er2Au5F21
_symmetry_space_group_name_H-M   'P 1'
_cell_length_a   8.05867200
_cell_length_b   9.11018244
_cell_length_c   12.05770263
_cell_angle_alpha   89.17260342
_cell_angle_beta   88.84653217
_cell_angle_gamma   88.79388093
_symmetry_Int_Tables_number   1
_chemical_formula_structural   Er2Au5F21
_chemical_formula_sum   'Er4 Au10 F42'
_cell_volume   884.76549009
_cell_formula_units_Z   2
loop_
 _symmetry_equiv_pos_site_id
 _symmetry_equiv_pos_as_xyz
  1  'x, y, z'
loop_
 _atom_site_type_symbol
 _atom_site_label
 _atom_site_symmetry_multiplicity
 _atom_site_fract_x
 _atom_site_fract_y
 _atom_site_fract_z
 _atom_site_occupancy
  Er  Er0  1  0.67154400  0.31698900  0.49601400  1
  Er  Er1  1  0.32845600  0.68301100  0.50398600  1
  Er  Er2  1  0.66461200  0.18200400  0.00058000  1
  Er  Er3  1  0.33538800  0.81799600  0.99942000  1
  Au  Au0  1  0.17382000  0.27720800  0.59536000  1
  Au  Au1  1  0.82618000  0.72279200  0.40464000  1
  Au  Au2  1  0.55878900  0.50849700  0.79050400  1
  Au  Au3  1  0.44121100  0.49150300  0.20949600  1
  Au  Au4  1  0.83666000  0.77578900  0.09351700  1
  Au  Au5  1  0.16334000  0.22421100  0.90648300  1
  Au  Au6  1  0.44091400  0.01474200  0.29575600  1
  Au  Au7  1  0.55908600  0.98525800  0.70424400  1
  Au  Au8  1  0.01915300  0.24973600  0.24495100  1
  Au  Au9  1  0.98084700  0.75026400  0.75504900  1
  F  F0  1  0.68832500  0.40697000  0.67323700  1
  F  F1  1  0.31167500  0.59303000  0.32676300  1
  F  F2  1  0.85942300  0.25547100  0.12097200  1
  F  F3  1  0.14057700  0.74452900  0.87902800  1
  F  F4  1  0.70035300  0.39969800  0.89652000  1
  F  F5  1  0.29964700  0.60030200  0.10348000  1
  F  F6  1  0.14211500  0.41440500  0.83334400  1
  F  F7  1  0.85788500  0.58559500  0.16665600  1
  F  F8  1  0.66003400  0.10438200  0.81842600  1
  F  F9  1  0.33996600  0.89561800  0.18157400  1
  F  F10  1  0.50000000  0.00000000  0.00000000  1
  F  F11  1  0.52339600  0.13229300  0.41853700  1
  F  F12  1  0.47660400  0.86770700  0.58146300  1
  F  F13  1  0.93153600  0.27842600  0.57604200  1
  F  F14  1  0.06846400  0.72157400  0.42395800  1
  F  F15  1  0.50000000  0.50000000  0.50000000  1
  F  F16  1  0.18503500  0.24443100  0.35954600  1
  F  F17  1  0.81496500  0.75556900  0.64045400  1
  F  F18  1  0.84319100  0.22530700  0.36107000  1
  F  F19  1  0.15680900  0.77469300  0.63893000  1
  F  F20  1  0.82812700  0.51276200  0.45537500  1
  F  F21  1  0.17187300  0.48723800  0.54462500  1
  F  F22  1  0.70031200  0.09228300  0.59645300  1
  F  F23  1  0.29968800  0.90771700  0.40354700  1
  F  F24  1  0.16826400  0.07869400  0.65449600  1
  F  F25  1  0.83173600  0.92130600  0.34550400  1
  F  F26  1  0.58321400  0.73534500  0.38513200  1
  F  F27  1  0.41678600  0.26465500  0.61486800  1
  F  F28  1  0.58811100  0.38518200  0.31206100  1
  F  F29  1  0.41188900  0.61481800  0.68793900  1
  F  F30  1  0.44406900  0.61212100  0.91289200  1
  F  F31  1  0.55593100  0.38787900  0.08710800  1
  F  F32  1  0.17715700  0.02322400  0.97397500  1
  F  F33  1  0.82284300  0.97677600  0.02602500  1
  F  F34  1  0.41637000  0.88010000  0.81209400  1
  F  F35  1  0.58363000  0.11990000  0.18790600  1
  F  F36  1  0.92267500  0.19721100  0.89829100  1
  F  F37  1  0.07732500  0.80278900  0.10170900  1
  F  F38  1  0.40506900  0.25736800  0.91174100  1
  F  F39  1  0.59493100  0.74263200  0.08825900  1
  F  F40  1  0.80067800  0.72945000  0.86315400  1
  F  F41  1  0.19932200  0.27055000  0.13684600  1
loop_
_geom_bond_atom_site_label_1
_geom_bond_atom_site_label_2
_geom_bond_distance
_geom_bond_site_symmetry_2
Er0 F15 2.143773 1_555
Er0 F20 2.248991 1_555
Er0 F18 2.271232 1_555
Er0 F11 2.303067 1_555
Er0 F0 2.307273 1_555
Er0 F13 2.342008 1_555
Er0 F22 2.372934 1_555
Er0 F28 2.400089 1_555
Er0 F27 2.529620 1_555
Er1 F15 2.143773 1_555
Er1 F21 2.248991 1_555
Er1 F19 2.271232 1_555
Er1 F12 2.303067 1_555
Er1 F1 2.307273 1_555
Er1 F14 2.342008 1_555
Er1 F23 2.372934 1_555
Er1 F29 2.400089 1_555
Er1 F26 2.529620 1_555
Er2 F10 2.145312 1_555
Er2 F33 2.261539 1_545
Er2 F2 2.276827 1_555
Er2 F31 2.307357 1_555
Er2 F8 2.318325 1_554
Er2 F4 2.351198 1_554
Er2 F35 2.401481 1_555
Er2 F36 2.401925 1_554
Er2 F38 2.449904 1_554
Er3 F10 2.145312 1_566
Er3 F32 2.261539 1_565
Er3 F3 2.276827 1_555
Er3 F30 2.307357 1_555
Er3 F9 2.318325 1_556
Er3 F5 2.351198 1_556
Er3 F34 2.401481 1_555
Er3 F37 2.401925 1_556
Er3 F39 2.449904 1_556
Au0 F24 1.935455 1_555
Au0 F13 1.970764 1_455
Au0 F27 1.977485 1_555
Au0 F21 2.000236 1_555
Au1 F25 1.935455 1_555
Au1 F14 1.970764 1_655
Au1 F26 1.977485 1_555
Au1 F20 2.000236 1_555
Au2 F29 1.960897 1_555
Au2 F30 1.967789 1_555
Au2 F0 1.970332 1_555
Au2 F4 1.972940 1_555
Au3 F28 1.960897 1_555
Au3 F31 1.967789 1_555
Au3 F1 1.970332 1_555
Au3 F5 1.972940 1_555
Au4 F7 1.938738 1_555
Au4 F37 1.964736 1_655
Au4 F39 1.979980 1_555
Au4 F33 1.994834 1_555
Au5 F6 1.938738 1_555
Au5 F36 1.964736 1_455
Au5 F38 1.979980 1_555
Au5 F32 1.994834 1_555
Au6 F9 1.964804 1_545
Au6 F35 1.970229 1_555
Au6 F23 1.971226 1_545
Au6 F11 1.973777 1_555
Au7 F8 1.964804 1_565
Au7 F34 1.970229 1_555
Au7 F22 1.971226 1_565
Au7 F12 1.973777 1_555
Au8 F16 1.941210 1_555
Au8 F41 1.942009 1_555
Au8 F18 1.986208 1_455
Au8 F2 1.991673 1_455
Au9 F17 1.941210 1_555
Au9 F40 1.942009 1_555
Au9 F19 1.986208 1_655
Au9 F3 1.991673 1_655
