# generated using pymatgen
data_FeWClO4
_symmetry_space_group_name_H-M   'P 1'
_cell_length_a   5.57693900
_cell_length_b   6.79975900
_cell_length_c   6.79975700
_cell_angle_alpha   90.00000000
_cell_angle_beta   90.00000000
_cell_angle_gamma   90.00000000
_symmetry_Int_Tables_number   1
_chemical_formula_structural   FeWClO4
_chemical_formula_sum   'Fe2 W2 Cl2 O8'
_cell_volume   257.85930486
_cell_formula_units_Z   2
loop_
 _symmetry_equiv_pos_site_id
 _symmetry_equiv_pos_as_xyz
  1  'x, y, z'
loop_
 _atom_site_type_symbol
 _atom_site_label
 _atom_site_symmetry_multiplicity
 _atom_site_fract_x
 _atom_site_fract_y
 _atom_site_fract_z
 _atom_site_occupancy
  Fe  Fe0  1  0.72778200  0.75000000  0.75000000  1
  Fe  Fe1  1  0.27224800  0.25000000  0.24999900  1
  W  W0  1  0.99999700  0.25000000  0.75000000  1
  W  W1  1  0.99999700  0.75000000  0.25000000  1
  Cl  Cl0  1  0.32563200  0.75000000  0.75000000  1
  Cl  Cl1  1  0.67436200  0.25000000  0.25000000  1
  O  O0  1  0.18978500  0.25000000  0.53366700  1
  O  O1  1  0.18978500  0.96633300  0.25000000  1
  O  O2  1  0.81021000  0.03367300  0.75000000  1
  O  O3  1  0.81021000  0.46632700  0.75000000  1
  O  O4  1  0.81021000  0.75000000  0.46632800  1
  O  O5  1  0.18978500  0.53366700  0.25000000  1
  O  O6  1  0.18978500  0.25000000  0.96633300  1
  O  O7  1  0.81021000  0.75000000  0.03367300  1
loop_
_geom_bond_atom_site_label_1
_geom_bond_atom_site_label_2
_geom_bond_distance
_geom_bond_site_symmetry_2
Fe0 O4 1.982922 1_555
Fe0 O7 1.982928 1_556
Fe0 O3 1.982929 1_555
Fe0 O2 1.982929 1_565
Fe1 O6 1.982927 1_554
Fe1 O5 1.982934 1_555
Fe1 O1 1.982934 1_545
Fe1 O0 1.982940 1_555
Cl0 Fe0 2.242766 1_555
Cl1 Fe1 2.242565 1_555
O0 W0 1.812226 1_455
O1 W1 1.812226 1_455
O2 W0 1.812190 1_555
O3 W0 1.812190 1_555
O4 W1 1.812195 1_555
O5 W1 1.812226 1_455
O6 W0 1.812226 1_455
O7 W1 1.812190 1_555
