# generated using pymatgen
data_Ag2HgSI2
_symmetry_space_group_name_H-M   'P 1'
_cell_length_a   8.03896365
_cell_length_b   8.03896365
_cell_length_c   7.31767900
_cell_angle_alpha   90.00000000
_cell_angle_beta   90.00000000
_cell_angle_gamma   122.91307356
_symmetry_Int_Tables_number   1
_chemical_formula_structural   Ag2HgSI2
_chemical_formula_sum   'Ag4 Hg2 S2 I4'
_cell_volume   397.00142510
_cell_formula_units_Z   2
loop_
 _symmetry_equiv_pos_site_id
 _symmetry_equiv_pos_as_xyz
  1  'x, y, z'
loop_
 _atom_site_type_symbol
 _atom_site_label
 _atom_site_symmetry_multiplicity
 _atom_site_fract_x
 _atom_site_fract_y
 _atom_site_fract_z
 _atom_site_occupancy
  Ag  Ag0  1  0.50579500  0.18249700  0.22978200  1
  Ag  Ag1  1  0.18249700  0.50579500  0.22978200  1
  Ag  Ag2  1  0.81750300  0.49420500  0.72978200  1
  Ag  Ag3  1  0.49420500  0.81750300  0.72978200  1
  Hg  Hg0  1  0.02443700  0.02443700  0.58580600  1
  Hg  Hg1  1  0.97556300  0.97556300  0.08580600  1
  S  S0  1  0.20293200  0.20293200  0.31487300  1
  S  S1  1  0.79706800  0.79706800  0.81487300  1
  I  I0  1  0.45645000  0.13801200  0.83277800  1
  I  I1  1  0.13801200  0.45645000  0.83277800  1
  I  I2  1  0.54355000  0.86198800  0.33277800  1
  I  I3  1  0.86198800  0.54355000  0.33277800  1
loop_
_geom_bond_atom_site_label_1
_geom_bond_atom_site_label_2
_geom_bond_distance
_geom_bond_site_symmetry_2
Ag0 S0 2.603295 1_555
Ag0 I2 2.854588 1_545
Ag0 I3 2.856537 1_555
Ag0 I0 2.927621 1_554
Ag1 S0 2.603295 1_555
Ag1 I3 2.854588 1_455
Ag1 I2 2.856537 1_555
Ag1 I1 2.927621 1_554
Ag2 S1 2.603295 1_555
Ag2 I1 2.854588 1_655
Ag2 I0 2.856537 1_555
Ag2 I3 2.927621 1_555
Ag3 S1 2.603295 1_555
Ag3 I0 2.854588 1_565
Ag3 I1 2.856537 1_555
Ag3 I2 2.927621 1_555
Hg0 S0 2.410624 1_555
Hg0 S1 2.420931 1_445
Hg1 S1 2.410624 1_554
Hg1 S0 2.420931 1_665
