# generated using pymatgen
data_ZnS
_symmetry_space_group_name_H-M   'P 1'
_cell_length_a   3.80681365
_cell_length_b   3.80681343
_cell_length_c   62.29478102
_cell_angle_alpha   90.00000000
_cell_angle_beta   90.00000000
_cell_angle_gamma   119.99999310
_symmetry_Int_Tables_number   1
_chemical_formula_structural   ZnS
_chemical_formula_sum   'Zn20 S20'
_cell_volume   781.81776846
_cell_formula_units_Z   20
loop_
 _symmetry_equiv_pos_site_id
 _symmetry_equiv_pos_as_xyz
  1  'x, y, z'
loop_
 _atom_site_type_symbol
 _atom_site_label
 _atom_site_symmetry_multiplicity
 _atom_site_fract_x
 _atom_site_fract_y
 _atom_site_fract_z
 _atom_site_occupancy
  Zn  Zn0  1  0.33333300  0.66666700  0.45006043  1
  Zn  Zn1  1  0.33333300  0.66666700  0.95002106  1
  Zn  Zn2  1  -0.00000000  -0.00000000  0.85001903  1
  Zn  Zn3  1  0.66666700  0.33333300  0.40002809  1
  Zn  Zn4  1  0.66666700  0.33333300  0.90005277  1
  Zn  Zn5  1  0.00000000  -0.00000000  0.30000945  1
  Zn  Zn6  1  0.33333300  0.66666700  0.34999982  1
  Zn  Zn7  1  0.66666700  0.33333300  0.69999094  1
  Zn  Zn8  1  0.66666700  0.33333300  0.10003145  1
  Zn  Zn9  1  0.66666700  0.33333300  0.55002414  1
  Zn  Zn10  1  0.00000000  0.00000000  0.65000713  1
  Zn  Zn11  1  0.33333300  0.66666700  0.05005433  1
  Zn  Zn12  1  -0.00000000  0.00000000  0.00002778  1
  Zn  Zn13  1  0.33333300  0.66666700  0.20001368  1
  Zn  Zn14  1  0.00000000  -0.00000000  0.15001249  1
  Zn  Zn15  1  0.33333300  0.66666700  0.60002559  1
  Zn  Zn16  1  -0.00000000  0.00000000  0.50002460  1
  Zn  Zn17  1  0.66666700  0.33333300  0.25001938  1
  Zn  Zn18  1  0.66666700  0.33333300  0.80003033  1
  Zn  Zn19  1  0.33333300  0.66666700  0.75001377  1
  S  S0  1  -0.00000000  0.00000000  0.33746414  1
  S  S1  1  0.66666700  0.33333300  0.83743878  1
  S  S2  1  0.66666700  0.33333300  0.13747762  1
  S  S3  1  0.33333300  0.66666700  0.63747814  1
  S  S4  1  0.66666700  0.33333300  0.58748318  1
  S  S5  1  0.33333300  0.66666700  0.98744062  1
  S  S6  1  0.00000000  -0.00000000  0.03751744  1
  S  S7  1  0.33333300  0.66666700  0.08748772  1
  S  S8  1  0.66666700  0.33333300  0.73742547  1
  S  S9  1  0.66666700  0.33333300  0.93748486  1
  S  S10  1  0.66666700  0.33333300  0.43752565  1
  S  S11  1  0.66666700  0.33333300  0.28747561  1
  S  S12  1  0.33333300  0.66666700  0.23747415  1
  S  S13  1  -0.00000000  0.00000000  0.53748119  1
  S  S14  1  -0.00000000  0.00000000  0.88751423  1
  S  S15  1  0.33333300  0.66666700  0.48749310  1
  S  S16  1  0.33333300  0.66666700  0.38743684  1
  S  S17  1  0.33333300  0.66666700  0.78750728  1
  S  S18  1  0.00000000  0.00000000  0.68746055  1
  S  S19  1  -0.00000000  0.00000000  0.18746617  1
loop_
_geom_bond_atom_site_label_1
_geom_bond_atom_site_label_2
_geom_bond_distance
_geom_bond_site_symmetry_2
S0 Zn6 2.332470 1_545
S0 Zn6 2.332473 1_555
S0 Zn6 2.332473 1_445
S0 Zn5 2.333232 1_555
S1 Zn18 2.330351 1_555
S1 Zn2 2.333401 1_655
S1 Zn2 2.333404 1_665
S1 Zn2 2.333404 1_555
S2 Zn14 2.332453 1_655
S2 Zn14 2.332456 1_665
S2 Zn14 2.332456 1_555
S2 Zn8 2.332701 1_555
S3 Zn10 2.332330 1_565
S3 Zn10 2.332334 1_555
S3 Zn10 2.332334 1_665
S3 Zn15 2.333098 1_555
S4 Zn15 2.332611 1_545
S4 Zn15 2.332611 1_655
S4 Zn15 2.332617 1_555
S4 Zn9 2.333503 1_555
S5 Zn1 2.331043 1_555
S5 Zn12 2.333546 1_566
S5 Zn12 2.333549 1_556
S5 Zn12 2.333549 1_666
S6 Zn11 2.332495 1_545
S6 Zn11 2.332498 1_555
S6 Zn11 2.332499 1_445
S6 Zn12 2.335410 1_555
S7 Zn11 2.331905 1_555
S7 Zn8 2.332638 1_565
S7 Zn8 2.332638 1_455
S7 Zn8 2.332644 1_555
S8 Zn7 2.331976 1_555
S8 Zn19 2.333570 1_545
S8 Zn19 2.333570 1_655
S8 Zn19 2.333576 1_555
S9 Zn4 2.331824 1_555
S9 Zn1 2.332481 1_545
S9 Zn1 2.332481 1_655
S9 Zn1 2.332487 1_555
S10 Zn0 2.332451 1_545
S10 Zn0 2.332451 1_655
S10 Zn0 2.332457 1_555
S10 Zn3 2.335902 1_555
S11 Zn5 2.332432 1_655
S11 Zn5 2.332435 1_665
S11 Zn5 2.332435 1_555
S11 Zn17 2.333328 1_555
S12 Zn17 2.332669 1_565
S12 Zn17 2.332670 1_455
S12 Zn17 2.332675 1_555
S12 Zn13 2.333592 1_555
S13 Zn9 2.332622 1_455
S13 Zn9 2.332625 1_445
S13 Zn9 2.332625 1_555
S13 Zn16 2.333350 1_555
S14 Zn4 2.332530 1_455
S14 Zn4 2.332533 1_445
S14 Zn4 2.332533 1_555
S14 Zn2 2.335755 1_555
S15 Zn0 2.331860 1_555
S15 Zn16 2.332383 1_565
S15 Zn16 2.332386 1_555
S15 Zn16 2.332386 1_665
S16 Zn6 2.332131 1_555
S16 Zn3 2.333631 1_565
S16 Zn3 2.333632 1_455
S16 Zn3 2.333637 1_555
S17 Zn18 2.332207 1_565
S17 Zn18 2.332207 1_455
S17 Zn18 2.332213 1_555
S17 Zn19 2.335650 1_555
S18 Zn7 2.332360 1_455
S18 Zn7 2.332363 1_445
S18 Zn7 2.332363 1_555
S18 Zn10 2.333153 1_555
S19 Zn13 2.332717 1_545
S19 Zn13 2.332720 1_555
S19 Zn13 2.332720 1_445
S19 Zn14 2.333169 1_555
