# generated using pymatgen
data_Rb2MoAs2O9
_symmetry_space_group_name_H-M   'P 1'
_cell_length_a   7.66609300
_cell_length_b   7.79360989
_cell_length_c   9.23294708
_cell_angle_alpha   109.83136938
_cell_angle_beta   102.36523489
_cell_angle_gamma   87.98525874
_symmetry_Int_Tables_number   1
_chemical_formula_structural   Rb2MoAs2O9
_chemical_formula_sum   'Rb4 Mo2 As4 O18'
_cell_volume   506.46205442
_cell_formula_units_Z   2
loop_
 _symmetry_equiv_pos_site_id
 _symmetry_equiv_pos_as_xyz
  1  'x, y, z'
loop_
 _atom_site_type_symbol
 _atom_site_label
 _atom_site_symmetry_multiplicity
 _atom_site_fract_x
 _atom_site_fract_y
 _atom_site_fract_z
 _atom_site_occupancy
  Rb  Rb0  1  0.91635700  0.25257000  0.63454300  1
  Rb  Rb1  1  0.18956700  0.83135400  0.88117300  1
  Rb  Rb2  1  0.08364300  0.74743000  0.36545700  1
  Rb  Rb3  1  0.81043300  0.16864600  0.11882700  1
  Mo  Mo0  1  0.42611700  0.23668000  0.74526900  1
  Mo  Mo1  1  0.57388300  0.76332000  0.25473100  1
  As  As0  1  0.31661000  0.34801000  0.09816800  1
  As  As1  1  0.68339000  0.65199000  0.90183200  1
  As  As2  1  0.67229200  0.83595600  0.64232500  1
  As  As3  1  0.32770800  0.16404400  0.35767500  1
  O  O0  1  0.73090500  0.94751000  0.33543100  1
  O  O1  1  0.48295900  0.22235900  0.53733000  1
  O  O2  1  0.28699200  0.42189600  0.76726600  1
  O  O3  1  0.71300800  0.57810400  0.23273400  1
  O  O4  1  0.65513600  0.05985800  0.75457500  1
  O  O5  1  0.33083000  0.58074800  0.16059400  1
  O  O6  1  0.51704100  0.77764100  0.46267000  1
  O  O7  1  0.56899200  0.70336300  0.72945200  1
  O  O8  1  0.34486400  0.94014200  0.24542500  1
  O  O9  1  0.11286100  0.24865600  0.02479500  1
  O  O10  1  0.88713900  0.75134400  0.97520500  1
  O  O11  1  0.88086200  0.78068200  0.62439500  1
  O  O12  1  0.46140600  0.24676100  0.97251300  1
  O  O13  1  0.43100800  0.29663700  0.27054800  1
  O  O14  1  0.26909500  0.05249000  0.66456900  1
  O  O15  1  0.66917000  0.41925200  0.83940600  1
  O  O16  1  0.11913800  0.21931800  0.37560500  1
  O  O17  1  0.53859400  0.75323900  0.02748700  1
loop_
_geom_bond_atom_site_label_1
_geom_bond_atom_site_label_2
_geom_bond_distance
_geom_bond_site_symmetry_2
Mo0 O2 1.745871 1_555
Mo0 O14 1.753993 1_555
Mo0 O1 2.024305 1_555
Mo0 O12 2.031764 1_555
Mo0 O4 2.198754 1_555
Mo0 O15 2.214842 1_555
Mo1 O3 1.745871 1_555
Mo1 O0 1.753993 1_555
Mo1 O6 2.024305 1_555
Mo1 O17 2.031764 1_555
Mo1 O8 2.198754 1_555
Mo1 O5 2.214842 1_555
As0 O9 1.665582 1_555
As0 O5 1.706414 1_555
As0 O12 1.752028 1_554
As0 O13 1.808979 1_555
As1 O10 1.665582 1_555
As1 O15 1.706414 1_555
As1 O17 1.752028 1_556
As1 O7 1.808979 1_555
As2 O11 1.669150 1_555
As2 O4 1.718025 1_565
As2 O6 1.748000 1_555
As2 O7 1.799033 1_555
As3 O16 1.669150 1_555
As3 O8 1.718025 1_545
As3 O1 1.748000 1_555
As3 O13 1.799033 1_555
O0 Rb0 3.066231 1_565
O0 Rb2 3.081631 1_655
O0 Rb3 3.205656 1_565
O1 Rb0 3.245654 1_555
O2 Rb0 2.998578 1_455
O2 Rb1 3.120742 1_555
O3 Rb2 2.998578 1_655
O3 Rb3 3.120742 1_555
O4 Rb0 3.128183 1_555
O4 Rb3 3.141374 1_556
O5 Rb2 2.924204 1_555
O6 Rb2 3.245654 1_555
O8 Rb2 3.128183 1_555
O8 Rb1 3.141374 1_554
O9 Rb3 2.801574 1_455
O9 Rb1 3.155135 1_544
O10 Rb1 2.801574 1_655
O10 Rb3 3.155135 1_566
O11 Rb1 2.899107 1_655
O11 Rb2 3.056552 1_655
O12 Rb3 2.872321 1_556
O14 Rb2 3.066231 1_545
O14 Rb0 3.081631 1_455
O14 Rb1 3.205656 1_545
O15 Rb0 2.924204 1_555
O16 Rb3 2.899107 1_455
O16 Rb0 3.056552 1_455
O17 Rb1 2.872321 1_554
