# generated using pymatgen
data_Na4Sr(SiO3)3
_symmetry_space_group_name_H-M   'P 1'
_cell_length_a   6.70404941
_cell_length_b   6.70404941
_cell_length_c   6.68464732
_cell_angle_alpha   70.53740683
_cell_angle_beta   70.53740683
_cell_angle_gamma   109.41805375
_symmetry_Int_Tables_number   1
_chemical_formula_structural   Na4Sr(SiO3)3
_chemical_formula_sum   'Na4 Sr1 Si3 O9'
_cell_volume   231.47699043
_cell_formula_units_Z   1
loop_
 _symmetry_equiv_pos_site_id
 _symmetry_equiv_pos_as_xyz
  1  'x, y, z'
loop_
 _atom_site_type_symbol
 _atom_site_label
 _atom_site_symmetry_multiplicity
 _atom_site_fract_x
 _atom_site_fract_y
 _atom_site_fract_z
 _atom_site_occupancy
  Na  Na0  1  0.50375300  0.49624700  0.00000000  1
  Na  Na1  1  0.97604600  0.02395400  0.50000000  1
  Na  Na2  1  0.97731700  0.44506800  0.02608200  1
  Na  Na3  1  0.55493200  0.02268300  0.97391800  1
  Sr  Sr0  1  0.50417300  0.49582700  0.50000000  1
  Si  Si0  1  0.43090400  0.96142600  0.53527200  1
  Si  Si1  1  0.03933100  0.96066900  0.00000000  1
  Si  Si2  1  0.03857400  0.56909600  0.46472800  1
  O  O0  1  0.02214400  0.75331300  0.23858800  1
  O  O1  1  0.16626500  0.42633900  0.37370900  1
  O  O2  1  0.76979300  0.42338600  0.70146900  1
  O  O3  1  0.57366100  0.83373500  0.62629100  1
  O  O4  1  0.57661400  0.23020700  0.29853100  1
  O  O5  1  0.16207200  0.22727200  0.97226600  1
  O  O6  1  0.24668700  0.97785600  0.76141200  1
  O  O7  1  0.23700600  0.76299400  0.50000000  1
  O  O8  1  0.77272800  0.83792800  0.02773400  1
loop_
_geom_bond_atom_site_label_1
_geom_bond_atom_site_label_2
_geom_bond_distance
_geom_bond_site_symmetry_2
Na0 O2 2.501800 1_554
Na0 O4 2.501800 1_555
Na0 O8 2.508453 1_555
Na0 O5 2.508453 1_554
Na0 O3 2.515471 1_554
Na0 O1 2.515471 1_555
Na1 O1 2.256911 1_655
Na1 O3 2.256911 1_545
Na1 O8 2.931159 1_546
Na1 O5 2.931159 1_654
Na2 O4 2.242059 1_555
Na2 O5 2.247466 1_654
Na2 O2 2.958504 1_554
Na3 O2 2.242059 1_555
Na3 O8 2.247466 1_546
Na3 O4 2.958504 1_556
O0 Si2 1.667280 1_555
O0 Si1 1.668224 1_555
O0 Sr0 2.837644 1_455
O1 Si2 1.613893 1_555
O1 Sr0 2.626084 1_555
O2 Si2 1.613926 1_655
O2 Sr0 2.637780 1_555
O3 Si0 1.613893 1_555
O3 Sr0 2.626084 1_555
O4 Si0 1.613926 1_545
O4 Sr0 2.637780 1_555
O5 Si1 1.614191 1_546
O5 Sr0 2.666407 1_555
O6 Si0 1.667280 1_555
O6 Si1 1.668224 1_556
O6 Sr0 2.837644 1_565
O7 Si2 1.666876 1_555
O7 Si0 1.666876 1_555
O7 Sr0 2.923895 1_555
O8 Si1 1.614191 1_655
O8 Sr0 2.666407 1_555
