# generated using pymatgen
data_CsTaPS6
_symmetry_space_group_name_H-M   'P 1'
_cell_length_a   18.04227500
_cell_length_b   14.98912800
_cell_length_c   16.29306849
_cell_angle_alpha   74.20134751
_cell_angle_beta   90.00000000
_cell_angle_gamma   90.00000000
_symmetry_Int_Tables_number   1
_chemical_formula_structural   CsTaPS6
_chemical_formula_sum   'Cs16 Ta16 P16 S96'
_cell_volume   4239.81506359
_cell_formula_units_Z   16
loop_
 _symmetry_equiv_pos_site_id
 _symmetry_equiv_pos_as_xyz
  1  'x, y, z'
loop_
 _atom_site_type_symbol
 _atom_site_label
 _atom_site_symmetry_multiplicity
 _atom_site_fract_x
 _atom_site_fract_y
 _atom_site_fract_z
 _atom_site_occupancy
  Cs  Cs0  1  0.66849900  0.86541600  0.97071100  1
  Cs  Cs1  1  0.06579900  0.14129500  0.54801800  1
  Cs  Cs2  1  0.01746600  0.99239100  0.87314500  1
  Cs  Cs3  1  0.98253400  0.00760900  0.12685500  1
  Cs  Cs4  1  0.12710500  0.55541200  0.99818400  1
  Cs  Cs5  1  0.87289500  0.44458800  0.00181600  1
  Cs  Cs6  1  0.48253400  0.49239100  0.37314500  1
  Cs  Cs7  1  0.83150100  0.36541600  0.47071100  1
  Cs  Cs8  1  0.93420100  0.85870500  0.45198200  1
  Cs  Cs9  1  0.51746600  0.50760900  0.62685500  1
  Cs  Cs10  1  0.56579900  0.35870500  0.95198200  1
  Cs  Cs11  1  0.43420100  0.64129500  0.04801800  1
  Cs  Cs12  1  0.33150100  0.13458400  0.02928900  1
  Cs  Cs13  1  0.62710500  0.94458800  0.50181600  1
  Cs  Cs14  1  0.37289500  0.05541200  0.49818400  1
  Cs  Cs15  1  0.16849900  0.63458400  0.52928900  1
  Ta  Ta0  1  0.27138800  0.36242400  0.31068300  1
  Ta  Ta1  1  0.22861200  0.86242400  0.81068300  1
  Ta  Ta2  1  0.10873400  0.25217500  0.25538900  1
  Ta  Ta3  1  0.60873400  0.24782500  0.24461100  1
  Ta  Ta4  1  0.72861200  0.63757600  0.68931700  1
  Ta  Ta5  1  0.28732200  0.28766000  0.73306500  1
  Ta  Ta6  1  0.87492200  0.67476900  0.15746600  1
  Ta  Ta7  1  0.21267800  0.78766000  0.23306500  1
  Ta  Ta8  1  0.77138800  0.13757600  0.18931700  1
  Ta  Ta9  1  0.71267800  0.71234000  0.26693500  1
  Ta  Ta10  1  0.89126600  0.74782500  0.74461100  1
  Ta  Ta11  1  0.12507800  0.32523100  0.84253400  1
  Ta  Ta12  1  0.37492200  0.82523100  0.34253400  1
  Ta  Ta13  1  0.62507800  0.17476900  0.65746600  1
  Ta  Ta14  1  0.39126600  0.75217500  0.75538900  1
  Ta  Ta15  1  0.78732200  0.21234000  0.76693500  1
  P  P0  1  0.21658300  0.83909300  0.01915500  1
  P  P1  1  0.61173800  0.25058800  0.44786900  1
  P  P2  1  0.28341700  0.33909300  0.51915500  1
  P  P3  1  0.56321000  0.69090200  0.82859900  1
  P  P4  1  0.06321000  0.80909800  0.67140100  1
  P  P5  1  0.11173800  0.24941200  0.05213100  1
  P  P6  1  0.71658300  0.66090700  0.48084500  1
  P  P7  1  0.38826200  0.74941200  0.55213100  1
  P  P8  1  0.54360200  0.79256300  0.20461400  1
  P  P9  1  0.04360200  0.70743700  0.29538600  1
  P  P10  1  0.93679000  0.19090200  0.32859900  1
  P  P11  1  0.43679000  0.30909800  0.17140100  1
  P  P12  1  0.88826200  0.75058800  0.94786900  1
  P  P13  1  0.78341700  0.16090700  0.98084500  1
  P  P14  1  0.95639800  0.29256300  0.70461400  1
  P  P15  1  0.45639800  0.20743700  0.79538600  1
  S  S0  1  0.66916400  0.58303800  0.40983300  1
  S  S1  1  0.23994100  0.42604100  0.78290900  1
  S  S2  1  0.17238900  0.39364900  0.69385200  1
  S  S3  1  0.79068000  0.63796100  0.82711800  1
  S  S4  1  0.98100400  0.39228000  0.60179700  1
  S  S5  1  0.99652200  0.69421100  0.67127300  1
  S  S6  1  0.20617500  0.40736100  0.43181700  1
  S  S7  1  0.82761100  0.60635100  0.30614800  1
  S  S8  1  0.39470500  0.31876400  0.81739900  1
  S  S9  1  0.11865300  0.67737300  0.20933600  1
  S  S10  1  0.15489700  0.15259300  0.15565600  1
  S  S11  1  0.89470500  0.18123600  0.68260100  1
  S  S12  1  0.04194000  0.32397000  0.10783900  1
  S  S13  1  0.84510300  0.84740700  0.84434400  1
  S  S14  1  0.26124200  0.72756300  0.10869600  1
  S  S15  1  0.29382500  0.90736100  0.93181700  1
  S  S16  1  0.01899600  0.60772000  0.39820300  1
  S  S17  1  0.67238900  0.10635100  0.80614800  1
  S  S18  1  0.61865300  0.82262700  0.29066400  1
  S  S19  1  0.33083600  0.41696200  0.59016700  1
  S  S20  1  0.30401800  0.69441000  0.85755000  1
  S  S21  1  0.45806000  0.82397000  0.60783900  1
  S  S22  1  0.16916400  0.91696200  0.09016700  1
  S  S23  1  0.49652200  0.80578900  0.82872700  1
  S  S24  1  0.97922400  0.88303100  0.71262000  1
  S  S25  1  0.79382500  0.59263900  0.56818300  1
  S  S26  1  0.55012700  0.27512000  0.73303000  1
  S  S27  1  0.63882100  0.75134500  0.73284600  1
  S  S28  1  0.10771800  0.87408500  0.56018000  1
  S  S29  1  0.06096400  0.20017600  0.96065300  1
  S  S30  1  0.69598200  0.30559000  0.14245000  1
  S  S31  1  0.19598200  0.19441000  0.35755000  1
  S  S32  1  0.83008900  0.00884400  0.25481100  1
  S  S33  1  0.60771800  0.62591500  0.93982000  1
  S  S34  1  0.80401800  0.80559000  0.64245000  1
  S  S35  1  0.20932000  0.36203900  0.17288200  1
  S  S36  1  0.02077600  0.11696900  0.28738000  1
  S  S37  1  0.36117900  0.24865500  0.26715400  1
  S  S38  1  0.30579900  0.82808500  0.47707600  1
  S  S39  1  0.38134700  0.17737300  0.70933600  1
  S  S40  1  0.86117900  0.25134500  0.23284600  1
  S  S41  1  0.85660600  0.58069200  0.75235000  1
  S  S42  1  0.54672400  0.06012000  0.66422100  1
  S  S43  1  0.94987300  0.77512000  0.23303000  1
  S  S44  1  0.70617500  0.09263900  0.06818300  1
  S  S45  1  0.95327600  0.56012000  0.16422100  1
  S  S46  1  0.83083600  0.08303800  0.90983300  1
  S  S47  1  0.78300100  0.81406200  0.16944500  1
  S  S48  1  0.56096400  0.29982400  0.53934700  1
  S  S49  1  0.73875800  0.27243700  0.89130400  1
  S  S50  1  0.28300100  0.68593800  0.33055500  1
  S  S51  1  0.47922400  0.61696900  0.78738000  1
  S  S52  1  0.45327600  0.93988000  0.33577900  1
  S  S53  1  0.60529500  0.68123600  0.18260100  1
  S  S54  1  0.10529500  0.81876400  0.31739900  1
  S  S55  1  0.51899600  0.89228000  0.10179700  1
  S  S56  1  0.66991100  0.50884400  0.75481100  1
  S  S57  1  0.64465700  0.70201400  0.56257000  1
  S  S58  1  0.04672400  0.43988000  0.83577900  1
  S  S59  1  0.88134700  0.32262700  0.79066400  1
  S  S60  1  0.32761100  0.89364900  0.19385200  1
  S  S61  1  0.05012700  0.22488000  0.76697000  1
  S  S62  1  0.54194000  0.17603000  0.39216100  1
  S  S63  1  0.21699900  0.18593800  0.83055500  1
  S  S64  1  0.71699900  0.31406200  0.66944500  1
  S  S65  1  0.23875800  0.22756300  0.60869600  1
  S  S66  1  0.93903600  0.79982400  0.03934700  1
  S  S67  1  0.00347800  0.30578900  0.32872700  1
  S  S68  1  0.80579900  0.67191500  0.02292400  1
  S  S69  1  0.52077600  0.38303100  0.21262000  1
  S  S70  1  0.76005900  0.57395900  0.21709100  1
  S  S71  1  0.14465700  0.79798600  0.93743000  1
  S  S72  1  0.34510300  0.65259300  0.65565600  1
  S  S73  1  0.95806000  0.67603000  0.89216100  1
  S  S74  1  0.64339400  0.08069200  0.25235000  1
  S  S75  1  0.35660600  0.91930800  0.74765000  1
  S  S76  1  0.50347800  0.19421100  0.17127300  1
  S  S77  1  0.85534300  0.20201400  0.06257000  1
  S  S78  1  0.13882100  0.74865500  0.76715400  1
  S  S79  1  0.89228200  0.12591500  0.43982000  1
  S  S80  1  0.43903600  0.70017600  0.46065300  1
  S  S81  1  0.76124200  0.77243700  0.39130400  1
  S  S82  1  0.29068000  0.86203900  0.67288200  1
  S  S83  1  0.65489700  0.34740700  0.34434400  1
  S  S84  1  0.26005900  0.92604100  0.28290900  1
  S  S85  1  0.44987300  0.72488000  0.26697000  1
  S  S86  1  0.73994100  0.07395900  0.71709100  1
  S  S87  1  0.33008900  0.49115600  0.24518900  1
  S  S88  1  0.19420100  0.32808500  0.97707600  1
  S  S89  1  0.39228200  0.37408500  0.06018000  1
  S  S90  1  0.35534300  0.29798600  0.43743000  1
  S  S91  1  0.16991100  0.99115600  0.74518900  1
  S  S92  1  0.69420100  0.17191500  0.52292400  1
  S  S93  1  0.48100400  0.10772000  0.89820300  1
  S  S94  1  0.14339400  0.41930800  0.24765000  1
  S  S95  1  0.70932000  0.13796100  0.32711800  1
loop_
_geom_bond_atom_site_label_1
_geom_bond_atom_site_label_2
_geom_bond_distance
_geom_bond_site_symmetry_2
Cs0 S55 3.530988 1_556
Cs0 S68 3.732170 1_556
Cs0 S47 3.740020 1_556
Cs0 S13 3.842830 1_555
Cs0 S17 3.868287 1_565
Cs0 S33 3.915000 1_555
Cs0 S53 3.956106 1_556
Cs0 S23 4.111442 1_555
Cs0 S44 4.186815 1_566
Cs1 S65 3.617116 1_555
Cs1 S79 3.630852 1_455
Cs1 S31 3.799460 1_555
Cs1 S91 3.869966 1_545
Cs1 S67 3.913116 1_555
Cs1 S11 3.925632 1_455
Cs1 S28 4.027543 1_545
Cs1 S61 4.099959 1_555
Cs2 S91 3.454379 1_555
Cs2 S61 3.493018 1_565
Cs2 S24 3.512564 1_455
Cs2 S71 3.632146 1_555
Cs2 S66 3.662054 1_456
Cs2 S46 3.739508 1_465
Cs2 S29 3.842776 1_565
Cs2 S13 3.894766 1_455
Cs3 S32 3.454379 1_555
Cs3 S43 3.493018 1_545
Cs3 S36 3.512564 1_655
Cs3 S77 3.632146 1_555
Cs3 S29 3.662054 1_654
Cs3 S22 3.739508 1_645
Cs3 S66 3.842776 1_545
Cs3 S10 3.894766 1_655
Cs4 S71 3.512925 1_555
Cs4 S88 3.719199 1_555
Cs4 S73 3.722150 1_455
Cs4 S35 3.769752 1_556
Cs4 S12 3.770001 1_556
Cs4 S58 3.820857 1_555
Cs4 S94 4.031607 1_556
Cs4 S78 4.082504 1_555
Cs4 S20 4.144870 1_555
Cs4 S45 4.154939 1_456
Cs5 S77 3.512925 1_555
Cs5 S68 3.719199 1_555
Cs5 S12 3.722150 1_655
Cs5 S3 3.769752 1_554
Cs5 S73 3.770001 1_554
Cs5 S45 3.820857 1_555
Cs5 S41 4.031607 1_554
Cs5 S40 4.082504 1_555
Cs5 S30 4.144870 1_555
Cs5 S58 4.154939 1_654
Cs6 S87 3.454379 1_555
Cs6 S85 3.493018 1_555
Cs6 S69 3.512564 1_555
Cs6 S90 3.632146 1_555
Cs6 S48 3.662054 1_555
Cs6 S0 3.739508 1_555
Cs6 S80 3.842776 1_555
Cs6 S83 3.894766 1_555
Cs7 S4 3.530988 1_555
Cs7 S92 3.732170 1_555
Cs7 S64 3.740020 1_555
Cs7 S83 3.842830 1_555
Cs7 S7 3.868287 1_555
Cs7 S79 3.915000 1_555
Cs7 S11 3.956106 1_555
Cs7 S67 4.111442 1_655
Cs7 S25 4.186815 1_555
Cs8 S81 3.617116 1_555
Cs8 S28 3.630852 1_655
Cs8 S34 3.799460 1_555
Cs8 S32 3.869966 1_565
Cs8 S5 3.913116 1_555
Cs8 S54 3.925632 1_655
Cs8 S79 4.027543 1_565
Cs8 S43 4.099959 1_555
Cs9 S56 3.454379 1_555
Cs9 S26 3.493018 1_555
Cs9 S51 3.512564 1_555
Cs9 S57 3.632146 1_555
Cs9 S80 3.662054 1_555
Cs9 S19 3.739508 1_555
Cs9 S48 3.842776 1_555
Cs9 S72 3.894766 1_555
Cs10 S49 3.617116 1_555
Cs10 S89 3.630852 1_556
Cs10 S30 3.799460 1_556
Cs10 S56 3.869966 1_555
Cs10 S76 3.913116 1_556
Cs10 S8 3.925632 1_555
Cs10 S33 4.027543 1_555
Cs10 S26 4.099959 1_555
Cs11 S14 3.617116 1_555
Cs11 S33 3.630852 1_554
Cs11 S20 3.799460 1_554
Cs11 S87 3.869966 1_555
Cs11 S23 3.913116 1_554
Cs11 S53 3.925632 1_555
Cs11 S89 4.027543 1_555
Cs11 S85 4.099959 1_555
Cs12 S93 3.530988 1_554
Cs12 S88 3.732170 1_554
Cs12 S63 3.740020 1_554
Cs12 S10 3.842830 1_555
Cs12 S60 3.868287 1_545
Cs12 S89 3.915000 1_555
Cs12 S8 3.956106 1_554
Cs12 S76 4.111442 1_555
Cs12 S15 4.186815 1_544
Cs13 S57 3.512925 1_555
Cs13 S92 3.719199 1_565
Cs13 S21 3.722150 1_555
Cs13 S95 3.769752 1_565
Cs13 S62 3.770001 1_565
Cs13 S42 3.820857 1_565
Cs13 S74 4.031607 1_565
Cs13 S27 4.082504 1_555
Cs13 S34 4.144870 1_555
Cs13 S52 4.154939 1_555
Cs14 S90 3.512925 1_555
Cs14 S38 3.719199 1_545
Cs14 S62 3.722150 1_555
Cs14 S82 3.769752 1_545
Cs14 S21 3.770001 1_545
Cs14 S52 3.820857 1_545
Cs14 S75 4.031607 1_545
Cs14 S37 4.082504 1_555
Cs14 S31 4.144870 1_555
Cs14 S42 4.154939 1_555
Cs15 S16 3.530988 1_555
Cs15 S38 3.732170 1_555
Cs15 S50 3.740020 1_555
Cs15 S72 3.842830 1_555
Cs15 S2 3.868287 1_555
Cs15 S28 3.915000 1_555
Cs15 S54 3.956106 1_555
Cs15 S5 4.111442 1_455
Cs15 S6 4.186815 1_555
P0 S22 2.041637 1_555
P0 S15 2.054589 1_554
P0 S14 2.060171 1_555
P0 S71 2.069655 1_554
P1 S48 2.050430 1_555
P1 S62 2.052068 1_555
P1 S83 2.055390 1_555
P1 S92 2.077117 1_555
P2 S19 2.041637 1_555
P2 S6 2.054589 1_555
P2 S65 2.060171 1_555
P2 S90 2.069655 1_555
P3 S33 1.978980 1_555
P3 S27 2.084741 1_555
P3 S51 2.092963 1_555
P3 S23 2.101222 1_555
P4 S28 1.978980 1_555
P4 S78 2.084741 1_555
P4 S24 2.092963 1_455
P4 S5 2.101222 1_455
P5 S29 2.050430 1_554
P5 S12 2.052068 1_555
P5 S10 2.055390 1_555
P5 S88 2.077117 1_554
P6 S0 2.041637 1_555
P6 S25 2.054589 1_555
P6 S81 2.060171 1_555
P6 S57 2.069655 1_555
P7 S80 2.050430 1_555
P7 S21 2.052068 1_555
P7 S72 2.055390 1_555
P7 S38 2.077117 1_555
P8 S55 1.968258 1_555
P8 S18 2.084781 1_555
P8 S85 2.088050 1_555
P8 S53 2.116133 1_555
P9 S16 1.968258 1_555
P9 S9 2.084781 1_555
P9 S43 2.088050 1_455
P9 S54 2.116133 1_555
P10 S79 1.978980 1_555
P10 S40 2.084741 1_555
P10 S36 2.092963 1_655
P10 S67 2.101222 1_655
P11 S89 1.978980 1_555
P11 S37 2.084741 1_555
P11 S69 2.092963 1_555
P11 S76 2.101222 1_555
P12 S66 2.050430 1_556
P12 S73 2.052068 1_555
P12 S13 2.055390 1_555
P12 S68 2.077117 1_556
P13 S46 2.041637 1_555
P13 S44 2.054589 1_556
P13 S49 2.060171 1_555
P13 S77 2.069655 1_556
P14 S4 1.968258 1_555
P14 S59 2.084781 1_555
P14 S61 2.088050 1_655
P14 S11 2.116133 1_555
P15 S93 1.968258 1_555
P15 S39 2.084781 1_555
P15 S26 2.088050 1_555
P15 S8 2.116133 1_555
S0 Ta9 2.708568 1_555
S1 S2 2.051887 1_555
S1 Ta5 2.570971 1_555
S1 Ta11 2.592783 1_555
S2 Ta11 2.509187 1_555
S2 Ta5 2.584464 1_555
S3 S41 2.050633 1_555
S3 Ta4 2.510394 1_555
S3 Ta10 2.570418 1_555
S5 Ta10 2.490562 1_555
S6 Ta0 2.541102 1_555
S7 S70 2.051887 1_555
S7 Ta6 2.509187 1_555
S7 Ta9 2.584464 1_555
S8 Ta5 2.491561 1_555
S9 Ta7 2.471457 1_555
S10 Ta2 2.623527 1_555
S11 Ta15 2.491561 1_555
S12 Ta2 2.642176 1_555
S13 Ta10 2.623527 1_555
S14 Ta7 2.584417 1_555
S15 Ta1 2.541102 1_555
S17 S86 2.051887 1_555
S17 Ta13 2.509187 1_555
S17 Ta15 2.584464 1_555
S18 Ta9 2.471457 1_555
S19 Ta5 2.708568 1_555
S20 Ta14 2.283308 1_555
S20 Ta1 2.780138 1_555
S21 Ta14 2.642176 1_555
S22 Ta7 2.708568 1_555
S23 Ta14 2.490562 1_555
S24 Ta10 2.514384 1_555
S25 Ta4 2.541102 1_555
S26 Ta13 2.572038 1_555
S27 Ta4 2.587296 1_555
S29 Ta11 2.567331 1_555
S30 Ta3 2.283308 1_555
S30 Ta8 2.780138 1_555
S31 Ta2 2.283308 1_555
S31 Ta0 2.780138 1_555
S32 Ta8 2.205105 1_555
S34 Ta10 2.283308 1_555
S34 Ta4 2.780138 1_555
S35 S94 2.050633 1_555
S35 Ta0 2.510394 1_555
S35 Ta2 2.570418 1_555
S36 Ta2 2.514384 1_555
S37 Ta0 2.587296 1_555
S38 Ta12 2.532499 1_555
S39 Ta5 2.471457 1_555
S40 Ta8 2.587296 1_555
S41 Ta10 2.551640 1_555
S41 Ta4 2.576392 1_555
S42 Ta13 2.204729 1_555
S43 Ta6 2.572038 1_555
S44 Ta8 2.541102 1_555
S45 Ta6 2.204729 1_555
S46 Ta15 2.708568 1_555
S47 Ta9 2.266914 1_555
S47 Ta6 2.714725 1_555
S48 Ta13 2.567331 1_555
S49 Ta15 2.584417 1_555
S50 Ta7 2.266914 1_555
S50 Ta12 2.714725 1_555
S51 Ta14 2.514384 1_555
S52 Ta12 2.204729 1_555
S53 Ta9 2.491561 1_555
S54 Ta7 2.491561 1_555
S56 Ta4 2.205105 1_555
S57 Ta4 2.530982 1_555
S58 Ta11 2.204729 1_555
S59 Ta15 2.471457 1_555
S60 S84 2.051887 1_555
S60 Ta12 2.509187 1_555
S60 Ta7 2.584464 1_555
S61 Ta11 2.572038 1_555
S62 Ta3 2.642176 1_555
S63 Ta5 2.266914 1_555
S63 Ta11 2.714725 1_555
S64 Ta15 2.266914 1_555
S64 Ta13 2.714725 1_555
S65 Ta5 2.584417 1_555
S66 Ta6 2.567331 1_555
S67 Ta2 2.490562 1_555
S68 Ta6 2.532499 1_555
S69 Ta3 2.514384 1_555
S70 Ta9 2.570971 1_555
S70 Ta6 2.592783 1_555
S71 Ta1 2.530982 1_555
S72 Ta14 2.623527 1_555
S73 Ta10 2.642176 1_555
S74 S95 2.050633 1_555
S74 Ta3 2.551640 1_555
S74 Ta8 2.576392 1_555
S75 S82 2.050633 1_555
S75 Ta14 2.551640 1_555
S75 Ta1 2.576392 1_555
S76 Ta3 2.490562 1_555
S77 Ta8 2.530982 1_555
S78 Ta1 2.587296 1_555
S80 Ta12 2.567331 1_555
S81 Ta9 2.584417 1_555
S82 Ta1 2.510394 1_555
S82 Ta14 2.570418 1_555
S83 Ta3 2.623527 1_555
S84 Ta7 2.570971 1_555
S84 Ta12 2.592783 1_555
S85 Ta12 2.572038 1_555
S86 Ta15 2.570971 1_555
S86 Ta13 2.592783 1_555
S87 Ta0 2.205105 1_555
S88 Ta11 2.532499 1_555
S90 Ta0 2.530982 1_555
S91 Ta1 2.205105 1_555
S92 Ta13 2.532499 1_555
S94 Ta2 2.551640 1_555
S94 Ta0 2.576392 1_555
S95 Ta8 2.510394 1_555
S95 Ta3 2.570418 1_555
