# generated using pymatgen
data_CsHSO4
_symmetry_space_group_name_H-M   'P 1'
_cell_length_a   5.94645800
_cell_length_b   5.60325200
_cell_length_c   7.29717488
_cell_angle_alpha   79.84401336
_cell_angle_beta   90.00000000
_cell_angle_gamma   90.00000000
_symmetry_Int_Tables_number   1
_chemical_formula_structural   CsHSO4
_chemical_formula_sum   'Cs2 H2 S2 O8'
_cell_volume   239.32859000
_cell_formula_units_Z   2
loop_
 _symmetry_equiv_pos_site_id
 _symmetry_equiv_pos_as_xyz
  1  'x, y, z'
loop_
 _atom_site_type_symbol
 _atom_site_label
 _atom_site_symmetry_multiplicity
 _atom_site_fract_x
 _atom_site_fract_y
 _atom_site_fract_z
 _atom_site_occupancy
  Cs  Cs0  1  0.25000000  0.98615000  0.71528500  1
  Cs  Cs1  1  0.75000000  0.01385000  0.28471500  1
  H  H0  1  0.50000000  0.50000000  0.00000000  1
  H  H1  1  0.00000000  0.50000000  0.00000000  1
  S  S0  1  0.75000000  0.45436300  0.75934100  1
  S  S1  1  0.25000000  0.54563700  0.24065900  1
  O  O0  1  0.45673600  0.62233500  0.11685000  1
  O  O1  1  0.54326400  0.37766500  0.88315000  1
  O  O2  1  0.75000000  0.31259800  0.61077800  1
  O  O3  1  0.04326400  0.62233500  0.11685000  1
  O  O4  1  0.95673600  0.37766500  0.88315000  1
  O  O5  1  0.25000000  0.28198500  0.29870800  1
  O  O6  1  0.25000000  0.68740200  0.38922200  1
  O  O7  1  0.75000000  0.71801500  0.70129200  1
loop_
_geom_bond_atom_site_label_1
_geom_bond_atom_site_label_2
_geom_bond_distance
_geom_bond_site_symmetry_2
Cs0 O6 3.141338 1_555
Cs0 O5 3.195519 1_565
Cs0 O1 3.209648 1_565
Cs0 O4 3.209648 1_465
Cs0 O7 3.340944 1_455
Cs0 O7 3.340944 1_555
Cs0 O3 3.485249 1_556
Cs0 O0 3.485249 1_556
Cs0 O2 3.503654 1_565
Cs0 O2 3.503654 1_465
Cs1 O2 3.141338 1_555
Cs1 O7 3.195519 1_545
Cs1 O3 3.209648 1_645
Cs1 O0 3.209648 1_545
Cs1 O5 3.340944 1_555
Cs1 O5 3.340944 1_655
Cs1 O4 3.485249 1_554
Cs1 O1 3.485249 1_554
Cs1 O6 3.503654 1_545
Cs1 O6 3.503654 1_645
H0 O1 1.212122 1_554
H0 O0 1.212122 1_555
H1 O3 1.212122 1_555
H1 O4 1.212122 1_454
O0 S1 1.541199 1_555
O1 S0 1.541199 1_555
O2 S0 1.452558 1_555
O3 S1 1.541199 1_555
O4 S0 1.541199 1_555
O5 S1 1.463280 1_555
O6 S1 1.452558 1_555
O7 S0 1.463280 1_555
