# generated using pymatgen
data_RbTb(PO3)4
_symmetry_space_group_name_H-M   'P 1'
_cell_length_a   8.99621800
_cell_length_b   10.45852900
_cell_length_c   12.91241586
_cell_angle_alpha   55.47648860
_cell_angle_beta   90.00000000
_cell_angle_gamma   90.00000000
_symmetry_Int_Tables_number   1
_chemical_formula_structural   RbTb(PO3)4
_chemical_formula_sum   'Rb4 Tb4 P16 O48'
_cell_volume   1000.94279834
_cell_formula_units_Z   4
loop_
 _symmetry_equiv_pos_site_id
 _symmetry_equiv_pos_as_xyz
  1  'x, y, z'
loop_
 _atom_site_type_symbol
 _atom_site_label
 _atom_site_symmetry_multiplicity
 _atom_site_fract_x
 _atom_site_fract_y
 _atom_site_fract_z
 _atom_site_occupancy
  Rb  Rb0  1  0.93341800  0.26453800  0.54192300  1
  Rb  Rb1  1  0.06658200  0.73546200  0.45807700  1
  Rb  Rb2  1  0.43341800  0.73546200  0.95807700  1
  Rb  Rb3  1  0.56658200  0.26453800  0.04192300  1
  Tb  Tb0  1  0.77309300  0.81560000  0.18304300  1
  Tb  Tb1  1  0.22690700  0.18440000  0.81695700  1
  Tb  Tb2  1  0.72690700  0.81560000  0.68304300  1
  Tb  Tb3  1  0.27309300  0.18440000  0.31695700  1
  P  P0  1  0.89087700  0.69858300  0.97708400  1
  P  P1  1  0.82845700  0.17581600  0.86419900  1
  P  P2  1  0.32845700  0.82418400  0.63580100  1
  P  P3  1  0.02580600  0.52575700  0.22201900  1
  P  P4  1  0.60912300  0.69858300  0.47708400  1
  P  P5  1  0.40787100  0.88811700  0.25871200  1
  P  P6  1  0.97419400  0.47424300  0.77798100  1
  P  P7  1  0.47419400  0.52575700  0.72201900  1
  P  P8  1  0.39087700  0.30141700  0.52291600  1
  P  P9  1  0.59212900  0.11188300  0.74128800  1
  P  P10  1  0.67154300  0.17581600  0.36419900  1
  P  P11  1  0.52580600  0.47424300  0.27798100  1
  P  P12  1  0.90787100  0.11188300  0.24128800  1
  P  P13  1  0.17154300  0.82418400  0.13580100  1
  P  P14  1  0.10912300  0.30141700  0.02291600  1
  P  P15  1  0.09212900  0.88811700  0.75871200  1
  O  O0  1  0.28831300  0.33658500  0.59549500  1
  O  O1  1  0.17642900  0.02008400  0.74537800  1
  O  O2  1  0.32357100  0.02008400  0.24537800  1
  O  O3  1  0.20853400  0.77882600  0.74594900  1
  O  O4  1  0.21168700  0.33658500  0.09549500  1
  O  O5  1  0.95194300  0.23405200  0.09616500  1
  O  O6  1  0.08486900  0.42909700  0.71648500  1
  O  O7  1  0.04032600  0.07603000  0.32422900  1
  O  O8  1  0.65779000  0.34523900  0.34108800  1
  O  O9  1  0.67642900  0.97991600  0.75462200  1
  O  O10  1  0.45194300  0.76594800  0.40383500  1
  O  O11  1  0.91513100  0.57090300  0.28351500  1
  O  O12  1  0.78831300  0.66341500  0.90450500  1
  O  O13  1  0.54032600  0.92397000  0.17577100  1
  O  O14  1  0.25844900  0.92888300  0.50916400  1
  O  O15  1  0.02921400  0.86656500  0.16971400  1
  O  O16  1  0.70853400  0.22117400  0.75405100  1
  O  O17  1  0.75844900  0.07111700  0.99083600  1
  O  O18  1  0.40573900  0.36778200  0.80227000  1
  O  O19  1  0.84221000  0.34523900  0.84108800  1
  O  O20  1  0.52921400  0.13343500  0.33028600  1
  O  O21  1  0.41513100  0.42909700  0.21648500  1
  O  O22  1  0.58486900  0.57090300  0.78351500  1
  O  O23  1  0.24155100  0.92888300  0.00916400  1
  O  O24  1  0.54676100  0.53903500  0.60074500  1
  O  O25  1  0.95323900  0.53903500  0.10074500  1
  O  O26  1  0.74155100  0.07111700  0.49083600  1
  O  O27  1  0.33437600  0.20172000  0.48220400  1
  O  O28  1  0.15779000  0.65476100  0.15891200  1
  O  O29  1  0.04805700  0.76594800  0.90383500  1
  O  O30  1  0.82357100  0.97991600  0.25462200  1
  O  O31  1  0.59426100  0.63221800  0.19773000  1
  O  O32  1  0.34221000  0.65476100  0.65891200  1
  O  O33  1  0.09426100  0.36778200  0.30227000  1
  O  O34  1  0.90573900  0.63221800  0.69773000  1
  O  O35  1  0.47078600  0.86656500  0.66971400  1
  O  O36  1  0.83437600  0.79828000  0.01779600  1
  O  O37  1  0.45967400  0.07603000  0.82422900  1
  O  O38  1  0.95967400  0.92397000  0.67577100  1
  O  O39  1  0.16562400  0.20172000  0.98220400  1
  O  O40  1  0.54805700  0.23405200  0.59616500  1
  O  O41  1  0.04676100  0.46096500  0.89925500  1
  O  O42  1  0.71168700  0.66341500  0.40450500  1
  O  O43  1  0.29146600  0.77882600  0.24594900  1
  O  O44  1  0.79146600  0.22117400  0.25405100  1
  O  O45  1  0.45323900  0.46096500  0.39925500  1
  O  O46  1  0.66562400  0.79828000  0.51779600  1
  O  O47  1  0.97078600  0.13343500  0.83028600  1
loop_
_geom_bond_atom_site_label_1
_geom_bond_atom_site_label_2
_geom_bond_distance
_geom_bond_site_symmetry_2
O0 P8 1.501876 1_555
O0 Tb1 2.420086 1_555
O0 Rb0 3.439550 1_455
O1 P15 1.496774 1_545
O1 Tb1 2.411242 1_555
O1 Rb0 3.256421 1_455
O2 P5 1.496774 1_545
O2 Tb3 2.411242 1_555
O2 Rb3 3.256421 1_555
O3 P15 1.625982 1_555
O3 P2 1.626982 1_555
O3 Rb2 3.223843 1_555
O4 P14 1.501876 1_555
O4 Tb3 2.420086 1_555
O4 Rb3 3.439550 1_555
O5 P12 1.608509 1_555
O5 P14 1.623299 1_655
O6 P6 1.506577 1_455
O6 Tb1 2.470206 1_555
O6 Rb1 3.051001 1_555
O7 P12 1.500762 1_455
O7 Tb3 2.357476 1_555
O7 Rb1 2.958351 1_545
O8 P10 1.626250 1_555
O8 P11 1.627259 1_555
O8 Rb0 3.332405 1_555
O9 P9 1.496774 1_565
O9 Tb2 2.411242 1_555
O9 Rb2 3.256421 1_555
O10 P5 1.608509 1_555
O10 P4 1.623299 1_555
O11 P3 1.506577 1_655
O11 Tb0 2.470206 1_555
O11 Rb0 3.051001 1_555
O12 P0 1.501876 1_555
O12 Tb2 2.420086 1_555
O12 Rb2 3.439550 1_555
O13 P5 1.500762 1_555
O13 Tb0 2.357476 1_555
O13 Rb3 2.958351 1_565
O14 P2 1.496656 1_555
O14 Tb3 2.408451 1_565
O14 Rb1 3.003192 1_555
O15 P13 1.499235 1_555
O15 Tb0 2.349195 1_455
O15 Rb1 3.173374 1_555
O16 P9 1.625982 1_555
O16 P1 1.626982 1_555
O16 Rb0 3.223843 1_555
O17 P1 1.496656 1_555
O17 Tb0 2.408451 1_546
O17 Rb3 3.003192 1_556
O18 P7 1.497385 1_555
O18 Tb1 2.427000 1_555
O18 Rb3 3.008020 1_556
O19 P1 1.626250 1_555
O19 P6 1.627259 1_555
O19 Rb3 3.332405 1_556
O20 P10 1.499235 1_555
O20 Tb3 2.349195 1_555
O20 Rb3 3.173374 1_555
O21 P11 1.506577 1_555
O21 Tb3 2.470206 1_555
O21 Rb2 3.051001 1_554
O22 P7 1.506577 1_555
O22 Tb2 2.470206 1_555
O22 Rb3 3.051001 1_556
O23 P13 1.496656 1_555
O23 Tb1 2.408451 1_564
O23 Rb2 3.003192 1_554
O24 P4 1.621314 1_555
O24 P7 1.628235 1_555
O25 P0 1.621314 1_554
O25 P3 1.628235 1_655
O26 P10 1.496656 1_555
O26 Tb2 2.408451 1_545
O26 Rb0 3.003192 1_555
O27 P8 1.497732 1_555
O27 Tb3 2.308182 1_555
O28 P13 1.626250 1_555
O28 P3 1.627259 1_555
O28 Rb2 3.332405 1_554
O29 P15 1.608509 1_555
O29 P0 1.623299 1_455
O30 P12 1.496774 1_565
O30 Tb0 2.411242 1_555
O30 Rb1 3.256421 1_655
O31 P11 1.497385 1_555
O31 Tb0 2.427000 1_555
O31 Rb2 3.008020 1_554
O32 P2 1.626250 1_555
O32 P7 1.627259 1_555
O32 Rb1 3.332405 1_555
O33 P3 1.497385 1_555
O33 Tb3 2.427000 1_555
O33 Rb0 3.008020 1_455
O34 P6 1.497385 1_555
O34 Tb2 2.427000 1_555
O34 Rb1 3.008020 1_655
O35 P2 1.499235 1_555
O35 Tb2 2.349195 1_555
O35 Rb2 3.173374 1_555
O36 P0 1.497732 1_554
O36 Tb0 2.308182 1_555
O37 P9 1.500762 1_555
O37 Tb1 2.357476 1_555
O37 Rb2 2.958351 1_545
O38 P15 1.500762 1_655
O38 Tb2 2.357476 1_555
O38 Rb0 2.958351 1_565
O39 P14 1.497732 1_556
O39 Tb1 2.308182 1_555
O40 P9 1.608509 1_555
O40 P8 1.623299 1_555
O41 P14 1.621314 1_556
O41 P6 1.628235 1_455
O42 P4 1.501876 1_555
O42 Tb0 2.420086 1_555
O42 Rb1 3.439550 1_655
O43 P5 1.625982 1_555
O43 P13 1.626982 1_555
O43 Rb1 3.223843 1_555
O44 P12 1.625982 1_555
O44 P10 1.626982 1_555
O44 Rb3 3.223843 1_555
O45 P8 1.621314 1_555
O45 P11 1.628235 1_555
O46 P4 1.497732 1_555
O46 Tb2 2.308182 1_555
O47 P1 1.499235 1_555
O47 Tb1 2.349195 1_655
O47 Rb0 3.173374 1_555
