# generated using pymatgen
data_Li6Co5(P2O7)4
_symmetry_space_group_name_H-M   'P 1'
_cell_length_a   13.01801491
_cell_length_b   9.17273915
_cell_length_c   10.48701140
_cell_angle_alpha   65.67996356
_cell_angle_beta   87.44450774
_cell_angle_gamma   73.45102601
_symmetry_Int_Tables_number   1
_chemical_formula_structural   Li6Co5(P2O7)4
_chemical_formula_sum   'Li12 Co10 P16 O56'
_cell_volume   1090.06970732
_cell_formula_units_Z   2
loop_
 _symmetry_equiv_pos_site_id
 _symmetry_equiv_pos_as_xyz
  1  'x, y, z'
loop_
 _atom_site_type_symbol
 _atom_site_label
 _atom_site_symmetry_multiplicity
 _atom_site_fract_x
 _atom_site_fract_y
 _atom_site_fract_z
 _atom_site_occupancy
  Li  Li0  1  0.03518828  0.85562045  0.99863643  1
  Li  Li1  1  0.82472197  0.93255606  0.12173816  1
  Li  Li2  1  0.86198785  0.17753115  0.44070776  1
  Li  Li3  1  0.75000117  0.49999993  0.49999935  1
  Li  Li4  1  0.63801200  0.82246674  0.55929580  1
  Li  Li5  1  0.67527770  0.06744515  0.87826105  1
  Li  Li6  1  0.46480946  0.14438465  0.00135666  1
  Li  Li7  1  0.31421007  0.91071256  0.13089475  1
  Li  Li8  1  0.44292264  0.09180599  0.42904494  1
  Li  Li9  1  0.25001126  0.50000388  0.50000385  1
  Li  Li10  1  0.05707693  0.90818848  0.57095731  1
  Li  Li11  1  0.18579093  0.08929307  0.86910059  1
  O  O0  1  0.54389119  0.27133881  0.60046185  1
  O  O1  1  0.79603724  0.68994133  0.54144631  1
  O  O2  1  0.77583246  0.92666773  0.30081201  1
  O  O3  1  0.94419668  0.07562645  0.64458524  1
  O  O4  1  0.81223823  0.86061626  0.96734454  1
  O  O5  1  0.99712496  0.26592377  0.17486916  1
  O  O6  1  0.86701461  0.93464800  0.50749388  1
  O  O7  1  0.98292080  0.44422220  0.82295840  1
  O  O8  1  0.95610966  0.72865812  0.39953848  1
  O  O9  1  0.98540252  0.92909353  0.15023663  1
  O  O10  1  0.01074453  0.10782423  0.85476558  1
  O  O11  1  0.03975624  0.29173413  0.60155134  1
  O  O12  1  0.02240630  0.50974720  0.21970044  1
  O  O13  1  0.12460073  0.09888018  0.48228744  1
  O  O14  1  0.01396641  0.72995645  0.75567375  1
  O  O15  1  0.17535578  0.15167134  0.03308998  1
  O  O16  1  0.05919720  0.93125766  0.37143794  1
  O  O17  1  0.12591186  0.47004590  0.95529640  1
  O  O18  1  0.21943553  0.08407162  0.69417396  1
  O  O19  1  0.19908806  0.33667650  0.45903593  1
  O  O20  1  0.15635560  0.50678080  0.70764521  1
  O  O21  1  0.22496850  0.28179736  0.18596917  1
  O  O22  1  0.13971486  0.68044733  0.31559928  1
  O  O23  1  0.17927584  0.70028538  0.03872193  1
  O  O24  1  0.32072390  0.29971867  0.96127378  1
  O  O25  1  0.36028122  0.31956389  0.68439672  1
  O  O26  1  0.27502939  0.71819855  0.81403176  1
  O  O27  1  0.34364681  0.49321494  0.29236216  1
  O  O28  1  0.30091395  0.66331080  0.54096732  1
  O  O29  1  0.28056785  0.91593091  0.30582346  1
  O  O30  1  0.37408797  0.52995156  0.04470299  1
  O  O31  1  0.44080822  0.06873491  0.62856505  1
  O  O32  1  0.32464350  0.84832657  0.96690928  1
  O  O33  1  0.48603434  0.27004185  0.24432978  1
  O  O34  1  0.51459540  0.07090585  0.84976007  1
  O  O35  1  0.37539560  0.90111492  0.51771378  1
  O  O36  1  0.47758841  0.49024668  0.78028828  1
  O  O37  1  0.88076749  0.54769982  0.04347530  1
  O  O38  1  0.46024432  0.70826712  0.39844734  1
  O  O39  1  0.51707566  0.55578275  0.17704394  1
  O  O40  1  0.63299082  0.06534973  0.49250540  1
  O  O41  1  0.48925800  0.89217701  0.14523213  1
  O  O42  1  0.50287239  0.73407453  0.82513060  1
  O  O43  1  0.68776273  0.13938377  0.03265642  1
  O  O44  1  0.55580475  0.92437350  0.35541568  1
  O  O45  1  0.61923395  0.45229837  0.95652667  1
  O  O46  1  0.72416964  0.07333247  0.69918873  1
  O  O47  1  0.70396488  0.31005894  0.45855457  1
  O  O48  1  0.64258119  0.59419319  0.69865928  1
  O  O49  1  0.85742419  0.40581050  0.30134062  1
  O  O50  1  0.64675345  0.65977107  0.32248147  1
  O  O51  1  0.68141038  0.68233840  0.04132090  1
  O  O52  1  0.81859020  0.31766055  0.95868069  1
  O  O53  1  0.85324727  0.34022831  0.67751880  1
  O  O54  1  0.77987482  0.72073969  0.81579402  1
  O  O55  1  0.72012612  0.27926148  0.18420641  1
  P  P0  1  0.34775414  0.79966040  0.44659219  1
  P  P1  1  0.43333713  0.45753013  0.20227797  1
  P  P2  1  0.45908242  0.17832396  0.69677635  1
  P  P3  1  0.55618679  0.57108677  0.80359635  1
  P  P4  1  0.65505610  0.17576147  0.55888877  1
  P  P5  1  0.54229697  0.79887486  0.29997731  1
  P  P6  1  0.71677010  0.29031009  0.03279144  1
  P  P7  1  0.78322879  0.70969293  0.96720683  1
  P  P8  1  0.95770234  0.20112386  0.70002370  1
  P  P9  1  0.84494305  0.82423961  0.44111314  1
  P  P10  1  0.06665843  0.54247025  0.79772673  1
  P  P11  1  0.15224712  0.20034001  0.55340232  1
  P  P12  1  0.04091654  0.82167388  0.30322075  1
  P  P13  1  0.21724181  0.29595451  0.03464461  1
  P  P14  1  0.28275430  0.70404719  0.96535845  1
  P  P15  1  0.94381472  0.42891220  0.19640534  1
  Co  Co0  1  0.86337145  0.89643154  0.71907475  1
  Co  Co1  1  0.98737798  0.21152751  0.00509642  1
  Co  Co2  1  0.81643056  0.51993382  0.75521551  1
  Co  Co3  1  0.68356771  0.48006697  0.24478478  1
  Co  Co4  1  0.51262171  0.78847114  0.99490058  1
  Co  Co5  1  0.63662792  0.10356906  0.28092635  1
  Co  Co6  1  0.35499763  0.89910137  0.71155161  1
  Co  Co7  1  0.31829383  0.50462204  0.75369607  1
  Co  Co8  1  0.18169283  0.49538763  0.24632080  1
  Co  Co9  1  0.14500480  0.10089514  0.28844694  1
loop_
_geom_bond_atom_site_label_1
_geom_bond_atom_site_label_2
_geom_bond_distance
_geom_bond_site_symmetry_2
Li0 O23 1.944152 1_556
Li0 O9 1.985861 1_456
Li0 O10 2.116130 1_565
Li1 O2 1.940136 1_555
Li1 O4 2.011971 1_554
Li1 O43 2.100631 1_565
Li1 O9 2.115607 1_555
Li2 O49 1.985041 1_555
Li2 O6 2.023405 1_545
Li2 O47 2.114977 1_555
Li2 O3 2.139725 1_555
Li3 O50 2.067322 1_555
Li3 O53 2.067323 1_555
Li3 O47 2.196673 1_555
Li3 O1 2.196687 1_555
Li4 O48 1.984972 1_555
Li4 O40 2.023419 1_565
Li4 O1 2.115001 1_555
Li4 O44 2.139738 1_555
Li5 O46 1.940133 1_555
Li5 O43 2.011984 1_556
Li5 O4 2.100649 1_545
Li5 O34 2.115640 1_555
Li6 O24 1.944130 1_554
Li6 O34 1.985857 1_554
Li6 O41 2.116162 1_545
Li7 O29 1.883653 1_555
Li7 O32 2.012167 1_554
Li7 O41 2.243462 1_555
Li7 O15 2.286212 1_565
Li8 O31 2.014204 1_555
Li8 O35 2.039691 1_545
Li8 O33 2.134833 1_555
Li8 O44 2.168937 1_545
Li8 O40 2.509136 1_555
Li9 O28 1.997113 1_555
Li9 O19 1.997462 1_555
Li9 O25 2.190262 1_555
Li9 O22 2.190507 1_555
Li9 O27 2.462347 1_555
Li9 O20 2.462434 1_555
Li10 O16 2.014202 1_555
Li10 O13 2.039669 1_565
Li10 O14 2.134818 1_555
Li10 O3 2.168950 1_465
Li10 O6 2.509061 1_455
Li11 O18 1.883648 1_555
Li11 O15 2.012162 1_556
Li11 O10 2.243450 1_555
Li11 O32 2.286243 1_545
O0 P4 1.608954 1_555
O0 P2 1.641468 1_555
O1 P9 1.532778 1_555
O2 P9 1.534566 1_555
O3 P8 1.539395 1_555
O4 P7 1.535789 1_555
O5 P15 1.562334 1_555
O6 P9 1.535290 1_555
O7 P10 1.551775 1_655
O8 P9 1.608993 1_555
O8 P12 1.641465 1_655
O9 P12 1.569316 1_655
O10 P8 1.569077 1_455
O11 P8 1.612039 1_455
O11 P11 1.638787 1_555
O12 P15 1.503284 1_455
O13 P11 1.529145 1_555
O14 P10 1.533902 1_555
O15 P13 1.574432 1_555
O16 P12 1.523998 1_555
O17 P13 1.602566 1_556
O17 P10 1.638422 1_555
O18 P11 1.539078 1_555
O19 P11 1.508761 1_555
O20 P10 1.517127 1_555
O21 P13 1.543509 1_555
O22 P12 1.508786 1_555
O23 P14 1.523135 1_554
O24 P13 1.523213 1_556
O25 P2 1.508878 1_555
O26 P14 1.543548 1_555
O27 P1 1.517075 1_555
O28 P0 1.508863 1_555
O29 P0 1.539048 1_555
O30 P14 1.602606 1_554
O30 P1 1.638452 1_555
O31 P2 1.523965 1_555
O32 P14 1.574408 1_555
O33 P1 1.533930 1_555
O34 P2 1.569307 1_555
O35 P0 1.529128 1_555
O36 P3 1.503446 1_555
O37 P7 1.580126 1_554
O37 P15 1.612936 1_555
O38 P5 1.612007 1_555
O38 P0 1.638756 1_555
O39 P1 1.551812 1_555
O40 P4 1.535306 1_555
O41 P5 1.569092 1_555
O42 P3 1.562327 1_555
O43 P6 1.535791 1_555
O44 P5 1.539415 1_555
O45 P6 1.580079 1_556
O45 P3 1.612938 1_555
O46 P4 1.534575 1_555
O47 P4 1.532801 1_555
O48 P3 1.534338 1_555
O49 P15 1.534287 1_555
O50 P5 1.524810 1_555
O51 P7 1.536521 1_554
O52 P6 1.536519 1_556
O53 P8 1.524800 1_555
O54 P7 1.550688 1_555
O55 P6 1.550706 1_555
Co0 O46 2.010031 1_565
Co0 O14 2.049743 1_655
Co0 O3 2.067228 1_565
Co0 O54 2.088221 1_555
Co0 O6 2.099490 1_555
Co0 O4 2.568133 1_555
Co1 O5 2.054955 1_555
Co1 O52 2.121135 1_554
Co1 O10 2.123776 1_654
Co1 O7 2.188360 1_554
Co1 O15 2.354110 1_655
Co1 O9 2.411563 1_545
Co2 O53 2.057234 1_555
Co2 O54 2.111946 1_555
Co2 O1 2.113226 1_555
Co2 O7 2.134940 1_555
Co2 O52 2.170470 1_555
Co2 O48 2.201466 1_555
Co3 O50 2.057222 1_555
Co3 O55 2.111941 1_555
Co3 O47 2.113230 1_555
Co3 O39 2.134953 1_555
Co3 O51 2.170459 1_555
Co3 O49 2.201556 1_555
Co4 O42 2.054934 1_555
Co4 O51 2.121150 1_556
Co4 O41 2.123801 1_556
Co4 O39 2.188360 1_556
Co4 O32 2.354114 1_555
Co4 O34 2.411562 1_565
Co5 O2 2.010057 1_545
Co5 O33 2.049723 1_555
Co5 O44 2.067214 1_545
Co5 O55 2.088240 1_555
Co5 O40 2.099463 1_555
Co5 O43 2.568140 1_555
Co6 O18 2.023504 1_565
Co6 O35 2.031448 1_555
Co6 O31 2.052934 1_565
Co6 O26 2.099451 1_555
Co6 O42 2.115483 1_555
Co6 O32 2.554915 1_555
Co7 O25 2.039734 1_555
Co7 O36 2.064194 1_555
Co7 O28 2.080759 1_555
Co7 O20 2.176441 1_555
Co7 O24 2.207857 1_555
Co7 O26 2.217259 1_555
Co8 O22 2.039595 1_555
Co8 O12 2.064175 1_555
Co8 O19 2.080685 1_555
Co8 O27 2.176569 1_555
Co8 O23 2.208007 1_555
Co8 O21 2.217482 1_555
Co9 O29 2.023484 1_545
Co9 O13 2.031478 1_555
Co9 O16 2.052936 1_545
Co9 O21 2.099401 1_555
Co9 O5 2.115531 1_455
Co9 O15 2.554899 1_555
