# generated using pymatgen
data_S
_symmetry_space_group_name_H-M   'P 1'
_cell_length_a   8.61068110
_cell_length_b   15.46956034
_cell_length_c   18.62187406
_cell_angle_alpha   90.00000000
_cell_angle_beta   90.00000000
_cell_angle_gamma   90.00000000
_symmetry_Int_Tables_number   1
_chemical_formula_structural   S
_chemical_formula_sum   S88
_cell_volume   2480.49788599
_cell_formula_units_Z   88
loop_
 _symmetry_equiv_pos_site_id
 _symmetry_equiv_pos_as_xyz
  1  'x, y, z'
loop_
 _atom_site_type_symbol
 _atom_site_label
 _atom_site_symmetry_multiplicity
 _atom_site_fract_x
 _atom_site_fract_y
 _atom_site_fract_z
 _atom_site_occupancy
  S  S0  1  0.97690156  0.41263169  0.61313937  1
  S  S1  1  0.29335586  0.26329864  0.01892809  1
  S  S2  1  0.66309729  0.08339854  0.91089053  1
  S  S3  1  0.47145628  0.16061381  0.77504321  1
  S  S4  1  0.91197151  0.42529553  0.00851378  1
  S  S5  1  0.44542370  0.85300984  0.60926593  1
  S  S6  1  0.57903875  0.17507716  0.37803464  1
  S  S7  1  0.54894110  0.57827723  0.86060394  1
  S  S8  1  0.64001378  0.72441089  0.11919229  1
  S  S9  1  0.40826828  0.21813980  0.31093888  1
  S  S10  1  0.91644111  0.53349534  0.57604514  1
  S  S11  1  0.53613247  0.44581802  0.05227923  1
  S  S12  1  0.45105890  0.07827723  0.86060394  1
  S  S13  1  0.54894110  0.92172277  0.36060494  1
  S  S14  1  0.26894958  0.87493931  0.06923501  1
  S  S15  1  0.33690271  0.58339854  0.91089053  1
  S  S16  1  0.13754799  0.97480223  0.26700707  1
  S  S17  1  0.08355889  0.46650466  0.07604514  1
  S  S18  1  0.52854372  0.83938619  0.27504321  1
  S  S19  1  0.05260987  0.39444416  0.27785569  1
  S  S20  1  0.59173172  0.71813980  0.31093888  1
  S  S21  1  0.73105042  0.37493931  0.06923501  1
  S  S22  1  0.75987476  0.37580243  0.81757564  1
  S  S23  1  0.08355889  0.03349534  0.57604514  1
  S  S24  1  0.26894958  0.62506069  0.56923501  1
  S  S25  1  0.94862976  0.32819745  0.52918083  1
  S  S26  1  0.75987476  0.12419757  0.31757564  1
  S  S27  1  0.05260987  0.10555584  0.77785569  1
  S  S28  1  0.50684186  0.47537343  0.64171652  1
  S  S29  1  0.95497962  0.30549906  0.83498011  1
  S  S30  1  0.91197151  0.07470447  0.50851378  1
  S  S31  1  0.53613247  0.05418198  0.55227923  1
  S  S32  1  0.86245201  0.02519777  0.76700707  1
  S  S33  1  0.45105890  0.42172277  0.36060494  1
  S  S34  1  0.35998622  0.22441089  0.11919229  1
  S  S35  1  0.91644111  0.96650466  0.07604514  1
  S  S36  1  0.94739013  0.89444416  0.27785569  1
  S  S37  1  0.15689491  0.16753846  0.97580229  1
  S  S38  1  0.50684186  0.02462657  0.14171652  1
  S  S39  1  0.15689491  0.33246154  0.47580229  1
  S  S40  1  0.44542370  0.64699016  0.10926593  1
  S  S41  1  0.20360488  0.01341955  0.36753952  1
  S  S42  1  0.49315814  0.52462657  0.14171652  1
  S  S43  1  0.42096125  0.82492284  0.87803464  1
  S  S44  1  -0.00098144  0.27287504  0.24533227  1
  S  S45  1  0.42096125  0.67507716  0.37803464  1
  S  S46  1  0.00098144  0.72712496  0.74533227  1
  S  S47  1  0.08802849  0.57470447  0.50851378  1
  S  S48  1  0.02309844  0.91263169  0.61313937  1
  S  S49  1  0.04502038  0.69450094  0.33498011  1
  S  S50  1  0.05137024  0.82819745  0.52918083  1
  S  S51  1  0.66309729  0.41660146  0.41089053  1
  S  S52  1  0.49315814  0.97537343  0.64171652  1
  S  S53  1  0.64001378  0.77558911  0.61919229  1
  S  S54  1  0.02309844  0.58736831  0.11313937  1
  S  S55  1  0.94739013  0.60555584  0.77785569  1
  S  S56  1  0.52854372  0.66061381  0.77504321  1
  S  S57  1  0.73105042  0.12506069  0.56923501  1
  S  S58  1  0.84310509  0.66753846  0.97580229  1
  S  S59  1  0.55457630  0.14699016  0.10926593  1
  S  S60  1  0.86245201  0.47480223  0.26700707  1
  S  S61  1  0.40826828  0.28186020  0.81093888  1
  S  S62  1  0.57903875  0.32492284  0.87803464  1
  S  S63  1  0.35998622  0.27558911  0.61919229  1
  S  S64  1  0.70664414  0.73670136  0.51892809  1
  S  S65  1  0.70664414  0.76329864  0.01892809  1
  S  S66  1  0.95497962  0.19450094  0.33498011  1
  S  S67  1  -0.00098144  0.22712496  0.74533227  1
  S  S68  1  0.46386753  0.55418198  0.55227923  1
  S  S69  1  0.08802849  0.92529553  0.00851378  1
  S  S70  1  0.33690271  0.91660146  0.41089053  1
  S  S71  1  0.46386753  0.94581802  0.05227923  1
  S  S72  1  0.79639512  0.51341955  0.36753952  1
  S  S73  1  0.24012524  0.87580243  0.81757564  1
  S  S74  1  0.00098144  0.77287504  0.24533227  1
  S  S75  1  0.29335586  0.23670136  0.51892809  1
  S  S76  1  0.79639512  0.98658045  0.86753952  1
  S  S77  1  0.05137024  0.67180255  0.02918083  1
  S  S78  1  0.13754799  0.52519777  0.76700707  1
  S  S79  1  0.59173172  0.78186020  0.81093888  1
  S  S80  1  0.20360488  0.48658045  0.86753952  1
  S  S81  1  0.97690156  0.08736831  0.11313937  1
  S  S82  1  0.47145628  0.33938619  0.27504321  1
  S  S83  1  0.24012524  0.62419757  0.31757564  1
  S  S84  1  0.04502038  0.80549906  0.83498011  1
  S  S85  1  0.84310509  0.83246154  0.47580229  1
  S  S86  1  0.94862976  0.17180255  0.02918083  1
  S  S87  1  0.55457630  0.35300984  0.60926593  1
loop_
_geom_bond_atom_site_label_1
_geom_bond_atom_site_label_2
_geom_bond_distance
_geom_bond_site_symmetry_2
S0 S25 2.051766 1_555
S0 S10 2.060095 1_555
S1 S34 2.043808 1_555
S1 S37 2.054281 1_554
S2 S76 2.052392 1_545
S3 S61 2.064179 1_555
S5 S52 2.029094 1_555
S5 S53 2.067861 1_555
S6 S9 2.041351 1_555
S10 S47 2.042256 1_655
S11 S21 2.029501 1_555
S11 S42 2.096920 1_555
S12 S3 2.047387 1_555
S12 S2 2.053462 1_555
S13 S18 2.047402 1_555
S13 S70 2.053453 1_555
S14 S71 2.029501 1_555
S14 S69 2.076611 1_555
S15 S80 2.052392 1_555
S15 S7 2.053462 1_555
S16 S41 2.045770 1_565
S16 S36 2.065711 1_455
S17 S4 2.042256 1_455
S17 S54 2.060095 1_555
S18 S20 2.064179 1_555
S19 S44 2.028913 1_555
S19 S60 2.065711 1_455
S20 S45 2.041351 1_555
S21 S4 2.076611 1_555
S22 S29 2.027360 1_555
S22 S62 2.076461 1_555
S23 S30 2.042256 1_455
S23 S48 2.060095 1_545
S24 S68 2.029501 1_555
S24 S47 2.076611 1_555
S25 S39 2.051425 1_655
S26 S66 2.027360 1_555
S26 S6 2.076461 1_555
S27 S67 2.028913 1_555
S27 S32 2.065711 1_455
S28 S87 2.029094 1_555
S28 S68 2.096920 1_555
S29 S67 2.097778 1_655
S30 S57 2.076611 1_555
S31 S57 2.029501 1_555
S31 S52 2.096920 1_545
S32 S76 2.045770 1_545
S33 S82 2.047402 1_555
S33 S51 2.053453 1_555
S34 S59 2.067861 1_555
S35 S69 2.042256 1_655
S35 S81 2.060095 1_565
S36 S74 2.028913 1_655
S37 S86 2.051425 1_456
S38 S59 2.029094 1_555
S38 S71 2.096920 1_545
S39 S75 2.054281 1_555
S40 S42 2.029094 1_555
S40 S8 2.067861 1_555
S41 S70 2.052392 1_545
S43 S79 2.041351 1_555
S43 S73 2.076461 1_555
S44 S66 2.097778 1_455
S45 S83 2.076461 1_555
S46 S55 2.028913 1_455
S46 S84 2.097778 1_555
S48 S50 2.051766 1_555
S49 S83 2.027360 1_555
S49 S74 2.097778 1_555
S50 S85 2.051425 1_455
S51 S72 2.052392 1_555
S53 S64 2.043808 1_555
S54 S77 2.051766 1_555
S55 S78 2.065711 1_655
S56 S7 2.047387 1_555
S56 S79 2.064179 1_555
S58 S77 2.051425 1_656
S58 S65 2.054281 1_556
S60 S72 2.045770 1_555
S61 S62 2.041351 1_555
S63 S75 2.043808 1_555
S63 S87 2.067861 1_555
S64 S85 2.054281 1_555
S65 S8 2.043808 1_555
S73 S84 2.027360 1_555
S78 S80 2.045770 1_555
S81 S86 2.051766 1_555
S82 S9 2.064179 1_555
