# generated using pymatgen
data_Eu(Al4Fe)2
_symmetry_space_group_name_H-M   'P 1'
_cell_length_a   4.02933021
_cell_length_b   12.42997448
_cell_length_c   14.32024294
_cell_angle_alpha   89.88498702
_cell_angle_beta   90.00000000
_cell_angle_gamma   90.00000000
_symmetry_Int_Tables_number   1
_chemical_formula_structural   Eu(Al4Fe)2
_chemical_formula_sum   'Eu4 Al32 Fe8'
_cell_volume   717.22035707
_cell_formula_units_Z   4
loop_
 _symmetry_equiv_pos_site_id
 _symmetry_equiv_pos_as_xyz
  1  'x, y, z'
loop_
 _atom_site_type_symbol
 _atom_site_label
 _atom_site_symmetry_multiplicity
 _atom_site_fract_x
 _atom_site_fract_y
 _atom_site_fract_z
 _atom_site_occupancy
  Eu  Eu0  1  -0.00000000  0.34026373  0.31932238  1
  Eu  Eu1  1  0.00000000  0.66068395  0.68004603  1
  Eu  Eu2  1  0.00000000  0.83995170  0.18145234  1
  Eu  Eu3  1  -0.00000000  0.16034815  0.81839511  1
  Al  Al0  1  -0.00000000  0.99992041  0.00008027  1
  Al  Al1  1  -0.00000000  0.49985623  0.50031651  1
  Al  Al2  1  0.50000000  0.00055834  0.49999751  1
  Al  Al3  1  0.50000000  0.50141386  0.99958570  1
  Al  Al4  1  0.50000000  0.23222803  0.17355423  1
  Al  Al5  1  0.50000000  0.76700639  0.82740304  1
  Al  Al6  1  0.50000000  0.73294455  0.32755584  1
  Al  Al7  1  0.50000000  0.26695959  0.67204919  1
  Al  Al8  1  0.50000000  0.45217071  0.17822293  1
  Al  Al9  1  0.50000000  0.54819685  0.82074381  1
  Al  Al10  1  0.50000000  0.95219947  0.32169823  1
  Al  Al11  1  0.50000000  0.04741610  0.67856496  1
  Al  Al12  1  0.50000000  0.15859835  0.38018394  1
  Al  Al13  1  0.50000000  0.84155673  0.61959632  1
  Al  Al14  1  0.50000000  0.65856278  0.12043958  1
  Al  Al15  1  0.50000000  0.34234282  0.88015958  1
  Al  Al16  1  0.00000000  0.33256542  0.04860891  1
  Al  Al17  1  -0.00000000  0.66766919  0.95144089  1
  Al  Al18  1  -0.00000000  0.83226335  0.45074446  1
  Al  Al19  1  -0.00000000  0.16768965  0.54746985  1
  Al  Al20  1  -0.00000000  0.09289273  0.25626442  1
  Al  Al21  1  0.00000000  0.90718553  0.74430367  1
  Al  Al22  1  -0.00000000  0.59339817  0.24470569  1
  Al  Al23  1  -0.00000000  0.40776350  0.75537381  1
  Al  Al24  1  0.50000000  0.33360676  0.49462638  1
  Al  Al25  1  0.50000000  0.66596083  0.50532759  1
  Al  Al26  1  0.50000000  0.83367742  0.00528662  1
  Al  Al27  1  0.50000000  0.16633639  0.99512353  1
  Al  Al28  1  0.50000000  0.02554260  0.13381334  1
  Al  Al29  1  0.50000000  0.97379171  0.86637063  1
  Al  Al30  1  0.50000000  0.52635587  0.36742093  1
  Al  Al31  1  0.50000000  0.47388400  0.63289953  1
  Fe  Fe0  1  0.00000000  0.03257708  0.41488667  1
  Fe  Fe1  1  -0.00000000  0.96555857  0.58469144  1
  Fe  Fe2  1  0.00000000  0.53283946  0.08568223  1
  Fe  Fe3  1  0.00000000  0.46529420  0.91514141  1
  Fe  Fe4  1  0.00000000  0.14805892  0.09932828  1
  Fe  Fe5  1  0.00000000  0.85263923  0.90078255  1
  Fe  Fe6  1  -0.00000000  0.64752539  0.40016555  1
  Fe  Fe7  1  -0.00000000  0.35174632  0.60017212  1
loop_
_geom_bond_atom_site_label_1
_geom_bond_atom_site_label_2
_geom_bond_distance
_geom_bond_site_symmetry_2
Al0 Fe5 2.320325 1_554
Al0 Fe4 2.328320 1_565
Al0 Al28 2.798272 1_465
Al0 Al28 2.798272 1_565
Al0 Al29 2.798774 1_554
Al0 Al29 2.798774 1_454
Al0 Al26 2.886834 1_455
Al0 Al26 2.886834 1_555
Al0 Al27 2.888288 1_564
Al0 Al27 2.888288 1_464
Al0 Eu2 3.267867 1_555
Al0 Eu3 3.274888 1_564
Al1 Fe6 2.327116 1_555
Al1 Fe7 2.328840 1_555
Al1 Al31 2.786646 1_555
Al1 Al31 2.786646 1_455
Al1 Al30 2.790454 1_455
Al1 Al30 2.790454 1_555
Al1 Al25 2.885742 1_555
Al1 Al25 2.885742 1_455
Al1 Al24 2.887303 1_455
Al1 Al24 2.887303 1_555
Al1 Eu1 3.262099 1_555
Al1 Eu0 3.267058 1_555
Al2 Fe0 2.387639 1_555
Al2 Fe0 2.387639 1_655
Al2 Fe1 2.391024 1_545
Al2 Fe1 2.391024 1_645
Al3 Fe3 2.392685 1_655
Al3 Fe3 2.392685 1_555
Al3 Fe2 2.394471 1_656
Al3 Fe2 2.394471 1_556
Al3 Al9 2.625110 1_555
Al3 Al8 2.629143 1_556
Al4 Fe4 2.507537 1_555
Al4 Fe4 2.507537 1_655
Al4 Al8 2.734833 1_555
Al4 Eu0 3.198569 1_555
Al4 Eu0 3.198569 1_655
Al5 Fe5 2.510090 1_555
Al5 Fe5 2.510090 1_655
Al5 Al9 2.721660 1_555
Al5 Eu1 3.204614 1_555
Al5 Eu1 3.204614 1_655
Al6 Fe6 2.502585 1_655
Al6 Fe6 2.502585 1_555
Al6 Eu2 3.192854 1_555
Al6 Eu2 3.192854 1_655
Al7 Fe7 2.494929 1_655
Al7 Fe7 2.494929 1_555
Al7 Eu3 3.193089 1_555
Al7 Eu3 3.193089 1_655
Al8 Fe2 2.610582 1_655
Al8 Fe2 2.610582 1_555
Al8 Eu0 3.172572 1_555
Al8 Eu0 3.172572 1_655
Al9 Fe3 2.634867 1_555
Al9 Fe3 2.634867 1_655
Al9 Eu1 3.172079 1_655
Al9 Eu1 3.172079 1_555
Al10 Fe0 2.615961 1_565
Al10 Fe0 2.615961 1_665
Al10 Al2 2.624265 1_565
Al10 Al12 2.700378 1_565
Al10 Al6 2.726455 1_555
Al10 Al20 2.826423 1_565
Al10 Al20 2.826423 1_665
Al10 Al28 2.839078 1_565
Al10 Eu2 3.170221 1_555
Al10 Eu2 3.170221 1_655
Al11 Al2 2.623762 1_555
Al11 Fe1 2.628073 1_545
Al11 Fe1 2.628073 1_645
Al11 Al13 2.696174 1_545
Al11 Al7 2.730327 1_555
Al11 Al21 2.824319 1_645
Al11 Al21 2.824319 1_545
Al11 Al29 2.839122 1_545
Al11 Eu3 3.170215 1_655
Al11 Eu3 3.170215 1_555
Al12 Fe0 2.599317 1_555
Al12 Fe0 2.599317 1_655
Al12 Al2 2.605628 1_555
Al12 Al24 2.726219 1_555
Al12 Al20 2.807273 1_655
Al12 Al20 2.807273 1_555
Al12 Eu0 3.147948 1_555
Al12 Eu0 3.147948 1_655
Al13 Fe1 2.584832 1_555
Al13 Fe1 2.584832 1_655
Al13 Al2 2.612623 1_565
Al13 Al25 2.730563 1_555
Al13 Al21 2.814146 1_555
Al13 Al21 2.814146 1_655
Al13 Eu1 3.139271 1_555
Al13 Eu1 3.139271 1_655
Al14 Fe2 2.598439 1_555
Al14 Fe2 2.598439 1_655
Al14 Al3 2.612346 1_554
Al14 Al8 2.694014 1_555
Al14 Al26 2.728140 1_555
Al14 Al22 2.806399 1_655
Al14 Al22 2.806399 1_555
Al14 Eu2 3.148596 1_555
Al14 Eu2 3.148596 1_655
Al15 Fe3 2.578477 1_555
Al15 Fe3 2.578477 1_655
Al15 Al3 2.616851 1_555
Al15 Al9 2.694895 1_555
Al15 Al27 2.735353 1_555
Al15 Al23 2.812034 1_555
Al15 Al23 2.812034 1_655
Al15 Eu3 3.157011 1_555
Al15 Eu3 3.157011 1_655
Al16 Fe4 2.404283 1_555
Al16 Fe3 2.522350 1_554
Al16 Fe2 2.546425 1_555
Al16 Al27 2.986828 1_554
Al16 Al27 2.986828 1_454
Al17 Fe5 2.409515 1_555
Al17 Fe2 2.547805 1_556
Al17 Fe3 2.569685 1_555
Al17 Al26 2.986264 1_456
Al17 Al26 2.986264 1_556
Al18 Fe6 2.409197 1_555
Al18 Fe1 2.537172 1_555
Al18 Fe0 2.541282 1_565
Al18 Al25 2.989382 1_555
Al18 Al25 2.989382 1_455
Al19 Fe7 2.410526 1_555
Al19 Fe0 2.537343 1_555
Al19 Fe1 2.567355 1_545
Al19 Al24 2.979685 1_555
Al19 Al24 2.979685 1_455
Al20 Fe4 2.348331 1_555
Al20 Fe0 2.390607 1_555
Al20 Al28 2.800084 1_555
Al20 Al28 2.800084 1_455
Al20 Eu0 3.206408 1_555
Al20 Eu2 3.323600 1_545
Al21 Fe5 2.339840 1_555
Al21 Fe1 2.396698 1_555
Al21 Al29 2.793874 1_455
Al21 Al29 2.793874 1_555
Al21 Eu1 3.200970 1_555
Al21 Eu3 3.322879 1_565
Al22 Fe6 2.326960 1_555
Al22 Fe2 2.399873 1_555
Al22 Al30 2.799212 1_455
Al22 Al30 2.799212 1_555
Al22 Al8 2.837887 1_555
Al22 Al8 2.837887 1_455
Al22 Eu2 3.193969 1_555
Al22 Eu0 3.320909 1_555
Al23 Fe7 2.330377 1_555
Al23 Fe3 2.398433 1_555
Al23 Al31 2.793671 1_555
Al23 Al31 2.793671 1_455
Al23 Al9 2.826448 1_455
Al23 Al9 2.826448 1_555
Al23 Eu3 3.203312 1_555
Al23 Eu1 3.321664 1_555
Al24 Fe7 2.528940 1_555
Al24 Fe7 2.528940 1_655
Al24 Al31 2.641016 1_555
Al24 Al7 2.670802 1_555
Al24 Al30 3.006814 1_555
Al24 Eu0 3.219779 1_655
Al24 Eu0 3.219779 1_555
Al25 Fe6 2.525994 1_655
Al25 Fe6 2.525994 1_555
Al25 Al30 2.631546 1_555
Al25 Al6 2.676843 1_555
Al25 Al31 3.003351 1_555
Al25 Eu1 3.212877 1_555
Al25 Eu1 3.212877 1_655
Al26 Fe5 2.520435 1_554
Al26 Fe5 2.520435 1_654
Al26 Al29 2.641340 1_554
Al26 Al5 2.680331 1_554
Al26 Al28 3.015433 1_565
Al26 Eu2 3.229542 1_555
Al26 Eu2 3.229542 1_655
Al27 Fe4 2.517122 1_556
Al27 Fe4 2.517122 1_656
Al27 Al28 2.644475 1_556
Al27 Al4 2.684793 1_556
Al27 Al29 3.024107 1_545
Al27 Eu3 3.235752 1_555
Al27 Eu3 3.235752 1_655
Al28 Fe4 2.572718 1_555
Al28 Fe4 2.572718 1_655
Al28 Al4 2.632488 1_555
Al28 Eu2 3.136829 1_545
Al28 Eu2 3.136829 1_645
Al29 Fe5 2.562526 1_655
Al29 Fe5 2.562526 1_555
Al29 Al5 2.631307 1_555
Al29 Eu3 3.146703 1_665
Al29 Eu3 3.146703 1_565
Al30 Fe6 2.559302 1_555
Al30 Fe6 2.559302 1_655
Al30 Al6 2.629465 1_555
Al30 Al8 2.863734 1_555
Al30 Eu0 3.144872 1_655
Al30 Eu0 3.144872 1_555
Al31 Fe7 2.566362 1_555
Al31 Fe7 2.566362 1_655
Al31 Al7 2.631357 1_555
Al31 Al9 2.845906 1_555
Al31 Eu1 3.148381 1_555
Al31 Eu1 3.148381 1_655
Fe0 Fe1 2.568798 1_545
Fe2 Fe3 2.584068 1_554
