# generated using pymatgen
data_CaAlSi
_symmetry_space_group_name_H-M   'P 1'
_cell_length_a   4.19057287
_cell_length_b   4.19057243
_cell_length_c   21.94612224
_cell_angle_alpha   90.00000000
_cell_angle_beta   90.00000000
_cell_angle_gamma   119.99998763
_symmetry_Int_Tables_number   1
_chemical_formula_structural   CaAlSi
_chemical_formula_sum   'Ca5 Al5 Si5'
_cell_volume   333.76072320
_cell_formula_units_Z   5
loop_
 _symmetry_equiv_pos_site_id
 _symmetry_equiv_pos_as_xyz
  1  'x, y, z'
loop_
 _atom_site_type_symbol
 _atom_site_label
 _atom_site_symmetry_multiplicity
 _atom_site_fract_x
 _atom_site_fract_y
 _atom_site_fract_z
 _atom_site_occupancy
  Ca  Ca0  1  0.00000000  -0.00000000  0.99936721  1
  Ca  Ca1  1  0.00000000  -0.00000000  0.60150503  1
  Ca  Ca2  1  0.00000000  -0.00000000  0.39948826  1
  Ca  Ca3  1  0.00000000  -0.00000000  0.20141549  1
  Ca  Ca4  1  0.00000000  -0.00000000  0.80042021  1
  Al  Al0  1  0.33333300  0.66666700  0.89003369  1
  Al  Al1  1  0.33333300  0.66666700  0.71063582  1
  Al  Al2  1  0.66666700  0.33333300  0.49406417  1
  Al  Al3  1  0.66666700  0.33333300  0.29990584  1
  Al  Al4  1  0.66666700  0.33333300  0.10728501  1
  Si  Si0  1  0.66666700  0.33333300  0.69488403  1
  Si  Si1  1  0.33333300  0.66666700  0.50625027  1
  Si  Si2  1  0.33333300  0.66666700  0.09432349  1
  Si  Si3  1  0.66666700  0.33333300  0.90583401  1
  Si  Si4  1  0.33333300  0.66666700  0.30095146  1
loop_
_geom_bond_atom_site_label_1
_geom_bond_atom_site_label_2
_geom_bond_distance
_geom_bond_site_symmetry_2
Ca0 Si3 3.172879 1_455
Ca0 Si3 3.172882 1_445
Ca0 Si3 3.172882 1_555
Ca0 Si2 3.193173 1_546
Ca0 Si2 3.193176 1_556
Ca0 Si2 3.193176 1_446
Ca1 Si0 3.170691 1_455
Ca1 Si0 3.170694 1_445
Ca1 Si0 3.170694 1_555
Ca1 Si1 3.197452 1_545
Ca1 Si1 3.197455 1_555
Ca1 Si1 3.197455 1_445
Ca2 Si4 3.245001 1_545
Ca2 Si4 3.245004 1_555
Ca2 Si4 3.245004 1_445
Ca2 Si1 3.367986 1_545
Ca2 Si1 3.367988 1_555
Ca2 Si1 3.367989 1_445
Ca3 Si4 3.259655 1_545
Ca3 Si4 3.259658 1_555
Ca3 Si4 3.259658 1_445
Ca3 Si2 3.373028 1_545
Ca3 Si2 3.373030 1_555
Ca3 Si2 3.373031 1_445
Ca4 Si3 3.347469 1_455
Ca4 Si3 3.347472 1_445
Ca4 Si3 3.347473 1_555
Ca4 Si0 3.349326 1_455
Ca4 Si0 3.349329 1_445
Ca4 Si0 3.349329 1_555
Al0 Si3 2.444148 1_565
Al0 Si3 2.444149 1_455
Al0 Si3 2.444155 1_555
Al0 Ca4 3.117917 1_565
Al0 Ca4 3.117920 1_555
Al0 Ca4 3.117920 1_665
Al0 Ca0 3.407487 1_565
Al0 Ca0 3.407489 1_555
Al0 Ca0 3.407490 1_665
Al1 Si0 2.443998 1_565
Al1 Si0 2.443998 1_455
Al1 Si0 2.444004 1_555
Al1 Ca4 3.120284 1_565
Al1 Ca4 3.120287 1_555
Al1 Ca4 3.120287 1_665
Al1 Ca1 3.404355 1_565
Al1 Ca1 3.404358 1_555
Al1 Ca1 3.404358 1_665
Al2 Si1 2.434162 1_545
Al2 Si1 2.434162 1_655
Al2 Si1 2.434169 1_555
Al2 Ca2 3.187731 1_655
Al2 Ca2 3.187734 1_665
Al2 Ca2 3.187734 1_555
Al2 Ca1 3.378367 1_655
Al2 Ca1 3.378369 1_665
Al2 Ca1 3.378370 1_555
Al3 Si4 2.419535 1_545
Al3 Si4 2.419535 1_655
Al3 Si4 2.419542 1_555
Al3 Ca3 3.244321 1_655
Al3 Ca3 3.244324 1_665
Al3 Ca3 3.244325 1_555
Al3 Ca2 3.260338 1_655
Al3 Ca2 3.260341 1_665
Al3 Ca2 3.260341 1_555
Al4 Si2 2.436090 1_545
Al4 Si2 2.436091 1_655
Al4 Si2 2.436097 1_555
Al4 Ca3 3.181375 1_655
Al4 Ca3 3.181378 1_665
Al4 Ca3 3.181378 1_555
Al4 Ca0 3.385680 1_654
Al4 Ca0 3.385683 1_664
Al4 Ca0 3.385683 1_554
