# generated using pymatgen
data_MgAl2O4
_symmetry_space_group_name_H-M   'P 1'
_cell_length_a   5.76635262
_cell_length_b   5.76635262
_cell_length_c   19.20826280
_cell_angle_alpha   81.27466262
_cell_angle_beta   81.27466262
_cell_angle_gamma   59.90079603
_symmetry_Int_Tables_number   1
_chemical_formula_structural   MgAl2O4
_chemical_formula_sum   'Mg8 Al16 O32'
_cell_volume   544.03379144
_cell_formula_units_Z   8
loop_
 _symmetry_equiv_pos_site_id
 _symmetry_equiv_pos_as_xyz
  1  'x, y, z'
loop_
 _atom_site_type_symbol
 _atom_site_label
 _atom_site_symmetry_multiplicity
 _atom_site_fract_x
 _atom_site_fract_y
 _atom_site_fract_z
 _atom_site_occupancy
  Mg  Mg0  1  0.84432700  0.84432700  0.96633400  1
  Mg  Mg1  1  0.59491800  0.59491800  0.71430800  1
  Mg  Mg2  1  0.25093300  0.25093300  0.74739200  1
  Mg  Mg3  1  0.87303600  0.87303600  0.37587200  1
  Mg  Mg4  1  0.09429700  0.09429700  0.22241900  1
  Mg  Mg5  1  0.65405600  0.65405600  0.53324000  1
  Mg  Mg6  1  0.50018700  0.50018700  0.99868500  1
  Mg  Mg7  1  0.40358500  0.40358500  0.27849100  1
  Al  Al0  1  0.37961500  0.37961500  0.87529900  1
  Al  Al1  1  0.86560500  0.37949300  0.87531100  1
  Al  Al2  1  0.37949300  0.86560500  0.87531100  1
  Al  Al3  1  0.12600700  0.12600700  0.62508700  1
  Al  Al4  1  0.62342800  0.12551600  0.62491300  1
  Al  Al5  1  0.34869800  0.34869800  0.46884400  1
  Al  Al6  1  0.12551600  0.62342800  0.62491300  1
  Al  Al7  1  0.38212100  0.87159800  0.37484200  1
  Al  Al8  1  0.90461800  0.90461800  0.78629800  1
  Al  Al9  1  0.99982500  0.99982500  0.50295300  1
  Al  Al10  1  0.87159800  0.38212100  0.37484200  1
  Al  Al11  1  0.62734400  0.62734400  0.12529600  1
  Al  Al12  1  0.11916000  0.62772300  0.12567700  1
  Al  Al13  1  0.74864700  0.74864700  0.25106900  1
  Al  Al14  1  0.62772300  0.11916000  0.12567700  1
  Al  Al15  1  0.15587500  0.15587500  0.03271500  1
  O  O0  1  0.67666900  0.21734300  0.92918900  1
  O  O1  1  0.56048500  0.56048500  0.81901600  1
  O  O2  1  0.21734300  0.67666900  0.92918900  1
  O  O3  1  0.67654600  0.67654600  0.92923600  1
  O  O4  1  0.42759400  0.96904100  0.67613500  1
  O  O5  1  0.06784800  0.06784800  0.81791600  1
  O  O6  1  0.54638000  0.06804300  0.81800400  1
  O  O7  1  0.18883800  0.18883800  0.93342400  1
  O  O8  1  0.96904100  0.42759400  0.67613500  1
  O  O9  1  0.31209200  0.31209200  0.56393200  1
  O  O10  1  0.42732600  0.42732600  0.67600000  1
  O  O11  1  0.06804300  0.54638000  0.81800400  1
  O  O12  1  0.18942800  0.70678400  0.44103400  1
  O  O13  1  0.83129300  0.83129300  0.56699300  1
  O  O14  1  0.26874600  0.83266400  0.56794700  1
  O  O15  1  0.93695700  0.93695700  0.68803400  1
  O  O16  1  0.70678400  0.18942800  0.44103400  1
  O  O17  1  0.06767400  0.06767400  0.32692200  1
  O  O18  1  0.83266400  0.26874600  0.56794700  1
  O  O19  1  0.18235300  0.18235300  0.43863300  1
  O  O20  1  0.91849500  0.47518000  0.18396900  1
  O  O21  1  0.57432700  0.57432700  0.31576500  1
  O  O22  1  0.68061700  0.68061700  0.42942600  1
  O  O23  1  0.81002100  0.81002100  0.07187000  1
  O  O24  1  0.47518000  0.91849500  0.18396900  1
  O  O25  1  0.02613700  0.56549400  0.31222800  1
  O  O26  1  0.92049500  0.92049500  0.18500000  1
  O  O27  1  0.56549400  0.02613700  0.31222800  1
  O  O28  1  0.31389500  0.31389500  0.06754000  1
  O  O29  1  0.80441800  0.31410200  0.06743000  1
  O  O30  1  0.44210300  0.44210300  0.17263200  1
  O  O31  1  0.31410200  0.80441800  0.06743000  1
loop_
_geom_bond_atom_site_label_1
_geom_bond_atom_site_label_2
_geom_bond_distance
_geom_bond_site_symmetry_2
Mg0 O2 1.930862 1_655
Mg0 O0 1.930862 1_565
Mg0 O3 1.933132 1_555
Mg0 O23 1.995889 1_556
Mg1 O4 1.941548 1_555
Mg1 O8 1.941548 1_555
Mg1 O10 1.943577 1_555
Mg1 O1 1.980210 1_555
Mg2 O10 2.034942 1_555
Mg2 O8 2.035803 1_455
Mg2 O4 2.035803 1_545
Mg2 O5 2.077093 1_555
Mg2 O6 2.078289 1_555
Mg2 O11 2.078289 1_555
Mg3 O17 2.006618 1_665
Mg3 O22 2.015598 1_555
Mg3 O27 2.044214 1_565
Mg3 O25 2.044214 1_655
Mg3 O12 2.094925 1_655
Mg3 O16 2.094925 1_565
Mg4 O20 1.974526 1_455
Mg4 O24 1.974526 1_545
Mg4 O17 1.978162 1_555
Mg4 O26 1.992473 1_445
Mg5 O22 1.965071 1_555
Mg5 O14 1.976225 1_555
Mg5 O18 1.976225 1_555
Mg5 O13 1.989737 1_555
Mg6 O0 2.015270 1_555
Mg6 O2 2.015270 1_555
Mg6 O3 2.015445 1_555
Mg6 O28 2.086257 1_556
Mg6 O29 2.087461 1_556
Mg6 O31 2.087461 1_556
Mg7 O25 1.935525 1_555
Mg7 O27 1.935525 1_555
Mg7 O21 1.962478 1_555
Mg7 O30 2.002170 1_555
Al0 O0 1.875534 1_555
Al0 O2 1.875534 1_555
Al0 O1 1.936788 1_555
Al0 O6 1.977306 1_555
Al0 O11 1.977306 1_555
Al0 O7 2.033582 1_555
Al1 O3 1.875680 1_555
Al1 O0 1.875710 1_555
Al1 O1 1.935759 1_555
Al1 O5 1.978344 1_655
Al1 O11 1.978865 1_655
Al1 O7 2.032816 1_655
Al2 O3 1.875680 1_555
Al2 O2 1.875710 1_555
Al2 O1 1.935759 1_555
Al2 O5 1.978344 1_565
Al2 O6 1.978865 1_565
Al2 O7 2.032816 1_565
Al3 O8 1.863959 1_455
Al3 O4 1.863959 1_545
Al3 O18 1.906854 1_455
Al3 O14 1.906854 1_545
Al3 O9 2.018087 1_555
Al3 O15 2.056900 1_445
Al4 O4 1.863570 1_545
Al4 O10 1.864948 1_555
Al4 O18 1.913087 1_555
Al4 O13 1.918669 1_545
Al4 O9 2.017654 1_555
Al4 O15 2.052864 1_545
Al5 O9 1.798853 1_555
Al5 O12 1.817847 1_555
Al5 O16 1.817847 1_555
Al5 O19 1.854044 1_555
Al6 O8 1.863570 1_455
Al6 O10 1.864948 1_555
Al6 O14 1.913087 1_555
Al6 O13 1.918669 1_455
Al6 O9 2.017654 1_555
Al6 O15 2.052864 1_455
Al7 O17 1.883538 1_565
Al7 O22 1.889630 1_555
Al7 O27 1.895462 1_565
Al7 O21 1.938424 1_555
Al7 O12 2.004574 1_555
Al7 O19 2.051070 1_565
Al8 O6 1.834696 1_565
Al8 O11 1.834696 1_655
Al8 O5 1.837438 1_665
Al8 O15 1.858342 1_555
Al9 O18 1.901414 1_565
Al9 O14 1.901414 1_655
Al9 O13 1.903646 1_555
Al9 O12 1.956397 1_655
Al9 O16 1.956397 1_565
Al9 O19 2.015954 1_665
Al10 O17 1.883538 1_655
Al10 O22 1.889630 1_555
Al10 O25 1.895462 1_655
Al10 O21 1.938424 1_555
Al10 O16 2.004574 1_555
Al10 O19 2.051070 1_655
Al11 O24 1.911854 1_555
Al11 O20 1.911854 1_555
Al11 O30 1.914090 1_555
Al11 O23 1.931150 1_555
Al11 O29 1.988858 1_555
Al11 O31 1.988858 1_555
Al12 O30 1.909035 1_555
Al12 O20 1.922313 1_455
Al12 O23 1.923736 1_455
Al12 O26 1.925801 1_455
Al12 O31 1.993700 1_555
Al12 O28 1.994314 1_555
Al13 O27 1.885391 1_565
Al13 O25 1.885391 1_655
Al13 O24 1.947217 1_555
Al13 O20 1.947217 1_555
Al13 O26 1.948401 1_555
Al13 O21 1.954630 1_555
Al14 O30 1.909035 1_555
Al14 O24 1.922313 1_545
Al14 O23 1.923736 1_545
Al14 O26 1.925801 1_545
Al14 O29 1.993700 1_555
Al14 O28 1.994314 1_555
Al15 O31 1.817766 1_545
Al15 O29 1.817766 1_455
Al15 O28 1.819522 1_555
Al15 O7 1.877755 1_554
