# generated using pymatgen
data_K3Y(BO3)2
_symmetry_space_group_name_H-M   'P 1'
_cell_length_a   5.58181700
_cell_length_b   6.90723700
_cell_length_c   9.44738300
_cell_angle_alpha   90.00000000
_cell_angle_beta   90.00000000
_cell_angle_gamma   90.00000000
_symmetry_Int_Tables_number   1
_chemical_formula_structural   K3Y(BO3)2
_chemical_formula_sum   'K6 Y2 B4 O12'
_cell_volume   364.24321774
_cell_formula_units_Z   2
loop_
 _symmetry_equiv_pos_site_id
 _symmetry_equiv_pos_as_xyz
  1  'x, y, z'
loop_
 _atom_site_type_symbol
 _atom_site_label
 _atom_site_symmetry_multiplicity
 _atom_site_fract_x
 _atom_site_fract_y
 _atom_site_fract_z
 _atom_site_occupancy
  K  K0  1  0.00000000  0.23253700  0.33267500  1
  K  K1  1  0.00000000  0.76746300  0.66732500  1
  K  K2  1  0.50000000  0.73253700  0.16732500  1
  K  K3  1  0.50000000  0.50000000  0.50000000  1
  K  K4  1  0.50000000  0.26746300  0.83267500  1
  K  K5  1  0.00000000  0.00000000  0.00000000  1
  Y  Y0  1  0.00000000  0.50000000  0.00000000  1
  Y  Y1  1  0.50000000  0.00000000  0.50000000  1
  B  B0  1  0.00000000  0.76346600  0.33398700  1
  B  B1  1  0.00000000  0.23653400  0.66601300  1
  B  B2  1  0.50000000  0.73653400  0.83398700  1
  B  B3  1  0.50000000  0.26346600  0.16601300  1
  O  O0  1  0.71633100  0.29975500  0.09683100  1
  O  O1  1  0.21633100  0.20024500  0.59683100  1
  O  O2  1  0.50000000  0.19231900  0.30419500  1
  O  O3  1  0.71633100  0.70024500  0.90316900  1
  O  O4  1  0.28366900  0.29975500  0.09683100  1
  O  O5  1  0.21633100  0.79975500  0.40316900  1
  O  O6  1  0.78366900  0.20024500  0.59683100  1
  O  O7  1  0.28366900  0.70024500  0.90316900  1
  O  O8  1  0.78366900  0.79975500  0.40316900  1
  O  O9  1  0.00000000  0.30768100  0.80419500  1
  O  O10  1  0.00000000  0.69231900  0.19580500  1
  O  O11  1  0.50000000  0.80768100  0.69580500  1
loop_
_geom_bond_atom_site_label_1
_geom_bond_atom_site_label_2
_geom_bond_distance
_geom_bond_site_symmetry_2
K0 O4 2.772571 1_555
K0 O0 2.772571 1_455
K0 O1 2.781329 1_555
K0 O6 2.781329 1_455
K0 O2 2.817576 1_455
K0 O2 2.817576 1_555
K1 O3 2.772571 1_455
K1 O7 2.772571 1_555
K1 O5 2.781329 1_555
K1 O8 2.781329 1_455
K1 O11 2.817576 1_555
K1 O11 2.817576 1_455
K2 O8 2.772571 1_555
K2 O5 2.772571 1_555
K2 O7 2.781329 1_554
K2 O3 2.781329 1_554
K2 O10 2.817576 1_655
K2 O10 2.817576 1_555
K3 O8 2.762401 1_555
K3 O6 2.762401 1_555
K3 O1 2.762401 1_555
K3 O5 2.762401 1_555
K3 O11 2.817536 1_555
K3 O2 2.817536 1_555
K4 O6 2.772571 1_555
K4 O1 2.772571 1_555
K4 O4 2.781329 1_556
K4 O0 2.781329 1_556
K4 O9 2.817576 1_655
K4 O9 2.817576 1_555
K5 O0 2.762401 1_455
K5 O3 2.762401 1_444
K5 O4 2.762401 1_555
K5 O7 2.762401 1_544
K5 O9 2.817536 1_554
K5 O10 2.817536 1_545
B0 O10 1.394892 1_555
B0 O5 1.395748 1_555
B0 O8 1.395748 1_455
B1 O9 1.394892 1_555
B1 O1 1.395748 1_555
B1 O6 1.395748 1_455
B2 O11 1.394892 1_555
B2 O7 1.395748 1_555
B2 O3 1.395748 1_555
B3 O2 1.394892 1_555
B3 O4 1.395748 1_555
B3 O0 1.395748 1_555
O0 Y0 2.292826 1_655
O1 Y1 2.292826 1_555
O2 Y1 2.277401 1_555
O3 Y0 2.292826 1_656
O4 Y0 2.292826 1_555
O5 Y1 2.292826 1_565
O6 Y1 2.292826 1_555
O7 Y0 2.292826 1_556
O8 Y1 2.292826 1_565
O9 Y0 2.277401 1_556
O10 Y0 2.277401 1_555
O11 Y1 2.277401 1_565
