# generated using pymatgen
data_TlV5Se8
_symmetry_space_group_name_H-M   'P 1'
_cell_length_a   9.31861017
_cell_length_b   9.31861017
_cell_length_c   9.24011911
_cell_angle_alpha   76.99164296
_cell_angle_beta   76.99164296
_cell_angle_gamma   21.55098557
_symmetry_Int_Tables_number   1
_chemical_formula_structural   TlV5Se8
_chemical_formula_sum   'Tl1 V5 Se8'
_cell_volume   286.89582686
_cell_formula_units_Z   1
loop_
 _symmetry_equiv_pos_site_id
 _symmetry_equiv_pos_as_xyz
  1  'x, y, z'
loop_
 _atom_site_type_symbol
 _atom_site_label
 _atom_site_symmetry_multiplicity
 _atom_site_fract_x
 _atom_site_fract_y
 _atom_site_fract_z
 _atom_site_occupancy
  Tl  Tl0  1  0.00000000  0.00000000  0.00000000  1
  V  V0  1  0.85480000  0.85480000  0.49700600  1
  V  V1  1  0.20710200  0.20710200  0.16605800  1
  V  V2  1  0.79289800  0.79289800  0.83394200  1
  V  V3  1  0.50000000  0.50000000  0.50000000  1
  V  V4  1  0.14520000  0.14520000  0.50299400  1
  Se  Se0  1  0.33571700  0.33571700  0.99589700  1
  Se  Se1  1  0.74040600  0.74040600  0.35044200  1
  Se  Se2  1  0.93039200  0.93039200  0.68028800  1
  Se  Se3  1  0.25959400  0.25959400  0.64955800  1
  Se  Se4  1  0.06960800  0.06960800  0.31971200  1
  Se  Se5  1  0.41328300  0.41328300  0.32003300  1
  Se  Se6  1  0.66428300  0.66428300  0.00410300  1
  Se  Se7  1  0.58671700  0.58671700  0.67996700  1
loop_
_geom_bond_atom_site_label_1
_geom_bond_atom_site_label_2
_geom_bond_distance
_geom_bond_site_symmetry_2
Se0 V1 2.514032 1_556
Se0 V2 2.535153 1_455
Se0 V2 2.535153 1_545
Se1 V1 2.604973 1_655
Se1 V1 2.604973 1_565
Se1 V4 2.633375 1_565
Se1 V4 2.633375 1_655
Se1 V0 2.742324 1_555
Se2 V0 2.420252 1_555
Se2 V3 2.541993 1_655
Se2 V3 2.541993 1_565
Se2 V2 2.591297 1_555
Se3 V2 2.604973 1_545
Se3 V2 2.604973 1_455
Se3 V0 2.633375 1_545
Se3 V0 2.633375 1_455
Se3 V4 2.742324 1_555
Se4 V4 2.420252 1_555
Se4 V3 2.541993 1_455
Se4 V3 2.541993 1_545
Se4 V1 2.591297 1_555
Se5 V0 2.460379 1_545
Se5 V0 2.460379 1_455
Se5 V3 2.548700 1_555
Se6 V2 2.514032 1_554
Se6 V1 2.535153 1_565
Se6 V1 2.535153 1_655
Se7 V4 2.460379 1_565
Se7 V4 2.460379 1_655
Se7 V3 2.548700 1_555
