# generated using pymatgen
data_NbCl3O
_symmetry_space_group_name_H-M   'P 1'
_cell_length_a   11.22192364
_cell_length_b   11.22192364
_cell_length_c   3.92948470
_cell_angle_alpha   90.00000000
_cell_angle_beta   90.00000000
_cell_angle_gamma   90.00000000
_symmetry_Int_Tables_number   1
_chemical_formula_structural   NbCl3O
_chemical_formula_sum   'Nb4 Cl12 O4'
_cell_volume   494.84617828
_cell_formula_units_Z   4
loop_
 _symmetry_equiv_pos_site_id
 _symmetry_equiv_pos_as_xyz
  1  'x, y, z'
loop_
 _atom_site_type_symbol
 _atom_site_label
 _atom_site_symmetry_multiplicity
 _atom_site_fract_x
 _atom_site_fract_y
 _atom_site_fract_z
 _atom_site_occupancy
  Nb  Nb0  1  0.62424263  0.87575737  0.70415521  1
  Nb  Nb1  1  0.12424263  0.62424263  0.29584479  1
  Nb  Nb2  1  0.37575737  0.12424263  0.70415521  1
  Nb  Nb3  1  0.87575737  0.37575737  0.29584479  1
  Cl  Cl0  1  0.10266645  0.39733355  0.23690387  1
  Cl  Cl1  1  0.82689479  0.89628034  0.75374429  1
  Cl  Cl2  1  0.17310521  0.10371966  0.75374429  1
  Cl  Cl3  1  0.39733355  0.89733355  0.76309613  1
  Cl  Cl4  1  0.89733355  0.60266645  0.23690387  1
  Cl  Cl5  1  0.60371966  0.67310521  0.75374429  1
  Cl  Cl6  1  0.39628034  0.32689479  0.75374429  1
  Cl  Cl7  1  0.89628034  0.17310521  0.24625571  1
  Cl  Cl8  1  0.60266645  0.10266645  0.76309613  1
  Cl  Cl9  1  0.67310521  0.39628034  0.24625571  1
  Cl  Cl10  1  0.32689479  0.60371966  0.24625571  1
  Cl  Cl11  1  0.10371966  0.82689479  0.24625571  1
  O  O0  1  0.11264256  0.61264256  0.75254646  1
  O  O1  1  0.61264256  0.88735744  0.24745354  1
  O  O2  1  0.38735744  0.11264256  0.24745354  1
  O  O3  1  0.88735744  0.38735744  0.75254646  1
loop_
_geom_bond_atom_site_label_1
_geom_bond_atom_site_label_2
_geom_bond_distance
_geom_bond_site_symmetry_2
Nb0 O1 1.804020 1_555
Nb0 O1 2.142805 1_556
Nb1 O0 1.804020 1_555
Nb1 O0 2.142805 1_554
Nb2 O2 1.804020 1_555
Nb2 O2 2.142805 1_556
Nb3 O3 1.804020 1_555
Nb3 O3 2.142805 1_554
Cl0 Nb1 2.568306 1_555
Cl0 Nb3 2.568306 1_455
Cl1 Nb0 2.294070 1_555
Cl2 Nb2 2.294070 1_555
Cl3 Nb2 2.568306 1_565
Cl3 Nb0 2.568306 1_555
Cl4 Nb1 2.568306 1_655
Cl4 Nb3 2.568306 1_555
Cl5 Nb0 2.294070 1_555
Cl6 Nb2 2.294070 1_555
Cl7 Nb3 2.294070 1_555
Cl8 Nb2 2.568306 1_555
Cl8 Nb0 2.568306 1_545
Cl9 Nb3 2.294070 1_555
Cl10 Nb1 2.294070 1_555
Cl11 Nb1 2.294070 1_555
