# generated using pymatgen
data_SbMoOF9
_symmetry_space_group_name_H-M   'P 1'
_cell_length_a   10.30380952
_cell_length_b   7.27714005
_cell_length_c   11.59550523
_cell_angle_alpha   54.00872395
_cell_angle_beta   90.00000000
_cell_angle_gamma   90.00000000
_symmetry_Int_Tables_number   1
_chemical_formula_structural   SbMoOF9
_chemical_formula_sum   'Sb4 Mo4 O4 F36'
_cell_volume   703.48349303
_cell_formula_units_Z   4
loop_
 _symmetry_equiv_pos_site_id
 _symmetry_equiv_pos_as_xyz
  1  'x, y, z'
loop_
 _atom_site_type_symbol
 _atom_site_label
 _atom_site_symmetry_multiplicity
 _atom_site_fract_x
 _atom_site_fract_y
 _atom_site_fract_z
 _atom_site_occupancy
  Sb  Sb0  1  0.51638454  0.89754951  0.31354570  1
  Sb  Sb1  1  0.01638454  0.10245049  0.18645430  1
  Sb  Sb2  1  0.48361546  0.10245049  0.68645430  1
  Sb  Sb3  1  0.98361546  0.89754951  0.81354570  1
  Mo  Mo0  1  0.68257056  0.51503412  0.84109772  1
  Mo  Mo1  1  0.81742944  0.51503412  0.34109772  1
  Mo  Mo2  1  0.18257056  0.48496588  0.65890228  1
  Mo  Mo3  1  0.31742944  0.48496588  0.15890228  1
  O  O0  1  0.25518221  0.74041609  0.07083933  1
  O  O1  1  0.24481779  0.74041609  0.57083933  1
  O  O2  1  0.74481779  0.25958391  0.92916067  1
  O  O3  1  0.75518221  0.25958391  0.42916067  1
  F  F0  1  0.75024856  0.64915851  0.66346769  1
  F  F1  1  0.48157989  0.98742784  0.87933099  1
  F  F2  1  0.15195481  0.90649443  0.21980626  1
  F  F3  1  0.14829397  0.33347078  0.14694257  1
  F  F4  1  0.98296412  0.77569129  0.00730808  1
  F  F5  1  0.01842011  0.98742784  0.37933099  1
  F  F6  1  0.24975144  0.35084149  0.33653231  1
  F  F7  1  0.48109133  0.53298847  0.19190657  1
  F  F8  1  0.51703588  0.77569129  0.50730808  1
  F  F9  1  0.63975078  0.53575651  0.98631329  1
  F  F10  1  0.01703588  0.22430871  -0.00730808  1
  F  F11  1  0.61238158  0.31107451  0.65145460  1
  F  F12  1  0.34804519  0.90649443  0.71980626  1
  F  F13  1  0.84804519  0.09350557  0.78019374  1
  F  F14  1  0.38661051  0.11747804  0.27813297  1
  F  F15  1  0.88761842  0.31107451  0.15145460  1
  F  F16  1  0.11238158  0.68892549  0.84854540  1
  F  F17  1  0.11338949  0.11747804  0.77813297  1
  F  F18  1  0.48296412  0.22430871  0.49269192  1
  F  F19  1  0.36024922  0.46424349  0.01368671  1
  F  F20  1  0.25024856  0.35084149  0.83653231  1
  F  F21  1  0.86024922  0.53575651  0.48631329  1
  F  F22  1  0.61338949  0.88252196  0.72186703  1
  F  F23  1  0.35170603  0.33347078  0.64694257  1
  F  F24  1  0.88661051  0.88252196  0.22186703  1
  F  F25  1  0.13975078  0.46424349  0.51368671  1
  F  F26  1  0.74975144  0.64915851  0.16346769  1
  F  F27  1  0.38761842  0.68892549  0.34854540  1
  F  F28  1  0.51842011  0.01257216  0.12066901  1
  F  F29  1  0.98109133  0.46701153  0.30809343  1
  F  F30  1  0.65195481  0.09350557  0.28019374  1
  F  F31  1  0.51890867  0.46701153  0.80809343  1
  F  F32  1  0.85170603  0.66652922  0.85305743  1
  F  F33  1  0.98157989  0.01257216  0.62066901  1
  F  F34  1  0.64829397  0.66652922  0.35305743  1
  F  F35  1  0.01890867  0.53298847  0.69190657  1
loop_
_geom_bond_atom_site_label_1
_geom_bond_atom_site_label_2
_geom_bond_distance
_geom_bond_site_symmetry_2
Mo0 O2 1.636683 1_555
Mo1 O3 1.636683 1_555
Mo2 O1 1.636683 1_555
Mo3 O0 1.636683 1_555
F0 Mo0 1.821680 1_555
F1 Sb2 1.871568 1_565
F2 Sb1 1.867129 1_565
F3 Sb1 1.994565 1_555
F3 Mo3 2.109849 1_555
F4 Sb3 1.868878 1_554
F5 Sb1 1.871568 1_565
F6 Mo3 1.821680 1_555
F7 Mo3 1.808182 1_555
F8 Sb0 1.868878 1_555
F9 Mo0 1.830626 1_555
F10 Sb1 1.868878 1_555
F11 Sb2 1.872373 1_555
F12 Sb2 1.867129 1_565
F13 Sb3 1.867129 1_545
F14 Sb0 1.935371 1_545
F14 Mo3 2.285983 1_555
F15 Sb1 1.872373 1_655
F16 Sb3 1.872373 1_455
F17 Sb3 1.935371 1_445
F17 Mo2 2.285983 1_555
F18 Sb2 1.868878 1_555
F19 Mo3 1.830626 1_555
F20 Mo2 1.821680 1_555
F21 Mo1 1.830626 1_555
F22 Sb2 1.935371 1_565
F22 Mo0 2.285983 1_555
F23 Sb2 1.994565 1_555
F23 Mo2 2.109849 1_555
F24 Sb1 1.935371 1_665
F24 Mo1 2.285983 1_555
F25 Mo2 1.830626 1_555
F26 Mo1 1.821680 1_555
F27 Sb0 1.872373 1_555
F28 Sb0 1.871568 1_545
F29 Mo1 1.808182 1_555
F30 Sb0 1.867129 1_545
F31 Mo0 1.808182 1_555
F32 Sb3 1.994565 1_555
F32 Mo0 2.109849 1_555
F33 Sb3 1.871568 1_545
F34 Sb0 1.994565 1_555
F34 Mo1 2.109849 1_555
F35 Mo2 1.808182 1_555
