# generated using pymatgen
data_KCSeN
_symmetry_space_group_name_H-M   'P 1'
_cell_length_a   7.75116400
_cell_length_b   4.60398500
_cell_length_c   12.03498326
_cell_angle_alpha   79.65727420
_cell_angle_beta   90.00000000
_cell_angle_gamma   90.00000000
_symmetry_Int_Tables_number   1
_chemical_formula_structural   KCSeN
_chemical_formula_sum   'K4 C4 Se4 N4'
_cell_volume   422.50484483
_cell_formula_units_Z   4
loop_
 _symmetry_equiv_pos_site_id
 _symmetry_equiv_pos_as_xyz
  1  'x, y, z'
loop_
 _atom_site_type_symbol
 _atom_site_label
 _atom_site_symmetry_multiplicity
 _atom_site_fract_x
 _atom_site_fract_y
 _atom_site_fract_z
 _atom_site_occupancy
  K  K0  1  0.69553800  0.62891900  0.09666500  1
  K  K1  1  0.30446200  0.37108100  0.90333500  1
  K  K2  1  0.80446200  0.62891900  0.59666500  1
  K  K3  1  0.19553800  0.37108100  0.40333500  1
  C  C0  1  0.77665000  0.15927800  0.88436400  1
  C  C1  1  0.72335000  0.15927800  0.38436400  1
  C  C2  1  0.22335000  0.84072200  0.11563600  1
  C  C3  1  0.27665000  0.84072200  0.61563600  1
  Se  Se0  1  0.44824200  0.96116100  0.69773700  1
  Se  Se1  1  0.94824200  0.03883900  0.80226300  1
  Se  Se2  1  0.05175800  0.96116100  0.19773700  1
  Se  Se3  1  0.55175800  0.03883900  0.30226300  1
  N  N0  1  0.66395500  0.23792300  0.93878800  1
  N  N1  1  0.83604500  0.23792300  0.43878800  1
  N  N2  1  0.16395500  0.76207700  0.56121200  1
  N  N3  1  0.33604500  0.76207700  0.06121200  1
loop_
_geom_bond_atom_site_label_1
_geom_bond_atom_site_label_2
_geom_bond_distance
_geom_bond_site_symmetry_2
K0 N0 2.852852 1_554
K0 N3 2.868534 1_555
K0 N0 3.101407 1_564
K0 Se2 3.480130 1_655
K0 Se3 3.511602 1_555
K0 Se3 3.550083 1_565
K1 N3 2.852852 1_556
K1 N0 2.868534 1_555
K1 N3 3.101407 1_546
K1 Se1 3.480130 1_455
K1 Se0 3.511602 1_555
K1 Se0 3.550083 1_545
K2 N1 2.852852 1_555
K2 N2 2.868534 1_655
K2 N1 3.101407 1_565
K2 Se0 3.480130 1_555
K2 Se1 3.511602 1_555
K2 Se1 3.550083 1_565
K3 N2 2.852852 1_555
K3 N1 2.868534 1_455
K3 N2 3.101407 1_545
K3 Se3 3.480130 1_555
K3 Se2 3.511602 1_555
K3 Se2 3.550083 1_545
C0 N0 1.186721 1_555
C0 Se1 1.802640 1_555
C0 K0 3.262751 1_546
C1 N1 1.186721 1_555
C1 Se3 1.802640 1_555
C1 K2 3.262751 1_545
C2 N3 1.186721 1_555
C2 Se2 1.802640 1_555
C2 K1 3.262751 1_564
C3 N2 1.186721 1_555
C3 Se0 1.802640 1_555
C3 K3 3.262751 1_565
