# generated using pymatgen
data_DyP5O14
_symmetry_space_group_name_H-M   'P 1'
_cell_length_a   9.06174924
_cell_length_b   9.06174924
_cell_length_c   12.40525492
_cell_angle_alpha   89.11711229
_cell_angle_beta   89.11711229
_cell_angle_gamma   89.57297826
_symmetry_Int_Tables_number   1
_chemical_formula_structural   DyP5O14
_chemical_formula_sum   'Dy4 P20 O56'
_cell_volume   1018.39283910
_cell_formula_units_Z   4
loop_
 _symmetry_equiv_pos_site_id
 _symmetry_equiv_pos_as_xyz
  1  'x, y, z'
loop_
 _atom_site_type_symbol
 _atom_site_label
 _atom_site_symmetry_multiplicity
 _atom_site_fract_x
 _atom_site_fract_y
 _atom_site_fract_z
 _atom_site_occupancy
  Dy  Dy0  1  0.47919362  0.52080638  0.25000000  1
  Dy  Dy1  1  0.03124785  0.96875215  0.25000000  1
  Dy  Dy2  1  0.52080638  0.47919362  0.75000000  1
  Dy  Dy3  1  0.96875215  0.03124785  0.75000000  1
  P  P0  1  0.38714909  0.31948306  0.49840163  1
  P  P1  1  0.31948306  0.38714909  0.99840163  1
  P  P2  1  0.51886079  0.18282122  0.10263113  1
  P  P3  1  0.82369530  0.12606636  0.03296637  1
  P  P4  1  0.87393364  0.17630470  0.46703363  1
  P  P5  1  0.57173911  0.07340160  0.75952699  1
  P  P6  1  0.81717878  0.48113921  0.39736887  1
  P  P7  1  0.07340160  0.57173911  0.25952699  1
  P  P8  1  0.61285091  0.68051694  0.50159837  1
  P  P9  1  0.48113921  0.81717878  0.89736887  1
  P  P10  1  0.31862445  0.04527745  0.60870865  1
  P  P11  1  0.95472255  0.68137555  0.89129135  1
  P  P12  1  0.18282122  0.51886079  0.60263113  1
  P  P13  1  0.68051694  0.61285091  0.00159837  1
  P  P14  1  0.68137555  0.95472255  0.39129135  1
  P  P15  1  0.17630470  0.87393364  0.96703363  1
  P  P16  1  0.04527745  0.31862445  0.10870865  1
  P  P17  1  0.42826089  0.92659840  0.24047301  1
  P  P18  1  0.92659840  0.42826089  0.74047301  1
  P  P19  1  0.12606636  0.82369530  0.53296637  1
  O  O0  1  0.35749028  0.48837166  0.08585033  1
  O  O1  1  0.07561417  0.87318323  0.42666038  1
  O  O2  1  0.17319853  0.65302501  0.52203226  1
  O  O3  1  0.72071187  0.02104828  0.73046163  1
  O  O4  1  0.89585776  0.79866977  0.82208231  1
  O  O5  1  0.20133023  0.10414224  0.67791769  1
  O  O6  1  0.28289542  0.53925044  0.69194357  1
  O  O7  1  0.22867941  0.54120646  0.28405604  1
  O  O8  1  0.65302501  0.17319853  0.02203226  1
  O  O9  1  0.97895172  0.27928813  0.76953837  1
  O  O10  1  0.34697499  0.82680147  0.97796774  1
  O  O11  1  0.12681677  0.92438583  0.07333962  1
  O  O12  1  0.51162834  0.64250972  0.41414967  1
  O  O13  1  0.46866109  0.01551341  0.66428375  1
  O  O14  1  0.98448659  0.53133891  0.83571625  1
  O  O15  1  0.38815031  0.22371770  0.02661120  1
  O  O16  1  0.61184969  0.77628230  0.97338880  1
  O  O17  1  0.01551341  0.46866109  0.16428375  1
  O  O18  1  0.34864817  0.42307750  0.88480352  1
  O  O19  1  0.15798825  0.96399441  0.86763534  1
  O  O20  1  0.57692250  0.65135183  0.61519648  1
  O  O21  1  0.54120646  0.22867941  0.78405604  1
  O  O22  1  0.53925044  0.28289542  0.19194357  1
  O  O23  1  0.14581585  0.35186143  0.00747725  1
  O  O24  1  0.77628230  0.61184969  0.47338880  1
  O  O25  1  0.71710458  0.46074956  0.30805643  1
  O  O26  1  0.64813857  0.85418415  0.49252275  1
  O  O27  1  0.01910917  0.49175640  0.63703060  1
  O  O28  1  0.85418415  0.64813857  0.99252275  1
  O  O29  1  0.49175640  0.01910917  0.13703060  1
  O  O30  1  0.02104828  0.72071187  0.23046163  1
  O  O31  1  0.92438583  0.12681677  0.57333962  1
  O  O32  1  0.10414224  0.20133023  0.17791769  1
  O  O33  1  0.03600559  0.84201175  0.63236466  1
  O  O34  1  0.65135183  0.57692250  0.11519648  1
  O  O35  1  0.28850216  0.89323190  0.55552313  1
  O  O36  1  0.96399441  0.15798825  0.36763534  1
  O  O37  1  0.35186143  0.14581585  0.50747725  1
  O  O38  1  0.48837166  0.35749028  0.58585033  1
  O  O39  1  0.98089083  0.50824360  0.36296940  1
  O  O40  1  0.50824360  0.98089083  0.86296940  1
  O  O41  1  0.46074956  0.71710458  0.80805643  1
  O  O42  1  0.27928813  0.97895172  0.26953837  1
  O  O43  1  0.89323190  0.28850216  0.05552313  1
  O  O44  1  0.53133891  0.98448659  0.33571625  1
  O  O45  1  0.87318323  0.07561417  0.92666038  1
  O  O46  1  0.77132059  0.45879354  0.71594396  1
  O  O47  1  0.82680147  0.34697499  0.47796774  1
  O  O48  1  0.84201175  0.03600559  0.13236466  1
  O  O49  1  0.42307750  0.34864817  0.38480352  1
  O  O50  1  0.10676810  0.71149784  0.94447687  1
  O  O51  1  0.45879354  0.77132059  0.21594396  1
  O  O52  1  0.64250972  0.51162834  0.91414967  1
  O  O53  1  0.79866977  0.89585776  0.32208231  1
  O  O54  1  0.71149784  0.10676810  0.44447687  1
  O  O55  1  0.22371770  0.38815031  0.52661120  1
loop_
_geom_bond_atom_site_label_1
_geom_bond_atom_site_label_2
_geom_bond_distance
_geom_bond_site_symmetry_2
Dy0 O51 2.309241 1_555
Dy0 O7 2.309241 1_555
Dy0 O49 2.322513 1_555
Dy0 O34 2.322513 1_555
Dy0 O22 2.341156 1_555
Dy0 O25 2.341156 1_555
Dy0 O0 2.354088 1_555
Dy0 O12 2.354088 1_555
Dy1 O30 2.267140 1_555
Dy1 O42 2.267140 1_555
Dy1 O48 2.340013 1_465
Dy1 O36 2.340013 1_465
Dy1 O53 2.371122 1_455
Dy1 O32 2.371122 1_565
Dy1 O11 2.382824 1_555
Dy1 O1 2.382824 1_555
Dy2 O46 2.309241 1_555
Dy2 O21 2.309241 1_555
Dy2 O20 2.322513 1_555
Dy2 O18 2.322513 1_555
Dy2 O6 2.341156 1_555
Dy2 O41 2.341156 1_555
Dy2 O52 2.354088 1_555
Dy2 O38 2.354088 1_555
Dy3 O3 2.267140 1_555
Dy3 O9 2.267140 1_555
Dy3 O33 2.340013 1_645
Dy3 O19 2.340013 1_645
Dy3 O4 2.371122 1_545
Dy3 O5 2.371122 1_655
Dy3 O31 2.382824 1_555
Dy3 O45 2.382824 1_555
O0 P1 1.477736 1_554
O1 P19 1.465105 1_555
O2 P12 1.564937 1_555
O2 P19 1.608580 1_555
O3 P5 1.469072 1_555
O4 P11 1.459085 1_555
O5 P10 1.459085 1_555
O6 P12 1.457333 1_555
O7 P7 1.467596 1_555
O8 P2 1.564937 1_555
O8 P3 1.608580 1_555
O9 P18 1.469072 1_555
O10 P9 1.564937 1_555
O10 P15 1.608580 1_555
O11 P15 1.465105 1_554
O12 P8 1.477736 1_555
O13 P10 1.553782 1_555
O13 P5 1.613707 1_555
O14 P11 1.553782 1_555
O14 P18 1.613707 1_555
O15 P2 1.564208 1_555
O15 P1 1.637052 1_554
O16 P9 1.564208 1_555
O16 P13 1.637052 1_556
O17 P16 1.553782 1_555
O17 P7 1.613707 1_555
O18 P1 1.461983 1_555
O19 P15 1.478951 1_555
O20 P8 1.461983 1_555
O21 P5 1.467596 1_555
O22 P2 1.457333 1_555
O23 P16 1.566826 1_555
O23 P1 1.610118 1_554
O24 P6 1.564208 1_555
O24 P8 1.637052 1_555
O25 P6 1.457333 1_555
O26 P14 1.566826 1_555
O26 P8 1.610118 1_555
O27 P12 1.557544 1_555
O27 P18 1.622278 1_455
O28 P11 1.566826 1_555
O28 P13 1.610118 1_556
O29 P2 1.557544 1_555
O29 P17 1.622278 1_545
O30 P7 1.469072 1_555
O31 P4 1.465105 1_555
O32 P16 1.459085 1_555
O33 P19 1.478951 1_555
O34 P13 1.461983 1_555
O35 P10 1.564390 1_565
O35 P19 1.635222 1_555
O36 P4 1.478951 1_555
O37 P10 1.566826 1_555
O37 P0 1.610118 1_555
O38 P0 1.477736 1_555
O39 P6 1.557544 1_555
O39 P7 1.622278 1_655
O40 P9 1.557544 1_555
O40 P5 1.622278 1_565
O41 P9 1.457333 1_555
O42 P17 1.469072 1_555
O43 P16 1.564390 1_655
O43 P3 1.635222 1_555
O44 P14 1.553782 1_555
O44 P17 1.613707 1_555
O45 P3 1.465105 1_556
O46 P18 1.467596 1_555
O47 P6 1.564937 1_555
O47 P4 1.608580 1_555
O48 P3 1.478951 1_555
O49 P0 1.461983 1_555
O50 P11 1.564390 1_455
O50 P15 1.635222 1_555
O51 P17 1.467596 1_555
O52 P13 1.477736 1_556
O53 P14 1.459085 1_555
O54 P14 1.564390 1_545
O54 P4 1.635222 1_555
O55 P12 1.564208 1_555
O55 P0 1.637052 1_555
