# generated using pymatgen
data_Rb2Sb4O11
_symmetry_space_group_name_H-M   'P 1'
_cell_length_a   10.50301515
_cell_length_b   10.50301343
_cell_length_c   7.23813278
_cell_angle_alpha   85.09803476
_cell_angle_beta   85.09803017
_cell_angle_gamma   42.43730381
_symmetry_Int_Tables_number   1
_chemical_formula_structural   Rb2Sb4O11
_chemical_formula_sum   'Rb4 Sb8 O22'
_cell_volume   536.52048763
_cell_formula_units_Z   2
loop_
 _symmetry_equiv_pos_site_id
 _symmetry_equiv_pos_as_xyz
  1  'x, y, z'
loop_
 _atom_site_type_symbol
 _atom_site_label
 _atom_site_symmetry_multiplicity
 _atom_site_fract_x
 _atom_site_fract_y
 _atom_site_fract_z
 _atom_site_occupancy
  Rb  Rb0  1  0.50858996  0.50858949  0.74474942  1
  Rb  Rb1  1  0.26493348  0.26493437  0.00685540  1
  Rb  Rb2  1  0.49141019  0.49141002  0.25525021  1
  Rb  Rb3  1  0.73506523  0.73506524  0.99314414  1
  Sb  Sb0  1  0.92835267  0.92835245  0.09836665  1
  Sb  Sb1  1  0.43135453  0.91745521  0.56342888  1
  Sb  Sb2  1  0.08254496  0.56864544  0.43657063  1
  Sb  Sb3  1  0.91745509  0.43135448  0.56342927  1
  Sb  Sb4  1  0.92431692  0.92431671  0.61693162  1
  Sb  Sb5  1  0.07164753  0.07164763  0.90163299  1
  Sb  Sb6  1  0.07568315  0.07568314  0.38306831  1
  Sb  Sb7  1  0.56864579  0.08254479  0.43657055  1
  O  O0  1  0.05076977  0.47621986  0.66653535  1
  O  O1  1  0.11715409  0.11715414  0.13220585  1
  O  O2  1  0.47621996  0.05076981  0.66653509  1
  O  O3  1  0.16546436  0.65729516  0.57023509  1
  O  O4  1  0.83344616  0.83344599  0.50887037  1
  O  O5  1  0.33944223  0.33944212  0.36008914  1
  O  O6  1  0.32587581  0.93124279  0.80913959  1
  O  O7  1  0.82934117  0.17065898  -0.00000014  1
  O  O8  1  0.65729536  0.16546430  0.57023509  1
  O  O9  1  0.67412395  0.06875843  0.19086022  1
  O  O10  1  0.16655389  0.16655391  0.49112956  1
  O  O11  1  0.83453560  0.34270478  0.42976502  1
  O  O12  1  0.06875857  0.67412376  0.19086027  1
  O  O13  1  0.17065912  0.82934105  -0.00000022  1
  O  O14  1  0.52378028  0.94923018  0.33346432  1
  O  O15  1  0.93124154  0.32587639  0.80913976  1
  O  O16  1  0.66055768  0.66055788  0.63991088  1
  O  O17  1  0.97649577  0.97649569  0.34547128  1
  O  O18  1  0.94923022  0.52378012  0.33346459  1
  O  O19  1  0.34270477  0.83453558  0.42976506  1
  O  O20  1  0.02350424  0.02350427  0.65452859  1
  O  O21  1  0.88284594  0.88284582  0.86779415  1
loop_
_geom_bond_atom_site_label_1
_geom_bond_atom_site_label_2
_geom_bond_distance
_geom_bond_site_symmetry_2
O0 Sb2 1.982788 1_555
O0 Sb3 1.988007 1_455
O0 Rb1 2.949043 1_556
O0 Rb3 3.229152 1_455
O1 Sb6 1.919945 1_555
O1 Sb5 1.962652 1_554
O1 Rb1 2.952291 1_555
O2 Sb7 1.982788 1_555
O2 Sb1 1.988006 1_545
O2 Rb1 2.949048 1_556
O2 Rb3 3.229154 1_545
O3 Sb4 1.981328 1_455
O3 Sb2 2.014018 1_555
O3 Rb0 3.025788 1_555
O3 Rb2 3.239497 1_555
O4 Sb4 2.008306 1_555
O4 Sb7 2.031851 1_565
O4 Sb2 2.031851 1_655
O5 Sb2 1.940860 1_555
O5 Sb7 1.940861 1_555
O5 Rb2 3.002898 1_555
O5 Rb1 3.057712 1_555
O6 Sb5 1.950334 1_565
O6 Sb1 1.970227 1_555
O6 Rb0 3.351478 1_555
O6 Rb3 3.453737 1_555
O6 Rb1 3.482892 1_566
O7 Sb5 1.993894 1_654
O7 Sb0 1.993894 1_545
O7 Rb0 3.107101 1_554
O7 Rb2 3.107102 1_555
O8 Sb4 1.981329 1_545
O8 Sb7 2.014018 1_555
O8 Rb0 3.025785 1_555
O8 Rb2 3.239496 1_555
O9 Sb0 1.950335 1_545
O9 Sb7 1.970226 1_555
O9 Rb2 3.351463 1_555
O9 Rb1 3.453753 1_555
O9 Rb3 3.482915 1_544
O10 Sb6 2.008306 1_555
O10 Sb1 2.031851 1_545
O10 Sb3 2.031851 1_455
O11 Sb6 1.981329 1_655
O11 Sb3 2.014018 1_555
O11 Rb2 3.025790 1_555
O11 Rb0 3.239494 1_555
O12 Sb0 1.950335 1_455
O12 Sb2 1.970227 1_555
O12 Rb2 3.351464 1_555
O12 Rb1 3.453747 1_555
O12 Rb3 3.482916 1_454
O13 Sb5 1.993894 1_564
O13 Sb0 1.993895 1_455
O13 Rb2 3.107102 1_555
O13 Rb0 3.107103 1_554
O14 Sb1 1.982787 1_555
O14 Sb7 1.988007 1_565
O14 Rb3 2.949047 1_554
O14 Rb1 3.229154 1_565
O15 Sb5 1.950334 1_655
O15 Sb3 1.970226 1_555
O15 Rb0 3.351467 1_555
O15 Rb3 3.453735 1_555
O15 Rb1 3.482898 1_656
O16 Sb1 1.940861 1_555
O16 Sb3 1.940862 1_555
O16 Rb0 3.002900 1_555
O16 Rb3 3.057700 1_555
O17 Sb6 1.985804 1_665
O17 Sb0 2.096874 1_555
O17 Sb4 2.129939 1_555
O18 Sb3 1.982788 1_555
O18 Sb2 1.988006 1_655
O18 Rb3 2.949049 1_554
O18 Rb1 3.229150 1_655
O19 Sb6 1.981329 1_565
O19 Sb1 2.014018 1_555
O19 Rb2 3.025790 1_555
O19 Rb0 3.239496 1_555
O20 Sb4 1.985805 1_445
O20 Sb5 2.096875 1_555
O20 Sb6 2.129939 1_555
O21 Sb4 1.919945 1_555
O21 Sb0 1.962651 1_556
O21 Rb3 2.952306 1_555
