# generated using pymatgen
data_RbMn4(PO4)3
_symmetry_space_group_name_H-M   'P 1'
_cell_length_a   6.53298700
_cell_length_b   10.04498200
_cell_length_c   16.97967600
_cell_angle_alpha   90.00000000
_cell_angle_beta   90.00000000
_cell_angle_gamma   90.00000000
_symmetry_Int_Tables_number   1
_chemical_formula_structural   RbMn4(PO4)3
_chemical_formula_sum   'Rb4 Mn16 P12 O48'
_cell_volume   1114.26978913
_cell_formula_units_Z   4
loop_
 _symmetry_equiv_pos_site_id
 _symmetry_equiv_pos_as_xyz
  1  'x, y, z'
loop_
 _atom_site_type_symbol
 _atom_site_label
 _atom_site_symmetry_multiplicity
 _atom_site_fract_x
 _atom_site_fract_y
 _atom_site_fract_z
 _atom_site_occupancy
  Rb  Rb0  1  0.00000000  0.70675500  0.53283800  1
  Rb  Rb1  1  0.50000000  0.79324500  0.03283800  1
  Rb  Rb2  1  0.00000000  0.29324500  0.46716200  1
  Rb  Rb3  1  0.50000000  0.20675500  0.96716200  1
  Mn  Mn0  1  0.00000000  0.02041900  0.86049600  1
  Mn  Mn1  1  0.74861000  0.24827600  0.20367700  1
  Mn  Mn2  1  0.00000000  0.53990400  0.09564300  1
  Mn  Mn3  1  0.50000000  0.52041900  0.63950400  1
  Mn  Mn4  1  0.50000000  0.03990400  0.40435700  1
  Mn  Mn5  1  0.50000000  0.96009600  0.59564300  1
  Mn  Mn6  1  0.00000000  0.97958100  0.13950400  1
  Mn  Mn7  1  0.74861000  0.75172400  0.79632300  1
  Mn  Mn8  1  0.00000000  0.46009600  0.90435700  1
  Mn  Mn9  1  0.24861000  0.74827600  0.29632300  1
  Mn  Mn10  1  0.50000000  0.47958100  0.36049600  1
  Mn  Mn11  1  0.25139000  0.24827600  0.20367700  1
  Mn  Mn12  1  0.75139000  0.25172400  0.70367700  1
  Mn  Mn13  1  0.25139000  0.75172400  0.79632300  1
  Mn  Mn14  1  0.24861000  0.25172400  0.70367700  1
  Mn  Mn15  1  0.75139000  0.74827600  0.29632300  1
  P  P0  1  0.50000000  0.53984500  0.16843400  1
  P  P1  1  0.50000000  0.46015500  0.83156600  1
  P  P2  1  0.50000000  0.71394000  0.46306000  1
  P  P3  1  0.00000000  0.96015500  0.66843400  1
  P  P4  1  0.00000000  0.54103300  0.71704700  1
  P  P5  1  0.00000000  0.45896700  0.28295300  1
  P  P6  1  0.00000000  0.21394000  0.03694000  1
  P  P7  1  0.50000000  0.95896700  0.21704700  1
  P  P8  1  0.00000000  0.03984500  0.33156600  1
  P  P9  1  0.00000000  0.78606000  0.96306000  1
  P  P10  1  0.50000000  0.04103300  0.78295300  1
  P  P11  1  0.50000000  0.28606000  0.53694000  1
  O  O0  1  0.68919700  0.32970600  0.58760400  1
  O  O1  1  0.00000000  0.11436300  0.68503200  1
  O  O2  1  0.31080300  0.32970600  0.58760400  1
  O  O3  1  0.80316700  0.40839200  0.32309300  1
  O  O4  1  0.30627400  0.58140000  0.12401500  1
  O  O5  1  0.50000000  0.61436300  0.81496800  1
  O  O6  1  0.50000000  0.61242600  0.25271100  1
  O  O7  1  0.50000000  0.11367600  0.22671000  1
  O  O8  1  0.18919700  0.17029400  0.08760400  1
  O  O9  1  0.30316700  0.09160800  0.82309300  1
  O  O10  1  0.00000000  0.88563700  0.31496800  1
  O  O11  1  0.00000000  0.88757400  0.75271100  1
  O  O12  1  0.80316700  0.59160800  0.67690700  1
  O  O13  1  0.69372600  0.58140000  0.12401500  1
  O  O14  1  0.69683300  0.90839200  0.17690700  1
  O  O15  1  0.50000000  0.10557200  0.69734600  1
  O  O16  1  0.50000000  0.35406400  0.45640100  1
  O  O17  1  0.50000000  0.64593600  0.54359900  1
  O  O18  1  0.68919700  0.67029400  0.41239600  1
  O  O19  1  0.00000000  0.61367600  0.27329000  1
  O  O20  1  0.00000000  0.38632400  0.72671000  1
  O  O21  1  0.69683300  0.09160800  0.82309300  1
  O  O22  1  0.00000000  0.60557200  0.80265400  1
  O  O23  1  0.50000000  0.88632400  0.77329000  1
  O  O24  1  0.81080300  0.17029400  0.08760400  1
  O  O25  1  0.00000000  0.14593600  0.95640100  1
  O  O26  1  0.50000000  0.89442800  0.30265400  1
  O  O27  1  0.00000000  0.63298200  0.97808900  1
  O  O28  1  0.19683300  0.59160800  0.67690700  1
  O  O29  1  0.30316700  0.90839200  0.17690700  1
  O  O30  1  0.19372600  0.08140000  0.37598500  1
  O  O31  1  0.80627400  0.91860000  0.62401500  1
  O  O32  1  0.80627400  0.08140000  0.37598500  1
  O  O33  1  0.50000000  0.86701800  0.47808900  1
  O  O34  1  0.00000000  0.39442800  0.19734600  1
  O  O35  1  0.69372600  0.41860000  0.87598500  1
  O  O36  1  0.50000000  0.13298200  0.52191100  1
  O  O37  1  0.81080300  0.82970600  0.91239600  1
  O  O38  1  0.50000000  0.38563700  0.18503200  1
  O  O39  1  0.18919700  0.82970600  0.91239600  1
  O  O40  1  0.00000000  0.11242600  0.24728900  1
  O  O41  1  0.30627400  0.41860000  0.87598500  1
  O  O42  1  0.00000000  0.85406400  0.04359900  1
  O  O43  1  0.00000000  0.36701800  0.02191100  1
  O  O44  1  0.50000000  0.38757400  0.74728900  1
  O  O45  1  0.31080300  0.67029400  0.41239600  1
  O  O46  1  0.19372600  0.91860000  0.62401500  1
  O  O47  1  0.19683300  0.40839200  0.32309300  1
loop_
_geom_bond_atom_site_label_1
_geom_bond_atom_site_label_2
_geom_bond_distance
_geom_bond_site_symmetry_2
Mn0 O25 2.059481 1_555
Mn0 O9 2.199413 1_555
Mn0 O21 2.199413 1_455
Mn0 O11 2.264985 1_545
Mn0 O39 2.444234 1_545
Mn0 O37 2.444234 1_445
Mn1 O7 2.149167 1_555
Mn1 O38 2.154521 1_555
Mn1 O24 2.159413 1_555
Mn1 O34 2.205470 1_655
Mn1 O40 2.260037 1_655
Mn1 O3 2.612510 1_555
Mn2 O4 2.099848 1_555
Mn2 O13 2.099848 1_455
Mn2 O43 2.140858 1_555
Mn2 O27 2.204154 1_554
Mn2 O34 2.262197 1_555
Mn3 O17 2.059481 1_555
Mn3 O12 2.199413 1_555
Mn3 O28 2.199413 1_555
Mn3 O44 2.264985 1_555
Mn3 O0 2.444234 1_555
Mn3 O2 2.444234 1_555
Mn4 O32 2.099848 1_555
Mn4 O30 2.099848 1_555
Mn4 O33 2.140858 1_545
Mn4 O36 2.204154 1_555
Mn4 O26 2.262197 1_545
Mn5 O31 2.099848 1_555
Mn5 O46 2.099848 1_555
Mn5 O36 2.140858 1_565
Mn5 O33 2.204154 1_555
Mn5 O15 2.262197 1_565
Mn6 O42 2.059481 1_555
Mn6 O29 2.199413 1_555
Mn6 O14 2.199413 1_455
Mn6 O40 2.264985 1_565
Mn6 O8 2.444234 1_565
Mn6 O24 2.444234 1_465
Mn7 O23 2.149167 1_555
Mn7 O5 2.154521 1_555
Mn7 O37 2.159413 1_555
Mn7 O22 2.205470 1_655
Mn7 O11 2.260037 1_655
Mn7 O12 2.612510 1_555
Mn8 O41 2.099848 1_555
Mn8 O35 2.099848 1_455
Mn8 O27 2.140858 1_555
Mn8 O43 2.204154 1_556
Mn8 O22 2.262197 1_555
Mn9 O19 2.149167 1_555
Mn9 O10 2.154521 1_555
Mn9 O45 2.159413 1_555
Mn9 O26 2.205470 1_555
Mn9 O6 2.260037 1_555
Mn9 O29 2.612510 1_555
Mn10 O16 2.059481 1_555
Mn10 O3 2.199413 1_555
Mn10 O47 2.199413 1_555
Mn10 O6 2.264985 1_555
Mn10 O18 2.444234 1_555
Mn10 O45 2.444234 1_555
Mn11 O7 2.149167 1_555
Mn11 O38 2.154521 1_555
Mn11 O8 2.159413 1_555
Mn11 O34 2.205470 1_555
Mn11 O40 2.260037 1_555
Mn11 O47 2.612510 1_555
Mn12 O20 2.149167 1_655
Mn12 O1 2.154521 1_655
Mn12 O0 2.159413 1_555
Mn12 O15 2.205470 1_555
Mn12 O44 2.260037 1_555
Mn12 O21 2.612510 1_555
Mn13 O23 2.149167 1_555
Mn13 O5 2.154521 1_555
Mn13 O39 2.159413 1_555
Mn13 O22 2.205470 1_555
Mn13 O11 2.260037 1_555
Mn13 O28 2.612510 1_555
Mn14 O20 2.149167 1_555
Mn14 O1 2.154521 1_555
Mn14 O2 2.159413 1_555
Mn14 O15 2.205470 1_555
Mn14 O44 2.260037 1_555
Mn14 O9 2.612510 1_555
Mn15 O19 2.149167 1_655
Mn15 O10 2.154521 1_655
Mn15 O18 2.159413 1_555
Mn15 O26 2.205470 1_555
Mn15 O6 2.260037 1_555
Mn15 O14 2.612510 1_555
O0 P11 1.568441 1_555
O0 Rb2 2.905039 1_655
O1 P3 1.574446 1_545
O2 P11 1.568441 1_555
O2 Rb2 2.905039 1_555
O3 P5 1.541485 1_655
O3 Rb2 2.995916 1_655
O4 P0 1.531292 1_555
O4 Rb1 2.920077 1_555
O5 P1 1.574446 1_555
O6 P0 1.606020 1_555
O7 P7 1.562687 1_545
O8 P6 1.568441 1_555
O8 Rb3 2.905039 1_554
O9 P10 1.541485 1_555
O9 Rb3 2.995916 1_555
O10 P8 1.574446 1_565
O11 P3 1.606020 1_555
O12 P4 1.541485 1_655
O12 Rb0 2.995916 1_655
O13 P0 1.531292 1_555
O13 Rb1 2.920077 1_555
O14 P7 1.541485 1_555
O14 Rb1 2.995916 1_555
O15 P10 1.591595 1_555
O16 P11 1.528644 1_555
O16 Rb2 3.328152 1_555
O16 Rb2 3.328152 1_655
O17 P2 1.528644 1_555
O17 Rb0 3.328152 1_555
O17 Rb0 3.328152 1_655
O18 P2 1.568441 1_555
O18 Rb0 2.905039 1_655
O19 P5 1.562687 1_555
O20 P4 1.562687 1_555
O21 P10 1.541485 1_555
O21 Rb3 2.995916 1_555
O22 P4 1.591595 1_555
O23 P10 1.562687 1_565
O24 P6 1.568441 1_655
O24 Rb3 2.905039 1_554
O25 P6 1.528644 1_556
O25 Rb3 3.328152 1_555
O25 Rb3 3.328152 1_455
O26 P7 1.591595 1_555
O27 P9 1.558697 1_555
O28 P4 1.541485 1_555
O28 Rb0 2.995916 1_555
O29 P7 1.541485 1_555
O29 Rb1 2.995916 1_555
O30 P8 1.531292 1_555
O30 Rb2 2.920077 1_555
O31 P3 1.531292 1_655
O31 Rb0 2.920077 1_655
O32 P8 1.531292 1_655
O32 Rb2 2.920077 1_655
O33 P2 1.558697 1_555
O34 P5 1.591595 1_555
O35 P1 1.531292 1_555
O35 Rb3 2.920077 1_555
O36 P11 1.558697 1_555
O37 P9 1.568441 1_655
O37 Rb1 2.905039 1_556
O38 P0 1.574446 1_555
O39 P9 1.568441 1_555
O39 Rb1 2.905039 1_556
O40 P8 1.606020 1_555
O41 P1 1.531292 1_555
O41 Rb3 2.920077 1_555
O42 P9 1.528644 1_554
O42 Rb1 3.328152 1_455
O42 Rb1 3.328152 1_555
O43 P6 1.558697 1_555
O44 P1 1.606020 1_555
O45 P2 1.568441 1_555
O45 Rb0 2.905039 1_555
O46 P3 1.531292 1_555
O46 Rb0 2.920077 1_555
O47 P5 1.541485 1_555
O47 Rb2 2.995916 1_555
