# generated using pymatgen
data_ErB2Rh3
_symmetry_space_group_name_H-M   'P 1'
_cell_length_a   6.28513634
_cell_length_b   10.69687461
_cell_length_c   10.69725743
_cell_angle_alpha   119.99907574
_cell_angle_beta   89.99995977
_cell_angle_gamma   89.99995775
_symmetry_Int_Tables_number   1
_chemical_formula_structural   ErB2Rh3
_chemical_formula_sum   'Er8 B16 Rh24'
_cell_volume   622.84320573
_cell_formula_units_Z   8
loop_
 _symmetry_equiv_pos_site_id
 _symmetry_equiv_pos_as_xyz
  1  'x, y, z'
loop_
 _atom_site_type_symbol
 _atom_site_label
 _atom_site_symmetry_multiplicity
 _atom_site_fract_x
 _atom_site_fract_y
 _atom_site_fract_z
 _atom_site_occupancy
  Er  Er0_0  1  0.00000000  0.00000000  0.00000000  1
  Er  Er0_1  1  0.00000000  0.00000000  0.50000000  1
  Er  Er0_2  1  0.00000000  0.50000000  0.00000000  1
  Er  Er0_3  1  0.00000000  0.50000000  0.50000000  1
  Er  Er0_4  1  0.50000000  0.00000000  0.00000000  1
  Er  Er0_5  1  0.50000000  0.00000000  0.50000000  1
  Er  Er0_6  1  0.50000000  0.50000000  0.00000000  1
  Er  Er0_7  1  0.50000000  0.50000000  0.50000000  1
  B  B0_0  1  0.00000050  0.16665941  0.33332286  1
  B  B0_1  1  0.00000050  0.16665941  0.83332286  1
  B  B0_2  1  0.00000050  0.66665940  0.33332286  1
  B  B0_3  1  0.00000050  0.66665940  0.83332286  1
  B  B0_4  1  0.50000050  0.16665940  0.33332286  1
  B  B0_5  1  0.50000050  0.16665941  0.83332286  1
  B  B0_6  1  0.50000050  0.66665940  0.33332286  1
  B  B0_7  1  0.50000050  0.66665940  0.83332286  1
  B  B1_0  1  0.49999950  0.33334060  0.16667714  1
  B  B1_1  1  0.49999950  0.33334060  0.66667714  1
  B  B1_2  1  0.49999950  0.83334060  0.16667714  1
  B  B1_3  1  0.49999950  0.83334060  0.66667714  1
  B  B1_4  1  0.99999950  0.33334060  0.16667714  1
  B  B1_5  1  0.99999950  0.33334060  0.66667714  1
  B  B1_6  1  0.99999950  0.83334060  0.16667714  1
  B  B1_7  1  0.99999950  0.83334060  0.66667714  1
  Rh  Rh0_0  1  0.25000000  0.25000000  0.25000000  1
  Rh  Rh0_1  1  0.25000000  0.25000000  0.75000000  1
  Rh  Rh0_2  1  0.25000000  0.75000000  0.25000000  1
  Rh  Rh0_3  1  0.25000000  0.75000000  0.75000000  1
  Rh  Rh0_4  1  0.75000000  0.25000000  0.25000000  1
  Rh  Rh0_5  1  0.75000000  0.25000000  0.75000000  1
  Rh  Rh0_6  1  0.75000000  0.75000000  0.25000000  1
  Rh  Rh0_7  1  0.75000000  0.75000000  0.75000000  1
  Rh  Rh1_0  1  0.25000000  0.00000000  0.25000000  1
  Rh  Rh1_1  1  0.25000000  0.00000000  0.75000000  1
  Rh  Rh1_2  1  0.25000000  0.50000000  0.25000000  1
  Rh  Rh1_3  1  0.25000000  0.50000000  0.75000000  1
  Rh  Rh1_4  1  0.75000000  0.00000000  0.25000000  1
  Rh  Rh1_5  1  0.75000000  0.00000000  0.75000000  1
  Rh  Rh1_6  1  0.75000000  0.50000000  0.25000000  1
  Rh  Rh1_7  1  0.75000000  0.50000000  0.75000000  1
  Rh  Rh2_0  1  0.25000000  0.25000000  0.00000000  1
  Rh  Rh2_1  1  0.25000000  0.25000000  0.50000000  1
  Rh  Rh2_2  1  0.25000000  0.75000000  0.00000000  1
  Rh  Rh2_3  1  0.25000000  0.75000000  0.50000000  1
  Rh  Rh2_4  1  0.75000000  0.25000000  0.00000000  1
  Rh  Rh2_5  1  0.75000000  0.25000000  0.50000000  1
  Rh  Rh2_6  1  0.75000000  0.75000000  0.00000000  1
  Rh  Rh2_7  1  0.75000000  0.75000000  0.50000000  1
loop_
_geom_bond_atom_site_label_1
_geom_bond_atom_site_label_2
_geom_bond_distance
_geom_bond_site_symmetry_2
Er0_0 Rh2_4 3.101673 1_455
Er0_0 Rh2_2 3.101673 1_545
Er0_0 Rh2_0 3.101675 1_555
Er0_0 Rh2_6 3.101675 1_445
Er0_0 Rh0_4 3.101745 1_455
Er0_0 Rh0_3 3.101745 1_544
Er0_0 Rh0_0 3.101749 1_555
Er0_0 Rh0_7 3.101749 1_444
Er0_0 Rh1_1 3.101755 1_554
Er0_0 Rh1_4 3.101755 1_455
Er0_0 Rh1_5 3.101757 1_454
Er0_0 Rh1_0 3.101757 1_555
Er0_0 Er0_4 3.142568 1_555
Er0_0 Er0_4 3.142568 1_455
Er0_1 Rh2_3 3.101673 1_545
Er0_1 Rh2_5 3.101673 1_455
Er0_1 Rh2_1 3.101675 1_555
Er0_1 Rh2_7 3.101675 1_445
Er0_1 Rh0_2 3.101745 1_545
Er0_1 Rh0_5 3.101745 1_455
Er0_1 Rh0_1 3.101749 1_555
Er0_1 Rh0_6 3.101749 1_445
Er0_1 Rh1_0 3.101755 1_555
Er0_1 Rh1_5 3.101755 1_455
Er0_1 Rh1_4 3.101757 1_455
Er0_1 Rh1_1 3.101757 1_555
Er0_1 Er0_5 3.142568 1_555
Er0_1 Er0_5 3.142568 1_455
Er0_2 Rh2_0 3.101673 1_555
Er0_2 Rh2_6 3.101673 1_455
Er0_2 Rh2_2 3.101675 1_555
Er0_2 Rh2_4 3.101675 1_455
Er0_2 Rh0_1 3.101745 1_554
Er0_2 Rh0_6 3.101745 1_455
Er0_2 Rh0_5 3.101749 1_454
Er0_2 Rh0_2 3.101749 1_555
Er0_2 Rh1_6 3.101755 1_455
Er0_2 Rh1_3 3.101755 1_554
Er0_2 Rh1_7 3.101757 1_454
Er0_2 Rh1_2 3.101757 1_555
Er0_2 Er0_6 3.142568 1_555
Er0_2 Er0_6 3.142568 1_455
Er0_3 Rh2_7 3.101673 1_455
Er0_3 Rh2_1 3.101673 1_555
Er0_3 Rh2_3 3.101675 1_555
Er0_3 Rh2_5 3.101675 1_455
Er0_3 Rh0_0 3.101745 1_555
Er0_3 Rh0_7 3.101745 1_455
Er0_3 Rh0_4 3.101749 1_455
Er0_3 Rh0_3 3.101749 1_555
Er0_3 Rh1_2 3.101755 1_555
Er0_3 Rh1_7 3.101755 1_455
Er0_3 Rh1_6 3.101757 1_455
Er0_3 Rh1_3 3.101757 1_555
Er0_3 Er0_7 3.142568 1_555
Er0_3 Er0_7 3.142568 1_455
Er0_4 Rh2_0 3.101673 1_555
Er0_4 Rh2_6 3.101673 1_545
Er0_4 Rh2_4 3.101675 1_555
Er0_4 Rh2_2 3.101675 1_545
Er0_4 Rh0_0 3.101745 1_555
Er0_4 Rh0_7 3.101745 1_544
Er0_4 Rh0_3 3.101749 1_544
Er0_4 Rh0_4 3.101749 1_555
Er0_4 Rh1_5 3.101755 1_554
Er0_4 Rh1_0 3.101755 1_555
Er0_4 Rh1_1 3.101757 1_554
Er0_4 Rh1_4 3.101757 1_555
Er0_5 Rh2_1 3.101673 1_555
Er0_5 Rh2_7 3.101673 1_545
Er0_5 Rh2_5 3.101675 1_555
Er0_5 Rh2_3 3.101675 1_545
Er0_5 Rh0_6 3.101745 1_545
Er0_5 Rh0_1 3.101745 1_555
Er0_5 Rh0_2 3.101749 1_545
Er0_5 Rh0_5 3.101749 1_555
Er0_5 Rh1_4 3.101755 1_555
Er0_5 Rh1_1 3.101755 1_555
Er0_5 Rh1_0 3.101757 1_555
Er0_5 Rh1_5 3.101757 1_555
Er0_6 Rh2_2 3.101673 1_555
Er0_6 Rh2_4 3.101673 1_555
Er0_6 Rh2_6 3.101675 1_555
Er0_6 Rh2_0 3.101675 1_555
Er0_6 Rh0_5 3.101745 1_554
Er0_6 Rh0_2 3.101745 1_555
Er0_6 Rh0_1 3.101749 1_554
Er0_6 Rh0_6 3.101749 1_555
Er0_6 Rh1_2 3.101755 1_555
Er0_6 Rh1_7 3.101755 1_554
Er0_6 Rh1_3 3.101757 1_554
Er0_6 Rh1_6 3.101757 1_555
Er0_7 Rh2_5 3.101673 1_555
Er0_7 Rh2_3 3.101673 1_555
Er0_7 Rh2_1 3.101675 1_555
Er0_7 Rh2_7 3.101675 1_555
Er0_7 Rh0_3 3.101745 1_555
Er0_7 Rh0_4 3.101745 1_555
Er0_7 Rh0_0 3.101749 1_555
Er0_7 Rh0_7 3.101749 1_555
Er0_7 Rh1_3 3.101755 1_555
Er0_7 Rh1_6 3.101755 1_555
Er0_7 Rh1_2 3.101757 1_555
Er0_7 Rh1_7 3.101757 1_555
B0_0 Rh1_0 2.202855 1_555
B0_0 Rh1_4 2.202862 1_455
B0_0 Rh0_0 2.202887 1_555
B0_0 Rh0_4 2.202891 1_455
B0_0 Rh2_1 2.203011 1_555
B0_0 Rh2_5 2.203013 1_455
B0_0 Er0_0 3.087964 1_555
B0_0 Er0_1 3.087992 1_555
B0_0 Er0_3 3.088018 1_555
B0_1 Rh1_1 2.202855 1_555
B0_1 Rh1_5 2.202862 1_455
B0_1 Rh0_1 2.202887 1_555
B0_1 Rh0_5 2.202891 1_455
B0_1 Rh2_0 2.203011 1_556
B0_1 Rh2_4 2.203013 1_456
B0_1 Er0_1 3.087964 1_555
B0_1 Er0_0 3.087992 1_556
B0_1 Er0_2 3.088018 1_556
B0_2 Rh1_2 2.202855 1_555
B0_2 Rh1_6 2.202862 1_455
B0_2 Rh0_2 2.202887 1_555
B0_2 Rh0_6 2.202891 1_455
B0_2 Rh2_3 2.203011 1_555
B0_2 Rh2_7 2.203013 1_455
B0_2 Er0_2 3.087964 1_555
B0_2 Er0_3 3.087992 1_555
B0_2 Er0_1 3.088018 1_565
B0_3 Rh1_3 2.202855 1_555
B0_3 Rh1_7 2.202862 1_455
B0_3 Rh0_3 2.202887 1_555
B0_3 Rh0_7 2.202891 1_455
B0_3 Rh2_2 2.203011 1_556
B0_3 Rh2_6 2.203013 1_456
B0_3 Er0_3 3.087964 1_555
B0_3 Er0_2 3.087992 1_556
B0_3 Er0_0 3.088018 1_566
B0_4 Rh1_4 2.202855 1_555
B0_4 Rh1_0 2.202862 1_555
B0_4 Rh0_4 2.202887 1_555
B0_4 Rh0_0 2.202891 1_555
B0_4 Rh2_5 2.203011 1_555
B0_4 Rh2_1 2.203013 1_555
B0_4 Er0_4 3.087964 1_555
B0_4 Er0_5 3.087992 1_555
B0_4 Er0_7 3.088018 1_555
B0_5 Rh1_5 2.202855 1_555
B0_5 Rh1_1 2.202862 1_555
B0_5 Rh0_5 2.202887 1_555
B0_5 Rh0_1 2.202891 1_555
B0_5 Rh2_4 2.203011 1_556
B0_5 Rh2_0 2.203013 1_556
B0_5 Er0_5 3.087964 1_555
B0_5 Er0_4 3.087992 1_556
B0_5 Er0_6 3.088018 1_556
B0_6 Rh1_6 2.202855 1_555
B0_6 Rh1_2 2.202862 1_555
B0_6 Rh0_6 2.202887 1_555
B0_6 Rh0_2 2.202891 1_555
B0_6 Rh2_7 2.203011 1_555
B0_6 Rh2_3 2.203013 1_555
B0_6 Er0_6 3.087964 1_555
B0_6 Er0_7 3.087992 1_555
B0_6 Er0_5 3.088018 1_565
B0_7 Rh1_7 2.202855 1_555
B0_7 Rh1_3 2.202862 1_555
B0_7 Rh0_7 2.202887 1_555
B0_7 Rh0_3 2.202891 1_555
B0_7 Rh2_6 2.203011 1_556
B0_7 Rh2_2 2.203013 1_556
B0_7 Er0_7 3.087964 1_555
B0_7 Er0_6 3.087992 1_556
B0_7 Er0_4 3.088018 1_566
B1_0 Rh1_2 2.202855 1_555
B1_0 Rh1_6 2.202862 1_555
B1_0 Rh0_0 2.202887 1_555
B1_0 Rh0_4 2.202891 1_555
B1_0 Rh2_0 2.203011 1_555
B1_0 Rh2_4 2.203013 1_555
B1_0 Er0_7 3.087964 1_555
B1_0 Er0_6 3.087992 1_555
B1_0 Er0_4 3.088018 1_555
B1_1 Rh1_3 2.202855 1_555
B1_1 Rh1_7 2.202862 1_555
B1_1 Rh0_1 2.202887 1_555
B1_1 Rh0_5 2.202891 1_555
B1_1 Rh2_1 2.203011 1_555
B1_1 Rh2_5 2.203013 1_555
B1_1 Er0_6 3.087964 1_556
B1_1 Er0_7 3.087992 1_555
B1_1 Er0_5 3.088018 1_555
B1_2 Rh1_0 2.202855 1_565
B1_2 Rh1_4 2.202862 1_565
B1_2 Rh0_2 2.202887 1_555
B1_2 Rh0_6 2.202891 1_555
B1_2 Rh2_2 2.203011 1_555
B1_2 Rh2_6 2.203013 1_555
B1_2 Er0_5 3.087964 1_565
B1_2 Er0_4 3.087992 1_565
B1_2 Er0_6 3.088018 1_555
B1_3 Rh1_1 2.202855 1_565
B1_3 Rh1_5 2.202862 1_565
B1_3 Rh0_3 2.202887 1_555
B1_3 Rh0_7 2.202891 1_555
B1_3 Rh2_3 2.203011 1_555
B1_3 Rh2_7 2.203013 1_555
B1_3 Er0_4 3.087964 1_566
B1_3 Er0_5 3.087992 1_565
B1_3 Er0_7 3.088018 1_555
B1_4 Rh1_6 2.202855 1_555
B1_4 Rh1_2 2.202862 1_655
B1_4 Rh0_4 2.202887 1_555
B1_4 Rh0_0 2.202891 1_655
B1_4 Rh2_4 2.203011 1_555
B1_4 Rh2_0 2.203013 1_655
B1_4 Er0_3 3.087964 1_655
B1_4 Er0_2 3.087992 1_655
B1_4 Er0_0 3.088018 1_655
B1_5 Rh1_7 2.202855 1_555
B1_5 Rh1_3 2.202862 1_655
B1_5 Rh0_5 2.202887 1_555
B1_5 Rh0_1 2.202891 1_655
B1_5 Rh2_5 2.203011 1_555
B1_5 Rh2_1 2.203013 1_655
B1_5 Er0_2 3.087964 1_656
B1_5 Er0_3 3.087992 1_655
B1_5 Er0_1 3.088018 1_655
B1_6 Rh1_4 2.202855 1_565
B1_6 Rh1_0 2.202862 1_665
B1_6 Rh0_6 2.202887 1_555
B1_6 Rh0_2 2.202891 1_655
B1_6 Rh2_6 2.203011 1_555
B1_6 Rh2_2 2.203013 1_655
B1_6 Er0_1 3.087964 1_665
B1_6 Er0_0 3.087992 1_665
B1_6 Er0_2 3.088018 1_655
B1_7 Rh1_5 2.202855 1_565
B1_7 Rh1_1 2.202862 1_665
B1_7 Rh0_7 2.202887 1_555
B1_7 Rh0_3 2.202891 1_655
B1_7 Rh2_7 2.203011 1_555
B1_7 Rh2_3 2.203013 1_655
B1_7 Er0_0 3.087964 1_666
B1_7 Er0_1 3.087992 1_665
B1_7 Er0_3 3.088018 1_655
