# generated using pymatgen
data_K4V5CuClO15
_symmetry_space_group_name_H-M   'P 1'
_cell_length_a   8.97799500
_cell_length_b   8.97799500
_cell_length_c   5.66323700
_cell_angle_alpha   90.00000000
_cell_angle_beta   90.00000000
_cell_angle_gamma   90.00000000
_symmetry_Int_Tables_number   1
_chemical_formula_structural   K4V5CuClO15
_chemical_formula_sum   'K4 V5 Cu1 Cl1 O15'
_cell_volume   456.48178771
_cell_formula_units_Z   1
loop_
 _symmetry_equiv_pos_site_id
 _symmetry_equiv_pos_as_xyz
  1  'x, y, z'
loop_
 _atom_site_type_symbol
 _atom_site_label
 _atom_site_symmetry_multiplicity
 _atom_site_fract_x
 _atom_site_fract_y
 _atom_site_fract_z
 _atom_site_occupancy
  K  K0  1  0.15422800  0.68726400  0.42505700  1
  K  K1  1  0.68726400  0.84577200  0.42505700  1
  K  K2  1  0.31273600  0.15422800  0.42505700  1
  K  K3  1  0.84577200  0.31273600  0.42505700  1
  V  V0  1  0.86184700  0.63030100  0.89661300  1
  V  V1  1  0.36969900  0.86184700  0.89661300  1
  V  V2  1  0.63030100  0.13815300  0.89661300  1
  V  V3  1  0.50000000  0.50000000  0.86043300  1
  V  V4  1  0.13815300  0.36969900  0.89661300  1
  Cu  Cu0  1  0.00000000  0.00000000  0.84446900  1
  Cl  Cl0  1  0.00000000  0.00000000  0.29596200  1
  O  O0  1  0.90696800  0.80446900  0.79804700  1
  O  O1  1  0.00000000  0.50000000  0.77782600  1
  O  O2  1  0.50000000  0.00000000  0.77782600  1
  O  O3  1  0.41626100  0.68567400  0.77088100  1
  O  O4  1  0.62040200  0.14118000  0.19070800  1
  O  O5  1  0.31432600  0.41626100  0.77088100  1
  O  O6  1  0.14118000  0.37959800  0.19070800  1
  O  O7  1  0.19553100  0.90696800  0.79804700  1
  O  O8  1  0.09303200  0.19553100  0.79804700  1
  O  O9  1  0.68567400  0.58373900  0.77088100  1
  O  O10  1  0.85882000  0.62040200  0.19070800  1
  O  O11  1  0.58373900  0.31432600  0.77088100  1
  O  O12  1  0.50000000  0.50000000  0.14646900  1
  O  O13  1  0.37959800  0.85882000  0.19070800  1
  O  O14  1  0.80446900  0.09303200  0.79804700  1
loop_
_geom_bond_atom_site_label_1
_geom_bond_atom_site_label_2
_geom_bond_distance
_geom_bond_site_symmetry_2
K0 O13 2.868401 1_555
K0 O7 2.913796 1_555
K0 O1 2.955530 1_555
K0 O10 3.025847 1_455
K0 O3 3.061088 1_555
K0 O6 3.066756 1_555
K0 O0 3.239932 1_455
K1 O10 2.868401 1_555
K1 O0 2.913796 1_555
K1 O2 2.955530 1_565
K1 O4 3.025847 1_565
K1 O9 3.061088 1_555
K1 O13 3.066756 1_555
K1 O14 3.239932 1_565
K2 O6 2.868401 1_555
K2 O8 2.913796 1_555
K2 O2 2.955530 1_555
K2 O13 3.025847 1_545
K2 O5 3.061088 1_555
K2 O4 3.066756 1_555
K2 O7 3.239932 1_545
K3 O4 2.868401 1_555
K3 O14 2.913796 1_555
K3 O1 2.955530 1_655
K3 O6 3.025847 1_655
K3 O11 3.061088 1_555
K3 O10 3.066756 1_555
K3 O8 3.239932 1_655
Cu0 O8 1.961744 1_555
Cu0 O7 1.961744 1_545
Cu0 O14 1.961744 1_455
Cu0 O0 1.961744 1_445
Cl0 Cu0 2.556912 1_554
Cl0 K3 3.214840 1_455
Cl0 K2 3.214840 1_555
Cl0 K1 3.214840 1_445
Cl0 K0 3.214840 1_545
O0 V0 1.709031 1_555
O1 V4 1.832898 1_555
O1 V0 1.832898 1_455
O2 V2 1.832898 1_555
O2 V1 1.832898 1_545
O3 V1 1.784231 1_555
O3 V3 1.897694 1_555
O4 V2 1.668121 1_554
O5 V4 1.784231 1_555
O5 V3 1.897694 1_555
O6 V4 1.668121 1_554
O7 V1 1.709031 1_555
O8 V4 1.709031 1_555
O9 V0 1.784231 1_555
O9 V3 1.897694 1_555
O10 V0 1.668121 1_554
O11 V2 1.784231 1_555
O11 V3 1.897694 1_555
O12 V3 1.619890 1_554
O13 V1 1.668121 1_554
O14 V2 1.709031 1_555
