# generated using pymatgen
data_GaNi2BO5
_symmetry_space_group_name_H-M   'P 1'
_cell_length_a   2.96302628
_cell_length_b   9.23252153
_cell_length_c   12.14773694
_cell_angle_alpha   90.00000000
_cell_angle_beta   90.00000000
_cell_angle_gamma   90.00000000
_symmetry_Int_Tables_number   1
_chemical_formula_structural   GaNi2BO5
_chemical_formula_sum   'Ga4 Ni8 B4 O20'
_cell_volume   332.31596895
_cell_formula_units_Z   4
loop_
 _symmetry_equiv_pos_site_id
 _symmetry_equiv_pos_as_xyz
  1  'x, y, z'
loop_
 _atom_site_type_symbol
 _atom_site_label
 _atom_site_symmetry_multiplicity
 _atom_site_fract_x
 _atom_site_fract_y
 _atom_site_fract_z
 _atom_site_occupancy
  Ga  Ga0  1  0.00000000  0.23870543  0.11562546  1
  Ga  Ga1  1  0.00000000  0.76129457  0.88437454  1
  Ga  Ga2  1  0.00000000  0.73870543  0.38437454  1
  Ga  Ga3  1  -0.00000000  0.26129457  0.61562546  1
  Ni  Ni0  1  0.50000000  0.99926319  0.28179579  1
  Ni  Ni1  1  0.50000000  0.00073681  0.71820421  1
  Ni  Ni2  1  0.50000000  0.49926319  0.21820421  1
  Ni  Ni3  1  0.50000000  0.50073681  0.78179579  1
  Ni  Ni4  1  0.50000000  0.00000000  0.00000000  1
  Ni  Ni5  1  0.50000000  0.50000000  0.50000000  1
  Ni  Ni6  1  0.00000000  0.50000000  0.00000000  1
  Ni  Ni7  1  0.00000000  0.00000000  0.50000000  1
  B  B0  1  0.00000000  0.27184502  0.36101113  1
  B  B1  1  0.00000000  0.72815498  0.63898887  1
  B  B2  1  0.00000000  0.77184502  0.13898887  1
  B  B3  1  0.00000000  0.22815498  0.86101113  1
  O  O0  1  0.00000000  0.15158364  0.95913820  1
  O  O1  1  0.00000000  0.84841636  0.04086180  1
  O  O2  1  0.00000000  0.65158364  0.54086180  1
  O  O3  1  0.00000000  0.34841636  0.45913820  1
  O  O4  1  0.50000000  0.10954416  0.14351326  1
  O  O5  1  0.50000000  0.89045584  0.85648674  1
  O  O6  1  0.50000000  0.60954416  0.35648674  1
  O  O7  1  0.50000000  0.39045584  0.64351326  1
  O  O8  1  0.00000000  0.12313708  0.35963603  1
  O  O9  1  0.00000000  0.87686292  0.64036397  1
  O  O10  1  0.00000000  0.62313708  0.14036397  1
  O  O11  1  0.00000000  0.37686292  0.85963603  1
  O  O12  1  0.50000000  0.38071524  0.07815770  1
  O  O13  1  0.50000000  0.61928476  0.92184230  1
  O  O14  1  0.50000000  0.88071524  0.42184230  1
  O  O15  1  0.50000000  0.11928476  0.57815770  1
  O  O16  1  0.00000000  0.34666571  0.26206844  1
  O  O17  1  -0.00000000  0.65333429  0.73793156  1
  O  O18  1  0.00000000  0.84666571  0.23793156  1
  O  O19  1  0.00000000  0.15333429  0.76206844  1
loop_
_geom_bond_atom_site_label_1
_geom_bond_atom_site_label_2
_geom_bond_distance
_geom_bond_site_symmetry_2
Ga0 O4 1.931752 1_555
Ga0 O4 1.931752 1_455
Ga0 O12 2.030036 1_555
Ga0 O12 2.030036 1_455
Ga0 O16 2.039159 1_555
Ga0 O0 2.064136 1_554
Ga1 O5 1.931752 1_455
Ga1 O5 1.931752 1_555
Ga1 O13 2.030036 1_455
Ga1 O13 2.030036 1_555
Ga1 O17 2.039159 1_555
Ga1 O1 2.064136 1_556
Ga2 O6 1.931752 1_455
Ga2 O6 1.931752 1_555
Ga2 O14 2.030036 1_555
Ga2 O14 2.030036 1_455
Ga2 O18 2.039159 1_555
Ga2 O2 2.064136 1_555
Ga3 O7 1.931752 1_455
Ga3 O7 1.931752 1_555
Ga3 O15 2.030036 1_555
Ga3 O15 2.030036 1_455
Ga3 O19 2.039159 1_555
Ga3 O3 2.064136 1_555
Ni0 O4 1.964298 1_565
Ni0 O14 2.022911 1_555
Ni0 O8 2.096899 1_565
Ni0 O8 2.096899 1_665
Ni0 O18 2.112746 1_655
Ni0 O18 2.112746 1_555
Ni1 O5 1.964298 1_545
Ni1 O15 2.022911 1_555
Ni1 O9 2.096899 1_545
Ni1 O9 2.096899 1_645
Ni1 O19 2.112746 1_555
Ni1 O19 2.112746 1_655
Ni2 O6 1.964298 1_555
Ni2 O12 2.022911 1_555
Ni2 O10 2.096899 1_655
Ni2 O10 2.096899 1_555
Ni2 O16 2.112746 1_655
Ni2 O16 2.112746 1_555
Ni3 O7 1.964298 1_555
Ni3 O13 2.022911 1_555
Ni3 O11 2.096899 1_655
Ni3 O11 2.096899 1_555
Ni3 O17 2.112746 1_655
Ni3 O17 2.112746 1_555
Ni4 O5 2.015484 1_544
Ni4 O4 2.015484 1_555
Ni4 O1 2.097587 1_545
Ni4 O1 2.097587 1_645
Ni4 O0 2.097587 1_654
Ni4 O0 2.097587 1_554
Ni5 O7 2.015484 1_555
Ni5 O6 2.015484 1_555
Ni5 O3 2.097587 1_655
Ni5 O2 2.097587 1_555
Ni5 O3 2.097587 1_555
Ni5 O2 2.097587 1_655
Ni6 O10 2.049352 1_555
Ni6 O11 2.049352 1_554
Ni6 O13 2.075855 1_554
Ni6 O13 2.075855 1_454
Ni6 O12 2.075855 1_555
Ni6 O12 2.075855 1_455
Ni7 O8 2.049352 1_555
Ni7 O9 2.049352 1_545
Ni7 O15 2.075855 1_455
Ni7 O14 2.075855 1_445
Ni7 O15 2.075855 1_555
Ni7 O14 2.075855 1_545
B0 O8 1.373051 1_555
B0 O3 1.385889 1_555
B0 O16 1.386296 1_555
B1 O9 1.373051 1_555
B1 O2 1.385889 1_555
B1 O17 1.386296 1_555
B2 O10 1.373051 1_555
B2 O1 1.385889 1_555
B2 O18 1.386296 1_555
B3 O11 1.373051 1_555
B3 O0 1.385889 1_555
B3 O19 1.386296 1_555
