# generated using pymatgen
data_CaMn4(CuO4)3
_symmetry_space_group_name_H-M   'P 1'
_cell_length_a   6.40817918
_cell_length_b   6.40817986
_cell_length_c   6.40814712
_cell_angle_alpha   109.48679568
_cell_angle_beta   109.47669835
_cell_angle_gamma   109.45072243
_symmetry_Int_Tables_number   1
_chemical_formula_structural   CaMn4(CuO4)3
_chemical_formula_sum   'Ca1 Mn4 Cu3 O12'
_cell_volume   202.57083368
_cell_formula_units_Z   1
loop_
 _symmetry_equiv_pos_site_id
 _symmetry_equiv_pos_as_xyz
  1  'x, y, z'
loop_
 _atom_site_type_symbol
 _atom_site_label
 _atom_site_symmetry_multiplicity
 _atom_site_fract_x
 _atom_site_fract_y
 _atom_site_fract_z
 _atom_site_occupancy
  Ca  Ca0  1  0.00000200  0.00000300  0.00000200  1
  Mn  Mn0  1  0.00000000  0.00000000  0.49999900  1
  Mn  Mn1  1  0.00000300  0.49999900  0.99999900  1
  Mn  Mn2  1  0.50000300  0.50000100  0.50000500  1
  Mn  Mn3  1  0.49999900  0.00000000  0.99999800  1
  Cu  Cu0  1  0.50000000  0.50000100  0.00000200  1
  Cu  Cu1  1  0.99999800  0.49999900  0.49999900  1
  Cu  Cu2  1  0.49999900  0.99999900  0.49999900  1
  O  O0  1  0.51881300  0.82869100  0.69012500  1
  O  O1  1  0.13856600  0.82869500  0.30987500  1
  O  O2  1  0.86143300  0.17130500  0.69012400  1
  O  O3  1  0.17145600  0.30966200  0.48111500  1
  O  O4  1  0.30974400  0.48112100  0.17139400  1
  O  O5  1  0.69026000  0.51888000  0.82861300  1
  O  O6  1  0.82853200  0.30966800  0.13820200  1
  O  O7  1  0.69027100  0.86164900  0.17138300  1
  O  O8  1  0.48118600  0.17130700  0.30987300  1
  O  O9  1  0.17146500  0.69033400  0.86179500  1
  O  O10  1  0.82854400  0.69033800  0.51888600  1
  O  O11  1  0.30972600  0.13835200  0.82861700  1
loop_
_geom_bond_atom_site_label_1
_geom_bond_atom_site_label_2
_geom_bond_distance
_geom_bond_site_symmetry_2
Ca0 O3 2.618664 1_555
Ca0 O10 2.618682 1_444
Ca0 O9 2.618789 1_544
Ca0 O6 2.618794 1_455
Ca0 O11 2.619691 1_554
Ca0 O7 2.619714 1_445
Ca0 O4 2.619729 1_555
Ca0 O5 2.619758 1_444
Ca0 O1 2.619991 1_545
Ca0 O2 2.619993 1_454
Ca0 O8 2.620001 1_555
Ca0 O0 2.620023 1_444
Mn0 O11 1.988768 1_555
Mn0 O7 1.988772 1_445
Mn0 O1 1.989013 1_545
Mn0 O2 1.989022 1_455
Mn0 O3 1.989067 1_555
Mn0 O10 1.989078 1_445
Mn1 O4 1.988843 1_556
Mn1 O5 1.988851 1_455
Mn1 O2 1.989020 1_455
Mn1 O1 1.989041 1_556
Mn1 O9 1.989057 1_555
Mn1 O6 1.989066 1_456
Mn2 O5 1.988747 1_555
Mn2 O4 1.988763 1_555
Mn2 O0 1.989032 1_555
Mn2 O10 1.989044 1_555
Mn2 O8 1.989049 1_555
Mn2 O3 1.989050 1_555
Mn3 O11 1.988833 1_555
Mn3 O7 1.988836 1_546
Mn3 O0 1.989003 1_545
Mn3 O8 1.989006 1_556
Mn3 O9 1.989032 1_545
Mn3 O6 1.989033 1_556
Cu0 O7 1.894910 1_555
Cu0 O11 1.894915 1_554
Cu0 O4 1.894915 1_555
Cu0 O5 1.894920 1_554
Cu1 O9 1.895307 1_655
Cu1 O6 1.895312 1_555
Cu1 O10 1.895319 1_555
Cu1 O3 1.895329 1_655
Cu2 O1 1.893809 1_555
Cu2 O2 1.893814 1_565
Cu2 O8 1.893821 1_565
Cu2 O0 1.893821 1_555
