# generated using pymatgen
data_Hg9Bi2(AsBr3)4
_symmetry_space_group_name_H-M   'P 1'
_cell_length_a   11.23111700
_cell_length_b   11.23111700
_cell_length_c   29.20922900
_cell_angle_alpha   90.00000000
_cell_angle_beta   90.00000000
_cell_angle_gamma   90.00000000
_symmetry_Int_Tables_number   1
_chemical_formula_structural   Hg9Bi2(AsBr3)4
_chemical_formula_sum   'Hg36 Bi8 As16 Br48'
_cell_volume   3684.39340828
_cell_formula_units_Z   4
loop_
 _symmetry_equiv_pos_site_id
 _symmetry_equiv_pos_as_xyz
  1  'x, y, z'
loop_
 _atom_site_type_symbol
 _atom_site_label
 _atom_site_symmetry_multiplicity
 _atom_site_fract_x
 _atom_site_fract_y
 _atom_site_fract_z
 _atom_site_occupancy
  Hg  Hg0  1  0.83264000  0.53197000  0.99853900  1
  Hg  Hg1  1  0.46803000  0.83264000  0.74853900  1
  Hg  Hg2  1  0.89149400  0.19530500  0.95044300  1
  Hg  Hg3  1  0.42602100  0.24447700  0.88288200  1
  Hg  Hg4  1  0.57444900  0.16588600  0.69905300  1
  Hg  Hg5  1  0.45014600  0.31008500  0.57057500  1
  Hg  Hg6  1  0.02957400  0.89724000  0.89013500  1
  Hg  Hg7  1  0.51051000  0.56041000  0.94422700  1
  Hg  Hg8  1  0.10850600  0.80469500  0.45044300  1
  Hg  Hg9  1  0.73310200  0.86420300  0.95384700  1
  Hg  Hg10  1  0.19530500  0.10850600  0.20044300  1
  Hg  Hg11  1  0.02709100  0.26842100  0.07400700  1
  Hg  Hg12  1  0.97042600  0.10276000  0.39013500  1
  Hg  Hg13  1  0.13579700  0.73310200  0.70384700  1
  Hg  Hg14  1  0.43959000  0.51051000  0.69422700  1
  Hg  Hg15  1  0.83411400  0.57444900  0.44905300  1
  Hg  Hg16  1  0.48949000  0.43959000  0.44422700  1
  Hg  Hg17  1  0.54985400  0.68991500  0.07057500  1
  Hg  Hg18  1  0.56041000  0.48949000  0.19422700  1
  Hg  Hg19  1  0.86420300  0.26689800  0.20384700  1
  Hg  Hg20  1  0.16736000  0.46803000  0.49853900  1
  Hg  Hg21  1  0.89724000  0.97042600  0.14013500  1
  Hg  Hg22  1  0.26842100  0.97290900  0.32400700  1
  Hg  Hg23  1  0.80469500  0.89149400  0.70044300  1
  Hg  Hg24  1  0.42555100  0.83411400  0.19905300  1
  Hg  Hg25  1  0.68991500  0.45014600  0.32057500  1
  Hg  Hg26  1  0.57397900  0.75552300  0.38288200  1
  Hg  Hg27  1  0.75552300  0.42602100  0.63288200  1
  Hg  Hg28  1  0.31008500  0.54985400  0.82057500  1
  Hg  Hg29  1  0.73157900  0.02709100  0.82400700  1
  Hg  Hg30  1  0.24447700  0.57397900  0.13288200  1
  Hg  Hg31  1  0.26689800  0.13579700  0.45384700  1
  Hg  Hg32  1  0.53197000  0.16736000  0.24853900  1
  Hg  Hg33  1  0.97290900  0.73157900  0.57400700  1
  Hg  Hg34  1  0.10276000  0.02957400  0.64013500  1
  Hg  Hg35  1  0.16588600  0.42555100  0.94905300  1
  Bi  Bi0  1  0.77390100  0.13410900  0.50902700  1
  Bi  Bi1  1  0.56845300  0.18705700  0.06299600  1
  Bi  Bi2  1  0.81294300  0.56845300  0.81299600  1
  Bi  Bi3  1  0.18705700  0.43154700  0.31299600  1
  Bi  Bi4  1  0.13410900  0.22609900  0.75902700  1
  Bi  Bi5  1  0.22609900  0.86589100  0.00902700  1
  Bi  Bi6  1  0.43154700  0.81294300  0.56299600  1
  Bi  Bi7  1  0.86589100  0.77390100  0.25902700  1
  As  As0  1  0.32432000  0.65830300  0.74398900  1
  As  As1  1  0.34921500  0.45179500  0.89815900  1
  As  As2  1  0.34169700  0.32432000  0.49398900  1
  As  As3  1  0.63538400  0.98514600  0.74627100  1
  As  As4  1  0.01334300  0.16153200  0.15151100  1
  As  As5  1  0.98514600  0.36461600  0.99627100  1
  As  As6  1  0.65078500  0.54820500  0.39815900  1
  As  As7  1  0.01485400  0.63538400  0.49627100  1
  As  As8  1  0.83846800  0.01334300  0.90151100  1
  As  As9  1  0.45179500  0.65078500  0.14815900  1
  As  As10  1  0.65830300  0.67568000  0.99398900  1
  As  As11  1  0.54820500  0.34921500  0.64815900  1
  As  As12  1  0.67568000  0.34169700  0.24398900  1
  As  As13  1  0.36461600  0.01485400  0.24627100  1
  As  As14  1  0.16153200  0.98665700  0.40151100  1
  As  As15  1  0.98665700  0.83846800  0.65151100  1
  Br  Br0  1  0.79449700  0.10247600  0.60138300  1
  Br  Br1  1  0.23171200  0.79652000  0.89861000  1
  Br  Br2  1  0.04727600  0.47944400  0.76904500  1
  Br  Br3  1  0.38100700  0.30244900  0.34962500  1
  Br  Br4  1  0.61243400  0.70007100  0.27076700  1
  Br  Br5  1  0.76828800  0.20348000  0.39861000  1
  Br  Br6  1  0.89752400  0.79449700  0.35138300  1
  Br  Br7  1  0.20348000  0.23171200  0.64861000  1
  Br  Br8  1  0.39339000  0.70268200  0.47206400  1
  Br  Br9  1  0.30244900  0.61899300  0.59962500  1
  Br  Br10  1  0.69755100  0.38100700  0.09962500  1
  Br  Br11  1  0.61899300  0.69755100  0.84962500  1
  Br  Br12  1  0.20550300  0.89752400  0.10138300  1
  Br  Br13  1  0.52055600  0.04727600  0.51904500  1
  Br  Br14  1  0.90520900  0.16548700  0.72964100  1
  Br  Br15  1  0.29731800  0.39339000  0.22206400  1
  Br  Br16  1  0.16548700  0.09479100  0.97964100  1
  Br  Br17  1  0.70007100  0.38756600  0.52076700  1
  Br  Br18  1  0.58606300  0.06501300  0.14785900  1
  Br  Br19  1  0.06372500  0.20095900  0.29279900  1
  Br  Br20  1  0.41393700  0.93498700  0.64785900  1
  Br  Br21  1  0.51803300  0.97049000  0.37386900  1
  Br  Br22  1  0.28935300  0.65302700  0.33573800  1
  Br  Br23  1  0.60661000  0.29731800  0.97206400  1
  Br  Br24  1  0.00980100  0.21188500  0.50594000  1
  Br  Br25  1  0.99019900  0.78811500  0.00594000  1
  Br  Br26  1  0.93498700  0.58606300  0.89785900  1
  Br  Br27  1  0.09479100  0.83451300  0.22964100  1
  Br  Br28  1  0.78811500  0.00980100  0.25594000  1
  Br  Br29  1  0.65302700  0.71064700  0.58573800  1
  Br  Br30  1  0.95272400  0.52055600  0.26904500  1
  Br  Br31  1  0.34697300  0.28935300  0.08573800  1
  Br  Br32  1  0.93627500  0.79904100  0.79279900  1
  Br  Br33  1  0.29992900  0.61243400  0.02076700  1
  Br  Br34  1  0.21188500  0.99019900  0.75594000  1
  Br  Br35  1  0.79904100  0.06372500  0.04279900  1
  Br  Br36  1  0.71064700  0.34697300  0.83573800  1
  Br  Br37  1  0.38756600  0.29992900  0.77076700  1
  Br  Br38  1  0.10247600  0.20550300  0.85138300  1
  Br  Br39  1  0.97049000  0.48196700  0.62386900  1
  Br  Br40  1  0.47944400  0.95272400  0.01904500  1
  Br  Br41  1  0.02951000  0.51803300  0.12386900  1
  Br  Br42  1  0.79652000  0.76828800  0.14861000  1
  Br  Br43  1  0.48196700  0.02951000  0.87386900  1
  Br  Br44  1  0.06501300  0.41393700  0.39785900  1
  Br  Br45  1  0.70268200  0.60661000  0.72206400  1
  Br  Br46  1  0.20095900  0.93627500  0.54279900  1
  Br  Br47  1  0.83451300  0.90520900  0.47964100  1
loop_
_geom_bond_atom_site_label_1
_geom_bond_atom_site_label_2
_geom_bond_distance
_geom_bond_site_symmetry_2
Bi0 Br0 2.730756 1_555
Bi0 Br24 2.791161 1_655
Bi0 Br47 2.794492 1_545
Bi0 Br17 2.984680 1_555
Bi0 Br13 3.022036 1_555
Bi0 Br5 3.318566 1_555
Bi1 Br31 2.819349 1_555
Bi1 Br10 2.826983 1_555
Bi1 Br18 2.839414 1_555
Bi1 Br23 2.961721 1_554
Bi1 Br35 2.995588 1_555
Bi1 Br40 3.094172 1_545
Bi2 Br36 2.819349 1_555
Bi2 Br11 2.826983 1_555
Bi2 Br26 2.839414 1_555
Bi2 Br45 2.961721 1_555
Bi2 Br32 2.995588 1_555
Bi2 Br2 3.094172 1_655
Bi3 Br22 2.819349 1_555
Bi3 Br3 2.826983 1_555
Bi3 Br44 2.839414 1_555
Bi3 Br15 2.961721 1_555
Bi3 Br19 2.995588 1_555
Bi3 Br30 3.094172 1_455
Bi4 Br38 2.730756 1_555
Bi4 Br34 2.791161 1_545
Bi4 Br14 2.794492 1_455
Bi4 Br37 2.984680 1_555
Bi4 Br2 3.022036 1_555
Bi4 Br7 3.318566 1_555
Bi5 Br12 2.730756 1_555
Bi5 Br25 2.791161 1_455
Bi5 Br16 2.794492 1_564
Bi5 Br33 2.984680 1_555
Bi5 Br40 3.022036 1_555
Bi5 Br1 3.318566 1_554
Bi6 Br29 2.819349 1_555
Bi6 Br9 2.826983 1_555
Bi6 Br20 2.839414 1_555
Bi6 Br8 2.961721 1_555
Bi6 Br46 2.995588 1_555
Bi6 Br13 3.094172 1_565
Bi7 Br6 2.730756 1_555
Bi7 Br28 2.791161 1_565
Bi7 Br27 2.794492 1_655
Bi7 Br4 2.984680 1_555
Bi7 Br30 3.022036 1_555
Bi7 Br42 3.318566 1_555
As0 Hg1 2.540964 1_555
As0 Hg28 2.552125 1_555
As0 Hg14 2.558107 1_555
As0 Hg13 2.561949 1_555
As1 Hg3 2.522843 1_555
As1 Hg35 2.556603 1_555
As1 Hg28 2.557645 1_555
As1 Hg7 2.565222 1_555
As2 Hg20 2.540964 1_555
As2 Hg5 2.552125 1_555
As2 Hg16 2.558107 1_555
As2 Hg31 2.561949 1_555
As3 Hg1 2.543798 1_555
As3 Hg4 2.547764 1_565
As3 Hg23 2.552267 1_555
As3 Hg29 2.558281 1_565
As4 Hg21 2.533277 1_445
As4 Hg19 2.557918 1_455
As4 Hg10 2.563966 1_555
As4 Hg11 2.567087 1_555
As5 Hg0 2.543798 1_555
As5 Hg35 2.547764 1_655
As5 Hg2 2.552267 1_555
As5 Hg11 2.558281 1_656
As6 Hg26 2.522843 1_555
As6 Hg15 2.556603 1_555
As6 Hg25 2.557645 1_555
As6 Hg16 2.565222 1_555
As7 Hg20 2.543798 1_555
As7 Hg15 2.547764 1_455
As7 Hg8 2.552267 1_555
As7 Hg33 2.558281 1_455
As8 Hg6 2.533277 1_645
As8 Hg9 2.557918 1_545
As8 Hg2 2.563966 1_555
As8 Hg29 2.567087 1_555
As9 Hg30 2.522843 1_555
As9 Hg24 2.556603 1_555
As9 Hg17 2.557645 1_555
As9 Hg18 2.565222 1_555
As10 Hg0 2.540964 1_555
As10 Hg17 2.552125 1_556
As10 Hg7 2.558107 1_555
As10 Hg9 2.561949 1_555
As11 Hg27 2.522843 1_555
As11 Hg4 2.556603 1_555
As11 Hg5 2.557645 1_555
As11 Hg14 2.565222 1_555
As12 Hg32 2.540964 1_555
As12 Hg25 2.552125 1_555
As12 Hg18 2.558107 1_555
As12 Hg19 2.561949 1_555
As13 Hg32 2.543798 1_555
As13 Hg24 2.547764 1_545
As13 Hg10 2.552267 1_555
As13 Hg22 2.558281 1_545
As14 Hg12 2.533277 1_465
As14 Hg31 2.557918 1_565
As14 Hg8 2.563966 1_555
As14 Hg22 2.567087 1_555
As15 Hg34 2.533277 1_665
As15 Hg13 2.557918 1_655
As15 Hg23 2.563966 1_555
As15 Hg33 2.567087 1_555
Br1 Hg6 2.548501 1_555
Br5 Hg12 2.548501 1_555
Br7 Hg34 2.548501 1_555
Br18 Hg32 3.215367 1_555
Br19 Hg12 3.224534 1_455
Br19 Hg10 3.246435 1_555
Br20 Hg1 3.215367 1_555
Br21 Hg26 2.508596 1_555
Br21 Hg22 3.159288 1_555
Br26 Hg0 3.215367 1_555
Br32 Hg6 3.224534 1_655
Br32 Hg23 3.246435 1_555
Br35 Hg21 3.224534 1_545
Br35 Hg2 3.246435 1_554
Br39 Hg27 2.508596 1_555
Br39 Hg33 3.159288 1_555
Br41 Hg30 2.508596 1_555
Br41 Hg11 3.159288 1_555
Br42 Hg21 2.548501 1_555
Br43 Hg3 2.508596 1_555
Br43 Hg29 3.159288 1_555
Br44 Hg20 3.215367 1_555
Br46 Hg34 3.224534 1_565
Br46 Hg8 3.246435 1_555
