# generated using pymatgen
data_SrBNO
_symmetry_space_group_name_H-M   'P 1'
_cell_length_a   7.91509900
_cell_length_b   6.67153700
_cell_length_c   13.52278045
_cell_angle_alpha   62.15647645
_cell_angle_beta   90.00000000
_cell_angle_gamma   90.00000000
_symmetry_Int_Tables_number   1
_chemical_formula_structural   SrBNO
_chemical_formula_sum   'Sr12 B12 N12 O12'
_cell_volume   631.41041856
_cell_formula_units_Z   12
loop_
 _symmetry_equiv_pos_site_id
 _symmetry_equiv_pos_as_xyz
  1  'x, y, z'
loop_
 _atom_site_type_symbol
 _atom_site_label
 _atom_site_symmetry_multiplicity
 _atom_site_fract_x
 _atom_site_fract_y
 _atom_site_fract_z
 _atom_site_occupancy
  Sr  Sr0  1  0.86449600  0.95995500  0.39400200  1
  Sr  Sr1  1  0.62214200  0.43413000  0.17620600  1
  Sr  Sr2  1  0.87785800  0.43413000  0.67620600  1
  Sr  Sr3  1  0.12214200  0.56587000  0.32379400  1
  Sr  Sr4  1  0.37785800  0.56587000  0.82379400  1
  Sr  Sr5  1  0.36449600  0.04004500  0.10599800  1
  Sr  Sr6  1  0.38790400  0.96884400  0.38707400  1
  Sr  Sr7  1  0.13550400  0.04004500  0.60599800  1
  Sr  Sr8  1  0.61209600  0.03115600  0.61292600  1
  Sr  Sr9  1  0.63550400  0.95995500  0.89400200  1
  Sr  Sr10  1  0.11209600  0.96884400  0.88707400  1
  Sr  Sr11  1  0.88790400  0.03115600  0.11292600  1
  B  B0  1  0.72271200  0.39804400  0.89464100  1
  B  B1  1  0.46792900  0.40219300  0.38782900  1
  B  B2  1  0.87402100  0.75808500  0.79435600  1
  B  B3  1  0.77728800  0.39804400  0.39464100  1
  B  B4  1  0.03207100  0.40219300  0.88782900  1
  B  B5  1  0.22271200  0.60195600  0.60535900  1
  B  B6  1  0.96792900  0.59780700  0.11217100  1
  B  B7  1  0.53207100  0.59780700  0.61217100  1
  B  B8  1  0.37402100  0.24191500  0.70564400  1
  B  B9  1  0.27728800  0.60195600  0.10535900  1
  B  B10  1  0.62597900  0.75808500  0.29435600  1
  B  B11  1  0.12597900  0.24191500  0.20564400  1
  N  N0  1  0.62303900  0.27107000  0.39927700  1
  N  N1  1  0.78952200  0.64409600  0.32614800  1
  N  N2  1  0.87696100  0.27107000  0.89927700  1
  N  N3  1  0.03941700  0.64868200  0.81979300  1
  N  N4  1  0.28952200  0.35590400  0.17385200  1
  N  N5  1  0.96058300  0.35131800  0.18020700  1
  N  N6  1  0.37696100  0.72893000  0.60072300  1
  N  N7  1  0.53941700  0.35131800  0.68020700  1
  N  N8  1  0.12303900  0.72893000  0.10072300  1
  N  N9  1  0.46058300  0.64868200  0.31979300  1
  N  N10  1  0.21047800  0.35590400  0.67385200  1
  N  N11  1  0.71047800  0.64409600  0.82614800  1
  O  O0  1  0.91526900  0.26858300  0.46011100  1
  O  O1  1  0.08473100  0.73141700  0.53988900  1
  O  O2  1  0.67553100  0.72435900  0.55594300  1
  O  O3  1  0.17553100  0.27564100  0.94405700  1
  O  O4  1  0.37258900  0.99876200  0.75990300  1
  O  O5  1  0.82446900  0.72435900  0.05594300  1
  O  O6  1  0.41526900  0.73141700  0.03988900  1
  O  O7  1  0.32446900  0.27564100  0.44405700  1
  O  O8  1  0.62741100  0.00123800  0.24009700  1
  O  O9  1  0.12741100  0.99876200  0.25990300  1
  O  O10  1  0.87258900  0.00123800  0.74009700  1
  O  O11  1  0.58473100  0.26858300  0.96011100  1
loop_
_geom_bond_atom_site_label_1
_geom_bond_atom_site_label_2
_geom_bond_distance
_geom_bond_site_symmetry_2
B0 O11 1.417135 1_555
B0 N11 1.463444 1_555
B0 N2 1.470547 1_555
B1 O7 1.407362 1_555
B1 N9 1.463152 1_555
B1 N0 1.473091 1_555
B2 O10 1.434640 1_565
B2 N3 1.459569 1_655
B2 N11 1.460610 1_555
B3 O0 1.417135 1_555
B3 N1 1.463444 1_555
B3 N0 1.470547 1_555
B4 O3 1.407362 1_555
B4 N3 1.463152 1_555
B4 N2 1.473091 1_455
B5 O1 1.417135 1_555
B5 N10 1.463444 1_555
B5 N6 1.470547 1_555
B6 O5 1.407362 1_555
B6 N5 1.463152 1_555
B6 N8 1.473091 1_655
B7 O2 1.407362 1_555
B7 N7 1.463152 1_555
B7 N6 1.473091 1_555
B8 O4 1.434640 1_545
B8 N7 1.459569 1_555
B8 N10 1.460610 1_555
B9 O6 1.417135 1_555
B9 N4 1.463444 1_555
B9 N8 1.470547 1_555
B10 O8 1.434640 1_565
B10 N9 1.459569 1_555
B10 N1 1.460610 1_555
B11 O9 1.434640 1_545
B11 N5 1.459569 1_455
B11 N4 1.460610 1_555
N0 Sr8 2.568426 1_555
N0 Sr1 2.686565 1_555
N0 Sr6 2.804872 1_545
N0 Sr0 2.846768 1_545
N1 Sr3 2.687027 1_655
N1 Sr0 2.727792 1_555
N1 Sr11 2.938232 1_565
N2 Sr11 2.568426 1_556
N2 Sr2 2.686565 1_555
N2 Sr10 2.804872 1_645
N2 Sr9 2.846768 1_545
N3 Sr4 2.730601 1_555
N3 Sr10 2.745254 1_555
N3 Sr7 2.950060 1_565
N4 Sr1 2.687027 1_555
N4 Sr5 2.727792 1_555
N4 Sr6 2.938232 1_545
N5 Sr1 2.730601 1_555
N5 Sr11 2.745254 1_555
N5 Sr0 2.950060 1_545
N6 Sr6 2.568426 1_555
N6 Sr4 2.686565 1_555
N6 Sr8 2.804872 1_565
N6 Sr7 2.846768 1_565
N7 Sr2 2.730601 1_555
N7 Sr8 2.745254 1_555
N7 Sr9 2.950060 1_545
N8 Sr10 2.568426 1_554
N8 Sr3 2.686565 1_555
N8 Sr11 2.804872 1_465
N8 Sr5 2.846768 1_565
N9 Sr3 2.730601 1_555
N9 Sr6 2.745254 1_555
N9 Sr5 2.950060 1_565
N10 Sr2 2.687027 1_455
N10 Sr7 2.727792 1_555
N10 Sr10 2.938232 1_545
N11 Sr4 2.687027 1_555
N11 Sr9 2.727792 1_555
N11 Sr8 2.938232 1_565
O0 Sr7 2.538813 1_655
O0 Sr3 2.568601 1_655
O0 Sr0 2.630536 1_545
O0 Sr8 3.078969 1_555
O1 Sr0 2.538813 1_455
O1 Sr2 2.568601 1_455
O1 Sr7 2.630536 1_565
O1 Sr6 3.078969 1_555
O2 Sr2 2.452978 1_555
O2 Sr0 2.507573 1_555
O2 Sr8 2.551194 1_565
O2 Sr6 3.094956 1_555
O3 Sr4 2.452978 1_555
O3 Sr5 2.507573 1_556
O3 Sr10 2.551194 1_545
O3 Sr11 3.094956 1_456
O4 Sr4 2.599660 1_555
O4 Sr10 2.632057 1_555
O4 Sr8 2.681330 1_565
O4 Sr9 2.692102 1_555
O4 Sr7 2.719071 1_565
O5 Sr1 2.452978 1_555
O5 Sr9 2.507573 1_554
O5 Sr11 2.551194 1_565
O5 Sr10 3.094956 1_654
O6 Sr9 2.538813 1_554
O6 Sr1 2.568601 1_555
O6 Sr5 2.630536 1_565
O6 Sr10 3.078969 1_554
O7 Sr3 2.452978 1_555
O7 Sr7 2.507573 1_555
O7 Sr6 2.551194 1_545
O7 Sr8 3.094956 1_555
O8 Sr1 2.599660 1_555
O8 Sr11 2.632057 1_555
O8 Sr6 2.681330 1_545
O8 Sr5 2.692102 1_555
O8 Sr0 2.719071 1_545
O9 Sr3 2.599660 1_555
O9 Sr6 2.632057 1_555
O9 Sr11 2.681330 1_465
O9 Sr0 2.692102 1_455
O9 Sr5 2.719071 1_565
O10 Sr2 2.599660 1_555
O10 Sr8 2.632057 1_555
O10 Sr10 2.681330 1_645
O10 Sr7 2.692102 1_655
O10 Sr9 2.719071 1_545
O11 Sr5 2.538813 1_556
O11 Sr4 2.568601 1_555
O11 Sr9 2.630536 1_545
O11 Sr11 3.078969 1_556
