# generated using pymatgen
data_Ho11Te16ClO48
_symmetry_space_group_name_H-M   'P 1'
_cell_length_a   5.56676900
_cell_length_b   11.99040350
_cell_length_c   18.62240202
_cell_angle_alpha   100.67495455
_cell_angle_beta   95.89006832
_cell_angle_gamma   99.81543752
_symmetry_Int_Tables_number   1
_chemical_formula_structural   Ho11Te16ClO48
_chemical_formula_sum   'Ho11 Te16 Cl1 O48'
_cell_volume   1191.99754394
_cell_formula_units_Z   1
loop_
 _symmetry_equiv_pos_site_id
 _symmetry_equiv_pos_as_xyz
  1  'x, y, z'
loop_
 _atom_site_type_symbol
 _atom_site_label
 _atom_site_symmetry_multiplicity
 _atom_site_fract_x
 _atom_site_fract_y
 _atom_site_fract_z
 _atom_site_occupancy
  Ho  Ho0  1  0.13142100  0.56971000  0.72937600  1
  Ho  Ho1  1  0.08339800  0.88622200  0.18627800  1
  Ho  Ho2  1  0.91660200  0.11377800  0.81372200  1
  Ho  Ho3  1  0.86857900  0.43029000  0.27062400  1
  Ho  Ho4  1  0.71866100  0.78476800  0.70555400  1
  Ho  Ho5  1  0.28330200  0.10375900  0.47781400  1
  Ho  Ho6  1  0.28133900  0.21523200  0.29444600  1
  Ho  Ho7  1  0.00000000  0.00000000  0.00000000  1
  Ho  Ho8  1  0.55709000  0.68070700  0.22249100  1
  Ho  Ho9  1  0.71669800  0.89624100  0.52218600  1
  Ho  Ho10  1  0.44291000  0.31929300  0.77750900  1
  Te  Te0  1  0.79032900  0.20898700  0.61827100  1
  Te  Te1  1  0.49187900  0.80466700  0.04992400  1
  Te  Te2  1  0.16515000  0.68339000  0.56397200  1
  Te  Te3  1  0.06944000  0.44824900  0.89019800  1
  Te  Te4  1  0.64688500  0.11354000  0.16531000  1
  Te  Te5  1  0.79445500  0.99372400  0.33899300  1
  Te  Te6  1  0.20554500  0.00627600  0.66100700  1
  Te  Te7  1  0.22878200  0.32570700  0.11886700  1
  Te  Te8  1  0.83485000  0.31661000  0.43602800  1
  Te  Te9  1  0.77121800  0.67429300  0.88113300  1
  Te  Te10  1  0.20967100  0.79101300  0.38172900  1
  Te  Te11  1  0.50812100  0.19533300  0.95007600  1
  Te  Te12  1  0.35311500  0.88646000  0.83469000  1
  Te  Te13  1  0.50990900  0.55472300  0.39226600  1
  Te  Te14  1  0.49009100  0.44527700  0.60773400  1
  Te  Te15  1  0.93056000  0.55175100  0.10980200  1
  Cl  Cl0  1  0.50000000  0.50000000  0.00000000  1
  O  O0  1  0.47094800  0.73198700  0.43370000  1
  O  O1  1  0.18431900  0.16213800  0.07882100  1
  O  O2  1  0.87190400  0.92470200  0.64791500  1
  O  O3  1  0.30881700  0.39356400  0.68092400  1
  O  O4  1  0.37782300  0.78152400  0.13979800  1
  O  O5  1  0.14749600  0.29133300  0.85424200  1
  O  O6  1  0.10975700  0.31232100  0.21067300  1
  O  O7  1  0.44355800  0.60302600  0.65646000  1
  O  O8  1  0.60006400  0.25671500  0.22110400  1
  O  O9  1  0.65874800  0.19856400  0.70908000  1
  O  O10  1  0.91029500  0.07686000  0.22509000  1
  O  O11  1  0.34125200  0.80143600  0.29092000  1
  O  O12  1  0.08970500  0.92314000  0.77491000  1
  O  O13  1  0.07019400  0.64835700  0.92834000  1
  O  O14  1  0.69118300  0.60643600  0.31907600  1
  O  O15  1  0.81568100  0.83786200  0.92117900  1
  O  O16  1  0.92980600  0.35164300  0.07166000  1
  O  O17  1  0.39666000  0.93460800  0.43726300  1
  O  O18  1  0.15021500  0.14195100  0.72646700  1
  O  O19  1  0.85250400  0.70866700  0.14575800  1
  O  O20  1  0.62217700  0.21847600  0.86020200  1
  O  O21  1  0.69776600  0.08103000  0.95760600  1
  O  O22  1  0.29117700  0.49498600  0.82440800  1
  O  O23  1  0.01978600  0.23149100  0.48830400  1
  O  O24  1  0.81330300  0.45410000  0.65351500  1
  O  O25  1  0.52905200  0.26801300  0.56630000  1
  O  O26  1  0.55426100  0.19590700  0.39992400  1
  O  O27  1  0.60496500  0.95984500  0.78711500  1
  O  O28  1  0.90065100  0.94869900  0.42848700  1
  O  O29  1  0.44573900  0.80409300  0.60007600  1
  O  O30  1  0.84978500  0.85804900  0.27353300  1
  O  O31  1  0.12809600  0.07529800  0.35208500  1
  O  O32  1  0.18669700  0.54590000  0.34648500  1
  O  O33  1  0.09934900  0.05130100  0.57151300  1
  O  O34  1  0.70882300  0.50501400  0.17559200  1
  O  O35  1  0.20104500  0.08550800  0.91166800  1
  O  O36  1  0.20337300  0.55291200  0.18250300  1
  O  O37  1  0.60334000  0.06539200  0.56273700  1
  O  O38  1  0.39503500  0.04015500  0.21288500  1
  O  O39  1  0.55644200  0.39697400  0.34354000  1
  O  O40  1  0.79895500  0.91449200  0.08833200  1
  O  O41  1  0.00195700  0.30886000  0.35142300  1
  O  O42  1  0.79662700  0.44708800  0.81749700  1
  O  O43  1  0.30223400  0.91897000  0.04239400  1
  O  O44  1  0.39993600  0.74328500  0.77889600  1
  O  O45  1  0.98021400  0.76850900  0.51169600  1
  O  O46  1  0.99804300  0.69114000  0.64857700  1
  O  O47  1  0.89024300  0.68767900  0.78932700  1
loop_
_geom_bond_atom_site_label_1
_geom_bond_atom_site_label_2
_geom_bond_distance
_geom_bond_site_symmetry_2
Ho0 O24 2.231020 1_455
Ho0 O22 2.293833 1_555
Ho0 O44 2.315520 1_555
Ho0 O47 2.328051 1_455
Ho0 O7 2.339054 1_555
Ho0 O46 2.426142 1_455
Ho0 O3 2.537346 1_555
Ho1 O30 2.221013 1_455
Ho1 O19 2.242037 1_455
Ho1 O38 2.248291 1_565
Ho1 O4 2.366770 1_555
Ho1 O40 2.401744 1_455
Ho1 O10 2.637774 1_465
Ho1 O11 2.747486 1_555
Ho2 O18 2.221013 1_655
Ho2 O5 2.242037 1_655
Ho2 O27 2.248291 1_545
Ho2 O20 2.366770 1_555
Ho2 O35 2.401744 1_655
Ho2 O12 2.637774 1_645
Ho2 O9 2.747486 1_555
Ho3 O32 2.231020 1_655
Ho3 O34 2.293833 1_555
Ho3 O8 2.315520 1_555
Ho3 O6 2.328051 1_655
Ho3 O39 2.339054 1_555
Ho3 O41 2.426142 1_655
Ho3 O14 2.537346 1_555
Ho4 O2 2.249940 1_555
Ho4 O46 2.301660 1_555
Ho4 O47 2.333971 1_555
Ho4 O44 2.389351 1_555
Ho4 O7 2.401374 1_555
Ho4 O29 2.428249 1_555
Ho4 O12 2.485439 1_655
Ho4 O27 2.565817 1_555
Ho5 O33 2.245587 1_555
Ho5 O17 2.246948 1_545
Ho5 O23 2.291224 1_555
Ho5 O31 2.352288 1_555
Ho5 O37 2.420207 1_555
Ho5 O25 2.425293 1_555
Ho5 O26 2.464642 1_555
Ho5 O28 2.540351 1_445
Ho6 O31 2.249940 1_555
Ho6 O41 2.301660 1_555
Ho6 O6 2.333971 1_555
Ho6 O8 2.389351 1_555
Ho6 O39 2.401374 1_555
Ho6 O26 2.428249 1_555
Ho6 O10 2.485439 1_455
Ho6 O38 2.565817 1_555
Ho7 O1 2.222713 1_555
Ho7 O15 2.222713 1_444
Ho7 O43 2.228639 1_545
Ho7 O21 2.228639 1_454
Ho7 O40 2.370874 1_445
Ho7 O35 2.370874 1_554
Ho8 O36 2.242169 1_555
Ho8 O14 2.264927 1_555
Ho8 O19 2.308785 1_555
Ho8 O11 2.320968 1_555
Ho8 O4 2.369417 1_555
Ho8 O30 2.414946 1_555
Ho8 O34 2.447568 1_555
Ho9 O28 2.245587 1_555
Ho9 O37 2.246948 1_565
Ho9 O45 2.291224 1_555
Ho9 O2 2.352288 1_555
Ho9 O17 2.420207 1_555
Ho9 O0 2.425293 1_555
Ho9 O29 2.464642 1_555
Ho9 O33 2.540351 1_665
Ho10 O42 2.242169 1_555
Ho10 O3 2.264927 1_555
Ho10 O5 2.308785 1_555
Ho10 O9 2.320968 1_555
Ho10 O20 2.369417 1_555
Ho10 O18 2.414946 1_555
Ho10 O22 2.447568 1_555
Cl0 Te15 2.885812 1_555
Cl0 Te3 2.885812 1_554
O0 Te10 1.966950 1_555
O0 Te13 2.178062 1_555
O1 Te7 1.928390 1_555
O2 Te6 1.914429 1_665
O3 Te14 1.908539 1_555
O4 Te1 1.900366 1_555
O5 Te3 2.012180 1_555
O6 Te7 1.919784 1_555
O7 Te14 2.011861 1_555
O7 Te2 2.621672 1_555
O8 Te4 1.908393 1_555
O9 Te0 1.926971 1_555
O10 Te4 1.910274 1_555
O10 Te5 2.598787 1_545
O11 Te10 1.926971 1_555
O12 Te12 1.910274 1_555
O12 Te6 2.598787 1_565
O13 Te9 1.901840 1_455
O13 Te3 2.371942 1_555
O14 Te13 1.908539 1_555
O15 Te9 1.928390 1_555
O16 Te7 1.901840 1_655
O16 Te15 2.371942 1_555
O17 Te10 1.904164 1_555
O18 Te6 1.934055 1_555
O19 Te15 2.012180 1_555
O20 Te11 1.900366 1_555
O21 Te11 1.883268 1_555
O22 Te3 1.915103 1_555
O23 Te8 1.889407 1_455
O24 Te14 1.887375 1_555
O25 Te0 1.966950 1_555
O25 Te14 2.178062 1_555
O26 Te8 1.907781 1_555
O27 Te12 1.909945 1_555
O28 Te5 1.912696 1_555
O29 Te2 1.907781 1_555
O30 Te5 1.934055 1_555
O31 Te5 1.914429 1_445
O32 Te13 1.887375 1_555
O33 Te6 1.912696 1_555
O34 Te15 1.915103 1_555
O35 Te11 1.949465 1_555
O36 Te15 1.924416 1_455
O37 Te0 1.904164 1_555
O38 Te4 1.909945 1_555
O39 Te13 2.011861 1_555
O39 Te8 2.621672 1_555
O40 Te1 1.949465 1_555
O41 Te8 1.905882 1_455
O42 Te3 1.924416 1_655
O43 Te1 1.883268 1_555
O44 Te12 1.908393 1_555
O45 Te2 1.889407 1_655
O46 Te2 1.905882 1_655
O47 Te9 1.919784 1_555
