# generated using pymatgen
data_KFeF4
_symmetry_space_group_name_H-M   'P 1'
_cell_length_a   7.57199362
_cell_length_b   7.76463019
_cell_length_c   12.15214817
_cell_angle_alpha   90.00000000
_cell_angle_beta   90.00000000
_cell_angle_gamma   90.00000000
_symmetry_Int_Tables_number   1
_chemical_formula_structural   KFeF4
_chemical_formula_sum   'K8 Fe8 F32'
_cell_volume   714.47012159
_cell_formula_units_Z   8
loop_
 _symmetry_equiv_pos_site_id
 _symmetry_equiv_pos_as_xyz
  1  'x, y, z'
loop_
 _atom_site_type_symbol
 _atom_site_label
 _atom_site_symmetry_multiplicity
 _atom_site_fract_x
 _atom_site_fract_y
 _atom_site_fract_z
 _atom_site_occupancy
  K  K0  1  0.75000000  0.37512124  0.02647336  1
  K  K1  1  0.25000000  0.37600492  0.48809346  1
  K  K2  1  0.75000000  0.87600492  0.01190654  1
  K  K3  1  0.25000000  0.62487876  0.97352664  1
  K  K4  1  0.25000000  0.87512124  0.47352664  1
  K  K5  1  0.75000000  0.12487876  0.52647336  1
  K  K6  1  0.75000000  0.62399508  0.51190654  1
  K  K7  1  0.25000000  0.12399508  0.98809346  1
  Fe  Fe0  1  0.00096999  0.62562835  0.24784764  1
  Fe  Fe1  1  0.99903001  0.12562835  0.25215236  1
  Fe  Fe2  1  0.99903001  0.37437165  0.75215236  1
  Fe  Fe3  1  0.50096999  0.37437165  0.75215236  1
  Fe  Fe4  1  0.49903001  0.87437165  0.74784764  1
  Fe  Fe5  1  0.50096999  0.12562835  0.25215236  1
  Fe  Fe6  1  0.49903001  0.62562835  0.24784764  1
  Fe  Fe7  1  0.00096999  0.87437165  0.74784764  1
  F  F0  1  0.04922934  0.87561391  0.25247417  1
  F  F1  1  0.44854147  0.61589422  0.39912982  1
  F  F2  1  0.04922934  0.62438609  0.75247417  1
  F  F3  1  0.45204121  0.36533234  0.90376516  1
  F  F4  1  0.54795879  0.86533234  0.59623484  1
  F  F5  1  0.75000000  0.41996500  0.79088702  1
  F  F6  1  0.94854147  0.38410578  0.60087018  1
  F  F7  1  0.45077066  0.62438609  0.75247417  1
  F  F8  1  0.75000000  0.82952710  0.78437567  1
  F  F9  1  0.05145853  0.61589422  0.39912982  1
  F  F10  1  0.55145853  0.11589422  0.10087018  1
  F  F11  1  0.54922934  0.37561391  0.24752583  1
  F  F12  1  0.55145853  0.38410578  0.60087018  1
  F  F13  1  0.94854147  0.11589422  0.10087018  1
  F  F14  1  0.54795879  0.63466766  0.09623484  1
  F  F15  1  0.45204121  0.13466766  0.40376516  1
  F  F16  1  0.05145853  0.88410578  0.89912982  1
  F  F17  1  0.25000000  0.91996500  0.70911298  1
  F  F18  1  0.95204121  0.63466766  0.09623484  1
  F  F19  1  0.75000000  0.67047290  0.28437567  1
  F  F20  1  0.25000000  0.32952710  0.71562433  1
  F  F21  1  0.95077066  0.37561391  0.24752583  1
  F  F22  1  0.54922934  0.12438609  0.74752583  1
  F  F23  1  0.95204121  0.86533234  0.59623484  1
  F  F24  1  0.44854147  0.88410578  0.89912982  1
  F  F25  1  0.45077066  0.87561391  0.25247417  1
  F  F26  1  0.04795879  0.13466766  0.40376516  1
  F  F27  1  0.25000000  0.17047290  0.21562433  1
  F  F28  1  0.95077066  0.12438609  0.74752583  1
  F  F29  1  0.25000000  0.58003500  0.20911298  1
  F  F30  1  0.75000000  0.08003500  0.29088702  1
  F  F31  1  0.04795879  0.36533234  0.90376516  1
loop_
_geom_bond_atom_site_label_1
_geom_bond_atom_site_label_2
_geom_bond_distance
_geom_bond_site_symmetry_2
F0 Fe0 1.975943 1_555
F0 Fe1 1.978137 1_465
F0 K4 3.086605 1_555
F1 Fe6 1.879253 1_555
F1 K1 2.626466 1_555
F1 K6 2.663198 1_555
F1 K4 2.669983 1_555
F2 Fe7 1.975943 1_555
F2 Fe2 1.978137 1_455
F2 K3 3.086605 1_555
F3 Fe3 1.880613 1_555
F3 K7 2.627183 1_555
F3 K3 2.668427 1_555
F3 K0 2.705464 1_556
F4 Fe4 1.880613 1_555
F4 K6 2.627183 1_555
F4 K5 2.668427 1_565
F4 K4 2.705464 1_555
F5 Fe3 1.975496 1_555
F5 Fe2 1.975496 1_555
F5 K0 2.883977 1_556
F6 Fe2 1.879253 1_555
F6 K6 2.626466 1_555
F6 K1 2.663198 1_655
F6 K5 2.669983 1_555
F7 Fe4 1.975943 1_555
F7 Fe3 1.978137 1_555
F7 K3 3.086605 1_555
F8 Fe4 1.982319 1_555
F8 Fe7 1.982319 1_655
F8 K2 2.788440 1_556
F9 Fe0 1.879253 1_555
F9 K1 2.626466 1_555
F9 K6 2.663198 1_455
F9 K4 2.669983 1_555
F10 Fe5 1.879253 1_555
F10 K2 2.626466 1_545
F10 K7 2.663198 1_554
F10 K0 2.669983 1_555
F11 Fe5 1.975943 1_555
F11 Fe6 1.978137 1_555
F11 K0 3.086605 1_555
F12 Fe3 1.879253 1_555
F12 K6 2.626466 1_555
F12 K1 2.663198 1_555
F12 K5 2.669983 1_555
F13 Fe1 1.879253 1_555
F13 K2 2.626466 1_545
F13 K7 2.663198 1_654
F13 K0 2.669983 1_555
F14 Fe6 1.880613 1_555
F14 K2 2.627183 1_555
F14 K0 2.668427 1_555
F14 K3 2.705464 1_554
F15 Fe5 1.880613 1_555
F15 K1 2.627183 1_555
F15 K4 2.668427 1_545
F15 K5 2.705464 1_555
F16 Fe7 1.879253 1_555
F16 K7 2.626466 1_565
F16 K2 2.663198 1_456
F16 K3 2.669983 1_555
F17 Fe7 1.975496 1_555
F17 Fe4 1.975496 1_555
F17 K4 2.883977 1_555
F18 Fe0 1.880613 1_655
F18 K2 2.627183 1_555
F18 K0 2.668427 1_555
F18 K3 2.705464 1_654
F19 Fe6 1.982319 1_555
F19 Fe0 1.982319 1_655
F19 K6 2.788440 1_555
F20 Fe2 1.982319 1_455
F20 Fe3 1.982319 1_555
F20 K1 2.788440 1_555
F21 Fe1 1.975943 1_555
F21 Fe0 1.978137 1_655
F21 K0 3.086605 1_555
F22 Fe3 1.975943 1_555
F22 Fe4 1.978137 1_545
F22 K5 3.086605 1_555
F23 Fe7 1.880613 1_655
F23 K6 2.627183 1_555
F23 K5 2.668427 1_565
F23 K4 2.705464 1_655
F24 Fe4 1.879253 1_555
F24 K7 2.626466 1_565
F24 K2 2.663198 1_556
F24 K3 2.669983 1_555
F25 Fe6 1.975943 1_555
F25 Fe5 1.978137 1_565
F25 K4 3.086605 1_555
F26 Fe1 1.880613 1_455
F26 K1 2.627183 1_555
F26 K4 2.668427 1_545
F26 K5 2.705464 1_455
F27 Fe5 1.982319 1_555
F27 Fe1 1.982319 1_455
F27 K7 2.788440 1_554
F28 Fe2 1.975943 1_555
F28 Fe7 1.978137 1_645
F28 K5 3.086605 1_555
F29 Fe0 1.975496 1_555
F29 Fe6 1.975496 1_555
F29 K3 2.883977 1_554
F30 Fe5 1.975496 1_555
F30 Fe1 1.975496 1_555
F30 K5 2.883977 1_555
F31 Fe2 1.880613 1_455
F31 K7 2.627183 1_555
F31 K3 2.668427 1_555
F31 K0 2.705464 1_456
