# generated using pymatgen
data_GdZr3F15
_symmetry_space_group_name_H-M   'P 1'
_cell_length_a   8.25884500
_cell_length_b   8.26574495
_cell_length_c   16.52344293
_cell_angle_alpha   100.19240882
_cell_angle_beta   100.17807360
_cell_angle_gamma   100.16765093
_symmetry_Int_Tables_number   1
_chemical_formula_structural   GdZr3F15
_chemical_formula_sum   'Gd4 Zr12 F60'
_cell_volume   1067.27471221
_cell_formula_units_Z   4
loop_
 _symmetry_equiv_pos_site_id
 _symmetry_equiv_pos_as_xyz
  1  'x, y, z'
loop_
 _atom_site_type_symbol
 _atom_site_label
 _atom_site_symmetry_multiplicity
 _atom_site_fract_x
 _atom_site_fract_y
 _atom_site_fract_z
 _atom_site_occupancy
  Gd  Gd0  1  0.32364500  0.17781500  0.87469300  1
  Gd  Gd1  1  0.24975700  0.67775400  0.41117600  1
  Gd  Gd2  1  0.75024300  0.32224600  0.58882400  1
  Gd  Gd3  1  0.67635500  0.82218500  0.12530700  1
  Zr  Zr0  1  0.24521100  0.67597400  0.91185300  1
  Zr  Zr1  1  0.17756900  0.74850400  0.66267600  1
  Zr  Zr2  1  0.24941600  0.24899800  0.62332500  1
  Zr  Zr3  1  0.17548400  0.74983500  0.16012700  1
  Zr  Zr4  1  0.32185100  0.17653000  0.37319200  1
  Zr  Zr5  1  0.25210300  0.25054800  0.12584300  1
  Zr  Zr6  1  0.74789700  0.74945200  0.87415700  1
  Zr  Zr7  1  0.67814900  0.82347000  0.62680800  1
  Zr  Zr8  1  0.82451600  0.25016500  0.83987300  1
  Zr  Zr9  1  0.75058400  0.75100200  0.37667500  1
  Zr  Zr10  1  0.82243100  0.25149600  0.33732400  1
  Zr  Zr11  1  0.75478900  0.32402600  0.08814700  1
  F  F0  1  0.00448200  0.77222100  0.88664100  1
  F  F1  1  0.03513500  0.46579400  0.88007200  1
  F  F2  1  0.03577800  0.15266500  0.84004800  1
  F  F3  1  0.00321100  0.78315800  0.38941200  1
  F  F4  1  0.18876700  0.65207800  0.77928200  1
  F  F5  1  0.24408000  0.95194000  0.76241400  1
  F  F6  1  0.02465100  0.45293400  0.36669600  1
  F  F7  1  0.31093100  0.93255200  0.92424000  1
  F  F8  1  0.21776200  0.22234200  0.99986400  1
  F  F9  1  0.22388000  0.99373000  0.61212200  1
  F  F10  1  0.14972900  0.68772100  0.53429000  1
  F  F11  1  0.05396900  0.15373900  0.34309600  1
  F  F12  1  0.34483800  0.46351400  0.90830700  1
  F  F13  1  0.27479600  0.28078400  0.74972500  1
  F  F14  1  0.27646300  0.50742300  0.63969900  1
  F  F15  1  0.17707800  0.65481900  0.26615700  1
  F  F16  1  0.25225200  0.96735200  0.26810900  1
  F  F17  1  0.31789700  0.96358000  0.42242500  1
  F  F18  1  0.22241800  0.22613900  0.49563100  1
  F  F19  1  0.22376200  0.99473200  0.11188800  1
  F  F20  1  0.15027200  0.68610700  0.02643700  1
  F  F21  1  0.49509500  0.72462600  0.86031000  1
  F  F22  1  0.44701000  0.81194200  0.67408500  1
  F  F23  1  0.34904000  0.43373200  0.40582800  1
  F  F24  1  0.27521100  0.27431800  0.25367500  1
  F  F25  1  0.27554900  0.50472500  0.13626400  1
  F  F26  1  0.54823100  0.25396500  0.98704100  1
  F  F27  1  0.47342200  0.75400500  0.52400600  1
  F  F28  1  0.56816100  0.18467900  0.82463800  1
  F  F29  1  0.50280700  0.27534100  0.64052600  1
  F  F30  1  0.49719300  0.72465900  0.35947400  1
  F  F31  1  0.43183900  0.81532100  0.17536200  1
  F  F32  1  0.52657800  0.24599500  0.47599400  1
  F  F33  1  0.45176900  0.74603500  0.01295900  1
  F  F34  1  0.72445100  0.49527500  0.86373600  1
  F  F35  1  0.72478900  0.72568200  0.74632500  1
  F  F36  1  0.65096000  0.56626800  0.59417200  1
  F  F37  1  0.55299000  0.18805800  0.32591500  1
  F  F38  1  0.50490500  0.27537400  0.13969000  1
  F  F39  1  0.84972800  0.31389300  0.97356300  1
  F  F40  1  0.77623800  0.00526800  0.88811200  1
  F  F41  1  0.77758200  0.77386100  0.50436900  1
  F  F42  1  0.68210300  0.03642000  0.57757500  1
  F  F43  1  0.74774800  0.03264800  0.73189100  1
  F  F44  1  0.82292200  0.34518100  0.73384300  1
  F  F45  1  0.72353700  0.49257700  0.36030100  1
  F  F46  1  0.72520400  0.71921600  0.25027500  1
  F  F47  1  0.65516200  0.53648600  0.09169300  1
  F  F48  1  0.94603100  0.84626100  0.65690400  1
  F  F49  1  0.85027100  0.31227900  0.46571000  1
  F  F50  1  0.77612000  0.00627000  0.38787800  1
  F  F51  1  0.78223800  0.77765800  0.00013600  1
  F  F52  1  0.68906900  0.06744800  0.07576000  1
  F  F53  1  0.97534900  0.54706600  0.63330400  1
  F  F54  1  0.75592000  0.04806000  0.23758600  1
  F  F55  1  0.81123300  0.34792200  0.22071800  1
  F  F56  1  0.99678900  0.21684200  0.61058800  1
  F  F57  1  0.96422200  0.84733500  0.15995200  1
  F  F58  1  0.96486500  0.53420600  0.11992800  1
  F  F59  1  0.99551800  0.22777900  0.11335900  1
loop_
_geom_bond_atom_site_label_1
_geom_bond_atom_site_label_2
_geom_bond_distance
_geom_bond_site_symmetry_2
F0 Zr6 2.063857 1_455
F0 Zr0 2.267635 1_555
F1 Zr0 2.143613 1_555
F1 Zr8 2.172960 1_455
F2 Zr8 2.046765 1_455
F2 Gd0 2.307722 1_555
F3 Zr9 2.024169 1_455
F3 Gd1 2.347949 1_555
F4 Zr0 2.123256 1_555
F4 Zr1 2.205141 1_555
F5 Zr1 2.053897 1_555
F5 Gd0 2.295566 1_565
F6 Zr10 2.059831 1_455
F6 Gd1 2.294290 1_555
F7 Zr0 2.057918 1_555
F7 Gd0 2.309492 1_565
F8 Zr5 2.015969 1_556
F8 Gd0 2.379342 1_555
F9 Zr2 2.054659 1_565
F9 Zr1 2.321878 1_555
F10 Zr1 2.053087 1_555
F10 Gd1 2.320807 1_555
F11 Zr4 2.146707 1_555
F11 Zr10 2.197046 1_455
F12 Zr0 2.062824 1_555
F12 Gd0 2.295951 1_555
F13 Zr2 2.026498 1_555
F13 Gd0 2.366384 1_555
F14 Zr2 2.071608 1_555
F14 Zr1 2.280042 1_555
F15 Zr3 2.041787 1_555
F15 Gd1 2.329979 1_555
F16 Zr4 2.137437 1_565
F16 Zr3 2.209181 1_555
F17 Zr4 2.063244 1_565
F17 Gd1 2.295902 1_555
F18 Zr2 2.053059 1_555
F18 Zr4 2.312565 1_555
F19 Zr5 2.052495 1_565
F19 Zr3 2.300066 1_555
F20 Zr3 2.141844 1_555
F20 Zr0 2.167532 1_554
F21 Zr6 2.029010 1_555
F21 Zr0 2.365483 1_555
F22 Zr1 2.160352 1_555
F22 Zr7 2.180028 1_555
F23 Zr4 2.060067 1_555
F23 Gd1 2.301082 1_555
F24 Zr5 2.057654 1_555
F24 Zr4 2.260017 1_555
F25 Zr5 2.048838 1_555
F25 Zr3 2.316629 1_555
F26 Zr11 2.082816 1_556
F26 Gd0 2.289118 1_555
F27 Zr7 2.090677 1_555
F27 Gd1 2.289366 1_555
F28 Zr8 2.048826 1_555
F28 Gd0 2.309064 1_555
F29 Zr2 2.028464 1_555
F29 Gd2 2.347479 1_555
F30 Zr9 2.028464 1_555
F30 Gd1 2.347479 1_555
F31 Zr3 2.048826 1_555
F31 Gd3 2.309064 1_555
F32 Zr4 2.090677 1_555
F32 Gd2 2.289366 1_555
F33 Zr0 2.082816 1_554
F33 Gd3 2.289118 1_555
F34 Zr6 2.048838 1_555
F34 Zr8 2.316629 1_555
F35 Zr6 2.057654 1_555
F35 Zr7 2.260017 1_555
F36 Zr7 2.060067 1_555
F36 Gd2 2.301082 1_555
F37 Zr10 2.160352 1_555
F37 Zr4 2.180028 1_555
F38 Zr5 2.029010 1_555
F38 Zr11 2.365483 1_555
F39 Zr8 2.141844 1_555
F39 Zr11 2.167532 1_556
F40 Zr6 2.052495 1_545
F40 Zr8 2.300066 1_555
F41 Zr9 2.053059 1_555
F41 Zr7 2.312565 1_555
F42 Zr7 2.063244 1_545
F42 Gd2 2.295902 1_555
F43 Zr7 2.137437 1_545
F43 Zr8 2.209181 1_555
F44 Zr8 2.041787 1_555
F44 Gd2 2.329979 1_555
F45 Zr9 2.071608 1_555
F45 Zr10 2.280042 1_555
F46 Zr9 2.026498 1_555
F46 Gd3 2.366384 1_555
F47 Zr11 2.062824 1_555
F47 Gd3 2.295951 1_555
F48 Zr7 2.146707 1_555
F48 Zr1 2.197046 1_655
F49 Zr10 2.053087 1_555
F49 Gd2 2.320807 1_555
F50 Zr9 2.054659 1_545
F50 Zr10 2.321878 1_555
F51 Zr6 2.015969 1_554
F51 Gd3 2.379342 1_555
F52 Zr11 2.057918 1_555
F52 Gd3 2.309492 1_545
F53 Zr1 2.059831 1_655
F53 Gd2 2.294290 1_555
F54 Zr10 2.053897 1_555
F54 Gd3 2.295566 1_545
F55 Zr11 2.123256 1_555
F55 Zr10 2.205141 1_555
F56 Zr2 2.024169 1_655
F56 Gd2 2.347949 1_555
F57 Zr3 2.046765 1_655
F57 Gd3 2.307722 1_555
F58 Zr11 2.143613 1_555
F58 Zr3 2.172960 1_655
F59 Zr5 2.063857 1_655
F59 Zr11 2.267635 1_555
