# generated using pymatgen
data_BaCrF5
_symmetry_space_group_name_H-M   'P 1'
_cell_length_a   4.89677907
_cell_length_b   5.71568919
_cell_length_c   13.96319989
_cell_angle_alpha   90.00000000
_cell_angle_beta   90.00000000
_cell_angle_gamma   90.00000000
_symmetry_Int_Tables_number   1
_chemical_formula_structural   BaCrF5
_chemical_formula_sum   'Ba4 Cr4 F20'
_cell_volume   390.80856208
_cell_formula_units_Z   4
loop_
 _symmetry_equiv_pos_site_id
 _symmetry_equiv_pos_as_xyz
  1  'x, y, z'
loop_
 _atom_site_type_symbol
 _atom_site_label
 _atom_site_symmetry_multiplicity
 _atom_site_fract_x
 _atom_site_fract_y
 _atom_site_fract_z
 _atom_site_occupancy
  Ba  Ba0  1  0.72429360  0.66018905  0.65835194  1
  Ba  Ba1  1  0.22429360  0.83981095  0.34164806  1
  Ba  Ba2  1  0.27570640  0.16018905  0.84164806  1
  Ba  Ba3  1  0.77570640  0.33981095  0.15835194  1
  Cr  Cr0  1  0.32495878  0.14711840  0.58414490  1
  Cr  Cr1  1  0.82495878  0.35288160  0.41585510  1
  Cr  Cr2  1  0.67504122  0.64711840  0.91585510  1
  Cr  Cr3  1  0.17504122  0.85288160  0.08414490  1
  F  F0  1  0.97408999  0.60277899  0.48687341  1
  F  F1  1  0.47408999  0.89722101  0.51312659  1
  F  F2  1  0.02591001  0.10277899  0.01312659  1
  F  F3  1  0.52591001  0.39722101  0.98687341  1
  F  F4  1  0.67546638  0.57436200  0.32948814  1
  F  F5  1  0.17546638  0.92563800  0.67051186  1
  F  F6  1  0.32453362  0.07436200  0.17051186  1
  F  F7  1  0.82453362  0.42563800  0.82948814  1
  F  F8  1  0.19276357  0.39921898  0.66099327  1
  F  F9  1  0.69276357  0.10078102  0.33900673  1
  F  F10  1  0.80723643  0.89921898  0.83900673  1
  F  F11  1  0.30723643  0.60078102  0.16099327  1
  F  F12  1  0.62950797  0.15304634  0.66730917  1
  F  F13  1  0.12950797  0.34695366  0.33269083  1
  F  F14  1  0.37049203  0.65304634  0.83269083  1
  F  F15  1  0.87049203  0.84695366  0.16730917  1
  F  F16  1  0.50877972  0.37117370  0.50110971  1
  F  F17  1  0.00877972  0.12882630  0.49889029  1
  F  F18  1  0.49122028  0.87117370  0.99889029  1
  F  F19  1  0.99122028  0.62882630  0.00110971  1
loop_
_geom_bond_atom_site_label_1
_geom_bond_atom_site_label_2
_geom_bond_distance
_geom_bond_site_symmetry_2
Ba0 F5 2.685475 1_655
Ba0 F0 2.708687 1_555
Ba0 F1 2.729212 1_555
Ba0 F8 2.736551 1_655
Ba0 F7 2.783601 1_555
Ba0 F12 2.857739 1_565
Ba0 F10 2.897347 1_555
Ba0 F12 2.938258 1_555
Ba0 F16 2.943337 1_555
Ba0 F14 2.988166 1_555
Ba0 F8 3.000132 1_555
Ba0 F5 3.090854 1_555
Ba1 F4 2.685475 1_555
Ba1 F1 2.708687 1_555
Ba1 F0 2.729212 1_455
Ba1 F9 2.736551 1_565
Ba1 F6 2.783601 1_565
Ba1 F13 2.857739 1_555
Ba1 F11 2.897347 1_555
Ba1 F13 2.938258 1_565
Ba1 F17 2.943337 1_565
Ba1 F15 2.988166 1_455
Ba1 F9 3.000132 1_465
Ba1 F4 3.090854 1_455
Ba2 F7 2.685475 1_455
Ba2 F2 2.708687 1_556
Ba2 F3 2.729212 1_555
Ba2 F10 2.736551 1_445
Ba2 F5 2.783601 1_545
Ba2 F14 2.857739 1_555
Ba2 F8 2.897347 1_555
Ba2 F14 2.938258 1_545
Ba2 F18 2.943337 1_545
Ba2 F12 2.988166 1_555
Ba2 F10 3.000132 1_545
Ba2 F7 3.090854 1_555
Ba3 F6 2.685475 1_555
Ba3 F3 2.708687 1_554
Ba3 F2 2.729212 1_655
Ba3 F11 2.736551 1_555
Ba3 F4 2.783601 1_555
Ba3 F15 2.857739 1_545
Ba3 F9 2.897347 1_555
Ba3 F15 2.938258 1_555
Ba3 F19 2.943337 1_555
Ba3 F13 2.988166 1_655
Ba3 F11 3.000132 1_655
Ba3 F6 3.090854 1_655
Cr0 F1 1.885943 1_545
Cr0 F12 1.890405 1_555
Cr0 F5 1.895453 1_545
Cr0 F8 1.909646 1_555
Cr0 F16 1.947959 1_555
Cr0 F17 1.955800 1_555
Cr1 F0 1.885943 1_555
Cr1 F13 1.890405 1_655
Cr1 F4 1.895453 1_555
Cr1 F9 1.909646 1_555
Cr1 F17 1.947959 1_655
Cr1 F16 1.955800 1_555
Cr2 F3 1.885943 1_555
Cr2 F14 1.890405 1_555
Cr2 F7 1.895453 1_555
Cr2 F10 1.909646 1_555
Cr2 F18 1.947959 1_555
Cr2 F19 1.955800 1_556
Cr3 F2 1.885943 1_565
Cr3 F15 1.890405 1_455
Cr3 F6 1.895453 1_565
Cr3 F11 1.909646 1_555
Cr3 F19 1.947959 1_455
Cr3 F18 1.955800 1_554
