# generated using pymatgen
data_SrAgB7O12
_symmetry_space_group_name_H-M   'P 1'
_cell_length_a   6.74918728
_cell_length_b   6.74918728
_cell_length_c   22.37051218
_cell_angle_alpha   88.76360106
_cell_angle_beta   88.76360106
_cell_angle_gamma   120.29675047
_symmetry_Int_Tables_number   1
_chemical_formula_structural   SrAgB7O12
_chemical_formula_sum   'Sr4 Ag4 B28 O48'
_cell_volume   879.01166461
_cell_formula_units_Z   4
loop_
 _symmetry_equiv_pos_site_id
 _symmetry_equiv_pos_as_xyz
  1  'x, y, z'
loop_
 _atom_site_type_symbol
 _atom_site_label
 _atom_site_symmetry_multiplicity
 _atom_site_fract_x
 _atom_site_fract_y
 _atom_site_fract_z
 _atom_site_occupancy
  Sr  Sr0  1  0.83937900  0.16960200  0.94186200  1
  Sr  Sr1  1  0.16062100  0.83039800  0.05813800  1
  Sr  Sr2  1  0.83039800  0.16062100  0.55813800  1
  Sr  Sr3  1  0.16960200  0.83937900  0.44186200  1
  Ag  Ag0  1  0.54120500  0.73568700  0.19977600  1
  Ag  Ag1  1  0.45879500  0.26431300  0.80022400  1
  Ag  Ag2  1  0.73568700  0.54120500  0.69977600  1
  Ag  Ag3  1  0.26431300  0.45879500  0.30022400  1
  B  B0  1  0.83754000  0.29271600  0.19169000  1
  B  B1  1  0.41729900  0.65532700  0.56339400  1
  B  B2  1  0.65532700  0.41729900  0.06339400  1
  B  B3  1  0.34467300  0.58270100  0.93660600  1
  B  B4  1  0.58270100  0.34467300  0.43660600  1
  B  B5  1  0.13711100  0.23031200  0.69208000  1
  B  B6  1  0.73884400  0.66736900  0.90743700  1
  B  B7  1  0.17496800  0.83990500  0.91596500  1
  B  B8  1  0.03651900  0.72345600  0.21130700  1
  B  B9  1  0.73123900  0.57332400  0.56376600  1
  B  B10  1  0.33263100  0.26115600  0.59256300  1
  B  B11  1  0.86288900  0.76968800  0.30792000  1
  B  B12  1  0.76968800  0.86288900  0.80792000  1
  B  B13  1  0.66736900  0.73884400  0.40743700  1
  B  B14  1  0.42667600  0.26876100  0.93623400  1
  B  B15  1  0.70728400  0.16246000  0.30831000  1
  B  B16  1  0.83990500  0.17496800  0.41596500  1
  B  B17  1  0.23031200  0.13711100  0.19208000  1
  B  B18  1  0.82503200  0.16009500  0.08403500  1
  B  B19  1  0.27654400  0.96348100  0.28869300  1
  B  B20  1  0.16009500  0.82503200  0.58403500  1
  B  B21  1  0.16246000  0.70728400  0.80831000  1
  B  B22  1  0.29271600  0.83754000  0.69169000  1
  B  B23  1  0.96348100  0.27654400  0.78869300  1
  B  B24  1  0.26876100  0.42667600  0.43623400  1
  B  B25  1  0.72345600  0.03651900  0.71130700  1
  B  B26  1  0.26115600  0.33263100  0.09256300  1
  B  B27  1  0.57332400  0.73123900  0.06376600  1
  O  O0  1  0.26253300  0.42671000  0.56796000  1
  O  O1  1  0.84120300  0.71085200  0.24866200  1
  O  O2  1  0.04185100  0.17517500  0.06923400  1
  O  O3  1  0.42337800  0.65604100  0.42716600  1
  O  O4  1  0.17517500  0.04185100  0.56923400  1
  O  O5  1  0.87697300  0.07680800  0.83269500  1
  O  O6  1  0.04290600  0.36210700  0.44642400  1
  O  O7  1  0.20858100  0.79141900  0.75000000  1
  O  O8  1  0.04574200  0.47858600  0.82409600  1
  O  O9  1  0.82482500  0.95814900  0.43076600  1
  O  O10  1  0.95709400  0.63789300  0.55357600  1
  O  O11  1  0.33199600  0.27907200  0.65880700  1
  O  O12  1  0.65604100  0.42337800  0.92716600  1
  O  O13  1  0.36210700  0.04290600  0.94642400  1
  O  O14  1  0.65423400  0.73024700  0.56350900  1
  O  O15  1  0.57329000  0.73746700  0.93204000  1
  O  O16  1  0.34576600  0.26975300  0.43649100  1
  O  O17  1  0.82610400  0.36670500  0.05616200  1
  O  O18  1  0.28914800  0.15879700  0.25133800  1
  O  O19  1  0.92319200  0.12302700  0.66730500  1
  O  O20  1  0.95425800  0.52141400  0.17590400  1
  O  O21  1  0.76066000  0.12909100  0.14840100  1
  O  O22  1  0.36670500  0.82610400  0.55616200  1
  O  O23  1  0.17389600  0.63329500  0.94383800  1
  O  O24  1  0.63789300  0.95709400  0.05357600  1
  O  O25  1  0.26975300  0.34576600  0.93649100  1
  O  O26  1  0.63329500  0.17389600  0.44383800  1
  O  O27  1  0.79141900  0.20858100  0.25000000  1
  O  O28  1  0.47858600  0.04574200  0.32409600  1
  O  O29  1  0.73024700  0.65423400  0.06350900  1
  O  O30  1  0.72092800  0.66800400  0.84119300  1
  O  O31  1  0.15879700  0.28914800  0.75133800  1
  O  O32  1  0.23060900  0.76939100  0.25000000  1
  O  O33  1  0.12302700  0.92319200  0.16730500  1
  O  O34  1  0.66800400  0.72092800  0.34119300  1
  O  O35  1  0.34395900  0.57662200  0.07283400  1
  O  O36  1  0.95814900  0.82482500  0.93076600  1
  O  O37  1  0.73746700  0.57329000  0.43204000  1
  O  O38  1  0.07680800  0.87697300  0.33269500  1
  O  O39  1  0.12909100  0.76066000  0.64840100  1
  O  O40  1  0.71085200  0.84120300  0.74866200  1
  O  O41  1  0.27907200  0.33199600  0.15880700  1
  O  O42  1  0.23934000  0.87090900  0.85159900  1
  O  O43  1  0.57662200  0.34395900  0.57283400  1
  O  O44  1  0.52141400  0.95425800  0.67590400  1
  O  O45  1  0.42671000  0.26253300  0.06796000  1
  O  O46  1  0.87090900  0.23934000  0.35159900  1
  O  O47  1  0.76939100  0.23060900  0.75000000  1
loop_
_geom_bond_atom_site_label_1
_geom_bond_atom_site_label_2
_geom_bond_distance
_geom_bond_site_symmetry_2
Ag0 O1 2.398690 1_555
Ag0 O32 2.469603 1_555
Ag0 O21 2.528133 1_565
Ag0 O41 2.589906 1_555
Ag1 O31 2.398690 1_555
Ag1 O47 2.469603 1_555
Ag1 O42 2.528133 1_545
Ag1 O30 2.589906 1_555
Ag2 O40 2.398690 1_555
Ag2 O47 2.469603 1_555
Ag2 O39 2.528133 1_655
Ag2 O11 2.589906 1_555
Ag3 O18 2.398690 1_555
Ag3 O32 2.469603 1_555
Ag3 O46 2.528133 1_455
Ag3 O34 2.589906 1_555
B0 O20 1.365796 1_555
B0 O27 1.375876 1_555
B0 O21 1.384295 1_555
B1 O0 1.358211 1_555
B1 O22 1.364813 1_555
B1 O14 1.413247 1_555
B2 O45 1.358211 1_555
B2 O17 1.364813 1_555
B2 O29 1.413247 1_555
B3 O15 1.358211 1_555
B3 O23 1.364813 1_555
B3 O25 1.413247 1_555
B4 O37 1.358211 1_555
B4 O26 1.364813 1_555
B4 O16 1.413247 1_555
B5 O11 1.379432 1_555
B5 O31 1.381613 1_555
B5 O19 1.383125 1_455
B6 O36 1.436218 1_555
B6 O30 1.489525 1_555
B6 O12 1.499441 1_555
B6 O15 1.514361 1_555
B7 O36 1.445252 1_455
B7 O42 1.474493 1_555
B7 O13 1.506037 1_565
B7 O23 1.511767 1_555
B8 O20 1.447986 1_455
B8 O32 1.487305 1_555
B8 O33 1.500298 1_555
B8 O1 1.509806 1_455
B9 O43 1.368915 1_555
B9 O10 1.369657 1_555
B9 O14 1.395377 1_555
B10 O4 1.436218 1_555
B10 O11 1.489525 1_555
B10 O43 1.499441 1_555
B10 O0 1.514361 1_555
B11 O34 1.379432 1_555
B11 O1 1.381613 1_555
B11 O38 1.383125 1_655
B12 O30 1.379432 1_555
B12 O40 1.381613 1_555
B12 O5 1.383125 1_565
B13 O9 1.436218 1_555
B13 O34 1.489525 1_555
B13 O3 1.499441 1_555
B13 O37 1.514361 1_555
B14 O12 1.368915 1_555
B14 O13 1.369657 1_555
B14 O25 1.395377 1_555
B15 O28 1.365796 1_555
B15 O27 1.375876 1_555
B15 O46 1.384295 1_555
B16 O9 1.445252 1_545
B16 O46 1.474493 1_555
B16 O6 1.506037 1_655
B16 O26 1.511767 1_555
B17 O41 1.379432 1_555
B17 O18 1.381613 1_555
B17 O33 1.383125 1_545
B18 O2 1.445252 1_655
B18 O21 1.474493 1_555
B18 O24 1.506037 1_545
B18 O17 1.511767 1_555
B19 O28 1.447986 1_565
B19 O32 1.487305 1_555
B19 O38 1.500298 1_555
B19 O18 1.509806 1_565
B20 O4 1.445252 1_565
B20 O39 1.474493 1_555
B20 O10 1.506037 1_455
B20 O22 1.511767 1_555
B21 O8 1.365796 1_555
B21 O7 1.375876 1_555
B21 O42 1.384295 1_555
B22 O44 1.365796 1_555
B22 O7 1.375876 1_555
B22 O39 1.384295 1_555
B23 O8 1.447986 1_655
B23 O47 1.487305 1_555
B23 O5 1.500298 1_555
B23 O31 1.509806 1_655
B24 O3 1.368915 1_555
B24 O6 1.369657 1_555
B24 O16 1.395377 1_555
B25 O44 1.447986 1_545
B25 O47 1.487305 1_555
B25 O19 1.500298 1_555
B25 O40 1.509806 1_545
B26 O2 1.436218 1_555
B26 O41 1.489525 1_555
B26 O35 1.499441 1_555
B26 O45 1.514361 1_555
B27 O35 1.368915 1_555
B27 O24 1.369657 1_555
B27 O29 1.395377 1_555
O0 Sr2 2.557296 1_455
O2 Sr1 2.831482 1_545
O2 Sr0 3.179394 1_454
O3 Sr3 2.589290 1_555
O4 Sr2 2.831482 1_455
O4 Sr3 3.179394 1_545
O5 Sr0 2.572968 1_555
O6 Sr2 2.807600 1_455
O6 Sr3 2.884556 1_555
O8 Sr0 3.146945 1_455
O9 Sr3 2.831482 1_655
O9 Sr2 3.179394 1_565
O10 Sr3 2.807600 1_655
O10 Sr2 2.884556 1_555
O12 Sr0 2.589290 1_555
O13 Sr1 2.807600 1_546
O13 Sr0 2.884556 1_555
O14 Sr2 2.521803 1_565
O15 Sr0 2.557296 1_565
O16 Sr3 2.521803 1_545
O17 Sr1 2.788311 1_655
O17 Sr0 2.927941 1_554
O19 Sr2 2.572968 1_555
O20 Sr1 3.146945 1_655
O22 Sr2 2.788311 1_565
O22 Sr3 2.927941 1_555
O23 Sr0 2.788311 1_455
O23 Sr1 2.927941 1_556
O24 Sr0 2.807600 1_564
O24 Sr1 2.884556 1_555
O25 Sr0 2.521803 1_455
O26 Sr3 2.788311 1_545
O26 Sr2 2.927941 1_555
O28 Sr3 3.146945 1_545
O29 Sr1 2.521803 1_655
O33 Sr1 2.572968 1_555
O35 Sr1 2.589290 1_555
O36 Sr0 2.831482 1_565
O36 Sr1 3.179394 1_656
O37 Sr3 2.557296 1_655
O38 Sr3 2.572968 1_555
O43 Sr2 2.589290 1_555
O44 Sr2 3.146945 1_565
O45 Sr1 2.557296 1_545
