# generated using pymatgen
data_BaSb2Xe5F22
_symmetry_space_group_name_H-M   'P 1'
_cell_length_a   10.02185543
_cell_length_b   9.46773732
_cell_length_c   9.37958048
_cell_angle_alpha   64.24406935
_cell_angle_beta   58.30481566
_cell_angle_gamma   57.45111499
_symmetry_Int_Tables_number   1
_chemical_formula_structural   BaSb2Xe5F22
_chemical_formula_sum   'Ba1 Sb2 Xe5 F22'
_cell_volume   623.82929300
_cell_formula_units_Z   1
loop_
 _symmetry_equiv_pos_site_id
 _symmetry_equiv_pos_as_xyz
  1  'x, y, z'
loop_
 _atom_site_type_symbol
 _atom_site_label
 _atom_site_symmetry_multiplicity
 _atom_site_fract_x
 _atom_site_fract_y
 _atom_site_fract_z
 _atom_site_occupancy
  Ba  Ba0  1  0.00000000  0.00000000  0.00000000  1
  Sb  Sb0  1  0.50000000  0.00000000  0.50000000  1
  Sb  Sb1  1  0.00000000  0.50000000  0.00000000  1
  Xe  Xe0  1  0.50000000  0.00000000  0.00000000  1
  Xe  Xe1  1  0.50000000  0.50000000  0.50000000  1
  Xe  Xe2  1  0.00000000  0.00000000  0.50000000  1
  Xe  Xe3  1  0.00000000  0.50000000  0.50000000  1
  Xe  Xe4  1  0.50000000  0.50000000  0.00000000  1
  F  F0  1  0.76245500  0.58655300  0.04359600  1
  F  F1  1  0.04359600  0.60739500  0.76245500  1
  F  F2  1  0.70517100  0.95255100  0.29482900  1
  F  F3  1  0.06998300  0.93001700  0.70197200  1
  F  F4  1  0.23754500  0.41344700  0.95640400  1
  F  F5  1  0.69782600  0.05996800  0.94003200  1
  F  F6  1  0.60739500  0.04359600  0.58655300  1
  F  F7  1  0.93001700  0.06998300  0.29802800  1
  F  F8  1  0.94003200  0.30217400  0.69782600  1
  F  F9  1  0.70197200  0.29802800  0.06998300  1
  F  F10  1  0.05996800  0.69782600  0.30217400  1
  F  F11  1  0.58655300  0.76245500  0.60739500  1
  F  F12  1  0.29482900  0.04744900  0.70517100  1
  F  F13  1  0.30217400  0.94003200  0.05996800  1
  F  F14  1  0.35260700  0.64739300  0.35260700  1
  F  F15  1  0.41344700  0.23754500  0.39260500  1
  F  F16  1  0.64739300  0.35260700  0.64739300  1
  F  F17  1  0.39260500  0.95640400  0.41344700  1
  F  F18  1  0.04744900  0.29482900  0.95255100  1
  F  F19  1  0.29802800  0.70197200  0.93001700  1
  F  F20  1  0.95640400  0.39260500  0.23754500  1
  F  F21  1  0.95255100  0.70517100  0.04744900  1
loop_
_geom_bond_atom_site_label_1
_geom_bond_atom_site_label_2
_geom_bond_distance
_geom_bond_site_symmetry_2
Ba0 F3 2.791867 1_544
Ba0 F7 2.791867 1_455
Ba0 F9 2.791867 1_455
Ba0 F19 2.791867 1_544
Ba0 F21 2.888281 1_445
Ba0 F12 2.888281 1_554
Ba0 F2 2.888281 1_445
Ba0 F18 2.888281 1_554
Ba0 F13 3.077636 1_545
Ba0 F8 3.077636 1_454
Ba0 F5 3.077636 1_454
Ba0 F10 3.077636 1_545
F0 Sb1 1.917105 1_655
F1 Sb1 1.917103 1_556
F2 Sb0 1.931972 1_565
F3 Xe2 2.079656 1_565
F4 Sb1 1.917105 1_556
F5 Xe0 2.081165 1_556
F6 Sb0 1.917096 1_555
F7 Xe2 2.079656 1_655
F8 Xe3 2.081165 1_655
F9 Xe4 2.079656 1_555
F10 Xe3 2.081165 1_555
F11 Sb0 1.917102 1_565
F12 Sb0 1.931972 1_555
F13 Xe0 2.081165 1_565
F14 Xe1 2.071656 1_555
F15 Sb0 1.917102 1_555
F16 Xe1 2.071656 1_555
F17 Sb0 1.917096 1_565
F18 Sb1 1.931972 1_556
F19 Xe4 2.079656 1_556
F20 Sb1 1.917103 1_655
F21 Sb1 1.931972 1_655
