# generated using pymatgen
data_SiO2
_symmetry_space_group_name_H-M   'P 1'
_cell_length_a   4.90777286
_cell_length_b   8.25651647
_cell_length_c   26.43165357
_cell_angle_alpha   90.00000000
_cell_angle_beta   90.00000000
_cell_angle_gamma   90.00000000
_symmetry_Int_Tables_number   1
_chemical_formula_structural   SiO2
_chemical_formula_sum   'Si24 O48'
_cell_volume   1071.03987438
_cell_formula_units_Z   24
loop_
 _symmetry_equiv_pos_site_id
 _symmetry_equiv_pos_as_xyz
  1  'x, y, z'
loop_
 _atom_site_type_symbol
 _atom_site_label
 _atom_site_symmetry_multiplicity
 _atom_site_fract_x
 _atom_site_fract_y
 _atom_site_fract_z
 _atom_site_occupancy
  Si  Si0  1  0.65936252  0.66851713  0.13773932  1
  Si  Si1  1  0.15936252  0.83148287  0.86226068  1
  Si  Si2  1  0.34063748  0.16851713  0.36226068  1
  Si  Si3  1  0.84063748  0.33148287  0.63773932  1
  Si  Si4  1  0.50121451  0.29395057  0.13926336  1
  Si  Si5  1  0.00121451  0.20604943  0.86073664  1
  Si  Si6  1  0.49878549  0.79395057  0.36073664  1
  Si  Si7  1  -0.00121451  0.70604943  0.63926336  1
  Si  Si8  1  0.66056269  0.81097838  0.02797257  1
  Si  Si9  1  0.16056269  0.68902162  0.97202743  1
  Si  Si10  1  0.33943731  0.31097838  0.47202743  1
  Si  Si11  1  0.83943731  0.18902162  0.52797257  1
  Si  Si12  1  0.49741287  0.18463470  0.02780063  1
  Si  Si13  1  -0.00258713  0.31536530  0.97219937  1
  Si  Si14  1  0.50258713  0.68463470  0.47219937  1
  Si  Si15  1  0.00258713  0.81536530  0.52780063  1
  Si  Si16  1  0.15938143  0.78971692  0.19423396  1
  Si  Si17  1  0.65938143  0.71028308  0.80576604  1
  Si  Si18  1  0.84061857  0.28971692  0.30576604  1
  Si  Si19  1  0.34061857  0.21028308  0.69423396  1
  Si  Si20  1  0.00251017  0.16434037  0.19542869  1
  Si  Si21  1  0.50251017  0.33565963  0.80457131  1
  Si  Si22  1  -0.00251017  0.66434037  0.30457131  1
  Si  Si23  1  0.49748983  0.83565963  0.69542869  1
  O  O0  1  0.11416138  0.98196974  0.19532718  1
  O  O1  1  0.61416138  0.51803026  0.80467282  1
  O  O2  1  0.88583862  0.48196974  0.30467282  1
  O  O3  1  0.38583862  0.01803026  0.69532718  1
  O  O4  1  0.61287167  0.47630288  0.13796576  1
  O  O5  1  0.11287167  0.02369712  0.86203424  1
  O  O6  1  0.38712833  0.97630288  0.36203424  1
  O  O7  1  0.88712833  0.52369712  0.63796576  1
  O  O8  1  0.61191111  0.00298118  0.02771285  1
  O  O9  1  0.11191111  0.49701882  0.97228715  1
  O  O10  1  0.38808889  0.50298118  0.47228715  1
  O  O11  1  0.88808889  0.99701882  0.52771285  1
  O  O12  1  0.58538149  0.73964396  0.08283117  1
  O  O13  1  0.08538149  0.76035604  0.91716883  1
  O  O14  1  0.41461851  0.23964396  0.41716883  1
  O  O15  1  0.91461851  0.26035604  0.58283117  1
  O  O16  1  0.40247980  0.23771428  0.08379564  1
  O  O17  1  0.90247980  0.26228572  0.91620436  1
  O  O18  1  0.59752020  0.73771428  0.41620436  1
  O  O19  1  0.09752020  0.76228572  0.58379564  1
  O  O20  1  0.90968850  0.21469476  0.25136194  1
  O  O21  1  0.40968850  0.28530524  0.74863806  1
  O  O22  1  0.09031150  0.71469476  0.24863806  1
  O  O23  1  0.59031150  0.78530524  0.75136194  1
  O  O24  1  0.47361955  0.75336738  0.18062830  1
  O  O25  1  0.97361955  0.74663262  0.81937170  1
  O  O26  1  0.52638045  0.25336738  0.31937170  1
  O  O27  1  0.02638045  0.24663262  0.68062830  1
  O  O28  1  0.24361658  0.28430658  0.17713362  1
  O  O29  1  0.74361658  0.21569342  0.82286638  1
  O  O30  1  0.75638342  0.78430658  0.32286638  1
  O  O31  1  0.25638342  0.71569342  0.67713362  1
  O  O32  1  0.97355715  0.70628316  0.15107335  1
  O  O33  1  0.47355715  0.79371684  0.84892665  1
  O  O34  1  0.02644285  0.20628316  0.34892665  1
  O  O35  1  0.52644285  0.29371684  0.65107335  1
  O  O36  1  0.74412994  0.17560768  0.15770490  1
  O  O37  1  0.24412994  0.32439232  0.84229510  1
  O  O38  1  0.25587006  0.67560768  0.34229510  1
  O  O39  1  0.75587006  0.82439232  0.65770490  1
  O  O40  1  0.47555632  0.72489413  0.98520055  1
  O  O41  1  0.97555532  0.77510587  0.01479945  1
  O  O42  1  0.52444468  0.22489413  0.51479945  1
  O  O43  1  0.02444368  0.27510587  0.48520055  1
  O  O44  1  0.23655390  0.19443029  0.99074954  1
  O  O45  1  0.73655390  0.30556971  0.00925046  1
  O  O46  1  0.76344610  0.69443029  0.50925046  1
  O  O47  1  0.26344610  0.80556971  0.49074954  1
loop_
_geom_bond_atom_site_label_1
_geom_bond_atom_site_label_2
_geom_bond_distance
_geom_bond_site_symmetry_2
O0 Si20 1.602354 1_565
O0 Si16 1.603038 1_555
O1 Si21 1.602354 1_555
O1 Si17 1.603038 1_555
O2 Si22 1.602354 1_655
O2 Si18 1.603038 1_555
O3 Si23 1.602354 1_545
O3 Si19 1.603038 1_555
O4 Si4 1.602586 1_555
O4 Si0 1.603349 1_555
O5 Si5 1.602586 1_555
O5 Si1 1.603349 1_545
O6 Si6 1.602586 1_555
O6 Si2 1.603349 1_565
O7 Si7 1.602586 1_655
O7 Si3 1.603349 1_555
O8 Si12 1.601639 1_555
O8 Si8 1.603170 1_545
O9 Si13 1.601639 1_555
O9 Si9 1.603170 1_555
O10 Si14 1.601639 1_555
O10 Si10 1.603170 1_555
O11 Si15 1.601639 1_655
O11 Si11 1.603170 1_565
O12 Si0 1.607175 1_555
O12 Si8 1.607962 1_555
O13 Si1 1.607175 1_555
O13 Si9 1.607962 1_555
O14 Si2 1.607175 1_555
O14 Si10 1.607962 1_555
O15 Si3 1.607175 1_555
O15 Si11 1.607962 1_555
O16 Si12 1.612345 1_555
O16 Si4 1.612406 1_555
O17 Si13 1.612345 1_655
O17 Si5 1.612406 1_655
O18 Si14 1.612345 1_555
O18 Si6 1.612406 1_555
O19 Si15 1.612345 1_555
O19 Si7 1.612406 1_555
O20 Si20 1.601894 1_655
O20 Si18 1.602001 1_555
O21 Si21 1.601894 1_555
O21 Si19 1.602001 1_555
O22 Si22 1.601894 1_555
O22 Si16 1.602001 1_555
O23 Si23 1.601894 1_555
O23 Si17 1.602001 1_555
O24 Si16 1.611772 1_555
O24 Si0 1.614587 1_555
O25 Si17 1.611772 1_555
O25 Si1 1.614587 1_655
O26 Si18 1.611772 1_555
O26 Si2 1.614587 1_555
O27 Si19 1.611772 1_555
O27 Si3 1.614587 1_455
O28 Si4 1.614488 1_555
O28 Si20 1.617134 1_555
O29 Si5 1.614488 1_655
O29 Si21 1.617134 1_555
O30 Si6 1.614488 1_555
O30 Si22 1.617134 1_655
O31 Si7 1.614488 1_555
O31 Si23 1.617134 1_555
O32 Si0 1.612202 1_555
O32 Si16 1.614837 1_655
O33 Si1 1.612202 1_555
O33 Si17 1.614837 1_555
O34 Si2 1.612202 1_555
O34 Si18 1.614837 1_455
O35 Si3 1.612202 1_555
O35 Si19 1.614837 1_555
O36 Si20 1.615819 1_655
O36 Si4 1.616663 1_555
O37 Si21 1.615819 1_555
O37 Si5 1.616663 1_555
O38 Si22 1.615819 1_555
O38 Si6 1.616663 1_555
O39 Si23 1.615819 1_555
O39 Si7 1.616663 1_655
O40 Si9 1.612085 1_555
O40 Si8 1.614835 1_556
O41 Si8 1.612080 1_555
O41 Si9 1.614838 1_654
O42 Si11 1.612080 1_555
O42 Si10 1.614838 1_555
O43 Si10 1.612085 1_555
O43 Si11 1.614835 1_455
O44 Si12 1.613883 1_556
O44 Si13 1.617055 1_555
O45 Si13 1.613883 1_654
O45 Si12 1.617055 1_555
O46 Si14 1.613883 1_555
O46 Si15 1.617055 1_655
O47 Si15 1.613883 1_555
O47 Si14 1.617055 1_555
