# generated using pymatgen
data_Ag2O3
_symmetry_space_group_name_H-M   'P 1'
_cell_length_a   3.69181854
_cell_length_b   5.56125693
_cell_length_c   6.70310300
_cell_angle_alpha   84.75613126
_cell_angle_beta   74.02223011
_cell_angle_gamma   70.58809951
_symmetry_Int_Tables_number   1
_chemical_formula_structural   Ag2O3
_chemical_formula_sum   'Ag4 O6'
_cell_volume   124.78476488
_cell_formula_units_Z   2
loop_
 _symmetry_equiv_pos_site_id
 _symmetry_equiv_pos_as_xyz
  1  'x, y, z'
loop_
 _atom_site_type_symbol
 _atom_site_label
 _atom_site_symmetry_multiplicity
 _atom_site_fract_x
 _atom_site_fract_y
 _atom_site_fract_z
 _atom_site_occupancy
  Ag  Ag0  1  0.58663677  0.73510507  0.09315739  1
  Ag  Ag1  1  0.57207994  0.76483187  0.59310339  1
  Ag  Ag2  1  0.92982622  0.23502281  0.40685133  1
  Ag  Ag3  1  0.41508095  0.26489996  0.90686765  1
  O  O0  1  0.78316257  0.03363736  0.66474743  1
  O  O1  1  0.06664091  0.46623776  0.16478540  1
  O  O2  1  0.69777256  0.53369360  0.83527538  1
  O  O3  1  0.41288142  0.50014025  0.49989327  1
  O  O4  1  0.48154120  0.96622254  0.33525449  1
  O  O5  1  0.16277748  0.00021078  0.00006628  1
loop_
_geom_bond_atom_site_label_1
_geom_bond_atom_site_label_2
_geom_bond_distance
_geom_bond_site_symmetry_2
Ag0 O5 1.961507 1_565
Ag0 O2 2.017187 1_554
Ag0 O4 2.034496 1_555
Ag0 O1 2.045105 1_655
Ag1 O3 1.961630 1_555
Ag1 O4 2.017123 1_555
Ag1 O2 2.034586 1_555
Ag1 O0 2.045538 1_565
Ag2 O3 1.961492 1_555
Ag2 O0 2.017370 1_555
Ag2 O1 2.034816 1_655
Ag2 O4 2.045166 1_645
Ag3 O5 1.961540 1_556
Ag3 O1 2.017292 1_556
Ag3 O0 2.034781 1_555
Ag3 O2 2.045523 1_555
