# generated using pymatgen
data_TiSi2
_symmetry_space_group_name_H-M   'P 1'
_cell_length_a   4.77937070
_cell_length_b   4.77937070
_cell_length_c   4.77937070
_cell_angle_alpha   144.10170249
_cell_angle_beta   138.01652023
_cell_angle_gamma   56.39963948
_symmetry_Int_Tables_number   1
_chemical_formula_structural   TiSi2
_chemical_formula_sum   'Ti1 Si2'
_cell_volume   42.48725321
_cell_formula_units_Z   1
loop_
 _symmetry_equiv_pos_site_id
 _symmetry_equiv_pos_as_xyz
  1  'x, y, z'
loop_
 _atom_site_type_symbol
 _atom_site_label
 _atom_site_symmetry_multiplicity
 _atom_site_fract_x
 _atom_site_fract_y
 _atom_site_fract_z
 _atom_site_occupancy
  Ti  Ti0  1  0.00000000  0.00000000  0.00000000  1
  Si  Si0  1  0.32992200  0.32992200  0.00000000  1
  Si  Si1  1  0.67007800  0.67007800  0.00000000  1
loop_
_geom_bond_atom_site_label_1
_geom_bond_atom_site_label_2
_geom_bond_distance
_geom_bond_site_symmetry_2
Si0 Si1 2.629438 1_556
Si0 Si1 2.629438 1_545
Si0 Si1 2.629438 1_455
Si0 Si1 2.629438 1_444
Si0 Ti0 2.674614 1_666
Si0 Ti0 2.674614 1_554
Si0 Ti0 2.674614 1_565
Si0 Ti0 2.674614 1_655
Si0 Ti0 2.779318 1_555
Si1 Ti0 2.674614 1_554
Si1 Ti0 2.674614 1_666
Si1 Ti0 2.674614 1_565
Si1 Ti0 2.674614 1_655
Si1 Ti0 2.779318 1_665
