# generated using pymatgen
data_KPO3
_symmetry_space_group_name_H-M   'P 1'
_cell_length_a   4.55257852
_cell_length_b   10.23201105
_cell_length_c   14.02715163
_cell_angle_alpha   79.06348550
_cell_angle_beta   90.00000000
_cell_angle_gamma   90.00000000
_symmetry_Int_Tables_number   1
_chemical_formula_structural   KPO3
_chemical_formula_sum   'K8 P8 O24'
_cell_volume   641.54596083
_cell_formula_units_Z   8
loop_
 _symmetry_equiv_pos_site_id
 _symmetry_equiv_pos_as_xyz
  1  'x, y, z'
loop_
 _atom_site_type_symbol
 _atom_site_label
 _atom_site_symmetry_multiplicity
 _atom_site_fract_x
 _atom_site_fract_y
 _atom_site_fract_z
 _atom_site_occupancy
  K  K0  1  0.27771302  0.93414635  0.67376662  1
  K  K1  1  0.77771302  0.06585365  0.82623338  1
  K  K2  1  0.72228698  0.06585365  0.32623338  1
  K  K3  1  0.22228698  0.93414635  0.17376662  1
  K  K4  1  0.73533075  0.60545710  0.63151015  1
  K  K5  1  0.23533075  0.39454290  0.86848985  1
  K  K6  1  0.26466925  0.39454290  0.36848985  1
  K  K7  1  0.76466925  0.60545710  0.13151015  1
  P  P0  1  0.79765795  0.21581661  0.55438435  1
  P  P1  1  0.29765795  0.78418339  0.94561565  1
  P  P2  1  0.20234205  0.78418339  0.44561565  1
  P  P3  1  0.70234205  0.21581661  0.05438435  1
  P  P4  1  0.29939062  0.31218649  0.65250753  1
  P  P5  1  0.79939062  0.68781351  0.84749247  1
  P  P6  1  0.70060938  0.68781351  0.34749247  1
  P  P7  1  0.20060938  0.31218649  0.15250753  1
  O  O0  1  0.12263697  0.27585893  0.56104019  1
  O  O1  1  0.62263697  0.72414107  0.93895981  1
  O  O2  1  0.87736303  0.72414107  0.43895981  1
  O  O3  1  0.37736303  0.27585893  0.06104019  1
  O  O4  1  0.62132304  0.32341139  0.60447273  1
  O  O5  1  0.12132304  0.67658861  0.89552727  1
  O  O6  1  0.37867696  0.67658861  0.39552727  1
  O  O7  1  0.87867696  0.32341139  0.10447273  1
  O  O8  1  0.28069717  0.19992497  0.73682043  1
  O  O9  1  0.78069717  0.80007503  0.76317957  1
  O  O10  1  0.71930283  0.80007503  0.26317957  1
  O  O11  1  0.21930283  0.19992497  0.23682043  1
  O  O12  1  0.22390964  0.44818383  0.66651146  1
  O  O13  1  0.72390964  0.55181617  0.83348854  1
  O  O14  1  0.77609036  0.55181617  0.33348854  1
  O  O15  1  0.27609036  0.44818383  0.16651146  1
  O  O16  1  0.72646791  0.08221854  0.11699195  1
  O  O17  1  0.22646791  0.91778146  0.38300805  1
  O  O18  1  0.27353209  0.91778146  0.88300805  1
  O  O19  1  0.77353209  0.08221854  0.61699195  1
  O  O20  1  0.22811647  0.76294590  0.05052628  1
  O  O21  1  0.72811647  0.23705410  0.44947372  1
  O  O22  1  0.77188353  0.23705410  0.94947372  1
  O  O23  1  0.27188353  0.76294590  0.55052628  1
loop_
_geom_bond_atom_site_label_1
_geom_bond_atom_site_label_2
_geom_bond_distance
_geom_bond_site_symmetry_2
K0 O23 2.684534 1_555
K0 O19 2.750829 1_565
K0 O19 2.782151 1_465
K0 O9 2.814588 1_455
K0 O9 2.836478 1_555
K0 O18 2.908007 1_555
K0 O8 3.015050 1_565
K1 O22 2.684534 1_555
K1 O18 2.750829 1_645
K1 O18 2.782151 1_545
K1 O8 2.814588 1_555
K1 O8 2.836478 1_655
K1 O19 2.908007 1_555
K1 O9 3.015050 1_545
K2 O21 2.684534 1_555
K2 O17 2.750829 1_545
K2 O17 2.782151 1_645
K2 O11 2.814588 1_655
K2 O11 2.836478 1_555
K2 O16 2.908007 1_555
K2 O10 3.015050 1_545
K3 O20 2.684534 1_555
K3 O16 2.750829 1_465
K3 O16 2.782151 1_565
K3 O10 2.814588 1_555
K3 O10 2.836478 1_455
K3 O17 2.908007 1_555
K3 O11 3.015050 1_565
K4 O12 2.734655 1_655
K4 O23 2.764804 1_555
K4 O13 2.782234 1_555
K4 O2 2.818387 1_555
K4 O12 2.819888 1_555
K4 O9 2.968977 1_555
K4 O4 3.026040 1_555
K4 O23 3.026438 1_655
K5 O13 2.734655 1_555
K5 O22 2.764804 1_455
K5 O12 2.782234 1_555
K5 O3 2.818387 1_556
K5 O13 2.819888 1_455
K5 O8 2.968977 1_555
K5 O5 3.026040 1_555
K5 O22 3.026438 1_555
K6 O14 2.734655 1_455
K6 O21 2.764804 1_555
K6 O15 2.782234 1_555
K6 O0 2.818387 1_555
K6 O14 2.819888 1_555
K6 O11 2.968977 1_555
K6 O6 3.026040 1_555
K6 O21 3.026438 1_455
K7 O15 2.734655 1_555
K7 O20 2.764804 1_655
K7 O14 2.782234 1_555
K7 O1 2.818387 1_554
K7 O15 2.819888 1_655
K7 O10 2.968977 1_555
K7 O7 3.026040 1_555
K7 O20 3.026438 1_555
O0 P0 1.611462 1_455
O0 P4 1.616415 1_555
O1 P1 1.611462 1_555
O1 P5 1.616415 1_555
O2 P2 1.611462 1_655
O2 P6 1.616415 1_555
O3 P3 1.611462 1_555
O3 P7 1.616415 1_555
O4 P4 1.608065 1_555
O4 P0 1.625915 1_555
O5 P5 1.608065 1_455
O5 P1 1.625915 1_555
O6 P6 1.608065 1_555
O6 P2 1.625915 1_555
O7 P7 1.608065 1_655
O7 P3 1.625915 1_555
O8 P4 1.486575 1_555
O9 P5 1.486575 1_555
O10 P6 1.486575 1_555
O11 P7 1.486575 1_555
O12 P4 1.482138 1_555
O13 P5 1.482138 1_555
O14 P6 1.482138 1_555
O15 P7 1.482138 1_555
O16 P3 1.482032 1_555
O17 P2 1.482032 1_555
O18 P1 1.482032 1_555
O19 P0 1.482032 1_555
O20 P1 1.480443 1_554
O21 P0 1.480443 1_555
O22 P3 1.480443 1_556
O23 P2 1.480443 1_555
