# generated using pymatgen
data_Na5(InTe3)2
_symmetry_space_group_name_H-M   'P 1'
_cell_length_a   8.92847061
_cell_length_b   8.92847061
_cell_length_c   23.61058246
_cell_angle_alpha   90.00000000
_cell_angle_beta   90.00000000
_cell_angle_gamma   118.92409229
_symmetry_Int_Tables_number   1
_chemical_formula_structural   Na5(InTe3)2
_chemical_formula_sum   'Na20 In8 Te24'
_cell_volume   1647.39802901
_cell_formula_units_Z   4
loop_
 _symmetry_equiv_pos_site_id
 _symmetry_equiv_pos_as_xyz
  1  'x, y, z'
loop_
 _atom_site_type_symbol
 _atom_site_label
 _atom_site_symmetry_multiplicity
 _atom_site_fract_x
 _atom_site_fract_y
 _atom_site_fract_z
 _atom_site_occupancy
  Na  Na0  1  0.75301444  0.74642627  0.24870877  1
  Na  Na1  1  0.24698556  0.25357373  0.74870877  1
  Na  Na2  1  0.25357373  0.24698556  0.24870877  1
  Na  Na3  1  0.74642627  0.75301444  0.74870877  1
  Na  Na4  1  0.00906857  0.50289773  0.25153518  1
  Na  Na5  1  0.99093143  0.49710227  0.75153518  1
  Na  Na6  1  0.49710227  0.99093143  0.25153518  1
  Na  Na7  1  0.50289773  0.00906857  0.75153518  1
  Na  Na8  1  0.91575622  0.56516726  0.08876213  1
  Na  Na9  1  0.08424378  0.43483274  0.58876213  1
  Na  Na10  1  0.43483274  0.08424378  0.08876213  1
  Na  Na11  1  0.56516726  0.91575622  0.58876213  1
  Na  Na12  1  0.15994342  0.31331038  0.41232172  1
  Na  Na13  1  0.84005658  0.68668962  0.91232172  1
  Na  Na14  1  0.68668962  0.84005658  0.41232172  1
  Na  Na15  1  0.31331038  0.15994342  0.91232172  1
  Na  Na16  1  0.18307209  0.43203630  -0.00047379  1
  Na  Na17  1  0.81692791  0.56796370  0.49952621  1
  Na  Na18  1  0.56796370  0.81692791  -0.00047379  1
  Na  Na19  1  0.43203630  0.18307209  0.49952621  1
  In  In0  1  0.96628851  0.03371149  0.12037184  1
  In  In1  1  0.03371149  0.96628851  0.62037184  1
  In  In2  1  0.73513584  0.26486416  0.37809618  1
  In  In3  1  0.26486416  0.73513584  0.87809618  1
  In  In4  1  0.21628945  0.78371055  0.38225647  1
  In  In5  1  0.78371055  0.21628945  0.88225647  1
  In  In6  1  0.48798056  0.51201944  0.12005348  1
  In  In7  1  0.51201944  0.48798056  0.62005348  1
  Te  Te0  1  0.78096702  0.21903298  0.00308209  1
  Te  Te1  1  0.21903298  0.78096702  0.50308209  1
  Te  Te2  1  0.87828202  0.12171798  0.30787466  1
  Te  Te3  1  0.12171798  0.87828202  0.80787466  1
  Te  Te4  1  0.63008687  0.36991313  0.19088270  1
  Te  Te5  1  0.36991313  0.63008687  0.69088270  1
  Te  Te6  1  0.96952644  0.03047356  0.99928936  1
  Te  Te7  1  0.03047356  0.96952644  0.49928936  1
  Te  Te8  1  0.85953367  0.62180957  0.35977776  1
  Te  Te9  1  0.14046633  0.37819043  0.85977776  1
  Te  Te10  1  0.37819043  0.14046633  0.35977776  1
  Te  Te11  1  0.62180957  0.85953367  0.85977776  1
  Te  Te12  1  0.13301053  0.39181419  0.14084960  1
  Te  Te13  1  0.86698947  0.60818581  0.64084960  1
  Te  Te14  1  0.60818581  0.86698947  0.14084960  1
  Te  Te15  1  0.39181419  0.13301053  0.64084960  1
  Te  Te16  1  0.54626704  0.45373296  0.00769044  1
  Te  Te17  1  0.45373296  0.54626704  0.50769044  1
  Te  Te18  1  0.37039546  0.62960454  0.32426296  1
  Te  Te19  1  0.62960454  0.37039546  0.82426296  1
  Te  Te20  1  0.87826426  0.12173574  0.67739534  1
  Te  Te21  1  0.12173574  0.87826426  0.17739534  1
  Te  Te22  1  0.79444471  0.20555529  0.49058075  1
  Te  Te23  1  0.20555529  0.79444471  0.99058075  1
loop_
_geom_bond_atom_site_label_1
_geom_bond_atom_site_label_2
_geom_bond_distance
_geom_bond_site_symmetry_2
Na0 Te8 3.169076 1_555
Na0 Te14 3.265353 1_555
Na0 Te4 3.286432 1_555
Na0 Te2 3.287092 1_565
Na0 Te21 3.363060 1_655
Na0 Te18 3.534667 1_555
Na1 Te9 3.169076 1_555
Na1 Te15 3.265353 1_555
Na1 Te5 3.286432 1_555
Na1 Te3 3.287092 1_545
Na1 Te20 3.363060 1_455
Na1 Te19 3.534667 1_555
Na2 Te10 3.169076 1_555
Na2 Te12 3.265353 1_555
Na2 Te4 3.286432 1_555
Na2 Te2 3.287092 1_455
Na2 Te21 3.363060 1_545
Na2 Te18 3.534667 1_555
Na3 Te11 3.169076 1_555
Na3 Te13 3.265353 1_555
Na3 Te5 3.286432 1_555
Na3 Te3 3.287092 1_655
Na3 Te20 3.363060 1_565
Na3 Te19 3.534667 1_555
Na4 Te12 3.177976 1_555
Na4 Te8 3.288213 1_455
Na4 Te2 3.297213 1_455
Na4 Te4 3.320219 1_455
Na4 Te18 3.332534 1_555
Na4 Te21 3.470908 1_555
Na5 Te13 3.177976 1_555
Na5 Te9 3.288213 1_655
Na5 Te3 3.297213 1_655
Na5 Te5 3.320219 1_655
Na5 Te19 3.332534 1_555
Na5 Te20 3.470908 1_555
Na6 Te14 3.177976 1_555
Na6 Te10 3.288213 1_565
Na6 Te2 3.297213 1_565
Na6 Te4 3.320219 1_565
Na6 Te18 3.332534 1_555
Na6 Te21 3.470908 1_555
Na7 Te15 3.177976 1_555
Na7 Te11 3.288213 1_545
Na7 Te3 3.297213 1_545
Na7 Te5 3.320219 1_545
Na7 Te19 3.332534 1_555
Na7 Te20 3.470908 1_555
Na8 Te12 3.251894 1_655
Na8 Te21 3.256260 1_655
Na8 Te4 3.325223 1_555
Na8 Te23 3.337014 1_654
Na8 Te0 3.390269 1_555
Na8 Te16 3.515985 1_555
Na9 Te13 3.251894 1_455
Na9 Te20 3.256260 1_455
Na9 Te5 3.325223 1_555
Na9 Te22 3.337014 1_455
Na9 Te1 3.390269 1_555
Na9 Te17 3.515985 1_555
Na10 Te14 3.251894 1_545
Na10 Te21 3.256260 1_545
Na10 Te4 3.325223 1_555
Na10 Te23 3.337014 1_544
Na10 Te0 3.390269 1_555
Na10 Te16 3.515985 1_555
Na11 Te15 3.251894 1_565
Na11 Te20 3.256260 1_565
Na11 Te5 3.325223 1_555
Na11 Te22 3.337014 1_565
Na11 Te1 3.390269 1_555
Na11 Te17 3.515985 1_555
Na12 Te10 3.259841 1_555
Na12 Te18 3.270424 1_555
Na12 Te17 3.316550 1_555
Na12 Te2 3.342259 1_455
Na12 Te7 3.397347 1_545
Na12 Te22 3.457198 1_455
Na13 Te11 3.259841 1_555
Na13 Te19 3.270424 1_555
Na13 Te16 3.316550 1_556
Na13 Te3 3.342259 1_655
Na13 Te6 3.397347 1_565
Na13 Te23 3.457198 1_655
Na14 Te8 3.259841 1_555
Na14 Te18 3.270424 1_555
Na14 Te17 3.316550 1_555
Na14 Te2 3.342259 1_565
Na14 Te7 3.397347 1_655
Na14 Te22 3.457198 1_565
Na15 Te9 3.259841 1_555
Na15 Te19 3.270424 1_555
Na15 Te16 3.316550 1_556
Na15 Te3 3.342259 1_545
Na15 Te6 3.397347 1_455
Na15 Te23 3.457198 1_545
Na16 Te6 3.142857 1_454
Na16 Te0 3.147818 1_455
Na16 Te23 3.150666 1_554
Na16 Te16 3.159531 1_555
Na16 Te9 3.329552 1_554
Na16 Te12 3.362623 1_555
Na17 Te7 3.142857 1_655
Na17 Te1 3.147818 1_655
Na17 Te22 3.150666 1_555
Na17 Te17 3.159531 1_555
Na17 Te8 3.329552 1_555
Na17 Te13 3.362623 1_555
Na18 Te6 3.142857 1_564
Na18 Te0 3.147818 1_565
Na18 Te23 3.150666 1_554
Na18 Te16 3.159531 1_555
Na18 Te11 3.329552 1_554
Na18 Te14 3.362623 1_555
Na19 Te7 3.142857 1_545
Na19 Te1 3.147818 1_545
Na19 Te22 3.150666 1_555
Na19 Te17 3.159531 1_555
Na19 Te10 3.329552 1_555
Na19 Te15 3.362623 1_555
In0 Te21 2.743819 1_645
In0 Te12 2.840528 1_655
In0 Te14 2.840528 1_545
In0 Te6 2.859262 1_554
In1 Te20 2.743819 1_465
In1 Te13 2.840528 1_455
In1 Te15 2.840528 1_565
In1 Te7 2.859262 1_555
In2 Te2 2.756065 1_555
In2 Te22 2.808109 1_555
In2 Te10 2.855438 1_555
In2 Te8 2.855438 1_555
In3 Te3 2.756065 1_555
In3 Te23 2.808109 1_555
In3 Te11 2.855438 1_555
In3 Te9 2.855438 1_555
In4 Te18 2.737248 1_555
In4 Te10 2.839614 1_565
In4 Te8 2.839614 1_455
In4 Te1 2.853075 1_555
In5 Te19 2.737248 1_555
In5 Te11 2.839614 1_545
In5 Te9 2.839614 1_655
In5 Te0 2.853075 1_556
In6 Te4 2.752001 1_555
In6 Te16 2.800322 1_555
In6 Te12 2.854365 1_555
In6 Te14 2.854365 1_555
In7 Te5 2.752001 1_555
In7 Te17 2.800322 1_555
In7 Te15 2.854365 1_555
In7 Te13 2.854365 1_555
Te0 Te6 2.901436 1_554
Te1 Te7 2.901436 1_555
