# generated using pymatgen
data_Y2SiO5
_symmetry_space_group_name_H-M   'P 1'
_cell_length_a   6.67560892
_cell_length_b   6.85487271
_cell_length_c   9.03693181
_cell_angle_alpha   90.00000000
_cell_angle_beta   105.94542001
_cell_angle_gamma   90.00000000
_symmetry_Int_Tables_number   1
_chemical_formula_structural   Y2SiO5
_chemical_formula_sum   'Y8 Si4 O20'
_cell_volume   397.62285489
_cell_formula_units_Z   4
loop_
 _symmetry_equiv_pos_site_id
 _symmetry_equiv_pos_as_xyz
  1  'x, y, z'
loop_
 _atom_site_type_symbol
 _atom_site_label
 _atom_site_symmetry_multiplicity
 _atom_site_fract_x
 _atom_site_fract_y
 _atom_site_fract_z
 _atom_site_occupancy
  Y  Y0  1  0.06015265  0.63856039  0.87560274  1
  Y  Y1  1  0.93984735  0.36143961  0.12439726  1
  Y  Y2  1  0.43984735  0.13856039  0.12439726  1
  Y  Y3  1  0.56015265  0.86143961  0.87560274  1
  Y  Y4  1  0.26712714  0.12543412  0.47367372  1
  Y  Y5  1  0.23287286  0.62543412  0.52632628  1
  Y  Y6  1  0.76712714  0.37456588  0.47367372  1
  Y  Y7  1  0.73287286  0.87456588  0.52632628  1
  Si  Si0  1  0.52691565  0.41124711  0.79983803  1
  Si  Si1  1  0.97308435  0.91124711  0.20016197  1
  Si  Si2  1  0.47308435  0.58875289  0.20016197  1
  Si  Si3  1  0.02691565  0.08875289  0.79983803  1
  O  O0  1  0.43918116  0.88140811  0.61375997  1
  O  O1  1  0.99284505  0.13517520  0.61556978  1
  O  O2  1  0.33911697  0.57103192  0.79163856  1
  O  O3  1  0.98067324  0.71735481  0.10461305  1
  O  O4  1  0.56081884  0.11859189  0.38624003  1
  O  O5  1  0.77369941  0.04926569  0.12434841  1
  O  O6  1  0.06081884  0.38140811  0.38624003  1
  O  O7  1  0.66088303  0.42896808  0.20836144  1
  O  O8  1  0.51932676  0.21735481  0.89538695  1
  O  O9  1  0.01932676  0.28264519  0.89538695  1
  O  O10  1  0.72630059  0.54926569  0.87565159  1
  O  O11  1  0.83911697  0.92896808  0.79163856  1
  O  O12  1  0.93918116  0.61859189  0.61375997  1
  O  O13  1  0.22630059  0.95073431  0.87565159  1
  O  O14  1  0.16088303  0.07103192  0.20836144  1
  O  O15  1  0.49284505  0.36482480  0.61556978  1
  O  O16  1  0.50715495  0.63517520  0.38443022  1
  O  O17  1  0.48067324  0.78264519  0.10461305  1
  O  O18  1  0.00715495  0.86482480  0.38443022  1
  O  O19  1  0.27369941  0.45073431  0.12434841  1
loop_
_geom_bond_atom_site_label_1
_geom_bond_atom_site_label_2
_geom_bond_distance
_geom_bond_site_symmetry_2
O0 Y4 2.218350 1_565
O0 Y5 2.236525 1_555
O0 Y3 2.284760 1_555
O0 Y7 2.306837 1_555
O1 Si3 1.648591 1_655
O1 Y6 2.354994 1_555
O1 Y7 2.466708 1_545
O1 Y4 2.508259 1_655
O2 Si0 1.651009 1_555
O2 Y0 2.243748 1_555
O2 Y5 2.335873 1_555
O2 Y3 2.469967 1_555
O3 Si1 1.593332 1_555
O3 Y0 2.336578 1_654
O3 Y1 2.466863 1_555
O4 Y7 2.218350 1_545
O4 Y6 2.236525 1_555
O4 Y2 2.284760 1_555
O4 Y4 2.306837 1_555
O5 Si1 1.623286 1_545
O5 Y2 2.311312 1_555
O5 Y1 2.410217 1_555
O5 Y3 2.642400 1_544
O6 Y5 2.218350 1_555
O6 Y4 2.236525 1_555
O6 Y1 2.284760 1_455
O6 Y6 2.306837 1_455
O7 Si2 1.651009 1_555
O7 Y1 2.243748 1_555
O7 Y6 2.335873 1_555
O7 Y2 2.469967 1_555
O8 Si0 1.593332 1_555
O8 Y2 2.336578 1_556
O8 Y3 2.466863 1_545
O9 Si3 1.593332 1_555
O9 Y1 2.336578 1_456
O9 Y0 2.466863 1_555
O10 Si0 1.623286 1_555
O10 Y0 2.311312 1_655
O10 Y3 2.410217 1_555
O10 Y1 2.642400 1_556
O11 Si3 1.651009 1_665
O11 Y3 2.243748 1_555
O11 Y7 2.335873 1_555
O11 Y0 2.469967 1_655
O12 Y6 2.218350 1_555
O12 Y7 2.236525 1_555
O12 Y0 2.284760 1_655
O12 Y5 2.306837 1_655
O13 Si3 1.623286 1_565
O13 Y3 2.311312 1_555
O13 Y0 2.410217 1_555
O13 Y2 2.642400 1_566
O14 Si1 1.651009 1_445
O14 Y2 2.243748 1_555
O14 Y4 2.335873 1_555
O14 Y1 2.469967 1_455
O15 Si0 1.648591 1_555
O15 Y4 2.354994 1_555
O15 Y5 2.466708 1_555
O15 Y6 2.508259 1_555
O16 Si2 1.648591 1_555
O16 Y7 2.354994 1_555
O16 Y6 2.466708 1_555
O16 Y5 2.508259 1_555
O17 Si2 1.593332 1_555
O17 Y3 2.336578 1_554
O17 Y2 2.466863 1_565
O18 Si1 1.648591 1_455
O18 Y5 2.354994 1_555
O18 Y4 2.466708 1_565
O18 Y7 2.508259 1_455
O19 Si2 1.623286 1_555
O19 Y1 2.311312 1_455
O19 Y2 2.410217 1_555
O19 Y0 2.642400 1_554
