# generated using pymatgen
data_Nd5Si3
_symmetry_space_group_name_H-M   'P 1'
_cell_length_a   7.82581624
_cell_length_b   7.82581132
_cell_length_c   8.89325755
_cell_angle_alpha   116.10147128
_cell_angle_beta   116.10077919
_cell_angle_gamma   89.99726154
_symmetry_Int_Tables_number   1
_chemical_formula_structural   Nd5Si3
_chemical_formula_sum   'Nd10 Si6'
_cell_volume   426.39564123
_cell_formula_units_Z   2
loop_
 _symmetry_equiv_pos_site_id
 _symmetry_equiv_pos_as_xyz
  1  'x, y, z'
loop_
 _atom_site_type_symbol
 _atom_site_label
 _atom_site_symmetry_multiplicity
 _atom_site_fract_x
 _atom_site_fract_y
 _atom_site_fract_z
 _atom_site_occupancy
  Nd  Nd0  1  0.67637705  0.17634994  0.70820222  1
  Nd  Nd1  1  0.17635322  0.03176826  0.70816835  1
  Nd  Nd2  1  0.03180255  0.53182367  0.70818032  1
  Nd  Nd3  1  0.46819947  0.32362510  0.29182889  1
  Nd  Nd4  1  0.32362295  0.82365006  0.29179778  1
  Nd  Nd5  1  0.53180053  0.67637490  0.70817111  1
  Nd  Nd6  1  0.82364678  0.96823174  0.29183165  1
  Nd  Nd7  1  0.00000000  -0.00000000  -0.00000000  1
  Nd  Nd8  1  0.96819745  0.46817633  0.29181968  1
  Nd  Nd9  1  0.50000000  0.50000000  -0.00000000  1
  Si  Si0  1  0.11403892  0.38594215  0.99999646  1
  Si  Si1  1  0.61405335  0.11403846  0.00002246  1
  Si  Si2  1  0.38594665  0.88596154  0.99997754  1
  Si  Si3  1  0.88596108  0.61405785  0.00000354  1
  Si  Si4  1  0.24998414  0.24997641  0.49996460  1
  Si  Si5  1  0.75001586  0.75002359  0.50003540  1
loop_
_geom_bond_atom_site_label_1
_geom_bond_atom_site_label_2
_geom_bond_distance
_geom_bond_site_symmetry_2
Nd0 Si1 3.072177 1_556
Nd0 Si0 3.096780 1_655
Nd0 Si3 3.097025 1_556
Nd0 Si5 3.224012 1_545
Nd0 Si4 3.224528 1_555
Nd1 Si0 3.072389 1_555
Nd1 Si2 3.096310 1_545
Nd1 Si1 3.096981 1_556
Nd1 Si5 3.224129 1_445
Nd1 Si4 3.224549 1_555
Nd2 Si2 3.072468 1_555
Nd2 Si3 3.096573 1_456
Nd2 Si0 3.096760 1_555
Nd2 Si5 3.224057 1_455
Nd2 Si4 3.224444 1_555
Nd3 Si0 3.072395 1_554
Nd3 Si1 3.096529 1_555
Nd3 Si2 3.096759 1_544
Nd3 Si4 3.224111 1_555
Nd3 Si5 3.224618 1_555
Nd4 Si2 3.072177 1_554
Nd4 Si3 3.096780 1_455
Nd4 Si0 3.097025 1_554
Nd4 Si4 3.224012 1_565
Nd4 Si5 3.224528 1_555
Nd5 Si3 3.072395 1_556
Nd5 Si2 3.096529 1_555
Nd5 Si1 3.096759 1_566
Nd5 Si5 3.224111 1_555
Nd5 Si4 3.224618 1_555
Nd6 Si3 3.072389 1_555
Nd6 Si1 3.096310 1_565
Nd6 Si2 3.096981 1_554
Nd6 Si4 3.224129 1_665
Nd6 Si5 3.224549 1_555
Nd7 Si1 3.149456 1_455
Nd7 Si2 3.149456 1_544
Nd7 Si3 3.149461 1_445
Nd7 Si0 3.149461 1_554
Nd7 Si4 3.480912 1_555
Nd7 Si5 3.480912 1_444
Nd8 Si1 3.072468 1_555
Nd8 Si0 3.096573 1_654
Nd8 Si3 3.096760 1_555
Nd8 Si4 3.224057 1_655
Nd8 Si5 3.224444 1_555
Nd9 Si1 3.149599 1_555
Nd9 Si2 3.149599 1_554
Nd9 Si0 3.149612 1_554
Nd9 Si3 3.149612 1_555
Nd9 Si5 3.481405 1_555
Nd9 Si4 3.481405 1_554
Si0 Si3 2.524371 1_456
Si1 Si2 2.524189 1_544
