# generated using pymatgen
data_KNaSiF6
_symmetry_space_group_name_H-M   'P 1'
_cell_length_a   5.54639700
_cell_length_b   9.52080400
_cell_length_c   9.89918300
_cell_angle_alpha   90.00000000
_cell_angle_beta   90.00000000
_cell_angle_gamma   90.00000000
_symmetry_Int_Tables_number   1
_chemical_formula_structural   KNaSiF6
_chemical_formula_sum   'K4 Na4 Si4 F24'
_cell_volume   522.73782893
_cell_formula_units_Z   4
loop_
 _symmetry_equiv_pos_site_id
 _symmetry_equiv_pos_as_xyz
  1  'x, y, z'
loop_
 _atom_site_type_symbol
 _atom_site_label
 _atom_site_symmetry_multiplicity
 _atom_site_fract_x
 _atom_site_fract_y
 _atom_site_fract_z
 _atom_site_occupancy
  K  K0  1  0.75000000  0.98597100  0.32394700  1
  K  K1  1  0.25000000  0.51402900  0.82394700  1
  K  K2  1  0.25000000  0.01402900  0.67605300  1
  K  K3  1  0.75000000  0.48597100  0.17605300  1
  Na  Na0  1  0.75000000  0.12682200  0.94696600  1
  Na  Na1  1  0.75000000  0.62682200  0.55303400  1
  Na  Na2  1  0.25000000  0.37317800  0.44696600  1
  Na  Na3  1  0.25000000  0.87317800  0.05303400  1
  Si  Si0  1  0.75000000  0.27183400  0.57800200  1
  Si  Si1  1  0.25000000  0.22816600  0.07800200  1
  Si  Si2  1  0.75000000  0.77183400  0.92199800  1
  Si  Si3  1  0.25000000  0.72816600  0.42199800  1
  F  F0  1  0.52940600  0.17115700  0.50388300  1
  F  F1  1  0.96940400  0.37726000  0.64540200  1
  F  F2  1  0.75000000  0.16573300  0.71709000  1
  F  F3  1  0.97059400  0.67115700  0.99611700  1
  F  F4  1  0.03059600  0.62274000  0.35459800  1
  F  F5  1  0.97059400  0.17115700  0.50388300  1
  F  F6  1  0.25000000  0.62082900  0.56370800  1
  F  F7  1  0.02940600  0.82884300  0.49611700  1
  F  F8  1  0.25000000  0.83426700  0.28291000  1
  F  F9  1  0.25000000  0.33426700  0.21709000  1
  F  F10  1  0.46940400  0.12274000  0.14540200  1
  F  F11  1  0.52940600  0.67115700  0.99611700  1
  F  F12  1  0.75000000  0.66573300  0.78291000  1
  F  F13  1  0.03059600  0.12274000  0.14540200  1
  F  F14  1  0.47059400  0.82884300  0.49611700  1
  F  F15  1  0.75000000  0.87917100  0.06370800  1
  F  F16  1  0.02940600  0.32884300  0.00388300  1
  F  F17  1  0.46940400  0.62274000  0.35459800  1
  F  F18  1  0.47059400  0.32884300  0.00388300  1
  F  F19  1  0.96940400  0.87726000  0.85459800  1
  F  F20  1  0.25000000  0.12082900  0.93629200  1
  F  F21  1  0.75000000  0.37917100  0.43629200  1
  F  F22  1  0.53059600  0.87726000  0.85459800  1
  F  F23  1  0.53059600  0.37726000  0.64540200  1
loop_
_geom_bond_atom_site_label_1
_geom_bond_atom_site_label_2
_geom_bond_distance
_geom_bond_site_symmetry_2
F0 Si0 1.718741 1_555
F0 Na2 2.533474 1_555
F0 K2 2.746691 1_555
F0 K0 2.788959 1_545
F1 Si0 1.712748 1_555
F1 Na2 2.506443 1_655
F1 K1 2.691010 1_655
F1 Na1 2.821780 1_555
F2 Si0 1.707681 1_555
F2 Na0 2.305543 1_555
F2 K2 3.153060 1_655
F2 K2 3.153060 1_555
F3 Si2 1.718741 1_555
F3 Na3 2.533474 1_656
F3 K1 2.746691 1_655
F3 K3 2.788959 1_556
F4 Si3 1.712748 1_555
F4 Na1 2.506443 1_455
F4 K3 2.691010 1_455
F4 Na2 2.821780 1_555
F5 Si0 1.718741 1_555
F5 Na2 2.533474 1_655
F5 K2 2.746691 1_655
F5 K0 2.788959 1_545
F6 Si3 1.735579 1_555
F6 Na2 2.625818 1_555
F6 K1 2.769566 1_555
F6 Na1 2.775797 1_455
F6 Na1 2.775797 1_555
F7 Si3 1.718741 1_555
F7 Na1 2.533474 1_455
F7 K0 2.746691 1_455
F7 K2 2.788959 1_565
F8 Si3 1.707681 1_555
F8 Na3 2.305543 1_555
F8 K0 3.153060 1_455
F8 K0 3.153060 1_555
F9 Si1 1.707681 1_555
F9 Na2 2.305543 1_555
F9 K3 3.153060 1_455
F9 K3 3.153060 1_555
F10 Si1 1.712748 1_555
F10 Na0 2.506443 1_554
F10 K0 2.691010 1_545
F10 Na3 2.821780 1_545
F11 Si2 1.718741 1_555
F11 Na3 2.533474 1_556
F11 K1 2.746691 1_555
F11 K3 2.788959 1_556
F12 Si2 1.707681 1_555
F12 Na1 2.305543 1_555
F12 K1 3.153060 1_555
F12 K1 3.153060 1_655
F13 Si1 1.712748 1_555
F13 Na0 2.506443 1_454
F13 K0 2.691010 1_445
F13 Na3 2.821780 1_545
F14 Si3 1.718741 1_555
F14 Na1 2.533474 1_555
F14 K0 2.746691 1_555
F14 K2 2.788959 1_565
F15 Si2 1.735579 1_554
F15 Na0 2.625818 1_564
F15 K0 2.769566 1_555
F15 Na3 2.775797 1_555
F15 Na3 2.775797 1_655
F16 Si1 1.718741 1_555
F16 Na0 2.533474 1_454
F16 K3 2.746691 1_455
F16 K1 2.788959 1_554
F17 Si3 1.712748 1_555
F17 Na1 2.506443 1_555
F17 K3 2.691010 1_555
F17 Na2 2.821780 1_555
F18 Si1 1.718741 1_555
F18 Na0 2.533474 1_554
F18 K3 2.746691 1_555
F18 K1 2.788959 1_554
F19 Si2 1.712748 1_555
F19 Na3 2.506443 1_656
F19 K2 2.691010 1_665
F19 Na0 2.821780 1_565
F20 Si1 1.735579 1_556
F20 Na3 2.625818 1_546
F20 K2 2.769566 1_555
F20 Na0 2.775797 1_455
F20 Na0 2.775797 1_555
F21 Si0 1.735579 1_555
F21 Na1 2.625818 1_555
F21 K3 2.769566 1_555
F21 Na2 2.775797 1_555
F21 Na2 2.775797 1_655
F22 Si2 1.712748 1_555
F22 Na3 2.506443 1_556
F22 K2 2.691010 1_565
F22 Na0 2.821780 1_565
F23 Si0 1.712748 1_555
F23 Na2 2.506443 1_555
F23 K1 2.691010 1_555
F23 Na1 2.821780 1_555
