# generated using pymatgen
data_ScRu2
_symmetry_space_group_name_H-M   'P 1'
_cell_length_a   5.10082003
_cell_length_b   5.10082037
_cell_length_c   8.63020803
_cell_angle_alpha   89.99998262
_cell_angle_beta   90.00000000
_cell_angle_gamma   119.99999784
_symmetry_Int_Tables_number   1
_chemical_formula_structural   ScRu2
_chemical_formula_sum   'Sc4 Ru8'
_cell_volume   194.46074105
_cell_formula_units_Z   4
loop_
 _symmetry_equiv_pos_site_id
 _symmetry_equiv_pos_as_xyz
  1  'x, y, z'
loop_
 _atom_site_type_symbol
 _atom_site_label
 _atom_site_symmetry_multiplicity
 _atom_site_fract_x
 _atom_site_fract_y
 _atom_site_fract_z
 _atom_site_occupancy
  Sc  Sc0  1  0.33333300  0.66666700  0.43208855  1
  Sc  Sc1  1  0.66666700  0.33333300  0.56791145  1
  Sc  Sc2  1  0.66666700  0.33333300  0.93209340  1
  Sc  Sc3  1  0.33333300  0.66666700  0.06790660  1
  Ru  Ru0  1  0.17198245  0.34396490  0.75001022  1
  Ru  Ru1  1  0.17198245  0.82801855  0.75001022  1
  Ru  Ru2  1  0.34396490  0.17198245  0.24998978  1
  Ru  Ru3  1  0.82801755  0.65603510  0.24998978  1
  Ru  Ru4  1  0.65603510  0.82801755  0.75001022  1
  Ru  Ru5  1  0.00000000  0.00000000  0.00000000  1
  Ru  Ru6  1  0.82801755  0.17198145  0.24998978  1
  Ru  Ru7  1  0.00000000  0.00000000  0.50000000  1
loop_
_geom_bond_atom_site_label_1
_geom_bond_atom_site_label_2
_geom_bond_distance
_geom_bond_site_symmetry_2
Ru0 Ru4 2.469066 1_555
Ru0 Ru1 2.469071 1_555
Ru0 Ru1 2.631750 1_545
Ru0 Ru4 2.631755 1_445
Ru0 Ru5 2.638818 1_556
Ru0 Ru7 2.638963 1_555
Ru0 Sc2 2.996019 1_455
Ru0 Sc2 2.996024 1_555
Ru0 Sc1 2.996090 1_455
Ru0 Sc1 2.996094 1_555
Ru0 Sc3 3.091757 1_556
Ru0 Sc0 3.091949 1_555
Ru1 Ru4 2.469068 1_555
Ru1 Ru4 2.631752 1_455
Ru1 Ru5 2.638816 1_566
Ru1 Ru7 2.638960 1_565
Ru1 Sc2 2.996020 1_565
Ru1 Sc2 2.996023 1_455
Ru1 Sc1 2.996089 1_565
Ru1 Sc1 2.996095 1_455
Ru1 Sc3 3.091756 1_556
Ru1 Sc0 3.091950 1_555
Ru2 Ru3 2.469066 1_555
Ru2 Ru6 2.469068 1_555
Ru2 Ru6 2.631752 1_455
Ru2 Ru3 2.631755 1_445
Ru2 Ru5 2.638818 1_555
Ru2 Ru7 2.638962 1_555
Ru2 Sc3 2.996020 1_545
Ru2 Sc3 2.996023 1_555
Ru2 Sc0 2.996090 1_545
Ru2 Sc0 2.996095 1_555
Ru2 Sc2 3.091756 1_554
Ru2 Sc1 3.091950 1_555
Ru3 Ru6 2.469071 1_555
Ru3 Ru6 2.631750 1_565
Ru3 Ru5 2.638818 1_665
Ru3 Ru7 2.638963 1_665
Ru3 Sc3 2.996019 1_655
Ru3 Sc3 2.996024 1_555
Ru3 Sc0 2.996090 1_655
Ru3 Sc0 2.996094 1_555
Ru3 Sc2 3.091757 1_554
Ru3 Sc1 3.091949 1_555
Ru4 Ru5 2.638818 1_666
Ru4 Ru7 2.638962 1_665
Ru4 Sc2 2.996020 1_565
Ru4 Sc2 2.996023 1_555
Ru4 Sc1 2.996090 1_565
Ru4 Sc1 2.996095 1_555
Ru4 Sc3 3.091756 1_556
Ru4 Sc0 3.091950 1_555
Ru5 Ru6 2.638816 1_455
Ru5 Sc3 3.002703 1_545
Ru5 Sc2 3.002703 1_454
Ru5 Sc3 3.002707 1_445
Ru5 Sc2 3.002707 1_554
Ru5 Sc3 3.002707 1_555
Ru5 Sc2 3.002707 1_444
Ru6 Ru7 2.638960 1_655
Ru6 Sc3 2.996020 1_545
Ru6 Sc3 2.996023 1_655
Ru6 Sc0 2.996089 1_545
Ru6 Sc0 2.996095 1_655
Ru6 Sc2 3.091756 1_554
Ru6 Sc1 3.091950 1_555
Ru7 Sc1 3.002711 1_455
Ru7 Sc0 3.002711 1_545
Ru7 Sc1 3.002715 1_445
Ru7 Sc0 3.002715 1_555
Ru7 Sc0 3.002715 1_445
Ru7 Sc1 3.002715 1_555
