# generated using pymatgen
data_Dy12C6I17
_symmetry_space_group_name_H-M   'P 1'
_cell_length_a   11.60890795
_cell_length_b   11.60890795
_cell_length_c   18.71395836
_cell_angle_alpha   89.25728336
_cell_angle_beta   89.25728336
_cell_angle_gamma   63.75276568
_symmetry_Int_Tables_number   1
_chemical_formula_structural   Dy12C6I17
_chemical_formula_sum   'Dy24 C12 I34'
_cell_volume   2261.72060072
_cell_formula_units_Z   2
loop_
 _symmetry_equiv_pos_site_id
 _symmetry_equiv_pos_as_xyz
  1  'x, y, z'
loop_
 _atom_site_type_symbol
 _atom_site_label
 _atom_site_symmetry_multiplicity
 _atom_site_fract_x
 _atom_site_fract_y
 _atom_site_fract_z
 _atom_site_occupancy
  Dy  Dy0  1  0.69852500  0.29699700  0.47682200  1
  Dy  Dy1  1  0.53165700  0.54757900  0.12532800  1
  Dy  Dy2  1  0.98439600  0.92130000  0.84763800  1
  Dy  Dy3  1  0.41884000  0.89051700  0.61767700  1
  Dy  Dy4  1  0.33778900  0.80457800  0.78768400  1
  Dy  Dy5  1  0.45242100  0.46834300  0.37467200  1
  Dy  Dy6  1  0.07870000  0.01560400  0.65236200  1
  Dy  Dy7  1  0.01560400  0.07870000  0.15236200  1
  Dy  Dy8  1  0.46834300  0.45242100  0.87467200  1
  Dy  Dy9  1  0.66221100  0.19542200  0.21231600  1
  Dy  Dy10  1  0.10948300  0.58116000  0.88232300  1
  Dy  Dy11  1  0.80457800  0.33778900  0.28768400  1
  Dy  Dy12  1  0.35767500  0.36253700  0.05003900  1
  Dy  Dy13  1  0.29699700  0.69852500  0.97682200  1
  Dy  Dy14  1  0.19542200  0.66221100  0.71231600  1
  Dy  Dy15  1  0.70300300  0.30147500  0.02317800  1
  Dy  Dy16  1  0.58116000  0.10948300  0.38232300  1
  Dy  Dy17  1  0.54757900  0.53165700  0.62532800  1
  Dy  Dy18  1  0.30147500  0.70300300  0.52317800  1
  Dy  Dy19  1  0.63746300  0.64232500  0.44996100  1
  Dy  Dy20  1  0.64232500  0.63746300  0.94996100  1
  Dy  Dy21  1  0.89051700  0.41884000  0.11767700  1
  Dy  Dy22  1  0.36253700  0.35767500  0.55003900  1
  Dy  Dy23  1  0.92130000  0.98439600  0.34763800  1
  C  C0  1  0.46726900  0.46475600  0.51214800  1
  C  C1  1  0.82981700  0.25322400  0.15374700  1
  C  C2  1  0.53524400  0.53273100  0.98785200  1
  C  C3  1  0.28692500  0.63122600  0.84966100  1
  C  C4  1  0.74677600  0.17018300  0.34625300  1
  C  C5  1  0.53273100  0.53524400  0.48785200  1
  C  C6  1  0.25322400  0.82981700  0.65374700  1
  C  C7  1  0.46475600  0.46726900  0.01214800  1
  C  C8  1  0.36877400  0.71307500  0.65033900  1
  C  C9  1  0.71307500  0.36877400  0.15033900  1
  C  C10  1  0.63122600  0.28692500  0.34966100  1
  C  C11  1  0.17018300  0.74677600  0.84625300  1
  I  I0  1  0.57334600  0.62793300  0.29238500  1
  I  I1  1  0.80749500  0.28589600  0.63608400  1
  I  I2  1  0.50291400  0.03624900  0.24855900  1
  I  I3  1  0.90517800  0.89121700  0.69769000  1
  I  I4  1  0.70652100  0.68993900  0.59965600  1
  I  I5  1  0.60597000  0.09814600  0.54698600  1
  I  I6  1  0.49708600  0.96375100  0.75144100  1
  I  I7  1  0.39972000  0.89231500  0.93845500  1
  I  I8  1  0.00000000  0.00000000  0.50000000  1
  I  I9  1  0.71410400  0.19250500  0.86391600  1
  I  I10  1  0.29347900  0.31006100  0.40034400  1
  I  I11  1  0.31006100  0.29347900  0.90034400  1
  I  I12  1  0.90185400  0.39403000  0.95301400  1
  I  I13  1  0.39403000  0.90185400  0.45301400  1
  I  I14  1  0.89231500  0.39972000  0.43845500  1
  I  I15  1  0.96375100  0.49708600  0.25144100  1
  I  I16  1  0.60028000  0.10768500  0.06154500  1
  I  I17  1  0.37206700  0.42665400  0.20761500  1
  I  I18  1  0.89121700  0.90517800  0.19769000  1
  I  I19  1  0.68993900  0.70652100  0.09965600  1
  I  I20  1  0.82305100  0.78527900  0.89848200  1
  I  I21  1  0.03624900  0.50291400  0.74855900  1
  I  I22  1  0.09814600  0.60597000  0.04698600  1
  I  I23  1  0.17694900  0.21472100  0.10151800  1
  I  I24  1  0.62793300  0.57334600  0.79238500  1
  I  I25  1  0.42665400  0.37206700  0.70761500  1
  I  I26  1  0.78527900  0.82305100  0.39848200  1
  I  I27  1  0.00000000  0.00000000  0.00000000  1
  I  I28  1  0.19250500  0.71410400  0.36391600  1
  I  I29  1  0.21472100  0.17694900  0.60151800  1
  I  I30  1  0.10768500  0.60028000  0.56154500  1
  I  I31  1  0.10878300  0.09482200  0.80231000  1
  I  I32  1  0.09482200  0.10878300  0.30231000  1
  I  I33  1  0.28589600  0.80749500  0.13608400  1
loop_
_geom_bond_atom_site_label_1
_geom_bond_atom_site_label_2
_geom_bond_distance
_geom_bond_site_symmetry_2
Dy0 I14 3.050818 1_555
Dy0 I5 3.207202 1_555
Dy0 I1 3.231625 1_555
Dy0 I8 3.694843 1_655
Dy1 I33 3.109866 1_555
Dy1 I17 3.153530 1_555
Dy1 I19 3.156679 1_555
Dy1 I0 3.375241 1_555
Dy2 I3 3.036178 1_555
Dy2 I27 3.037221 1_666
Dy2 I31 3.059287 1_665
Dy2 I20 3.072112 1_555
Dy2 I9 3.333635 1_565
Dy3 I6 2.934508 1_555
Dy3 I13 3.094328 1_555
Dy3 I29 3.128337 1_565
Dy3 I4 3.130811 1_555
Dy4 I6 3.201821 1_555
Dy4 I7 3.207813 1_555
Dy4 I24 3.250075 1_555
Dy4 I31 3.252332 1_565
Dy5 I28 3.109866 1_555
Dy5 I0 3.153530 1_555
Dy5 I10 3.156679 1_555
Dy5 I17 3.375241 1_555
Dy6 I31 3.036178 1_555
Dy6 I8 3.037221 1_555
Dy6 I3 3.059287 1_445
Dy6 I29 3.072112 1_555
Dy6 I1 3.333635 1_455
Dy7 I32 3.036178 1_555
Dy7 I27 3.037221 1_555
Dy7 I18 3.059287 1_445
Dy7 I23 3.072112 1_555
Dy7 I33 3.333635 1_545
Dy8 I9 3.109866 1_555
Dy8 I24 3.153530 1_555
Dy8 I11 3.156679 1_555
Dy8 I25 3.375241 1_555
Dy9 I2 3.201821 1_555
Dy9 I16 3.207813 1_555
Dy9 I17 3.250075 1_555
Dy9 I18 3.252332 1_545
Dy10 I21 2.934508 1_555
Dy10 I22 3.094328 1_556
Dy10 I20 3.128337 1_455
Dy10 I11 3.130811 1_555
Dy11 I15 3.201821 1_555
Dy11 I14 3.207813 1_555
Dy11 I0 3.250075 1_555
Dy11 I32 3.252332 1_655
Dy12 I11 3.047344 1_554
Dy12 I16 3.059520 1_555
Dy12 I17 3.075296 1_555
Dy12 I22 3.088077 1_555
Dy12 I23 3.370979 1_555
Dy13 I7 3.050818 1_555
Dy13 I22 3.207202 1_556
Dy13 I33 3.231625 1_556
Dy13 I27 3.694843 1_566
Dy14 I21 3.201821 1_555
Dy14 I30 3.207813 1_555
Dy14 I25 3.250075 1_555
Dy14 I3 3.252332 1_455
Dy15 I16 3.050818 1_555
Dy15 I12 3.207202 1_554
Dy15 I9 3.231625 1_554
Dy15 I27 3.694843 1_655
Dy16 I2 2.934508 1_555
Dy16 I5 3.094328 1_555
Dy16 I26 3.128337 1_545
Dy16 I10 3.130811 1_555
Dy17 I1 3.109866 1_555
Dy17 I25 3.153530 1_555
Dy17 I4 3.156679 1_555
Dy17 I24 3.375241 1_555
Dy18 I30 3.050818 1_555
Dy18 I13 3.207202 1_555
Dy18 I28 3.231625 1_555
Dy18 I8 3.694843 1_565
Dy19 I4 3.047344 1_555
Dy19 I14 3.059520 1_555
Dy19 I0 3.075296 1_555
Dy19 I13 3.088077 1_555
Dy19 I26 3.370979 1_555
Dy20 I19 3.047344 1_556
Dy20 I7 3.059520 1_555
Dy20 I24 3.075296 1_555
Dy20 I12 3.088077 1_555
Dy20 I20 3.370979 1_555
Dy21 I15 2.934508 1_555
Dy21 I12 3.094328 1_554
Dy21 I23 3.128337 1_655
Dy21 I19 3.130811 1_555
Dy22 I10 3.047344 1_555
Dy22 I30 3.059520 1_555
Dy22 I25 3.075296 1_555
Dy22 I5 3.088077 1_555
Dy22 I29 3.370979 1_555
Dy23 I18 3.036178 1_555
Dy23 I8 3.037221 1_665
Dy23 I32 3.059287 1_665
Dy23 I26 3.072112 1_555
Dy23 I28 3.333635 1_655
C0 C5 1.408991 1_555
C0 Dy22 2.194976 1_555
C0 Dy5 2.579284 1_555
C0 Dy18 2.587029 1_555
C0 Dy17 2.587041 1_555
C0 Dy0 2.607681 1_555
C1 C9 1.425557 1_555
C1 Dy7 2.211818 1_655
C1 Dy21 2.408524 1_555
C1 Dy9 2.553017 1_555
C1 Dy11 2.668789 1_555
C1 Dy15 2.789258 1_555
C2 C7 1.408991 1_556
C2 Dy20 2.194976 1_555
C2 Dy1 2.579284 1_556
C2 Dy13 2.587029 1_555
C2 Dy8 2.587041 1_555
C2 Dy15 2.607681 1_556
C3 Dy8 2.257643 1_555
C3 Dy10 2.443713 1_555
C3 Dy13 2.534396 1_555
C3 Dy4 2.591623 1_555
C3 Dy14 2.751890 1_555
C4 Dy23 2.211818 1_545
C4 Dy16 2.408524 1_555
C4 Dy11 2.553017 1_555
C4 Dy9 2.668789 1_555
C4 Dy0 2.789258 1_555
C5 Dy19 2.194976 1_555
C5 Dy17 2.579284 1_555
C5 Dy0 2.587029 1_555
C5 Dy5 2.587041 1_555
C5 Dy18 2.607681 1_555
C6 C8 1.425557 1_555
C6 Dy6 2.211818 1_565
C6 Dy3 2.408524 1_555
C6 Dy14 2.553017 1_555
C6 Dy4 2.668789 1_555
C6 Dy18 2.789258 1_555
C7 Dy12 2.194976 1_555
C7 Dy8 2.579284 1_554
C7 Dy15 2.587029 1_555
C7 Dy1 2.587041 1_555
C7 Dy13 2.607681 1_554
C8 Dy17 2.257643 1_555
C8 Dy3 2.443713 1_555
C8 Dy18 2.534396 1_555
C8 Dy14 2.591623 1_555
C8 Dy4 2.751890 1_555
C9 Dy1 2.257643 1_555
C9 Dy21 2.443713 1_555
C9 Dy15 2.534396 1_555
C9 Dy9 2.591623 1_555
C9 Dy11 2.751890 1_555
C10 C4 1.425557 1_555
C10 Dy5 2.257643 1_555
C10 Dy16 2.443713 1_555
C10 Dy0 2.534396 1_555
C10 Dy11 2.591623 1_555
C10 Dy9 2.751890 1_555
C11 C3 1.425557 1_555
C11 Dy2 2.211818 1_455
C11 Dy10 2.408524 1_555
C11 Dy4 2.553017 1_555
C11 Dy14 2.668789 1_555
C11 Dy13 2.789258 1_555
