# generated using pymatgen
data_CsK(ClO4)2
_symmetry_space_group_name_H-M   'P 1'
_cell_length_a   8.11370702
_cell_length_b   8.11370702
_cell_length_c   8.11370635
_cell_angle_alpha   42.66301050
_cell_angle_beta   42.66301050
_cell_angle_gamma   42.66300535
_symmetry_Int_Tables_number   1
_chemical_formula_structural   CsK(ClO4)2
_chemical_formula_sum   'Cs1 K1 Cl2 O8'
_cell_volume   222.19613580
_cell_formula_units_Z   1
loop_
 _symmetry_equiv_pos_site_id
 _symmetry_equiv_pos_as_xyz
  1  'x, y, z'
loop_
 _atom_site_type_symbol
 _atom_site_label
 _atom_site_symmetry_multiplicity
 _atom_site_fract_x
 _atom_site_fract_y
 _atom_site_fract_z
 _atom_site_occupancy
  Cs  Cs0  1  0.50000000  0.50000000  0.50000000  1
  K  K0  1  0.00000000  0.00000000  0.00000000  1
  Cl  Cl0  1  0.26595900  0.26595900  0.26595900  1
  Cl  Cl1  1  0.73404100  0.73404100  0.73404100  1
  O  O0  1  0.89152200  0.48698900  0.89152200  1
  O  O1  1  0.66806500  0.66806500  0.66806500  1
  O  O2  1  0.10847800  0.51301100  0.10847900  1
  O  O3  1  0.89152200  0.89152100  0.48698900  1
  O  O4  1  0.10847800  0.10847800  0.51301100  1
  O  O5  1  0.51301100  0.10847800  0.10847900  1
  O  O6  1  0.33193500  0.33193500  0.33193500  1
  O  O7  1  0.48698900  0.89152100  0.89152200  1
loop_
_geom_bond_atom_site_label_1
_geom_bond_atom_site_label_2
_geom_bond_distance
_geom_bond_site_symmetry_2
Cs0 O0 3.418232 1_554
Cs0 O4 3.418232 1_565
Cs0 O4 3.418232 1_655
Cs0 O0 3.418232 1_455
Cs0 O7 3.418233 1_554
Cs0 O3 3.418233 1_455
Cs0 O5 3.418233 1_565
Cs0 O2 3.418233 1_655
Cs0 O5 3.418238 1_556
Cs0 O2 3.418238 1_556
Cs0 O3 3.418238 1_545
Cs0 O7 3.418238 1_545
Cs0 O6 3.712510 1_555
Cs0 O1 3.712510 1_555
K0 O3 2.841093 1_445
K0 O7 2.841093 1_544
K0 O5 2.841093 1_455
K0 O2 2.841093 1_545
K0 O4 2.841097 1_554
K0 O0 2.841097 1_454
Cl0 O6 1.457392 1_555
Cl0 O5 1.466550 1_555
Cl0 O2 1.466550 1_555
Cl0 O4 1.466554 1_555
Cl1 O1 1.457392 1_555
Cl1 O7 1.466550 1_555
Cl1 O3 1.466550 1_555
Cl1 O0 1.466554 1_555
