# generated using pymatgen
data_Pr2BiO2
_symmetry_space_group_name_H-M   'P 1'
_cell_length_a   4.04195585
_cell_length_b   4.04195555
_cell_length_c   7.60129660
_cell_angle_alpha   105.41883040
_cell_angle_beta   105.41882214
_cell_angle_gamma   89.99998773
_symmetry_Int_Tables_number   1
_chemical_formula_structural   Pr2BiO2
_chemical_formula_sum   'Pr2 Bi1 O2'
_cell_volume   115.07264588
_cell_formula_units_Z   1
loop_
 _symmetry_equiv_pos_site_id
 _symmetry_equiv_pos_as_xyz
  1  'x, y, z'
loop_
 _atom_site_type_symbol
 _atom_site_label
 _atom_site_symmetry_multiplicity
 _atom_site_fract_x
 _atom_site_fract_y
 _atom_site_fract_z
 _atom_site_occupancy
  Pr  Pr0  1  0.33503220  0.33503220  0.67006440  1
  Pr  Pr1  1  0.66496780  0.66496780  0.32993660  1
  Bi  Bi0  1  0.00000000  0.00000000  0.00000000  1
  O  O0  1  0.75000000  0.25000000  0.50000000  1
  O  O1  1  0.25000000  0.75000000  0.50000000  1
loop_
_geom_bond_atom_site_label_1
_geom_bond_atom_site_label_2
_geom_bond_distance
_geom_bond_site_symmetry_2
Bi0 Pr0 3.683643 1_544
Bi0 Pr0 3.683644 1_454
Bi0 Pr0 3.683644 1_444
Bi0 Pr0 3.683644 1_554
Bi0 Pr1 3.683646 1_555
Bi0 Pr1 3.683648 1_455
Bi0 Pr1 3.683648 1_545
Bi0 Pr1 3.683651 1_445
O0 Pr1 2.349292 1_555
O0 Pr1 2.349295 1_545
O0 Pr0 2.349297 1_555
O0 Pr0 2.349297 1_655
O1 Pr1 2.349292 1_555
O1 Pr1 2.349295 1_455
O1 Pr0 2.349297 1_565
O1 Pr0 2.349297 1_555
