# generated using pymatgen
data_Li9Fe3P8O29
_symmetry_space_group_name_H-M   'P 1'
_cell_length_a   9.86157074
_cell_length_b   9.86157074
_cell_length_c   13.76563700
_cell_angle_alpha   90.00000000
_cell_angle_beta   90.00000000
_cell_angle_gamma   120.00000499
_symmetry_Int_Tables_number   1
_chemical_formula_structural   Li9Fe3P8O29
_chemical_formula_sum   'Li18 Fe6 P16 O58'
_cell_volume   1159.36213465
_cell_formula_units_Z   2
loop_
 _symmetry_equiv_pos_site_id
 _symmetry_equiv_pos_as_xyz
  1  'x, y, z'
loop_
 _atom_site_type_symbol
 _atom_site_label
 _atom_site_symmetry_multiplicity
 _atom_site_fract_x
 _atom_site_fract_y
 _atom_site_fract_z
 _atom_site_occupancy
  Li  Li0  1  0.89933500  0.23447100  0.06392800  1
  Li  Li1  1  0.89933500  0.66486300  0.56392800  1
  Li  Li2  1  0.66666700  0.33333300  0.88012200  1
  Li  Li3  1  0.10066500  0.76552900  0.93607200  1
  Li  Li4  1  0.10066500  0.33513700  0.43607200  1
  Li  Li5  1  0.23447100  0.33513700  0.93607200  1
  Li  Li6  1  0.66486300  0.76552900  0.43607200  1
  Li  Li7  1  0.66666700  0.33333300  0.38012200  1
  Li  Li8  1  0.76552900  0.66486300  0.06392800  1
  Li  Li9  1  0.33513700  0.10066500  0.06392800  1
  Li  Li10  1  0.76552900  0.10066500  0.56392800  1
  Li  Li11  1  0.33333300  0.66666700  0.61987800  1
  Li  Li12  1  0.33333300  0.66666700  0.11987800  1
  Li  Li13  1  0.23447100  0.89933500  0.43607200  1
  Li  Li14  1  0.00000000  0.00000000  0.00000000  1
  Li  Li15  1  0.00000000  0.00000000  0.50000000  1
  Li  Li16  1  0.33513700  0.23447100  0.56392800  1
  Li  Li17  1  0.66486300  0.89933500  0.93607200  1
  Fe  Fe0  1  0.56597700  0.00000000  0.75000000  1
  Fe  Fe1  1  0.00000000  0.56597700  0.75000000  1
  Fe  Fe2  1  0.56597700  0.56597700  0.25000000  1
  Fe  Fe3  1  0.43402300  0.43402300  0.75000000  1
  Fe  Fe4  1  0.43402300  0.00000000  0.25000000  1
  Fe  Fe5  1  0.00000000  0.43402300  0.25000000  1
  P  P0  1  0.77369000  0.68366700  0.84429300  1
  P  P1  1  0.22631000  0.31633300  0.15570700  1
  P  P2  1  0.77369000  0.09002300  0.34429300  1
  P  P3  1  0.33333300  0.66666700  0.87556100  1
  P  P4  1  0.68366700  0.90997700  0.15570700  1
  P  P5  1  0.66666700  0.33333300  0.12443900  1
  P  P6  1  0.31633300  0.09002300  0.84429300  1
  P  P7  1  0.90997700  0.22631000  0.84429300  1
  P  P8  1  0.22631000  0.90997700  0.65570700  1
  P  P9  1  0.33333300  0.66666700  0.37556100  1
  P  P10  1  0.31633300  0.22631000  0.34429300  1
  P  P11  1  0.66666700  0.33333300  0.62443900  1
  P  P12  1  0.90997700  0.68366700  0.34429300  1
  P  P13  1  0.09002300  0.77369000  0.15570700  1
  P  P14  1  0.09002300  0.31633300  0.65570700  1
  P  P15  1  0.68366700  0.77369000  0.65570700  1
  O  O0  1  0.00266300  0.22794800  0.93330400  1
  O  O1  1  0.47996500  0.10828600  0.83357900  1
  O  O2  1  0.51269200  0.32326400  0.66311300  1
  O  O3  1  0.89171400  0.52003500  0.33357900  1
  O  O4  1  0.66666700  0.33333300  0.51442100  1
  O  O5  1  0.07761200  0.32928700  0.15552700  1
  O  O6  1  0.67673600  0.18942800  0.66311300  1
  O  O7  1  0.74832500  0.07761200  0.84447300  1
  O  O8  1  0.32928700  0.25167500  0.84447300  1
  O  O9  1  0.32326400  0.81057200  0.33688700  1
  O  O10  1  0.18942800  0.51269200  0.33688700  1
  O  O11  1  0.99733700  0.77205200  0.06669600  1
  O  O12  1  0.89171400  0.37167900  0.83357900  1
  O  O13  1  0.32326400  0.51269200  0.83688700  1
  O  O14  1  0.62832100  0.52003500  0.83357900  1
  O  O15  1  0.00000000  0.21335900  0.75000000  1
  O  O16  1  0.51269200  0.18942800  0.16311300  1
  O  O17  1  0.52003500  0.89171400  0.16642100  1
  O  O18  1  0.74832500  0.67071300  0.34447300  1
  O  O19  1  0.10828600  0.62832100  0.16642100  1
  O  O20  1  0.22794800  0.22528500  0.06669600  1
  O  O21  1  0.25167500  0.32928700  0.65552700  1
  O  O22  1  0.77205200  0.77471500  0.93330400  1
  O  O23  1  0.10828600  0.47996500  0.66642100  1
  O  O24  1  0.67071300  0.92238800  0.65552700  1
  O  O25  1  0.33333300  0.66666700  0.48557900  1
  O  O26  1  0.92238800  0.25167500  0.34447300  1
  O  O27  1  0.48730800  0.67673600  0.33688700  1
  O  O28  1  0.21335900  0.21335900  0.25000000  1
  O  O29  1  0.52003500  0.62832100  0.66642100  1
  O  O30  1  0.37167900  0.89171400  0.66642100  1
  O  O31  1  0.00266300  0.77471500  0.43330400  1
  O  O32  1  0.81057200  0.32326400  0.16311300  1
  O  O33  1  0.33333300  0.66666700  0.98557900  1
  O  O34  1  0.37167900  0.47996500  0.16642100  1
  O  O35  1  0.62832100  0.10828600  0.33357900  1
  O  O36  1  0.81057200  0.48730800  0.66311300  1
  O  O37  1  0.22528500  0.22794800  0.43330400  1
  O  O38  1  0.78664100  0.78664100  0.75000000  1
  O  O39  1  0.47996500  0.37167900  0.33357900  1
  O  O40  1  0.18942800  0.67673600  0.83688700  1
  O  O41  1  0.77471500  0.00266300  0.06669600  1
  O  O42  1  0.99733700  0.22528500  0.56669600  1
  O  O43  1  0.32928700  0.07761200  0.34447300  1
  O  O44  1  0.67673600  0.48730800  0.16311300  1
  O  O45  1  0.92238800  0.67071300  0.84447300  1
  O  O46  1  0.66666700  0.33333300  0.01442100  1
  O  O47  1  0.77471500  0.77205200  0.56669600  1
  O  O48  1  0.78664100  0.00000000  0.25000000  1
  O  O49  1  0.22794800  0.00266300  0.56669600  1
  O  O50  1  0.25167500  0.92238800  0.15552700  1
  O  O51  1  0.67071300  0.74832500  0.15552700  1
  O  O52  1  0.77205200  0.99733700  0.43330400  1
  O  O53  1  0.21335900  0.00000000  0.75000000  1
  O  O54  1  0.48730800  0.81057200  0.83688700  1
  O  O55  1  0.22528500  0.99733700  0.93330400  1
  O  O56  1  0.00000000  0.78664100  0.25000000  1
  O  O57  1  0.07761200  0.74832500  0.65552700  1
loop_
_geom_bond_atom_site_label_1
_geom_bond_atom_site_label_2
_geom_bond_distance
_geom_bond_site_symmetry_2
Li0 O5 1.977679 1_655
Li0 O41 1.981958 1_555
Li0 O32 2.040494 1_555
Li0 O0 2.083565 1_654
Li1 O57 1.977679 1_655
Li1 O47 1.981966 1_555
Li1 O36 2.040488 1_555
Li1 O31 2.083568 1_655
Li2 O46 1.848711 1_556
Li2 O12 2.153977 1_555
Li2 O1 2.153980 1_555
Li2 O14 2.153986 1_555
Li3 O45 1.977679 1_455
Li3 O55 1.981958 1_555
Li3 O40 2.040494 1_555
Li3 O11 2.083565 1_456
Li4 O26 1.977679 1_455
Li4 O37 1.981966 1_555
Li4 O10 2.040488 1_555
Li4 O42 2.083568 1_455
Li5 O8 1.977685 1_555
Li5 O0 1.981957 1_555
Li5 O13 2.040488 1_555
Li5 O20 2.083570 1_556
Li6 O18 1.977685 1_555
Li6 O52 1.981957 1_555
Li6 O27 2.040488 1_555
Li6 O47 2.083570 1_555
Li7 O4 1.848711 1_555
Li7 O35 2.153977 1_555
Li7 O3 2.153980 1_555
Li7 O39 2.153986 1_555
Li8 O51 1.977685 1_555
Li8 O11 1.981957 1_555
Li8 O44 2.040488 1_555
Li8 O22 2.083570 1_554
Li9 O50 1.977679 1_545
Li9 O20 1.981966 1_555
Li9 O16 2.040488 1_555
Li9 O55 2.083568 1_544
Li10 O24 1.977679 1_545
Li10 O42 1.981958 1_555
Li10 O6 2.040494 1_555
Li10 O52 2.083565 1_545
Li11 O25 1.848711 1_555
Li11 O30 2.153977 1_555
Li11 O23 2.153980 1_555
Li11 O29 2.153986 1_555
Li12 O33 1.848711 1_554
Li12 O19 2.153977 1_555
Li12 O17 2.153980 1_555
Li12 O34 2.153986 1_555
Li13 O43 1.977679 1_565
Li13 O31 1.981958 1_555
Li13 O9 2.040494 1_555
Li13 O49 2.083565 1_565
Li14 O20 2.416145 1_555
Li14 O22 2.416145 1_444
Li14 O11 2.416145 1_445
Li14 O0 2.416145 1_554
Li14 O55 2.416145 1_544
Li14 O41 2.416145 1_455
Li15 O37 2.416145 1_555
Li15 O47 2.416145 1_445
Li15 O49 2.416145 1_555
Li15 O52 2.416145 1_445
Li15 O42 2.416145 1_455
Li15 O31 2.416145 1_545
Li16 O21 1.977685 1_555
Li16 O49 1.981957 1_555
Li16 O2 2.040488 1_555
Li16 O37 2.083570 1_555
Li17 O7 1.977679 1_565
Li17 O22 1.981966 1_555
Li17 O54 2.040488 1_555
Li17 O41 2.083568 1_566
Fe0 O6 2.018121 1_555
Fe0 O54 2.018121 1_545
Fe0 O30 2.022198 1_545
Fe0 O1 2.022198 1_555
Fe0 O7 2.033318 1_555
Fe0 O24 2.033318 1_545
Fe1 O40 2.018121 1_555
Fe1 O36 2.018121 1_455
Fe1 O12 2.022198 1_455
Fe1 O23 2.022198 1_555
Fe1 O57 2.033318 1_555
Fe1 O45 2.033318 1_455
Fe2 O27 2.018121 1_555
Fe2 O44 2.018121 1_555
Fe2 O39 2.022198 1_555
Fe2 O34 2.022198 1_555
Fe2 O18 2.033318 1_555
Fe2 O51 2.033318 1_555
Fe3 O13 2.018121 1_555
Fe3 O2 2.018121 1_555
Fe3 O14 2.022198 1_555
Fe3 O29 2.022198 1_555
Fe3 O8 2.033318 1_555
Fe3 O21 2.033318 1_555
Fe4 O9 2.018121 1_545
Fe4 O16 2.018121 1_555
Fe4 O35 2.022198 1_555
Fe4 O17 2.022198 1_545
Fe4 O50 2.033318 1_545
Fe4 O43 2.033318 1_555
Fe5 O32 2.018121 1_455
Fe5 O10 2.018121 1_555
Fe5 O19 2.022198 1_555
Fe5 O3 2.022198 1_455
Fe5 O26 2.033318 1_455
Fe5 O5 2.033318 1_555
O0 P7 1.523906 1_455
O1 P6 1.538665 1_555
O2 P11 1.564657 1_555
O3 P12 1.538665 1_555
O4 P11 1.514468 1_555
O5 P1 1.534265 1_555
O6 P11 1.564648 1_555
O7 P7 1.534265 1_555
O8 P6 1.534265 1_555
O9 P9 1.564648 1_555
O10 P9 1.564653 1_555
O11 P13 1.523906 1_655
O12 P7 1.538665 1_555
O13 P3 1.564657 1_555
O14 P0 1.538665 1_555
O15 P14 1.613270 1_555
O15 P7 1.613270 1_455
O16 P5 1.564653 1_555
O17 P4 1.538665 1_555
O18 P12 1.534265 1_555
O19 P13 1.538665 1_555
O20 P1 1.523906 1_555
O21 P14 1.534265 1_555
O22 P0 1.523906 1_555
O23 P14 1.538665 1_555
O24 P15 1.534265 1_555
O25 P9 1.514468 1_555
O26 P2 1.534265 1_555
O27 P9 1.564657 1_555
O28 P10 1.613270 1_555
O28 P1 1.613270 1_555
O29 P15 1.538665 1_555
O30 P8 1.538665 1_555
O31 P12 1.523906 1_455
O32 P5 1.564648 1_555
O33 P3 1.514468 1_555
O34 P1 1.538665 1_555
O35 P2 1.538665 1_555
O36 P11 1.564653 1_555
O37 P10 1.523906 1_555
O38 P0 1.613270 1_555
O38 P15 1.613270 1_555
O39 P10 1.538665 1_555
O40 P3 1.564648 1_555
O41 P4 1.523906 1_545
O42 P14 1.523906 1_655
O43 P10 1.534265 1_555
O44 P5 1.564657 1_555
O45 P0 1.534265 1_555
O46 P5 1.514468 1_555
O47 P15 1.523906 1_555
O48 P4 1.613270 1_545
O48 P2 1.613270 1_555
O49 P8 1.523906 1_545
O50 P13 1.534265 1_555
O51 P4 1.534265 1_555
O52 P2 1.523906 1_565
O53 P6 1.613270 1_555
O53 P8 1.613270 1_545
O54 P3 1.564653 1_555
O55 P6 1.523906 1_565
O56 P12 1.613270 1_455
O56 P13 1.613270 1_555
O57 P8 1.534265 1_555
