# generated using pymatgen
data_BaCu2Ge2O7
_symmetry_space_group_name_H-M   'P 1'
_cell_length_a   7.16232600
_cell_length_b   7.20812400
_cell_length_c   13.36557500
_cell_angle_alpha   90.00000000
_cell_angle_beta   90.00000000
_cell_angle_gamma   90.00000000
_symmetry_Int_Tables_number   1
_chemical_formula_structural   BaCu2Ge2O7
_chemical_formula_sum   'Ba4 Cu8 Ge8 O28'
_cell_volume   690.02365755
_cell_formula_units_Z   4
loop_
 _symmetry_equiv_pos_site_id
 _symmetry_equiv_pos_as_xyz
  1  'x, y, z'
loop_
 _atom_site_type_symbol
 _atom_site_label
 _atom_site_symmetry_multiplicity
 _atom_site_fract_x
 _atom_site_fract_y
 _atom_site_fract_z
 _atom_site_occupancy
  Ba  Ba0  1  0.02400600  0.04972800  0.25000000  1
  Ba  Ba1  1  0.52400600  0.45027200  0.25000000  1
  Ba  Ba2  1  0.47599400  0.54972800  0.75000000  1
  Ba  Ba3  1  0.97599400  0.95027200  0.75000000  1
  Cu  Cu0  1  0.78553000  0.20177100  0.00577800  1
  Cu  Cu1  1  0.28553000  0.29822900  0.49422200  1
  Cu  Cu2  1  0.71447000  0.70177100  0.99422200  1
  Cu  Cu3  1  0.21447000  0.79822900  0.50577800  1
  Cu  Cu4  1  0.21447000  0.79822900  0.99422200  1
  Cu  Cu5  1  0.71447000  0.70177100  0.50577800  1
  Cu  Cu6  1  0.28553000  0.29822900  0.00577800  1
  Cu  Cu7  1  0.78553000  0.20177100  0.49422200  1
  Ge  Ge0  1  0.01176200  0.52747300  0.12840100  1
  Ge  Ge1  1  0.51176200  0.97252700  0.37159900  1
  Ge  Ge2  1  0.48823800  0.02747300  0.87159900  1
  Ge  Ge3  1  0.98823800  0.47252700  0.62840100  1
  Ge  Ge4  1  0.98823800  0.47252700  0.87159900  1
  Ge  Ge5  1  0.48823800  0.02747300  0.62840100  1
  Ge  Ge6  1  0.51176200  0.97252700  0.12840100  1
  Ge  Ge7  1  0.01176200  0.52747300  0.37159900  1
  O  O0  1  0.89896900  0.50618600  0.25000000  1
  O  O1  1  0.39896900  0.99381400  0.25000000  1
  O  O2  1  0.60103100  0.00618600  0.75000000  1
  O  O3  1  0.10103100  0.49381400  0.75000000  1
  O  O4  1  0.18906500  0.35549800  0.13585200  1
  O  O5  1  0.68906500  0.14450200  0.36414800  1
  O  O6  1  0.31093500  0.85549800  0.86414800  1
  O  O7  1  0.81093500  0.64450200  0.63585200  1
  O  O8  1  0.81093500  0.64450200  0.86414800  1
  O  O9  1  0.31093500  0.85549800  0.63585200  1
  O  O10  1  0.68906500  0.14450200  0.13585200  1
  O  O11  1  0.18906500  0.35549800  0.36414800  1
  O  O12  1  0.07788200  0.76159100  0.11544300  1
  O  O13  1  0.57788200  0.73840900  0.38455700  1
  O  O14  1  0.42211800  0.26159100  0.88455700  1
  O  O15  1  0.92211800  0.23840900  0.61544300  1
  O  O16  1  0.92211800  0.23840900  0.88455700  1
  O  O17  1  0.42211800  0.26159100  0.61544300  1
  O  O18  1  0.57788200  0.73840900  0.11544300  1
  O  O19  1  0.07788200  0.76159100  0.38455700  1
  O  O20  1  0.82184400  0.46502300  0.04520800  1
  O  O21  1  0.32184400  0.03497700  0.45479200  1
  O  O22  1  0.67815600  0.96502300  0.95479200  1
  O  O23  1  0.17815600  0.53497700  0.54520800  1
  O  O24  1  0.17815600  0.53497700  0.95479200  1
  O  O25  1  0.67815600  0.96502300  0.54520800  1
  O  O26  1  0.32184400  0.03497700  0.04520800  1
  O  O27  1  0.82184400  0.46502300  0.45479200  1
loop_
_geom_bond_atom_site_label_1
_geom_bond_atom_site_label_2
_geom_bond_distance
_geom_bond_site_symmetry_2
Ba0 O1 2.715681 1_545
Ba0 O12 2.774326 1_545
Ba0 O19 2.774326 1_545
Ba0 O10 2.923918 1_455
Ba0 O5 2.923918 1_455
Ba0 O4 2.929671 1_555
Ba0 O11 2.929671 1_555
Ba1 O0 2.715681 1_555
Ba1 O18 2.774326 1_555
Ba1 O13 2.774326 1_555
Ba1 O4 2.923918 1_555
Ba1 O11 2.923918 1_555
Ba1 O10 2.929671 1_555
Ba1 O5 2.929671 1_555
Ba2 O3 2.715681 1_555
Ba2 O14 2.774326 1_555
Ba2 O17 2.774326 1_555
Ba2 O8 2.923918 1_555
Ba2 O7 2.923918 1_555
Ba2 O9 2.929671 1_555
Ba2 O6 2.929671 1_555
Ba3 O2 2.715681 1_565
Ba3 O16 2.774326 1_565
Ba3 O15 2.774326 1_565
Ba3 O6 2.923918 1_655
Ba3 O9 2.923918 1_655
Ba3 O8 2.929671 1_555
Ba3 O7 2.929671 1_555
Cu0 O16 1.910969 1_554
Cu0 O10 1.915776 1_555
Cu0 O20 1.986477 1_555
Cu0 O22 1.991982 1_544
Cu1 O17 1.910969 1_555
Cu1 O11 1.915776 1_555
Cu1 O21 1.986477 1_555
Cu1 O23 1.991982 1_555
Cu2 O18 1.910969 1_556
Cu2 O8 1.915776 1_555
Cu2 O22 1.986477 1_555
Cu2 O20 1.991982 1_556
Cu3 O19 1.910969 1_555
Cu3 O9 1.915776 1_555
Cu3 O23 1.986477 1_555
Cu3 O21 1.991982 1_565
Cu4 O12 1.910969 1_556
Cu4 O6 1.915776 1_555
Cu4 O24 1.986477 1_555
Cu4 O26 1.991982 1_566
Cu5 O13 1.910969 1_555
Cu5 O7 1.915776 1_555
Cu5 O25 1.986477 1_555
Cu5 O27 1.991982 1_555
Cu6 O14 1.910969 1_554
Cu6 O4 1.915776 1_555
Cu6 O26 1.986477 1_555
Cu6 O24 1.991982 1_554
Cu7 O15 1.910969 1_555
Cu7 O5 1.915776 1_555
Cu7 O27 1.986477 1_555
Cu7 O25 1.991982 1_545
Ge0 O12 1.761277 1_555
Ge0 O4 1.777419 1_555
Ge0 O20 1.813642 1_455
Ge0 O0 1.821425 1_455
Ge1 O13 1.761277 1_555
Ge1 O5 1.777419 1_565
Ge1 O21 1.813642 1_565
Ge1 O1 1.821425 1_555
Ge2 O14 1.761277 1_555
Ge2 O6 1.777419 1_545
Ge2 O22 1.813642 1_545
Ge2 O2 1.821425 1_555
Ge3 O15 1.761277 1_555
Ge3 O7 1.777419 1_555
Ge3 O23 1.813642 1_655
Ge3 O3 1.821425 1_655
Ge4 O16 1.761277 1_555
Ge4 O8 1.777419 1_555
Ge4 O24 1.813642 1_655
Ge4 O3 1.821425 1_655
Ge5 O17 1.761277 1_555
Ge5 O9 1.777419 1_545
Ge5 O25 1.813642 1_545
Ge5 O2 1.821425 1_555
Ge6 O18 1.761277 1_555
Ge6 O10 1.777419 1_565
Ge6 O26 1.813642 1_565
Ge6 O1 1.821425 1_555
Ge7 O19 1.761277 1_555
Ge7 O11 1.777419 1_555
Ge7 O27 1.813642 1_455
Ge7 O0 1.821425 1_455
