# generated using pymatgen
data_SiO2
_symmetry_space_group_name_H-M   'P 1'
_cell_length_a   10.90672984
_cell_length_b   10.90672984
_cell_length_c   10.90672962
_cell_angle_alpha   43.33980553
_cell_angle_beta   43.33980553
_cell_angle_gamma   43.33980334
_symmetry_Int_Tables_number   1
_chemical_formula_structural   SiO2
_chemical_formula_sum   'Si12 O24'
_cell_volume   554.32522827
_cell_formula_units_Z   12
loop_
 _symmetry_equiv_pos_site_id
 _symmetry_equiv_pos_as_xyz
  1  'x, y, z'
loop_
 _atom_site_type_symbol
 _atom_site_label
 _atom_site_symmetry_multiplicity
 _atom_site_fract_x
 _atom_site_fract_y
 _atom_site_fract_z
 _atom_site_occupancy
  Si  Si0  1  0.95897500  0.04929900  0.63933600  1
  Si  Si1  1  0.54102500  0.86066400  0.45070100  1
  Si  Si2  1  0.54929900  0.45897500  0.13933600  1
  Si  Si3  1  0.86066400  0.45070100  0.54102500  1
  Si  Si4  1  0.36066400  0.04102500  0.95070100  1
  Si  Si5  1  0.04929900  0.63933600  0.95897500  1
  Si  Si6  1  0.04102500  0.95070100  0.36066400  1
  Si  Si7  1  0.45070100  0.54102500  0.86066400  1
  Si  Si8  1  0.45897500  0.13933600  0.54929900  1
  Si  Si9  1  0.13933600  0.54929900  0.45897500  1
  Si  Si10  1  0.63933600  0.95897500  0.04929900  1
  Si  Si11  1  0.95070100  0.36066400  0.04102500  1
  O  O0  1  0.82305000  0.74797300  0.09635500  1
  O  O1  1  0.90364500  0.17695000  0.25202700  1
  O  O2  1  0.00000000  0.00000000  0.50000000  1
  O  O3  1  0.40364500  0.75202700  0.67695000  1
  O  O4  1  0.24797300  0.32305000  0.59635500  1
  O  O5  1  0.59635500  0.24797300  0.32305000  1
  O  O6  1  0.75202700  0.67695000  0.40364500  1
  O  O7  1  0.17695000  0.25202700  0.90364500  1
  O  O8  1  0.09635500  0.82305000  0.74797300  1
  O  O9  1  0.99405600  0.25000000  0.50594400  1
  O  O10  1  0.50594400  0.99405600  0.25000000  1
  O  O11  1  0.50000000  0.50000000  0.00000000  1
  O  O12  1  0.00594400  0.75000000  0.49405600  1
  O  O13  1  0.67695000  0.40364500  0.75202700  1
  O  O14  1  0.49405600  0.00594400  0.75000000  1
  O  O15  1  0.25000000  0.50594400  0.99405600  1
  O  O16  1  0.50000000  0.00000000  0.00000000  1
  O  O17  1  0.75000000  0.49405600  0.00594400  1
  O  O18  1  0.25202700  0.90364500  0.17695000  1
  O  O19  1  0.50000000  0.00000000  0.50000000  1
  O  O20  1  0.74797300  0.09635500  0.82305000  1
  O  O21  1  0.00000000  0.50000000  0.00000000  1
  O  O22  1  0.00000000  0.50000000  0.50000000  1
  O  O23  1  0.32305000  0.59635500  0.24797300  1
loop_
_geom_bond_atom_site_label_1
_geom_bond_atom_site_label_2
_geom_bond_distance
_geom_bond_site_symmetry_2
O0 Si10 1.626285 1_555
O0 Si5 1.639960 1_654
O1 Si11 1.626285 1_555
O1 Si6 1.639960 1_645
O2 Si0 1.627371 1_455
O2 Si6 1.627371 1_545
O3 Si7 1.626285 1_555
O3 Si1 1.639960 1_555
O4 Si8 1.626285 1_555
O4 Si9 1.639960 1_555
O5 Si2 1.626285 1_555
O5 Si8 1.639960 1_555
O6 Si1 1.626285 1_555
O6 Si3 1.639960 1_555
O7 Si4 1.626285 1_555
O7 Si11 1.639960 1_456
O8 Si5 1.626285 1_555
O8 Si0 1.639960 1_465
O9 Si3 1.682519 1_555
O9 Si0 1.682519 1_555
O10 Si1 1.682519 1_555
O10 Si10 1.682519 1_555
O11 Si2 1.627371 1_555
O11 Si7 1.627371 1_554
O12 Si9 1.682519 1_555
O12 Si6 1.682519 1_555
O13 Si3 1.626285 1_555
O13 Si7 1.639960 1_555
O14 Si4 1.682519 1_555
O14 Si8 1.682519 1_555
O15 Si5 1.682519 1_555
O15 Si7 1.682519 1_555
O16 Si10 1.627371 1_545
O16 Si4 1.627371 1_554
O17 Si11 1.682519 1_555
O17 Si2 1.682519 1_555
O18 Si6 1.626285 1_555
O18 Si4 1.639960 1_564
O19 Si8 1.627371 1_555
O19 Si1 1.627371 1_545
O20 Si0 1.626285 1_555
O20 Si10 1.639960 1_546
O21 Si5 1.627371 1_554
O21 Si11 1.627371 1_455
O22 Si9 1.627371 1_555
O22 Si3 1.627371 1_455
O23 Si9 1.626285 1_555
O23 Si2 1.639960 1_555
