# generated using pymatgen
data_Sr2MnMoO6
_symmetry_space_group_name_H-M   'P 1'
_cell_length_a   5.73340442
_cell_length_b   8.09845473
_cell_length_c   5.76262900
_cell_angle_alpha   90.00027348
_cell_angle_beta   90.00067756
_cell_angle_gamma   90.13361431
_symmetry_Int_Tables_number   1
_chemical_formula_structural   Sr2MnMoO6
_chemical_formula_sum   'Sr4 Mn2 Mo2 O12'
_cell_volume   267.56802645
_cell_formula_units_Z   2
loop_
 _symmetry_equiv_pos_site_id
 _symmetry_equiv_pos_as_xyz
  1  'x, y, z'
loop_
 _atom_site_type_symbol
 _atom_site_label
 _atom_site_symmetry_multiplicity
 _atom_site_fract_x
 _atom_site_fract_y
 _atom_site_fract_z
 _atom_site_occupancy
  Sr  Sr0  1  0.49438700  0.24954100  0.53111400  1
  Sr  Sr1  1  0.00561200  0.25045900  0.03111400  1
  Sr  Sr2  1  0.99438800  0.74954100  0.96888600  1
  Sr  Sr3  1  0.50561300  0.75045900  0.46888700  1
  Mn  Mn0  1  0.99999500  0.50000000  0.49999600  1
  Mn  Mn1  1  0.50000300  0.99999500  0.99999800  1
  Mo  Mo0  1  0.00000000  0.00000000  0.50000000  1
  Mo  Mo1  1  0.50000000  0.50000000  0.00000000  1
  O  O0  1  0.76849800  0.53476000  0.20368600  1
  O  O1  1  0.23150200  0.46524100  0.79631500  1
  O  O2  1  0.26843600  0.03477800  0.29640600  1
  O  O3  1  0.73156400  0.96522300  0.70359500  1
  O  O4  1  0.56834800  0.26402300  0.98465200  1
  O  O5  1  0.93165900  0.23612700  0.48465000  1
  O  O6  1  0.06834200  0.76387400  0.51535100  1
  O  O7  1  0.43165300  0.73597800  0.01534800  1
  O  O8  1  0.29919200  0.46291900  0.27022900  1
  O  O9  1  0.79927400  0.96290300  0.22983900  1
  O  O10  1  0.20072600  0.03709800  0.77016100  1
  O  O11  1  0.70080800  0.53708200  0.72977100  1
loop_
_geom_bond_atom_site_label_1
_geom_bond_atom_site_label_2
_geom_bond_distance
_geom_bond_site_symmetry_2
Mn0 O5 2.173484 1_555
Mn0 O6 2.173505 1_655
Mn0 O0 2.181333 1_555
Mn0 O1 2.181407 1_655
Mn0 O11 2.188232 1_555
Mn0 O8 2.188248 1_655
Mn1 O7 2.174646 1_556
Mn1 O4 2.174728 1_565
Mn1 O3 2.182011 1_555
Mn1 O2 2.182066 1_566
Mn1 O9 2.188828 1_556
Mn1 O10 2.188854 1_565
Mo0 O6 1.954885 1_545
Mo0 O5 1.954892 1_455
Mo0 O2 1.955125 1_555
Mo0 O3 1.955128 1_445
Mo0 O9 1.958770 1_445
Mo0 O10 1.958772 1_555
Mo1 O4 1.953710 1_554
Mo1 O7 1.953717 1_555
Mo1 O1 1.955675 1_554
Mo1 O0 1.955679 1_555
Mo1 O8 1.959362 1_555
Mo1 O11 1.959363 1_554
O0 Sr2 2.554049 1_554
O0 Sr3 2.769659 1_555
O0 Sr1 2.855307 1_655
O1 Sr1 2.554052 1_556
O1 Sr0 2.769664 1_555
O1 Sr2 2.855298 1_455
O2 Sr0 2.553821 1_555
O2 Sr1 2.769655 1_555
O2 Sr3 2.855411 1_545
O3 Sr3 2.553827 1_555
O3 Sr2 2.769657 1_555
O3 Sr0 2.855404 1_565
O4 Sr1 2.523911 1_656
O4 Sr0 2.650295 1_555
O5 Sr0 2.523909 1_555
O5 Sr1 2.650235 1_655
O6 Sr3 2.523903 1_555
O6 Sr2 2.650230 1_455
O7 Sr2 2.523917 1_454
O7 Sr3 2.650300 1_555
O8 Sr0 2.551023 1_555
O8 Sr1 2.771060 1_555
O8 Sr3 2.849704 1_555
O9 Sr2 2.550967 1_554
O9 Sr3 2.771097 1_555
O9 Sr1 2.849789 1_665
O10 Sr1 2.550962 1_556
O10 Sr0 2.771089 1_555
O10 Sr2 2.849795 1_445
O11 Sr3 2.551014 1_555
O11 Sr2 2.771054 1_555
O11 Sr0 2.849709 1_555
