# generated using pymatgen
data_Cs(CoS)2
_symmetry_space_group_name_H-M   'P 1'
_cell_length_a   3.76574868
_cell_length_b   3.76574899
_cell_length_c   7.83438602
_cell_angle_alpha   103.90630099
_cell_angle_beta   103.90630174
_cell_angle_gamma   89.99999194
_symmetry_Int_Tables_number   1
_chemical_formula_structural   Cs(CoS)2
_chemical_formula_sum   'Cs1 Co2 S2'
_cell_volume   104.48435814
_cell_formula_units_Z   1
loop_
 _symmetry_equiv_pos_site_id
 _symmetry_equiv_pos_as_xyz
  1  'x, y, z'
loop_
 _atom_site_type_symbol
 _atom_site_label
 _atom_site_symmetry_multiplicity
 _atom_site_fract_x
 _atom_site_fract_y
 _atom_site_fract_z
 _atom_site_occupancy
  Cs  Cs0  1  0.00000000  -0.00000000  0.00000000  1
  Co  Co0  1  0.25000000  0.75000000  0.50000000  1
  Co  Co1  1  0.75000000  0.25000000  0.50000000  1
  S  S0  1  0.34345713  0.34345713  0.68691227  1
  S  S1  1  0.65654287  0.65654287  0.31308773  1
loop_
_geom_bond_atom_site_label_1
_geom_bond_atom_site_label_2
_geom_bond_distance
_geom_bond_site_symmetry_2
Cs0 S1 3.523045 1_555
Cs0 S0 3.523045 1_444
Cs0 S1 3.523049 1_545
Cs0 S0 3.523049 1_454
Cs0 S1 3.523049 1_455
Cs0 S0 3.523049 1_544
Cs0 S0 3.523053 1_554
Cs0 S1 3.523053 1_445
Co0 S1 2.332764 1_555
Co0 S0 2.332764 1_555
Co0 S1 2.332770 1_455
Co0 S0 2.332770 1_565
Co1 S0 2.332764 1_555
Co1 S1 2.332764 1_555
Co1 S0 2.332770 1_655
Co1 S1 2.332770 1_545
