# generated using pymatgen
data_SrV13O18
_symmetry_space_group_name_H-M   'P 1'
_cell_length_a   7.99473110
_cell_length_b   7.99473110
_cell_length_c   7.99473122
_cell_angle_alpha   110.69090859
_cell_angle_beta   110.69090859
_cell_angle_gamma   110.69090651
_symmetry_Int_Tables_number   1
_chemical_formula_structural   SrV13O18
_chemical_formula_sum   'Sr1 V13 O18'
_cell_volume   374.54596322
_cell_formula_units_Z   1
loop_
 _symmetry_equiv_pos_site_id
 _symmetry_equiv_pos_as_xyz
  1  'x, y, z'
loop_
 _atom_site_type_symbol
 _atom_site_label
 _atom_site_symmetry_multiplicity
 _atom_site_fract_x
 _atom_site_fract_y
 _atom_site_fract_z
 _atom_site_occupancy
  Sr  Sr0  1  0.00000000  0.00000000  0.00000000  1
  V  V0  1  0.50000000  0.50000000  0.50000000  1
  V  V1  1  0.92791300  0.12061000  0.43609900  1
  V  V2  1  0.43609900  0.92791300  0.12061000  1
  V  V3  1  0.12061000  0.43609900  0.92791300  1
  V  V4  1  0.07208700  0.87939000  0.56390100  1
  V  V5  1  0.56390100  0.07208700  0.87939000  1
  V  V6  1  0.87939000  0.56390100  0.07208700  1
  V  V7  1  0.39945800  0.34227400  0.76715300  1
  V  V8  1  0.76715300  0.39945800  0.34227400  1
  V  V9  1  0.34227400  0.76715300  0.39945800  1
  V  V10  1  0.60054200  0.65772600  0.23284700  1
  V  V11  1  0.23284700  0.60054200  0.65772600  1
  V  V12  1  0.65772600  0.23284700  0.60054200  1
  O  O0  1  0.49662000  0.77267300  0.66872300  1
  O  O1  1  0.66872300  0.49662000  0.77267300  1
  O  O2  1  0.77267300  0.66872300  0.49662000  1
  O  O3  1  0.50338000  0.22732700  0.33127700  1
  O  O4  1  0.33127700  0.50338000  0.22732700  1
  O  O5  1  0.22732700  0.33127700  0.50338000  1
  O  O6  1  0.12171500  0.17344100  0.73921700  1
  O  O7  1  0.73921700  0.12171500  0.17344100  1
  O  O8  1  0.17344100  0.73921700  0.12171500  1
  O  O9  1  0.87828500  0.82655900  0.26078300  1
  O  O10  1  0.26078300  0.87828500  0.82655900  1
  O  O11  1  0.82655900  0.26078300  0.87828500  1
  O  O12  1  0.38314300  0.05209600  0.59726300  1
  O  O13  1  0.59726300  0.38314300  0.05209600  1
  O  O14  1  0.05209600  0.59726300  0.38314300  1
  O  O15  1  0.61685700  0.94790400  0.40273700  1
  O  O16  1  0.40273700  0.61685700  0.94790400  1
  O  O17  1  0.94790400  0.40273700  0.61685700  1
loop_
_geom_bond_atom_site_label_1
_geom_bond_atom_site_label_2
_geom_bond_distance
_geom_bond_site_symmetry_2
O0 V11 2.020221 1_555
O0 V9 2.043525 1_555
O0 V5 2.111144 1_565
O0 V0 2.135855 1_555
O0 Sr0 3.226673 1_666
O1 V12 2.020221 1_555
O1 V7 2.043525 1_555
O1 V6 2.111144 1_556
O1 V0 2.135855 1_555
O1 Sr0 3.226673 1_666
O2 V10 2.020221 1_555
O2 V8 2.043525 1_555
O2 V4 2.111144 1_655
O2 V0 2.135855 1_555
O2 Sr0 3.226673 1_666
O3 V8 2.020221 1_555
O3 V12 2.043525 1_555
O3 V2 2.111144 1_545
O3 V0 2.135855 1_555
O3 Sr0 3.226673 1_555
O4 V9 2.020221 1_555
O4 V10 2.043525 1_555
O4 V3 2.111144 1_554
O4 V0 2.135855 1_555
O4 Sr0 3.226673 1_555
O5 V7 2.020221 1_555
O5 V11 2.043525 1_555
O5 V1 2.111144 1_455
O5 V0 2.135855 1_555
O5 Sr0 3.226673 1_555
O6 V7 2.029998 1_555
O6 V4 2.065904 1_545
O6 V3 2.114082 1_555
O6 V1 2.147698 1_455
O6 Sr0 3.120800 1_556
O7 V8 2.029998 1_555
O7 V5 2.065904 1_554
O7 V1 2.114082 1_555
O7 V2 2.147698 1_545
O7 Sr0 3.120800 1_655
O8 V9 2.029998 1_555
O8 V6 2.065904 1_455
O8 V2 2.114082 1_555
O8 V3 2.147698 1_554
O8 Sr0 3.120800 1_565
O9 V10 2.029998 1_555
O9 V1 2.065904 1_565
O9 V6 2.114082 1_555
O9 V4 2.147698 1_655
O9 Sr0 3.120800 1_665
O10 V11 2.029998 1_555
O10 V2 2.065904 1_556
O10 V4 2.114082 1_555
O10 V5 2.147698 1_565
O10 Sr0 3.120800 1_566
O11 V12 2.029998 1_555
O11 V3 2.065904 1_655
O11 V5 2.114082 1_555
O11 V6 2.147698 1_556
O11 Sr0 3.120800 1_656
O12 V9 2.088119 1_545
O12 V5 2.116608 1_555
O12 V12 2.144473 1_555
O12 V7 2.162883 1_555
O12 V4 2.237512 1_545
O13 V7 2.088119 1_554
O13 V6 2.116608 1_555
O13 V10 2.144473 1_555
O13 V8 2.162883 1_555
O13 V5 2.237512 1_554
O14 V8 2.088119 1_455
O14 V4 2.116608 1_555
O14 V11 2.144473 1_555
O14 V9 2.162883 1_555
O14 V6 2.237512 1_455
O15 V12 2.088119 1_565
O15 V2 2.116608 1_555
O15 V9 2.144473 1_555
O15 V10 2.162883 1_555
O15 V1 2.237512 1_565
O16 V10 2.088119 1_556
O16 V3 2.116608 1_555
O16 V7 2.144473 1_555
O16 V11 2.162883 1_555
O16 V2 2.237512 1_556
O17 V11 2.088119 1_655
O17 V1 2.116608 1_555
O17 V8 2.144473 1_555
O17 V12 2.162883 1_555
O17 V3 2.237512 1_655
