# generated using pymatgen
data_CdI2
_symmetry_space_group_name_H-M   'P 1'
_cell_length_a   4.28543470
_cell_length_b   4.28543414
_cell_length_c   64.33428852
_cell_angle_alpha   90.00000000
_cell_angle_beta   90.00000000
_cell_angle_gamma   119.99998843
_symmetry_Int_Tables_number   1
_chemical_formula_structural   CdI2
_chemical_formula_sum   'Cd9 I18'
_cell_volume   1023.20556096
_cell_formula_units_Z   9
loop_
 _symmetry_equiv_pos_site_id
 _symmetry_equiv_pos_as_xyz
  1  'x, y, z'
loop_
 _atom_site_type_symbol
 _atom_site_label
 _atom_site_symmetry_multiplicity
 _atom_site_fract_x
 _atom_site_fract_y
 _atom_site_fract_z
 _atom_site_occupancy
  Cd  Cd0  1  0.00000000  0.00000000  0.80561149  1
  Cd  Cd1  1  -0.00000000  0.00000000  0.91674603  1
  Cd  Cd2  1  -0.00000000  0.00000000  0.58325658  1
  Cd  Cd3  1  0.66666700  0.33333300  0.02786464  1
  Cd  Cd4  1  -0.00000000  0.00000000  0.13900357  1
  Cd  Cd5  1  -0.00000000  0.00000000  0.36098903  1
  Cd  Cd6  1  0.66666700  0.33333300  0.69434146  1
  Cd  Cd7  1  0.66666700  0.33333300  0.47216406  1
  Cd  Cd8  1  0.66666700  0.33333300  0.24999901  1
  I  I0  1  -0.00000000  0.00000000  0.22308480  1
  I  I1  1  0.66666700  0.33333300  0.33425342  1
  I  I2  1  0.33333300  0.66666700  0.72110192  1
  I  I3  1  0.66666700  0.33333300  0.55653361  1
  I  I4  1  -0.00000000  0.00000000  0.44541285  1
  I  I5  1  0.33333300  0.66666700  0.27691335  1
  I  I6  1  -0.00000000  0.00000000  0.66758860  1
  I  I7  1  0.33333300  0.66666700  0.05458306  1
  I  I8  1  0.33333300  0.66666700  0.60996830  1
  I  I9  1  0.66666700  0.33333300  0.89003149  1
  I  I10  1  0.33333300  0.66666700  0.94346494  1
  I  I11  1  0.66666700  0.33333300  0.11223394  1
  I  I12  1  0.00000000  0.00000000  0.00116123  1
  I  I13  1  0.33333300  0.66666700  0.16574026  1
  I  I14  1  0.66666700  0.33333300  0.77886040  1
  I  I15  1  0.33333300  0.66666700  0.38776290  1
  I  I16  1  0.33333300  0.66666700  0.83239418  1
  I  I17  1  0.33333300  0.66666700  0.49893488  1
loop_
_geom_bond_atom_site_label_1
_geom_bond_atom_site_label_2
_geom_bond_distance
_geom_bond_site_symmetry_2
Cd0 I14 3.013888 1_455
Cd0 I14 3.013891 1_445
Cd0 I14 3.013891 1_555
Cd0 I16 3.015049 1_545
Cd0 I16 3.015052 1_555
Cd0 I16 3.015053 1_445
Cd1 I9 3.012546 1_455
Cd1 I9 3.012549 1_445
Cd1 I9 3.012549 1_555
Cd1 I10 3.012706 1_545
Cd1 I10 3.012709 1_555
Cd1 I10 3.012710 1_445
Cd2 I8 3.012442 1_545
Cd2 I8 3.012446 1_555
Cd2 I8 3.012446 1_445
Cd2 I3 3.012855 1_455
Cd2 I3 3.012858 1_445
Cd2 I3 3.012859 1_555
Cd3 I12 3.012137 1_655
Cd3 I12 3.012141 1_665
Cd3 I12 3.012141 1_555
Cd3 I7 3.012688 1_545
Cd3 I7 3.012689 1_655
Cd3 I7 3.012694 1_555
Cd4 I13 3.013359 1_545
Cd4 I13 3.013362 1_555
Cd4 I13 3.013362 1_445
Cd4 I11 3.014569 1_455
Cd4 I11 3.014572 1_445
Cd4 I11 3.014573 1_555
Cd5 I1 3.013319 1_455
Cd5 I1 3.013323 1_445
Cd5 I1 3.013323 1_555
Cd5 I15 3.014725 1_545
Cd5 I15 3.014728 1_555
Cd5 I15 3.014728 1_445
Cd6 I6 3.013953 1_655
Cd6 I6 3.013956 1_665
Cd6 I6 3.013956 1_555
Cd6 I2 3.014232 1_545
Cd6 I2 3.014233 1_655
Cd6 I2 3.014238 1_555
Cd7 I4 3.013892 1_655
Cd7 I4 3.013896 1_665
Cd7 I4 3.013896 1_555
Cd7 I17 3.014613 1_545
Cd7 I17 3.014613 1_655
Cd7 I17 3.014619 1_555
Cd8 I0 3.019893 1_655
Cd8 I0 3.019896 1_665
Cd8 I0 3.019896 1_555
Cd8 I5 3.019898 1_545
Cd8 I5 3.019898 1_655
Cd8 I5 3.019903 1_555
