# generated using pymatgen
data_PrNiSnH2
_symmetry_space_group_name_H-M   'P 1'
_cell_length_a   4.41130012
_cell_length_b   4.41130012
_cell_length_c   8.56631700
_cell_angle_alpha   90.00000000
_cell_angle_beta   90.00000000
_cell_angle_gamma   120.00000177
_symmetry_Int_Tables_number   1
_chemical_formula_structural   PrNiSnH2
_chemical_formula_sum   'Pr2 Ni2 Sn2 H4'
_cell_volume   144.36369078
_cell_formula_units_Z   2
loop_
 _symmetry_equiv_pos_site_id
 _symmetry_equiv_pos_as_xyz
  1  'x, y, z'
loop_
 _atom_site_type_symbol
 _atom_site_label
 _atom_site_symmetry_multiplicity
 _atom_site_fract_x
 _atom_site_fract_y
 _atom_site_fract_z
 _atom_site_occupancy
  Pr  Pr0  1  0.00000000  0.00000000  0.00000000  1
  Pr  Pr1  1  0.00000000  0.00000000  0.50000000  1
  Ni  Ni0  1  0.66666700  0.33333300  0.25000000  1
  Ni  Ni1  1  0.33333300  0.66666700  0.75000000  1
  Sn  Sn0  1  0.33333300  0.66666700  0.25000000  1
  Sn  Sn1  1  0.66666700  0.33333300  0.75000000  1
  H  H0  1  0.33333300  0.66666700  0.93646800  1
  H  H1  1  0.66666700  0.33333300  0.06353200  1
  H  H2  1  0.33333300  0.66666700  0.56353200  1
  H  H3  1  0.66666700  0.33333300  0.43646800  1
loop_
_geom_bond_atom_site_label_1
_geom_bond_atom_site_label_2
_geom_bond_distance
_geom_bond_site_symmetry_2
Pr0 Sn1 3.327592 1_454
Pr0 Sn0 3.327592 1_545
Pr0 Sn0 3.327595 1_555
Pr0 Sn0 3.327595 1_445
Pr0 Sn1 3.327595 1_444
Pr0 Sn1 3.327595 1_554
Pr1 Sn1 3.327592 1_455
Pr1 Sn0 3.327592 1_545
Pr1 Sn0 3.327595 1_555
Pr1 Sn0 3.327595 1_445
Pr1 Sn1 3.327595 1_445
Pr1 Sn1 3.327595 1_555
Ni0 Sn0 2.546863 1_545
Ni0 Sn0 2.546863 1_655
Ni0 Sn0 2.546870 1_555
Ni1 Sn1 2.546863 1_455
Ni1 Sn1 2.546863 1_565
Ni1 Sn1 2.546870 1_555
H0 Ni1 1.597344 1_555
H0 Pr0 2.604362 1_566
H0 Pr0 2.604366 1_666
H0 Pr0 2.604366 1_556
H1 Ni0 1.597344 1_555
H1 Pr0 2.604362 1_655
H1 Pr0 2.604366 1_665
H1 Pr0 2.604366 1_555
H2 Ni1 1.597344 1_555
H2 Pr1 2.604362 1_565
H2 Pr1 2.604366 1_555
H2 Pr1 2.604366 1_665
H3 Ni0 1.597344 1_555
H3 Pr1 2.604362 1_655
H3 Pr1 2.604366 1_555
H3 Pr1 2.604366 1_665
