# generated using pymatgen
data_H5CNO3
_symmetry_space_group_name_H-M   'P 1'
_cell_length_a   7.36305500
_cell_length_b   8.77217500
_cell_length_c   10.74273700
_cell_angle_alpha   90.00000000
_cell_angle_beta   90.00000000
_cell_angle_gamma   90.00000000
_symmetry_Int_Tables_number   1
_chemical_formula_structural   H5CNO3
_chemical_formula_sum   'H40 C8 N8 O24'
_cell_volume   693.87345797
_cell_formula_units_Z   8
loop_
 _symmetry_equiv_pos_site_id
 _symmetry_equiv_pos_as_xyz
  1  'x, y, z'
loop_
 _atom_site_type_symbol
 _atom_site_label
 _atom_site_symmetry_multiplicity
 _atom_site_fract_x
 _atom_site_fract_y
 _atom_site_fract_z
 _atom_site_occupancy
  H  H0  1  0.63278700  0.36754200  0.46659200  1
  H  H1  1  0.86721300  0.86754200  0.46659200  1
  H  H2  1  0.66260500  0.44833500  0.06126800  1
  H  H3  1  0.01837800  0.37801200  0.76526900  1
  H  H4  1  0.63278700  0.86754200  0.03340800  1
  H  H5  1  0.70149400  0.00829500  0.93844100  1
  H  H6  1  0.01837800  0.87801200  0.73473100  1
  H  H7  1  0.30943300  0.66376100  0.06598000  1
  H  H8  1  0.80943300  0.33623900  0.56598000  1
  H  H9  1  0.69056700  0.83623900  0.56598000  1
  H  H10  1  0.16260500  0.05166500  0.93873200  1
  H  H11  1  0.13278700  0.13245800  0.53340800  1
  H  H12  1  0.70149400  0.50829500  0.56155900  1
  H  H13  1  0.30943300  0.16376100  0.43402000  1
  H  H14  1  0.80943300  0.83623900  0.93402000  1
  H  H15  1  0.19056700  0.66376100  0.43402000  1
  H  H16  1  0.83739500  0.94833500  0.06126800  1
  H  H17  1  0.20149400  0.49170500  0.06155900  1
  H  H18  1  0.86721300  0.36754200  0.03340800  1
  H  H19  1  0.20149400  0.99170500  0.43844100  1
  H  H20  1  0.79850600  0.50829500  0.93844100  1
  H  H21  1  0.33739500  0.05166500  0.56126800  1
  H  H22  1  0.98162200  0.62198800  0.23473100  1
  H  H23  1  0.19056700  0.16376100  0.06598000  1
  H  H24  1  0.69056700  0.33623900  0.93402000  1
  H  H25  1  0.36721300  0.63245800  0.53340800  1
  H  H26  1  0.29850600  0.99170500  0.06155900  1
  H  H27  1  0.83739500  0.44833500  0.43873200  1
  H  H28  1  0.36721300  0.13245800  0.96659200  1
  H  H29  1  0.29850600  0.49170500  0.43844100  1
  H  H30  1  0.33739500  0.55166500  0.93873200  1
  H  H31  1  0.51837800  0.12198800  0.23473100  1
  H  H32  1  0.98162200  0.12198800  0.26526900  1
  H  H33  1  0.79850600  0.00829500  0.56155900  1
  H  H34  1  0.48162200  0.87801200  0.76526900  1
  H  H35  1  0.16260500  0.55166500  0.56126800  1
  H  H36  1  0.48162200  0.37801200  0.73473100  1
  H  H37  1  0.13278700  0.63245800  0.96659200  1
  H  H38  1  0.66260500  0.94833500  0.43873200  1
  H  H39  1  0.51837800  0.62198800  0.26526900  1
  C  C0  1  0.48965900  0.84485300  0.25147400  1
  C  C1  1  0.51034100  0.65514700  0.75147400  1
  C  C2  1  0.98965900  0.15514700  0.75147400  1
  C  C3  1  0.48965900  0.34485300  0.24852600  1
  C  C4  1  0.98965900  0.65514700  0.74852600  1
  C  C5  1  0.01034100  0.34485300  0.25147400  1
  C  C6  1  0.01034100  0.84485300  0.24852600  1
  C  C7  1  0.51034100  0.15514700  0.74852600  1
  N  N0  1  0.74573100  0.91582600  0.99116200  1
  N  N1  1  0.74573100  0.41582600  0.50883800  1
  N  N2  1  0.24573100  0.08417400  0.49116200  1
  N  N3  1  0.75426900  0.41582600  0.99116200  1
  N  N4  1  0.24573100  0.58417400  0.00883800  1
  N  N5  1  0.25426900  0.58417400  0.49116200  1
  N  N6  1  0.75426900  0.91582600  0.50883800  1
  N  N7  1  0.25426900  0.08417400  0.00883800  1
  O  O0  1  0.96894500  0.21984600  0.31785100  1
  O  O1  1  0.48305500  0.52856400  0.80775600  1
  O  O2  1  0.53105500  0.21984600  0.18214900  1
  O  O3  1  0.92983800  0.66826900  0.85982800  1
  O  O4  1  0.42983800  0.33173100  0.35982800  1
  O  O5  1  0.03105500  0.78015400  0.68214900  1
  O  O6  1  0.57016200  0.66826900  0.64017200  1
  O  O7  1  0.01694500  0.02856400  0.80775600  1
  O  O8  1  0.07016200  0.83173100  0.35982800  1
  O  O9  1  0.42983800  0.83173100  0.14017200  1
  O  O10  1  0.96894500  0.71984600  0.18214900  1
  O  O11  1  0.51694500  0.97143600  0.30775600  1
  O  O12  1  0.03105500  0.28015400  0.81785100  1
  O  O13  1  0.92983800  0.16826900  0.64017200  1
  O  O14  1  0.46894500  0.78015400  0.81785100  1
  O  O15  1  0.57016200  0.16826900  0.85982800  1
  O  O16  1  0.48305500  0.02856400  0.69224400  1
  O  O17  1  0.46894500  0.28015400  0.68214900  1
  O  O18  1  0.98305500  0.97143600  0.19224400  1
  O  O19  1  0.98305500  0.47143600  0.30775600  1
  O  O20  1  0.51694500  0.47143600  0.19224400  1
  O  O21  1  0.07016200  0.33173100  0.14017200  1
  O  O22  1  0.53105500  0.71984600  0.31785100  1
  O  O23  1  0.01694500  0.52856400  0.69224400  1
loop_
_geom_bond_atom_site_label_1
_geom_bond_atom_site_label_2
_geom_bond_distance
_geom_bond_site_symmetry_2
H0 N1 1.037761 1_555
H1 N6 1.037761 1_555
H2 N3 1.050741 1_554
H3 O12 1.031840 1_555
H3 O23 1.536131 1_555
H4 N0 1.037761 1_554
H5 N0 1.041555 1_545
H6 O5 1.031840 1_555
H6 O7 1.536131 1_565
H7 N4 1.041269 1_555
H8 N1 1.041269 1_555
H9 N6 1.041269 1_555
H10 N7 1.050741 1_556
H11 N2 1.037761 1_555
H12 N1 1.041555 1_555
H13 N2 1.041269 1_555
H14 N0 1.041269 1_555
H15 N5 1.041269 1_555
H16 N0 1.050741 1_554
H17 N4 1.041555 1_555
H18 N3 1.037761 1_554
H19 N2 1.041555 1_565
H20 N3 1.041555 1_555
H21 N2 1.050741 1_555
H22 O10 1.031840 1_555
H22 O19 1.536131 1_555
H23 N7 1.041269 1_555
H24 N3 1.041269 1_555
H25 N5 1.037761 1_555
H26 N7 1.041555 1_565
H27 N1 1.050741 1_555
H28 N7 1.037761 1_556
H29 N5 1.041555 1_555
H30 N4 1.050741 1_556
H31 O2 1.031840 1_555
H31 O11 1.536131 1_545
H32 O0 1.031840 1_555
H32 O18 1.536131 1_545
H33 N6 1.041555 1_545
H34 O14 1.031840 1_555
H34 O16 1.536131 1_565
H35 N5 1.050741 1_555
H36 O17 1.031840 1_555
H36 O1 1.536131 1_555
H37 N4 1.037761 1_556
H38 N6 1.050741 1_555
H39 O22 1.031840 1_555
H39 O20 1.536131 1_555
C0 O9 1.279426 1_555
C0 O11 1.280211 1_555
C0 O22 1.343082 1_555
C1 O6 1.279426 1_555
C1 O1 1.280211 1_555
C1 O14 1.343082 1_555
C2 O13 1.279426 1_555
C2 O7 1.280211 1_655
C2 O12 1.343082 1_655
C3 O4 1.279426 1_555
C3 O20 1.280211 1_555
C3 O2 1.343082 1_555
C4 O3 1.279426 1_555
C4 O23 1.280211 1_655
C4 O5 1.343082 1_655
C5 O21 1.279426 1_555
C5 O19 1.280211 1_455
C5 O0 1.343082 1_455
C6 O8 1.279426 1_555
C6 O18 1.280211 1_455
C6 O10 1.343082 1_455
C7 O15 1.279426 1_555
C7 O16 1.280211 1_555
C7 O17 1.343082 1_555
