# generated using pymatgen
data_Cs3Li2Cl5
_symmetry_space_group_name_H-M   'P 1'
_cell_length_a   12.81162888
_cell_length_b   12.81162888
_cell_length_c   4.24376124
_cell_angle_alpha   80.47283473
_cell_angle_beta   80.47283473
_cell_angle_gamma   147.14553620
_symmetry_Int_Tables_number   1
_chemical_formula_structural   Cs3Li2Cl5
_chemical_formula_sum   'Cs3 Li2 Cl5'
_cell_volume   306.40514670
_cell_formula_units_Z   1
loop_
 _symmetry_equiv_pos_site_id
 _symmetry_equiv_pos_as_xyz
  1  'x, y, z'
loop_
 _atom_site_type_symbol
 _atom_site_label
 _atom_site_symmetry_multiplicity
 _atom_site_fract_x
 _atom_site_fract_y
 _atom_site_fract_z
 _atom_site_occupancy
  Cs  Cs0  1  0.63346300  0.38429700  0.75022000  1
  Cs  Cs1  1  0.38429700  0.63346300  0.75022000  1
  Cs  Cs2  1  0.00226400  0.00226400  0.26664900  1
  Li  Li0  1  0.83158100  0.26676100  0.70265400  1
  Li  Li1  1  0.26676100  0.83158100  0.70265400  1
  Cl  Cl0  1  0.68709600  0.20784800  0.30482700  1
  Cl  Cl1  1  0.88382200  0.12799900  0.74793600  1
  Cl  Cl2  1  0.20784800  0.68709600  0.30482700  1
  Cl  Cl3  1  0.12799900  0.88382200  0.74793600  1
  Cl  Cl4  1  0.50446400  0.50446400  0.25158500  1
loop_
_geom_bond_atom_site_label_1
_geom_bond_atom_site_label_2
_geom_bond_distance
_geom_bond_site_symmetry_2
Cl0 Li1 2.402036 1_545
Cl0 Li0 2.440389 1_555
Cl0 Li0 2.444365 1_554
Cl0 Cs0 3.536352 1_554
Cl0 Cs0 3.570620 1_555
Cl1 Li0 2.360908 1_555
Cl1 Cs1 3.596436 1_545
Cl1 Cs1 3.624232 1_546
Cl1 Cs1 3.626403 1_654
Cl1 Cs2 3.638569 1_655
Cl1 Cs1 3.650809 1_655
Cl1 Cs2 3.712405 1_656
Cl2 Li0 2.402036 1_455
Cl2 Li1 2.440389 1_555
Cl2 Li1 2.444365 1_554
Cl2 Cs1 3.536352 1_554
Cl2 Cs1 3.570620 1_555
Cl3 Li1 2.360908 1_555
Cl3 Cs0 3.596436 1_455
Cl3 Cs0 3.624232 1_456
Cl3 Cs0 3.626403 1_564
Cl3 Cs2 3.638569 1_565
Cl3 Cs0 3.650809 1_565
Cl3 Cs2 3.712405 1_566
Cl4 Cs2 3.582419 1_664
Cl4 Cs2 3.601994 1_555
Cl4 Cs2 3.644938 1_665
Cl4 Cs2 3.667330 1_556
Cl4 Cs1 3.718016 1_554
Cl4 Cs0 3.718016 1_554
Cl4 Cs0 3.732752 1_555
Cl4 Cs1 3.732752 1_555
