# generated using pymatgen
data_CsLi(PO3)2
_symmetry_space_group_name_H-M   'P 1'
_cell_length_a   11.76171688
_cell_length_b   11.76171709
_cell_length_c   11.94194980
_cell_angle_alpha   108.73084760
_cell_angle_beta   108.73084797
_cell_angle_gamma   110.35969047
_symmetry_Int_Tables_number   1
_chemical_formula_structural   CsLi(PO3)2
_chemical_formula_sum   'Cs8 Li8 P16 O48'
_cell_volume   1280.68039924
_cell_formula_units_Z   8
loop_
 _symmetry_equiv_pos_site_id
 _symmetry_equiv_pos_as_xyz
  1  'x, y, z'
loop_
 _atom_site_type_symbol
 _atom_site_label
 _atom_site_symmetry_multiplicity
 _atom_site_fract_x
 _atom_site_fract_y
 _atom_site_fract_z
 _atom_site_occupancy
  Cs  Cs0  1  0.37344694  0.62472189  0.96449416  1
  Cs  Cs1  1  0.37472189  0.62344694  0.46449416  1
  Cs  Cs2  1  0.87668748  0.38090226  0.75648409  1
  Cs  Cs3  1  0.66022773  0.40895278  0.03550584  1
  Cs  Cs4  1  0.62441818  0.12020339  0.24351591  1
  Cs  Cs5  1  0.15895278  0.91022773  0.53550584  1
  Cs  Cs6  1  0.87020339  0.87441818  0.74351591  1
  Cs  Cs7  1  0.13090226  0.12668748  0.25648409  1
  Li  Li0  1  0.91782997  0.71294959  0.02700888  1
  Li  Li1  1  0.68594071  0.89082109  0.97299112  1
  Li  Li2  1  0.64082109  0.93594071  0.47299112  1
  Li  Li3  1  0.95515684  0.41581978  0.31318663  1
  Li  Li4  1  0.16581978  0.20515684  0.81318663  1
  Li  Li5  1  0.46294959  0.16782997  0.52700888  1
  Li  Li6  1  0.39197021  0.35263315  0.18681337  1
  Li  Li7  1  0.10263315  0.64197021  0.68681337  1
  P  P0  1  0.41635811  0.89717875  0.81649826  1
  P  P1  1  0.17032968  0.83138210  0.99407332  1
  P  P2  1  0.31131686  0.07278445  0.94721425  1
  P  P3  1  0.11410261  0.37557020  0.55278575  1
  P  P4  1  0.33107812  0.87273507  0.27257149  1
  P  P5  1  0.62273507  0.58107812  0.77257149  1
  P  P6  1  0.34985984  0.33068049  0.68350174  1
  P  P7  1  0.83730877  0.17625635  0.00592668  1
  P  P8  1  0.58138210  0.42032968  0.49407332  1
  P  P9  1  0.64717875  0.66635811  0.31649826  1
  P  P10  1  0.82278445  0.56131686  0.44721425  1
  P  P11  1  0.60016358  0.05850663  0.72742851  1
  P  P12  1  0.92625635  0.08730877  0.50592668  1
  P  P13  1  0.80850663  0.85016358  0.22742851  1
  P  P14  1  0.08068049  0.59985984  0.18350174  1
  P  P15  1  0.12557020  0.36410261  0.05278575  1
  O  O0  1  0.27384420  0.41478192  0.64184038  1
  O  O1  1  0.02808413  0.20815542  0.48862054  1
  O  O2  1  0.97438758  0.58120341  0.05829741  1
  O  O3  1  0.48271284  0.92934736  0.72248821  1
  O  O4  1  0.95815542  0.27808413  0.98862054  1
  O  O5  1  0.17626269  0.05071183  0.85189859  1
  O  O6  1  0.15160181  0.35554776  0.93609003  1
  O  O7  1  0.70533181  0.16277206  0.88910777  1
  O  O8  1  0.91277206  0.95533181  0.38910777  1
  O  O9  1  0.66898366  0.00054509  0.65890095  1
  O  O10  1  0.67934736  0.73271284  0.22248821  1
  O  O11  1  0.78930566  0.08184183  0.46860470  1
  O  O12  1  0.45698518  0.36662349  0.36359347  1
  O  O13  1  0.51022463  0.45685915  0.77751179  1
  O  O14  1  0.75054509  0.91898366  0.15890095  1
  O  O15  1  0.28946359  0.96953488  0.01137946  1
  O  O16  1  0.04116043  0.56520479  0.28036200  1
  O  O17  1  0.34164414  0.01008271  0.34109905  1
  O  O18  1  0.45604475  0.85707977  0.32156220  1
  O  O19  1  0.00303002  0.09339170  0.63640653  1
  O  O20  1  0.83184183  0.03930566  0.96860470  1
  O  O21  1  0.84339170  0.25303002  0.13640653  1
  O  O22  1  0.20685915  0.76022463  0.27751179  1
  O  O23  1  0.71953488  0.53946359  0.51137946  1
  O  O24  1  0.51079842  0.53484279  0.21963800  1
  O  O25  1  0.41945774  0.21551179  0.06390997  1
  O  O26  1  0.16478192  0.52384420  0.14184038  1
  O  O27  1  0.76008271  0.59164414  0.84109905  1
  O  O28  1  0.28484279  0.76079842  0.71963800  1
  O  O29  1  0.52290600  0.91609016  0.94170259  1
  O  O30  1  0.80071183  0.42626269  0.35189859  1
  O  O31  1  0.27366430  0.81622404  0.11089223  1
  O  O32  1  0.61323712  0.32070096  0.53139530  1
  O  O33  1  0.66609016  0.77290600  0.44170259  1
  O  O34  1  0.07436410  0.44881324  0.64810141  1
  O  O35  1  0.33120341  0.22438758  0.55829741  1
  O  O36  1  0.77294153  0.63200382  0.35815962  1
  O  O37  1  0.53551757  0.13448255  0.67843780  1
  O  O38  1  0.38200382  0.02294153  0.85815962  1
  O  O39  1  0.88448255  0.78551757  0.17843780  1
  O  O40  1  0.96551179  0.66945774  0.56390997  1
  O  O41  1  0.19881324  0.32436410  0.14810141  1
  O  O42  1  0.10554776  0.40160181  0.43609003  1
  O  O43  1  0.11662349  0.70698518  0.86359347  1
  O  O44  1  0.31520479  0.29116043  0.78036200  1
  O  O45  1  0.60707977  0.70604475  0.82156220  1
  O  O46  1  0.07070096  0.86323712  0.03139530  1
  O  O47  1  0.56622404  0.52366430  0.61089223  1
loop_
_geom_bond_atom_site_label_1
_geom_bond_atom_site_label_2
_geom_bond_distance
_geom_bond_site_symmetry_2
Cs0 O6 3.152839 1_555
Cs0 O31 3.183587 1_556
Cs0 O10 3.352326 1_556
Cs0 O0 3.360612 1_555
Cs0 O29 3.409256 1_555
Cs0 O43 3.457951 1_555
Cs0 O34 3.508537 1_555
Cs0 O44 3.509747 1_555
Cs0 O24 3.620320 1_556
Cs0 O13 3.627380 1_555
Cs0 O45 3.689373 1_555
Cs1 O42 3.152839 1_555
Cs1 O47 3.183587 1_555
Cs1 O3 3.352326 1_555
Cs1 O26 3.360612 1_555
Cs1 O33 3.409256 1_555
Cs1 O12 3.457951 1_555
Cs1 O41 3.508537 1_555
Cs1 O16 3.509747 1_555
Cs1 O28 3.620320 1_555
Cs1 O22 3.627380 1_555
Cs1 O18 3.689373 1_555
Cs2 O34 3.003890 1_655
Cs2 O32 3.038060 1_555
Cs2 O2 3.140711 1_556
Cs2 O27 3.269976 1_555
Cs2 O43 3.362946 1_655
Cs2 O4 3.364353 1_555
Cs2 O6 3.431061 1_655
Cs2 O11 3.563220 1_555
Cs2 O37 3.625128 1_555
Cs3 O25 3.152839 1_555
Cs3 O7 3.183587 1_554
Cs3 O13 3.352326 1_554
Cs3 O36 3.360612 1_555
Cs3 O2 3.409256 1_555
Cs3 O21 3.457951 1_555
Cs3 O30 3.508537 1_555
Cs3 O24 3.509747 1_555
Cs3 O44 3.620320 1_554
Cs3 O10 3.627380 1_555
Cs3 O39 3.689373 1_555
Cs4 O30 3.003890 1_555
Cs4 O11 3.038060 1_555
Cs4 O29 3.140711 1_544
Cs4 O14 3.269976 1_545
Cs4 O21 3.362945 1_555
Cs4 O15 3.364353 1_545
Cs4 O25 3.431061 1_555
Cs4 O32 3.563220 1_555
Cs4 O18 3.625128 1_545
Cs5 O40 3.152839 1_455
Cs5 O8 3.183587 1_455
Cs5 O22 3.352326 1_555
Cs5 O38 3.360612 1_565
Cs5 O35 3.409256 1_565
Cs5 O19 3.457951 1_565
Cs5 O5 3.508537 1_565
Cs5 O28 3.509747 1_555
Cs5 O16 3.620320 1_555
Cs5 O3 3.627380 1_555
Cs5 O37 3.689373 1_565
Cs6 O5 3.003890 1_665
Cs6 O20 3.038060 1_565
Cs6 O33 3.140711 1_555
Cs6 O9 3.269976 1_565
Cs6 O19 3.362945 1_665
Cs6 O23 3.364354 1_555
Cs6 O40 3.431061 1_555
Cs6 O46 3.563220 1_656
Cs6 O45 3.625128 1_555
Cs7 O41 3.003890 1_555
Cs7 O46 3.038060 1_545
Cs7 O35 3.140711 1_555
Cs7 O17 3.269976 1_555
Cs7 O12 3.362946 1_555
Cs7 O1 3.364353 1_555
Cs7 O42 3.431061 1_555
Cs7 O20 3.563220 1_454
Cs7 O39 3.625129 1_445
Li0 O39 1.962060 1_555
Li0 O27 1.971083 1_554
Li0 O2 1.978062 1_555
Li0 O46 2.007166 1_655
Li1 O45 1.962060 1_555
Li1 O14 1.971083 1_556
Li1 O29 1.978062 1_555
Li1 O20 2.007167 1_565
Li2 O18 1.962060 1_555
Li2 O9 1.971083 1_565
Li2 O33 1.978062 1_555
Li2 O11 2.007167 1_565
Li3 O21 1.929017 1_555
Li3 O16 1.929850 1_655
Li3 O42 2.001765 1_655
Li3 O30 2.046154 1_555
Li4 O19 1.929017 1_555
Li4 O44 1.929850 1_555
Li4 O6 2.001765 1_555
Li4 O5 2.046154 1_555
Li5 O37 1.962060 1_555
Li5 O17 1.971083 1_555
Li5 O35 1.978062 1_555
Li5 O32 2.007166 1_555
Li6 O12 1.929017 1_555
Li6 O24 1.929850 1_555
Li6 O25 2.001765 1_555
Li6 O41 2.046154 1_555
Li7 O43 1.929017 1_555
Li7 O28 1.929850 1_555
Li7 O40 2.001765 1_455
Li7 O34 2.046154 1_555
O0 P6 1.634362 1_555
O0 P3 1.634778 1_555
O1 P3 1.623237 1_555
O1 P12 1.631107 1_455
O2 P14 1.498188 1_655
O3 P0 1.625633 1_555
O3 P11 1.627710 1_565
O4 P15 1.623237 1_656
O4 P7 1.631107 1_556
O5 P2 1.499429 1_555
O6 P15 1.500444 1_556
O7 P11 1.628422 1_555
O7 P7 1.636057 1_556
O8 P13 1.628422 1_555
O8 P12 1.636057 1_565
O9 P11 1.496912 1_555
O10 P9 1.625633 1_555
O10 P13 1.627710 1_555
O11 P12 1.498607 1_555
O12 P8 1.492729 1_555
O13 P6 1.625633 1_555
O13 P5 1.627710 1_555
O14 P13 1.496912 1_555
O15 P2 1.623237 1_564
O15 P1 1.631107 1_554
O16 P14 1.495472 1_555
O17 P4 1.496912 1_545
O18 P4 1.497261 1_555
O19 P12 1.492729 1_455
O20 P7 1.498607 1_556
O21 P7 1.492729 1_555
O22 P14 1.625633 1_555
O22 P4 1.627710 1_555
O23 P10 1.623237 1_555
O23 P8 1.631107 1_555
O24 P9 1.495472 1_555
O25 P2 1.500444 1_554
O26 P14 1.634362 1_555
O26 P15 1.634778 1_555
O27 P5 1.496912 1_555
O28 P0 1.495472 1_555
O29 P0 1.498188 1_555
O30 P10 1.499429 1_555
O31 P4 1.628422 1_555
O31 P1 1.636057 1_554
O32 P8 1.498607 1_555
O33 P9 1.498188 1_555
O34 P3 1.499429 1_555
O35 P6 1.498188 1_555
O36 P9 1.634362 1_555
O36 P10 1.634778 1_555
O37 P11 1.497261 1_555
O38 P0 1.634362 1_545
O38 P2 1.634778 1_555
O39 P13 1.497261 1_555
O40 P10 1.500444 1_555
O41 P15 1.499429 1_555
O42 P3 1.500444 1_555
O43 P1 1.492729 1_555
O44 P6 1.495472 1_555
O45 P5 1.497261 1_555
O46 P1 1.498607 1_554
O47 P5 1.628422 1_555
O47 P8 1.636057 1_555
