# generated using pymatgen
data_Nb2P4O15
_symmetry_space_group_name_H-M   'P 1'
_cell_length_a   6.79034700
_cell_length_b   8.53782939
_cell_length_c   11.18089497
_cell_angle_alpha   74.33982415
_cell_angle_beta   89.82732162
_cell_angle_gamma   89.93562986
_symmetry_Int_Tables_number   1
_chemical_formula_structural   Nb2P4O15
_chemical_formula_sum   'Nb4 P8 O30'
_cell_volume   624.14572185
_cell_formula_units_Z   2
loop_
 _symmetry_equiv_pos_site_id
 _symmetry_equiv_pos_as_xyz
  1  'x, y, z'
loop_
 _atom_site_type_symbol
 _atom_site_label
 _atom_site_symmetry_multiplicity
 _atom_site_fract_x
 _atom_site_fract_y
 _atom_site_fract_z
 _atom_site_occupancy
  Nb  Nb0  1  0.78439800  0.68953700  0.11510300  1
  Nb  Nb1  1  0.80761800  0.68549900  0.60781300  1
  Nb  Nb2  1  0.28060300  0.27199600  0.90525700  1
  Nb  Nb3  1  0.30598100  0.27968200  0.40931400  1
  P  P0  1  0.60567800  0.29510100  0.66290400  1
  P  P1  1  0.92708600  0.06777900  0.62963100  1
  P  P2  1  0.15648200  0.89597000  0.87461800  1
  P  P3  1  0.48229800  0.66121100  0.86488900  1
  P  P4  1  0.10386800  0.66754800  0.35489200  1
  P  P5  1  0.42512300  0.89651100  0.38929200  1
  P  P6  1  0.65646900  0.06602400  0.14302400  1
  P  P7  1  0.97978800  0.30012800  0.15706500  1
  O  O0  1  0.61431300  0.64642100  0.23504400  1
  O  O1  1  0.01956100  0.64697100  0.69641000  1
  O  O2  1  0.10162800  0.31634200  0.79127400  1
  O  O3  1  0.50751300  0.32010000  0.31045300  1
  O  O4  1  0.71865700  0.45280100  0.61356300  1
  O  O5  1  0.51554400  0.27954400  0.79040100  1
  O  O6  1  0.45566400  0.26509600  0.57013600  1
  O  O7  1  0.75540400  0.14452300  0.69304800  1
  O  O8  1  0.03869300  0.19321500  0.53659300  1
  O  O9  1  0.83089700  0.93390000  0.58323000  1
  O  O10  1  0.05936700  0.98784000  0.74610200  1
  O  O11  1  0.24993300  0.02358800  0.92977000  1
  O  O12  1  0.02020300  0.77848600  0.95667700  1
  O  O13  1  0.33384300  0.81166700  0.82108800  1
  O  O14  1  0.61199300  0.67281500  0.75185800  1
  O  O15  1  0.59619100  0.69160000  0.97399500  1
  O  O16  1  0.36322000  0.50514200  0.90399200  1
  O  O17  1  0.21746300  0.51109800  0.40861300  1
  O  O18  1  0.02647700  0.68098200  0.22449700  1
  O  O19  1  0.94317100  0.69824300  0.44175300  1
  O  O20  1  0.25129800  0.81908400  0.32928800  1
  O  O21  1  0.53901500  0.77307600  0.48226400  1
  O  O22  1  0.33063300  0.03152700  0.43540300  1
  O  O23  1  0.55161500  0.97557000  0.26930300  1
  O  O24  1  0.75392400  0.93792600  0.08974900  1
  O  O25  1  0.52479000  0.18359000  0.05770900  1
  O  O26  1  0.83031300  0.15027500  0.19891500  1
  O  O27  1  0.09903400  0.29066000  0.27342400  1
  O  O28  1  0.10439500  0.26647000  0.05292600  1
  O  O29  1  0.86285500  0.45656300  0.11271600  1
loop_
_geom_bond_atom_site_label_1
_geom_bond_atom_site_label_2
_geom_bond_distance
_geom_bond_site_symmetry_2
Nb0 O0 1.730002 1_555
Nb0 O15 2.029742 1_554
Nb0 O18 2.041339 1_655
Nb0 O29 2.065724 1_555
Nb0 O24 2.072529 1_555
Nb0 O12 2.353218 1_654
Nb1 O1 1.729825 1_655
Nb1 O19 2.046281 1_555
Nb1 O4 2.061472 1_555
Nb1 O14 2.064805 1_555
Nb1 O9 2.069817 1_555
Nb1 O21 2.302598 1_555
Nb2 O2 1.729825 1_555
Nb2 O28 2.026345 1_556
Nb2 O5 2.035090 1_555
Nb2 O16 2.065070 1_555
Nb2 O11 2.074463 1_555
Nb2 O25 2.354611 1_556
Nb3 O3 1.731943 1_555
Nb3 O6 2.042475 1_555
Nb3 O27 2.056131 1_555
Nb3 O17 2.062545 1_555
Nb3 O22 2.065882 1_555
Nb3 O8 2.298828 1_555
O4 P0 1.518056 1_555
O5 P0 1.522195 1_555
O6 P0 1.526276 1_555
O7 P1 1.592247 1_555
O7 P0 1.601641 1_555
O8 P1 1.482911 1_455
O9 P1 1.525178 1_565
O10 P1 1.579348 1_465
O10 P2 1.584593 1_555
O11 P2 1.528644 1_545
O12 P2 1.484717 1_555
O13 P2 1.597809 1_555
O13 P3 1.602055 1_555
O14 P3 1.519360 1_555
O15 P3 1.526629 1_555
O16 P3 1.518639 1_555
O17 P4 1.518983 1_555
O18 P4 1.526136 1_555
O19 P4 1.527398 1_655
O20 P5 1.589416 1_555
O20 P4 1.599773 1_555
O21 P5 1.483545 1_555
O22 P5 1.524299 1_545
O23 P5 1.580726 1_555
O23 P6 1.582202 1_565
O24 P6 1.528582 1_565
O25 P6 1.484306 1_555
O26 P6 1.597014 1_555
O26 P7 1.600912 1_555
O27 P7 1.517961 1_455
O28 P7 1.525913 1_455
O29 P7 1.517451 1_555
