# generated using pymatgen
data_Rb2PbO2
_symmetry_space_group_name_H-M   'P 1'
_cell_length_a   7.80453758
_cell_length_b   7.57285340
_cell_length_c   10.41550145
_cell_angle_alpha   70.37777990
_cell_angle_beta   84.88831991
_cell_angle_gamma   61.07692962
_symmetry_Int_Tables_number   1
_chemical_formula_structural   Rb2PbO2
_chemical_formula_sum   'Rb8 Pb4 O8'
_cell_volume   505.50122931
_cell_formula_units_Z   4
loop_
 _symmetry_equiv_pos_site_id
 _symmetry_equiv_pos_as_xyz
  1  'x, y, z'
loop_
 _atom_site_type_symbol
 _atom_site_label
 _atom_site_symmetry_multiplicity
 _atom_site_fract_x
 _atom_site_fract_y
 _atom_site_fract_z
 _atom_site_occupancy
  Rb  Rb0  1  0.93574659  0.07203694  0.17978982  1
  Rb  Rb1  1  0.06425341  0.92796306  0.82021018  1
  Rb  Rb2  1  0.26349301  0.24052985  0.49390814  1
  Rb  Rb3  1  0.73650699  0.75947015  0.50609186  1
  Rb  Rb4  1  0.43012560  0.60638095  0.13774886  1
  Rb  Rb5  1  0.56987440  0.39361905  0.86225114  1
  Rb  Rb6  1  0.45103717  0.06480408  0.17284539  1
  Rb  Rb7  1  0.54896283  0.93519592  0.82715461  1
  Pb  Pb0  1  0.94124893  0.59763165  0.12820664  1
  Pb  Pb1  1  0.05875107  0.40236835  0.87179336  1
  Pb  Pb2  1  0.29198817  0.69600557  0.52754032  1
  Pb  Pb3  1  0.70801183  0.30399443  0.47245968  1
  O  O0  1  0.78685506  0.93079559  0.01993504  1
  O  O1  1  0.21314494  0.06920441  0.98006496  1
  O  O2  1  0.80732098  0.49637272  0.00646507  1
  O  O3  1  0.19267902  0.50362728  0.99353493  1
  O  O4  1  0.40437575  0.80297462  0.64667501  1
  O  O5  1  0.59562425  0.19702538  0.35332499  1
  O  O6  1  0.48501797  0.34173386  0.62551731  1
  O  O7  1  0.51498203  0.65826614  0.37448269  1
loop_
_geom_bond_atom_site_label_1
_geom_bond_atom_site_label_2
_geom_bond_distance
_geom_bond_site_symmetry_2
O0 Pb0 2.116548 1_555
O0 Rb0 2.830113 1_565
O0 Rb7 2.835387 1_554
O0 Rb1 2.863117 1_654
O0 Rb6 2.864352 1_565
O0 Rb5 2.955973 1_564
O1 Pb1 2.116548 1_555
O1 Rb1 2.830113 1_545
O1 Rb6 2.835387 1_556
O1 Rb0 2.863117 1_456
O1 Rb7 2.864352 1_545
O1 Rb4 2.955973 1_546
O2 Pb0 2.225505 1_555
O2 Pb1 2.270209 1_654
O2 Rb0 2.810791 1_555
O2 Rb7 2.935691 1_554
O2 Rb4 2.984216 1_555
O2 Rb5 2.995286 1_554
O3 Pb1 2.225505 1_555
O3 Pb0 2.270209 1_456
O3 Rb1 2.810791 1_555
O3 Rb6 2.935691 1_556
O3 Rb5 2.984216 1_555
O3 Rb4 2.995286 1_556
O4 Pb2 2.126402 1_555
O4 Rb3 2.791651 1_555
O4 Rb2 2.822563 1_565
O4 Rb5 2.879003 1_555
O4 Rb7 2.923116 1_555
O4 Rb1 3.012129 1_555
O5 Pb3 2.126402 1_555
O5 Rb2 2.791651 1_555
O5 Rb3 2.822563 1_545
O5 Rb4 2.879003 1_555
O5 Rb6 2.923116 1_555
O5 Rb0 3.012129 1_555
O6 Pb3 2.232136 1_555
O6 Pb2 2.243731 1_555
O6 Rb2 2.804472 1_555
O6 Rb5 2.804646 1_555
O6 Rb7 2.914770 1_545
O7 Pb2 2.232136 1_555
O7 Pb3 2.243731 1_555
O7 Rb3 2.804472 1_555
O7 Rb4 2.804646 1_555
O7 Rb6 2.914770 1_565
