# generated using pymatgen
data_KLi(PO3)2
_symmetry_space_group_name_H-M   'P 1'
_cell_length_a   9.66029769
_cell_length_b   9.66029771
_cell_length_c   11.78709054
_cell_angle_alpha   90.28707418
_cell_angle_beta   90.28707508
_cell_angle_gamma   90.43536273
_symmetry_Int_Tables_number   1
_chemical_formula_structural   KLi(PO3)2
_chemical_formula_sum   'K8 Li8 P16 O48'
_cell_volume   1099.92764082
_cell_formula_units_Z   8
loop_
 _symmetry_equiv_pos_site_id
 _symmetry_equiv_pos_as_xyz
  1  'x, y, z'
loop_
 _atom_site_type_symbol
 _atom_site_label
 _atom_site_symmetry_multiplicity
 _atom_site_fract_x
 _atom_site_fract_y
 _atom_site_fract_z
 _atom_site_occupancy
  K  K0  1  0.46894746  0.22213354  0.95739630  1
  K  K1  1  0.77786646  0.53105254  0.54260370  1
  K  K2  1  0.25211370  0.00196783  0.47023019  1
  K  K3  1  0.53105254  0.77786646  0.04260370  1
  K  K4  1  0.22213354  0.46894746  0.45739630  1
  K  K5  1  0.74788630  0.99803217  0.52976981  1
  K  K6  1  0.99803217  0.74788630  0.02976981  1
  K  K7  1  0.00196783  0.25211370  0.97023019  1
  Li  Li0  1  0.22734738  0.38736161  0.12663102  1
  Li  Li1  1  0.11790243  0.74331704  0.56460589  1
  Li  Li2  1  0.25668296  0.88209757  0.93539411  1
  Li  Li3  1  0.77265262  0.61263839  0.87336898  1
  Li  Li4  1  0.61263839  0.77265262  0.37336898  1
  Li  Li5  1  0.38736161  0.22734738  0.62663102  1
  Li  Li6  1  0.74331704  0.11790243  0.06460589  1
  Li  Li7  1  0.88209757  0.25668296  0.43539411  1
  P  P0  1  0.47747746  0.52252254  0.25000000  1
  P  P1  1  0.03754642  0.96245358  0.75000000  1
  P  P2  1  0.70956274  0.44865049  0.09872146  1
  P  P3  1  0.05128757  0.53311623  0.75071820  1
  P  P4  1  0.55134951  0.29043726  0.40127854  1
  P  P5  1  0.44865049  0.70956274  0.59872146  1
  P  P6  1  0.94871243  0.46688377  0.24928180  1
  P  P7  1  0.53311623  0.05128757  0.25071820  1
  P  P8  1  0.94624724  0.75358545  0.33558378  1
  P  P9  1  0.24641455  0.05375276  0.16441622  1
  P  P10  1  0.52252254  0.47747746  0.75000000  1
  P  P11  1  0.46688377  0.94871243  0.74928180  1
  P  P12  1  0.75358545  0.94624724  0.83558378  1
  P  P13  1  0.96245358  0.03754642  0.25000000  1
  P  P14  1  0.05375276  0.24641455  0.66441622  1
  P  P15  1  0.29043726  0.55134951  0.90127854  1
  O  O0  1  0.87271457  0.94406366  0.74117633  1
  O  O1  1  0.54647136  0.44766317  0.35784110  1
  O  O2  1  0.12728543  0.05593634  0.25882367  1
  O  O3  1  0.21168527  0.55137310  0.78131864  1
  O  O4  1  0.96431192  0.41918018  0.36837588  1
  O  O5  1  0.51911822  0.66983946  0.25828997  1
  O  O6  1  0.78831473  0.44862690  0.21868136  1
  O  O7  1  0.41050920  0.03437445  0.65675452  1
  O  O8  1  0.08715067  0.90874703  0.85979464  1
  O  O9  1  0.66983946  0.51911822  0.75828997  1
  O  O10  1  0.58949080  0.96562555  0.34324548  1
  O  O11  1  0.94406366  0.87271457  0.24117633  1
  O  O12  1  0.45352864  0.55233683  0.64215890  1
  O  O13  1  0.06908157  0.76922445  0.40998887  1
  O  O14  1  0.42276283  0.25652561  0.46412923  1
  O  O15  1  0.58081982  0.03568908  0.13162412  1
  O  O16  1  0.41918018  0.96431192  0.86837588  1
  O  O17  1  0.25652561  0.42276283  0.96412923  1
  O  O18  1  0.80803573  0.73927457  0.38829411  1
  O  O19  1  0.26072543  0.19196427  0.11170589  1
  O  O20  1  0.90874703  0.08715067  0.35979464  1
  O  O21  1  0.03568908  0.58081982  0.63162412  1
  O  O22  1  0.23077555  0.93091843  0.09001113  1
  O  O23  1  0.97078665  0.63116783  0.24520992  1
  O  O24  1  0.44766317  0.54647136  0.85784110  1
  O  O25  1  0.31370717  0.72521136  0.54041683  1
  O  O26  1  0.02921335  0.36883217  0.75479008  1
  O  O27  1  0.57723717  0.74347439  0.53587077  1
  O  O28  1  0.09125297  0.91284933  0.64020536  1
  O  O29  1  0.96562555  0.58949080  0.84324548  1
  O  O30  1  0.72521136  0.31370717  0.04041683  1
  O  O31  1  0.19196427  0.26072543  0.61170589  1
  O  O32  1  0.91284933  0.09125297  0.14020536  1
  O  O33  1  0.03437445  0.41050920  0.15675452  1
  O  O34  1  0.27478864  0.68629283  0.95958317  1
  O  O35  1  0.33016054  0.48088178  0.24171003  1
  O  O36  1  0.36883217  0.02921335  0.25479008  1
  O  O37  1  0.76922445  0.06908157  0.90998887  1
  O  O38  1  0.44862690  0.78831473  0.71868136  1
  O  O39  1  0.73927457  0.80803573  0.88829411  1
  O  O40  1  0.55233683  0.45352864  0.14215890  1
  O  O41  1  0.93091843  0.23077555  0.59001113  1
  O  O42  1  0.74347439  0.57723717  0.03587077  1
  O  O43  1  0.63116783  0.97078665  0.74520992  1
  O  O44  1  0.05593634  0.12728543  0.75882367  1
  O  O45  1  0.68629283  0.27478864  0.45958317  1
  O  O46  1  0.48088178  0.33016054  0.74171003  1
  O  O47  1  0.55137310  0.21168527  0.28131864  1
loop_
_geom_bond_atom_site_label_1
_geom_bond_atom_site_label_2
_geom_bond_distance
_geom_bond_site_symmetry_2
K0 O19 2.733558 1_556
K0 O16 2.736049 1_545
K0 O46 2.755610 1_555
K0 O30 2.793288 1_556
K0 O17 2.834458 1_555
K0 O15 2.945130 1_556
K1 O18 2.733558 1_555
K1 O21 2.736058 1_655
K1 O9 2.755611 1_555
K1 O45 2.793289 1_555
K1 O27 2.834458 1_555
K1 O4 2.945136 1_555
K2 O28 2.682943 1_545
K2 O7 2.687977 1_555
K2 O36 2.796445 1_555
K2 O2 2.815638 1_555
K2 O25 2.868403 1_545
K2 O13 2.932015 1_545
K2 O14 2.951498 1_555
K2 O31 3.058900 1_555
K3 O39 2.733558 1_554
K3 O15 2.736058 1_565
K3 O5 2.755610 1_555
K3 O34 2.793288 1_554
K3 O42 2.834458 1_555
K3 O16 2.945136 1_554
K4 O31 2.733558 1_555
K4 O4 2.736049 1_455
K4 O35 2.755611 1_555
K4 O25 2.793289 1_555
K4 O14 2.834458 1_555
K4 O21 2.945130 1_555
K5 O20 2.682943 1_565
K5 O10 2.687977 1_555
K5 O43 2.796445 1_555
K5 O0 2.815638 1_555
K5 O45 2.868403 1_565
K5 O41 2.932015 1_565
K5 O27 2.951498 1_555
K5 O18 3.058900 1_555
K6 O8 2.682943 1_654
K6 O29 2.687977 1_554
K6 O23 2.796445 1_555
K6 O11 2.815638 1_555
K6 O34 2.868403 1_654
K6 O22 2.932015 1_655
K6 O42 2.951498 1_555
K6 O39 3.058900 1_554
K7 O32 2.682943 1_456
K7 O33 2.687977 1_556
K7 O26 2.796445 1_555
K7 O44 2.815638 1_555
K7 O30 2.868403 1_456
K7 O37 2.932015 1_455
K7 O17 2.951498 1_555
K7 O19 3.058900 1_556
Li0 O35 1.898204 1_555
Li0 O33 1.914001 1_555
Li0 O19 1.924689 1_555
Li0 O17 1.968695 1_554
Li1 O28 1.880580 1_555
Li1 O13 1.898491 1_555
Li1 O25 1.923463 1_555
Li1 O21 1.928402 1_555
Li2 O8 1.880580 1_555
Li2 O22 1.898491 1_556
Li2 O34 1.923463 1_555
Li2 O16 1.928405 1_555
Li3 O9 1.898204 1_555
Li3 O29 1.914001 1_555
Li3 O39 1.924689 1_555
Li3 O42 1.968695 1_556
Li4 O5 1.898204 1_555
Li4 O10 1.914001 1_555
Li4 O18 1.924689 1_555
Li4 O27 1.968695 1_555
Li5 O46 1.898204 1_555
Li5 O7 1.914001 1_555
Li5 O31 1.924689 1_555
Li5 O14 1.968695 1_555
Li6 O32 1.880580 1_555
Li6 O37 1.898491 1_554
Li6 O30 1.923463 1_555
Li6 O15 1.928402 1_555
Li7 O20 1.880580 1_555
Li7 O41 1.898491 1_555
Li7 O45 1.923463 1_555
Li7 O4 1.928405 1_555
O0 P1 1.603662 1_655
O0 P12 1.605025 1_555
O1 P4 1.606209 1_555
O1 P0 1.609663 1_555
O2 P13 1.603662 1_455
O2 P9 1.605025 1_555
O3 P3 1.597413 1_555
O3 P15 1.602288 1_555
O4 P6 1.486967 1_555
O5 P0 1.478567 1_555
O6 P6 1.597413 1_555
O6 P2 1.602288 1_555
O7 P11 1.476747 1_545
O8 P1 1.475785 1_555
O9 P10 1.478567 1_555
O10 P7 1.476747 1_565
O11 P13 1.603662 1_565
O11 P8 1.605025 1_555
O12 P5 1.606209 1_555
O12 P10 1.609663 1_555
O13 P8 1.478366 1_455
O14 P4 1.484802 1_555
O15 P7 1.486966 1_555
O16 P11 1.486967 1_555
O17 P15 1.484802 1_555
O18 P8 1.481270 1_555
O19 P9 1.481270 1_555
O20 P13 1.475785 1_555
O21 P3 1.486966 1_555
O22 P9 1.478366 1_565
O23 P6 1.600679 1_555
O23 P8 1.607368 1_555
O24 P15 1.606209 1_555
O24 P10 1.609663 1_555
O25 P5 1.479718 1_555
O26 P3 1.600679 1_555
O26 P14 1.607368 1_555
O27 P5 1.484802 1_555
O28 P1 1.475785 1_555
O29 P3 1.476747 1_655
O30 P2 1.479718 1_555
O31 P14 1.481270 1_555
O32 P13 1.475785 1_555
O33 P6 1.476747 1_455
O34 P15 1.479718 1_555
O35 P0 1.478567 1_555
O36 P7 1.600679 1_555
O36 P9 1.607368 1_555
O37 P12 1.478366 1_545
O38 P11 1.597413 1_555
O38 P5 1.602288 1_555
O39 P12 1.481270 1_555
O40 P2 1.606209 1_555
O40 P0 1.609663 1_555
O41 P14 1.478366 1_655
O42 P2 1.484802 1_555
O43 P11 1.600679 1_555
O43 P12 1.607368 1_555
O44 P1 1.603662 1_545
O44 P14 1.605025 1_555
O45 P4 1.479718 1_555
O46 P10 1.478567 1_555
O47 P7 1.597413 1_555
O47 P4 1.602288 1_555
