# generated using pymatgen
data_NaNb3(TeO4)4
_symmetry_space_group_name_H-M   'P 1'
_cell_length_a   7.55558600
_cell_length_b   6.71265000
_cell_length_c   14.42705257
_cell_angle_alpha   77.91133187
_cell_angle_beta   90.00000000
_cell_angle_gamma   90.00000000
_symmetry_Int_Tables_number   1
_chemical_formula_structural   NaNb3(TeO4)4
_chemical_formula_sum   'Na2 Nb6 Te8 O32'
_cell_volume   715.48537945
_cell_formula_units_Z   2
loop_
 _symmetry_equiv_pos_site_id
 _symmetry_equiv_pos_as_xyz
  1  'x, y, z'
loop_
 _atom_site_type_symbol
 _atom_site_label
 _atom_site_symmetry_multiplicity
 _atom_site_fract_x
 _atom_site_fract_y
 _atom_site_fract_z
 _atom_site_occupancy
  Na  Na0  1  0.50000000  0.50000000  0.50000000  1
  Na  Na1  1  0.00000000  0.50000000  0.50000000  1
  Nb  Nb0  1  0.49978700  0.07699000  0.72640500  1
  Nb  Nb1  1  0.00021300  0.07699000  0.72640500  1
  Nb  Nb2  1  0.50021300  0.92301000  0.27359500  1
  Nb  Nb3  1  0.50000000  0.00000000  0.00000000  1
  Nb  Nb4  1  0.99978700  0.92301000  0.27359500  1
  Nb  Nb5  1  0.00000000  0.00000000  0.00000000  1
  Te  Te0  1  0.25000000  0.48923300  0.99929100  1
  Te  Te1  1  0.25000000  0.59567700  0.72128800  1
  Te  Te2  1  0.75000000  0.05253900  0.50170500  1
  Te  Te3  1  0.75000000  0.57431700  0.71060800  1
  Te  Te4  1  0.75000000  0.51076700  0.00070900  1
  Te  Te5  1  0.25000000  0.94746100  0.49829500  1
  Te  Te6  1  0.25000000  0.42568300  0.28939200  1
  Te  Te7  1  0.75000000  0.40432300  0.27871200  1
  O  O0  1  0.25000000  0.00980700  0.26097600  1
  O  O1  1  0.56081500  0.37900700  0.70500400  1
  O  O2  1  0.44645900  0.78102300  0.71799900  1
  O  O3  1  0.25000000  0.31208700  0.41896300  1
  O  O4  1  0.25000000  0.14335600  0.68918500  1
  O  O5  1  0.75000000  0.38745400  0.12748600  1
  O  O6  1  0.75000000  0.68791300  0.58103700  1
  O  O7  1  0.05354100  0.78102300  0.71799900  1
  O  O8  1  0.75000000  0.34607800  0.42302900  1
  O  O9  1  0.53312700  0.95257800  0.14210400  1
  O  O10  1  0.94645900  0.21897700  0.28200100  1
  O  O11  1  0.05753000  0.87658800  0.42594500  1
  O  O12  1  0.03312700  0.04742200  0.85789600  1
  O  O13  1  0.43918500  0.62099300  0.29499600  1
  O  O14  1  0.75000000  0.85664400  0.31081500  1
  O  O15  1  0.75000000  0.99019300  0.73902400  1
  O  O16  1  0.93918500  0.37900700  0.70500400  1
  O  O17  1  0.46687300  0.04742200  0.85789600  1
  O  O18  1  0.44068000  0.29699500  0.99505100  1
  O  O19  1  0.94247000  0.12341200  0.57405500  1
  O  O20  1  0.94068000  0.70300500  0.00494900  1
  O  O21  1  0.25000000  0.61254600  0.87251400  1
  O  O22  1  0.75000000  0.07971900  0.98090500  1
  O  O23  1  0.44247000  0.87658800  0.42594500  1
  O  O24  1  0.25000000  0.65392200  0.57697100  1
  O  O25  1  0.05932000  0.29699500  0.99505100  1
  O  O26  1  0.55753000  0.12341200  0.57405500  1
  O  O27  1  0.55932000  0.70300500  0.00494900  1
  O  O28  1  0.25000000  0.92028100  0.01909500  1
  O  O29  1  0.06081500  0.62099300  0.29499600  1
  O  O30  1  0.96687300  0.95257800  0.14210400  1
  O  O31  1  0.55354100  0.21897700  0.28200100  1
loop_
_geom_bond_atom_site_label_1
_geom_bond_atom_site_label_2
_geom_bond_distance
_geom_bond_site_symmetry_2
Na0 O24 2.519759 1_555
Na0 O8 2.519759 1_555
Na0 O23 2.566997 1_555
Na0 O26 2.566997 1_555
Na0 O6 2.672749 1_555
Na0 O3 2.672749 1_555
Na0 O1 2.934632 1_555
Na0 O13 2.934632 1_555
Na1 O24 2.519759 1_555
Na1 O8 2.519759 1_455
Na1 O11 2.566997 1_555
Na1 O19 2.566997 1_455
Na1 O6 2.672749 1_455
Na1 O3 2.672749 1_555
Na1 O29 2.934632 1_555
Na1 O16 2.934632 1_455
Nb0 O17 1.882085 1_555
Nb0 O15 1.975397 1_545
Nb0 O4 1.987074 1_555
Nb0 O1 2.038590 1_555
Nb0 O2 2.055490 1_545
Nb0 O26 2.198091 1_555
Nb1 O12 1.882085 1_555
Nb1 O15 1.975397 1_445
Nb1 O4 1.987074 1_555
Nb1 O16 2.038590 1_455
Nb1 O7 2.055490 1_545
Nb1 O19 2.198091 1_455
Nb2 O9 1.882085 1_555
Nb2 O0 1.975397 1_565
Nb2 O14 1.987074 1_555
Nb2 O13 2.038590 1_555
Nb2 O31 2.055490 1_565
Nb2 O23 2.198091 1_555
Nb3 O22 1.966834 1_554
Nb3 O28 1.966834 1_545
Nb3 O9 2.023292 1_545
Nb3 O17 2.023292 1_554
Nb3 O18 2.029998 1_554
Nb3 O27 2.029998 1_545
Nb4 O30 1.882085 1_555
Nb4 O0 1.975397 1_665
Nb4 O14 1.987074 1_555
Nb4 O29 2.038590 1_655
Nb4 O10 2.055490 1_565
Nb4 O11 2.198091 1_655
Nb5 O22 1.966834 1_454
Nb5 O28 1.966834 1_545
Nb5 O30 2.023292 1_445
Nb5 O12 2.023292 1_554
Nb5 O25 2.029998 1_554
Nb5 O20 2.029998 1_445
O1 Te3 1.952684 1_555
O2 Te1 1.931010 1_555
O3 Te6 1.865154 1_555
O3 Te5 2.475353 1_545
O5 Te4 1.842921 1_555
O5 Te7 2.208238 1_555
O6 Te3 1.865154 1_555
O6 Te2 2.475353 1_565
O7 Te1 1.931010 1_555
O8 Te7 2.036397 1_555
O8 Te2 2.057707 1_555
O10 Te7 1.931010 1_555
O11 Te5 1.907513 1_555
O13 Te6 1.952684 1_555
O16 Te3 1.952684 1_555
O18 Te0 1.943610 1_555
O19 Te2 1.907513 1_555
O20 Te4 1.943610 1_555
O21 Te0 1.842921 1_555
O21 Te1 2.208238 1_555
O23 Te5 1.907513 1_555
O24 Te1 2.036397 1_555
O24 Te5 2.057707 1_555
O25 Te0 1.943610 1_555
O26 Te2 1.907513 1_555
O27 Te4 1.943610 1_555
O29 Te6 1.952684 1_555
O31 Te7 1.931010 1_555
