# generated using pymatgen
data_Bi2Mo2O9
_symmetry_space_group_name_H-M   'P 1'
_cell_length_a   10.98605400
_cell_length_b   12.02915900
_cell_length_c   17.07636736
_cell_angle_alpha   45.48080882
_cell_angle_beta   90.00000000
_cell_angle_gamma   90.00000000
_symmetry_Int_Tables_number   1
_chemical_formula_structural   Bi2Mo2O9
_chemical_formula_sum   'Bi16 Mo16 O72'
_cell_volume   1609.05741119
_cell_formula_units_Z   8
loop_
 _symmetry_equiv_pos_site_id
 _symmetry_equiv_pos_as_xyz
  1  'x, y, z'
loop_
 _atom_site_type_symbol
 _atom_site_label
 _atom_site_symmetry_multiplicity
 _atom_site_fract_x
 _atom_site_fract_y
 _atom_site_fract_z
 _atom_site_occupancy
  Bi  Bi0  1  0.87625000  0.84706700  0.39547000  1
  Bi  Bi1  1  0.62253100  0.83941200  0.24768000  1
  Bi  Bi2  1  0.37746900  0.16058800  0.75232000  1
  Bi  Bi3  1  0.37599800  0.50145800  0.75684400  1
  Bi  Bi4  1  0.87955800  0.14234300  0.10009800  1
  Bi  Bi5  1  0.62400200  0.49854200  0.24315600  1
  Bi  Bi6  1  0.87746900  0.83941200  0.74768000  1
  Bi  Bi7  1  0.12400200  0.50145800  0.25684400  1
  Bi  Bi8  1  0.62375000  0.84706700  0.89547000  1
  Bi  Bi9  1  0.12044200  0.85765700  0.89990200  1
  Bi  Bi10  1  0.37955800  0.85765700  0.39990200  1
  Bi  Bi11  1  0.12253100  0.16058800  0.25232000  1
  Bi  Bi12  1  0.12375000  0.15293300  0.60453000  1
  Bi  Bi13  1  0.62044200  0.14234300  0.60009800  1
  Bi  Bi14  1  0.37625000  0.15293300  0.10453000  1
  Bi  Bi15  1  0.87599800  0.49854200  0.74315600  1
  Mo  Mo0  1  0.13011800  0.83607300  0.57950500  1
  Mo  Mo1  1  0.62243700  0.82761200  0.58345800  1
  Mo  Mo2  1  0.37532800  0.49424300  0.42214900  1
  Mo  Mo3  1  0.62467200  0.50575700  0.57785100  1
  Mo  Mo4  1  0.37756300  0.17238800  0.41654200  1
  Mo  Mo5  1  0.62776700  0.50801800  0.90978200  1
  Mo  Mo6  1  0.63011800  0.16392700  0.92049500  1
  Mo  Mo7  1  0.12776700  0.49198200  0.59021800  1
  Mo  Mo8  1  0.87223300  0.50801800  0.40978200  1
  Mo  Mo9  1  0.87532800  0.50575700  0.07785100  1
  Mo  Mo10  1  0.87756300  0.82761200  0.08345800  1
  Mo  Mo11  1  0.12467200  0.49424300  0.92214900  1
  Mo  Mo12  1  0.36988200  0.83607300  0.07950500  1
  Mo  Mo13  1  0.37223300  0.49198200  0.09021800  1
  Mo  Mo14  1  0.86988200  0.16392700  0.42049500  1
  Mo  Mo15  1  0.12243700  0.17238800  0.91654200  1
  O  O0  1  0.99211300  0.02654300  0.24770400  1
  O  O1  1  0.24477900  0.40145800  0.69547100  1
  O  O2  1  0.79584500  0.36264100  0.53572500  1
  O  O3  1  0.81543700  0.04117200  0.40508300  1
  O  O4  1  0.54485300  0.92852300  0.45678400  1
  O  O5  1  0.50802300  0.27513000  0.82209400  1
  O  O6  1  0.31543700  0.95882800  0.09491700  1
  O  O7  1  0.45514700  0.07147700  0.54321600  1
  O  O8  1  0.75522100  0.59854200  0.30452900  1
  O  O9  1  0.26267400  0.03049300  0.25317100  1
  O  O10  1  0.94433100  0.34991000  0.09869500  1
  O  O11  1  0.00461400  0.41876600  0.89878800  1
  O  O12  1  0.93399200  0.65888900  0.39780200  1
  O  O13  1  0.74171900  0.42134900  0.67854900  1
  O  O14  1  0.70415500  0.36264100  0.03572500  1
  O  O15  1  0.49480400  0.59146700  0.09416700  1
  O  O16  1  0.74474800  0.71876400  0.59167600  1
  O  O17  1  0.44433100  0.65009000  0.40130500  1
  O  O18  1  0.50519600  0.40853300  0.90583300  1
  O  O19  1  0.06689600  0.94236800  0.44314300  1
  O  O20  1  0.74753000  0.28572600  0.39724100  1
  O  O21  1  0.76267400  0.96950700  0.24682900  1
  O  O22  1  0.29584500  0.63735900  0.96427500  1
  O  O23  1  0.25525200  0.28123600  0.40832400  1
  O  O24  1  0.68456300  0.04117200  0.90508300  1
  O  O25  1  0.80924800  0.95390200  0.09549100  1
  O  O26  1  0.01262400  0.29512400  0.80815700  1
  O  O27  1  0.31371900  0.32749600  0.55919900  1
  O  O28  1  0.25522100  0.40145800  0.19547100  1
  O  O29  1  0.48737600  0.29512400  0.30815700  1
  O  O30  1  0.75247000  0.28572600  0.89724100  1
  O  O31  1  0.20415500  0.63735900  0.46427500  1
  O  O32  1  0.99197700  0.27513000  0.32209400  1
  O  O33  1  0.18456300  0.95882800  0.59491700  1
  O  O34  1  0.49538600  0.41876600  0.39878800  1
  O  O35  1  0.04485300  0.07147700  0.04321600  1
  O  O36  1  0.99538600  0.58123400  0.10121200  1
  O  O37  1  0.50788700  0.02654300  0.74770400  1
  O  O38  1  0.30924800  0.04609800  0.40450900  1
  O  O39  1  0.55566900  0.34991000  0.59869500  1
  O  O40  1  0.99480400  0.40853300  0.40583300  1
  O  O41  1  0.98737600  0.70487600  0.19184300  1
  O  O42  1  0.75828100  0.42134900  0.17854900  1
  O  O43  1  0.24753000  0.71427400  0.10275900  1
  O  O44  1  0.69075200  0.95390200  0.59549100  1
  O  O45  1  0.18628100  0.32749600  0.05919900  1
  O  O46  1  0.24171900  0.57865100  0.82145100  1
  O  O47  1  0.73732600  0.96950700  0.74682900  1
  O  O48  1  0.75525200  0.71876400  0.09167600  1
  O  O49  1  0.68628100  0.67250400  0.44080100  1
  O  O50  1  0.25828100  0.57865100  0.32145100  1
  O  O51  1  0.43399200  0.34111100  0.10219800  1
  O  O52  1  0.00519600  0.59146700  0.59416700  1
  O  O53  1  0.43310400  0.94236800  0.94314300  1
  O  O54  1  0.56600800  0.65888900  0.89780200  1
  O  O55  1  0.23732600  0.03049300  0.75317100  1
  O  O56  1  0.06600800  0.34111100  0.60219800  1
  O  O57  1  0.95514700  0.92852300  0.95678400  1
  O  O58  1  0.05566900  0.65009000  0.90130500  1
  O  O59  1  0.50461400  0.58123400  0.60121200  1
  O  O60  1  0.00788700  0.97345700  0.75229600  1
  O  O61  1  0.51262400  0.70487600  0.69184300  1
  O  O62  1  0.25247000  0.71427400  0.60275900  1
  O  O63  1  0.24474800  0.28123600  0.90832400  1
  O  O64  1  0.49211300  0.97345700  0.25229600  1
  O  O65  1  0.56689600  0.05763200  0.05685700  1
  O  O66  1  0.93310400  0.05763200  0.55685700  1
  O  O67  1  0.49197700  0.72487000  0.17790600  1
  O  O68  1  0.19075200  0.04609800  0.90450900  1
  O  O69  1  0.81371900  0.67250400  0.94080100  1
  O  O70  1  0.74477900  0.59854200  0.80452900  1
  O  O71  1  0.00802300  0.72487000  0.67790600  1
loop_
_geom_bond_atom_site_label_1
_geom_bond_atom_site_label_2
_geom_bond_distance
_geom_bond_site_symmetry_2
Bi0 O21 2.219561 1_555
Bi0 O0 2.238096 1_565
Bi0 O12 2.324129 1_555
Bi0 O3 2.542171 1_565
Bi0 O49 2.661727 1_555
Bi0 O19 2.769901 1_655
Bi0 O52 2.888529 1_655
Bi0 O16 2.905775 1_555
Bi1 O21 2.188096 1_555
Bi1 O64 2.199385 1_555
Bi1 O65 2.426433 1_565
Bi1 O49 2.472294 1_555
Bi1 O8 2.741960 1_555
Bi1 O17 2.742856 1_555
Bi1 O67 2.770805 1_555
Bi1 O25 2.799891 1_555
Bi2 O55 2.188096 1_555
Bi2 O37 2.199385 1_555
Bi2 O53 2.426433 1_545
Bi2 O27 2.472294 1_555
Bi2 O1 2.741960 1_555
Bi2 O39 2.742856 1_555
Bi2 O5 2.770805 1_555
Bi2 O68 2.799891 1_555
Bi3 O61 2.379879 1_555
Bi3 O46 2.385829 1_555
Bi3 O18 2.397710 1_555
Bi3 O62 2.423391 1_555
Bi3 O63 2.485712 1_555
Bi3 O1 2.528118 1_555
Bi3 O59 2.530623 1_555
Bi3 O5 2.550206 1_555
Bi4 O0 2.213390 1_555
Bi4 O21 2.223628 1_545
Bi4 O25 2.447699 1_545
Bi4 O35 2.475673 1_655
Bi4 O10 2.580185 1_555
Bi4 O14 2.803428 1_555
Bi5 O29 2.379879 1_555
Bi5 O42 2.385829 1_555
Bi5 O15 2.397710 1_555
Bi5 O20 2.423391 1_555
Bi5 O48 2.485712 1_555
Bi5 O8 2.528118 1_555
Bi5 O34 2.530623 1_555
Bi5 O67 2.550206 1_555
Bi6 O47 2.188096 1_555
Bi6 O60 2.199385 1_655
Bi6 O66 2.426433 1_565
Bi6 O69 2.472294 1_555
Bi6 O70 2.741960 1_555
Bi6 O58 2.742856 1_655
Bi6 O71 2.770805 1_655
Bi6 O44 2.799891 1_555
Bi7 O41 2.379879 1_455
Bi7 O50 2.385829 1_555
Bi7 O40 2.397710 1_455
Bi7 O43 2.423391 1_555
Bi7 O23 2.485712 1_555
Bi7 O28 2.528118 1_555
Bi7 O36 2.530623 1_455
Bi7 O32 2.550206 1_455
Bi8 O47 2.219561 1_555
Bi8 O37 2.238096 1_565
Bi8 O54 2.324129 1_555
Bi8 O24 2.542171 1_565
Bi8 O69 2.661727 1_555
Bi8 O53 2.769901 1_555
Bi8 O15 2.888529 1_556
Bi8 O48 2.905775 1_556
Bi9 O60 2.213390 1_555
Bi9 O55 2.223628 1_565
Bi9 O68 2.447699 1_565
Bi9 O57 2.475673 1_455
Bi9 O58 2.580185 1_555
Bi9 O22 2.803428 1_555
Bi10 O64 2.213390 1_555
Bi10 O9 2.223628 1_565
Bi10 O38 2.447699 1_565
Bi10 O4 2.475673 1_555
Bi10 O17 2.580185 1_555
Bi10 O31 2.803428 1_555
Bi11 O9 2.188096 1_555
Bi11 O0 2.199385 1_455
Bi11 O19 2.426433 1_545
Bi11 O45 2.472294 1_555
Bi11 O28 2.741960 1_555
Bi11 O10 2.742856 1_455
Bi11 O32 2.770805 1_455
Bi11 O38 2.799891 1_555
Bi12 O55 2.219561 1_555
Bi12 O60 2.238096 1_545
Bi12 O56 2.324129 1_555
Bi12 O33 2.542171 1_545
Bi12 O27 2.661727 1_555
Bi12 O66 2.769901 1_455
Bi12 O40 2.888529 1_455
Bi12 O23 2.905775 1_555
Bi13 O37 2.213390 1_555
Bi13 O47 2.223628 1_545
Bi13 O44 2.447699 1_545
Bi13 O7 2.475673 1_555
Bi13 O39 2.580185 1_555
Bi13 O2 2.803428 1_555
Bi14 O9 2.219561 1_555
Bi14 O64 2.238096 1_545
Bi14 O51 2.324129 1_555
Bi14 O6 2.542171 1_545
Bi14 O45 2.661727 1_555
Bi14 O65 2.769901 1_555
Bi14 O18 2.888529 1_554
Bi14 O63 2.905775 1_554
Bi15 O26 2.379879 1_655
Bi15 O13 2.385829 1_555
Bi15 O52 2.397710 1_655
Bi15 O30 2.423391 1_555
Bi15 O16 2.485712 1_555
Bi15 O70 2.528118 1_555
Bi15 O11 2.530623 1_655
Bi15 O71 2.550206 1_655
Mo0 O33 1.775517 1_555
Mo0 O71 1.805573 1_555
Mo0 O62 1.815281 1_555
Mo0 O19 1.834221 1_555
Mo1 O4 1.788018 1_555
Mo1 O61 1.796909 1_555
Mo1 O16 1.811628 1_555
Mo1 O44 1.830596 1_555
Mo2 O50 1.786887 1_555
Mo2 O34 1.797506 1_555
Mo2 O17 1.811123 1_555
Mo2 O27 1.837329 1_555
Mo3 O13 1.786887 1_555
Mo3 O59 1.797506 1_555
Mo3 O39 1.811123 1_555
Mo3 O49 1.837329 1_555
Mo4 O7 1.788018 1_555
Mo4 O29 1.796909 1_555
Mo4 O23 1.811628 1_555
Mo4 O38 1.830596 1_555
Mo5 O14 1.764574 1_556
Mo5 O54 1.809764 1_555
Mo5 O70 1.823230 1_555
Mo5 O18 1.833878 1_555
Mo6 O24 1.775517 1_555
Mo6 O5 1.805573 1_555
Mo6 O30 1.815281 1_555
Mo6 O65 1.834221 1_556
Mo7 O31 1.764574 1_555
Mo7 O56 1.809764 1_555
Mo7 O1 1.823230 1_555
Mo7 O52 1.833878 1_555
Mo8 O2 1.764574 1_555
Mo8 O12 1.809764 1_555
Mo8 O8 1.823230 1_555
Mo8 O40 1.833878 1_555
Mo9 O42 1.786887 1_555
Mo9 O36 1.797506 1_555
Mo9 O10 1.811123 1_555
Mo9 O69 1.837329 1_554
Mo10 O57 1.788018 1_554
Mo10 O41 1.796909 1_555
Mo10 O48 1.811628 1_555
Mo10 O25 1.830596 1_555
Mo11 O46 1.786887 1_555
Mo11 O11 1.797506 1_555
Mo11 O58 1.811123 1_555
Mo11 O45 1.837329 1_556
Mo12 O6 1.775517 1_555
Mo12 O67 1.805573 1_555
Mo12 O43 1.815281 1_555
Mo12 O53 1.834221 1_554
Mo13 O22 1.764574 1_554
Mo13 O51 1.809764 1_555
Mo13 O28 1.823230 1_555
Mo13 O15 1.833878 1_555
Mo14 O3 1.775517 1_555
Mo14 O32 1.805573 1_555
Mo14 O20 1.815281 1_555
Mo14 O66 1.834221 1_555
Mo15 O35 1.788018 1_556
Mo15 O26 1.796909 1_555
Mo15 O63 1.811628 1_555
Mo15 O68 1.830596 1_555
