# generated using pymatgen
data_BaCaCrF7
_symmetry_space_group_name_H-M   'P 1'
_cell_length_a   5.54823900
_cell_length_b   5.50645600
_cell_length_c   19.98105687
_cell_angle_alpha   75.98735738
_cell_angle_beta   90.00000000
_cell_angle_gamma   90.00000000
_symmetry_Int_Tables_number   1
_chemical_formula_structural   BaCaCrF7
_chemical_formula_sum   'Ba4 Ca4 Cr4 F28'
_cell_volume   592.27854977
_cell_formula_units_Z   4
loop_
 _symmetry_equiv_pos_site_id
 _symmetry_equiv_pos_as_xyz
  1  'x, y, z'
loop_
 _atom_site_type_symbol
 _atom_site_label
 _atom_site_symmetry_multiplicity
 _atom_site_fract_x
 _atom_site_fract_y
 _atom_site_fract_z
 _atom_site_occupancy
  Ba  Ba0  1  0.24682100  0.31475200  0.43145900  1
  Ba  Ba1  1  0.75317900  0.68524800  0.56854100  1
  Ba  Ba2  1  0.75317900  0.31475200  0.93145900  1
  Ba  Ba3  1  0.24682100  0.68524800  0.06854100  1
  Ca  Ca0  1  0.32785400  0.50000000  0.75000000  1
  Ca  Ca1  1  0.67214600  0.50000000  0.25000000  1
  Ca  Ca2  1  0.79221600  0.00000000  0.75000000  1
  Ca  Ca3  1  0.20778400  0.00000000  0.25000000  1
  Cr  Cr0  1  0.22385800  0.18212500  0.61962200  1
  Cr  Cr1  1  0.77614200  0.18212500  0.11962200  1
  Cr  Cr2  1  0.22385800  0.81787500  0.88037800  1
  Cr  Cr3  1  0.77614200  0.81787500  0.38037800  1
  F  F0  1  0.05395600  0.84751400  0.43668400  1
  F  F1  1  0.05395600  0.15248600  0.06331600  1
  F  F2  1  0.94604400  0.15248600  0.56331600  1
  F  F3  1  0.94604400  0.84751400  0.93668400  1
  F  F4  1  0.02370100  0.35158000  0.67653400  1
  F  F5  1  0.02370100  0.64842000  0.82346600  1
  F  F6  1  0.97629900  0.64842000  0.32346600  1
  F  F7  1  0.97629900  0.35158000  0.17653400  1
  F  F8  1  0.28601400  0.50185200  0.55543600  1
  F  F9  1  0.28601400  0.49814800  0.94456400  1
  F  F10  1  0.71398600  0.49814800  0.44456400  1
  F  F11  1  0.71398600  0.50185200  0.05543600  1
  F  F12  1  0.59106000  0.02864800  0.06075000  1
  F  F13  1  0.59106000  0.97135200  0.43925000  1
  F  F14  1  0.40894000  0.97135200  0.93925000  1
  F  F15  1  0.40894000  0.02864800  0.56075000  1
  F  F16  1  0.86936100  0.87264700  0.18576500  1
  F  F17  1  0.86936100  0.12735300  0.31423500  1
  F  F18  1  0.13063900  0.12735300  0.81423500  1
  F  F19  1  0.13063900  0.87264700  0.68576500  1
  F  F20  1  0.49586600  0.74861100  0.82494200  1
  F  F21  1  0.49586600  0.25138900  0.67505800  1
  F  F22  1  0.50413400  0.25138900  0.17505800  1
  F  F23  1  0.50413400  0.74861100  0.32494200  1
  F  F24  1  0.37045800  0.73624700  0.19142600  1
  F  F25  1  0.37045800  0.26375300  0.30857400  1
  F  F26  1  0.62954200  0.26375300  0.80857400  1
  F  F27  1  0.62954200  0.73624700  0.69142600  1
loop_
_geom_bond_atom_site_label_1
_geom_bond_atom_site_label_2
_geom_bond_distance
_geom_bond_site_symmetry_2
Ba0 F25 2.629103 1_555
Ba0 F13 2.665529 1_545
Ba0 F0 2.765011 1_545
Ba0 F10 2.816845 1_555
Ba0 F15 2.827343 1_555
Ba0 F6 2.892188 1_455
Ba0 F8 2.912238 1_555
Ba0 F2 3.063417 1_455
Ba0 F23 3.132571 1_555
Ba0 F0 3.148085 1_555
Ba0 F10 3.155334 1_455
Ba1 F27 2.629103 1_555
Ba1 F15 2.665529 1_565
Ba1 F2 2.765011 1_565
Ba1 F8 2.816845 1_555
Ba1 F13 2.827343 1_555
Ba1 F4 2.892188 1_655
Ba1 F10 2.912238 1_555
Ba1 F0 3.063417 1_655
Ba1 F21 3.132571 1_555
Ba1 F2 3.148085 1_555
Ba1 F8 3.155334 1_655
Ba2 F26 2.629103 1_555
Ba2 F14 2.665529 1_545
Ba2 F3 2.765011 1_545
Ba2 F9 2.816845 1_555
Ba2 F12 2.827343 1_556
Ba2 F5 2.892188 1_655
Ba2 F11 2.912238 1_556
Ba2 F1 3.063417 1_656
Ba2 F20 3.132571 1_555
Ba2 F3 3.148085 1_555
Ba2 F9 3.155334 1_655
Ba3 F24 2.629103 1_555
Ba3 F12 2.665529 1_565
Ba3 F1 2.765011 1_565
Ba3 F11 2.816845 1_555
Ba3 F14 2.827343 1_554
Ba3 F7 2.892188 1_455
Ba3 F9 2.912238 1_554
Ba3 F3 3.063417 1_454
Ba3 F22 3.132571 1_555
Ba3 F1 3.148085 1_555
Ba3 F11 3.155334 1_455
Ca0 F26 2.264174 1_555
Ca0 F27 2.264174 1_555
Ca0 F18 2.404110 1_555
Ca0 F19 2.404110 1_555
Ca0 F21 2.444994 1_555
Ca0 F20 2.444994 1_555
Ca0 F4 2.500284 1_555
Ca0 F5 2.500284 1_555
Ca1 F25 2.264174 1_555
Ca1 F24 2.264174 1_555
Ca1 F16 2.404110 1_555
Ca1 F17 2.404110 1_555
Ca1 F22 2.444994 1_555
Ca1 F23 2.444994 1_555
Ca1 F6 2.500284 1_555
Ca1 F7 2.500284 1_555
Ca2 F26 2.262041 1_555
Ca2 F27 2.262041 1_545
Ca2 F20 2.420352 1_545
Ca2 F21 2.420352 1_555
Ca2 F19 2.469929 1_645
Ca2 F18 2.469929 1_655
Ca2 F5 2.485164 1_645
Ca2 F4 2.485164 1_655
Ca3 F24 2.262041 1_545
Ca3 F25 2.262041 1_555
Ca3 F22 2.420352 1_555
Ca3 F23 2.420352 1_545
Ca3 F17 2.469929 1_455
Ca3 F16 2.469929 1_445
Ca3 F6 2.485164 1_445
Ca3 F7 2.485164 1_455
Cr0 F15 1.906271 1_555
Cr0 F2 1.938337 1_455
Cr0 F8 1.941616 1_555
Cr0 F19 1.956405 1_545
Cr0 F21 1.963305 1_555
Cr0 F4 1.977602 1_555
Cr1 F12 1.906271 1_555
Cr1 F1 1.938337 1_655
Cr1 F11 1.941616 1_555
Cr1 F16 1.956405 1_545
Cr1 F22 1.963305 1_555
Cr1 F7 1.977602 1_555
Cr2 F14 1.906271 1_555
Cr2 F3 1.938337 1_455
Cr2 F9 1.941616 1_555
Cr2 F18 1.956405 1_565
Cr2 F20 1.963305 1_555
Cr2 F5 1.977602 1_555
Cr3 F13 1.906271 1_555
Cr3 F0 1.938337 1_655
Cr3 F10 1.941616 1_555
Cr3 F17 1.956405 1_565
Cr3 F23 1.963305 1_555
Cr3 F6 1.977602 1_555
