# generated using pymatgen
data_Ce3CuSiS7
_symmetry_space_group_name_H-M   'P 1'
_cell_length_a   10.20840023
_cell_length_b   10.20840023
_cell_length_c   5.78174800
_cell_angle_alpha   90.00000000
_cell_angle_beta   90.00000000
_cell_angle_gamma   120.00000150
_symmetry_Int_Tables_number   1
_chemical_formula_structural   Ce3CuSiS7
_chemical_formula_sum   'Ce6 Cu2 Si2 S14'
_cell_volume   521.80130558
_cell_formula_units_Z   2
loop_
 _symmetry_equiv_pos_site_id
 _symmetry_equiv_pos_as_xyz
  1  'x, y, z'
loop_
 _atom_site_type_symbol
 _atom_site_label
 _atom_site_symmetry_multiplicity
 _atom_site_fract_x
 _atom_site_fract_y
 _atom_site_fract_z
 _atom_site_occupancy
  Ce  Ce0  1  0.23230000  0.35607300  0.75048000  1
  Ce  Ce1  1  0.35607300  0.12377400  0.25048000  1
  Ce  Ce2  1  0.87622600  0.23230000  0.25048000  1
  Ce  Ce3  1  0.12377400  0.76770000  0.75048000  1
  Ce  Ce4  1  0.76770000  0.64392700  0.25048000  1
  Ce  Ce5  1  0.64392700  0.87622600  0.75048000  1
  Cu  Cu0  1  0.00000000  0.00000000  0.77388600  1
  Cu  Cu1  1  0.00000000  0.00000000  0.27388600  1
  Si  Si0  1  0.33333300  0.66666700  0.16441600  1
  Si  Si1  1  0.66666700  0.33333300  0.66441600  1
  S  S0  1  0.25030500  0.08603700  0.76247800  1
  S  S1  1  0.52434100  0.41206500  0.52236300  1
  S  S2  1  0.41206500  0.88772400  0.02236300  1
  S  S3  1  0.11227600  0.52434100  0.02236300  1
  S  S4  1  0.88772400  0.47565900  0.52236300  1
  S  S5  1  0.08603700  0.83573100  0.26247800  1
  S  S6  1  0.16426900  0.25030500  0.26247800  1
  S  S7  1  0.74969500  0.91396300  0.26247800  1
  S  S8  1  0.58793500  0.11227600  0.52236300  1
  S  S9  1  0.83573100  0.74969500  0.76247800  1
  S  S10  1  0.47565900  0.58793500  0.02236300  1
  S  S11  1  0.66666700  0.33333300  0.02980100  1
  S  S12  1  0.33333300  0.66666700  0.52980100  1
  S  S13  1  0.91396300  0.16426900  0.76247800  1
loop_
_geom_bond_atom_site_label_1
_geom_bond_atom_site_label_2
_geom_bond_distance
_geom_bond_site_symmetry_2
Ce0 S13 2.834832 1_455
Ce0 S0 2.853824 1_555
Ce0 S10 2.892237 1_556
Ce0 S6 2.976432 1_555
Ce0 S3 3.004601 1_556
Ce0 S1 3.041409 1_555
Ce0 S12 3.078093 1_555
Ce0 S6 3.108263 1_556
Ce1 S6 2.834816 1_555
Ce1 S5 2.853835 1_545
Ce1 S8 2.892241 1_555
Ce1 S0 2.976432 1_554
Ce1 S1 3.004594 1_555
Ce1 S2 3.041418 1_545
Ce1 S11 3.078089 1_555
Ce1 S0 3.108263 1_555
Ce2 S7 2.834835 1_545
Ce2 S6 2.853844 1_655
Ce2 S4 2.892233 1_555
Ce2 S13 2.976432 1_554
Ce2 S8 3.004594 1_555
Ce2 S3 3.041412 1_655
Ce2 S11 3.078076 1_555
Ce2 S13 3.108263 1_555
Ce3 S0 2.834835 1_565
Ce3 S9 2.853844 1_455
Ce3 S3 2.892233 1_556
Ce3 S5 2.976432 1_555
Ce3 S2 3.004594 1_556
Ce3 S4 3.041412 1_455
Ce3 S12 3.078076 1_555
Ce3 S5 3.108263 1_556
Ce4 S5 2.834832 1_655
Ce4 S7 2.853824 1_555
Ce4 S1 2.892237 1_555
Ce4 S9 2.976432 1_554
Ce4 S4 3.004601 1_555
Ce4 S10 3.041409 1_555
Ce4 S11 3.078093 1_555
Ce4 S9 3.108263 1_555
Ce5 S9 2.834816 1_555
Ce5 S13 2.853835 1_565
Ce5 S2 2.892241 1_556
Ce5 S7 2.976432 1_555
Ce5 S10 3.004594 1_556
Ce5 S8 3.041418 1_565
Ce5 S12 3.078089 1_555
Ce5 S7 3.108263 1_556
Cu0 S0 2.249585 1_555
Cu0 S9 2.249587 1_445
Cu0 S13 2.249595 1_455
Cu1 S7 2.249585 1_445
Cu1 S6 2.249587 1_555
Cu1 S5 2.249595 1_545
S1 Si1 2.144590 1_555
S2 Si0 2.144581 1_555
S3 Si0 2.144583 1_555
S4 Si1 2.144583 1_555
S8 Si1 2.144581 1_555
S10 Si0 2.144590 1_555
S11 Si1 2.112564 1_554
S12 Si0 2.112564 1_555
