# generated using pymatgen
data_Rb3CoNCl4O3
_symmetry_space_group_name_H-M   'P 1'
_cell_length_a   9.61565900
_cell_length_b   10.27788400
_cell_length_c   12.79562800
_cell_angle_alpha   90.00000000
_cell_angle_beta   90.00000000
_cell_angle_gamma   90.00000000
_symmetry_Int_Tables_number   1
_chemical_formula_structural   Rb3CoNCl4O3
_chemical_formula_sum   'Rb12 Co4 N4 Cl16 O12'
_cell_volume   1264.57435689
_cell_formula_units_Z   4
loop_
 _symmetry_equiv_pos_site_id
 _symmetry_equiv_pos_as_xyz
  1  'x, y, z'
loop_
 _atom_site_type_symbol
 _atom_site_label
 _atom_site_symmetry_multiplicity
 _atom_site_fract_x
 _atom_site_fract_y
 _atom_site_fract_z
 _atom_site_occupancy
  Rb  Rb0  1  0.88186100  0.50479600  0.68083100  1
  Rb  Rb1  1  0.38186100  0.99520400  0.81916900  1
  Rb  Rb2  1  0.91514100  0.25000000  0.96679200  1
  Rb  Rb3  1  0.88186100  0.99520400  0.68083100  1
  Rb  Rb4  1  0.61813900  0.49520400  0.18083100  1
  Rb  Rb5  1  0.11813900  0.49520400  0.31916900  1
  Rb  Rb6  1  0.08485900  0.75000000  0.03320800  1
  Rb  Rb7  1  0.61813900  0.00479600  0.18083100  1
  Rb  Rb8  1  0.58485900  0.75000000  0.46679200  1
  Rb  Rb9  1  0.41514100  0.25000000  0.53320800  1
  Rb  Rb10  1  0.11813900  0.00479600  0.31916900  1
  Rb  Rb11  1  0.38186100  0.50479600  0.81916900  1
  Co  Co0  1  0.67951100  0.75000000  0.90846300  1
  Co  Co1  1  0.17951100  0.75000000  0.59153700  1
  Co  Co2  1  0.82048900  0.25000000  0.40846300  1
  Co  Co3  1  0.32048900  0.25000000  0.09153700  1
  N  N0  1  0.65943600  0.25000000  0.72550200  1
  N  N1  1  0.84056400  0.75000000  0.22550200  1
  N  N2  1  0.15943600  0.25000000  0.77449800  1
  N  N3  1  0.34056400  0.75000000  0.27449800  1
  Cl  Cl0  1  0.19836000  0.43421300  0.05427600  1
  Cl  Cl1  1  0.87344200  0.25000000  0.23307400  1
  Cl  Cl2  1  0.80164000  0.56578700  0.94572400  1
  Cl  Cl3  1  0.30164000  0.93421300  0.55427600  1
  Cl  Cl4  1  0.30164000  0.56578700  0.55427600  1
  Cl  Cl5  1  0.69836000  0.43421300  0.44572400  1
  Cl  Cl6  1  0.19836000  0.06578700  0.05427600  1
  Cl  Cl7  1  0.52507800  0.25000000  0.99945200  1
  Cl  Cl8  1  0.80164000  0.93421300  0.94572400  1
  Cl  Cl9  1  0.69836000  0.06578700  0.44572400  1
  Cl  Cl10  1  0.47492200  0.75000000  0.00054800  1
  Cl  Cl11  1  0.37344200  0.25000000  0.26692600  1
  Cl  Cl12  1  0.02507800  0.25000000  0.50054800  1
  Cl  Cl13  1  0.97492200  0.75000000  0.49945200  1
  Cl  Cl14  1  0.62655800  0.75000000  0.73307400  1
  Cl  Cl15  1  0.12655800  0.75000000  0.76692600  1
  O  O0  1  0.59900500  0.14285400  0.70675300  1
  O  O1  1  0.59900500  0.35714600  0.70675300  1
  O  O2  1  0.90099500  0.64285400  0.20675300  1
  O  O3  1  0.28329600  0.25000000  0.73960300  1
  O  O4  1  0.71670400  0.75000000  0.26039700  1
  O  O5  1  0.09900500  0.14285400  0.79324700  1
  O  O6  1  0.21670400  0.75000000  0.23960300  1
  O  O7  1  0.78329600  0.25000000  0.76039700  1
  O  O8  1  0.40099500  0.64285400  0.29324700  1
  O  O9  1  0.90099500  0.85714600  0.20675300  1
  O  O10  1  0.40099500  0.85714600  0.29324700  1
  O  O11  1  0.09900500  0.35714600  0.79324700  1
loop_
_geom_bond_atom_site_label_1
_geom_bond_atom_site_label_2
_geom_bond_distance
_geom_bond_site_symmetry_2
N0 O1 1.268042 1_555
N0 O0 1.268042 1_555
N0 O7 1.271942 1_555
N1 O9 1.268042 1_555
N1 O2 1.268042 1_555
N1 O4 1.271942 1_555
N2 O11 1.268042 1_555
N2 O5 1.268042 1_555
N2 O3 1.271942 1_555
N3 O10 1.268042 1_555
N3 O8 1.268042 1_555
N3 O6 1.271942 1_555
Cl0 Co3 2.278394 1_555
Cl0 Rb6 3.434801 1_555
Cl0 Rb2 3.500616 1_454
Cl0 Rb5 3.532209 1_555
Cl0 Rb11 3.562273 1_554
Cl1 Co2 2.301250 1_555
Cl1 Rb2 3.430757 1_554
Cl1 Rb7 3.581164 1_555
Cl1 Rb4 3.581164 1_555
Cl1 Rb10 3.619552 1_655
Cl1 Rb5 3.619552 1_655
Cl2 Co0 2.278394 1_555
Cl2 Rb2 3.434801 1_555
Cl2 Rb6 3.500616 1_656
Cl2 Rb0 3.532209 1_555
Cl2 Rb4 3.562273 1_556
Cl3 Co1 2.278394 1_555
Cl3 Rb9 3.434801 1_565
Cl3 Rb8 3.500616 1_555
Cl3 Rb1 3.532209 1_555
Cl3 Rb10 3.562273 1_565
Cl4 Co1 2.278394 1_555
Cl4 Rb9 3.434801 1_555
Cl4 Rb8 3.500616 1_555
Cl4 Rb11 3.532209 1_555
Cl4 Rb5 3.562273 1_555
Cl5 Co2 2.278394 1_555
Cl5 Rb8 3.434801 1_555
Cl5 Rb9 3.500616 1_555
Cl5 Rb4 3.532209 1_555
Cl5 Rb0 3.562273 1_555
Cl6 Co3 2.278394 1_555
Cl6 Rb6 3.434801 1_545
Cl6 Rb2 3.500616 1_454
Cl6 Rb10 3.532209 1_555
Cl6 Rb1 3.562273 1_544
Cl7 Co3 2.293133 1_556
Cl7 Rb4 3.540964 1_556
Cl7 Rb7 3.540964 1_556
Cl7 Rb11 3.751784 1_555
Cl7 Rb1 3.751784 1_545
Cl7 Rb2 3.773923 1_555
Cl8 Co0 2.278394 1_555
Cl8 Rb2 3.434801 1_565
Cl8 Rb6 3.500616 1_656
Cl8 Rb3 3.532209 1_555
Cl8 Rb7 3.562273 1_566
Cl9 Co2 2.278394 1_555
Cl9 Rb8 3.434801 1_545
Cl9 Rb9 3.500616 1_555
Cl9 Rb7 3.532209 1_555
Cl9 Rb3 3.562273 1_545
Cl10 Co0 2.293133 1_554
Cl10 Rb11 3.540964 1_554
Cl10 Rb1 3.540964 1_554
Cl10 Rb7 3.751784 1_565
Cl10 Rb4 3.751784 1_555
Cl10 Rb6 3.773923 1_555
Cl11 Co3 2.301250 1_555
Cl11 Rb9 3.430757 1_555
Cl11 Rb5 3.581164 1_555
Cl11 Rb10 3.581164 1_555
Cl11 Rb7 3.619552 1_555
Cl11 Rb4 3.619552 1_555
Cl12 Co2 2.293133 1_455
Cl12 Rb5 3.540964 1_555
Cl12 Rb10 3.540964 1_555
Cl12 Rb0 3.751784 1_455
Cl12 Rb3 3.751784 1_445
Cl12 Rb9 3.773923 1_555
Cl13 Co1 2.293133 1_655
Cl13 Rb3 3.540964 1_555
Cl13 Rb0 3.540964 1_555
Cl13 Rb5 3.751784 1_655
Cl13 Rb10 3.751784 1_665
Cl13 Rb8 3.773923 1_555
Cl14 Co0 2.301250 1_555
Cl14 Rb8 3.430757 1_555
Cl14 Rb3 3.581164 1_555
Cl14 Rb0 3.581164 1_555
Cl14 Rb11 3.619552 1_555
Cl14 Rb1 3.619552 1_555
Cl15 Co1 2.301250 1_555
Cl15 Rb6 3.430757 1_556
Cl15 Rb11 3.581164 1_555
Cl15 Rb1 3.581164 1_555
Cl15 Rb3 3.619552 1_455
Cl15 Rb0 3.619552 1_455
O0 Rb1 2.954938 1_545
O0 Rb9 3.044600 1_555
O0 Rb3 3.132169 1_545
O1 Rb11 2.954938 1_555
O1 Rb9 3.044600 1_555
O1 Rb0 3.132169 1_555
O2 Rb5 2.954938 1_655
O2 Rb6 3.044600 1_655
O2 Rb4 3.132169 1_555
O3 Rb9 2.929487 1_555
O3 Rb1 2.965250 1_545
O3 Rb11 2.965250 1_555
O4 Rb8 2.929487 1_555
O4 Rb4 2.965250 1_555
O4 Rb7 2.965250 1_565
O5 Rb3 2.954938 1_445
O5 Rb2 3.044600 1_455
O5 Rb1 3.132169 1_545
O6 Rb6 2.929487 1_555
O6 Rb10 2.965250 1_565
O6 Rb5 2.965250 1_555
O7 Rb2 2.929487 1_555
O7 Rb0 2.965250 1_555
O7 Rb3 2.965250 1_545
O8 Rb4 2.954938 1_555
O8 Rb8 3.044600 1_555
O8 Rb5 3.132169 1_555
O9 Rb10 2.954938 1_665
O9 Rb6 3.044600 1_655
O9 Rb7 3.132169 1_565
O10 Rb7 2.954938 1_565
O10 Rb8 3.044600 1_555
O10 Rb10 3.132169 1_565
O11 Rb0 2.954938 1_455
O11 Rb2 3.044600 1_455
O11 Rb11 3.132169 1_555
