# generated using pymatgen
data_Zn3(BO3)2
_symmetry_space_group_name_H-M   'P 1'
_cell_length_a   12.53384555
_cell_length_b   12.53384555
_cell_length_c   8.48526126
_cell_angle_alpha   76.81228792
_cell_angle_beta   76.81228792
_cell_angle_gamma   23.40367264
_symmetry_Int_Tables_number   1
_chemical_formula_structural   Zn3(BO3)2
_chemical_formula_sum   'Zn12 B8 O24'
_cell_volume   514.91005985
_cell_formula_units_Z   4
loop_
 _symmetry_equiv_pos_site_id
 _symmetry_equiv_pos_as_xyz
  1  'x, y, z'
loop_
 _atom_site_type_symbol
 _atom_site_label
 _atom_site_symmetry_multiplicity
 _atom_site_fract_x
 _atom_site_fract_y
 _atom_site_fract_z
 _atom_site_occupancy
  Zn  Zn0  1  0.55516000  0.18929500  0.62939800  1
  Zn  Zn1  1  0.44284500  0.80927600  0.86966300  1
  Zn  Zn2  1  0.09882100  0.48065100  0.46196700  1
  Zn  Zn3  1  0.12767500  0.77218400  0.42420800  1
  Zn  Zn4  1  0.48065100  0.09882100  0.96196700  1
  Zn  Zn5  1  0.90022000  0.51678500  0.03773700  1
  Zn  Zn6  1  0.80927600  0.44284500  0.36966300  1
  Zn  Zn7  1  0.77218400  0.12767500  0.92420800  1
  Zn  Zn8  1  0.51678500  0.90022000  0.53773700  1
  Zn  Zn9  1  0.18929500  0.55516000  0.12939800  1
  Zn  Zn10  1  0.21995700  0.87518000  0.57465300  1
  Zn  Zn11  1  0.87518000  0.21995700  0.07465300  1
  B  B0  1  0.39210800  0.73610200  0.21176300  1
  B  B1  1  0.62693100  0.99673500  0.26984600  1
  B  B2  1  0.00041100  0.37269800  0.72969900  1
  B  B3  1  0.61298100  0.25401500  0.28682600  1
  B  B4  1  0.25401500  0.61298100  0.78682600  1
  B  B5  1  0.99673500  0.62693100  0.76984600  1
  B  B6  1  0.37269800  0.00041100  0.22969900  1
  B  B7  1  0.73610200  0.39210800  0.71176300  1
  O  O0  1  0.49053600  0.67034200  0.70818400  1
  O  O1  1  0.89364300  0.26309300  0.56911300  1
  O  O2  1  0.83645900  0.48925100  0.86990500  1
  O  O3  1  0.33447100  0.50171000  0.28903100  1
  O  O4  1  0.09686100  0.46980400  0.90929300  1
  O  O5  1  0.82876500  0.24100200  0.85068900  1
  O  O6  1  0.24100200  0.82876500  0.35068900  1
  O  O7  1  0.09694800  0.26844300  0.22938600  1
  O  O8  1  0.16066700  0.51043900  0.62941800  1
  O  O9  1  0.52926300  0.90076300  0.09008500  1
  O  O10  1  0.51043900  0.16066700  0.12941800  1
  O  O11  1  0.67034200  0.49053600  0.20818400  1
  O  O12  1  0.26309300  0.89364300  0.06911300  1
  O  O13  1  0.50171000  0.33447100  0.78903100  1
  O  O14  1  0.90253900  0.72881600  0.27036600  1
  O  O15  1  0.48925100  0.83645900  0.36990500  1
  O  O16  1  0.09695500  0.73988000  0.92960400  1
  O  O17  1  0.76698500  0.15827600  0.14891500  1
  O  O18  1  0.72881600  0.90253900  0.77036600  1
  O  O19  1  0.26844300  0.09694800  0.72938600  1
  O  O20  1  0.15827600  0.76698500  0.64891500  1
  O  O21  1  0.46980400  0.09686100  0.40929300  1
  O  O22  1  0.90076300  0.52926300  0.59008500  1
  O  O23  1  0.73988000  0.09695500  0.42960400  1
loop_
_geom_bond_atom_site_label_1
_geom_bond_atom_site_label_2
_geom_bond_distance
_geom_bond_site_symmetry_2
B0 O6 1.376276 1_555
B0 O12 1.385956 1_555
B0 O11 1.388897 1_555
B1 O14 1.384995 1_555
B1 O21 1.389763 1_565
B1 O10 1.394181 1_565
B2 O19 1.385634 1_555
B2 O22 1.389248 1_455
B2 O2 1.392750 1_455
B3 O17 1.376190 1_555
B3 O23 1.384514 1_555
B3 O3 1.389042 1_555
B4 O20 1.376190 1_555
B4 O16 1.384514 1_555
B4 O13 1.389042 1_555
B5 O18 1.384995 1_555
B5 O4 1.389763 1_655
B5 O8 1.394181 1_655
B6 O7 1.385634 1_555
B6 O9 1.389248 1_545
B6 O15 1.392750 1_545
B7 O5 1.376276 1_555
B7 O1 1.385956 1_555
B7 O0 1.388897 1_555
O0 Zn10 1.954846 1_555
O0 Zn1 2.017813 1_555
O1 Zn6 1.939661 1_555
O1 Zn10 1.963098 1_645
O2 Zn5 2.008878 1_556
O2 Zn1 2.026749 1_555
O3 Zn3 1.953503 1_555
O3 Zn9 2.016841 1_555
O4 Zn4 1.984602 1_555
O4 Zn5 2.003121 1_456
O5 Zn11 2.003394 1_556
O5 Zn7 2.037753 1_555
O6 Zn10 2.003394 1_555
O6 Zn3 2.037753 1_555
O7 Zn5 1.961088 1_455
O7 Zn6 1.989513 1_455
O8 Zn2 2.008721 1_555
O8 Zn0 2.029758 1_555
O9 Zn5 1.984675 1_555
O9 Zn4 2.002544 1_564
O10 Zn4 2.008721 1_554
O10 Zn9 2.029758 1_555
O11 Zn11 1.954846 1_555
O11 Zn6 2.017813 1_555
O12 Zn1 1.939661 1_554
O12 Zn11 1.963098 1_465
O13 Zn7 1.953503 1_555
O13 Zn0 2.016841 1_555
O14 Zn2 1.960299 1_655
O14 Zn9 1.988420 1_655
O15 Zn8 2.008878 1_555
O15 Zn6 2.026749 1_555
O16 Zn9 1.939067 1_556
O16 Zn7 1.965995 1_465
O17 Zn7 2.004488 1_554
O17 Zn11 2.036140 1_555
O18 Zn4 1.960299 1_565
O18 Zn0 1.988420 1_565
O19 Zn8 1.961088 1_545
O19 Zn1 1.989513 1_545
O20 Zn3 2.004488 1_555
O20 Zn10 2.036140 1_555
O21 Zn2 1.984602 1_555
O21 Zn8 2.003121 1_545
O22 Zn8 1.984675 1_555
O22 Zn2 2.002544 1_655
O23 Zn0 1.939067 1_555
O23 Zn3 1.965995 1_645
