# generated using pymatgen
data_LuNi4Sn
_symmetry_space_group_name_H-M   'P 1'
_cell_length_a   4.94334108
_cell_length_b   4.94334108
_cell_length_c   4.94334108
_cell_angle_alpha   60.00000000
_cell_angle_beta   60.00000000
_cell_angle_gamma   60.00000000
_symmetry_Int_Tables_number   1
_chemical_formula_structural   LuNi4Sn
_chemical_formula_sum   'Lu1 Ni4 Sn1'
_cell_volume   85.41747575
_cell_formula_units_Z   1
loop_
 _symmetry_equiv_pos_site_id
 _symmetry_equiv_pos_as_xyz
  1  'x, y, z'
loop_
 _atom_site_type_symbol
 _atom_site_label
 _atom_site_symmetry_multiplicity
 _atom_site_fract_x
 _atom_site_fract_y
 _atom_site_fract_z
 _atom_site_occupancy
  Lu  Lu0  1  0.00000000  0.00000000  0.00000000  1
  Ni  Ni0  1  0.37520700  0.37520700  0.87437900  1
  Ni  Ni1  1  0.37520700  0.37520700  0.37520700  1
  Ni  Ni2  1  0.87437900  0.37520700  0.37520700  1
  Ni  Ni3  1  0.37520700  0.87437900  0.37520700  1
  Sn  Sn0  1  0.75000000  0.75000000  0.75000000  1
loop_
_geom_bond_atom_site_label_1
_geom_bond_atom_site_label_2
_geom_bond_distance
_geom_bond_site_symmetry_2
Lu0 Ni2 2.898728 1_454
Lu0 Ni1 2.898728 1_554
Lu0 Ni2 2.898728 1_445
Lu0 Ni3 2.898728 1_544
Lu0 Ni1 2.898728 1_545
Lu0 Ni0 2.898728 1_454
Lu0 Ni1 2.898728 1_455
Lu0 Ni3 2.898728 1_545
Lu0 Ni3 2.898728 1_445
Lu0 Ni0 2.898728 1_544
Lu0 Ni2 2.898728 1_455
Lu0 Ni0 2.898728 1_554
Lu0 Sn0 3.027166 1_454
Lu0 Sn0 3.027166 1_445
Lu0 Sn0 3.027166 1_544
Lu0 Sn0 3.027166 1_444
Ni0 Ni2 2.467577 1_555
Ni0 Ni3 2.467577 1_555
Ni0 Ni1 2.467577 1_555
Ni0 Ni2 2.475764 1_456
Ni0 Ni3 2.475764 1_546
Ni0 Ni1 2.475764 1_556
Ni0 Sn0 2.897855 1_555
Ni0 Sn0 2.897855 1_545
Ni0 Sn0 2.897855 1_455
Ni1 Ni2 2.467577 1_555
Ni1 Ni3 2.467577 1_555
Ni1 Ni3 2.475764 1_545
Ni1 Ni2 2.475764 1_455
Ni1 Sn0 2.897855 1_554
Ni1 Sn0 2.897855 1_455
Ni1 Sn0 2.897855 1_545
Ni2 Ni3 2.467577 1_555
Ni2 Ni3 2.475764 1_645
Ni2 Sn0 2.897855 1_555
Ni2 Sn0 2.897855 1_545
Ni2 Sn0 2.897855 1_554
Ni3 Sn0 2.897855 1_555
Ni3 Sn0 2.897855 1_554
Ni3 Sn0 2.897855 1_455
