# generated using pymatgen
data_PS2N3Cl2(OF)2
_symmetry_space_group_name_H-M   'P 1'
_cell_length_a   7.99659500
_cell_length_b   8.05327100
_cell_length_c   14.66883629
_cell_angle_alpha   84.34329569
_cell_angle_beta   90.00000000
_cell_angle_gamma   90.00000000
_symmetry_Int_Tables_number   1
_chemical_formula_structural   PS2N3Cl2(OF)2
_chemical_formula_sum   'P4 S8 N12 Cl8 O8 F8'
_cell_volume   940.05452139
_cell_formula_units_Z   4
loop_
 _symmetry_equiv_pos_site_id
 _symmetry_equiv_pos_as_xyz
  1  'x, y, z'
loop_
 _atom_site_type_symbol
 _atom_site_label
 _atom_site_symmetry_multiplicity
 _atom_site_fract_x
 _atom_site_fract_y
 _atom_site_fract_z
 _atom_site_occupancy
  P  P0  1  0.34867000  0.85965500  0.62202000  1
  P  P1  1  0.65133000  0.14034500  0.37798000  1
  P  P2  1  0.15133000  0.85965500  0.12202000  1
  P  P3  1  0.84867000  0.14034500  0.87798000  1
  S  S0  1  0.57795300  0.35180600  0.85432700  1
  S  S1  1  0.84954200  0.20019000  0.52638500  1
  S  S2  1  0.65045800  0.20019000  0.02638500  1
  S  S3  1  0.34954200  0.79981000  0.97361500  1
  S  S4  1  0.92204700  0.35180600  0.35432700  1
  S  S5  1  0.15045800  0.79981000  0.47361500  1
  S  S6  1  0.07795300  0.64819400  0.64567300  1
  S  S7  1  0.42204700  0.64819400  0.14567300  1
  N  N0  1  0.70256600  0.10909300  0.48450600  1
  N  N1  1  0.21583400  0.75277500  0.68633500  1
  N  N2  1  0.78416600  0.24722500  0.31366500  1
  N  N3  1  0.52451200  0.29361000  0.95610500  1
  N  N4  1  0.20256600  0.89090700  0.01549400  1
  N  N5  1  0.47548800  0.70639000  0.04389500  1
  N  N6  1  0.71583400  0.24722500  0.81366500  1
  N  N7  1  0.79743400  0.10909300  0.98450600  1
  N  N8  1  0.28416600  0.75277500  0.18633500  1
  N  N9  1  0.29743400  0.89090700  0.51549400  1
  N  N10  1  0.97548800  0.29361000  0.45610500  1
  N  N11  1  0.02451200  0.70639000  0.54389500  1
  Cl  Cl0  1  0.92743600  0.75245500  0.13404500  1
  Cl  Cl1  1  0.07256400  0.24754500  0.86595500  1
  Cl  Cl2  1  0.57256400  0.75245500  0.63404500  1
  Cl  Cl3  1  0.42743600  0.24754500  0.36595500  1
  Cl  Cl4  1  0.62234500  0.92172400  0.32986300  1
  Cl  Cl5  1  0.12234500  0.07827600  0.17013700  1
  Cl  Cl6  1  0.37765500  0.07827600  0.67013700  1
  Cl  Cl7  1  0.87765500  0.92172400  0.82986300  1
  O  O0  1  0.93653300  0.61389600  0.70331700  1
  O  O1  1  0.56547800  0.10700600  0.09976100  1
  O  O2  1  0.06547800  0.89299400  0.40023900  1
  O  O3  1  0.06346700  0.38610400  0.29668300  1
  O  O4  1  0.43653300  0.38610400  0.79668300  1
  O  O5  1  0.56346700  0.61389600  0.20331700  1
  O  O6  1  0.43452200  0.89299400  0.90023900  1
  O  O7  1  0.93452200  0.10700600  0.59976100  1
  F  F0  1  0.83536900  0.52991400  0.36287600  1
  F  F1  1  0.33536900  0.47008600  0.13712400  1
  F  F2  1  0.24069600  0.64994200  0.42807200  1
  F  F3  1  0.66463100  0.52991400  0.86287600  1
  F  F4  1  0.25930400  0.64994200  0.92807200  1
  F  F5  1  0.74069600  0.35005800  0.07192800  1
  F  F6  1  0.75930400  0.35005800  0.57192800  1
  F  F7  1  0.16463100  0.47008600  0.63712400  1
loop_
_geom_bond_atom_site_label_1
_geom_bond_atom_site_label_2
_geom_bond_distance
_geom_bond_site_symmetry_2
N0 S1 1.544600 1_555
N0 P1 1.611036 1_555
N1 S6 1.542665 1_555
N1 P0 1.612197 1_555
N2 S4 1.542665 1_555
N2 P1 1.612197 1_555
N3 S2 1.578052 1_556
N3 S0 1.579013 1_555
N4 S3 1.544600 1_554
N4 P2 1.611036 1_555
N5 S3 1.578052 1_554
N5 S7 1.579013 1_555
N6 S0 1.542665 1_555
N6 P3 1.612197 1_555
N7 S2 1.544600 1_556
N7 P3 1.611036 1_555
N8 S7 1.542665 1_555
N8 P2 1.612197 1_555
N9 S5 1.544600 1_555
N9 P0 1.611036 1_555
N10 S1 1.578052 1_555
N10 S4 1.579013 1_555
N11 S5 1.578052 1_555
N11 S6 1.579013 1_555
Cl0 P2 1.987937 1_655
Cl1 P3 1.987937 1_455
Cl2 P0 1.987937 1_555
Cl3 P1 1.987937 1_555
Cl4 P1 1.973992 1_565
Cl5 P2 1.973992 1_545
Cl6 P0 1.973992 1_545
Cl7 P3 1.973992 1_565
O0 S6 1.422718 1_655
O1 S2 1.422751 1_555
O2 S5 1.422751 1_555
O3 S4 1.422718 1_455
O4 S0 1.422718 1_555
O5 S7 1.422718 1_555
O6 S3 1.422751 1_555
O7 S1 1.422751 1_555
F0 S4 1.609030 1_555
F1 S7 1.609030 1_555
F2 S5 1.607058 1_555
F3 S0 1.609030 1_555
F4 S3 1.607058 1_555
F5 S2 1.607058 1_555
F6 S1 1.607058 1_555
F7 S6 1.609030 1_555
