# generated using pymatgen
data_Na4CoAuO5
_symmetry_space_group_name_H-M   'P 1'
_cell_length_a   5.62475933
_cell_length_b   5.62475933
_cell_length_c   10.62063300
_cell_angle_alpha   90.00000000
_cell_angle_beta   90.00000000
_cell_angle_gamma   117.22116486
_symmetry_Int_Tables_number   1
_chemical_formula_structural   Na4CoAuO5
_chemical_formula_sum   'Na8 Co2 Au2 O10'
_cell_volume   298.80022930
_cell_formula_units_Z   2
loop_
 _symmetry_equiv_pos_site_id
 _symmetry_equiv_pos_as_xyz
  1  'x, y, z'
loop_
 _atom_site_type_symbol
 _atom_site_label
 _atom_site_symmetry_multiplicity
 _atom_site_fract_x
 _atom_site_fract_y
 _atom_site_fract_z
 _atom_site_occupancy
  Na  Na0  1  0.36024400  0.99174800  0.25000000  1
  Na  Na1  1  0.99174800  0.36024400  0.25000000  1
  Na  Na2  1  0.67091400  0.32908600  0.00000000  1
  Na  Na3  1  0.67091400  0.32908600  0.50000000  1
  Na  Na4  1  0.32908600  0.67091400  0.00000000  1
  Na  Na5  1  0.63975600  0.00825200  0.75000000  1
  Na  Na6  1  0.32908600  0.67091400  0.50000000  1
  Na  Na7  1  0.00825200  0.63975600  0.75000000  1
  Co  Co0  1  0.73057100  0.73057100  0.25000000  1
  Co  Co1  1  0.26942900  0.26942900  0.75000000  1
  Au  Au0  1  0.00000000  0.00000000  0.00000000  1
  Au  Au1  1  0.00000000  0.00000000  0.50000000  1
  O  O0  1  0.01394500  0.29178600  0.61764600  1
  O  O1  1  0.29178600  0.01394500  0.88235400  1
  O  O2  1  0.70821400  0.98605500  0.38235400  1
  O  O3  1  0.70821400  0.98605500  0.11764600  1
  O  O4  1  0.43041200  0.43041200  0.25000000  1
  O  O5  1  0.56958800  0.56958800  0.75000000  1
  O  O6  1  0.98605500  0.70821400  0.38235400  1
  O  O7  1  0.29178600  0.01394500  0.61764600  1
  O  O8  1  0.98605500  0.70821400  0.11764600  1
  O  O9  1  0.01394500  0.29178600  0.88235400  1
loop_
_geom_bond_atom_site_label_1
_geom_bond_atom_site_label_2
_geom_bond_distance
_geom_bond_site_symmetry_2
Na0 O4 2.313618 1_565
Na0 O3 2.421802 1_555
Na0 O2 2.421802 1_555
Na0 O8 2.424541 1_455
Na0 O6 2.424541 1_455
Na1 O4 2.313618 1_655
Na1 O6 2.421802 1_555
Na1 O8 2.421802 1_555
Na1 O3 2.424541 1_545
Na1 O2 2.424541 1_545
Na2 O3 2.387130 1_545
Na2 O9 2.387130 1_654
Na2 O1 2.406791 1_554
Na2 O8 2.406791 1_555
Na3 O2 2.387130 1_545
Na3 O0 2.387130 1_655
Na3 O6 2.406791 1_555
Na3 O7 2.406791 1_555
Na4 O8 2.387130 1_455
Na4 O1 2.387130 1_564
Na4 O9 2.406791 1_554
Na4 O3 2.406791 1_555
Na5 O5 2.313618 1_545
Na5 O1 2.421802 1_555
Na5 O7 2.421802 1_555
Na5 O9 2.424541 1_655
Na5 O0 2.424541 1_655
Na6 O6 2.387130 1_455
Na6 O7 2.387130 1_565
Na6 O2 2.406791 1_555
Na6 O0 2.406791 1_555
Na7 O5 2.313618 1_455
Na7 O0 2.421802 1_555
Na7 O9 2.421802 1_555
Na7 O7 2.424541 1_565
Na7 O1 2.424541 1_565
Co0 O4 1.758732 1_555
Co0 O2 2.054789 1_555
Co0 O8 2.054789 1_555
Co0 O3 2.054789 1_555
Co0 O6 2.054789 1_555
Co1 O5 1.758732 1_555
Co1 O1 2.054789 1_555
Co1 O7 2.054789 1_555
Co1 O9 2.054789 1_555
Co1 O0 2.054789 1_555
Au0 O8 2.035483 1_445
Au0 O3 2.035483 1_445
Au0 O9 2.035483 1_554
Au0 O1 2.035483 1_554
Au1 O6 2.035483 1_445
Au1 O0 2.035483 1_555
Au1 O2 2.035483 1_445
Au1 O7 2.035483 1_555
