# generated using pymatgen
data_K2Be(CO2)4
_symmetry_space_group_name_H-M   'P 1'
_cell_length_a   6.73717000
_cell_length_b   9.15415100
_cell_length_c   13.60506600
_cell_angle_alpha   90.00000000
_cell_angle_beta   90.00000000
_cell_angle_gamma   90.00000000
_symmetry_Int_Tables_number   1
_chemical_formula_structural   K2Be(CO2)4
_chemical_formula_sum   'K8 Be4 C16 O32'
_cell_volume   839.06620808
_cell_formula_units_Z   4
loop_
 _symmetry_equiv_pos_site_id
 _symmetry_equiv_pos_as_xyz
  1  'x, y, z'
loop_
 _atom_site_type_symbol
 _atom_site_label
 _atom_site_symmetry_multiplicity
 _atom_site_fract_x
 _atom_site_fract_y
 _atom_site_fract_z
 _atom_site_occupancy
  K  K0  1  0.68947300  0.00239400  0.39547400  1
  K  K1  1  0.31052700  0.50239400  0.60452600  1
  K  K2  1  0.18947300  0.50239400  0.10452600  1
  K  K3  1  0.31052700  0.99760600  0.60452600  1
  K  K4  1  0.18947300  0.99760600  0.10452600  1
  K  K5  1  0.81052700  0.00239400  0.89547400  1
  K  K6  1  0.68947300  0.49760600  0.39547400  1
  K  K7  1  0.81052700  0.49760600  0.89547400  1
  Be  Be0  1  0.57672200  0.75000000  0.74562300  1
  Be  Be1  1  0.07672200  0.25000000  0.75437700  1
  Be  Be2  1  0.42327800  0.25000000  0.25437700  1
  Be  Be3  1  0.92327800  0.75000000  0.24562300  1
  C  C0  1  0.17603800  0.66468600  0.35731700  1
  C  C1  1  0.67603800  0.33531400  0.14268300  1
  C  C2  1  0.75856600  0.75000000  0.59324100  1
  C  C3  1  0.25856600  0.25000000  0.90675900  1
  C  C4  1  0.90907600  0.75000000  0.68049900  1
  C  C5  1  0.82396200  0.16468600  0.64268300  1
  C  C6  1  0.59092400  0.75000000  0.18049900  1
  C  C7  1  0.17603800  0.83531400  0.35731700  1
  C  C8  1  0.40907600  0.25000000  0.81950100  1
  C  C9  1  0.32396200  0.83531400  0.85731700  1
  C  C10  1  0.09092400  0.25000000  0.31950100  1
  C  C11  1  0.67603800  0.16468600  0.14268300  1
  C  C12  1  0.24143400  0.25000000  0.40675900  1
  C  C13  1  0.32396200  0.66468600  0.85731700  1
  C  C14  1  0.82396200  0.33531400  0.64268300  1
  C  C15  1  0.74143400  0.75000000  0.09324100  1
  O  O0  1  0.40917000  0.75000000  0.16807800  1
  O  O1  1  0.28900200  0.59087600  0.40871300  1
  O  O2  1  0.78900200  0.09087600  0.09128700  1
  O  O3  1  0.81174100  0.75000000  0.50626200  1
  O  O4  1  0.04054700  0.61349600  0.29746300  1
  O  O5  1  0.95945300  0.38650400  0.70253700  1
  O  O6  1  0.95945300  0.11349600  0.70253700  1
  O  O7  1  0.68346000  0.75000000  0.26491100  1
  O  O8  1  0.21099800  0.90912400  0.90871300  1
  O  O9  1  0.45945300  0.61349600  0.79746300  1
  O  O10  1  0.45945300  0.88650400  0.79746300  1
  O  O11  1  0.71099800  0.40912400  0.59128700  1
  O  O12  1  0.28900200  0.90912400  0.40871300  1
  O  O13  1  0.81654000  0.75000000  0.76491100  1
  O  O14  1  0.09083000  0.75000000  0.66807800  1
  O  O15  1  0.71099800  0.09087600  0.59128700  1
  O  O16  1  0.59083000  0.25000000  0.83192200  1
  O  O17  1  0.18346000  0.25000000  0.23508900  1
  O  O18  1  0.42445400  0.25000000  0.37463000  1
  O  O19  1  0.21099800  0.59087600  0.90871300  1
  O  O20  1  0.57554600  0.75000000  0.62537000  1
  O  O21  1  0.68825900  0.75000000  0.00626200  1
  O  O22  1  0.31654000  0.25000000  0.73508900  1
  O  O23  1  0.78900200  0.40912400  0.09128700  1
  O  O24  1  0.04054700  0.88650400  0.29746300  1
  O  O25  1  0.07554600  0.25000000  0.87463000  1
  O  O26  1  0.54054700  0.11349600  0.20253700  1
  O  O27  1  0.31174100  0.25000000  0.99373800  1
  O  O28  1  0.92445400  0.75000000  0.12537000  1
  O  O29  1  0.54054700  0.38650400  0.20253700  1
  O  O30  1  0.90917000  0.25000000  0.33192200  1
  O  O31  1  0.18825900  0.25000000  0.49373800  1
loop_
_geom_bond_atom_site_label_1
_geom_bond_atom_site_label_2
_geom_bond_distance
_geom_bond_site_symmetry_2
K0 O15 2.788234 1_555
K0 O12 2.835640 1_545
K0 O30 2.841824 1_555
K0 O3 2.878998 1_545
K0 O18 2.899298 1_555
K0 O7 2.914642 1_545
K0 O24 2.915119 1_645
K0 O26 2.988524 1_555
K1 O1 2.788234 1_555
K1 O11 2.835640 1_555
K1 O14 2.841824 1_555
K1 O31 2.878998 1_555
K1 O20 2.899298 1_555
K1 O22 2.914642 1_555
K1 O5 2.915119 1_455
K1 O9 2.988524 1_555
K2 O19 2.788234 1_554
K2 O23 2.835640 1_455
K2 O0 2.841824 1_555
K2 O27 2.878998 1_554
K2 O28 2.899298 1_455
K2 O17 2.914642 1_555
K2 O29 2.915119 1_555
K2 O4 2.988524 1_555
K3 O12 2.788234 1_555
K3 O15 2.835640 1_565
K3 O14 2.841824 1_555
K3 O31 2.878998 1_565
K3 O20 2.899298 1_555
K3 O22 2.914642 1_565
K3 O6 2.915119 1_465
K3 O10 2.988524 1_555
K4 O8 2.788234 1_554
K4 O2 2.835640 1_465
K4 O0 2.841824 1_555
K4 O27 2.878998 1_564
K4 O28 2.899298 1_455
K4 O17 2.914642 1_565
K4 O26 2.915119 1_565
K4 O24 2.988524 1_555
K5 O2 2.788234 1_556
K5 O8 2.835640 1_645
K5 O16 2.841824 1_555
K5 O21 2.878998 1_546
K5 O25 2.899298 1_655
K5 O13 2.914642 1_545
K5 O10 2.915119 1_545
K5 O6 2.988524 1_555
K6 O11 2.788234 1_555
K6 O1 2.835640 1_555
K6 O30 2.841824 1_555
K6 O3 2.878998 1_555
K6 O18 2.899298 1_555
K6 O7 2.914642 1_555
K6 O4 2.915119 1_655
K6 O29 2.988524 1_555
K7 O23 2.788234 1_556
K7 O19 2.835640 1_655
K7 O16 2.841824 1_555
K7 O21 2.878998 1_556
K7 O25 2.899298 1_655
K7 O13 2.914642 1_555
K7 O9 2.915119 1_555
K7 O5 2.988524 1_555
Be0 O20 1.636069 1_555
Be0 O13 1.636866 1_555
Be0 O9 1.638008 1_555
Be0 O10 1.638008 1_555
Be1 O25 1.636069 1_555
Be1 O22 1.636866 1_555
Be1 O5 1.638008 1_455
Be1 O6 1.638008 1_455
Be2 O18 1.636069 1_555
Be2 O17 1.636866 1_555
Be2 O26 1.638008 1_555
Be2 O29 1.638008 1_555
Be3 O28 1.636069 1_555
Be3 O7 1.636866 1_555
Be3 O24 1.638008 1_655
Be3 O4 1.638008 1_655
C0 O1 1.234780 1_555
C0 O4 1.309943 1_555
C1 O23 1.234780 1_555
C1 O29 1.309943 1_555
C2 O3 1.236395 1_555
C2 O20 1.308224 1_555
C3 O27 1.236395 1_555
C3 O25 1.308224 1_555
C4 O14 1.236113 1_655
C4 O13 1.306736 1_555
C5 O15 1.234780 1_555
C5 O6 1.309943 1_555
C6 O0 1.236113 1_555
C6 O7 1.306736 1_555
C7 O12 1.234780 1_555
C7 O24 1.309943 1_555
C8 O16 1.236113 1_555
C8 O22 1.306736 1_555
C9 O8 1.234780 1_555
C9 O10 1.309943 1_555
C10 O30 1.236113 1_455
C10 O17 1.306736 1_555
C11 O2 1.234780 1_555
C11 O26 1.309943 1_555
C12 O31 1.236395 1_555
C12 O18 1.308224 1_555
C13 O19 1.234780 1_555
C13 O9 1.309943 1_555
C14 O11 1.234780 1_555
C14 O5 1.309943 1_555
C15 O21 1.236395 1_555
C15 O28 1.308224 1_555
