# generated using pymatgen
data_Sr3Ru2O7
_symmetry_space_group_name_H-M   'P 1'
_cell_length_a   10.71839148
_cell_length_b   10.71839148
_cell_length_c   5.51936907
_cell_angle_alpha   90.00000000
_cell_angle_beta   90.00000000
_cell_angle_gamma   150.15984714
_symmetry_Int_Tables_number   1
_chemical_formula_structural   Sr3Ru2O7
_chemical_formula_sum   'Sr6 Ru4 O14'
_cell_volume   315.51012444
_cell_formula_units_Z   2
loop_
 _symmetry_equiv_pos_site_id
 _symmetry_equiv_pos_as_xyz
  1  'x, y, z'
loop_
 _atom_site_type_symbol
 _atom_site_label
 _atom_site_symmetry_multiplicity
 _atom_site_fract_x
 _atom_site_fract_y
 _atom_site_fract_z
 _atom_site_occupancy
  Sr  Sr0  1  0.18613923  0.81386077  -0.00000000  1
  Sr  Sr1  1  0.81386077  0.18613923  -0.00000000  1
  Sr  Sr2  1  0.31386077  0.68613923  0.50000000  1
  Sr  Sr3  1  -0.00000000  0.00000000  -0.00000000  1
  Sr  Sr4  1  0.68613923  0.31386077  0.50000000  1
  Sr  Sr5  1  0.50000000  0.50000000  0.50000000  1
  Ru  Ru0  1  0.90292925  0.09707075  0.50000000  1
  Ru  Ru1  1  0.40292925  0.59707075  -0.00000000  1
  Ru  Ru2  1  0.59707075  0.40292925  -0.00000000  1
  Ru  Ru3  1  0.09707075  0.90292925  0.50000000  1
  O  O0  1  0.19070260  0.38312152  0.28702513  1
  O  O1  1  0.30929740  0.11687848  0.21297487  1
  O  O2  1  0.61687848  0.80929740  0.71297487  1
  O  O3  1  0.38312152  0.19070260  0.71297487  1
  O  O4  1  0.80536539  0.19463461  0.50000000  1
  O  O5  1  0.80929740  0.61687848  0.28702513  1
  O  O6  1  0.19463461  0.80536539  0.50000000  1
  O  O7  1  0.69463461  0.30536539  -0.00000000  1
  O  O8  1  0.69070260  0.88312152  0.21297487  1
  O  O9  1  0.30536539  0.69463461  -0.00000000  1
  O  O10  1  -0.00000000  0.00000000  0.50000000  1
  O  O11  1  0.88312152  0.69070260  0.78702513  1
  O  O12  1  0.50000000  0.50000000  -0.00000000  1
  O  O13  1  0.11687848  0.30929740  0.78702513  1
loop_
_geom_bond_atom_site_label_1
_geom_bond_atom_site_label_2
_geom_bond_distance
_geom_bond_site_symmetry_2
O0 Ru0 1.972253 1_455
O0 Ru1 1.973127 1_555
O0 Sr2 2.497011 1_555
O0 Sr5 2.595497 1_555
O0 Sr1 2.913321 1_455
O0 Sr3 2.998163 1_555
O1 Ru2 1.972253 1_555
O1 Ru3 1.973127 1_545
O1 Sr0 2.497011 1_545
O1 Sr3 2.595497 1_555
O1 Sr4 2.913321 1_555
O1 Sr5 2.998163 1_555
O2 Ru0 1.972253 1_565
O2 Ru1 1.973127 1_556
O2 Sr2 2.497011 1_555
O2 Sr5 2.595497 1_555
O2 Sr1 2.913321 1_566
O2 Sr3 2.998163 1_666
O3 Ru3 1.972253 1_545
O3 Ru2 1.973127 1_556
O3 Sr4 2.497011 1_555
O3 Sr5 2.595497 1_555
O3 Sr0 2.913321 1_546
O3 Sr3 2.998163 1_556
O4 Ru0 2.020944 1_555
O4 Sr4 2.469658 1_555
O4 Sr2 2.765284 1_545
O4 Sr2 2.765284 1_655
O4 Sr1 2.765289 1_556
O4 Sr1 2.765289 1_555
O5 Ru3 1.972253 1_655
O5 Ru2 1.973127 1_555
O5 Sr4 2.497011 1_555
O5 Sr5 2.595497 1_555
O5 Sr0 2.913321 1_655
O5 Sr3 2.998163 1_665
O6 Ru3 2.020944 1_555
O6 Sr2 2.469658 1_555
O6 Sr4 2.765284 1_565
O6 Sr4 2.765284 1_455
O6 Sr0 2.765289 1_555
O6 Sr0 2.765289 1_556
O7 Ru2 2.020944 1_555
O7 Sr1 2.469658 1_555
O7 Sr0 2.765284 1_655
O7 Sr0 2.765284 1_545
O7 Sr4 2.765289 1_555
O7 Sr4 2.765289 1_554
O8 Ru1 1.972253 1_555
O8 Ru0 1.973127 1_565
O8 Sr1 2.497011 1_565
O8 Sr3 2.595497 1_665
O8 Sr2 2.913321 1_555
O8 Sr5 2.998163 1_555
O9 Ru1 2.020944 1_555
O9 Sr0 2.469658 1_555
O9 Sr1 2.765284 1_455
O9 Sr1 2.765284 1_565
O9 Sr2 2.765289 1_555
O9 Sr2 2.765289 1_554
O10 Ru0 2.010729 1_455
O10 Ru3 2.010729 1_545
O10 Sr5 2.759679 1_555
O10 Sr5 2.759679 1_445
O10 Sr3 2.759685 1_556
O10 Sr3 2.759685 1_555
O11 Ru2 1.972253 1_556
O11 Ru3 1.973127 1_655
O11 Sr0 2.497011 1_656
O11 Sr3 2.595497 1_666
O11 Sr4 2.913321 1_555
O11 Sr5 2.998163 1_555
O12 Ru2 2.010729 1_555
O12 Ru1 2.010729 1_555
O12 Sr3 2.759679 1_665
O12 Sr3 2.759679 1_555
O12 Sr5 2.759685 1_555
O12 Sr5 2.759685 1_554
O13 Ru1 1.972253 1_556
O13 Ru0 1.973127 1_455
O13 Sr1 2.497011 1_456
O13 Sr3 2.595497 1_556
O13 Sr2 2.913321 1_555
O13 Sr5 2.998163 1_555
