# generated using pymatgen
data_Hf(SeCl6)2
_symmetry_space_group_name_H-M   'P 1'
_cell_length_a   12.72358483
_cell_length_b   12.48893394
_cell_length_c   8.81668302
_cell_angle_alpha   70.98668992
_cell_angle_beta   68.12709016
_cell_angle_gamma   40.94357306
_symmetry_Int_Tables_number   1
_chemical_formula_structural   Hf(SeCl6)2
_chemical_formula_sum   'Hf2 Se4 Cl24'
_cell_volume   849.73742776
_cell_formula_units_Z   2
loop_
 _symmetry_equiv_pos_site_id
 _symmetry_equiv_pos_as_xyz
  1  'x, y, z'
loop_
 _atom_site_type_symbol
 _atom_site_label
 _atom_site_symmetry_multiplicity
 _atom_site_fract_x
 _atom_site_fract_y
 _atom_site_fract_z
 _atom_site_occupancy
  Hf  Hf0  1  0.87414087  0.87411356  0.62587562  1
  Hf  Hf1  1  0.62404765  0.62411346  0.37595904  1
  Se  Se0  1  0.42486397  0.98716307  0.02397979  1
  Se  Se1  1  0.22600364  0.68585782  0.82554502  1
  Se  Se2  1  0.98721644  0.42474028  0.56411551  1
  Se  Se3  1  0.68573468  0.22597774  0.26260871  1
  Cl  Cl0  1  0.43637900  0.46856518  0.26328544  1
  Cl  Cl1  1  0.66094057  0.58887459  0.64838807  1
  Cl  Cl2  1  0.22604673  0.33150402  0.44586408  1
  Cl  Cl3  1  0.74535291  0.34912644  0.40874027  1
  Cl  Cl4  1  0.50813863  0.90047321  0.32831531  1
  Cl  Cl5  1  0.92187176  0.98676626  0.74198088  1
  Cl  Cl6  1  0.98679495  0.92178833  0.34948158  1
  Cl  Cl7  1  0.34910135  0.74535916  0.49663004  1
  Cl  Cl8  1  0.90043706  0.50819548  0.26325357  1
  Cl  Cl9  1  0.33151807  0.22609032  0.99666105  1
  Cl  Cl10  1  0.66005705  0.10023339  0.18365212  1
  Cl  Cl11  1  0.25340535  0.80407985  0.91883137  1
  Cl  Cl12  1  0.75333832  0.84112275  0.90088353  1
  Cl  Cl13  1  0.84112285  0.75336283  0.50455647  1
  Cl  Cl14  1  0.14800678  0.60168897  0.66129861  1
  Cl  Cl15  1  0.80404978  0.25329520  0.02379950  1
  Cl  Cl16  1  0.06588523  0.19453435  0.59002320  1
  Cl  Cl17  1  0.10035387  0.66001417  0.05577708  1
  Cl  Cl18  1  0.41861937  0.98644738  0.78129173  1
  Cl  Cl19  1  0.98648442  0.41868160  0.81372754  1
  Cl  Cl20  1  0.58877431  0.66102431  0.10187334  1
  Cl  Cl21  1  0.46860934  0.43641145  0.83149353  1
  Cl  Cl22  1  0.60175730  0.14801309  0.58893974  1
  Cl  Cl23  1  0.19454674  0.06598372  0.14956726  1
loop_
_geom_bond_atom_site_label_1
_geom_bond_atom_site_label_2
_geom_bond_distance
_geom_bond_site_symmetry_2
Cl0 Se3 2.172858 1_555
Cl1 Hf1 2.454075 1_555
Cl1 Se2 2.797568 1_555
Cl2 Se2 2.182181 1_455
Cl3 Hf1 2.436810 1_555
Cl3 Se3 2.895275 1_555
Cl4 Hf1 2.468014 1_555
Cl4 Se0 2.826131 1_555
Cl5 Hf0 2.467493 1_555
Cl5 Se1 2.826809 1_655
Cl6 Hf0 2.467537 1_555
Cl6 Se3 2.828089 1_565
Cl7 Hf1 2.436567 1_555
Cl7 Se1 2.895670 1_555
Cl8 Hf1 2.468332 1_555
Cl8 Se2 2.825612 1_555
Cl9 Se0 2.182530 1_546
Cl10 Se3 2.171272 1_555
Cl11 Se1 2.181868 1_555
Cl12 Hf0 2.437249 1_555
Cl12 Se0 2.892402 1_556
Cl13 Hf0 2.436752 1_555
Cl13 Se2 2.893608 1_555
Cl14 Hf0 2.454299 1_455
Cl14 Se1 2.797398 1_555
Cl15 Se3 2.182182 1_555
Cl16 Se2 2.171372 1_455
Cl17 Se1 2.171436 1_554
Cl18 Se0 2.173691 1_556
Cl19 Se2 2.174029 1_555
Cl20 Hf1 2.454229 1_555
Cl20 Se0 2.796973 1_555
Cl21 Se1 2.173232 1_555
Cl22 Hf0 2.454336 1_545
Cl22 Se3 2.797061 1_555
Cl23 Se0 2.171914 1_545
