# generated using pymatgen
data_B5Pb2ClO9
_symmetry_space_group_name_H-M   'P 1'
_cell_length_a   6.64257500
_cell_length_b   11.51936300
_cell_length_c   11.55035800
_cell_angle_alpha   90.00000000
_cell_angle_beta   90.00000000
_cell_angle_gamma   90.00000000
_symmetry_Int_Tables_number   1
_chemical_formula_structural   B5Pb2ClO9
_chemical_formula_sum   'B20 Pb8 Cl4 O36'
_cell_volume   883.81298098
_cell_formula_units_Z   4
loop_
 _symmetry_equiv_pos_site_id
 _symmetry_equiv_pos_as_xyz
  1  'x, y, z'
loop_
 _atom_site_type_symbol
 _atom_site_label
 _atom_site_symmetry_multiplicity
 _atom_site_fract_x
 _atom_site_fract_y
 _atom_site_fract_z
 _atom_site_occupancy
  B  B0  1  0.81262700  0.26948000  0.95940300  1
  B  B1  1  0.35155300  0.80057400  0.31671100  1
  B  B2  1  0.53481400  0.21783500  0.28720300  1
  B  B3  1  0.81262700  0.73052000  0.04059700  1
  B  B4  1  0.70139300  0.82174100  0.22786900  1
  B  B5  1  0.31262700  0.23052000  0.45940300  1
  B  B6  1  0.85155300  0.30057400  0.18328900  1
  B  B7  1  0.03481400  0.28216500  0.78720300  1
  B  B8  1  0.47971300  0.99683100  0.24632700  1
  B  B9  1  0.53481400  0.78216500  0.71279700  1
  B  B10  1  0.97971300  0.49683100  0.25367300  1
  B  B11  1  0.35155300  0.19942600  0.68328900  1
  B  B12  1  0.70139300  0.17825900  0.77213100  1
  B  B13  1  0.03481400  0.71783500  0.21279700  1
  B  B14  1  0.31262700  0.76948000  0.54059700  1
  B  B15  1  0.20139300  0.67825900  0.72786900  1
  B  B16  1  0.47971300  0.00316900  0.75367300  1
  B  B17  1  0.85155300  0.69942600  0.81671100  1
  B  B18  1  0.97971300  0.50316900  0.74632700  1
  B  B19  1  0.20139300  0.32174100  0.27213100  1
  Pb  Pb0  1  0.32974500  0.75942800  0.97743200  1
  Pb  Pb1  1  0.50080100  0.53913000  0.24688900  1
  Pb  Pb2  1  0.32974500  0.24057200  0.02256800  1
  Pb  Pb3  1  0.50080100  0.46087000  0.75311100  1
  Pb  Pb4  1  0.82974500  0.25942800  0.52256800  1
  Pb  Pb5  1  0.00080100  0.03913000  0.25311100  1
  Pb  Pb6  1  0.82974500  0.74057200  0.47743200  1
  Pb  Pb7  1  0.00080100  0.96087000  0.74688900  1
  Cl  Cl0  1  0.12519500  0.00000000  0.00000000  1
  Cl  Cl1  1  0.88251900  0.00000000  0.50000000  1
  Cl  Cl2  1  0.38251900  0.50000000  0.00000000  1
  Cl  Cl3  1  0.62519500  0.50000000  0.50000000  1
  O  O0  1  0.44222400  0.88699200  0.76850400  1
  O  O1  1  0.25132100  0.27130900  0.77217500  1
  O  O2  1  0.91609200  0.18398100  0.73978500  1
  O  O3  1  0.07041300  0.27248400  0.18111300  1
  O  O4  1  0.75132100  0.77130900  0.72782500  1
  O  O5  1  0.66114100  0.05100200  0.78553400  1
  O  O6  1  0.82725900  0.57240500  0.78826900  1
  O  O7  1  0.75548000  0.72219300  0.92817100  1
  O  O8  1  0.50337400  0.20978800  0.41700700  1
  O  O9  1  0.25548000  0.22219300  0.57182900  1
  O  O10  1  0.82725900  0.42759500  0.21173100  1
  O  O11  1  0.66064300  0.76181900  0.11709400  1
  O  O12  1  0.16064300  0.73818100  0.61709400  1
  O  O13  1  0.75132100  0.22869100  0.27217500  1
  O  O14  1  0.25548000  0.77780700  0.42817100  1
  O  O15  1  0.25132100  0.72869100  0.22782500  1
  O  O16  1  0.75548000  0.27780700  0.07182900  1
  O  O17  1  0.44222400  0.11300800  0.23149600  1
  O  O18  1  0.16114100  0.55100200  0.71446600  1
  O  O19  1  0.32725900  0.92759500  0.28826900  1
  O  O20  1  0.57041300  0.77248400  0.31888700  1
  O  O21  1  0.07041300  0.72751600  0.81888700  1
  O  O22  1  0.50337400  0.79021200  0.58299300  1
  O  O23  1  0.32725900  0.07240500  0.71173100  1
  O  O24  1  0.16064300  0.26181900  0.38290600  1
  O  O25  1  0.94222400  0.38699200  0.73149600  1
  O  O26  1  0.00337400  0.70978800  0.08299300  1
  O  O27  1  0.00337400  0.29021200  0.91700700  1
  O  O28  1  0.94222400  0.61300800  0.26850400  1
  O  O29  1  0.66064300  0.23818100  0.88290600  1
  O  O30  1  0.91609200  0.81601900  0.26021500  1
  O  O31  1  0.41609200  0.68398100  0.76021500  1
  O  O32  1  0.57041300  0.22751600  0.68111300  1
  O  O33  1  0.41609200  0.31601900  0.23978500  1
  O  O34  1  0.66114100  0.94899800  0.21446600  1
  O  O35  1  0.16114100  0.44899800  0.28553400  1
loop_
_geom_bond_atom_site_label_1
_geom_bond_atom_site_label_2
_geom_bond_distance
_geom_bond_site_symmetry_2
B0 O16 1.356303 1_556
B0 O27 1.379220 1_655
B0 O29 1.389211 1_555
B1 O14 1.460634 1_555
B1 O15 1.477494 1_555
B1 O20 1.489581 1_555
B1 O19 1.508284 1_555
B2 O13 1.453989 1_555
B2 O33 1.483607 1_555
B2 O17 1.500144 1_555
B2 O8 1.516594 1_555
B3 O7 1.356303 1_554
B3 O26 1.379220 1_655
B3 O11 1.389211 1_555
B4 O30 1.475752 1_555
B4 O20 1.477884 1_555
B4 O11 1.478794 1_555
B4 O34 1.498124 1_555
B5 O9 1.356303 1_555
B5 O8 1.379220 1_555
B5 O24 1.389211 1_555
B6 O16 1.460634 1_555
B6 O13 1.477494 1_555
B6 O3 1.489581 1_655
B6 O10 1.508284 1_555
B7 O1 1.453989 1_555
B7 O2 1.483607 1_455
B7 O25 1.500144 1_455
B7 O27 1.516594 1_555
B8 O17 1.371993 1_565
B8 O34 1.375289 1_555
B8 O19 1.377068 1_555
B9 O4 1.453989 1_555
B9 O31 1.483607 1_555
B9 O0 1.500144 1_555
B9 O22 1.516594 1_555
B10 O28 1.371993 1_555
B10 O35 1.375289 1_655
B10 O10 1.377068 1_555
B11 O9 1.460634 1_555
B11 O1 1.477494 1_555
B11 O32 1.489581 1_555
B11 O23 1.508284 1_555
B12 O2 1.475752 1_555
B12 O32 1.477884 1_555
B12 O29 1.478794 1_555
B12 O5 1.498124 1_555
B13 O15 1.453989 1_555
B13 O30 1.483607 1_455
B13 O28 1.500144 1_455
B13 O26 1.516594 1_555
B14 O14 1.356303 1_555
B14 O22 1.379220 1_555
B14 O12 1.389211 1_555
B15 O31 1.475752 1_555
B15 O21 1.477884 1_555
B15 O12 1.478794 1_555
B15 O18 1.498124 1_555
B16 O0 1.371993 1_545
B16 O5 1.375289 1_555
B16 O23 1.377068 1_555
B17 O7 1.460634 1_555
B17 O4 1.477494 1_555
B17 O21 1.489581 1_655
B17 O6 1.508284 1_555
B18 O25 1.371993 1_555
B18 O18 1.375289 1_655
B18 O6 1.377068 1_555
B19 O33 1.475752 1_555
B19 O3 1.477884 1_555
B19 O24 1.478794 1_555
B19 O35 1.498124 1_555
Cl0 Pb5 3.071307 1_555
Cl0 Pb7 3.071307 1_544
Cl0 Pb2 3.097397 1_555
Cl0 Pb0 3.097397 1_544
Cl1 Pb7 2.992063 1_645
Cl1 Pb5 2.992063 1_655
Cl1 Pb4 3.020206 1_555
Cl1 Pb6 3.020206 1_545
Cl2 Pb1 2.992063 1_555
Cl2 Pb3 2.992063 1_554
Cl2 Pb0 3.020206 1_554
Cl2 Pb2 3.020206 1_555
Cl3 Pb1 3.071307 1_555
Cl3 Pb3 3.071307 1_555
Cl3 Pb4 3.097397 1_555
Cl3 Pb6 3.097397 1_555
O1 Pb3 2.750085 1_555
O2 Pb7 2.632251 1_645
O2 Pb4 2.716444 1_555
O3 Pb2 2.540881 1_555
O3 Pb5 2.851527 1_555
O4 Pb7 2.750085 1_655
O5 Pb7 2.523439 1_645
O6 Pb3 2.553064 1_555
O8 Pb4 2.552170 1_555
O10 Pb1 2.553064 1_555
O11 Pb0 2.726585 1_554
O12 Pb6 2.726585 1_455
O13 Pb5 2.750085 1_655
O15 Pb1 2.750085 1_555
O18 Pb3 2.523439 1_555
O19 Pb5 2.553064 1_565
O20 Pb6 2.540881 1_555
O20 Pb1 2.851527 1_555
O21 Pb0 2.540881 1_555
O21 Pb7 2.851527 1_555
O22 Pb6 2.552170 1_555
O23 Pb7 2.553064 1_545
O24 Pb4 2.726585 1_455
O26 Pb0 2.552170 1_554
O27 Pb2 2.552170 1_556
O29 Pb2 2.726585 1_556
O30 Pb5 2.632251 1_665
O30 Pb6 2.716444 1_555
O31 Pb3 2.632251 1_555
O31 Pb0 2.716444 1_555
O32 Pb4 2.540881 1_555
O32 Pb3 2.851527 1_555
O33 Pb1 2.632251 1_555
O33 Pb2 2.716444 1_555
O34 Pb5 2.523439 1_665
O35 Pb1 2.523439 1_555
