# generated using pymatgen
data_Na2NiH12(SO7)2
_symmetry_space_group_name_H-M   'P 1'
_cell_length_a   11.99864600
_cell_length_b   6.01157900
_cell_length_c   8.88197320
_cell_angle_alpha   76.01844686
_cell_angle_beta   90.00000000
_cell_angle_gamma   90.00000000
_symmetry_Int_Tables_number   1
_chemical_formula_structural   Na2NiH12(SO7)2
_chemical_formula_sum   'Na4 Ni2 H24 S4 O28'
_cell_volume   621.68331895
_cell_formula_units_Z   2
loop_
 _symmetry_equiv_pos_site_id
 _symmetry_equiv_pos_as_xyz
  1  'x, y, z'
loop_
 _atom_site_type_symbol
 _atom_site_label
 _atom_site_symmetry_multiplicity
 _atom_site_fract_x
 _atom_site_fract_y
 _atom_site_fract_z
 _atom_site_occupancy
  Na  Na0  1  0.35502200  0.83965500  0.86512100  1
  Na  Na1  1  0.14497800  0.83965500  0.36512100  1
  Na  Na2  1  0.85502200  0.16034500  0.63487900  1
  Na  Na3  1  0.64497800  0.16034500  0.13487900  1
  Ni  Ni0  1  0.00000000  0.50000000  0.00000000  1
  Ni  Ni1  1  0.50000000  0.50000000  0.50000000  1
  H  H0  1  0.12609000  0.59376000  0.74703500  1
  H  H1  1  0.62609000  0.40624000  0.75296500  1
  H  H2  1  0.68953500  0.48819500  0.36003300  1
  H  H3  1  0.41345800  0.82557900  0.28523500  1
  H  H4  1  0.05599200  0.15678500  0.90282800  1
  H  H5  1  0.59886500  0.56521700  0.22835600  1
  H  H6  1  0.55599200  0.84321500  0.59717200  1
  H  H7  1  0.09886500  0.43478300  0.27164400  1
  H  H8  1  0.40113500  0.43478300  0.77164400  1
  H  H9  1  0.81046500  0.48819500  0.86003300  1
  H  H10  1  0.31046500  0.51180500  0.63996700  1
  H  H11  1  0.44400800  0.15678500  0.40282800  1
  H  H12  1  0.18953500  0.51180500  0.13996700  1
  H  H13  1  0.64671000  0.83510800  0.46812300  1
  H  H14  1  0.08654200  0.82557900  0.78523500  1
  H  H15  1  0.91345800  0.17442100  0.21476500  1
  H  H16  1  0.14671000  0.16489200  0.03187700  1
  H  H17  1  0.37391000  0.59376000  0.24703500  1
  H  H18  1  0.35329000  0.16489200  0.53187700  1
  H  H19  1  0.94400800  0.84321500  0.09717200  1
  H  H20  1  0.58654200  0.17442100  0.71476500  1
  H  H21  1  0.85329000  0.83510800  0.96812300  1
  H  H22  1  0.87391000  0.40624000  0.25296500  1
  H  H23  1  0.90113500  0.56521700  0.72835600  1
  S  S0  1  0.86793800  0.77148000  0.41376600  1
  S  S1  1  0.13206200  0.22852000  0.58623400  1
  S  S2  1  0.63206200  0.77148000  0.91376600  1
  S  S3  1  0.36793800  0.22852000  0.08623400  1
  O  O0  1  0.27085600  0.07049300  0.09563100  1
  O  O1  1  0.38567400  0.55097800  0.67246800  1
  O  O2  1  0.07294700  0.25057300  0.43654500  1
  O  O3  1  0.67106700  0.54054900  0.89884800  1
  O  O4  1  0.17106700  0.45945100  0.60115200  1
  O  O5  1  0.43338200  0.19309300  0.50459200  1
  O  O6  1  0.61432600  0.44902200  0.32753200  1
  O  O7  1  0.88389000  0.32920400  0.16703800  1
  O  O8  1  0.44740900  0.12718200  0.21464800  1
  O  O9  1  0.82893300  0.54054900  0.39884800  1
  O  O10  1  0.56661800  0.80690700  0.49540800  1
  O  O11  1  0.22914400  0.07049300  0.59563100  1
  O  O12  1  0.05259100  0.12718200  0.71464800  1
  O  O13  1  0.88567400  0.44902200  0.82753200  1
  O  O14  1  0.55259100  0.87281800  0.78535200  1
  O  O15  1  0.57294700  0.74942700  0.06345500  1
  O  O16  1  0.11611000  0.67079600  0.83296200  1
  O  O17  1  0.61611000  0.32920400  0.66703800  1
  O  O18  1  0.06661800  0.19309300  0.00459200  1
  O  O19  1  0.38389000  0.67079600  0.33296200  1
  O  O20  1  0.72914400  0.92950700  0.90436900  1
  O  O21  1  0.94740900  0.87281800  0.28535200  1
  O  O22  1  0.93338200  0.80690700  0.99540800  1
  O  O23  1  0.42705300  0.25057300  0.93654500  1
  O  O24  1  0.32893300  0.45945100  0.10115200  1
  O  O25  1  0.77085600  0.92950700  0.40436900  1
  O  O26  1  0.92705300  0.74942700  0.56345500  1
  O  O27  1  0.11432600  0.55097800  0.17246800  1
loop_
_geom_bond_atom_site_label_1
_geom_bond_atom_site_label_2
_geom_bond_distance
_geom_bond_site_symmetry_2
Na0 O14 2.468406 1_555
Na0 O24 2.720597 1_556
Na0 O1 2.740404 1_555
Na0 O23 2.829997 1_565
Na0 O11 2.886380 1_565
Na0 O0 2.917233 1_566
Na1 O21 2.468406 1_455
Na1 O4 2.720597 1_555
Na1 O27 2.740404 1_555
Na1 O2 2.829997 1_565
Na1 O0 2.886380 1_565
Na1 O11 2.917233 1_565
Na2 O12 2.468406 1_655
Na2 O9 2.720597 1_555
Na2 O13 2.740404 1_555
Na2 O26 2.829997 1_545
Na2 O20 2.886380 1_545
Na2 O25 2.917233 1_545
Na3 O8 2.468406 1_555
Na3 O3 2.720597 1_554
Na3 O6 2.740404 1_555
Na3 O15 2.829997 1_545
Na3 O25 2.886380 1_545
Na3 O20 2.917233 1_544
Ni0 O22 2.002057 1_454
Ni0 O18 2.002057 1_555
Ni0 O7 2.111913 1_455
Ni0 O16 2.111913 1_554
Ni0 O27 2.132854 1_555
Ni0 O13 2.132854 1_454
Ni1 O10 2.002057 1_555
Ni1 O5 2.002057 1_555
Ni1 O19 2.111913 1_555
Ni1 O17 2.111913 1_555
Ni1 O6 2.132854 1_555
Ni1 O1 2.132854 1_555
H0 O16 0.990997 1_555
H1 O17 0.990997 1_555
H2 O6 0.992963 1_555
H3 O19 0.990341 1_555
H4 O18 0.988029 1_556
H5 O6 1.000478 1_555
H5 O15 1.638434 1_555
H6 O10 0.988029 1_555
H7 O27 1.000478 1_555
H7 O2 1.638434 1_555
H8 O1 1.000478 1_555
H8 O23 1.638434 1_555
H9 O13 0.992963 1_555
H10 O1 0.992963 1_555
H11 O5 0.988029 1_555
H12 O27 0.992963 1_555
H13 O10 0.995556 1_555
H13 O25 1.645075 1_555
H14 O16 0.990341 1_555
H15 O7 0.990341 1_555
H16 O18 0.995556 1_555
H16 O0 1.645075 1_555
H17 O19 0.990997 1_555
H18 O5 0.995556 1_555
H18 O11 1.645075 1_555
H19 O22 0.988029 1_554
H20 O17 0.990341 1_555
H21 O22 0.995556 1_555
H21 O20 1.645075 1_555
H22 O7 0.990997 1_555
H23 O13 1.000478 1_555
H23 O26 1.638434 1_555
O0 S3 1.492655 1_555
O2 S1 1.484308 1_555
O3 S2 1.500913 1_555
O4 S1 1.500913 1_555
O8 S3 1.498504 1_555
O9 S0 1.500913 1_555
O11 S1 1.492655 1_555
O12 S1 1.498504 1_555
O14 S2 1.498504 1_555
O15 S2 1.484308 1_554
O20 S2 1.492655 1_555
O21 S0 1.498504 1_555
O23 S3 1.484308 1_556
O24 S3 1.500913 1_555
O25 S0 1.492655 1_555
O26 S0 1.484308 1_555
