# generated using pymatgen
data_CsSmZnSe3
_symmetry_space_group_name_H-M   'P 1'
_cell_length_a   4.24538000
_cell_length_b   8.40428658
_cell_length_c   11.23331400
_cell_angle_alpha   90.00000000
_cell_angle_beta   90.00000000
_cell_angle_gamma   104.62978008
_symmetry_Int_Tables_number   1
_chemical_formula_structural   CsSmZnSe3
_chemical_formula_sum   'Cs2 Sm2 Zn2 Se6'
_cell_volume   387.80313648
_cell_formula_units_Z   2
loop_
 _symmetry_equiv_pos_site_id
 _symmetry_equiv_pos_as_xyz
  1  'x, y, z'
loop_
 _atom_site_type_symbol
 _atom_site_label
 _atom_site_symmetry_multiplicity
 _atom_site_fract_x
 _atom_site_fract_y
 _atom_site_fract_z
 _atom_site_occupancy
  Cs  Cs0  1  0.25840200  0.51680400  0.25000000  1
  Cs  Cs1  1  0.74159800  0.48319600  0.75000000  1
  Sm  Sm0  1  0.00000000  0.00000000  0.00000000  1
  Sm  Sm1  1  0.00000000  0.00000000  0.50000000  1
  Zn  Zn0  1  0.53954700  0.07909400  0.25000000  1
  Zn  Zn1  1  0.46045300  0.92090600  0.75000000  1
  Se  Se0  1  0.05404600  0.10809200  0.75000000  1
  Se  Se1  1  0.38218100  0.76436200  0.56313900  1
  Se  Se2  1  0.61781900  0.23563800  0.43686100  1
  Se  Se3  1  0.61781900  0.23563800  0.06313900  1
  Se  Se4  1  0.94595400  0.89190800  0.25000000  1
  Se  Se5  1  0.38218100  0.76436200  0.93686100  1
loop_
_geom_bond_atom_site_label_1
_geom_bond_atom_site_label_2
_geom_bond_distance
_geom_bond_site_symmetry_2
Cs0 Se4 3.716177 1_455
Cs0 Se4 3.716177 1_555
Cs0 Se2 3.760248 1_455
Cs0 Se3 3.760248 1_455
Cs0 Se3 3.760248 1_555
Cs0 Se2 3.760248 1_555
Cs0 Se1 4.052897 1_555
Cs0 Se5 4.052897 1_554
Cs1 Se0 3.716177 1_655
Cs1 Se0 3.716177 1_555
Cs1 Se5 3.760248 1_655
Cs1 Se5 3.760248 1_555
Cs1 Se1 3.760248 1_655
Cs1 Se1 3.760248 1_555
Cs1 Se2 4.052897 1_555
Cs1 Se3 4.052897 1_556
Se0 Zn1 2.612046 1_445
Se0 Zn1 2.612046 1_545
Se0 Sm1 2.942672 1_555
Se0 Sm0 2.942672 1_556
Se1 Zn1 2.454909 1_555
Se1 Sm1 2.946275 1_565
Se1 Sm1 2.946275 1_665
Se2 Zn0 2.454909 1_555
Se2 Sm1 2.946275 1_555
Se2 Sm1 2.946275 1_655
Se3 Zn0 2.454909 1_555
Se3 Sm0 2.946275 1_655
Se3 Sm0 2.946275 1_555
Se4 Zn0 2.612046 1_665
Se4 Zn0 2.612046 1_565
Se4 Sm1 2.942672 1_665
Se4 Sm0 2.942672 1_665
Se5 Zn1 2.454909 1_555
Se5 Sm0 2.946275 1_666
Se5 Sm0 2.946275 1_566
