# generated using pymatgen
data_HgH10C3I3N
_symmetry_space_group_name_H-M   'P 1'
_cell_length_a   15.95683600
_cell_length_b   8.91635700
_cell_length_c   9.29409462
_cell_angle_alpha   89.55396343
_cell_angle_beta   90.00000000
_cell_angle_gamma   90.00000000
_symmetry_Int_Tables_number   1
_chemical_formula_structural   HgH10C3I3N
_chemical_formula_sum   'Hg4 H40 C12 I12 N4'
_cell_volume   1322.29440436
_cell_formula_units_Z   4
loop_
 _symmetry_equiv_pos_site_id
 _symmetry_equiv_pos_as_xyz
  1  'x, y, z'
loop_
 _atom_site_type_symbol
 _atom_site_label
 _atom_site_symmetry_multiplicity
 _atom_site_fract_x
 _atom_site_fract_y
 _atom_site_fract_z
 _atom_site_occupancy
  Hg  Hg0  1  0.21644500  0.82051600  0.75772000  1
  Hg  Hg1  1  0.71644500  0.67948400  0.24228000  1
  Hg  Hg2  1  0.78355500  0.17948400  0.24228000  1
  Hg  Hg3  1  0.28355500  0.32051600  0.75772000  1
  H  H0  1  0.59775600  0.89465300  0.91433700  1
  H  H1  1  0.50442400  0.96338000  0.82841900  1
  H  H2  1  0.10127300  0.54447000  0.27036200  1
  H  H3  1  0.60127300  0.95553000  0.72963800  1
  H  H4  1  0.89872700  0.45553000  0.72963800  1
  H  H5  1  0.02465100  0.13155900  0.60271900  1
  H  H6  1  0.09775600  0.60534700  0.08566300  1
  H  H7  1  0.49557600  0.03662000  0.17158100  1
  H  H8  1  0.00455800  0.80240800  0.15635600  1
  H  H9  1  0.39872700  0.04447000  0.27036200  1
  H  H10  1  0.60133900  0.53785800  0.72152600  1
  H  H11  1  0.00442400  0.53662000  0.17158100  1
  H  H12  1  0.96668300  0.29308500  0.54198200  1
  H  H13  1  0.40224400  0.10534700  0.08566300  1
  H  H14  1  0.90224400  0.39465300  0.91433700  1
  H  H15  1  0.99544200  0.19759200  0.84364400  1
  H  H16  1  0.65292300  0.65024900  0.85453600  1
  H  H17  1  0.34707700  0.34975100  0.14546400  1
  H  H18  1  0.56266200  0.18387000  0.35804500  1
  H  H19  1  0.34054300  0.29833800  0.33263000  1
  H  H20  1  0.84054300  0.20166200  0.66737000  1
  H  H21  1  0.46668300  0.20691500  0.45801800  1
  H  H22  1  0.84707700  0.15024900  0.85453600  1
  H  H23  1  0.15292300  0.84975100  0.14546400  1
  H  H24  1  0.10133900  0.96214200  0.27847400  1
  H  H25  1  0.65945700  0.70166200  0.66737000  1
  H  H26  1  0.39866100  0.46214200  0.27847400  1
  H  H27  1  0.93733800  0.68387000  0.35804500  1
  H  H28  1  0.89866100  0.03785800  0.72152600  1
  H  H29  1  0.50455800  0.69759200  0.84364400  1
  H  H30  1  0.53331700  0.79308500  0.54198200  1
  H  H31  1  0.43733800  0.81613000  0.64195500  1
  H  H32  1  0.47534900  0.63155900  0.60271900  1
  H  H33  1  0.49544200  0.30240800  0.15635600  1
  H  H34  1  0.15945700  0.79833800  0.33263000  1
  H  H35  1  0.52465100  0.36844100  0.39728100  1
  H  H36  1  0.97534900  0.86844100  0.39728100  1
  H  H37  1  0.99557600  0.46338000  0.82841900  1
  H  H38  1  0.06266200  0.31613000  0.64195500  1
  H  H39  1  0.03331700  0.70691500  0.45801800  1
  C  C0  1  0.43704800  0.09866300  0.18702900  1
  C  C1  1  0.61979900  0.65178300  0.75132900  1
  C  C2  1  0.11979900  0.84821700  0.24867100  1
  C  C3  1  0.49343600  0.74700400  0.62762300  1
  C  C4  1  0.50656400  0.25299600  0.37237700  1
  C  C5  1  0.00656400  0.24700400  0.62762300  1
  C  C6  1  0.88020100  0.15178300  0.75132900  1
  C  C7  1  0.56295200  0.90133700  0.81297100  1
  C  C8  1  0.06295200  0.59866300  0.18702900  1
  C  C9  1  0.93704800  0.40133700  0.81297100  1
  C  C10  1  0.99343600  0.75299600  0.37237700  1
  C  C11  1  0.38020100  0.34821700  0.24867100  1
  I  I0  1  0.54452200  0.67405300  0.18804800  1
  I  I1  1  0.76727400  0.44920800  0.44655300  1
  I  I2  1  0.66713000  0.24026100  0.02908700  1
  I  I3  1  0.73272600  0.94920800  0.44655300  1
  I  I4  1  0.83287000  0.74026100  0.02908700  1
  I  I5  1  0.26727400  0.05079200  0.55344700  1
  I  I6  1  0.33287000  0.75973900  0.97091300  1
  I  I7  1  0.23272600  0.55079200  0.55344700  1
  I  I8  1  0.95547800  0.17405300  0.18804800  1
  I  I9  1  0.04452200  0.82594700  0.81195200  1
  I  I10  1  0.16713000  0.25973900  0.97091300  1
  I  I11  1  0.45547800  0.32594700  0.81195200  1
  N  N0  1  0.54246000  0.74563500  0.76492900  1
  N  N1  1  0.45754000  0.25436500  0.23507100  1
  N  N2  1  0.95754000  0.24563500  0.76492900  1
  N  N3  1  0.04246000  0.75436500  0.23507100  1
loop_
_geom_bond_atom_site_label_1
_geom_bond_atom_site_label_2
_geom_bond_distance
_geom_bond_site_symmetry_2
Hg0 I6 2.766652 1_555
Hg0 I9 2.789755 1_555
Hg0 I5 2.901257 1_565
Hg0 I7 3.086554 1_555
Hg1 I4 2.766652 1_555
Hg1 I0 2.789755 1_555
Hg1 I1 2.901257 1_555
Hg1 I3 3.086554 1_555
Hg2 I2 2.766652 1_555
Hg2 I8 2.789755 1_555
Hg2 I3 2.901257 1_545
Hg2 I1 3.086554 1_555
Hg3 I10 2.766652 1_555
Hg3 I11 2.789755 1_555
Hg3 I7 2.901257 1_555
Hg3 I5 3.086554 1_555
H8 N3 1.039045 1_555
H15 N2 1.039045 1_555
H29 N0 1.039045 1_555
H33 N1 1.039045 1_555
C0 H13 1.094836 1_555
C0 H7 1.095485 1_555
C0 H9 1.096096 1_555
C0 N1 1.497766 1_555
C1 H16 1.095193 1_555
C1 H10 1.095315 1_555
C1 H25 1.096243 1_555
C1 N0 1.496949 1_555
C2 H23 1.095193 1_555
C2 H24 1.095315 1_555
C2 H34 1.096243 1_555
C2 N3 1.496949 1_555
C3 H32 1.095508 1_555
C3 H31 1.095536 1_555
C3 H30 1.096469 1_555
C3 N0 1.496787 1_555
C4 H35 1.095508 1_555
C4 H18 1.095536 1_555
C4 H21 1.096469 1_555
C4 N1 1.496787 1_555
C5 H5 1.095508 1_555
C5 H38 1.095536 1_555
C5 H12 1.096469 1_455
C5 N2 1.496787 1_455
C6 H22 1.095193 1_555
C6 H28 1.095315 1_555
C6 H20 1.096243 1_555
C6 N2 1.496949 1_555
C7 H0 1.094836 1_555
C7 H1 1.095485 1_555
C7 H3 1.096096 1_555
C7 N0 1.497766 1_555
C8 H6 1.094836 1_555
C8 H11 1.095485 1_555
C8 H2 1.096096 1_555
C8 N3 1.497766 1_555
C9 H14 1.094836 1_555
C9 H37 1.095485 1_555
C9 H4 1.096096 1_555
C9 N2 1.497766 1_555
C10 H36 1.095508 1_555
C10 H27 1.095536 1_555
C10 H39 1.096469 1_655
C10 N3 1.496787 1_655
C11 H17 1.095193 1_555
C11 H26 1.095315 1_555
C11 H19 1.096243 1_555
C11 N1 1.496949 1_555
