# generated using pymatgen
data_AlV2O4
_symmetry_space_group_name_H-M   'P 1'
_cell_length_a   5.80790787
_cell_length_b   5.80790787
_cell_length_c   5.80790734
_cell_angle_alpha   61.16213114
_cell_angle_beta   61.16213095
_cell_angle_gamma   61.16213672
_symmetry_Int_Tables_number   1
_chemical_formula_structural   AlV2O4
_chemical_formula_sum   'Al2 V4 O8'
_cell_volume   142.15237871
_cell_formula_units_Z   2
loop_
 _symmetry_equiv_pos_site_id
 _symmetry_equiv_pos_as_xyz
  1  'x, y, z'
loop_
 _atom_site_type_symbol
 _atom_site_label
 _atom_site_symmetry_multiplicity
 _atom_site_fract_x
 _atom_site_fract_y
 _atom_site_fract_z
 _atom_site_occupancy
  Al  Al0  1  0.62341000  0.62341000  0.62341000  1
  Al  Al1  1  0.37659000  0.37659000  0.37659000  1
  V  V0  1  0.00000000  0.50000000  0.00000000  1
  V  V1  1  0.00000000  0.00000000  0.00000000  1
  V  V2  1  0.50000000  0.00000000  0.00000000  1
  V  V3  1  0.00000000  0.00000000  0.50000000  1
  O  O0  1  0.25369700  0.74777500  0.74777500  1
  O  O1  1  0.25222500  0.25222500  0.74630300  1
  O  O2  1  0.25222500  0.74630300  0.25222500  1
  O  O3  1  0.24885500  0.24885500  0.24885500  1
  O  O4  1  0.74777500  0.74777500  0.25369700  1
  O  O5  1  0.74630300  0.25222500  0.25222500  1
  O  O6  1  0.74777500  0.25369700  0.74777500  1
  O  O7  1  0.75114500  0.75114500  0.75114500  1
loop_
_geom_bond_atom_site_label_1
_geom_bond_atom_site_label_2
_geom_bond_distance
_geom_bond_site_symmetry_2
Al0 O4 1.779076 1_555
Al0 O0 1.779077 1_555
Al0 O6 1.779077 1_555
Al0 O7 1.801086 1_555
Al1 O1 1.779076 1_555
Al1 O5 1.779077 1_555
Al1 O2 1.779077 1_555
Al1 O3 1.801086 1_555
O0 V0 2.077869 1_556
O0 V3 2.077869 1_565
O0 V1 2.090130 1_566
O1 V0 2.077869 1_556
O1 V2 2.077869 1_556
O1 V1 2.090130 1_556
O2 V2 2.077869 1_565
O2 V3 2.077869 1_565
O2 V1 2.090130 1_565
O3 V3 2.062350 1_555
O3 V2 2.062350 1_555
O3 V0 2.062350 1_555
O4 V0 2.077869 1_655
O4 V2 2.077869 1_565
O4 V1 2.090130 1_665
O5 V0 2.077869 1_655
O5 V3 2.077869 1_655
O5 V1 2.090130 1_655
O6 V2 2.077869 1_556
O6 V3 2.077869 1_655
O6 V1 2.090130 1_656
O7 V3 2.062350 1_665
O7 V2 2.062350 1_566
O7 V0 2.062350 1_656
