# generated using pymatgen
data_Ba3La2C5O15F2
_symmetry_space_group_name_H-M   'P 1'
_cell_length_a   11.15740616
_cell_length_b   11.15740616
_cell_length_c   13.45679931
_cell_angle_alpha   85.33718096
_cell_angle_beta   85.33718096
_cell_angle_gamma   26.75833530
_symmetry_Int_Tables_number   1
_chemical_formula_structural   Ba3La2C5O15F2
_chemical_formula_sum   'Ba6 La4 C10 O30 F4'
_cell_volume   751.58760973
_cell_formula_units_Z   2
loop_
 _symmetry_equiv_pos_site_id
 _symmetry_equiv_pos_as_xyz
  1  'x, y, z'
loop_
 _atom_site_type_symbol
 _atom_site_label
 _atom_site_symmetry_multiplicity
 _atom_site_fract_x
 _atom_site_fract_y
 _atom_site_fract_z
 _atom_site_occupancy
  Ba  Ba0  1  0.68629100  0.68629100  0.90464600  1
  Ba  Ba1  1  0.00000000  0.00000000  0.00000000  1
  Ba  Ba2  1  0.31370900  0.31370900  0.09535400  1
  Ba  Ba3  1  0.19244700  0.19244700  0.39998700  1
  Ba  Ba4  1  0.80755300  0.80755300  0.60001300  1
  Ba  Ba5  1  0.50000000  0.50000000  0.50000000  1
  La  La0  1  0.10560700  0.10560700  0.71184900  1
  La  La1  1  0.89439300  0.89439300  0.28815100  1
  La  La2  1  0.60003600  0.60003600  0.18506300  1
  La  La3  1  0.39996400  0.39996400  0.81493700  1
  C  C0  1  0.54148000  0.54148000  0.80010600  1
  C  C1  1  0.04817500  0.04817500  0.35377400  1
  C  C2  1  0.24637900  0.24637900  0.72483100  1
  C  C3  1  0.65033800  0.65033800  0.53991800  1
  C  C4  1  0.95182500  0.95182500  0.64622600  1
  C  C5  1  0.45852000  0.45852000  0.19989400  1
  C  C6  1  0.34966200  0.34966200  0.46008200  1
  C  C7  1  0.16091400  0.16091400  0.09708200  1
  C  C8  1  0.83908600  0.83908600  0.90291800  1
  C  C9  1  0.75362100  0.75362100  0.27516900  1
  O  O0  1  0.56807900  0.00061700  0.27515500  1
  O  O1  1  0.29442000  0.29442000  0.50342900  1
  O  O2  1  0.43192100  0.99938300  0.72484500  1
  O  O3  1  0.99028800  0.99028800  0.38601300  1
  O  O4  1  0.89721400  0.89721400  0.86867700  1
  O  O5  1  0.26961800  0.70524400  0.18613300  1
  O  O6  1  0.40058300  0.40058300  0.23354500  1
  O  O7  1  0.29582200  0.85966200  0.34110700  1
  O  O8  1  0.70524400  0.26961800  0.18613300  1
  O  O9  1  0.85966200  0.29582200  0.34110700  1
  O  O10  1  0.40368000  0.83908400  0.55891800  1
  O  O11  1  0.99938300  0.43192100  0.72484500  1
  O  O12  1  0.70417800  0.14033800  0.65889300  1
  O  O13  1  0.59632000  0.16091600  0.44108200  1
  O  O14  1  0.10278600  0.10278600  0.13132300  1
  O  O15  1  0.02958800  0.59165500  0.91684400  1
  O  O16  1  0.73038200  0.29475600  0.81386700  1
  O  O17  1  0.97041200  0.40834500  0.08315600  1
  O  O18  1  0.16091600  0.59632000  0.44108200  1
  O  O19  1  0.00971200  0.00971200  0.61398700  1
  O  O20  1  0.30605900  0.30605900  0.72017900  1
  O  O21  1  0.29475600  0.73038200  0.81386700  1
  O  O22  1  0.59941700  0.59941700  0.76645500  1
  O  O23  1  0.70558000  0.70558000  0.49657100  1
  O  O24  1  0.14033800  0.70417800  0.65889300  1
  O  O25  1  0.00061700  0.56807900  0.27515500  1
  O  O26  1  0.40834500  0.97041200  0.08315600  1
  O  O27  1  0.83908400  0.40368000  0.55891800  1
  O  O28  1  0.69394100  0.69394100  0.27982100  1
  O  O29  1  0.59165500  0.02958800  0.91684400  1
  F  F0  1  0.57362600  0.57362600  0.01664300  1
  F  F1  1  0.12533600  0.12533600  0.88543300  1
  F  F2  1  0.42637400  0.42637400  0.98335700  1
  F  F3  1  0.87466400  0.87466400  0.11456700  1
loop_
_geom_bond_atom_site_label_1
_geom_bond_atom_site_label_2
_geom_bond_distance
_geom_bond_site_symmetry_2
Ba0 O22 2.757012 1_555
Ba0 F0 2.763628 1_556
Ba0 O26 2.812044 1_556
Ba0 O17 2.812044 1_556
Ba0 O11 2.854667 1_555
Ba0 O2 2.854667 1_555
Ba0 F1 2.922427 1_565
Ba0 F1 2.922427 1_655
Ba0 O29 2.943560 1_565
Ba0 O15 2.943560 1_655
Ba1 O16 2.890866 1_454
Ba1 O21 2.890866 1_544
Ba1 O5 2.890866 1_545
Ba1 O8 2.890866 1_455
Ba1 O14 2.959916 1_555
Ba1 O4 2.959916 1_444
Ba1 F3 3.013194 1_445
Ba1 F1 3.013194 1_554
Ba1 F0 3.054541 1_545
Ba1 F0 3.054541 1_455
Ba1 F2 3.054541 1_454
Ba1 F2 3.054541 1_544
Ba2 O6 2.757012 1_555
Ba2 F2 2.763628 1_554
Ba2 O29 2.812044 1_554
Ba2 O15 2.812044 1_554
Ba2 O25 2.854667 1_555
Ba2 O0 2.854667 1_555
Ba2 F3 2.922427 1_545
Ba2 F3 2.922427 1_455
Ba2 O26 2.943560 1_545
Ba2 O17 2.943560 1_455
Ba3 O1 2.711704 1_555
Ba3 O25 2.896300 1_555
Ba3 O0 2.896300 1_555
Ba3 O9 2.902826 1_455
Ba3 O7 2.902826 1_545
Ba3 O23 2.915123 1_455
Ba3 O23 2.915123 1_545
Ba3 O27 2.920189 1_455
Ba3 O10 2.920189 1_545
Ba3 O28 3.045097 1_455
Ba3 O28 3.045097 1_545
Ba4 O23 2.711704 1_555
Ba4 O2 2.896300 1_555
Ba4 O11 2.896300 1_555
Ba4 O24 2.902826 1_655
Ba4 O12 2.902826 1_565
Ba4 O1 2.915123 1_655
Ba4 O1 2.915123 1_565
Ba4 O18 2.920189 1_655
Ba4 O13 2.920189 1_565
Ba4 O20 3.045097 1_565
Ba4 O20 3.045097 1_655
Ba5 O7 2.989353 1_555
Ba5 O9 2.989353 1_555
Ba5 O24 2.989353 1_555
Ba5 O12 2.989353 1_555
Ba5 O19 3.019409 1_565
Ba5 O19 3.019409 1_655
Ba5 O3 3.019409 1_545
Ba5 O3 3.019409 1_455
Ba5 O10 3.030702 1_555
Ba5 O27 3.030702 1_555
Ba5 O18 3.030702 1_555
Ba5 O13 3.030702 1_555
La0 O27 2.521795 1_455
La0 O10 2.521795 1_545
La0 O19 2.554666 1_555
La0 O11 2.656070 1_455
La0 O2 2.656070 1_545
La0 O22 2.684585 1_545
La0 O22 2.684585 1_455
La0 O16 2.761136 1_455
La0 O21 2.761136 1_545
La1 O18 2.521795 1_655
La1 O13 2.521795 1_565
La1 O3 2.554666 1_555
La1 O25 2.656070 1_655
La1 O0 2.656070 1_565
La1 O6 2.684585 1_565
La1 O6 2.684585 1_655
La1 O5 2.761136 1_655
La1 O8 2.761136 1_565
La2 O28 2.493251 1_555
La2 O9 2.567653 1_555
La2 O7 2.567653 1_555
La2 O14 2.680448 1_655
La2 O14 2.680448 1_565
La2 O8 2.689818 1_555
La2 O5 2.689818 1_555
La2 O17 2.702535 1_555
La2 O26 2.702535 1_555
La3 O20 2.493251 1_555
La3 O12 2.567653 1_555
La3 O24 2.567653 1_555
La3 O4 2.680448 1_545
La3 O4 2.680448 1_455
La3 O16 2.689818 1_555
La3 O21 2.689818 1_555
La3 O15 2.702535 1_555
La3 O29 2.702535 1_555
C0 O21 1.293716 1_555
C0 O16 1.293716 1_555
C0 O22 1.300711 1_555
C1 O3 1.294737 1_445
C1 O7 1.300302 1_545
C1 O9 1.300302 1_455
C2 O20 1.291881 1_555
C2 O11 1.300763 1_455
C2 O2 1.300763 1_545
C3 O23 1.289018 1_555
C3 O10 1.302798 1_555
C3 O27 1.302798 1_555
C4 O19 1.294737 1_665
C4 O12 1.300302 1_565
C4 O24 1.300302 1_655
C5 O5 1.293716 1_555
C5 O8 1.293716 1_555
C5 O6 1.300711 1_555
C6 O1 1.289018 1_555
C6 O18 1.302798 1_555
C6 O13 1.302798 1_555
C7 O26 1.294588 1_545
C7 O17 1.294588 1_455
C7 O14 1.306737 1_555
C8 O15 1.294588 1_655
C8 O29 1.294588 1_565
C8 O4 1.306737 1_555
C9 O28 1.291881 1_555
C9 O25 1.300763 1_655
C9 O0 1.300763 1_565
F0 La2 2.383782 1_555
F1 La0 2.409771 1_555
F2 La3 2.383782 1_555
F3 La1 2.409771 1_555
