# generated using pymatgen
data_GdTlS2
_symmetry_space_group_name_H-M   'P 1'
_cell_length_a   7.84656462
_cell_length_b   7.84656462
_cell_length_c   7.84656530
_cell_angle_alpha   30.04252095
_cell_angle_beta   30.04252095
_cell_angle_gamma   30.04250871
_symmetry_Int_Tables_number   1
_chemical_formula_structural   GdTlS2
_chemical_formula_sum   'Gd1 Tl1 S2'
_cell_volume   107.26261138
_cell_formula_units_Z   1
loop_
 _symmetry_equiv_pos_site_id
 _symmetry_equiv_pos_as_xyz
  1  'x, y, z'
loop_
 _atom_site_type_symbol
 _atom_site_label
 _atom_site_symmetry_multiplicity
 _atom_site_fract_x
 _atom_site_fract_y
 _atom_site_fract_z
 _atom_site_occupancy
  Gd  Gd0  1  -0.00000000  -0.00000000  0.00000000  1
  Tl  Tl0  1  0.50000000  0.50000000  0.50000000  1
  S  S0  1  0.73334966  0.73334966  0.73334966  1
  S  S1  1  0.26665034  0.26665034  0.26665034  1
loop_
_geom_bond_atom_site_label_1
_geom_bond_atom_site_label_2
_geom_bond_distance
_geom_bond_site_symmetry_2
Gd0 S1 2.785245 1_455
Gd0 S0 2.785245 1_454
Gd0 S0 2.785245 1_544
Gd0 S1 2.785245 1_545
Gd0 S1 2.785246 1_554
Gd0 S0 2.785246 1_445
S0 Tl0 3.249239 1_655
S0 Tl0 3.249239 1_565
S0 Tl0 3.249240 1_556
S1 Tl0 3.249239 1_455
S1 Tl0 3.249239 1_545
S1 Tl0 3.249240 1_554
