# generated using pymatgen
data_Al2SnCl6O
_symmetry_space_group_name_H-M   'P 1'
_cell_length_a   12.62857100
_cell_length_b   9.57824400
_cell_length_c   12.82734010
_cell_angle_alpha   48.61420761
_cell_angle_beta   90.00000000
_cell_angle_gamma   90.00000000
_symmetry_Int_Tables_number   1
_chemical_formula_structural   Al2SnCl6O
_chemical_formula_sum   'Al8 Sn4 Cl24 O4'
_cell_volume   1164.11855082
_cell_formula_units_Z   4
loop_
 _symmetry_equiv_pos_site_id
 _symmetry_equiv_pos_as_xyz
  1  'x, y, z'
loop_
 _atom_site_type_symbol
 _atom_site_label
 _atom_site_symmetry_multiplicity
 _atom_site_fract_x
 _atom_site_fract_y
 _atom_site_fract_z
 _atom_site_occupancy
  Al  Al0  1  0.10822700  0.63541800  0.72545800  1
  Al  Al1  1  0.39177300  0.63541800  0.22545800  1
  Al  Al2  1  0.00744100  0.04663700  0.57736400  1
  Al  Al3  1  0.89177300  0.36458200  0.27454200  1
  Al  Al4  1  0.99255900  0.95336300  0.42263600  1
  Al  Al5  1  0.49255900  0.04663700  0.07736400  1
  Al  Al6  1  0.60822700  0.36458200  0.77454200  1
  Al  Al7  1  0.50744100  0.95336300  0.92263600  1
  Sn  Sn0  1  0.97722800  0.21971000  0.79649600  1
  Sn  Sn1  1  0.52277200  0.21971000  0.29649600  1
  Sn  Sn2  1  0.02277200  0.78029000  0.20350400  1
  Sn  Sn3  1  0.47722800  0.78029000  0.70350400  1
  Cl  Cl0  1  0.16686100  0.51522900  0.64311400  1
  Cl  Cl1  1  0.27734400  0.67273500  0.32692300  1
  Cl  Cl2  1  0.13350500  0.01069000  0.96783200  1
  Cl  Cl3  1  0.77734400  0.32726500  0.17307700  1
  Cl  Cl4  1  0.63350500  0.98931000  0.53216800  1
  Cl  Cl5  1  0.01785600  0.55673200  0.13089300  1
  Cl  Cl6  1  0.98214400  0.44326800  0.86910700  1
  Cl  Cl7  1  0.22265600  0.67273500  0.82692300  1
  Cl  Cl8  1  0.48214400  0.55673200  0.63089300  1
  Cl  Cl9  1  0.87816700  0.77266300  0.44568500  1
  Cl  Cl10  1  0.09704400  0.04966500  0.25539600  1
  Cl  Cl11  1  0.37816700  0.22733700  0.05431500  1
  Cl  Cl12  1  0.59704400  0.95033500  0.24460400  1
  Cl  Cl13  1  0.86649500  0.98931000  0.03216800  1
  Cl  Cl14  1  0.40295600  0.04966500  0.75539600  1
  Cl  Cl15  1  0.12183300  0.22733700  0.55431500  1
  Cl  Cl16  1  0.33313900  0.51522900  0.14311400  1
  Cl  Cl17  1  0.36649500  0.01069000  0.46783200  1
  Cl  Cl18  1  0.90295600  0.95033500  0.74460400  1
  Cl  Cl19  1  0.62183300  0.77266300  0.94568500  1
  Cl  Cl20  1  0.51785600  0.44326800  0.36910700  1
  Cl  Cl21  1  0.83313900  0.48477100  0.35688600  1
  Cl  Cl22  1  0.72265600  0.32726500  0.67307700  1
  Cl  Cl23  1  0.66686100  0.48477100  0.85688600  1
  O  O0  1  0.94855900  0.14329300  0.41198700  1
  O  O1  1  0.55144100  0.14329300  0.91198700  1
  O  O2  1  0.44855900  0.85670700  0.08801300  1
  O  O3  1  0.05144100  0.85670700  0.58801300  1
loop_
_geom_bond_atom_site_label_1
_geom_bond_atom_site_label_2
_geom_bond_distance
_geom_bond_site_symmetry_2
Al0 O3 1.781584 1_555
Al0 Cl7 2.127225 1_555
Al0 Cl0 2.144067 1_555
Al0 Cl6 2.198568 1_455
Al1 O2 1.781584 1_555
Al1 Cl1 2.127225 1_555
Al1 Cl16 2.144067 1_555
Al1 Cl20 2.198568 1_555
Al2 O3 1.818876 1_545
Al2 O0 1.820256 1_455
Al2 Cl15 2.119743 1_555
Al2 Cl18 2.139515 1_445
Al3 O0 1.781584 1_555
Al3 Cl3 2.127225 1_555
Al3 Cl21 2.144067 1_555
Al3 Cl5 2.198568 1_655
Al4 O0 1.818876 1_565
Al4 O3 1.820256 1_655
Al4 Cl9 2.119743 1_555
Al4 Cl10 2.139515 1_665
Al5 O2 1.818876 1_545
Al5 O1 1.820256 1_554
Al5 Cl11 2.119743 1_555
Al5 Cl12 2.139515 1_545
Al6 O1 1.781584 1_555
Al6 Cl22 2.127225 1_555
Al6 Cl23 2.144067 1_555
Al6 Cl8 2.198568 1_555
Al7 O1 1.818876 1_565
Al7 O2 1.820256 1_556
Al7 Cl19 2.119743 1_555
Al7 Cl14 2.139515 1_565
Cl2 Sn0 2.629709 1_455
Cl2 Sn2 2.672680 1_546
Cl4 Sn3 2.629709 1_555
Cl4 Sn1 2.672680 1_565
Cl5 Sn2 2.844929 1_555
Cl6 Sn0 2.844929 1_555
Cl8 Sn3 2.844929 1_555
Cl13 Sn2 2.629709 1_655
Cl13 Sn0 2.672680 1_564
Cl17 Sn1 2.629709 1_555
Cl17 Sn3 2.672680 1_545
Cl20 Sn1 2.844929 1_555
