# generated using pymatgen
data_YbInCu4
_symmetry_space_group_name_H-M   'P 1'
_cell_length_a   5.07352792
_cell_length_b   5.07352792
_cell_length_c   5.07352792
_cell_angle_alpha   60.00000000
_cell_angle_beta   60.00000000
_cell_angle_gamma   60.00000000
_symmetry_Int_Tables_number   1
_chemical_formula_structural   YbInCu4
_chemical_formula_sum   'Yb1 In1 Cu4'
_cell_volume   92.34537885
_cell_formula_units_Z   1
loop_
 _symmetry_equiv_pos_site_id
 _symmetry_equiv_pos_as_xyz
  1  'x, y, z'
loop_
 _atom_site_type_symbol
 _atom_site_label
 _atom_site_symmetry_multiplicity
 _atom_site_fract_x
 _atom_site_fract_y
 _atom_site_fract_z
 _atom_site_occupancy
  Yb  Yb0  1  0.75000000  0.75000000  0.75000000  1
  In  In0  1  0.00000000  0.00000000  0.00000000  1
  Cu  Cu0  1  0.37469200  0.37469200  0.37469200  1
  Cu  Cu1  1  0.37469200  0.87592400  0.37469200  1
  Cu  Cu2  1  0.37469200  0.37469200  0.87592400  1
  Cu  Cu3  1  0.87592400  0.37469200  0.37469200  1
loop_
_geom_bond_atom_site_label_1
_geom_bond_atom_site_label_2
_geom_bond_distance
_geom_bond_site_symmetry_2
In0 Yb0 3.106889 1_544
In0 Yb0 3.106889 1_454
In0 Yb0 3.106889 1_444
In0 Yb0 3.106889 1_445
Cu0 Cu3 2.530513 1_455
Cu0 Cu1 2.530513 1_545
Cu0 Cu2 2.530513 1_554
Cu0 Cu2 2.543015 1_555
Cu0 Cu3 2.543015 1_555
Cu0 Cu1 2.543015 1_555
Cu0 In0 2.973955 1_556
Cu0 In0 2.973955 1_565
Cu0 In0 2.973955 1_655
Cu0 Yb0 2.975288 1_455
Cu0 Yb0 2.975288 1_545
Cu0 Yb0 2.975288 1_554
Cu1 Cu2 2.530513 1_564
Cu1 Cu3 2.530513 1_465
Cu1 Cu2 2.543015 1_555
Cu1 Cu3 2.543015 1_555
Cu1 In0 2.973955 1_566
Cu1 In0 2.973955 1_665
Cu1 In0 2.973955 1_565
Cu1 Yb0 2.975288 1_555
Cu1 Yb0 2.975288 1_554
Cu1 Yb0 2.975288 1_455
Cu2 Cu3 2.530513 1_456
Cu2 Cu3 2.543015 1_555
Cu2 In0 2.973955 1_566
Cu2 In0 2.973955 1_656
Cu2 In0 2.973955 1_556
Cu2 Yb0 2.975288 1_555
Cu2 Yb0 2.975288 1_545
Cu2 Yb0 2.975288 1_455
Cu3 In0 2.973955 1_665
Cu3 In0 2.973955 1_656
Cu3 In0 2.973955 1_655
Cu3 Yb0 2.975288 1_555
Cu3 Yb0 2.975288 1_545
Cu3 Yb0 2.975288 1_554
