# generated using pymatgen
data_Na2U2Si(O4F)2
_symmetry_space_group_name_H-M   'P 1'
_cell_length_a   10.53454832
_cell_length_b   10.53454832
_cell_length_c   10.53454832
_cell_angle_alpha   141.02614173
_cell_angle_beta   141.02614173
_cell_angle_gamma   56.29851241
_symmetry_Int_Tables_number   1
_chemical_formula_structural   Na2U2Si(O4F)2
_chemical_formula_sum   'Na4 U4 Si2 O16 F4'
_cell_volume   458.84921016
_cell_formula_units_Z   2
loop_
 _symmetry_equiv_pos_site_id
 _symmetry_equiv_pos_as_xyz
  1  'x, y, z'
loop_
 _atom_site_type_symbol
 _atom_site_label
 _atom_site_symmetry_multiplicity
 _atom_site_fract_x
 _atom_site_fract_y
 _atom_site_fract_z
 _atom_site_occupancy
  Na  Na0  1  0.37500000  0.12500000  0.25000000  1
  Na  Na1  1  0.87500000  0.12500000  0.25000000  1
  Na  Na2  1  0.87500000  0.12500000  0.75000000  1
  Na  Na3  1  0.87500000  0.62500000  0.75000000  1
  U  U0  1  0.67374100  0.67374100  0.00000000  1
  U  U1  1  0.07625900  0.57625900  0.50000000  1
  U  U2  1  0.42374100  0.92374100  0.50000000  1
  U  U3  1  0.32625900  0.32625900  0.00000000  1
  Si  Si0  1  0.25000000  0.75000000  0.50000000  1
  Si  Si1  1  0.50000000  0.50000000  0.00000000  1
  O  O0  1  0.44245700  0.61939100  0.17693400  1
  O  O1  1  0.36939100  0.69245700  0.67693400  1
  O  O2  1  0.67269500  0.93485000  0.26215500  1
  O  O3  1  0.58946000  0.32730500  0.26215500  1
  O  O4  1  0.07730500  0.83946000  0.76215500  1
  O  O5  1  0.38060900  0.55754300  0.82306600  1
  O  O6  1  0.06515000  0.32730500  0.73784500  1
  O  O7  1  0.44245700  0.26552300  0.82306600  1
  O  O8  1  0.68485000  0.92269500  0.76215500  1
  O  O9  1  0.01552300  0.69245700  0.32306600  1
  O  O10  1  0.16054000  0.92269500  0.23784500  1
  O  O11  1  0.30754300  0.98447700  0.67693400  1
  O  O12  1  0.67269500  0.41054000  0.73784500  1
  O  O13  1  0.30754300  0.63060900  0.32306600  1
  O  O14  1  0.73447700  0.55754300  0.17693400  1
  O  O15  1  0.07730500  0.31515000  0.23784500  1
  F  F0  1  0.95727600  0.45727600  0.50000000  1
  F  F1  1  0.54272400  0.04272400  0.50000000  1
  F  F2  1  0.79272400  0.79272400  0.00000000  1
  F  F3  1  0.20727600  0.20727600  0.00000000  1
loop_
_geom_bond_atom_site_label_1
_geom_bond_atom_site_label_2
_geom_bond_distance
_geom_bond_site_symmetry_2
Na0 O2 2.582066 1_545
Na0 O12 2.582066 1_555
Na0 O15 2.582066 1_555
Na0 O4 2.582066 1_544
Na1 O3 2.582066 1_555
Na1 O6 2.582066 1_655
Na1 O10 2.582066 1_645
Na1 O8 2.582066 1_544
Na2 O4 2.582066 1_645
Na2 O15 2.582066 1_656
Na2 O12 2.582066 1_555
Na2 O2 2.582066 1_545
Na3 O8 2.582066 1_555
Na3 O10 2.582066 1_656
Na3 O6 2.582066 1_655
Na3 O3 2.582066 1_555
O0 Si1 1.639879 1_555
O0 U2 2.297127 1_555
O0 U3 2.491209 1_555
O1 Si0 1.639879 1_555
O1 U0 2.297127 1_556
O1 U1 2.491209 1_555
O2 U0 1.842653 1_555
O3 U3 1.842653 1_555
O4 U1 1.842653 1_555
O5 Si1 1.639879 1_556
O5 U1 2.297127 1_555
O5 U0 2.491209 1_556
O6 U3 1.842653 1_556
O7 Si1 1.639879 1_556
O7 U2 2.297127 1_545
O7 U3 2.491209 1_556
O8 U2 1.842653 1_555
O9 Si0 1.639879 1_555
O9 U0 2.297127 1_455
O9 U1 2.491209 1_555
O10 U2 1.842653 1_555
O11 Si0 1.639879 1_555
O11 U3 2.297127 1_566
O11 U2 2.491209 1_555
O12 U0 1.842653 1_556
O13 Si0 1.639879 1_555
O13 U3 2.297127 1_555
O13 U2 2.491209 1_555
O14 Si1 1.639879 1_555
O14 U1 2.297127 1_655
O14 U0 2.491209 1_555
O15 U1 1.842653 1_555
F0 U1 2.210356 1_655
F0 Na1 2.328867 1_555
F0 Na3 2.328867 1_555
F1 U2 2.210356 1_545
F1 Na0 2.328867 1_555
F1 Na2 2.328867 1_555
F2 U0 2.210356 1_555
F2 Na3 2.328867 1_554
F2 Na1 2.328867 1_565
F3 U3 2.210356 1_555
F3 Na0 2.328867 1_555
F3 Na2 2.328867 1_454
