# generated using pymatgen
data_RbNaMo3O10
_symmetry_space_group_name_H-M   'P 1'
_cell_length_a   7.72239500
_cell_length_b   7.82897500
_cell_length_c   15.83312000
_cell_angle_alpha   90.00000000
_cell_angle_beta   90.00000000
_cell_angle_gamma   90.00000000
_symmetry_Int_Tables_number   1
_chemical_formula_structural   RbNaMo3O10
_chemical_formula_sum   'Rb4 Na4 Mo12 O40'
_cell_volume   957.24569429
_cell_formula_units_Z   4
loop_
 _symmetry_equiv_pos_site_id
 _symmetry_equiv_pos_as_xyz
  1  'x, y, z'
loop_
 _atom_site_type_symbol
 _atom_site_label
 _atom_site_symmetry_multiplicity
 _atom_site_fract_x
 _atom_site_fract_y
 _atom_site_fract_z
 _atom_site_occupancy
  Rb  Rb0  1  0.75000000  0.14099400  0.14576300  1
  Rb  Rb1  1  0.25000000  0.85900600  0.85423700  1
  Rb  Rb2  1  0.75000000  0.64099400  0.35423700  1
  Rb  Rb3  1  0.25000000  0.35900600  0.64576300  1
  Na  Na0  1  0.75000000  0.06232500  0.77658200  1
  Na  Na1  1  0.25000000  0.43767500  0.27658200  1
  Na  Na2  1  0.75000000  0.56232500  0.72341800  1
  Na  Na3  1  0.25000000  0.93767500  0.22341800  1
  Mo  Mo0  1  0.00067600  0.11032900  0.39853700  1
  Mo  Mo1  1  0.75000000  0.73750700  0.94401400  1
  Mo  Mo2  1  0.50067600  0.88967100  0.60146300  1
  Mo  Mo3  1  0.25000000  0.76249300  0.44401400  1
  Mo  Mo4  1  0.49932400  0.11032900  0.39853700  1
  Mo  Mo5  1  0.25000000  0.26249300  0.05598600  1
  Mo  Mo6  1  0.99932400  0.88967100  0.60146300  1
  Mo  Mo7  1  0.75000000  0.23750700  0.55598600  1
  Mo  Mo8  1  0.99932400  0.38967100  0.89853700  1
  Mo  Mo9  1  0.00067600  0.61032900  0.10146300  1
  Mo  Mo10  1  0.49932400  0.61032900  0.10146300  1
  Mo  Mo11  1  0.50067600  0.38967100  0.89853700  1
  O  O0  1  0.98615600  0.65572500  0.96401000  1
  O  O1  1  0.51384400  0.65572500  0.96401000  1
  O  O2  1  0.46697600  0.49603900  0.80235300  1
  O  O3  1  0.47101200  0.82274800  0.13113000  1
  O  O4  1  0.75000000  0.44127000  0.91151200  1
  O  O5  1  0.03302400  0.99603900  0.69764700  1
  O  O6  1  0.48615600  0.84427500  0.46401000  1
  O  O7  1  0.75000000  0.27898700  0.66622700  1
  O  O8  1  0.75000000  0.43732800  0.50945700  1
  O  O9  1  0.03302400  0.49603900  0.80235300  1
  O  O10  1  0.75000000  0.61427500  0.07321700  1
  O  O11  1  0.75000000  0.94127000  0.58848800  1
  O  O12  1  0.53302400  0.00396100  0.30235300  1
  O  O13  1  0.02898800  0.32274800  0.36887000  1
  O  O14  1  0.97101200  0.17725200  0.86887000  1
  O  O15  1  0.75000000  0.93732800  0.99054300  1
  O  O16  1  0.53302400  0.50396100  0.19764700  1
  O  O17  1  0.51384400  0.15572500  0.53599000  1
  O  O18  1  0.02898800  0.82274800  0.13113000  1
  O  O19  1  0.96697600  0.00396100  0.30235300  1
  O  O20  1  0.52898800  0.17725200  0.86887000  1
  O  O21  1  0.25000000  0.55873000  0.08848800  1
  O  O22  1  0.48615600  0.34427500  0.03599000  1
  O  O23  1  0.01384400  0.34427500  0.03599000  1
  O  O24  1  0.25000000  0.06267200  0.00945700  1
  O  O25  1  0.25000000  0.72101300  0.33377300  1
  O  O26  1  0.25000000  0.22101300  0.16622700  1
  O  O27  1  0.96697600  0.50396100  0.19764700  1
  O  O28  1  0.75000000  0.77898700  0.83377300  1
  O  O29  1  0.98615600  0.15572500  0.53599000  1
  O  O30  1  0.25000000  0.05873000  0.41151200  1
  O  O31  1  0.47101200  0.32274800  0.36887000  1
  O  O32  1  0.01384400  0.84427500  0.46401000  1
  O  O33  1  0.75000000  0.11427500  0.42678300  1
  O  O34  1  0.25000000  0.88572500  0.57321700  1
  O  O35  1  0.25000000  0.38572500  0.92678300  1
  O  O36  1  0.25000000  0.56267200  0.49054300  1
  O  O37  1  0.52898800  0.67725200  0.63113000  1
  O  O38  1  0.97101200  0.67725200  0.63113000  1
  O  O39  1  0.46697600  0.99603900  0.69764700  1
loop_
_geom_bond_atom_site_label_1
_geom_bond_atom_site_label_2
_geom_bond_distance
_geom_bond_site_symmetry_2
Na0 O28 2.395948 1_545
Na0 O14 2.420261 1_555
Na0 O20 2.420261 1_555
Na0 O7 2.435193 1_555
Na0 O5 2.570647 1_645
Na0 O39 2.570647 1_545
Na1 O25 2.395948 1_555
Na1 O31 2.420261 1_555
Na1 O13 2.420261 1_555
Na1 O26 2.435193 1_555
Na1 O16 2.570647 1_555
Na1 O27 2.570647 1_455
Na2 O7 2.395948 1_555
Na2 O37 2.420261 1_555
Na2 O38 2.420261 1_555
Na2 O28 2.435193 1_555
Na2 O9 2.570647 1_655
Na2 O2 2.570647 1_555
Na3 O26 2.395948 1_565
Na3 O3 2.420261 1_555
Na3 O18 2.420261 1_555
Na3 O25 2.435193 1_555
Na3 O12 2.570647 1_565
Na3 O19 2.570647 1_465
Mo0 O13 1.741863 1_555
Mo0 O19 1.755109 1_455
Mo0 O30 1.977998 1_555
Mo0 O33 1.987047 1_455
Mo0 O29 2.207988 1_455
Mo0 O32 2.328855 1_545
Mo1 O15 1.729177 1_555
Mo1 O28 1.775412 1_555
Mo1 O0 1.958577 1_555
Mo1 O1 1.958577 1_555
Mo1 O10 2.261777 1_556
Mo1 O4 2.375639 1_555
Mo2 O37 1.741863 1_555
Mo2 O39 1.755109 1_555
Mo2 O11 1.977998 1_555
Mo2 O34 1.987047 1_555
Mo2 O6 2.207988 1_555
Mo2 O17 2.328855 1_565
Mo3 O36 1.729177 1_555
Mo3 O25 1.775412 1_555
Mo3 O6 1.958577 1_555
Mo3 O32 1.958577 1_555
Mo3 O34 2.261777 1_555
Mo3 O30 2.375639 1_565
Mo4 O31 1.741863 1_555
Mo4 O12 1.755109 1_555
Mo4 O30 1.977998 1_555
Mo4 O33 1.987047 1_555
Mo4 O17 2.207988 1_555
Mo4 O6 2.328855 1_545
Mo5 O24 1.729177 1_555
Mo5 O26 1.775412 1_555
Mo5 O22 1.958577 1_555
Mo5 O23 1.958577 1_555
Mo5 O35 2.261777 1_554
Mo5 O21 2.375639 1_555
Mo6 O38 1.741863 1_555
Mo6 O5 1.755109 1_655
Mo6 O11 1.977998 1_555
Mo6 O34 1.987047 1_655
Mo6 O32 2.207988 1_655
Mo6 O29 2.328855 1_565
Mo7 O8 1.729177 1_555
Mo7 O7 1.775412 1_555
Mo7 O29 1.958577 1_555
Mo7 O17 1.958577 1_555
Mo7 O33 2.261777 1_555
Mo7 O11 2.375639 1_545
Mo8 O14 1.741863 1_555
Mo8 O9 1.755109 1_655
Mo8 O4 1.977998 1_555
Mo8 O35 1.987047 1_655
Mo8 O23 2.207988 1_656
Mo8 O0 2.328855 1_555
Mo9 O18 1.741863 1_555
Mo9 O27 1.755109 1_455
Mo9 O21 1.977998 1_555
Mo9 O10 1.987047 1_455
Mo9 O0 2.207988 1_454
Mo9 O23 2.328855 1_555
Mo10 O3 1.741863 1_555
Mo10 O16 1.755109 1_555
Mo10 O21 1.977998 1_555
Mo10 O10 1.987047 1_555
Mo10 O1 2.207988 1_554
Mo10 O22 2.328855 1_555
Mo11 O20 1.741863 1_555
Mo11 O2 1.755109 1_555
Mo11 O4 1.977998 1_555
Mo11 O35 1.987047 1_555
Mo11 O22 2.207988 1_556
Mo11 O1 2.328855 1_555
O0 Rb1 3.115296 1_655
O1 Rb1 3.115296 1_555
O2 Rb3 3.178912 1_555
O2 Rb1 3.399620 1_555
O3 Rb0 3.301989 1_565
O5 Rb1 3.178912 1_555
O5 Rb3 3.399620 1_565
O6 Rb2 3.115296 1_555
O8 Rb2 2.929556 1_555
O9 Rb3 3.178912 1_555
O9 Rb1 3.399620 1_555
O12 Rb0 3.178912 1_555
O12 Rb2 3.399620 1_545
O13 Rb2 3.301989 1_455
O14 Rb1 3.301989 1_645
O15 Rb0 2.929556 1_566
O16 Rb2 3.178912 1_555
O16 Rb0 3.399620 1_555
O17 Rb3 3.115296 1_555
O18 Rb0 3.301989 1_465
O19 Rb0 3.178912 1_555
O19 Rb2 3.399620 1_545
O20 Rb1 3.301989 1_545
O22 Rb0 3.115296 1_555
O23 Rb0 3.115296 1_455
O24 Rb1 2.929556 1_544
O27 Rb2 3.178912 1_555
O27 Rb0 3.399620 1_555
O29 Rb3 3.115296 1_655
O31 Rb2 3.301989 1_555
O32 Rb2 3.115296 1_455
O36 Rb3 2.929556 1_555
O37 Rb3 3.301989 1_555
O38 Rb3 3.301989 1_655
O39 Rb1 3.178912 1_555
O39 Rb3 3.399620 1_565
