# generated using pymatgen
data_Zn13Sb10
_symmetry_space_group_name_H-M   'P 1'
_cell_length_a   10.87381131
_cell_length_b   12.26031622
_cell_length_c   17.39873726
_cell_angle_alpha   110.16598525
_cell_angle_beta   98.36512533
_cell_angle_gamma   90.14135496
_symmetry_Int_Tables_number   1
_chemical_formula_structural   Zn13Sb10
_chemical_formula_sum   'Zn52 Sb40'
_cell_volume   2150.71866585
_cell_formula_units_Z   4
loop_
 _symmetry_equiv_pos_site_id
 _symmetry_equiv_pos_as_xyz
  1  'x, y, z'
loop_
 _atom_site_type_symbol
 _atom_site_label
 _atom_site_symmetry_multiplicity
 _atom_site_fract_x
 _atom_site_fract_y
 _atom_site_fract_z
 _atom_site_occupancy
  Zn  Zn0  1  0.35954515  0.28192358  0.00434839  1
  Zn  Zn1  1  0.06311060  0.55627666  0.78402974  1
  Zn  Zn2  1  0.59708773  0.03022827  0.73915851  1
  Zn  Zn3  1  0.86976517  0.80671740  0.01056595  1
  Zn  Zn4  1  0.11384644  0.05122181  0.51064613  1
  Zn  Zn5  1  0.13847770  0.13060936  0.33167266  1
  Zn  Zn6  1  0.88615407  0.94877631  0.48935241  1
  Zn  Zn7  1  0.77009502  0.32772933  0.57768641  1
  Zn  Zn8  1  0.45341767  0.10787592  0.53069820  1
  Zn  Zn9  1  0.71041183  0.36828164  0.03753936  1
  Zn  Zn10  1  0.75017661  0.17413229  0.42297335  1
  Zn  Zn11  1  0.73828095  0.57641501  0.75192151  1
  Zn  Zn12  1  0.09339386  0.13661806  0.17568615  1
  Zn  Zn13  1  0.38492591  0.45377577  0.49321713  1
  Zn  Zn14  1  0.22990560  0.67227152  0.42231343  1
  Zn  Zn15  1  0.23385899  0.07993292  0.75541676  1
  Zn  Zn16  1  0.40291132  0.96977210  0.26084178  1
  Zn  Zn17  1  0.13023469  0.19328240  0.98943447  1
  Zn  Zn18  1  0.64045504  0.71807622  0.99565115  1
  Zn  Zn19  1  0.19272548  0.84641451  0.03334665  1
  Zn  Zn20  1  0.94766605  0.60217632  0.53146238  1
  Zn  Zn21  1  0.28958792  0.63171779  0.96246011  1
  Zn  Zn22  1  0.24982234  0.82586834  0.57702717  1
  Zn  Zn23  1  0.90660674  0.86338149  0.82431366  1
  Zn  Zn24  1  0.05233509  0.39782432  0.46853825  1
  Zn  Zn25  1  0.57124852  0.21998667  0.10375152  1
  Zn  Zn26  1  0.99548266  0.41953876  0.92520933  1
  Zn  Zn27  1  0.26171946  0.42358522  0.24807852  1
  Zn  Zn28  1  0.48913254  0.34966473  0.26642534  1
  Zn  Zn29  1  0.00451778  0.58046132  0.07479047  1
  Zn  Zn30  1  0.52372293  0.93817130  0.85264618  1
  Zn  Zn31  1  0.54658132  0.89212424  0.46930202  1
  Zn  Zn32  1  0.47627660  0.06182896  0.14735347  1
  Zn  Zn33  1  0.41068866  0.74174863  0.17715879  1
  Zn  Zn34  1  0.76614217  0.92006680  0.24458329  1
  Zn  Zn35  1  0.75046890  0.19695708  0.70820903  1
  Zn  Zn36  1  0.42875129  0.78001322  0.89624758  1
  Zn  Zn37  1  0.38436378  0.37522335  0.82927554  1
  Zn  Zn38  1  0.17226633  0.68773192  0.71123859  1
  Zn  Zn39  1  0.98965925  0.83563499  0.25892815  1
  Zn  Zn40  1  0.01034214  0.16436464  0.74107375  1
  Zn  Zn41  1  0.82773402  0.31226829  0.28876149  1
  Zn  Zn42  1  0.80727435  0.15358546  0.96665307  1
  Zn  Zn43  1  0.51086732  0.65033523  0.73357469  1
  Zn  Zn44  1  0.61563628  0.62477615  0.17072431  1
  Zn  Zn45  1  0.63339792  0.63910403  0.34088342  1
  Zn  Zn46  1  0.61507420  0.54622426  0.50678311  1
  Zn  Zn47  1  0.86152312  0.86938939  0.66832754  1
  Zn  Zn48  1  0.93688951  0.44372077  0.21596920  1
  Zn  Zn49  1  0.24953019  0.80304331  0.29179134  1
  Zn  Zn50  1  0.58931020  0.25825163  0.82284119  1
  Zn  Zn51  1  0.36660238  0.36089570  0.65911641  1
  Sb  Sb0  1  0.83805824  0.06994835  0.80553524  1
  Sb  Sb1  1  0.97932426  0.34086150  0.68339219  1
  Sb  Sb2  1  0.81160552  0.70997842  0.12576580  1
  Sb  Sb3  1  0.69271696  0.78486141  0.86931921  1
  Sb  Sb4  1  0.94292849  0.04545426  0.37492769  1
  Sb  Sb5  1  0.53321930  0.17530261  0.32565394  1
  Sb  Sb6  1  0.29514699  0.90721721  0.45388653  1
  Sb  Sb7  1  0.39549683  0.51760350  0.05956990  1
  Sb  Sb8  1  0.89350922  0.03702271  0.06477312  1
  Sb  Sb9  1  0.35100027  0.22063916  0.43315773  1
  Sb  Sb10  1  0.18839496  0.29002200  0.87423417  1
  Sb  Sb11  1  0.08313911  0.33621417  0.30646518  1
  Sb  Sb12  1  0.67709603  0.43090929  0.20357491  1
  Sb  Sb13  1  0.60450297  0.48239631  0.94042956  1
  Sb  Sb14  1  0.73526974  0.09956111  0.18674793  1
  Sb  Sb15  1  0.55186421  0.16161534  0.93733214  1
  Sb  Sb16  1  0.02067571  0.65913357  0.31660830  1
  Sb  Sb17  1  0.96075035  0.34840547  0.05465658  1
  Sb  Sb18  1  0.78207583  0.41562453  0.82533338  1
  Sb  Sb19  1  0.43427013  0.55324448  0.37880789  1
  Sb  Sb20  1  0.46678122  0.82469780  0.67434654  1
  Sb  Sb21  1  0.21792388  0.58437585  0.17466601  1
  Sb  Sb22  1  0.26473033  0.90043935  0.81325171  1
  Sb  Sb23  1  0.30728348  0.21513960  0.13068019  1
  Sb  Sb24  1  0.16194138  0.93005155  0.19446516  1
  Sb  Sb25  1  0.64900018  0.77936094  0.56684297  1
  Sb  Sb26  1  0.32290404  0.56908984  0.79642426  1
  Sb  Sb27  1  0.41064802  0.15839319  0.69230257  1
  Sb  Sb28  1  0.79580014  0.40450144  0.44814396  1
  Sb  Sb29  1  0.20420051  0.59549939  0.55185680  1
  Sb  Sb30  1  0.85372848  0.71780218  0.43309840  1
  Sb  Sb31  1  0.56573091  0.44675571  0.62119259  1
  Sb  Sb32  1  0.91686218  0.66378503  0.69353533  1
  Sb  Sb33  1  0.05706611  0.95455468  0.62507436  1
  Sb  Sb34  1  0.44813552  0.83838449  0.06266639  1
  Sb  Sb35  1  0.14627212  0.28219729  0.56690225  1
  Sb  Sb36  1  0.03924964  0.65159364  0.94534216  1
  Sb  Sb37  1  0.10649038  0.96297727  0.93522616  1
  Sb  Sb38  1  0.58935200  0.84160695  0.30769779  1
  Sb  Sb39  1  0.70485254  0.09278208  0.54611398  1
loop_
_geom_bond_atom_site_label_1
_geom_bond_atom_site_label_2
_geom_bond_distance
_geom_bond_site_symmetry_2
Zn0 Zn17 2.658905 1_554
Zn0 Zn25 2.936460 1_555
Zn1 Zn38 2.728660 1_555
Zn2 Zn50 2.678273 1_555
Zn2 Zn30 2.792760 1_545
Zn4 Zn6 2.691051 1_445
Zn10 Zn7 2.678119 1_555
Zn11 Zn43 2.649358 1_555
Zn12 Zn5 2.713354 1_555
Zn13 Zn46 2.689432 1_555
Zn14 Zn22 2.678128 1_555
Zn15 Zn40 2.656146 1_555
Zn16 Zn33 2.678275 1_555
Zn16 Zn32 2.792771 1_565
Zn18 Zn3 2.658898 1_556
Zn18 Zn36 2.936468 1_555
Zn19 Zn21 2.777139 1_554
Zn20 Zn24 2.693794 1_655
Zn21 Zn36 2.976656 1_555
Zn23 Zn47 2.713344 1_555
Zn25 Zn32 2.575705 1_555
Zn25 Zn9 2.976647 1_555
Zn25 Zn28 2.995912 1_555
Zn26 Zn29 2.657016 1_656
Zn27 Zn28 2.649354 1_555
Zn30 Zn36 2.575702 1_555
Zn31 Zn8 2.746672 1_565
Zn33 Zn44 2.648279 1_555
Zn33 Zn49 2.757458 1_555
Zn34 Zn39 2.656152 1_555
Zn35 Zn50 2.757455 1_555
Zn35 Zn40 2.857416 1_655
Zn36 Zn43 2.995899 1_555
Zn37 Zn50 2.648264 1_555
Zn37 Zn51 2.882349 1_555
Zn39 Zn49 2.857387 1_655
Zn41 Zn48 2.728648 1_555
Zn42 Zn9 2.777133 1_556
Zn44 Zn45 2.882347 1_555
Sb0 Zn2 2.676219 1_555
Sb0 Zn42 2.704538 1_555
Sb0 Zn35 2.748716 1_555
Sb0 Zn23 2.754132 1_545
Sb0 Zn40 2.757387 1_655
Sb0 Zn47 2.818393 1_545
Sb1 Zn7 2.676026 1_555
Sb1 Zn40 2.684377 1_655
Sb1 Zn1 2.684521 1_655
Sb2 Zn44 2.698396 1_555
Sb2 Zn29 2.700951 1_655
Sb2 Zn18 2.743783 1_554
Sb2 Zn39 2.776497 1_555
Sb2 Zn34 2.790126 1_555
Sb2 Zn3 2.797890 1_555
Sb3 Zn30 2.689209 1_555
Sb3 Zn18 2.725199 1_555
Sb3 Zn11 2.765925 1_555
Sb3 Zn3 2.825661 1_556
Sb3 Zn23 2.826275 1_555
Sb3 Zn43 2.854418 1_555
Sb3 Zn36 2.978487 1_555
Sb4 Zn5 2.678471 1_655
Sb4 Zn10 2.682820 1_555
Sb4 Zn34 2.741334 1_545
Sb4 Zn4 2.764475 1_655
Sb4 Zn39 2.770234 1_545
Sb4 Zn6 2.780385 1_545
Sb5 Zn16 2.680925 1_545
Sb5 Zn28 2.691072 1_555
Sb5 Zn10 2.699536 1_555
Sb5 Sb9 2.846123 1_555
Sb5 Zn32 2.898915 1_555
Sb6 Zn49 2.633897 1_555
Sb6 Zn4 2.713007 1_565
Sb6 Zn31 2.721132 1_555
Sb6 Zn22 2.757903 1_555
Sb6 Zn8 2.800572 1_565
Sb6 Zn14 2.808540 1_555
Sb7 Zn21 2.685149 1_554
Sb7 Zn0 2.719597 1_555
Sb7 Zn33 2.790686 1_555
Sb7 Zn44 2.842914 1_555
Sb8 Zn3 2.649226 1_545
Sb8 Zn42 2.656874 1_554
Sb8 Zn12 2.661001 1_655
Sb9 Zn8 2.665906 1_555
Sb9 Zn5 2.670744 1_555
Sb9 Zn13 2.687254 1_555
Sb10 Zn37 2.698388 1_555
Sb10 Zn26 2.700949 1_455
Sb10 Zn0 2.743778 1_556
Sb10 Zn40 2.776476 1_555
Sb10 Zn15 2.790133 1_555
Sb10 Zn17 2.797905 1_555
Sb11 Zn27 2.695214 1_555
Sb11 Zn12 2.722909 1_555
Sb11 Zn24 2.727981 1_555
Sb11 Zn48 2.730953 1_455
Sb11 Zn41 2.752959 1_455
Sb11 Zn5 2.757124 1_555
Sb12 Zn44 2.693731 1_555
Sb12 Zn25 2.708408 1_555
Sb12 Zn28 2.785081 1_555
Sb12 Zn41 2.790594 1_555
Sb12 Zn9 2.800453 1_555
Sb12 Zn48 2.801553 1_555
Sb12 Zn45 2.929219 1_555
Sb13 Zn9 2.685153 1_556
Sb13 Zn18 2.719597 1_555
Sb13 Zn50 2.790678 1_555
Sb13 Zn37 2.842910 1_555
Sb14 Zn41 2.690453 1_555
Sb14 Zn34 2.720353 1_545
Sb14 Zn32 2.797916 1_555
Sb14 Sb8 2.828325 1_555
Sb14 Zn25 2.860033 1_555
Sb15 Zn30 2.617456 1_545
Sb15 Zn25 2.708024 1_556
Sb15 Zn50 2.720009 1_555
Sb15 Zn0 2.728992 1_556
Sb15 Zn42 2.758074 1_555
Sb15 Zn9 2.913774 1_556
Sb16 Zn14 2.676013 1_555
Sb16 Zn39 2.684412 1_455
Sb16 Zn48 2.684506 1_455
Sb17 Zn48 2.694835 1_555
Sb17 Zn9 2.715791 1_555
Sb17 Zn17 2.727450 1_654
Sb17 Zn42 2.747723 1_554
Sb17 Zn26 2.752428 1_554
Sb17 Zn29 2.775126 1_655
Sb18 Zn26 2.678723 1_555
Sb18 Zn11 2.703355 1_555
Sb18 Zn35 2.735521 1_555
Sb18 Zn50 2.830930 1_555
Sb19 Zn45 2.667449 1_555
Sb19 Zn14 2.717467 1_555
Sb19 Zn28 2.718591 1_555
Sb19 Zn27 2.733407 1_555
Sb19 Zn46 2.773035 1_555
Sb19 Zn13 2.778273 1_555
Sb20 Zn2 2.680917 1_565
Sb20 Zn43 2.691071 1_555
Sb20 Zn22 2.699550 1_555
Sb20 Sb25 2.846119 1_555
Sb20 Zn30 2.898902 1_555
Sb21 Zn29 2.678712 1_555
Sb21 Zn27 2.703366 1_555
Sb21 Zn49 2.735527 1_555
Sb21 Zn33 2.830919 1_555
Sb22 Zn38 2.690452 1_555
Sb22 Zn15 2.720340 1_565
Sb22 Zn30 2.797910 1_555
Sb22 Sb37 2.828324 1_555
Sb22 Zn36 2.860030 1_555
Sb23 Zn32 2.689211 1_555
Sb23 Zn0 2.725188 1_555
Sb23 Zn27 2.765924 1_555
Sb23 Zn17 2.825648 1_554
Sb23 Zn12 2.826285 1_555
Sb23 Zn28 2.854416 1_555
Sb23 Zn25 2.978481 1_555
Sb24 Zn16 2.676213 1_555
Sb24 Zn19 2.704550 1_555
Sb24 Zn49 2.748710 1_555
Sb24 Zn12 2.754129 1_565
Sb24 Zn39 2.757392 1_455
Sb24 Zn5 2.818380 1_565
Sb25 Zn31 2.665918 1_555
Sb25 Zn47 2.670741 1_555
Sb25 Zn46 2.687255 1_555
Sb26 Zn37 2.693732 1_555
Sb26 Zn36 2.708414 1_555
Sb26 Zn43 2.785075 1_555
Sb26 Zn38 2.790592 1_555
Sb26 Zn21 2.800459 1_555
Sb26 Zn1 2.801552 1_555
Sb26 Zn51 2.929209 1_555
Sb27 Zn15 2.675835 1_555
Sb27 Zn50 2.686775 1_555
Sb27 Zn51 2.764162 1_555
Sb27 Zn2 2.767992 1_555
Sb27 Zn8 2.772510 1_555
Sb27 Zn37 2.943134 1_555
Sb28 Zn41 2.684990 1_555
Sb28 Zn46 2.701835 1_555
Sb28 Zn10 2.737184 1_555
Sb28 Zn20 2.750173 1_555
Sb28 Zn24 2.765347 1_655
Sb28 Zn7 2.772859 1_555
Sb29 Zn38 2.684980 1_555
Sb29 Zn13 2.701838 1_555
Sb29 Zn22 2.737180 1_555
Sb29 Zn24 2.750172 1_555
Sb29 Zn20 2.765342 1_455
Sb29 Zn14 2.772874 1_555
Sb30 Zn45 2.654799 1_555
Sb30 Zn6 2.661789 1_555
Sb30 Zn20 2.674543 1_555
Sb31 Zn51 2.667453 1_555
Sb31 Zn7 2.717462 1_555
Sb31 Zn43 2.718590 1_555
Sb31 Zn11 2.733399 1_555
Sb31 Zn13 2.773043 1_555
Sb31 Zn46 2.778272 1_555
Sb32 Zn11 2.695209 1_555
Sb32 Zn23 2.722906 1_555
Sb32 Zn20 2.727980 1_555
Sb32 Zn1 2.730943 1_655
Sb32 Zn38 2.752950 1_655
Sb32 Zn47 2.757123 1_555
Sb33 Zn47 2.678458 1_455
Sb33 Zn22 2.682914 1_555
Sb33 Zn15 2.741326 1_565
Sb33 Zn6 2.764449 1_455
Sb33 Zn40 2.770133 1_565
Sb33 Zn4 2.780371 1_565
Sb34 Zn32 2.617464 1_565
Sb34 Zn36 2.708014 1_554
Sb34 Zn33 2.720031 1_555
Sb34 Zn18 2.728990 1_554
Sb34 Zn19 2.758072 1_555
Sb34 Zn21 2.913773 1_554
Sb35 Zn51 2.654792 1_555
Sb35 Zn4 2.661804 1_555
Sb35 Zn24 2.674552 1_555
Sb36 Zn1 2.694834 1_555
Sb36 Zn21 2.715788 1_555
Sb36 Zn3 2.727463 1_456
Sb36 Zn19 2.747732 1_556
Sb36 Zn29 2.752437 1_556
Sb36 Zn26 2.775118 1_455
Sb37 Zn17 2.649223 1_565
Sb37 Zn19 2.656881 1_556
Sb37 Zn23 2.660990 1_455
Sb38 Zn34 2.675845 1_555
Sb38 Zn33 2.686786 1_555
Sb38 Zn45 2.764163 1_555
Sb38 Zn16 2.768002 1_555
Sb38 Zn31 2.772511 1_555
Sb38 Zn44 2.943143 1_555
Sb39 Zn35 2.633897 1_555
Sb39 Zn6 2.713031 1_545
Sb39 Zn8 2.721139 1_555
Sb39 Zn10 2.757911 1_555
Sb39 Zn31 2.800568 1_545
Sb39 Zn7 2.808563 1_555
