# generated using pymatgen
data_Y(SiNi)2
_symmetry_space_group_name_H-M   'P 1'
_cell_length_a   3.94522508
_cell_length_b   3.94522527
_cell_length_c   5.50791900
_cell_angle_alpha   110.98608727
_cell_angle_beta   110.98609194
_cell_angle_gamma   89.99998537
_symmetry_Int_Tables_number   1
_chemical_formula_structural   Y(SiNi)2
_chemical_formula_sum   'Y1 Si2 Ni2'
_cell_volume   73.92013927
_cell_formula_units_Z   1
loop_
 _symmetry_equiv_pos_site_id
 _symmetry_equiv_pos_as_xyz
  1  'x, y, z'
loop_
 _atom_site_type_symbol
 _atom_site_label
 _atom_site_symmetry_multiplicity
 _atom_site_fract_x
 _atom_site_fract_y
 _atom_site_fract_z
 _atom_site_occupancy
  Y  Y0  1  0.00000000  0.00000000  -0.00000000  1
  Si  Si0  1  0.62776266  0.62776266  0.25552632  1
  Si  Si1  1  0.37223734  0.37223734  0.74447368  1
  Ni  Ni0  1  0.75000000  0.25000000  0.50000000  1
  Ni  Ni1  1  0.25000000  0.75000000  0.50000000  1
loop_
_geom_bond_atom_site_label_1
_geom_bond_atom_site_label_2
_geom_bond_distance
_geom_bond_site_symmetry_2
Si0 Si1 2.427084 1_554
Si0 Y0 3.042215 1_555
Si0 Y0 3.042217 1_565
Si0 Y0 3.042217 1_655
Si0 Y0 3.042220 1_665
Si1 Y0 3.042215 1_666
Si1 Y0 3.042217 1_656
Si1 Y0 3.042217 1_566
Si1 Y0 3.042220 1_556
Ni0 Si0 2.288937 1_555
Ni0 Si1 2.288937 1_555
Ni0 Si1 2.288940 1_655
Ni0 Si0 2.288940 1_545
Ni0 Y0 3.087052 1_555
Ni0 Y0 3.087052 1_656
Ni0 Y0 3.087052 1_655
Ni0 Y0 3.087052 1_666
Ni1 Si1 2.288937 1_555
Ni1 Si0 2.288937 1_555
Ni1 Si0 2.288940 1_455
Ni1 Si1 2.288940 1_565
Ni1 Y0 3.087052 1_666
Ni1 Y0 3.087052 1_565
Ni1 Y0 3.087052 1_566
Ni1 Y0 3.087052 1_555
