# generated using pymatgen
data_SiO2
_symmetry_space_group_name_H-M   'P 1'
_cell_length_a   6.82734324
_cell_length_b   6.82734418
_cell_length_c   8.99269860
_cell_angle_alpha   90.00000000
_cell_angle_beta   90.00000000
_cell_angle_gamma   97.35351772
_symmetry_Int_Tables_number   1
_chemical_formula_structural   SiO2
_chemical_formula_sum   'Si8 O16'
_cell_volume   415.72569754
_cell_formula_units_Z   8
loop_
 _symmetry_equiv_pos_site_id
 _symmetry_equiv_pos_as_xyz
  1  'x, y, z'
loop_
 _atom_site_type_symbol
 _atom_site_label
 _atom_site_symmetry_multiplicity
 _atom_site_fract_x
 _atom_site_fract_y
 _atom_site_fract_z
 _atom_site_occupancy
  Si  Si0  1  0.30687689  0.03930053  0.90952002  1
  Si  Si1  1  0.46069947  0.19312311  0.59047998  1
  Si  Si2  1  0.03930053  0.30687689  0.09047998  1
  Si  Si3  1  0.19312311  0.46069947  0.40952002  1
  Si  Si4  1  0.96069947  0.69312311  0.90952002  1
  Si  Si5  1  0.69312311  0.96069947  0.09047998  1
  Si  Si6  1  0.80687689  0.53930053  0.59047998  1
  Si  Si7  1  0.53930053  0.80687689  0.40952002  1
  O  O0  1  0.80781623  0.80781623  0.00000000  1
  O  O1  1  0.63209758  0.86790242  0.25000000  1
  O  O2  1  0.69218377  0.69218377  0.50000000  1
  O  O3  1  0.33314225  0.66685775  0.38700594  1
  O  O4  1  0.13209758  0.36790242  0.25000000  1
  O  O5  1  0.86790242  0.63209758  0.75000000  1
  O  O6  1  0.19218377  0.19218377  0.00000000  1
  O  O7  1  0.36790242  0.13209758  0.75000000  1
  O  O8  1  0.00000000  0.50000000  0.00000000  1
  O  O9  1  0.16685775  0.83314225  0.88700594  1
  O  O10  1  0.66685775  0.33314225  0.61299406  1
  O  O11  1  0.83314225  0.16685775  0.11299406  1
  O  O12  1  0.30781623  0.30781623  0.50000000  1
  O  O13  1  0.50000000  0.00000000  0.00000000  1
  O  O14  1  0.00000000  0.50000000  0.50000000  1
  O  O15  1  0.50000000  0.00000000  0.50000000  1
loop_
_geom_bond_atom_site_label_1
_geom_bond_atom_site_label_2
_geom_bond_distance
_geom_bond_site_symmetry_2
O0 Si4 1.604344 1_554
O0 Si5 1.604344 1_555
O1 Si7 1.601640 1_555
O1 Si5 1.601640 1_555
O2 Si7 1.604344 1_555
O2 Si6 1.604344 1_555
O3 Si7 1.609817 1_555
O3 Si3 1.609817 1_555
O4 Si2 1.601640 1_555
O4 Si3 1.601640 1_555
O5 Si4 1.601640 1_555
O5 Si6 1.601640 1_555
O6 Si2 1.604344 1_555
O6 Si0 1.604344 1_554
O7 Si1 1.601640 1_555
O7 Si0 1.601640 1_555
O8 Si2 1.600965 1_555
O8 Si4 1.600965 1_454
O9 Si4 1.609817 1_455
O9 Si0 1.609817 1_565
O10 Si1 1.609817 1_555
O10 Si6 1.609817 1_555
O11 Si2 1.609817 1_655
O11 Si5 1.609817 1_545
O12 Si1 1.604344 1_555
O12 Si3 1.604344 1_555
O13 Si0 1.600964 1_554
O13 Si5 1.600964 1_545
O14 Si3 1.600964 1_555
O14 Si6 1.600964 1_455
O15 Si1 1.600965 1_555
O15 Si7 1.600965 1_545
