# generated using pymatgen
data_SbTe7SXeCl(OF4)9
_symmetry_space_group_name_H-M   'P 1'
_cell_length_a   10.57369500
_cell_length_b   10.85859119
_cell_length_c   18.31994367
_cell_angle_alpha   98.10085612
_cell_angle_beta   97.73085267
_cell_angle_gamma   105.92284049
_symmetry_Int_Tables_number   1
_chemical_formula_structural   SbTe7SXeCl(OF4)9
_chemical_formula_sum   'Sb2 Te14 S2 Xe2 Cl2 O18 F72'
_cell_volume   1969.11559842
_cell_formula_units_Z   2
loop_
 _symmetry_equiv_pos_site_id
 _symmetry_equiv_pos_as_xyz
  1  'x, y, z'
loop_
 _atom_site_type_symbol
 _atom_site_label
 _atom_site_symmetry_multiplicity
 _atom_site_fract_x
 _atom_site_fract_y
 _atom_site_fract_z
 _atom_site_occupancy
  Sb  Sb0  1  0.50000000  0.00000000  0.00000000  1
  Sb  Sb1  1  0.00000000  0.50000000  0.50000000  1
  Te  Te0  1  0.29474700  0.98543800  0.14410000  1
  Te  Te1  1  0.70525300  0.01456200  0.85590000  1
  Te  Te2  1  0.36442000  0.12985000  0.60251200  1
  Te  Te3  1  0.76743400  0.96041500  0.13809900  1
  Te  Te4  1  0.62707200  0.35353800  0.05844100  1
  Te  Te5  1  0.66235000  0.37317200  0.39148800  1
  Te  Te6  1  0.89556600  0.26124000  0.61804500  1
  Te  Te7  1  0.10443400  0.73876000  0.38195500  1
  Te  Te8  1  0.23256600  0.03958500  0.86190100  1
  Te  Te9  1  0.37292800  0.64646200  0.94155900  1
  Te  Te10  1  0.33765000  0.62682800  0.60851200  1
  Te  Te11  1  0.63558000  0.87015000  0.39748800  1
  Te  Te12  1  0.87133600  0.71088800  0.62297000  1
  Te  Te13  1  0.12866400  0.28911200  0.37703000  1
  S  S0  1  0.14336700  0.45664000  0.13135200  1
  S  S1  1  0.85663300  0.54336000  0.86864800  1
  Xe  Xe0  1  0.53689500  0.37382400  0.75413700  1
  Xe  Xe1  1  0.46310500  0.62617600  0.24586300  1
  Cl  Cl0  1  0.09655800  0.32083300  0.04081000  1
  Cl  Cl1  1  0.90344200  0.67916700  0.95919000  1
  O  O0  1  0.87359100  0.42379900  0.88345600  1
  O  O1  1  0.36088600  0.23485100  0.69952500  1
  O  O2  1  0.67625600  0.99066400  0.05002300  1
  O  O3  1  0.90335300  0.62743700  0.53233900  1
  O  O4  1  0.12640900  0.57620100  0.11654400  1
  O  O5  1  0.82856600  0.37100700  0.44363600  1
  O  O6  1  0.17143400  0.62899300  0.55636400  1
  O  O7  1  0.73077000  0.54926800  0.82709400  1
  O  O8  1  0.26923000  0.45073200  0.17290600  1
  O  O9  1  0.02002800  0.57682900  0.40708500  1
  O  O10  1  0.97997200  0.42317100  0.59291500  1
  O  O11  1  0.58738800  0.18815200  0.99789700  1
  O  O12  1  0.55508600  0.95621000  0.90233700  1
  O  O13  1  0.63911400  0.76514900  0.30047500  1
  O  O14  1  0.09664700  0.37256300  0.46766100  1
  O  O15  1  0.32374400  0.00933600  0.94997700  1
  O  O16  1  0.44491400  0.04379000  0.09766300  1
  O  O17  1  0.41261200  0.81184800  0.00210300  1
  F  F0  1  0.94244700  0.74281300  0.32818400  1
  F  F1  1  0.44832600  0.33335500  0.06871000  1
  F  F2  1  0.31931000  0.95769300  0.79662200  1
  F  F3  1  0.13318200  0.07091500  0.77794600  1
  F  F4  1  0.05755300  0.25718700  0.67181600  1
  F  F5  1  0.46280800  0.28060300  0.57328800  1
  F  F6  1  0.60289800  0.91168200  0.76574800  1
  F  F7  1  0.83311500  0.79422900  0.71052400  1
  F  F8  1  0.13908200  0.12586600  0.92104900  1
  F  F9  1  0.76706600  0.55365000  0.64454400  1
  F  F10  1  0.38736000  0.54934200  0.52339800  1
  F  F11  1  0.20448100  0.15654700  0.56306100  1
  F  F12  1  0.23080800  0.12364600  0.12240300  1
  F  F13  1  0.19071800  0.60902500  0.94783900  1
  F  F14  1  0.02264100  0.69528600  0.68302400  1
  F  F15  1  0.86681800  0.92908500  0.22205400  1
  F  F16  1  0.42014200  0.79184000  0.58919900  1
  F  F17  1  0.33228100  0.47645800  0.88640200  1
  F  F18  1  0.86460800  0.34967200  0.70709500  1
  F  F19  1  0.86091800  0.87413400  0.07895100  1
  F  F20  1  0.90228300  0.11760900  0.14567200  1
  F  F21  1  0.03469500  0.39373600  0.17627600  1
  F  F22  1  0.36067400  0.20124700  0.86519400  1
  F  F23  1  0.30320300  0.70507200  0.69830200  1
  F  F24  1  0.27496600  0.74321100  0.42929200  1
  F  F25  1  0.28267400  0.26744600  0.43007700  1
  F  F26  1  0.36663800  0.03087300  0.51171900  1
  F  F27  1  0.63336200  0.96912700  0.48828100  1
  F  F28  1  0.49642400  0.36860400  0.33678900  1
  F  F29  1  0.16688500  0.20577100  0.28947600  1
  F  F30  1  0.69679700  0.29492800  0.30169800  1
  F  F31  1  0.55167400  0.66664500  0.93129000  1
  F  F32  1  0.63932600  0.79875300  0.13480600  1
  F  F33  1  0.23293400  0.44635000  0.35545600  1
  F  F34  1  0.71732600  0.73255400  0.56992300  1
  F  F35  1  0.91889000  0.16046000  0.53191300  1
  F  F36  1  0.39710200  0.08831800  0.23425200  1
  F  F37  1  0.47599300  0.89730600  0.35523900  1
  F  F38  1  0.09771700  0.88239100  0.85432800  1
  F  F39  1  0.72503400  0.25678900  0.57070800  1
  F  F40  1  0.39854300  0.57619700  0.02865200  1
  F  F41  1  0.68069000  0.04230700  0.20337800  1
  F  F42  1  0.81811200  0.12294100  0.94286100  1
  F  F43  1  0.66771900  0.52354200  0.11359800  1
  F  F44  1  0.26638000  0.98357800  0.63469600  1
  F  F45  1  0.84763200  0.06684200  0.80562400  1
  F  F46  1  0.34956200  0.84278200  0.16861100  1
  F  F47  1  0.76919200  0.87635400  0.87759700  1
  F  F48  1  0.96530500  0.60626400  0.82372400  1
  F  F49  1  0.13539200  0.65032800  0.29290500  1
  F  F50  1  0.61264000  0.45065800  0.47660200  1
  F  F51  1  0.18188800  0.87705900  0.05713900  1
  F  F52  1  0.53719200  0.71939700  0.42671200  1
  F  F53  1  0.66196000  0.29908700  0.14952800  1
  F  F54  1  0.57985800  0.20816000  0.41080100  1
  F  F55  1  0.65043800  0.15721800  0.83138900  1
  F  F56  1  0.02992400  0.12508200  0.39067500  1
  F  F57  1  0.27194900  0.46138600  0.63350800  1
  F  F58  1  0.97735900  0.30471400  0.31697600  1
  F  F59  1  0.08111000  0.83954000  0.46808700  1
  F  F60  1  0.80928200  0.39097500  0.05216100  1
  F  F61  1  0.52400700  0.10269400  0.64476100  1
  F  F62  1  0.73362000  0.01642200  0.36530400  1
  F  F63  1  0.72805100  0.53861400  0.36649200  1
  F  F64  1  0.18679200  0.89474000  0.35213700  1
  F  F65  1  0.81320800  0.10526000  0.64786300  1
  F  F66  1  0.60145700  0.42380300  0.97134800  1
  F  F67  1  0.33804000  0.70091300  0.85047200  1
  F  F68  1  0.15236800  0.93315800  0.19437600  1
  F  F69  1  0.79551900  0.84345300  0.43693900  1
  F  F70  1  0.97007600  0.87491800  0.60932500  1
  F  F71  1  0.50357600  0.63139600  0.66321100  1
loop_
_geom_bond_atom_site_label_1
_geom_bond_atom_site_label_2
_geom_bond_distance
_geom_bond_site_symmetry_2
Cl0 S0 1.964755 1_555
Cl1 S1 1.964755 1_555
O0 S1 1.416028 1_555
O1 Te2 1.982476 1_555
O1 Xe0 2.067456 1_555
O2 Te3 1.882946 1_555
O2 Sb0 1.998436 1_565
O3 Te12 1.894209 1_555
O3 Sb1 2.004472 1_655
O4 S0 1.416028 1_555
O5 Te5 1.891925 1_555
O5 Sb1 2.002419 1_655
O6 Te10 1.891925 1_555
O6 Sb1 2.002419 1_555
O7 S1 1.463834 1_555
O7 Xe0 2.453679 1_555
O8 S0 1.463834 1_555
O8 Xe1 2.453679 1_555
O9 Te7 1.891530 1_555
O9 Sb1 2.009619 1_555
O10 Te6 1.891530 1_555
O10 Sb1 2.009619 1_655
O11 Te4 1.879192 1_556
O11 Sb0 2.006326 1_556
O12 Te1 1.899919 1_565
O12 Sb0 1.989748 1_566
O13 Te11 1.982476 1_555
O13 Xe1 2.067456 1_555
O14 Te13 1.894209 1_555
O14 Sb1 2.004472 1_555
O15 Te8 1.882946 1_555
O15 Sb0 1.998436 1_556
O16 Te0 1.899919 1_545
O16 Sb0 1.989748 1_555
O17 Te9 1.879192 1_554
O17 Sb0 2.006326 1_565
F0 Te7 1.872339 1_655
F1 Te4 1.880306 1_555
F2 Te8 1.872191 1_565
F3 Te8 1.869336 1_555
F4 Te6 1.872339 1_455
F5 Te2 1.873770 1_555
F6 Te1 1.866210 1_565
F7 Te12 1.876441 1_555
F8 Te8 1.881272 1_555
F9 Te12 1.887188 1_555
F10 Te10 1.873227 1_555
F11 Te2 1.861604 1_555
F12 Te0 1.876120 1_545
F13 Te9 1.879758 1_555
F14 Te12 1.877855 1_455
F15 Te3 1.869336 1_555
F16 Te10 1.871016 1_555
F17 Te9 1.880327 1_555
F18 Te6 1.888201 1_555
F19 Te3 1.881272 1_555
F20 Te3 1.873627 1_545
F21 S0 1.564115 1_555
F22 Te8 1.887722 1_555
F23 Te10 1.870154 1_555
F24 Te7 1.877611 1_555
F25 Te13 1.870967 1_555
F26 Te2 1.855475 1_555
F27 Te11 1.855475 1_555
F28 Te5 1.884137 1_555
F29 Te13 1.876441 1_555
F30 Te5 1.870154 1_555
F31 Te9 1.880306 1_555
F32 Te3 1.887722 1_555
F33 Te13 1.887188 1_555
F34 Te12 1.870967 1_555
F35 Te6 1.874665 1_555
F36 Te0 1.866210 1_545
F37 Te11 1.876002 1_555
F38 Te8 1.873627 1_565
F39 Te6 1.877611 1_555
F40 Te9 1.881874 1_554
F41 Te3 1.872191 1_545
F42 Te1 1.880589 1_555
F43 Te4 1.880327 1_555
F44 Te2 1.862780 1_565
F45 Te1 1.867765 1_555
F46 Te0 1.885668 1_555
F47 Te1 1.876120 1_565
F48 S1 1.564115 1_555
F49 Te7 1.888201 1_555
F50 Te5 1.873227 1_555
F51 Te0 1.880589 1_555
F52 Te11 1.873770 1_555
F53 Te4 1.871467 1_555
F54 Te5 1.871016 1_555
F55 Te1 1.885668 1_555
F56 Te13 1.870918 1_555
F57 Te10 1.884747 1_555
F58 Te13 1.877855 1_655
F59 Te7 1.874665 1_555
F60 Te4 1.879758 1_555
F61 Te2 1.876002 1_555
F62 Te11 1.862780 1_545
F63 Te5 1.884747 1_555
F64 Te7 1.872139 1_555
F65 Te6 1.872139 1_555
F66 Te4 1.881874 1_556
F67 Te9 1.871467 1_555
F68 Te0 1.867765 1_555
F69 Te11 1.861604 1_555
F70 Te12 1.870918 1_555
F71 Te10 1.884137 1_555
