# generated using pymatgen
data_CrSbF10
_symmetry_space_group_name_H-M   'P 1'
_cell_length_a   10.07067748
_cell_length_b   5.46981539
_cell_length_c   11.92686001
_cell_angle_alpha   80.38168636
_cell_angle_beta   90.00000000
_cell_angle_gamma   90.00000000
_symmetry_Int_Tables_number   1
_chemical_formula_structural   CrSbF10
_chemical_formula_sum   'Cr4 Sb4 F40'
_cell_volume   647.75257187
_cell_formula_units_Z   4
loop_
 _symmetry_equiv_pos_site_id
 _symmetry_equiv_pos_as_xyz
  1  'x, y, z'
loop_
 _atom_site_type_symbol
 _atom_site_label
 _atom_site_symmetry_multiplicity
 _atom_site_fract_x
 _atom_site_fract_y
 _atom_site_fract_z
 _atom_site_occupancy
  Cr  Cr0  1  0.24405963  0.33181247  0.79450268  1
  Cr  Cr1  1  0.25594037  0.33181247  0.29450268  1
  Cr  Cr2  1  0.75594037  0.66818753  0.20549732  1
  Cr  Cr3  1  0.74405963  0.66818753  0.70549732  1
  Sb  Sb0  1  -0.00000000  0.00000000  0.50000000  1
  Sb  Sb1  1  -0.00000000  0.00000000  0.00000000  1
  Sb  Sb2  1  0.50000000  0.00000000  0.50000000  1
  Sb  Sb3  1  0.50000000  0.00000000  0.00000000  1
  F  F0  1  0.39822573  0.48790620  0.25349192  1
  F  F1  1  0.41926449  0.72196942  0.45760488  1
  F  F2  1  0.84347015  0.79504596  0.05239182  1
  F  F3  1  0.07400581  0.92251531  0.14571881  1
  F  F4  1  0.17353449  0.42239531  0.17041941  1
  F  F5  1  0.91926449  0.27803058  0.04239512  1
  F  F6  1  0.93988012  0.73442933  0.43307091  1
  F  F7  1  0.32646551  0.42239531  0.67041941  1
  F  F8  1  0.43988012  0.26557067  0.06692909  1
  F  F9  1  0.67353449  0.57760469  0.32958059  1
  F  F10  1  0.65411942  0.17516864  0.95006999  1
  F  F11  1  0.56011988  0.73442933  0.93307091  1
  F  F12  1  0.19094610  0.53836378  0.37007617  1
  F  F13  1  0.08971368  0.13789407  0.35643810  1
  F  F14  1  0.80079752  0.95413358  0.22952608  1
  F  F15  1  0.41028632  0.13789407  0.85643810  1
  F  F16  1  0.58073551  0.27803058  0.54239512  1
  F  F17  1  0.91028632  0.86210593  0.64356190  1
  F  F18  1  0.57400581  0.07748469  0.35428119  1
  F  F19  1  0.89822573  0.51209380  0.24650808  1
  F  F20  1  0.34588058  0.82483136  0.04993001  1
  F  F21  1  0.80905390  0.46163622  0.62992383  1
  F  F22  1  0.15652985  0.20495404  0.94760818  1
  F  F23  1  0.69094610  0.46163622  0.12992383  1
  F  F24  1  0.19920248  0.04586642  0.77047392  1
  F  F25  1  0.06011988  0.26557067  0.56692909  1
  F  F26  1  0.42599419  0.92251531  0.64571881  1
  F  F27  1  0.92599419  0.07748469  0.85428119  1
  F  F28  1  0.60177427  0.51209380  0.74650808  1
  F  F29  1  0.08073551  0.72196942  0.95760488  1
  F  F30  1  0.10177427  0.48790620  0.75349192  1
  F  F31  1  0.82646551  0.57760469  0.82958059  1
  F  F32  1  0.15411942  0.82483136  0.54993001  1
  F  F33  1  0.30905390  0.53836378  0.87007617  1
  F  F34  1  0.69920248  0.95413358  0.72952608  1
  F  F35  1  0.84588058  0.17516864  0.45006999  1
  F  F36  1  0.34347015  0.20495404  0.44760818  1
  F  F37  1  0.58971368  0.86210593  0.14356190  1
  F  F38  1  0.65652985  0.79504596  0.55239182  1
  F  F39  1  0.30079752  0.04586642  0.27047392  1
loop_
_geom_bond_atom_site_label_1
_geom_bond_atom_site_label_2
_geom_bond_distance
_geom_bond_site_symmetry_2
Cr0 F33 1.690443 1_555
Cr0 F7 1.696862 1_555
Cr0 F30 1.697617 1_555
Cr0 F24 1.697738 1_555
Cr0 F22 2.041960 1_555
Cr0 F15 2.052132 1_555
Cr1 F12 1.690443 1_555
Cr1 F4 1.696862 1_555
Cr1 F0 1.697617 1_555
Cr1 F39 1.697738 1_555
Cr1 F36 2.041960 1_555
Cr1 F13 2.052132 1_555
Cr2 F23 1.690443 1_555
Cr2 F9 1.696862 1_555
Cr2 F19 1.697617 1_555
Cr2 F14 1.697738 1_555
Cr2 F2 2.041960 1_555
Cr2 F37 2.052132 1_555
Cr3 F21 1.690443 1_555
Cr3 F31 1.696862 1_555
Cr3 F28 1.697617 1_555
Cr3 F34 1.697738 1_555
Cr3 F38 2.041960 1_555
Cr3 F17 2.052132 1_555
F1 Sb2 1.867208 1_565
F2 Sb1 1.974352 1_665
F3 Sb1 1.873358 1_565
F5 Sb1 1.867208 1_655
F6 Sb0 1.871197 1_665
F8 Sb3 1.871197 1_555
F10 Sb3 1.868413 1_556
F11 Sb3 1.871197 1_566
F13 Sb0 1.971137 1_555
F15 Sb3 1.971137 1_556
F16 Sb2 1.867208 1_555
F17 Sb0 1.971137 1_665
F18 Sb2 1.873358 1_555
F20 Sb3 1.868413 1_565
F22 Sb1 1.974352 1_556
F25 Sb0 1.871197 1_555
F26 Sb2 1.873358 1_565
F27 Sb1 1.873358 1_656
F29 Sb1 1.867208 1_566
F32 Sb0 1.868413 1_565
F35 Sb0 1.868413 1_655
F36 Sb2 1.974352 1_555
F37 Sb3 1.971137 1_565
F38 Sb2 1.974352 1_565
