# generated using pymatgen
data_Ba2VI5O17
_symmetry_space_group_name_H-M   'P 1'
_cell_length_a   33.69774500
_cell_length_b   7.26160200
_cell_length_c   7.68588119
_cell_angle_alpha   63.80415015
_cell_angle_beta   90.00000000
_cell_angle_gamma   90.00000000
_symmetry_Int_Tables_number   1
_chemical_formula_structural   Ba2VI5O17
_chemical_formula_sum   'Ba8 V4 I20 O68'
_cell_volume   1687.56280243
_cell_formula_units_Z   4
loop_
 _symmetry_equiv_pos_site_id
 _symmetry_equiv_pos_as_xyz
  1  'x, y, z'
loop_
 _atom_site_type_symbol
 _atom_site_label
 _atom_site_symmetry_multiplicity
 _atom_site_fract_x
 _atom_site_fract_y
 _atom_site_fract_z
 _atom_site_occupancy
  Ba  Ba0  1  0.99784500  0.82805800  0.81529500  1
  Ba  Ba1  1  0.81302900  0.51909900  0.37795900  1
  Ba  Ba2  1  0.18697100  0.48090100  0.62204100  1
  Ba  Ba3  1  0.00215500  0.17194200  0.18470500  1
  Ba  Ba4  1  0.31302900  0.98090100  0.62204100  1
  Ba  Ba5  1  0.68697100  0.01909900  0.37795900  1
  Ba  Ba6  1  0.50215500  0.32805800  0.81529500  1
  Ba  Ba7  1  0.49784500  0.67194200  0.18470500  1
  V  V0  1  0.90352800  0.97973900  0.02734500  1
  V  V1  1  0.59647200  0.47973900  0.02734500  1
  V  V2  1  0.40352800  0.52026100  0.97265500  1
  V  V3  1  0.09647200  0.02026100  0.97265500  1
  I  I0  1  0.04785300  0.44352600  0.60187600  1
  I  I1  1  0.11411100  0.50790200  0.12543600  1
  I  I2  1  0.78487000  0.86606900  0.72328600  1
  I  I3  1  0.38588900  0.00790200  0.12543600  1
  I  I4  1  0.80073500  0.10141000  0.09868700  1
  I  I5  1  0.19926500  0.89859000  0.90131300  1
  I  I6  1  0.30073500  0.39859000  0.90131300  1
  I  I7  1  0.71513000  0.36606900  0.72328600  1
  I  I8  1  0.95214700  0.55647400  0.39812400  1
  I  I9  1  0.39618200  0.41828200  0.56080700  1
  I  I10  1  0.88588900  0.49209800  0.87456400  1
  I  I11  1  0.10381800  0.91828200  0.56080700  1
  I  I12  1  0.69926500  0.60141000  0.09868700  1
  I  I13  1  0.21513000  0.13393100  0.27671400  1
  I  I14  1  0.45214700  0.94352600  0.60187600  1
  I  I15  1  0.60381800  0.58171800  0.43919300  1
  I  I16  1  0.89618200  0.08171800  0.43919300  1
  I  I17  1  0.54785300  0.05647400  0.39812400  1
  I  I18  1  0.28487000  0.63393100  0.27671400  1
  I  I19  1  0.61411100  0.99209800  0.87456400  1
  O  O0  1  0.53193800  0.03622400  0.17965000  1
  O  O1  1  0.38619000  0.16163200  0.58529200  1
  O  O2  1  0.05363700  0.95122700  0.46629500  1
  O  O3  1  0.61381000  0.83836800  0.41470800  1
  O  O4  1  0.38861600  0.65738300  0.08862200  1
  O  O5  1  0.91168100  0.75433800  0.29356500  1
  O  O6  1  0.91310200  0.16596300  0.18595100  1
  O  O7  1  0.41310200  0.33403700  0.81404900  1
  O  O8  1  0.06485700  0.44348700  0.23399400  1
  O  O9  1  0.45198800  0.47351600  0.02965800  1
  O  O10  1  0.73005400  0.45567800  0.31147200  1
  O  O11  1  0.43514300  0.94348700  0.23399400  1
  O  O12  1  0.56485700  0.05651300  0.76600600  1
  O  O13  1  0.84469600  0.93186100  0.19274400  1
  O  O14  1  0.76994600  0.95567800  0.31147200  1
  O  O15  1  0.23464900  0.52621300  0.32190900  1
  O  O16  1  0.15530400  0.06813900  0.80725600  1
  O  O17  1  0.73464900  0.97378700  0.67809100  1
  O  O18  1  0.44636300  0.45122700  0.46629500  1
  O  O19  1  0.64621500  0.13745200  0.66885900  1
  O  O20  1  0.50859500  0.22560700  0.41073700  1
  O  O21  1  0.54801200  0.52648400  0.97034200  1
  O  O22  1  0.62172600  0.74098800  0.85496200  1
  O  O23  1  0.93514300  0.55651300  0.76600600  1
  O  O24  1  0.94636300  0.04877300  0.53370500  1
  O  O25  1  0.96806200  0.53622400  0.17965000  1
  O  O26  1  0.12172600  0.75901200  0.14503800  1
  O  O27  1  0.08689800  0.83403700  0.81404900  1
  O  O28  1  0.18503900  0.90215600  0.36983500  1
  O  O29  1  0.34469600  0.56813900  0.80725600  1
  O  O30  1  0.28487300  0.71085000  0.01308200  1
  O  O31  1  0.11381000  0.66163200  0.58529200  1
  O  O32  1  0.26994600  0.54432200  0.68852800  1
  O  O33  1  0.81849000  0.31735000  0.13937400  1
  O  O34  1  0.58831900  0.25433800  0.29356500  1
  O  O35  1  0.08831900  0.24566200  0.70643500  1
  O  O36  1  0.18151000  0.68265000  0.86062600  1
  O  O37  1  0.03193800  0.46377600  0.82035000  1
  O  O38  1  0.65530400  0.43186100  0.19274400  1
  O  O39  1  0.00859500  0.27439300  0.58926300  1
  O  O40  1  0.11138400  0.15738300  0.08862200  1
  O  O41  1  0.23005400  0.04432200  0.68852800  1
  O  O42  1  0.04801200  0.97351600  0.02965800  1
  O  O43  1  0.71512700  0.28915000  0.98691800  1
  O  O44  1  0.99140500  0.72560700  0.41073700  1
  O  O45  1  0.49140500  0.77439300  0.58926300  1
  O  O46  1  0.21512700  0.21085000  0.01308200  1
  O  O47  1  0.55363700  0.54877300  0.53370500  1
  O  O48  1  0.87827400  0.24098800  0.85496200  1
  O  O49  1  0.68151000  0.81735000  0.13937400  1
  O  O50  1  0.95198800  0.02648400  0.97034200  1
  O  O51  1  0.85378500  0.63745200  0.66885900  1
  O  O52  1  0.37827400  0.25901200  0.14503800  1
  O  O53  1  0.78487300  0.78915000  0.98691800  1
  O  O54  1  0.81496100  0.09784400  0.63016500  1
  O  O55  1  0.26535100  0.02621300  0.32190900  1
  O  O56  1  0.41168100  0.74566200  0.70643500  1
  O  O57  1  0.46806200  0.96377600  0.82035000  1
  O  O58  1  0.31849000  0.18265000  0.86062600  1
  O  O59  1  0.68503900  0.59784400  0.63016500  1
  O  O60  1  0.58689800  0.66596300  0.18595100  1
  O  O61  1  0.88619000  0.33836800  0.41470800  1
  O  O62  1  0.76535100  0.47378700  0.67809100  1
  O  O63  1  0.31496100  0.40215600  0.36983500  1
  O  O64  1  0.88861600  0.84261700  0.91137800  1
  O  O65  1  0.35378500  0.86254800  0.33114100  1
  O  O66  1  0.14621500  0.36254800  0.33114100  1
  O  O67  1  0.61138400  0.34261700  0.91137800  1
loop_
_geom_bond_atom_site_label_1
_geom_bond_atom_site_label_2
_geom_bond_distance
_geom_bond_site_symmetry_2
Ba0 O24 2.683274 1_565
Ba0 O50 2.720313 1_565
Ba0 O25 2.846203 1_556
Ba0 O42 2.867829 1_656
Ba0 O37 2.868467 1_655
Ba0 O39 2.946672 1_665
Ba0 O27 3.001153 1_655
Ba0 O23 3.025828 1_555
Ba0 O2 3.067830 1_655
Ba1 O62 2.709367 1_555
Ba1 O61 2.748253 1_555
Ba1 O54 2.807842 1_555
Ba1 O33 2.813284 1_555
Ba1 O13 2.895167 1_555
Ba1 O10 2.915307 1_555
Ba1 O53 2.928349 1_554
Ba1 O51 3.052901 1_555
Ba1 O14 3.314984 1_555
Ba2 O15 2.709367 1_555
Ba2 O31 2.748253 1_555
Ba2 O28 2.807842 1_555
Ba2 O36 2.813284 1_555
Ba2 O16 2.895167 1_555
Ba2 O32 2.915307 1_555
Ba2 O46 2.928349 1_556
Ba2 O66 3.052901 1_555
Ba2 O41 3.314984 1_555
Ba3 O2 2.683274 1_545
Ba3 O42 2.720313 1_545
Ba3 O37 2.846203 1_554
Ba3 O50 2.867829 1_454
Ba3 O25 2.868467 1_455
Ba3 O44 2.946672 1_445
Ba3 O6 3.001153 1_455
Ba3 O8 3.025828 1_555
Ba3 O24 3.067830 1_455
Ba4 O55 2.709367 1_565
Ba4 O1 2.748253 1_565
Ba4 O63 2.807842 1_565
Ba4 O58 2.813284 1_565
Ba4 O29 2.895167 1_555
Ba4 O41 2.915307 1_565
Ba4 O30 2.928349 1_556
Ba4 O65 3.052901 1_555
Ba4 O32 3.314984 1_555
Ba5 O17 2.709367 1_545
Ba5 O3 2.748253 1_545
Ba5 O59 2.807842 1_545
Ba5 O49 2.813284 1_545
Ba5 O38 2.895167 1_555
Ba5 O14 2.915307 1_545
Ba5 O43 2.928349 1_554
Ba5 O19 3.052901 1_555
Ba5 O10 3.314984 1_555
Ba6 O47 2.683274 1_555
Ba6 O21 2.720313 1_555
Ba6 O0 2.846203 1_556
Ba6 O9 2.867829 1_556
Ba6 O57 2.868467 1_545
Ba6 O45 2.946672 1_555
Ba6 O7 3.001153 1_555
Ba6 O12 3.025828 1_555
Ba6 O18 3.067830 1_555
Ba7 O18 2.683274 1_555
Ba7 O9 2.720313 1_555
Ba7 O57 2.846203 1_554
Ba7 O21 2.867829 1_554
Ba7 O0 2.868467 1_565
Ba7 O20 2.946672 1_555
Ba7 O60 3.001153 1_555
Ba7 O11 3.025828 1_555
Ba7 O47 3.067830 1_555
I0 O37 1.829436 1_555
I0 O39 1.836577 1_555
I0 O35 1.884211 1_555
I0 O31 2.699332 1_555
I1 O66 1.819548 1_555
I1 O8 1.823501 1_555
I1 O26 1.912093 1_555
I2 O54 1.819235 1_565
I2 O17 1.832107 1_555
I2 O53 1.848900 1_555
I3 O65 1.819548 1_545
I3 O11 1.823501 1_545
I3 O52 1.912093 1_555
I4 O14 1.828386 1_545
I4 O33 1.829626 1_555
I4 O13 1.856650 1_545
I5 O41 1.828386 1_565
I5 O36 1.829626 1_555
I5 O16 1.856650 1_565
I6 O32 1.828386 1_555
I6 O58 1.829626 1_555
I6 O29 1.856650 1_555
I7 O59 1.819235 1_555
I7 O62 1.832107 1_555
I7 O43 1.848900 1_555
I8 O25 1.829436 1_555
I8 O44 1.836577 1_555
I8 O5 1.884211 1_555
I8 O61 2.699332 1_555
I9 O18 1.814086 1_555
I9 O1 1.820022 1_555
I9 O7 1.853780 1_555
I10 O51 1.819548 1_555
I10 O23 1.823501 1_555
I10 O48 1.912093 1_555
I11 O2 1.814086 1_555
I11 O31 1.820022 1_555
I11 O27 1.853780 1_555
I12 O10 1.828386 1_555
I12 O49 1.829626 1_555
I12 O38 1.856650 1_555
I13 O28 1.819235 1_545
I13 O55 1.832107 1_555
I13 O46 1.848900 1_555
I14 O57 1.829436 1_555
I14 O45 1.836577 1_555
I14 O56 1.884211 1_555
I14 O1 2.699332 1_565
I15 O47 1.814086 1_555
I15 O3 1.820022 1_555
I15 O60 1.853780 1_555
I16 O24 1.814086 1_555
I16 O61 1.820022 1_555
I16 O6 1.853780 1_555
I17 O0 1.829436 1_555
I17 O20 1.836577 1_555
I17 O34 1.884211 1_555
I17 O3 2.699332 1_545
I18 O63 1.819235 1_555
I18 O15 1.832107 1_555
I18 O30 1.848900 1_555
I19 O19 1.819548 1_565
I19 O12 1.823501 1_565
I19 O22 1.912093 1_555
O4 V2 1.679870 1_554
O5 V0 1.996084 1_555
O6 V0 2.207757 1_545
O7 V2 2.207757 1_555
O9 V2 1.685982 1_554
O13 V0 2.297181 1_555
O16 V3 2.297181 1_555
O21 V1 1.685982 1_556
O22 V1 1.964545 1_556
O26 V3 1.964545 1_564
O27 V3 2.207757 1_565
O29 V2 2.297181 1_555
O34 V1 1.996084 1_555
O35 V3 1.996084 1_555
O38 V1 2.297181 1_555
O40 V3 1.679870 1_554
O42 V3 1.685982 1_564
O48 V0 1.964545 1_546
O50 V0 1.685982 1_546
O52 V2 1.964545 1_554
O56 V2 1.996084 1_555
O60 V1 2.207757 1_555
O64 V0 1.679870 1_556
O67 V1 1.679870 1_556
