# generated using pymatgen
data_Mg2SiO4
_symmetry_space_group_name_H-M   'P 1'
_cell_length_a   7.88682470
_cell_length_b   7.88682470
_cell_length_c   7.88682470
_cell_angle_alpha   136.44274903
_cell_angle_beta   110.84048863
_cell_angle_gamma   85.38535681
_symmetry_Int_Tables_number   1
_chemical_formula_structural   Mg2SiO4
_chemical_formula_sum   'Mg8 Si4 O16'
_cell_volume   303.71060341
_cell_formula_units_Z   4
loop_
 _symmetry_equiv_pos_site_id
 _symmetry_equiv_pos_as_xyz
  1  'x, y, z'
loop_
 _atom_site_type_symbol
 _atom_site_label
 _atom_site_symmetry_multiplicity
 _atom_site_fract_x
 _atom_site_fract_y
 _atom_site_fract_z
 _atom_site_occupancy
  Mg  Mg0  1  0.00000000  0.00000000  0.00000000  1
  Mg  Mg1  1  0.50000000  0.50000000  0.00000000  1
  Mg  Mg2  1  0.30556400  0.75000000  0.55556400  1
  Mg  Mg3  1  0.69443600  0.25000000  0.44443600  1
  Mg  Mg4  1  0.36798400  0.86798400  0.00000000  1
  Mg  Mg5  1  0.63201600  0.63201600  0.50000000  1
  Mg  Mg6  1  0.63201600  0.13201600  0.00000000  1
  Mg  Mg7  1  0.36798400  0.36798400  0.50000000  1
  Si  Si0  1  0.26390300  0.88998200  0.37392200  1
  Si  Si1  1  0.73609700  0.11001900  0.62607800  1
  Si  Si2  1  0.98394000  0.61001900  0.37392200  1
  Si  Si3  1  0.01606000  0.38998200  0.62607800  1
  O  O0  1  0.88840200  0.60182500  0.72055400  1
  O  O1  1  0.11159800  0.83215200  0.71342300  1
  O  O2  1  0.61872900  0.89817500  0.28657700  1
  O  O3  1  0.38127100  0.66784800  0.27944600  1
  O  O4  1  0.11159800  0.39817500  0.27944600  1
  O  O5  1  0.88840200  0.16784800  0.28657700  1
  O  O6  1  0.38127100  0.10182500  0.71342300  1
  O  O7  1  0.61872900  0.33215200  0.72055400  1
  O  O8  1  0.24632400  0.49082000  0.75550400  1
  O  O9  1  0.75367600  0.50918000  0.24449600  1
  O  O10  1  0.76468300  0.00917900  0.75550400  1
  O  O11  1  0.23531700  0.99082100  0.24449600  1
  O  O12  1  0.51406200  0.75000000  0.76406200  1
  O  O13  1  0.48593800  0.25000000  0.23593800  1
  O  O14  1  0.06074500  0.75000000  0.31074500  1
  O  O15  1  0.93925500  0.25000000  0.68925500  1
loop_
_geom_bond_atom_site_label_1
_geom_bond_atom_site_label_2
_geom_bond_distance
_geom_bond_site_symmetry_2
Mg0 O1 2.127667 1_544
Mg0 O5 2.127667 1_455
Mg0 O4 2.127667 1_555
Mg0 O0 2.127667 1_444
Mg0 O10 2.191407 1_454
Mg0 O11 2.191407 1_545
Mg1 O3 2.127667 1_555
Mg1 O6 2.127667 1_554
Mg1 O2 2.127667 1_555
Mg1 O7 2.127667 1_554
Mg1 O9 2.191407 1_555
Mg1 O8 2.191407 1_554
Mg2 O12 1.866553 1_555
Mg2 O3 2.082448 1_555
Mg2 O1 2.082448 1_555
Mg2 O6 2.082448 1_565
Mg2 O4 2.082448 1_555
Mg2 O14 2.191713 1_555
Mg3 O13 1.866553 1_555
Mg3 O7 2.082448 1_555
Mg3 O2 2.082448 1_545
Mg3 O0 2.082448 1_555
Mg3 O5 2.082448 1_555
Mg3 O15 2.191713 1_555
Mg4 O11 2.077637 1_555
Mg4 O8 2.077645 1_554
Mg4 O12 2.121098 1_554
Mg4 O13 2.121098 1_565
Mg4 O2 2.278456 1_555
Mg4 O1 2.278456 1_554
Mg5 O10 2.077637 1_565
Mg5 O9 2.077645 1_555
Mg5 O13 2.121098 1_555
Mg5 O12 2.121098 1_555
Mg5 O0 2.278456 1_555
Mg5 O3 2.278456 1_555
Mg6 O10 2.077637 1_554
Mg6 O9 2.077645 1_555
Mg6 O13 2.121098 1_555
Mg6 O12 2.121098 1_544
Mg6 O5 2.278456 1_555
Mg6 O6 2.278456 1_554
Mg7 O11 2.077637 1_545
Mg7 O8 2.077645 1_555
Mg7 O12 2.121098 1_555
Mg7 O13 2.121098 1_555
Mg7 O7 2.278456 1_555
Mg7 O4 2.278456 1_555
O0 Si3 1.679022 1_655
O1 Si2 1.679023 1_455
O2 Si1 1.679022 1_565
O3 Si0 1.679027 1_555
O4 Si2 1.679027 1_455
O5 Si3 1.679022 1_655
O6 Si0 1.679023 1_545
O7 Si1 1.679022 1_555
O8 Si3 1.645985 1_555
O9 Si2 1.645986 1_555
O10 Si1 1.646002 1_555
O11 Si0 1.645994 1_555
O14 Si0 1.718626 1_555
O14 Si2 1.718626 1_455
O15 Si1 1.718622 1_555
O15 Si3 1.718633 1_655
