# generated using pymatgen
data_Rb3Ti3Te11
_symmetry_space_group_name_H-M   'P 1'
_cell_length_a   15.67103700
_cell_length_b   10.81737400
_cell_length_c   18.26410529
_cell_angle_alpha   55.41386731
_cell_angle_beta   90.00000000
_cell_angle_gamma   90.00000000
_symmetry_Int_Tables_number   1
_chemical_formula_structural   Rb3Ti3Te11
_chemical_formula_sum   'Rb12 Ti12 Te44'
_cell_volume   2548.95558130
_cell_formula_units_Z   4
loop_
 _symmetry_equiv_pos_site_id
 _symmetry_equiv_pos_as_xyz
  1  'x, y, z'
loop_
 _atom_site_type_symbol
 _atom_site_label
 _atom_site_symmetry_multiplicity
 _atom_site_fract_x
 _atom_site_fract_y
 _atom_site_fract_z
 _atom_site_occupancy
  Rb  Rb0  1  0.47417400  0.42713900  0.14836900  1
  Rb  Rb1  1  0.52582600  0.57286100  0.85163100  1
  Rb  Rb2  1  0.37792300  0.71088900  0.55709900  1
  Rb  Rb3  1  0.38934500  0.07358000  0.87625600  1
  Rb  Rb4  1  0.88934500  0.92642000  0.62374400  1
  Rb  Rb5  1  0.02582600  0.42713900  0.64836900  1
  Rb  Rb6  1  0.61065500  0.92642000  0.12374400  1
  Rb  Rb7  1  0.87792300  0.28911100  0.94290100  1
  Rb  Rb8  1  0.12207700  0.71088900  0.05709900  1
  Rb  Rb9  1  0.97417400  0.57286100  0.35163100  1
  Rb  Rb10  1  0.62207700  0.28911100  0.44290100  1
  Rb  Rb11  1  0.11065500  0.07358000  0.37625600  1
  Ti  Ti0  1  0.81142000  0.95335000  0.32400100  1
  Ti  Ti1  1  0.28485200  0.34221300  0.97789500  1
  Ti  Ti2  1  0.70105500  0.34953600  0.68079400  1
  Ti  Ti3  1  0.21514800  0.34221300  0.47789500  1
  Ti  Ti4  1  0.78485200  0.65778700  0.52210500  1
  Ti  Ti5  1  0.79894500  0.34953600  0.18079400  1
  Ti  Ti6  1  0.68858000  0.95335000  0.82400100  1
  Ti  Ti7  1  0.18858000  0.04665000  0.67599900  1
  Ti  Ti8  1  0.20105500  0.65046400  0.81920600  1
  Ti  Ti9  1  0.31142000  0.04665000  0.17599900  1
  Ti  Ti10  1  0.29894500  0.65046400  0.31920600  1
  Ti  Ti11  1  0.71514800  0.65778700  0.02210500  1
  Te  Te0  1  0.92877400  0.14545900  0.19109900  1
  Te  Te1  1  0.78146400  0.68871500  0.86935700  1
  Te  Te2  1  0.56425400  0.78326100  0.95442400  1
  Te  Te3  1  0.21853600  0.31128500  0.13064300  1
  Te  Te4  1  0.29033400  0.44635500  0.80611200  1
  Te  Te5  1  0.33501000  0.83228900  0.13212200  1
  Te  Te6  1  0.42877400  0.85454100  0.30890100  1
  Te  Te7  1  0.34670100  0.08720300  0.31132700  1
  Te  Te8  1  0.61034700  0.58495300  0.52626600  1
  Te  Te9  1  0.57122600  0.14545900  0.69109900  1
  Te  Te10  1  0.38965300  0.41504700  0.47373400  1
  Te  Te11  1  0.65329900  0.91279700  0.68867300  1
  Te  Te12  1  0.69625900  0.36354300  0.05095800  1
  Te  Te13  1  0.83501000  0.16771100  0.36787800  1
  Te  Te14  1  0.80374100  0.36354300  0.55095800  1
  Te  Te15  1  0.46273200  0.59585800  0.27809400  1
  Te  Te16  1  0.71853600  0.68871500  0.36935700  1
  Te  Te17  1  0.03726800  0.59585800  0.77809400  1
  Te  Te18  1  0.28146400  0.31128500  0.63064300  1
  Te  Te19  1  0.15329900  0.08720300  0.81132700  1
  Te  Te20  1  0.30374100  0.63645700  0.94904200  1
  Te  Te21  1  0.29574700  0.06368200  0.54358500  1
  Te  Te22  1  0.33608200  0.85822100  0.76375000  1
  Te  Te23  1  0.83608200  0.14177900  0.73625000  1
  Te  Te24  1  0.70966600  0.55364500  0.19388800  1
  Te  Te25  1  0.16391800  0.85822100  0.26375000  1
  Te  Te26  1  0.79033400  0.55364500  0.69388800  1
  Te  Te27  1  0.93574600  0.78326100  0.45442400  1
  Te  Te28  1  0.79574700  0.93631800  0.95641500  1
  Te  Te29  1  0.06425400  0.21673900  0.54557600  1
  Te  Te30  1  0.07122600  0.85454100  0.80890100  1
  Te  Te31  1  0.53726800  0.40414200  0.72190600  1
  Te  Te32  1  0.70425300  0.93631800  0.45641500  1
  Te  Te33  1  0.20425300  0.06368200  0.04358500  1
  Te  Te34  1  0.11034700  0.41504700  0.97373400  1
  Te  Te35  1  0.66499000  0.16771100  0.86787800  1
  Te  Te36  1  0.88965300  0.58495300  0.02626600  1
  Te  Te37  1  0.43574600  0.21673900  0.04557600  1
  Te  Te38  1  0.96273200  0.40414200  0.22190600  1
  Te  Te39  1  0.19625900  0.63645700  0.44904200  1
  Te  Te40  1  0.20966600  0.44635500  0.30611200  1
  Te  Te41  1  0.66391800  0.14177900  0.23625000  1
  Te  Te42  1  0.16499000  0.83228900  0.63212200  1
  Te  Te43  1  0.84670100  0.91279700  0.18867300  1
loop_
_geom_bond_atom_site_label_1
_geom_bond_atom_site_label_2
_geom_bond_distance
_geom_bond_site_symmetry_2
Rb0 Te15 3.726393 1_555
Rb0 Te2 3.726732 1_554
Rb0 Te37 3.730748 1_555
Rb0 Te7 3.734383 1_555
Rb0 Te41 3.914278 1_555
Rb0 Te20 4.019394 1_554
Rb0 Te12 4.140117 1_555
Rb0 Te24 4.180256 1_555
Rb1 Te31 3.726393 1_555
Rb1 Te37 3.726732 1_556
Rb1 Te2 3.730748 1_555
Rb1 Te11 3.734383 1_555
Rb1 Te22 3.914278 1_555
Rb1 Te12 4.019394 1_556
Rb1 Te20 4.140117 1_555
Rb1 Te4 4.180256 1_555
Rb2 Te39 3.801563 1_555
Rb2 Te31 3.868741 1_555
Rb2 Te21 3.900516 1_565
Rb2 Te6 3.949899 1_555
Rb2 Te4 3.997726 1_555
Rb2 Te18 4.022791 1_555
Rb2 Te7 4.026760 1_565
Rb2 Te8 4.038621 1_555
Rb2 Te42 4.096308 1_555
Rb2 Te10 4.257394 1_555
Rb3 Te2 3.784688 1_545
Rb3 Te4 3.800582 1_555
Rb3 Te31 3.829225 1_555
Rb3 Te19 3.861715 1_555
Rb3 Te5 3.940622 1_546
Rb3 Te22 3.972492 1_545
Rb3 Te18 4.061767 1_555
Rb3 Te9 4.144814 1_555
Rb3 Te33 4.170515 1_556
Rb3 Te37 4.234061 1_556
Rb4 Te29 3.784688 1_665
Rb4 Te26 3.800582 1_555
Rb4 Te17 3.829225 1_655
Rb4 Te11 3.861715 1_555
Rb4 Te13 3.940622 1_565
Rb4 Te23 3.972492 1_565
Rb4 Te1 4.061767 1_555
Rb4 Te30 4.144814 1_655
Rb4 Te32 4.170515 1_555
Rb4 Te27 4.234061 1_555
Rb5 Te17 3.726393 1_555
Rb5 Te27 3.726732 1_455
Rb5 Te29 3.730748 1_555
Rb5 Te19 3.734383 1_555
Rb5 Te23 3.914278 1_455
Rb5 Te39 4.019394 1_555
Rb5 Te14 4.140117 1_455
Rb5 Te26 4.180256 1_455
Rb6 Te37 3.784688 1_565
Rb6 Te24 3.800582 1_555
Rb6 Te15 3.829225 1_555
Rb6 Te43 3.861715 1_555
Rb6 Te35 3.940622 1_564
Rb6 Te41 3.972492 1_565
Rb6 Te16 4.061767 1_555
Rb6 Te6 4.144814 1_555
Rb6 Te28 4.170515 1_554
Rb6 Te2 4.234061 1_554
Rb7 Te12 3.801563 1_556
Rb7 Te17 3.868741 1_655
Rb7 Te28 3.900516 1_545
Rb7 Te0 3.949899 1_556
Rb7 Te26 3.997726 1_555
Rb7 Te1 4.022791 1_555
Rb7 Te43 4.026760 1_546
Rb7 Te34 4.038621 1_655
Rb7 Te35 4.096308 1_555
Rb7 Te36 4.257394 1_556
Rb8 Te20 3.801563 1_554
Rb8 Te38 3.868741 1_455
Rb8 Te33 3.900516 1_565
Rb8 Te30 3.949899 1_554
Rb8 Te40 3.997726 1_555
Rb8 Te3 4.022791 1_555
Rb8 Te19 4.026760 1_564
Rb8 Te36 4.038621 1_455
Rb8 Te5 4.096308 1_555
Rb8 Te34 4.257394 1_554
Rb9 Te38 3.726393 1_555
Rb9 Te29 3.726732 1_655
Rb9 Te27 3.730748 1_555
Rb9 Te43 3.734383 1_555
Rb9 Te25 3.914278 1_655
Rb9 Te14 4.019394 1_555
Rb9 Te39 4.140117 1_655
Rb9 Te40 4.180256 1_655
Rb10 Te14 3.801563 1_555
Rb10 Te15 3.868741 1_555
Rb10 Te32 3.900516 1_545
Rb10 Te9 3.949899 1_555
Rb10 Te24 3.997726 1_555
Rb10 Te16 4.022791 1_555
Rb10 Te11 4.026760 1_545
Rb10 Te10 4.038621 1_555
Rb10 Te13 4.096308 1_555
Rb10 Te8 4.257394 1_555
Rb11 Te27 3.784688 1_445
Rb11 Te40 3.800582 1_555
Rb11 Te38 3.829225 1_455
Rb11 Te7 3.861715 1_555
Rb11 Te42 3.940622 1_545
Rb11 Te25 3.972492 1_545
Rb11 Te3 4.061767 1_555
Rb11 Te0 4.144814 1_455
Rb11 Te21 4.170515 1_555
Rb11 Te29 4.234061 1_555
Te0 Ti0 2.804628 1_545
Te0 Te43 2.849042 1_545
Te0 Ti5 2.928572 1_555
Te0 Te38 3.196497 1_555
Te1 Ti11 2.813421 1_556
Te1 Ti6 2.882282 1_555
Te2 Ti11 2.656527 1_556
Te2 Ti6 2.807081 1_555
Te3 Ti1 2.813421 1_554
Te3 Ti9 2.882282 1_555
Te4 Ti1 2.665987 1_555
Te4 Ti8 2.736612 1_555
Te5 Ti10 2.869405 1_555
Te5 Ti9 2.874969 1_565
Te6 Ti9 2.804628 1_565
Te6 Te7 2.849042 1_565
Te6 Ti10 2.928572 1_555
Te7 Ti9 2.799660 1_555
Te8 Ti4 2.834958 1_555
Te8 Ti2 2.882981 1_555
Te9 Ti6 2.804628 1_545
Te9 Ti2 2.928572 1_555
Te10 Ti3 2.834958 1_555
Te10 Ti10 2.882981 1_555
Te10 Te15 3.157603 1_555
Te11 Ti6 2.799660 1_555
Te11 Te9 2.849042 1_565
Te12 Ti5 2.797821 1_555
Te12 Te41 2.871879 1_555
Te12 Ti11 2.931249 1_555
Te13 Ti5 2.869405 1_555
Te13 Ti0 2.874969 1_545
Te13 Te32 2.912698 1_545
Te13 Te38 3.148654 1_555
Te14 Ti2 2.797821 1_555
Te14 Te23 2.871879 1_555
Te14 Ti4 2.931249 1_555
Te15 Ti10 2.829184 1_555
Te15 Te5 3.148654 1_555
Te15 Te6 3.196497 1_555
Te16 Ti4 2.813421 1_555
Te16 Ti0 2.882282 1_555
Te17 Ti8 2.829184 1_555
Te17 Te42 3.148654 1_555
Te17 Te34 3.157603 1_555
Te17 Te30 3.196497 1_555
Te18 Ti3 2.813421 1_555
Te18 Ti7 2.882282 1_555
Te19 Ti7 2.799660 1_555
Te19 Te30 2.849042 1_545
Te20 Ti8 2.797821 1_555
Te20 Te22 2.871879 1_555
Te20 Ti1 2.931249 1_555
Te21 Ti3 2.829996 1_555
Te21 Ti7 2.863094 1_555
Te21 Te42 2.912698 1_545
Te22 Ti8 2.823101 1_555
Te22 Ti7 2.890961 1_565
Te23 Ti2 2.823101 1_555
Te23 Ti6 2.890961 1_545
Te24 Ti11 2.665987 1_555
Te24 Ti5 2.736612 1_555
Te25 Ti10 2.823101 1_555
Te25 Te39 2.871879 1_555
Te25 Ti9 2.890961 1_565
Te26 Ti4 2.665987 1_555
Te26 Ti2 2.736612 1_555
Te27 Ti4 2.656527 1_555
Te27 Ti0 2.807081 1_555
Te28 Ti11 2.829996 1_556
Te28 Ti6 2.863094 1_555
Te28 Te35 2.912698 1_565
Te29 Ti3 2.656527 1_555
Te29 Ti7 2.807081 1_555
Te30 Ti7 2.804628 1_565
Te30 Ti8 2.928572 1_555
Te31 Ti2 2.829184 1_555
Te31 Te35 3.148654 1_555
Te31 Te8 3.157603 1_555
Te31 Te9 3.196497 1_555
Te32 Ti4 2.829996 1_555
Te32 Ti0 2.863094 1_555
Te33 Ti1 2.829996 1_554
Te33 Ti9 2.863094 1_555
Te33 Te5 2.912698 1_545
Te34 Ti1 2.834958 1_555
Te34 Ti8 2.882981 1_555
Te35 Ti2 2.869405 1_555
Te35 Ti6 2.874969 1_545
Te36 Ti11 2.834958 1_555
Te36 Ti5 2.882981 1_555
Te36 Te38 3.157603 1_555
Te37 Ti1 2.656527 1_554
Te37 Ti9 2.807081 1_555
Te38 Ti5 2.829184 1_555
Te39 Ti10 2.797821 1_555
Te39 Ti3 2.931249 1_555
Te40 Ti3 2.665987 1_555
Te40 Ti10 2.736612 1_555
Te41 Ti5 2.823101 1_555
Te41 Ti0 2.890961 1_545
Te42 Ti8 2.869405 1_555
Te42 Ti7 2.874969 1_565
Te43 Ti0 2.799660 1_555
