# generated using pymatgen
data_KAlCo(PO4)2
_symmetry_space_group_name_H-M   'P 1'
_cell_length_a   9.44275924
_cell_length_b   9.44275924
_cell_length_c   8.86254410
_cell_angle_alpha   82.58222967
_cell_angle_beta   82.58222967
_cell_angle_gamma   88.94198860
_symmetry_Int_Tables_number   1
_chemical_formula_structural   KAlCo(PO4)2
_chemical_formula_sum   'K4 Al4 Co4 P8 O32'
_cell_volume   777.06232902
_cell_formula_units_Z   4
loop_
 _symmetry_equiv_pos_site_id
 _symmetry_equiv_pos_as_xyz
  1  'x, y, z'
loop_
 _atom_site_type_symbol
 _atom_site_label
 _atom_site_symmetry_multiplicity
 _atom_site_fract_x
 _atom_site_fract_y
 _atom_site_fract_z
 _atom_site_occupancy
  K  K0  1  0.91980200  0.45243000  0.77959700  1
  K  K1  1  0.58474000  0.06518000  0.71875400  1
  K  K2  1  0.45243000  0.91980200  0.27959700  1
  K  K3  1  0.06518000  0.58474000  0.21875400  1
  Al  Al0  1  0.44823700  0.70025500  0.95178100  1
  Al  Al1  1  0.19181200  0.06982300  0.61382700  1
  Al  Al2  1  0.70025500  0.44823700  0.45178100  1
  Al  Al3  1  0.06982300  0.19181200  0.11382700  1
  Co  Co0  1  0.93670600  0.80567200  0.87955000  1
  Co  Co1  1  0.29721800  0.53853100  0.55621600  1
  Co  Co2  1  0.80567200  0.93670600  0.37955000  1
  Co  Co3  1  0.53853100  0.29721800  0.05621600  1
  P  P0  1  0.21383900  0.93805500  0.96771500  1
  P  P1  1  0.27832700  0.42366500  0.91777400  1
  P  P2  1  0.57797900  0.70700100  0.59144300  1
  P  P3  1  0.06505900  0.78955100  0.51945100  1
  P  P4  1  0.93805500  0.21383900  0.46771500  1
  P  P5  1  0.42366500  0.27832700  0.41777400  1
  P  P6  1  0.70700100  0.57797900  0.09144300  1
  P  P7  1  0.78955100  0.06505900  0.01945100  1
  O  O0  1  0.85143000  0.64175400  0.01826100  1
  O  O1  1  0.83311500  0.97967700  0.88343300  1
  O  O2  1  0.10177300  0.82073000  0.99354300  1
  O  O3  1  0.32329800  0.55887900  0.98788900  1
  O  O4  1  0.65695700  0.14907800  0.97484400  1
  O  O5  1  0.40333100  0.31869400  0.90485400  1
  O  O6  1  0.53469800  0.71863100  0.76465500  1
  O  O7  1  0.96912700  0.75390400  0.67389400  1
  O  O8  1  0.22072100  0.02539000  0.80658100  1
  O  O9  1  0.21926800  0.46773300  0.76539800  1
  O  O10  1  0.68558700  0.57857400  0.58029400  1
  O  O11  1  0.64175400  0.85143000  0.51826100  1
  O  O12  1  0.86675900  0.36320500  0.48694900  1
  O  O13  1  0.44841100  0.67878800  0.51177600  1
  O  O14  1  0.17163600  0.91400100  0.52995000  1
  O  O15  1  0.04551600  0.18876500  0.58825400  1
  O  O16  1  0.97967700  0.83311500  0.38343300  1
  O  O17  1  0.82073000  0.10177300  0.49354300  1
  O  O18  1  0.55887900  0.32329800  0.48788900  1
  O  O19  1  0.14907800  0.65695700  0.47484400  1
  O  O20  1  0.35730400  0.14938200  0.53331800  1
  O  O21  1  0.31869400  0.40333100  0.40485400  1
  O  O22  1  0.71863100  0.53469800  0.26465500  1
  O  O23  1  0.75390400  0.96912700  0.17389400  1
  O  O24  1  0.02539000  0.22072100  0.30658100  1
  O  O25  1  0.46773300  0.21926800  0.26539800  1
  O  O26  1  0.57857400  0.68558700  0.08029400  1
  O  O27  1  0.36320500  0.86675900  0.98694900  1
  O  O28  1  0.67878800  0.44841100  0.01177600  1
  O  O29  1  0.91400100  0.17163600  0.02995000  1
  O  O30  1  0.18876500  0.04551600  0.08825400  1
  O  O31  1  0.14938200  0.35730400  0.03331800  1
loop_
_geom_bond_atom_site_label_1
_geom_bond_atom_site_label_2
_geom_bond_distance
_geom_bond_site_symmetry_2
K0 O9 2.819858 1_655
K0 O28 2.861615 1_556
K0 O7 2.906235 1_555
K0 O12 2.933047 1_555
K0 O0 2.944136 1_556
K0 O10 3.130212 1_555
K0 O29 3.226634 1_556
K0 O15 3.308297 1_655
K0 O31 3.350822 1_656
K1 O4 2.669761 1_555
K1 O17 2.787625 1_555
K1 O11 2.856561 1_545
K1 O20 2.907959 1_555
K1 O1 2.965169 1_545
K1 O18 3.000998 1_555
K2 O25 2.819858 1_565
K2 O13 2.861615 1_555
K2 O23 2.906235 1_555
K2 O27 2.933047 1_554
K2 O11 2.944136 1_555
K2 O26 3.130212 1_555
K2 O14 3.226634 1_555
K2 O30 3.308297 1_565
K2 O20 3.350822 1_565
K3 O19 2.669761 1_555
K3 O2 2.787625 1_554
K3 O0 2.856561 1_455
K3 O31 2.907959 1_555
K3 O16 2.965169 1_455
K3 O3 3.000998 1_554
Al0 O6 1.740207 1_555
Al0 O3 1.768277 1_555
Al0 O26 1.773706 1_556
Al0 O27 1.796979 1_555
Al1 O14 1.755908 1_545
Al1 O8 1.760661 1_555
Al1 O20 1.769907 1_555
Al1 O15 1.782975 1_555
Al2 O22 1.740207 1_555
Al2 O18 1.768277 1_555
Al2 O10 1.773706 1_555
Al2 O12 1.796979 1_555
Al3 O29 1.755908 1_455
Al3 O24 1.760661 1_555
Al3 O31 1.769907 1_555
Al3 O30 1.782975 1_555
Co0 O1 1.898505 1_555
Co0 O7 1.932649 1_555
Co0 O0 1.963310 1_556
Co0 O2 1.980464 1_655
Co1 O19 1.929212 1_555
Co1 O13 1.933238 1_555
Co1 O9 1.942015 1_555
Co1 O21 1.957774 1_555
Co2 O16 1.898505 1_555
Co2 O23 1.932649 1_555
Co2 O11 1.963310 1_555
Co2 O17 1.980464 1_565
Co3 O4 1.929212 1_554
Co3 O28 1.933238 1_555
Co3 O25 1.942015 1_555
Co3 O5 1.957774 1_554
O0 P6 1.531135 1_555
O1 P7 1.543714 1_566
O2 P0 1.521466 1_555
O3 P1 1.577872 1_555
O4 P7 1.537368 1_556
O5 P1 1.529746 1_555
O6 P2 1.554187 1_555
O7 P3 1.542574 1_655
O8 P0 1.548419 1_545
O9 P1 1.532528 1_555
O10 P2 1.572393 1_555
O11 P2 1.531135 1_555
O12 P4 1.571300 1_555
O13 P2 1.532984 1_555
O14 P3 1.580673 1_555
O15 P4 1.559704 1_455
O16 P3 1.543714 1_655
O17 P4 1.521466 1_555
O18 P5 1.577872 1_555
O19 P3 1.537368 1_555
O20 P5 1.569829 1_555
O21 P5 1.529746 1_555
O22 P6 1.554187 1_555
O23 P7 1.542574 1_565
O24 P4 1.548419 1_455
O25 P5 1.532528 1_555
O26 P6 1.572393 1_555
O27 P0 1.571300 1_555
O28 P6 1.532984 1_555
O29 P7 1.580673 1_555
O30 P0 1.559704 1_544
O31 P1 1.569829 1_554
