# generated using pymatgen
data_Cu3P4S4I3
_symmetry_space_group_name_H-M   'P 1'
_cell_length_a   19.44566845
_cell_length_b   19.44566845
_cell_length_c   6.89233800
_cell_angle_alpha   90.00000000
_cell_angle_beta   90.00000000
_cell_angle_gamma   120.00000153
_symmetry_Int_Tables_number   1
_chemical_formula_structural   Cu3P4S4I3
_chemical_formula_sum   'Cu18 P24 S24 I18'
_cell_volume   2257.05917529
_cell_formula_units_Z   6
loop_
 _symmetry_equiv_pos_site_id
 _symmetry_equiv_pos_as_xyz
  1  'x, y, z'
loop_
 _atom_site_type_symbol
 _atom_site_label
 _atom_site_symmetry_multiplicity
 _atom_site_fract_x
 _atom_site_fract_y
 _atom_site_fract_z
 _atom_site_occupancy
  Cu  Cu0  1  0.87178700  0.87178700  0.80961100  1
  Cu  Cu1  1  0.87178700  0.00000000  0.30961100  1
  Cu  Cu2  1  0.33255500  0.53623100  0.98758900  1
  Cu  Cu3  1  0.00000000  0.12821300  0.80961100  1
  Cu  Cu4  1  0.46376900  0.79632400  0.98758900  1
  Cu  Cu5  1  0.66744500  0.20367600  0.98758900  1
  Cu  Cu6  1  0.46376900  0.66744500  0.48758900  1
  Cu  Cu7  1  0.53623100  0.20367600  0.48758900  1
  Cu  Cu8  1  0.66744500  0.46376900  0.48758900  1
  Cu  Cu9  1  0.79632400  0.33255500  0.48758900  1
  Cu  Cu10  1  0.33255500  0.79632400  0.48758900  1
  Cu  Cu11  1  0.12821300  0.00000000  0.80961100  1
  Cu  Cu12  1  0.20367600  0.53623100  0.48758900  1
  Cu  Cu13  1  0.79632400  0.46376900  0.98758900  1
  Cu  Cu14  1  0.12821300  0.12821300  0.30961100  1
  Cu  Cu15  1  0.53623100  0.33255500  0.98758900  1
  Cu  Cu16  1  0.00000000  0.87178700  0.30961100  1
  Cu  Cu17  1  0.20367600  0.66744500  0.98758900  1
  P  P0  1  0.42723400  0.33551600  0.06895200  1
  P  P1  1  0.42723400  0.09171900  0.56895200  1
  P  P2  1  0.33551600  0.90828100  0.56895200  1
  P  P3  1  0.39994500  0.00000000  0.81038800  1
  P  P4  1  0.09171900  0.66448400  0.06895200  1
  P  P5  1  0.00000000  0.76301300  0.21819900  1
  P  P6  1  0.33551600  0.42723400  0.06895200  1
  P  P7  1  0.00000000  0.23698700  0.71819900  1
  P  P8  1  0.60005500  0.60005500  0.81038800  1
  P  P9  1  0.76301300  0.00000000  0.21819900  1
  P  P10  1  0.76301300  0.76301300  0.71819900  1
  P  P11  1  0.66448400  0.57276600  0.56895200  1
  P  P12  1  0.90828100  0.33551600  0.56895200  1
  P  P13  1  0.00000000  0.39994500  0.81038800  1
  P  P14  1  0.60005500  0.00000000  0.31038800  1
  P  P15  1  0.09171900  0.42723400  0.56895200  1
  P  P16  1  0.39994500  0.39994500  0.31038800  1
  P  P17  1  0.90828100  0.57276600  0.06895200  1
  P  P18  1  0.00000000  0.60005500  0.31038800  1
  P  P19  1  0.57276600  0.90828100  0.06895200  1
  P  P20  1  0.57276600  0.66448400  0.56895200  1
  P  P21  1  0.66448400  0.09171900  0.06895200  1
  P  P22  1  0.23698700  0.23698700  0.21819900  1
  P  P23  1  0.23698700  0.00000000  0.71819900  1
  S  S0  1  0.30736900  0.30736900  0.45792000  1
  S  S1  1  0.89770300  0.67635000  0.06671800  1
  S  S2  1  0.41040900  0.41040900  0.86993600  1
  S  S3  1  0.41040900  0.00000000  0.36993600  1
  S  S4  1  0.69263100  0.00000000  0.45792000  1
  S  S5  1  0.89770300  0.22135200  0.56671800  1
  S  S6  1  0.00000000  0.41040900  0.36993600  1
  S  S7  1  0.67635000  0.77864800  0.56671800  1
  S  S8  1  0.58959100  0.00000000  0.86993600  1
  S  S9  1  0.00000000  0.69263100  0.45792000  1
  S  S10  1  0.00000000  0.58959100  0.86993600  1
  S  S11  1  0.67635000  0.89770300  0.06671800  1
  S  S12  1  0.10229700  0.77864800  0.06671800  1
  S  S13  1  0.77864800  0.67635000  0.56671800  1
  S  S14  1  0.22135200  0.89770300  0.56671800  1
  S  S15  1  0.10229700  0.32365000  0.56671800  1
  S  S16  1  0.32365000  0.22135200  0.06671800  1
  S  S17  1  0.69263100  0.69263100  0.95792000  1
  S  S18  1  0.30736900  0.00000000  0.95792000  1
  S  S19  1  0.32365000  0.10229700  0.56671800  1
  S  S20  1  0.58959100  0.58959100  0.36993600  1
  S  S21  1  0.00000000  0.30736900  0.95792000  1
  S  S22  1  0.22135200  0.32365000  0.06671800  1
  S  S23  1  0.77864800  0.10229700  0.06671800  1
  I  I0  1  0.33415500  0.79713200  0.09943000  1
  I  I1  1  0.20286800  0.66584500  0.59943000  1
  I  I2  1  0.66584500  0.46297700  0.09943000  1
  I  I3  1  0.87089900  0.00000000  0.69398700  1
  I  I4  1  0.33415500  0.53702300  0.59943000  1
  I  I5  1  0.46297700  0.79713200  0.59943000  1
  I  I6  1  0.53702300  0.20286800  0.09943000  1
  I  I7  1  0.53702300  0.33415500  0.59943000  1
  I  I8  1  0.87089900  0.87089900  0.19398700  1
  I  I9  1  0.79713200  0.46297700  0.59943000  1
  I  I10  1  0.00000000  0.87089900  0.69398700  1
  I  I11  1  0.46297700  0.66584500  0.09943000  1
  I  I12  1  0.66584500  0.20286800  0.59943000  1
  I  I13  1  0.12910100  0.12910100  0.69398700  1
  I  I14  1  0.20286800  0.53702300  0.09943000  1
  I  I15  1  0.00000000  0.12910100  0.19398700  1
  I  I16  1  0.12910100  0.00000000  0.19398700  1
  I  I17  1  0.79713200  0.33415500  0.09943000  1
loop_
_geom_bond_atom_site_label_1
_geom_bond_atom_site_label_2
_geom_bond_distance
_geom_bond_site_symmetry_2
Cu0 P10 2.207024 1_555
Cu0 I10 2.625722 1_655
Cu0 I3 2.625722 1_565
Cu0 I8 2.649306 1_556
Cu1 P9 2.207024 1_555
Cu1 I15 2.625722 1_655
Cu1 I8 2.625722 1_545
Cu1 I3 2.649306 1_555
Cu2 P6 2.220854 1_556
Cu2 I11 2.643222 1_556
Cu2 I14 2.644430 1_556
Cu2 I4 2.675459 1_555
Cu3 P7 2.207024 1_555
Cu3 I3 2.625722 1_455
Cu3 I13 2.625722 1_555
Cu3 I15 2.649306 1_556
Cu4 P19 2.220844 1_556
Cu4 I0 2.643222 1_556
Cu4 I11 2.644430 1_556
Cu4 I5 2.675459 1_555
Cu5 P21 2.220835 1_556
Cu5 I6 2.643222 1_556
Cu5 I17 2.644430 1_556
Cu5 I12 2.675459 1_555
Cu6 P20 2.220854 1_555
Cu6 I4 2.643222 1_555
Cu6 I5 2.644430 1_555
Cu6 I11 2.675459 1_555
Cu7 P1 2.220844 1_555
Cu7 I12 2.643222 1_555
Cu7 I7 2.644430 1_555
Cu7 I6 2.675459 1_555
Cu8 P11 2.220854 1_555
Cu8 I7 2.643222 1_555
Cu8 I9 2.644430 1_555
Cu8 I2 2.675459 1_555
Cu9 P12 2.220835 1_555
Cu9 I9 2.643222 1_555
Cu9 I12 2.644430 1_555
Cu9 I17 2.675459 1_555
Cu10 P2 2.220835 1_555
Cu10 I5 2.643222 1_555
Cu10 I1 2.644430 1_555
Cu10 I0 2.675459 1_555
Cu11 P23 2.207024 1_555
Cu11 I10 2.625722 1_545
Cu11 I13 2.625722 1_555
Cu11 I16 2.649306 1_556
Cu12 P15 2.220844 1_555
Cu12 I1 2.643222 1_555
Cu12 I4 2.644430 1_555
Cu12 I14 2.675459 1_555
Cu13 P17 2.220844 1_556
Cu13 I17 2.643222 1_556
Cu13 I2 2.644430 1_556
Cu13 I9 2.675459 1_555
Cu14 P22 2.207024 1_555
Cu14 I15 2.625722 1_555
Cu14 I16 2.625722 1_555
Cu14 I13 2.649306 1_555
Cu15 P0 2.220854 1_556
Cu15 I2 2.643222 1_556
Cu15 I6 2.644430 1_556
Cu15 I7 2.675459 1_555
Cu16 P5 2.207024 1_555
Cu16 I16 2.625722 1_565
Cu16 I8 2.625722 1_455
Cu16 I10 2.649306 1_555
Cu17 P4 2.220835 1_556
Cu17 I14 2.643222 1_556
Cu17 I0 2.644430 1_556
Cu17 I1 2.675459 1_555
P0 S16 2.124667 1_555
P0 S2 2.141490 1_554
P0 P16 2.298954 1_555
P1 S19 2.124645 1_555
P1 S3 2.141505 1_555
P1 P3 2.298967 1_555
P2 S14 2.124684 1_555
P2 S3 2.141500 1_565
P2 P3 2.298964 1_565
P3 S18 2.067533 1_555
P4 S12 2.124684 1_555
P4 S10 2.141500 1_554
P5 S12 2.129496 1_555
P5 S1 2.129502 1_455
P5 S9 2.145466 1_555
P6 S22 2.124667 1_555
P6 S2 2.141490 1_554
P7 S5 2.129496 1_455
P7 S15 2.129502 1_555
P7 S21 2.145466 1_555
P8 S17 2.067533 1_555
P9 S23 2.129496 1_555
P9 S11 2.129502 1_545
P9 S4 2.145466 1_555
P10 S13 2.129512 1_555
P10 S7 2.129512 1_555
P10 S17 2.145466 1_555
P11 S13 2.124667 1_555
P11 S20 2.141490 1_555
P11 P8 2.298954 1_555
P12 S5 2.124684 1_555
P12 S6 2.141500 1_655
P12 P13 2.298964 1_655
P13 S21 2.067533 1_555
P13 P15 2.298967 1_555
P14 S4 2.067533 1_555
P14 P21 2.298964 1_555
P14 P19 2.298967 1_545
P15 S15 2.124645 1_555
P15 S6 2.141505 1_555
P16 S0 2.067533 1_555
P16 P6 2.298954 1_555
P17 S1 2.124645 1_555
P17 S10 2.141505 1_654
P17 P18 2.298967 1_655
P18 S9 2.067533 1_555
P18 P4 2.298964 1_555
P19 S11 2.124645 1_555
P19 S8 2.141505 1_564
P20 S7 2.124667 1_555
P20 S20 2.141490 1_555
P20 P8 2.298954 1_555
P21 S23 2.124684 1_555
P21 S8 2.141500 1_554
P22 S22 2.129512 1_555
P22 S16 2.129512 1_555
P22 S0 2.145466 1_555
P23 S14 2.129496 1_545
P23 S19 2.129502 1_555
P23 S18 2.145466 1_555
