# generated using pymatgen
data_FeMoO4
_symmetry_space_group_name_H-M   'P 1'
_cell_length_a   6.89683216
_cell_length_b   6.89533230
_cell_length_c   7.07551145
_cell_angle_alpha   76.86663011
_cell_angle_beta   77.10203631
_cell_angle_gamma   84.39007514
_symmetry_Int_Tables_number   1
_chemical_formula_structural   FeMoO4
_chemical_formula_sum   'Fe4 Mo4 O16'
_cell_volume   319.02150959
_cell_formula_units_Z   4
loop_
 _symmetry_equiv_pos_site_id
 _symmetry_equiv_pos_as_xyz
  1  'x, y, z'
loop_
 _atom_site_type_symbol
 _atom_site_label
 _atom_site_symmetry_multiplicity
 _atom_site_fract_x
 _atom_site_fract_y
 _atom_site_fract_z
 _atom_site_occupancy
  Fe  Fe0  1  0.81460878  0.18448271  0.50020058  1
  Fe  Fe1  1  0.18425152  0.81480190  0.50177604  1
  Fe  Fe2  1  0.79716858  0.79437983  0.85688565  1
  Fe  Fe3  1  0.20289843  0.20266170  0.14514800  1
  Mo  Mo0  1  0.75224376  0.24542082  -0.00063874  1
  Mo  Mo1  1  0.24635949  0.75186375  0.00173598  1
  Mo  Mo2  1  0.26475314  0.26453240  0.60410978  1
  Mo  Mo3  1  0.73526152  0.73664131  0.39754439  1
  O  O0  1  0.86106830  0.86143367  0.53827501  1
  O  O1  1  0.14286212  0.14372433  0.45396344  1
  O  O2  1  0.19168183  0.18958421  0.86777335  1
  O  O3  1  0.80741278  0.81195888  0.13621196  1
  O  O4  1  0.78977543  0.49731746  0.89081707  1
  O  O5  1  0.49829313  0.78674464  0.89631195  1
  O  O6  1  0.20976002  0.50088104  0.10748962  1
  O  O7  1  0.50107976  0.21198054  0.10406583  1
  O  O8  1  0.11378521  0.80711149  0.79741122  1
  O  O9  1  0.80722182  0.11144036  0.79702633  1
  O  O10  1  0.88468661  0.19525643  0.20110886  1
  O  O11  1  0.19394358  0.88521151  0.20270312  1
  O  O12  1  0.20840604  0.51890147  0.53667890  1
  O  O13  1  0.51877764  0.20875839  0.53549655  1
  O  O14  1  0.79333856  0.48119850  0.46278043  1
  O  O15  1  0.48036093  0.79371165  0.46512567  1
loop_
_geom_bond_atom_site_label_1
_geom_bond_atom_site_label_2
_geom_bond_distance
_geom_bond_site_symmetry_2
Fe0 O13 1.994481 1_555
Fe0 O14 1.997509 1_555
Fe0 O9 2.035592 1_555
Fe0 O10 2.048535 1_555
Fe0 O0 2.182527 1_545
Fe0 O1 2.213151 1_655
Fe1 O12 1.993647 1_555
Fe1 O15 1.995418 1_555
Fe1 O8 2.028620 1_555
Fe1 O11 2.048013 1_555
Fe1 O0 2.186068 1_455
Fe1 O1 2.215343 1_565
Fe2 O4 2.011822 1_555
Fe2 O5 2.021722 1_555
Fe2 O3 2.024507 1_556
Fe2 O9 2.135314 1_565
Fe2 O8 2.136256 1_655
Fe2 O0 2.147711 1_555
Fe3 O2 2.003834 1_554
Fe3 O6 2.016457 1_555
Fe3 O7 2.017008 1_555
Fe3 O1 2.082405 1_555
Fe3 O11 2.138027 1_545
Fe3 O10 2.144918 1_455
Mo0 O7 1.740749 1_555
Mo0 O4 1.751185 1_554
Mo0 O10 1.813180 1_555
Mo0 O9 1.826748 1_554
Mo1 O6 1.741044 1_555
Mo1 O5 1.747822 1_554
Mo1 O11 1.815966 1_555
Mo1 O8 1.828372 1_554
Mo2 O12 1.739038 1_555
Mo2 O13 1.739649 1_555
Mo2 O2 1.787294 1_555
Mo2 O1 1.861990 1_555
Mo3 O15 1.746157 1_555
Mo3 O14 1.746721 1_555
Mo3 O3 1.771927 1_555
Mo3 O0 1.845489 1_555
