# generated using pymatgen
data_K2Cu(Si2O5)2
_symmetry_space_group_name_H-M   'P 1'
_cell_length_a   8.24520298
_cell_length_b   11.05115608
_cell_length_c   11.29824193
_cell_angle_alpha   68.98108351
_cell_angle_beta   90.00000000
_cell_angle_gamma   90.00000000
_symmetry_Int_Tables_number   1
_chemical_formula_structural   K2Cu(Si2O5)2
_chemical_formula_sum   'K8 Cu4 Si16 O40'
_cell_volume   960.98499053
_cell_formula_units_Z   4
loop_
 _symmetry_equiv_pos_site_id
 _symmetry_equiv_pos_as_xyz
  1  'x, y, z'
loop_
 _atom_site_type_symbol
 _atom_site_label
 _atom_site_symmetry_multiplicity
 _atom_site_fract_x
 _atom_site_fract_y
 _atom_site_fract_z
 _atom_site_occupancy
  K  K0  1  0.25000000  0.58198176  0.91335448  1
  K  K1  1  0.75000000  0.94310749  0.44352164  1
  K  K2  1  0.75000000  0.02275645  0.04480295  1
  K  K3  1  0.25000000  0.97724355  0.95519705  1
  K  K4  1  0.75000000  0.41801824  0.08664552  1
  K  K5  1  0.25000000  0.46312183  0.52905485  1
  K  K6  1  0.25000000  0.05689251  0.55647836  1
  K  K7  1  0.75000000  0.53687817  0.47094515  1
  Cu  Cu0  1  0.49601632  0.21137210  0.71293389  1
  Cu  Cu1  1  0.50398368  0.78862790  0.28706611  1
  Cu  Cu2  1  0.00398368  0.21137210  0.71293389  1
  Cu  Cu3  1  0.99601632  0.78862790  0.28706611  1
  Si  Si0  1  0.93489764  0.48630653  0.74979364  1
  Si  Si1  1  0.44406140  0.09568628  0.23919119  1
  Si  Si2  1  0.44090700  0.75234190  0.58792211  1
  Si  Si3  1  0.56510236  0.48630653  0.74979364  1
  Si  Si4  1  0.55909300  0.24765810  0.41207789  1
  Si  Si5  1  0.94232073  0.72836274  0.03556033  1
  Si  Si6  1  0.55767927  0.72836274  0.03556033  1
  Si  Si7  1  0.05767927  0.27163726  0.96443967  1
  Si  Si8  1  0.06510236  0.51369347  0.25020636  1
  Si  Si9  1  0.94090700  0.24765810  0.41207789  1
  Si  Si10  1  0.94406140  0.90431372  0.76080881  1
  Si  Si11  1  0.43489764  0.51369347  0.25020636  1
  Si  Si12  1  0.05909300  0.75234190  0.58792211  1
  Si  Si13  1  0.44232073  0.27163726  0.96443967  1
  Si  Si14  1  0.05593860  0.09568628  0.23919119  1
  Si  Si15  1  0.55593860  0.90431372  0.76080881  1
  O  O0  1  0.99653365  0.21738371  0.11209900  1
  O  O1  1  0.00346635  0.78261629  0.88790100  1
  O  O2  1  0.45694816  0.03063192  0.74799719  1
  O  O3  1  0.05589767  0.61199436  0.70585657  1
  O  O4  1  0.25000000  0.07788123  0.22768134  1
  O  O5  1  0.53408401  0.74869089  0.46734826  1
  O  O6  1  0.96591599  0.74869089  0.46734826  1
  O  O7  1  0.97746326  0.85946431  0.63971145  1
  O  O8  1  0.50346635  0.21738371  0.11209900  1
  O  O9  1  0.04305184  0.03063192  0.74799719  1
  O  O10  1  0.03408401  0.25130911  0.53265174  1
  O  O11  1  0.01319834  0.17433752  0.89490334  1
  O  O12  1  0.94410233  0.38800564  0.29414343  1
  O  O13  1  0.97050765  0.39468930  0.67251347  1
  O  O14  1  0.52949235  0.39468930  0.67251347  1
  O  O15  1  0.53268340  0.41365861  0.90286168  1
  O  O16  1  0.75000000  0.69271606  0.03777912  1
  O  O17  1  0.47050765  0.60531070  0.32748653  1
  O  O18  1  0.02949235  0.60531070  0.32748653  1
  O  O19  1  0.02253674  0.14053569  0.36028855  1
  O  O20  1  0.25000000  0.45703497  0.26755209  1
  O  O21  1  0.52253674  0.85946431  0.63971145  1
  O  O22  1  0.54305184  0.96936808  0.25200281  1
  O  O23  1  0.44410233  0.61199436  0.70585657  1
  O  O24  1  0.46591599  0.25130911  0.53265174  1
  O  O25  1  0.96731660  0.41365861  0.90286168  1
  O  O26  1  0.98680166  0.82566248  0.10509666  1
  O  O27  1  0.75000000  0.92211877  0.77231866  1
  O  O28  1  0.25000000  0.79317807  0.56407448  1
  O  O29  1  0.46731660  0.58634139  0.09713832  1
  O  O30  1  0.75000000  0.54296503  0.73244791  1
  O  O31  1  0.49653365  0.78261629  0.88790100  1
  O  O32  1  0.95694816  0.96936808  0.25200281  1
  O  O33  1  0.48680166  0.17433752  0.89490334  1
  O  O34  1  0.51319834  0.82566248  0.10509666  1
  O  O35  1  0.25000000  0.30728394  0.96222088  1
  O  O36  1  0.47746326  0.14053569  0.36028855  1
  O  O37  1  0.55589767  0.38800564  0.29414343  1
  O  O38  1  0.03268340  0.58634139  0.09713832  1
  O  O39  1  0.75000000  0.20682193  0.43592552  1
loop_
_geom_bond_atom_site_label_1
_geom_bond_atom_site_label_2
_geom_bond_distance
_geom_bond_site_symmetry_2
K0 O29 2.756135 1_556
K0 O38 2.756135 1_556
K0 O23 2.758546 1_555
K0 O3 2.758546 1_555
K0 O35 2.884121 1_555
K0 O1 2.945066 1_555
K0 O31 2.945066 1_555
K0 O25 3.010815 1_455
K0 O15 3.010815 1_555
K1 O22 2.688393 1_555
K1 O32 2.688393 1_555
K1 O6 2.728205 1_555
K1 O5 2.728205 1_555
K1 O21 2.795599 1_555
K1 O7 2.795599 1_555
K1 O39 2.884679 1_565
K1 O36 3.036832 1_565
K1 O19 3.036832 1_665
K2 O32 2.783723 1_545
K2 O22 2.783723 1_545
K2 O26 2.820644 1_545
K2 O34 2.820644 1_545
K2 O11 2.889410 1_654
K2 O33 2.889410 1_554
K2 O8 3.241814 1_555
K2 O0 3.241814 1_555
K3 O9 2.783723 1_565
K3 O2 2.783723 1_565
K3 O11 2.820644 1_565
K3 O33 2.820644 1_565
K3 O34 2.889410 1_556
K3 O26 2.889410 1_456
K3 O31 3.241814 1_555
K3 O1 3.241814 1_555
K4 O15 2.756135 1_554
K4 O25 2.756135 1_554
K4 O12 2.758546 1_555
K4 O37 2.758546 1_555
K4 O16 2.884121 1_555
K4 O0 2.945066 1_555
K4 O8 2.945066 1_555
K4 O38 3.010815 1_655
K4 O29 3.010815 1_555
K5 O13 2.762299 1_455
K5 O14 2.762299 1_555
K5 O17 2.897252 1_555
K5 O18 2.897252 1_555
K5 O10 2.929506 1_555
K5 O24 2.929506 1_555
K5 O20 2.979310 1_555
K6 O2 2.688393 1_555
K6 O9 2.688393 1_555
K6 O24 2.728205 1_555
K6 O10 2.728205 1_555
K6 O19 2.795599 1_555
K6 O36 2.795599 1_555
K6 O28 2.884679 1_545
K6 O7 3.036832 1_445
K6 O21 3.036832 1_545
K7 O18 2.762299 1_655
K7 O17 2.762299 1_555
K7 O13 2.897252 1_555
K7 O14 2.897252 1_555
K7 O5 2.929506 1_555
K7 O6 2.929506 1_555
K7 O30 2.979310 1_555
Cu0 O2 1.919020 1_555
Cu0 O14 1.930079 1_555
Cu0 O24 1.939162 1_555
Cu0 O33 1.948470 1_555
Cu1 O22 1.919020 1_555
Cu1 O17 1.930079 1_555
Cu1 O5 1.939162 1_555
Cu1 O34 1.948470 1_555
Cu2 O9 1.919020 1_555
Cu2 O13 1.930079 1_455
Cu2 O10 1.939162 1_555
Cu2 O11 1.948470 1_555
Cu3 O32 1.919020 1_555
Cu3 O18 1.930079 1_655
Cu3 O6 1.939162 1_555
Cu3 O26 1.948470 1_555
O0 Si7 1.636862 1_654
O0 Si14 1.650817 1_655
O1 Si5 1.636862 1_456
O1 Si10 1.650817 1_455
O2 Si15 1.578255 1_545
O3 Si0 1.635987 1_455
O3 Si12 1.642932 1_555
O4 Si14 1.623030 1_555
O4 Si1 1.623030 1_555
O5 Si2 1.577045 1_555
O6 Si12 1.577045 1_655
O7 Si10 1.637039 1_555
O7 Si12 1.641257 1_655
O8 Si13 1.636862 1_554
O8 Si1 1.650817 1_555
O9 Si10 1.578255 1_445
O10 Si9 1.577045 1_455
O11 Si7 1.585545 1_555
O12 Si8 1.635987 1_655
O12 Si9 1.642932 1_555
O13 Si0 1.583612 1_555
O14 Si3 1.583612 1_555
O15 Si3 1.646461 1_555
O15 Si13 1.648990 1_555
O16 Si5 1.631947 1_555
O16 Si6 1.631947 1_555
O17 Si11 1.583612 1_555
O18 Si8 1.583612 1_555
O19 Si14 1.637039 1_555
O19 Si9 1.641257 1_455
O20 Si11 1.632970 1_555
O20 Si8 1.632970 1_555
O21 Si15 1.637039 1_555
O21 Si2 1.641257 1_555
O22 Si1 1.578255 1_565
O23 Si3 1.635987 1_555
O23 Si2 1.642932 1_555
O24 Si4 1.577045 1_555
O25 Si0 1.646461 1_555
O25 Si7 1.648990 1_655
O26 Si5 1.585545 1_555
O27 Si10 1.623030 1_555
O27 Si15 1.623030 1_555
O28 Si2 1.633009 1_555
O28 Si12 1.633009 1_555
O29 Si11 1.646461 1_555
O29 Si6 1.648990 1_555
O30 Si3 1.632970 1_555
O30 Si0 1.632970 1_555
O31 Si6 1.636862 1_556
O31 Si15 1.650817 1_555
O32 Si14 1.578255 1_665
O33 Si13 1.585545 1_555
O34 Si6 1.585545 1_555
O35 Si7 1.631947 1_555
O35 Si13 1.631947 1_555
O36 Si1 1.637039 1_555
O36 Si4 1.641257 1_555
O37 Si11 1.635987 1_555
O37 Si4 1.642932 1_555
O38 Si8 1.646461 1_555
O38 Si5 1.648990 1_455
O39 Si9 1.633009 1_555
O39 Si4 1.633009 1_555
