# generated using pymatgen
data_KFeBP2HO9
_symmetry_space_group_name_H-M   'P 1'
_cell_length_a   5.16969200
_cell_length_b   8.10998619
_cell_length_c   8.35030346
_cell_angle_alpha   85.88997058
_cell_angle_beta   80.83606264
_cell_angle_gamma   86.19636361
_symmetry_Int_Tables_number   1
_chemical_formula_structural   KFeBP2HO9
_chemical_formula_sum   'K2 Fe2 B2 P4 H2 O18'
_cell_volume   344.20201150
_cell_formula_units_Z   2
loop_
 _symmetry_equiv_pos_site_id
 _symmetry_equiv_pos_as_xyz
  1  'x, y, z'
loop_
 _atom_site_type_symbol
 _atom_site_label
 _atom_site_symmetry_multiplicity
 _atom_site_fract_x
 _atom_site_fract_y
 _atom_site_fract_z
 _atom_site_occupancy
  K  K0  1  0.72121500  0.32781600  0.11191600  1
  K  K1  1  0.27878500  0.67218400  0.88808400  1
  Fe  Fe0  1  0.26375500  0.19598200  0.80731600  1
  Fe  Fe1  1  0.73624500  0.80401800  0.19268400  1
  B  B0  1  0.12643500  0.26396300  0.44716400  1
  B  B1  1  0.87356500  0.73603700  0.55283600  1
  P  P0  1  0.20158300  0.58708400  0.30400700  1
  P  P1  1  0.79841700  0.41291600  0.69599300  1
  P  P2  1  0.22036100  0.06127600  0.18156400  1
  P  P3  1  0.77963900  0.93872400  0.81843600  1
  H  H0  1  0.47868300  0.17293300  0.51966000  1
  H  H1  1  0.52131700  0.82706700  0.48034000  1
  O  O0  1  0.03046900  0.40303000  0.79252700  1
  O  O1  1  0.96953100  0.59697000  0.20747300  1
  O  O2  1  0.06962200  0.14316500  0.33810500  1
  O  O3  1  0.93037800  0.85683500  0.66189500  1
  O  O4  1  0.06104700  0.91881600  0.15133600  1
  O  O5  1  0.93895300  0.08118400  0.84866400  1
  O  O6  1  0.13050200  0.68120700  0.46444100  1
  O  O7  1  0.86949800  0.31879300  0.53555900  1
  O  O8  1  0.23568900  0.20228600  0.04474600  1
  O  O9  1  0.76431100  0.79771400  0.95525400  1
  O  O10  1  0.27107700  0.40074300  0.35135300  1
  O  O11  1  0.72892300  0.59925700  0.64864700  1
  O  O12  1  0.29380900  0.18942000  0.56569300  1
  O  O13  1  0.70619100  0.81058000  0.43430700  1
  O  O14  1  0.45209500  0.64916000  0.20344500  1
  O  O15  1  0.54790500  0.35084000  0.79655500  1
  O  O16  1  0.50165100  0.00364500  0.21010100  1
  O  O17  1  0.49834900  0.99635500  0.78989900  1
loop_
_geom_bond_atom_site_label_1
_geom_bond_atom_site_label_2
_geom_bond_distance
_geom_bond_site_symmetry_2
K0 O8 2.769896 1_655
K0 O1 2.827914 1_555
K0 O10 2.875325 1_555
K0 O15 2.903623 1_554
K0 O8 2.918993 1_555
K0 O0 2.928994 1_654
K0 O16 2.943277 1_555
K0 O14 2.962647 1_555
K0 O2 3.061760 1_655
K0 O5 3.105386 1_554
K1 O9 2.769896 1_455
K1 O0 2.827914 1_555
K1 O11 2.875325 1_555
K1 O14 2.903623 1_556
K1 O9 2.918993 1_555
K1 O1 2.928994 1_456
K1 O17 2.943277 1_555
K1 O15 2.962647 1_555
K1 O3 3.061760 1_455
K1 O4 3.105386 1_556
Fe0 O5 1.944768 1_455
Fe0 O17 1.957071 1_545
Fe0 O8 1.968842 1_556
Fe0 O15 1.982363 1_555
Fe0 O12 2.003055 1_555
Fe0 O0 2.009560 1_555
Fe1 O4 1.944768 1_655
Fe1 O16 1.957071 1_565
Fe1 O9 1.968842 1_554
Fe1 O14 1.982363 1_555
Fe1 O13 2.003055 1_555
Fe1 O1 2.009560 1_555
B0 O2 1.458288 1_555
B0 O7 1.470815 1_455
B0 O12 1.487074 1_555
B0 O10 1.490641 1_555
B1 O3 1.458288 1_555
B1 O6 1.470815 1_655
B1 O13 1.487074 1_555
B1 O11 1.490641 1_555
H0 O12 0.975946 1_555
H1 O13 0.975946 1_555
O0 P1 1.543154 1_455
O1 P0 1.543154 1_655
O2 P2 1.577441 1_555
O3 P3 1.577441 1_555
O4 P2 1.520241 1_565
O5 P3 1.520241 1_545
O6 P0 1.570034 1_555
O7 P1 1.570034 1_555
O8 P2 1.554099 1_555
O9 P3 1.554099 1_555
O10 P0 1.567397 1_555
O11 P1 1.567397 1_555
O14 P0 1.521612 1_555
O15 P1 1.521612 1_555
O16 P2 1.547293 1_555
O17 P3 1.547293 1_555
