# generated using pymatgen
data_WSNCl5
_symmetry_space_group_name_H-M   'P 1'
_cell_length_a   9.55590100
_cell_length_b   6.28812900
_cell_length_c   16.78503521
_cell_angle_alpha   69.78601218
_cell_angle_beta   90.00000000
_cell_angle_gamma   90.00000000
_symmetry_Int_Tables_number   1
_chemical_formula_structural   WSNCl5
_chemical_formula_sum   'W4 S4 N4 Cl20'
_cell_volume   946.47111516
_cell_formula_units_Z   4
loop_
 _symmetry_equiv_pos_site_id
 _symmetry_equiv_pos_as_xyz
  1  'x, y, z'
loop_
 _atom_site_type_symbol
 _atom_site_label
 _atom_site_symmetry_multiplicity
 _atom_site_fract_x
 _atom_site_fract_y
 _atom_site_fract_z
 _atom_site_occupancy
  W  W0  1  0.85290700  0.90299000  0.59046400  1
  W  W1  1  0.64709300  0.90299000  0.09046400  1
  W  W2  1  0.14709300  0.09701000  0.40953600  1
  W  W3  1  0.35290700  0.09701000  0.90953600  1
  S  S0  1  0.28796400  0.57212500  0.74424400  1
  S  S1  1  0.21203600  0.57212500  0.24424400  1
  S  S2  1  0.78796400  0.42787500  0.75575600  1
  S  S3  1  0.71203600  0.42787500  0.25575600  1
  N  N0  1  0.18447200  0.34984200  0.32214500  1
  N  N1  1  0.68447200  0.65015800  0.17785500  1
  N  N2  1  0.81552800  0.65015800  0.67785500  1
  N  N3  1  0.31552800  0.34984200  0.82214500  1
  Cl  Cl0  1  0.32606000  0.87030600  0.39119000  1
  Cl  Cl1  1  0.91627200  0.44966700  0.85121500  1
  Cl  Cl2  1  0.50656700  0.94667900  0.83742400  1
  Cl  Cl3  1  0.99343300  0.94667900  0.33742400  1
  Cl  Cl4  1  0.41627200  0.55033300  0.64878500  1
  Cl  Cl5  1  0.58372800  0.44966700  0.35121500  1
  Cl  Cl6  1  0.55833500  0.25921300  0.95643800  1
  Cl  Cl7  1  0.17394000  0.87030600  0.89119000  1
  Cl  Cl8  1  0.77369000  0.82004200  0.98853600  1
  Cl  Cl9  1  0.67394000  0.12969400  0.60881000  1
  Cl  Cl10  1  0.72631000  0.82004200  0.48853600  1
  Cl  Cl11  1  0.44166500  0.74078700  0.04356200  1
  Cl  Cl12  1  0.05833500  0.74078700  0.54356200  1
  Cl  Cl13  1  0.82606000  0.12969400  0.10881000  1
  Cl  Cl14  1  0.49343300  0.05332100  0.16257600  1
  Cl  Cl15  1  0.94166500  0.25921300  0.45643800  1
  Cl  Cl16  1  0.08372800  0.55033300  0.14878500  1
  Cl  Cl17  1  0.27369000  0.17995800  0.51146400  1
  Cl  Cl18  1  0.00656700  0.05332100  0.66257600  1
  Cl  Cl19  1  0.22631000  0.17995800  0.01146400  1
loop_
_geom_bond_atom_site_label_1
_geom_bond_atom_site_label_2
_geom_bond_distance
_geom_bond_site_symmetry_2
N0 S1 1.571561 1_555
N0 W2 1.787531 1_555
N1 S3 1.571561 1_555
N1 W1 1.787531 1_555
N2 S2 1.571561 1_555
N2 W0 1.787531 1_555
N3 S0 1.571561 1_555
N3 W3 1.787531 1_555
Cl0 W2 2.314112 1_565
Cl1 S2 2.059401 1_555
Cl2 W3 2.303356 1_565
Cl3 W2 2.303356 1_665
Cl4 S0 2.059401 1_555
Cl5 S3 2.059401 1_555
Cl6 W3 2.463437 1_555
Cl6 W1 2.704701 1_546
Cl7 W3 2.314112 1_565
Cl8 W1 2.297668 1_556
Cl9 W0 2.314112 1_545
Cl10 W0 2.297668 1_555
Cl11 W1 2.463437 1_555
Cl11 W3 2.704701 1_564
Cl12 W0 2.463437 1_455
Cl12 W2 2.704701 1_565
Cl13 W1 2.314112 1_545
Cl14 W1 2.303356 1_545
Cl15 W2 2.463437 1_655
Cl15 W0 2.704701 1_545
Cl16 S1 2.059401 1_555
Cl17 W2 2.297668 1_555
Cl18 W0 2.303356 1_445
Cl19 W3 2.297668 1_554
