# generated using pymatgen
data_YRe2
_symmetry_space_group_name_H-M   'P 1'
_cell_length_a   5.41226486
_cell_length_b   5.41226490
_cell_length_c   8.82137559
_cell_angle_alpha   90.00000000
_cell_angle_beta   90.00000000
_cell_angle_gamma   119.99999974
_symmetry_Int_Tables_number   1
_chemical_formula_structural   YRe2
_chemical_formula_sum   'Y4 Re8'
_cell_volume   223.78193914
_cell_formula_units_Z   4
loop_
 _symmetry_equiv_pos_site_id
 _symmetry_equiv_pos_as_xyz
  1  'x, y, z'
loop_
 _atom_site_type_symbol
 _atom_site_label
 _atom_site_symmetry_multiplicity
 _atom_site_fract_x
 _atom_site_fract_y
 _atom_site_fract_z
 _atom_site_occupancy
  Y  Y0  1  0.33333300  0.66666700  0.43748843  1
  Y  Y1  1  0.66666700  0.33333300  0.56251157  1
  Y  Y2  1  0.66666700  0.33333300  0.93748843  1
  Y  Y3  1  0.33333300  0.66666700  0.06251157  1
  Re  Re0  1  0.17085627  0.34171354  0.75000000  1
  Re  Re1  1  0.17085627  0.82914373  0.75000000  1
  Re  Re2  1  0.34171354  0.17085627  0.25000000  1
  Re  Re3  1  0.82914373  0.65828646  0.25000000  1
  Re  Re4  1  0.65828646  0.82914373  0.75000000  1
  Re  Re5  1  0.00000000  0.00000000  0.00000000  1
  Re  Re6  1  0.82914373  0.17085627  0.25000000  1
  Re  Re7  1  0.00000000  0.00000000  0.50000000  1
loop_
_geom_bond_atom_site_label_1
_geom_bond_atom_site_label_2
_geom_bond_distance
_geom_bond_site_symmetry_2
Re0 Re4 2.638101 1_555
Re0 Re1 2.638101 1_555
Re0 Re5 2.725596 1_556
Re0 Re7 2.725596 1_555
Re0 Re4 2.774164 1_445
Re0 Re1 2.774164 1_545
Re0 Y0 3.149557 1_555
Re0 Y3 3.149557 1_556
Re0 Y1 3.171762 1_455
Re0 Y2 3.171762 1_455
Re0 Y2 3.171771 1_555
Re0 Y1 3.171771 1_555
Re1 Re4 2.638101 1_555
Re1 Re7 2.725593 1_565
Re1 Re5 2.725593 1_566
Re1 Re4 2.774164 1_455
Re1 Y0 3.149556 1_555
Re1 Y3 3.149556 1_556
Re1 Y2 3.171766 1_455
Re1 Y1 3.171766 1_455
Re1 Y2 3.171766 1_565
Re1 Y1 3.171766 1_565
Re2 Re6 2.638101 1_555
Re2 Re3 2.638101 1_555
Re2 Re5 2.725596 1_555
Re2 Re7 2.725596 1_555
Re2 Re6 2.774164 1_455
Re2 Re3 2.774164 1_445
Re2 Y1 3.149556 1_555
Re2 Y2 3.149556 1_554
Re2 Y0 3.171762 1_545
Re2 Y3 3.171762 1_545
Re2 Y0 3.171771 1_555
Re2 Y3 3.171771 1_555
Re3 Re6 2.638101 1_555
Re3 Re7 2.725596 1_665
Re3 Re5 2.725596 1_665
Re3 Re6 2.774164 1_565
Re3 Y2 3.149557 1_554
Re3 Y1 3.149557 1_555
Re3 Y0 3.171762 1_655
Re3 Y3 3.171762 1_655
Re3 Y3 3.171771 1_555
Re3 Y0 3.171771 1_555
Re4 Re7 2.725596 1_665
Re4 Re5 2.725596 1_666
Re4 Y0 3.149556 1_555
Re4 Y3 3.149556 1_556
Re4 Y2 3.171762 1_565
Re4 Y1 3.171762 1_565
Re4 Y1 3.171771 1_555
Re4 Y2 3.171771 1_555
Re5 Re6 2.725593 1_455
Re5 Y2 3.173053 1_454
Re5 Y3 3.173053 1_545
Re5 Y2 3.173058 1_554
Re5 Y3 3.173058 1_445
Re5 Y2 3.173058 1_444
Re5 Y3 3.173058 1_555
Re6 Re7 2.725593 1_655
Re6 Y1 3.149556 1_555
Re6 Y2 3.149556 1_554
Re6 Y3 3.171766 1_655
Re6 Y0 3.171766 1_655
Re6 Y3 3.171766 1_545
Re6 Y0 3.171766 1_545
Re7 Y1 3.173053 1_455
Re7 Y0 3.173053 1_545
Re7 Y1 3.173058 1_555
Re7 Y0 3.173058 1_445
Re7 Y0 3.173058 1_555
Re7 Y1 3.173058 1_445
