# generated using pymatgen
data_Rb2U(N2O7)2
_symmetry_space_group_name_H-M   'P 1'
_cell_length_a   8.11597400
_cell_length_b   6.63354200
_cell_length_c   13.14516702
_cell_angle_alpha   73.69304619
_cell_angle_beta   90.00000000
_cell_angle_gamma   90.00000000
_symmetry_Int_Tables_number   1
_chemical_formula_structural   Rb2U(N2O7)2
_chemical_formula_sum   'Rb4 U2 N8 O28'
_cell_volume   679.23485260
_cell_formula_units_Z   2
loop_
 _symmetry_equiv_pos_site_id
 _symmetry_equiv_pos_as_xyz
  1  'x, y, z'
loop_
 _atom_site_type_symbol
 _atom_site_label
 _atom_site_symmetry_multiplicity
 _atom_site_fract_x
 _atom_site_fract_y
 _atom_site_fract_z
 _atom_site_occupancy
  Rb  Rb0  1  0.98614100  0.67887300  0.65799900  1
  Rb  Rb1  1  0.51385900  0.67887300  0.15799900  1
  Rb  Rb2  1  0.01385900  0.32112700  0.34200100  1
  Rb  Rb3  1  0.48614100  0.32112700  0.84200100  1
  U  U0  1  0.00000000  0.00000000  0.00000000  1
  U  U1  1  0.50000000  0.00000000  0.50000000  1
  N  N0  1  0.26051100  0.17651700  0.62827900  1
  N  N1  1  0.76051100  0.82348300  0.87172100  1
  N  N2  1  0.73948900  0.82348300  0.37172100  1
  N  N3  1  0.22723500  0.73581200  0.39035100  1
  N  N4  1  0.72723500  0.26418800  0.10964900  1
  N  N5  1  0.77276500  0.26418800  0.60964900  1
  N  N6  1  0.27276500  0.73581200  0.89035100  1
  N  N7  1  0.23948900  0.17651700  0.12827900  1
  O  O0  1  0.66478100  0.74586300  0.82108700  1
  O  O1  1  0.21181700  0.08403700  0.55920900  1
  O  O2  1  0.77294600  0.08037800  0.10019600  1
  O  O3  1  0.50586300  0.25832800  0.40778500  1
  O  O4  1  0.76881600  0.29085300  0.69989800  1
  O  O5  1  0.17828400  0.59855200  0.47028500  1
  O  O6  1  0.33521900  0.25413700  0.17891300  1
  O  O7  1  0.22705400  0.91962200  0.89980400  1
  O  O8  1  0.16478100  0.25413700  0.67891300  1
  O  O9  1  0.67828400  0.40144800  0.02971500  1
  O  O10  1  0.49413700  0.74167200  0.59221500  1
  O  O11  1  0.32171600  0.59855200  0.97028500  1
  O  O12  1  0.58249900  0.82086300  0.35964500  1
  O  O13  1  0.28818300  0.08403700  0.05920900  1
  O  O14  1  0.73118400  0.29085300  0.19989800  1
  O  O15  1  0.27294600  0.91962200  0.39980400  1
  O  O16  1  0.82171600  0.40144800  0.52971500  1
  O  O17  1  0.08249900  0.17913700  0.14035500  1
  O  O18  1  0.41750100  0.17913700  0.64035500  1
  O  O19  1  0.00586300  0.74167200  0.09221500  1
  O  O20  1  0.83521900  0.74586300  0.32108700  1
  O  O21  1  0.99413700  0.25832800  0.90778500  1
  O  O22  1  0.72705400  0.08037800  0.60019600  1
  O  O23  1  0.71181700  0.91596300  0.94079100  1
  O  O24  1  0.26881600  0.70914700  0.80010200  1
  O  O25  1  0.91750100  0.82086300  0.85964500  1
  O  O26  1  0.23118400  0.70914700  0.30010200  1
  O  O27  1  0.78818300  0.91596300  0.44079100  1
loop_
_geom_bond_atom_site_label_1
_geom_bond_atom_site_label_2
_geom_bond_distance
_geom_bond_site_symmetry_2
N0 O8 1.226468 1_555
N0 O18 1.284698 1_555
N0 O1 1.292155 1_555
N1 O0 1.226468 1_555
N1 O25 1.284698 1_555
N1 O23 1.292155 1_555
N2 O20 1.226468 1_555
N2 O12 1.284698 1_555
N2 O27 1.292155 1_555
N3 O5 1.246469 1_555
N3 O26 1.248020 1_555
N3 O15 1.313346 1_555
N4 O9 1.246469 1_555
N4 O14 1.248020 1_555
N4 O2 1.313346 1_555
N5 O16 1.246469 1_555
N5 O4 1.248020 1_555
N5 O22 1.313346 1_555
N6 O11 1.246469 1_555
N6 O24 1.248020 1_555
N6 O7 1.313346 1_555
N7 O6 1.226468 1_555
N7 O17 1.284698 1_555
N7 O13 1.292155 1_555
O0 Rb3 3.111424 1_555
O1 U1 2.574990 1_555
O1 Rb0 3.210087 1_445
O1 Rb2 3.268851 1_555
O2 U0 2.410223 1_655
O2 Rb1 3.310002 1_545
O3 U1 1.800464 1_555
O4 Rb3 3.000595 1_555
O4 Rb0 3.040304 1_555
O5 Rb0 3.089130 1_455
O5 Rb2 3.123130 1_555
O6 Rb1 3.111424 1_555
O7 U0 2.410223 1_566
O7 Rb3 3.310002 1_565
O8 Rb0 3.111424 1_455
O9 Rb3 3.089130 1_554
O9 Rb1 3.123130 1_555
O10 U1 1.800464 1_565
O11 Rb1 3.089130 1_556
O11 Rb3 3.123130 1_555
O12 U1 2.548642 1_565
O12 Rb1 3.102515 1_555
O13 U0 2.574990 1_555
O13 Rb1 3.210087 1_545
O13 Rb3 3.268851 1_554
O14 Rb2 3.000595 1_655
O14 Rb1 3.040304 1_555
O15 U1 2.410223 1_565
O15 Rb2 3.310002 1_565
O16 Rb2 3.089130 1_655
O16 Rb0 3.123130 1_555
O17 U0 2.548642 1_555
O17 Rb2 3.102515 1_555
O18 U1 2.548642 1_555
O18 Rb3 3.102515 1_555
O19 U0 1.800464 1_565
O20 Rb2 3.111424 1_655
O21 U0 1.800464 1_656
O22 U1 2.410223 1_555
O22 Rb0 3.310002 1_545
O23 U0 2.574990 1_666
O23 Rb3 3.210087 1_565
O23 Rb1 3.268851 1_556
O24 Rb0 3.000595 1_455
O24 Rb3 3.040304 1_555
O25 U0 2.548642 1_666
O25 Rb0 3.102515 1_555
O26 Rb1 3.000595 1_555
O26 Rb2 3.040304 1_555
O27 U1 2.574990 1_565
O27 Rb2 3.210087 1_665
O27 Rb0 3.268851 1_555
