# generated using pymatgen
data_K2Co(PO3)4
_symmetry_space_group_name_H-M   'P 1'
_cell_length_a   8.50741173
_cell_length_b   8.50741173
_cell_length_c   7.77578349
_cell_angle_alpha   81.56986292
_cell_angle_beta   81.56986292
_cell_angle_gamma   97.02200348
_symmetry_Int_Tables_number   1
_chemical_formula_structural   K2Co(PO3)4
_chemical_formula_sum   'K4 Co2 P8 O24'
_cell_volume   544.71072868
_cell_formula_units_Z   2
loop_
 _symmetry_equiv_pos_site_id
 _symmetry_equiv_pos_as_xyz
  1  'x, y, z'
loop_
 _atom_site_type_symbol
 _atom_site_label
 _atom_site_symmetry_multiplicity
 _atom_site_fract_x
 _atom_site_fract_y
 _atom_site_fract_z
 _atom_site_occupancy
  K  K0  1  0.49296700  0.24138600  0.07989200  1
  K  K1  1  0.24138600  0.49296700  0.57989200  1
  K  K2  1  0.52965700  0.79723000  0.91572700  1
  K  K3  1  0.79723000  0.52965700  0.41572700  1
  Co  Co0  1  0.84594600  0.15330100  0.74950000  1
  Co  Co1  1  0.15330100  0.84594600  0.24950000  1
  P  P0  1  0.18239500  0.03009700  0.83491200  1
  P  P1  1  0.03009700  0.18239500  0.33491200  1
  P  P2  1  0.49537200  0.17181800  0.57416100  1
  P  P3  1  0.17181800  0.49537200  0.07416100  1
  P  P4  1  0.49315800  0.86756300  0.41923700  1
  P  P5  1  0.86756300  0.49315800  0.91923700  1
  P  P6  1  0.81070900  0.96462100  0.17972500  1
  P  P7  1  0.96462100  0.81070900  0.67972500  1
  O  O0  1  0.50884400  0.33977200  0.47854600  1
  O  O1  1  0.33977200  0.50884400  0.97854600  1
  O  O2  1  0.60266100  0.12975300  0.70666300  1
  O  O3  1  0.12975300  0.60266100  0.20666300  1
  O  O4  1  0.31030600  0.12007900  0.66590100  1
  O  O5  1  0.12007900  0.31030600  0.16590100  1
  O  O6  1  0.50822000  0.05932500  0.42179900  1
  O  O7  1  0.05932500  0.50822000  0.92179900  1
  O  O8  1  0.38765900  0.83279400  0.28486700  1
  O  O9  1  0.83279400  0.38765900  0.78486700  1
  O  O10  1  0.45756900  0.76738600  0.59769300  1
  O  O11  1  0.76738600  0.45756900  0.09769300  1
  O  O12  1  0.67580700  0.85300200  0.33290600  1
  O  O13  1  0.85300200  0.67580700  0.83290600  1
  O  O14  1  0.73129700  0.02686300  0.02769500  1
  O  O15  1  0.02686300  0.73129700  0.52769500  1
  O  O16  1  0.94055400  0.86143900  0.15504200  1
  O  O17  1  0.86143900  0.94055400  0.65504200  1
  O  O18  1  0.86580700  0.11583500  0.27129600  1
  O  O19  1  0.11583500  0.86580700  0.77129600  1
  O  O20  1  0.26896500  0.98224700  0.98578400  1
  O  O21  1  0.98224700  0.26896500  0.48578400  1
  O  O22  1  0.05623400  0.13836300  0.85305400  1
  O  O23  1  0.13836300  0.05623400  0.35305400  1
loop_
_geom_bond_atom_site_label_1
_geom_bond_atom_site_label_2
_geom_bond_distance
_geom_bond_site_symmetry_2
K0 O11 2.823398 1_555
K0 O1 2.827963 1_554
K0 O6 2.902909 1_555
K0 O14 2.913276 1_555
K0 O20 2.980274 1_544
K1 O10 2.823398 1_555
K1 O0 2.827963 1_555
K1 O7 2.902909 1_555
K1 O15 2.913276 1_555
K1 O21 2.980274 1_455
K2 O10 2.673357 1_555
K2 O1 2.704753 1_555
K2 O14 2.763050 1_566
K2 O20 2.905799 1_555
K2 O2 2.992850 1_565
K2 O8 3.019458 1_556
K2 O13 3.069084 1_555
K2 O17 3.212309 1_555
K3 O11 2.673357 1_555
K3 O0 2.704753 1_555
K3 O15 2.763050 1_655
K3 O21 2.905799 1_555
K3 O3 2.992850 1_655
K3 O9 3.019458 1_555
K3 O12 3.069084 1_555
K3 O16 3.212309 1_555
Co0 O17 2.062134 1_545
Co0 O9 2.066300 1_555
Co0 O22 2.076782 1_655
Co0 O2 2.134285 1_555
Co0 O21 2.224862 1_555
Co0 O14 2.286995 1_556
Co1 O16 2.062134 1_455
Co1 O8 2.066300 1_555
Co1 O23 2.076782 1_565
Co1 O3 2.134285 1_555
Co1 O20 2.224862 1_554
Co1 O15 2.286995 1_555
O0 P2 1.493659 1_555
O1 P3 1.493659 1_556
O2 P2 1.506720 1_555
O3 P3 1.506720 1_555
O4 P0 1.606023 1_555
O4 P2 1.609546 1_555
O5 P1 1.606023 1_555
O5 P3 1.609546 1_555
O6 P4 1.624021 1_545
O6 P2 1.628339 1_555
O7 P5 1.624021 1_455
O7 P3 1.628339 1_556
O8 P4 1.511748 1_555
O9 P5 1.511748 1_555
O10 P4 1.486776 1_555
O11 P5 1.486776 1_554
O12 P6 1.624401 1_555
O12 P4 1.626681 1_555
O13 P7 1.624401 1_555
O13 P5 1.626681 1_555
O14 P6 1.507446 1_545
O15 P7 1.507446 1_455
O16 P6 1.500650 1_555
O17 P7 1.500650 1_555
O18 P6 1.612650 1_545
O18 P1 1.615609 1_655
O19 P7 1.612650 1_455
O19 P0 1.615609 1_565
O20 P0 1.506988 1_565
O21 P1 1.506988 1_655
O22 P0 1.501882 1_555
O23 P1 1.501882 1_555
