# generated using pymatgen
data_Na3(FeSe2)2
_symmetry_space_group_name_H-M   'P 1'
_cell_length_a   6.97582100
_cell_length_b   10.83517500
_cell_length_c   11.26108600
_cell_angle_alpha   90.00000000
_cell_angle_beta   90.00000000
_cell_angle_gamma   90.00000000
_symmetry_Int_Tables_number   1
_chemical_formula_structural   Na3(FeSe2)2
_chemical_formula_sum   'Na12 Fe8 Se16'
_cell_volume   851.16064157
_cell_formula_units_Z   4
loop_
 _symmetry_equiv_pos_site_id
 _symmetry_equiv_pos_as_xyz
  1  'x, y, z'
loop_
 _atom_site_type_symbol
 _atom_site_label
 _atom_site_symmetry_multiplicity
 _atom_site_fract_x
 _atom_site_fract_y
 _atom_site_fract_z
 _atom_site_occupancy
  Na  Na0  1  0.07457200  0.25000000  0.75640100  1
  Na  Na1  1  0.57457200  0.25000000  0.74359900  1
  Na  Na2  1  0.92542800  0.75000000  0.24359900  1
  Na  Na3  1  0.42542800  0.75000000  0.25640100  1
  Na  Na4  1  0.05108100  0.41868500  0.14101800  1
  Na  Na5  1  0.55108100  0.08131500  0.35898200  1
  Na  Na6  1  0.94891900  0.91868500  0.85898200  1
  Na  Na7  1  0.44891900  0.58131500  0.64101800  1
  Na  Na8  1  0.94891900  0.58131500  0.85898200  1
  Na  Na9  1  0.44891900  0.91868500  0.64101800  1
  Na  Na10  1  0.05108100  0.08131500  0.14101800  1
  Na  Na11  1  0.55108100  0.41868500  0.35898200  1
  Fe  Fe0  1  0.04632100  0.37255600  0.47119500  1
  Fe  Fe1  1  0.54632100  0.12744400  0.02880500  1
  Fe  Fe2  1  0.95367900  0.87255600  0.52880500  1
  Fe  Fe3  1  0.45367900  0.62744400  0.97119500  1
  Fe  Fe4  1  0.95367900  0.62744400  0.52880500  1
  Fe  Fe5  1  0.45367900  0.87255600  0.97119500  1
  Fe  Fe6  1  0.04632100  0.12744400  0.47119500  1
  Fe  Fe7  1  0.54632100  0.37255600  0.02880500  1
  Se  Se0  1  0.31321800  0.25000000  0.53910600  1
  Se  Se1  1  0.81321800  0.25000000  0.96089400  1
  Se  Se2  1  0.68678200  0.75000000  0.46089400  1
  Se  Se3  1  0.18678200  0.75000000  0.03910600  1
  Se  Se4  1  0.37891700  0.25000000  0.17113200  1
  Se  Se5  1  0.87891700  0.25000000  0.32886800  1
  Se  Se6  1  0.62108300  0.75000000  0.82886800  1
  Se  Se7  1  0.12108300  0.75000000  0.67113200  1
  Se  Se8  1  0.17195000  0.55481700  0.37693800  1
  Se  Se9  1  0.67195000  0.94518300  0.12306200  1
  Se  Se10  1  0.82805000  0.05481700  0.62306200  1
  Se  Se11  1  0.32805000  0.44518300  0.87693800  1
  Se  Se12  1  0.82805000  0.44518300  0.62306200  1
  Se  Se13  1  0.32805000  0.05481700  0.87693800  1
  Se  Se14  1  0.17195000  0.94518300  0.37693800  1
  Se  Se15  1  0.67195000  0.55481700  0.12306200  1
loop_
_geom_bond_atom_site_label_1
_geom_bond_atom_site_label_2
_geom_bond_distance
_geom_bond_site_symmetry_2
Na0 Se1 2.937151 1_455
Na0 Se0 2.959577 1_555
Na0 Se11 3.072722 1_555
Na0 Se13 3.072722 1_555
Na0 Se12 3.111998 1_455
Na0 Se10 3.111998 1_455
Na1 Se0 2.937151 1_555
Na1 Se1 2.959577 1_555
Na1 Se12 3.072722 1_555
Na1 Se10 3.072722 1_555
Na1 Se11 3.111998 1_555
Na1 Se13 3.111998 1_555
Na2 Se3 2.937151 1_655
Na2 Se2 2.959577 1_555
Na2 Se9 3.072722 1_555
Na2 Se15 3.072722 1_555
Na2 Se8 3.111998 1_655
Na2 Se14 3.111998 1_655
Na3 Se2 2.937151 1_555
Na3 Se3 2.959577 1_555
Na3 Se8 3.072722 1_555
Na3 Se14 3.072722 1_555
Na3 Se9 3.111998 1_555
Na3 Se15 3.111998 1_555
Na4 Se4 2.947139 1_555
Na4 Se15 3.035005 1_455
Na4 Se5 3.042674 1_455
Na4 Se8 3.153525 1_555
Na4 Se1 3.195030 1_454
Na5 Se5 2.947139 1_555
Na5 Se14 3.035005 1_545
Na5 Se4 3.042674 1_555
Na5 Se9 3.153525 1_545
Na5 Se0 3.195030 1_555
Na6 Se6 2.947139 1_555
Na6 Se13 3.035005 1_665
Na6 Se7 3.042674 1_655
Na6 Se10 3.153525 1_565
Na6 Se3 3.195030 1_656
Na7 Se7 2.947139 1_555
Na7 Se12 3.035005 1_555
Na7 Se6 3.042674 1_555
Na7 Se11 3.153525 1_555
Na7 Se2 3.195030 1_555
Na8 Se6 2.947139 1_555
Na8 Se11 3.035005 1_655
Na8 Se7 3.042674 1_655
Na8 Se12 3.153525 1_555
Na8 Se3 3.195030 1_656
Na9 Se7 2.947139 1_555
Na9 Se10 3.035005 1_565
Na9 Se6 3.042674 1_555
Na9 Se13 3.153525 1_565
Na9 Se2 3.195030 1_555
Na10 Se4 2.947139 1_555
Na10 Se9 3.035005 1_445
Na10 Se5 3.042674 1_455
Na10 Se14 3.153525 1_545
Na10 Se1 3.195030 1_454
Na11 Se5 2.947139 1_555
Na11 Se8 3.035005 1_555
Na11 Se4 3.042674 1_555
Na11 Se15 3.153525 1_555
Na11 Se0 3.195030 1_555
Fe0 Se5 2.386608 1_455
Fe0 Se8 2.407201 1_555
Fe0 Se0 2.411348 1_555
Fe0 Se12 2.421232 1_455
Fe1 Se4 2.386608 1_555
Fe1 Se9 2.407201 1_545
Fe1 Se1 2.411348 1_554
Fe1 Se13 2.421232 1_554
Fe2 Se7 2.386608 1_655
Fe2 Se10 2.407201 1_565
Fe2 Se2 2.411348 1_555
Fe2 Se14 2.421232 1_655
Fe3 Se6 2.386608 1_555
Fe3 Se11 2.407201 1_555
Fe3 Se3 2.411348 1_556
Fe3 Se15 2.421232 1_556
Fe4 Se7 2.386608 1_655
Fe4 Se12 2.407201 1_555
Fe4 Se2 2.411348 1_555
Fe4 Se8 2.421232 1_655
Fe5 Se6 2.386608 1_555
Fe5 Se13 2.407201 1_565
Fe5 Se3 2.411348 1_556
Fe5 Se9 2.421232 1_556
Fe6 Se5 2.386608 1_455
Fe6 Se14 2.407201 1_545
Fe6 Se0 2.411348 1_555
Fe6 Se10 2.421232 1_455
Fe7 Se4 2.386608 1_555
Fe7 Se15 2.407201 1_555
Fe7 Se1 2.411348 1_554
Fe7 Se11 2.421232 1_554
