# generated using pymatgen
data_Mg3Rh
_symmetry_space_group_name_H-M   'P 1'
_cell_length_a   7.88328608
_cell_length_b   7.88328598
_cell_length_c   8.20711283
_cell_angle_alpha   90.00000000
_cell_angle_beta   90.00000000
_cell_angle_gamma   119.99999624
_symmetry_Int_Tables_number   1
_chemical_formula_structural   Mg3Rh
_chemical_formula_sum   'Mg18 Rh6'
_cell_volume   441.70836186
_cell_formula_units_Z   6
loop_
 _symmetry_equiv_pos_site_id
 _symmetry_equiv_pos_as_xyz
  1  'x, y, z'
loop_
 _atom_site_type_symbol
 _atom_site_label
 _atom_site_symmetry_multiplicity
 _atom_site_fract_x
 _atom_site_fract_y
 _atom_site_fract_z
 _atom_site_occupancy
  Mg  Mg0  1  -0.00000000  -0.00000000  0.31541969  1
  Mg  Mg1  1  -0.00000000  -0.00000000  0.81541969  1
  Mg  Mg2  1  0.33333300  0.66666700  0.20288273  1
  Mg  Mg3  1  0.66666700  0.33333300  0.70288273  1
  Mg  Mg4  1  0.33333300  0.66666700  0.70288273  1
  Mg  Mg5  1  0.66666700  0.33333300  0.20288273  1
  Mg  Mg6  1  0.28331493  0.28331493  0.57730534  1
  Mg  Mg7  1  0.00000000  0.28331493  0.07730534  1
  Mg  Mg8  1  0.28331493  0.00000000  0.07730534  1
  Mg  Mg9  1  0.71668507  -0.00000000  0.57730534  1
  Mg  Mg10  1  -0.00000000  0.71668507  0.57730534  1
  Mg  Mg11  1  0.71668507  0.71668507  0.07730534  1
  Mg  Mg12  1  0.62483033  0.62483033  0.41945393  1
  Mg  Mg13  1  0.00000000  0.62483033  0.91945393  1
  Mg  Mg14  1  0.62483033  0.00000000  0.91945393  1
  Mg  Mg15  1  0.37516967  -0.00000000  0.41945393  1
  Mg  Mg16  1  -0.00000000  0.37516967  0.41945393  1
  Mg  Mg17  1  0.37516967  0.37516967  0.91945393  1
  Rh  Rh0  1  0.32743243  0.32743243  0.24767834  1
  Rh  Rh1  1  0.00000000  0.32743243  0.74767834  1
  Rh  Rh2  1  0.32743243  0.00000000  0.74767834  1
  Rh  Rh3  1  0.67256757  -0.00000000  0.24767834  1
  Rh  Rh4  1  -0.00000000  0.67256757  0.24767834  1
  Rh  Rh5  1  0.67256757  0.67256757  0.74767834  1
loop_
_geom_bond_atom_site_label_1
_geom_bond_atom_site_label_2
_geom_bond_distance
_geom_bond_site_symmetry_2
Mg0 Rh4 2.640438 1_545
Mg0 Rh3 2.640438 1_455
Mg0 Rh0 2.640438 1_555
Mg1 Rh1 2.640438 1_555
Mg1 Rh2 2.640438 1_555
Mg1 Rh5 2.640438 1_445
Mg2 Rh4 2.676691 1_555
Mg2 Rh3 2.676696 1_565
Mg2 Rh0 2.676699 1_555
Mg3 Rh1 2.676691 1_655
Mg3 Rh2 2.676696 1_555
Mg3 Rh5 2.676699 1_555
Mg4 Rh2 2.676691 1_565
Mg4 Rh1 2.676696 1_555
Mg4 Rh5 2.676699 1_555
Mg5 Rh3 2.676691 1_555
Mg5 Rh4 2.676696 1_655
Mg5 Rh0 2.676699 1_555
Mg6 Rh0 2.727550 1_555
Mg6 Rh2 2.800215 1_555
Mg6 Rh1 2.800215 1_555
Mg7 Rh1 2.727550 1_554
Mg7 Rh0 2.800215 1_555
Mg7 Rh3 2.800215 1_455
Mg8 Rh2 2.727550 1_554
Mg8 Rh0 2.800215 1_555
Mg8 Rh4 2.800215 1_545
Mg9 Rh3 2.727550 1_555
Mg9 Rh5 2.800215 1_545
Mg9 Rh1 2.800215 1_655
Mg10 Rh4 2.727550 1_555
Mg10 Rh5 2.800215 1_455
Mg10 Rh2 2.800215 1_565
Mg11 Rh5 2.727550 1_554
Mg11 Rh3 2.800215 1_565
Mg11 Rh4 2.800215 1_655
Mg12 Rh5 2.719935 1_555
Mg12 Rh0 2.735697 1_555
Mg13 Rh4 2.719935 1_556
Mg13 Rh1 2.735697 1_555
Mg14 Rh3 2.719935 1_556
Mg14 Rh2 2.735697 1_555
Mg15 Rh2 2.719935 1_555
Mg15 Rh3 2.735697 1_555
Mg16 Rh1 2.719935 1_555
Mg16 Rh4 2.735697 1_555
Mg17 Rh0 2.719935 1_556
Mg17 Rh5 2.735697 1_555
