# generated using pymatgen
data_Sr2TmRuO6
_symmetry_space_group_name_H-M   'P 1'
_cell_length_a   5.81811700
_cell_length_b   5.79596900
_cell_length_c   10.02429961
_cell_angle_alpha   54.92171641
_cell_angle_beta   90.00000000
_cell_angle_gamma   90.00000000
_symmetry_Int_Tables_number   1
_chemical_formula_structural   Sr2TmRuO6
_chemical_formula_sum   'Sr4 Tm2 Ru2 O12'
_cell_volume   276.63744775
_cell_formula_units_Z   2
loop_
 _symmetry_equiv_pos_site_id
 _symmetry_equiv_pos_as_xyz
  1  'x, y, z'
loop_
 _atom_site_type_symbol
 _atom_site_label
 _atom_site_symmetry_multiplicity
 _atom_site_fract_x
 _atom_site_fract_y
 _atom_site_fract_z
 _atom_site_occupancy
  Sr  Sr0  1  0.02925100  0.24333200  0.75093300  1
  Sr  Sr1  1  0.52925100  0.75666800  0.74906700  1
  Sr  Sr2  1  0.97074900  0.75666800  0.24906700  1
  Sr  Sr3  1  0.47074900  0.24333200  0.25093300  1
  Tm  Tm0  1  0.00000000  0.50000000  0.00000000  1
  Tm  Tm1  1  0.50000000  0.50000000  0.50000000  1
  Ru  Ru0  1  0.00000000  0.00000000  0.50000000  1
  Ru  Ru1  1  0.50000000  0.00000000  0.00000000  1
  O  O0  1  0.29580100  0.76570200  0.96469500  1
  O  O1  1  0.79580100  0.23429800  0.53530500  1
  O  O2  1  0.70419900  0.23429800  0.03530500  1
  O  O3  1  0.20419900  0.76570200  0.46469500  1
  O  O4  1  0.77160400  0.83392200  0.96419900  1
  O  O5  1  0.27160400  0.16607800  0.53580100  1
  O  O6  1  0.22839600  0.16607800  0.03580100  1
  O  O7  1  0.72839600  0.83392200  0.46419900  1
  O  O8  1  0.48536300  0.30411700  0.76343000  1
  O  O9  1  0.98536300  0.69588300  0.73657000  1
  O  O10  1  0.51463700  0.69588300  0.23657000  1
  O  O11  1  0.01463700  0.30411700  0.26343000  1
loop_
_geom_bond_atom_site_label_1
_geom_bond_atom_site_label_2
_geom_bond_distance
_geom_bond_site_symmetry_2
O0 Ru1 1.983240 1_566
O0 Tm0 2.198243 1_556
O0 Sr1 2.578723 1_555
O0 Sr0 2.800382 1_565
O0 Sr3 2.906997 1_556
O1 Ru0 1.983240 1_655
O1 Tm1 2.198243 1_555
O1 Sr0 2.578723 1_655
O1 Sr1 2.800382 1_545
O1 Sr2 2.906997 1_555
O2 Ru1 1.983240 1_555
O2 Tm0 2.198243 1_655
O2 Sr3 2.578723 1_555
O2 Sr2 2.800382 1_545
O2 Sr1 2.906997 1_554
O3 Ru0 1.983240 1_565
O3 Tm1 2.198243 1_555
O3 Sr2 2.578723 1_455
O3 Sr3 2.800382 1_565
O3 Sr0 2.906997 1_555
O4 Ru1 1.987342 1_566
O4 Tm0 2.200463 1_656
O4 Sr0 2.572435 1_665
O4 Sr1 2.819445 1_555
O4 Sr2 2.868410 1_556
O5 Ru0 1.987342 1_555
O5 Tm1 2.200463 1_555
O5 Sr1 2.572435 1_545
O5 Sr0 2.819445 1_555
O5 Sr3 2.868410 1_555
O6 Ru1 1.987342 1_555
O6 Tm0 2.200463 1_555
O6 Sr2 2.572435 1_445
O6 Sr3 2.819445 1_555
O6 Sr0 2.868410 1_554
O7 Ru0 1.987342 1_665
O7 Tm1 2.200463 1_555
O7 Sr3 2.572435 1_565
O7 Sr2 2.819445 1_555
O7 Sr1 2.868410 1_555
O8 Ru1 1.983297 1_556
O8 Tm1 2.196265 1_555
O8 Sr1 2.555747 1_555
O8 Sr0 2.689375 1_555
O9 Ru0 1.983297 1_665
O9 Tm0 2.196265 1_656
O9 Sr0 2.555747 1_655
O9 Sr1 2.689375 1_555
O10 Ru1 1.983297 1_565
O10 Tm1 2.196265 1_555
O10 Sr3 2.555747 1_555
O10 Sr2 2.689375 1_555
O11 Ru0 1.983297 1_555
O11 Tm0 2.196265 1_555
O11 Sr2 2.555747 1_455
O11 Sr3 2.689375 1_555
