# generated using pymatgen
data_Na3NbOF6
_symmetry_space_group_name_H-M   'P 1'
_cell_length_a   5.74480200
_cell_length_b   5.85500100
_cell_length_c   17.19606000
_cell_angle_alpha   90.00000000
_cell_angle_beta   90.00000000
_cell_angle_gamma   90.00000000
_symmetry_Int_Tables_number   1
_chemical_formula_structural   Na3NbOF6
_chemical_formula_sum   'Na12 Nb4 O4 F24'
_cell_volume   578.40360389
_cell_formula_units_Z   4
loop_
 _symmetry_equiv_pos_site_id
 _symmetry_equiv_pos_as_xyz
  1  'x, y, z'
loop_
 _atom_site_type_symbol
 _atom_site_label
 _atom_site_symmetry_multiplicity
 _atom_site_fract_x
 _atom_site_fract_y
 _atom_site_fract_z
 _atom_site_occupancy
  Na  Na0  1  0.76284600  0.48526700  0.62479200  1
  Na  Na1  1  0.76384400  0.96790300  0.24282500  1
  Na  Na2  1  0.78209400  0.99184700  0.50427100  1
  Na  Na3  1  0.73715400  0.51473300  0.12479200  1
  Na  Na4  1  0.71790600  0.00815300  0.00427100  1
  Na  Na5  1  0.23715400  0.98526700  0.87520800  1
  Na  Na6  1  0.28209400  0.50815300  0.49572900  1
  Na  Na7  1  0.23615600  0.46790300  0.25717500  1
  Na  Na8  1  0.73615600  0.03209700  0.74282500  1
  Na  Na9  1  0.21790600  0.49184700  0.99572900  1
  Na  Na10  1  0.26284600  0.01473300  0.37520800  1
  Na  Na11  1  0.26384400  0.53209700  0.75717500  1
  Nb  Nb0  1  0.74713400  0.49027200  0.37514900  1
  Nb  Nb1  1  0.75286600  0.50972800  0.87514900  1
  Nb  Nb2  1  0.25286600  0.99027200  0.12485100  1
  Nb  Nb3  1  0.24713400  0.00972800  0.62485100  1
  O  O0  1  0.98639000  0.83900500  0.11175200  1
  O  O1  1  0.48639000  0.66099500  0.88824800  1
  O  O2  1  0.01361000  0.33900500  0.38824800  1
  O  O3  1  0.51361000  0.16099500  0.61175200  1
  F  F0  1  0.58085700  0.16137400  0.13414500  1
  F  F1  1  0.65558000  0.42250600  0.76169700  1
  F  F2  1  0.91935200  0.72947700  0.80035100  1
  F  F3  1  0.87418000  0.81974900  0.37659500  1
  F  F4  1  0.27097400  0.10379400  0.01096300  1
  F  F5  1  0.08085700  0.33862600  0.86585500  1
  F  F6  1  0.34442000  0.92250600  0.73830300  1
  F  F7  1  0.08064800  0.22947700  0.69964900  1
  F  F8  1  0.15558000  0.07749400  0.23830300  1
  F  F9  1  0.91914300  0.83862600  0.63414500  1
  F  F10  1  0.72902600  0.60379400  0.48903700  1
  F  F11  1  0.94616700  0.74529500  0.93957900  1
  F  F12  1  0.84442000  0.57749400  0.26169700  1
  F  F13  1  0.41914300  0.66137400  0.36585500  1
  F  F14  1  0.77097400  0.39620600  0.98903700  1
  F  F15  1  0.05383300  0.24529500  0.56042100  1
  F  F16  1  0.58064800  0.27052300  0.30035100  1
  F  F17  1  0.44616700  0.75470500  0.06042100  1
  F  F18  1  0.12582000  0.31974900  0.12340500  1
  F  F19  1  0.55383300  0.25470500  0.43957900  1
  F  F20  1  0.37418000  0.68025100  0.62340500  1
  F  F21  1  0.41935200  0.77052300  0.19964900  1
  F  F22  1  0.62582000  0.18025100  0.87659500  1
  F  F23  1  0.22902600  0.89620600  0.51096300  1
loop_
_geom_bond_atom_site_label_1
_geom_bond_atom_site_label_2
_geom_bond_distance
_geom_bond_site_symmetry_2
Na0 O3 2.388534 1_555
Na1 O0 2.698950 1_555
Na2 O3 2.603037 1_565
Na3 O0 2.388534 1_555
Na4 O0 2.603037 1_545
Na5 O1 2.388534 1_555
Na6 O2 2.603037 1_555
Na7 O2 2.698950 1_555
Na8 O3 2.698950 1_555
Na9 O1 2.603037 1_555
Na10 O2 2.388534 1_555
Na11 O1 2.698950 1_555
Nb0 O2 1.782878 1_655
Nb1 O1 1.782878 1_555
Nb2 O0 1.782878 1_455
Nb3 O3 1.782878 1_555
F0 Nb2 2.139982 1_545
F0 Na3 2.261084 1_555
F0 Na1 2.425059 1_545
F0 Na4 2.532272 1_555
F1 Nb1 2.092671 1_555
F1 Na11 2.341426 1_555
F1 Na8 2.354713 1_555
F1 Na0 2.461126 1_555
F2 Nb1 2.055375 1_555
F2 Na8 2.285951 1_565
F2 Na11 2.409022 1_655
F2 Na5 2.689456 1_655
F3 Nb0 2.062689 1_555
F3 Na2 2.472956 1_555
F3 Na10 2.507853 1_665
F3 Na1 2.538836 1_555
F4 Nb2 2.070758 1_545
F4 Na9 2.307332 1_554
F4 Na5 2.443156 1_544
F4 Na4 2.630410 1_555
F5 Nb1 2.139982 1_455
F5 Na5 2.261084 1_545
F5 Na11 2.425059 1_555
F5 Na9 2.532272 1_555
F6 Nb3 2.092671 1_565
F6 Na8 2.341426 1_565
F6 Na11 2.354713 1_555
F6 Na5 2.461126 1_555
F7 Nb3 2.055375 1_555
F7 Na11 2.285951 1_555
F7 Na8 2.409022 1_455
F7 Na0 2.689456 1_455
F8 Nb2 2.092671 1_545
F8 Na1 2.341426 1_445
F8 Na7 2.354713 1_555
F8 Na10 2.461126 1_555
F9 Nb3 2.139982 1_665
F9 Na0 2.261084 1_555
F9 Na8 2.425059 1_565
F9 Na2 2.532272 1_555
F10 Nb0 2.070758 1_555
F10 Na2 2.307332 1_555
F10 Na0 2.443156 1_555
F10 Na6 2.630410 1_555
F11 Nb1 2.088782 1_555
F11 Na4 2.307750 1_566
F11 Na9 2.360375 1_655
F11 Na5 2.448239 1_655
F12 Nb0 2.092671 1_555
F12 Na7 2.341426 1_655
F12 Na1 2.354713 1_555
F12 Na3 2.461126 1_555
F13 Nb0 2.139982 1_555
F13 Na10 2.261084 1_565
F13 Na7 2.425059 1_555
F13 Na6 2.532272 1_555
F14 Nb1 2.070758 1_555
F14 Na4 2.307332 1_556
F14 Na3 2.443156 1_556
F14 Na9 2.630410 1_655
F15 Nb3 2.088782 1_555
F15 Na6 2.307750 1_555
F15 Na2 2.360375 1_445
F15 Na0 2.448239 1_455
F16 Nb0 2.055375 1_555
F16 Na1 2.285951 1_545
F16 Na7 2.409022 1_555
F16 Na10 2.689456 1_555
F17 Nb2 2.088782 1_555
F17 Na9 2.307750 1_554
F17 Na4 2.360375 1_565
F17 Na3 2.448239 1_555
F18 Nb2 2.062689 1_545
F18 Na9 2.472956 1_554
F18 Na3 2.507853 1_455
F18 Na7 2.538836 1_555
F19 Nb0 2.088782 1_555
F19 Na2 2.307750 1_545
F19 Na6 2.360375 1_555
F19 Na10 2.448239 1_555
F20 Nb3 2.062689 1_565
F20 Na6 2.472956 1_555
F20 Na0 2.507853 1_555
F20 Na11 2.538836 1_555
F21 Nb2 2.055375 1_555
F21 Na7 2.285951 1_555
F21 Na1 2.409022 1_555
F21 Na3 2.689456 1_555
F22 Nb1 2.062689 1_555
F22 Na4 2.472956 1_556
F22 Na5 2.507853 1_545
F22 Na8 2.538836 1_555
F23 Nb3 2.070758 1_565
F23 Na6 2.307332 1_555
F23 Na10 2.443156 1_565
F23 Na2 2.630410 1_455
