# generated using pymatgen
data_Si5Rh4
_symmetry_space_group_name_H-M   'P 1'
_cell_length_a   3.52983205
_cell_length_b   5.94196490
_cell_length_c   12.34263152
_cell_angle_alpha   100.12443128
_cell_angle_beta   90.00000000
_cell_angle_gamma   90.00000000
_symmetry_Int_Tables_number   1
_chemical_formula_structural   Si5Rh4
_chemical_formula_sum   'Si10 Rh8'
_cell_volume   254.84492157
_cell_formula_units_Z   2
loop_
 _symmetry_equiv_pos_site_id
 _symmetry_equiv_pos_as_xyz
  1  'x, y, z'
loop_
 _atom_site_type_symbol
 _atom_site_label
 _atom_site_symmetry_multiplicity
 _atom_site_fract_x
 _atom_site_fract_y
 _atom_site_fract_z
 _atom_site_occupancy
  Si  Si0  1  0.75000000  0.51297023  0.07726747  1
  Si  Si1  1  0.75000000  0.97763233  0.13998499  1
  Si  Si2  1  0.25000000  0.63774878  0.63621988  1
  Si  Si3  1  0.25000000  0.89436557  0.42285876  1
  Si  Si4  1  0.25000000  0.46672927  0.22355383  1
  Si  Si5  1  0.25000000  0.48702977  0.92273253  1
  Si  Si6  1  0.75000000  0.36225122  0.36378012  1
  Si  Si7  1  0.75000000  0.53327073  0.77644617  1
  Si  Si8  1  0.25000000  0.02236767  0.86001501  1
  Si  Si9  1  0.75000000  0.10563443  0.57714124  1
  Rh  Rh0  1  0.25000000  0.30014111  0.50029155  1
  Rh  Rh1  1  0.75000000  0.69985889  0.49970845  1
  Rh  Rh2  1  0.75000000  0.89206132  0.72648403  1
  Rh  Rh3  1  0.25000000  0.10793868  0.27351597  1
  Rh  Rh4  1  0.25000000  0.28606867  0.73021164  1
  Rh  Rh5  1  0.25000000  0.20912078  0.05025512  1
  Rh  Rh6  1  0.75000000  0.79087922  0.94974488  1
  Rh  Rh7  1  0.75000000  0.71393133  0.26978836  1
loop_
_geom_bond_atom_site_label_1
_geom_bond_atom_site_label_2
_geom_bond_distance
_geom_bond_site_symmetry_2
Rh0 Si2 2.378176 1_555
Rh0 Si9 2.394955 1_555
Rh0 Si9 2.394955 1_455
Rh0 Si3 2.432424 1_545
Rh0 Si6 2.511707 1_555
Rh0 Si6 2.511707 1_455
Rh1 Si6 2.378176 1_555
Rh1 Si3 2.394955 1_555
Rh1 Si3 2.394955 1_655
Rh1 Si9 2.432424 1_565
Rh1 Si2 2.511707 1_555
Rh1 Si2 2.511707 1_655
Rh2 Si7 2.321114 1_555
Rh2 Si9 2.414657 1_565
Rh2 Si8 2.445833 1_565
Rh2 Si8 2.445833 1_665
Rh2 Si2 2.459213 1_555
Rh2 Si2 2.459213 1_655
Rh3 Si4 2.321114 1_555
Rh3 Si3 2.414657 1_545
Rh3 Si1 2.445833 1_545
Rh3 Si1 2.445833 1_445
Rh3 Si6 2.459213 1_555
Rh3 Si6 2.459213 1_455
Rh4 Si7 2.302922 1_455
Rh4 Si7 2.302922 1_555
Rh4 Si8 2.429924 1_555
Rh4 Si5 2.464692 1_555
Rh4 Si2 2.562200 1_555
Rh4 Si9 2.668649 1_555
Rh4 Si9 2.668649 1_455
Rh5 Si4 2.401482 1_555
Rh5 Si8 2.414277 1_554
Rh5 Si5 2.473464 1_554
Rh5 Si0 2.504826 1_555
Rh5 Si0 2.504826 1_455
Rh5 Si1 2.601741 1_545
Rh5 Si1 2.601741 1_445
Rh6 Si7 2.401482 1_555
Rh6 Si1 2.414277 1_556
Rh6 Si0 2.473464 1_556
Rh6 Si5 2.504826 1_655
Rh6 Si5 2.504826 1_555
Rh6 Si8 2.601741 1_665
Rh6 Si8 2.601741 1_565
Rh7 Si4 2.302922 1_555
Rh7 Si4 2.302922 1_655
Rh7 Si1 2.429924 1_555
Rh7 Si0 2.464692 1_555
Rh7 Si6 2.562200 1_555
Rh7 Si3 2.668649 1_555
Rh7 Si3 2.668649 1_655
