# generated using pymatgen
data_Sr2La14Mg4(Fe4O15)3
_symmetry_space_group_name_H-M   'P 1'
_cell_length_a   5.63867200
_cell_length_b   7.94419146
_cell_length_c   22.57416709
_cell_angle_alpha   90.16747773
_cell_angle_beta   90.02187346
_cell_angle_gamma   90.01959578
_symmetry_Int_Tables_number   1
_chemical_formula_structural   Sr2La14Mg4(Fe4O15)3
_chemical_formula_sum   'Sr2 La14 Mg4 Fe12 O45'
_cell_volume   1011.19836317
_cell_formula_units_Z   1
loop_
 _symmetry_equiv_pos_site_id
 _symmetry_equiv_pos_as_xyz
  1  'x, y, z'
loop_
 _atom_site_type_symbol
 _atom_site_label
 _atom_site_symmetry_multiplicity
 _atom_site_fract_x
 _atom_site_fract_y
 _atom_site_fract_z
 _atom_site_occupancy
  Sr  Sr0  1  0.99415400  0.75205000  0.01056200  1
  Sr  Sr1  1  0.98628600  0.74945600  0.75598200  1
  La  La0  1  0.98457300  0.74438900  0.50384000  1
  La  La1  1  0.99338500  0.75282500  0.24744700  1
  La  La2  1  0.52687500  0.75444900  0.88626200  1
  La  La3  1  0.52666600  0.74571100  0.63378000  1
  La  La4  1  0.52249300  0.74896200  0.37826700  1
  La  La5  1  0.51072200  0.75199800  0.12708800  1
  La  La6  1  0.48476000  0.24601900  0.87285200  1
  La  La7  1  0.48235800  0.25211300  0.62014500  1
  La  La8  1  0.48600500  0.25160300  0.37027000  1
  La  La9  1  0.49316200  0.25056200  0.11879700  1
  La  La10  1  0.01817900  0.25123500  0.74611900  1
  La  La11  1  0.01660500  0.25286200  0.49249200  1
  La  La12  1  0.01150700  0.25080600  0.24201500  1
  La  La13  1  0.00028700  0.24546400  0.99867500  1
  Mg  Mg0  1  0.99189700  0.01677300  0.87543600  1
  Mg  Mg1  1  0.99344800  0.47968300  0.62489500  1
  Mg  Mg2  1  0.99075500  0.48245900  0.37331500  1
  Mg  Mg3  1  0.98924600  0.01787800  0.37347900  1
  Fe  Fe0  1  0.50037700  0.50496900  0.00035400  1
  Fe  Fe1  1  0.50544800  0.50437500  0.75014500  1
  Fe  Fe2  1  0.50432300  0.50545800  0.25107900  1
  Fe  Fe3  1  0.50169800  0.50593600  0.50003500  1
  Fe  Fe4  1  0.50386100  0.99555200  0.99888500  1
  Fe  Fe5  1  0.50334100  0.99336200  0.75271600  1
  Fe  Fe6  1  0.50212100  0.99712300  0.25138100  1
  Fe  Fe7  1  0.50197100  0.99335100  0.49797200  1
  Fe  Fe8  1  0.98910700  0.48220500  0.87627400  1
  Fe  Fe9  1  0.00275400  0.49770900  0.12492500  1
  Fe  Fe10  1  0.99188800  0.01935400  0.62431200  1
  Fe  Fe11  1  0.00243400  0.00393500  0.12498800  1
  O  O0  1  0.08147400  0.75073400  0.12668700  1
  O  O1  1  0.22735800  0.04692100  0.80622700  1
  O  O2  1  0.22980500  0.01842800  0.30773500  1
  O  O3  1  0.23038000  0.03545700  0.55783500  1
  O  O4  1  0.22612200  0.45822600  0.80883400  1
  O  O5  1  0.22671900  0.05235800  0.05636600  1
  O  O6  1  0.23847600  0.46403000  0.55896700  1
  O  O7  1  0.24127300  0.48308600  0.30996800  1
  O  O8  1  0.22740700  0.44565900  0.05660300  1
  O  O9  1  0.27440100  0.48164400  0.92863700  1
  O  O10  1  0.27107400  0.45242700  0.68259500  1
  O  O11  1  0.26770200  0.46011200  0.43345000  1
  O  O12  1  0.27318000  0.44440500  0.18320700  1
  O  O13  1  0.28296400  0.01706700  0.92807500  1
  O  O14  1  0.27113000  0.03893400  0.67899500  1
  O  O15  1  0.27518500  0.04063200  0.43140400  1
  O  O16  1  0.27431300  0.05710600  0.18258700  1
  O  O17  1  0.43224800  0.74906900  0.00544600  1
  O  O18  1  0.42101800  0.74968800  0.74318400  1
  O  O19  1  0.40713700  0.75103600  0.49636800  1
  O  O20  1  0.41889900  0.75084600  0.23655500  1
  O  O21  1  0.59402700  0.24926500  0.75399200  1
  O  O22  1  0.58644000  0.25153100  0.26155100  1
  O  O23  1  0.59245500  0.24627500  0.50433500  1
  O  O24  1  0.57657900  0.25252400  0.99326600  1
  O  O25  1  0.72544700  0.94682000  0.82026100  1
  O  O26  1  0.73527500  0.55296400  0.82070000  1
  O  O27  1  0.74863900  0.93035000  0.56825100  1
  O  O28  1  0.73567400  0.93379800  0.31712200  1
  O  O29  1  0.71973500  0.97471600  0.07101000  1
  O  O30  1  0.74423400  0.56218400  0.56666700  1
  O  O31  1  0.74638800  0.57263800  0.31609300  1
  O  O32  1  0.72045300  0.52868400  0.07058600  1
  O  O33  1  0.77705500  0.94664100  0.68875200  1
  O  O34  1  0.76772700  0.55141300  0.68961100  1
  O  O35  1  0.77597900  0.94431900  0.94269200  1
  O  O36  1  0.77799500  0.56178400  0.94094900  1
  O  O37  1  0.77780100  0.96663200  0.19392000  1
  O  O38  1  0.77796200  0.53568300  0.19358600  1
  O  O39  1  0.77602000  0.93298300  0.44107800  1
  O  O40  1  0.76961800  0.56041700  0.44030800  1
  O  O41  1  0.90950400  0.25332400  0.88349900  1
  O  O42  1  0.90108100  0.24552000  0.62411600  1
  O  O43  1  0.89559600  0.25022900  0.38114500  1
  O  O44  1  0.91756500  0.25081500  0.12938300  1
loop_
_geom_bond_atom_site_label_1
_geom_bond_atom_site_label_2
_geom_bond_distance
_geom_bond_site_symmetry_2
La0 O40 2.376381 1_555
La0 O39 2.376391 1_555
La0 O19 2.389303 1_655
La0 O30 2.440354 1_555
La0 O27 2.461044 1_555
La1 O20 2.412045 1_655
La1 O37 2.415580 1_555
La1 O38 2.432014 1_555
La1 O31 2.530479 1_555
La1 O28 2.577286 1_555
La1 O0 2.771128 1_655
La1 O2 2.839250 1_665
La1 O7 2.925018 1_655
La2 O25 2.412975 1_555
La2 O35 2.420078 1_555
La2 O36 2.425462 1_555
La2 O26 2.474284 1_555
La2 O13 2.669554 1_565
La2 O17 2.743530 1_556
La2 O9 2.765792 1_555
La3 O34 2.414553 1_555
La3 O30 2.432227 1_555
La3 O27 2.432934 1_555
La3 O33 2.463084 1_555
La3 O18 2.540865 1_555
La3 O14 2.921245 1_565
La3 O10 2.955291 1_555
La4 O31 2.348806 1_555
La4 O28 2.349083 1_555
La4 O40 2.481715 1_555
La4 O39 2.485184 1_555
La4 O15 2.956275 1_565
La5 O0 2.420419 1_555
La5 O29 2.476855 1_555
La5 O32 2.482343 1_555
La5 O20 2.525021 1_555
La5 O37 2.726329 1_555
La5 O38 2.737204 1_555
La5 O17 2.781252 1_555
La6 O41 2.407593 1_555
La6 O13 2.483922 1_555
La6 O9 2.546660 1_555
La6 O1 2.617852 1_555
La6 O4 2.659249 1_555
La6 O21 2.753417 1_555
La6 O24 2.767249 1_555
La6 O25 2.981254 1_545
La6 O26 3.056633 1_555
La7 O42 2.363313 1_555
La7 O10 2.434863 1_555
La7 O14 2.462624 1_555
La7 O6 2.578042 1_555
La7 O3 2.634820 1_555
La7 O23 2.687514 1_555
La8 O43 2.322500 1_555
La8 O15 2.477906 1_555
La8 O11 2.506404 1_555
La8 O22 2.518942 1_555
La8 O7 2.674697 1_555
La8 O2 2.737232 1_555
La9 O44 2.404880 1_555
La9 O16 2.443630 1_555
La9 O12 2.452284 1_555
La9 O8 2.575175 1_555
La9 O5 2.589677 1_555
La9 O29 2.754480 1_545
La9 O32 2.778825 1_555
La9 O24 2.872792 1_554
La10 O21 2.398365 1_455
La10 O1 2.424829 1_555
La10 O4 2.463108 1_555
La10 O10 2.580272 1_555
La10 O14 2.676421 1_555
La10 O42 2.832145 1_455
La11 O23 2.407208 1_455
La11 O11 2.550388 1_555
La11 O6 2.571696 1_555
La11 O3 2.574233 1_555
La11 O43 2.604304 1_455
La11 O15 2.619118 1_555
La12 O22 2.437219 1_455
La12 O12 2.513308 1_555
La12 O16 2.520826 1_555
La12 O44 2.596968 1_455
La12 O2 2.672120 1_555
La12 O7 2.723410 1_555
La12 O37 2.827424 1_445
La12 O38 2.840153 1_455
La13 O5 2.385652 1_556
La13 O24 2.392907 1_455
La13 O8 2.421693 1_556
La13 O41 2.650642 1_455
La13 O13 2.891324 1_555
La13 O9 2.902807 1_555
Mg0 O41 1.943978 1_555
Mg0 O13 2.025870 1_655
Mg0 O25 2.027659 1_545
Mg0 O35 2.030937 1_545
Mg0 O1 2.065081 1_655
Mg1 O42 1.931628 1_555
Mg1 O34 2.018900 1_555
Mg1 O30 2.033783 1_555
Mg1 O6 2.034680 1_655
Mg1 O10 2.048023 1_655
Mg2 O43 1.929775 1_555
Mg2 O7 2.010455 1_655
Mg2 O31 2.021180 1_555
Mg2 O40 2.054734 1_555
Mg2 O11 2.076760 1_655
Mg3 O43 1.927380 1_555
Mg3 O2 2.010995 1_655
Mg3 O28 2.025345 1_545
Mg3 O39 2.058133 1_545
Mg3 O15 2.083000 1_655
Fe0 O17 1.980010 1_555
Fe0 O32 2.021285 1_555
Fe0 O8 2.051322 1_555
Fe0 O24 2.056917 1_554
Fe0 O9 2.067715 1_554
Fe0 O36 2.111201 1_554
Fe1 O18 2.012854 1_555
Fe1 O34 2.048971 1_555
Fe1 O10 2.058278 1_555
Fe1 O26 2.087977 1_555
Fe1 O21 2.089492 1_555
Fe1 O4 2.091506 1_555
Fe2 O7 2.000389 1_555
Fe2 O38 2.031234 1_555
Fe2 O20 2.035673 1_555
Fe2 O12 2.067639 1_555
Fe2 O31 2.072486 1_555
Fe2 O22 2.083963 1_555
Fe3 O19 2.020904 1_555
Fe3 O6 2.021710 1_555
Fe3 O11 2.031669 1_555
Fe3 O40 2.071708 1_555
Fe3 O30 2.080032 1_555
Fe3 O23 2.127979 1_555
Fe4 O17 2.005089 1_556
Fe4 O35 2.031748 1_555
Fe4 O13 2.033715 1_565
Fe4 O29 2.039654 1_556
Fe4 O5 2.080399 1_566
Fe4 O24 2.086301 1_565
Fe5 O18 2.001485 1_555
Fe5 O25 2.008047 1_555
Fe5 O1 2.015140 1_565
Fe5 O21 2.096210 1_565
Fe5 O33 2.145623 1_555
Fe5 O14 2.148769 1_565
Fe6 O2 2.001292 1_565
Fe6 O20 2.038486 1_555
Fe6 O37 2.039011 1_555
Fe6 O28 2.047706 1_555
Fe6 O16 2.071721 1_565
Fe6 O22 2.088064 1_565
Fe7 O19 1.997934 1_555
Fe7 O15 2.009144 1_565
Fe7 O39 2.065380 1_555
Fe7 O3 2.069437 1_565
Fe7 O23 2.077425 1_565
Fe7 O27 2.169199 1_555
Fe8 O41 1.880273 1_555
Fe8 O26 1.985371 1_555
Fe8 O36 1.986126 1_555
Fe8 O9 1.995920 1_655
Fe8 O4 2.034730 1_655
Fe9 O44 2.021979 1_455
Fe9 O38 2.024612 1_455
Fe9 O32 2.024751 1_455
Fe9 O8 2.037761 1_555
Fe9 O12 2.058546 1_555
Fe9 O0 2.058624 1_555
Fe10 O42 1.868428 1_555
Fe10 O33 1.980649 1_545
Fe10 O27 1.993885 1_545
Fe10 O14 2.006101 1_655
Fe10 O3 2.019735 1_655
Fe11 O29 2.018970 1_445
Fe11 O44 2.021124 1_455
Fe11 O37 2.029165 1_445
Fe11 O5 2.037567 1_555
Fe11 O16 2.052826 1_555
Fe11 O0 2.060872 1_545
O0 Sr0 2.667130 1_455
O1 Sr1 2.949500 1_445
O4 Sr1 2.936335 1_455
O5 Sr0 2.909085 1_445
O8 Sr0 2.958125 1_455
O17 Sr0 2.473129 1_455
O18 Sr1 2.468387 1_455
O25 Sr1 2.591708 1_555
O26 Sr1 2.566649 1_555
O29 Sr0 2.715647 1_555
O32 Sr0 2.716672 1_555
O33 Sr1 2.482505 1_555
O34 Sr1 2.494456 1_555
O35 Sr0 2.491453 1_556
O36 Sr0 2.494618 1_556
