# generated using pymatgen
data_Th(CrSi)2
_symmetry_space_group_name_H-M   'P 1'
_cell_length_a   5.99857435
_cell_length_b   5.99857435
_cell_length_c   5.99857435
_cell_angle_alpha   141.00320727
_cell_angle_beta   141.00320727
_cell_angle_gamma   56.33319196
_symmetry_Int_Tables_number   1
_chemical_formula_structural   Th(CrSi)2
_chemical_formula_sum   'Th1 Cr2 Si2'
_cell_volume   84.79829652
_cell_formula_units_Z   1
loop_
 _symmetry_equiv_pos_site_id
 _symmetry_equiv_pos_as_xyz
  1  'x, y, z'
loop_
 _atom_site_type_symbol
 _atom_site_label
 _atom_site_symmetry_multiplicity
 _atom_site_fract_x
 _atom_site_fract_y
 _atom_site_fract_z
 _atom_site_occupancy
  Th  Th0  1  0.00000000  0.00000000  0.00000000  1
  Cr  Cr0  1  0.75000000  0.25000000  0.50000000  1
  Cr  Cr1  1  0.25000000  0.75000000  0.50000000  1
  Si  Si0  1  0.62213000  0.62213000  0.00000000  1
  Si  Si1  1  0.37787000  0.37787000  0.00000000  1
loop_
_geom_bond_atom_site_label_1
_geom_bond_atom_site_label_2
_geom_bond_distance
_geom_bond_site_symmetry_2
Cr0 Si0 2.416163 1_545
Cr0 Si0 2.416163 1_556
Cr0 Si1 2.416163 1_555
Cr0 Si1 2.416163 1_656
Cr0 Th0 3.316646 1_555
Cr0 Th0 3.316646 1_666
Cr0 Th0 3.316646 1_656
Cr0 Th0 3.316646 1_655
Cr1 Si0 2.416163 1_455
Cr1 Si0 2.416163 1_556
Cr1 Si1 2.416163 1_555
Cr1 Si1 2.416163 1_566
Cr1 Th0 3.316646 1_666
Cr1 Th0 3.316646 1_565
Cr1 Th0 3.316646 1_555
Cr1 Th0 3.316646 1_566
Si0 Si1 2.583399 1_555
Si0 Th0 3.112259 1_554
Si0 Th0 3.112259 1_666
Si0 Th0 3.112259 1_565
Si0 Th0 3.112259 1_655
Si1 Th0 3.112259 1_565
Si1 Th0 3.112259 1_554
Si1 Th0 3.112259 1_666
Si1 Th0 3.112259 1_655
