# generated using pymatgen
data_Sb2SeI2F11
_symmetry_space_group_name_H-M   'P 1'
_cell_length_a   8.23794000
_cell_length_b   9.47810152
_cell_length_c   18.27272883
_cell_angle_alpha   91.90595908
_cell_angle_beta   95.17931576
_cell_angle_gamma   96.09550328
_symmetry_Int_Tables_number   1
_chemical_formula_structural   Sb2SeI2F11
_chemical_formula_sum   'Sb8 Se4 I8 F44'
_cell_volume   1411.55355478
_cell_formula_units_Z   4
loop_
 _symmetry_equiv_pos_site_id
 _symmetry_equiv_pos_as_xyz
  1  'x, y, z'
loop_
 _atom_site_type_symbol
 _atom_site_label
 _atom_site_symmetry_multiplicity
 _atom_site_fract_x
 _atom_site_fract_y
 _atom_site_fract_z
 _atom_site_occupancy
  Sb  Sb0  1  0.31279100  0.77097500  0.40979000  1
  Sb  Sb1  1  0.21297100  0.36742100  0.92937400  1
  Sb  Sb2  1  0.68720900  0.22902500  0.59021000  1
  Sb  Sb3  1  0.78702900  0.63257900  0.07062600  1
  Sb  Sb4  1  0.40136300  0.84652200  0.11204300  1
  Sb  Sb5  1  0.85456500  0.55569000  0.36709000  1
  Sb  Sb6  1  0.59863700  0.15347800  0.88795700  1
  Sb  Sb7  1  0.14543500  0.44431000  0.63291000  1
  Se  Se0  1  0.69557700  0.83477900  0.72316500  1
  Se  Se1  1  0.03025000  0.97990600  0.76058200  1
  Se  Se2  1  0.30442300  0.16522100  0.27683500  1
  Se  Se3  1  0.96975000  0.02009400  0.23941800  1
  I  I0  1  0.88465400  0.17513500  0.14012300  1
  I  I1  1  0.84414700  0.08647500  0.35240300  1
  I  I2  1  0.15585300  0.91352500  0.64759700  1
  I  I3  1  0.69725700  0.63803800  0.80875400  1
  I  I4  1  0.72347300  0.73434800  0.59802000  1
  I  I5  1  0.27652700  0.26565200  0.40198000  1
  I  I6  1  0.11534600  0.82486500  0.85987700  1
  I  I7  1  0.30274300  0.36196200  0.19124600  1
  F  F0  1  0.96270000  0.51767400  0.07791100  1
  F  F1  1  0.45650500  0.11576000  0.79954900  1
  F  F2  1  0.87153300  0.74968100  0.15505400  1
  F  F3  1  0.84009500  0.71775500  0.30978500  1
  F  F4  1  0.78049800  0.66003100  0.44679700  1
  F  F5  1  0.22839600  0.93462000  0.15300600  1
  F  F6  1  0.03729300  0.53480600  0.70632200  1
  F  F7  1  0.64449200  0.46318000  0.33307100  1
  F  F8  1  0.48684000  0.10851200  0.58620200  1
  F  F9  1  0.32960400  0.66454700  0.14546700  1
  F  F10  1  0.33970300  0.48921300  0.87011100  1
  F  F11  1  0.23872300  0.86994200  0.49120600  1
  F  F12  1  0.35230800  0.65897500  0.32690500  1
  F  F13  1  0.15990500  0.28224500  0.69021500  1
  F  F14  1  0.51316000  0.89148800  0.41379800  1
  F  F15  1  0.50989600  0.97672800  0.92158300  1
  F  F16  1  0.20297100  0.89451900  0.34525500  1
  F  F17  1  0.64769200  0.34102500  0.67309500  1
  F  F18  1  0.67039600  0.33545300  0.85453300  1
  F  F19  1  0.11420900  0.22835500  0.98913400  1
  F  F20  1  0.41048100  0.24168200  0.93292900  1
  F  F21  1  0.88579100  0.77164500  0.01086600  1
  F  F22  1  0.60401300  0.36325100  0.52590100  1
  F  F23  1  0.72186200  0.19954900  0.98030000  1
  F  F24  1  0.90435400  0.41088600  0.43237700  1
  F  F25  1  0.12846700  0.25031900  0.84494600  1
  F  F26  1  0.76127700  0.13005800  0.50879400  1
  F  F27  1  0.03730000  0.48232600  0.92208900  1
  F  F28  1  0.08917400  0.64978400  0.40647600  1
  F  F29  1  0.09564600  0.58911400  0.56762300  1
  F  F30  1  0.58951900  0.75831800  0.06707100  1
  F  F31  1  0.27813800  0.80045100  0.01970000  1
  F  F32  1  0.54349500  0.88424000  0.20045100  1
  F  F33  1  0.49010400  0.02327200  0.07841700  1
  F  F34  1  0.21950200  0.33996900  0.55320300  1
  F  F35  1  0.39598700  0.63674900  0.47409900  1
  F  F36  1  0.32393900  0.46058000  0.01620200  1
  F  F37  1  0.77160400  0.06538000  0.84699400  1
  F  F38  1  0.66029700  0.51078700  0.12988900  1
  F  F39  1  0.35550800  0.53682000  0.66692900  1
  F  F40  1  0.67606100  0.53942000  0.98379800  1
  F  F41  1  0.96270700  0.46519400  0.29367800  1
  F  F42  1  0.79702900  0.10548100  0.65474500  1
  F  F43  1  0.91082600  0.35021600  0.59352400  1
loop_
_geom_bond_atom_site_label_1
_geom_bond_atom_site_label_2
_geom_bond_distance
_geom_bond_site_symmetry_2
I0 Se3 2.471707 1_555
I1 Se3 2.483214 1_555
I2 Se1 2.483214 1_555
I3 Se0 2.473641 1_555
I4 Se0 2.486894 1_555
I5 Se2 2.486894 1_555
I6 Se1 2.471707 1_555
I7 Se2 2.473641 1_555
F0 Sb3 1.899392 1_555
F1 Sb6 1.907782 1_555
F2 Sb3 1.903846 1_555
F3 Sb5 1.895657 1_555
F4 Sb5 1.914262 1_555
F5 Sb4 1.921319 1_555
F6 Sb7 1.905336 1_555
F7 Sb5 1.896671 1_555
F8 Sb2 1.899168 1_555
F9 Sb4 1.901590 1_555
F10 Sb1 1.904334 1_555
F11 Sb0 1.912597 1_555
F12 Sb0 1.892653 1_555
F13 Sb7 1.895657 1_555
F14 Sb0 1.899168 1_555
F15 Sb6 1.899451 1_565
F16 Sb0 1.924687 1_555
F17 Sb2 1.892653 1_555
F18 Sb6 1.901590 1_555
F19 Sb1 1.902654 1_555
F20 Sb6 2.058209 1_555
F20 Sb1 2.114185 1_555
F21 Sb3 1.902654 1_555
F22 Sb2 1.899554 1_555
F23 Sb6 1.901558 1_555
F24 Sb5 1.901367 1_555
F25 Sb1 1.903846 1_555
F26 Sb2 1.912597 1_555
F27 Sb1 1.899392 1_555
F28 Sb0 2.059717 1_555
F28 Sb5 2.094935 1_455
F29 Sb7 1.901367 1_555
F30 Sb4 2.058209 1_555
F30 Sb3 2.114185 1_555
F31 Sb4 1.901558 1_555
F32 Sb4 1.907782 1_555
F33 Sb4 1.899451 1_545
F34 Sb7 1.914262 1_555
F35 Sb0 1.899554 1_555
F36 Sb1 1.898970 1_554
F37 Sb6 1.921319 1_555
F38 Sb3 1.904334 1_555
F39 Sb7 1.896671 1_555
F40 Sb3 1.898970 1_556
F41 Sb5 1.905336 1_555
F42 Sb2 1.924687 1_555
F43 Sb2 2.059717 1_555
F43 Sb7 2.094935 1_655
