# generated using pymatgen
data_Ca(SiPd)2
_symmetry_space_group_name_H-M   'P 1'
_cell_length_a   4.19850736
_cell_length_b   4.19850685
_cell_length_c   5.76215334
_cell_angle_alpha   111.36559584
_cell_angle_beta   111.36559624
_cell_angle_gamma   89.99998601
_symmetry_Int_Tables_number   1
_chemical_formula_structural   Ca(SiPd)2
_chemical_formula_sum   'Ca1 Si2 Pd2'
_cell_volume   87.05303288
_cell_formula_units_Z   1
loop_
 _symmetry_equiv_pos_site_id
 _symmetry_equiv_pos_as_xyz
  1  'x, y, z'
loop_
 _atom_site_type_symbol
 _atom_site_label
 _atom_site_symmetry_multiplicity
 _atom_site_fract_x
 _atom_site_fract_y
 _atom_site_fract_z
 _atom_site_occupancy
  Ca  Ca0  1  -0.00000000  0.00000000  -0.00000000  1
  Si  Si0  1  0.37880291  0.37880291  0.75760583  1
  Si  Si1  1  0.62119709  0.62119709  0.24239417  1
  Pd  Pd0  1  0.75000000  0.25000000  0.50000000  1
  Pd  Pd1  1  0.25000000  0.75000000  0.50000000  1
loop_
_geom_bond_atom_site_label_1
_geom_bond_atom_site_label_2
_geom_bond_distance
_geom_bond_site_symmetry_2
Ca0 Si1 3.201044 1_455
Ca0 Si0 3.201044 1_544
Ca0 Si0 3.201044 1_454
Ca0 Si1 3.201044 1_545
Ca0 Si0 3.201045 1_444
Ca0 Si1 3.201045 1_555
Ca0 Si1 3.201045 1_445
Ca0 Si0 3.201045 1_554
Ca0 Pd1 3.240993 1_555
Ca0 Pd0 3.240993 1_444
Ca0 Pd1 3.240993 1_545
Ca0 Pd0 3.240993 1_454
Ca0 Pd0 3.240993 1_555
Ca0 Pd1 3.240993 1_444
Ca0 Pd0 3.240993 1_455
Ca0 Pd1 3.240993 1_544
Si0 Si1 2.394122 1_556
Pd0 Si1 2.454652 1_545
Pd0 Si1 2.454652 1_555
Pd0 Si0 2.454652 1_655
Pd0 Si0 2.454652 1_555
Pd1 Si0 2.454652 1_565
Pd1 Si0 2.454652 1_555
Pd1 Si1 2.454652 1_455
Pd1 Si1 2.454652 1_555
