# generated using pymatgen
data_TiS4(NCl)5
_symmetry_space_group_name_H-M   'P 1'
_cell_length_a   16.96287900
_cell_length_b   6.99321800
_cell_length_c   11.35381703
_cell_angle_alpha   81.41465739
_cell_angle_beta   90.00000000
_cell_angle_gamma   90.00000000
_symmetry_Int_Tables_number   1
_chemical_formula_structural   TiS4(NCl)5
_chemical_formula_sum   'Ti4 S16 N20 Cl20'
_cell_volume   1331.75583802
_cell_formula_units_Z   4
loop_
 _symmetry_equiv_pos_site_id
 _symmetry_equiv_pos_as_xyz
  1  'x, y, z'
loop_
 _atom_site_type_symbol
 _atom_site_label
 _atom_site_symmetry_multiplicity
 _atom_site_fract_x
 _atom_site_fract_y
 _atom_site_fract_z
 _atom_site_occupancy
  Ti  Ti0  1  0.01813500  0.61842400  0.83860500  1
  Ti  Ti1  1  0.51813500  0.38157600  0.66139500  1
  Ti  Ti2  1  0.98186500  0.38157600  0.16139500  1
  Ti  Ti3  1  0.48186500  0.61842400  0.33860500  1
  S  S0  1  0.22881700  0.02425300  0.97681100  1
  S  S1  1  0.65228500  0.16323400  0.12854900  1
  S  S2  1  0.15228500  0.83676600  0.37145100  1
  S  S3  1  0.23529100  0.63126900  0.56640800  1
  S  S4  1  0.11167700  0.12574200  0.51301600  1
  S  S5  1  0.84771500  0.16323400  0.62854900  1
  S  S6  1  0.34771500  0.83676600  0.87145100  1
  S  S7  1  0.76470900  0.36873100  0.43359200  1
  S  S8  1  0.77118300  0.97574700  0.02318900  1
  S  S9  1  0.27118300  0.02425300  0.47681100  1
  S  S10  1  0.26470900  0.63126900  0.06640800  1
  S  S11  1  0.61167700  0.87425800  0.98698400  1
  S  S12  1  0.38832300  0.12574200  0.01301600  1
  S  S13  1  0.88832300  0.87425800  0.48698400  1
  S  S14  1  0.73529100  0.36873100  0.93359200  1
  S  S15  1  0.72881700  0.97574700  0.52318900  1
  N  N0  1  0.29845000  0.15861200  0.03502000  1
  N  N1  1  0.72417300  0.17351500  0.41608900  1
  N  N2  1  0.70155000  0.84138800  0.96498000  1
  N  N3  1  0.23428900  0.95773800  0.35729300  1
  N  N4  1  0.27582700  0.82648500  0.58391100  1
  N  N5  1  0.83208600  0.36510300  0.52839400  1
  N  N6  1  0.33208600  0.63489700  0.97160600  1
  N  N7  1  0.73428900  0.04226200  0.14270700  1
  N  N8  1  0.77582700  0.17351500  0.91608900  1
  N  N9  1  0.41370900  0.95394200  0.94746400  1
  N  N10  1  0.20155000  0.15861200  0.53502000  1
  N  N11  1  0.76571100  0.04226200  0.64270700  1
  N  N12  1  0.22417300  0.82648500  0.08391100  1
  N  N13  1  0.08629100  0.95394200  0.44746400  1
  N  N14  1  0.66791400  0.36510300  0.02839400  1
  N  N15  1  0.16791400  0.63489700  0.47160600  1
  N  N16  1  0.58629100  0.04605800  0.05253600  1
  N  N17  1  0.91370900  0.04605800  0.55253600  1
  N  N18  1  0.26571100  0.95773800  0.85729300  1
  N  N19  1  0.79845000  0.84138800  0.46498000  1
  Cl  Cl0  1  0.14912200  0.50206400  0.85906300  1
  Cl  Cl1  1  0.97557100  0.30540000  0.95441800  1
  Cl  Cl2  1  0.88754500  0.71663200  0.82924900  1
  Cl  Cl3  1  0.50591500  0.50398400  0.83517700  1
  Cl  Cl4  1  0.49408500  0.49601600  0.16482300  1
  Cl  Cl5  1  0.64912200  0.49793600  0.64093700  1
  Cl  Cl6  1  0.38754500  0.28336800  0.67075100  1
  Cl  Cl7  1  0.93712600  0.07650900  0.22649400  1
  Cl  Cl8  1  0.52442900  0.30540000  0.45441800  1
  Cl  Cl9  1  0.06287400  0.92349100  0.77350600  1
  Cl  Cl10  1  0.02442900  0.69460000  0.04558200  1
  Cl  Cl11  1  0.61245500  0.71663200  0.32924900  1
  Cl  Cl12  1  0.35087800  0.50206400  0.35906300  1
  Cl  Cl13  1  0.00591500  0.49601600  0.66482300  1
  Cl  Cl14  1  0.56287400  0.07650900  0.72649400  1
  Cl  Cl15  1  0.43712600  0.92349100  0.27350600  1
  Cl  Cl16  1  0.99408500  0.50398400  0.33517700  1
  Cl  Cl17  1  0.11245500  0.28336800  0.17075100  1
  Cl  Cl18  1  0.85087800  0.49793600  0.14093700  1
  Cl  Cl19  1  0.47557100  0.69460000  0.54558200  1
loop_
_geom_bond_atom_site_label_1
_geom_bond_atom_site_label_2
_geom_bond_distance
_geom_bond_site_symmetry_2
N0 S12 1.567327 1_555
N0 S0 1.703001 1_554
N1 S7 1.567493 1_555
N1 S15 1.701622 1_545
N2 S11 1.567327 1_555
N2 S8 1.703001 1_556
N3 S2 1.623537 1_555
N3 S9 1.624160 1_565
N4 S3 1.567493 1_555
N4 S9 1.701622 1_565
N5 S7 1.567574 1_555
N5 S5 1.696178 1_555
N6 S10 1.567574 1_556
N6 S6 1.696178 1_555
N7 S1 1.623537 1_555
N7 S8 1.624160 1_545
N8 S14 1.567493 1_555
N8 S8 1.701622 1_546
N9 S12 1.565178 1_566
N9 S6 1.697240 1_555
N10 S4 1.567327 1_555
N10 S9 1.703001 1_555
N11 S5 1.623537 1_555
N11 S15 1.624160 1_545
N12 S10 1.567493 1_555
N12 S0 1.701622 1_564
N13 S4 1.565178 1_565
N13 S2 1.697240 1_555
N14 S14 1.567574 1_554
N14 S1 1.696178 1_555
N15 S3 1.567574 1_555
N15 S2 1.696178 1_555
N16 S11 1.565178 1_544
N16 S1 1.697240 1_555
N17 S13 1.565178 1_545
N17 S5 1.697240 1_555
N18 S6 1.623537 1_555
N18 S0 1.624160 1_565
N19 S13 1.567327 1_555
N19 S15 1.703001 1_555
Cl0 Ti0 2.365712 1_555
Cl1 Ti0 2.486530 1_655
Cl1 Ti2 2.488242 1_556
Cl2 Ti0 2.316941 1_655
Cl3 Ti1 2.274447 1_555
Cl4 Ti3 2.274447 1_555
Cl5 Ti1 2.365712 1_555
Cl6 Ti1 2.316941 1_555
Cl7 Ti2 2.280973 1_555
Cl8 Ti3 2.486530 1_555
Cl8 Ti1 2.488242 1_555
Cl9 Ti0 2.280973 1_555
Cl10 Ti2 2.486530 1_455
Cl10 Ti0 2.488242 1_554
Cl11 Ti3 2.316941 1_555
Cl12 Ti3 2.365712 1_555
Cl13 Ti0 2.274447 1_555
Cl14 Ti1 2.280973 1_555
Cl15 Ti3 2.280973 1_555
Cl16 Ti2 2.274447 1_555
Cl17 Ti2 2.316941 1_455
Cl18 Ti2 2.365712 1_555
Cl19 Ti1 2.486530 1_555
Cl19 Ti3 2.488242 1_555
