# generated using pymatgen
data_Mg2BiAsO6
_symmetry_space_group_name_H-M   'P 1'
_cell_length_a   7.41586411
_cell_length_b   7.41586411
_cell_length_c   5.46790300
_cell_angle_alpha   90.00000000
_cell_angle_beta   90.00000000
_cell_angle_gamma   114.62744618
_symmetry_Int_Tables_number   1
_chemical_formula_structural   Mg2BiAsO6
_chemical_formula_sum   'Mg4 Bi2 As2 O12'
_cell_volume   273.35416465
_cell_formula_units_Z   2
loop_
 _symmetry_equiv_pos_site_id
 _symmetry_equiv_pos_as_xyz
  1  'x, y, z'
loop_
 _atom_site_type_symbol
 _atom_site_label
 _atom_site_symmetry_multiplicity
 _atom_site_fract_x
 _atom_site_fract_y
 _atom_site_fract_z
 _atom_site_occupancy
  Mg  Mg0  1  0.71153300  0.89624900  0.25000000  1
  Mg  Mg1  1  0.89624900  0.71153300  0.75000000  1
  Mg  Mg2  1  0.10375100  0.28846700  0.25000000  1
  Mg  Mg3  1  0.28846700  0.10375100  0.75000000  1
  Bi  Bi0  1  0.59201000  0.40799000  0.25000000  1
  Bi  Bi1  1  0.40799000  0.59201000  0.75000000  1
  As  As0  1  0.19791400  0.80208600  0.25000000  1
  As  As1  1  0.80208600  0.19791400  0.75000000  1
  O  O0  1  0.88279600  0.11720400  0.00711300  1
  O  O1  1  0.44942500  0.90486600  0.25000000  1
  O  O2  1  0.32973300  0.32973300  0.00000000  1
  O  O3  1  0.09513400  0.55057500  0.25000000  1
  O  O4  1  0.11720400  0.88279600  0.50711300  1
  O  O5  1  0.67026700  0.67026700  0.00000000  1
  O  O6  1  0.32973300  0.32973300  0.50000000  1
  O  O7  1  0.90486600  0.44942500  0.75000000  1
  O  O8  1  0.67026700  0.67026700  0.50000000  1
  O  O9  1  0.88279600  0.11720400  0.49288700  1
  O  O10  1  0.11720400  0.88279600  0.99288700  1
  O  O11  1  0.55057500  0.09513400  0.75000000  1
loop_
_geom_bond_atom_site_label_1
_geom_bond_atom_site_label_2
_geom_bond_distance
_geom_bond_site_symmetry_2
Mg0 O1 1.971243 1_555
Mg0 O9 2.080225 1_565
Mg0 O0 2.080225 1_565
Mg0 O5 2.084065 1_555
Mg0 O8 2.084065 1_555
Mg1 O7 1.971243 1_555
Mg1 O10 2.080225 1_655
Mg1 O4 2.080225 1_655
Mg1 O5 2.084065 1_556
Mg1 O8 2.084065 1_555
Mg2 O3 1.971243 1_555
Mg2 O9 2.080225 1_455
Mg2 O0 2.080225 1_455
Mg2 O2 2.084065 1_555
Mg2 O6 2.084065 1_555
Mg3 O11 1.971243 1_555
Mg3 O10 2.080225 1_545
Mg3 O4 2.080225 1_545
Mg3 O2 2.084065 1_556
Mg3 O6 2.084065 1_555
Bi0 O8 2.246715 1_555
Bi0 O5 2.246715 1_555
Bi0 O6 2.246715 1_555
Bi0 O2 2.246715 1_555
Bi1 O5 2.246715 1_556
Bi1 O8 2.246715 1_555
Bi1 O6 2.246715 1_555
Bi1 O2 2.246715 1_556
As0 O1 1.695576 1_555
As0 O3 1.695576 1_555
As0 O4 1.729603 1_555
As0 O10 1.729603 1_554
As1 O7 1.695576 1_555
As1 O11 1.695576 1_555
As1 O0 1.729603 1_556
As1 O9 1.729603 1_555
