# generated using pymatgen
data_K2NaInSb2
_symmetry_space_group_name_H-M   'P 1'
_cell_length_a   10.95154532
_cell_length_b   10.95154532
_cell_length_c   7.08939700
_cell_angle_alpha   90.00000000
_cell_angle_beta   90.00000000
_cell_angle_gamma   98.90787994
_symmetry_Int_Tables_number   1
_chemical_formula_structural   K2NaInSb2
_chemical_formula_sum   'K8 Na4 In4 Sb8'
_cell_volume   840.02082187
_cell_formula_units_Z   4
loop_
 _symmetry_equiv_pos_site_id
 _symmetry_equiv_pos_as_xyz
  1  'x, y, z'
loop_
 _atom_site_type_symbol
 _atom_site_label
 _atom_site_symmetry_multiplicity
 _atom_site_fract_x
 _atom_site_fract_y
 _atom_site_fract_z
 _atom_site_occupancy
  K  K0  1  0.07615600  0.42384400  0.25000000  1
  K  K1  1  0.42384400  0.07615600  0.75000000  1
  K  K2  1  0.92384400  0.57615600  0.75000000  1
  K  K3  1  0.57615600  0.92384400  0.25000000  1
  K  K4  1  0.67175800  0.32824200  0.22090000  1
  K  K5  1  0.82824200  0.17175800  0.72090000  1
  K  K6  1  0.32824200  0.67175800  0.77910000  1
  K  K7  1  0.17175800  0.82824200  0.27910000  1
  Na  Na0  1  0.38092400  0.38092400  0.00000000  1
  Na  Na1  1  0.11907600  0.11907600  0.50000000  1
  Na  Na2  1  0.61907600  0.61907600  0.00000000  1
  Na  Na3  1  0.88092400  0.88092400  0.50000000  1
  In  In0  1  0.13224200  0.13224200  0.00000000  1
  In  In1  1  0.36775800  0.36775800  0.50000000  1
  In  In2  1  0.86775800  0.86775800  0.00000000  1
  In  In3  1  0.63224200  0.63224200  0.50000000  1
  Sb  Sb0  1  0.85591100  0.64408800  0.25000000  1
  Sb  Sb1  1  0.64408800  0.85591100  0.75000000  1
  Sb  Sb2  1  0.14408800  0.35591100  0.75000000  1
  Sb  Sb3  1  0.35591100  0.14408800  0.25000000  1
  Sb  Sb4  1  0.89423200  0.10576800  0.20608700  1
  Sb  Sb5  1  0.60576800  0.39423200  0.70608700  1
  Sb  Sb6  1  0.10576800  0.89423200  0.79391300  1
  Sb  Sb7  1  0.39423200  0.60576800  0.29391300  1
loop_
_geom_bond_atom_site_label_1
_geom_bond_atom_site_label_2
_geom_bond_distance
_geom_bond_site_symmetry_2
K0 Sb0 3.665705 1_455
K0 Sb2 3.720654 1_555
K0 Sb2 3.720654 1_554
K0 Sb7 3.748505 1_555
K0 Sb4 3.748505 1_455
K1 Sb1 3.665705 1_545
K1 Sb3 3.720654 1_556
K1 Sb3 3.720654 1_555
K1 Sb5 3.748505 1_555
K1 Sb6 3.748505 1_545
K2 Sb2 3.665705 1_655
K2 Sb0 3.720654 1_555
K2 Sb0 3.720654 1_556
K2 Sb6 3.748505 1_655
K2 Sb5 3.748505 1_555
K3 Sb3 3.665705 1_565
K3 Sb1 3.720654 1_555
K3 Sb1 3.720654 1_554
K3 Sb4 3.748505 1_565
K3 Sb7 3.748505 1_555
K4 Sb5 3.610781 1_555
K4 Na2 3.674129 1_555
K4 Na0 3.674129 1_555
K4 Sb4 3.704302 1_555
K4 Sb0 3.730170 1_555
K4 Sb3 3.730183 1_555
K4 Sb5 3.811394 1_554
K5 Sb4 3.610781 1_556
K5 Na1 3.674129 1_655
K5 Na3 3.674129 1_545
K5 Sb5 3.704302 1_555
K5 Sb2 3.730170 1_655
K5 Sb1 3.730183 1_545
K5 Sb4 3.811394 1_555
K6 Sb7 3.610781 1_555
K6 Na2 3.674129 1_556
K6 Na0 3.674129 1_556
K6 Sb6 3.704302 1_555
K6 Sb1 3.730170 1_555
K6 Sb2 3.730183 1_555
K6 Sb7 3.811394 1_556
K7 Sb6 3.610781 1_554
K7 Na1 3.674129 1_565
K7 Na3 3.674129 1_455
K7 Sb7 3.704302 1_555
K7 Sb3 3.730170 1_565
K7 Sb0 3.730183 1_455
K7 Sb6 3.811394 1_555
Na0 Sb2 3.118270 1_554
Na0 Sb3 3.118270 1_555
Na0 Sb7 3.211717 1_555
Na0 Sb5 3.211717 1_554
Na1 Sb3 3.118261 1_555
Na1 Sb2 3.118261 1_555
Na1 Sb6 3.211717 1_545
Na1 Sb4 3.211717 1_455
Na2 Sb0 3.118261 1_555
Na2 Sb1 3.118261 1_554
Na2 Sb7 3.211717 1_555
Na2 Sb5 3.211717 1_554
Na3 Sb0 3.118270 1_555
Na3 Sb1 3.118270 1_555
Na3 Sb4 3.211717 1_565
Na3 Sb6 3.211717 1_655
In0 Sb4 2.962917 1_455
In0 Sb6 2.962917 1_544
In0 Sb3 3.009949 1_555
In0 Sb2 3.009949 1_554
In0 Na0 3.540810 1_555
In0 Na1 3.549652 1_555
In0 Na1 3.549652 1_554
In0 K1 3.784754 1_554
In0 K0 3.784754 1_555
In0 K5 3.953805 1_454
In0 K7 3.953805 1_545
In1 Sb7 2.962917 1_555
In1 Sb5 2.962917 1_555
In1 Sb2 3.009957 1_555
In1 Sb3 3.009957 1_555
In1 Na1 3.540810 1_555
In1 Na0 3.549652 1_555
In1 Na0 3.549652 1_556
In1 K1 3.784754 1_555
In1 K0 3.784754 1_555
In1 K4 3.953805 1_555
In1 K6 3.953805 1_555
In2 Sb4 2.962917 1_565
In2 Sb6 2.962917 1_654
In2 Sb0 3.009957 1_555
In2 Sb1 3.009957 1_554
In2 Na2 3.540810 1_555
In2 Na3 3.549652 1_555
In2 Na3 3.549652 1_554
In2 K2 3.784754 1_554
In2 K3 3.784754 1_555
In2 K5 3.953805 1_564
In2 K7 3.953805 1_655
In3 Sb5 2.962917 1_555
In3 Sb7 2.962917 1_555
In3 Sb0 3.009949 1_555
In3 Sb1 3.009949 1_555
In3 Na3 3.540810 1_555
In3 Na2 3.549652 1_555
In3 Na2 3.549652 1_556
In3 K3 3.784754 1_555
In3 K2 3.784754 1_555
In3 K4 3.953805 1_555
In3 K6 3.953805 1_555
