# generated using pymatgen
data_LiScO2
_symmetry_space_group_name_H-M   'P 1'
_cell_length_a   5.49377124
_cell_length_b   5.49377124
_cell_length_c   5.49377124
_cell_angle_alpha   135.16898230
_cell_angle_beta   135.16898230
_cell_angle_gamma   65.26775228
_symmetry_Int_Tables_number   1
_chemical_formula_structural   LiScO2
_chemical_formula_sum   'Li2 Sc2 O4'
_cell_volume   81.21445465
_cell_formula_units_Z   2
loop_
 _symmetry_equiv_pos_site_id
 _symmetry_equiv_pos_as_xyz
  1  'x, y, z'
loop_
 _atom_site_type_symbol
 _atom_site_label
 _atom_site_symmetry_multiplicity
 _atom_site_fract_x
 _atom_site_fract_y
 _atom_site_fract_z
 _atom_site_occupancy
  Li  Li0  1  -0.00000000  -0.00000000  -0.00000000  1
  Li  Li1  1  0.75000000  0.25000000  0.50000000  1
  Sc  Sc0  1  0.25000000  0.75000000  0.50000000  1
  Sc  Sc1  1  0.50000000  0.50000000  -0.00000000  1
  O  O0  1  0.26997976  0.26997976  -0.00000000  1
  O  O1  1  0.01997976  0.51997976  0.50000000  1
  O  O2  1  0.73002024  0.73002024  0.00000000  1
  O  O3  1  0.48002024  0.98002024  0.50000000  1
loop_
_geom_bond_atom_site_label_1
_geom_bond_atom_site_label_2
_geom_bond_distance
_geom_bond_site_symmetry_2
Li0 O3 2.103030 1_444
Li0 O1 2.103030 1_555
Li0 O3 2.103030 1_545
Li0 O1 2.103030 1_544
Li0 O2 2.498117 1_445
Li0 O0 2.498117 1_555
Li1 O0 2.103030 1_555
Li1 O0 2.103030 1_656
Li1 O2 2.103030 1_545
Li1 O2 2.103030 1_556
Li1 O3 2.498117 1_545
Li1 O1 2.498117 1_655
O0 Sc0 2.103030 1_544
O0 Sc0 2.103030 1_555
O0 Sc1 2.128373 1_555
O1 Sc1 2.103030 1_455
O1 Sc1 2.103030 1_556
O1 Sc0 2.128373 1_555
O2 Sc0 2.103030 1_655
O2 Sc0 2.103030 1_554
O2 Sc1 2.128373 1_555
O3 Sc1 2.103030 1_555
O3 Sc1 2.103030 1_566
O3 Sc0 2.128373 1_555
