# generated using pymatgen
data_CuSiO3
_symmetry_space_group_name_H-M   'P 1'
_cell_length_a   8.83105112
_cell_length_b   8.83541179
_cell_length_c   8.83155792
_cell_angle_alpha   111.68766446
_cell_angle_beta   111.85595468
_cell_angle_gamma   111.62742901
_symmetry_Int_Tables_number   1
_chemical_formula_structural   CuSiO3
_chemical_formula_sum   'Cu6 Si6 O18'
_cell_volume   481.17749239
_cell_formula_units_Z   6
loop_
 _symmetry_equiv_pos_site_id
 _symmetry_equiv_pos_as_xyz
  1  'x, y, z'
loop_
 _atom_site_type_symbol
 _atom_site_label
 _atom_site_symmetry_multiplicity
 _atom_site_fract_x
 _atom_site_fract_y
 _atom_site_fract_z
 _atom_site_occupancy
  Cu  Cu0  1  0.95494000  0.34152100  0.53463200  1
  Cu  Cu1  1  0.46648500  0.04706500  0.65920400  1
  Cu  Cu2  1  0.04495700  0.65847700  0.46540100  1
  Cu  Cu3  1  0.53349500  0.95280200  0.34073700  1
  Cu  Cu4  1  0.33947200  0.53276000  0.95013000  1
  Cu  Cu5  1  0.66057300  0.46731100  0.04985600  1
  Si  Si0  1  0.78523000  0.91933300  0.17711400  1
  Si  Si1  1  0.82270800  0.21347600  0.08038300  1
  Si  Si2  1  0.91944100  0.17659300  0.78625300  1
  Si  Si3  1  0.17727400  0.78655700  0.91964400  1
  Si  Si4  1  0.21481400  0.08068900  0.82288300  1
  Si  Si5  1  0.08058400  0.82341600  0.21378900  1
  O  O0  1  0.93704600  0.37403800  0.32244800  1
  O  O1  1  0.95095200  0.63365200  0.21456800  1
  O  O2  1  0.73319200  0.98650800  0.02500000  1
  O  O3  1  0.04907100  0.36641300  0.78552300  1
  O  O4  1  0.36624200  0.78407600  0.05067600  1
  O  O5  1  0.26675900  0.01351600  0.97502000  1
  O  O6  1  0.98789900  0.02581300  0.73415200  1
  O  O7  1  0.78411900  0.05121700  0.36647700  1
  O  O8  1  0.67712500  0.06102800  0.62538600  1
  O  O9  1  0.37488400  0.32225200  0.93622100  1
  O  O10  1  0.32290500  0.93892400  0.37460100  1
  O  O11  1  0.02558900  0.73539800  0.98689500  1
  O  O12  1  0.01214900  0.97422000  0.26581800  1
  O  O13  1  0.21597900  0.94876100  0.63359500  1
  O  O14  1  0.62510700  0.67775000  0.06366800  1
  O  O15  1  0.63378200  0.21594800  0.94923400  1
  O  O16  1  0.06279400  0.62592900  0.67755400  1
  O  O17  1  0.97443100  0.26455900  0.01313600  1
loop_
_geom_bond_atom_site_label_1
_geom_bond_atom_site_label_2
_geom_bond_distance
_geom_bond_site_symmetry_2
Cu0 O7 1.929914 1_555
Cu0 O3 1.944903 1_655
Cu0 O16 1.952237 1_655
Cu0 O0 1.957032 1_555
Cu1 O15 1.924234 1_555
Cu1 O13 1.940470 1_545
Cu1 O10 1.948683 1_545
Cu1 O8 1.958668 1_555
Cu2 O13 1.929786 1_555
Cu2 O1 1.944741 1_455
Cu2 O0 1.952357 1_455
Cu2 O16 1.957020 1_555
Cu3 O4 1.924446 1_555
Cu3 O7 1.940878 1_565
Cu3 O8 1.948861 1_565
Cu3 O10 1.958622 1_555
Cu4 O3 1.927947 1_555
Cu4 O4 1.942776 1_556
Cu4 O14 1.948012 1_556
Cu4 O9 1.964867 1_555
Cu5 O1 1.927777 1_555
Cu5 O15 1.943067 1_554
Cu5 O9 1.948236 1_554
Cu5 O14 1.964717 1_555
O0 Si1 1.642473 1_555
O1 Si5 1.649619 1_655
O2 Si0 1.642830 1_555
O2 Si1 1.644449 1_565
O3 Si2 1.649714 1_455
O4 Si3 1.652985 1_554
O5 Si4 1.642899 1_555
O5 Si3 1.644417 1_545
O6 Si4 1.642733 1_655
O6 Si2 1.643083 1_555
O7 Si0 1.653807 1_545
O8 Si2 1.641287 1_555
O9 Si4 1.642861 1_555
O10 Si5 1.641337 1_555
O11 Si3 1.641914 1_555
O11 Si5 1.643542 1_556
O12 Si0 1.642755 1_455
O12 Si5 1.643030 1_555
O13 Si4 1.653744 1_565
O14 Si0 1.642885 1_555
O15 Si1 1.652994 1_556
O16 Si3 1.642494 1_555
O17 Si1 1.642099 1_555
O17 Si2 1.643505 1_554
