# generated using pymatgen
data_Li7MnN4
_symmetry_space_group_name_H-M   'P 1'
_cell_length_a   9.46008598
_cell_length_b   9.46009637
_cell_length_c   9.46008436
_cell_angle_alpha   89.99997741
_cell_angle_beta   89.99994198
_cell_angle_gamma   89.99998286
_symmetry_Int_Tables_number   1
_chemical_formula_structural   Li7MnN4
_chemical_formula_sum   'Li56 Mn8 N32'
_cell_volume   846.61440453
_cell_formula_units_Z   8
loop_
 _symmetry_equiv_pos_site_id
 _symmetry_equiv_pos_as_xyz
  1  'x, y, z'
loop_
 _atom_site_type_symbol
 _atom_site_label
 _atom_site_symmetry_multiplicity
 _atom_site_fract_x
 _atom_site_fract_y
 _atom_site_fract_z
 _atom_site_occupancy
  Li  Li0  1  -0.00000026  0.50000069  0.50000067  1
  Li  Li1  1  0.50000243  0.00000064  0.00000002  1
  Li  Li2  1  -0.00000135  -0.00000020  0.49999727  1
  Li  Li3  1  -0.00000037  0.50000052  0.00000132  1
  Li  Li4  1  0.49999830  0.00000508  0.50000053  1
  Li  Li5  1  0.50000048  0.49999969  0.00000104  1
  Li  Li6  1  0.24996766  0.00000257  0.49999536  1
  Li  Li7  1  0.00000833  0.49999393  0.75002422  1
  Li  Li8  1  0.00000180  0.49999088  0.24998475  1
  Li  Li9  1  0.49999779  0.25002962  0.00000893  1
  Li  Li10  1  0.49999264  0.74997140  0.00000371  1
  Li  Li11  1  0.75001953  0.00000681  0.49999302  1
  Li  Li12  1  0.23224718  0.23224895  0.23224675  1
  Li  Li13  1  0.26775164  0.73224680  0.26775179  1
  Li  Li14  1  0.26775162  0.26775323  0.73224778  1
  Li  Li15  1  0.73224838  0.26775426  0.26775155  1
  Li  Li16  1  0.76775282  0.76775204  0.23224744  1
  Li  Li17  1  0.23224787  0.76775235  0.76775133  1
  Li  Li18  1  0.76775167  0.23224846  0.76775243  1
  Li  Li19  1  0.73224828  0.73224694  0.73224680  1
  Li  Li20  1  0.25166123  0.23794386  0.98187336  1
  Li  Li21  1  0.24834427  0.48187206  0.26205895  1
  Li  Li22  1  0.24834427  0.51812693  0.73794128  1
  Li  Li23  1  0.51812281  0.26205551  0.75165865  1
  Li  Li24  1  0.48187595  0.26205497  0.24834172  1
  Li  Li25  1  0.73794264  0.24833833  0.51812592  1
  Li  Li26  1  0.26205662  0.75166118  0.51812250  1
  Li  Li27  1  0.98187591  0.25165425  0.23794346  1
  Li  Li28  1  0.23794577  0.98187408  0.25165824  1
  Li  Li29  1  0.76205530  0.01812558  0.25165848  1
  Li  Li30  1  0.98187591  0.74834222  0.76205570  1
  Li  Li31  1  0.76205624  0.98187651  0.74834058  1
  Li  Li32  1  0.01812455  0.74833874  0.23794520  1
  Li  Li33  1  0.01812394  0.25165769  0.76205592  1
  Li  Li34  1  0.23794486  0.01812559  0.74833967  1
  Li  Li35  1  0.25165959  0.76205740  0.01812465  1
  Li  Li36  1  0.74834030  0.23794361  0.01812388  1
  Li  Li37  1  0.74833784  0.76205741  0.98187260  1
  Li  Li38  1  0.26205618  0.24833726  0.48187393  1
  Li  Li39  1  0.73794338  0.75166181  0.48187246  1
  Li  Li40  1  0.51812395  0.73794396  0.24834334  1
  Li  Li41  1  0.48187519  0.73794563  0.75166055  1
  Li  Li42  1  0.75165610  0.51812833  0.26205868  1
  Li  Li43  1  0.75165947  0.48187396  0.73794449  1
  Li  Li44  1  0.26405252  -0.00000018  -0.00000155  1
  Li  Li45  1  0.23596075  0.49999672  0.49999946  1
  Li  Li46  1  0.49999870  0.50000066  0.76403808  1
  Li  Li47  1  0.49999880  0.49999899  0.23596293  1
  Li  Li48  1  0.49999887  0.23596150  0.49999692  1
  Li  Li49  1  0.50000057  0.76404528  0.50000532  1
  Li  Li50  1  0.00000432  0.26403669  0.00000007  1
  Li  Li51  1  0.00000101  -0.00000935  0.26404016  1
  Li  Li52  1  0.00000092  0.73596475  -0.00000001  1
  Li  Li53  1  0.00000341  0.00000647  0.73595598  1
  Li  Li54  1  0.73595377  0.00000232  0.00000368  1
  Li  Li55  1  0.76403728  0.49999595  0.50000093  1
  Mn  Mn0  1  0.49999952  0.50000243  0.49999924  1
  Mn  Mn1  1  0.00000206  -0.00000006  -0.00000071  1
  Mn  Mn2  1  0.50000009  0.00000013  0.74999632  1
  Mn  Mn3  1  0.75000202  0.50000090  0.00000104  1
  Mn  Mn4  1  0.24999673  0.49999989  -0.00000019  1
  Mn  Mn5  1  -0.00000201  0.25000534  0.50000002  1
  Mn  Mn6  1  -0.00000117  0.74999379  0.50000064  1
  Mn  Mn7  1  0.49999939  -0.00000104  0.25000281  1
  N  N0  1  0.60977495  0.60977556  0.60977632  1
  N  N1  1  0.89022585  0.10977629  0.89022409  1
  N  N2  1  0.10977830  0.89022587  0.89022337  1
  N  N3  1  0.89022419  0.89022573  0.10977455  1
  N  N4  1  0.60977431  0.39022427  0.39022401  1
  N  N5  1  0.39022344  0.39022448  0.60977500  1
  N  N6  1  0.39022465  0.60977627  0.39022545  1
  N  N7  1  0.10977782  0.10977388  0.10977616  1
  N  N8  1  0.35663547  0.38288560  0.10706202  1
  N  N9  1  0.14336734  0.60705915  0.11711441  1
  N  N10  1  0.14336781  0.39293955  0.88288620  1
  N  N11  1  0.39294080  0.11711655  0.85663570  1
  N  N12  1  0.60705894  0.11711589  0.14336505  1
  N  N13  1  0.88288604  0.14336461  0.39294030  1
  N  N14  1  0.11711388  0.85663531  0.39293903  1
  N  N15  1  0.10706038  0.35663312  0.38288473  1
  N  N16  1  0.38288442  0.10706007  0.35663470  1
  N  N17  1  0.61711430  0.89294106  0.35663576  1
  N  N18  1  0.10705957  0.64336580  0.61711431  1
  N  N19  1  0.61711452  0.10706103  0.64336387  1
  N  N20  1  0.89294055  0.64336518  0.38288555  1
  N  N21  1  0.89294148  0.35663325  0.61711390  1
  N  N22  1  0.38288505  0.89294155  0.64336468  1
  N  N23  1  0.35663550  0.61711336  0.89293938  1
  N  N24  1  0.64336438  0.38288630  0.89294008  1
  N  N25  1  0.64336400  0.61711327  0.10706018  1
  N  N26  1  0.11711435  0.14336426  0.60705957  1
  N  N27  1  0.88288573  0.85663584  0.60705806  1
  N  N28  1  0.39294056  0.88288432  0.14336520  1
  N  N29  1  0.60705834  0.88288517  0.85663538  1
  N  N30  1  0.85663361  0.39293944  0.11711546  1
  N  N31  1  0.85663419  0.60705928  0.88288546  1
loop_
_geom_bond_atom_site_label_1
_geom_bond_atom_site_label_2
_geom_bond_distance
_geom_bond_site_symmetry_2
Li0 N20 2.023022 1_455
Li0 N18 2.023022 1_555
Li0 N21 2.023026 1_455
Li0 N15 2.023052 1_555
Li1 N29 2.023008 1_544
Li1 N12 2.023014 1_555
Li1 N11 2.023036 1_554
Li1 N28 2.023044 1_545
Li2 N13 2.023001 1_455
Li2 N27 2.023014 1_445
Li2 N14 2.023018 1_545
Li2 N26 2.023041 1_555
Li3 N31 2.023030 1_454
Li3 N9 2.023030 1_555
Li3 N30 2.023034 1_455
Li3 N10 2.023053 1_554
Li4 N16 2.023004 1_555
Li4 N19 2.023006 1_555
Li4 N22 2.023029 1_545
Li4 N17 2.023050 1_545
Li5 N25 2.023009 1_555
Li5 N24 2.023017 1_554
Li5 N8 2.023027 1_555
Li5 N23 2.023029 1_554
Li6 N26 2.108248 1_555
Li6 N14 2.108251 1_545
Li6 N16 2.108569 1_555
Li6 N22 2.108642 1_545
Li7 N10 2.108240 1_555
Li7 N31 2.108373 1_455
Li7 N18 2.108570 1_555
Li7 N21 2.108577 1_455
Li8 N30 2.108321 1_455
Li8 N9 2.108386 1_555
Li8 N15 2.108463 1_555
Li8 N20 2.108580 1_455
Li9 N8 2.108216 1_555
Li9 N24 2.108318 1_554
Li9 N12 2.108542 1_555
Li9 N11 2.108624 1_554
Li10 N23 2.108249 1_554
Li10 N25 2.108300 1_555
Li10 N28 2.108528 1_555
Li10 N29 2.108636 1_554
Li11 N13 2.108247 1_555
Li11 N27 2.108382 1_545
Li11 N17 2.108523 1_545
Li11 N19 2.108550 1_555
Li12 N7 2.006743 1_555
Li12 N15 2.194963 1_555
Li12 N8 2.194966 1_555
Li12 N16 2.194989 1_555
Li13 N6 2.006754 1_555
Li13 N9 2.194966 1_555
Li13 N28 2.194984 1_555
Li13 N14 2.194986 1_555
Li14 N5 2.006746 1_555
Li14 N10 2.194962 1_555
Li14 N11 2.194988 1_555
Li14 N26 2.194992 1_555
Li15 N4 2.006749 1_555
Li15 N30 2.194948 1_555
Li15 N12 2.194993 1_555
Li15 N13 2.195000 1_555
Li16 N3 2.006757 1_555
Li16 N20 2.194983 1_555
Li16 N25 2.194996 1_555
Li16 N17 2.194999 1_555
Li17 N2 2.006742 1_555
Li17 N18 2.194979 1_555
Li17 N22 2.194983 1_555
Li17 N23 2.194994 1_555
Li18 N1 2.006758 1_555
Li18 N24 2.194983 1_555
Li18 N21 2.194985 1_555
Li18 N19 2.194986 1_555
Li19 N0 2.006744 1_555
Li19 N31 2.194982 1_555
Li19 N27 2.194994 1_555
Li19 N29 2.195004 1_555
Li20 N10 2.019006 1_555
Li20 N8 2.066114 1_556
Li20 N11 2.120487 1_555
Li20 N7 2.176181 1_556
Li21 N8 2.018999 1_555
Li21 N9 2.066134 1_555
Li21 N15 2.120511 1_555
Li21 N6 2.176154 1_555
Li22 N23 2.019009 1_555
Li22 N10 2.066135 1_555
Li22 N18 2.120523 1_555
Li22 N5 2.176135 1_555
Li23 N19 2.019023 1_555
Li23 N11 2.066071 1_555
Li23 N24 2.120538 1_555
Li23 N5 2.176160 1_555
Li24 N16 2.019017 1_555
Li24 N12 2.066076 1_555
Li24 N8 2.120520 1_555
Li24 N4 2.176150 1_555
Li25 N21 2.019039 1_555
Li25 N13 2.066103 1_555
Li25 N19 2.120479 1_555
Li25 N4 2.176183 1_555
Li26 N18 2.019044 1_555
Li26 N14 2.066090 1_555
Li26 N22 2.120523 1_555
Li26 N6 2.176150 1_555
Li27 N13 2.019006 1_555
Li27 N15 2.066109 1_655
Li27 N30 2.120549 1_555
Li27 N7 2.176145 1_655
Li28 N28 2.019008 1_555
Li28 N16 2.066090 1_565
Li28 N14 2.120523 1_555
Li28 N7 2.176148 1_565
Li29 N12 2.019024 1_555
Li29 N17 2.066099 1_545
Li29 N13 2.120527 1_555
Li29 N3 2.176163 1_545
Li30 N27 2.019033 1_555
Li30 N18 2.066092 1_655
Li30 N31 2.120541 1_555
Li30 N2 2.176170 1_655
Li31 N29 2.019044 1_555
Li31 N19 2.066101 1_565
Li31 N27 2.120531 1_555
Li31 N1 2.176166 1_565
Li32 N14 2.019018 1_555
Li32 N20 2.066074 1_455
Li32 N9 2.120532 1_555
Li32 N3 2.176194 1_455
Li33 N26 2.019023 1_555
Li33 N21 2.066087 1_455
Li33 N10 2.120550 1_555
Li33 N1 2.176135 1_455
Li34 N11 2.019037 1_555
Li34 N22 2.066080 1_545
Li34 N26 2.120512 1_555
Li34 N2 2.176148 1_545
Li35 N9 2.019029 1_555
Li35 N23 2.066116 1_554
Li35 N28 2.120510 1_555
Li35 N2 2.176154 1_554
Li36 N30 2.019026 1_555
Li36 N24 2.066100 1_554
Li36 N12 2.120518 1_555
Li36 N1 2.176164 1_554
Li37 N31 2.019036 1_555
Li37 N25 2.066119 1_556
Li37 N29 2.120487 1_555
Li37 N3 2.176187 1_556
Li38 N15 2.019027 1_555
Li38 N26 2.066090 1_555
Li38 N16 2.120486 1_555
Li38 N5 2.176182 1_555
Li39 N20 2.019029 1_555
Li39 N27 2.066100 1_555
Li39 N17 2.120490 1_555
Li39 N0 2.176195 1_555
Li40 N17 2.019026 1_555
Li40 N28 2.066093 1_555
Li40 N25 2.120538 1_555
Li40 N6 2.176143 1_555
Li41 N22 2.019032 1_555
Li41 N29 2.066073 1_555
Li41 N23 2.120518 1_555
Li41 N0 2.176170 1_555
Li42 N25 2.019008 1_555
Li42 N30 2.066137 1_555
Li42 N20 2.120511 1_555
Li42 N4 2.176154 1_555
Li43 N24 2.019014 1_555
Li43 N31 2.066093 1_555
Li43 N21 2.120534 1_555
Li43 N0 2.176173 1_555
Li44 N2 2.070473 1_544
Li44 N7 2.070488 1_555
Li44 N11 2.133902 1_554
Li44 N28 2.133920 1_545
Li45 N5 2.070390 1_555
Li45 N6 2.070424 1_555
Li45 N15 2.133965 1_555
Li45 N18 2.134001 1_555
Li46 N0 2.070398 1_555
Li46 N5 2.070410 1_555
Li46 N23 2.133956 1_555
Li46 N24 2.133984 1_555
Li47 N4 2.070390 1_555
Li47 N6 2.070405 1_555
Li47 N8 2.133960 1_555
Li47 N25 2.133983 1_555
Li48 N4 2.070393 1_555
Li48 N5 2.070419 1_555
Li48 N16 2.133961 1_555
Li48 N19 2.133989 1_555
Li49 N0 2.070425 1_555
Li49 N6 2.070471 1_555
Li49 N22 2.133919 1_555
Li49 N17 2.133969 1_555
Li50 N7 2.070399 1_555
Li50 N1 2.070407 1_454
Li50 N10 2.133972 1_554
Li50 N30 2.134022 1_455
Li51 N3 2.070381 1_445
Li51 N7 2.070455 1_555
Li51 N14 2.133897 1_545
Li51 N13 2.134026 1_455
Li52 N3 2.070395 1_455
Li52 N2 2.070408 1_554
Li52 N9 2.134008 1_555
Li52 N31 2.134010 1_454
Li53 N1 2.070423 1_455
Li53 N2 2.070457 1_545
Li53 N26 2.133888 1_555
Li53 N27 2.134009 1_445
Li54 N3 2.070440 1_545
Li54 N1 2.070479 1_554
Li54 N12 2.133914 1_555
Li54 N29 2.133978 1_544
Li55 N4 2.070396 1_555
Li55 N0 2.070420 1_555
Li55 N21 2.133971 1_555
Li55 N20 2.134016 1_555
Mn0 N6 1.798689 1_555
Mn0 N0 1.798707 1_555
Mn0 N4 1.798719 1_555
Mn0 N5 1.798728 1_555
Mn1 N2 1.798708 1_544
Mn1 N7 1.798712 1_555
Mn1 N3 1.798714 1_445
Mn1 N1 1.798718 1_454
Mn2 N22 1.808531 1_545
Mn2 N19 1.808542 1_555
Mn2 N29 1.808567 1_545
Mn2 N11 1.808582 1_555
Mn3 N31 1.808534 1_554
Mn3 N30 1.808542 1_555
Mn3 N25 1.808551 1_555
Mn3 N24 1.808573 1_554
Mn4 N10 1.808518 1_554
Mn4 N9 1.808519 1_555
Mn4 N23 1.808568 1_554
Mn4 N8 1.808583 1_555
Mn5 N21 1.808492 1_455
Mn5 N15 1.808530 1_555
Mn5 N13 1.808567 1_455
Mn5 N26 1.808593 1_555
Mn6 N20 1.808514 1_455
Mn6 N18 1.808514 1_555
Mn6 N27 1.808567 1_455
Mn6 N14 1.808598 1_555
Mn7 N17 1.808533 1_545
Mn7 N16 1.808544 1_555
Mn7 N28 1.808562 1_545
Mn7 N12 1.808578 1_555
