# generated using pymatgen
data_Co3BO5
_symmetry_space_group_name_H-M   'P 1'
_cell_length_a   2.99255400
_cell_length_b   9.36787400
_cell_length_c   12.04375200
_cell_angle_alpha   90.00000000
_cell_angle_beta   90.00000000
_cell_angle_gamma   90.00000000
_symmetry_Int_Tables_number   1
_chemical_formula_structural   Co3BO5
_chemical_formula_sum   'Co12 B4 O20'
_cell_volume   337.63296355
_cell_formula_units_Z   4
loop_
 _symmetry_equiv_pos_site_id
 _symmetry_equiv_pos_as_xyz
  1  'x, y, z'
loop_
 _atom_site_type_symbol
 _atom_site_label
 _atom_site_symmetry_multiplicity
 _atom_site_fract_x
 _atom_site_fract_y
 _atom_site_fract_z
 _atom_site_occupancy
  Co  Co0  1  0.50000000  0.75762000  0.38772800  1
  Co  Co1  1  0.50000000  0.24238000  0.61227200  1
  Co  Co2  1  0.50000000  0.25762000  0.11227200  1
  Co  Co3  1  0.50000000  0.74238000  0.88772800  1
  Co  Co4  1  0.00000000  0.00359600  0.22294900  1
  Co  Co5  1  0.00000000  0.99640400  0.77705100  1
  Co  Co6  1  0.00000000  0.50359600  0.27705100  1
  Co  Co7  1  0.00000000  0.49640400  0.72294900  1
  Co  Co8  1  0.00000000  0.00000000  0.50000000  1
  Co  Co9  1  0.00000000  0.50000000  0.00000000  1
  Co  Co10  1  0.50000000  0.50000000  0.50000000  1
  Co  Co11  1  0.50000000  0.00000000  0.00000000  1
  B  B0  1  0.50000000  0.73558000  0.13889800  1
  B  B1  1  0.50000000  0.26442000  0.86110200  1
  B  B2  1  0.50000000  0.23558000  0.36110200  1
  B  B3  1  0.50000000  0.76442000  0.63889800  1
  O  O0  1  0.50000000  0.88167600  0.14111200  1
  O  O1  1  0.50000000  0.11832400  0.85888800  1
  O  O2  1  0.50000000  0.38167600  0.35888800  1
  O  O3  1  0.50000000  0.61832400  0.64111200  1
  O  O4  1  0.50000000  0.84228900  0.53976600  1
  O  O5  1  0.50000000  0.15771100  0.46023400  1
  O  O6  1  0.50000000  0.34228900  0.96023400  1
  O  O7  1  0.50000000  0.65771100  0.03976600  1
  O  O8  1  0.50000000  0.66127400  0.23895600  1
  O  O9  1  0.50000000  0.33872600  0.76104400  1
  O  O10  1  0.50000000  0.16127400  0.26104400  1
  O  O11  1  0.50000000  0.83872600  0.73895600  1
  O  O12  1  0.00000000  0.62446300  0.41998600  1
  O  O13  1  0.00000000  0.37553700  0.58001400  1
  O  O14  1  0.00000000  0.12446300  0.08001400  1
  O  O15  1  0.00000000  0.87553700  0.91998600  1
  O  O16  1  0.00000000  0.88402900  0.35734000  1
  O  O17  1  0.00000000  0.11597100  0.64266000  1
  O  O18  1  0.00000000  0.38402900  0.14266000  1
  O  O19  1  0.00000000  0.61597100  0.85734000  1
loop_
_geom_bond_atom_site_label_1
_geom_bond_atom_site_label_2
_geom_bond_distance
_geom_bond_site_symmetry_2
Co0 O16 1.942957 1_655
Co0 O16 1.942957 1_555
Co0 O12 1.986400 1_655
Co0 O12 1.986400 1_555
Co0 O4 1.995513 1_555
Co0 O8 2.006255 1_555
Co1 O17 1.942957 1_655
Co1 O17 1.942957 1_555
Co1 O13 1.986400 1_555
Co1 O13 1.986400 1_655
Co1 O5 1.995513 1_555
Co1 O9 2.006255 1_555
Co2 O18 1.942957 1_555
Co2 O18 1.942957 1_655
Co2 O14 1.986400 1_555
Co2 O14 1.986400 1_655
Co2 O6 1.995513 1_554
Co2 O10 2.006255 1_555
Co3 O19 1.942957 1_555
Co3 O19 1.942957 1_655
Co3 O15 1.986400 1_655
Co3 O15 1.986400 1_555
Co3 O7 1.995513 1_556
Co3 O11 2.006255 1_555
Co4 O16 1.968343 1_545
Co4 O14 2.060461 1_555
Co4 O0 2.124797 1_445
Co4 O0 2.124797 1_545
Co4 O10 2.152021 1_455
Co4 O10 2.152021 1_555
Co5 O17 1.968343 1_565
Co5 O15 2.060461 1_555
Co5 O1 2.124797 1_565
Co5 O1 2.124797 1_465
Co5 O11 2.152021 1_555
Co5 O11 2.152021 1_455
Co6 O18 1.968343 1_555
Co6 O12 2.060461 1_555
Co6 O2 2.124797 1_555
Co6 O2 2.124797 1_455
Co6 O8 2.152021 1_455
Co6 O8 2.152021 1_555
Co7 O19 1.968343 1_555
Co7 O13 2.060461 1_555
Co7 O3 2.124797 1_455
Co7 O3 2.124797 1_555
Co7 O9 2.152021 1_455
Co7 O9 2.152021 1_555
Co8 O17 2.032818 1_555
Co8 O16 2.032818 1_545
Co8 O5 2.156613 1_455
Co8 O4 2.156613 1_445
Co8 O5 2.156613 1_555
Co8 O4 2.156613 1_545
Co9 O19 2.032818 1_554
Co9 O18 2.032818 1_555
Co9 O7 2.156613 1_555
Co9 O7 2.156613 1_455
Co9 O6 2.156613 1_554
Co9 O6 2.156613 1_454
Co10 O3 2.029042 1_555
Co10 O2 2.029042 1_555
Co10 O13 2.127663 1_555
Co10 O13 2.127663 1_655
Co10 O12 2.127663 1_655
Co10 O12 2.127663 1_555
Co11 O0 2.029042 1_545
Co11 O1 2.029042 1_554
Co11 O14 2.127663 1_655
Co11 O14 2.127663 1_555
Co11 O15 2.127663 1_544
Co11 O15 2.127663 1_644
B0 O0 1.368869 1_555
B0 O8 1.391669 1_555
B0 O7 1.399132 1_555
B1 O1 1.368869 1_555
B1 O9 1.391669 1_555
B1 O6 1.399132 1_555
B2 O2 1.368869 1_555
B2 O10 1.391669 1_555
B2 O5 1.399132 1_555
B3 O3 1.368869 1_555
B3 O11 1.391669 1_555
B3 O4 1.399132 1_555
