# generated using pymatgen
data_LiHo(PO3)4
_symmetry_space_group_name_H-M   'P 1'
_cell_length_a   8.94131625
_cell_length_b   8.94131625
_cell_length_c   9.65152282
_cell_angle_alpha   57.37895861
_cell_angle_beta   57.37895861
_cell_angle_gamma   46.90999463
_symmetry_Int_Tables_number   1
_chemical_formula_structural   LiHo(PO3)4
_chemical_formula_sum   'Li2 Ho2 P8 O24'
_cell_volume   455.93759366
_cell_formula_units_Z   2
loop_
 _symmetry_equiv_pos_site_id
 _symmetry_equiv_pos_as_xyz
  1  'x, y, z'
loop_
 _atom_site_type_symbol
 _atom_site_label
 _atom_site_symmetry_multiplicity
 _atom_site_fract_x
 _atom_site_fract_y
 _atom_site_fract_z
 _atom_site_occupancy
  Li  Li0  1  0.29376900  0.70623100  0.25000000  1
  Li  Li1  1  0.70623100  0.29376900  0.75000000  1
  Ho  Ho0  1  0.79696200  0.20303800  0.25000000  1
  Ho  Ho1  1  0.20303800  0.79696200  0.75000000  1
  P  P0  1  0.68784400  0.58592700  0.38395700  1
  P  P1  1  0.70457900  0.00406600  0.69397400  1
  P  P2  1  0.99593400  0.29542100  0.80602600  1
  P  P3  1  0.00406600  0.70457900  0.19397400  1
  P  P4  1  0.58592700  0.68784400  0.88395700  1
  P  P5  1  0.31215600  0.41407300  0.61604300  1
  P  P6  1  0.41407300  0.31215600  0.11604300  1
  P  P7  1  0.29542100  0.99593400  0.30602600  1
  O  O0  1  0.52912600  0.78316000  0.26589400  1
  O  O1  1  0.43680900  0.43140700  0.92818800  1
  O  O2  1  0.01081800  0.84653200  0.22596500  1
  O  O3  1  0.78316000  0.52912600  0.76589400  1
  O  O4  1  0.82437100  0.39887000  0.31587600  1
  O  O5  1  0.24291800  0.00864200  0.47675200  1
  O  O6  1  0.99135800  0.75708200  0.02324800  1
  O  O7  1  0.39887000  0.82437100  0.81587600  1
  O  O8  1  0.60113000  0.17562900  0.18412400  1
  O  O9  1  0.98918200  0.15346800  0.77403500  1
  O  O10  1  0.82358300  0.66654100  0.34911400  1
  O  O11  1  0.21684000  0.47087400  0.23410600  1
  O  O12  1  0.56859300  0.56319100  0.57181200  1
  O  O13  1  0.15346800  0.98918200  0.27403500  1
  O  O14  1  0.00864200  0.24291800  0.97675200  1
  O  O15  1  0.17562900  0.60113000  0.68412400  1
  O  O16  1  0.56319100  0.56859300  0.07181200  1
  O  O17  1  0.17641700  0.33345900  0.65088600  1
  O  O18  1  0.84653200  0.01081800  0.72596500  1
  O  O19  1  0.33345900  0.17641700  0.15088600  1
  O  O20  1  0.66654100  0.82358300  0.84911400  1
  O  O21  1  0.43140700  0.43680900  0.42818800  1
  O  O22  1  0.75708200  0.99135800  0.52324800  1
  O  O23  1  0.47087400  0.21684000  0.73410600  1
loop_
_geom_bond_atom_site_label_1
_geom_bond_atom_site_label_2
_geom_bond_distance
_geom_bond_site_symmetry_2
Li0 O2 2.002723 1_555
Li0 O13 2.002723 1_555
Li0 O21 2.009970 1_555
Li0 O16 2.009970 1_555
Li1 O18 2.002723 1_555
Li1 O9 2.002723 1_555
Li1 O1 2.009970 1_555
Li1 O12 2.009970 1_555
Ho0 O22 2.278405 1_545
Ho0 O14 2.278405 1_654
Ho0 O4 2.341986 1_555
Ho0 O8 2.341986 1_555
Ho0 O13 2.421211 1_645
Ho0 O2 2.421211 1_645
Ho0 O21 2.547691 1_555
Ho0 O16 2.547691 1_555
Ho1 O6 2.278405 1_456
Ho1 O5 2.278405 1_565
Ho1 O7 2.341986 1_555
Ho1 O15 2.341986 1_555
Ho1 O9 2.421211 1_465
Ho1 O18 2.421211 1_465
Ho1 O12 2.547691 1_555
Ho1 O1 2.547691 1_555
O0 P0 1.606214 1_555
O0 P7 1.620552 1_555
O1 P6 1.509955 1_556
O2 P3 1.502426 1_555
O3 P4 1.606214 1_555
O3 P2 1.620552 1_555
O4 P0 1.499939 1_555
O5 P7 1.497802 1_545
O6 P3 1.497802 1_655
O7 P4 1.499939 1_555
O8 P6 1.499939 1_555
O9 P2 1.502426 1_555
O10 P3 1.599230 1_655
O10 P0 1.612308 1_555
O11 P6 1.606214 1_555
O11 P3 1.620552 1_555
O12 P0 1.509955 1_555
O13 P7 1.502426 1_555
O14 P2 1.497802 1_455
O15 P5 1.499939 1_555
O16 P4 1.509955 1_554
O17 P2 1.599230 1_455
O17 P5 1.612308 1_555
O18 P1 1.502426 1_555
O19 P7 1.599230 1_545
O19 P6 1.612308 1_555
O20 P1 1.599230 1_565
O20 P4 1.612308 1_555
O21 P5 1.509955 1_555
O22 P1 1.497802 1_565
O23 P5 1.606214 1_555
O23 P1 1.620552 1_555
