# generated using pymatgen
data_Fe2NiO4
_symmetry_space_group_name_H-M   'P 1'
_cell_length_a   5.99315944
_cell_length_b   5.99315944
_cell_length_c   19.92552847
_cell_angle_alpha   81.01451646
_cell_angle_beta   81.01451646
_cell_angle_gamma   60.34735989
_symmetry_Int_Tables_number   1
_chemical_formula_structural   Fe2NiO4
_chemical_formula_sum   'Fe16 Ni8 O32'
_cell_volume   611.72455857
_cell_formula_units_Z   8
loop_
 _symmetry_equiv_pos_site_id
 _symmetry_equiv_pos_as_xyz
  1  'x, y, z'
loop_
 _atom_site_type_symbol
 _atom_site_label
 _atom_site_symmetry_multiplicity
 _atom_site_fract_x
 _atom_site_fract_y
 _atom_site_fract_z
 _atom_site_occupancy
  Fe  Fe0  1  0.69139800  0.69139800  0.93840000  1
  Fe  Fe1  1  0.72221300  0.21741000  0.84582800  1
  Fe  Fe2  1  0.43919500  0.43919500  0.68943000  1
  Fe  Fe3  1  0.49646800  0.49646800  0.49920000  1
  Fe  Fe4  1  0.34459500  0.34459500  0.97000100  1
  Fe  Fe5  1  0.21741000  0.72221300  0.84582800  1
  Fe  Fe6  1  0.47044900  0.96600600  0.59271500  1
  Fe  Fe7  1  0.19024200  0.19024200  0.43716600  1
  Fe  Fe8  1  0.24753800  0.24753800  0.24976900  1
  Fe  Fe9  1  0.09282200  0.09282200  0.72226700  1
  Fe  Fe10  1  0.96600600  0.47044900  0.59271500  1
  Fe  Fe11  1  0.21918000  0.71902700  0.34306800  1
  Fe  Fe12  1  0.94109700  0.94109700  0.18634500  1
  Fe  Fe13  1  0.71902700  0.21918000  0.34306800  1
  Fe  Fe14  1  0.97325000  0.46968300  0.09262000  1
  Fe  Fe15  1  0.46968300  0.97325000  0.09262000  1
  Ni  Ni0  1  0.99875600  0.99875600  0.00060700  1
  Ni  Ni1  1  0.74928600  0.74928600  0.74838100  1
  Ni  Ni2  1  0.21688400  0.21688400  0.84499700  1
  Ni  Ni3  1  0.96699200  0.96699200  0.59339000  1
  Ni  Ni4  1  0.71889100  0.71889100  0.34327300  1
  Ni  Ni5  1  0.84450400  0.84450400  0.46859700  1
  Ni  Ni6  1  0.46887900  0.46887900  0.09242300  1
  Ni  Ni7  1  0.59397200  0.59397200  0.21710700  1
  O  O0  1  0.52131600  0.05618500  0.90818000  1
  O  O1  1  0.05618500  0.52131600  0.90818000  1
  O  O2  1  0.40755500  0.40755500  0.78743000  1
  O  O3  1  0.27243200  0.80069000  0.65636200  1
  O  O4  1  0.52137100  0.52137100  0.90676700  1
  O  O5  1  0.91564900  0.91564900  0.78656600  1
  O  O6  1  0.80069000  0.27243200  0.65636200  1
  O  O7  1  0.38078600  0.91223800  0.78354600  1
  O  O8  1  0.15508100  0.15508100  0.53743500  1
  O  O9  1  0.02791700  0.02791700  0.90029300  1
  O  O10  1  0.66050400  0.66050400  0.53353400  1
  O  O11  1  0.27182700  0.27182700  0.65485400  1
  O  O12  1  0.03678100  0.54663200  0.40606300  1
  O  O13  1  0.91223800  0.38078600  0.78354600  1
  O  O14  1  0.54663200  0.03678100  0.40606300  1
  O  O15  1  0.90029800  0.90029800  0.28742100  1
  O  O16  1  0.77765000  0.77765000  0.64612500  1
  O  O17  1  0.14078600  0.65758800  0.53267200  1
  O  O18  1  0.02491000  0.02491000  0.40268600  1
  O  O19  1  0.65758800  0.14078600  0.53267200  1
  O  O20  1  0.78061900  0.29667700  0.15247000  1
  O  O21  1  0.41233500  0.41233500  0.28492100  1
  O  O22  1  0.89100200  0.40135300  0.28167100  1
  O  O23  1  0.65868500  0.65868500  0.03614200  1
  O  O24  1  0.29667700  0.78061900  0.15247000  1
  O  O25  1  0.53770700  0.53770700  0.39895200  1
  O  O26  1  0.17500800  0.17500800  0.03250200  1
  O  O27  1  0.40135300  0.89100200  0.28167100  1
  O  O28  1  0.77795100  0.77795100  0.15129000  1
  O  O29  1  0.62332300  0.16772600  0.02997500  1
  O  O30  1  0.28067800  0.28067800  0.15138800  1
  O  O31  1  0.16772600  0.62332300  0.02997500  1
loop_
_geom_bond_atom_site_label_1
_geom_bond_atom_site_label_2
_geom_bond_distance
_geom_bond_site_symmetry_2
Fe0 O23 1.915557 1_556
Fe0 O1 1.938214 1_655
Fe0 O0 1.938214 1_565
Fe0 O4 1.975523 1_555
Fe1 O9 2.000374 1_655
Fe1 O13 2.019431 1_555
Fe1 O5 2.043018 1_545
Fe1 O0 2.058083 1_555
Fe1 O4 2.075214 1_555
Fe1 O2 2.086547 1_555
Fe2 O2 1.920732 1_555
Fe2 O3 1.934949 1_555
Fe2 O6 1.934949 1_555
Fe2 O11 1.978433 1_555
Fe3 O17 1.908289 1_555
Fe3 O19 1.908289 1_555
Fe3 O10 1.943566 1_555
Fe3 O25 1.965749 1_555
Fe4 O29 1.953948 1_556
Fe4 O31 1.953948 1_556
Fe4 O26 1.961705 1_556
Fe4 O0 2.018146 1_555
Fe4 O1 2.018146 1_555
Fe4 O4 2.027081 1_555
Fe5 O9 2.000374 1_565
Fe5 O7 2.019431 1_555
Fe5 O5 2.043018 1_455
Fe5 O1 2.058083 1_555
Fe5 O4 2.075214 1_555
Fe5 O2 2.086547 1_555
Fe6 O16 1.994202 1_555
Fe6 O19 2.034282 1_565
Fe6 O8 2.052031 1_565
Fe6 O10 2.057068 1_555
Fe6 O3 2.073433 1_555
Fe6 O11 2.097370 1_565
Fe7 O12 1.900747 1_555
Fe7 O14 1.900747 1_555
Fe7 O18 1.957650 1_555
Fe7 O8 1.965040 1_555
Fe8 O22 1.905095 1_455
Fe8 O27 1.905095 1_545
Fe8 O30 1.928067 1_555
Fe8 O21 1.959309 1_555
Fe9 O7 2.009459 1_545
Fe9 O13 2.009459 1_455
Fe9 O5 2.040128 1_445
Fe9 O11 2.084383 1_555
Fe9 O6 2.088132 1_455
Fe9 O3 2.088132 1_545
Fe10 O16 1.994202 1_555
Fe10 O17 2.034282 1_655
Fe10 O8 2.052031 1_655
Fe10 O10 2.057068 1_555
Fe10 O6 2.073433 1_555
Fe10 O11 2.097370 1_655
Fe11 O27 2.013278 1_555
Fe11 O12 2.030231 1_555
Fe11 O21 2.049823 1_555
Fe11 O18 2.064861 1_565
Fe11 O15 2.072025 1_455
Fe11 O25 2.073258 1_555
Fe12 O24 1.909819 1_655
Fe12 O20 1.909819 1_565
Fe12 O28 1.942303 1_555
Fe12 O15 1.981729 1_555
Fe13 O22 2.013278 1_555
Fe13 O14 2.030231 1_555
Fe13 O21 2.049823 1_555
Fe13 O18 2.064861 1_655
Fe13 O15 2.072025 1_545
Fe13 O25 2.073258 1_555
Fe14 O31 2.003206 1_655
Fe14 O26 2.027631 1_655
Fe14 O20 2.048938 1_555
Fe14 O30 2.059976 1_655
Fe14 O23 2.062800 1_555
Fe14 O28 2.063351 1_555
Fe15 O29 2.003206 1_565
Fe15 O26 2.027631 1_565
Fe15 O24 2.048938 1_555
Fe15 O30 2.059976 1_565
Fe15 O23 2.062800 1_555
Fe15 O28 2.063351 1_555
Ni0 O9 1.966802 1_664
Ni0 O31 1.987414 1_655
Ni0 O29 1.987414 1_565
Ni0 O26 2.039337 1_665
Ni1 O7 1.979481 1_555
Ni1 O13 1.979481 1_555
Ni1 O16 2.005351 1_555
Ni1 O5 2.006150 1_555
Ni2 O9 2.066074 1_555
Ni2 O7 2.084635 1_545
Ni2 O13 2.084635 1_455
Ni2 O2 2.097749 1_555
Ni2 O1 2.107468 1_555
Ni2 O0 2.107468 1_555
Ni3 O16 2.051506 1_555
Ni3 O8 2.063152 1_665
Ni3 O19 2.093586 1_565
Ni3 O17 2.093586 1_655
Ni3 O3 2.107187 1_655
Ni3 O6 2.107187 1_565
Ni4 O25 2.000782 1_555
Ni4 O15 2.004047 1_555
Ni4 O22 2.141045 1_555
Ni4 O27 2.141045 1_555
Ni4 O12 2.157708 1_655
Ni4 O14 2.157708 1_565
Ni5 O12 2.068378 1_655
Ni5 O14 2.068378 1_565
Ni5 O19 2.081130 1_565
Ni5 O17 2.081130 1_655
Ni5 O18 2.081438 1_665
Ni5 O10 2.101930 1_555
Ni6 O23 2.080627 1_555
Ni6 O31 2.085977 1_555
Ni6 O29 2.085977 1_555
Ni6 O30 2.087038 1_555
Ni6 O20 2.095680 1_555
Ni6 O24 2.095680 1_555
Ni7 O27 2.091566 1_555
Ni7 O22 2.091566 1_555
Ni7 O24 2.092679 1_555
Ni7 O20 2.092679 1_555
Ni7 O21 2.109368 1_555
Ni7 O28 2.109736 1_555
