# generated using pymatgen
data_AlAu2
_symmetry_space_group_name_H-M   'P 1'
_cell_length_a   6.46376416
_cell_length_b   13.69075952
_cell_length_c   17.86113700
_cell_angle_alpha   90.00000000
_cell_angle_beta   90.00000000
_cell_angle_gamma   90.00000000
_symmetry_Int_Tables_number   1
_chemical_formula_structural   AlAu2
_chemical_formula_sum   'Al32 Au64'
_cell_volume   1580.60061255
_cell_formula_units_Z   32
loop_
 _symmetry_equiv_pos_site_id
 _symmetry_equiv_pos_as_xyz
  1  'x, y, z'
loop_
 _atom_site_type_symbol
 _atom_site_label
 _atom_site_symmetry_multiplicity
 _atom_site_fract_x
 _atom_site_fract_y
 _atom_site_fract_z
 _atom_site_occupancy
  Al  Al0_0  1  0.37500000  0.18340287  0.36138196  1
  Al  Al0_1  1  0.37500000  0.18340287  0.86138196  1
  Al  Al0_2  1  0.37500000  0.68340288  0.36138196  1
  Al  Al0_3  1  0.37500000  0.68340288  0.86138196  1
  Al  Al0_4  1  0.87500000  0.18340287  0.36138196  1
  Al  Al0_5  1  0.87500000  0.18340287  0.86138196  1
  Al  Al0_6  1  0.87500000  0.68340288  0.36138196  1
  Al  Al0_7  1  0.87500000  0.68340288  0.86138196  1
  Al  Al1_0  1  0.12500000  0.31659712  0.13861804  1
  Al  Al1_1  1  0.12500000  0.31659712  0.63861804  1
  Al  Al1_2  1  0.12500000  0.81659712  0.13861804  1
  Al  Al1_3  1  0.12500000  0.81659712  0.63861804  1
  Al  Al1_4  1  0.62500000  0.31659712  0.13861804  1
  Al  Al1_5  1  0.62500000  0.31659712  0.63861804  1
  Al  Al1_6  1  0.62500000  0.81659712  0.13861804  1
  Al  Al1_7  1  0.62500000  0.81659712  0.63861804  1
  Al  Al2_0  1  0.12500000  0.06659713  0.11138196  1
  Al  Al2_1  1  0.12500000  0.06659713  0.61138196  1
  Al  Al2_2  1  0.12500000  0.56659712  0.11138196  1
  Al  Al2_3  1  0.12500000  0.56659712  0.61138196  1
  Al  Al2_4  1  0.62500000  0.06659713  0.11138196  1
  Al  Al2_5  1  0.62500000  0.06659713  0.61138196  1
  Al  Al2_6  1  0.62500000  0.56659712  0.11138196  1
  Al  Al2_7  1  0.62500000  0.56659712  0.61138196  1
  Al  Al3_0  1  0.37500000  0.43340288  0.38861804  1
  Al  Al3_1  1  0.37500000  0.43340288  0.88861804  1
  Al  Al3_2  1  0.37500000  0.93340288  0.38861804  1
  Al  Al3_3  1  0.37500000  0.93340288  0.88861804  1
  Al  Al3_4  1  0.87500000  0.43340288  0.38861804  1
  Al  Al3_5  1  0.87500000  0.43340288  0.88861804  1
  Al  Al3_6  1  0.87500000  0.93340288  0.38861804  1
  Al  Al3_7  1  0.87500000  0.93340288  0.88861804  1
  Au  Au0_0  1  0.37500000  0.42538127  0.03836526  1
  Au  Au0_1  1  0.37500000  0.42538127  0.53836526  1
  Au  Au0_2  1  0.37500000  0.92538126  0.03836526  1
  Au  Au0_3  1  0.37500000  0.92538126  0.53836526  1
  Au  Au0_4  1  0.87500000  0.42538127  0.03836526  1
  Au  Au0_5  1  0.87500000  0.42538127  0.53836526  1
  Au  Au0_6  1  0.87500000  0.92538126  0.03836526  1
  Au  Au0_7  1  0.87500000  0.92538126  0.53836526  1
  Au  Au1_0  1  0.37500000  0.20729559  0.05777092  1
  Au  Au1_1  1  0.37500000  0.20729559  0.55777091  1
  Au  Au1_2  1  0.37500000  0.70729559  0.05777092  1
  Au  Au1_3  1  0.37500000  0.70729559  0.55777091  1
  Au  Au1_4  1  0.87500000  0.20729559  0.05777092  1
  Au  Au1_5  1  0.87500000  0.20729559  0.55777091  1
  Au  Au1_6  1  0.87500000  0.70729559  0.05777092  1
  Au  Au1_7  1  0.87500000  0.70729559  0.55777091  1
  Au  Au2_0  1  0.12500000  0.29270441  0.44222909  1
  Au  Au2_1  1  0.12500000  0.29270441  0.94222909  1
  Au  Au2_2  1  0.12500000  0.79270441  0.44222909  1
  Au  Au2_3  1  0.12500000  0.79270441  0.94222909  1
  Au  Au2_4  1  0.62500000  0.29270441  0.44222909  1
  Au  Au2_5  1  0.62500000  0.29270441  0.94222909  1
  Au  Au2_6  1  0.62500000  0.79270441  0.44222909  1
  Au  Au2_7  1  0.62500000  0.79270441  0.94222909  1
  Au  Au3_0  1  0.12500000  0.04270441  0.30777092  1
  Au  Au3_1  1  0.12500000  0.04270441  0.80777091  1
  Au  Au3_2  1  0.12500000  0.54270441  0.30777092  1
  Au  Au3_3  1  0.12500000  0.54270441  0.80777091  1
  Au  Au3_4  1  0.62500000  0.04270441  0.30777092  1
  Au  Au3_5  1  0.62500000  0.04270441  0.80777091  1
  Au  Au3_6  1  0.62500000  0.54270441  0.30777092  1
  Au  Au3_7  1  0.62500000  0.54270441  0.80777091  1
  Au  Au4_0  1  0.37500000  0.17538127  0.21163474  1
  Au  Au4_1  1  0.37500000  0.17538127  0.71163474  1
  Au  Au4_2  1  0.37500000  0.67538126  0.21163474  1
  Au  Au4_3  1  0.37500000  0.67538126  0.71163474  1
  Au  Au4_4  1  0.87500000  0.17538127  0.21163474  1
  Au  Au4_5  1  0.87500000  0.17538127  0.71163474  1
  Au  Au4_6  1  0.87500000  0.67538126  0.21163474  1
  Au  Au4_7  1  0.87500000  0.67538126  0.71163474  1
  Au  Au5_0  1  0.12500000  0.32461873  0.28836526  1
  Au  Au5_1  1  0.12500000  0.32461873  0.78836526  1
  Au  Au5_2  1  0.12500000  0.82461874  0.28836526  1
  Au  Au5_3  1  0.12500000  0.82461874  0.78836526  1
  Au  Au5_4  1  0.62500000  0.32461873  0.28836526  1
  Au  Au5_5  1  0.62500000  0.32461873  0.78836526  1
  Au  Au5_6  1  0.62500000  0.82461874  0.28836526  1
  Au  Au5_7  1  0.62500000  0.82461874  0.78836526  1
  Au  Au6_0  1  0.37500000  0.45729559  0.19222908  1
  Au  Au6_1  1  0.37500000  0.45729559  0.69222909  1
  Au  Au6_2  1  0.37500000  0.95729559  0.19222908  1
  Au  Au6_3  1  0.37500000  0.95729559  0.69222909  1
  Au  Au6_4  1  0.87500000  0.45729559  0.19222908  1
  Au  Au6_5  1  0.87500000  0.45729559  0.69222909  1
  Au  Au6_6  1  0.87500000  0.95729559  0.19222908  1
  Au  Au6_7  1  0.87500000  0.95729559  0.69222909  1
  Au  Au7_0  1  0.12500000  0.07461874  0.46163474  1
  Au  Au7_1  1  0.12500000  0.07461874  0.96163474  1
  Au  Au7_2  1  0.12500000  0.57461874  0.46163474  1
  Au  Au7_3  1  0.12500000  0.57461874  0.96163474  1
  Au  Au7_4  1  0.62500000  0.07461874  0.46163474  1
  Au  Au7_5  1  0.62500000  0.07461874  0.96163474  1
  Au  Au7_6  1  0.62500000  0.57461874  0.46163474  1
  Au  Au7_7  1  0.62500000  0.57461874  0.96163474  1
loop_
_geom_bond_atom_site_label_1
_geom_bond_atom_site_label_2
_geom_bond_distance
_geom_bond_site_symmetry_2
Al0_0 Au2_4 2.633579 1_555
Al0_0 Au2_0 2.633579 1_555
Al0_0 Au4_0 2.676909 1_555
Al0_0 Au3_0 2.690481 1_555
Al0_0 Au3_4 2.690481 1_555
Al0_0 Au7_0 2.834739 1_555
Al0_0 Au7_4 2.834739 1_555
Al0_0 Au5_0 2.837244 1_555
Al0_0 Au5_4 2.837244 1_555
Al0_1 Au2_1 2.633579 1_555
Al0_1 Au2_5 2.633579 1_555
Al0_1 Au4_1 2.676909 1_555
Al0_1 Au3_5 2.690481 1_555
Al0_1 Au3_1 2.690481 1_555
Al0_1 Au7_1 2.834739 1_555
Al0_1 Au7_5 2.834739 1_555
Al0_1 Au5_1 2.837244 1_555
Al0_1 Au5_5 2.837244 1_555
Al0_2 Au2_2 2.633579 1_555
Al0_2 Au2_6 2.633579 1_555
Al0_2 Au4_2 2.676909 1_555
Al0_2 Au3_6 2.690481 1_555
Al0_2 Au3_2 2.690481 1_555
Al0_2 Au7_6 2.834739 1_555
Al0_2 Au7_2 2.834739 1_555
Al0_2 Au5_6 2.837244 1_555
Al0_2 Au5_2 2.837244 1_555
Al0_3 Au2_3 2.633579 1_555
Al0_3 Au2_7 2.633579 1_555
Al0_3 Au4_3 2.676909 1_555
Al0_3 Au3_3 2.690481 1_555
Al0_3 Au3_7 2.690481 1_555
Al0_3 Au7_3 2.834739 1_555
Al0_3 Au7_7 2.834739 1_555
Al0_3 Au5_3 2.837244 1_555
Al0_3 Au5_7 2.837244 1_555
Al0_4 Au2_0 2.633579 1_655
Al0_4 Au2_4 2.633579 1_555
Al0_4 Au4_4 2.676909 1_555
Al0_4 Au3_0 2.690481 1_655
Al0_4 Au3_4 2.690481 1_555
Al0_4 Au7_0 2.834739 1_655
Al0_4 Au7_4 2.834739 1_555
Al0_4 Au5_0 2.837244 1_655
Al0_4 Au5_4 2.837244 1_555
Al0_5 Au2_1 2.633579 1_655
Al0_5 Au2_5 2.633579 1_555
Al0_5 Au4_5 2.676909 1_555
Al0_5 Au3_1 2.690481 1_655
Al0_5 Au3_5 2.690481 1_555
Al0_5 Au7_1 2.834739 1_655
Al0_5 Au7_5 2.834739 1_555
Al0_5 Au5_1 2.837244 1_655
Al0_5 Au5_5 2.837244 1_555
Al0_6 Au2_2 2.633579 1_655
Al0_6 Au2_6 2.633579 1_555
Al0_6 Au4_6 2.676909 1_555
Al0_6 Au3_2 2.690481 1_655
Al0_6 Au3_6 2.690481 1_555
Al0_6 Au7_2 2.834739 1_655
Al0_6 Au7_6 2.834739 1_555
Al0_6 Au5_2 2.837244 1_655
Al0_6 Au5_6 2.837244 1_555
Al0_7 Au2_3 2.633579 1_655
Al0_7 Au2_7 2.633579 1_555
Al0_7 Au4_7 2.676909 1_555
Al0_7 Au3_3 2.690481 1_655
Al0_7 Au3_7 2.690481 1_555
Al0_7 Au7_3 2.834739 1_655
Al0_7 Au7_7 2.834739 1_555
Al0_7 Au5_3 2.837244 1_655
Al0_7 Au5_7 2.837244 1_555
Al1_0 Au1_4 2.633579 1_455
Al1_0 Au1_0 2.633579 1_555
Al1_0 Au5_0 2.676909 1_555
Al1_0 Au6_4 2.690481 1_455
Al1_0 Au6_0 2.690481 1_555
Al1_0 Au0_4 2.834739 1_455
Al1_0 Au0_0 2.834739 1_555
Al1_0 Au4_4 2.837244 1_455
Al1_0 Au4_0 2.837244 1_555
Al1_1 Au1_5 2.633579 1_455
Al1_1 Au1_1 2.633579 1_555
Al1_1 Au5_1 2.676909 1_555
Al1_1 Au6_5 2.690481 1_455
Al1_1 Au6_1 2.690481 1_555
Al1_1 Au0_5 2.834739 1_455
Al1_1 Au0_1 2.834739 1_555
Al1_1 Au4_1 2.837244 1_555
Al1_1 Au4_5 2.837244 1_455
Al1_2 Au1_6 2.633579 1_455
Al1_2 Au1_2 2.633579 1_555
Al1_2 Au5_2 2.676909 1_555
Al1_2 Au6_6 2.690481 1_455
Al1_2 Au6_2 2.690481 1_555
Al1_2 Au0_6 2.834739 1_455
Al1_2 Au0_2 2.834739 1_555
Al1_2 Au4_6 2.837244 1_455
Al1_2 Au4_2 2.837244 1_555
Al1_3 Au1_7 2.633579 1_455
Al1_3 Au1_3 2.633579 1_555
Al1_3 Au5_3 2.676909 1_555
Al1_3 Au6_7 2.690481 1_455
Al1_3 Au6_3 2.690481 1_555
Al1_3 Au0_7 2.834739 1_455
Al1_3 Au0_3 2.834739 1_555
Al1_3 Au4_7 2.837244 1_455
Al1_3 Au4_3 2.837244 1_555
Al1_4 Au1_0 2.633579 1_555
Al1_4 Au1_4 2.633579 1_555
Al1_4 Au5_4 2.676909 1_555
Al1_4 Au6_0 2.690481 1_555
Al1_4 Au6_4 2.690481 1_555
Al1_4 Au0_0 2.834739 1_555
Al1_4 Au0_4 2.834739 1_555
Al1_4 Au4_4 2.837244 1_555
Al1_4 Au4_0 2.837244 1_555
Al1_5 Au1_1 2.633579 1_555
Al1_5 Au1_5 2.633579 1_555
Al1_5 Au5_5 2.676909 1_555
Al1_5 Au6_1 2.690481 1_555
Al1_5 Au6_5 2.690481 1_555
Al1_5 Au0_1 2.834739 1_555
Al1_5 Au0_5 2.834739 1_555
Al1_5 Au4_1 2.837244 1_555
Al1_5 Au4_5 2.837244 1_555
Al1_6 Au1_2 2.633579 1_555
Al1_6 Au1_6 2.633579 1_555
Al1_6 Au5_6 2.676909 1_555
Al1_6 Au6_2 2.690481 1_555
Al1_6 Au6_6 2.690481 1_555
Al1_6 Au0_2 2.834739 1_555
Al1_6 Au0_6 2.834739 1_555
Al1_6 Au4_2 2.837244 1_555
Al1_6 Au4_6 2.837244 1_555
Al1_7 Au1_3 2.633579 1_555
Al1_7 Au1_7 2.633579 1_555
Al1_7 Au5_7 2.676909 1_555
Al1_7 Au6_3 2.690481 1_555
Al1_7 Au6_7 2.690481 1_555
Al1_7 Au0_3 2.834739 1_555
Al1_7 Au0_7 2.834739 1_555
Al1_7 Au4_3 2.837244 1_555
Al1_7 Au4_7 2.837244 1_555
Al2_0 Au6_6 2.633579 1_445
Al2_0 Au6_2 2.633579 1_545
Al2_0 Au7_1 2.676909 1_554
Al2_0 Au1_4 2.690481 1_455
Al2_0 Au1_0 2.690481 1_555
Al2_0 Au4_4 2.834739 1_455
Al2_0 Au4_0 2.834739 1_555
Al2_0 Au0_6 2.837244 1_445
Al2_0 Au0_2 2.837244 1_545
Al2_1 Au6_7 2.633579 1_445
Al2_1 Au6_3 2.633579 1_545
Al2_1 Au7_0 2.676909 1_555
Al2_1 Au1_5 2.690481 1_455
Al2_1 Au1_1 2.690481 1_555
Al2_1 Au4_5 2.834739 1_455
Al2_1 Au4_1 2.834739 1_555
Al2_1 Au0_7 2.837244 1_445
Al2_1 Au0_3 2.837244 1_545
Al2_2 Au6_4 2.633579 1_455
Al2_2 Au6_0 2.633579 1_555
Al2_2 Au7_3 2.676909 1_554
Al2_2 Au1_6 2.690481 1_455
Al2_2 Au1_2 2.690481 1_555
Al2_2 Au4_6 2.834739 1_455
Al2_2 Au4_2 2.834739 1_555
Al2_2 Au0_4 2.837244 1_455
Al2_2 Au0_0 2.837244 1_555
Al2_3 Au6_5 2.633579 1_455
Al2_3 Au6_1 2.633579 1_555
Al2_3 Au7_2 2.676909 1_555
Al2_3 Au1_7 2.690481 1_455
Al2_3 Au1_3 2.690481 1_555
Al2_3 Au4_7 2.834739 1_455
Al2_3 Au4_3 2.834739 1_555
Al2_3 Au0_5 2.837244 1_455
Al2_3 Au0_1 2.837244 1_555
Al2_4 Au6_2 2.633579 1_545
Al2_4 Au6_6 2.633579 1_545
Al2_4 Au7_5 2.676909 1_554
Al2_4 Au1_0 2.690481 1_555
Al2_4 Au1_4 2.690481 1_555
Al2_4 Au4_0 2.834739 1_555
Al2_4 Au4_4 2.834739 1_555
Al2_4 Au0_2 2.837244 1_545
Al2_4 Au0_6 2.837244 1_545
Al2_5 Au6_3 2.633579 1_545
Al2_5 Au6_7 2.633579 1_545
Al2_5 Au7_4 2.676909 1_555
Al2_5 Au1_1 2.690481 1_555
Al2_5 Au1_5 2.690481 1_555
Al2_5 Au4_1 2.834739 1_555
Al2_5 Au4_5 2.834739 1_555
Al2_5 Au0_3 2.837244 1_545
Al2_5 Au0_7 2.837244 1_545
Al2_6 Au6_0 2.633579 1_555
Al2_6 Au6_4 2.633579 1_555
Al2_6 Au7_7 2.676909 1_554
Al2_6 Au1_2 2.690481 1_555
Al2_6 Au1_6 2.690481 1_555
Al2_6 Au4_2 2.834739 1_555
Al2_6 Au4_6 2.834739 1_555
Al2_6 Au0_0 2.837244 1_555
Al2_6 Au0_4 2.837244 1_555
Al2_7 Au6_1 2.633579 1_555
Al2_7 Au6_5 2.633579 1_555
Al2_7 Au7_6 2.676909 1_555
Al2_7 Au1_3 2.690481 1_555
Al2_7 Au1_7 2.690481 1_555
Al2_7 Au4_3 2.834739 1_555
Al2_7 Au4_7 2.834739 1_555
Al2_7 Au0_1 2.837244 1_555
Al2_7 Au0_5 2.837244 1_555
Al3_0 Au3_2 2.633579 1_555
Al3_0 Au3_6 2.633579 1_555
Al3_0 Au0_1 2.676909 1_555
Al3_0 Au2_0 2.690481 1_555
Al3_0 Au2_4 2.690481 1_555
Al3_0 Au5_0 2.834739 1_555
Al3_0 Au5_4 2.834739 1_555
Al3_0 Au7_2 2.837244 1_555
Al3_0 Au7_6 2.837244 1_555
Al3_1 Au3_3 2.633579 1_555
Al3_1 Au3_7 2.633579 1_555
Al3_1 Au0_0 2.676909 1_556
Al3_1 Au2_1 2.690481 1_555
Al3_1 Au2_5 2.690481 1_555
Al3_1 Au5_1 2.834739 1_555
Al3_1 Au5_5 2.834739 1_555
Al3_1 Au7_3 2.837244 1_555
Al3_1 Au7_7 2.837244 1_555
Al3_2 Au3_0 2.633579 1_565
Al3_2 Au3_4 2.633579 1_565
Al3_2 Au0_3 2.676909 1_555
Al3_2 Au2_2 2.690481 1_555
Al3_2 Au2_6 2.690481 1_555
Al3_2 Au5_2 2.834739 1_555
Al3_2 Au5_6 2.834739 1_555
Al3_2 Au7_0 2.837244 1_565
Al3_2 Au7_4 2.837244 1_565
Al3_3 Au3_1 2.633579 1_565
Al3_3 Au3_5 2.633579 1_565
Al3_3 Au0_2 2.676909 1_556
Al3_3 Au2_3 2.690481 1_555
Al3_3 Au2_7 2.690481 1_555
Al3_3 Au5_3 2.834739 1_555
Al3_3 Au5_7 2.834739 1_555
Al3_3 Au7_1 2.837244 1_565
Al3_3 Au7_5 2.837244 1_565
Al3_4 Au3_2 2.633579 1_655
Al3_4 Au3_6 2.633579 1_555
Al3_4 Au0_5 2.676909 1_555
Al3_4 Au2_0 2.690481 1_655
Al3_4 Au2_4 2.690481 1_555
Al3_4 Au5_0 2.834739 1_655
Al3_4 Au5_4 2.834739 1_555
Al3_4 Au7_2 2.837244 1_655
Al3_4 Au7_6 2.837244 1_555
Al3_5 Au3_3 2.633579 1_655
Al3_5 Au3_7 2.633579 1_555
Al3_5 Au0_4 2.676909 1_556
Al3_5 Au2_1 2.690481 1_655
Al3_5 Au2_5 2.690481 1_555
Al3_5 Au5_1 2.834739 1_655
Al3_5 Au5_5 2.834739 1_555
Al3_5 Au7_3 2.837244 1_655
Al3_5 Au7_7 2.837244 1_555
Al3_6 Au3_0 2.633579 1_665
Al3_6 Au3_4 2.633579 1_565
Al3_6 Au0_7 2.676909 1_555
Al3_6 Au2_2 2.690481 1_655
Al3_6 Au2_6 2.690481 1_555
Al3_6 Au5_2 2.834739 1_655
Al3_6 Au5_6 2.834739 1_555
Al3_6 Au7_0 2.837244 1_665
Al3_6 Au7_4 2.837244 1_565
Al3_7 Au3_1 2.633579 1_665
Al3_7 Au3_5 2.633579 1_565
Al3_7 Au0_6 2.676909 1_556
Al3_7 Au2_3 2.690481 1_655
Al3_7 Au2_7 2.690481 1_555
Al3_7 Au5_3 2.834739 1_655
Al3_7 Au5_7 2.834739 1_555
Al3_7 Au7_1 2.837244 1_665
Al3_7 Au7_5 2.837244 1_565
Au0_0 Au6_0 2.782700 1_555
Au0_0 Au7_7 2.943481 1_554
Au0_0 Au7_3 2.943481 1_554
Au0_0 Au2_1 2.976438 1_554
Au0_0 Au2_5 2.976438 1_554
Au0_0 Au1_0 3.005809 1_555
Au0_0 Au0_4 3.231882 1_455
Au0_0 Au0_4 3.231882 1_555
Au0_1 Au6_1 2.782700 1_555
Au0_1 Au7_6 2.943481 1_555
Au0_1 Au7_2 2.943481 1_555
Au0_1 Au2_0 2.976438 1_555
Au0_1 Au2_4 2.976438 1_555
Au0_1 Au1_1 3.005809 1_555
Au0_1 Au0_5 3.231882 1_455
Au0_1 Au0_5 3.231882 1_555
Au0_2 Au6_2 2.782700 1_555
Au0_2 Au7_1 2.943481 1_564
Au0_2 Au7_5 2.943481 1_564
Au0_2 Au2_7 2.976438 1_554
Au0_2 Au2_3 2.976438 1_554
Au0_2 Au1_2 3.005809 1_555
Au0_2 Au0_6 3.231882 1_455
Au0_2 Au0_6 3.231882 1_555
Au0_3 Au6_3 2.782700 1_555
Au0_3 Au7_0 2.943481 1_565
Au0_3 Au7_4 2.943481 1_565
Au0_3 Au2_2 2.976438 1_555
Au0_3 Au2_6 2.976438 1_555
Au0_3 Au1_3 3.005809 1_555
Au0_3 Au0_7 3.231882 1_455
Au0_3 Au0_7 3.231882 1_555
Au0_4 Au6_4 2.782700 1_555
Au0_4 Au7_3 2.943481 1_654
Au0_4 Au7_7 2.943481 1_554
Au0_4 Au2_1 2.976438 1_654
Au0_4 Au2_5 2.976438 1_554
Au0_4 Au1_4 3.005809 1_555
Au0_5 Au6_5 2.782700 1_555
Au0_5 Au7_2 2.943481 1_655
Au0_5 Au7_6 2.943481 1_555
Au0_5 Au2_0 2.976438 1_655
Au0_5 Au2_4 2.976438 1_555
Au0_5 Au1_5 3.005809 1_555
Au0_6 Au6_6 2.782700 1_555
Au0_6 Au7_1 2.943481 1_664
Au0_6 Au7_5 2.943481 1_564
Au0_6 Au2_3 2.976438 1_654
Au0_6 Au2_7 2.976438 1_554
Au0_6 Au1_6 3.005809 1_555
Au0_7 Au6_7 2.782700 1_555
Au0_7 Au7_0 2.943481 1_665
Au0_7 Au7_4 2.943481 1_565
Au0_7 Au2_2 2.976438 1_655
Au0_7 Au2_6 2.976438 1_555
Au0_7 Au1_7 3.005809 1_555
Au1_0 Au4_0 2.782700 1_555
Au1_0 Au2_5 2.870095 1_554
Au1_0 Au2_1 2.870095 1_554
Au1_0 Au7_1 2.976438 1_554
Au1_0 Au7_5 2.976438 1_554
Au1_0 Au1_4 3.231882 1_455
Au1_0 Au1_4 3.231882 1_555
Au1_1 Au4_1 2.782700 1_555
Au1_1 Au2_4 2.870095 1_555
Au1_1 Au2_0 2.870095 1_555
Au1_1 Au7_0 2.976438 1_555
Au1_1 Au7_4 2.976438 1_555
Au1_1 Au1_5 3.231882 1_455
Au1_1 Au1_5 3.231882 1_555
Au1_2 Au4_2 2.782700 1_555
Au1_2 Au2_7 2.870095 1_554
Au1_2 Au2_3 2.870095 1_554
Au1_2 Au7_3 2.976438 1_554
Au1_2 Au7_7 2.976438 1_554
Au1_2 Au1_6 3.231882 1_455
Au1_2 Au1_6 3.231882 1_555
Au1_3 Au4_3 2.782700 1_555
Au1_3 Au2_2 2.870095 1_555
Au1_3 Au2_6 2.870095 1_555
Au1_3 Au7_6 2.976438 1_555
Au1_3 Au7_2 2.976438 1_555
Au1_3 Au1_7 3.231882 1_455
Au1_3 Au1_7 3.231882 1_555
Au1_4 Au4_4 2.782700 1_555
Au1_4 Au2_1 2.870095 1_654
Au1_4 Au2_5 2.870095 1_554
Au1_4 Au7_1 2.976438 1_654
Au1_4 Au7_5 2.976438 1_554
Au1_5 Au4_5 2.782700 1_555
Au1_5 Au2_0 2.870095 1_655
Au1_5 Au2_4 2.870095 1_555
Au1_5 Au7_0 2.976438 1_655
Au1_5 Au7_4 2.976438 1_555
Au1_6 Au4_6 2.782700 1_555
Au1_6 Au2_3 2.870095 1_654
Au1_6 Au2_7 2.870095 1_554
Au1_6 Au7_3 2.976438 1_654
Au1_6 Au7_7 2.976438 1_554
Au1_7 Au4_7 2.782700 1_555
Au1_7 Au2_2 2.870095 1_655
Au1_7 Au2_6 2.870095 1_555
Au1_7 Au7_2 2.976438 1_655
Au1_7 Au7_6 2.976438 1_555
Au2_0 Au5_0 2.782700 1_555
Au2_0 Au7_0 3.005809 1_555
Au2_0 Au2_4 3.231882 1_455
Au2_0 Au2_4 3.231882 1_555
Au2_1 Au5_1 2.782700 1_555
Au2_1 Au7_1 3.005809 1_555
Au2_1 Au2_5 3.231882 1_555
Au2_1 Au2_5 3.231882 1_455
Au2_2 Au5_2 2.782700 1_555
Au2_2 Au7_2 3.005809 1_555
Au2_2 Au2_6 3.231882 1_555
Au2_2 Au2_6 3.231882 1_455
Au2_3 Au5_3 2.782700 1_555
Au2_3 Au7_3 3.005809 1_555
Au2_3 Au2_7 3.231882 1_455
Au2_3 Au2_7 3.231882 1_555
Au2_4 Au5_4 2.782700 1_555
Au2_4 Au7_4 3.005809 1_555
Au2_5 Au5_5 2.782700 1_555
Au2_5 Au7_5 3.005809 1_555
Au2_6 Au5_6 2.782700 1_555
Au2_6 Au7_6 3.005809 1_555
Au2_7 Au5_7 2.782700 1_555
Au2_7 Au7_7 3.005809 1_555
Au3_0 Au7_0 2.782700 1_555
Au3_0 Au6_6 2.870095 1_445
Au3_0 Au6_2 2.870095 1_545
Au3_0 Au4_4 2.976438 1_455
Au3_0 Au4_0 2.976438 1_555
Au3_0 Au5_2 3.005809 1_545
Au3_0 Au3_4 3.231882 1_455
Au3_0 Au3_4 3.231882 1_555
Au3_1 Au7_1 2.782700 1_555
Au3_1 Au6_7 2.870095 1_445
Au3_1 Au6_3 2.870095 1_545
Au3_1 Au4_5 2.976438 1_455
Au3_1 Au4_1 2.976438 1_555
Au3_1 Au5_3 3.005809 1_545
Au3_1 Au3_5 3.231882 1_455
Au3_1 Au3_5 3.231882 1_555
Au3_2 Au7_2 2.782700 1_555
Au3_2 Au6_4 2.870095 1_455
Au3_2 Au6_0 2.870095 1_555
Au3_2 Au4_6 2.976438 1_455
Au3_2 Au4_2 2.976438 1_555
Au3_2 Au5_0 3.005809 1_555
Au3_2 Au3_6 3.231882 1_455
Au3_2 Au3_6 3.231882 1_555
Au3_3 Au7_3 2.782700 1_555
Au3_3 Au6_5 2.870095 1_455
Au3_3 Au6_1 2.870095 1_555
Au3_3 Au4_3 2.976438 1_555
Au3_3 Au4_7 2.976438 1_455
Au3_3 Au5_1 3.005809 1_555
Au3_3 Au3_7 3.231882 1_555
Au3_3 Au3_7 3.231882 1_455
Au3_4 Au7_4 2.782700 1_555
Au3_4 Au6_2 2.870095 1_545
Au3_4 Au6_6 2.870095 1_545
Au3_4 Au4_4 2.976438 1_555
Au3_4 Au4_0 2.976438 1_555
Au3_4 Au5_6 3.005809 1_545
Au3_5 Au7_5 2.782700 1_555
Au3_5 Au6_3 2.870095 1_545
Au3_5 Au6_7 2.870095 1_545
Au3_5 Au4_1 2.976438 1_555
Au3_5 Au4_5 2.976438 1_555
Au3_5 Au5_7 3.005809 1_545
Au3_6 Au7_6 2.782700 1_555
Au3_6 Au6_4 2.870095 1_555
Au3_6 Au6_0 2.870095 1_555
Au3_6 Au4_2 2.976438 1_555
Au3_6 Au4_6 2.976438 1_555
Au3_6 Au5_4 3.005809 1_555
Au3_7 Au7_7 2.782700 1_555
Au3_7 Au6_1 2.870095 1_555
Au3_7 Au6_5 2.870095 1_555
Au3_7 Au4_3 2.976438 1_555
Au3_7 Au4_7 2.976438 1_555
Au3_7 Au5_5 3.005809 1_555
Au4_0 Au5_0 2.943481 1_555
Au4_0 Au5_4 2.943481 1_555
Au4_0 Au6_2 3.005809 1_545
Au4_0 Au4_4 3.231882 1_455
Au4_0 Au4_4 3.231882 1_555
Au4_1 Au5_1 2.943481 1_555
Au4_1 Au5_5 2.943481 1_555
Au4_1 Au6_3 3.005809 1_545
Au4_1 Au4_5 3.231882 1_455
Au4_1 Au4_5 3.231882 1_555
Au4_2 Au5_2 2.943481 1_555
Au4_2 Au5_6 2.943481 1_555
Au4_2 Au6_0 3.005809 1_555
Au4_2 Au4_6 3.231882 1_455
Au4_2 Au4_6 3.231882 1_555
Au4_3 Au5_7 2.943481 1_555
Au4_3 Au5_3 2.943481 1_555
Au4_3 Au6_1 3.005809 1_555
Au4_3 Au4_7 3.231882 1_455
Au4_3 Au4_7 3.231882 1_555
Au4_4 Au5_0 2.943481 1_655
Au4_4 Au5_4 2.943481 1_555
Au4_4 Au6_6 3.005809 1_545
Au4_5 Au5_1 2.943481 1_655
Au4_5 Au5_5 2.943481 1_555
Au4_5 Au6_7 3.005809 1_545
Au4_6 Au5_2 2.943481 1_655
Au4_6 Au5_6 2.943481 1_555
Au4_6 Au6_4 3.005809 1_555
Au4_7 Au5_3 2.943481 1_655
Au4_7 Au5_7 2.943481 1_555
Au4_7 Au6_5 3.005809 1_555
Au5_0 Au6_0 2.976438 1_555
Au5_0 Au6_4 2.976438 1_455
Au5_0 Au5_4 3.231882 1_555
Au5_0 Au5_4 3.231882 1_455
Au5_1 Au6_5 2.976438 1_455
Au5_1 Au6_1 2.976438 1_555
Au5_1 Au5_5 3.231882 1_455
Au5_1 Au5_5 3.231882 1_555
Au5_2 Au6_6 2.976438 1_455
Au5_2 Au6_2 2.976438 1_555
Au5_2 Au5_6 3.231882 1_455
Au5_2 Au5_6 3.231882 1_555
Au5_3 Au6_7 2.976438 1_455
Au5_3 Au6_3 2.976438 1_555
Au5_3 Au5_7 3.231882 1_555
Au5_3 Au5_7 3.231882 1_455
Au5_4 Au6_0 2.976438 1_555
Au5_4 Au6_4 2.976438 1_555
Au5_5 Au6_1 2.976438 1_555
Au5_5 Au6_5 2.976438 1_555
Au5_6 Au6_2 2.976438 1_555
Au5_6 Au6_6 2.976438 1_555
Au5_7 Au6_3 2.976438 1_555
Au5_7 Au6_7 2.976438 1_555
Au6_0 Au6_4 3.231882 1_455
Au6_0 Au6_4 3.231882 1_555
Au6_1 Au6_5 3.231882 1_455
Au6_1 Au6_5 3.231882 1_555
Au6_2 Au6_6 3.231882 1_455
Au6_2 Au6_6 3.231882 1_555
Au6_3 Au6_7 3.231882 1_455
Au6_3 Au6_7 3.231882 1_555
Au7_0 Au7_4 3.231882 1_455
Au7_0 Au7_4 3.231882 1_555
Au7_1 Au7_5 3.231882 1_455
Au7_1 Au7_5 3.231882 1_555
Au7_2 Au7_6 3.231882 1_555
Au7_2 Au7_6 3.231882 1_455
Au7_3 Au7_7 3.231882 1_555
Au7_3 Au7_7 3.231882 1_455
