# generated using pymatgen
data_Ba2TaBiO6
_symmetry_space_group_name_H-M   'P 1'
_cell_length_a   6.10526149
_cell_length_b   6.10526149
_cell_length_c   6.16693836
_cell_angle_alpha   59.99140940
_cell_angle_beta   59.99140940
_cell_angle_gamma   60.01537219
_symmetry_Int_Tables_number   1
_chemical_formula_structural   Ba2TaBiO6
_chemical_formula_sum   'Ba2 Ta1 Bi1 O6'
_cell_volume   162.53884192
_cell_formula_units_Z   1
loop_
 _symmetry_equiv_pos_site_id
 _symmetry_equiv_pos_as_xyz
  1  'x, y, z'
loop_
 _atom_site_type_symbol
 _atom_site_label
 _atom_site_symmetry_multiplicity
 _atom_site_fract_x
 _atom_site_fract_y
 _atom_site_fract_z
 _atom_site_occupancy
  Ba  Ba0  1  0.75092900  0.75092900  0.24493600  1
  Ba  Ba1  1  0.24907100  0.24907100  0.75506400  1
  Ta  Ta0  1  0.50000000  0.50000000  0.00000000  1
  Bi  Bi0  1  0.00000000  0.00000000  0.50000000  1
  O  O0  1  0.30057600  0.76522000  0.19473000  1
  O  O1  1  0.69942400  0.23478000  0.80527000  1
  O  O2  1  0.76522000  0.30057600  0.19473000  1
  O  O3  1  0.72913600  0.72913600  0.71060900  1
  O  O4  1  0.23478000  0.69942400  0.80527000  1
  O  O5  1  0.27086400  0.27086400  0.28939100  1
loop_
_geom_bond_atom_site_label_1
_geom_bond_atom_site_label_2
_geom_bond_distance
_geom_bond_site_symmetry_2
Ba0 O3 2.745143 1_555
Ba0 O4 2.844219 1_654
Ba0 O1 2.844219 1_564
Ba0 O0 2.871945 1_555
Ba0 O2 2.871945 1_555
Ba0 O5 3.083703 1_655
Ba0 O5 3.083703 1_565
Ba0 O2 3.254355 1_565
Ba0 O0 3.254355 1_655
Ba0 O4 3.313823 1_555
Ba0 O1 3.313823 1_555
Ba0 O3 3.433406 1_554
Ba1 O5 2.745143 1_555
Ba1 O0 2.844219 1_546
Ba1 O2 2.844219 1_456
Ba1 O4 2.871945 1_555
Ba1 O1 2.871945 1_555
Ba1 O3 3.083703 1_545
Ba1 O3 3.083703 1_455
Ba1 O4 3.254355 1_545
Ba1 O1 3.254355 1_455
Ba1 O2 3.313823 1_555
Ba1 O0 3.313823 1_555
Ba1 O5 3.433406 1_556
Bi0 O0 2.362346 1_545
Bi0 O2 2.362346 1_455
Bi0 O4 2.362346 1_545
Bi0 O1 2.362346 1_455
Bi0 O5 2.364947 1_555
Bi0 O3 2.364947 1_445
O0 Ta0 2.014551 1_555
O1 Ta0 2.014551 1_556
O2 Ta0 2.014551 1_555
O3 Ta0 2.015097 1_556
O4 Ta0 2.014551 1_556
O5 Ta0 2.015097 1_555
