# generated using pymatgen
data_Na9Co2O7
_symmetry_space_group_name_H-M   'P 1'
_cell_length_a   9.60216000
_cell_length_b   9.93510000
_cell_length_c   10.29522000
_cell_angle_alpha   90.00000000
_cell_angle_beta   90.00000000
_cell_angle_gamma   90.00000000
_symmetry_Int_Tables_number   1
_chemical_formula_structural   Na9Co2O7
_chemical_formula_sum   'Na36 Co8 O28'
_cell_volume   982.14771966
_cell_formula_units_Z   4
loop_
 _symmetry_equiv_pos_site_id
 _symmetry_equiv_pos_as_xyz
  1  'x, y, z'
loop_
 _atom_site_type_symbol
 _atom_site_label
 _atom_site_symmetry_multiplicity
 _atom_site_fract_x
 _atom_site_fract_y
 _atom_site_fract_z
 _atom_site_occupancy
  Na  Na0  1  0.09020700  0.51323700  0.59340700  1
  Na  Na1  1  0.90979300  0.48676300  0.09340700  1
  Na  Na2  1  0.40979300  0.51323700  0.09340700  1
  Na  Na3  1  0.59020700  0.48676300  0.59340700  1
  Na  Na4  1  0.27371000  0.28518600  0.72846400  1
  Na  Na5  1  0.72629000  0.71481400  0.22846400  1
  Na  Na6  1  0.22629000  0.28518600  0.22846400  1
  Na  Na7  1  0.77371000  0.71481400  0.72846400  1
  Na  Na8  1  0.06676800  0.66782700  0.86253600  1
  Na  Na9  1  0.93323200  0.33217300  0.36253600  1
  Na  Na10  1  0.43323200  0.66782700  0.36253600  1
  Na  Na11  1  0.56676800  0.33217300  0.86253600  1
  Na  Na12  1  0.01964200  0.15949800  0.88395300  1
  Na  Na13  1  0.98035800  0.84050200  0.38395300  1
  Na  Na14  1  0.48035800  0.15949800  0.38395300  1
  Na  Na15  1  0.51964200  0.84050200  0.88395300  1
  Na  Na16  1  0.15286900  0.55864500  0.29422200  1
  Na  Na17  1  0.84713100  0.44135500  0.79422200  1
  Na  Na18  1  0.34713100  0.55864500  0.79422200  1
  Na  Na19  1  0.65286900  0.44135500  0.29422200  1
  Na  Na20  1  0.21366400  0.77517400  0.55723200  1
  Na  Na21  1  0.78633600  0.22482600  0.05723200  1
  Na  Na22  1  0.28633600  0.77517400  0.05723200  1
  Na  Na23  1  0.71366400  0.22482600  0.55723200  1
  Na  Na24  1  0.98577000  0.25502100  0.62985700  1
  Na  Na25  1  0.01423000  0.74497900  0.12985700  1
  Na  Na26  1  0.51423000  0.25502100  0.12985700  1
  Na  Na27  1  0.48577000  0.74497900  0.62985700  1
  Na  Na28  1  0.16068300  0.10494200  0.48364600  1
  Na  Na29  1  0.83931700  0.89505800  0.98364600  1
  Na  Na30  1  0.33931700  0.10494200  0.98364600  1
  Na  Na31  1  0.66068300  0.89505800  0.48364600  1
  Na  Na32  1  0.07225600  0.04757500  0.15158500  1
  Na  Na33  1  0.92774400  0.95242500  0.65158500  1
  Na  Na34  1  0.42774400  0.04757500  0.65158500  1
  Na  Na35  1  0.57225600  0.95242500  0.15158500  1
  Co  Co0  1  0.15787800  0.39947400  0.97288700  1
  Co  Co1  1  0.84212200  0.60052600  0.47288700  1
  Co  Co2  1  0.34212200  0.39947400  0.47288700  1
  Co  Co3  1  0.65787800  0.60052600  0.97288700  1
  Co  Co4  1  0.19134100  0.93191500  0.80864600  1
  Co  Co5  1  0.80865900  0.06808500  0.30864600  1
  Co  Co6  1  0.30865900  0.93191500  0.30864600  1
  Co  Co7  1  0.69134100  0.06808500  0.80864600  1
  O  O0  1  0.04127300  0.28244000  0.07718200  1
  O  O1  1  0.95872700  0.71756000  0.57718200  1
  O  O2  1  0.45872700  0.28244000  0.57718200  1
  O  O3  1  0.54127300  0.71756000  0.07718200  1
  O  O4  1  0.34099300  0.33463000  0.94809400  1
  O  O5  1  0.65900700  0.66537000  0.44809400  1
  O  O6  1  0.15900700  0.33463000  0.44809400  1
  O  O7  1  0.84099300  0.66537000  0.94809400  1
  O  O8  1  0.30431100  0.78714300  0.79209400  1
  O  O9  1  0.69568900  0.21285700  0.29209400  1
  O  O10  1  0.19568900  0.78714300  0.29209400  1
  O  O11  1  0.80431100  0.21285700  0.79209400  1
  O  O12  1  0.08459500  0.92463200  0.96590000  1
  O  O13  1  0.91540500  0.07536800  0.46590000  1
  O  O14  1  0.41540500  0.92463200  0.46590000  1
  O  O15  1  0.58459500  0.07536800  0.96590000  1
  O  O16  1  0.15692600  0.08089000  0.70839500  1
  O  O17  1  0.84307400  0.91911000  0.20839500  1
  O  O18  1  0.34307400  0.08089000  0.20839500  1
  O  O19  1  0.65692600  0.91911000  0.70839500  1
  O  O20  1  0.16528700  0.56683000  0.05868800  1
  O  O21  1  0.83471300  0.43317000  0.55868800  1
  O  O22  1  0.33471300  0.56683000  0.55868800  1
  O  O23  1  0.66528700  0.43317000  0.05868800  1
  O  O24  1  0.09271600  0.42318800  0.80062200  1
  O  O25  1  0.90728400  0.57681200  0.30062200  1
  O  O26  1  0.40728400  0.42318800  0.30062200  1
  O  O27  1  0.59271600  0.57681200  0.80062200  1
loop_
_geom_bond_atom_site_label_1
_geom_bond_atom_site_label_2
_geom_bond_distance
_geom_bond_site_symmetry_2
Na0 O24 2.313448 1_555
Na0 O1 2.396365 1_455
Na0 O6 2.413153 1_555
Na0 O22 2.433797 1_555
Na0 O21 2.603689 1_455
Na1 O25 2.313448 1_555
Na1 O0 2.396365 1_655
Na1 O7 2.413153 1_554
Na1 O23 2.433797 1_555
Na1 O20 2.603689 1_655
Na2 O26 2.313448 1_555
Na2 O3 2.396365 1_555
Na2 O4 2.413153 1_554
Na2 O20 2.433797 1_555
Na2 O23 2.603689 1_555
Na3 O27 2.313448 1_555
Na3 O2 2.396365 1_555
Na3 O5 2.413153 1_555
Na3 O21 2.433797 1_555
Na3 O22 2.603689 1_555
Na4 O16 2.328061 1_555
Na4 O24 2.334974 1_555
Na4 O2 2.362767 1_555
Na4 O4 2.402385 1_555
Na5 O17 2.328061 1_555
Na5 O25 2.334974 1_555
Na5 O3 2.362767 1_555
Na5 O5 2.402385 1_555
Na6 O18 2.328061 1_555
Na6 O26 2.334974 1_555
Na6 O0 2.362767 1_555
Na6 O6 2.402385 1_555
Na7 O19 2.328061 1_555
Na7 O27 2.334974 1_555
Na7 O1 2.362767 1_555
Na7 O7 2.402385 1_555
Na8 O7 2.340167 1_455
Na8 O20 2.445371 1_556
Na8 O24 2.525030 1_555
Na8 O8 2.670912 1_555
Na8 O12 2.769708 1_555
Na9 O6 2.340167 1_655
Na9 O21 2.445371 1_555
Na9 O25 2.525030 1_555
Na9 O9 2.670912 1_555
Na9 O13 2.769708 1_555
Na10 O5 2.340167 1_555
Na10 O22 2.445371 1_555
Na10 O26 2.525030 1_555
Na10 O10 2.670912 1_555
Na10 O14 2.769708 1_555
Na11 O4 2.340167 1_555
Na11 O23 2.445371 1_556
Na11 O27 2.525030 1_555
Na11 O11 2.670912 1_555
Na11 O15 2.769708 1_555
Na12 O11 2.334640 1_455
Na12 O0 2.343611 1_556
Na12 O16 2.369465 1_555
Na12 O12 2.558435 1_545
Na12 O24 2.844579 1_555
Na13 O10 2.334640 1_655
Na13 O1 2.343611 1_555
Na13 O17 2.369465 1_555
Na13 O13 2.558435 1_565
Na13 O25 2.844579 1_555
Na14 O9 2.334640 1_555
Na14 O2 2.343611 1_555
Na14 O18 2.369465 1_555
Na14 O14 2.558435 1_545
Na14 O26 2.844579 1_555
Na15 O8 2.334640 1_555
Na15 O3 2.343611 1_556
Na15 O19 2.369465 1_555
Na15 O15 2.558435 1_565
Na15 O27 2.844579 1_555
Na16 O10 2.307189 1_555
Na16 O25 2.365961 1_455
Na16 O20 2.429166 1_555
Na16 O6 2.732460 1_555
Na16 O26 2.789872 1_555
Na17 O11 2.307189 1_555
Na17 O24 2.365961 1_655
Na17 O21 2.429166 1_555
Na17 O7 2.732460 1_555
Na17 O27 2.789872 1_555
Na18 O8 2.307189 1_555
Na18 O27 2.365961 1_555
Na18 O22 2.429166 1_555
Na18 O4 2.732460 1_555
Na18 O24 2.789872 1_555
Na19 O9 2.307189 1_555
Na19 O26 2.365961 1_555
Na19 O23 2.429166 1_555
Na19 O5 2.732460 1_555
Na19 O25 2.789872 1_555
Na20 O22 2.373985 1_555
Na20 O1 2.522353 1_455
Na20 O8 2.572598 1_555
Na20 O14 2.615635 1_555
Na20 O10 2.737689 1_555
Na21 O23 2.373985 1_555
Na21 O0 2.522353 1_655
Na21 O9 2.572598 1_555
Na21 O15 2.615635 1_554
Na21 O11 2.737689 1_554
Na22 O20 2.373985 1_555
Na22 O3 2.522353 1_555
Na22 O10 2.572598 1_555
Na22 O12 2.615635 1_554
Na22 O8 2.737689 1_554
Na23 O21 2.373985 1_555
Na23 O2 2.522353 1_555
Na23 O11 2.572598 1_555
Na23 O13 2.615635 1_555
Na23 O9 2.737689 1_555
Na24 O21 2.402784 1_555
Na24 O11 2.449739 1_555
Na24 O16 2.519463 1_655
Na24 O13 2.547848 1_555
Na24 O6 2.625709 1_655
Na24 O24 2.633773 1_655
Na25 O20 2.402784 1_555
Na25 O10 2.449739 1_555
Na25 O17 2.519463 1_455
Na25 O12 2.547848 1_554
Na25 O7 2.625709 1_454
Na25 O25 2.633773 1_455
Na26 O23 2.402784 1_555
Na26 O9 2.449739 1_555
Na26 O18 2.519463 1_555
Na26 O15 2.547848 1_554
Na26 O4 2.625709 1_554
Na26 O26 2.633773 1_555
Na27 O22 2.402784 1_555
Na27 O8 2.449739 1_555
Na27 O19 2.519463 1_555
Na27 O14 2.547848 1_555
Na27 O5 2.625709 1_555
Na27 O27 2.633773 1_555
Na28 O6 2.311196 1_555
Na28 O16 2.326426 1_555
Na28 O13 2.380477 1_455
Na29 O7 2.311196 1_555
Na29 O17 2.326426 1_556
Na29 O12 2.380477 1_655
Na30 O4 2.311196 1_555
Na30 O18 2.326426 1_556
Na30 O15 2.380477 1_555
Na31 O5 2.311196 1_555
Na31 O19 2.326426 1_555
Na31 O14 2.380477 1_555
Na32 O12 2.271663 1_544
Na32 O0 2.473873 1_555
Na32 O17 2.610340 1_445
Na32 O18 2.685871 1_555
Na33 O13 2.271663 1_565
Na33 O1 2.473873 1_555
Na33 O16 2.610340 1_665
Na33 O19 2.685871 1_555
Na34 O14 2.271663 1_545
Na34 O2 2.473873 1_555
Na34 O19 2.610340 1_545
Na34 O16 2.685871 1_555
Na35 O15 2.271663 1_564
Na35 O3 2.473873 1_555
Na35 O18 2.610340 1_565
Na35 O17 2.685871 1_555
Co0 O20 1.884123 1_556
Co0 O4 1.889922 1_555
Co0 O24 1.895344 1_555
Co0 O0 1.938693 1_556
Co1 O21 1.884123 1_555
Co1 O5 1.889922 1_555
Co1 O25 1.895344 1_555
Co1 O1 1.938693 1_555
Co2 O22 1.884123 1_555
Co2 O6 1.889922 1_555
Co2 O26 1.895344 1_555
Co2 O2 1.938693 1_555
Co3 O23 1.884123 1_556
Co3 O7 1.889922 1_555
Co3 O27 1.895344 1_555
Co3 O3 1.938693 1_556
Co4 O8 1.809561 1_555
Co4 O16 1.834417 1_565
Co4 O12 1.917522 1_555
Co5 O9 1.809561 1_555
Co5 O17 1.834417 1_545
Co5 O13 1.917522 1_555
Co6 O10 1.809561 1_555
Co6 O18 1.834417 1_565
Co6 O14 1.917522 1_555
Co7 O11 1.809561 1_555
Co7 O19 1.834417 1_545
Co7 O15 1.917522 1_555
