# generated using pymatgen
data_Li3Sn2(PO4)3
_symmetry_space_group_name_H-M   'P 1'
_cell_length_a   10.17619453
_cell_length_b   10.17619453
_cell_length_c   10.17619505
_cell_angle_alpha   50.45723180
_cell_angle_beta   50.45723180
_cell_angle_gamma   50.45723098
_symmetry_Int_Tables_number   1
_chemical_formula_structural   Li3Sn2(PO4)3
_chemical_formula_sum   'Li6 Sn4 P6 O24'
_cell_volume   577.30553915
_cell_formula_units_Z   2
loop_
 _symmetry_equiv_pos_site_id
 _symmetry_equiv_pos_as_xyz
  1  'x, y, z'
loop_
 _atom_site_type_symbol
 _atom_site_label
 _atom_site_symmetry_multiplicity
 _atom_site_fract_x
 _atom_site_fract_y
 _atom_site_fract_z
 _atom_site_occupancy
  Li  Li0  1  0.24518800  0.67057400  0.94279500  1
  Li  Li1  1  0.32942600  0.05720500  0.75481200  1
  Li  Li2  1  0.94279500  0.24518800  0.67057400  1
  Li  Li3  1  0.75481200  0.32942600  0.05720500  1
  Li  Li4  1  0.05720500  0.75481200  0.32942600  1
  Li  Li5  1  0.67057400  0.94279500  0.24518800  1
  Sn  Sn0  1  0.65747700  0.65747700  0.65747700  1
  Sn  Sn1  1  0.83703000  0.83703000  0.83703000  1
  Sn  Sn2  1  0.16297000  0.16297000  0.16297000  1
  Sn  Sn3  1  0.34252300  0.34252300  0.34252300  1
  P  P0  1  0.04733200  0.45135400  0.72148400  1
  P  P1  1  0.27851600  0.95266800  0.54864600  1
  P  P2  1  0.95266800  0.54864600  0.27851600  1
  P  P3  1  0.72148400  0.04733200  0.45135400  1
  P  P4  1  0.45135400  0.72148400  0.04733200  1
  P  P5  1  0.54864600  0.27851600  0.95266800  1
  O  O0  1  0.14305500  0.25281300  0.83098800  1
  O  O1  1  0.46486100  0.78364700  0.84893900  1
  O  O2  1  0.98371100  0.40196800  0.24712100  1
  O  O3  1  0.74718700  0.16901200  0.85694500  1
  O  O4  1  0.49431400  0.84791300  0.50194400  1
  O  O5  1  0.59803200  0.75287900  0.01628900  1
  O  O6  1  0.49805600  0.50568600  0.15208700  1
  O  O7  1  0.85694500  0.74718700  0.16901200  1
  O  O8  1  0.21635300  0.15106100  0.53513900  1
  O  O9  1  0.16901200  0.85694500  0.74718700  1
  O  O10  1  0.84893900  0.46486100  0.78364700  1
  O  O11  1  0.25281300  0.83098800  0.14305500  1
  O  O12  1  0.15208700  0.49805600  0.50568600  1
  O  O13  1  0.78364700  0.84893900  0.46486100  1
  O  O14  1  0.40196800  0.24712100  0.98371100  1
  O  O15  1  0.50568600  0.15208700  0.49805600  1
  O  O16  1  0.50194400  0.49431400  0.84791300  1
  O  O17  1  0.53513900  0.21635300  0.15106100  1
  O  O18  1  0.15106100  0.53513900  0.21635300  1
  O  O19  1  0.24712100  0.98371100  0.40196800  1
  O  O20  1  0.75287900  0.01628900  0.59803200  1
  O  O21  1  0.84791300  0.50194400  0.49431400  1
  O  O22  1  0.83098800  0.14305500  0.25281300  1
  O  O23  1  0.01628900  0.59803200  0.75287900  1
loop_
_geom_bond_atom_site_label_1
_geom_bond_atom_site_label_2
_geom_bond_distance
_geom_bond_site_symmetry_2
Li0 O9 1.856314 1_555
Li0 O18 1.991700 1_556
Li0 O16 2.000449 1_555
Li0 O1 2.527977 1_555
Li1 O0 1.856314 1_555
Li1 O1 1.991700 1_545
Li1 O15 2.000449 1_555
Li1 O8 2.527977 1_555
Li2 O3 1.856314 1_555
Li2 O8 1.991700 1_655
Li2 O21 2.000449 1_555
Li2 O10 2.527977 1_555
Li3 O22 1.856314 1_555
Li3 O10 1.991700 1_554
Li3 O6 2.000449 1_555
Li3 O17 2.527977 1_555
Li4 O11 1.856314 1_555
Li4 O13 1.991700 1_455
Li4 O12 2.000449 1_555
Li4 O18 2.527977 1_555
Li5 O7 1.856314 1_555
Li5 O17 1.991700 1_565
Li5 O4 2.000449 1_555
Li5 O13 2.527977 1_555
O0 P0 1.510651 1_555
O1 P4 1.620546 1_556
O1 Sn0 2.098721 1_555
O2 P2 1.519239 1_555
O2 Sn2 2.233774 1_655
O3 P5 1.510651 1_555
O4 P1 1.587482 1_555
O4 Sn0 2.088303 1_555
O5 P4 1.519239 1_555
O5 Sn1 2.233774 1_554
O6 P4 1.587482 1_555
O6 Sn3 2.088303 1_555
O7 P2 1.510651 1_555
O8 P1 1.620546 1_545
O8 Sn3 2.098721 1_555
O9 P1 1.510651 1_555
O10 P0 1.620546 1_655
O10 Sn0 2.098721 1_555
O11 P4 1.510651 1_555
O12 P0 1.587482 1_555
O12 Sn3 2.088303 1_555
O13 P3 1.620546 1_565
O13 Sn0 2.098721 1_555
O14 P5 1.519239 1_555
O14 Sn2 2.233774 1_556
O15 P3 1.587482 1_555
O15 Sn3 2.088303 1_555
O16 P5 1.587482 1_555
O16 Sn0 2.088303 1_555
O17 P5 1.620546 1_554
O17 Sn3 2.098721 1_555
O18 P2 1.620546 1_455
O18 Sn3 2.098721 1_555
O19 P1 1.519239 1_555
O19 Sn2 2.233774 1_565
O20 P3 1.519239 1_555
O20 Sn1 2.233774 1_545
O21 P2 1.587482 1_555
O21 Sn0 2.088303 1_555
O22 P3 1.510651 1_555
O23 P0 1.519239 1_555
O23 Sn1 2.233774 1_455
