# generated using pymatgen
data_Ba2MnNiClF7
_symmetry_space_group_name_H-M   'P 1'
_cell_length_a   5.91770400
_cell_length_b   7.84473900
_cell_length_c   9.06925783
_cell_angle_alpha   73.91406505
_cell_angle_beta   90.00000000
_cell_angle_gamma   90.00000000
_symmetry_Int_Tables_number   1
_chemical_formula_structural   Ba2MnNiClF7
_chemical_formula_sum   'Ba4 Mn2 Ni2 Cl2 F14'
_cell_volume   404.53659534
_cell_formula_units_Z   2
loop_
 _symmetry_equiv_pos_site_id
 _symmetry_equiv_pos_as_xyz
  1  'x, y, z'
loop_
 _atom_site_type_symbol
 _atom_site_label
 _atom_site_symmetry_multiplicity
 _atom_site_fract_x
 _atom_site_fract_y
 _atom_site_fract_z
 _atom_site_occupancy
  Ba  Ba0  1  0.25000000  0.69137100  0.07407200  1
  Ba  Ba1  1  0.75000000  0.30862900  0.92592800  1
  Ba  Ba2  1  0.75000000  0.33402900  0.41154200  1
  Ba  Ba3  1  0.25000000  0.66597100  0.58845800  1
  Mn  Mn0  1  0.25000000  0.16938700  0.73421200  1
  Mn  Mn1  1  0.75000000  0.83061300  0.26578800  1
  Ni  Ni0  1  0.75000000  0.81480600  0.82943300  1
  Ni  Ni1  1  0.25000000  0.18519400  0.17056700  1
  Cl  Cl0  1  0.25000000  0.11567700  0.45937800  1
  Cl  Cl1  1  0.75000000  0.88432300  0.54062200  1
  F  F0  1  0.00182600  0.63408900  0.34676900  1
  F  F1  1  0.50643200  0.99161200  0.83350700  1
  F  F2  1  0.49202800  0.36805400  0.16120000  1
  F  F3  1  0.99202800  0.63194600  0.83880000  1
  F  F4  1  0.99356800  0.99161200  0.83350700  1
  F  F5  1  0.50797200  0.63194600  0.83880000  1
  F  F6  1  0.49356800  0.00838800  0.16649300  1
  F  F7  1  0.49817400  0.63408900  0.34676900  1
  F  F8  1  0.00643200  0.00838800  0.16649300  1
  F  F9  1  0.75000000  0.73904500  0.06288000  1
  F  F10  1  0.50182600  0.36591100  0.65323100  1
  F  F11  1  0.99817400  0.36591100  0.65323100  1
  F  F12  1  0.25000000  0.26095500  0.93712000  1
  F  F13  1  0.00797200  0.36805400  0.16120000  1
loop_
_geom_bond_atom_site_label_1
_geom_bond_atom_site_label_2
_geom_bond_distance
_geom_bond_site_symmetry_2
Ba0 F5 2.766208 1_554
Ba0 F3 2.766208 1_454
Ba0 F7 2.803467 1_555
Ba0 F0 2.803467 1_555
Ba0 F2 2.828093 1_555
Ba0 F13 2.828093 1_555
Ba0 F9 2.980594 1_455
Ba0 F9 2.980594 1_555
Ba0 F4 3.124522 1_454
Ba0 F1 3.124522 1_554
Ba0 F6 3.181192 1_565
Ba0 F8 3.181192 1_565
Ba1 F13 2.766208 1_656
Ba1 F2 2.766208 1_556
Ba1 F10 2.803467 1_555
Ba1 F11 2.803467 1_555
Ba1 F3 2.828093 1_555
Ba1 F5 2.828093 1_555
Ba1 F12 2.980594 1_655
Ba1 F12 2.980594 1_555
Ba1 F8 3.124522 1_656
Ba1 F6 3.124522 1_556
Ba1 F1 3.181192 1_545
Ba1 F4 3.181192 1_545
Ba2 F13 2.687140 1_655
Ba2 F2 2.687140 1_555
Ba2 F10 2.706991 1_555
Ba2 F11 2.706991 1_555
Ba2 F0 2.709320 1_655
Ba2 F7 2.709320 1_555
Ba2 Cl0 3.386043 1_655
Ba2 Cl0 3.386043 1_555
Ba2 Cl1 3.395202 1_545
Ba3 F5 2.687140 1_555
Ba3 F3 2.687140 1_455
Ba3 F7 2.706991 1_555
Ba3 F0 2.706991 1_555
Ba3 F11 2.709320 1_455
Ba3 F10 2.709320 1_555
Ba3 Cl1 3.386043 1_555
Ba3 Cl1 3.386043 1_455
Ba3 Cl0 3.395202 1_565
Cl0 Ni1 2.523206 1_555
Cl0 Mn0 2.640505 1_555
Cl1 Ni0 2.523206 1_555
Cl1 Mn1 2.640505 1_555
F0 Mn1 2.123561 1_455
F1 Ni0 2.007748 1_555
F1 Mn0 2.088703 1_565
F2 Ni1 2.012159 1_555
F3 Ni0 2.012159 1_555
F4 Ni0 2.007748 1_555
F4 Mn0 2.088703 1_665
F5 Ni0 2.012159 1_555
F6 Ni1 2.007748 1_555
F6 Mn1 2.088703 1_545
F7 Mn1 2.123561 1_555
F8 Ni1 2.007748 1_555
F8 Mn1 2.088703 1_445
F9 Ni0 2.034312 1_554
F9 Mn1 2.152894 1_555
F10 Mn0 2.123561 1_555
F11 Mn0 2.123561 1_655
F12 Ni1 2.034312 1_556
F12 Mn0 2.152894 1_555
F13 Ni1 2.012159 1_555
