# generated using pymatgen
data_In3SnI5
_symmetry_space_group_name_H-M   'P 1'
_cell_length_a   9.02561907
_cell_length_b   8.99364501
_cell_length_c   19.06540078
_cell_angle_alpha   66.52597737
_cell_angle_beta   90.00000000
_cell_angle_gamma   90.00000000
_symmetry_Int_Tables_number   1
_chemical_formula_structural   In3SnI5
_chemical_formula_sum   'In12 Sn4 I20'
_cell_volume   1419.52168290
_cell_formula_units_Z   4
loop_
 _symmetry_equiv_pos_site_id
 _symmetry_equiv_pos_as_xyz
  1  'x, y, z'
loop_
 _atom_site_type_symbol
 _atom_site_label
 _atom_site_symmetry_multiplicity
 _atom_site_fract_x
 _atom_site_fract_y
 _atom_site_fract_z
 _atom_site_occupancy
  In  In0  1  0.21868114  0.93107287  0.02449306  1
  In  In1  1  0.78131886  0.06892713  0.97550694  1
  In  In2  1  0.30914785  0.10840897  0.25436123  1
  In  In3  1  0.80914785  0.89159103  0.24563877  1
  In  In4  1  0.71868114  0.06892713  0.47550694  1
  In  In5  1  0.46598103  0.39400274  0.74950923  1
  In  In6  1  0.69085215  0.89159103  0.74563877  1
  In  In7  1  0.03401897  0.39400274  0.24950923  1
  In  In8  1  0.19085215  0.10840897  0.75436123  1
  In  In9  1  0.53401897  0.60599726  0.25049077  1
  In  In10  1  0.96598103  0.60599726  0.75049077  1
  In  In11  1  0.28131886  0.93107287  0.52449306  1
  Sn  Sn0  1  0.67627447  0.39120520  0.08686827  1
  Sn  Sn1  1  0.32372553  0.60879480  0.91313173  1
  Sn  Sn2  1  0.82372553  0.39120520  0.58686827  1
  Sn  Sn3  1  0.17627447  0.60879480  0.41313173  1
  I  I0  1  0.66727263  0.23881855  0.25976857  1
  I  I1  1  0.02964283  0.79893275  0.89479308  1
  I  I2  1  0.66663298  0.68086230  0.61364125  1
  I  I3  1  0.64923425  0.46384739  0.89246580  1
  I  I4  1  0.85076575  0.46384739  0.39246580  1
  I  I5  1  0.98750921  0.06180430  0.60214312  1
  I  I6  1  0.33272737  0.76118145  0.74023143  1
  I  I7  1  0.16663298  0.31913770  0.88635875  1
  I  I8  1  0.35076575  0.53615261  0.10753420  1
  I  I9  1  0.16727263  0.76118145  0.24023143  1
  I  I10  1  0.51249079  0.06180430  0.10214312  1
  I  I11  1  0.14923425  0.53615261  0.60753420  1
  I  I12  1  0.48750921  0.93819570  0.89785688  1
  I  I13  1  0.83272737  0.23881855  0.75976857  1
  I  I14  1  0.47035717  0.79893275  0.39479308  1
  I  I15  1  0.97035717  0.20106725  0.10520692  1
  I  I16  1  0.33336702  0.31913770  0.38635875  1
  I  I17  1  0.01249079  0.93819570  0.39785688  1
  I  I18  1  0.52964283  0.20106725  0.60520692  1
  I  I19  1  0.83336702  0.68086230  0.11364125  1
loop_
_geom_bond_atom_site_label_1
_geom_bond_atom_site_label_2
_geom_bond_distance
_geom_bond_site_symmetry_2
I0 Sn0 3.025242 1_555
I0 In9 3.452164 1_555
I0 In2 3.454027 1_555
I0 In3 3.483479 1_545
I0 In7 3.567285 1_655
I1 Sn1 3.100861 1_555
I1 In8 3.331000 1_565
I1 In0 3.574807 1_556
I2 Sn2 3.180664 1_555
I2 In5 3.364770 1_555
I2 In4 3.466237 1_565
I3 Sn1 3.300784 1_555
I3 In5 3.452917 1_555
I3 In1 3.473188 1_555
I3 Sn0 3.506341 1_556
I4 Sn3 3.300784 1_655
I4 In7 3.452917 1_655
I4 In4 3.473188 1_555
I4 Sn2 3.506341 1_555
I5 Sn2 3.218571 1_555
I5 In4 3.405465 1_555
I5 In11 3.463073 1_645
I6 Sn1 3.025242 1_555
I6 In5 3.452164 1_555
I6 In6 3.454027 1_555
I6 In8 3.483479 1_565
I6 In10 3.567285 1_455
I7 Sn1 3.180664 1_555
I7 In10 3.364770 1_455
I7 In0 3.466237 1_546
I8 Sn0 3.300784 1_555
I8 In9 3.452917 1_555
I8 In0 3.473188 1_555
I8 Sn1 3.506341 1_554
I9 Sn3 3.025242 1_555
I9 In7 3.452164 1_555
I9 In3 3.454027 1_455
I9 In2 3.483479 1_565
I9 In9 3.567285 1_555
I10 Sn0 3.218571 1_555
I10 In1 3.405465 1_554
I10 In0 3.463073 1_545
I11 Sn2 3.300784 1_455
I11 In10 3.452917 1_455
I11 In11 3.473188 1_555
I11 Sn3 3.506341 1_555
I12 Sn1 3.218571 1_555
I12 In0 3.405465 1_556
I12 In1 3.463073 1_565
I13 Sn2 3.025242 1_555
I13 In10 3.452164 1_555
I13 In8 3.454027 1_655
I13 In6 3.483479 1_545
I13 In5 3.567285 1_555
I14 Sn3 3.100861 1_555
I14 In2 3.331000 1_565
I14 In11 3.574807 1_555
I15 Sn0 3.100861 1_555
I15 In3 3.331000 1_545
I15 In1 3.574807 1_554
I16 Sn3 3.180664 1_555
I16 In9 3.364770 1_555
I16 In11 3.466237 1_545
I17 Sn3 3.218571 1_555
I17 In11 3.405465 1_555
I17 In4 3.463073 1_465
I18 Sn2 3.100861 1_555
I18 In6 3.331000 1_545
I18 In4 3.574807 1_555
I19 Sn0 3.180664 1_555
I19 In7 3.364770 1_655
I19 In1 3.466237 1_564
