# generated using pymatgen
data_NdGa3(BO3)4
_symmetry_space_group_name_H-M   'P 1'
_cell_length_a   6.09527750
_cell_length_b   6.09527750
_cell_length_c   6.09527799
_cell_angle_alpha   103.84312179
_cell_angle_beta   103.84312179
_cell_angle_gamma   103.84311282
_symmetry_Int_Tables_number   1
_chemical_formula_structural   NdGa3(BO3)4
_chemical_formula_sum   'Nd1 Ga3 B4 O12'
_cell_volume   202.65611002
_cell_formula_units_Z   1
loop_
 _symmetry_equiv_pos_site_id
 _symmetry_equiv_pos_as_xyz
  1  'x, y, z'
loop_
 _atom_site_type_symbol
 _atom_site_label
 _atom_site_symmetry_multiplicity
 _atom_site_fract_x
 _atom_site_fract_y
 _atom_site_fract_z
 _atom_site_occupancy
  Nd  Nd0  1  0.00000000  0.00000000  0.00000000  1
  Ga  Ga0  1  0.00000000  0.44846500  0.55153500  1
  Ga  Ga1  1  0.55153500  0.00000000  0.44846500  1
  Ga  Ga2  1  0.44846500  0.55153500  0.00000000  1
  B  B0  1  0.50000000  0.05529800  0.94470200  1
  B  B1  1  0.50000000  0.50000000  0.50000000  1
  B  B2  1  0.94470200  0.50000000  0.05529800  1
  B  B3  1  0.05529800  0.94470200  0.50000000  1
  O  O0  1  0.78584400  0.62591100  0.02841900  1
  O  O1  1  0.09014100  0.50000000  0.90985900  1
  O  O2  1  0.90985900  0.09014100  0.50000000  1
  O  O3  1  0.50000000  0.90985900  0.09014100  1
  O  O4  1  0.37408900  0.21415600  0.97158100  1
  O  O5  1  0.97158100  0.37408900  0.21415600  1
  O  O6  1  0.62591100  0.02841900  0.78584400  1
  O  O7  1  0.50000000  0.64517700  0.35482300  1
  O  O8  1  0.35482300  0.50000000  0.64517700  1
  O  O9  1  0.64517700  0.35482300  0.50000000  1
  O  O10  1  0.21415600  0.97158100  0.37408900  1
  O  O11  1  0.02841900  0.78584400  0.62591100  1
loop_
_geom_bond_atom_site_label_1
_geom_bond_atom_site_label_2
_geom_bond_distance
_geom_bond_site_symmetry_2
Nd0 O6 2.409572 1_454
Nd0 O5 2.409572 1_455
Nd0 O11 2.409572 1_544
Nd0 O10 2.409572 1_545
Nd0 O0 2.409572 1_445
Nd0 O4 2.409572 1_554
Ga0 O11 1.951981 1_555
Ga0 O5 1.951981 1_455
Ga0 O8 2.024923 1_555
Ga0 O9 2.024923 1_455
Ga0 O2 2.045885 1_455
Ga0 O1 2.045885 1_555
Ga1 O10 1.951981 1_545
Ga1 O6 1.951981 1_555
Ga1 O7 2.024923 1_545
Ga1 O9 2.024923 1_555
Ga1 O2 2.045885 1_555
Ga1 O3 2.045885 1_545
Ga2 O0 1.951981 1_555
Ga2 O4 1.951981 1_554
Ga2 O7 2.024924 1_555
Ga2 O8 2.024924 1_554
Ga2 O1 2.045885 1_554
Ga2 O3 2.045885 1_555
B0 O4 1.375963 1_555
B0 O6 1.375963 1_555
B0 O3 1.395633 1_546
B1 O9 1.393119 1_555
B1 O7 1.393119 1_555
B1 O8 1.393119 1_555
B2 O0 1.375963 1_555
B2 O5 1.375963 1_555
B2 O1 1.395633 1_654
B3 O10 1.375963 1_555
B3 O11 1.375963 1_555
B3 O2 1.395633 1_465
