# generated using pymatgen
data_Y2(MoO4)3
_symmetry_space_group_name_H-M   'P 1'
_cell_length_a   10.01653233
_cell_length_b   10.09773584
_cell_length_c   13.99166688
_cell_angle_alpha   90.00000000
_cell_angle_beta   90.00000000
_cell_angle_gamma   90.00000000
_symmetry_Int_Tables_number   1
_chemical_formula_structural   Y2(MoO4)3
_chemical_formula_sum   'Y8 Mo12 O48'
_cell_volume   1415.17731745
_cell_formula_units_Z   4
loop_
 _symmetry_equiv_pos_site_id
 _symmetry_equiv_pos_as_xyz
  1  'x, y, z'
loop_
 _atom_site_type_symbol
 _atom_site_label
 _atom_site_symmetry_multiplicity
 _atom_site_fract_x
 _atom_site_fract_y
 _atom_site_fract_z
 _atom_site_occupancy
  Y  Y0  1  0.74919047  0.03247423  0.88157660  1
  Y  Y1  1  0.25080953  0.53247423  0.88157660  1
  Y  Y2  1  0.24919047  0.46752577  0.38157660  1
  Y  Y3  1  0.25080953  0.96752577  0.11842340  1
  Y  Y4  1  0.75080953  0.53247423  0.61842340  1
  Y  Y5  1  0.74919047  0.46752577  0.11842340  1
  Y  Y6  1  0.24919047  0.03247423  0.61842340  1
  Y  Y7  1  0.75080953  0.96752577  0.38157660  1
  Mo  Mo0  1  0.89139141  0.11395090  0.14287313  1
  Mo  Mo1  1  0.60860859  0.88604910  0.64287313  1
  Mo  Mo2  1  0.47291822  0.25000000  -0.00000000  1
  Mo  Mo3  1  0.10860859  0.61395090  0.14287313  1
  Mo  Mo4  1  0.60860859  0.61395090  0.35712687  1
  Mo  Mo5  1  0.39139141  0.38604910  0.64287313  1
  Mo  Mo6  1  0.02708178  0.75000000  0.50000000  1
  Mo  Mo7  1  0.97291822  0.25000000  0.50000000  1
  Mo  Mo8  1  0.52708178  0.75000000  -0.00000000  1
  Mo  Mo9  1  0.39139141  0.11395090  0.35712687  1
  Mo  Mo10  1  0.10860859  0.88604910  0.85712687  1
  Mo  Mo11  1  0.89139141  0.38604910  0.85712687  1
  O  O0  1  0.82169035  0.43160966  0.96767196  1
  O  O1  1  0.32169035  0.43160966  0.53232804  1
  O  O2  1  0.85932478  0.21691533  0.83662132  1
  O  O3  1  0.37173211  0.36266997  0.93699144  1
  O  O4  1  0.67830965  0.56839034  0.46767196  1
  O  O5  1  0.57505589  0.16437028  0.91830462  1
  O  O6  1  0.56508840  0.08726392  0.35970706  1
  O  O7  1  0.14067522  0.78308467  0.16337868  1
  O  O8  1  0.68062107  0.51739141  0.26569303  1
  O  O9  1  0.87173211  0.36266997  0.56300856  1
  O  O10  1  0.17830965  0.56839034  0.03232804  1
  O  O11  1  0.87173211  0.13733003  0.43699144  1
  O  O12  1  0.31937893  0.01739141  0.26569303  1
  O  O13  1  0.31937893  0.48260859  0.73430697  1
  O  O14  1  0.92494411  0.83562972  0.41830462  1
  O  O15  1  0.64067522  0.71691533  0.66337868  1
  O  O16  1  0.12826789  0.86266997  0.56300856  1
  O  O17  1  0.35932478  0.28308467  0.33662132  1
  O  O18  1  0.12826789  0.63733003  0.43699144  1
  O  O19  1  0.43491160  0.58726392  0.35970706  1
  O  O20  1  0.37173211  0.13733003  0.06300856  1
  O  O21  1  0.93491160  0.91273608  0.85970706  1
  O  O22  1  0.92494411  0.66437028  0.58169538  1
  O  O23  1  0.42494411  0.66437028  0.91830462  1
  O  O24  1  0.43491160  0.91273608  0.64029294  1
  O  O25  1  0.32169035  0.06839034  0.46767196  1
  O  O26  1  0.85932478  0.28308467  0.16337868  1
  O  O27  1  0.35932478  0.21691533  0.66337868  1
  O  O28  1  0.81937893  0.01739141  0.23430697  1
  O  O29  1  0.17830965  0.93160966  0.96767196  1
  O  O30  1  0.81937893  0.48260859  0.76569303  1
  O  O31  1  0.06508840  0.08726392  0.14029294  1
  O  O32  1  0.14067522  0.71691533  0.83662132  1
  O  O33  1  0.64067522  0.78308467  0.33662132  1
  O  O34  1  0.62826789  0.63733003  0.06300856  1
  O  O35  1  0.82169035  0.06839034  0.03232804  1
  O  O36  1  0.42494411  0.83562972  0.08169538  1
  O  O37  1  0.56508840  0.41273608  0.64029294  1
  O  O38  1  0.67830965  0.93160966  0.53232804  1
  O  O39  1  0.18062107  0.51739141  0.23430697  1
  O  O40  1  0.93491160  0.58726392  0.14029294  1
  O  O41  1  0.68062107  0.98260859  0.73430697  1
  O  O42  1  0.62826789  0.86266997  0.93699144  1
  O  O43  1  0.07505589  0.33562972  0.41830462  1
  O  O44  1  0.18062107  0.98260859  0.76569303  1
  O  O45  1  0.06508840  0.41273608  0.85970706  1
  O  O46  1  0.07505589  0.16437028  0.58169538  1
  O  O47  1  0.57505589  0.33562972  0.08169538  1
loop_
_geom_bond_atom_site_label_1
_geom_bond_atom_site_label_2
_geom_bond_distance
_geom_bond_site_symmetry_2
Mo0 O35 1.758237 1_555
Mo0 O31 1.760957 1_655
Mo0 O26 1.761334 1_555
Mo0 O28 1.762845 1_555
Mo1 O38 1.758237 1_555
Mo1 O24 1.760957 1_555
Mo1 O15 1.761334 1_555
Mo1 O41 1.762845 1_555
Mo2 O3 1.760355 1_554
Mo2 O20 1.760355 1_555
Mo2 O5 1.760933 1_554
Mo2 O47 1.760933 1_555
Mo3 O10 1.758237 1_555
Mo3 O40 1.760957 1_455
Mo3 O7 1.761334 1_555
Mo3 O39 1.762845 1_555
Mo4 O4 1.758237 1_555
Mo4 O19 1.760957 1_555
Mo4 O33 1.761334 1_555
Mo4 O8 1.762845 1_555
Mo5 O1 1.758237 1_555
Mo5 O37 1.760957 1_555
Mo5 O27 1.761334 1_555
Mo5 O13 1.762845 1_555
Mo6 O16 1.760355 1_555
Mo6 O18 1.760355 1_555
Mo6 O22 1.760933 1_455
Mo6 O14 1.760933 1_455
Mo7 O9 1.760355 1_555
Mo7 O11 1.760355 1_555
Mo7 O46 1.760933 1_655
Mo7 O43 1.760933 1_655
Mo8 O42 1.760355 1_554
Mo8 O34 1.760355 1_555
Mo8 O23 1.760933 1_554
Mo8 O36 1.760933 1_555
Mo9 O25 1.758237 1_555
Mo9 O6 1.760957 1_555
Mo9 O17 1.761334 1_555
Mo9 O12 1.762845 1_555
Mo10 O29 1.758237 1_555
Mo10 O21 1.760957 1_455
Mo10 O32 1.761334 1_555
Mo10 O44 1.762845 1_555
Mo11 O0 1.758237 1_555
Mo11 O45 1.760957 1_655
Mo11 O2 1.761334 1_555
Mo11 O30 1.762845 1_555
O0 Y5 2.260064 1_556
O1 Y2 2.260064 1_555
O2 Y0 2.254170 1_555
O3 Y1 2.237904 1_555
O4 Y4 2.260064 1_555
O5 Y0 2.253936 1_555
O6 Y7 2.239679 1_545
O7 Y3 2.254170 1_555
O8 Y5 2.229603 1_555
O9 Y4 2.237904 1_555
O10 Y1 2.260064 1_554
O11 Y7 2.237904 1_545
O12 Y3 2.229603 1_545
O13 Y1 2.229603 1_555
O14 Y7 2.253936 1_555
O15 Y4 2.254170 1_555
O16 Y6 2.237904 1_565
O17 Y2 2.254170 1_555
O18 Y2 2.237904 1_555
O19 Y2 2.239679 1_555
O20 Y3 2.237904 1_545
O21 Y0 2.239679 1_565
O22 Y4 2.253936 1_555
O23 Y1 2.253936 1_555
O24 Y6 2.239679 1_565
O25 Y6 2.260064 1_555
O26 Y5 2.254170 1_555
O27 Y6 2.254170 1_555
O28 Y7 2.229603 1_545
O29 Y3 2.260064 1_556
O30 Y4 2.229603 1_555
O31 Y3 2.239679 1_545
O32 Y1 2.254170 1_555
O33 Y7 2.254170 1_555
O34 Y5 2.237904 1_555
O35 Y0 2.260064 1_554
O36 Y3 2.253936 1_555
O37 Y4 2.239679 1_555
O38 Y7 2.260064 1_555
O39 Y2 2.229603 1_555
O40 Y5 2.239679 1_555
O41 Y0 2.229603 1_565
O42 Y0 2.237904 1_565
O43 Y2 2.253936 1_555
O44 Y6 2.229603 1_565
O45 Y1 2.239679 1_555
O46 Y6 2.253936 1_555
O47 Y5 2.253936 1_555
