# generated using pymatgen
data_Y3CuSiS7
_symmetry_space_group_name_H-M   'P 1'
_cell_length_a   9.92602405
_cell_length_b   9.92602405
_cell_length_c   5.70726300
_cell_angle_alpha   90.00000000
_cell_angle_beta   90.00000000
_cell_angle_gamma   120.00000033
_symmetry_Int_Tables_number   1
_chemical_formula_structural   Y3CuSiS7
_chemical_formula_sum   'Y6 Cu2 Si2 S14'
_cell_volume   486.97779902
_cell_formula_units_Z   2
loop_
 _symmetry_equiv_pos_site_id
 _symmetry_equiv_pos_as_xyz
  1  'x, y, z'
loop_
 _atom_site_type_symbol
 _atom_site_label
 _atom_site_symmetry_multiplicity
 _atom_site_fract_x
 _atom_site_fract_y
 _atom_site_fract_z
 _atom_site_occupancy
  Y  Y0  1  0.12814400  0.35697500  0.74322800  1
  Y  Y1  1  0.87185600  0.64302500  0.24322800  1
  Y  Y2  1  0.22883100  0.87185600  0.74322800  1
  Y  Y3  1  0.35697500  0.22883100  0.24322800  1
  Y  Y4  1  0.77116900  0.12814400  0.24322800  1
  Y  Y5  1  0.64302500  0.77116900  0.74322800  1
  Cu  Cu0  1  0.00000000  0.00000000  0.70274800  1
  Cu  Cu1  1  0.00000000  0.00000000  0.20274800  1
  Si  Si0  1  0.66666700  0.33333300  0.83088100  1
  Si  Si1  1  0.33333300  0.66666700  0.33088100  1
  S  S0  1  0.25753400  0.16409700  0.71884600  1
  S  S1  1  0.41588400  0.52301600  0.48084800  1
  S  S2  1  0.33333300  0.66666700  0.96070600  1
  S  S3  1  0.16409700  0.90656200  0.21884600  1
  S  S4  1  0.47698400  0.89286800  0.48084800  1
  S  S5  1  0.58411600  0.47698400  0.98084800  1
  S  S6  1  0.52301600  0.10713200  0.98084800  1
  S  S7  1  0.83590300  0.09343800  0.71884600  1
  S  S8  1  0.90656200  0.74246600  0.71884600  1
  S  S9  1  0.66666700  0.33333300  0.46070600  1
  S  S10  1  0.89286800  0.41588400  0.98084800  1
  S  S11  1  0.09343800  0.25753400  0.21884600  1
  S  S12  1  0.10713200  0.58411600  0.48084800  1
  S  S13  1  0.74246600  0.83590300  0.21884600  1
loop_
_geom_bond_atom_site_label_1
_geom_bond_atom_site_label_2
_geom_bond_distance
_geom_bond_site_symmetry_2
Cu0 S8 2.243295 1_445
Cu0 S0 2.243297 1_555
Cu0 S7 2.243305 1_455
Cu1 S11 2.243295 1_555
Cu1 S13 2.243297 1_445
Cu1 S3 2.243305 1_545
S0 Y2 2.772845 1_545
S0 Y0 2.791609 1_555
S0 Y3 2.849789 1_555
S0 Y3 3.116036 1_556
S1 Si1 2.146044 1_555
S1 Y5 2.799894 1_555
S1 Y0 2.899809 1_555
S1 Y3 3.000087 1_555
S2 Si1 2.112686 1_556
S2 Y2 2.979498 1_555
S2 Y0 2.979505 1_555
S2 Y5 2.979506 1_555
S3 Y1 2.772841 1_455
S3 Y3 2.791617 1_565
S3 Y2 2.849787 1_554
S3 Y2 3.116034 1_555
S4 Si1 2.146037 1_555
S4 Y2 2.799894 1_555
S4 Y5 2.899809 1_555
S4 Y4 3.000087 1_565
S5 Si0 2.146044 1_555
S5 Y3 2.799894 1_556
S5 Y1 2.899809 1_556
S5 Y5 3.000087 1_555
S6 Si0 2.146037 1_555
S6 Y4 2.799894 1_556
S6 Y3 2.899809 1_556
S6 Y2 3.000087 1_545
S7 Y0 2.772841 1_655
S7 Y5 2.791617 1_545
S7 Y4 2.849787 1_555
S7 Y4 3.116034 1_556
S8 Y5 2.772835 1_555
S8 Y2 2.791618 1_655
S8 Y1 2.849790 1_555
S8 Y1 3.116037 1_556
S9 Si0 2.112686 1_555
S9 Y4 2.979498 1_555
S9 Y1 2.979505 1_555
S9 Y3 2.979506 1_555
S10 Si0 2.146035 1_555
S10 Y1 2.799894 1_556
S10 Y4 2.899809 1_556
S10 Y0 3.000087 1_655
S11 Y3 2.772835 1_555
S11 Y4 2.791618 1_455
S11 Y0 2.849790 1_554
S11 Y0 3.116037 1_555
S12 Si1 2.146035 1_555
S12 Y0 2.799894 1_555
S12 Y2 2.899809 1_555
S12 Y1 3.000087 1_455
S13 Y4 2.772845 1_565
S13 Y1 2.791609 1_555
S13 Y5 2.849789 1_554
S13 Y5 3.116036 1_555
