# generated using pymatgen
data_NaZnMoHO5
_symmetry_space_group_name_H-M   'P 1'
_cell_length_a   6.25979100
_cell_length_b   7.95020900
_cell_length_c   9.39838800
_cell_angle_alpha   90.00000000
_cell_angle_beta   90.00000000
_cell_angle_gamma   90.00000000
_symmetry_Int_Tables_number   1
_chemical_formula_structural   NaZnMoHO5
_chemical_formula_sum   'Na4 Zn4 Mo4 H4 O20'
_cell_volume   467.72625558
_cell_formula_units_Z   4
loop_
 _symmetry_equiv_pos_site_id
 _symmetry_equiv_pos_as_xyz
  1  'x, y, z'
loop_
 _atom_site_type_symbol
 _atom_site_label
 _atom_site_symmetry_multiplicity
 _atom_site_fract_x
 _atom_site_fract_y
 _atom_site_fract_z
 _atom_site_occupancy
  Na  Na0  1  0.75000000  0.35198400  0.69373400  1
  Na  Na1  1  0.25000000  0.64801600  0.30626600  1
  Na  Na2  1  0.75000000  0.85198400  0.80626600  1
  Na  Na3  1  0.25000000  0.14801600  0.19373400  1
  Zn  Zn0  1  0.50000000  0.50000000  0.00000000  1
  Zn  Zn1  1  0.00000000  0.50000000  0.00000000  1
  Zn  Zn2  1  0.00000000  0.00000000  0.50000000  1
  Zn  Zn3  1  0.50000000  0.00000000  0.50000000  1
  Mo  Mo0  1  0.25000000  0.11728800  0.83564400  1
  Mo  Mo1  1  0.75000000  0.88271200  0.16435600  1
  Mo  Mo2  1  0.25000000  0.61728800  0.66435600  1
  Mo  Mo3  1  0.75000000  0.38271200  0.33564400  1
  H  H0  1  0.75000000  0.75506200  0.51836200  1
  H  H1  1  0.25000000  0.24493800  0.48163800  1
  H  H2  1  0.75000000  0.25506200  0.98163800  1
  H  H3  1  0.25000000  0.74493800  0.01836200  1
  O  O0  1  0.01541800  0.10573400  0.72543700  1
  O  O1  1  0.51541800  0.89426600  0.27456300  1
  O  O2  1  0.48458200  0.60573400  0.77456300  1
  O  O3  1  0.98458200  0.39426600  0.22543700  1
  O  O4  1  0.98458200  0.89426600  0.27456300  1
  O  O5  1  0.48458200  0.10573400  0.72543700  1
  O  O6  1  0.51541800  0.39426600  0.22543700  1
  O  O7  1  0.01541800  0.60573400  0.77456300  1
  O  O8  1  0.25000000  0.44722800  0.54155400  1
  O  O9  1  0.75000000  0.55277200  0.45844600  1
  O  O10  1  0.25000000  0.94722800  0.95844600  1
  O  O11  1  0.75000000  0.05277200  0.04155400  1
  O  O12  1  0.75000000  0.86928600  0.56082900  1
  O  O13  1  0.25000000  0.13071400  0.43917100  1
  O  O14  1  0.75000000  0.36928600  0.93917100  1
  O  O15  1  0.25000000  0.63071400  0.06082900  1
  O  O16  1  0.25000000  0.30926100  0.94337600  1
  O  O17  1  0.75000000  0.69073900  0.05662400  1
  O  O18  1  0.25000000  0.80926100  0.55662400  1
  O  O19  1  0.75000000  0.19073900  0.44337600  1
loop_
_geom_bond_atom_site_label_1
_geom_bond_atom_site_label_2
_geom_bond_distance
_geom_bond_site_symmetry_2
Na0 O14 2.310810 1_555
Na0 O0 2.584951 1_655
Na0 O5 2.584951 1_555
Na0 O19 2.679511 1_555
Na0 O7 2.721636 1_655
Na0 O2 2.721636 1_555
Na0 O9 2.727300 1_555
Na1 O15 2.310810 1_555
Na1 O4 2.584951 1_455
Na1 O1 2.584951 1_555
Na1 O18 2.679511 1_555
Na1 O6 2.721636 1_555
Na1 O3 2.721636 1_455
Na1 O8 2.727300 1_555
Na2 O12 2.310810 1_555
Na2 O7 2.584951 1_655
Na2 O2 2.584951 1_555
Na2 O17 2.679511 1_556
Na2 O5 2.721636 1_565
Na2 O0 2.721636 1_665
Na2 O11 2.727300 1_566
Na3 O13 2.310810 1_555
Na3 O3 2.584951 1_455
Na3 O6 2.584951 1_555
Na3 O16 2.679511 1_554
Na3 O4 2.721636 1_445
Na3 O1 2.721636 1_545
Na3 O10 2.727300 1_544
Mo0 O10 1.777633 1_545
Mo0 O0 1.799320 1_555
Mo0 O5 1.799320 1_555
Mo0 O16 1.831539 1_555
Mo1 O11 1.777633 1_565
Mo1 O1 1.799320 1_555
Mo1 O4 1.799320 1_555
Mo1 O17 1.831539 1_555
Mo2 O8 1.777633 1_555
Mo2 O7 1.799320 1_555
Mo2 O2 1.799320 1_555
Mo2 O18 1.831539 1_555
Mo3 O9 1.777633 1_555
Mo3 O3 1.799320 1_555
Mo3 O6 1.799320 1_555
Mo3 O19 1.831539 1_555
H0 O12 0.991944 1_555
H0 O9 1.703983 1_555
H1 O13 0.991944 1_555
H1 O8 1.703983 1_555
H2 O14 0.991944 1_555
H2 O11 1.703983 1_556
H3 O15 0.991944 1_555
H3 O10 1.703983 1_554
O0 Zn2 2.281450 1_555
O1 Zn3 2.281450 1_565
O2 Zn0 2.281450 1_556
O3 Zn1 2.281450 1_655
O4 Zn2 2.281450 1_665
O5 Zn3 2.281450 1_555
O6 Zn0 2.281450 1_555
O7 Zn1 2.281450 1_556
O12 Zn3 1.963629 1_565
O12 Zn2 1.963629 1_665
O13 Zn2 1.963629 1_555
O13 Zn3 1.963629 1_555
O14 Zn0 1.963629 1_556
O14 Zn1 1.963629 1_656
O15 Zn0 1.963629 1_555
O15 Zn1 1.963629 1_555
O16 Zn0 2.243164 1_556
O16 Zn1 2.243164 1_556
O17 Zn0 2.243164 1_555
O17 Zn1 2.243164 1_655
O18 Zn3 2.243164 1_565
O18 Zn2 2.243164 1_565
O19 Zn2 2.243164 1_655
O19 Zn3 2.243164 1_555
