# generated using pymatgen
data_EuTa2O6
_symmetry_space_group_name_H-M   'P 1'
_cell_length_a   5.52687956
_cell_length_b   7.63430245
_cell_length_c   11.10367944
_cell_angle_alpha   90.00000000
_cell_angle_beta   90.00000000
_cell_angle_gamma   90.00000000
_symmetry_Int_Tables_number   1
_chemical_formula_structural   EuTa2O6
_chemical_formula_sum   'Eu4 Ta8 O24'
_cell_volume   468.50720865
_cell_formula_units_Z   4
loop_
 _symmetry_equiv_pos_site_id
 _symmetry_equiv_pos_as_xyz
  1  'x, y, z'
loop_
 _atom_site_type_symbol
 _atom_site_label
 _atom_site_symmetry_multiplicity
 _atom_site_fract_x
 _atom_site_fract_y
 _atom_site_fract_z
 _atom_site_occupancy
  Eu  Eu0  1  0.45748052  0.75000000  0.04252762  1
  Eu  Eu1  1  0.95748052  0.25000000  0.45747238  1
  Eu  Eu2  1  0.54251948  0.25000000  0.95747238  1
  Eu  Eu3  1  0.04251948  0.75000000  0.54252762  1
  Ta  Ta0  1  0.95961274  0.00382622  0.14167785  1
  Ta  Ta1  1  0.45961274  0.99617378  0.35832215  1
  Ta  Ta2  1  0.04038726  0.50382622  0.85832215  1
  Ta  Ta3  1  0.54038726  0.49617378  0.64167785  1
  Ta  Ta4  1  0.04038726  0.99617378  0.85832215  1
  Ta  Ta5  1  0.54038726  0.00382622  0.64167785  1
  Ta  Ta6  1  0.95961274  0.49617378  0.14167785  1
  Ta  Ta7  1  0.45961274  0.50382622  0.35832215  1
  O  O0  1  0.77742058  0.96245778  0.97613512  1
  O  O1  1  0.27742058  0.03754222  0.52386488  1
  O  O2  1  0.22257942  0.46245778  0.02386488  1
  O  O3  1  0.72257942  0.53754222  0.47613512  1
  O  O4  1  0.22257942  0.03754222  0.02386488  1
  O  O5  1  0.72257942  0.96245778  0.47613512  1
  O  O6  1  0.77742058  0.53754222  0.97613512  1
  O  O7  1  0.27742058  0.46245778  0.52386488  1
  O  O8  1  0.63344147  0.94777303  0.21231853  1
  O  O9  1  0.13344147  0.05222697  0.28768147  1
  O  O10  1  0.36655853  0.44777303  0.78768147  1
  O  O11  1  0.86655853  0.55222697  0.71231853  1
  O  O12  1  0.36655853  0.05222697  0.78768147  1
  O  O13  1  0.86655853  0.94777303  0.71231853  1
  O  O14  1  0.63344147  0.55222697  0.21231853  1
  O  O15  1  0.13344147  0.44777303  0.28768147  1
  O  O16  1  0.03868856  0.75000000  0.14593018  1
  O  O17  1  0.53868856  0.25000000  0.35406982  1
  O  O18  1  0.96131144  0.25000000  0.85406982  1
  O  O19  1  0.46131144  0.75000000  0.64593018  1
  O  O20  1  0.35538111  0.75000000  0.37327253  1
  O  O21  1  0.85538111  0.25000000  0.12672747  1
  O  O22  1  0.64461889  0.25000000  0.62672747  1
  O  O23  1  0.14461889  0.75000000  0.87327253  1
loop_
_geom_bond_atom_site_label_1
_geom_bond_atom_site_label_2
_geom_bond_distance
_geom_bond_site_symmetry_2
Eu0 O6 2.510184 1_554
Eu0 O0 2.510184 1_554
Eu0 O23 2.553806 1_554
Eu0 O4 2.558766 1_565
Eu0 O2 2.558766 1_555
Eu0 O16 2.583733 1_555
Eu0 O8 2.603811 1_555
Eu0 O14 2.603811 1_555
Eu1 O1 2.510184 1_655
Eu1 O7 2.510184 1_655
Eu1 O22 2.553806 1_555
Eu1 O3 2.558766 1_555
Eu1 O5 2.558766 1_545
Eu1 O17 2.583733 1_555
Eu1 O15 2.603811 1_655
Eu1 O9 2.603811 1_655
Eu2 O4 2.510184 1_556
Eu2 O2 2.510184 1_556
Eu2 O21 2.553806 1_556
Eu2 O6 2.558766 1_555
Eu2 O0 2.558766 1_545
Eu2 O18 2.583733 1_555
Eu2 O12 2.603811 1_555
Eu2 O10 2.603811 1_555
Eu3 O3 2.510184 1_455
Eu3 O5 2.510184 1_455
Eu3 O20 2.553806 1_555
Eu3 O1 2.558766 1_565
Eu3 O7 2.558766 1_555
Eu3 O19 2.583733 1_555
Eu3 O13 2.603811 1_455
Eu3 O11 2.603811 1_455
O0 Ta4 1.972272 1_655
O0 Ta0 2.119536 1_566
O1 Ta5 1.972272 1_555
O1 Ta1 2.119536 1_545
O2 Ta6 1.972272 1_455
O2 Ta2 2.119536 1_554
O3 Ta7 1.972272 1_555
O3 Ta3 2.119536 1_555
O4 Ta0 1.972272 1_455
O4 Ta4 2.119536 1_544
O5 Ta1 1.972272 1_555
O5 Ta5 2.119536 1_565
O6 Ta2 1.972272 1_655
O6 Ta6 2.119536 1_556
O7 Ta3 1.972272 1_555
O7 Ta7 2.119536 1_555
O8 Ta1 1.920353 1_555
O8 Ta0 2.011994 1_565
O9 Ta0 1.920353 1_455
O9 Ta1 2.011994 1_545
O10 Ta3 1.920353 1_555
O10 Ta2 2.011994 1_555
O11 Ta2 1.920353 1_655
O11 Ta3 2.011994 1_555
O12 Ta5 1.920353 1_555
O12 Ta4 2.011994 1_545
O13 Ta4 1.920353 1_655
O13 Ta5 2.011994 1_565
O14 Ta7 1.920353 1_555
O14 Ta6 2.011994 1_555
O15 Ta6 1.920353 1_455
O15 Ta7 2.011994 1_555
O16 Ta6 1.987021 1_455
O16 Ta0 1.987021 1_465
O17 Ta1 1.987021 1_545
O17 Ta7 1.987021 1_555
O18 Ta2 1.987021 1_655
O18 Ta4 1.987021 1_645
O19 Ta3 1.987021 1_555
O19 Ta5 1.987021 1_565
O20 Ta1 1.972672 1_555
O20 Ta7 1.972672 1_555
O21 Ta0 1.972672 1_555
O21 Ta6 1.972672 1_555
O22 Ta3 1.972672 1_555
O22 Ta5 1.972672 1_555
O23 Ta4 1.972672 1_555
O23 Ta2 1.972672 1_555
