# generated using pymatgen
data_Mo3Pt2N
_symmetry_space_group_name_H-M   'P 1'
_cell_length_a   6.85834023
_cell_length_b   6.85834023
_cell_length_c   6.85834023
_cell_angle_alpha   90.00000000
_cell_angle_beta   90.00000000
_cell_angle_gamma   90.00000000
_symmetry_Int_Tables_number   1
_chemical_formula_structural   Mo3Pt2N
_chemical_formula_sum   'Mo12 Pt8 N4'
_cell_volume   322.59458835
_cell_formula_units_Z   4
loop_
 _symmetry_equiv_pos_site_id
 _symmetry_equiv_pos_as_xyz
  1  'x, y, z'
loop_
 _atom_site_type_symbol
 _atom_site_label
 _atom_site_symmetry_multiplicity
 _atom_site_fract_x
 _atom_site_fract_y
 _atom_site_fract_z
 _atom_site_occupancy
  Mo  Mo0  1  0.62500000  0.70037906  0.95037906  1
  Mo  Mo1  1  0.45037906  0.87500000  0.29962094  1
  Mo  Mo2  1  0.70037906  0.95037906  0.62500000  1
  Mo  Mo3  1  0.54962094  0.37500000  0.20037906  1
  Mo  Mo4  1  0.37500000  0.20037906  0.54962094  1
  Mo  Mo5  1  0.20037906  0.54962094  0.37500000  1
  Mo  Mo6  1  0.87500000  0.29962094  0.45037906  1
  Mo  Mo7  1  0.04962094  0.12500000  0.79962094  1
  Mo  Mo8  1  0.29962094  0.45037906  0.87500000  1
  Mo  Mo9  1  0.12500000  0.79962094  0.04962094  1
  Mo  Mo10  1  0.79962094  0.04962094  0.12500000  1
  Mo  Mo11  1  0.95037906  0.62500000  0.70037906  1
  Pt  Pt0  1  0.19298436  0.19298436  0.19298436  1
  Pt  Pt1  1  0.30701564  0.80701564  0.69298436  1
  Pt  Pt2  1  0.44298436  0.05701564  0.94298436  1
  Pt  Pt3  1  0.80701564  0.69298436  0.30701564  1
  Pt  Pt4  1  0.69298436  0.30701564  0.80701564  1
  Pt  Pt5  1  0.55701564  0.55701564  0.55701564  1
  Pt  Pt6  1  0.05701564  0.94298436  0.44298436  1
  Pt  Pt7  1  0.94298436  0.44298436  0.05701564  1
  N  N0  1  0.37500000  0.62500000  0.12500000  1
  N  N1  1  0.87500000  0.87500000  0.87500000  1
  N  N2  1  0.12500000  0.37500000  0.62500000  1
  N  N3  1  0.62500000  0.12500000  0.37500000  1
loop_
_geom_bond_atom_site_label_1
_geom_bond_atom_site_label_2
_geom_bond_distance
_geom_bond_site_symmetry_2
Mo0 N1 2.154376 1_555
Mo0 N0 2.154376 1_556
Mo0 Pt3 2.746541 1_556
Mo0 Pt2 2.746541 1_565
Mo0 Pt7 2.899525 1_556
Mo0 Pt1 2.899525 1_555
Mo0 Pt4 2.909018 1_555
Mo0 Pt5 2.909018 1_555
Mo1 N3 2.154376 1_565
Mo1 N0 2.154376 1_555
Mo1 Pt2 2.746541 1_564
Mo1 Pt3 2.746541 1_555
Mo1 Pt5 2.899525 1_555
Mo1 Pt0 2.899525 1_565
Mo1 Pt1 2.909018 1_555
Mo1 Pt6 2.909018 1_555
Mo2 N1 2.154376 1_555
Mo2 N3 2.154376 1_565
Mo2 Pt4 2.746541 1_565
Mo2 Pt6 2.746541 1_655
Mo2 Pt2 2.899525 1_565
Mo2 Pt3 2.899525 1_555
Mo2 Pt5 2.909018 1_555
Mo2 Pt1 2.909018 1_555
Mo3 N0 2.154376 1_555
Mo3 N3 2.154376 1_555
Mo3 Pt0 2.746541 1_555
Mo3 Pt5 2.746541 1_555
Mo3 Pt3 2.899525 1_555
Mo3 Pt2 2.899525 1_554
Mo3 Pt4 2.909018 1_554
Mo3 Pt7 2.909018 1_555
Mo4 N3 2.154376 1_555
Mo4 N2 2.154376 1_555
Mo4 Pt0 2.746541 1_555
Mo4 Pt5 2.746541 1_555
Mo4 Pt6 2.899525 1_545
Mo4 Pt4 2.899525 1_555
Mo4 Pt1 2.909018 1_545
Mo4 Pt2 2.909018 1_555
Mo5 N2 2.154376 1_555
Mo5 N0 2.154376 1_555
Mo5 Pt0 2.746541 1_555
Mo5 Pt5 2.746541 1_555
Mo5 Pt7 2.899525 1_455
Mo5 Pt1 2.899525 1_555
Mo5 Pt3 2.909018 1_455
Mo5 Pt6 2.909018 1_555
Mo6 N3 2.154376 1_555
Mo6 N2 2.154376 1_655
Mo6 Pt6 2.746541 1_645
Mo6 Pt4 2.746541 1_555
Mo6 Pt5 2.899525 1_555
Mo6 Pt0 2.899525 1_655
Mo6 Pt3 2.909018 1_555
Mo6 Pt7 2.909018 1_555
Mo7 N2 2.154376 1_555
Mo7 N1 2.154376 1_445
Mo7 Pt6 2.746541 1_545
Mo7 Pt4 2.746541 1_455
Mo7 Pt1 2.899525 1_545
Mo7 Pt7 2.899525 1_456
Mo7 Pt2 2.909018 1_555
Mo7 Pt0 2.909018 1_556
Mo8 N2 2.154376 1_555
Mo8 N0 2.154376 1_556
Mo8 Pt7 2.746541 1_456
Mo8 Pt1 2.746541 1_555
Mo8 Pt5 2.899525 1_555
Mo8 Pt0 2.899525 1_556
Mo8 Pt4 2.909018 1_555
Mo8 Pt2 2.909018 1_555
Mo9 N0 2.154376 1_555
Mo9 N1 2.154376 1_454
Mo9 Pt7 2.746541 1_455
Mo9 Pt1 2.746541 1_554
Mo9 Pt3 2.899525 1_455
Mo9 Pt2 2.899525 1_564
Mo9 Pt0 2.909018 1_565
Mo9 Pt6 2.909018 1_555
Mo10 N3 2.154376 1_555
Mo10 N1 2.154376 1_544
Mo10 Pt2 2.746541 1_554
Mo10 Pt3 2.746541 1_545
Mo10 Pt4 2.899525 1_554
Mo10 Pt6 2.899525 1_645
Mo10 Pt7 2.909018 1_555
Mo10 Pt0 2.909018 1_655
Mo11 N1 2.154376 1_555
Mo11 N2 2.154376 1_655
Mo11 Pt1 2.746541 1_655
Mo11 Pt7 2.746541 1_556
Mo11 Pt6 2.899525 1_655
Mo11 Pt4 2.899525 1_555
Mo11 Pt5 2.909018 1_555
Mo11 Pt3 2.909018 1_555
Pt0 Pt7 2.597922 1_455
Pt0 Pt6 2.597922 1_545
Pt0 Pt2 2.597922 1_554
Pt1 Pt6 2.597922 1_555
Pt1 Pt2 2.597922 1_565
Pt1 Pt5 2.597922 1_555
Pt2 Pt4 2.597922 1_555
Pt3 Pt7 2.597922 1_555
Pt3 Pt6 2.597922 1_655
Pt3 Pt5 2.597922 1_555
Pt4 Pt7 2.597922 1_556
Pt4 Pt5 2.597922 1_555
