# generated using pymatgen
data_Cs4CuSi2O7
_symmetry_space_group_name_H-M   'P 1'
_cell_length_a   6.54342328
_cell_length_b   7.49832044
_cell_length_c   7.50948634
_cell_angle_alpha   106.58859913
_cell_angle_beta   110.29212271
_cell_angle_gamma   109.34964009
_symmetry_Int_Tables_number   1
_chemical_formula_structural   Cs4CuSi2O7
_chemical_formula_sum   'Cs4 Cu1 Si2 O7'
_cell_volume   290.77808369
_cell_formula_units_Z   1
loop_
 _symmetry_equiv_pos_site_id
 _symmetry_equiv_pos_as_xyz
  1  'x, y, z'
loop_
 _atom_site_type_symbol
 _atom_site_label
 _atom_site_symmetry_multiplicity
 _atom_site_fract_x
 _atom_site_fract_y
 _atom_site_fract_z
 _atom_site_occupancy
  Cs  Cs0  1  0.28640111  0.76525302  0.22660184  1
  Cs  Cs1  1  0.71359889  0.23474698  0.77339816  1
  Cs  Cs2  1  0.60279537  0.36939309  0.27453501  1
  Cs  Cs3  1  0.39720463  0.63060691  0.72546499  1
  Cu  Cu0  1  0.00000000  0.00000000  0.50000000  1
  Si  Si0  1  0.99071665  0.86355608  0.77734471  1
  Si  Si1  1  0.00928335  0.13644392  0.22265529  1
  O  O0  1  0.77103609  0.99246552  0.23994243  1
  O  O1  1  0.96164742  0.63932253  0.76468304  1
  O  O2  1  0.22896391  0.00753448  0.76005757  1
  O  O3  1  0.23728043  0.15469514  0.42576063  1
  O  O4  1  0.76271957  0.84530486  0.57423937  1
  O  O5  1  0.03835258  0.36067747  0.23531696  1
  O  O6  1  0.00000000  0.00000000  0.00000000  1
loop_
_geom_bond_atom_site_label_1
_geom_bond_atom_site_label_2
_geom_bond_distance
_geom_bond_site_symmetry_2
Cs0 O5 2.960714 1_555
Cs0 O0 3.011806 1_555
Cs0 O4 3.018522 1_555
Cs0 O1 3.021090 1_454
Cs0 O3 3.054354 1_565
Cs1 O1 2.960714 1_555
Cs1 O2 3.011806 1_555
Cs1 O3 3.018522 1_555
Cs1 O5 3.021090 1_656
Cs1 O4 3.054354 1_545
Cs2 O5 2.984683 1_655
Cs2 O1 3.124137 1_555
Cs2 O3 3.158796 1_555
Cs2 O4 3.193863 1_555
Cs2 O0 3.332935 1_545
Cs2 O2 3.366478 1_554
Cs2 O6 3.367420 1_555
Cs2 O5 3.578648 1_555
Cs3 O1 2.984683 1_455
Cs3 O5 3.124137 1_555
Cs3 O4 3.158796 1_555
Cs3 O3 3.193863 1_555
Cs3 O2 3.332935 1_565
Cs3 O0 3.366478 1_556
Cs3 O6 3.367420 1_666
Cs3 O1 3.578648 1_555
Cu0 O4 1.960392 1_445
Cu0 O3 1.960392 1_555
Cu0 O2 1.978165 1_555
Cu0 O0 1.978165 1_445
O0 Si1 1.648582 1_665
O1 Si0 1.598900 1_555
O2 Si0 1.648582 1_445
O3 Si1 1.654681 1_555
O4 Si0 1.654681 1_555
O5 Si1 1.598900 1_555
O6 Si0 1.660630 1_444
O6 Si1 1.660630 1_555
