# generated using pymatgen
data_Rb2In3F11
_symmetry_space_group_name_H-M   'P 1'
_cell_length_a   8.10346142
_cell_length_b   6.66338370
_cell_length_c   18.89037418
_cell_angle_alpha   90.44808860
_cell_angle_beta   90.00000000
_cell_angle_gamma   90.00000000
_symmetry_Int_Tables_number   1
_chemical_formula_structural   Rb2In3F11
_chemical_formula_sum   'Rb8 In12 F44'
_cell_volume   1019.98238067
_cell_formula_units_Z   4
loop_
 _symmetry_equiv_pos_site_id
 _symmetry_equiv_pos_as_xyz
  1  'x, y, z'
loop_
 _atom_site_type_symbol
 _atom_site_label
 _atom_site_symmetry_multiplicity
 _atom_site_fract_x
 _atom_site_fract_y
 _atom_site_fract_z
 _atom_site_occupancy
  Rb  Rb0  1  0.25000000  0.23138358  0.84089536  1
  Rb  Rb1  1  0.75000000  0.76861642  0.15910464  1
  Rb  Rb2  1  0.75000000  0.27334137  0.85090647  1
  Rb  Rb3  1  0.25000000  0.72665863  0.14909353  1
  Rb  Rb4  1  0.25000000  0.22730039  0.64919918  1
  Rb  Rb5  1  0.75000000  0.77269961  0.35080082  1
  Rb  Rb6  1  0.75000000  0.26930083  0.65917210  1
  Rb  Rb7  1  0.25000000  0.73069917  0.34082790  1
  In  In0  1  0.49664816  0.74941198  0.96743349  1
  In  In1  1  0.99664816  0.25058802  0.03256651  1
  In  In2  1  0.50335184  0.25058802  0.03256651  1
  In  In3  1  0.00335184  0.74941198  0.96743349  1
  In  In4  1  0.00004631  0.75035483  0.75001548  1
  In  In5  1  0.50004631  0.24964517  0.24998452  1
  In  In6  1  -0.00004631  0.24964517  0.24998452  1
  In  In7  1  0.49995369  0.75035483  0.75001548  1
  In  In8  1  0.99662567  0.75063959  0.53252713  1
  In  In9  1  0.49662567  0.24936041  0.46747287  1
  In  In10  1  0.00337433  0.24936041  0.46747287  1
  In  In11  1  0.50337433  0.75063959  0.53252713  1
  F  F0  1  0.52777430  0.06184628  0.56075144  1
  F  F1  1  0.02777430  0.93815372  0.43924856  1
  F  F2  1  0.47222570  0.93815372  0.43924856  1
  F  F3  1  -0.02777430  0.06184628  0.56075144  1
  F  F4  1  0.52380380  0.44076903  0.56082189  1
  F  F5  1  0.02380380  0.55923097  0.43917811  1
  F  F6  1  0.47619620  0.55923097  0.43917811  1
  F  F7  1  -0.02380380  0.44076903  0.56082189  1
  F  F8  1  0.54505184  0.04976817  0.75682675  1
  F  F9  1  0.04505184  0.95023183  0.24317325  1
  F  F10  1  0.45494816  0.95023183  0.24317325  1
  F  F11  1  0.95494816  0.04976817  0.75682675  1
  F  F12  1  0.45506486  0.45092960  0.74322272  1
  F  F13  1  0.95506486  0.54907040  0.25677728  1
  F  F14  1  0.54493514  0.54907040  0.25677728  1
  F  F15  1  0.47322849  0.43814036  0.93917846  1
  F  F16  1  0.04493514  0.45092960  0.74322272  1
  F  F17  1  0.97659484  0.94062225  0.06083069  1
  F  F18  1  0.52340516  0.94062225  0.06083069  1
  F  F19  1  0.02340516  0.05937775  0.93916931  1
  F  F20  1  0.25000000  0.74990378  0.99768768  1
  F  F21  1  0.75000000  0.25009622  0.00231232  1
  F  F22  1  0.75000000  0.74436393  0.94674760  1
  F  F23  1  0.25000000  0.25563607  0.05325240  1
  F  F24  1  0.25000000  0.83113248  0.72630313  1
  F  F25  1  0.75000000  0.16886752  0.27369687  1
  F  F26  1  0.75000000  0.67030824  0.77401669  1
  F  F27  1  0.25000000  0.32969176  0.22598331  1
  F  F28  1  0.25000000  0.75588201  0.55339621  1
  F  F29  1  0.75000000  0.24411799  0.44660379  1
  F  F30  1  0.75000000  0.74932995  0.50203512  1
  F  F31  1  0.25000000  0.25067005  0.49796488  1
  F  F32  1  0.06088181  0.74742355  0.85782210  1
  F  F33  1  0.56088181  0.25257645  0.14217790  1
  F  F34  1  0.93911819  0.25257645  0.14217790  1
  F  F35  1  0.43911819  0.74742355  0.85782210  1
  F  F36  1  0.93958598  0.75279501  0.64217400  1
  F  F37  1  0.43958598  0.24720499  0.35782600  1
  F  F38  1  0.06041402  0.24720499  0.35782600  1
  F  F39  1  0.56041402  0.75279501  0.64217400  1
  F  F40  1  0.02677151  0.43814036  0.93917846  1
  F  F41  1  0.52677151  0.56185964  0.06082154  1
  F  F42  1  0.97322849  0.56185964  0.06082154  1
  F  F43  1  0.47659484  0.05937775  0.93916931  1
loop_
_geom_bond_atom_site_label_1
_geom_bond_atom_site_label_2
_geom_bond_distance
_geom_bond_site_symmetry_2
F0 In11 2.146219 1_545
F0 In9 2.182711 1_555
F0 Rb6 2.927490 1_555
F0 Rb4 3.007486 1_555
F1 In10 2.146219 1_565
F1 In8 2.182711 1_455
F1 Rb7 2.927490 1_555
F1 Rb5 3.007486 1_455
F2 In9 2.146219 1_565
F2 In11 2.182711 1_555
F2 Rb7 2.927490 1_555
F2 Rb5 3.007486 1_555
F3 In8 2.146219 1_445
F3 In10 2.182711 1_555
F3 Rb6 2.927490 1_455
F3 Rb4 3.007486 1_555
F4 In11 2.143292 1_555
F4 In9 2.179362 1_555
F4 Rb6 2.854841 1_555
F4 Rb4 3.125777 1_555
F5 In10 2.143292 1_555
F5 In8 2.179362 1_455
F5 Rb7 2.854841 1_555
F5 Rb5 3.125777 1_455
F6 In9 2.143292 1_555
F6 In11 2.179362 1_555
F6 Rb7 2.854841 1_555
F6 Rb5 3.125777 1_555
F7 In8 2.143292 1_455
F7 In10 2.179362 1_555
F7 Rb6 2.854841 1_455
F7 Rb4 3.125777 1_555
F8 In7 2.031389 1_545
F8 Rb2 2.845105 1_555
F8 Rb6 2.888484 1_555
F8 Rb0 3.110158 1_555
F8 Rb4 3.359646 1_555
F9 In6 2.031389 1_565
F9 Rb3 2.845105 1_555
F9 Rb7 2.888484 1_555
F9 Rb1 3.110158 1_455
F9 Rb5 3.359646 1_455
F10 In5 2.031389 1_565
F10 Rb3 2.845105 1_555
F10 Rb7 2.888484 1_555
F10 Rb1 3.110158 1_555
F10 Rb5 3.359646 1_555
F11 In4 2.031389 1_645
F11 Rb2 2.845105 1_555
F11 Rb6 2.888484 1_555
F11 Rb0 3.110158 1_655
F11 Rb4 3.359646 1_655
F12 In7 2.031143 1_555
F12 Rb4 2.845192 1_555
F12 Rb0 2.889292 1_555
F12 Rb6 3.109293 1_555
F12 Rb2 3.359752 1_555
F13 In6 2.031143 1_655
F13 Rb5 2.845192 1_555
F13 Rb1 2.889292 1_555
F13 Rb7 3.109293 1_655
F13 Rb3 3.359752 1_655
F14 In5 2.031143 1_555
F14 Rb5 2.845192 1_555
F14 Rb1 2.889292 1_555
F14 Rb7 3.109293 1_555
F14 Rb3 3.359752 1_555
F15 In0 2.146059 1_555
F15 In2 2.183593 1_556
F15 Rb0 2.928691 1_555
F15 Rb2 2.997988 1_555
F16 In4 2.031143 1_555
F16 Rb4 2.845192 1_555
F16 Rb0 2.889292 1_555
F16 Rb6 3.109293 1_455
F16 Rb2 3.359752 1_455
F17 In1 2.143523 1_565
F17 In3 2.178987 1_654
F17 Rb1 2.857428 1_555
F17 Rb3 3.123840 1_655
F18 In2 2.143523 1_565
F18 In0 2.178987 1_554
F18 Rb1 2.857428 1_555
F18 Rb3 3.123840 1_555
F19 In3 2.143523 1_545
F19 In1 2.178987 1_456
F19 Rb0 2.857428 1_555
F19 Rb2 3.123840 1_455
F20 In3 2.078804 1_555
F20 In0 2.078804 1_555
F20 Rb3 2.865514 1_556
F21 In2 2.078804 1_555
F21 In1 2.078804 1_555
F21 Rb2 2.865514 1_554
F22 In0 2.090106 1_555
F22 In3 2.090106 1_655
F23 In2 2.090106 1_555
F23 In1 2.090106 1_455
F24 In7 2.144002 1_555
F24 In4 2.144002 1_555
F24 Rb4 3.024936 1_565
F25 In6 2.144002 1_655
F25 In5 2.144002 1_555
F25 Rb5 3.024936 1_545
F26 In7 2.144643 1_555
F26 In4 2.144643 1_655
F26 Rb2 3.027633 1_555
F27 In5 2.144643 1_555
F27 In6 2.144643 1_555
F27 Rb3 3.027633 1_555
F28 In8 2.090953 1_455
F28 In11 2.090953 1_555
F29 In9 2.090953 1_555
F29 In10 2.090953 1_655
F30 In8 2.079872 1_555
F30 In11 2.079872 1_555
F30 Rb5 2.862329 1_555
F31 In9 2.079872 1_555
F31 In10 2.079872 1_555
F31 Rb4 2.862329 1_555
F32 In4 2.095565 1_555
F32 In3 2.122373 1_555
F33 In5 2.095565 1_555
F33 In2 2.122373 1_555
F34 In6 2.095565 1_655
F34 In1 2.122373 1_555
F35 In7 2.095565 1_555
F35 In0 2.122373 1_555
F36 In4 2.095439 1_655
F36 In8 2.122157 1_555
F37 In5 2.095439 1_555
F37 In9 2.122157 1_555
F38 In6 2.095439 1_555
F38 In10 2.122157 1_555
F39 In7 2.095439 1_555
F39 In11 2.122157 1_555
F40 In3 2.146059 1_555
F40 In1 2.183593 1_456
F40 Rb0 2.928691 1_555
F40 Rb2 2.997988 1_455
F41 In2 2.146059 1_555
F41 In0 2.183593 1_554
F41 Rb1 2.928691 1_555
F41 Rb3 2.997988 1_555
F42 In1 2.146059 1_555
F42 In3 2.183593 1_654
F42 Rb1 2.928691 1_555
F42 Rb3 2.997988 1_655
F43 In0 2.143523 1_545
F43 In2 2.178987 1_556
F43 Rb0 2.857428 1_555
F43 Rb2 3.123840 1_555
