# generated using pymatgen
data_Na3FeS3
_symmetry_space_group_name_H-M   'P 1'
_cell_length_a   6.83011103
_cell_length_b   7.10379528
_cell_length_c   14.57209586
_cell_angle_alpha   60.07576480
_cell_angle_beta   90.00000000
_cell_angle_gamma   90.00000000
_symmetry_Int_Tables_number   1
_chemical_formula_structural   Na3FeS3
_chemical_formula_sum   'Na12 Fe4 S12'
_cell_volume   612.77623118
_cell_formula_units_Z   4
loop_
 _symmetry_equiv_pos_site_id
 _symmetry_equiv_pos_as_xyz
  1  'x, y, z'
loop_
 _atom_site_type_symbol
 _atom_site_label
 _atom_site_symmetry_multiplicity
 _atom_site_fract_x
 _atom_site_fract_y
 _atom_site_fract_z
 _atom_site_occupancy
  Na  Na0  1  0.01371414  0.94384866  0.88875033  1
  Na  Na1  1  0.48628586  0.94384866  0.38875033  1
  Na  Na2  1  0.98628586  0.05615134  0.11124967  1
  Na  Na3  1  0.97298831  0.50814617  0.71440243  1
  Na  Na4  1  0.51310602  0.87756056  0.90637461  1
  Na  Na5  1  0.51371414  0.05615134  0.61124967  1
  Na  Na6  1  0.47298831  0.49185383  0.78559757  1
  Na  Na7  1  0.01310602  0.12243944  0.59362539  1
  Na  Na8  1  0.52701169  0.50814617  0.21440243  1
  Na  Na9  1  0.98689398  0.87756056  0.40637461  1
  Na  Na10  1  0.02701169  0.49185383  0.28559757  1
  Na  Na11  1  0.48689398  0.12243944  0.09362539  1
  Fe  Fe0  1  0.13861649  0.50134341  0.08257472  1
  Fe  Fe1  1  0.86138351  0.49865659  0.91742528  1
  Fe  Fe2  1  0.63861649  0.49865659  0.41742528  1
  Fe  Fe3  1  0.36138351  0.50134341  0.58257472  1
  S  S0  1  0.25024074  0.80191255  0.57646520  1
  S  S1  1  0.73179979  0.79932497  0.27153325  1
  S  S2  1  0.29528793  0.49324215  0.42992631  1
  S  S3  1  0.23179979  0.20067503  0.22846675  1
  S  S4  1  0.20471207  0.49324215  0.92992631  1
  S  S5  1  0.70471207  0.50675785  0.57007369  1
  S  S6  1  0.74975926  0.19808745  0.42353480  1
  S  S7  1  0.26820021  0.20067503  0.72846675  1
  S  S8  1  0.79528793  0.50675785  0.07007369  1
  S  S9  1  0.76820021  0.79932497  0.77153325  1
  S  S10  1  0.75024074  0.19808745  0.92353480  1
  S  S11  1  0.24975926  0.80191255  0.07646520  1
loop_
_geom_bond_atom_site_label_1
_geom_bond_atom_site_label_2
_geom_bond_distance
_geom_bond_site_symmetry_2
Na0 S7 2.748388 1_565
Na0 S10 2.769573 1_465
Na0 S11 2.889038 1_556
Na0 S9 2.921169 1_455
Na1 S3 2.748388 1_565
Na1 S6 2.769573 1_565
Na1 S0 2.889038 1_555
Na1 S1 2.921169 1_555
Na2 S1 2.748388 1_545
Na2 S11 2.769573 1_645
Na2 S10 2.889038 1_554
Na2 S3 2.921169 1_655
Na3 S0 2.792155 1_655
Na3 S5 2.793144 1_555
Na3 S7 2.903748 1_655
Na3 S9 2.940441 1_555
Na3 S10 3.123503 1_555
Na4 S9 2.880108 1_555
Na4 S11 2.887646 1_556
Na4 S10 2.904896 1_565
Na4 S7 2.974999 1_565
Na4 S8 3.174011 1_556
Na4 S4 3.327655 1_555
Na5 S9 2.748388 1_545
Na5 S0 2.769573 1_545
Na5 S6 2.889038 1_555
Na5 S7 2.921169 1_555
Na6 S10 2.792155 1_555
Na6 S4 2.793144 1_555
Na6 S9 2.903748 1_555
Na6 S7 2.940441 1_555
Na6 S0 3.123503 1_555
Na7 S7 2.880108 1_555
Na7 S6 2.887646 1_455
Na7 S0 2.904896 1_545
Na7 S9 2.974999 1_445
Na7 S2 3.174011 1_555
Na7 S5 3.327655 1_455
Na8 S11 2.792155 1_555
Na8 S8 2.793144 1_555
Na8 S3 2.903748 1_555
Na8 S1 2.940441 1_555
Na8 S6 3.123503 1_555
Na9 S1 2.880108 1_555
Na9 S0 2.887646 1_655
Na9 S6 2.904896 1_565
Na9 S3 2.974999 1_665
Na9 S5 3.174011 1_555
Na9 S2 3.327655 1_655
Na10 S6 2.792155 1_455
Na10 S2 2.793144 1_555
Na10 S1 2.903748 1_455
Na10 S3 2.940441 1_555
Na10 S11 3.123503 1_555
Na11 S3 2.880108 1_555
Na11 S10 2.887646 1_554
Na11 S11 2.904896 1_545
Na11 S1 2.974999 1_545
Na11 S4 3.174011 1_554
Na11 S8 3.327655 1_555
Fe0 S11 2.225653 1_555
Fe0 S3 2.226290 1_555
Fe0 S4 2.298438 1_554
Fe0 S8 2.350865 1_455
Fe0 Na10 3.023105 1_555
Fe1 S10 2.225653 1_555
Fe1 S9 2.226290 1_555
Fe1 S8 2.298438 1_556
Fe1 S4 2.350865 1_655
Fe1 Na3 3.023105 1_555
Fe2 S6 2.225653 1_555
Fe2 S1 2.226290 1_555
Fe2 S5 2.298438 1_555
Fe2 S2 2.350865 1_555
Fe2 Na8 3.023105 1_555
Fe3 S0 2.225653 1_555
Fe3 S7 2.226290 1_555
Fe3 S2 2.298438 1_555
Fe3 S5 2.350865 1_555
Fe3 Na6 3.023105 1_555
