# generated using pymatgen
data_DyFe5
_symmetry_space_group_name_H-M   'P 1'
_cell_length_a   5.12517571
_cell_length_b   5.12498161
_cell_length_c   3.92220233
_cell_angle_alpha   90.00000000
_cell_angle_beta   90.00000000
_cell_angle_gamma   120.00101824
_symmetry_Int_Tables_number   1
_chemical_formula_structural   DyFe5
_chemical_formula_sum   'Dy1 Fe5'
_cell_volume   89.21897698
_cell_formula_units_Z   1
loop_
 _symmetry_equiv_pos_site_id
 _symmetry_equiv_pos_as_xyz
  1  'x, y, z'
loop_
 _atom_site_type_symbol
 _atom_site_label
 _atom_site_symmetry_multiplicity
 _atom_site_fract_x
 _atom_site_fract_y
 _atom_site_fract_z
 _atom_site_occupancy
  Dy  Dy0  1  -0.00000000  0.00000000  -0.00000000  1
  Fe  Fe0  1  0.50000000  0.50000000  0.50000000  1
  Fe  Fe1  1  0.66660312  0.33320824  0.00000000  1
  Fe  Fe2  1  -0.00000000  0.50000000  0.50000000  1
  Fe  Fe3  1  0.33339688  0.66679176  -0.00000000  1
  Fe  Fe4  1  0.50000000  0.00000000  0.50000000  1
loop_
_geom_bond_atom_site_label_1
_geom_bond_atom_site_label_2
_geom_bond_distance
_geom_bond_site_symmetry_2
Dy0 Fe1 2.958708 1_455
Dy0 Fe3 2.958708 1_545
Dy0 Fe3 2.958709 1_445
Dy0 Fe1 2.958709 1_555
Dy0 Fe1 2.959434 1_445
Dy0 Fe3 2.959434 1_555
Dy0 Fe2 3.226806 1_555
Dy0 Fe2 3.226806 1_544
Dy0 Fe2 3.226806 1_545
Dy0 Fe2 3.226806 1_554
Dy0 Fe0 3.226813 1_555
Dy0 Fe0 3.226813 1_445
Dy0 Fe0 3.226813 1_444
Dy0 Fe0 3.226813 1_554
Dy0 Fe4 3.226883 1_555
Dy0 Fe4 3.226883 1_454
Dy0 Fe4 3.226883 1_455
Dy0 Fe4 3.226883 1_554
Fe0 Fe3 2.456749 1_556
Fe0 Fe1 2.456749 1_555
Fe0 Fe1 2.456749 1_556
Fe0 Fe3 2.456749 1_555
Fe0 Fe4 2.562491 1_555
Fe0 Fe4 2.562491 1_565
Fe0 Fe2 2.562588 1_555
Fe0 Fe2 2.562588 1_655
Fe1 Fe4 2.456220 1_554
Fe1 Fe4 2.456220 1_555
Fe1 Fe2 2.456758 1_654
Fe1 Fe2 2.456758 1_655
Fe2 Fe3 2.456758 1_555
Fe2 Fe3 2.456758 1_556
Fe2 Fe4 2.562500 1_455
Fe2 Fe4 2.562500 1_565
Fe3 Fe4 2.456220 1_564
Fe3 Fe4 2.456220 1_565
