# generated using pymatgen
data_Tm2Fe14C
_symmetry_space_group_name_H-M   'P 1'
_cell_length_a   8.70082100
_cell_length_b   8.70082100
_cell_length_c   11.64170900
_cell_angle_alpha   90.00000000
_cell_angle_beta   90.00000000
_cell_angle_gamma   90.00000000
_symmetry_Int_Tables_number   1
_chemical_formula_structural   Tm2Fe14C
_chemical_formula_sum   'Tm8 Fe56 C4'
_cell_volume   881.32726853
_cell_formula_units_Z   4
loop_
 _symmetry_equiv_pos_site_id
 _symmetry_equiv_pos_as_xyz
  1  'x, y, z'
loop_
 _atom_site_type_symbol
 _atom_site_label
 _atom_site_symmetry_multiplicity
 _atom_site_fract_x
 _atom_site_fract_y
 _atom_site_fract_z
 _atom_site_occupancy
  Tm  Tm0  1  0.64334700  0.64334700  0.50000000  1
  Tm  Tm1  1  0.75895700  0.24104300  0.50000000  1
  Tm  Tm2  1  0.85665300  0.14334700  0.00000000  1
  Tm  Tm3  1  0.25895700  0.25895700  0.00000000  1
  Tm  Tm4  1  0.35665300  0.35665300  0.50000000  1
  Tm  Tm5  1  0.14334700  0.85665300  0.00000000  1
  Tm  Tm6  1  0.24104300  0.75895700  0.50000000  1
  Tm  Tm7  1  0.74104300  0.74104300  0.00000000  1
  Fe  Fe0  1  0.68396400  0.68396400  0.75468300  1
  Fe  Fe1  1  0.72515300  0.93561900  0.62009700  1
  Fe  Fe2  1  0.64253500  0.96407300  0.82525300  1
  Fe  Fe3  1  0.77484700  0.43561900  0.12009700  1
  Fe  Fe4  1  0.85746500  0.46407300  0.67474700  1
  Fe  Fe5  1  0.50000000  0.00000000  0.00000000  1
  Fe  Fe6  1  0.90309400  0.90309400  0.79755700  1
  Fe  Fe7  1  0.43561900  0.77484700  0.87990300  1
  Fe  Fe8  1  0.59690600  0.40309400  0.29755700  1
  Fe  Fe9  1  0.50000000  0.50000000  0.89203100  1
  Fe  Fe10  1  0.46407300  0.85746500  0.67474700  1
  Fe  Fe11  1  0.93561900  0.72515300  0.37990300  1
  Fe  Fe12  1  0.40309400  0.59690600  0.70244300  1
  Fe  Fe13  1  0.81603600  0.18396400  0.25468300  1
  Fe  Fe14  1  0.53592700  0.14253500  0.32525300  1
  Fe  Fe15  1  0.90309400  0.90309400  0.20244300  1
  Fe  Fe16  1  0.35746500  0.03592700  0.82525300  1
  Fe  Fe17  1  0.85746500  0.46407300  0.32525300  1
  Fe  Fe18  1  0.03592700  0.35746500  0.82525300  1
  Fe  Fe19  1  0.93561900  0.72515300  0.62009700  1
  Fe  Fe20  1  0.43561900  0.77484700  0.12009700  1
  Fe  Fe21  1  0.31603600  0.31603600  0.24531700  1
  Fe  Fe22  1  0.31603600  0.31603600  0.75468300  1
  Fe  Fe23  1  0.96407300  0.64253500  0.17474700  1
  Fe  Fe24  1  0.96407300  0.64253500  0.82525300  1
  Fe  Fe25  1  0.81603600  0.18396400  0.74531700  1
  Fe  Fe26  1  0.53592700  0.14253500  0.67474700  1
  Fe  Fe27  1  0.27484700  0.06438100  0.37990300  1
  Fe  Fe28  1  0.06438100  0.27484700  0.62009700  1
  Fe  Fe29  1  0.22515300  0.56438100  0.12009700  1
  Fe  Fe30  1  0.14253500  0.53592700  0.67474700  1
  Fe  Fe31  1  0.56438100  0.22515300  0.12009700  1
  Fe  Fe32  1  0.27484700  0.06438100  0.62009700  1
  Fe  Fe33  1  0.18396400  0.81603600  0.25468300  1
  Fe  Fe34  1  0.40309400  0.59690600  0.29755700  1
  Fe  Fe35  1  0.68396400  0.68396400  0.24531700  1
  Fe  Fe36  1  0.72515300  0.93561900  0.37990300  1
  Fe  Fe37  1  0.00000000  0.00000000  0.39203100  1
  Fe  Fe38  1  0.06438100  0.27484700  0.37990300  1
  Fe  Fe39  1  0.50000000  0.50000000  0.10796900  1
  Fe  Fe40  1  0.03592700  0.35746500  0.17474700  1
  Fe  Fe41  1  0.59690600  0.40309400  0.70244300  1
  Fe  Fe42  1  0.35746500  0.03592700  0.17474700  1
  Fe  Fe43  1  0.09690600  0.09690600  0.20244300  1
  Fe  Fe44  1  0.18396400  0.81603600  0.74531700  1
  Fe  Fe45  1  0.46407300  0.85746500  0.32525300  1
  Fe  Fe46  1  0.64253500  0.96407300  0.17474700  1
  Fe  Fe47  1  0.00000000  0.00000000  0.60796900  1
  Fe  Fe48  1  0.09690600  0.09690600  0.79755700  1
  Fe  Fe49  1  0.22515300  0.56438100  0.87990300  1
  Fe  Fe50  1  0.77484700  0.43561900  0.87990300  1
  Fe  Fe51  1  0.56438100  0.22515300  0.87990300  1
  Fe  Fe52  1  0.00000000  0.50000000  0.00000000  1
  Fe  Fe53  1  0.14253500  0.53592700  0.32525300  1
  Fe  Fe54  1  0.50000000  0.00000000  0.50000000  1
  Fe  Fe55  1  0.00000000  0.50000000  0.50000000  1
  C  C0  1  0.87188300  0.87188300  0.50000000  1
  C  C1  1  0.12811700  0.12811700  0.50000000  1
  C  C2  1  0.37188300  0.62811700  0.00000000  1
  C  C3  1  0.62811700  0.37188300  0.00000000  1
loop_
_geom_bond_atom_site_label_1
_geom_bond_atom_site_label_2
_geom_bond_distance
_geom_bond_site_symmetry_2
Fe0 Fe24 2.597061 1_555
Fe0 Fe2 2.597061 1_555
Fe0 Fe10 2.608707 1_555
Fe0 Fe4 2.608707 1_555
Fe0 Fe12 2.629789 1_555
Fe0 Fe41 2.629789 1_555
Fe0 Fe19 2.716193 1_555
Fe0 Fe1 2.716193 1_555
Fe0 Fe50 2.723873 1_555
Fe0 Fe7 2.723873 1_555
Fe0 Fe6 2.742163 1_555
Fe0 Fe9 2.771421 1_555
Fe0 Tm7 2.941005 1_556
Fe0 Tm0 3.006773 1_555
Fe1 Fe10 2.455075 1_555
Fe1 Fe54 2.471095 1_565
Fe1 Fe2 2.506456 1_555
Fe1 Fe26 2.521250 1_565
Fe1 Fe6 2.597154 1_555
Fe1 Fe25 2.723873 1_565
Fe1 Tm0 2.988025 1_555
Fe1 Tm1 3.017163 1_565
Fe2 Fe6 2.350553 1_555
Fe2 Fe5 2.402985 1_566
Fe2 Fe51 2.455075 1_565
Fe2 Fe26 2.518234 1_565
Fe2 Fe7 2.521250 1_555
Fe2 Fe25 2.608707 1_565
Fe2 Tm7 2.939205 1_556
Fe2 Tm2 3.168982 1_566
Fe3 Fe40 2.455075 1_655
Fe3 Fe52 2.471095 1_655
Fe3 Fe8 2.597154 1_555
Fe3 Fe35 2.723873 1_555
Fe3 Tm2 2.988025 1_555
Fe3 Tm7 3.017163 1_555
Fe4 Fe41 2.350553 1_555
Fe4 Fe55 2.402985 1_655
Fe4 Fe50 2.506456 1_555
Fe4 Tm1 2.939205 1_555
Fe4 Tm0 3.168982 1_555
Fe5 Fe51 2.471095 1_554
Fe5 Fe7 2.471095 1_544
Fe5 Tm3 3.078179 1_555
Fe5 Tm7 3.078179 1_545
Fe5 Tm2 3.344441 1_555
Fe5 Tm5 3.344441 1_545
Fe6 Tm7 3.087150 1_556
Fe6 Tm5 3.176077 1_656
Fe6 Tm2 3.176077 1_566
Fe7 Tm5 2.988025 1_556
Fe7 Tm7 3.017163 1_556
Fe8 Tm1 3.087150 1_555
Fe8 Tm4 3.176077 1_555
Fe8 Tm0 3.176077 1_555
Fe9 Tm7 3.221336 1_556
Fe9 Tm3 3.221336 1_556
Fe10 Fe12 2.350553 1_555
Fe10 Fe54 2.402985 1_565
Fe10 Fe7 2.506456 1_555
Fe10 Fe16 2.518234 1_565
Fe10 Fe2 2.518234 1_555
Fe10 Fe32 2.521250 1_565
Fe10 Fe26 2.557922 1_565
Fe10 Fe44 2.597061 1_555
Fe10 Tm6 2.939205 1_555
Fe10 Tm0 3.168982 1_555
Fe11 Fe17 2.455075 1_555
Fe11 Fe55 2.471095 1_655
Fe11 Fe23 2.506456 1_555
Fe11 Fe53 2.521250 1_655
Fe11 Fe15 2.597154 1_555
Fe11 Fe35 2.716193 1_555
Fe11 Fe33 2.723873 1_655
Fe11 Tm0 2.988025 1_555
Fe11 Tm6 3.017163 1_655
Fe12 Fe30 2.350553 1_555
Fe12 Fe41 2.384822 1_555
Fe12 Fe9 2.508637 1_555
Fe12 Fe49 2.597154 1_555
Fe12 Fe7 2.597154 1_555
Fe12 Fe22 2.629789 1_555
Fe12 Fe44 2.742163 1_555
Fe12 Tm6 3.087150 1_555
Fe12 Tm4 3.176077 1_555
Fe12 Tm0 3.176077 1_555
Fe13 Fe17 2.597061 1_555
Fe13 Fe14 2.597061 1_555
Fe13 Fe46 2.608707 1_545
Fe13 Fe40 2.608707 1_655
Fe13 Fe43 2.629789 1_655
Fe13 Fe15 2.629789 1_545
Fe13 Fe31 2.716193 1_555
Fe13 Fe3 2.716193 1_555
Fe13 Fe38 2.723873 1_655
Fe13 Fe36 2.723873 1_545
Fe13 Fe8 2.742163 1_555
Fe13 Fe37 2.771421 1_655
Fe13 Tm1 2.941005 1_555
Fe13 Tm2 3.006773 1_555
Fe14 Fe8 2.350553 1_555
Fe14 Fe54 2.402985 1_555
Fe14 Fe27 2.455075 1_555
Fe14 Fe31 2.506456 1_555
Fe14 Fe42 2.518234 1_555
Fe14 Fe46 2.518234 1_545
Fe14 Fe36 2.521250 1_545
Fe14 Fe45 2.557922 1_545
Fe14 Fe21 2.608707 1_555
Fe14 Tm1 2.939205 1_555
Fe14 Tm4 3.168982 1_555
Fe15 Fe23 2.350553 1_555
Fe15 Fe46 2.350553 1_555
Fe15 Fe43 2.384822 1_665
Fe15 Fe37 2.508637 1_665
Fe15 Fe36 2.597154 1_555
Fe15 Fe33 2.629789 1_655
Fe15 Fe35 2.742163 1_555
Fe15 Tm7 3.087150 1_555
Fe15 Tm2 3.176077 1_565
Fe15 Tm5 3.176077 1_655
Fe16 Fe48 2.350553 1_555
Fe16 Fe5 2.402985 1_556
Fe16 Fe7 2.455075 1_545
Fe16 Fe32 2.506456 1_555
Fe16 Fe26 2.518234 1_555
Fe16 Fe51 2.521250 1_555
Fe16 Fe2 2.557922 1_545
Fe16 Fe22 2.597061 1_555
Fe16 Fe44 2.608707 1_545
Fe16 Tm3 2.939205 1_556
Fe16 Tm5 3.168982 1_546
Fe17 Fe8 2.350553 1_555
Fe17 Fe55 2.402985 1_655
Fe17 Fe3 2.506456 1_555
Fe17 Fe40 2.518234 1_655
Fe17 Fe23 2.518234 1_555
Fe17 Fe38 2.521250 1_655
Fe17 Fe53 2.557922 1_655
Fe17 Fe35 2.608707 1_555
Fe17 Tm1 2.939205 1_555
Fe17 Tm0 3.168982 1_555
Fe18 Fe48 2.350553 1_555
Fe18 Fe52 2.402985 1_556
Fe18 Fe50 2.455075 1_455
Fe18 Fe28 2.506456 1_555
Fe18 Fe30 2.518234 1_555
Fe18 Fe4 2.518234 1_455
Fe18 Fe49 2.521250 1_555
Fe18 Fe24 2.557922 1_455
Fe18 Fe22 2.597061 1_555
Fe18 Fe25 2.608707 1_455
Fe18 Tm3 2.939205 1_556
Fe18 Tm2 3.168982 1_456
Fe19 Fe4 2.455075 1_555
Fe19 Fe55 2.471095 1_655
Fe19 Fe24 2.506456 1_555
Fe19 Fe30 2.521250 1_655
Fe19 Fe6 2.597154 1_555
Fe19 Fe44 2.723873 1_655
Fe19 Tm0 2.988025 1_555
Fe19 Tm6 3.017163 1_655
Fe20 Fe42 2.455075 1_565
Fe20 Fe5 2.471095 1_565
Fe20 Fe45 2.506456 1_555
Fe20 Fe46 2.521250 1_555
Fe20 Fe34 2.597154 1_555
Fe20 Fe33 2.716193 1_555
Fe20 Fe35 2.723873 1_555
Fe20 Tm5 2.988025 1_555
Fe20 Tm7 3.017163 1_555
Fe21 Fe40 2.597061 1_555
Fe21 Fe42 2.597061 1_555
Fe21 Fe53 2.608707 1_555
Fe21 Fe34 2.629789 1_555
Fe21 Fe8 2.629789 1_555
Fe21 Fe38 2.716193 1_555
Fe21 Fe27 2.716193 1_555
Fe21 Fe29 2.723873 1_555
Fe21 Fe31 2.723873 1_555
Fe21 Fe43 2.742163 1_555
Fe21 Fe39 2.771421 1_555
Fe21 Tm3 2.941005 1_555
Fe21 Tm4 3.006773 1_555
Fe22 Fe26 2.608707 1_555
Fe22 Fe30 2.608707 1_555
Fe22 Fe41 2.629789 1_555
Fe22 Fe28 2.716193 1_555
Fe22 Fe32 2.716193 1_555
Fe22 Fe51 2.723873 1_555
Fe22 Fe49 2.723873 1_555
Fe22 Fe48 2.742163 1_555
Fe22 Fe9 2.771421 1_555
Fe22 Tm3 2.941005 1_556
Fe22 Tm4 3.006773 1_555
Fe23 Fe52 2.402985 1_655
Fe23 Fe29 2.455075 1_655
Fe23 Fe53 2.518234 1_655
Fe23 Fe3 2.521250 1_555
Fe23 Fe40 2.557922 1_655
Fe23 Fe35 2.597061 1_555
Fe23 Fe33 2.608707 1_655
Fe23 Tm7 2.939205 1_555
Fe23 Tm5 3.168982 1_655
Fe24 Fe6 2.350553 1_555
Fe24 Fe52 2.402985 1_656
Fe24 Fe49 2.455075 1_655
Fe24 Fe30 2.518234 1_655
Fe24 Fe4 2.518234 1_555
Fe24 Fe50 2.521250 1_555
Fe24 Fe44 2.608707 1_655
Fe24 Tm7 2.939205 1_556
Fe24 Tm5 3.168982 1_656
Fe25 Fe4 2.597061 1_555
Fe25 Fe26 2.597061 1_555
Fe25 Fe48 2.629789 1_655
Fe25 Fe6 2.629789 1_545
Fe25 Fe50 2.716193 1_555
Fe25 Fe51 2.716193 1_555
Fe25 Fe28 2.723873 1_655
Fe25 Fe41 2.742163 1_555
Fe25 Fe47 2.771421 1_655
Fe25 Tm1 2.941005 1_555
Fe25 Tm2 3.006773 1_556
Fe26 Fe41 2.350553 1_555
Fe26 Fe54 2.402985 1_555
Fe26 Fe32 2.455075 1_555
Fe26 Fe51 2.506456 1_555
Fe26 Tm1 2.939205 1_555
Fe26 Tm4 3.168982 1_555
Fe27 Fe54 2.471095 1_555
Fe27 Fe42 2.506456 1_555
Fe27 Fe45 2.521250 1_545
Fe27 Fe43 2.597154 1_555
Fe27 Fe33 2.723873 1_545
Fe27 Tm4 2.988025 1_555
Fe27 Tm6 3.017163 1_545
Fe28 Fe30 2.455075 1_555
Fe28 Fe55 2.471095 1_555
Fe28 Fe4 2.521250 1_455
Fe28 Fe48 2.597154 1_555
Fe28 Tm4 2.988025 1_555
Fe28 Tm1 3.017163 1_455
Fe29 Fe52 2.471095 1_555
Fe29 Fe53 2.506456 1_555
Fe29 Fe40 2.521250 1_555
Fe29 Fe34 2.597154 1_555
Fe29 Fe33 2.716193 1_555
Fe29 Tm5 2.988025 1_555
Fe29 Tm3 3.017163 1_555
Fe30 Fe55 2.402985 1_555
Fe30 Fe49 2.506456 1_555
Fe30 Fe4 2.557922 1_455
Fe30 Fe44 2.597061 1_555
Fe30 Tm6 2.939205 1_555
Fe30 Tm4 3.168982 1_555
Fe31 Fe46 2.455075 1_545
Fe31 Fe5 2.471095 1_555
Fe31 Fe42 2.521250 1_555
Fe31 Fe8 2.597154 1_555
Fe31 Tm2 2.988025 1_555
Fe31 Tm3 3.017163 1_555
Fe32 Fe54 2.471095 1_555
Fe32 Fe48 2.597154 1_555
Fe32 Fe44 2.723873 1_545
Fe32 Tm4 2.988025 1_555
Fe32 Tm6 3.017163 1_545
Fe33 Fe45 2.597061 1_555
Fe33 Fe53 2.597061 1_555
Fe33 Fe42 2.608707 1_565
Fe33 Fe43 2.629789 1_565
Fe33 Fe34 2.742163 1_555
Fe33 Fe37 2.771421 1_565
Fe33 Tm6 2.941005 1_555
Fe33 Tm5 3.006773 1_555
Fe34 Fe45 2.350553 1_555
Fe34 Fe53 2.350553 1_555
Fe34 Fe8 2.384822 1_555
Fe34 Fe39 2.508637 1_555
Fe34 Fe35 2.629789 1_555
Fe34 Tm6 3.087150 1_555
Fe34 Tm4 3.176077 1_555
Fe34 Tm0 3.176077 1_555
Fe35 Fe46 2.597061 1_555
Fe35 Fe45 2.608707 1_555
Fe35 Fe8 2.629789 1_555
Fe35 Fe36 2.716193 1_555
Fe35 Fe39 2.771421 1_555
Fe35 Tm7 2.941005 1_555
Fe35 Tm0 3.006773 1_555
Fe36 Fe45 2.455075 1_555
Fe36 Fe54 2.471095 1_565
Fe36 Fe46 2.506456 1_555
Fe36 Tm0 2.988025 1_555
Fe36 Tm1 3.017163 1_565
Fe37 Fe43 2.508637 1_555
Fe37 Tm6 3.221336 1_545
Fe37 Tm1 3.221336 1_455
Fe38 Fe53 2.455075 1_555
Fe38 Fe55 2.471095 1_555
Fe38 Fe40 2.506456 1_555
Fe38 Fe43 2.597154 1_555
Fe38 Tm4 2.988025 1_555
Fe38 Tm1 3.017163 1_455
Fe39 Fe8 2.508637 1_555
Fe39 Tm3 3.221336 1_555
Fe39 Tm7 3.221336 1_555
Fe40 Fe43 2.350553 1_555
Fe40 Fe52 2.402985 1_555
Fe40 Fe53 2.518234 1_555
Fe40 Tm3 2.939205 1_555
Fe40 Tm2 3.168982 1_455
Fe41 Fe9 2.508637 1_555
Fe41 Fe51 2.597154 1_555
Fe41 Fe50 2.597154 1_555
Fe41 Tm1 3.087150 1_555
Fe41 Tm4 3.176077 1_555
Fe41 Tm0 3.176077 1_555
Fe42 Fe43 2.350553 1_555
Fe42 Fe5 2.402985 1_555
Fe42 Fe45 2.518234 1_545
Fe42 Fe46 2.557922 1_545
Fe42 Tm3 2.939205 1_555
Fe42 Tm5 3.168982 1_545
Fe43 Tm3 3.087150 1_555
Fe43 Tm5 3.176077 1_545
Fe43 Tm2 3.176077 1_455
Fe44 Fe48 2.629789 1_565
Fe44 Fe6 2.629789 1_455
Fe44 Fe7 2.716193 1_555
Fe44 Fe49 2.716193 1_555
Fe44 Fe47 2.771421 1_565
Fe44 Tm6 2.941005 1_555
Fe44 Tm5 3.006773 1_556
Fe45 Fe54 2.402985 1_565
Fe45 Fe46 2.518234 1_555
Fe45 Tm6 2.939205 1_555
Fe45 Tm0 3.168982 1_555
Fe46 Fe5 2.402985 1_565
Fe46 Tm7 2.939205 1_555
Fe46 Tm2 3.168982 1_565
Fe47 Fe48 2.508637 1_555
Fe47 Fe6 2.508637 1_445
Fe47 Tm1 3.221336 1_455
Fe47 Tm6 3.221336 1_545
Fe48 Fe6 2.384822 1_445
Fe48 Tm3 3.087150 1_556
Fe48 Tm5 3.176077 1_546
Fe48 Tm2 3.176077 1_456
Fe49 Fe52 2.471095 1_556
Fe49 Tm5 2.988025 1_556
Fe49 Tm3 3.017163 1_556
Fe50 Fe52 2.471095 1_656
Fe50 Tm2 2.988025 1_556
Fe50 Tm7 3.017163 1_556
Fe51 Tm2 2.988025 1_556
Fe51 Tm3 3.017163 1_556
Fe52 Tm7 3.078179 1_455
Fe52 Tm3 3.078179 1_555
Fe52 Tm2 3.344441 1_455
Fe52 Tm5 3.344441 1_555
Fe53 Fe55 2.402985 1_555
Fe53 Tm6 2.939205 1_555
Fe53 Tm4 3.168982 1_555
Fe54 Tm1 3.078179 1_555
Fe54 Tm6 3.078179 1_545
Fe54 Tm0 3.344441 1_545
Fe54 Tm4 3.344441 1_555
Fe55 Tm6 3.078179 1_555
Fe55 Tm1 3.078179 1_455
Fe55 Tm4 3.344441 1_555
Fe55 Tm0 3.344441 1_455
C0 Fe19 1.972866 1_555
C0 Fe11 1.972866 1_555
C0 Fe1 1.972866 1_555
C0 Fe36 1.972866 1_555
C0 Fe47 2.016215 1_665
C0 Fe37 2.016215 1_665
C0 Tm0 2.812094 1_555
C1 Fe32 1.972866 1_555
C1 Fe27 1.972866 1_555
C1 Fe38 1.972866 1_555
C1 Fe28 1.972866 1_555
C1 Fe47 2.016215 1_555
C1 Fe37 2.016215 1_555
C1 Tm4 2.812094 1_555
C2 Fe29 1.972866 1_555
C2 Fe49 1.972866 1_554
C2 Fe7 1.972866 1_554
C2 Fe20 1.972866 1_555
C2 Fe39 2.016215 1_555
C2 Fe9 2.016215 1_554
C2 Tm5 2.812094 1_555
C3 Fe51 1.972866 1_554
C3 Fe31 1.972866 1_555
C3 Fe3 1.972866 1_555
C3 Fe50 1.972866 1_554
C3 Fe39 2.016215 1_555
C3 Fe9 2.016215 1_554
C3 Tm2 2.812094 1_555
