# generated using pymatgen
data_KFe2(PO4)2
_symmetry_space_group_name_H-M   'P 1'
_cell_length_a   10.22876900
_cell_length_b   8.00051700
_cell_length_c   9.27738336
_cell_angle_alpha   64.45907877
_cell_angle_beta   90.00000000
_cell_angle_gamma   90.00000000
_symmetry_Int_Tables_number   1
_chemical_formula_structural   KFe2(PO4)2
_chemical_formula_sum   'K4 Fe8 P8 O32'
_cell_volume   685.02605756
_cell_formula_units_Z   4
loop_
 _symmetry_equiv_pos_site_id
 _symmetry_equiv_pos_as_xyz
  1  'x, y, z'
loop_
 _atom_site_type_symbol
 _atom_site_label
 _atom_site_symmetry_multiplicity
 _atom_site_fract_x
 _atom_site_fract_y
 _atom_site_fract_z
 _atom_site_occupancy
  K  K0  1  0.35945000  0.35321800  0.57257500  1
  K  K1  1  0.85945000  0.64678200  0.92742500  1
  K  K2  1  0.64055000  0.64678200  0.42742500  1
  K  K3  1  0.14055000  0.35321800  0.07257500  1
  Fe  Fe0  1  0.61770600  0.93564000  0.94593000  1
  Fe  Fe1  1  0.12162900  0.72889500  0.25645000  1
  Fe  Fe2  1  0.62162900  0.27110500  0.24355000  1
  Fe  Fe3  1  0.11770600  0.06436000  0.55407000  1
  Fe  Fe4  1  0.88229400  0.93564000  0.44593000  1
  Fe  Fe5  1  0.37837100  0.72889500  0.75645000  1
  Fe  Fe6  1  0.38229400  0.06436000  0.05407000  1
  Fe  Fe7  1  0.87837100  0.27110500  0.74355000  1
  P  P0  1  0.16040100  0.00735700  0.86427000  1
  P  P1  1  0.83959900  0.99264300  0.13573000  1
  P  P2  1  0.90435200  0.38602400  0.35226600  1
  P  P3  1  0.09564800  0.61397600  0.64773400  1
  P  P4  1  0.40435200  0.61397600  0.14773400  1
  P  P5  1  0.66040100  0.99264300  0.63573000  1
  P  P6  1  0.33959900  0.00735700  0.36427000  1
  P  P7  1  0.59564800  0.38602400  0.85226600  1
  O  O0  1  0.74895400  0.05820300  0.23872500  1
  O  O1  1  0.87103500  0.40558600  0.50634600  1
  O  O2  1  0.95600900  0.89375000  0.25464900  1
  O  O3  1  0.96543600  0.18978800  0.39609600  1
  O  O4  1  0.24895400  0.94179700  0.26127500  1
  O  O5  1  0.49531800  0.53174400  0.74595400  1
  O  O6  1  0.04399100  0.10625000  0.74535100  1
  O  O7  1  0.23461300  0.15288800  0.90065800  1
  O  O8  1  0.10965100  0.84532700  0.01521500  1
  O  O9  1  0.21926000  0.58962500  0.75022100  1
  O  O10  1  0.99531800  0.46825600  0.75404600  1
  O  O11  1  0.39034900  0.84532700  0.51521500  1
  O  O12  1  0.89034900  0.15467300  0.98478500  1
  O  O13  1  0.60965100  0.15467300  0.48478500  1
  O  O14  1  0.25104600  0.94179700  0.76127500  1
  O  O15  1  0.03456400  0.81021200  0.60390400  1
  O  O16  1  0.62896500  0.40558600  0.00634600  1
  O  O17  1  0.75104600  0.05820300  0.73872500  1
  O  O18  1  0.73461300  0.84711200  0.59934200  1
  O  O19  1  0.28074000  0.58962500  0.25022100  1
  O  O20  1  0.50468200  0.46825600  0.25404600  1
  O  O21  1  0.53456400  0.18978800  0.89609600  1
  O  O22  1  0.26538700  0.15288800  0.40065800  1
  O  O23  1  0.00468200  0.53174400  0.24595400  1
  O  O24  1  0.71926000  0.41037500  0.74977900  1
  O  O25  1  0.78074000  0.41037500  0.24977900  1
  O  O26  1  0.54399100  0.89375000  0.75464900  1
  O  O27  1  0.76538700  0.84711200  0.09934200  1
  O  O28  1  0.12896500  0.59441400  0.49365400  1
  O  O29  1  0.46543600  0.81021200  0.10390400  1
  O  O30  1  0.37103500  0.59441400  0.99365400  1
  O  O31  1  0.45600900  0.10625000  0.24535100  1
loop_
_geom_bond_atom_site_label_1
_geom_bond_atom_site_label_2
_geom_bond_distance
_geom_bond_site_symmetry_2
K0 O22 2.871003 1_555
K0 O19 2.879525 1_555
K0 O5 2.922304 1_555
K0 O28 2.932513 1_555
K0 O7 3.042548 1_555
K0 O20 3.072674 1_555
K0 O14 3.187446 1_545
K0 O21 3.246922 1_555
K0 O13 3.294225 1_555
K1 O27 2.871003 1_556
K1 O25 2.879525 1_556
K1 O10 2.922304 1_555
K1 O16 2.932513 1_556
K1 O18 3.042548 1_555
K1 O23 3.072674 1_656
K1 O17 3.187446 1_565
K1 O15 3.246922 1_655
K1 O8 3.294225 1_656
K2 O18 2.871003 1_555
K2 O24 2.879525 1_555
K2 O20 2.922304 1_555
K2 O1 2.932513 1_555
K2 O27 3.042548 1_555
K2 O5 3.072674 1_555
K2 O0 3.187446 1_565
K2 O29 3.246922 1_555
K2 O11 3.294225 1_555
K3 O7 2.871003 1_554
K3 O9 2.879525 1_554
K3 O23 2.922304 1_555
K3 O30 2.932513 1_554
K3 O22 3.042548 1_555
K3 O10 3.072674 1_454
K3 O4 3.187446 1_545
K3 O3 3.246922 1_455
K3 O12 3.294225 1_454
Fe0 O27 1.984934 1_556
Fe0 O21 2.064157 1_565
Fe0 O29 2.076691 1_556
Fe0 O26 2.083954 1_555
Fe0 O17 2.211704 1_565
Fe1 O19 1.987251 1_555
Fe1 O28 1.991060 1_555
Fe1 O23 2.015139 1_555
Fe1 O8 2.023313 1_555
Fe1 O2 2.142610 1_455
Fe1 O4 2.159921 1_555
Fe2 O25 1.987251 1_555
Fe2 O16 1.991060 1_555
Fe2 O20 2.015139 1_555
Fe2 O13 2.023313 1_555
Fe2 O31 2.142610 1_555
Fe2 O0 2.159921 1_555
Fe3 O22 1.984934 1_555
Fe3 O15 2.064157 1_545
Fe3 O3 2.076691 1_455
Fe3 O6 2.083954 1_555
Fe3 O14 2.211704 1_545
Fe4 O18 1.984934 1_555
Fe4 O3 2.064157 1_565
Fe4 O15 2.076691 1_655
Fe4 O2 2.083954 1_555
Fe4 O0 2.211704 1_565
Fe5 O9 1.987251 1_555
Fe5 O30 1.991060 1_555
Fe5 O5 2.015139 1_555
Fe5 O11 2.023313 1_555
Fe5 O26 2.142610 1_555
Fe5 O14 2.159921 1_555
Fe6 O7 1.984934 1_554
Fe6 O29 2.064157 1_545
Fe6 O21 2.076691 1_554
Fe6 O31 2.083954 1_555
Fe6 O4 2.211704 1_545
Fe7 O24 1.987251 1_555
Fe7 O1 1.991060 1_555
Fe7 O10 2.015139 1_555
Fe7 O12 2.023313 1_555
Fe7 O6 2.142610 1_655
Fe7 O17 2.159921 1_555
O0 P1 1.574800 1_545
O1 P2 1.541721 1_555
O2 P1 1.583762 1_555
O3 P2 1.571657 1_555
O4 P6 1.574800 1_565
O5 P7 1.547130 1_555
O6 P0 1.583762 1_555
O7 P0 1.544273 1_555
O8 P0 1.531533 1_564
O9 P3 1.543039 1_555
O10 P3 1.547130 1_655
O11 P6 1.531533 1_565
O12 P1 1.531533 1_546
O13 P5 1.531533 1_545
O14 P0 1.574800 1_565
O15 P3 1.571657 1_555
O16 P7 1.541721 1_554
O17 P5 1.574800 1_545
O18 P5 1.544273 1_555
O19 P4 1.543039 1_555
O20 P4 1.547130 1_555
O21 P7 1.571657 1_555
O22 P6 1.544273 1_555
O23 P2 1.547130 1_455
O24 P7 1.543039 1_555
O25 P2 1.543039 1_555
O26 P5 1.583762 1_555
O27 P1 1.544273 1_555
O28 P3 1.541721 1_555
O29 P4 1.571657 1_555
O30 P4 1.541721 1_556
O31 P6 1.583762 1_555
