# generated using pymatgen
data_Si6Cl10O7
_symmetry_space_group_name_H-M   'P 1'
_cell_length_a   21.40350000
_cell_length_b   6.45488300
_cell_length_c   8.63825126
_cell_angle_alpha   80.71550137
_cell_angle_beta   90.00000000
_cell_angle_gamma   90.00000000
_symmetry_Int_Tables_number   1
_chemical_formula_structural   Si6Cl10O7
_chemical_formula_sum   'Si12 Cl20 O14'
_cell_volume   1177.80092103
_cell_formula_units_Z   2
loop_
 _symmetry_equiv_pos_site_id
 _symmetry_equiv_pos_as_xyz
  1  'x, y, z'
loop_
 _atom_site_type_symbol
 _atom_site_label
 _atom_site_symmetry_multiplicity
 _atom_site_fract_x
 _atom_site_fract_y
 _atom_site_fract_z
 _atom_site_occupancy
  Si  Si0  1  0.75000000  0.78264500  0.61860200  1
  Si  Si1  1  0.25000000  0.21735500  0.38139800  1
  Si  Si2  1  0.61888700  0.99259500  0.55074100  1
  Si  Si3  1  0.11888700  0.00740500  0.44925900  1
  Si  Si4  1  0.38111300  0.00740500  0.44925900  1
  Si  Si5  1  0.88111300  0.99259500  0.55074100  1
  Si  Si6  1  0.62089200  0.87535600  0.20182300  1
  Si  Si7  1  0.12089200  0.12464400  0.79817700  1
  Si  Si8  1  0.37910800  0.12464400  0.79817700  1
  Si  Si9  1  0.87910800  0.87535600  0.20182300  1
  Si  Si10  1  0.75000000  0.64991500  0.27885300  1
  Si  Si11  1  0.25000000  0.35008500  0.72114700  1
  Cl  Cl0  1  0.75000000  0.55880800  0.81224300  1
  Cl  Cl1  1  0.25000000  0.44119200  0.18775700  1
  Cl  Cl2  1  0.60422500  0.30198900  0.55582400  1
  Cl  Cl3  1  0.10422500  0.69801100  0.44417600  1
  Cl  Cl4  1  0.39577500  0.69801100  0.44417600  1
  Cl  Cl5  1  0.89577500  0.30198900  0.55582400  1
  Cl  Cl6  1  0.55386500  0.82049300  0.68685400  1
  Cl  Cl7  1  0.05386500  0.17950700  0.31314600  1
  Cl  Cl8  1  0.44613500  0.17950700  0.31314600  1
  Cl  Cl9  1  0.94613500  0.82049300  0.68685400  1
  Cl  Cl10  1  0.55150600  0.67394500  0.16707500  1
  Cl  Cl11  1  0.05150600  0.32605500  0.83292500  1
  Cl  Cl12  1  0.44849400  0.32605500  0.83292500  1
  Cl  Cl13  1  0.94849400  0.67394500  0.16707500  1
  Cl  Cl14  1  0.61719500  0.13109900  0.03158500  1
  Cl  Cl15  1  0.11719500  0.86890100  0.96841500  1
  Cl  Cl16  1  0.38280500  0.86890100  0.96841500  1
  Cl  Cl17  1  0.88280500  0.13109900  0.03158500  1
  Cl  Cl18  1  0.75000000  0.34120500  0.25688800  1
  Cl  Cl19  1  0.25000000  0.65879500  0.74311200  1
  O  O0  1  0.75000000  0.66851000  0.46389700  1
  O  O1  1  0.25000000  0.33149000  0.53610300  1
  O  O2  1  0.68841800  0.93034600  0.61874100  1
  O  O3  1  0.18841800  0.06965400  0.38125900  1
  O  O4  1  0.31158200  0.06965400  0.38125900  1
  O  O5  1  0.81158200  0.93034600  0.61874100  1
  O  O6  1  0.61242600  0.94727100  0.37214700  1
  O  O7  1  0.11242600  0.05272900  0.62785300  1
  O  O8  1  0.38757400  0.05272900  0.62785300  1
  O  O9  1  0.88757400  0.94727100  0.37214700  1
  O  O10  1  0.68833100  0.76131300  0.19295800  1
  O  O11  1  0.18833100  0.23868700  0.80704200  1
  O  O12  1  0.31166900  0.23868700  0.80704200  1
  O  O13  1  0.81166900  0.76131300  0.19295800  1
loop_
_geom_bond_atom_site_label_1
_geom_bond_atom_site_label_2
_geom_bond_distance
_geom_bond_site_symmetry_2
Cl0 Si0 2.026257 1_555
Cl1 Si1 2.026257 1_555
Cl2 Si2 2.029069 1_545
Cl3 Si3 2.029069 1_565
Cl4 Si4 2.029069 1_565
Cl5 Si5 2.029069 1_545
Cl6 Si2 2.032709 1_555
Cl7 Si3 2.032709 1_555
Cl8 Si4 2.032709 1_555
Cl9 Si5 2.032709 1_555
Cl10 Si6 2.027749 1_555
Cl11 Si7 2.027749 1_555
Cl12 Si8 2.027749 1_555
Cl13 Si9 2.027749 1_555
Cl14 Si6 2.027461 1_545
Cl15 Si7 2.027461 1_565
Cl16 Si8 2.027461 1_565
Cl17 Si9 2.027461 1_545
Cl18 Si10 2.031945 1_555
Cl19 Si11 2.031945 1_555
O0 Si10 1.622152 1_555
O0 Si0 1.626767 1_555
O1 Si11 1.622152 1_555
O1 Si1 1.626767 1_555
O2 Si2 1.626374 1_555
O2 Si0 1.626849 1_555
O3 Si3 1.626374 1_555
O3 Si1 1.626849 1_555
O4 Si4 1.626374 1_555
O4 Si1 1.626849 1_555
O5 Si5 1.626374 1_555
O5 Si0 1.626849 1_555
O6 Si2 1.621851 1_555
O6 Si6 1.622784 1_555
O7 Si3 1.621851 1_555
O7 Si7 1.622784 1_555
O8 Si4 1.621851 1_555
O8 Si8 1.622784 1_555
O9 Si5 1.621851 1_555
O9 Si9 1.622784 1_555
O10 Si10 1.624085 1_555
O10 Si6 1.627710 1_555
O11 Si11 1.624085 1_555
O11 Si7 1.627710 1_555
O12 Si11 1.624085 1_555
O12 Si8 1.627710 1_555
O13 Si10 1.624085 1_555
O13 Si9 1.627710 1_555
