# generated using pymatgen
data_Hf3Sc4O12
_symmetry_space_group_name_H-M   'P 1'
_cell_length_a   6.17782300
_cell_length_b   6.19325178
_cell_length_c   18.15184033
_cell_angle_alpha   96.70503256
_cell_angle_beta   96.81762719
_cell_angle_gamma   99.64895472
_symmetry_Int_Tables_number   1
_chemical_formula_structural   Hf3Sc4O12
_chemical_formula_sum   'Hf9 Sc12 O36'
_cell_volume   673.18052545
_cell_formula_units_Z   3
loop_
 _symmetry_equiv_pos_site_id
 _symmetry_equiv_pos_as_xyz
  1  'x, y, z'
loop_
 _atom_site_type_symbol
 _atom_site_label
 _atom_site_symmetry_multiplicity
 _atom_site_fract_x
 _atom_site_fract_y
 _atom_site_fract_z
 _atom_site_occupancy
  Hf  Hf0  1  0.33483400  0.33676300  0.33158400  1
  Hf  Hf1  1  0.66919200  0.67024100  0.66509600  1
  Hf  Hf2  1  0.50748500  0.03826100  0.89712800  1
  Hf  Hf3  1  0.06313900  0.88836100  0.20301900  1
  Hf  Hf4  1  0.39425700  0.22064700  0.53789200  1
  Hf  Hf5  1  0.49260700  0.97172500  0.10218700  1
  Hf  Hf6  1  0.82511200  0.29914100  0.43550500  1
  Hf  Hf7  1  0.25109300  0.56205400  0.95568300  1
  Hf  Hf8  1  0.15872300  0.62926500  0.76914800  1
  Sc  Sc0  1  0.83418100  0.37018600  0.22704600  1
  Sc  Sc1  1  0.73558900  0.44236400  0.04564500  1
  Sc  Sc2  1  0.16564400  0.70058200  0.55933800  1
  Sc  Sc3  1  0.27010300  0.44850900  0.13144100  1
  Sc  Sc4  1  0.06515600  0.77331600  0.38035700  1
  Sc  Sc5  1  0.99416100  0.99786800  0.99917400  1
  Sc  Sc6  1  0.60326600  0.78639600  0.46405900  1
  Sc  Sc7  1  0.40051600  0.10623800  0.71436300  1
  Sc  Sc8  1  0.93325300  0.11044400  0.79745400  1
  Sc  Sc9  1  0.60662200  0.89284700  0.28822100  1
  Sc  Sc10  1  0.94154000  0.22656000  0.62175200  1
  Sc  Sc11  1  0.72728200  0.55604900  0.86897900  1
  O  O0  1  0.69884300  0.09253500  0.02559000  1
  O  O1  1  0.16373700  0.31033500  0.22523700  1
  O  O2  1  0.05175100  0.42347800  0.36735900  1
  O  O3  1  0.55900900  0.31791900  0.14026000  1
  O  O4  1  0.49641300  0.64085400  0.55852000  1
  O  O5  1  0.38824800  0.75668400  0.70327800  1
  O  O6  1  0.11681200  0.33943800  0.02126000  1
  O  O7  1  0.96215200  0.57195000  0.14076300  1
  O  O8  1  0.88671000  0.64659200  0.47402800  1
  O  O9  1  0.82193800  0.97780100  0.89195600  1
  O  O10  1  0.85593600  0.69775800  0.27253200  1
  O  O11  1  0.45112900  0.67247800  0.35266800  1
  O  O12  1  0.29461600  0.90328300  0.47450300  1
  O  O13  1  0.22575200  0.98240300  0.81128900  1
  O  O14  1  0.48647700  0.64736900  0.05851600  1
  O  O15  1  0.19042800  0.02817000  0.60625900  1
  O  O16  1  0.78200200  0.00660100  0.68547800  1
  O  O17  1  0.62431100  0.22621000  0.81006700  1
  O  O18  1  0.37404000  0.77994100  0.19249100  1
  O  O19  1  0.21922500  0.99411200  0.31203500  1
  O  O20  1  0.82155000  0.97643600  0.39481000  1
  O  O21  1  0.49906900  0.36071100  0.94039900  1
  O  O22  1  0.77109000  0.01056900  0.18689100  1
  O  O23  1  0.70469800  0.11539300  0.52652800  1
  O  O24  1  0.55107200  0.32854100  0.64678500  1
  O  O25  1  0.15609600  0.30767800  0.72784700  1
  O  O26  1  0.16721700  0.00727300  0.10689200  1
  O  O27  1  0.10257500  0.34124800  0.52204000  1
  O  O28  1  0.04165900  0.43772100  0.85807600  1
  O  O29  1  0.90483400  0.64709600  0.97688200  1
  O  O30  1  0.63464700  0.24686700  0.30743000  1
  O  O31  1  0.49347900  0.33336300  0.43927300  1
  O  O32  1  0.43003700  0.68128100  0.86059700  1
  O  O33  1  0.96896700  0.57973800  0.64099700  1
  O  O34  1  0.83462900  0.67436600  0.77278500  1
  O  O35  1  0.29509900  0.90798700  0.97261000  1
loop_
_geom_bond_atom_site_label_1
_geom_bond_atom_site_label_2
_geom_bond_distance
_geom_bond_site_symmetry_2
Hf0 O11 2.057604 1_555
Hf0 O1 2.062585 1_555
Hf0 O2 2.066780 1_555
Hf0 O31 2.084165 1_555
Hf0 O19 2.096505 1_545
Hf0 O30 2.101022 1_555
Hf1 O16 2.057736 1_565
Hf1 O4 2.068176 1_555
Hf1 O5 2.071179 1_555
Hf1 O34 2.090823 1_555
Hf1 O24 2.093301 1_555
Hf1 O33 2.101981 1_555
Hf2 O9 2.049826 1_545
Hf2 O21 2.070246 1_555
Hf2 O35 2.140066 1_545
Hf2 O13 2.145977 1_545
Hf2 O32 2.187303 1_545
Hf2 O17 2.189053 1_555
Hf2 O0 2.444833 1_556
Hf3 O22 2.073135 1_465
Hf3 O19 2.075380 1_555
Hf3 O26 2.099546 1_565
Hf3 O7 2.100479 1_455
Hf3 O18 2.160084 1_555
Hf3 O10 2.202020 1_455
Hf3 O1 2.555115 1_565
Hf4 O27 2.065429 1_555
Hf4 O24 2.076524 1_555
Hf4 O12 2.112878 1_545
Hf4 O31 2.115764 1_555
Hf4 O23 2.151101 1_555
Hf4 O15 2.181731 1_555
Hf4 O4 2.544995 1_555
Hf5 O14 2.064144 1_555
Hf5 O26 2.069155 1_565
Hf5 O0 2.111920 1_565
Hf5 O22 2.128048 1_565
Hf5 O3 2.129496 1_565
Hf5 O18 2.254398 1_555
Hf5 O35 2.473294 1_554
Hf6 O20 2.043813 1_545
Hf6 O2 2.087022 1_655
Hf6 O31 2.102975 1_555
Hf6 O8 2.138970 1_555
Hf6 O27 2.142142 1_655
Hf6 O23 2.241739 1_555
Hf6 O30 2.437439 1_555
Hf7 O28 2.051645 1_555
Hf7 O6 2.059181 1_556
Hf7 O35 2.095139 1_555
Hf7 O21 2.153896 1_555
Hf7 O14 2.178458 1_556
Hf7 O32 2.285463 1_555
Hf7 O29 2.350981 1_455
Hf8 O25 2.041237 1_555
Hf8 O34 2.075022 1_455
Hf8 O5 2.076227 1_555
Hf8 O32 2.168462 1_555
Hf8 O13 2.184130 1_555
Hf8 O28 2.229949 1_555
Hf8 O33 2.438204 1_455
O0 Sc5 2.098285 1_544
O0 Sc1 2.123546 1_555
O1 Sc3 2.116644 1_555
O1 Sc0 2.132963 1_455
O2 Sc4 2.138381 1_555
O2 Sc0 2.691594 1_455
O3 Sc3 2.076437 1_555
O3 Sc0 2.130014 1_555
O3 Sc1 2.281595 1_555
O4 Sc2 2.138219 1_555
O4 Sc6 2.149048 1_555
O5 Sc7 2.138358 1_565
O6 Sc3 2.091287 1_555
O6 Sc5 2.098192 1_444
O6 Sc1 2.614146 1_455
O7 Sc1 2.076129 1_555
O7 Sc3 2.183176 1_655
O7 Sc0 2.249277 1_555
O8 Sc6 2.078043 1_555
O8 Sc2 2.128754 1_655
O8 Sc4 2.277914 1_655
O9 Sc5 2.083925 1_555
O9 Sc8 2.123691 1_565
O9 Sc11 2.552295 1_555
O10 Sc0 2.075245 1_555
O10 Sc9 2.135609 1_555
O10 Sc4 2.168657 1_655
O11 Sc9 2.086647 1_555
O11 Sc6 2.112540 1_555
O11 Sc4 2.653069 1_555
O12 Sc4 2.073389 1_555
O12 Sc6 2.170786 1_555
O12 Sc2 2.233733 1_555
O13 Sc8 2.091959 1_465
O13 Sc7 2.310370 1_565
O14 Sc1 2.169360 1_555
O14 Sc3 2.303215 1_555
O15 Sc2 2.080003 1_545
O15 Sc10 2.146669 1_455
O15 Sc7 2.175379 1_555
O16 Sc10 2.086572 1_555
O16 Sc8 2.111977 1_555
O16 Sc7 2.629698 1_555
O17 Sc7 2.065291 1_555
O17 Sc11 2.148001 1_555
O17 Sc8 2.175616 1_555
O18 Sc9 2.087986 1_555
O18 Sc3 2.170654 1_555
O19 Sc4 2.133970 1_555
O19 Sc9 2.644503 1_555
O20 Sc4 2.137177 1_655
O20 Sc9 2.167989 1_555
O20 Sc6 2.235992 1_555
O21 Sc1 2.214587 1_556
O21 Sc11 2.315243 1_555
O22 Sc0 2.214965 1_555
O22 Sc9 2.335716 1_545
O23 Sc10 2.094401 1_555
O23 Sc6 2.166536 1_545
O24 Sc7 2.121629 1_555
O24 Sc10 2.669878 1_555
O25 Sc7 2.131741 1_555
O25 Sc10 2.159373 1_455
O25 Sc8 2.278913 1_455
O26 Sc5 2.103743 1_444
O26 Sc3 2.671382 1_555
O27 Sc2 2.204008 1_555
O27 Sc10 2.293688 1_455
O28 Sc8 2.148699 1_455
O28 Sc11 2.209690 1_455
O29 Sc11 2.093338 1_555
O29 Sc1 2.119873 1_556
O29 Sc5 2.127794 1_555
O30 Sc0 2.145578 1_555
O30 Sc9 2.153754 1_545
O32 Sc11 2.106051 1_555
O33 Sc2 2.148335 1_655
O33 Sc10 2.149044 1_555
O34 Sc11 2.106277 1_555
O34 Sc8 2.639498 1_565
O35 Sc5 2.120343 1_455
