# generated using pymatgen
data_LaMg(BO2)5
_symmetry_space_group_name_H-M   'P 1'
_cell_length_a   7.67640500
_cell_length_b   8.89872100
_cell_length_c   12.79646117
_cell_angle_alpha   48.17509275
_cell_angle_beta   90.00000000
_cell_angle_gamma   90.00000000
_symmetry_Int_Tables_number   1
_chemical_formula_structural   LaMg(BO2)5
_chemical_formula_sum   'La4 Mg4 B20 O40'
_cell_volume   651.38858651
_cell_formula_units_Z   4
loop_
 _symmetry_equiv_pos_site_id
 _symmetry_equiv_pos_as_xyz
  1  'x, y, z'
loop_
 _atom_site_type_symbol
 _atom_site_label
 _atom_site_symmetry_multiplicity
 _atom_site_fract_x
 _atom_site_fract_y
 _atom_site_fract_z
 _atom_site_occupancy
  La  La0  1  0.18937700  0.94950300  0.23523400  1
  La  La1  1  0.68937700  0.05049700  0.26476600  1
  La  La2  1  0.81062300  0.05049700  0.76476600  1
  La  La3  1  0.31062300  0.94950300  0.73523400  1
  Mg  Mg0  1  0.41271000  0.48854500  0.12104400  1
  Mg  Mg1  1  0.91271000  0.51145500  0.37895600  1
  Mg  Mg2  1  0.58729000  0.51145500  0.87895600  1
  Mg  Mg3  1  0.08729000  0.48854500  0.62104400  1
  B  B0  1  0.67062000  0.90165800  0.61088600  1
  B  B1  1  0.81510600  0.48750400  0.08462900  1
  B  B2  1  0.46695400  0.73132500  0.55200100  1
  B  B3  1  0.31510600  0.51249600  0.41537100  1
  B  B4  1  0.96695400  0.26867500  0.94799900  1
  B  B5  1  0.91564500  0.64253100  0.76923200  1
  B  B6  1  0.17062000  0.09834200  0.88911400  1
  B  B7  1  0.32938000  0.09834200  0.38911400  1
  B  B8  1  0.08435500  0.35746900  0.23076800  1
  B  B9  1  0.41564500  0.35746900  0.73076800  1
  B  B10  1  0.53304600  0.26867500  0.44799900  1
  B  B11  1  0.90591100  0.84142900  0.50905000  1
  B  B12  1  0.82938000  0.90165800  0.11088600  1
  B  B13  1  0.09408900  0.15857100  0.49095000  1
  B  B14  1  0.59408900  0.84142900  0.00905000  1
  B  B15  1  0.18489400  0.51249600  0.91537100  1
  B  B16  1  0.40591100  0.15857100  0.99095000  1
  B  B17  1  0.68489400  0.48750400  0.58462900  1
  B  B18  1  0.03304600  0.73132500  0.05200100  1
  B  B19  1  0.58435500  0.64253100  0.26923200  1
  O  O0  1  0.42224500  0.67350800  0.31532200  1
  O  O1  1  0.47672100  0.23361400  0.35457000  1
  O  O2  1  0.52327900  0.76638600  0.64543000  1
  O  O3  1  0.77865600  0.96828300  0.49154700  1
  O  O4  1  0.03559000  0.12183400  0.60639800  1
  O  O5  1  0.92224500  0.32649200  0.18467800  1
  O  O6  1  0.77685200  0.78181100  0.74212500  1
  O  O7  1  0.37306900  0.31821000  0.49006300  1
  O  O8  1  0.65307100  0.43754000  0.06927800  1
  O  O9  1  0.10404300  0.91920600  0.91382900  1
  O  O10  1  0.97672100  0.76638600  0.14543000  1
  O  O11  1  0.27685200  0.21818900  0.75787500  1
  O  O12  1  0.89595700  0.08079400  0.08617100  1
  O  O13  1  0.34692900  0.56246000  0.93072200  1
  O  O14  1  0.60404300  0.08079400  0.58617100  1
  O  O15  1  0.22134400  0.03171700  0.50845300  1
  O  O16  1  0.84692900  0.43754000  0.56927800  1
  O  O17  1  0.34492600  0.56260900  0.62454400  1
  O  O18  1  0.02327900  0.23361400  0.85457000  1
  O  O19  1  0.72134400  0.96828300  0.99154700  1
  O  O20  1  0.15307100  0.56246000  0.43072200  1
  O  O21  1  0.53662000  0.67702800  0.14097500  1
  O  O22  1  0.84492600  0.43739100  0.87545600  1
  O  O23  1  0.65507400  0.43739100  0.37545600  1
  O  O24  1  0.22314800  0.21818900  0.25787500  1
  O  O25  1  0.39595700  0.91920600  0.41382900  1
  O  O26  1  0.03662000  0.32297200  0.35902500  1
  O  O27  1  0.15507400  0.56260900  0.12454400  1
  O  O28  1  0.87306900  0.68179000  0.00993700  1
  O  O29  1  0.27865600  0.03171700  0.00845300  1
  O  O30  1  0.12693100  0.31821000  0.99006300  1
  O  O31  1  0.46338000  0.32297200  0.85902500  1
  O  O32  1  0.72314800  0.78181100  0.24212500  1
  O  O33  1  0.57775500  0.32649200  0.68467800  1
  O  O34  1  0.53559000  0.87816600  0.89360200  1
  O  O35  1  0.62693100  0.68179000  0.50993700  1
  O  O36  1  0.46441000  0.12183400  0.10639800  1
  O  O37  1  0.96441000  0.87816600  0.39360200  1
  O  O38  1  0.96338000  0.67702800  0.64097500  1
  O  O39  1  0.07775500  0.67350800  0.81532200  1
loop_
_geom_bond_atom_site_label_1
_geom_bond_atom_site_label_2
_geom_bond_distance
_geom_bond_site_symmetry_2
La0 O37 2.403418 1_455
La0 O36 2.480972 1_565
La0 O29 2.568054 1_565
La0 O20 2.589757 1_555
La0 O24 2.606096 1_565
La0 O0 2.630731 1_555
La0 O25 2.643603 1_555
La0 O12 2.665438 1_465
La0 O30 2.666259 1_564
La0 O10 3.022950 1_455
La1 O36 2.403418 1_555
La1 O37 2.480972 1_545
La1 O3 2.568054 1_545
La1 O8 2.589757 1_555
La1 O32 2.606096 1_545
La1 O5 2.630731 1_555
La1 O12 2.643603 1_555
La1 O25 2.665438 1_545
La1 O35 2.666259 1_545
La1 O1 3.022950 1_555
La2 O4 2.403418 1_655
La2 O34 2.480972 1_545
La2 O19 2.568054 1_545
La2 O16 2.589757 1_555
La2 O6 2.606096 1_545
La2 O33 2.630731 1_555
La2 O14 2.643603 1_555
La2 O9 2.665438 1_645
La2 O28 2.666259 1_546
La2 O18 3.022950 1_655
La3 O34 2.403418 1_555
La3 O4 2.480972 1_565
La3 O15 2.568054 1_565
La3 O13 2.589757 1_555
La3 O11 2.606096 1_565
La3 O39 2.630731 1_555
La3 O9 2.643603 1_555
La3 O14 2.665438 1_565
La3 O7 2.666259 1_565
La3 O2 3.022950 1_555
Mg0 O21 2.086510 1_555
Mg0 O27 2.094546 1_555
Mg0 O8 2.109556 1_555
Mg0 O13 2.117200 1_554
Mg0 O1 2.297030 1_555
Mg0 O24 2.313666 1_555
Mg1 O26 2.086510 1_655
Mg1 O23 2.094546 1_555
Mg1 O20 2.109556 1_655
Mg1 O16 2.117200 1_555
Mg1 O10 2.297030 1_555
Mg1 O32 2.313666 1_555
Mg2 O31 2.086510 1_555
Mg2 O22 2.094546 1_555
Mg2 O13 2.109556 1_555
Mg2 O8 2.117200 1_556
Mg2 O2 2.297030 1_555
Mg2 O6 2.313666 1_555
Mg3 O38 2.086510 1_455
Mg3 O17 2.094546 1_555
Mg3 O16 2.109556 1_455
Mg3 O20 2.117200 1_555
Mg3 O18 2.297030 1_555
Mg3 O11 2.313666 1_555
B0 O3 1.471000 1_555
B0 O2 1.487953 1_555
B0 O14 1.493292 1_565
B0 O6 1.494663 1_555
B1 O28 1.377202 1_555
B1 O8 1.378373 1_555
B1 O5 1.386325 1_555
B2 O17 1.460986 1_555
B2 O2 1.486992 1_555
B2 O25 1.508609 1_555
B2 O35 1.519404 1_555
B3 O7 1.377202 1_555
B3 O20 1.378373 1_555
B3 O0 1.386325 1_555
B4 O22 1.460986 1_555
B4 O18 1.486992 1_655
B4 O12 1.508609 1_556
B4 O30 1.519404 1_655
B5 O22 1.471510 1_555
B5 O39 1.479614 1_655
B5 O6 1.489370 1_555
B5 O38 1.500069 1_555
B6 O29 1.471000 1_556
B6 O18 1.487953 1_555
B6 O9 1.493292 1_545
B6 O11 1.494663 1_555
B7 O15 1.471000 1_555
B7 O1 1.487953 1_555
B7 O25 1.493292 1_545
B7 O24 1.494663 1_555
B8 O27 1.471510 1_555
B8 O5 1.479614 1_455
B8 O24 1.489370 1_555
B8 O26 1.500069 1_555
B9 O17 1.471510 1_555
B9 O33 1.479614 1_555
B9 O11 1.489370 1_555
B9 O31 1.500069 1_555
B10 O23 1.460986 1_555
B10 O1 1.486992 1_555
B10 O14 1.508609 1_555
B10 O7 1.519404 1_555
B11 O37 1.359005 1_555
B11 O38 1.375095 1_555
B11 O3 1.393374 1_555
B12 O19 1.471000 1_554
B12 O10 1.487953 1_555
B12 O12 1.493292 1_565
B12 O32 1.494663 1_555
B13 O4 1.359005 1_555
B13 O26 1.375095 1_555
B13 O15 1.393374 1_555
B14 O34 1.359005 1_554
B14 O21 1.375095 1_555
B14 O19 1.393374 1_554
B15 O30 1.377202 1_555
B15 O13 1.378373 1_555
B15 O39 1.386325 1_555
B16 O36 1.359005 1_556
B16 O31 1.375095 1_555
B16 O29 1.393374 1_556
B17 O35 1.377202 1_555
B17 O16 1.378373 1_555
B17 O33 1.386325 1_555
B18 O27 1.460986 1_555
B18 O10 1.486992 1_455
B18 O9 1.508609 1_554
B18 O28 1.519404 1_455
B19 O23 1.471510 1_555
B19 O0 1.479614 1_555
B19 O32 1.489370 1_555
B19 O21 1.500069 1_555
