# generated using pymatgen
data_Hg(SbS2)4
_symmetry_space_group_name_H-M   'P 1'
_cell_length_a   11.25035757
_cell_length_b   11.25035757
_cell_length_c   30.50976816
_cell_angle_alpha   76.50043509
_cell_angle_beta   76.50043509
_cell_angle_gamma   20.43696919
_symmetry_Int_Tables_number   1
_chemical_formula_structural   Hg(SbS2)4
_chemical_formula_sum   'Hg4 Sb16 S32'
_cell_volume   1309.91201657
_cell_formula_units_Z   4
loop_
 _symmetry_equiv_pos_site_id
 _symmetry_equiv_pos_as_xyz
  1  'x, y, z'
loop_
 _atom_site_type_symbol
 _atom_site_label
 _atom_site_symmetry_multiplicity
 _atom_site_fract_x
 _atom_site_fract_y
 _atom_site_fract_z
 _atom_site_occupancy
  Hg  Hg0  1  0.50000000  0.50000000  -0.00000000  1
  Hg  Hg1  1  0.50000000  0.50000000  0.50000000  1
  Hg  Hg2  1  0.00641439  -0.00641439  0.25000000  1
  Hg  Hg3  1  -0.00641439  0.00641439  0.75000000  1
  Sb  Sb0  1  0.88725263  0.96801085  0.11823786  1
  Sb  Sb1  1  0.03198915  0.11274737  0.38176214  1
  Sb  Sb2  1  0.11274737  0.03198915  0.88176214  1
  Sb  Sb3  1  0.96801085  0.88725263  0.61823786  1
  Sb  Sb4  1  0.73203166  0.83603701  0.04286427  1
  Sb  Sb5  1  0.16396299  0.26796834  0.45713573  1
  Sb  Sb6  1  0.26796834  0.16396299  0.95713573  1
  Sb  Sb7  1  0.83603701  0.73203166  0.54286427  1
  Sb  Sb8  1  0.52885050  0.61583980  0.13176613  1
  Sb  Sb9  1  0.38416020  0.47114950  0.36823387  1
  Sb  Sb10  1  0.47114950  0.38416020  0.86823387  1
  Sb  Sb11  1  0.61583980  0.52885050  0.63176613  1
  Sb  Sb12  1  0.63903057  0.79262464  0.20772958  1
  Sb  Sb13  1  0.20737536  0.36096943  0.29227042  1
  Sb  Sb14  1  0.36096943  0.20737536  0.79227042  1
  Sb  Sb15  1  0.79262464  0.63903057  0.70772958  1
  S  S0  1  0.41681396  0.40191734  0.05924786  1
  S  S1  1  0.59808266  0.58318604  0.44075214  1
  S  S2  1  0.58318604  0.59808266  0.94075214  1
  S  S3  1  0.40191734  0.41681396  0.55924786  1
  S  S4  1  0.79385731  0.83907584  0.22917245  1
  S  S5  1  0.16092416  0.20614269  0.27082755  1
  S  S6  1  0.20614269  0.16092416  0.77082755  1
  S  S7  1  0.83907584  0.79385731  0.72917245  1
  S  S8  1  0.45969080  0.46364479  0.17134713  1
  S  S9  1  0.53635521  0.54030920  0.32865287  1
  S  S10  1  0.54030920  0.53635521  0.82865287  1
  S  S11  1  0.46364479  0.45969080  0.67134713  1
  S  S12  1  0.26393385  0.28955727  0.14837400  1
  S  S13  1  0.71044273  0.73606615  0.35162600  1
  S  S14  1  0.73606615  0.71044273  0.85162600  1
  S  S15  1  0.28955727  0.26393385  0.64837400  1
  S  S16  1  0.09460859  0.08638839  0.19069525  1
  S  S17  1  0.91361161  0.90539141  0.30930475  1
  S  S18  1  0.90539141  0.91361161  0.80930475  1
  S  S19  1  0.08638839  0.09460859  0.69069525  1
  S  S20  1  0.67184868  0.69565145  0.02064671  1
  S  S21  1  0.30434855  0.32815132  0.47935329  1
  S  S22  1  0.32815132  0.30434855  0.97935329  1
  S  S23  1  0.69565145  0.67184868  0.52064671  1
  S  S24  1  0.03689088  0.03962733  0.07860571  1
  S  S25  1  0.96037267  0.96310912  0.42139429  1
  S  S26  1  0.96310912  0.96037267  0.92139429  1
  S  S27  1  0.03962733  0.03689088  0.57860571  1
  S  S28  1  0.23491795  0.21041387  0.10177562  1
  S  S29  1  0.78958613  0.76508205  0.39822438  1
  S  S30  1  0.76508205  0.78958613  0.89822438  1
  S  S31  1  0.21041387  0.23491795  0.60177562  1
loop_
_geom_bond_atom_site_label_1
_geom_bond_atom_site_label_2
_geom_bond_distance
_geom_bond_site_symmetry_2
Hg0 S2 2.361222 1_554
Hg0 S0 2.361222 1_555
Hg1 S1 2.361222 1_555
Hg1 S3 2.361222 1_555
Hg2 S16 2.360023 1_555
Hg2 S17 2.360023 1_445
Hg3 S18 2.360023 1_445
Hg3 S19 2.360023 1_555
S0 Sb0 2.646865 1_545
S0 Sb0 2.920618 1_455
S1 Sb1 2.646865 1_655
S1 Sb1 2.920618 1_565
S2 Sb2 2.646865 1_565
S2 Sb2 2.920618 1_655
S3 Sb3 2.646865 1_455
S3 Sb3 2.920618 1_545
S4 Sb12 2.476446 1_555
S4 Sb13 2.594433 1_655
S4 Sb13 2.908244 1_565
S5 Sb13 2.476446 1_555
S5 Sb12 2.594433 1_545
S5 Sb12 2.908244 1_455
S6 Sb14 2.476446 1_555
S6 Sb15 2.594433 1_455
S6 Sb15 2.908244 1_545
S7 Sb15 2.476446 1_555
S7 Sb14 2.594433 1_565
S7 Sb14 2.908244 1_655
S8 Sb8 2.467437 1_555
S8 Sb0 2.677299 1_545
S8 Sb0 2.896842 1_455
S9 Sb9 2.467437 1_555
S9 Sb1 2.677299 1_655
S9 Sb1 2.896842 1_565
S10 Sb10 2.467437 1_555
S10 Sb2 2.677299 1_565
S10 Sb2 2.896842 1_655
S11 Sb11 2.467437 1_555
S11 Sb3 2.677299 1_455
S11 Sb3 2.896842 1_545
S12 S28 2.067128 1_555
S12 Sb12 2.639950 1_545
S12 Sb12 3.001392 1_455
S13 S29 2.067128 1_555
S13 Sb13 2.639950 1_655
S13 Sb13 3.001392 1_565
S14 S30 2.067128 1_555
S14 Sb14 2.639950 1_565
S14 Sb14 3.001392 1_655
S15 S31 2.067128 1_555
S15 Sb15 2.639950 1_455
S15 Sb15 3.001392 1_545
S16 Sb8 2.645358 1_545
S16 Sb8 2.918037 1_455
S17 Sb9 2.645358 1_655
S17 Sb9 2.918037 1_565
S18 Sb10 2.645358 1_565
S18 Sb10 2.918037 1_655
S19 Sb11 2.645358 1_455
S19 Sb11 2.918037 1_545
S20 Sb4 2.476010 1_555
S20 Sb6 2.576444 1_564
S20 Sb6 2.945249 1_654
S21 Sb5 2.476010 1_555
S21 Sb7 2.576444 1_455
S21 Sb7 2.945249 1_545
S22 Sb6 2.476010 1_555
S22 Sb4 2.576444 1_546
S22 Sb4 2.945249 1_456
S23 Sb7 2.476010 1_555
S23 Sb5 2.576444 1_655
S23 Sb5 2.945249 1_565
S24 Sb0 2.466211 1_445
S24 Sb8 2.668616 1_545
S24 Sb8 2.909287 1_455
S25 Sb1 2.466211 1_665
S25 Sb9 2.668616 1_655
S25 Sb9 2.909287 1_565
S26 Sb2 2.466211 1_665
S26 Sb10 2.668616 1_565
S26 Sb10 2.909287 1_655
S27 Sb3 2.466211 1_445
S27 Sb11 2.668616 1_455
S27 Sb11 2.909287 1_545
S28 Sb4 2.635122 1_545
S28 Sb4 2.998578 1_455
S29 Sb5 2.635122 1_655
S29 Sb5 2.998578 1_565
S30 Sb6 2.635122 1_565
S30 Sb6 2.998578 1_655
S31 Sb7 2.635122 1_455
S31 Sb7 2.998578 1_545
