# generated using pymatgen
data_Eu2Ti2O7
_symmetry_space_group_name_H-M   'P 1'
_cell_length_a   7.23033007
_cell_length_b   7.23031958
_cell_length_c   7.22911643
_cell_angle_alpha   60.00683460
_cell_angle_beta   60.00688337
_cell_angle_gamma   59.98960785
_symmetry_Int_Tables_number   1
_chemical_formula_structural   Eu2Ti2O7
_chemical_formula_sum   'Eu4 Ti4 O14'
_cell_volume   267.23708672
_cell_formula_units_Z   2
loop_
 _symmetry_equiv_pos_site_id
 _symmetry_equiv_pos_as_xyz
  1  'x, y, z'
loop_
 _atom_site_type_symbol
 _atom_site_label
 _atom_site_symmetry_multiplicity
 _atom_site_fract_x
 _atom_site_fract_y
 _atom_site_fract_z
 _atom_site_occupancy
  Eu  Eu0  1  0.12499954  0.62499958  0.12500120  1
  Eu  Eu1  1  0.12500006  0.12500074  0.62499814  1
  Eu  Eu2  1  0.62499916  0.12500052  0.12499963  1
  Eu  Eu3  1  0.12500029  0.12499998  0.12499954  1
  Ti  Ti0  1  0.62499980  0.12499829  0.62500191  1
  Ti  Ti1  1  0.62499896  0.62499855  0.12500160  1
  Ti  Ti2  1  0.12499868  0.62500056  0.62500000  1
  Ti  Ti3  1  0.62499997  0.62499896  0.62500033  1
  O  O0  1  0.70133296  0.70133261  0.29866704  1
  O  O1  1  0.95122461  0.54877972  0.54877702  1
  O  O2  1  0.54877458  0.95122685  0.95122110  1
  O  O3  1  0.95133565  0.95133512  0.54866104  1
  O  O4  1  0.95122782  0.54877379  0.95122205  1
  O  O5  1  0.54877904  0.95122515  0.54877781  1
  O  O6  1  0.29877232  0.70122673  0.29877759  1
  O  O7  1  0.29877501  0.70122109  0.70122286  1
  O  O8  1  0.70122742  0.29877267  0.29877772  1
  O  O9  1  0.70122069  0.29877583  0.70122193  1
  O  O10  1  0.54866632  0.54866739  0.95133341  1
  O  O11  1  0.29866501  0.29866529  0.70133874  1
  O  O12  1  0.24999859  0.25000082  0.25004781  1
  O  O13  1  0.00000154  -0.00000124  0.99995251  1
loop_
_geom_bond_atom_site_label_1
_geom_bond_atom_site_label_2
_geom_bond_distance
_geom_bond_site_symmetry_2
Eu0 O12 2.213719 1_555
Eu0 O13 2.213721 1_564
Eu0 O0 2.533946 1_455
Eu0 O10 2.533948 1_554
Eu0 O6 2.534473 1_555
Eu0 O4 2.534476 1_454
Eu0 O1 2.534539 1_455
Eu0 O7 2.534553 1_554
Eu1 O12 2.213450 1_555
Eu1 O13 2.213474 1_555
Eu1 O3 2.533893 1_445
Eu1 O11 2.533908 1_555
Eu1 O1 2.534537 1_455
Eu1 O7 2.534537 1_545
Eu1 O9 2.534541 1_455
Eu1 O5 2.534542 1_545
Eu2 O12 2.213734 1_555
Eu2 O13 2.213745 1_654
Eu2 O10 2.533942 1_554
Eu2 O0 2.533948 1_545
Eu2 O2 2.534478 1_544
Eu2 O8 2.534485 1_555
Eu2 O9 2.534548 1_554
Eu2 O5 2.534553 1_545
Eu3 O13 2.213961 1_554
Eu3 O12 2.213964 1_555
Eu3 O11 2.533933 1_554
Eu3 O3 2.533936 1_445
Eu3 O6 2.534509 1_545
Eu3 O4 2.534512 1_454
Eu3 O8 2.534513 1_455
Eu3 O2 2.534521 1_544
O0 Ti1 1.968659 1_555
O0 Ti3 1.968700 1_555
O1 Ti2 1.968358 1_655
O1 Ti3 1.968436 1_555
O2 Ti0 1.968414 1_565
O2 Ti1 1.968463 1_556
O3 Ti2 1.968697 1_655
O3 Ti0 1.968707 1_565
O4 Ti2 1.968430 1_655
O4 Ti1 1.968468 1_556
O5 Ti0 1.968356 1_565
O5 Ti3 1.968441 1_555
O6 Ti2 1.968435 1_555
O6 Ti1 1.968452 1_555
O7 Ti2 1.968370 1_555
O7 Ti3 1.968436 1_555
O8 Ti1 1.968444 1_555
O8 Ti0 1.968445 1_555
O9 Ti0 1.968364 1_555
O9 Ti3 1.968423 1_555
O10 Ti1 1.968654 1_556
O10 Ti3 1.968700 1_555
O11 Ti2 1.968705 1_555
O11 Ti0 1.968706 1_555
