# generated using pymatgen
data_KErP2S7
_symmetry_space_group_name_H-M   'P 1'
_cell_length_a   12.45682600
_cell_length_b   9.01621200
_cell_length_c   9.70883023
_cell_angle_alpha   89.82705304
_cell_angle_beta   90.00000000
_cell_angle_gamma   90.00000000
_symmetry_Int_Tables_number   1
_chemical_formula_structural   KErP2S7
_chemical_formula_sum   'K4 Er4 P8 S28'
_cell_volume   1090.42661080
_cell_formula_units_Z   4
loop_
 _symmetry_equiv_pos_site_id
 _symmetry_equiv_pos_as_xyz
  1  'x, y, z'
loop_
 _atom_site_type_symbol
 _atom_site_label
 _atom_site_symmetry_multiplicity
 _atom_site_fract_x
 _atom_site_fract_y
 _atom_site_fract_z
 _atom_site_occupancy
  K  K0  1  0.30916800  0.13018500  0.39028600  1
  K  K1  1  0.80916800  0.36981500  0.60971400  1
  K  K2  1  0.69083200  0.86981500  0.60971400  1
  K  K3  1  0.19083200  0.63018500  0.39028600  1
  Er  Er0  1  0.64225000  0.10671800  0.14140400  1
  Er  Er1  1  0.14225000  0.39328200  0.85859600  1
  Er  Er2  1  0.35775000  0.89328200  0.85859600  1
  Er  Er3  1  0.85775000  0.60671800  0.14140400  1
  P  P0  1  0.60736300  0.47610000  0.27345400  1
  P  P1  1  0.89263700  0.97610000  0.27345400  1
  P  P2  1  0.53414500  0.19759400  0.82338800  1
  P  P3  1  0.03414500  0.30240600  0.17661200  1
  P  P4  1  0.96585500  0.69759400  0.82338800  1
  P  P5  1  0.46585500  0.80240600  0.17661200  1
  P  P6  1  0.39263700  0.52390000  0.72654600  1
  P  P7  1  0.10736300  0.02390000  0.72654600  1
  S  S0  1  0.71315200  0.61320500  0.36760600  1
  S  S1  1  0.94543500  0.32309400  0.00183600  1
  S  S2  1  0.94188600  0.78693800  0.36516600  1
  S  S3  1  0.55456500  0.82309400  0.00183600  1
  S  S4  1  0.44543500  0.17690600  0.99816400  1
  S  S5  1  0.82017400  0.91867100  0.09246800  1
  S  S6  1  0.80861100  0.64653400  0.85635000  1
  S  S7  1  0.05456500  0.67690600  0.99816400  1
  S  S8  1  0.45260000  0.57671000  0.24271600  1
  S  S9  1  0.04740000  0.07671000  0.24271600  1
  S  S10  1  0.19138900  0.35346600  0.14365000  1
  S  S11  1  0.21315200  0.88679500  0.63239400  1
  S  S12  1  0.44188600  0.71306200  0.63483400  1
  S  S13  1  0.28684800  0.38679500  0.63239400  1
  S  S14  1  0.55811400  0.28693800  0.36516600  1
  S  S15  1  0.53077000  0.93197000  0.32491400  1
  S  S16  1  0.67982600  0.41867100  0.09246800  1
  S  S17  1  0.05811400  0.21306200  0.63483400  1
  S  S18  1  0.96923000  0.43197000  0.32491400  1
  S  S19  1  0.95260000  0.92329000  0.75728400  1
  S  S20  1  0.32017400  0.58132900  0.90753200  1
  S  S21  1  0.69138900  0.14653400  0.85635000  1
  S  S22  1  0.30861100  0.85346600  0.14365000  1
  S  S23  1  0.78684800  0.11320500  0.36760600  1
  S  S24  1  0.03077000  0.56803000  0.67508600  1
  S  S25  1  0.46923000  0.06803000  0.67508600  1
  S  S26  1  0.54740000  0.42329000  0.75728400  1
  S  S27  1  0.17982600  0.08132900  0.90753200  1
loop_
_geom_bond_atom_site_label_1
_geom_bond_atom_site_label_2
_geom_bond_distance
_geom_bond_site_symmetry_2
K0 S13 3.314870 1_555
K0 S15 3.350179 1_545
K0 S14 3.416365 1_555
K0 S11 3.426411 1_545
K0 S10 3.451095 1_555
K0 S25 3.453380 1_555
K0 S22 3.463348 1_545
K0 S9 3.594740 1_555
K1 S23 3.314870 1_555
K1 S24 3.350179 1_655
K1 S17 3.416365 1_655
K1 S0 3.426411 1_555
K1 S21 3.451095 1_555
K1 S18 3.453380 1_555
K1 S6 3.463348 1_555
K1 S26 3.594740 1_555
K2 S0 3.314870 1_555
K2 S25 3.350179 1_565
K2 S12 3.416365 1_555
K2 S23 3.426411 1_565
K2 S6 3.451095 1_555
K2 S15 3.453380 1_555
K2 S21 3.463348 1_565
K2 S19 3.594740 1_555
K3 S11 3.314870 1_555
K3 S18 3.350179 1_455
K3 S2 3.416365 1_455
K3 S13 3.426411 1_555
K3 S22 3.451095 1_555
K3 S24 3.453380 1_555
K3 S10 3.463348 1_555
K3 S8 3.594740 1_555
Er0 S15 2.751045 1_545
Er0 S5 2.831520 1_545
Er0 S23 2.841080 1_555
Er0 S21 2.856019 1_554
Er0 S4 2.887901 1_554
Er0 S16 2.889234 1_555
Er0 S14 2.911988 1_555
Er0 S3 3.096687 1_545
Er1 S24 2.751045 1_555
Er1 S20 2.831520 1_555
Er1 S13 2.841080 1_555
Er1 S10 2.856019 1_556
Er1 S1 2.887901 1_456
Er1 S27 2.889234 1_555
Er1 S17 2.911988 1_555
Er1 S7 3.096687 1_555
Er2 S25 2.751045 1_565
Er2 S27 2.831520 1_565
Er2 S11 2.841080 1_555
Er2 S22 2.856019 1_556
Er2 S3 2.887901 1_556
Er2 S20 2.889234 1_555
Er2 S12 2.911988 1_555
Er2 S4 3.096687 1_565
Er3 S18 2.751045 1_555
Er3 S16 2.831520 1_555
Er3 S0 2.841080 1_555
Er3 S6 2.856019 1_554
Er3 S7 2.887901 1_654
Er3 S5 2.889234 1_555
Er3 S2 2.911988 1_555
Er3 S1 3.096687 1_555
P0 S14 2.017140 1_555
P0 S0 2.026600 1_555
P0 S16 2.043530 1_555
P0 S8 2.151028 1_555
P1 S2 2.017140 1_555
P1 S23 2.026600 1_565
P1 S5 2.043530 1_555
P1 S9 2.151028 1_665
P2 S25 2.025294 1_555
P2 S4 2.033071 1_555
P2 S21 2.037206 1_555
P2 S26 2.138268 1_555
P3 S18 2.025294 1_455
P3 S1 2.033071 1_455
P3 S10 2.037206 1_555
P3 S9 2.138268 1_555
P4 S24 2.025294 1_655
P4 S7 2.033071 1_655
P4 S6 2.037206 1_555
P4 S19 2.138268 1_555
P5 S15 2.025294 1_555
P5 S3 2.033071 1_555
P5 S22 2.037206 1_555
P5 S8 2.138268 1_555
P6 S12 2.017140 1_555
P6 S13 2.026600 1_555
P6 S20 2.043530 1_555
P6 S26 2.151028 1_555
P7 S17 2.017140 1_555
P7 S11 2.026600 1_545
P7 S27 2.043530 1_555
P7 S19 2.151028 1_445
