# generated using pymatgen
data_Zr(Ni2P)2
_symmetry_space_group_name_H-M   'P 1'
_cell_length_a   3.54093182
_cell_length_b   6.89738781
_cell_length_c   6.89754305
_cell_angle_alpha   89.99913925
_cell_angle_beta   90.00000000
_cell_angle_gamma   90.00000000
_symmetry_Int_Tables_number   1
_chemical_formula_structural   Zr(Ni2P)2
_chemical_formula_sum   'Zr2 Ni8 P4'
_cell_volume   168.45993526
_cell_formula_units_Z   2
loop_
 _symmetry_equiv_pos_site_id
 _symmetry_equiv_pos_as_xyz
  1  'x, y, z'
loop_
 _atom_site_type_symbol
 _atom_site_label
 _atom_site_symmetry_multiplicity
 _atom_site_fract_x
 _atom_site_fract_y
 _atom_site_fract_z
 _atom_site_occupancy
  Zr  Zr0  1  0.50000000  -0.00000000  0.00000000  1
  Zr  Zr1  1  0.00000000  0.50000000  0.50000000  1
  Ni  Ni0  1  0.00000000  0.08395266  0.33412083  1
  Ni  Ni1  1  0.50000000  0.16587518  0.58395562  1
  Ni  Ni2  1  0.50000000  0.83412482  0.41604438  1
  Ni  Ni3  1  -0.00000000  0.91604734  0.66587917  1
  Ni  Ni4  1  0.50000000  0.58401497  0.16588898  1
  Ni  Ni5  1  0.50000000  0.41598503  0.83411102  1
  Ni  Ni6  1  0.00000000  0.33411008  0.08402053  1
  Ni  Ni7  1  0.00000000  0.66588992  0.91597947  1
  P  P0  1  0.00000000  0.21940019  0.78062778  1
  P  P1  1  0.50000000  0.71936342  0.71938848  1
  P  P2  1  0.50000000  0.28063658  0.28061152  1
  P  P3  1  0.00000000  0.78059981  0.21937222  1
loop_
_geom_bond_atom_site_label_1
_geom_bond_atom_site_label_2
_geom_bond_distance
_geom_bond_site_symmetry_2
Ni0 P3 2.237050 1_545
Ni0 P2 2.260782 1_555
Ni0 P2 2.260782 1_455
Ni1 P2 2.237040 1_555
Ni1 P0 2.260774 1_555
Ni1 P0 2.260774 1_655
Ni2 P1 2.237040 1_555
Ni2 P3 2.260774 1_555
Ni2 P3 2.260774 1_655
Ni3 P0 2.237050 1_565
Ni3 P1 2.260782 1_555
Ni3 P1 2.260782 1_455
Ni4 P2 2.237129 1_555
Ni4 P3 2.260349 1_655
Ni4 P3 2.260349 1_555
Ni5 P1 2.237129 1_555
Ni5 P0 2.260349 1_655
Ni5 P0 2.260349 1_555
Ni6 P0 2.237251 1_554
Ni6 P2 2.260374 1_555
Ni6 P2 2.260374 1_455
Ni7 P3 2.237251 1_556
Ni7 P1 2.260374 1_455
Ni7 P1 2.260374 1_555
P0 Zr1 2.737224 1_555
P0 Zr0 2.777424 1_556
P0 Zr0 2.777424 1_456
P1 Zr0 2.737365 1_566
P1 Zr1 2.777371 1_555
P1 Zr1 2.777371 1_655
P2 Zr0 2.737365 1_555
P2 Zr1 2.777371 1_555
P2 Zr1 2.777371 1_655
P3 Zr1 2.737224 1_555
P3 Zr0 2.777424 1_565
P3 Zr0 2.777424 1_465
