# generated using pymatgen
data_Cr2(PO4)3
_symmetry_space_group_name_H-M   'P 1'
_cell_length_a   8.57350300
_cell_length_b   8.58508900
_cell_length_c   12.01558800
_cell_angle_alpha   90.00000000
_cell_angle_beta   90.00000000
_cell_angle_gamma   90.00000000
_symmetry_Int_Tables_number   1
_chemical_formula_structural   Cr2(PO4)3
_chemical_formula_sum   'Cr8 P12 O48'
_cell_volume   884.39877918
_cell_formula_units_Z   4
loop_
 _symmetry_equiv_pos_site_id
 _symmetry_equiv_pos_as_xyz
  1  'x, y, z'
loop_
 _atom_site_type_symbol
 _atom_site_label
 _atom_site_symmetry_multiplicity
 _atom_site_fract_x
 _atom_site_fract_y
 _atom_site_fract_z
 _atom_site_occupancy
  Cr  Cr0  1  0.75140700  0.53438600  0.88204900  1
  Cr  Cr1  1  0.75140700  0.96561400  0.11795100  1
  Cr  Cr2  1  0.74859300  0.03438600  0.61795100  1
  Cr  Cr3  1  0.74859300  0.46561400  0.38204900  1
  Cr  Cr4  1  0.25140700  0.53438600  0.61795100  1
  Cr  Cr5  1  0.25140700  0.96561400  0.38204900  1
  Cr  Cr6  1  0.24859300  0.03438600  0.88204900  1
  Cr  Cr7  1  0.24859300  0.46561400  0.11795100  1
  P  P0  1  0.96665900  0.75000000  0.50000000  1
  P  P1  1  0.89274100  0.89055700  0.85495500  1
  P  P2  1  0.89274100  0.60944300  0.14504500  1
  P  P3  1  0.60725900  0.39055700  0.64504500  1
  P  P4  1  0.60725900  0.10944300  0.35495500  1
  P  P5  1  0.53334100  0.25000000  0.00000000  1
  P  P6  1  0.46665900  0.75000000  0.00000000  1
  P  P7  1  0.39274100  0.89055700  0.64504500  1
  P  P8  1  0.39274100  0.60944300  0.35495500  1
  P  P9  1  0.10725900  0.39055700  0.85495500  1
  P  P10  1  0.10725900  0.10944300  0.14504500  1
  P  P11  1  0.03334100  0.25000000  0.50000000  1
  O  O0  1  0.93570600  0.14785100  0.57814000  1
  O  O1  1  0.93570600  0.35214900  0.42186000  1
  O  O2  1  0.92809700  0.40629700  0.84333200  1
  O  O3  1  0.92809700  0.09370300  0.15666800  1
  O  O4  1  0.85831700  0.84696100  0.57483300  1
  O  O5  1  0.85831700  0.65303900  0.42516700  1
  O  O6  1  0.85218300  0.72030400  0.82733700  1
  O  O7  1  0.85218300  0.77969600  0.17266300  1
  O  O8  1  0.83704300  0.93784700  0.97054200  1
  O  O9  1  0.83704300  0.56215300  0.02945800  1
  O  O10  1  0.82348300  0.00527900  0.76954700  1
  O  O11  1  0.82348300  0.49472100  0.23045300  1
  O  O12  1  0.67651700  0.50527900  0.73045300  1
  O  O13  1  0.67651700  0.99472100  0.26954700  1
  O  O14  1  0.66295700  0.43784700  0.52945800  1
  O  O15  1  0.66295700  0.06215300  0.47054200  1
  O  O16  1  0.64781700  0.22030400  0.67266300  1
  O  O17  1  0.64781700  0.27969600  0.32733700  1
  O  O18  1  0.64168300  0.34696100  0.92516700  1
  O  O19  1  0.64168300  0.15303900  0.07483300  1
  O  O20  1  0.57190300  0.90629700  0.65666800  1
  O  O21  1  0.57190300  0.59370300  0.34333200  1
  O  O22  1  0.56429400  0.64785100  0.92186000  1
  O  O23  1  0.56429400  0.85214900  0.07814000  1
  O  O24  1  0.43570600  0.14785100  0.92186000  1
  O  O25  1  0.43570600  0.35214900  0.07814000  1
  O  O26  1  0.42809700  0.40629700  0.65666800  1
  O  O27  1  0.42809700  0.09370300  0.34333200  1
  O  O28  1  0.35831700  0.84696100  0.92516700  1
  O  O29  1  0.35831700  0.65303900  0.07483300  1
  O  O30  1  0.35218300  0.72030400  0.67266300  1
  O  O31  1  0.35218300  0.77969600  0.32733700  1
  O  O32  1  0.33704300  0.93784700  0.52945800  1
  O  O33  1  0.33704300  0.56215300  0.47054200  1
  O  O34  1  0.32348300  0.00527900  0.73045300  1
  O  O35  1  0.32348300  0.49472100  0.26954700  1
  O  O36  1  0.17651700  0.50527900  0.76954700  1
  O  O37  1  0.17651700  0.99472100  0.23045300  1
  O  O38  1  0.16295700  0.43784700  0.97054200  1
  O  O39  1  0.16295700  0.06215300  0.02945800  1
  O  O40  1  0.14781700  0.22030400  0.82733700  1
  O  O41  1  0.14781700  0.27969600  0.17266300  1
  O  O42  1  0.14168300  0.34696100  0.57483300  1
  O  O43  1  0.14168300  0.15303900  0.42516700  1
  O  O44  1  0.07190300  0.90629700  0.84333200  1
  O  O45  1  0.07190300  0.59370300  0.15666800  1
  O  O46  1  0.06429400  0.64785100  0.57814000  1
  O  O47  1  0.06429400  0.85214900  0.42186000  1
loop_
_geom_bond_atom_site_label_1
_geom_bond_atom_site_label_2
_geom_bond_distance
_geom_bond_site_symmetry_2
Cr0 O2 1.928844 1_555
Cr0 O6 1.930357 1_555
Cr0 O9 1.932109 1_556
Cr0 O18 1.934539 1_555
Cr0 O22 1.936804 1_555
Cr0 O12 1.947463 1_555
Cr1 O3 1.928844 1_565
Cr1 O7 1.930357 1_555
Cr1 O8 1.932109 1_554
Cr1 O19 1.934539 1_565
Cr1 O23 1.936804 1_555
Cr1 O13 1.947463 1_555
Cr2 O20 1.928844 1_545
Cr2 O16 1.930357 1_555
Cr2 O15 1.932109 1_555
Cr2 O4 1.934539 1_545
Cr2 O0 1.936804 1_555
Cr2 O10 1.947463 1_555
Cr3 O21 1.928844 1_555
Cr3 O17 1.930357 1_555
Cr3 O14 1.932109 1_555
Cr3 O5 1.934539 1_555
Cr3 O1 1.936804 1_555
Cr3 O11 1.947463 1_555
Cr4 O26 1.928844 1_555
Cr4 O30 1.930357 1_555
Cr4 O33 1.932109 1_555
Cr4 O42 1.934539 1_555
Cr4 O46 1.936804 1_555
Cr4 O36 1.947463 1_555
Cr5 O27 1.928844 1_565
Cr5 O31 1.930357 1_555
Cr5 O32 1.932109 1_555
Cr5 O43 1.934539 1_565
Cr5 O47 1.936804 1_555
Cr5 O37 1.947463 1_555
Cr6 O44 1.928844 1_545
Cr6 O40 1.930357 1_555
Cr6 O39 1.932109 1_556
Cr6 O28 1.934539 1_545
Cr6 O24 1.936804 1_555
Cr6 O34 1.947463 1_555
Cr7 O45 1.928844 1_555
Cr7 O41 1.930357 1_555
Cr7 O38 1.932109 1_554
Cr7 O29 1.934539 1_555
Cr7 O25 1.936804 1_555
Cr7 O35 1.947463 1_555
O0 P11 1.533388 1_655
O1 P11 1.533388 1_655
O2 P9 1.548290 1_655
O3 P10 1.548290 1_655
O4 P0 1.537600 1_555
O5 P0 1.537600 1_555
O6 P1 1.538641 1_555
O7 P2 1.538641 1_555
O8 P1 1.523729 1_555
O9 P2 1.523729 1_555
O10 P1 1.541346 1_545
O11 P2 1.541346 1_555
O12 P3 1.541346 1_555
O13 P4 1.541346 1_565
O14 P3 1.523729 1_555
O15 P4 1.523729 1_555
O16 P3 1.538641 1_555
O17 P4 1.538641 1_555
O18 P5 1.537600 1_556
O19 P5 1.537600 1_555
O20 P7 1.548290 1_555
O21 P8 1.548290 1_555
O22 P6 1.533388 1_556
O23 P6 1.533388 1_555
O24 P5 1.533388 1_556
O25 P5 1.533388 1_555
O26 P3 1.548290 1_555
O27 P4 1.548290 1_555
O28 P6 1.537600 1_556
O29 P6 1.537600 1_555
O30 P7 1.538641 1_555
O31 P8 1.538641 1_555
O32 P7 1.523729 1_555
O33 P8 1.523729 1_555
O34 P7 1.541346 1_545
O35 P8 1.541346 1_555
O36 P9 1.541346 1_555
O37 P10 1.541346 1_565
O38 P9 1.523729 1_555
O39 P10 1.523729 1_555
O40 P9 1.538641 1_555
O41 P10 1.538641 1_555
O42 P11 1.537600 1_555
O43 P11 1.537600 1_555
O44 P1 1.548290 1_455
O45 P2 1.548290 1_455
O46 P0 1.533388 1_455
O47 P0 1.533388 1_455
