# generated using pymatgen
data_S3N3ClO2
_symmetry_space_group_name_H-M   'P 1'
_cell_length_a   9.73990684
_cell_length_b   9.73990684
_cell_length_c   12.51596465
_cell_angle_alpha   67.41357007
_cell_angle_beta   67.41357007
_cell_angle_gamma   42.16539367
_symmetry_Int_Tables_number   1
_chemical_formula_structural   S3N3ClO2
_chemical_formula_sum   'S12 N12 Cl4 O8'
_cell_volume   726.37145529
_cell_formula_units_Z   4
loop_
 _symmetry_equiv_pos_site_id
 _symmetry_equiv_pos_as_xyz
  1  'x, y, z'
loop_
 _atom_site_type_symbol
 _atom_site_label
 _atom_site_symmetry_multiplicity
 _atom_site_fract_x
 _atom_site_fract_y
 _atom_site_fract_z
 _atom_site_occupancy
  S  S0  1  0.91128400  0.28420800  0.79766900  1
  S  S1  1  0.49943600  0.83754000  0.44430700  1
  S  S2  1  0.71579200  0.08871600  0.70233100  1
  S  S3  1  0.16246000  0.50056400  0.05569300  1
  S  S4  1  0.08988000  0.22612100  0.41881300  1
  S  S5  1  0.77387900  0.91012000  0.08118700  1
  S  S6  1  0.83754000  0.49943600  0.94430700  1
  S  S7  1  0.50056400  0.16246000  0.55569300  1
  S  S8  1  0.91012000  0.77387900  0.58118700  1
  S  S9  1  0.08871600  0.71579200  0.20233100  1
  S  S10  1  0.28420800  0.91128400  0.29766900  1
  S  S11  1  0.22612100  0.08988000  0.91881300  1
  N  N0  1  0.75664900  0.46795500  0.86766300  1
  N  N1  1  0.24335100  0.53204500  0.13233700  1
  N  N2  1  0.33137100  0.08046300  0.42795700  1
  N  N3  1  0.10129200  0.13933100  0.32049000  1
  N  N4  1  0.89870800  0.86066900  0.67951000  1
  N  N5  1  0.66862900  0.91953700  0.57204300  1
  N  N6  1  0.46795500  0.75664900  0.36766300  1
  N  N7  1  0.13933100  0.10129200  0.82049000  1
  N  N8  1  0.53204500  0.24335100  0.63233700  1
  N  N9  1  0.08046300  0.33137100  0.92795700  1
  N  N10  1  0.86066900  0.89870800  0.17951000  1
  N  N11  1  0.91953700  0.66862900  0.07204300  1
  Cl  Cl0  1  0.43646200  0.70494500  0.61373200  1
  Cl  Cl1  1  0.70494500  0.43646200  0.11373200  1
  Cl  Cl2  1  0.29505500  0.56353800  0.88626800  1
  Cl  Cl3  1  0.56353800  0.29505500  0.38626800  1
  O  O0  1  0.99523300  0.56874300  0.63269600  1
  O  O1  1  0.80403900  0.01587400  0.97160200  1
  O  O2  1  0.19596100  0.98412600  0.02839800  1
  O  O3  1  0.43125700  0.00476700  0.86730400  1
  O  O4  1  0.98412600  0.19596100  0.52839800  1
  O  O5  1  0.01587400  0.80403900  0.47160200  1
  O  O6  1  0.56874300  0.99523300  0.13269600  1
  O  O7  1  0.00476700  0.43125700  0.36730400  1
loop_
_geom_bond_atom_site_label_1
_geom_bond_atom_site_label_2
_geom_bond_distance
_geom_bond_site_symmetry_2
N0 S0 1.560061 1_555
N0 S6 1.673195 1_555
N1 S9 1.560061 1_555
N1 S3 1.673195 1_555
N2 S1 1.569551 1_545
N2 S4 1.641194 1_555
N3 S10 1.555444 1_545
N3 S4 1.672139 1_555
N4 S2 1.555444 1_565
N4 S8 1.672139 1_555
N5 S7 1.569551 1_565
N5 S8 1.641194 1_555
N6 S10 1.560061 1_555
N6 S1 1.673195 1_555
N7 S0 1.555444 1_455
N7 S11 1.672139 1_555
N8 S2 1.560061 1_555
N8 S7 1.673195 1_555
N9 S6 1.569551 1_455
N9 S11 1.641194 1_555
N10 S9 1.555444 1_655
N10 S5 1.672139 1_555
N11 S3 1.569551 1_655
N11 S5 1.641194 1_555
Cl0 S1 2.147608 1_555
Cl1 S6 2.147608 1_554
Cl2 S3 2.147608 1_556
Cl3 S7 2.147608 1_555
O0 S8 1.435472 1_555
O1 S5 1.443014 1_546
O2 S11 1.443014 1_564
O3 S11 1.435472 1_555
O4 S4 1.443014 1_655
O5 S8 1.443014 1_455
O6 S5 1.435472 1_555
O7 S4 1.435472 1_555
