# generated using pymatgen
data_KNaPrNbO5
_symmetry_space_group_name_H-M   'P 1'
_cell_length_a   5.76781264
_cell_length_b   5.76781264
_cell_length_c   8.28723383
_cell_angle_alpha   90.00000000
_cell_angle_beta   90.00000000
_cell_angle_gamma   90.00000000
_symmetry_Int_Tables_number   1
_chemical_formula_structural   KNaPrNbO5
_chemical_formula_sum   'K2 Na2 Pr2 Nb2 O10'
_cell_volume   275.69689936
_cell_formula_units_Z   2
loop_
 _symmetry_equiv_pos_site_id
 _symmetry_equiv_pos_as_xyz
  1  'x, y, z'
loop_
 _atom_site_type_symbol
 _atom_site_label
 _atom_site_symmetry_multiplicity
 _atom_site_fract_x
 _atom_site_fract_y
 _atom_site_fract_z
 _atom_site_occupancy
  K  K0  1  -0.00000000  -0.00000000  0.00000000  1
  K  K1  1  0.50000000  0.50000000  0.00000000  1
  Na  Na0  1  0.50000000  0.00000000  0.75922627  1
  Na  Na1  1  -0.00000000  0.50000000  0.24077373  1
  Pr  Pr0  1  0.50000000  0.50000000  0.50000000  1
  Pr  Pr1  1  -0.00000000  0.00000000  0.50000000  1
  Nb  Nb0  1  -0.00000000  0.50000000  0.74537696  1
  Nb  Nb1  1  0.50000000  -0.00000000  0.25462304  1
  O  O0  1  0.73146081  0.23146081  0.32635557  1
  O  O1  1  0.76853919  0.73146081  0.67364443  1
  O  O2  1  0.73146081  0.76853919  0.32635557  1
  O  O3  1  0.76853919  0.26853919  0.67364443  1
  O  O4  1  0.26853919  0.23146081  0.32635557  1
  O  O5  1  0.50000000  -0.00000000  0.03050784  1
  O  O6  1  -0.00000000  0.50000000  0.96949216  1
  O  O7  1  0.26853919  0.76853919  0.32635557  1
  O  O8  1  0.23146081  0.26853919  0.67364443  1
  O  O9  1  0.23146081  0.73146081  0.67364443  1
loop_
_geom_bond_atom_site_label_1
_geom_bond_atom_site_label_2
_geom_bond_distance
_geom_bond_site_symmetry_2
K0 O5 2.894967 1_455
K0 O6 2.894967 1_544
K0 O6 2.894967 1_554
K0 O5 2.894967 1_555
K1 O5 2.894967 1_565
K1 O6 2.894967 1_654
K1 O6 2.894967 1_554
K1 O5 2.894967 1_555
Na0 O5 2.248174 1_556
Na0 O8 2.302411 1_555
Na0 O1 2.302411 1_545
Na0 O3 2.302411 1_555
Na0 O9 2.302411 1_545
Na1 O6 2.248174 1_554
Na1 O4 2.302411 1_555
Na1 O0 2.302411 1_455
Na1 O7 2.302411 1_555
Na1 O2 2.302411 1_455
Nb0 O6 1.857295 1_555
Nb0 O1 1.979383 1_455
Nb0 O9 1.979383 1_555
Nb0 O3 1.979383 1_455
Nb0 O8 1.979383 1_555
Nb1 O5 1.857295 1_555
Nb1 O2 1.979383 1_545
Nb1 O7 1.979383 1_545
Nb1 O0 1.979383 1_555
Nb1 O4 1.979383 1_555
O0 Pr0 2.500428 1_555
O0 Pr1 2.500428 1_655
O1 Pr0 2.500428 1_555
O1 Pr1 2.500428 1_665
O2 Pr0 2.500428 1_555
O2 Pr1 2.500428 1_665
O3 Pr1 2.500428 1_655
O3 Pr0 2.500428 1_555
O4 Pr0 2.500428 1_555
O4 Pr1 2.500428 1_555
O7 Pr1 2.500428 1_565
O7 Pr0 2.500428 1_555
O8 Pr0 2.500428 1_555
O8 Pr1 2.500428 1_555
O9 Pr0 2.500428 1_555
O9 Pr1 2.500428 1_565
