# generated using pymatgen
data_Ca2VBiO6
_symmetry_space_group_name_H-M   'P 1'
_cell_length_a   7.53600562
_cell_length_b   7.53600562
_cell_length_c   5.60718200
_cell_angle_alpha   90.00000000
_cell_angle_beta   90.00000000
_cell_angle_gamma   106.49353902
_symmetry_Int_Tables_number   1
_chemical_formula_structural   Ca2VBiO6
_chemical_formula_sum   'Ca4 V2 Bi2 O12'
_cell_volume   305.33637716
_cell_formula_units_Z   2
loop_
 _symmetry_equiv_pos_site_id
 _symmetry_equiv_pos_as_xyz
  1  'x, y, z'
loop_
 _atom_site_type_symbol
 _atom_site_label
 _atom_site_symmetry_multiplicity
 _atom_site_fract_x
 _atom_site_fract_y
 _atom_site_fract_z
 _atom_site_occupancy
  Ca  Ca0  1  0.30459300  0.09078000  0.75846400  1
  Ca  Ca1  1  0.69540700  0.90922000  0.25846400  1
  Ca  Ca2  1  0.09078000  0.30459300  0.25846400  1
  Ca  Ca3  1  0.90922000  0.69540700  0.75846400  1
  V  V0  1  0.18414100  0.81585900  0.30463200  1
  V  V1  1  0.81585900  0.18414100  0.80463200  1
  Bi  Bi0  1  0.41042700  0.58957300  0.74304100  1
  Bi  Bi1  1  0.58957300  0.41042700  0.24304100  1
  O  O0  1  0.64866800  0.65829000  0.00434400  1
  O  O1  1  0.18386800  0.81613200  0.99185000  1
  O  O2  1  0.40436600  0.90770200  0.42561900  1
  O  O3  1  0.59563400  0.09229800  0.92561900  1
  O  O4  1  0.65829000  0.64866800  0.50434400  1
  O  O5  1  0.05303000  0.94697000  0.43562200  1
  O  O6  1  0.34171000  0.35133200  0.00434400  1
  O  O7  1  0.35133200  0.34171000  0.50434400  1
  O  O8  1  0.94697000  0.05303000  0.93562200  1
  O  O9  1  0.81613200  0.18386800  0.49185000  1
  O  O10  1  0.90770200  0.40436600  0.92561900  1
  O  O11  1  0.09229800  0.59563400  0.42561900  1
loop_
_geom_bond_atom_site_label_1
_geom_bond_atom_site_label_2
_geom_bond_distance
_geom_bond_site_symmetry_2
Ca0 O7 2.313464 1_555
Ca0 O6 2.350020 1_556
Ca0 O3 2.382197 1_555
Ca0 O1 2.398936 1_545
Ca0 O2 2.557545 1_545
Ca0 O5 2.622755 1_545
Ca0 O8 2.809917 1_455
Ca1 O0 2.313464 1_555
Ca1 O4 2.350020 1_555
Ca1 O2 2.382197 1_555
Ca1 O9 2.398936 1_565
Ca1 O3 2.557545 1_564
Ca1 O8 2.622755 1_564
Ca1 O5 2.809917 1_655
Ca2 O6 2.313464 1_555
Ca2 O7 2.350020 1_555
Ca2 O11 2.382197 1_555
Ca2 O9 2.398936 1_455
Ca2 O10 2.557545 1_454
Ca2 O8 2.622755 1_454
Ca2 O5 2.809917 1_545
Ca3 O4 2.313464 1_555
Ca3 O0 2.350020 1_556
Ca3 O10 2.382197 1_555
Ca3 O1 2.398936 1_655
Ca3 O11 2.557545 1_655
Ca3 O5 2.622755 1_655
Ca3 O8 2.809917 1_565
Bi0 O4 2.237497 1_555
Bi0 O7 2.237497 1_555
Bi0 O0 2.260617 1_556
Bi0 O6 2.260617 1_556
Bi1 O6 2.237497 1_555
Bi1 O0 2.237497 1_555
Bi1 O7 2.260617 1_555
Bi1 O4 2.260617 1_555
O1 V0 1.753829 1_556
O2 V0 1.743950 1_555
O3 V1 1.743950 1_555
O5 V0 1.745364 1_555
O8 V1 1.745364 1_555
O9 V1 1.753829 1_555
O10 V1 1.743950 1_555
O11 V0 1.743950 1_555
