# generated using pymatgen
data_HfOs2
_symmetry_space_group_name_H-M   'P 1'
_cell_length_a   5.18161255
_cell_length_b   5.18161284
_cell_length_c   8.54219576
_cell_angle_alpha   90.00000000
_cell_angle_beta   90.00000000
_cell_angle_gamma   119.99999823
_symmetry_Int_Tables_number   1
_chemical_formula_structural   HfOs2
_chemical_formula_sum   'Hf4 Os8'
_cell_volume   198.62323693
_cell_formula_units_Z   4
loop_
 _symmetry_equiv_pos_site_id
 _symmetry_equiv_pos_as_xyz
  1  'x, y, z'
loop_
 _atom_site_type_symbol
 _atom_site_label
 _atom_site_symmetry_multiplicity
 _atom_site_fract_x
 _atom_site_fract_y
 _atom_site_fract_z
 _atom_site_occupancy
  Hf  Hf0  1  0.33333300  0.66666700  0.43290910  1
  Hf  Hf1  1  0.66666700  0.33333300  0.56709090  1
  Hf  Hf2  1  0.66666700  0.33333300  0.93290910  1
  Hf  Hf3  1  0.33333300  0.66666700  0.06709090  1
  Os  Os0  1  0.17277591  0.34555082  0.75000000  1
  Os  Os1  1  0.17277591  0.82722409  0.75000000  1
  Os  Os2  1  0.34555082  0.17277591  0.25000000  1
  Os  Os3  1  0.82722409  0.65444918  0.25000000  1
  Os  Os4  1  0.65444918  0.82722409  0.75000000  1
  Os  Os5  1  -0.00000000  -0.00000000  0.00000000  1
  Os  Os6  1  0.82722409  0.17277591  0.25000000  1
  Os  Os7  1  -0.00000000  -0.00000000  0.50000000  1
loop_
_geom_bond_atom_site_label_1
_geom_bond_atom_site_label_2
_geom_bond_distance
_geom_bond_site_symmetry_2
Hf0 Os3 3.025974 1_455
Hf0 Os3 3.025974 1_555
Hf0 Os6 3.025974 1_455
Hf0 Os2 3.025974 1_555
Hf0 Os6 3.025974 1_565
Hf0 Os2 3.025974 1_565
Hf0 Os7 3.046003 1_565
Hf0 Os7 3.046007 1_665
Hf0 Os7 3.046007 1_555
Hf0 Os1 3.068093 1_555
Hf0 Os4 3.068097 1_555
Hf0 Os0 3.068097 1_555
Hf1 Os0 3.025974 1_655
Hf1 Os0 3.025974 1_555
Hf1 Os1 3.025974 1_655
Hf1 Os4 3.025974 1_555
Hf1 Os1 3.025974 1_545
Hf1 Os4 3.025974 1_545
Hf1 Os7 3.046003 1_655
Hf1 Os7 3.046007 1_555
Hf1 Os7 3.046007 1_665
Hf1 Os6 3.068093 1_555
Hf1 Os2 3.068097 1_555
Hf1 Os3 3.068097 1_555
Hf2 Os0 3.025974 1_655
Hf2 Os0 3.025974 1_555
Hf2 Os1 3.025974 1_655
Hf2 Os4 3.025974 1_555
Hf2 Os1 3.025974 1_545
Hf2 Os4 3.025974 1_545
Hf2 Os5 3.046003 1_656
Hf2 Os5 3.046007 1_556
Hf2 Os5 3.046007 1_666
Hf2 Os6 3.068093 1_556
Hf2 Os2 3.068097 1_556
Hf2 Os3 3.068097 1_556
Hf3 Os3 3.025974 1_455
Hf3 Os3 3.025974 1_555
Hf3 Os6 3.025974 1_455
Hf3 Os2 3.025974 1_555
Hf3 Os6 3.025974 1_565
Hf3 Os2 3.025974 1_565
Hf3 Os5 3.046003 1_565
Hf3 Os5 3.046007 1_665
Hf3 Os5 3.046007 1_555
Hf3 Os1 3.068093 1_554
Hf3 Os4 3.068097 1_554
Hf3 Os0 3.068097 1_554
Os0 Os4 2.495844 1_555
Os0 Os1 2.495844 1_555
Os0 Os7 2.639132 1_555
Os0 Os5 2.639132 1_556
Os0 Os4 2.685768 1_445
Os0 Os1 2.685768 1_545
Os1 Os4 2.495844 1_555
Os1 Os7 2.639134 1_565
Os1 Os5 2.639134 1_566
Os1 Os4 2.685768 1_455
Os2 Os6 2.495844 1_555
Os2 Os3 2.495844 1_555
Os2 Os7 2.639132 1_555
Os2 Os5 2.639132 1_555
Os2 Os6 2.685768 1_455
Os2 Os3 2.685768 1_445
Os3 Os6 2.495844 1_555
Os3 Os5 2.639132 1_665
Os3 Os7 2.639132 1_665
Os3 Os6 2.685768 1_565
Os4 Os5 2.639132 1_666
Os4 Os7 2.639132 1_665
Os5 Os6 2.639134 1_455
Os6 Os7 2.639134 1_655
