# generated using pymatgen
data_LiFePO4
_symmetry_space_group_name_H-M   'P 1'
_cell_length_a   10.16317527
_cell_length_b   10.16317527
_cell_length_c   16.64096360
_cell_angle_alpha   82.71422124
_cell_angle_beta   82.71422124
_cell_angle_gamma   58.74521276
_symmetry_Int_Tables_number   1
_chemical_formula_structural   LiFePO4
_chemical_formula_sum   'Li16 Fe16 P16 O64'
_cell_volume   1453.74598579
_cell_formula_units_Z   16
loop_
 _symmetry_equiv_pos_site_id
 _symmetry_equiv_pos_as_xyz
  1  'x, y, z'
loop_
 _atom_site_type_symbol
 _atom_site_label
 _atom_site_symmetry_multiplicity
 _atom_site_fract_x
 _atom_site_fract_y
 _atom_site_fract_z
 _atom_site_occupancy
  Li  Li0  1  0.88660000  0.26367600  0.12743800  1
  Li  Li1  1  0.76500300  0.94344200  0.62805900  1
  Li  Li2  1  0.94344200  0.76500300  0.12805900  1
  Li  Li3  1  0.00833800  0.82779100  0.37972200  1
  Li  Li4  1  0.51248300  0.37913300  0.37818900  1
  Li  Li5  1  0.26589300  0.38488500  0.62699100  1
  Li  Li6  1  0.00692400  0.32697700  0.37705600  1
  Li  Li7  1  0.44375700  0.76522300  0.12664200  1
  Li  Li8  1  0.26367600  0.88660000  0.62743800  1
  Li  Li9  1  0.87915700  0.51397300  0.87914500  1
  Li  Li10  1  0.37913300  0.51248300  0.87818900  1
  Li  Li11  1  0.32697700  0.00692400  0.87705600  1
  Li  Li12  1  0.76522300  0.44375700  0.62664200  1
  Li  Li13  1  0.38488500  0.26589300  0.12699100  1
  Li  Li14  1  0.82779100  0.00833800  0.87972200  1
  Li  Li15  1  0.51397300  0.87915700  0.37914500  1
  Fe  Fe0  1  0.07739700  0.75776600  0.75046000  1
  Fe  Fe1  1  0.81791800  0.69618200  0.50278800  1
  Fe  Fe2  1  0.13776300  0.31866100  0.00004000  1
  Fe  Fe3  1  0.07287400  0.25715200  0.75015500  1
  Fe  Fe4  1  0.81934700  0.19467900  0.50198500  1
  Fe  Fe5  1  0.63855900  0.31873500  0.00090100  1
  Fe  Fe6  1  0.69618200  0.81791800  0.00278800  1
  Fe  Fe7  1  0.57029300  0.20346700  0.75271900  1
  Fe  Fe8  1  0.75776600  0.07739700  0.25046000  1
  Fe  Fe9  1  0.70276700  0.57749100  0.25022500  1
  Fe  Fe10  1  0.57749100  0.70276700  0.75022500  1
  Fe  Fe11  1  0.31873500  0.63855900  0.50090100  1
  Fe  Fe12  1  0.25715200  0.07287400  0.25015500  1
  Fe  Fe13  1  0.31866100  0.13776300  0.50004000  1
  Fe  Fe14  1  0.20346700  0.57029300  0.25271900  1
  Fe  Fe15  1  0.19467900  0.81934700  0.00198500  1
  P  P0  1  0.41087900  0.55017500  0.68991200  1
  P  P1  1  0.98466400  0.17000400  0.93967900  1
  P  P2  1  0.17020300  0.48366400  0.43965800  1
  P  P3  1  0.04853900  0.40984200  0.18920300  1
  P  P4  1  0.48366400  0.17020300  0.93965800  1
  P  P5  1  0.91119000  0.60213500  0.69215500  1
  P  P6  1  0.55017500  0.41087900  0.18991200  1
  P  P7  1  0.66839500  0.03845400  0.44109000  1
  P  P8  1  0.90788600  0.10198500  0.69221500  1
  P  P9  1  0.03845400  0.66839500  0.94109000  1
  P  P10  1  0.66899200  0.53849100  0.44033000  1
  P  P11  1  0.53849100  0.66899200  0.94033000  1
  P  P12  1  0.10198500  0.90788600  0.19221500  1
  P  P13  1  0.17000400  0.98466400  0.43967900  1
  P  P14  1  0.60213500  0.91119000  0.19215500  1
  P  P15  1  0.40984200  0.04853900  0.68920300  1
  O  O0  1  0.15305700  0.84041600  0.44674900  1
  O  O1  1  0.84041600  0.15305700  0.94674900  1
  O  O2  1  0.39011000  0.43492800  0.17740100  1
  O  O3  1  0.74566300  0.93016500  0.18271400  1
  O  O4  1  0.63770100  0.19983700  0.45716000  1
  O  O5  1  0.60325200  0.82929200  0.11868500  1
  O  O6  1  0.92344200  0.74365400  0.01541600  1
  O  O7  1  0.63307000  0.01017800  0.92817400  1
  O  O8  1  0.53685500  0.56835400  0.19643000  1
  O  O9  1  0.01017800  0.63307000  0.42817400  1
  O  O10  1  0.32698500  0.16553900  0.61688700  1
  O  O11  1  0.45367800  0.07193200  0.19881000  1
  O  O12  1  0.78399600  0.97476100  0.36569700  1
  O  O13  1  0.19983700  0.63770100  0.95716000  1
  O  O14  1  0.15162500  0.34055100  0.44655400  1
  O  O15  1  0.66689200  0.32390200  0.11823700  1
  O  O16  1  0.43492800  0.39011000  0.67740100  1
  O  O17  1  0.03558000  0.56628600  0.19869000  1
  O  O18  1  0.51430800  0.55072200  0.42655600  1
  O  O19  1  0.80595700  0.60443100  0.76955700  1
  O  O20  1  0.56628600  0.03558000  0.69869000  1
  O  O21  1  0.34055100  0.15162500  0.94655400  1
  O  O22  1  0.30068300  0.11321400  0.76700700  1
  O  O23  1  0.74884700  0.42159700  0.51317200  1
  O  O24  1  0.80030100  0.10089600  0.76752000  1
  O  O25  1  0.30639700  0.61565100  0.76903800  1
  O  O26  1  0.48162700  0.28150200  0.86537700  1
  O  O27  1  0.95702200  0.07079600  0.20049100  1
  O  O28  1  0.83264100  0.09987300  0.61685500  1
  O  O29  1  0.28150200  0.48162700  0.36537700  1
  O  O30  1  0.00981900  0.13258000  0.42626400  1
  O  O31  1  0.55072200  0.51430800  0.92655600  1
  O  O32  1  0.51404300  0.05163100  0.42580600  1
  O  O33  1  0.28534200  0.98025800  0.36762500  1
  O  O34  1  0.24831500  0.92216300  0.18446800  1
  O  O35  1  0.23517800  0.98921400  0.51847700  1
  O  O36  1  0.09987300  0.83264100  0.11685500  1
  O  O37  1  0.98921400  0.23517800  0.01847700  1
  O  O38  1  0.56835400  0.53685500  0.69643000  1
  O  O39  1  0.61565100  0.30639700  0.26903800  1
  O  O40  1  0.97476100  0.78399600  0.86569700  1
  O  O41  1  0.98025800  0.28534200  0.86762500  1
  O  O42  1  0.77997500  0.47981900  0.36263600  1
  O  O43  1  0.42159700  0.74884700  0.01317200  1
  O  O44  1  0.69943300  0.63767000  0.95773900  1
  O  O45  1  0.74365400  0.92344200  0.51541600  1
  O  O46  1  0.24064600  0.48535000  0.51704000  1
  O  O47  1  0.60443100  0.80595700  0.26955700  1
  O  O48  1  0.05163100  0.51404300  0.92580600  1
  O  O49  1  0.92216300  0.24831500  0.68446800  1
  O  O50  1  0.11321400  0.30068300  0.26700700  1
  O  O51  1  0.07079600  0.95702200  0.70049100  1
  O  O52  1  0.10089600  0.80030100  0.26752000  1
  O  O53  1  0.13258000  0.00981900  0.92626400  1
  O  O54  1  0.93016500  0.74566300  0.68271400  1
  O  O55  1  0.47981900  0.77997500  0.86263600  1
  O  O56  1  0.48535000  0.24064600  0.01704000  1
  O  O57  1  0.43649700  0.88797900  0.67552300  1
  O  O58  1  0.16553900  0.32698500  0.11688700  1
  O  O59  1  0.82929200  0.60325200  0.61868500  1
  O  O60  1  0.32390200  0.66689200  0.61823700  1
  O  O61  1  0.07193200  0.45367800  0.69881000  1
  O  O62  1  0.63767000  0.69943300  0.45773900  1
  O  O63  1  0.88797900  0.43649700  0.17552300  1
loop_
_geom_bond_atom_site_label_1
_geom_bond_atom_site_label_2
_geom_bond_distance
_geom_bond_site_symmetry_2
Li0 O37 1.949202 1_555
Li0 O27 1.998289 1_555
Li0 O15 2.007177 1_555
Li0 O63 2.027393 1_555
Li1 O45 1.961546 1_555
Li1 O20 2.012898 1_565
Li1 O28 2.015257 1_565
Li1 O54 2.026696 1_555
Li2 O6 1.961546 1_555
Li2 O17 2.012898 1_655
Li2 O36 2.015257 1_655
Li2 O3 2.026696 1_555
Li3 O52 1.965526 1_555
Li3 O12 1.999159 1_455
Li3 O0 2.017935 1_555
Li3 O9 2.031634 1_555
Li4 O39 1.999569 1_555
Li4 O4 2.019269 1_555
Li4 O18 2.020562 1_555
Li4 O29 2.043141 1_555
Li5 O46 1.956913 1_555
Li5 O61 1.996813 1_555
Li5 O10 2.003907 1_555
Li5 O16 2.032068 1_555
Li6 O50 1.978607 1_555
Li6 O30 2.027366 1_555
Li6 O42 2.029409 1_455
Li6 O14 2.049795 1_555
Li7 O43 1.967328 1_555
Li7 O8 1.993010 1_555
Li7 O34 2.008077 1_555
Li7 O5 2.021892 1_555
Li8 O35 1.949202 1_555
Li8 O51 1.998289 1_555
Li8 O60 2.007177 1_555
Li8 O57 2.027393 1_555
Li9 O19 1.983304 1_555
Li9 O48 2.005538 1_655
Li9 O44 2.013857 1_555
Li9 O41 2.019213 1_555
Li10 O25 1.999569 1_555
Li10 O13 2.019269 1_555
Li10 O31 2.020562 1_555
Li10 O26 2.043141 1_555
Li11 O22 1.978607 1_555
Li11 O53 2.027366 1_555
Li11 O55 2.029409 1_545
Li11 O21 2.049795 1_555
Li12 O23 1.967328 1_555
Li12 O38 1.993010 1_555
Li12 O49 2.008077 1_555
Li12 O59 2.021892 1_555
Li13 O56 1.956913 1_555
Li13 O11 1.996813 1_555
Li13 O58 2.003907 1_555
Li13 O2 2.032068 1_555
Li14 O24 1.965526 1_555
Li14 O40 1.999159 1_545
Li14 O1 2.017935 1_555
Li14 O7 2.031634 1_555
Li15 O47 1.983304 1_555
Li15 O32 2.005538 1_565
Li15 O62 2.013857 1_555
Li15 O33 2.019213 1_555
Fe0 O40 2.042129 1_455
Fe0 O54 2.044296 1_455
Fe0 O25 2.044351 1_555
Fe0 O51 2.059840 1_555
Fe1 O9 2.014251 1_655
Fe1 O59 2.026393 1_555
Fe1 O62 2.048935 1_555
Fe1 O45 2.054843 1_555
Fe2 O58 2.018278 1_555
Fe2 O48 2.020812 1_554
Fe2 O21 2.051603 1_554
Fe2 O37 2.058880 1_455
Fe3 O22 2.031040 1_555
Fe3 O49 2.035030 1_455
Fe3 O41 2.045701 1_455
Fe3 O61 2.066118 1_555
Fe4 O30 2.012130 1_655
Fe4 O28 2.015917 1_555
Fe4 O4 2.050897 1_555
Fe4 O23 2.055968 1_555
Fe5 O15 2.020536 1_555
Fe5 O31 2.023216 1_554
Fe5 O1 2.046309 1_554
Fe5 O56 2.061241 1_555
Fe6 O7 2.014251 1_564
Fe6 O5 2.026393 1_555
Fe6 O44 2.048935 1_554
Fe6 O6 2.054843 1_555
Fe7 O26 2.040263 1_555
Fe7 O24 2.040593 1_555
Fe7 O16 2.046486 1_555
Fe7 O20 2.047404 1_555
Fe8 O12 2.042129 1_545
Fe8 O3 2.044296 1_545
Fe8 O39 2.044351 1_555
Fe8 O27 2.059840 1_555
Fe9 O42 2.047775 1_555
Fe9 O47 2.047829 1_555
Fe9 O63 2.049690 1_555
Fe9 O8 2.054186 1_555
Fe10 O55 2.047775 1_555
Fe10 O19 2.047829 1_555
Fe10 O57 2.049690 1_555
Fe10 O38 2.054186 1_555
Fe11 O60 2.020536 1_555
Fe11 O18 2.023216 1_555
Fe11 O0 2.046309 1_555
Fe11 O46 2.061241 1_555
Fe12 O50 2.031040 1_555
Fe12 O34 2.035030 1_545
Fe12 O33 2.045701 1_545
Fe12 O11 2.066118 1_555
Fe13 O10 2.018278 1_555
Fe13 O32 2.020812 1_555
Fe13 O14 2.051603 1_555
Fe13 O35 2.058880 1_545
Fe14 O29 2.040263 1_555
Fe14 O52 2.040593 1_555
Fe14 O2 2.046486 1_555
Fe14 O17 2.047404 1_555
Fe15 O53 2.012130 1_564
Fe15 O36 2.015917 1_555
Fe15 O13 2.050897 1_554
Fe15 O43 2.055968 1_555
O0 P13 1.551079 1_555
O1 P1 1.551079 1_555
O2 P6 1.552374 1_555
O3 P14 1.554276 1_555
O4 P7 1.555031 1_555
O5 P14 1.559643 1_555
O6 P9 1.557771 1_654
O7 P4 1.558800 1_555
O8 P6 1.551451 1_555
O9 P2 1.558800 1_555
O10 P15 1.557649 1_555
O11 P14 1.550259 1_545
O12 P7 1.554460 1_565
O13 P9 1.555031 1_555
O14 P2 1.549671 1_555
O15 P6 1.559359 1_555
O16 P0 1.552374 1_555
O17 P3 1.552856 1_555
O18 P10 1.555896 1_555
O19 P5 1.560692 1_555
O20 P15 1.552856 1_555
O21 P4 1.549671 1_555
O22 P15 1.560126 1_555
O23 P10 1.556642 1_555
O24 P8 1.558058 1_555
O25 P0 1.561578 1_555
O26 P4 1.560590 1_555
O27 P12 1.551117 1_645
O28 P8 1.557256 1_555
O29 P2 1.560590 1_555
O30 P13 1.558061 1_545
O31 P11 1.555896 1_555
O32 P7 1.554999 1_555
O33 P13 1.554488 1_555
O34 P12 1.555609 1_555
O35 P13 1.558134 1_555
O36 P12 1.557256 1_555
O37 P1 1.558134 1_554
O38 P0 1.551451 1_555
O39 P6 1.561578 1_555
O40 P9 1.554460 1_655
O41 P1 1.554488 1_555
O42 P10 1.557928 1_555
O43 P11 1.556642 1_554
O44 P11 1.554735 1_555
O45 P7 1.557771 1_565
O46 P2 1.556662 1_555
O47 P14 1.560692 1_555
O48 P9 1.554999 1_555
O49 P8 1.555609 1_555
O50 P3 1.560126 1_555
O51 P8 1.551117 1_465
O52 P12 1.558058 1_555
O53 P1 1.558061 1_455
O54 P5 1.554276 1_555
O55 P11 1.557928 1_555
O56 P4 1.556662 1_554
O57 P15 1.551723 1_565
O58 P3 1.557649 1_555
O59 P5 1.559643 1_555
O60 P0 1.559359 1_555
O61 P5 1.550259 1_455
O62 P10 1.554735 1_555
O63 P3 1.551723 1_655
