# generated using pymatgen
data_K2NiF4
_symmetry_space_group_name_H-M   'P 1'
_cell_length_a   7.08914882
_cell_length_b   7.08914882
_cell_length_c   7.08914882
_cell_angle_alpha   147.20830110
_cell_angle_beta   147.20830110
_cell_angle_gamma   47.05545714
_symmetry_Int_Tables_number   1
_chemical_formula_structural   K2NiF4
_chemical_formula_sum   'K2 Ni1 F4'
_cell_volume   104.10799779
_cell_formula_units_Z   1
loop_
 _symmetry_equiv_pos_site_id
 _symmetry_equiv_pos_as_xyz
  1  'x, y, z'
loop_
 _atom_site_type_symbol
 _atom_site_label
 _atom_site_symmetry_multiplicity
 _atom_site_fract_x
 _atom_site_fract_y
 _atom_site_fract_z
 _atom_site_occupancy
  K  K0  1  0.35492492  0.35492492  0.00000000  1
  K  K1  1  0.64507508  0.64507508  -0.00000000  1
  Ni  Ni0  1  -0.00000000  -0.00000000  -0.00000000  1
  F  F0  1  -0.00000000  0.50000000  0.50000000  1
  F  F1  1  0.50000000  -0.00000000  0.50000000  1
  F  F2  1  0.15395570  0.15395570  -0.00000000  1
  F  F3  1  0.84604430  0.84604430  0.00000000  1
loop_
_geom_bond_atom_site_label_1
_geom_bond_atom_site_label_2
_geom_bond_distance
_geom_bond_site_symmetry_2
F0 Ni0 2.001068 1_555
F0 Ni0 2.001068 1_566
F0 K0 2.749721 1_455
F0 K0 2.749721 1_556
F0 K1 2.749721 1_556
F0 K1 2.749721 1_455
F1 Ni0 2.001068 1_555
F1 Ni0 2.001068 1_656
F1 K0 2.749721 1_556
F1 K0 2.749721 1_545
F1 K1 2.749721 1_545
F1 K1 2.749721 1_556
F2 Ni0 2.001365 1_555
F2 K0 2.612522 1_555
F2 K1 2.832291 1_545
F2 K1 2.832291 1_556
F2 K1 2.832291 1_444
F2 K1 2.832291 1_455
F3 Ni0 2.001365 1_665
F3 K1 2.612522 1_555
F3 K0 2.832291 1_655
F3 K0 2.832291 1_565
F3 K0 2.832291 1_666
F3 K0 2.832291 1_554
