# generated using pymatgen
data_Ca2BClO3
_symmetry_space_group_name_H-M   'P 1'
_cell_length_a   8.75360900
_cell_length_b   3.98374900
_cell_length_c   12.51664753
_cell_angle_alpha   79.68203744
_cell_angle_beta   90.00000000
_cell_angle_gamma   90.00000000
_symmetry_Int_Tables_number   1
_chemical_formula_structural   Ca2BClO3
_chemical_formula_sum   'Ca8 B4 Cl4 O12'
_cell_volume   429.42440739
_cell_formula_units_Z   4
loop_
 _symmetry_equiv_pos_site_id
 _symmetry_equiv_pos_as_xyz
  1  'x, y, z'
loop_
 _atom_site_type_symbol
 _atom_site_label
 _atom_site_symmetry_multiplicity
 _atom_site_fract_x
 _atom_site_fract_y
 _atom_site_fract_z
 _atom_site_occupancy
  Ca  Ca0  1  0.62086100  0.67050400  0.88344200  1
  Ca  Ca1  1  0.37913900  0.32949600  0.11655800  1
  Ca  Ca2  1  0.11798900  0.70668500  0.86046900  1
  Ca  Ca3  1  0.87913900  0.67050400  0.38344200  1
  Ca  Ca4  1  0.61798900  0.29331500  0.63953100  1
  Ca  Ca5  1  0.38201100  0.70668500  0.36046900  1
  Ca  Ca6  1  0.88201100  0.29331500  0.13953100  1
  Ca  Ca7  1  0.12086100  0.32949600  0.61655800  1
  B  B0  1  0.63359100  0.71014200  0.15570200  1
  B  B1  1  0.86640900  0.71014200  0.65570200  1
  B  B2  1  0.36640900  0.28985800  0.84429800  1
  B  B3  1  0.13359100  0.28985800  0.34429800  1
  Cl  Cl0  1  0.87480700  0.20017000  0.91285400  1
  Cl  Cl1  1  0.12519300  0.79983000  0.08714600  1
  Cl  Cl2  1  0.37480700  0.79983000  0.58714600  1
  Cl  Cl3  1  0.62519300  0.20017000  0.41285400  1
  O  O0  1  0.48956500  0.80121900  0.18762200  1
  O  O1  1  0.98956500  0.19878100  0.31237800  1
  O  O2  1  0.76959400  0.77575500  0.20517000  1
  O  O3  1  0.64099200  0.51918800  0.07249500  1
  O  O4  1  0.01043500  0.80121900  0.68762200  1
  O  O5  1  0.73040600  0.77575500  0.70517000  1
  O  O6  1  0.51043500  0.19878100  0.81237800  1
  O  O7  1  0.26959400  0.22424500  0.29483000  1
  O  O8  1  0.35900800  0.48081200  0.92750500  1
  O  O9  1  0.14099200  0.48081200  0.42750500  1
  O  O10  1  0.85900800  0.51918800  0.57249500  1
  O  O11  1  0.23040600  0.22424500  0.79483000  1
loop_
_geom_bond_atom_site_label_1
_geom_bond_atom_site_label_2
_geom_bond_distance
_geom_bond_site_symmetry_2
Ca0 O3 2.341554 1_556
Ca0 O6 2.341793 1_565
Ca0 O5 2.395657 1_555
Ca0 O6 2.419880 1_555
Ca0 O8 2.445389 1_555
Ca0 Cl0 2.888016 1_555
Ca0 Cl0 3.131710 1_565
Ca1 O8 2.341554 1_554
Ca1 O0 2.341793 1_545
Ca1 O7 2.395657 1_555
Ca1 O0 2.419880 1_555
Ca1 O3 2.445389 1_555
Ca1 Cl1 2.888016 1_555
Ca1 Cl1 3.131710 1_545
Ca2 O11 2.299497 1_565
Ca2 O4 2.327432 1_555
Ca2 O8 2.386304 1_555
Ca2 O11 2.429561 1_555
Ca2 Cl0 2.925586 1_455
Ca2 Cl1 2.927236 1_556
Ca2 Cl0 3.047617 1_465
Ca3 O10 2.341554 1_555
Ca3 O1 2.341793 1_565
Ca3 O2 2.395657 1_555
Ca3 O1 2.419880 1_555
Ca3 O9 2.445389 1_655
Ca3 Cl3 2.888016 1_555
Ca3 Cl3 3.131710 1_565
Ca4 O5 2.299497 1_545
Ca4 O6 2.327432 1_555
Ca4 O10 2.386304 1_555
Ca4 O5 2.429561 1_555
Ca4 Cl2 2.925586 1_555
Ca4 Cl3 2.927236 1_555
Ca4 Cl2 3.047617 1_545
Ca5 O7 2.299497 1_565
Ca5 O0 2.327432 1_555
Ca5 O9 2.386304 1_555
Ca5 O7 2.429561 1_555
Ca5 Cl3 2.925586 1_555
Ca5 Cl2 2.927236 1_555
Ca5 Cl3 3.047617 1_565
Ca6 O2 2.299497 1_545
Ca6 O1 2.327432 1_555
Ca6 O3 2.386304 1_555
Ca6 O2 2.429561 1_555
Ca6 Cl1 2.925586 1_655
Ca6 Cl0 2.927236 1_554
Ca6 Cl1 3.047617 1_645
Ca7 O9 2.341554 1_555
Ca7 O4 2.341793 1_545
Ca7 O11 2.395657 1_555
Ca7 O4 2.419880 1_555
Ca7 O10 2.445389 1_455
Ca7 Cl2 2.888016 1_555
Ca7 Cl2 3.131710 1_545
B0 O2 1.388166 1_555
B0 O0 1.390209 1_555
B0 O3 1.396908 1_555
B1 O5 1.388166 1_555
B1 O4 1.390209 1_655
B1 O10 1.396908 1_555
B2 O11 1.388166 1_555
B2 O6 1.390209 1_555
B2 O8 1.396908 1_555
B3 O7 1.388166 1_555
B3 O1 1.390209 1_455
B3 O9 1.396908 1_555
