# generated using pymatgen
data_K3LiIrO4
_symmetry_space_group_name_H-M   'P 1'
_cell_length_a   7.31945654
_cell_length_b   7.31945654
_cell_length_c   5.99232187
_cell_angle_alpha   79.66106138
_cell_angle_beta   79.66106138
_cell_angle_gamma   84.54074968
_symmetry_Int_Tables_number   1
_chemical_formula_structural   K3LiIrO4
_chemical_formula_sum   'K6 Li2 Ir2 O8'
_cell_volume   310.03734636
_cell_formula_units_Z   2
loop_
 _symmetry_equiv_pos_site_id
 _symmetry_equiv_pos_as_xyz
  1  'x, y, z'
loop_
 _atom_site_type_symbol
 _atom_site_label
 _atom_site_symmetry_multiplicity
 _atom_site_fract_x
 _atom_site_fract_y
 _atom_site_fract_z
 _atom_site_occupancy
  K  K0  1  0.06571900  0.24368800  0.02606800  1
  K  K1  1  0.59479500  0.40520500  0.25000000  1
  K  K2  1  0.24368800  0.06571900  0.52606800  1
  K  K3  1  0.75631200  0.93428100  0.47393200  1
  K  K4  1  0.93428100  0.75631200  0.97393200  1
  K  K5  1  0.40520500  0.59479500  0.75000000  1
  Li  Li0  1  0.73182500  0.26817500  0.75000000  1
  Li  Li1  1  0.26817500  0.73182500  0.25000000  1
  Ir  Ir0  1  0.50000000  0.00000000  0.00000000  1
  Ir  Ir1  1  0.00000000  0.50000000  0.50000000  1
  O  O0  1  0.20369200  0.48053600  0.24626400  1
  O  O1  1  0.91318800  0.26508000  0.46986500  1
  O  O2  1  0.48053600  0.20369200  0.74626400  1
  O  O3  1  0.26508000  0.91318800  0.96986500  1
  O  O4  1  0.08681200  0.73492000  0.53013500  1
  O  O5  1  0.73492000  0.08681200  0.03013500  1
  O  O6  1  0.51946400  0.79630800  0.25373600  1
  O  O7  1  0.79630800  0.51946400  0.75373600  1
loop_
_geom_bond_atom_site_label_1
_geom_bond_atom_site_label_2
_geom_bond_distance
_geom_bond_site_symmetry_2
K0 O1 2.719140 1_455
K0 O0 2.720067 1_555
K0 O3 2.745733 1_544
K0 O5 2.771171 1_455
K0 O7 3.137109 1_454
K0 O2 3.208649 1_554
K1 O6 2.866634 1_555
K1 O0 2.866634 1_555
K1 O5 2.895007 1_555
K1 O1 2.895007 1_555
K1 O2 3.079919 1_555
K1 O7 3.079919 1_554
K2 O3 2.719140 1_545
K2 O2 2.720067 1_555
K2 O1 2.745733 1_455
K2 O4 2.771171 1_545
K2 O6 3.137109 1_545
K2 O0 3.208649 1_555
K3 O5 2.719140 1_565
K3 O6 2.720067 1_555
K3 O4 2.745733 1_655
K3 O1 2.771171 1_565
K3 O2 3.137109 1_565
K3 O7 3.208649 1_555
K4 O4 2.719140 1_655
K4 O7 2.720067 1_555
K4 O5 2.745733 1_566
K4 O3 2.771171 1_655
K4 O0 3.137109 1_656
K4 O6 3.208649 1_556
K5 O7 2.866634 1_555
K5 O2 2.866634 1_555
K5 O4 2.895007 1_555
K5 O3 2.895007 1_555
K5 O0 3.079919 1_556
K5 O6 3.079919 1_555
Li0 O5 1.946452 1_556
Li0 O1 1.946452 1_555
Li0 O7 1.946803 1_555
Li0 O2 1.946803 1_555
Li1 O4 1.946452 1_555
Li1 O3 1.946452 1_554
Li1 O6 1.946803 1_555
Li1 O0 1.946803 1_555
Ir0 O3 1.937403 1_544
Ir0 O5 1.937403 1_555
Ir0 O6 1.943863 1_545
Ir0 O2 1.943863 1_554
Ir1 O1 1.937403 1_455
Ir1 O4 1.937403 1_555
Ir1 O7 1.943863 1_455
Ir1 O0 1.943863 1_555
