# generated using pymatgen
data_SrGd2Co2O7
_symmetry_space_group_name_H-M   'P 1'
_cell_length_a   5.46018100
_cell_length_b   5.46018100
_cell_length_c   19.73387900
_cell_angle_alpha   90.00000000
_cell_angle_beta   90.00000000
_cell_angle_gamma   90.00000000
_symmetry_Int_Tables_number   1
_chemical_formula_structural   SrGd2Co2O7
_chemical_formula_sum   'Sr4 Gd8 Co8 O28'
_cell_volume   588.33751225
_cell_formula_units_Z   4
loop_
 _symmetry_equiv_pos_site_id
 _symmetry_equiv_pos_as_xyz
  1  'x, y, z'
loop_
 _atom_site_type_symbol
 _atom_site_label
 _atom_site_symmetry_multiplicity
 _atom_site_fract_x
 _atom_site_fract_y
 _atom_site_fract_z
 _atom_site_occupancy
  Sr  Sr0  1  0.74272200  0.74272200  0.00000000  1
  Sr  Sr1  1  0.75727800  0.24272200  0.50000000  1
  Sr  Sr2  1  0.25727800  0.25727800  0.00000000  1
  Sr  Sr3  1  0.24272200  0.75727800  0.50000000  1
  Gd  Gd0  1  0.26956700  0.26956700  0.81854200  1
  Gd  Gd1  1  0.76956700  0.23043300  0.31854200  1
  Gd  Gd2  1  0.23043300  0.76956700  0.31854200  1
  Gd  Gd3  1  0.26956700  0.26956700  0.18145800  1
  Gd  Gd4  1  0.73043300  0.73043300  0.18145800  1
  Gd  Gd5  1  0.73043300  0.73043300  0.81854200  1
  Gd  Gd6  1  0.23043300  0.76956700  0.68145800  1
  Gd  Gd7  1  0.76956700  0.23043300  0.68145800  1
  Co  Co0  1  0.74511500  0.74511500  0.40113300  1
  Co  Co1  1  0.24511500  0.75488500  0.09886700  1
  Co  Co2  1  0.75488500  0.24511500  0.09886700  1
  Co  Co3  1  0.75488500  0.24511500  0.90113300  1
  Co  Co4  1  0.24511500  0.75488500  0.90113300  1
  Co  Co5  1  0.25488500  0.25488500  0.59886700  1
  Co  Co6  1  0.25488500  0.25488500  0.40113300  1
  Co  Co7  1  0.74511500  0.74511500  0.59886700  1
  O  O0  1  0.50000000  0.50000000  0.37743300  1
  O  O1  1  0.29749100  0.70250900  0.79256400  1
  O  O2  1  0.50000000  0.00000000  0.39353000  1
  O  O3  1  0.00000000  0.00000000  0.59263700  1
  O  O4  1  0.00000000  0.50000000  0.89353000  1
  O  O5  1  0.50000000  0.00000000  0.89353000  1
  O  O6  1  0.71410500  0.71410500  0.50000000  1
  O  O7  1  0.00000000  0.00000000  0.12256700  1
  O  O8  1  0.29749100  0.70250900  0.20743600  1
  O  O9  1  0.00000000  0.50000000  0.10647000  1
  O  O10  1  0.70250900  0.29749100  0.79256400  1
  O  O11  1  0.79749100  0.79749100  0.70743600  1
  O  O12  1  0.79749100  0.79749100  0.29256400  1
  O  O13  1  0.21410500  0.78589500  0.00000000  1
  O  O14  1  0.50000000  0.50000000  0.62256700  1
  O  O15  1  0.00000000  0.00000000  0.87743300  1
  O  O16  1  0.20250900  0.20250900  0.70743600  1
  O  O17  1  0.00000000  0.50000000  0.39353000  1
  O  O18  1  0.78589500  0.21410500  0.00000000  1
  O  O19  1  0.50000000  0.00000000  0.60647000  1
  O  O20  1  0.00000000  0.50000000  0.60647000  1
  O  O21  1  0.70250900  0.29749100  0.20743600  1
  O  O22  1  0.50000000  0.00000000  0.10647000  1
  O  O23  1  0.50000000  0.50000000  0.09263700  1
  O  O24  1  0.50000000  0.50000000  0.90736300  1
  O  O25  1  0.28589500  0.28589500  0.50000000  1
  O  O26  1  0.00000000  0.00000000  0.40736300  1
  O  O27  1  0.20250900  0.20250900  0.29256400  1
loop_
_geom_bond_atom_site_label_1
_geom_bond_atom_site_label_2
_geom_bond_distance
_geom_bond_site_symmetry_2
Gd0 O16 2.252868 1_555
Gd0 O15 2.384004 1_555
Gd0 O1 2.423690 1_555
Gd0 O10 2.423690 1_555
Gd0 O4 2.437077 1_555
Gd0 O5 2.437077 1_555
Gd0 O24 2.497681 1_555
Gd1 O21 2.252868 1_555
Gd1 O0 2.384004 1_555
Gd1 O27 2.423690 1_655
Gd1 O12 2.423690 1_545
Gd1 O2 2.437077 1_555
Gd1 O17 2.437077 1_655
Gd1 O26 2.497681 1_655
Gd2 O8 2.252868 1_555
Gd2 O0 2.384004 1_555
Gd2 O12 2.423690 1_455
Gd2 O27 2.423690 1_565
Gd2 O2 2.437077 1_565
Gd2 O17 2.437077 1_555
Gd2 O26 2.497681 1_565
Gd3 O27 2.252868 1_555
Gd3 O7 2.384004 1_555
Gd3 O21 2.423690 1_555
Gd3 O8 2.423690 1_555
Gd3 O22 2.437077 1_555
Gd3 O9 2.437077 1_555
Gd3 O23 2.497681 1_555
Gd4 O12 2.252868 1_555
Gd4 O7 2.384004 1_665
Gd4 O21 2.423690 1_555
Gd4 O8 2.423690 1_555
Gd4 O22 2.437077 1_565
Gd4 O9 2.437077 1_655
Gd4 O23 2.497681 1_555
Gd5 O11 2.252868 1_555
Gd5 O15 2.384004 1_665
Gd5 O10 2.423690 1_555
Gd5 O1 2.423690 1_555
Gd5 O4 2.437077 1_655
Gd5 O5 2.437077 1_565
Gd5 O24 2.497681 1_555
Gd6 O1 2.252868 1_555
Gd6 O14 2.384004 1_555
Gd6 O11 2.423690 1_455
Gd6 O16 2.423690 1_565
Gd6 O19 2.437077 1_565
Gd6 O20 2.437077 1_555
Gd6 O3 2.497681 1_565
Gd7 O10 2.252868 1_555
Gd7 O14 2.384004 1_555
Gd7 O16 2.423690 1_655
Gd7 O11 2.423690 1_545
Gd7 O20 2.437077 1_655
Gd7 O19 2.437077 1_555
Gd7 O3 2.497681 1_655
Co0 O17 1.936655 1_655
Co0 O2 1.936655 1_565
Co0 O0 1.949671 1_555
Co0 O6 1.965669 1_555
Co0 O26 1.972023 1_665
Co0 O12 2.180327 1_555
Co1 O9 1.936655 1_555
Co1 O22 1.936655 1_565
Co1 O7 1.949671 1_565
Co1 O13 1.965669 1_555
Co1 O23 1.972023 1_555
Co1 O8 2.180327 1_555
Co2 O22 1.936655 1_555
Co2 O9 1.936655 1_655
Co2 O7 1.949671 1_655
Co2 O18 1.965669 1_555
Co2 O23 1.972023 1_555
Co2 O21 2.180327 1_555
Co3 O5 1.936655 1_555
Co3 O4 1.936655 1_655
Co3 O15 1.949671 1_655
Co3 O18 1.965669 1_556
Co3 O24 1.972023 1_555
Co3 O10 2.180327 1_555
Co4 O4 1.936655 1_555
Co4 O5 1.936655 1_565
Co4 O15 1.949671 1_565
Co4 O13 1.965669 1_556
Co4 O24 1.972023 1_555
Co4 O1 2.180327 1_555
Co5 O19 1.936655 1_555
Co5 O20 1.936655 1_555
Co5 O14 1.949671 1_555
Co5 O25 1.965669 1_555
Co5 O3 1.972023 1_555
Co5 O16 2.180327 1_555
Co6 O17 1.936655 1_555
Co6 O2 1.936655 1_555
Co6 O0 1.949671 1_555
Co6 O25 1.965669 1_555
Co6 O26 1.972023 1_555
Co6 O27 2.180327 1_555
Co7 O19 1.936655 1_565
Co7 O20 1.936655 1_655
Co7 O14 1.949671 1_555
Co7 O6 1.965669 1_555
Co7 O3 1.972023 1_665
Co7 O11 2.180327 1_555
O0 Sr3 3.130025 1_555
O0 Sr1 3.130025 1_555
O2 Sr3 2.853828 1_545
O2 Sr1 2.853828 1_555
O3 Sr1 2.618163 1_455
O3 Sr3 2.618163 1_545
O4 Sr2 2.853828 1_556
O4 Sr0 2.853828 1_456
O5 Sr0 2.853828 1_546
O5 Sr2 2.853828 1_556
O6 Sr1 2.584609 1_555
O6 Sr3 2.584609 1_555
O6 Sr3 2.895955 1_655
O6 Sr1 2.895955 1_565
O7 Sr2 3.130025 1_555
O7 Sr0 3.130025 1_445
O9 Sr2 2.853828 1_555
O9 Sr0 2.853828 1_455
O13 Sr2 2.584609 1_565
O13 Sr0 2.584609 1_455
O13 Sr2 2.895955 1_555
O13 Sr0 2.895955 1_555
O14 Sr1 3.130025 1_555
O14 Sr3 3.130025 1_555
O15 Sr0 3.130025 1_446
O15 Sr2 3.130025 1_556
O17 Sr3 2.853828 1_555
O17 Sr1 2.853828 1_455
O18 Sr2 2.584609 1_655
O18 Sr0 2.584609 1_545
O18 Sr2 2.895955 1_555
O18 Sr0 2.895955 1_555
O19 Sr1 2.853828 1_555
O19 Sr3 2.853828 1_545
O20 Sr1 2.853828 1_455
O20 Sr3 2.853828 1_555
O22 Sr0 2.853828 1_545
O22 Sr2 2.853828 1_555
O23 Sr2 2.618163 1_555
O23 Sr0 2.618163 1_555
O24 Sr0 2.618163 1_556
O24 Sr2 2.618163 1_556
O25 Sr1 2.584609 1_555
O25 Sr3 2.584609 1_555
O25 Sr1 2.895955 1_455
O25 Sr3 2.895955 1_545
O26 Sr1 2.618163 1_455
O26 Sr3 2.618163 1_545
