# generated using pymatgen
data_CsTiI3
_symmetry_space_group_name_H-M   'P 1'
_cell_length_a   8.26941971
_cell_length_b   8.26949141
_cell_length_c   6.99856540
_cell_angle_alpha   89.99713547
_cell_angle_beta   90.00471957
_cell_angle_gamma   120.07915210
_symmetry_Int_Tables_number   1
_chemical_formula_structural   CsTiI3
_chemical_formula_sum   'Cs2 Ti2 I6'
_cell_volume   414.13939965
_cell_formula_units_Z   2
loop_
 _symmetry_equiv_pos_site_id
 _symmetry_equiv_pos_as_xyz
  1  'x, y, z'
loop_
 _atom_site_type_symbol
 _atom_site_label
 _atom_site_symmetry_multiplicity
 _atom_site_fract_x
 _atom_site_fract_y
 _atom_site_fract_z
 _atom_site_occupancy
  Cs  Cs0  1  0.66641500  0.33358121  0.25004315  1
  Cs  Cs1  1  0.33358606  0.66641986  0.74995672  1
  Ti  Ti0  1  0.00000119  0.00000111  0.00000050  1
  Ti  Ti1  1  0.00000073  0.00000088  0.49999949  1
  I  I0  1  0.83685028  0.16328172  0.74993848  1
  I  I1  1  0.67465349  0.83715046  0.25009040  1
  I  I2  1  0.16315597  0.83672300  0.25006081  1
  I  I3  1  0.32534003  0.16284596  0.74991047  1
  I  I4  1  0.83715483  0.67477178  0.74999203  1
  I  I5  1  0.16284241  0.32522404  0.25000794  1
loop_
_geom_bond_atom_site_label_1
_geom_bond_atom_site_label_2
_geom_bond_distance
_geom_bond_site_symmetry_2
Cs0 I2 4.129551 1_655
Cs0 I5 4.130049 1_555
Cs0 I2 4.130518 1_545
Cs0 I1 4.130537 1_555
Cs0 I1 4.139795 1_545
Cs0 I5 4.140236 1_655
Cs0 I3 4.265732 1_555
Cs0 I0 4.265892 1_555
Cs0 I4 4.266574 1_555
Cs0 I3 4.266990 1_554
Cs0 I4 4.267120 1_554
Cs0 I0 4.267399 1_554
Cs1 I0 4.129515 1_455
Cs1 I4 4.130038 1_555
Cs1 I3 4.130545 1_555
Cs1 I0 4.130555 1_565
Cs1 I3 4.139788 1_565
Cs1 I4 4.140245 1_455
Cs1 I1 4.265696 1_555
Cs1 I2 4.265889 1_555
Cs1 I5 4.266595 1_555
Cs1 I1 4.266965 1_556
Cs1 I5 4.267142 1_556
Cs1 I2 4.267390 1_556
I0 Ti1 2.920589 1_655
I0 Ti0 2.920892 1_656
I1 Ti1 2.911810 1_665
I1 Ti0 2.912758 1_665
I2 Ti1 2.920598 1_565
I2 Ti0 2.920893 1_565
I3 Ti1 2.911772 1_555
I3 Ti0 2.912708 1_556
I4 Ti1 2.911579 1_665
I4 Ti0 2.911676 1_666
I5 Ti1 2.911541 1_555
I5 Ti0 2.911635 1_555
