# generated using pymatgen
data_SiO2
_symmetry_space_group_name_H-M   'P 1'
_cell_length_a   15.21959356
_cell_length_b   15.21959356
_cell_length_c   8.60862200
_cell_angle_alpha   90.00000000
_cell_angle_beta   90.00000000
_cell_angle_gamma   101.31730688
_symmetry_Int_Tables_number   1
_chemical_formula_structural   SiO2
_chemical_formula_sum   'Si32 O64'
_cell_volume   1955.29322292
_cell_formula_units_Z   32
loop_
 _symmetry_equiv_pos_site_id
 _symmetry_equiv_pos_as_xyz
  1  'x, y, z'
loop_
 _atom_site_type_symbol
 _atom_site_label
 _atom_site_symmetry_multiplicity
 _atom_site_fract_x
 _atom_site_fract_y
 _atom_site_fract_z
 _atom_site_occupancy
  Si  Si0  1  0.75635400  0.24364600  0.06716000  1
  Si  Si1  1  0.24364600  0.75635400  0.56716000  1
  Si  Si2  1  0.11782800  0.88217200  0.43551600  1
  Si  Si3  1  0.58551700  0.13107500  0.93515400  1
  Si  Si4  1  0.86892500  0.41448300  0.56484600  1
  Si  Si5  1  0.79304400  0.92154100  0.06308700  1
  Si  Si6  1  0.58551700  0.13107500  0.56484600  1
  Si  Si7  1  0.13107500  0.58551700  0.06484600  1
  Si  Si8  1  0.93125000  0.60340900  0.43613900  1
  Si  Si9  1  0.41448300  0.86892500  0.43515400  1
  Si  Si10  1  0.20695600  0.07845900  0.56308700  1
  Si  Si11  1  0.93125000  0.60340900  0.06386100  1
  Si  Si12  1  0.86892500  0.41448300  0.93515400  1
  Si  Si13  1  0.06875000  0.39659100  0.56386100  1
  Si  Si14  1  0.60340900  0.93125000  0.93613900  1
  Si  Si15  1  0.07845900  0.20695600  0.06308700  1
  Si  Si16  1  0.07845900  0.20695600  0.43691300  1
  Si  Si17  1  0.39659100  0.06875000  0.06386100  1
  Si  Si18  1  0.11782800  0.88217200  0.06448400  1
  Si  Si19  1  0.79304400  0.92154100  0.43691300  1
  Si  Si20  1  0.13107500  0.58551700  0.43515400  1
  Si  Si21  1  0.06875000  0.39659100  0.93613900  1
  Si  Si22  1  0.24364600  0.75635400  0.93284000  1
  Si  Si23  1  0.60340900  0.93125000  0.56386100  1
  Si  Si24  1  0.88217200  0.11782800  0.56448400  1
  Si  Si25  1  0.88217200  0.11782800  0.93551600  1
  Si  Si26  1  0.41448300  0.86892500  0.06484600  1
  Si  Si27  1  0.39659100  0.06875000  0.43613900  1
  Si  Si28  1  0.75635400  0.24364600  0.43284000  1
  Si  Si29  1  0.92154100  0.79304400  0.93691300  1
  Si  Si30  1  0.20695600  0.07845900  0.93691300  1
  Si  Si31  1  0.92154100  0.79304400  0.56308700  1
  O  O0  1  0.03582400  0.61094800  0.48855200  1
  O  O1  1  0.51848200  0.86837900  0.47795000  1
  O  O2  1  0.61094800  0.03582400  0.51144800  1
  O  O3  1  0.86837900  0.51848200  0.97795000  1
  O  O4  1  0.03582400  0.61094800  0.01144800  1
  O  O5  1  0.15756200  0.97799500  0.51473300  1
  O  O6  1  0.13162100  0.48151800  0.02205000  1
  O  O7  1  0.10251600  0.30624100  0.51408500  1
  O  O8  1  0.89748400  0.69375900  0.01408500  1
  O  O9  1  0.96417600  0.38905200  0.51144800  1
  O  O10  1  0.10251600  0.30624100  0.98591500  1
  O  O11  1  0.10503600  0.89496400  0.25000000  1
  O  O12  1  0.65021100  0.21219200  0.02707900  1
  O  O13  1  0.69375900  0.89748400  0.51408500  1
  O  O14  1  0.48151800  0.13162100  0.52205000  1
  O  O15  1  0.18613700  0.81386300  0.03788300  1
  O  O16  1  0.84978900  0.84978900  0.00000000  1
  O  O17  1  0.22662300  0.77337700  0.75000000  1
  O  O18  1  0.34978900  0.78780800  0.52707900  1
  O  O19  1  0.92241400  0.58887600  0.25000000  1
  O  O20  1  0.38905200  0.96417600  0.48855200  1
  O  O21  1  0.21219200  0.65021100  0.97292100  1
  O  O22  1  0.69375900  0.89748400  0.98591500  1
  O  O23  1  0.39914100  0.85433700  0.25000000  1
  O  O24  1  0.18613700  0.81386300  0.46211700  1
  O  O25  1  0.81386300  0.18613700  0.96211700  1
  O  O26  1  0.91486300  0.78430100  0.75000000  1
  O  O27  1  0.08513700  0.21569900  0.25000000  1
  O  O28  1  0.89496400  0.10503600  0.75000000  1
  O  O29  1  0.84978900  0.84978900  0.50000000  1
  O  O30  1  0.14566300  0.60085900  0.25000000  1
  O  O31  1  0.84243800  0.02200500  0.01473300  1
  O  O32  1  0.78780800  0.34978900  0.02707900  1
  O  O33  1  0.48151800  0.13162100  0.97795000  1
  O  O34  1  0.96417600  0.38905200  0.98855200  1
  O  O35  1  0.58887600  0.92241400  0.75000000  1
  O  O36  1  0.86837900  0.51848200  0.52205000  1
  O  O37  1  0.65021100  0.21219200  0.47292100  1
  O  O38  1  0.15021100  0.15021100  0.00000000  1
  O  O39  1  0.21569900  0.08513700  0.75000000  1
  O  O40  1  0.77337700  0.22662300  0.25000000  1
  O  O41  1  0.84243800  0.02200500  0.48526700  1
  O  O42  1  0.78430100  0.91486300  0.25000000  1
  O  O43  1  0.30624100  0.10251600  0.01408500  1
  O  O44  1  0.13162100  0.48151800  0.47795000  1
  O  O45  1  0.15021100  0.15021100  0.50000000  1
  O  O46  1  0.02200500  0.84243800  0.98526700  1
  O  O47  1  0.30624100  0.10251600  0.48591500  1
  O  O48  1  0.38905200  0.96417600  0.01144800  1
  O  O49  1  0.97799500  0.15756200  0.48526700  1
  O  O50  1  0.78780800  0.34978900  0.47292100  1
  O  O51  1  0.15756200  0.97799500  0.98526700  1
  O  O52  1  0.97799500  0.15756200  0.01473300  1
  O  O53  1  0.61094800  0.03582400  0.98855200  1
  O  O54  1  0.89748400  0.69375900  0.48591500  1
  O  O55  1  0.60085900  0.14566300  0.75000000  1
  O  O56  1  0.81386300  0.18613700  0.53788300  1
  O  O57  1  0.02200500  0.84243800  0.51473300  1
  O  O58  1  0.41112400  0.07758600  0.25000000  1
  O  O59  1  0.34978900  0.78780800  0.97292100  1
  O  O60  1  0.85433700  0.39914100  0.75000000  1
  O  O61  1  0.51848200  0.86837900  0.02205000  1
  O  O62  1  0.21219200  0.65021100  0.52707900  1
  O  O63  1  0.07758600  0.41112400  0.75000000  1
loop_
_geom_bond_atom_site_label_1
_geom_bond_atom_site_label_2
_geom_bond_distance
_geom_bond_site_symmetry_2
O0 Si8 1.636515 1_455
O0 Si20 1.637961 1_555
O1 Si9 1.626741 1_555
O1 Si23 1.627219 1_555
O2 Si23 1.636515 1_545
O2 Si6 1.637961 1_555
O3 Si12 1.626741 1_555
O3 Si11 1.627219 1_556
O4 Si11 1.636515 1_455
O4 Si7 1.637961 1_555
O5 Si2 1.616015 1_555
O5 Si10 1.620239 1_565
O6 Si7 1.626741 1_555
O6 Si21 1.627219 1_554
O7 Si13 1.617387 1_555
O7 Si16 1.625306 1_555
O8 Si11 1.617387 1_555
O8 Si29 1.625306 1_554
O9 Si13 1.636515 1_655
O9 Si4 1.637961 1_555
O10 Si21 1.617387 1_555
O10 Si15 1.625306 1_556
O11 Si18 1.625181 1_555
O11 Si2 1.625181 1_555
O12 Si3 1.625658 1_554
O12 Si0 1.629229 1_555
O13 Si23 1.617387 1_555
O13 Si19 1.625306 1_555
O14 Si6 1.626741 1_555
O14 Si27 1.627219 1_555
O15 Si18 1.624296 1_555
O15 Si22 1.628055 1_554
O16 Si29 1.613543 1_554
O16 Si5 1.613543 1_555
O17 Si22 1.624214 1_555
O17 Si1 1.624214 1_555
O18 Si9 1.625658 1_555
O18 Si1 1.629229 1_555
O19 Si8 1.619574 1_555
O19 Si11 1.619574 1_555
O20 Si27 1.636515 1_565
O20 Si9 1.637961 1_555
O21 Si7 1.625658 1_556
O21 Si22 1.629229 1_555
O22 Si14 1.617387 1_555
O22 Si5 1.625306 1_556
O23 Si26 1.619893 1_555
O23 Si9 1.619893 1_555
O24 Si2 1.624296 1_555
O24 Si1 1.628055 1_555
O25 Si25 1.624296 1_555
O25 Si0 1.628055 1_556
O26 Si29 1.616110 1_555
O26 Si31 1.616110 1_555
O27 Si15 1.616110 1_555
O27 Si16 1.616110 1_555
O28 Si24 1.625181 1_555
O28 Si25 1.625181 1_555
O29 Si31 1.613543 1_555
O29 Si19 1.613543 1_555
O30 Si20 1.619893 1_555
O30 Si7 1.619893 1_555
O31 Si25 1.616015 1_554
O31 Si5 1.620239 1_545
O32 Si12 1.625658 1_554
O32 Si0 1.629229 1_555
O33 Si3 1.626741 1_555
O33 Si17 1.627219 1_556
O34 Si21 1.636515 1_655
O34 Si12 1.637961 1_555
O35 Si14 1.619574 1_555
O35 Si23 1.619574 1_555
O36 Si4 1.626741 1_555
O36 Si8 1.627219 1_555
O37 Si6 1.625658 1_555
O37 Si28 1.629229 1_555
O38 Si15 1.613543 1_555
O38 Si30 1.613543 1_554
O39 Si30 1.616110 1_555
O39 Si10 1.616110 1_555
O40 Si28 1.624214 1_555
O40 Si0 1.624214 1_555
O41 Si24 1.616015 1_555
O41 Si19 1.620239 1_545
O42 Si19 1.616110 1_555
O42 Si5 1.616110 1_555
O43 Si17 1.617387 1_555
O43 Si30 1.625306 1_554
O44 Si20 1.626741 1_555
O44 Si13 1.627219 1_555
O45 Si16 1.613543 1_555
O45 Si10 1.613543 1_555
O46 Si18 1.616015 1_556
O46 Si29 1.620239 1_455
O47 Si27 1.617387 1_555
O47 Si10 1.625306 1_555
O48 Si17 1.636515 1_565
O48 Si26 1.637961 1_555
O49 Si24 1.616015 1_555
O49 Si16 1.620239 1_655
O50 Si4 1.625658 1_555
O50 Si28 1.629229 1_555
O51 Si18 1.616015 1_556
O51 Si30 1.620239 1_565
O52 Si25 1.616015 1_554
O52 Si15 1.620239 1_655
O53 Si14 1.636515 1_545
O53 Si3 1.637961 1_555
O54 Si8 1.617387 1_555
O54 Si31 1.625306 1_555
O55 Si6 1.619893 1_555
O55 Si3 1.619893 1_555
O56 Si24 1.624296 1_555
O56 Si28 1.628055 1_555
O57 Si2 1.616015 1_555
O57 Si31 1.620239 1_455
O58 Si17 1.619574 1_555
O58 Si27 1.619574 1_555
O59 Si26 1.625658 1_556
O59 Si22 1.629229 1_555
O60 Si4 1.619893 1_555
O60 Si12 1.619893 1_555
O61 Si26 1.626741 1_555
O61 Si14 1.627219 1_554
O62 Si20 1.625658 1_555
O62 Si1 1.629229 1_555
O63 Si13 1.619574 1_555
O63 Si21 1.619574 1_555
