# generated using pymatgen
data_La4Ni3O10
_symmetry_space_group_name_H-M   'P 1'
_cell_length_a   14.22502739
_cell_length_b   14.22502739
_cell_length_c   5.53777300
_cell_angle_alpha   90.00000000
_cell_angle_beta   90.00000000
_cell_angle_gamma   157.88258077
_symmetry_Int_Tables_number   1
_chemical_formula_structural   La4Ni3O10
_chemical_formula_sum   'La8 Ni6 O20'
_cell_volume   421.90356464
_cell_formula_units_Z   2
loop_
 _symmetry_equiv_pos_site_id
 _symmetry_equiv_pos_as_xyz
  1  'x, y, z'
loop_
 _atom_site_type_symbol
 _atom_site_label
 _atom_site_symmetry_multiplicity
 _atom_site_fract_x
 _atom_site_fract_y
 _atom_site_fract_z
 _atom_site_occupancy
  La  La0  1  0.93236400  0.06763600  0.49996900  1
  La  La1  1  0.06763600  0.93236400  0.50003100  1
  La  La2  1  0.56763600  0.43236400  0.99996900  1
  La  La3  1  0.43236400  0.56763600  0.00003100  1
  La  La4  1  0.80125900  0.19874100  0.48924300  1
  La  La5  1  0.19874100  0.80125900  0.51075700  1
  La  La6  1  0.69874100  0.30125900  0.98924300  1
  La  La7  1  0.30125900  0.69874100  0.01075700  1
  Ni  Ni0  1  0.50000000  0.50000000  0.50000000  1
  Ni  Ni1  1  0.00000000  0.00000000  0.00000000  1
  Ni  Ni2  1  0.63982500  0.36017500  0.49826300  1
  Ni  Ni3  1  0.36017500  0.63982500  0.50173700  1
  Ni  Ni4  1  0.86017500  0.13982500  0.99826300  1
  Ni  Ni5  1  0.13982500  0.86017500  0.00173700  1
  O  O0  1  0.75887100  0.74112900  0.75000000  1
  O  O1  1  0.74112900  0.75887100  0.25000000  1
  O  O2  1  0.24112900  0.25887100  0.25000000  1
  O  O3  1  0.25887100  0.24112900  0.75000000  1
  O  O4  1  0.56867300  0.43132700  0.44011900  1
  O  O5  1  0.43132700  0.56867300  0.55988100  1
  O  O6  1  0.93132700  0.06867300  0.94011900  1
  O  O7  1  0.06867300  0.93132700  0.05988100  1
  O  O8  1  0.88335500  0.61664500  0.75000000  1
  O  O9  1  0.61664500  0.88335500  0.25000000  1
  O  O10  1  0.11664500  0.38335500  0.25000000  1
  O  O11  1  0.38335500  0.11664500  0.75000000  1
  O  O12  1  0.71708700  0.28291300  0.54020100  1
  O  O13  1  0.28291300  0.71708700  0.45979900  1
  O  O14  1  0.78291300  0.21708700  0.04020100  1
  O  O15  1  0.21708700  0.78291300  0.95979900  1
  O  O16  1  0.89670600  0.60329400  0.25000000  1
  O  O17  1  0.60329400  0.89670600  0.75000000  1
  O  O18  1  0.10329400  0.39670600  0.75000000  1
  O  O19  1  0.39670600  0.10329400  0.25000000  1
loop_
_geom_bond_atom_site_label_1
_geom_bond_atom_site_label_2
_geom_bond_distance
_geom_bond_site_symmetry_2
La0 O6 2.437623 1_555
La0 O2 2.543576 1_655
La0 O1 2.543576 1_545
La0 O10 2.672952 1_655
La0 O9 2.672952 1_545
La0 O5 2.748820 1_545
La0 O5 2.748820 1_655
La0 O0 2.888222 1_545
La0 O3 2.888222 1_655
La0 O18 2.941547 1_655
La0 O17 2.941547 1_545
La0 O6 3.100457 1_554
La1 O7 2.437623 1_555
La1 O3 2.543576 1_565
La1 O0 2.543576 1_455
La1 O11 2.672952 1_565
La1 O8 2.672952 1_455
La1 O4 2.748820 1_565
La1 O4 2.748820 1_455
La1 O1 2.888222 1_455
La1 O2 2.888222 1_565
La1 O19 2.941547 1_565
La1 O16 2.941547 1_455
La1 O7 3.100457 1_556
La2 O4 2.437623 1_556
La2 O3 2.543576 1_555
La2 O0 2.543576 1_555
La2 O8 2.672952 1_555
La2 O11 2.672952 1_555
La2 O7 2.748820 1_656
La2 O7 2.748820 1_546
La2 O1 2.888222 1_556
La2 O2 2.888222 1_556
La2 O19 2.941547 1_556
La2 O16 2.941547 1_556
La2 O4 3.100457 1_555
La3 O5 2.437623 1_554
La3 O1 2.543576 1_555
La3 O2 2.543576 1_555
La3 O10 2.672952 1_555
La3 O9 2.672952 1_555
La3 O6 2.748820 1_564
La3 O6 2.748820 1_454
La3 O0 2.888222 1_554
La3 O3 2.888222 1_554
La3 O17 2.941547 1_554
La3 O18 2.941547 1_554
La3 O5 3.100457 1_555
La4 O12 2.367112 1_555
La4 O18 2.461177 1_655
La4 O17 2.461177 1_545
La4 O14 2.538906 1_555
La4 O9 2.636232 1_545
La4 O10 2.636232 1_655
La4 O13 2.781022 1_545
La4 O13 2.781022 1_655
La4 O14 3.093783 1_556
La5 O13 2.367112 1_555
La5 O19 2.461177 1_565
La5 O16 2.461177 1_455
La5 O15 2.538906 1_555
La5 O8 2.636232 1_455
La5 O11 2.636232 1_565
La5 O12 2.781022 1_565
La5 O12 2.781022 1_455
La5 O15 3.093783 1_554
La6 O14 2.367112 1_556
La6 O16 2.461177 1_556
La6 O19 2.461177 1_556
La6 O12 2.538906 1_555
La6 O11 2.636232 1_555
La6 O8 2.636232 1_555
La6 O15 2.781022 1_545
La6 O15 2.781022 1_655
La6 O12 3.093783 1_556
La7 O15 2.367112 1_554
La7 O17 2.461177 1_554
La7 O18 2.461177 1_554
La7 O13 2.538906 1_555
La7 O10 2.636232 1_555
La7 O9 2.636232 1_555
La7 O14 2.781022 1_455
La7 O14 2.781022 1_565
La7 O13 3.093783 1_554
Ni0 O4 1.945935 1_555
Ni0 O5 1.945935 1_555
Ni0 O2 1.959415 1_555
Ni0 O3 1.959415 1_555
Ni0 O0 1.959415 1_555
Ni0 O1 1.959415 1_555
Ni1 O7 1.945935 1_545
Ni1 O6 1.945935 1_454
Ni1 O0 1.959415 1_444
Ni1 O1 1.959415 1_445
Ni1 O2 1.959415 1_555
Ni1 O3 1.959415 1_554
Ni2 O19 1.946363 1_555
Ni2 O16 1.946363 1_555
Ni2 O8 1.958908 1_555
Ni2 O11 1.958908 1_555
Ni2 O4 2.012613 1_555
Ni2 O12 2.169757 1_555
Ni3 O18 1.946363 1_555
Ni3 O17 1.946363 1_555
Ni3 O10 1.958908 1_555
Ni3 O9 1.958908 1_555
Ni3 O5 2.012613 1_555
Ni3 O13 2.169757 1_555
Ni4 O17 1.946363 1_545
Ni4 O18 1.946363 1_655
Ni4 O9 1.958908 1_546
Ni4 O10 1.958908 1_656
Ni4 O6 2.012613 1_555
Ni4 O14 2.169757 1_556
Ni5 O16 1.946363 1_455
Ni5 O19 1.946363 1_565
Ni5 O8 1.958908 1_454
Ni5 O11 1.958908 1_564
Ni5 O7 2.012613 1_555
Ni5 O15 2.169757 1_554
