# generated using pymatgen
data_KTbCr2O8
_symmetry_space_group_name_H-M   'P 1'
_cell_length_a   5.81185700
_cell_length_b   9.21366500
_cell_length_c   13.91026100
_cell_angle_alpha   90.00000000
_cell_angle_beta   90.00000000
_cell_angle_gamma   90.00000000
_symmetry_Int_Tables_number   1
_chemical_formula_structural   KTbCr2O8
_chemical_formula_sum   'K4 Tb4 Cr8 O32'
_cell_volume   744.87365881
_cell_formula_units_Z   4
loop_
 _symmetry_equiv_pos_site_id
 _symmetry_equiv_pos_as_xyz
  1  'x, y, z'
loop_
 _atom_site_type_symbol
 _atom_site_label
 _atom_site_symmetry_multiplicity
 _atom_site_fract_x
 _atom_site_fract_y
 _atom_site_fract_z
 _atom_site_occupancy
  K  K0  1  0.73715500  0.09102300  0.58737500  1
  K  K1  1  0.76284500  0.90897700  0.08737500  1
  K  K2  1  0.26284500  0.59102300  0.91262500  1
  K  K3  1  0.23715500  0.40897700  0.41262500  1
  Tb  Tb0  1  0.22315900  0.04208200  0.85784500  1
  Tb  Tb1  1  0.72315900  0.45791800  0.14215500  1
  Tb  Tb2  1  0.27684100  0.95791800  0.35784500  1
  Tb  Tb3  1  0.77684100  0.54208200  0.64215500  1
  Cr  Cr0  1  0.73259000  0.15295600  0.33775300  1
  Cr  Cr1  1  0.26741000  0.65295600  0.16224700  1
  Cr  Cr2  1  0.27174500  0.81570700  0.61737000  1
  Cr  Cr3  1  0.72825500  0.31570700  0.88263000  1
  Cr  Cr4  1  0.23259000  0.34704400  0.66224700  1
  Cr  Cr5  1  0.76741000  0.84704400  0.83775300  1
  Cr  Cr6  1  0.22825500  0.18429300  0.11737000  1
  Cr  Cr7  1  0.77174500  0.68429300  0.38263000  1
  O  O0  1  0.48404700  0.69690400  0.60382000  1
  O  O1  1  0.98049100  0.23208700  0.89274700  1
  O  O2  1  0.01595300  0.30309600  0.10382000  1
  O  O3  1  0.25403800  0.19080600  0.72076500  1
  O  O4  1  0.79288600  0.55499900  0.46624500  1
  O  O5  1  0.98404700  0.80309600  0.39618000  1
  O  O6  1  0.17210700  0.48473400  0.73343100  1
  O  O7  1  0.29288600  0.94500100  0.53375500  1
  O  O8  1  0.79465200  0.61041800  0.27394300  1
  O  O9  1  0.32789300  0.51526600  0.23343100  1
  O  O10  1  0.75403800  0.30919400  0.27923500  1
  O  O11  1  0.67210700  0.01526600  0.26656900  1
  O  O12  1  0.20711400  0.05499900  0.03375500  1
  O  O13  1  0.49516000  0.65672000  0.08741100  1
  O  O14  1  0.02823800  0.62031600  0.09813100  1
  O  O15  1  0.70534800  0.38958200  0.77394300  1
  O  O16  1  0.01950900  0.73208700  0.60725300  1
  O  O17  1  0.51950900  0.76791300  0.39274700  1
  O  O18  1  0.50484000  0.15672000  0.41258900  1
  O  O19  1  0.20534800  0.11041800  0.22605700  1
  O  O20  1  0.00484000  0.34328000  0.58741100  1
  O  O21  1  0.51595300  0.19690400  0.89618000  1
  O  O22  1  0.70711400  0.44500100  0.96624500  1
  O  O23  1  0.74596200  0.69080600  0.77923500  1
  O  O24  1  0.97176200  0.12031600  0.40186900  1
  O  O25  1  0.99516000  0.84328000  0.91258900  1
  O  O26  1  0.29465200  0.88958200  0.72605700  1
  O  O27  1  0.47176200  0.37968400  0.59813100  1
  O  O28  1  0.24596200  0.80919400  0.22076500  1
  O  O29  1  0.82789300  0.98473400  0.76656900  1
  O  O30  1  0.48049100  0.26791300  0.10725300  1
  O  O31  1  0.52823800  0.87968400  0.90186900  1
loop_
_geom_bond_atom_site_label_1
_geom_bond_atom_site_label_2
_geom_bond_distance
_geom_bond_site_symmetry_2
K0 O29 2.729540 1_545
K0 O20 2.796839 1_655
K0 O18 2.846173 1_555
K0 O24 2.930979 1_555
K0 O7 3.005542 1_545
K0 O27 3.078161 1_555
K1 O11 2.729540 1_565
K1 O13 2.796839 1_555
K1 O25 2.846173 1_554
K1 O31 2.930979 1_554
K1 O12 3.005542 1_665
K1 O14 3.078161 1_655
K2 O6 2.729540 1_555
K2 O25 2.796839 1_455
K2 O13 2.846173 1_556
K2 O14 2.930979 1_556
K2 O22 3.005542 1_555
K2 O31 3.078161 1_555
K3 O9 2.729540 1_555
K3 O18 2.796839 1_555
K3 O20 2.846173 1_555
K3 O27 2.930979 1_555
K3 O4 3.005542 1_455
K3 O24 3.078161 1_455
Cr0 O11 1.647258 1_555
Cr0 O10 1.658423 1_555
Cr0 O24 1.678710 1_555
Cr0 O18 1.684313 1_555
Cr1 O9 1.647258 1_555
Cr1 O28 1.658423 1_555
Cr1 O14 1.678710 1_555
Cr1 O13 1.684313 1_555
Cr2 O0 1.660160 1_555
Cr2 O16 1.662056 1_555
Cr2 O26 1.663357 1_555
Cr2 O7 1.669443 1_555
Cr3 O21 1.660160 1_555
Cr3 O1 1.662056 1_555
Cr3 O15 1.663357 1_555
Cr3 O22 1.669443 1_555
Cr4 O6 1.647258 1_555
Cr4 O3 1.658423 1_555
Cr4 O27 1.678710 1_555
Cr4 O20 1.684313 1_555
Cr5 O29 1.647258 1_555
Cr5 O23 1.658423 1_555
Cr5 O31 1.678710 1_555
Cr5 O25 1.684313 1_555
Cr6 O2 1.660160 1_555
Cr6 O30 1.662056 1_555
Cr6 O19 1.663357 1_555
Cr6 O12 1.669443 1_555
Cr7 O5 1.660160 1_555
Cr7 O17 1.662056 1_555
Cr7 O8 1.663357 1_555
Cr7 O4 1.669443 1_555
O0 Tb3 2.283615 1_555
O1 Tb0 2.299902 1_655
O2 Tb1 2.283615 1_455
O3 Tb0 2.354967 1_555
O4 Tb3 2.451621 1_555
O5 Tb2 2.283615 1_655
O6 Tb3 2.677410 1_455
O7 Tb2 2.451621 1_555
O8 Tb1 2.346817 1_555
O9 Tb1 2.677410 1_555
O10 Tb1 2.354967 1_555
O11 Tb2 2.677410 1_545
O12 Tb0 2.451621 1_554
O13 Tb1 2.385556 1_555
O14 Tb1 2.399514 1_455
O15 Tb3 2.346817 1_555
O16 Tb3 2.299902 1_455
O17 Tb2 2.299902 1_555
O18 Tb2 2.385556 1_545
O19 Tb2 2.346817 1_545
O20 Tb3 2.385556 1_455
O21 Tb0 2.283615 1_555
O22 Tb1 2.451621 1_556
O23 Tb3 2.354967 1_555
O24 Tb2 2.399514 1_645
O25 Tb0 2.385556 1_665
O26 Tb0 2.346817 1_565
O27 Tb3 2.399514 1_555
O28 Tb2 2.354967 1_555
O29 Tb0 2.677410 1_665
O30 Tb1 2.299902 1_555
O31 Tb0 2.399514 1_565
