# generated using pymatgen
data_CuWO3F2
_symmetry_space_group_name_H-M   'P 1'
_cell_length_a   9.81154300
_cell_length_b   3.78480100
_cell_length_c   5.28484539
_cell_angle_alpha   74.26933800
_cell_angle_beta   90.00000000
_cell_angle_gamma   90.00000000
_symmetry_Int_Tables_number   1
_chemical_formula_structural   CuWO3F2
_chemical_formula_sum   'Cu2 W2 O6 F4'
_cell_volume   188.90110598
_cell_formula_units_Z   2
loop_
 _symmetry_equiv_pos_site_id
 _symmetry_equiv_pos_as_xyz
  1  'x, y, z'
loop_
 _atom_site_type_symbol
 _atom_site_label
 _atom_site_symmetry_multiplicity
 _atom_site_fract_x
 _atom_site_fract_y
 _atom_site_fract_z
 _atom_site_occupancy
  Cu  Cu0  1  0.50000000  0.00000000  0.50000000  1
  Cu  Cu1  1  0.00000000  0.00000000  0.50000000  1
  W  W0  1  0.25000000  0.79189600  0.02744000  1
  W  W1  1  0.75000000  0.20810400  0.97256000  1
  O  O0  1  0.60914800  0.12035900  0.19819400  1
  O  O1  1  0.39085200  0.87964100  0.80180600  1
  O  O2  1  0.10914800  0.87964100  0.80180600  1
  O  O3  1  0.25000000  0.26534000  0.10179200  1
  O  O4  1  0.75000000  0.73466000  0.89820800  1
  O  O5  1  0.89085200  0.12035900  0.19819400  1
  F  F0  1  0.88801800  0.33264900  0.65168800  1
  F  F1  1  0.11198200  0.66735100  0.34831200  1
  F  F2  1  0.38801800  0.66735100  0.34831200  1
  F  F3  1  0.61198200  0.33264900  0.65168800  1
loop_
_geom_bond_atom_site_label_1
_geom_bond_atom_site_label_2
_geom_bond_distance
_geom_bond_site_symmetry_2
Cu0 O1 1.872006 1_545
Cu0 O0 1.872006 1_555
Cu0 F3 1.995542 1_555
Cu0 F2 1.995542 1_545
Cu1 O2 1.872006 1_545
Cu1 O5 1.872006 1_455
Cu1 F0 1.995542 1_455
Cu1 F1 1.995542 1_545
O0 W1 1.796478 1_554
O1 W0 1.796478 1_556
O2 W0 1.796478 1_556
O3 W0 1.923921 1_555
O3 W0 1.935733 1_545
O4 W1 1.923921 1_555
O4 W1 1.935733 1_565
O5 W1 1.796478 1_554
F0 W1 2.120882 1_555
F1 W0 2.120882 1_555
F2 W0 2.120882 1_555
F3 W1 2.120882 1_555
