# generated using pymatgen
data_RbSmGeSe4
_symmetry_space_group_name_H-M   'P 1'
_cell_length_a   6.85565100
_cell_length_b   7.12173600
_cell_length_c   18.12534600
_cell_angle_alpha   90.00000000
_cell_angle_beta   90.00000000
_cell_angle_gamma   90.00000000
_symmetry_Int_Tables_number   1
_chemical_formula_structural   RbSmGeSe4
_chemical_formula_sum   'Rb4 Sm4 Ge4 Se16'
_cell_volume   884.95436776
_cell_formula_units_Z   4
loop_
 _symmetry_equiv_pos_site_id
 _symmetry_equiv_pos_as_xyz
  1  'x, y, z'
loop_
 _atom_site_type_symbol
 _atom_site_label
 _atom_site_symmetry_multiplicity
 _atom_site_fract_x
 _atom_site_fract_y
 _atom_site_fract_z
 _atom_site_occupancy
  Rb  Rb0  1  0.50986200  0.99512000  0.53145900  1
  Rb  Rb1  1  0.99013800  0.00488000  0.03145900  1
  Rb  Rb2  1  0.00986200  0.50488000  0.46854100  1
  Rb  Rb3  1  0.49013800  0.49512000  0.96854100  1
  Sm  Sm0  1  0.79270400  0.02076500  0.77423700  1
  Sm  Sm1  1  0.29270400  0.47923500  0.22576300  1
  Sm  Sm2  1  0.20729600  0.52076500  0.72576300  1
  Sm  Sm3  1  0.70729600  0.97923500  0.27423700  1
  Ge  Ge0  1  0.78978100  0.51378200  0.16371300  1
  Ge  Ge1  1  0.21021900  0.01378200  0.33628700  1
  Ge  Ge2  1  0.71021900  0.48621800  0.66371300  1
  Ge  Ge3  1  0.28978100  0.98621800  0.83628700  1
  Se  Se0  1  0.09955800  0.08312700  0.21484500  1
  Se  Se1  1  0.44559400  0.25524400  0.35805000  1
  Se  Se2  1  0.56288200  0.98692900  0.91516100  1
  Se  Se3  1  0.09582900  0.26252100  0.85092300  1
  Se  Se4  1  0.94559400  0.24475600  0.64195000  1
  Se  Se5  1  0.40417100  0.73747900  0.35092300  1
  Se  Se6  1  0.59582900  0.23747900  0.14907700  1
  Se  Se7  1  0.40044200  0.91687300  0.71484500  1
  Se  Se8  1  0.90044200  0.58312700  0.28515500  1
  Se  Se9  1  0.59955800  0.41687300  0.78515500  1
  Se  Se10  1  0.43711800  0.48692900  0.58483900  1
  Se  Se11  1  0.90417100  0.76252100  0.64907700  1
  Se  Se12  1  0.93711800  0.01307100  0.41516100  1
  Se  Se13  1  0.55440600  0.75524400  0.14195000  1
  Se  Se14  1  0.06288200  0.51307100  0.08483900  1
  Se  Se15  1  0.05440600  0.74475600  0.85805000  1
loop_
_geom_bond_atom_site_label_1
_geom_bond_atom_site_label_2
_geom_bond_distance
_geom_bond_site_symmetry_2
Rb0 Se7 3.452795 1_555
Rb0 Se12 3.611024 1_565
Rb0 Se10 3.667774 1_565
Rb0 Se1 3.674925 1_565
Rb0 Se10 3.779345 1_555
Rb0 Se11 3.820525 1_555
Rb0 Se5 3.820929 1_555
Rb0 Se4 4.011858 1_565
Rb1 Se0 3.452795 1_655
Rb1 Se2 3.611024 1_544
Rb1 Se14 3.667774 1_645
Rb1 Se15 3.674925 1_644
Rb1 Se14 3.779345 1_655
Rb1 Se6 3.820525 1_555
Rb1 Se3 3.820929 1_654
Rb1 Se13 4.011858 1_545
Rb2 Se8 3.452795 1_455
Rb2 Se10 3.611024 1_555
Rb2 Se12 3.667774 1_455
Rb2 Se4 3.674925 1_455
Rb2 Se12 3.779345 1_465
Rb2 Se5 3.820525 1_555
Rb2 Se11 3.820929 1_455
Rb2 Se1 4.011858 1_555
Rb3 Se9 3.452795 1_555
Rb3 Se14 3.611024 1_556
Rb3 Se2 3.667774 1_555
Rb3 Se13 3.674925 1_556
Rb3 Se2 3.779345 1_545
Rb3 Se3 3.820525 1_555
Rb3 Se6 3.820929 1_556
Rb3 Se15 4.011858 1_555
Ge0 Se14 2.355692 1_655
Ge0 Se8 2.380049 1_555
Ge0 Se6 2.389656 1_555
Ge0 Se13 2.390938 1_555
Ge1 Se12 2.355692 1_455
Ge1 Se0 2.380049 1_555
Ge1 Se5 2.389656 1_545
Ge1 Se1 2.390938 1_555
Ge2 Se10 2.355692 1_555
Ge2 Se9 2.380049 1_555
Ge2 Se11 2.389656 1_555
Ge2 Se4 2.390938 1_555
Ge3 Se2 2.355692 1_555
Ge3 Se7 2.380049 1_555
Ge3 Se3 2.389656 1_565
Ge3 Se15 2.390938 1_555
Se0 Sm3 2.989674 1_445
Se0 Sm1 3.122566 1_555
Se1 Sm3 3.064400 1_545
Se1 Sm1 3.064721 1_555
Se2 Sm0 3.010805 1_565
Se3 Sm2 3.018746 1_555
Se3 Sm0 3.035605 1_455
Se4 Sm2 3.064400 1_655
Se4 Sm0 3.064721 1_555
Se5 Sm1 3.018746 1_555
Se5 Sm3 3.035605 1_555
Se6 Sm3 3.018746 1_545
Se6 Sm1 3.035605 1_555
Se7 Sm0 2.989674 1_565
Se7 Sm2 3.122566 1_555
Se8 Sm1 2.989674 1_655
Se8 Sm3 3.122566 1_555
Se9 Sm2 2.989674 1_555
Se9 Sm0 3.122566 1_555
Se10 Sm2 3.010805 1_555
Se11 Sm0 3.018746 1_565
Se11 Sm2 3.035605 1_655
Se12 Sm3 3.010805 1_545
Se13 Sm1 3.064400 1_555
Se13 Sm3 3.064721 1_555
Se14 Sm1 3.010805 1_555
Se15 Sm0 3.064400 1_465
Se15 Sm2 3.064721 1_555
