# generated using pymatgen
data_RbNb(GeO3)3
_symmetry_space_group_name_H-M   'P 1'
_cell_length_a   7.16918583
_cell_length_b   7.16918583
_cell_length_c   10.32929800
_cell_angle_alpha   90.00000000
_cell_angle_beta   90.00000000
_cell_angle_gamma   119.99999840
_symmetry_Int_Tables_number   1
_chemical_formula_structural   RbNb(GeO3)3
_chemical_formula_sum   'Rb2 Nb2 Ge6 O18'
_cell_volume   459.77051936
_cell_formula_units_Z   2
loop_
 _symmetry_equiv_pos_site_id
 _symmetry_equiv_pos_as_xyz
  1  'x, y, z'
loop_
 _atom_site_type_symbol
 _atom_site_label
 _atom_site_symmetry_multiplicity
 _atom_site_fract_x
 _atom_site_fract_y
 _atom_site_fract_z
 _atom_site_occupancy
  Rb  Rb0  1  0.66666700  0.33333300  0.00000000  1
  Rb  Rb1  1  0.66666700  0.33333300  0.50000000  1
  Nb  Nb0  1  0.33333300  0.66666700  0.00000000  1
  Nb  Nb1  1  0.33333300  0.66666700  0.50000000  1
  Ge  Ge0  1  0.07603800  0.28809500  0.25000000  1
  Ge  Ge1  1  0.21205700  0.92396200  0.25000000  1
  Ge  Ge2  1  0.71190500  0.78794300  0.25000000  1
  Ge  Ge3  1  0.71190500  0.92396200  0.75000000  1
  Ge  Ge4  1  0.21205700  0.28809500  0.75000000  1
  Ge  Ge5  1  0.07603800  0.78794300  0.75000000  1
  O  O0  1  0.26412900  0.19482200  0.25000000  1
  O  O1  1  0.93069300  0.73587100  0.25000000  1
  O  O2  1  0.80517800  0.06930700  0.25000000  1
  O  O3  1  0.80517800  0.73587100  0.75000000  1
  O  O4  1  0.93069300  0.19482200  0.75000000  1
  O  O5  1  0.26412900  0.06930700  0.75000000  1
  O  O6  1  0.10187800  0.43823400  0.11067400  1
  O  O7  1  0.33635500  0.89812200  0.38932600  1
  O  O8  1  0.56176600  0.66364500  0.38932600  1
  O  O9  1  0.56176600  0.66364500  0.11067400  1
  O  O10  1  0.33635500  0.89812200  0.11067400  1
  O  O11  1  0.56176600  0.89812200  0.88932600  1
  O  O12  1  0.33635500  0.43823400  0.88932600  1
  O  O13  1  0.10187800  0.66364500  0.88932600  1
  O  O14  1  0.33635500  0.43823400  0.61067400  1
  O  O15  1  0.10187800  0.66364500  0.61067400  1
  O  O16  1  0.10187800  0.43823400  0.38932600  1
  O  O17  1  0.56176600  0.89812200  0.61067400  1
loop_
_geom_bond_atom_site_label_1
_geom_bond_atom_site_label_2
_geom_bond_distance
_geom_bond_site_symmetry_2
Nb0 O9 2.006194 1_555
Nb0 O12 2.006194 1_554
Nb0 O13 2.006194 1_554
Nb0 O10 2.006194 1_555
Nb0 O11 2.006194 1_554
Nb0 O6 2.006194 1_555
Nb1 O14 2.006194 1_555
Nb1 O8 2.006194 1_555
Nb1 O15 2.006194 1_555
Nb1 O7 2.006194 1_555
Nb1 O17 2.006194 1_555
Nb1 O16 2.006194 1_555
Ge0 O6 1.750606 1_555
Ge0 O16 1.750606 1_555
Ge0 O0 1.779661 1_555
Ge0 O2 1.784716 1_455
Ge1 O10 1.750602 1_555
Ge1 O7 1.750602 1_555
Ge1 O1 1.779661 1_455
Ge1 O0 1.784716 1_565
Ge2 O8 1.750605 1_555
Ge2 O9 1.750605 1_555
Ge2 O2 1.779661 1_565
Ge2 O1 1.784716 1_555
Ge3 O11 1.750606 1_555
Ge3 O17 1.750606 1_555
Ge3 O3 1.779661 1_555
Ge3 O4 1.784716 1_565
Ge4 O12 1.750605 1_555
Ge4 O14 1.750605 1_555
Ge4 O4 1.779661 1_455
Ge4 O5 1.784716 1_555
Ge5 O13 1.750602 1_555
Ge5 O15 1.750602 1_555
Ge5 O5 1.779661 1_565
Ge5 O3 1.784716 1_455
O6 Rb0 3.043196 1_455
O7 Rb1 3.043200 1_565
O8 Rb1 3.043209 1_555
O9 Rb0 3.043209 1_555
O10 Rb0 3.043200 1_565
O11 Rb0 3.043196 1_566
O12 Rb0 3.043209 1_556
O13 Rb0 3.043200 1_456
O14 Rb1 3.043209 1_555
O15 Rb1 3.043200 1_455
O16 Rb1 3.043196 1_455
O17 Rb1 3.043196 1_565
