# generated using pymatgen
data_Fe3B7IO13
_symmetry_space_group_name_H-M   'P 1'
_cell_length_a   8.71374897
_cell_length_b   8.71374897
_cell_length_c   8.71374849
_cell_angle_alpha   61.92061765
_cell_angle_beta   61.92061765
_cell_angle_gamma   61.92061404
_symmetry_Int_Tables_number   1
_chemical_formula_structural   Fe3B7IO13
_chemical_formula_sum   'Fe6 B14 I2 O26'
_cell_volume   487.95282295
_cell_formula_units_Z   2
loop_
 _symmetry_equiv_pos_site_id
 _symmetry_equiv_pos_as_xyz
  1  'x, y, z'
loop_
 _atom_site_type_symbol
 _atom_site_label
 _atom_site_symmetry_multiplicity
 _atom_site_fract_x
 _atom_site_fract_y
 _atom_site_fract_z
 _atom_site_occupancy
  Fe  Fe0  1  0.53270300  0.00809500  0.51920100  1
  Fe  Fe1  1  0.50809500  0.03270300  0.01920100  1
  Fe  Fe2  1  0.03270300  0.01920100  0.50809500  1
  Fe  Fe3  1  0.01920100  0.50809500  0.03270300  1
  Fe  Fe4  1  0.51920100  0.53270300  0.00809500  1
  Fe  Fe5  1  0.00809500  0.51920100  0.53270300  1
  B  B0  1  0.67448200  0.34432300  0.44682000  1
  B  B1  1  0.73587000  0.75038700  0.28190400  1
  B  B2  1  0.23587000  0.78190400  0.25038700  1
  B  B3  1  0.44682000  0.67448200  0.34432300  1
  B  B4  1  0.94682000  0.84432300  0.17448200  1
  B  B5  1  0.34432300  0.44682000  0.67448200  1
  B  B6  1  0.25038700  0.23587000  0.78190400  1
  B  B7  1  0.17448200  0.94682000  0.84432300  1
  B  B8  1  0.10698400  0.10698400  0.10698400  1
  B  B9  1  0.60698400  0.60698400  0.60698400  1
  B  B10  1  0.28190400  0.73587000  0.75038700  1
  B  B11  1  0.75038700  0.28190400  0.73587000  1
  B  B12  1  0.78190400  0.25038700  0.23587000  1
  B  B13  1  0.84432300  0.17448200  0.94682000  1
  I  I0  1  0.26996100  0.26996100  0.26996100  1
  I  I1  1  0.76996100  0.76996100  0.76996100  1
  O  O0  1  0.91451900  0.71374300  0.13485000  1
  O  O1  1  0.95950900  0.10304700  0.26553700  1
  O  O2  1  0.71374300  0.13485000  0.91451900  1
  O  O3  1  0.26553700  0.95950900  0.10304700  1
  O  O4  1  0.27859800  0.07481900  0.74947500  1
  O  O5  1  0.60304700  0.45950900  0.76553700  1
  O  O6  1  0.28181000  0.74893300  0.91374800  1
  O  O7  1  0.13485000  0.91451900  0.71374300  1
  O  O8  1  0.57481900  0.77859800  0.24947500  1
  O  O9  1  0.41374800  0.24893300  0.78181000  1
  O  O10  1  0.00028300  0.00028300  0.00028300  1
  O  O11  1  0.74893300  0.91374800  0.28181000  1
  O  O12  1  0.10304700  0.26553700  0.95950900  1
  O  O13  1  0.74947500  0.27859800  0.07481900  1
  O  O14  1  0.78181000  0.41374800  0.24893300  1
  O  O15  1  0.24893300  0.78181000  0.41374800  1
  O  O16  1  0.21374300  0.41451900  0.63485000  1
  O  O17  1  0.77859800  0.24947500  0.57481900  1
  O  O18  1  0.91374800  0.28181000  0.74893300  1
  O  O19  1  0.41451900  0.63485000  0.21374300  1
  O  O20  1  0.76553700  0.60304700  0.45950900  1
  O  O21  1  0.50028300  0.50028300  0.50028300  1
  O  O22  1  0.63485000  0.21374300  0.41451900  1
  O  O23  1  0.24947500  0.57481900  0.77859800  1
  O  O24  1  0.07481900  0.74947500  0.27859800  1
  O  O25  1  0.45950900  0.76553700  0.60304700  1
loop_
_geom_bond_atom_site_label_1
_geom_bond_atom_site_label_2
_geom_bond_distance
_geom_bond_site_symmetry_2
Fe0 O22 2.008447 1_555
Fe0 O25 2.187347 1_545
Fe0 O4 2.229536 1_555
Fe0 O11 2.231268 1_545
Fe0 I1 3.049628 1_545
Fe0 I0 3.203565 1_555
Fe1 O2 2.008447 1_554
Fe1 O3 2.187347 1_545
Fe1 O8 2.229536 1_545
Fe1 O9 2.231268 1_554
Fe1 I0 3.049628 1_555
Fe1 I1 3.203565 1_544
Fe2 O7 2.008447 1_545
Fe2 O1 2.187347 1_455
Fe2 O17 2.229535 1_455
Fe2 O15 2.231268 1_545
Fe2 I0 3.049628 1_555
Fe2 I1 3.203565 1_445
Fe3 O0 2.008447 1_455
Fe3 O12 2.187347 1_554
Fe3 O23 2.229536 1_554
Fe3 O14 2.231268 1_455
Fe3 I0 3.049628 1_555
Fe3 I1 3.203565 1_454
Fe4 O19 2.008447 1_555
Fe4 O5 2.187347 1_554
Fe4 O13 2.229535 1_555
Fe4 O6 2.231268 1_554
Fe4 I1 3.049628 1_554
Fe4 I0 3.203565 1_555
Fe5 O16 2.008447 1_555
Fe5 O20 2.187347 1_455
Fe5 O24 2.229536 1_555
Fe5 O18 2.231268 1_455
Fe5 I1 3.049628 1_455
Fe5 I0 3.203565 1_555
B0 O17 1.459140 1_555
B0 O14 1.498811 1_555
B0 O22 1.502023 1_555
B0 O21 1.535041 1_555
B1 O8 1.446671 1_555
B1 O11 1.480075 1_555
B1 O0 1.485482 1_555
B1 O20 1.517880 1_555
B2 O24 1.446671 1_555
B2 O15 1.480075 1_555
B2 O19 1.485482 1_555
B2 O3 1.517880 1_555
B3 O8 1.459141 1_555
B3 O15 1.498811 1_555
B3 O19 1.502023 1_555
B3 O21 1.535041 1_555
B4 O24 1.459140 1_655
B4 O11 1.498811 1_555
B4 O0 1.502023 1_555
B4 O10 1.535041 1_665
B5 O23 1.459140 1_555
B5 O9 1.498811 1_555
B5 O16 1.502023 1_555
B5 O21 1.535041 1_555
B6 O4 1.446671 1_555
B6 O9 1.480075 1_555
B6 O16 1.485482 1_555
B6 O12 1.517880 1_555
B7 O4 1.459141 1_565
B7 O6 1.498811 1_555
B7 O7 1.502023 1_555
B7 O10 1.535041 1_566
B8 O3 1.373632 1_545
B8 O1 1.373632 1_455
B8 O12 1.373632 1_554
B9 O25 1.373632 1_555
B9 O5 1.373632 1_555
B9 O20 1.373632 1_555
B10 O23 1.446671 1_555
B10 O6 1.480075 1_555
B10 O7 1.485482 1_555
B10 O25 1.517880 1_555
B11 O17 1.446671 1_555
B11 O18 1.480075 1_555
B11 O2 1.485482 1_555
B11 O5 1.517880 1_555
B12 O13 1.446671 1_555
B12 O14 1.480075 1_555
B12 O22 1.485482 1_555
B12 O1 1.517880 1_555
B13 O13 1.459140 1_556
B13 O18 1.498811 1_555
B13 O2 1.502023 1_555
B13 O10 1.535041 1_656
