# generated using pymatgen
data_TiAsRh
_symmetry_space_group_name_H-M   'P 1'
_cell_length_a   3.81464214
_cell_length_b   6.37028541
_cell_length_c   7.39709866
_cell_angle_alpha   90.00000000
_cell_angle_beta   90.00000000
_cell_angle_gamma   90.00000000
_symmetry_Int_Tables_number   1
_chemical_formula_structural   TiAsRh
_chemical_formula_sum   'Ti4 As4 Rh4'
_cell_volume   179.75215425
_cell_formula_units_Z   4
loop_
 _symmetry_equiv_pos_site_id
 _symmetry_equiv_pos_as_xyz
  1  'x, y, z'
loop_
 _atom_site_type_symbol
 _atom_site_label
 _atom_site_symmetry_multiplicity
 _atom_site_fract_x
 _atom_site_fract_y
 _atom_site_fract_z
 _atom_site_occupancy
  Ti  Ti0  1  0.75000000  0.03156072  0.31807784  1
  Ti  Ti1  1  0.25000000  0.96843928  0.68192216  1
  Ti  Ti2  1  0.25000000  0.46843928  0.81807784  1
  Ti  Ti3  1  0.75000000  0.53156072  0.18192216  1
  As  As0  1  0.25000000  0.25110135  0.12168279  1
  As  As1  1  0.75000000  0.74889865  0.87831721  1
  As  As2  1  0.25000000  0.75110135  0.37831721  1
  As  As3  1  0.75000000  0.24889865  0.62168279  1
  Rh  Rh0  1  0.75000000  0.14298185  0.93572630  1
  Rh  Rh1  1  0.25000000  0.85701815  0.06427370  1
  Rh  Rh2  1  0.25000000  0.35701815  0.43572630  1
  Rh  Rh3  1  0.75000000  0.64298185  0.56427370  1
loop_
_geom_bond_atom_site_label_1
_geom_bond_atom_site_label_2
_geom_bond_distance
_geom_bond_site_symmetry_2
As0 Rh2 2.419014 1_555
As0 Rh0 2.450379 1_554
As0 Rh0 2.450379 1_454
As0 Rh1 2.546087 1_545
As0 Ti2 2.638267 1_554
As0 Ti3 2.651111 1_455
As0 Ti3 2.651111 1_555
As0 Ti0 2.775657 1_555
As0 Ti0 2.775657 1_455
As1 Rh3 2.419014 1_555
As1 Rh1 2.450379 1_556
As1 Rh1 2.450379 1_656
As1 Rh0 2.546087 1_565
As1 Ti3 2.638267 1_556
As1 Ti2 2.651111 1_555
As1 Ti2 2.651111 1_655
As1 Ti1 2.775657 1_655
As1 Ti1 2.775657 1_555
As2 Rh1 2.419014 1_555
As2 Rh3 2.450379 1_455
As2 Rh3 2.450379 1_555
As2 Rh2 2.546087 1_555
As2 Ti1 2.638267 1_555
As2 Ti0 2.651111 1_565
As2 Ti0 2.651111 1_465
As2 Ti3 2.775657 1_455
As2 Ti3 2.775657 1_555
As3 Rh0 2.419014 1_555
As3 Rh2 2.450379 1_555
As3 Rh2 2.450379 1_655
As3 Rh3 2.546087 1_555
As3 Ti0 2.638267 1_555
As3 Ti1 2.651111 1_545
As3 Ti1 2.651111 1_645
As3 Ti2 2.775657 1_655
As3 Ti2 2.775657 1_555
Rh0 Rh1 2.803663 1_546
Rh0 Rh1 2.803663 1_646
Rh0 Ti1 2.898077 1_645
Rh0 Ti1 2.898077 1_545
Rh0 Ti0 2.915996 1_556
Rh0 Ti2 2.948494 1_655
Rh0 Ti2 2.948494 1_555
Rh0 Ti3 3.073098 1_556
Rh1 Ti0 2.898077 1_465
Rh1 Ti0 2.898077 1_565
Rh1 Ti1 2.915996 1_554
Rh1 Ti3 2.948494 1_455
Rh1 Ti3 2.948494 1_555
Rh1 Ti2 3.073098 1_554
Rh2 Rh3 2.803663 1_555
Rh2 Rh3 2.803663 1_455
Rh2 Ti3 2.898077 1_555
Rh2 Ti3 2.898077 1_455
Rh2 Ti2 2.915996 1_555
Rh2 Ti0 2.948494 1_555
Rh2 Ti0 2.948494 1_455
Rh2 Ti1 3.073098 1_545
Rh3 Ti2 2.898077 1_555
Rh3 Ti2 2.898077 1_655
Rh3 Ti3 2.915996 1_555
Rh3 Ti1 2.948494 1_555
Rh3 Ti1 2.948494 1_655
Rh3 Ti0 3.073098 1_565
