# generated using pymatgen
data_Na3Mn4(TeO6)2
_symmetry_space_group_name_H-M   'P 1'
_cell_length_a   9.35416100
_cell_length_b   9.61633200
_cell_length_c   11.21181000
_cell_angle_alpha   90.00000000
_cell_angle_beta   90.00000000
_cell_angle_gamma   90.00000000
_symmetry_Int_Tables_number   1
_chemical_formula_structural   Na3Mn4(TeO6)2
_chemical_formula_sum   'Na12 Mn16 Te8 O48'
_cell_volume   1008.53278048
_cell_formula_units_Z   4
loop_
 _symmetry_equiv_pos_site_id
 _symmetry_equiv_pos_as_xyz
  1  'x, y, z'
loop_
 _atom_site_type_symbol
 _atom_site_label
 _atom_site_symmetry_multiplicity
 _atom_site_fract_x
 _atom_site_fract_y
 _atom_site_fract_z
 _atom_site_occupancy
  Na  Na0  1  0.08251700  0.75212500  0.64600800  1
  Na  Na1  1  0.58251700  0.24787500  0.35399200  1
  Na  Na2  1  0.25000000  0.23800000  0.34501700  1
  Na  Na3  1  0.41748300  0.75212500  0.64600800  1
  Na  Na4  1  0.75000000  0.26200000  0.84501700  1
  Na  Na5  1  0.91748300  0.74787500  0.14600800  1
  Na  Na6  1  0.41748300  0.25212500  0.85399200  1
  Na  Na7  1  0.08251700  0.25212500  0.85399200  1
  Na  Na8  1  0.25000000  0.73800000  0.15498300  1
  Na  Na9  1  0.58251700  0.74787500  0.14600800  1
  Na  Na10  1  0.75000000  0.76200000  0.65498300  1
  Na  Na11  1  0.91748300  0.24787500  0.35399200  1
  Mn  Mn0  1  0.91331500  0.57007000  0.38759300  1
  Mn  Mn1  1  0.91331500  0.07007000  0.11240700  1
  Mn  Mn2  1  0.08310300  0.41596800  0.10783800  1
  Mn  Mn3  1  0.41331500  0.42993000  0.61240700  1
  Mn  Mn4  1  0.58310300  0.08403200  0.60783800  1
  Mn  Mn5  1  0.58668500  0.07007000  0.11240700  1
  Mn  Mn6  1  0.91689700  0.08403200  0.60783800  1
  Mn  Mn7  1  0.08668500  0.42993000  0.61240700  1
  Mn  Mn8  1  0.58310300  0.58403200  0.89216200  1
  Mn  Mn9  1  0.41331500  0.92993000  0.88759300  1
  Mn  Mn10  1  0.08310300  0.91596800  0.39216200  1
  Mn  Mn11  1  0.91689700  0.58403200  0.89216200  1
  Mn  Mn12  1  0.08668500  0.92993000  0.88759300  1
  Mn  Mn13  1  0.41689700  0.91596800  0.39216200  1
  Mn  Mn14  1  0.58668500  0.57007000  0.38759300  1
  Mn  Mn15  1  0.41689700  0.41596800  0.10783800  1
  Te  Te0  1  0.75000000  0.44287800  0.61590100  1
  Te  Te1  1  0.25000000  0.58367600  0.89667900  1
  Te  Te2  1  0.75000000  0.91632400  0.39667900  1
  Te  Te3  1  0.25000000  0.05712200  0.11590100  1
  Te  Te4  1  0.75000000  0.94287800  0.88409900  1
  Te  Te5  1  0.25000000  0.08367600  0.60332100  1
  Te  Te6  1  0.75000000  0.41632400  0.10332100  1
  Te  Te7  1  0.25000000  0.55712200  0.38409900  1
  O  O0  1  0.09300100  0.62607500  0.00801400  1
  O  O1  1  0.25000000  0.89718400  0.52692500  1
  O  O2  1  0.75000000  0.01323500  0.71636300  1
  O  O3  1  0.09658000  0.42381000  0.41702700  1
  O  O4  1  0.59658000  0.07619000  0.91702700  1
  O  O5  1  0.40699900  0.12607500  0.49198600  1
  O  O6  1  0.90342000  0.57619000  0.58297300  1
  O  O7  1  0.90699900  0.37392500  0.99198600  1
  O  O8  1  0.75000000  0.41198700  0.44258500  1
  O  O9  1  0.75000000  0.51323500  0.78363700  1
  O  O10  1  0.90418200  0.47323000  0.21201200  1
  O  O11  1  0.40418200  0.52677000  0.78798800  1
  O  O12  1  0.25000000  0.98676500  0.28363700  1
  O  O13  1  0.40418200  0.02677000  0.71201200  1
  O  O14  1  0.75000000  0.22550200  0.16629300  1
  O  O15  1  0.59300100  0.87392500  0.50801400  1
  O  O16  1  0.90342000  0.07619000  0.91702700  1
  O  O17  1  0.59581800  0.97323000  0.28798800  1
  O  O18  1  0.25000000  0.58801300  0.55741500  1
  O  O19  1  0.60123200  0.30570900  0.65608400  1
  O  O20  1  0.39876800  0.19429100  0.15608400  1
  O  O21  1  0.40699900  0.62607500  0.00801400  1
  O  O22  1  0.25000000  0.39718400  0.97307500  1
  O  O23  1  0.90699900  0.87392500  0.50801400  1
  O  O24  1  0.09581800  0.52677000  0.78798800  1
  O  O25  1  0.25000000  0.27449800  0.66629300  1
  O  O26  1  0.40342000  0.42381000  0.41702700  1
  O  O27  1  0.39876800  0.69429100  0.34391600  1
  O  O28  1  0.59581800  0.47323000  0.21201200  1
  O  O29  1  0.59658000  0.57619000  0.58297300  1
  O  O30  1  0.09581800  0.02677000  0.71201200  1
  O  O31  1  0.25000000  0.48676500  0.21636300  1
  O  O32  1  0.90418200  0.97323000  0.28798800  1
  O  O33  1  0.09658000  0.92381000  0.08297300  1
  O  O34  1  0.75000000  0.72550200  0.33370700  1
  O  O35  1  0.75000000  0.60281600  0.02692500  1
  O  O36  1  0.89876800  0.80570900  0.84391600  1
  O  O37  1  0.09300100  0.12607500  0.49198600  1
  O  O38  1  0.10123200  0.19429100  0.15608400  1
  O  O39  1  0.40342000  0.92381000  0.08297300  1
  O  O40  1  0.25000000  0.77449800  0.83370700  1
  O  O41  1  0.75000000  0.91198700  0.05741500  1
  O  O42  1  0.25000000  0.08801300  0.94258500  1
  O  O43  1  0.10123200  0.69429100  0.34391600  1
  O  O44  1  0.75000000  0.10281600  0.47307500  1
  O  O45  1  0.89876800  0.30570900  0.65608400  1
  O  O46  1  0.60123200  0.80570900  0.84391600  1
  O  O47  1  0.59300100  0.37392500  0.99198600  1
loop_
_geom_bond_atom_site_label_1
_geom_bond_atom_site_label_2
_geom_bond_distance
_geom_bond_site_symmetry_2
Na0 O18 2.435493 1_555
Na0 O6 2.483640 1_455
Na0 O1 2.486537 1_555
Na0 O23 2.541883 1_455
Na0 O40 2.632378 1_555
Na0 O24 2.691793 1_555
Na0 O30 2.745616 1_565
Na0 O36 2.853664 1_455
Na1 O8 2.435493 1_555
Na1 O26 2.483640 1_555
Na1 O44 2.486537 1_555
Na1 O5 2.541883 1_555
Na1 O14 2.632378 1_555
Na1 O28 2.691793 1_555
Na1 O17 2.745616 1_545
Na1 O20 2.853664 1_555
Na2 O3 2.429832 1_555
Na2 O26 2.429832 1_555
Na2 O5 2.455690 1_555
Na2 O37 2.455690 1_555
Na2 O12 2.512061 1_545
Na2 O38 2.569111 1_555
Na2 O20 2.569111 1_555
Na2 O31 2.793439 1_555
Na3 O18 2.435493 1_555
Na3 O29 2.483640 1_555
Na3 O1 2.486537 1_555
Na3 O15 2.541883 1_555
Na3 O40 2.632378 1_555
Na3 O11 2.691793 1_555
Na3 O13 2.745616 1_565
Na3 O46 2.853664 1_555
Na4 O16 2.429832 1_555
Na4 O4 2.429832 1_555
Na4 O47 2.455690 1_555
Na4 O7 2.455690 1_555
Na4 O9 2.512061 1_555
Na4 O45 2.569111 1_555
Na4 O19 2.569111 1_555
Na4 O2 2.793439 1_555
Na5 O41 2.435493 1_555
Na5 O33 2.483640 1_655
Na5 O35 2.486537 1_555
Na5 O0 2.541883 1_655
Na5 O34 2.632378 1_555
Na5 O32 2.691793 1_555
Na5 O10 2.745616 1_555
Na5 O43 2.853664 1_655
Na6 O42 2.435493 1_555
Na6 O4 2.483640 1_555
Na6 O22 2.486537 1_555
Na6 O47 2.541883 1_555
Na6 O25 2.632378 1_555
Na6 O13 2.691793 1_555
Na6 O11 2.745616 1_555
Na6 O19 2.853664 1_555
Na7 O42 2.435493 1_555
Na7 O16 2.483640 1_455
Na7 O22 2.486537 1_555
Na7 O7 2.541883 1_455
Na7 O25 2.632378 1_555
Na7 O30 2.691793 1_555
Na7 O24 2.745616 1_555
Na7 O45 2.853664 1_455
Na8 O39 2.429832 1_555
Na8 O33 2.429832 1_555
Na8 O21 2.455690 1_555
Na8 O0 2.455690 1_555
Na8 O31 2.512061 1_555
Na8 O43 2.569111 1_555
Na8 O27 2.569111 1_555
Na8 O12 2.793439 1_555
Na9 O41 2.435493 1_555
Na9 O39 2.483640 1_555
Na9 O35 2.486537 1_555
Na9 O21 2.541883 1_555
Na9 O34 2.632378 1_555
Na9 O17 2.691793 1_555
Na9 O28 2.745616 1_555
Na9 O27 2.853664 1_555
Na10 O6 2.429832 1_555
Na10 O29 2.429832 1_555
Na10 O15 2.455690 1_555
Na10 O23 2.455690 1_555
Na10 O2 2.512061 1_565
Na10 O36 2.569111 1_555
Na10 O46 2.569111 1_555
Na10 O9 2.793439 1_555
Na11 O8 2.435493 1_555
Na11 O3 2.483640 1_655
Na11 O44 2.486537 1_555
Na11 O37 2.541883 1_655
Na11 O14 2.632378 1_555
Na11 O10 2.691793 1_555
Na11 O32 2.745616 1_545
Na11 O38 2.853664 1_655
Mn0 O10 2.179410 1_555
Mn0 O43 2.180971 1_655
Mn0 O6 2.193308 1_555
Mn0 O34 2.221010 1_555
Mn0 O8 2.241624 1_555
Mn0 O3 2.241851 1_655
Mn1 O32 2.179410 1_545
Mn1 O38 2.180971 1_655
Mn1 O16 2.193308 1_554
Mn1 O14 2.221010 1_555
Mn1 O41 2.241624 1_545
Mn1 O33 2.241851 1_645
Mn2 O31 2.093154 1_555
Mn2 O10 2.113886 1_455
Mn2 O7 2.136408 1_454
Mn2 O22 2.180102 1_554
Mn2 O38 2.205807 1_555
Mn2 O0 2.311591 1_555
Mn3 O11 2.179410 1_555
Mn3 O19 2.180971 1_555
Mn3 O26 2.193308 1_555
Mn3 O25 2.221010 1_555
Mn3 O18 2.241624 1_555
Mn3 O29 2.241851 1_555
Mn4 O2 2.093154 1_555
Mn4 O13 2.113886 1_555
Mn4 O5 2.136408 1_555
Mn4 O44 2.180102 1_555
Mn4 O19 2.205807 1_555
Mn4 O15 2.311591 1_545
Mn5 O17 2.179410 1_545
Mn5 O20 2.180971 1_555
Mn5 O4 2.193308 1_554
Mn5 O14 2.221010 1_555
Mn5 O41 2.241624 1_545
Mn5 O39 2.241851 1_545
Mn6 O2 2.093154 1_555
Mn6 O30 2.113886 1_655
Mn6 O37 2.136408 1_655
Mn6 O44 2.180102 1_555
Mn6 O45 2.205807 1_555
Mn6 O23 2.311591 1_545
Mn7 O24 2.179410 1_555
Mn7 O45 2.180971 1_455
Mn7 O3 2.193308 1_555
Mn7 O25 2.221010 1_555
Mn7 O18 2.241624 1_555
Mn7 O6 2.241851 1_455
Mn8 O9 2.093154 1_555
Mn8 O11 2.113886 1_555
Mn8 O21 2.136408 1_556
Mn8 O35 2.180102 1_556
Mn8 O46 2.205807 1_555
Mn8 O47 2.311591 1_555
Mn9 O13 2.179410 1_565
Mn9 O46 2.180971 1_555
Mn9 O39 2.193308 1_556
Mn9 O40 2.221010 1_555
Mn9 O42 2.241624 1_565
Mn9 O4 2.241851 1_565
Mn10 O12 2.093154 1_555
Mn10 O32 2.113886 1_455
Mn10 O23 2.136408 1_455
Mn10 O1 2.180102 1_555
Mn10 O43 2.205807 1_555
Mn10 O37 2.311591 1_565
Mn11 O9 2.093154 1_555
Mn11 O24 2.113886 1_655
Mn11 O0 2.136408 1_656
Mn11 O35 2.180102 1_556
Mn11 O36 2.205807 1_555
Mn11 O7 2.311591 1_555
Mn12 O30 2.179410 1_565
Mn12 O36 2.180971 1_455
Mn12 O33 2.193308 1_556
Mn12 O40 2.221010 1_555
Mn12 O42 2.241624 1_565
Mn12 O16 2.241851 1_465
Mn13 O12 2.093154 1_555
Mn13 O17 2.113886 1_555
Mn13 O15 2.136408 1_555
Mn13 O1 2.180102 1_555
Mn13 O27 2.205807 1_555
Mn13 O5 2.311591 1_565
Mn14 O28 2.179410 1_555
Mn14 O27 2.180971 1_555
Mn14 O29 2.193308 1_555
Mn14 O34 2.221010 1_555
Mn14 O8 2.241624 1_555
Mn14 O26 2.241851 1_555
Mn15 O31 2.093154 1_555
Mn15 O28 2.113886 1_555
Mn15 O47 2.136408 1_554
Mn15 O22 2.180102 1_554
Mn15 O20 2.205807 1_555
Mn15 O21 2.311591 1_555
O0 Te1 1.970070 1_554
O1 Te5 1.987418 1_565
O2 Te4 1.998625 1_545
O3 Te7 1.959415 1_555
O4 Te4 1.959415 1_545
O5 Te5 1.970070 1_555
O6 Te0 1.959415 1_555
O7 Te6 1.970070 1_556
O8 Te0 1.965761 1_555
O9 Te0 1.998625 1_555
O10 Te6 1.965850 1_555
O11 Te1 1.965850 1_555
O12 Te3 1.998625 1_565
O13 Te5 1.965850 1_555
O14 Te6 1.966146 1_555
O15 Te2 1.970070 1_555
O16 Te4 1.959415 1_545
O17 Te2 1.965850 1_555
O18 Te7 1.965761 1_555
O19 Te0 1.969632 1_555
O20 Te3 1.969632 1_555
O21 Te1 1.970070 1_554
O22 Te1 1.987418 1_555
O23 Te2 1.970070 1_555
O24 Te1 1.965850 1_555
O25 Te5 1.966146 1_555
O26 Te7 1.959415 1_555
O27 Te7 1.969632 1_555
O28 Te6 1.965850 1_555
O29 Te0 1.959415 1_555
O30 Te5 1.965850 1_555
O31 Te7 1.998625 1_555
O32 Te2 1.965850 1_555
O33 Te3 1.959415 1_565
O34 Te2 1.966146 1_555
O35 Te6 1.987418 1_555
O36 Te4 1.969632 1_555
O37 Te5 1.970070 1_555
O38 Te3 1.969632 1_555
O39 Te3 1.959415 1_565
O40 Te1 1.966146 1_555
O41 Te4 1.965761 1_554
O42 Te3 1.965761 1_556
O43 Te7 1.969632 1_555
O44 Te2 1.987418 1_545
O45 Te0 1.969632 1_555
O46 Te4 1.969632 1_555
O47 Te6 1.970070 1_556
