# generated using pymatgen
data_Na5Ca4P4O16F
_symmetry_space_group_name_H-M   'P 1'
_cell_length_a   8.74760188
_cell_length_b   8.74760188
_cell_length_c   8.74760188
_cell_angle_alpha   95.61450444
_cell_angle_beta   95.61450444
_cell_angle_gamma   143.54563038
_symmetry_Int_Tables_number   1
_chemical_formula_structural   Na5Ca4P4O16F
_chemical_formula_sum   'Na5 Ca4 P4 O16 F1'
_cell_volume   377.77206605
_cell_formula_units_Z   1
loop_
 _symmetry_equiv_pos_site_id
 _symmetry_equiv_pos_as_xyz
  1  'x, y, z'
loop_
 _atom_site_type_symbol
 _atom_site_label
 _atom_site_symmetry_multiplicity
 _atom_site_fract_x
 _atom_site_fract_y
 _atom_site_fract_z
 _atom_site_occupancy
  Na  Na0  1  0.12881100  0.33433700  0.98219000  1
  Na  Na1  1  0.85337900  0.87118900  0.20552500  1
  Na  Na2  1  0.66566300  0.64785300  0.79447500  1
  Na  Na3  1  0.25000000  0.75000000  0.50000000  1
  Na  Na4  1  0.35214700  0.14662100  0.01781000  1
  Ca  Ca0  1  0.55212300  0.34219800  0.43303900  1
  Ca  Ca1  1  0.65780200  0.09084100  0.20992500  1
  Ca  Ca2  1  0.88091600  0.44787700  0.79007500  1
  Ca  Ca3  1  0.90915900  0.11908400  0.56696100  1
  P  P0  1  0.36498600  0.51048700  0.35480700  1
  P  P1  1  0.15568000  0.01017900  0.64519300  1
  P  P2  1  0.98982100  0.63501400  0.14550100  1
  P  P3  1  0.48951300  0.84432000  0.85449900  1
  O  O0  1  0.88971800  0.66894500  0.01450000  1
  O  O1  1  0.22144400  0.54201200  0.75471100  1
  O  O2  1  0.06689100  0.00385200  0.47953200  1
  O  O3  1  0.45798800  0.21269900  0.67943100  1
  O  O4  1  0.41264100  0.93310900  0.93696100  1
  O  O5  1  0.65932800  0.01654500  0.74221200  1
  O  O6  1  0.53326700  0.77855600  0.32056900  1
  O  O7  1  0.99614800  0.47568000  0.06303900  1
  O  O8  1  0.33105500  0.34555500  0.22077300  1
  O  O9  1  0.78730100  0.46673300  0.24528900  1
  O  O10  1  0.12478200  0.11028200  0.77922700  1
  O  O11  1  0.98345500  0.72566600  0.64278200  1
  O  O12  1  0.27433400  0.91711600  0.25778800  1
  O  O13  1  0.52432000  0.58735900  0.52046800  1
  O  O14  1  0.08288400  0.34067200  0.35721800  1
  O  O15  1  0.65444500  0.87521800  0.98550000  1
  F  F0  1  0.75000000  0.25000000  0.50000000  1
loop_
_geom_bond_atom_site_label_1
_geom_bond_atom_site_label_2
_geom_bond_distance
_geom_bond_site_symmetry_2
Na0 O7 2.381863 1_456
Na0 O10 2.488084 1_555
Na0 O8 2.540354 1_556
Na0 O1 2.563461 1_555
Na0 O15 2.566463 1_445
Na0 O5 2.794020 1_455
Na0 O15 2.911948 1_555
Na1 O2 2.381871 1_665
Na1 O15 2.488077 1_554
Na1 O0 2.540349 1_555
Na1 O6 2.563470 1_555
Na1 O8 2.566461 1_665
Na1 O14 2.794025 1_665
Na1 O8 2.911951 1_555
Na2 O13 2.381872 1_555
Na2 O0 2.488078 1_556
Na2 O15 2.540349 1_555
Na2 O3 2.563464 1_555
Na2 O10 2.566466 1_665
Na2 O11 2.794035 1_555
Na2 O10 2.911945 1_555
Na3 O11 2.620162 1_455
Na3 O14 2.620170 1_555
Na3 O12 2.620170 1_555
Na3 O5 2.620172 1_565
Na3 O6 2.916857 1_555
Na3 O3 2.916860 1_565
Na3 O1 2.916863 1_555
Na3 O9 2.916863 1_455
Na4 O4 2.381863 1_544
Na4 O8 2.488084 1_555
Na4 O10 2.540354 1_554
Na4 O9 2.563461 1_555
Na4 O0 2.566463 1_445
Na4 O12 2.794023 1_545
Na4 O0 2.911948 1_555
Ca0 O9 2.349968 1_555
Ca0 O12 2.387892 1_545
Ca0 O13 2.407853 1_555
Ca0 O3 2.435417 1_555
Ca0 O11 2.436356 1_555
Ca0 F0 2.475789 1_555
Ca0 O8 2.566651 1_555
Ca0 O2 2.702967 1_555
Ca1 O6 2.349973 1_545
Ca1 O14 2.387892 1_655
Ca1 O4 2.407853 1_544
Ca1 O9 2.435425 1_555
Ca1 O12 2.436353 1_545
Ca1 F0 2.475789 1_555
Ca1 O15 2.566651 1_544
Ca1 O7 2.702967 1_555
Ca2 O3 2.349970 1_555
Ca2 O11 2.387889 1_555
Ca2 O7 2.407853 1_556
Ca2 O1 2.435425 1_655
Ca2 O5 2.436361 1_555
Ca2 F0 2.475789 1_555
Ca2 O0 2.566651 1_556
Ca2 O4 2.702967 1_655
Ca3 O1 2.349968 1_655
Ca3 O5 2.387890 1_555
Ca3 O2 2.407853 1_655
Ca3 O6 2.435420 1_545
Ca3 O14 2.436353 1_655
Ca3 F0 2.475789 1_555
Ca3 O10 2.566651 1_655
Ca3 O13 2.702967 1_545
O0 P2 1.567285 1_555
O1 P3 1.557638 1_555
O2 P1 1.549591 1_555
O3 P1 1.557638 1_555
O4 P3 1.549591 1_555
O5 P3 1.554379 1_545
O6 P0 1.557634 1_555
O7 P2 1.549591 1_555
O8 P0 1.567285 1_555
O9 P2 1.557638 1_555
O10 P1 1.567285 1_555
O11 P1 1.554384 1_665
O12 P2 1.554381 1_455
O13 P0 1.549591 1_555
O14 P0 1.554381 1_555
O15 P3 1.567285 1_555
F0 Na3 2.736124 1_655
F0 Na3 2.736124 1_545
