# generated using pymatgen
data_Mg5B3O9F
_symmetry_space_group_name_H-M   'P 1'
_cell_length_a   4.57346900
_cell_length_b   10.18582000
_cell_length_c   15.00284400
_cell_angle_alpha   90.00000000
_cell_angle_beta   90.00000000
_cell_angle_gamma   90.00000000
_symmetry_Int_Tables_number   1
_chemical_formula_structural   Mg5B3O9F
_chemical_formula_sum   'Mg20 B12 O36 F4'
_cell_volume   698.90046655
_cell_formula_units_Z   4
loop_
 _symmetry_equiv_pos_site_id
 _symmetry_equiv_pos_as_xyz
  1  'x, y, z'
loop_
 _atom_site_type_symbol
 _atom_site_label
 _atom_site_symmetry_multiplicity
 _atom_site_fract_x
 _atom_site_fract_y
 _atom_site_fract_z
 _atom_site_occupancy
  Mg  Mg0  1  0.50047200  0.36929600  0.05739900  1
  Mg  Mg1  1  0.01018000  0.84867000  0.85147900  1
  Mg  Mg2  1  0.00047200  0.13070400  0.55739900  1
  Mg  Mg3  1  0.00047200  0.13070400  0.94260100  1
  Mg  Mg4  1  0.99766300  0.58005900  0.75000000  1
  Mg  Mg5  1  0.50047200  0.36929600  0.44260100  1
  Mg  Mg6  1  0.49952800  0.63070400  0.55739900  1
  Mg  Mg7  1  0.48982000  0.34867000  0.64852100  1
  Mg  Mg8  1  0.00233700  0.41994100  0.25000000  1
  Mg  Mg9  1  0.48982000  0.34867000  0.85147900  1
  Mg  Mg10  1  0.99952800  0.86929600  0.05739900  1
  Mg  Mg11  1  0.49766300  0.91994100  0.25000000  1
  Mg  Mg12  1  0.51018000  0.65133000  0.14852100  1
  Mg  Mg13  1  0.01018000  0.84867000  0.64852100  1
  Mg  Mg14  1  0.51018000  0.65133000  0.35147900  1
  Mg  Mg15  1  0.98982000  0.15133000  0.35147900  1
  Mg  Mg16  1  0.49952800  0.63070400  0.94260100  1
  Mg  Mg17  1  0.99952800  0.86929600  0.44260100  1
  Mg  Mg18  1  0.98982000  0.15133000  0.14852100  1
  Mg  Mg19  1  0.50233700  0.08005900  0.75000000  1
  B  B0  1  0.46546000  0.92494900  0.57630000  1
  B  B1  1  0.96546000  0.57505100  0.07630000  1
  B  B2  1  0.95463100  0.22192400  0.75000000  1
  B  B3  1  0.45463100  0.27807600  0.25000000  1
  B  B4  1  0.53454000  0.07505100  0.07630000  1
  B  B5  1  0.03454000  0.42494900  0.57630000  1
  B  B6  1  0.54536900  0.72192400  0.75000000  1
  B  B7  1  0.96546000  0.57505100  0.42370000  1
  B  B8  1  0.53454000  0.07505100  0.42370000  1
  B  B9  1  0.04536900  0.77807600  0.25000000  1
  B  B10  1  0.46546000  0.92494900  0.92370000  1
  B  B11  1  0.03454000  0.42494900  0.92370000  1
  O  O0  1  0.74407800  0.44571900  0.94579600  1
  O  O1  1  0.18851900  0.50744600  0.86533200  1
  O  O2  1  0.70149700  0.70071200  0.82891500  1
  O  O3  1  0.24407800  0.05428100  0.44579600  1
  O  O4  1  0.25592200  0.55428100  0.05420400  1
  O  O5  1  0.19318000  0.31534300  0.54586400  1
  O  O6  1  0.74407800  0.44571900  0.55420400  1
  O  O7  1  0.80682000  0.68465700  0.45413600  1
  O  O8  1  0.30682000  0.81534300  0.54586400  1
  O  O9  1  0.24909500  0.25263600  0.75000000  1
  O  O10  1  0.79850300  0.20071200  0.67108500  1
  O  O11  1  0.18851900  0.50744600  0.63466800  1
  O  O12  1  0.19318000  0.31534300  0.95413600  1
  O  O13  1  0.24407800  0.05428100  0.05420400  1
  O  O14  1  0.75592200  0.94571900  0.55420400  1
  O  O15  1  0.25592200  0.55428100  0.44579600  1
  O  O16  1  0.69318000  0.18465700  0.45413600  1
  O  O17  1  0.81148100  0.49255400  0.36533200  1
  O  O18  1  0.68851900  0.99255400  0.13466800  1
  O  O19  1  0.75090500  0.74736400  0.25000000  1
  O  O20  1  0.79850300  0.20071200  0.82891500  1
  O  O21  1  0.29850300  0.29928800  0.32891500  1
  O  O22  1  0.81148100  0.49255400  0.13466800  1
  O  O23  1  0.20149700  0.79928800  0.17108500  1
  O  O24  1  0.25090500  0.75263600  0.75000000  1
  O  O25  1  0.29850300  0.29928800  0.17108500  1
  O  O26  1  0.75592200  0.94571900  0.94579600  1
  O  O27  1  0.30682000  0.81534300  0.95413600  1
  O  O28  1  0.31148100  0.00744600  0.86533200  1
  O  O29  1  0.20149700  0.79928800  0.32891500  1
  O  O30  1  0.80682000  0.68465700  0.04586400  1
  O  O31  1  0.74909500  0.24736400  0.25000000  1
  O  O32  1  0.68851900  0.99255400  0.36533200  1
  O  O33  1  0.70149700  0.70071200  0.67108500  1
  O  O34  1  0.69318000  0.18465700  0.04586400  1
  O  O35  1  0.31148100  0.00744600  0.63466800  1
  F  F0  1  0.31518100  0.55791300  0.25000000  1
  F  F1  1  0.68481900  0.44208700  0.75000000  1
  F  F2  1  0.18481900  0.05791300  0.25000000  1
  F  F3  1  0.81518100  0.94208700  0.75000000  1
loop_
_geom_bond_atom_site_label_1
_geom_bond_atom_site_label_2
_geom_bond_distance
_geom_bond_site_symmetry_2
Mg0 O25 2.066599 1_555
Mg0 O34 2.084166 1_555
Mg0 O0 2.156552 1_554
Mg0 O12 2.162701 1_554
Mg0 O4 2.191691 1_555
Mg0 O22 2.223354 1_555
Mg1 O27 2.080349 1_555
Mg1 O26 2.081266 1_455
Mg1 O2 2.092585 1_455
Mg1 O24 2.118221 1_555
Mg1 O28 2.134853 1_565
Mg2 O10 2.066599 1_455
Mg2 O5 2.084166 1_555
Mg2 O3 2.156552 1_555
Mg2 O16 2.162701 1_455
Mg2 O14 2.191691 1_445
Mg2 O35 2.223354 1_555
Mg3 O20 2.066599 1_455
Mg3 O12 2.084166 1_555
Mg3 O13 2.156552 1_556
Mg3 O34 2.162701 1_456
Mg3 O26 2.191691 1_445
Mg3 O28 2.223354 1_555
Mg4 O11 2.074347 1_655
Mg4 O1 2.074347 1_655
Mg4 O24 2.105091 1_655
Mg4 O2 2.178702 1_555
Mg4 O33 2.178702 1_555
Mg5 O21 2.066599 1_555
Mg5 O16 2.084166 1_555
Mg5 O6 2.156552 1_555
Mg5 O5 2.162701 1_555
Mg5 O15 2.191691 1_555
Mg5 O17 2.223354 1_555
Mg6 O33 2.066599 1_555
Mg6 O8 2.084166 1_555
Mg6 O15 2.156552 1_555
Mg6 O7 2.162701 1_555
Mg6 O6 2.191691 1_555
Mg6 O11 2.223354 1_555
Mg7 O5 2.080349 1_555
Mg7 O6 2.081266 1_555
Mg7 O10 2.092585 1_555
Mg7 O9 2.118221 1_555
Mg7 O11 2.134853 1_555
Mg8 O17 2.074347 1_455
Mg8 O22 2.074347 1_455
Mg8 O31 2.105091 1_455
Mg8 O21 2.178702 1_555
Mg8 O25 2.178702 1_555
Mg9 O12 2.080349 1_555
Mg9 O0 2.081266 1_555
Mg9 O20 2.092585 1_555
Mg9 O9 2.118221 1_555
Mg9 O1 2.134853 1_555
Mg10 O23 2.066599 1_655
Mg10 O30 2.084166 1_555
Mg10 O26 2.156552 1_554
Mg10 O27 2.162701 1_654
Mg10 O13 2.191691 1_665
Mg10 O18 2.223354 1_555
Mg11 O32 2.074347 1_555
Mg11 O18 2.074347 1_555
Mg11 O19 2.105091 1_555
Mg11 O29 2.178702 1_555
Mg11 O23 2.178702 1_555
Mg12 O30 2.080349 1_555
Mg12 O4 2.081266 1_555
Mg12 O23 2.092585 1_555
Mg12 O19 2.118221 1_555
Mg12 O22 2.134853 1_555
Mg13 O8 2.080349 1_555
Mg13 O14 2.081266 1_455
Mg13 O33 2.092585 1_455
Mg13 O24 2.118221 1_555
Mg13 O35 2.134853 1_565
Mg14 O7 2.080349 1_555
Mg14 O15 2.081266 1_555
Mg14 O29 2.092585 1_555
Mg14 O19 2.118221 1_555
Mg14 O17 2.134853 1_555
Mg15 O16 2.080349 1_555
Mg15 O3 2.081266 1_655
Mg15 O21 2.092585 1_655
Mg15 O31 2.118221 1_555
Mg15 O32 2.134853 1_545
Mg16 O2 2.066599 1_555
Mg16 O27 2.084166 1_555
Mg16 O4 2.156552 1_556
Mg16 O30 2.162701 1_556
Mg16 O0 2.191691 1_555
Mg16 O1 2.223354 1_555
Mg17 O29 2.066599 1_655
Mg17 O7 2.084166 1_555
Mg17 O14 2.156552 1_555
Mg17 O8 2.162701 1_655
Mg17 O3 2.191691 1_665
Mg17 O32 2.223354 1_555
Mg18 O34 2.080349 1_555
Mg18 O13 2.081266 1_655
Mg18 O25 2.092585 1_655
Mg18 O31 2.118221 1_555
Mg18 O18 2.134853 1_545
Mg19 O28 2.074347 1_555
Mg19 O35 2.074347 1_555
Mg19 O9 2.105091 1_555
Mg19 O20 2.178702 1_555
Mg19 O10 2.178702 1_555
B0 O14 1.385406 1_555
B0 O35 1.403158 1_565
B0 O8 1.407593 1_555
B1 O4 1.385406 1_655
B1 O22 1.403158 1_555
B1 O30 1.407593 1_555
B2 O9 1.382578 1_655
B2 O20 1.399386 1_555
B2 O10 1.399386 1_555
B3 O31 1.382578 1_555
B3 O21 1.399386 1_555
B3 O25 1.399386 1_555
B4 O13 1.385406 1_555
B4 O18 1.403158 1_545
B4 O34 1.407593 1_555
B5 O6 1.385406 1_455
B5 O11 1.403158 1_555
B5 O5 1.407593 1_555
B6 O24 1.382578 1_555
B6 O2 1.399386 1_555
B6 O33 1.399386 1_555
B7 O15 1.385406 1_655
B7 O17 1.403158 1_555
B7 O7 1.407593 1_555
B8 O3 1.385406 1_555
B8 O32 1.403158 1_545
B8 O16 1.407593 1_555
B9 O19 1.382578 1_455
B9 O29 1.399386 1_555
B9 O23 1.399386 1_555
B10 O26 1.385406 1_555
B10 O28 1.403158 1_565
B10 O27 1.407593 1_555
B11 O0 1.385406 1_455
B11 O1 1.403158 1_555
B11 O12 1.407593 1_555
F0 Mg14 2.004664 1_555
F0 Mg12 2.004664 1_555
F0 Mg8 2.005535 1_555
F1 Mg9 2.004664 1_555
F1 Mg7 2.004664 1_555
F1 Mg4 2.005535 1_555
F2 Mg15 2.004664 1_455
F2 Mg18 2.004664 1_455
F2 Mg11 2.005535 1_545
F3 Mg1 2.004664 1_655
F3 Mg13 2.004664 1_655
F3 Mg19 2.005535 1_565
