# generated using pymatgen
data_RbLuP2O7
_symmetry_space_group_name_H-M   'P 1'
_cell_length_a   10.84857000
_cell_length_b   7.76972900
_cell_length_c   8.70166928
_cell_angle_alpha   74.50388086
_cell_angle_beta   90.00000000
_cell_angle_gamma   90.00000000
_symmetry_Int_Tables_number   1
_chemical_formula_structural   RbLuP2O7
_chemical_formula_sum   'Rb4 Lu4 P8 O28'
_cell_volume   706.80500029
_cell_formula_units_Z   4
loop_
 _symmetry_equiv_pos_site_id
 _symmetry_equiv_pos_as_xyz
  1  'x, y, z'
loop_
 _atom_site_type_symbol
 _atom_site_label
 _atom_site_symmetry_multiplicity
 _atom_site_fract_x
 _atom_site_fract_y
 _atom_site_fract_z
 _atom_site_occupancy
  Rb  Rb0  1  0.68202100  0.18974700  0.94094700  1
  Rb  Rb1  1  0.81797900  0.18974700  0.44094700  1
  Rb  Rb2  1  0.18202100  0.81025300  0.55905300  1
  Rb  Rb3  1  0.31797900  0.81025300  0.05905300  1
  Lu  Lu0  1  0.09915100  0.23589900  0.74634800  1
  Lu  Lu1  1  0.90084900  0.76410100  0.25365200  1
  Lu  Lu2  1  0.59915100  0.76410100  0.75365200  1
  Lu  Lu3  1  0.40084900  0.23589900  0.24634800  1
  P  P0  1  0.86403100  0.56360400  0.68602500  1
  P  P1  1  0.09882200  0.13027500  0.17976700  1
  P  P2  1  0.13596900  0.43639600  0.31397500  1
  P  P3  1  0.63596900  0.56360400  0.18602500  1
  P  P4  1  0.40117800  0.13027500  0.67976700  1
  P  P5  1  0.36403100  0.43639600  0.81397500  1
  P  P6  1  0.90117800  0.86972500  0.82023300  1
  P  P7  1  0.59882200  0.86972500  0.32023300  1
  O  O0  1  0.49882700  0.00354900  0.77678400  1
  O  O1  1  0.77121600  0.92168100  0.75297400  1
  O  O2  1  0.09049300  0.14817000  0.00239100  1
  O  O3  1  0.57619400  0.37866300  0.23294100  1
  O  O4  1  0.92380600  0.37866300  0.73294100  1
  O  O5  1  0.43407100  0.32671900  0.70276700  1
  O  O6  1  0.77260600  0.55160700  0.23218300  1
  O  O7  1  0.93407100  0.67328100  0.79723300  1
  O  O8  1  0.72878400  0.92168100  0.25297400  1
  O  O9  1  0.90950700  0.85183000  0.99760900  1
  O  O10  1  0.11060800  0.33337400  0.48641100  1
  O  O11  1  0.99882700  0.99645100  0.72321600  1
  O  O12  1  0.00117300  0.00354900  0.27678400  1
  O  O13  1  0.56592900  0.67328100  0.29723300  1
  O  O14  1  0.88939200  0.66662600  0.51358900  1
  O  O15  1  0.50117300  0.99645100  0.22321600  1
  O  O16  1  0.72739400  0.55160700  0.73218300  1
  O  O17  1  0.27260600  0.44839300  0.26781700  1
  O  O18  1  0.22739400  0.44839300  0.76781700  1
  O  O19  1  0.61060800  0.66662600  0.01358900  1
  O  O20  1  0.07619400  0.62133700  0.26705900  1
  O  O21  1  0.22878400  0.07831900  0.24702600  1
  O  O22  1  0.06592900  0.32671900  0.20276700  1
  O  O23  1  0.40950700  0.14817000  0.50239100  1
  O  O24  1  0.38939200  0.33337400  0.98641100  1
  O  O25  1  0.42380600  0.62133700  0.76705900  1
  O  O26  1  0.27121600  0.07831900  0.74702600  1
  O  O27  1  0.59049300  0.85183000  0.49760900  1
loop_
_geom_bond_atom_site_label_1
_geom_bond_atom_site_label_2
_geom_bond_distance
_geom_bond_site_symmetry_2
Lu0 O2 2.150799 1_556
Lu0 O10 2.188561 1_555
Lu0 O4 2.189383 1_455
Lu0 O18 2.204806 1_555
Lu0 O11 2.210528 1_445
Lu0 O26 2.231509 1_555
Lu1 O9 2.150799 1_554
Lu1 O14 2.188561 1_555
Lu1 O20 2.189383 1_655
Lu1 O6 2.204806 1_555
Lu1 O12 2.210528 1_665
Lu1 O8 2.231509 1_555
Lu2 O27 2.150799 1_555
Lu2 O19 2.188561 1_556
Lu2 O25 2.189383 1_555
Lu2 O16 2.204806 1_555
Lu2 O0 2.210528 1_565
Lu2 O1 2.231509 1_555
Lu3 O23 2.150799 1_555
Lu3 O24 2.188561 1_554
Lu3 O3 2.189383 1_555
Lu3 O17 2.204806 1_555
Lu3 O15 2.210528 1_545
Lu3 O21 2.231509 1_555
O0 P4 1.536308 1_555
O0 Rb0 3.031100 1_555
O0 Rb3 3.188515 1_546
O1 P6 1.538530 1_555
O1 Rb1 2.990936 1_565
O1 Rb0 3.125737 1_565
O2 P1 1.514964 1_555
O2 Rb3 3.540518 1_545
O3 P3 1.529223 1_555
O3 Rb1 3.300185 1_555
O3 Rb0 3.452720 1_554
O4 P0 1.529223 1_555
O4 Rb0 3.300185 1_555
O4 Rb1 3.452720 1_555
O5 P4 1.631031 1_555
O5 P5 1.637253 1_555
O5 Rb0 3.388966 1_555
O6 P3 1.532080 1_555
O6 Rb1 2.952626 1_555
O7 P6 1.631031 1_555
O7 P0 1.637253 1_555
O7 Rb2 3.388966 1_655
O8 P7 1.538530 1_555
O8 Rb0 2.990936 1_564
O8 Rb1 3.125737 1_565
O9 P6 1.514964 1_555
O9 Rb0 3.540518 1_565
O10 P2 1.525149 1_555
O10 Rb1 3.422845 1_455
O11 P6 1.536308 1_555
O11 Rb2 3.031100 1_655
O11 Rb1 3.188515 1_565
O12 P1 1.536308 1_555
O12 Rb1 3.031100 1_455
O12 Rb2 3.188515 1_545
O13 P7 1.631031 1_555
O13 P3 1.637253 1_555
O13 Rb3 3.388966 1_555
O14 P0 1.525149 1_555
O14 Rb2 3.422845 1_655
O15 P7 1.536308 1_555
O15 Rb3 3.031100 1_555
O15 Rb0 3.188515 1_564
O16 P0 1.532080 1_555
O16 Rb0 2.952626 1_555
O17 P2 1.532080 1_555
O17 Rb3 2.952626 1_555
O18 P5 1.532080 1_555
O18 Rb2 2.952626 1_555
O19 P3 1.525149 1_555
O19 Rb3 3.422845 1_555
O20 P2 1.529223 1_555
O20 Rb3 3.300185 1_555
O20 Rb2 3.452720 1_555
O21 P1 1.538530 1_555
O21 Rb2 2.990936 1_545
O21 Rb3 3.125737 1_545
O22 P1 1.631031 1_555
O22 P2 1.637253 1_555
O22 Rb1 3.388966 1_455
O23 P4 1.514964 1_555
O23 Rb2 3.540518 1_545
O24 P5 1.525149 1_555
O24 Rb0 3.422845 1_555
O25 P5 1.529223 1_555
O25 Rb2 3.300185 1_555
O25 Rb3 3.452720 1_556
O26 P4 1.538530 1_555
O26 Rb3 2.990936 1_546
O26 Rb2 3.125737 1_545
O27 P7 1.514964 1_555
O27 Rb1 3.540518 1_565
