# generated using pymatgen
data_Ca6Ag16N
_symmetry_space_group_name_H-M   'P 1'
_cell_length_a   8.47932596
_cell_length_b   8.47932661
_cell_length_c   8.47932648
_cell_angle_alpha   109.47124243
_cell_angle_beta   109.47124022
_cell_angle_gamma   109.47123291
_symmetry_Int_Tables_number   1
_chemical_formula_structural   Ca6Ag16N
_chemical_formula_sum   'Ca6 Ag16 N1'
_cell_volume   469.31223124
_cell_formula_units_Z   1
loop_
 _symmetry_equiv_pos_site_id
 _symmetry_equiv_pos_as_xyz
  1  'x, y, z'
loop_
 _atom_site_type_symbol
 _atom_site_label
 _atom_site_symmetry_multiplicity
 _atom_site_fract_x
 _atom_site_fract_y
 _atom_site_fract_z
 _atom_site_occupancy
  Ca  Ca0  1  -0.00000012  0.25556953  0.25556961  1
  Ca  Ca1  1  0.25556956  -0.00000019  0.25556951  1
  Ca  Ca2  1  0.74442963  -0.00000000  0.74442958  1
  Ca  Ca3  1  0.74443024  0.74443016  -0.00000013  1
  Ca  Ca4  1  0.25556961  0.25556973  -0.00000012  1
  Ca  Ca5  1  -0.00000003  0.74443037  0.74443036  1
  Ag  Ag0  1  0.50000013  0.50000009  0.50000011  1
  Ag  Ag1  1  0.49999996  -0.00000007  -0.00000002  1
  Ag  Ag2  1  -0.00000001  0.50000005  -0.00000005  1
  Ag  Ag3  1  -0.00000006  -0.00000006  0.50000000  1
  Ag  Ag4  1  0.69395667  0.34697863  0.34697867  1
  Ag  Ag5  1  0.34697891  0.00000003  0.65302124  1
  Ag  Ag6  1  0.34697865  0.69395671  0.34697856  1
  Ag  Ag7  1  0.34697879  0.34697875  0.69395681  1
  Ag  Ag8  1  0.34697884  0.65302123  0.00000004  1
  Ag  Ag9  1  -0.00000003  0.34697890  0.65302126  1
  Ag  Ag10  1  -0.00000002  0.65302118  0.34697877  1
  Ag  Ag11  1  0.65302130  0.65302137  0.30604330  1
  Ag  Ag12  1  0.65302102  -0.00000008  0.34697875  1
  Ag  Ag13  1  0.65302115  0.34697885  -0.00000006  1
  Ag  Ag14  1  0.65302141  0.30604340  0.65302141  1
  Ag  Ag15  1  0.30604340  0.65302145  0.65302147  1
  N  N0  1  0.00000000  -0.00000002  -0.00000006  1
loop_
_geom_bond_atom_site_label_1
_geom_bond_atom_site_label_2
_geom_bond_distance
_geom_bond_site_symmetry_2
Ca0 N0 2.502303 1_555
Ca1 N0 2.502303 1_555
Ca2 N0 2.502310 1_656
Ca3 N0 2.502304 1_665
Ca4 N0 2.502304 1_555
Ca5 N0 2.502302 1_566
Ag0 Ag14 2.791908 1_555
Ag0 Ag4 2.791909 1_555
Ag0 Ag11 2.791909 1_555
Ag0 Ag7 2.791909 1_555
Ag0 Ag15 2.791909 1_555
Ag0 Ag6 2.791910 1_555
Ag0 Ca3 3.462096 1_556
Ag0 Ca5 3.462097 1_655
Ag0 Ca2 3.462098 1_565
Ag0 Ca4 3.462100 1_555
Ag0 Ca0 3.462100 1_555
Ag0 Ca1 3.462100 1_555
Ag1 Ag15 2.791911 1_544
Ag1 Ag4 2.791912 1_555
Ag1 Ag8 2.791914 1_545
Ag1 Ag12 2.791914 1_555
Ag1 Ag5 2.791914 1_554
Ag1 Ag13 2.791915 1_555
Ag1 Ca0 3.462097 1_655
Ag1 Ca5 3.462098 1_544
Ag1 Ca1 3.462100 1_555
Ag1 Ca3 3.462101 1_545
Ag1 Ca2 3.462101 1_554
Ag1 Ca4 3.462101 1_555
Ag2 Ag6 2.791912 1_555
Ag2 Ag9 2.791913 1_554
Ag2 Ag8 2.791914 1_555
Ag2 Ca1 3.462097 1_565
Ag2 Ca2 3.462099 1_454
Ag2 Ca3 3.462099 1_455
Ag2 Ca4 3.462100 1_555
Ag2 Ca5 3.462100 1_554
Ag2 Ca0 3.462102 1_555
Ag3 Ag7 2.791914 1_555
Ag3 Ag5 2.791915 1_555
Ag3 Ag9 2.791915 1_555
Ag3 Ca4 3.462097 1_556
Ag3 Ca3 3.462099 1_445
Ag3 Ca2 3.462100 1_455
Ag3 Ca5 3.462100 1_545
Ag3 Ca0 3.462100 1_555
Ag3 Ca1 3.462101 1_555
Ag4 Ag9 2.996490 1_655
Ag4 Ca5 3.196412 1_655
Ag4 Ca0 3.196419 1_655
Ag4 Ca1 3.513205 1_555
Ag4 Ca4 3.513205 1_555
Ag5 Ag7 2.845326 1_555
Ag5 Ag6 2.996490 1_545
Ag5 Ca2 3.196406 1_555
Ag5 Ca1 3.196413 1_555
Ag5 Ca4 3.513211 1_556
Ag5 Ca5 3.513211 1_545
Ag6 Ag8 2.845325 1_555
Ag6 Ca2 3.196407 1_565
Ag6 Ca1 3.196418 1_565
Ag6 Ca4 3.513204 1_555
Ag6 Ca0 3.513206 1_555
Ag7 Ag9 2.845327 1_555
Ag7 Ag8 2.996490 1_556
Ag7 Ca3 3.196410 1_556
Ag7 Ca4 3.196418 1_556
Ag7 Ca0 3.513205 1_555
Ag7 Ca1 3.513206 1_555
Ag8 Ag9 2.845323 1_554
Ag8 Ca4 3.196411 1_555
Ag8 Ca3 3.196412 1_555
Ag8 Ca1 3.513209 1_565
Ag8 Ca5 3.513211 1_554
Ag9 Ca5 3.196412 1_555
Ag9 Ca0 3.196412 1_555
Ag9 Ca2 3.513209 1_455
Ag9 Ca4 3.513210 1_556
Ag10 Ag3 2.791914 1_565
Ag10 Ag2 2.791914 1_555
Ag10 Ag13 2.845323 1_455
Ag10 Ag5 2.845323 1_565
Ag10 Ag6 2.845326 1_555
Ag10 Ag11 2.845326 1_455
Ag10 Ag4 2.996491 1_455
Ag10 Ag15 2.996491 1_555
Ag10 Ca5 3.196413 1_555
Ag10 Ca0 3.196413 1_555
Ag10 Ca1 3.513210 1_565
Ag10 Ca3 3.513210 1_455
Ag11 Ag3 2.791912 1_665
Ag11 Ag6 2.845320 1_555
Ag11 Ag4 2.845321 1_555
Ag11 Ag12 2.845326 1_565
Ag11 Ag8 2.996489 1_555
Ag11 Ag13 2.996490 1_555
Ag11 Ca4 3.196412 1_555
Ag11 Ca3 3.196419 1_555
Ag11 Ca2 3.513202 1_565
Ag11 Ca5 3.513204 1_655
Ag12 Ag3 2.791915 1_655
Ag12 Ag8 2.845322 1_545
Ag12 Ag9 2.845324 1_655
Ag12 Ag4 2.845326 1_555
Ag12 Ag6 2.996489 1_545
Ag12 Ag14 2.996490 1_555
Ag12 Ca2 3.196407 1_555
Ag12 Ca1 3.196411 1_555
Ag12 Ca0 3.513211 1_655
Ag12 Ca3 3.513212 1_545
Ag13 Ag2 2.791914 1_655
Ag13 Ag5 2.845322 1_554
Ag13 Ag14 2.845325 1_554
Ag13 Ag4 2.845327 1_555
Ag13 Ag7 2.996489 1_554
Ag13 Ca3 3.196411 1_555
Ag13 Ca4 3.196412 1_555
Ag13 Ca2 3.513209 1_554
Ag13 Ca0 3.513211 1_655
Ag14 Ag2 2.791911 1_656
Ag14 Ag7 2.845320 1_555
Ag14 Ag4 2.845321 1_555
Ag14 Ag9 2.845325 1_655
Ag14 Ag5 2.996490 1_555
Ag14 Ca1 3.196413 1_555
Ag14 Ca2 3.196414 1_555
Ag14 Ca3 3.513202 1_556
Ag14 Ca5 3.513204 1_655
Ag15 Ag7 2.845321 1_555
Ag15 Ag6 2.845322 1_555
Ag15 Ag8 2.845326 1_556
Ag15 Ag5 2.845326 1_565
Ag15 Ag9 2.996491 1_555
Ag15 Ca0 3.196413 1_555
Ag15 Ca5 3.196419 1_555
Ag15 Ca2 3.513202 1_565
Ag15 Ca3 3.513203 1_556
