# generated using pymatgen
data_Sn(Mo2O3)2
_symmetry_space_group_name_H-M   'P 1'
_cell_length_a   9.78582400
_cell_length_b   9.78582400
_cell_length_c   3.21977200
_cell_angle_alpha   90.00000000
_cell_angle_beta   90.00000000
_cell_angle_gamma   90.00000000
_symmetry_Int_Tables_number   1
_chemical_formula_structural   Sn(Mo2O3)2
_chemical_formula_sum   'Sn2 Mo8 O12'
_cell_volume   308.33293756
_cell_formula_units_Z   2
loop_
 _symmetry_equiv_pos_site_id
 _symmetry_equiv_pos_as_xyz
  1  'x, y, z'
loop_
 _atom_site_type_symbol
 _atom_site_label
 _atom_site_symmetry_multiplicity
 _atom_site_fract_x
 _atom_site_fract_y
 _atom_site_fract_z
 _atom_site_occupancy
  Sn  Sn0  1  0.00000000  0.00000000  0.00000000  1
  Sn  Sn1  1  0.50000000  0.50000000  0.00000000  1
  Mo  Mo0  1  0.11172900  0.38827100  0.00000000  1
  Mo  Mo1  1  0.38827100  0.88827100  0.00000000  1
  Mo  Mo2  1  0.61172900  0.11172900  0.00000000  1
  Mo  Mo3  1  0.88827100  0.61172900  0.00000000  1
  Mo  Mo4  1  0.14936400  0.64936400  0.50000000  1
  Mo  Mo5  1  0.64936400  0.85063600  0.50000000  1
  Mo  Mo6  1  0.35063600  0.14936400  0.50000000  1
  Mo  Mo7  1  0.85063600  0.35063600  0.50000000  1
  O  O0  1  0.20417900  0.29582100  0.50000000  1
  O  O1  1  0.29582100  0.79582100  0.50000000  1
  O  O2  1  0.70417900  0.20417900  0.50000000  1
  O  O3  1  0.79582100  0.70417900  0.50000000  1
  O  O4  1  0.95086200  0.23993000  0.00000000  1
  O  O5  1  0.23993000  0.04913800  0.00000000  1
  O  O6  1  0.76007000  0.95086200  0.00000000  1
  O  O7  1  0.04913800  0.76007000  0.00000000  1
  O  O8  1  0.54913800  0.73993000  0.00000000  1
  O  O9  1  0.45086200  0.26007000  0.00000000  1
  O  O10  1  0.73993000  0.45086200  0.00000000  1
  O  O11  1  0.26007000  0.54913800  0.00000000  1
loop_
_geom_bond_atom_site_label_1
_geom_bond_atom_site_label_2
_geom_bond_distance
_geom_bond_site_symmetry_2
Mo0 O0 2.056379 1_555
Mo0 O0 2.056379 1_554
Mo0 O4 2.141358 1_455
Mo0 O11 2.141358 1_555
Mo1 O1 2.056379 1_554
Mo1 O1 2.056379 1_555
Mo1 O5 2.141358 1_565
Mo1 O8 2.141358 1_555
Mo2 O2 2.056379 1_554
Mo2 O2 2.056379 1_555
Mo2 O9 2.141358 1_555
Mo2 O6 2.141358 1_545
Mo3 O3 2.056379 1_555
Mo3 O3 2.056379 1_554
Mo3 O7 2.141358 1_655
Mo3 O10 2.141358 1_555
Mo4 O1 2.026854 1_555
Mo4 O7 2.174244 1_556
Mo4 O7 2.174244 1_555
Mo4 O11 2.174244 1_555
Mo4 O11 2.174244 1_556
Mo5 O3 2.026854 1_555
Mo5 O8 2.174244 1_555
Mo5 O8 2.174244 1_556
Mo5 O6 2.174244 1_555
Mo5 O6 2.174244 1_556
Mo6 O0 2.026854 1_555
Mo6 O9 2.174244 1_556
Mo6 O9 2.174244 1_555
Mo6 O5 2.174244 1_555
Mo6 O5 2.174244 1_556
Mo7 O2 2.026854 1_555
Mo7 O10 2.174244 1_555
Mo7 O4 2.174244 1_556
Mo7 O4 2.174244 1_555
Mo7 O10 2.174244 1_556
O4 Sn0 2.396647 1_655
O5 Sn0 2.396647 1_555
O6 Sn0 2.396647 1_665
O7 Sn0 2.396647 1_565
O8 Sn1 2.396647 1_555
O9 Sn1 2.396647 1_555
O10 Sn1 2.396647 1_555
O11 Sn1 2.396647 1_555
