# generated using pymatgen
data_LiYb(PO3)4
_symmetry_space_group_name_H-M   'P 1'
_cell_length_a   8.76619756
_cell_length_b   8.76619756
_cell_length_c   9.44045905
_cell_angle_alpha   57.47453340
_cell_angle_beta   57.47453340
_cell_angle_gamma   46.91850837
_symmetry_Int_Tables_number   1
_chemical_formula_structural   LiYb(PO3)4
_chemical_formula_sum   'Li2 Yb2 P8 O24'
_cell_volume   429.31002264
_cell_formula_units_Z   2
loop_
 _symmetry_equiv_pos_site_id
 _symmetry_equiv_pos_as_xyz
  1  'x, y, z'
loop_
 _atom_site_type_symbol
 _atom_site_label
 _atom_site_symmetry_multiplicity
 _atom_site_fract_x
 _atom_site_fract_y
 _atom_site_fract_z
 _atom_site_occupancy
  Li  Li0  1  0.29285871  0.70714129  0.75000000  1
  Li  Li1  1  0.70714129  0.29285871  0.25000000  1
  Yb  Yb0  1  0.20292872  0.79707128  0.25000000  1
  Yb  Yb1  1  0.79707128  0.20292872  0.75000000  1
  P  P0  1  0.68763694  0.58518682  0.88373762  1
  P  P1  1  0.70770804  0.00273358  0.19285772  1
  P  P2  1  0.99726642  0.29229196  0.30714228  1
  P  P3  1  0.00273358  0.70770804  0.69285772  1
  P  P4  1  0.29229196  0.99726642  0.80714228  1
  P  P5  1  0.41481318  0.31236306  0.61626238  1
  P  P6  1  0.58518682  0.68763694  0.38373762  1
  P  P7  1  0.31236306  0.41481318  0.11626238  1
  O  O0  1  0.99127508  0.75637100  0.52100510  1
  O  O1  1  0.52688263  0.78265158  0.76560913  1
  O  O2  1  0.17830911  0.33120101  0.15082924  1
  O  O3  1  0.21734842  0.47311737  0.73439087  1
  O  O4  1  0.56152523  0.56695969  0.57349097  1
  O  O5  1  0.47311737  0.21734842  0.23439087  1
  O  O6  1  0.60395660  0.17253138  0.68540903  1
  O  O7  1  0.39604340  0.82746862  0.31459097  1
  O  O8  1  0.33120101  0.17830911  0.65082924  1
  O  O9  1  0.01019007  0.85257620  0.72211763  1
  O  O10  1  0.43847477  0.43304031  0.42650903  1
  O  O11  1  0.78265158  0.52688263  0.26560913  1
  O  O12  1  0.66879899  0.82169089  0.34917076  1
  O  O13  1  0.75637100  0.99127508  0.02100510  1
  O  O14  1  0.14742380  0.98980993  0.77788237  1
  O  O15  1  0.82169089  0.66879899  0.84917076  1
  O  O16  1  0.56695969  0.56152523  0.07349097  1
  O  O17  1  0.17253138  0.60395660  0.18540903  1
  O  O18  1  0.98980993  0.14742380  0.27788237  1
  O  O19  1  0.00872492  0.24362900  0.47899490  1
  O  O20  1  0.82746862  0.39604340  0.81459097  1
  O  O21  1  0.85257620  0.01019007  0.22211763  1
  O  O22  1  0.24362900  0.00872492  0.97899490  1
  O  O23  1  0.43304031  0.43847477  0.92650903  1
loop_
_geom_bond_atom_site_label_1
_geom_bond_atom_site_label_2
_geom_bond_distance
_geom_bond_site_symmetry_2
Li0 O9 1.964616 1_555
Li0 O14 1.964616 1_555
Li0 O4 1.965123 1_555
Li0 O23 1.965123 1_555
Li1 O21 1.964616 1_555
Li1 O18 1.964616 1_555
Li1 O16 1.965123 1_555
Li1 O10 1.965123 1_555
O0 P3 1.482099 1_655
O0 Yb0 2.221139 1_655
O1 P0 1.583556 1_555
O1 P4 1.600996 1_555
O2 P2 1.578759 1_455
O2 P7 1.591146 1_555
O3 P5 1.583556 1_555
O3 P3 1.600996 1_555
O4 P6 1.494476 1_555
O4 Yb1 2.490803 1_555
O5 P7 1.583556 1_555
O5 P1 1.600996 1_555
O6 P5 1.484870 1_555
O6 Yb1 2.282473 1_555
O7 P6 1.484870 1_555
O7 Yb0 2.282473 1_555
O8 P4 1.578759 1_545
O8 P5 1.591146 1_555
O9 P3 1.484374 1_555
O9 Yb1 2.344019 1_465
O10 P5 1.494476 1_555
O10 Yb0 2.490803 1_555
O11 P6 1.583556 1_555
O11 P2 1.600996 1_555
O12 P1 1.578759 1_565
O12 P6 1.591146 1_555
O13 P1 1.482099 1_565
O13 Yb1 2.221139 1_564
O14 P4 1.484374 1_555
O14 Yb1 2.344019 1_465
O15 P3 1.578759 1_655
O15 P0 1.591146 1_555
O16 P0 1.494476 1_554
O16 Yb0 2.490803 1_555
O17 P7 1.484870 1_555
O17 Yb0 2.282473 1_555
O18 P2 1.484374 1_555
O18 Yb0 2.344019 1_645
O19 P2 1.482099 1_455
O19 Yb1 2.221139 1_455
O20 P0 1.484870 1_555
O20 Yb1 2.282473 1_555
O21 P1 1.484374 1_555
O21 Yb0 2.344019 1_645
O22 P4 1.482099 1_545
O22 Yb0 2.221139 1_546
O23 P7 1.494476 1_556
O23 Yb1 2.490803 1_555
