# generated using pymatgen
data_Na2(ReS2)3
_symmetry_space_group_name_H-M   'P 1'
_cell_length_a   9.30783325
_cell_length_b   9.30783325
_cell_length_c   11.56337787
_cell_angle_alpha   87.19736812
_cell_angle_beta   87.19736812
_cell_angle_gamma   62.67484261
_symmetry_Int_Tables_number   1
_chemical_formula_structural   Na2(ReS2)3
_chemical_formula_sum   'Na8 Re12 S24'
_cell_volume   888.55713408
_cell_formula_units_Z   4
loop_
 _symmetry_equiv_pos_site_id
 _symmetry_equiv_pos_as_xyz
  1  'x, y, z'
loop_
 _atom_site_type_symbol
 _atom_site_label
 _atom_site_symmetry_multiplicity
 _atom_site_fract_x
 _atom_site_fract_y
 _atom_site_fract_z
 _atom_site_occupancy
  Na  Na0  1  0.58460080  0.41539920  0.25000000  1
  Na  Na1  1  0.41539920  0.58460080  0.75000000  1
  Na  Na2  1  0.21605376  0.78394624  0.25000000  1
  Na  Na3  1  0.78394624  0.21605376  0.75000000  1
  Na  Na4  1  0.35978286  0.89347531  0.99305737  1
  Na  Na5  1  0.10652469  0.64021714  0.50694263  1
  Na  Na6  1  0.64021714  0.10652469  0.00694263  1
  Na  Na7  1  0.89347531  0.35978286  0.49305737  1
  Re  Re0  1  0.59550857  0.80847766  0.58797670  1
  Re  Re1  1  0.19152234  0.40449143  0.91202330  1
  Re  Re2  1  0.40449143  0.19152234  0.41202330  1
  Re  Re3  1  0.80847766  0.59550857  0.08797670  1
  Re  Re4  1  0.52167970  0.88252896  0.36926049  1
  Re  Re5  1  0.11747104  0.47832030  0.13073951  1
  Re  Re6  1  0.47832030  0.11747104  0.63073951  1
  Re  Re7  1  0.88252896  0.52167970  0.86926049  1
  Re  Re8  1  0.70029151  0.98754098  0.46747530  1
  Re  Re9  1  0.01245902  0.29970849  0.03252470  1
  Re  Re10  1  0.29970849  0.01245902  0.53252470  1
  Re  Re11  1  0.98754098  0.70029151  0.96747530  1
  S  S0  1  0.75094137  0.92292206  0.66904905  1
  S  S1  1  0.07707794  0.24905863  0.83095095  1
  S  S2  1  0.24905863  0.07707794  0.33095095  1
  S  S3  1  0.92292206  0.75094137  0.16904905  1
  S  S4  1  0.58313852  0.27232693  0.50846602  1
  S  S5  1  0.72767307  0.41686148  0.99153398  1
  S  S6  1  0.41686148  0.72767307  0.49153398  1
  S  S7  1  0.27232693  0.58313852  0.00846602  1
  S  S8  1  0.61693409  0.05957428  0.26889435  1
  S  S9  1  0.94042572  0.38306591  0.23110565  1
  S  S10  1  0.38306591  0.94042572  0.73110565  1
  S  S11  1  0.05957428  0.61693409  0.76889435  1
  S  S12  1  0.79213830  0.70328078  0.43029619  1
  S  S13  1  0.29671922  0.20786170  0.06970381  1
  S  S14  1  0.20786170  0.29671922  0.56970381  1
  S  S15  1  0.70328078  0.79213830  0.93029619  1
  S  S16  1  0.72665180  0.54285859  0.69625896  1
  S  S17  1  0.45714141  0.27334820  0.80374104  1
  S  S18  1  0.27334820  0.45714141  0.30374104  1
  S  S19  1  0.54285859  0.72665180  0.19625896  1
  S  S20  1  0.96615181  0.96945017  0.42340055  1
  S  S21  1  0.03054983  0.03384819  0.07659945  1
  S  S22  1  0.03384819  0.03054983  0.57659945  1
  S  S23  1  0.96945017  0.96615181  0.92340055  1
loop_
_geom_bond_atom_site_label_1
_geom_bond_atom_site_label_2
_geom_bond_distance
_geom_bond_site_symmetry_2
Na0 S19 2.782877 1_555
Na0 S18 2.782877 1_555
Na0 S9 3.182445 1_555
Na0 S8 3.182445 1_555
Na0 S4 3.213970 1_555
Na0 S5 3.213970 1_554
Na1 S16 2.782877 1_555
Na1 S17 2.782877 1_555
Na1 S10 3.182445 1_555
Na1 S11 3.182445 1_555
Na1 S7 3.213970 1_556
Na1 S6 3.213970 1_555
Na2 S19 2.877787 1_555
Na2 S18 2.877787 1_555
Na2 S20 2.933841 1_455
Na2 S21 2.933841 1_565
Na2 S2 3.076080 1_565
Na2 S3 3.076080 1_455
Na2 S7 3.322203 1_555
Na2 S6 3.322203 1_555
Na3 S16 2.877787 1_555
Na3 S17 2.877787 1_555
Na3 S23 2.933841 1_545
Na3 S22 2.933841 1_655
Na3 S1 3.076080 1_655
Na3 S0 3.076080 1_545
Na3 S4 3.322203 1_555
Na3 S5 3.322203 1_555
Na4 S21 2.861676 1_566
Na4 S13 2.884238 1_566
Na4 S19 2.905417 1_556
Na4 S15 2.951265 1_555
Na4 S10 3.050634 1_555
Na4 S7 3.336526 1_556
Na5 S20 2.861676 1_455
Na5 S12 2.884238 1_455
Na5 S18 2.905417 1_555
Na5 S14 2.951265 1_555
Na5 S11 3.050634 1_555
Na5 S6 3.336526 1_555
Na6 S23 2.861676 1_544
Na6 S15 2.884238 1_544
Na6 S17 2.905417 1_554
Na6 S13 2.951265 1_555
Na6 S8 3.050634 1_555
Na6 S5 3.336526 1_554
Na7 S22 2.861676 1_655
Na7 S14 2.884238 1_655
Na7 S16 2.905417 1_555
Na7 S12 2.951265 1_555
Na7 S9 3.050634 1_555
Na7 S4 3.336526 1_555
Re0 S0 2.398287 1_555
Re0 S10 2.409721 1_555
Re0 S12 2.415755 1_555
Re0 S6 2.446602 1_555
Re0 S16 2.499264 1_555
Re1 S1 2.398287 1_555
Re1 S11 2.409721 1_555
Re1 S13 2.415755 1_556
Re1 S7 2.446602 1_556
Re1 S17 2.499264 1_555
Re2 S2 2.398287 1_555
Re2 S8 2.409721 1_555
Re2 S14 2.415755 1_555
Re2 S4 2.446602 1_555
Re2 S18 2.499264 1_555
Re3 S3 2.398287 1_555
Re3 S9 2.409721 1_555
Re3 S15 2.415755 1_554
Re3 S5 2.446602 1_554
Re3 S19 2.499264 1_555
Re4 S2 2.393159 1_565
Re4 S12 2.412794 1_555
Re4 S8 2.429469 1_565
Re4 S6 2.446500 1_555
Re4 S19 2.475586 1_555
Re5 S3 2.393159 1_455
Re5 S13 2.412794 1_555
Re5 S9 2.429469 1_455
Re5 S7 2.446500 1_555
Re5 S18 2.475586 1_555
Re6 S0 2.393159 1_545
Re6 S14 2.412794 1_555
Re6 S10 2.429469 1_545
Re6 S4 2.446500 1_555
Re6 S17 2.475586 1_555
Re7 S1 2.393159 1_655
Re7 S15 2.412794 1_555
Re7 S11 2.429469 1_655
Re7 S5 2.446500 1_555
Re7 S16 2.475586 1_555
Re8 S0 2.393120 1_555
Re8 S4 2.420494 1_565
Re8 S8 2.422899 1_565
Re8 S20 2.431907 1_555
Re8 S12 2.432046 1_555
Re9 S1 2.393120 1_554
Re9 S5 2.420494 1_454
Re9 S9 2.422899 1_455
Re9 S21 2.431907 1_555
Re9 S13 2.432046 1_555
Re10 S2 2.393120 1_555
Re10 S6 2.420494 1_545
Re10 S10 2.422899 1_545
Re10 S22 2.431907 1_555
Re10 S14 2.432046 1_555
Re11 S3 2.393120 1_556
Re11 S7 2.420494 1_656
Re11 S11 2.422899 1_655
Re11 S23 2.431907 1_555
Re11 S15 2.432046 1_555
S20 S22 2.096504 1_665
S21 S23 2.096504 1_444
