# generated using pymatgen
data_K6Cu(SiO4)2
_symmetry_space_group_name_H-M   'P 1'
_cell_length_a   6.28230000
_cell_length_b   6.75153651
_cell_length_c   7.61465793
_cell_angle_alpha   83.46204642
_cell_angle_beta   87.65660026
_cell_angle_gamma   69.85288425
_symmetry_Int_Tables_number   1
_chemical_formula_structural   K6Cu(SiO4)2
_chemical_formula_sum   'K6 Cu1 Si2 O8'
_cell_volume   301.24214034
_cell_formula_units_Z   1
loop_
 _symmetry_equiv_pos_site_id
 _symmetry_equiv_pos_as_xyz
  1  'x, y, z'
loop_
 _atom_site_type_symbol
 _atom_site_label
 _atom_site_symmetry_multiplicity
 _atom_site_fract_x
 _atom_site_fract_y
 _atom_site_fract_z
 _atom_site_occupancy
  K  K0  1  0.65342000  0.82745200  0.16743900  1
  K  K1  1  0.79953700  0.30429500  0.97546500  1
  K  K2  1  0.27498300  0.81420800  0.55895700  1
  K  K3  1  0.72501700  0.18579200  0.44104300  1
  K  K4  1  0.20046300  0.69570500  0.02453500  1
  K  K5  1  0.34658000  0.17254800  0.83256100  1
  Cu  Cu0  1  0.00000000  0.50000000  0.50000000  1
  Si  Si0  1  0.78056500  0.75957200  0.73190100  1
  Si  Si1  1  0.21943500  0.24042800  0.26809900  1
  O  O0  1  0.56418900  0.72540400  0.84217000  1
  O  O1  1  0.83224000  0.96743200  0.78497000  1
  O  O2  1  0.16776000  0.03256800  0.21503000  1
  O  O3  1  0.01637500  0.54157700  0.75340900  1
  O  O4  1  0.43581100  0.27459600  0.15783000  1
  O  O5  1  0.98362500  0.45842300  0.24659100  1
  O  O6  1  0.74397800  0.76955300  0.51203400  1
  O  O7  1  0.25602200  0.23044700  0.48796600  1
loop_
_geom_bond_atom_site_label_1
_geom_bond_atom_site_label_2
_geom_bond_distance
_geom_bond_site_symmetry_2
K0 O5 2.659721 1_555
K0 O6 2.664020 1_555
K0 O0 2.773399 1_554
K0 O4 2.846569 1_565
K0 O2 2.910558 1_565
K0 O1 3.236376 1_554
K1 O4 2.680049 1_556
K1 O1 2.779203 1_545
K1 O0 2.805261 1_555
K1 O3 2.824774 1_655
K1 O5 2.862887 1_556
K1 O2 2.950289 1_656
K2 O0 2.754432 1_555
K2 O7 2.762725 1_565
K2 O2 2.840197 1_565
K2 O6 2.868129 1_555
K2 O3 3.076145 1_555
K2 O1 3.130549 1_455
K3 O4 2.754432 1_555
K3 O6 2.762725 1_545
K3 O1 2.840197 1_545
K3 O7 2.868129 1_555
K3 O5 3.076145 1_555
K3 O2 3.130549 1_655
K4 O0 2.680049 1_554
K4 O2 2.779203 1_565
K4 O4 2.805261 1_555
K4 O5 2.824774 1_455
K4 O3 2.862887 1_554
K4 O1 2.950289 1_454
K5 O3 2.659721 1_555
K5 O7 2.664020 1_555
K5 O4 2.773399 1_556
K5 O0 2.846569 1_545
K5 O1 2.910558 1_545
K5 O2 3.236376 1_556
Cu0 O7 1.979121 1_555
Cu0 O6 1.979121 1_455
Cu0 O3 1.993063 1_555
Cu0 O5 1.993063 1_455
Cu0 K3 3.238979 1_455
Cu0 K2 3.238979 1_555
O0 Si0 1.638479 1_555
O1 Si0 1.640688 1_555
O2 Si1 1.640688 1_555
O3 Si0 1.688380 1_455
O4 Si1 1.638479 1_555
O5 Si1 1.688380 1_655
O6 Si0 1.689812 1_555
O7 Si1 1.689812 1_555
