# generated using pymatgen
data_TbBi2IO4
_symmetry_space_group_name_H-M   'P 1'
_cell_length_a   3.95449000
_cell_length_b   3.95449000
_cell_length_c   9.73719300
_cell_angle_alpha   90.00000000
_cell_angle_beta   90.00000000
_cell_angle_gamma   90.00000000
_symmetry_Int_Tables_number   1
_chemical_formula_structural   TbBi2IO4
_chemical_formula_sum   'Tb1 Bi2 I1 O4'
_cell_volume   152.27013806
_cell_formula_units_Z   1
loop_
 _symmetry_equiv_pos_site_id
 _symmetry_equiv_pos_as_xyz
  1  'x, y, z'
loop_
 _atom_site_type_symbol
 _atom_site_label
 _atom_site_symmetry_multiplicity
 _atom_site_fract_x
 _atom_site_fract_y
 _atom_site_fract_z
 _atom_site_occupancy
  Tb  Tb0  1  0.00000000  0.00000000  0.00000000  1
  Bi  Bi0  1  0.50000000  0.50000000  0.25622400  1
  Bi  Bi1  1  0.50000000  0.50000000  0.74377600  1
  I  I0  1  0.00000000  0.00000000  0.50000000  1
  O  O0  1  0.00000000  0.50000000  0.85737400  1
  O  O1  1  0.50000000  0.00000000  0.85737400  1
  O  O2  1  0.00000000  0.50000000  0.14262600  1
  O  O3  1  0.50000000  0.00000000  0.14262600  1
loop_
_geom_bond_atom_site_label_1
_geom_bond_atom_site_label_2
_geom_bond_distance
_geom_bond_site_symmetry_2
Bi0 O2 2.265615 1_555
Bi0 O2 2.265615 1_655
Bi0 O3 2.265615 1_565
Bi0 O3 2.265615 1_555
Bi1 O0 2.265615 1_555
Bi1 O1 2.265615 1_555
Bi1 O1 2.265615 1_565
Bi1 O0 2.265615 1_655
O0 Tb0 2.416237 1_566
O0 Tb0 2.416237 1_556
O1 Tb0 2.416237 1_656
O1 Tb0 2.416237 1_556
O2 Tb0 2.416237 1_555
O2 Tb0 2.416237 1_565
O3 Tb0 2.416237 1_655
O3 Tb0 2.416237 1_555
