# generated using pymatgen
data_Cs2In3
_symmetry_space_group_name_H-M   'P 1'
_cell_length_a   9.73308807
_cell_length_b   9.73308807
_cell_length_c   9.73308807
_cell_angle_alpha   138.04010913
_cell_angle_beta   138.04010913
_cell_angle_gamma   60.84157515
_symmetry_Int_Tables_number   1
_chemical_formula_structural   Cs2In3
_chemical_formula_sum   'Cs4 In6'
_cell_volume   407.70999681
_cell_formula_units_Z   2
loop_
 _symmetry_equiv_pos_site_id
 _symmetry_equiv_pos_as_xyz
  1  'x, y, z'
loop_
 _atom_site_type_symbol
 _atom_site_label
 _atom_site_symmetry_multiplicity
 _atom_site_fract_x
 _atom_site_fract_y
 _atom_site_fract_z
 _atom_site_occupancy
  Cs  Cs0  1  0.38812256  0.38812256  -0.00000000  1
  Cs  Cs1  1  0.61187744  0.61187744  -0.00000000  1
  Cs  Cs2  1  0.25000000  0.75000000  0.50000000  1
  Cs  Cs3  1  0.75000000  0.25000000  0.50000000  1
  In  In0  1  0.00346555  0.29854087  0.29507532  1
  In  In1  1  0.13903677  0.13903677  -0.00000000  1
  In  In2  1  0.86096323  0.86096323  -0.00000000  1
  In  In3  1  0.00346555  0.70839023  0.70492468  1
  In  In4  1  0.29160977  0.99653445  0.29507532  1
  In  In5  1  0.70145913  0.99653445  0.70492468  1
loop_
_geom_bond_atom_site_label_1
_geom_bond_atom_site_label_2
_geom_bond_distance
_geom_bond_site_symmetry_2
Cs0 Cs1 3.756009 1_555
Cs0 In1 4.181221 1_555
Cs0 In4 4.182806 1_544
Cs0 In5 4.182806 1_544
Cs0 In4 4.182806 1_555
Cs0 In5 4.182806 1_555
Cs0 Cs3 4.185676 1_454
Cs0 Cs3 4.185676 1_555
Cs0 Cs2 4.185676 1_544
Cs0 Cs2 4.185676 1_555
Cs0 In3 4.234722 1_554
Cs0 In0 4.234722 1_554
Cs0 In0 4.234722 1_655
Cs0 In3 4.234722 1_655
Cs1 In2 4.181221 1_555
Cs1 In3 4.182806 1_554
Cs1 In3 4.182806 1_655
Cs1 In0 4.182806 1_655
Cs1 In0 4.182806 1_554
Cs1 Cs3 4.185676 1_554
Cs1 Cs2 4.185676 1_655
Cs1 Cs3 4.185676 1_565
Cs1 Cs2 4.185676 1_554
Cs1 In5 4.234722 1_555
Cs1 In4 4.234722 1_544
Cs1 In5 4.234722 1_544
Cs1 In4 4.234722 1_555
Cs2 In2 3.951411 1_556
Cs2 In1 3.951411 1_555
Cs2 In1 3.951411 1_566
Cs2 In2 3.951411 1_455
Cs3 In1 3.951411 1_555
Cs3 In2 3.951411 1_545
Cs3 In1 3.951411 1_656
Cs3 In2 3.951411 1_556
In0 In3 2.856524 1_555
In0 In4 2.910775 1_545
In0 In5 2.910775 1_444
In0 In1 3.067329 1_555
In0 In2 3.154615 1_445
In1 In3 3.067329 1_544
In1 In5 3.154615 1_444
In1 In4 3.154615 1_545
In2 In4 3.067329 1_655
In2 In5 3.067329 1_554
In2 In3 3.154615 1_654
In3 In5 2.910775 1_455
In3 In4 2.910775 1_556
In4 In5 2.856524 1_555
