# generated using pymatgen
data_MgGa
_symmetry_space_group_name_H-M   'P 1'
_cell_length_a   10.49417939
_cell_length_b   10.49425046
_cell_length_c   5.49928816
_cell_angle_alpha   89.99982401
_cell_angle_beta   90.00003842
_cell_angle_gamma   89.99836032
_symmetry_Int_Tables_number   1
_chemical_formula_structural   MgGa
_chemical_formula_sum   'Mg16 Ga16'
_cell_volume   605.62861391
_cell_formula_units_Z   16
loop_
 _symmetry_equiv_pos_site_id
 _symmetry_equiv_pos_as_xyz
  1  'x, y, z'
loop_
 _atom_site_type_symbol
 _atom_site_label
 _atom_site_symmetry_multiplicity
 _atom_site_fract_x
 _atom_site_fract_y
 _atom_site_fract_z
 _atom_site_occupancy
  Mg  Mg0  1  0.86745491  0.07267800  0.26700845  1
  Mg  Mg1  1  0.07267546  0.13254044  0.73297027  1
  Mg  Mg2  1  0.92732971  0.86747241  0.73295297  1
  Mg  Mg3  1  0.13253205  0.92732641  0.26702701  1
  Mg  Mg4  1  0.36742216  0.07268853  0.48303876  1
  Mg  Mg5  1  0.57267625  0.13254319  0.01699917  1
  Mg  Mg6  1  0.42732432  0.86745012  0.01699723  1
  Mg  Mg7  1  0.63256607  0.92731423  0.48302062  1
  Mg  Mg8  1  0.36746163  0.57267533  0.76701737  1
  Mg  Mg9  1  0.57267024  0.63252606  0.23295030  1
  Mg  Mg10  1  0.42732818  0.36747002  0.23295276  1
  Mg  Mg11  1  0.63253733  0.42732384  0.76702053  1
  Mg  Mg12  1  0.86741283  0.57269128  0.98305589  1
  Mg  Mg13  1  0.07267456  0.63253827  0.51700886  1
  Mg  Mg14  1  0.92732822  0.36746313  0.51702061  1
  Mg  Mg15  1  0.13257738  0.42731207  0.98304152  1
  Ga  Ga0  1  0.19839632  0.39195292  0.49455828  1
  Ga  Ga1  1  0.10803262  0.19837959  0.24453770  1
  Ga  Ga2  1  0.39197068  0.30161729  0.74453145  1
  Ga  Ga3  1  0.30161319  0.10804286  0.99455223  1
  Ga  Ga4  1  0.19839396  0.89196636  0.75544991  1
  Ga  Ga5  1  0.10804399  0.69839194  0.00543711  1
  Ga  Ga6  1  0.39195861  0.80160679  0.50543432  1
  Ga  Ga7  1  0.30160610  0.60803252  0.25545333  1
  Ga  Ga8  1  0.69839614  0.89195355  0.99455393  1
  Ga  Ga9  1  0.60803344  0.69838238  0.74453114  1
  Ga  Ga10  1  0.89197067  0.80161843  0.24453454  1
  Ga  Ga11  1  0.80160496  0.60804338  0.49455961  1
  Ga  Ga12  1  0.69839486  0.39196646  0.25545414  1
  Ga  Ga13  1  0.60804529  0.19839260  0.50543603  1
  Ga  Ga14  1  0.89195746  0.30160853  0.00543877  1
  Ga  Ga15  1  0.80160942  0.10803208  0.75545118  1
loop_
_geom_bond_atom_site_label_1
_geom_bond_atom_site_label_2
_geom_bond_distance
_geom_bond_site_symmetry_2
Ga0 Ga2 2.629624 1_555
Ga0 Ga1 2.629914 1_555
Ga0 Mg15 2.798399 1_555
Ga0 Mg10 2.812020 1_555
Ga0 Ga7 2.836229 1_555
Ga0 Mg13 2.851343 1_555
Ga0 Mg14 2.858901 1_455
Ga0 Mg15 2.920206 1_554
Ga0 Mg8 2.998313 1_555
Ga0 Mg1 3.297111 1_555
Ga1 Ga3 2.629719 1_554
Ga1 Mg1 2.798184 1_555
Ga1 Mg15 2.811799 1_554
Ga1 Ga14 2.836195 1_455
Ga1 Mg0 2.851234 1_455
Ga1 Mg3 2.858764 1_545
Ga1 Mg1 2.920531 1_554
Ga1 Mg14 2.998308 1_455
Ga1 Mg4 3.296909 1_555
Ga2 Ga3 2.629894 1_555
Ga2 Mg10 2.798163 1_556
Ga2 Mg4 2.811767 1_555
Ga2 Mg11 2.851160 1_555
Ga2 Mg8 2.858824 1_555
Ga2 Mg10 2.920621 1_555
Ga2 Mg5 2.998209 1_556
Ga2 Mg15 3.296981 1_555
Ga3 Mg4 2.798380 1_556
Ga3 Mg1 2.812018 1_555
Ga3 Ga4 2.836240 1_545
Ga3 Mg6 2.851358 1_546
Ga3 Mg5 2.858854 1_556
Ga3 Mg4 2.920160 1_555
Ga3 Mg3 2.998410 1_546
Ga3 Mg10 3.297195 1_556
Ga4 Ga6 2.629762 1_555
Ga4 Ga5 2.629769 1_556
Ga4 Mg3 2.798190 1_555
Ga4 Mg6 2.811872 1_556
Ga4 Mg1 2.851229 1_565
Ga4 Mg2 2.858872 1_455
Ga4 Mg3 2.920636 1_556
Ga4 Mg4 2.997945 1_565
Ga4 Mg13 3.297310 1_555
Ga5 Ga7 2.629739 1_555
Ga5 Mg13 2.798219 1_554
Ga5 Mg3 2.812033 1_555
Ga5 Mg12 2.851706 1_454
Ga5 Mg15 2.859053 1_554
Ga5 Mg13 2.920603 1_555
Ga5 Mg2 2.998351 1_454
Ga5 Mg8 3.297086 1_554
Ga6 Ga7 2.629765 1_555
Ga6 Mg6 2.798230 1_555
Ga6 Mg8 2.811988 1_555
Ga6 Ga9 2.836168 1_555
Ga6 Mg7 2.851526 1_555
Ga6 Mg4 2.859075 1_565
Ga6 Mg6 2.920529 1_556
Ga6 Mg9 2.998342 1_555
Ga6 Mg3 3.297144 1_555
Ga7 Mg8 2.798241 1_554
Ga7 Mg13 2.811899 1_555
Ga7 Mg10 2.851144 1_555
Ga7 Mg9 2.858872 1_555
Ga7 Mg8 2.920544 1_555
Ga7 Mg15 2.997943 1_554
Ga7 Mg6 3.297241 1_555
Ga8 Ga9 2.629899 1_555
Ga8 Mg7 2.798342 1_556
Ga8 Mg2 2.812021 1_555
Ga8 Mg5 2.851373 1_566
Ga8 Mg6 2.858948 1_556
Ga8 Mg7 2.920323 1_555
Ga8 Mg0 2.998274 1_566
Ga8 Mg9 3.297228 1_556
Ga9 Mg9 2.798166 1_556
Ga9 Mg7 2.811822 1_555
Ga9 Mg8 2.851210 1_555
Ga9 Mg11 2.858824 1_555
Ga9 Mg9 2.920653 1_555
Ga9 Mg6 2.998195 1_556
Ga9 Mg12 3.296873 1_555
Ga10 Ga8 2.629645 1_554
Ga10 Ga11 2.629942 1_555
Ga10 Mg2 2.798154 1_555
Ga10 Mg12 2.811722 1_554
Ga10 Ga5 2.836170 1_655
Ga10 Mg3 2.851119 1_655
Ga10 Mg0 2.858843 1_565
Ga10 Mg2 2.920641 1_554
Ga10 Mg13 2.998253 1_655
Ga10 Mg7 3.297031 1_555
Ga11 Ga9 2.629614 1_555
Ga11 Mg12 2.798426 1_555
Ga11 Mg9 2.812054 1_555
Ga11 Ga12 2.836215 1_555
Ga11 Mg14 2.851305 1_555
Ga11 Mg13 2.858918 1_655
Ga11 Mg12 2.920103 1_554
Ga11 Mg11 2.998309 1_555
Ga11 Mg2 3.297236 1_555
Ga12 Ga14 2.629739 1_555
Ga12 Ga13 2.629747 1_555
Ga12 Mg11 2.798231 1_554
Ga12 Mg14 2.811941 1_555
Ga12 Mg9 2.851130 1_555
Ga12 Mg10 2.858901 1_555
Ga12 Mg11 2.920565 1_555
Ga12 Mg12 2.997863 1_554
Ga12 Mg5 3.297295 1_555
Ga13 Ga15 2.629756 1_555
Ga13 Mg5 2.798253 1_555
Ga13 Mg11 2.811993 1_555
Ga13 Ga2 2.836169 1_555
Ga13 Mg4 2.851651 1_555
Ga13 Mg7 2.859031 1_545
Ga13 Mg5 2.920546 1_556
Ga13 Mg10 2.998349 1_555
Ga13 Mg0 3.297026 1_555
Ga14 Ga15 2.629785 1_554
Ga14 Mg14 2.798166 1_554
Ga14 Mg0 2.811948 1_555
Ga14 Mg15 2.851619 1_654
Ga14 Mg12 2.859090 1_554
Ga14 Mg14 2.920664 1_555
Ga14 Mg1 2.998263 1_654
Ga14 Mg11 3.297095 1_554
Ga15 Mg0 2.798247 1_555
Ga15 Mg5 2.811897 1_556
Ga15 Ga8 2.836228 1_545
Ga15 Mg2 2.851109 1_545
Ga15 Mg1 2.858901 1_655
Ga15 Mg0 2.920479 1_556
Ga15 Mg7 2.998068 1_545
Ga15 Mg14 3.297304 1_555
