# generated using pymatgen
data_LiMnP2O7
_symmetry_space_group_name_H-M   'P 1'
_cell_length_a   5.16747800
_cell_length_b   8.41197500
_cell_length_c   13.86359665
_cell_angle_alpha   63.14406008
_cell_angle_beta   90.00000000
_cell_angle_gamma   90.00000000
_symmetry_Int_Tables_number   1
_chemical_formula_structural   LiMnP2O7
_chemical_formula_sum   'Li4 Mn4 P8 O28'
_cell_volume   537.63565185
_cell_formula_units_Z   4
loop_
 _symmetry_equiv_pos_site_id
 _symmetry_equiv_pos_as_xyz
  1  'x, y, z'
loop_
 _atom_site_type_symbol
 _atom_site_label
 _atom_site_symmetry_multiplicity
 _atom_site_fract_x
 _atom_site_fract_y
 _atom_site_fract_z
 _atom_site_occupancy
  Li  Li0  1  0.00353500  0.93953800  0.18935900  1
  Li  Li1  1  0.99646500  0.93953800  0.68935900  1
  Li  Li2  1  0.46105900  0.50341700  0.58228800  1
  Li  Li3  1  0.53894100  0.50341700  0.08228800  1
  Mn  Mn0  1  0.51937800  0.23405700  0.51501800  1
  Mn  Mn1  1  0.48062200  0.23405700  0.01501800  1
  Mn  Mn2  1  0.00032600  0.76780600  0.97427500  1
  Mn  Mn3  1  0.99967400  0.76780600  0.47427500  1
  P  P0  1  0.48385700  0.80937700  0.61855200  1
  P  P1  1  0.03511800  0.19004100  0.38353000  1
  P  P2  1  0.02295900  0.32825200  0.14071700  1
  P  P3  1  0.51614300  0.80937700  0.11855200  1
  P  P4  1  0.96488200  0.19004100  0.88353000  1
  P  P5  1  0.50920200  0.67460100  0.35647700  1
  P  P6  1  0.49079800  0.67460100  0.85647700  1
  P  P7  1  0.97704100  0.32825200  0.64071700  1
  O  O0  1  0.69243200  0.79953300  0.86518900  1
  O  O1  1  0.92018300  0.51846400  0.06801500  1
  O  O2  1  0.36862000  0.72437900  0.05836900  1
  O  O3  1  0.07981700  0.51846400  0.56801500  1
  O  O4  1  0.44399000  0.48411300  0.44176300  1
  O  O5  1  0.01012200  0.32697100  0.25666200  1
  O  O6  1  0.06620800  0.01239800  0.89102000  1
  O  O7  1  0.32135600  0.17989500  0.41460600  1
  O  O8  1  0.86543600  0.27041700  0.43768700  1
  O  O9  1  0.39333300  0.98295700  0.10976200  1
  O  O10  1  0.30756800  0.79953300  0.36518900  1
  O  O11  1  0.80821400  0.82521600  0.09593800  1
  O  O12  1  0.19178600  0.82521600  0.59593800  1
  O  O13  1  0.31137300  0.30305100  0.12339400  1
  O  O14  1  0.20880700  0.72861600  0.85644100  1
  O  O15  1  0.93379200  0.01239800  0.39102000  1
  O  O16  1  0.68862700  0.30305100  0.62339400  1
  O  O17  1  0.79119300  0.72861600  0.35644100  1
  O  O18  1  0.60666700  0.98295700  0.60976200  1
  O  O19  1  0.46857600  0.66619800  0.24306800  1
  O  O20  1  0.98987800  0.32697100  0.75666200  1
  O  O21  1  0.55601000  0.48411300  0.94176300  1
  O  O22  1  0.63138000  0.72437900  0.55836900  1
  O  O23  1  0.13456400  0.27041700  0.93768700  1
  O  O24  1  0.15182100  0.18707900  0.63655600  1
  O  O25  1  0.53142400  0.66619800  0.74306800  1
  O  O26  1  0.67864400  0.17989500  0.91460600  1
  O  O27  1  0.84817900  0.18707900  0.13655600  1
loop_
_geom_bond_atom_site_label_1
_geom_bond_atom_site_label_2
_geom_bond_distance
_geom_bond_site_symmetry_2
Li0 O27 2.034489 1_465
Li0 O11 2.178594 1_455
Li0 O9 2.245943 1_555
Li0 O17 2.450371 1_455
Li1 O24 2.034489 1_665
Li1 O12 2.178594 1_655
Li1 O18 2.245943 1_555
Li1 O14 2.450371 1_655
Li2 O16 1.918496 1_555
Li2 O22 1.944884 1_555
Li2 O3 1.978303 1_555
Li2 O4 2.028642 1_555
Li3 O13 1.918496 1_555
Li3 O2 1.944884 1_555
Li3 O1 1.978303 1_555
Li3 O21 2.028642 1_554
Mn0 O4 1.917718 1_555
Mn0 O7 1.940507 1_555
Mn0 O18 1.970692 1_545
Mn0 O8 2.035800 1_555
Mn0 O16 2.036430 1_555
Mn0 O24 2.449722 1_555
Mn1 O21 1.917718 1_554
Mn1 O26 1.940507 1_554
Mn1 O9 1.970692 1_545
Mn1 O23 2.035800 1_554
Mn1 O13 2.036430 1_555
Mn1 O27 2.449722 1_555
Mn2 O6 1.880373 1_565
Mn2 O1 1.948584 1_456
Mn2 O14 2.103457 1_555
Mn2 O0 2.127223 1_455
Mn2 O2 2.174819 1_556
Mn2 O11 2.190800 1_456
Mn3 O15 1.880373 1_565
Mn3 O3 1.948584 1_655
Mn3 O17 2.103457 1_555
Mn3 O10 2.127223 1_655
Mn3 O22 2.174819 1_555
Mn3 O12 2.190800 1_655
O0 P6 1.522941 1_555
O1 P2 1.549531 1_655
O2 P3 1.525614 1_555
O3 P7 1.549531 1_455
O4 P5 1.538638 1_555
O5 P2 1.603948 1_555
O5 P1 1.614486 1_555
O6 P4 1.541999 1_455
O7 P1 1.532153 1_555
O8 P1 1.499445 1_655
O9 P3 1.545596 1_555
O10 P5 1.522941 1_555
O11 P3 1.534991 1_555
O12 P0 1.534991 1_555
O13 P2 1.539424 1_555
O14 P6 1.526313 1_555
O15 P1 1.541999 1_655
O16 P7 1.539424 1_555
O17 P5 1.526313 1_555
O18 P0 1.545596 1_555
O19 P3 1.616314 1_555
O19 P5 1.619096 1_555
O20 P7 1.603948 1_555
O20 P4 1.614486 1_555
O21 P6 1.538638 1_555
O22 P0 1.525614 1_555
O23 P4 1.499445 1_455
O24 P7 1.513672 1_455
O25 P0 1.616314 1_555
O25 P6 1.619096 1_555
O26 P4 1.532153 1_555
O27 P2 1.513672 1_655
