# generated using pymatgen
data_Gd2(Zn2Ge)3
_symmetry_space_group_name_H-M   'P 1'
_cell_length_a   7.54454076
_cell_length_b   7.54456652
_cell_length_c   4.01277658
_cell_angle_alpha   90.00000000
_cell_angle_beta   90.00000000
_cell_angle_gamma   119.99803850
_symmetry_Int_Tables_number   1
_chemical_formula_structural   Gd2(Zn2Ge)3
_chemical_formula_sum   'Gd2 Zn6 Ge3'
_cell_volume   197.81139099
_cell_formula_units_Z   1
loop_
 _symmetry_equiv_pos_site_id
 _symmetry_equiv_pos_as_xyz
  1  'x, y, z'
loop_
 _atom_site_type_symbol
 _atom_site_label
 _atom_site_symmetry_multiplicity
 _atom_site_fract_x
 _atom_site_fract_y
 _atom_site_fract_z
 _atom_site_occupancy
  Gd  Gd0  1  0.66664992  0.33334495  0.00000000  1
  Gd  Gd1  1  0.33334052  0.66665544  0.00000000  1
  Zn  Zn0  1  0.28572786  0.28573782  0.50000000  1
  Zn  Zn1  1  0.19010483  0.99997867  0.00000000  1
  Zn  Zn2  1  0.71426613  0.00001419  0.50000000  1
  Zn  Zn3  1  -0.00000214  0.19010453  0.00000000  1
  Zn  Zn4  1  0.80990458  0.80990150  -0.00000000  1
  Zn  Zn5  1  0.00001399  0.71426222  0.50000000  1
  Ge  Ge0  1  0.38611273  -0.00000653  0.50000000  1
  Ge  Ge1  1  0.61388508  0.61389421  0.50000000  1
  Ge  Ge2  1  0.99999551  0.38611200  0.50000000  1
loop_
_geom_bond_atom_site_label_1
_geom_bond_atom_site_label_2
_geom_bond_distance
_geom_bond_site_symmetry_2
Gd0 Ge1 3.083295 1_554
Gd0 Ge1 3.083295 1_555
Gd0 Ge0 3.083461 1_554
Gd0 Ge0 3.083461 1_555
Gd0 Ge2 3.083480 1_554
Gd0 Ge2 3.083480 1_555
Gd0 Zn4 3.195222 1_555
Gd0 Zn1 3.195306 1_545
Gd0 Zn3 3.195405 1_655
Gd0 Zn0 3.373668 1_555
Gd0 Zn0 3.373668 1_554
Gd0 Zn2 3.373786 1_555
Gd0 Zn2 3.373786 1_554
Gd0 Zn5 3.373828 1_655
Gd0 Zn5 3.373828 1_654
Gd1 Ge1 3.083251 1_554
Gd1 Ge1 3.083251 1_555
Gd1 Ge0 3.083434 1_565
Gd1 Ge0 3.083434 1_564
Gd1 Ge2 3.083449 1_454
Gd1 Ge2 3.083449 1_455
Gd1 Zn1 3.195206 1_555
Gd1 Zn4 3.195278 1_555
Gd1 Zn3 3.195305 1_555
Gd1 Zn0 3.373636 1_555
Gd1 Zn0 3.373636 1_554
Gd1 Zn5 3.373720 1_554
Gd1 Zn5 3.373720 1_555
Gd1 Zn2 3.373844 1_564
Gd1 Zn2 3.373844 1_565
Ge0 Zn2 2.475689 1_555
Ge0 Zn1 2.492438 1_546
Ge0 Zn1 2.492438 1_545
Ge0 Zn5 2.617867 1_545
Ge0 Zn0 2.617970 1_555
Ge1 Zn0 2.475870 1_555
Ge1 Zn4 2.492523 1_555
Ge1 Zn4 2.492523 1_556
Ge1 Zn2 2.617956 1_565
Ge1 Zn5 2.618037 1_655
Ge2 Zn5 2.475681 1_655
Ge2 Zn3 2.492478 1_656
Ge2 Zn3 2.492478 1_655
Ge2 Zn0 2.617820 1_655
Ge2 Zn2 2.617863 1_555
