# generated using pymatgen
data_Dy3CuSiSe7
_symmetry_space_group_name_H-M   'P 1'
_cell_length_a   10.34267363
_cell_length_b   10.34267363
_cell_length_c   6.01709200
_cell_angle_alpha   90.00000000
_cell_angle_beta   90.00000000
_cell_angle_gamma   119.99999763
_symmetry_Int_Tables_number   1
_chemical_formula_structural   Dy3CuSiSe7
_chemical_formula_sum   'Dy6 Cu2 Si2 Se14'
_cell_volume   557.42049774
_cell_formula_units_Z   2
loop_
 _symmetry_equiv_pos_site_id
 _symmetry_equiv_pos_as_xyz
  1  'x, y, z'
loop_
 _atom_site_type_symbol
 _atom_site_label
 _atom_site_symmetry_multiplicity
 _atom_site_fract_x
 _atom_site_fract_y
 _atom_site_fract_z
 _atom_site_occupancy
  Dy  Dy0  1  0.35560000  0.22381100  0.24039200  1
  Dy  Dy1  1  0.13178900  0.35560000  0.74039200  1
  Dy  Dy2  1  0.22381100  0.86821100  0.74039200  1
  Dy  Dy3  1  0.86821100  0.64440000  0.24039200  1
  Dy  Dy4  1  0.64440000  0.77618900  0.74039200  1
  Dy  Dy5  1  0.77618900  0.13178900  0.24039200  1
  Cu  Cu0  1  0.00000000  0.00000000  0.68962300  1
  Cu  Cu1  1  0.00000000  0.00000000  0.18962300  1
  Si  Si0  1  0.33333300  0.66666700  0.32910800  1
  Si  Si1  1  0.66666700  0.33333300  0.82910800  1
  Se  Se0  1  0.66666700  0.33333300  0.45128500  1
  Se  Se1  1  0.89956900  0.42044200  0.98463400  1
  Se  Se2  1  0.33333300  0.66666700  0.95128500  1
  Se  Se3  1  0.90133300  0.73846200  0.71073000  1
  Se  Se4  1  0.26153800  0.16287200  0.71073000  1
  Se  Se5  1  0.16287200  0.90133300  0.21073000  1
  Se  Se6  1  0.09866700  0.26153800  0.21073000  1
  Se  Se7  1  0.10043100  0.57955800  0.48463400  1
  Se  Se8  1  0.57955800  0.47912700  0.98463400  1
  Se  Se9  1  0.42044200  0.52087300  0.48463400  1
  Se  Se10  1  0.83712800  0.09866700  0.71073000  1
  Se  Se11  1  0.73846200  0.83712800  0.21073000  1
  Se  Se12  1  0.52087300  0.10043100  0.98463400  1
  Se  Se13  1  0.47912700  0.89956900  0.48463400  1
loop_
_geom_bond_atom_site_label_1
_geom_bond_atom_site_label_2
_geom_bond_distance
_geom_bond_site_symmetry_2
Dy0 Se6 2.877959 1_555
Dy0 Se5 2.912218 1_545
Dy0 Se8 2.930881 1_554
Dy0 Se4 2.956316 1_555
Dy0 Se12 3.016598 1_554
Dy0 Se0 3.098358 1_555
Dy0 Se9 3.160508 1_555
Dy0 Se4 3.299644 1_554
Dy1 Se10 2.877965 1_455
Dy1 Se4 2.912210 1_555
Dy1 Se7 2.930881 1_555
Dy1 Se6 2.956316 1_556
Dy1 Se9 3.016598 1_555
Dy1 Se2 3.098357 1_555
Dy1 Se1 3.160508 1_455
Dy1 Se6 3.299645 1_555
Dy2 Se4 2.877969 1_565
Dy2 Se3 2.912220 1_455
Dy2 Se13 2.930881 1_555
Dy2 Se5 2.956313 1_556
Dy2 Se7 3.016598 1_555
Dy2 Se2 3.098349 1_555
Dy2 Se12 3.160508 1_565
Dy2 Se5 3.299642 1_555
Dy3 Se5 2.877965 1_655
Dy3 Se11 2.912210 1_555
Dy3 Se1 2.930881 1_554
Dy3 Se3 2.956316 1_555
Dy3 Se8 3.016598 1_554
Dy3 Se0 3.098357 1_555
Dy3 Se7 3.160508 1_655
Dy3 Se3 3.299645 1_554
Dy4 Se3 2.877959 1_555
Dy4 Se10 2.912218 1_565
Dy4 Se9 2.930881 1_555
Dy4 Se11 2.956316 1_556
Dy4 Se13 3.016598 1_555
Dy4 Se2 3.098358 1_555
Dy4 Se8 3.160508 1_555
Dy4 Se11 3.299644 1_555
Dy5 Se11 2.877969 1_545
Dy5 Se6 2.912220 1_655
Dy5 Se12 2.930881 1_554
Dy5 Se10 2.956313 1_555
Dy5 Se1 3.016598 1_554
Dy5 Se0 3.098349 1_555
Dy5 Se13 3.160508 1_545
Dy5 Se10 3.299642 1_554
Cu0 Se3 2.369419 1_445
Cu0 Se4 2.369420 1_555
Cu0 Se10 2.369428 1_455
Cu0 Dy2 3.234925 1_545
Cu0 Dy1 3.234925 1_555
Cu0 Dy4 3.234925 1_445
Cu1 Se6 2.369419 1_555
Cu1 Se11 2.369420 1_445
Cu1 Se5 2.369428 1_545
Cu1 Dy5 3.234925 1_455
Cu1 Dy3 3.234925 1_445
Cu1 Dy0 3.234925 1_555
Se0 Si1 2.273396 1_555
Se1 Si1 2.306445 1_555
Se2 Si0 2.273396 1_556
Se7 Si0 2.306445 1_555
Se8 Si1 2.306454 1_555
Se9 Si0 2.306454 1_555
Se12 Si1 2.306447 1_555
Se13 Si0 2.306447 1_555
