# generated using pymatgen
data_LiGaI4
_symmetry_space_group_name_H-M   'P 1'
_cell_length_a   7.56266035
_cell_length_b   8.11525926
_cell_length_c   14.93753375
_cell_angle_alpha   87.26535004
_cell_angle_beta   90.00000000
_cell_angle_gamma   90.00000000
_symmetry_Int_Tables_number   1
_chemical_formula_structural   LiGaI4
_chemical_formula_sum   'Li4 Ga4 I16'
_cell_volume   915.71650125
_cell_formula_units_Z   4
loop_
 _symmetry_equiv_pos_site_id
 _symmetry_equiv_pos_as_xyz
  1  'x, y, z'
loop_
 _atom_site_type_symbol
 _atom_site_label
 _atom_site_symmetry_multiplicity
 _atom_site_fract_x
 _atom_site_fract_y
 _atom_site_fract_z
 _atom_site_occupancy
  Li  Li0  1  0.49393165  0.14960922  0.11881127  1
  Li  Li1  1  0.99393165  0.85039078  0.38118873  1
  Li  Li2  1  0.00606835  0.14960922  0.61881127  1
  Li  Li3  1  0.50606835  0.85039078  0.88118873  1
  Ga  Ga0  1  0.32731144  0.29439641  0.90027518  1
  Ga  Ga1  1  0.82731144  0.70560359  0.59972482  1
  Ga  Ga2  1  0.17268856  0.29439641  0.40027518  1
  Ga  Ga3  1  0.67268856  0.70560359  0.09972482  1
  I  I0  1  0.81998447  0.93705859  0.18692885  1
  I  I1  1  0.67881967  0.69079396  0.44658179  1
  I  I2  1  0.64629552  0.18899796  0.93183034  1
  I  I3  1  0.82118033  0.69079396  0.94658179  1
  I  I4  1  0.17881967  0.30920604  0.05341821  1
  I  I5  1  0.81658503  0.43386699  0.69210511  1
  I  I6  1  0.31658503  0.56613301  0.80789489  1
  I  I7  1  0.18341497  0.56613301  0.30789489  1
  I  I8  1  0.35370448  0.81100204  0.06816966  1
  I  I9  1  0.85370448  0.18899796  0.43183034  1
  I  I10  1  0.68341497  0.43386699  0.19210511  1
  I  I11  1  0.68001553  0.93705859  0.68692885  1
  I  I12  1  0.18001553  0.06294141  0.81307115  1
  I  I13  1  0.14629552  0.81100204  0.56816966  1
  I  I14  1  0.32118033  0.30920604  0.55341821  1
  I  I15  1  0.31998447  0.06294141  0.31307115  1
loop_
_geom_bond_atom_site_label_1
_geom_bond_atom_site_label_2
_geom_bond_distance
_geom_bond_site_symmetry_2
Ga0 I6 2.546250 1_555
Ga0 I4 2.556327 1_556
Ga0 I12 2.588287 1_555
Ga0 I2 2.595154 1_555
Ga1 I5 2.546250 1_555
Ga1 I1 2.556327 1_555
Ga1 I11 2.588287 1_555
Ga1 I13 2.595154 1_655
Ga2 I7 2.546250 1_555
Ga2 I14 2.556327 1_555
Ga2 I15 2.588287 1_555
Ga2 I9 2.595154 1_455
Ga3 I10 2.546250 1_555
Ga3 I3 2.556327 1_554
Ga3 I0 2.588287 1_555
Ga3 I8 2.595154 1_555
I0 Li0 3.150150 1_565
I0 Li1 3.232756 1_555
I1 Li1 2.861817 1_555
I2 Li0 3.024196 1_556
I2 Li3 3.073450 1_545
I3 Li3 2.861817 1_555
I4 Li0 2.861817 1_555
I5 Li2 2.968934 1_655
I6 Li3 2.968934 1_555
I7 Li1 2.968934 1_455
I8 Li3 3.024196 1_554
I8 Li0 3.073450 1_565
I9 Li2 3.024196 1_655
I9 Li1 3.073450 1_545
I10 Li0 2.968934 1_555
I11 Li2 3.150150 1_665
I11 Li3 3.232756 1_555
I12 Li3 3.150150 1_545
I12 Li2 3.232756 1_555
I13 Li1 3.024196 1_455
I13 Li2 3.073450 1_565
I14 Li2 2.861817 1_555
I15 Li1 3.150150 1_445
I15 Li0 3.232756 1_555
