# generated using pymatgen
data_BaCrO3
_symmetry_space_group_name_H-M   'P 1'
_cell_length_a   5.72824415
_cell_length_b   5.72824415
_cell_length_c   13.95203700
_cell_angle_alpha   90.00000000
_cell_angle_beta   90.00000000
_cell_angle_gamma   120.00000177
_symmetry_Int_Tables_number   1
_chemical_formula_structural   BaCrO3
_chemical_formula_sum   'Ba6 Cr6 O18'
_cell_volume   396.47087042
_cell_formula_units_Z   6
loop_
 _symmetry_equiv_pos_site_id
 _symmetry_equiv_pos_as_xyz
  1  'x, y, z'
loop_
 _atom_site_type_symbol
 _atom_site_label
 _atom_site_symmetry_multiplicity
 _atom_site_fract_x
 _atom_site_fract_y
 _atom_site_fract_z
 _atom_site_occupancy
  Ba  Ba0  1  0.00000000  0.00000000  0.25000000  1
  Ba  Ba1  1  0.00000000  0.00000000  0.75000000  1
  Ba  Ba2  1  0.33333300  0.66666700  0.09198600  1
  Ba  Ba3  1  0.66666700  0.33333300  0.59198600  1
  Ba  Ba4  1  0.66666700  0.33333300  0.90801400  1
  Ba  Ba5  1  0.33333300  0.66666700  0.40801400  1
  Cr  Cr0  1  0.00000000  0.00000000  0.00000000  1
  Cr  Cr1  1  0.00000000  0.00000000  0.50000000  1
  Cr  Cr2  1  0.33333300  0.66666700  0.84568100  1
  Cr  Cr3  1  0.66666700  0.33333300  0.34568100  1
  Cr  Cr4  1  0.66666700  0.33333300  0.15431900  1
  Cr  Cr5  1  0.33333300  0.66666700  0.65431900  1
  O  O0  1  0.52065000  0.47935000  0.25000000  1
  O  O1  1  0.04130000  0.52065000  0.75000000  1
  O  O2  1  0.47935000  0.95870000  0.75000000  1
  O  O3  1  0.52065000  0.04130000  0.25000000  1
  O  O4  1  0.95870000  0.47935000  0.25000000  1
  O  O5  1  0.47935000  0.52065000  0.75000000  1
  O  O6  1  0.83024400  0.16975600  0.08170800  1
  O  O7  1  0.66048900  0.83024400  0.58170800  1
  O  O8  1  0.16975600  0.33951100  0.58170800  1
  O  O9  1  0.83024400  0.66048900  0.08170800  1
  O  O10  1  0.33951100  0.16975600  0.08170800  1
  O  O11  1  0.66048900  0.83024400  0.91829200  1
  O  O12  1  0.16975600  0.33951100  0.91829200  1
  O  O13  1  0.16975600  0.83024400  0.58170800  1
  O  O14  1  0.16975600  0.83024400  0.91829200  1
  O  O15  1  0.83024400  0.16975600  0.41829200  1
  O  O16  1  0.33951100  0.16975600  0.41829200  1
  O  O17  1  0.83024400  0.66048900  0.41829200  1
loop_
_geom_bond_atom_site_label_1
_geom_bond_atom_site_label_2
_geom_bond_distance
_geom_bond_site_symmetry_2
Ba0 O0 2.871441 1_445
Ba0 O0 2.871441 1_555
Ba0 O4 2.871441 1_445
Ba0 O3 2.871441 1_555
Ba0 O3 2.871441 1_455
Ba0 O4 2.871441 1_455
Ba0 O10 2.889614 1_555
Ba0 O9 2.889614 1_445
Ba0 O16 2.889614 1_555
Ba0 O17 2.889614 1_445
Ba0 O6 2.889617 1_455
Ba0 O15 2.889617 1_455
Ba1 O5 2.871441 1_445
Ba1 O5 2.871441 1_555
Ba1 O2 2.871441 1_445
Ba1 O1 2.871441 1_555
Ba1 O1 2.871441 1_545
Ba1 O2 2.871441 1_545
Ba1 O7 2.889614 1_445
Ba1 O8 2.889614 1_555
Ba1 O11 2.889614 1_445
Ba1 O12 2.889614 1_555
Ba1 O14 2.889617 1_545
Ba1 O13 2.889617 1_545
Ba2 O6 2.867873 1_455
Ba2 O6 2.867873 1_565
Ba2 O10 2.867873 1_565
Ba2 O9 2.867873 1_455
Ba2 O10 2.867873 1_555
Ba2 O9 2.867873 1_555
Ba2 O4 2.883451 1_455
Ba2 O3 2.883451 1_565
Ba2 O0 2.883454 1_555
Ba2 O14 2.916634 1_554
Ba2 O11 2.916639 1_554
Ba2 O12 2.916639 1_554
Ba3 O13 2.867873 1_545
Ba3 O13 2.867873 1_655
Ba3 O7 2.867873 1_545
Ba3 O8 2.867873 1_655
Ba3 O8 2.867873 1_555
Ba3 O7 2.867873 1_555
Ba3 O2 2.883451 1_545
Ba3 O1 2.883451 1_655
Ba3 O5 2.883454 1_555
Ba3 O15 2.916634 1_555
Ba3 O16 2.916639 1_555
Ba3 O17 2.916639 1_555
Ba4 O14 2.867873 1_655
Ba4 O14 2.867873 1_545
Ba4 O11 2.867873 1_545
Ba4 O12 2.867873 1_655
Ba4 O12 2.867873 1_555
Ba4 O11 2.867873 1_555
Ba4 O2 2.883451 1_545
Ba4 O1 2.883451 1_655
Ba4 O5 2.883454 1_555
Ba4 O6 2.916634 1_556
Ba4 O10 2.916639 1_556
Ba4 O9 2.916639 1_556
Ba5 O15 2.867873 1_455
Ba5 O15 2.867873 1_565
Ba5 O17 2.867873 1_455
Ba5 O16 2.867873 1_565
Ba5 O16 2.867873 1_555
Ba5 O17 2.867873 1_555
Ba5 O4 2.883451 1_455
Ba5 O3 2.883451 1_565
Ba5 O0 2.883454 1_555
Ba5 O13 2.916634 1_555
Ba5 O8 2.916639 1_555
Ba5 O7 2.916639 1_555
Cr0 O11 2.033783 1_444
Cr0 O10 2.033783 1_555
Cr0 O9 2.033783 1_445
Cr0 O12 2.033783 1_554
Cr0 O6 2.033788 1_455
Cr0 O14 2.033788 1_544
Cr1 O7 2.033783 1_445
Cr1 O8 2.033783 1_555
Cr1 O17 2.033783 1_445
Cr1 O16 2.033783 1_555
Cr1 O15 2.033788 1_455
Cr1 O13 2.033788 1_545
Cr2 O14 1.913184 1_555
Cr2 O12 1.913192 1_555
Cr2 O11 1.913192 1_555
Cr2 O2 1.969991 1_555
Cr2 O1 1.969991 1_555
Cr2 O5 1.969994 1_555
Cr3 O15 1.913184 1_555
Cr3 O16 1.913192 1_555
Cr3 O17 1.913192 1_555
Cr3 O3 1.969991 1_555
Cr3 O4 1.969991 1_555
Cr3 O0 1.969994 1_555
Cr4 O6 1.913184 1_555
Cr4 O9 1.913192 1_555
Cr4 O10 1.913192 1_555
Cr4 O4 1.969991 1_555
Cr4 O3 1.969991 1_555
Cr4 O0 1.969994 1_555
Cr5 O13 1.913184 1_555
Cr5 O7 1.913192 1_555
Cr5 O8 1.913192 1_555
Cr5 O2 1.969991 1_555
Cr5 O1 1.969991 1_555
Cr5 O5 1.969994 1_555
