# generated using pymatgen
data_Ce2Zr2O7
_symmetry_space_group_name_H-M   'P 1'
_cell_length_a   7.59558580
_cell_length_b   7.59741674
_cell_length_c   7.59578910
_cell_angle_alpha   60.02260333
_cell_angle_beta   60.01990973
_cell_angle_gamma   59.98430839
_symmetry_Int_Tables_number   1
_chemical_formula_structural   Ce2Zr2O7
_chemical_formula_sum   'Ce4 Zr4 O14'
_cell_volume   310.00808572
_cell_formula_units_Z   2
loop_
 _symmetry_equiv_pos_site_id
 _symmetry_equiv_pos_as_xyz
  1  'x, y, z'
loop_
 _atom_site_type_symbol
 _atom_site_label
 _atom_site_symmetry_multiplicity
 _atom_site_fract_x
 _atom_site_fract_y
 _atom_site_fract_z
 _atom_site_occupancy
  Ce  Ce0  1  0.62499968  0.12500071  0.12499984  1
  Ce  Ce1  1  0.12500035  0.62499973  0.12500169  1
  Ce  Ce2  1  0.12500063  0.12499939  0.62499941  1
  Ce  Ce3  1  0.12500220  0.12499990  0.12499899  1
  Zr  Zr0  1  0.62500079  0.62499856  0.12500075  1
  Zr  Zr1  1  0.62499958  0.12500007  0.62500020  1
  Zr  Zr2  1  0.62499984  0.62499996  0.62499969  1
  Zr  Zr3  1  0.12500062  0.62500036  0.62499977  1
  O  O0  1  0.95827499  0.54095043  0.54228766  1
  O  O1  1  0.29172404  0.70905244  0.70771133  1
  O  O2  1  0.24988899  0.24993963  0.25021626  1
  O  O3  1  0.54103834  0.95820842  0.95853850  1
  O  O4  1  0.29198550  0.29198021  0.70769280  1
  O  O5  1  0.29139286  0.70803488  0.29179109  1
  O  O6  1  0.95860749  0.54196501  0.95820835  1
  O  O7  1  0.70896188  0.29178879  0.29146128  1
  O  O8  1  0.95801310  0.95801987  0.54230812  1
  O  O9  1  0.00011184  0.00006086  -0.00021697  1
  O  O10  1  0.70767953  0.29152269  0.70920721  1
  O  O11  1  0.54231749  0.95847811  0.54079437  1
  O  O12  1  0.54155901  0.54245565  0.95801173  1
  O  O13  1  0.70844127  0.70754436  0.29198794  1
loop_
_geom_bond_atom_site_label_1
_geom_bond_atom_site_label_2
_geom_bond_distance
_geom_bond_site_symmetry_2
Ce0 O2 2.326293 1_555
Ce0 O9 2.326302 1_655
Ce0 O10 2.605649 1_554
Ce0 O11 2.605659 1_545
Ce0 O7 2.612780 1_555
Ce0 O3 2.612802 1_544
Ce0 O12 2.615667 1_554
Ce0 O13 2.615675 1_545
Ce1 O2 2.326603 1_555
Ce1 O9 2.326610 1_565
Ce1 O5 2.607082 1_555
Ce1 O6 2.607108 1_454
Ce1 O12 2.609979 1_554
Ce1 O13 2.609981 1_455
Ce1 O0 2.613974 1_455
Ce1 O1 2.613999 1_554
Ce2 O2 2.325220 1_555
Ce2 O9 2.325223 1_556
Ce2 O1 2.606166 1_545
Ce2 O0 2.606193 1_455
Ce2 O8 2.610546 1_445
Ce2 O4 2.610549 1_555
Ce2 O11 2.612939 1_545
Ce2 O10 2.612964 1_455
Ce3 O2 2.325986 1_555
Ce3 O9 2.325995 1_555
Ce3 O3 2.606154 1_544
Ce3 O7 2.606177 1_455
Ce3 O5 2.611833 1_545
Ce3 O6 2.611835 1_454
Ce3 O4 2.615132 1_554
Ce3 O8 2.615153 1_445
O0 Zr2 2.098761 1_555
O0 Zr3 2.100307 1_655
O1 Zr2 2.098763 1_555
O1 Zr3 2.100301 1_555
O3 Zr0 2.099060 1_556
O3 Zr1 2.101573 1_565
O4 Zr1 2.097625 1_555
O4 Zr3 2.098125 1_555
O5 Zr3 2.099143 1_555
O5 Zr0 2.101179 1_555
O6 Zr3 2.099144 1_655
O6 Zr0 2.101174 1_556
O7 Zr0 2.099058 1_555
O7 Zr1 2.101573 1_555
O8 Zr1 2.097622 1_565
O8 Zr3 2.098125 1_655
O10 Zr1 2.099778 1_555
O10 Zr2 2.100630 1_555
O11 Zr1 2.099779 1_565
O11 Zr2 2.100635 1_555
O12 Zr0 2.097569 1_556
O12 Zr2 2.098459 1_555
O13 Zr0 2.097565 1_555
O13 Zr2 2.098456 1_555
