# generated using pymatgen
data_KClO3
_symmetry_space_group_name_H-M   'P 1'
_cell_length_a   4.52957245
_cell_length_b   4.52957245
_cell_length_c   4.52957264
_cell_angle_alpha   80.01503014
_cell_angle_beta   80.01503014
_cell_angle_gamma   80.01502564
_symmetry_Int_Tables_number   1
_chemical_formula_structural   KClO3
_chemical_formula_sum   'K1 Cl1 O3'
_cell_volume   89.14985941
_cell_formula_units_Z   1
loop_
 _symmetry_equiv_pos_site_id
 _symmetry_equiv_pos_as_xyz
  1  'x, y, z'
loop_
 _atom_site_type_symbol
 _atom_site_label
 _atom_site_symmetry_multiplicity
 _atom_site_fract_x
 _atom_site_fract_y
 _atom_site_fract_z
 _atom_site_occupancy
  K  K0  1  0.98146300  0.98146300  0.98146300  1
  Cl  Cl0  1  0.48913600  0.48913600  0.48913600  1
  O  O0  1  0.41275200  0.82886100  0.41275200  1
  O  O1  1  0.41275200  0.41275200  0.82886100  1
  O  O2  1  0.82886100  0.41275200  0.41275200  1
loop_
_geom_bond_atom_site_label_1
_geom_bond_atom_site_label_2
_geom_bond_distance
_geom_bond_site_symmetry_2
K0 O2 2.915037 1_566
K0 O0 2.915037 1_656
K0 O1 2.915037 1_665
K0 O1 3.055177 1_565
K0 O1 3.055177 1_655
K0 O2 3.055177 1_565
K0 O0 3.055177 1_655
K0 O2 3.055177 1_556
K0 O0 3.055177 1_556
Cl0 O2 1.509835 1_555
Cl0 O0 1.509835 1_555
Cl0 O1 1.509835 1_555
