# generated using pymatgen
data_Ag2Ge2O5
_symmetry_space_group_name_H-M   'P 1'
_cell_length_a   10.29524500
_cell_length_b   11.22981600
_cell_length_c   12.47190724
_cell_angle_alpha   85.49528840
_cell_angle_beta   90.00000000
_cell_angle_gamma   90.00000000
_symmetry_Int_Tables_number   1
_chemical_formula_structural   Ag2Ge2O5
_chemical_formula_sum   'Ag24 Ge24 O60'
_cell_volume   1437.46915265
_cell_formula_units_Z   12
loop_
 _symmetry_equiv_pos_site_id
 _symmetry_equiv_pos_as_xyz
  1  'x, y, z'
loop_
 _atom_site_type_symbol
 _atom_site_label
 _atom_site_symmetry_multiplicity
 _atom_site_fract_x
 _atom_site_fract_y
 _atom_site_fract_z
 _atom_site_occupancy
  Ag  Ag0  1  0.34237200  0.82122900  0.51418600  1
  Ag  Ag1  1  0.13670800  0.11860000  0.90517600  1
  Ag  Ag2  1  0.17463200  0.85035700  0.31612900  1
  Ag  Ag3  1  0.82536800  0.14964300  0.68387100  1
  Ag  Ag4  1  0.28321900  0.61474200  0.35115500  1
  Ag  Ag5  1  0.36329200  0.11860000  0.40517600  1
  Ag  Ag6  1  0.33313100  0.60243300  0.08090900  1
  Ag  Ag7  1  0.20442900  0.36382100  0.32751200  1
  Ag  Ag8  1  0.79557100  0.63617900  0.67248800  1
  Ag  Ag9  1  0.78321900  0.38525800  0.14884500  1
  Ag  Ag10  1  0.83313100  0.39756700  0.41909100  1
  Ag  Ag11  1  0.65762800  0.17877100  0.48581400  1
  Ag  Ag12  1  0.84237200  0.17877100  0.98581400  1
  Ag  Ag13  1  0.67463200  0.14964300  0.18387100  1
  Ag  Ag14  1  0.29557100  0.36382100  0.82751200  1
  Ag  Ag15  1  0.32536800  0.85035700  0.81612900  1
  Ag  Ag16  1  0.63670800  0.88140000  0.59482400  1
  Ag  Ag17  1  0.15762800  0.82122900  0.01418600  1
  Ag  Ag18  1  0.71678100  0.38525800  0.64884500  1
  Ag  Ag19  1  0.66686900  0.39756700  0.91909100  1
  Ag  Ag20  1  0.86329200  0.88140000  0.09482400  1
  Ag  Ag21  1  0.21678100  0.61474200  0.85115500  1
  Ag  Ag22  1  0.16686900  0.60243300  0.58090900  1
  Ag  Ag23  1  0.70442900  0.63617900  0.17248800  1
  Ge  Ge0  1  0.92299200  0.60732700  0.96328700  1
  Ge  Ge1  1  0.46713700  0.58799300  0.70336000  1
  Ge  Ge2  1  0.96713700  0.41200700  0.79664000  1
  Ge  Ge3  1  0.53286300  0.41200700  0.29664000  1
  Ge  Ge4  1  0.42299200  0.39267300  0.53671300  1
  Ge  Ge5  1  0.50978200  0.87265400  0.04755800  1
  Ge  Ge6  1  0.99021800  0.87265400  0.54755800  1
  Ge  Ge7  1  0.33436200  0.03703200  0.14540700  1
  Ge  Ge8  1  0.00978200  0.12734600  0.45244200  1
  Ge  Ge9  1  0.38355300  0.29891800  0.10059300  1
  Ge  Ge10  1  0.83436200  0.96296800  0.35459300  1
  Ge  Ge11  1  0.49021800  0.12734600  0.95244200  1
  Ge  Ge12  1  0.16563800  0.03703200  0.64540700  1
  Ge  Ge13  1  0.66563800  0.96296800  0.85459300  1
  Ge  Ge14  1  0.03286300  0.58799300  0.20336000  1
  Ge  Ge15  1  0.61644700  0.70108200  0.89940700  1
  Ge  Ge16  1  0.53563500  0.87509400  0.30017700  1
  Ge  Ge17  1  0.07700800  0.39267300  0.03671300  1
  Ge  Ge18  1  0.96436500  0.87509400  0.80017700  1
  Ge  Ge19  1  0.11644700  0.29891800  0.60059300  1
  Ge  Ge20  1  0.88355300  0.70108200  0.39940700  1
  Ge  Ge21  1  0.03563500  0.12490600  0.19982300  1
  Ge  Ge22  1  0.57700800  0.60732700  0.46328700  1
  Ge  Ge23  1  0.46436500  0.12490600  0.69982300  1
  O  O0  1  0.02182400  0.22741700  0.08160100  1
  O  O1  1  0.39990000  0.56184500  0.48702600  1
  O  O2  1  0.55235200  0.57554800  0.82919600  1
  O  O3  1  0.94764800  0.57554800  0.32919600  1
  O  O4  1  0.51971500  0.27402300  0.01432900  1
  O  O5  1  0.89990000  0.43815500  0.01297400  1
  O  O6  1  0.92859000  0.56387200  0.81735700  1
  O  O7  1  0.05235200  0.42445200  0.67080400  1
  O  O8  1  0.06104600  0.19996700  0.31741700  1
  O  O9  1  0.24182400  0.38149500  0.53224400  1
  O  O10  1  0.57957200  0.65692000  0.60830900  1
  O  O11  1  0.93895400  0.80003300  0.68258300  1
  O  O12  1  0.98028500  0.27402300  0.51432900  1
  O  O13  1  0.75817600  0.61850500  0.46775600  1
  O  O14  1  0.17551300  0.67554500  0.21127400  1
  O  O15  1  0.07957200  0.34308000  0.89169100  1
  O  O16  1  0.15671600  0.01820800  0.17352900  1
  O  O17  1  0.74182400  0.61850500  0.96775600  1
  O  O18  1  0.61353000  0.04057200  0.71145200  1
  O  O19  1  0.25817600  0.38149500  0.03224400  1
  O  O20  1  0.42859000  0.43612800  0.68264300  1
  O  O21  1  0.81926800  0.86717800  0.48918000  1
  O  O22  1  0.88647000  0.04057200  0.21145200  1
  O  O23  1  0.32448700  0.67554500  0.71127400  1
  O  O24  1  0.38647000  0.95942800  0.28854800  1
  O  O25  1  0.84328400  0.98179200  0.82647100  1
  O  O26  1  0.97965900  0.03369100  0.59662000  1
  O  O27  1  0.47965900  0.96630900  0.90338000  1
  O  O28  1  0.43895400  0.19996700  0.81741700  1
  O  O29  1  0.42042800  0.34308000  0.39169100  1
  O  O30  1  0.16579400  0.88800600  0.58526300  1
  O  O31  1  0.66579400  0.11199400  0.91473700  1
  O  O32  1  0.34328400  0.01820800  0.67352900  1
  O  O33  1  0.97817600  0.77258300  0.91839900  1
  O  O34  1  0.47817600  0.22741700  0.58160100  1
  O  O35  1  0.65671600  0.98179200  0.32647100  1
  O  O36  1  0.92042800  0.65692000  0.10830900  1
  O  O37  1  0.10010000  0.56184500  0.98702600  1
  O  O38  1  0.11353000  0.95942800  0.78854800  1
  O  O39  1  0.02034100  0.96630900  0.40338000  1
  O  O40  1  0.48028500  0.72597700  0.98567100  1
  O  O41  1  0.64576900  0.81372500  0.79309700  1
  O  O42  1  0.57141000  0.56387200  0.31735700  1
  O  O43  1  0.60010000  0.43815500  0.51297400  1
  O  O44  1  0.44764800  0.42445200  0.17080400  1
  O  O45  1  0.82448700  0.32445500  0.78872600  1
  O  O46  1  0.52182400  0.77258300  0.41839900  1
  O  O47  1  0.31926800  0.13282200  0.01082000  1
  O  O48  1  0.35423100  0.18627500  0.20690300  1
  O  O49  1  0.01971500  0.72597700  0.48567100  1
  O  O50  1  0.83420600  0.11199400  0.41473700  1
  O  O51  1  0.52034100  0.03369100  0.09662000  1
  O  O52  1  0.67551300  0.32445500  0.28872600  1
  O  O53  1  0.14576900  0.18627500  0.70690300  1
  O  O54  1  0.33420600  0.88800600  0.08526300  1
  O  O55  1  0.85423100  0.81372500  0.29309700  1
  O  O56  1  0.18073200  0.13282200  0.51082000  1
  O  O57  1  0.07141000  0.43612800  0.18264300  1
  O  O58  1  0.68073200  0.86717800  0.98918000  1
  O  O59  1  0.56104600  0.80003300  0.18258300  1
loop_
_geom_bond_atom_site_label_1
_geom_bond_atom_site_label_2
_geom_bond_distance
_geom_bond_site_symmetry_2
Ag0 O30 2.181145 1_555
Ag0 O46 2.289408 1_555
Ag1 O47 2.308052 1_556
Ag1 O38 2.403372 1_545
Ag1 O53 2.531010 1_555
Ag1 O15 2.581178 1_555
Ag2 O39 2.371805 1_555
Ag2 O14 2.442811 1_555
Ag2 O16 2.494685 1_565
Ag2 O24 2.511737 1_555
Ag3 O26 2.371805 1_555
Ag3 O45 2.442811 1_555
Ag3 O25 2.494685 1_545
Ag3 O18 2.511737 1_555
Ag4 O1 2.123520 1_555
Ag4 O14 2.133599 1_555
Ag5 O56 2.308052 1_555
Ag5 O24 2.403372 1_545
Ag5 O48 2.531010 1_555
Ag5 O29 2.581178 1_555
Ag6 O40 2.317759 1_554
Ag6 O14 2.482045 1_555
Ag6 O44 2.507943 1_555
Ag6 O19 2.712240 1_555
Ag6 O37 2.723660 1_554
Ag7 O57 2.359832 1_555
Ag7 O29 2.368709 1_555
Ag7 O8 2.370039 1_555
Ag7 O9 2.605199 1_555
Ag8 O6 2.359832 1_555
Ag8 O10 2.368709 1_555
Ag8 O11 2.370039 1_555
Ag8 O13 2.605199 1_555
Ag9 O5 2.123520 1_555
Ag9 O52 2.133599 1_555
Ag10 O12 2.317759 1_555
Ag10 O52 2.482045 1_555
Ag10 O3 2.507943 1_555
Ag10 O13 2.712240 1_555
Ag10 O43 2.723660 1_555
Ag11 O50 2.181145 1_555
Ag11 O34 2.289408 1_555
Ag12 O31 2.181145 1_555
Ag12 O0 2.289408 1_656
Ag13 O51 2.371805 1_555
Ag13 O52 2.442811 1_555
Ag13 O35 2.494685 1_545
Ag13 O22 2.511737 1_555
Ag14 O20 2.359832 1_555
Ag14 O15 2.368709 1_555
Ag14 O28 2.370039 1_555
Ag14 O19 2.605199 1_556
Ag15 O27 2.371805 1_555
Ag15 O23 2.442811 1_555
Ag15 O32 2.494685 1_565
Ag15 O38 2.511737 1_555
Ag16 O21 2.308052 1_555
Ag16 O18 2.403372 1_565
Ag16 O41 2.531010 1_555
Ag16 O10 2.581178 1_555
Ag17 O54 2.181145 1_555
Ag17 O33 2.289408 1_454
Ag18 O43 2.123520 1_555
Ag18 O45 2.133599 1_555
Ag19 O4 2.317759 1_556
Ag19 O45 2.482045 1_555
Ag19 O2 2.507943 1_555
Ag19 O17 2.712240 1_555
Ag19 O5 2.723660 1_556
Ag20 O58 2.308052 1_554
Ag20 O22 2.403372 1_565
Ag20 O55 2.531010 1_555
Ag20 O36 2.581178 1_555
Ag21 O37 2.123520 1_555
Ag21 O23 2.133599 1_555
Ag22 O49 2.317759 1_555
Ag22 O23 2.482045 1_555
Ag22 O7 2.507943 1_555
Ag22 O9 2.712240 1_555
Ag22 O1 2.723660 1_555
Ag23 O42 2.359832 1_555
Ag23 O36 2.368709 1_555
Ag23 O59 2.370039 1_555
Ag23 O17 2.605199 1_554
Ge0 O17 1.870513 1_555
Ge0 O37 1.910354 1_655
Ge0 O6 1.921839 1_555
Ge0 O36 1.934033 1_556
Ge0 O5 1.965893 1_556
Ge0 O33 1.979133 1_555
Ge1 O23 1.774398 1_555
Ge1 O10 1.788922 1_555
Ge1 O20 1.789389 1_555
Ge1 O2 1.793826 1_555
Ge2 O45 1.774398 1_555
Ge2 O15 1.788922 1_655
Ge2 O6 1.789389 1_555
Ge2 O7 1.793826 1_655
Ge3 O52 1.774398 1_555
Ge3 O29 1.788922 1_555
Ge3 O42 1.789389 1_555
Ge3 O44 1.793826 1_555
Ge4 O9 1.870513 1_555
Ge4 O43 1.910354 1_555
Ge4 O20 1.921839 1_555
Ge4 O29 1.934033 1_555
Ge4 O1 1.965893 1_555
Ge4 O34 1.979133 1_555
Ge5 O54 1.879097 1_555
Ge5 O59 1.887806 1_555
Ge5 O40 1.897578 1_554
Ge5 O58 1.907465 1_554
Ge5 O51 1.957147 1_565
Ge5 O27 2.034372 1_554
Ge6 O30 1.879097 1_655
Ge6 O11 1.887806 1_555
Ge6 O49 1.897578 1_655
Ge6 O21 1.907465 1_555
Ge6 O26 1.957147 1_565
Ge6 O39 2.034372 1_655
Ge7 O16 1.871086 1_555
Ge7 O54 1.886949 1_545
Ge7 O48 1.908111 1_555
Ge7 O47 1.927487 1_555
Ge7 O24 1.997490 1_545
Ge7 O51 2.010298 1_555
Ge8 O50 1.879097 1_455
Ge8 O8 1.887806 1_555
Ge8 O12 1.897578 1_455
Ge8 O56 1.907465 1_555
Ge8 O39 1.957147 1_545
Ge8 O26 2.034372 1_455
Ge9 O19 1.768770 1_555
Ge9 O48 1.784874 1_555
Ge9 O4 1.802226 1_555
Ge9 O44 1.839416 1_555
Ge9 O47 2.344938 1_555
Ge10 O35 1.871086 1_555
Ge10 O50 1.886949 1_565
Ge10 O55 1.908111 1_555
Ge10 O21 1.927487 1_555
Ge10 O22 1.997490 1_565
Ge10 O39 2.010298 1_655
Ge11 O31 1.879097 1_555
Ge11 O28 1.887806 1_555
Ge11 O4 1.897578 1_556
Ge11 O47 1.907465 1_556
Ge11 O27 1.957147 1_545
Ge11 O51 2.034372 1_556
Ge12 O32 1.871086 1_555
Ge12 O30 1.886949 1_545
Ge12 O53 1.908111 1_555
Ge12 O56 1.927487 1_555
Ge12 O38 1.997490 1_545
Ge12 O26 2.010298 1_455
Ge13 O25 1.871086 1_555
Ge13 O31 1.886949 1_565
Ge13 O41 1.908111 1_555
Ge13 O58 1.927487 1_555
Ge13 O18 1.997490 1_565
Ge13 O27 2.010298 1_555
Ge14 O14 1.774398 1_555
Ge14 O36 1.788922 1_455
Ge14 O57 1.789389 1_555
Ge14 O3 1.793826 1_455
Ge15 O17 1.768770 1_555
Ge15 O41 1.784874 1_555
Ge15 O40 1.802226 1_555
Ge15 O2 1.839416 1_555
Ge15 O58 2.344938 1_555
Ge16 O59 1.767520 1_555
Ge16 O35 1.777316 1_555
Ge16 O46 1.803558 1_555
Ge16 O24 1.804083 1_555
Ge17 O19 1.870513 1_555
Ge17 O5 1.910354 1_455
Ge17 O57 1.921839 1_555
Ge17 O15 1.934033 1_554
Ge17 O37 1.965893 1_554
Ge17 O0 1.979133 1_555
Ge18 O11 1.767520 1_555
Ge18 O25 1.777316 1_555
Ge18 O33 1.803558 1_555
Ge18 O38 1.804083 1_655
Ge19 O9 1.768770 1_555
Ge19 O53 1.784874 1_555
Ge19 O12 1.802226 1_455
Ge19 O7 1.839416 1_555
Ge19 O56 2.344938 1_555
Ge20 O13 1.768770 1_555
Ge20 O55 1.784874 1_555
Ge20 O49 1.802226 1_655
Ge20 O3 1.839416 1_555
Ge20 O21 2.344938 1_555
Ge21 O8 1.767520 1_555
Ge21 O16 1.777316 1_555
Ge21 O0 1.803558 1_555
Ge21 O22 1.804083 1_455
Ge22 O13 1.870513 1_555
Ge22 O1 1.910354 1_555
Ge22 O42 1.921839 1_555
Ge22 O10 1.934033 1_555
Ge22 O43 1.965893 1_555
Ge22 O46 1.979133 1_555
Ge23 O28 1.767520 1_555
Ge23 O32 1.777316 1_555
Ge23 O34 1.803558 1_555
Ge23 O18 1.804083 1_555
