# generated using pymatgen
data_KIn(WO4)2
_symmetry_space_group_name_H-M   'P 1'
_cell_length_a   5.90397000
_cell_length_b   5.90397000
_cell_length_c   15.14094600
_cell_angle_alpha   90.00000000
_cell_angle_beta   90.00000000
_cell_angle_gamma   119.99999997
_symmetry_Int_Tables_number   1
_chemical_formula_structural   KIn(WO4)2
_chemical_formula_sum   'K2 In2 W4 O16'
_cell_volume   457.05864316
_cell_formula_units_Z   2
loop_
 _symmetry_equiv_pos_site_id
 _symmetry_equiv_pos_as_xyz
  1  'x, y, z'
loop_
 _atom_site_type_symbol
 _atom_site_label
 _atom_site_symmetry_multiplicity
 _atom_site_fract_x
 _atom_site_fract_y
 _atom_site_fract_z
 _atom_site_occupancy
  K  K0  1  0.00000000  0.00000000  0.25000000  1
  K  K1  1  0.00000000  0.00000000  0.75000000  1
  In  In0  1  0.00000000  0.00000000  0.50000000  1
  In  In1  1  0.00000000  0.00000000  0.00000000  1
  W  W0  1  0.33333300  0.66666700  0.12330500  1
  W  W1  1  0.66666700  0.33333300  0.87669500  1
  W  W2  1  0.33333300  0.66666700  0.62330500  1
  W  W3  1  0.66666700  0.33333300  0.37669500  1
  O  O0  1  0.88052200  0.21058900  0.91319900  1
  O  O1  1  0.33333300  0.66666700  0.74039100  1
  O  O2  1  0.66666700  0.33333300  0.75960900  1
  O  O3  1  0.11947800  0.33006700  0.58680100  1
  O  O4  1  0.33006700  0.11947800  0.91319900  1
  O  O5  1  0.66993300  0.78941100  0.58680100  1
  O  O6  1  0.78941100  0.11947800  0.41319900  1
  O  O7  1  0.33333300  0.66666700  0.24039100  1
  O  O8  1  0.21058900  0.33006700  0.08680100  1
  O  O9  1  0.78941100  0.66993300  0.91319900  1
  O  O10  1  0.11947800  0.78941100  0.08680100  1
  O  O11  1  0.66993300  0.88052200  0.08680100  1
  O  O12  1  0.21058900  0.88052200  0.58680100  1
  O  O13  1  0.33006700  0.21058900  0.41319900  1
  O  O14  1  0.66666700  0.33333300  0.25960900  1
  O  O15  1  0.88052200  0.66993300  0.41319900  1
loop_
_geom_bond_atom_site_label_1
_geom_bond_atom_site_label_2
_geom_bond_distance
_geom_bond_site_symmetry_2
K0 O6 3.004365 1_455
K0 O10 3.004365 1_545
K0 O15 3.004365 1_445
K0 O11 3.004365 1_445
K0 O13 3.004365 1_555
K0 O8 3.004365 1_555
K1 O12 3.004365 1_545
K1 O0 3.004365 1_455
K1 O4 3.004365 1_555
K1 O3 3.004365 1_555
K1 O5 3.004365 1_445
K1 O9 3.004365 1_445
In0 O6 2.155848 1_455
In0 O12 2.155848 1_545
In0 O15 2.155848 1_445
In0 O3 2.155848 1_555
In0 O5 2.155848 1_445
In0 O13 2.155848 1_555
In1 O10 2.155848 1_545
In1 O0 2.155848 1_454
In1 O11 2.155848 1_445
In1 O4 2.155848 1_554
In1 O8 2.155848 1_555
In1 O9 2.155848 1_444
O0 W1 1.827499 1_555
O1 W2 1.772793 1_555
O2 W1 1.772793 1_555
O3 W2 1.827504 1_555
O4 W1 1.827504 1_555
O5 W2 1.827505 1_555
O6 W3 1.827499 1_555
O7 W0 1.772793 1_555
O8 W0 1.827505 1_555
O9 W1 1.827505 1_555
O10 W0 1.827499 1_555
O11 W0 1.827504 1_555
O12 W2 1.827499 1_555
O13 W3 1.827505 1_555
O14 W3 1.772793 1_555
O15 W3 1.827504 1_555
