# generated using pymatgen
data_CdGe(BiO3)2
_symmetry_space_group_name_H-M   'P 1'
_cell_length_a   5.70321300
_cell_length_b   10.36484000
_cell_length_c   14.75445285
_cell_angle_alpha   45.90941671
_cell_angle_beta   90.00000000
_cell_angle_gamma   90.00000000
_symmetry_Int_Tables_number   1
_chemical_formula_structural   CdGe(BiO3)2
_chemical_formula_sum   'Cd4 Ge4 Bi8 O24'
_cell_volume   626.43395777
_cell_formula_units_Z   4
loop_
 _symmetry_equiv_pos_site_id
 _symmetry_equiv_pos_as_xyz
  1  'x, y, z'
loop_
 _atom_site_type_symbol
 _atom_site_label
 _atom_site_symmetry_multiplicity
 _atom_site_fract_x
 _atom_site_fract_y
 _atom_site_fract_z
 _atom_site_occupancy
  Cd  Cd0  1  0.25039100  0.88799700  0.49818700  1
  Cd  Cd1  1  0.75039100  0.11200300  0.00181300  1
  Cd  Cd2  1  0.24960900  0.88799700  0.99818700  1
  Cd  Cd3  1  0.74960900  0.11200300  0.50181300  1
  Ge  Ge0  1  0.25471300  0.34557600  0.00181200  1
  Ge  Ge1  1  0.75471300  0.65442400  0.49818800  1
  Ge  Ge2  1  0.24528700  0.34557600  0.50181200  1
  Ge  Ge3  1  0.74528700  0.65442400  0.99818800  1
  Bi  Bi0  1  0.71459800  0.15713400  0.73768300  1
  Bi  Bi1  1  0.78540200  0.15713400  0.23768300  1
  Bi  Bi2  1  0.21459800  0.84286600  0.76231700  1
  Bi  Bi3  1  0.28635200  0.36442700  0.24530000  1
  Bi  Bi4  1  0.71364800  0.63557300  0.75470000  1
  Bi  Bi5  1  0.78635200  0.63557300  0.25470000  1
  Bi  Bi6  1  0.28540200  0.84286600  0.26231700  1
  Bi  Bi7  1  0.21364800  0.36442700  0.74530000  1
  O  O0  1  0.51165200  0.17524400  0.85485500  1
  O  O1  1  0.48834800  0.82475600  0.14514500  1
  O  O2  1  0.04296700  0.32138700  0.92540700  1
  O  O3  1  0.87379600  0.43423700  0.62309300  1
  O  O4  1  0.12620400  0.56576300  0.37690700  1
  O  O5  1  0.01149700  0.11889800  0.85313700  1
  O  O6  1  0.87420300  0.67399600  0.87880000  1
  O  O7  1  0.01165200  0.82475600  0.64514500  1
  O  O8  1  0.37420300  0.32600400  0.62120000  1
  O  O9  1  0.62620400  0.43423700  0.12309300  1
  O  O10  1  0.52405700  0.82352400  0.91969500  1
  O  O11  1  0.62579700  0.67399600  0.37880000  1
  O  O12  1  0.37379600  0.56576300  0.87690700  1
  O  O13  1  0.54296700  0.67861300  0.57459300  1
  O  O14  1  0.98850300  0.88110200  0.14686300  1
  O  O15  1  0.97594300  0.82352400  0.41969500  1
  O  O16  1  0.95703300  0.67861300  0.07459300  1
  O  O17  1  0.12579700  0.32600400  0.12120000  1
  O  O18  1  0.98834800  0.17524400  0.35485500  1
  O  O19  1  0.02405700  0.17647600  0.58030500  1
  O  O20  1  0.45703300  0.32138700  0.42540700  1
  O  O21  1  0.47594300  0.17647600  0.08030500  1
  O  O22  1  0.48850300  0.11889800  0.35313700  1
  O  O23  1  0.51149700  0.88110200  0.64686300  1
loop_
_geom_bond_atom_site_label_1
_geom_bond_atom_site_label_2
_geom_bond_distance
_geom_bond_site_symmetry_2
Cd0 O7 2.237674 1_555
Cd0 O22 2.241528 1_565
Cd0 O15 2.305362 1_455
Cd0 O13 2.315268 1_555
Cd0 O18 2.609233 1_465
Cd0 O23 2.610847 1_555
Cd1 O0 2.237674 1_554
Cd1 O14 2.241528 1_545
Cd1 O21 2.305362 1_555
Cd1 O2 2.315268 1_654
Cd1 O1 2.609233 1_545
Cd1 O5 2.610847 1_654
Cd2 O1 2.237674 1_556
Cd2 O5 2.241528 1_565
Cd2 O10 2.305362 1_555
Cd2 O16 2.315268 1_456
Cd2 O0 2.609233 1_565
Cd2 O14 2.610847 1_456
Cd3 O18 2.237674 1_555
Cd3 O23 2.241528 1_545
Cd3 O19 2.305362 1_655
Cd3 O20 2.315268 1_555
Cd3 O7 2.609233 1_645
Cd3 O22 2.610847 1_555
Ge0 O21 1.783376 1_555
Ge0 O2 1.784764 1_554
Ge0 O17 1.785316 1_555
Ge0 O12 1.792523 1_554
Ge1 O15 1.783376 1_555
Ge1 O13 1.784764 1_555
Ge1 O11 1.785316 1_555
Ge1 O3 1.792523 1_555
Ge2 O19 1.783376 1_555
Ge2 O20 1.784764 1_555
Ge2 O8 1.785316 1_555
Ge2 O4 1.792523 1_555
Ge3 O10 1.783376 1_555
Ge3 O16 1.784764 1_556
Ge3 O6 1.785316 1_555
Ge3 O9 1.792523 1_556
Bi0 O0 2.194374 1_555
Bi0 O5 2.233063 1_655
Bi0 O3 2.274754 1_555
Bi0 O8 2.366436 1_555
Bi0 O10 2.725261 1_545
Bi0 O19 2.810535 1_655
Bi1 O18 2.194374 1_555
Bi1 O22 2.233063 1_555
Bi1 O9 2.274754 1_555
Bi1 O17 2.366436 1_655
Bi1 O15 2.725261 1_545
Bi1 O21 2.810535 1_555
Bi2 O7 2.194374 1_555
Bi2 O23 2.233063 1_555
Bi2 O12 2.274754 1_555
Bi2 O6 2.366436 1_455
Bi2 O19 2.725261 1_565
Bi2 O10 2.810535 1_555
Bi3 O22 2.168508 1_555
Bi3 O18 2.221621 1_455
Bi3 O17 2.316136 1_555
Bi3 O9 2.390807 1_555
Bi3 O20 2.560969 1_555
Bi4 O23 2.168508 1_555
Bi4 O7 2.221621 1_655
Bi4 O6 2.316136 1_555
Bi4 O12 2.390807 1_555
Bi4 O13 2.560969 1_555
Bi5 O14 2.168508 1_555
Bi5 O1 2.221621 1_555
Bi5 O11 2.316136 1_555
Bi5 O4 2.390807 1_655
Bi5 O16 2.560969 1_555
Bi6 O1 2.194374 1_555
Bi6 O14 2.233063 1_455
Bi6 O4 2.274754 1_555
Bi6 O11 2.366436 1_555
Bi6 O21 2.725261 1_565
Bi6 O15 2.810535 1_455
Bi7 O5 2.168508 1_555
Bi7 O0 2.221621 1_555
Bi7 O8 2.316136 1_555
Bi7 O3 2.390807 1_455
Bi7 O2 2.560969 1_555
