# generated using pymatgen
data_Ba3Mo2(P2O9)2
_symmetry_space_group_name_H-M   'P 1'
_cell_length_a   4.92679600
_cell_length_b   9.36587620
_cell_length_c   18.26557486
_cell_angle_alpha   88.30757207
_cell_angle_beta   88.20969618
_cell_angle_gamma   78.51834952
_symmetry_Int_Tables_number   1
_chemical_formula_structural   Ba3Mo2(P2O9)2
_chemical_formula_sum   'Ba6 Mo4 P8 O36'
_cell_volume   825.33868848
_cell_formula_units_Z   2
loop_
 _symmetry_equiv_pos_site_id
 _symmetry_equiv_pos_as_xyz
  1  'x, y, z'
loop_
 _atom_site_type_symbol
 _atom_site_label
 _atom_site_symmetry_multiplicity
 _atom_site_fract_x
 _atom_site_fract_y
 _atom_site_fract_z
 _atom_site_occupancy
  Ba  Ba0  1  0.77376600  0.99679400  0.74803900  1
  Ba  Ba1  1  0.09165200  0.40467400  0.85372600  1
  Ba  Ba2  1  0.90834800  0.59532600  0.14627400  1
  Ba  Ba3  1  0.22623400  0.00320600  0.25196100  1
  Ba  Ba4  1  0.53773000  0.40873900  0.34657900  1
  Ba  Ba5  1  0.46227000  0.59126100  0.65342100  1
  Mo  Mo0  1  0.30708800  0.76635400  0.44751900  1
  Mo  Mo1  1  0.69291200  0.23364600  0.55248100  1
  Mo  Mo2  1  0.17041000  0.22630100  0.05131700  1
  Mo  Mo3  1  0.82959000  0.77369900  0.94868300  1
  P  P0  1  0.23914800  0.14104500  0.43453700  1
  P  P1  1  0.76085200  0.85895500  0.56546300  1
  P  P2  1  0.29991000  0.84735000  0.06980400  1
  P  P3  1  0.13387800  0.28782000  0.67855800  1
  P  P4  1  0.70009000  0.15265000  0.93019600  1
  P  P5  1  0.62969500  0.26589800  0.17720500  1
  P  P6  1  0.37030500  0.73410200  0.82279500  1
  P  P7  1  0.86612200  0.71218000  0.32144200  1
  O  O0  1  0.93093100  0.27061700  0.14575900  1
  O  O1  1  0.20224400  0.40662800  0.03681500  1
  O  O2  1  0.30707800  0.77098100  0.14534100  1
  O  O3  1  0.85205100  0.99238500  0.92432200  1
  O  O4  1  0.69292200  0.22901900  0.85465900  1
  O  O5  1  0.39466200  0.15809900  0.95796100  1
  O  O6  1  0.72521900  0.41265900  0.53451900  1
  O  O7  1  0.73342200  0.81441300  0.25980700  1
  O  O8  1  0.65779100  0.01834300  0.59012700  1
  O  O9  1  0.15926100  0.76212000  0.01522500  1
  O  O10  1  0.51180200  0.82128500  0.87647000  1
  O  O11  1  0.88101100  0.22398300  0.65260600  1
  O  O12  1  0.34220900  0.98165700  0.40987300  1
  O  O13  1  0.97194000  0.55554300  0.29421200  1
  O  O14  1  0.11898900  0.77601700  0.34739400  1
  O  O15  1  0.10838100  0.23556200  0.37017300  1
  O  O16  1  0.84073900  0.23788000  0.98477500  1
  O  O17  1  0.79775600  0.59337200  0.96318500  1
  O  O18  1  0.05170300  0.14009100  0.50373900  1
  O  O19  1  0.26657800  0.18558700  0.74019300  1
  O  O20  1  0.67028000  0.69794200  0.38877000  1
  O  O21  1  0.48158000  0.42456800  0.18844300  1
  O  O22  1  0.51842000  0.57543200  0.81155700  1
  O  O23  1  0.27478100  0.58734100  0.46548100  1
  O  O24  1  0.14794900  0.00761500  0.07567800  1
  O  O25  1  0.06906900  0.72938300  0.85424100  1
  O  O26  1  0.89161900  0.76443800  0.62982700  1
  O  O27  1  0.60533800  0.84190100  0.04203900  1
  O  O28  1  0.32972000  0.30205800  0.61123000  1
  O  O29  1  0.48819800  0.17871500  0.12353000  1
  O  O30  1  0.49974200  0.20254900  0.45732000  1
  O  O31  1  0.33739300  0.82269100  0.74988400  1
  O  O32  1  0.66260700  0.17730900  0.25011600  1
  O  O33  1  0.50025800  0.79745100  0.54268000  1
  O  O34  1  0.02806000  0.44445700  0.70578800  1
  O  O35  1  0.94829700  0.85990900  0.49626100  1
loop_
_geom_bond_atom_site_label_1
_geom_bond_atom_site_label_2
_geom_bond_distance
_geom_bond_site_symmetry_2
Ba0 O19 2.763977 1_565
Ba0 O11 2.831306 1_565
Ba0 O4 2.922112 1_565
Ba0 O31 2.927638 1_655
Ba0 O31 2.944507 1_555
Ba0 O8 2.951168 1_565
Ba0 O26 3.071062 1_555
Ba0 O10 3.209138 1_555
Ba0 O3 3.252951 1_555
Ba0 O25 3.254404 1_655
Ba0 O19 3.273326 1_665
Ba1 O34 2.735997 1_555
Ba1 O4 2.801578 1_455
Ba1 O17 2.868174 1_455
Ba1 O19 2.947759 1_555
Ba1 O22 2.955792 1_555
Ba1 O25 3.021289 1_555
Ba1 O22 3.064657 1_455
Ba1 O4 3.089270 1_555
Ba1 O5 3.119644 1_555
Ba1 O16 3.171960 1_455
Ba1 O1 3.406244 1_556
Ba2 O13 2.735997 1_555
Ba2 O2 2.801578 1_655
Ba2 O1 2.868174 1_655
Ba2 O7 2.947759 1_555
Ba2 O21 2.955792 1_555
Ba2 O0 3.021289 1_555
Ba2 O21 3.064657 1_655
Ba2 O2 3.089270 1_555
Ba2 O27 3.119644 1_555
Ba2 O9 3.171960 1_655
Ba2 O17 3.406244 1_554
Ba3 O7 2.763977 1_545
Ba3 O14 2.831306 1_545
Ba3 O2 2.922112 1_545
Ba3 O32 2.927638 1_455
Ba3 O32 2.944507 1_555
Ba3 O12 2.951168 1_545
Ba3 O15 3.071062 1_555
Ba3 O29 3.209138 1_555
Ba3 O24 3.252951 1_555
Ba3 O0 3.254404 1_455
Ba3 O7 3.273326 1_445
Ba4 O30 2.783052 1_555
Ba4 O32 2.794316 1_555
Ba4 O13 2.889169 1_555
Ba4 O23 2.892972 1_555
Ba4 O21 2.906876 1_555
Ba4 O15 2.925518 1_555
Ba4 O15 2.989966 1_655
Ba4 O13 3.023047 1_455
Ba4 O20 3.035792 1_555
Ba5 O33 2.783052 1_555
Ba5 O31 2.794316 1_555
Ba5 O34 2.889169 1_555
Ba5 O6 2.892972 1_555
Ba5 O22 2.906876 1_555
Ba5 O26 2.925518 1_555
Ba5 O26 2.989966 1_455
Ba5 O34 3.023047 1_655
Ba5 O28 3.035792 1_555
Mo0 O23 1.736230 1_555
Mo0 O35 2.004059 1_455
Mo0 O20 2.056236 1_555
Mo0 O33 2.062869 1_555
Mo0 O14 2.067462 1_555
Mo0 O12 2.149097 1_555
Mo1 O6 1.736230 1_555
Mo1 O18 2.004059 1_655
Mo1 O28 2.056236 1_555
Mo1 O30 2.062869 1_555
Mo1 O11 2.067462 1_555
Mo1 O8 2.149097 1_555
Mo2 O1 1.738864 1_555
Mo2 O16 2.042685 1_454
Mo2 O5 2.049897 1_554
Mo2 O29 2.050923 1_555
Mo2 O0 2.064042 1_455
Mo2 O24 2.106806 1_555
Mo3 O17 1.738864 1_555
Mo3 O9 2.042685 1_656
Mo3 O27 2.049897 1_556
Mo3 O10 2.050923 1_555
Mo3 O25 2.064042 1_655
Mo3 O3 2.106806 1_555
O0 P5 1.582988 1_555
O2 P2 1.533359 1_555
O3 P4 1.543440 1_565
O4 P4 1.533359 1_555
O5 P4 1.564429 1_555
O7 P7 1.531264 1_555
O8 P1 1.553357 1_545
O9 P2 1.556153 1_555
O10 P6 1.559017 1_555
O11 P3 1.576207 1_655
O12 P0 1.553357 1_565
O13 P7 1.547192 1_555
O14 P7 1.576207 1_455
O15 P0 1.529594 1_555
O16 P4 1.556153 1_555
O18 P0 1.542838 1_555
O19 P3 1.531264 1_555
O20 P7 1.558374 1_555
O21 P5 1.536236 1_555
O22 P6 1.536236 1_555
O24 P2 1.543440 1_545
O25 P6 1.582988 1_555
O26 P1 1.529594 1_555
O27 P2 1.564429 1_555
O28 P3 1.558374 1_555
O29 P5 1.559017 1_555
O30 P0 1.579669 1_555
O31 P6 1.543687 1_555
O32 P5 1.543687 1_555
O33 P1 1.579669 1_555
O34 P3 1.547192 1_555
O35 P1 1.542838 1_555
