# generated using pymatgen
data_RbCo(CO)4
_symmetry_space_group_name_H-M   'P 1'
_cell_length_a   11.65246544
_cell_length_b   11.65246544
_cell_length_c   14.54353184
_cell_angle_alpha   55.61916288
_cell_angle_beta   55.61916288
_cell_angle_gamma   29.36894451
_symmetry_Int_Tables_number   1
_chemical_formula_structural   RbCo(CO)4
_chemical_formula_sum   'Rb4 Co4 C16 O16'
_cell_volume   786.32300926
_cell_formula_units_Z   4
loop_
 _symmetry_equiv_pos_site_id
 _symmetry_equiv_pos_as_xyz
  1  'x, y, z'
loop_
 _atom_site_type_symbol
 _atom_site_label
 _atom_site_symmetry_multiplicity
 _atom_site_fract_x
 _atom_site_fract_y
 _atom_site_fract_z
 _atom_site_occupancy
  Rb  Rb0  1  0.87155700  0.78153000  0.06110900  1
  Rb  Rb1  1  0.78153000  0.87155700  0.56110900  1
  Rb  Rb2  1  0.12844300  0.21847000  0.93889100  1
  Rb  Rb3  1  0.21847000  0.12844300  0.43889100  1
  Co  Co0  1  0.83169300  0.41328800  0.73873900  1
  Co  Co1  1  0.41328800  0.83169300  0.23873900  1
  Co  Co2  1  0.16830700  0.58671200  0.26126100  1
  Co  Co3  1  0.58671200  0.16830700  0.76126100  1
  C  C0  1  0.10598100  0.26569100  0.65906400  1
  C  C1  1  0.26569100  0.10598100  0.15906400  1
  C  C2  1  0.89401900  0.73430900  0.34093600  1
  C  C3  1  0.73430900  0.89401900  0.84093600  1
  C  C4  1  0.66230200  0.63128600  0.80116300  1
  C  C5  1  0.63128600  0.66230200  0.30116300  1
  C  C6  1  0.33769800  0.36871400  0.19883700  1
  C  C7  1  0.36871400  0.33769800  0.69883700  1
  C  C8  1  0.88218100  0.19728600  0.84111600  1
  C  C9  1  0.19728600  0.88218100  0.34111600  1
  C  C10  1  0.11781900  0.80271400  0.15888400  1
  C  C11  1  0.80271400  0.11781900  0.65888400  1
  C  C12  1  0.65001200  0.56223300  0.65649600  1
  C  C13  1  0.56223300  0.65001200  0.15649600  1
  C  C14  1  0.34998800  0.43776700  0.34350400  1
  C  C15  1  0.43776700  0.34998800  0.84350400  1
  O  O0  1  0.29396400  0.15984600  0.60263300  1
  O  O1  1  0.15984600  0.29396400  0.10263300  1
  O  O2  1  0.70603600  0.84015400  0.39736700  1
  O  O3  1  0.84015400  0.70603600  0.89736700  1
  O  O4  1  0.54178100  0.78615300  0.84029700  1
  O  O5  1  0.78615300  0.54178100  0.34029700  1
  O  O6  1  0.45821900  0.21384700  0.15970300  1
  O  O7  1  0.21384700  0.45821900  0.65970300  1
  O  O8  1  0.91295300  0.05453000  0.90825700  1
  O  O9  1  0.05453000  0.91295300  0.40825700  1
  O  O10  1  0.08704700  0.94547000  0.09174300  1
  O  O11  1  0.94547000  0.08704700  0.59174300  1
  O  O12  1  0.52074200  0.66699800  0.60430500  1
  O  O13  1  0.66699800  0.52074200  0.10430500  1
  O  O14  1  0.47925800  0.33300200  0.39569500  1
  O  O15  1  0.33300200  0.47925800  0.89569500  1
loop_
_geom_bond_atom_site_label_1
_geom_bond_atom_site_label_2
_geom_bond_distance
_geom_bond_site_symmetry_2
C0 O0 1.181909 1_555
C0 Co0 1.732930 1_455
C1 O1 1.181909 1_555
C1 Co1 1.732930 1_545
C2 O2 1.181909 1_555
C2 Co2 1.732930 1_655
C3 O3 1.181909 1_555
C3 Co3 1.732930 1_565
C4 O4 1.180156 1_555
C4 Co0 1.736243 1_555
C5 O5 1.180156 1_555
C5 Co1 1.736243 1_555
C6 O6 1.180156 1_555
C6 Co2 1.736243 1_555
C7 O7 1.180156 1_555
C7 Co3 1.736243 1_555
C8 O8 1.170685 1_555
C8 Co0 1.753294 1_555
C9 O9 1.170685 1_555
C9 Co1 1.753294 1_555
C10 O10 1.170685 1_555
C10 Co2 1.753294 1_555
C11 O11 1.170685 1_555
C11 Co3 1.753294 1_555
C12 O12 1.172657 1_555
C12 Co0 1.742383 1_555
C13 O13 1.172657 1_555
C13 Co1 1.742383 1_555
C14 O14 1.172657 1_555
C14 Co2 1.742383 1_555
C15 O15 1.172657 1_555
C15 Co3 1.742383 1_555
O0 Rb1 3.013077 1_545
O0 Rb3 3.238810 1_555
O1 Rb0 3.013077 1_455
O1 Rb2 3.238810 1_554
O2 Rb3 3.013077 1_565
O2 Rb1 3.238810 1_555
O3 Rb2 3.013077 1_655
O3 Rb0 3.238810 1_556
O4 Rb2 2.949523 1_565
O5 Rb3 2.949523 1_655
O6 Rb0 2.949523 1_545
O7 Rb1 2.949523 1_455
O8 Rb0 2.961562 1_546
O9 Rb1 2.961562 1_455
O10 Rb2 2.961562 1_564
O11 Rb3 2.961562 1_655
O12 Rb3 3.009367 1_565
O13 Rb2 3.009367 1_654
O14 Rb1 3.009367 1_545
O15 Rb0 3.009367 1_456
