# generated using pymatgen
data_Y(CoSi)2
_symmetry_space_group_name_H-M   'P 1'
_cell_length_a   3.85385538
_cell_length_b   3.85385564
_cell_length_c   5.56810116
_cell_angle_alpha   110.24686148
_cell_angle_beta   110.24686991
_cell_angle_gamma   89.99998858
_symmetry_Int_Tables_number   1
_chemical_formula_structural   Y(CoSi)2
_chemical_formula_sum   'Y1 Co2 Si2'
_cell_volume   72.11756133
_cell_formula_units_Z   1
loop_
 _symmetry_equiv_pos_site_id
 _symmetry_equiv_pos_as_xyz
  1  'x, y, z'
loop_
 _atom_site_type_symbol
 _atom_site_label
 _atom_site_symmetry_multiplicity
 _atom_site_fract_x
 _atom_site_fract_y
 _atom_site_fract_z
 _atom_site_occupancy
  Y  Y0  1  0.00000000  -0.00000000  0.00000000  1
  Co  Co0  1  0.25000000  0.75000000  0.50000000  1
  Co  Co1  1  0.75000000  0.25000000  0.50000000  1
  Si  Si0  1  0.62950325  0.62950325  0.25900751  1
  Si  Si1  1  0.37049675  0.37049675  0.74099249  1
loop_
_geom_bond_atom_site_label_1
_geom_bond_atom_site_label_2
_geom_bond_distance
_geom_bond_site_symmetry_2
Co0 Si1 2.254412 1_555
Co0 Si0 2.254412 1_555
Co0 Si0 2.254414 1_455
Co0 Si1 2.254415 1_565
Co0 Y0 3.099590 1_666
Co0 Y0 3.099590 1_555
Co0 Y0 3.099591 1_565
Co0 Y0 3.099591 1_566
Co1 Si0 2.254412 1_555
Co1 Si1 2.254412 1_555
Co1 Si1 2.254414 1_655
Co1 Si0 2.254415 1_545
Co1 Y0 3.099590 1_555
Co1 Y0 3.099590 1_666
Co1 Y0 3.099591 1_656
Co1 Y0 3.099591 1_655
Si0 Si1 2.515316 1_554
Si0 Y0 3.001298 1_555
Si0 Y0 3.001300 1_565
Si0 Y0 3.001300 1_655
Si0 Y0 3.001304 1_665
Si1 Y0 3.001298 1_666
Si1 Y0 3.001300 1_656
Si1 Y0 3.001300 1_566
Si1 Y0 3.001304 1_556
