# generated using pymatgen
data_K2MnO4
_symmetry_space_group_name_H-M   'P 1'
_cell_length_a   5.81573651
_cell_length_b   7.61975418
_cell_length_c   10.29982091
_cell_angle_alpha   89.99824065
_cell_angle_beta   90.00208007
_cell_angle_gamma   90.00320097
_symmetry_Int_Tables_number   1
_chemical_formula_structural   K2MnO4
_chemical_formula_sum   'K8 Mn4 O16'
_cell_volume   456.43123370
_cell_formula_units_Z   4
loop_
 _symmetry_equiv_pos_site_id
 _symmetry_equiv_pos_as_xyz
  1  'x, y, z'
loop_
 _atom_site_type_symbol
 _atom_site_label
 _atom_site_symmetry_multiplicity
 _atom_site_fract_x
 _atom_site_fract_y
 _atom_site_fract_z
 _atom_site_occupancy
  K  K0  1  0.74999401  0.83823040  0.91384033  1
  K  K1  1  0.25008370  0.16172658  0.08600881  1
  K  K2  1  0.74995375  0.33821910  0.58614827  1
  K  K3  1  0.24988597  0.66179725  0.41394650  1
  K  K4  1  0.75001839  0.01273121  0.30376771  1
  K  K5  1  0.24998846  0.98733904  0.69625240  1
  K  K6  1  0.74984339  0.51268122  0.19624712  1
  K  K7  1  0.25010721  0.48724108  0.80376007  1
  Mn  Mn0  1  0.75001137  0.77089174  0.57964354  1
  Mn  Mn1  1  0.24994462  0.22911494  0.42039795  1
  Mn  Mn2  1  0.75006941  0.27089831  0.92036312  1
  Mn  Mn3  1  0.24999627  0.72910754  0.07958893  1
  O  O0  1  0.74999643  0.98599508  0.58083690  1
  O  O1  1  0.24986773  0.01401093  0.41922509  1
  O  O2  1  0.75006274  0.48600040  0.91922169  1
  O  O3  1  0.25000995  0.51401199  0.08072227  1
  O  O4  1  0.75003466  0.70042298  0.42812816  1
  O  O5  1  0.24999942  0.29959744  0.57191619  1
  O  O6  1  0.75006711  0.20042040  0.07188675  1
  O  O7  1  0.24999666  0.79960434  0.92807971  1
  O  O8  1  0.97866593  0.69296034  0.65370764  1
  O  O9  1  0.47869235  0.30685894  0.34630593  1
  O  O10  1  0.52133284  0.19309464  0.84626562  1
  O  O11  1  0.02129974  0.80696251  0.15363116  1
  O  O12  1  0.02127523  0.30706304  0.34635957  1
  O  O13  1  0.52123791  0.69312830  0.65371221  1
  O  O14  1  0.47873285  0.80687210  0.15367757  1
  O  O15  1  0.97883390  0.19302014  0.84635579  1
loop_
_geom_bond_atom_site_label_1
_geom_bond_atom_site_label_2
_geom_bond_distance
_geom_bond_site_symmetry_2
K0 O2 2.684477 1_555
K0 O7 2.926376 1_555
K0 O7 2.926429 1_655
K0 O11 2.940408 1_656
K0 O14 2.940808 1_556
K0 O15 3.092302 1_565
K0 O10 3.092669 1_565
K0 O13 3.189143 1_555
K0 O8 3.189555 1_555
K0 O6 3.204163 1_566
K1 O3 2.684879 1_555
K1 O6 2.926287 1_555
K1 O6 2.926501 1_455
K1 O15 2.939057 1_454
K1 O10 2.939963 1_554
K1 O11 3.092311 1_545
K1 O14 3.092792 1_545
K1 O9 3.190328 1_555
K1 O12 3.191949 1_555
K1 O7 3.203104 1_544
K2 O0 2.684420 1_545
K2 O5 2.926110 1_555
K2 O5 2.926682 1_655
K2 O12 2.940478 1_655
K2 O9 2.940771 1_555
K2 O8 3.091849 1_555
K2 O13 3.093139 1_555
K2 O10 3.188805 1_555
K2 O15 3.190381 1_555
K2 O4 3.204030 1_555
K3 O1 2.684334 1_565
K3 O4 2.925535 1_455
K3 O4 2.927211 1_555
K3 O8 2.939928 1_455
K3 O13 2.940372 1_555
K3 O12 3.091612 1_555
K3 O9 3.093737 1_555
K3 O11 3.190513 1_555
K3 O14 3.190534 1_555
K3 O5 3.203740 1_555
K4 O4 2.702503 1_545
K4 O14 2.709099 1_545
K4 O11 2.709126 1_645
K4 O9 2.775846 1_555
K4 O12 2.776800 1_655
K4 O6 2.783745 1_555
K4 O0 2.861019 1_545
K4 O1 3.140799 1_655
K4 O1 3.142502 1_555
K5 O5 2.702050 1_565
K5 O15 2.708115 1_465
K5 O10 2.708390 1_565
K5 O13 2.776107 1_555
K5 O8 2.777229 1_455
K5 O7 2.783449 1_555
K5 O1 2.860554 1_565
K5 O0 3.141405 1_455
K5 O0 3.141572 1_555
K6 O6 2.702254 1_555
K6 O9 2.708307 1_555
K6 O12 2.708710 1_655
K6 O14 2.775534 1_555
K6 O11 2.777184 1_655
K6 O4 2.784027 1_555
K6 O2 2.860552 1_554
K6 O3 3.140979 1_555
K6 O3 3.142851 1_655
K7 O7 2.702742 1_555
K7 O13 2.708460 1_555
K7 O8 2.708835 1_455
K7 O10 2.775536 1_555
K7 O15 2.776175 1_455
K7 O5 2.783315 1_555
K7 O3 2.859951 1_556
K7 O2 3.141387 1_555
K7 O2 3.141945 1_455
Mn0 O0 1.639081 1_555
Mn0 O8 1.644049 1_555
Mn0 O13 1.644159 1_555
Mn0 O4 1.650390 1_555
Mn1 O1 1.639085 1_555
Mn1 O12 1.644042 1_555
Mn1 O9 1.644097 1_555
Mn1 O5 1.650451 1_555
Mn2 O2 1.639067 1_555
Mn2 O10 1.644206 1_555
Mn2 O15 1.644210 1_555
Mn2 O6 1.650461 1_556
Mn3 O3 1.639016 1_555
Mn3 O11 1.643993 1_555
Mn3 O14 1.644056 1_555
Mn3 O7 1.650368 1_554
