# generated using pymatgen
data_Na3LiWO5
_symmetry_space_group_name_H-M   'P 1'
_cell_length_a   5.71891300
_cell_length_b   6.10872061
_cell_length_c   7.67428693
_cell_angle_alpha   76.51347443
_cell_angle_beta   71.50331424
_cell_angle_gamma   73.42931467
_symmetry_Int_Tables_number   1
_chemical_formula_structural   Na3LiWO5
_chemical_formula_sum   'Na6 Li2 W2 O10'
_cell_volume   240.67041693
_cell_formula_units_Z   2
loop_
 _symmetry_equiv_pos_site_id
 _symmetry_equiv_pos_as_xyz
  1  'x, y, z'
loop_
 _atom_site_type_symbol
 _atom_site_label
 _atom_site_symmetry_multiplicity
 _atom_site_fract_x
 _atom_site_fract_y
 _atom_site_fract_z
 _atom_site_occupancy
  Na  Na0  1  0.70254200  0.04854400  0.59636900  1
  Na  Na1  1  0.32280800  0.44620100  0.38699300  1
  Na  Na2  1  0.51966900  0.74521900  0.98947800  1
  Na  Na3  1  0.67719200  0.55379900  0.61300700  1
  Na  Na4  1  0.29745800  0.95145600  0.40363100  1
  Na  Na5  1  0.48033100  0.25478100  0.01052200  1
  Li  Li0  1  0.88596200  0.35995300  0.15518100  1
  Li  Li1  1  0.11403800  0.64004700  0.84481900  1
  W  W0  1  0.10138300  0.15963000  0.79673100  1
  W  W1  1  0.89861700  0.84037000  0.20326900  1
  O  O0  1  0.01208700  0.22830700  0.57260000  1
  O  O1  1  0.84934200  0.94740500  0.92764300  1
  O  O2  1  0.84489900  0.42144000  0.89318500  1
  O  O3  1  0.64633700  0.66571800  0.27224100  1
  O  O4  1  0.98791300  0.77169300  0.42740000  1
  O  O5  1  0.35028300  0.87936600  0.72607600  1
  O  O6  1  0.64971700  0.12063400  0.27392400  1
  O  O7  1  0.15065800  0.05259500  0.07235700  1
  O  O8  1  0.15510100  0.57856000  0.10681500  1
  O  O9  1  0.35366300  0.33428200  0.72775900  1
loop_
_geom_bond_atom_site_label_1
_geom_bond_atom_site_label_2
_geom_bond_distance
_geom_bond_site_symmetry_2
Na0 O0 2.276725 1_655
Na0 O4 2.304542 1_545
Na0 O5 2.356395 1_545
Na0 O9 2.366915 1_555
Na0 O6 2.509717 1_555
Na0 O1 2.806339 1_545
Na1 O4 2.335892 1_455
Na1 O0 2.411866 1_555
Na1 O3 2.414050 1_555
Na1 O6 2.420393 1_555
Na1 O8 2.500419 1_555
Na1 O9 2.593749 1_555
Na2 O2 2.372514 1_555
Na2 O5 2.390205 1_555
Na2 O3 2.403064 1_556
Na2 O8 2.405446 1_556
Na2 O1 2.406753 1_555
Na2 O7 2.414315 1_566
Na3 O0 2.335892 1_655
Na3 O4 2.411866 1_555
Na3 O9 2.414050 1_555
Na3 O5 2.420393 1_555
Na3 O2 2.500419 1_555
Na3 O3 2.593749 1_555
Na4 O4 2.276725 1_455
Na4 O0 2.304542 1_565
Na4 O6 2.356395 1_565
Na4 O3 2.366915 1_555
Na4 O5 2.509717 1_555
Na4 O7 2.806339 1_565
Na5 O8 2.372514 1_555
Na5 O6 2.390205 1_555
Na5 O9 2.403064 1_554
Na5 O2 2.405446 1_554
Na5 O7 2.406753 1_555
Na5 O1 2.414315 1_544
Li0 O2 2.033690 1_554
Li0 O6 2.125344 1_555
Li0 O7 2.132070 1_655
Li0 O3 2.171480 1_555
Li0 O8 2.206557 1_655
Li1 O8 2.033690 1_556
Li1 O5 2.125344 1_555
Li1 O1 2.132070 1_455
Li1 O9 2.171480 1_555
Li1 O2 2.206557 1_455
O0 W0 1.869198 1_555
O1 W0 2.075385 1_665
O1 W1 2.146893 1_556
O2 W0 1.944856 1_655
O3 W1 1.905275 1_555
O4 W1 1.869198 1_555
O5 W0 1.950522 1_565
O6 W1 1.950522 1_545
O7 W1 2.075385 1_445
O7 W0 2.146893 1_554
O8 W1 1.944856 1_455
O9 W0 1.905275 1_555
