# generated using pymatgen
data_KV2CrO7
_symmetry_space_group_name_H-M   'P 1'
_cell_length_a   4.93412900
_cell_length_b   6.97864600
_cell_length_c   8.36943531
_cell_angle_alpha   78.28094268
_cell_angle_beta   90.00000000
_cell_angle_gamma   90.00000000
_symmetry_Int_Tables_number   1
_chemical_formula_structural   KV2CrO7
_chemical_formula_sum   'K2 V4 Cr2 O14'
_cell_volume   282.18206513
_cell_formula_units_Z   2
loop_
 _symmetry_equiv_pos_site_id
 _symmetry_equiv_pos_as_xyz
  1  'x, y, z'
loop_
 _atom_site_type_symbol
 _atom_site_label
 _atom_site_symmetry_multiplicity
 _atom_site_fract_x
 _atom_site_fract_y
 _atom_site_fract_z
 _atom_site_occupancy
  K  K0  1  0.39849900  0.25000000  0.50000000  1
  K  K1  1  0.60150100  0.75000000  0.50000000  1
  V  V0  1  0.00250400  0.12337600  0.17327400  1
  V  V1  1  0.99749600  0.87662400  0.82672600  1
  V  V2  1  0.99749600  0.62337600  0.17327400  1
  V  V3  1  0.00250400  0.37662400  0.82672600  1
  Cr  Cr0  1  0.50000000  0.50000000  0.00000000  1
  Cr  Cr1  1  0.50000000  0.00000000  0.00000000  1
  O  O0  1  0.32237000  0.01903300  0.20960400  1
  O  O1  1  0.12932300  0.88267900  0.64574800  1
  O  O2  1  0.15858800  0.11284600  0.88485800  1
  O  O3  1  0.12932300  0.61732100  0.35425200  1
  O  O4  1  0.87067700  0.11732100  0.35425200  1
  O  O5  1  0.67763000  0.51903300  0.20960400  1
  O  O6  1  0.84141200  0.88715400  0.11514200  1
  O  O7  1  0.15858800  0.38715400  0.11514200  1
  O  O8  1  0.28371200  0.75000000  0.00000000  1
  O  O9  1  0.71628800  0.25000000  0.00000000  1
  O  O10  1  0.32237000  0.48096700  0.79039600  1
  O  O11  1  0.67763000  0.98096700  0.79039600  1
  O  O12  1  0.87067700  0.38267900  0.64574800  1
  O  O13  1  0.84141200  0.61284600  0.88485800  1
loop_
_geom_bond_atom_site_label_1
_geom_bond_atom_site_label_2
_geom_bond_distance
_geom_bond_site_symmetry_2
K0 O12 2.869152 1_555
K0 O4 2.869152 1_555
K0 O3 2.924511 1_555
K0 O1 2.924511 1_545
K0 O5 3.078189 1_555
K0 O11 3.078189 1_545
K0 O4 3.096243 1_455
K0 O12 3.096243 1_455
K0 O10 3.199624 1_555
K0 O0 3.199624 1_555
K1 O3 2.869152 1_555
K1 O1 2.869152 1_555
K1 O12 2.924511 1_555
K1 O4 2.924511 1_565
K1 O10 3.078189 1_555
K1 O0 3.078189 1_565
K1 O3 3.096243 1_655
K1 O1 3.096243 1_655
K1 O11 3.199624 1_555
K1 O5 3.199624 1_555
Cr0 O5 1.989451 1_555
Cr0 O10 1.989451 1_554
Cr0 O7 2.019489 1_555
Cr0 O13 2.019489 1_554
Cr0 O8 2.045176 1_555
Cr0 O9 2.045176 1_555
Cr1 O11 1.989451 1_544
Cr1 O0 1.989451 1_555
Cr1 O2 2.019489 1_554
Cr1 O6 2.019489 1_545
Cr1 O9 2.045176 1_555
Cr1 O8 2.045176 1_545
O0 V0 1.738865 1_555
O1 V1 1.641079 1_455
O2 V3 1.963313 1_555
O2 V1 1.977852 1_445
O3 V2 1.641079 1_455
O4 V0 1.641079 1_655
O5 V2 1.738865 1_555
O6 V2 1.963313 1_555
O6 V0 1.977852 1_665
O7 V0 1.963313 1_555
O7 V2 1.977852 1_455
O8 V2 2.087526 1_455
O8 V1 2.087526 1_454
O9 V3 2.087526 1_654
O9 V0 2.087526 1_655
O10 V3 1.738865 1_555
O11 V1 1.738865 1_555
O12 V3 1.641079 1_655
O13 V1 1.963313 1_555
O13 V3 1.977852 1_655
