# generated using pymatgen
data_In3S4
_symmetry_space_group_name_H-M   'P 1'
_cell_length_a   7.81835415
_cell_length_b   7.81835415
_cell_length_c   7.81835415
_cell_angle_alpha   60.00000000
_cell_angle_beta   60.00000000
_cell_angle_gamma   60.00000000
_symmetry_Int_Tables_number   1
_chemical_formula_structural   In3S4
_chemical_formula_sum   'In6 S8'
_cell_volume   337.93332348
_cell_formula_units_Z   2
loop_
 _symmetry_equiv_pos_site_id
 _symmetry_equiv_pos_as_xyz
  1  'x, y, z'
loop_
 _atom_site_type_symbol
 _atom_site_label
 _atom_site_symmetry_multiplicity
 _atom_site_fract_x
 _atom_site_fract_y
 _atom_site_fract_z
 _atom_site_occupancy
  In  In0  1  0.75000000  0.75000000  0.75000000  1
  In  In1  1  0.62500000  0.12500000  0.12500000  1
  In  In2  1  0.12500000  0.12500000  0.62500000  1
  In  In3  1  0.12500000  0.12500000  0.12500000  1
  In  In4  1  0.50000000  0.50000000  0.50000000  1
  In  In5  1  0.12500000  0.62500000  0.12500000  1
  S  S0  1  0.90071485  0.36642805  0.36642805  1
  S  S1  1  0.36642805  0.90071485  0.36642805  1
  S  S2  1  0.36642805  0.36642805  0.36642805  1
  S  S3  1  0.88357195  0.88357195  0.34928515  1
  S  S4  1  0.36642805  0.36642805  0.90071485  1
  S  S5  1  0.88357195  0.34928515  0.88357195  1
  S  S6  1  0.88357195  0.88357195  0.88357195  1
  S  S7  1  0.34928515  0.88357195  0.88357195  1
loop_
_geom_bond_atom_site_label_1
_geom_bond_atom_site_label_2
_geom_bond_distance
_geom_bond_site_symmetry_2
In0 S3 2.558027 1_555
In0 S5 2.558027 1_555
In0 S7 2.558027 1_555
In0 S6 2.558034 1_555
In1 S2 2.672790 1_555
In1 S6 2.672790 1_544
In1 S1 2.672795 1_545
In1 S4 2.672795 1_554
In1 S3 2.672795 1_545
In1 S5 2.672795 1_554
In2 S2 2.672790 1_555
In2 S6 2.672790 1_445
In2 S0 2.672795 1_455
In2 S1 2.672795 1_545
In2 S5 2.672795 1_455
In2 S7 2.672795 1_545
In3 S7 2.672790 1_544
In3 S1 2.672790 1_545
In3 S0 2.672790 1_455
In3 S3 2.672790 1_445
In3 S4 2.672790 1_554
In3 S5 2.672790 1_454
In4 S4 2.558027 1_555
In4 S1 2.558027 1_555
In4 S0 2.558027 1_555
In4 S2 2.558034 1_555
In5 S2 2.672790 1_555
In5 S6 2.672790 1_454
In5 S0 2.672795 1_455
In5 S4 2.672795 1_554
In5 S3 2.672795 1_455
In5 S7 2.672795 1_554
