# generated using pymatgen
data_K2SN2O5
_symmetry_space_group_name_H-M   'P 1'
_cell_length_a   7.22897000
_cell_length_b   8.25687000
_cell_length_c   10.12716000
_cell_angle_alpha   90.00000000
_cell_angle_beta   90.00000000
_cell_angle_gamma   90.00000000
_symmetry_Int_Tables_number   1
_chemical_formula_structural   K2SN2O5
_chemical_formula_sum   'K8 S4 N8 O20'
_cell_volume   604.47666595
_cell_formula_units_Z   4
loop_
 _symmetry_equiv_pos_site_id
 _symmetry_equiv_pos_as_xyz
  1  'x, y, z'
loop_
 _atom_site_type_symbol
 _atom_site_label
 _atom_site_symmetry_multiplicity
 _atom_site_fract_x
 _atom_site_fract_y
 _atom_site_fract_z
 _atom_site_occupancy
  K  K0  1  0.55267600  0.99451100  0.31155000  1
  K  K1  1  0.05267600  0.50548900  0.18845000  1
  K  K2  1  0.44732400  0.49451100  0.68845000  1
  K  K3  1  0.94732400  0.49451100  0.81155000  1
  K  K4  1  0.44732400  0.00548900  0.68845000  1
  K  K5  1  0.05267600  0.99451100  0.18845000  1
  K  K6  1  0.94732400  0.00548900  0.81155000  1
  K  K7  1  0.55267600  0.50548900  0.31155000  1
  S  S0  1  0.14112800  0.75000000  0.50149700  1
  S  S1  1  0.35887200  0.25000000  0.00149700  1
  S  S2  1  0.85887200  0.25000000  0.49850300  1
  S  S3  1  0.64112800  0.75000000  0.99850300  1
  N  N0  1  0.71572800  0.25000000  0.06315200  1
  N  N1  1  0.78427200  0.75000000  0.56315200  1
  N  N2  1  0.21572800  0.25000000  0.43684800  1
  N  N3  1  0.60161500  0.25000000  0.96352900  1
  N  N4  1  0.89838500  0.75000000  0.46352900  1
  N  N5  1  0.28427200  0.75000000  0.93684800  1
  N  N6  1  0.10161500  0.25000000  0.53647100  1
  N  N7  1  0.39838500  0.75000000  0.03647100  1
  O  O0  1  0.29350600  0.10137700  0.93924500  1
  O  O1  1  0.14481100  0.25000000  0.66206300  1
  O  O2  1  0.84685300  0.25000000  0.35422300  1
  O  O3  1  0.79350600  0.10137700  0.56075500  1
  O  O4  1  0.65314700  0.75000000  0.85422300  1
  O  O5  1  0.64481100  0.25000000  0.83793700  1
  O  O6  1  0.15314700  0.75000000  0.64577700  1
  O  O7  1  0.38891500  0.25000000  0.47097000  1
  O  O8  1  0.34685300  0.25000000  0.14577700  1
  O  O9  1  0.70649400  0.60137700  0.06075500  1
  O  O10  1  0.20649400  0.60137700  0.43924500  1
  O  O11  1  0.79350600  0.39862300  0.56075500  1
  O  O12  1  0.88891500  0.25000000  0.02903000  1
  O  O13  1  0.61108500  0.75000000  0.52903000  1
  O  O14  1  0.20649400  0.89862300  0.43924500  1
  O  O15  1  0.35518900  0.75000000  0.16206300  1
  O  O16  1  0.70649400  0.89862300  0.06075500  1
  O  O17  1  0.11108500  0.75000000  0.97097000  1
  O  O18  1  0.85518900  0.75000000  0.33793700  1
  O  O19  1  0.29350600  0.39862300  0.93924500  1
loop_
_geom_bond_atom_site_label_1
_geom_bond_atom_site_label_2
_geom_bond_distance
_geom_bond_site_symmetry_2
K0 O16 2.883411 1_555
K0 O15 2.899291 1_555
K0 O7 2.908284 1_565
K0 O14 2.926069 1_555
K0 O18 2.988259 1_555
K0 O13 3.017454 1_555
K0 O2 3.026438 1_565
K0 O8 3.079346 1_565
K0 O3 3.190418 1_565
K1 O10 2.883411 1_555
K1 O18 2.899291 1_455
K1 O12 2.908284 1_455
K1 O9 2.926069 1_455
K1 O15 2.988259 1_555
K1 O17 3.017454 1_554
K1 O8 3.026438 1_555
K1 O2 3.079346 1_455
K1 O19 3.190418 1_554
K2 O19 2.883411 1_555
K2 O5 2.899291 1_555
K2 O13 2.908284 1_555
K2 O11 2.926069 1_555
K2 O1 2.988259 1_555
K2 O7 3.017454 1_555
K2 O6 3.026438 1_555
K2 O4 3.079346 1_555
K2 O10 3.190418 1_555
K3 O11 2.883411 1_555
K3 O1 2.899291 1_655
K3 O17 2.908284 1_655
K3 O19 2.926069 1_655
K3 O5 2.988259 1_555
K3 O12 3.017454 1_556
K3 O4 3.026438 1_555
K3 O6 3.079346 1_655
K3 O9 3.190418 1_556
K4 O0 2.883411 1_555
K4 O5 2.899291 1_555
K4 O13 2.908284 1_545
K4 O3 2.926069 1_555
K4 O1 2.988259 1_555
K4 O7 3.017454 1_555
K4 O6 3.026438 1_545
K4 O4 3.079346 1_545
K4 O14 3.190418 1_545
K5 O14 2.883411 1_555
K5 O18 2.899291 1_455
K5 O12 2.908284 1_465
K5 O16 2.926069 1_455
K5 O15 2.988259 1_555
K5 O17 3.017454 1_554
K5 O8 3.026438 1_565
K5 O2 3.079346 1_465
K5 O0 3.190418 1_564
K6 O3 2.883411 1_555
K6 O1 2.899291 1_655
K6 O17 2.908284 1_645
K6 O0 2.926069 1_655
K6 O5 2.988259 1_555
K6 O12 3.017454 1_556
K6 O4 3.026438 1_545
K6 O6 3.079346 1_645
K6 O16 3.190418 1_546
K7 O9 2.883411 1_555
K7 O15 2.899291 1_555
K7 O7 2.908284 1_555
K7 O10 2.926069 1_555
K7 O18 2.988259 1_555
K7 O13 3.017454 1_555
K7 O2 3.026438 1_555
K7 O8 3.079346 1_555
K7 O11 3.190418 1_555
N0 O12 1.298778 1_555
N0 N3 1.303214 1_554
N1 O13 1.298778 1_555
N1 N4 1.303214 1_555
N2 O7 1.298778 1_555
N2 N6 1.303214 1_555
N3 O5 1.309661 1_555
N3 S1 1.796415 1_556
N4 O18 1.309661 1_555
N4 S0 1.796415 1_655
N5 O17 1.298778 1_555
N5 N7 1.303214 1_556
N6 O1 1.309661 1_555
N6 S2 1.796415 1_455
N7 O15 1.309661 1_555
N7 S3 1.796415 1_554
O0 S1 1.458306 1_556
O2 S2 1.463728 1_555
O3 S2 1.458306 1_555
O4 S3 1.463728 1_555
O6 S0 1.463728 1_555
O8 S1 1.463728 1_555
O9 S3 1.458306 1_554
O10 S0 1.458306 1_555
O11 S2 1.458306 1_555
O14 S0 1.458306 1_555
O16 S3 1.458306 1_554
O19 S1 1.458306 1_556
