# generated using pymatgen
data_Rb2Y(NO3)5
_symmetry_space_group_name_H-M   'P 1'
_cell_length_a   11.48269065
_cell_length_b   11.48269065
_cell_length_c   9.61719600
_cell_angle_alpha   90.00000000
_cell_angle_beta   90.00000000
_cell_angle_gamma   120.00000377
_symmetry_Int_Tables_number   1
_chemical_formula_structural   Rb2Y(NO3)5
_chemical_formula_sum   'Rb6 Y3 N15 O45'
_cell_volume   1098.16200192
_cell_formula_units_Z   3
loop_
 _symmetry_equiv_pos_site_id
 _symmetry_equiv_pos_as_xyz
  1  'x, y, z'
loop_
 _atom_site_type_symbol
 _atom_site_label
 _atom_site_symmetry_multiplicity
 _atom_site_fract_x
 _atom_site_fract_y
 _atom_site_fract_z
 _atom_site_occupancy
  Rb  Rb0  1  0.72900700  0.00000000  0.33333300  1
  Rb  Rb1  1  0.00000000  0.53743500  0.16666700  1
  Rb  Rb2  1  0.00000000  0.72900700  0.66666700  1
  Rb  Rb3  1  0.46256500  0.46256500  0.50000000  1
  Rb  Rb4  1  0.27099300  0.27099300  0.00000000  1
  Rb  Rb5  1  0.53743500  0.00000000  0.83333300  1
  Y  Y0  1  0.67330400  0.67330400  0.00000000  1
  Y  Y1  1  0.32669600  0.00000000  0.33333300  1
  Y  Y2  1  0.00000000  0.32669600  0.66666700  1
  N  N0  1  0.42256900  0.67034600  0.06473100  1
  N  N1  1  0.24777700  0.57743100  0.73139800  1
  N  N2  1  0.74302900  0.64108600  0.28532500  1
  N  N3  1  0.25697100  0.89805700  0.04800800  1
  N  N4  1  0.35891400  0.10194300  0.61865800  1
  N  N5  1  0.75222300  0.32965400  0.60193600  1
  N  N6  1  0.32965400  0.75222300  0.39806400  1
  N  N7  1  0.57743100  0.24777700  0.26860200  1
  N  N8  1  0.92029200  0.92029200  0.00000000  1
  N  N9  1  0.00000000  0.07970800  0.66666700  1
  N  N10  1  0.10194300  0.35891400  0.38134200  1
  N  N11  1  0.07970800  0.00000000  0.33333300  1
  N  N12  1  0.89805700  0.25697100  0.95199200  1
  N  N13  1  0.64108600  0.74302900  0.71467500  1
  N  N14  1  0.67034600  0.42256900  0.93526900  1
  O  O0  1  0.99686200  0.36594500  0.41268600  1
  O  O1  1  0.33730100  0.65017900  0.42261400  1
  O  O2  1  0.75679400  0.22033600  0.59203800  1
  O  O3  1  0.66688500  0.82468700  0.81663300  1
  O  O4  1  0.22033600  0.75679400  0.40796200  1
  O  O5  1  0.63091700  0.63405500  0.25398100  1
  O  O6  1  0.17531300  0.84219800  0.14996600  1
  O  O7  1  0.81713700  0.90237700  0.07389400  1
  O  O8  1  0.33311500  0.15780200  0.51670100  1
  O  O9  1  0.24320600  0.46354200  0.74129500  1
  O  O10  1  0.14584300  0.37516700  0.26116000  1
  O  O11  1  0.34982100  0.68712100  0.75594700  1
  O  O12  1  0.13815400  0.57198400  0.69266200  1
  O  O13  1  0.68712100  0.34982100  0.24405300  1
  O  O14  1  0.08524000  0.18286300  0.74056100  1
  O  O15  1  0.18286300  0.08524000  0.25943900  1
  O  O16  1  0.42801600  0.56617000  0.02599500  1
  O  O17  1  0.84219800  0.17531300  0.85003400  1
  O  O18  1  0.22932400  0.85415700  0.92782700  1
  O  O19  1  0.57198400  0.13815400  0.30733800  1
  O  O20  1  0.97445600  0.00000000  0.33333300  1
  O  O21  1  0.00313800  0.36908300  0.92064800  1
  O  O22  1  0.15780200  0.33311500  0.48329900  1
  O  O23  1  0.86184600  0.43383000  0.64067200  1
  O  O24  1  0.66269900  0.31287900  0.91072000  1
  O  O25  1  0.00000000  0.97445600  0.66666700  1
  O  O26  1  0.77067600  0.62483300  0.40550600  1
  O  O27  1  0.63405500  0.63091700  0.74601900  1
  O  O28  1  0.91476000  0.09762300  0.59277300  1
  O  O29  1  0.82468700  0.66688500  0.18336700  1
  O  O30  1  0.56617000  0.42801600  0.97400500  1
  O  O31  1  0.36908300  0.00313800  0.07935200  1
  O  O32  1  0.37516700  0.14584300  0.73884000  1
  O  O33  1  0.53645800  0.77966400  0.07462800  1
  O  O34  1  0.62483300  0.77067600  0.59449400  1
  O  O35  1  0.02554400  0.02554400  0.00000000  1
  O  O36  1  0.85415700  0.22932400  0.07217300  1
  O  O37  1  0.09762300  0.91476000  0.40722700  1
  O  O38  1  0.31287900  0.66269900  0.08928000  1
  O  O39  1  0.46354200  0.24320600  0.25870500  1
  O  O40  1  0.36594500  0.99686200  0.58731400  1
  O  O41  1  0.77966400  0.53645800  0.92537200  1
  O  O42  1  0.65017900  0.33730100  0.57738600  1
  O  O43  1  0.90237700  0.81713700  0.92610600  1
  O  O44  1  0.43383000  0.86184600  0.35932800  1
loop_
_geom_bond_atom_site_label_1
_geom_bond_atom_site_label_2
_geom_bond_distance
_geom_bond_site_symmetry_2
N0 O38 1.240679 1_555
N0 O16 1.283922 1_555
N0 O33 1.285842 1_555
N1 O11 1.240684 1_555
N1 O12 1.283922 1_555
N1 O9 1.285842 1_555
N2 O26 1.237232 1_555
N2 O29 1.284780 1_555
N2 O5 1.284801 1_555
N3 O18 1.237232 1_554
N3 O6 1.284780 1_555
N3 O31 1.284801 1_565
N4 O32 1.237241 1_555
N4 O8 1.284773 1_555
N4 O40 1.284801 1_545
N5 O42 1.240692 1_555
N5 O23 1.283922 1_555
N5 O2 1.285843 1_555
N6 O1 1.240692 1_555
N6 O44 1.283922 1_555
N6 O4 1.285843 1_555
N7 O13 1.240684 1_555
N7 O19 1.283922 1_555
N7 O39 1.285842 1_555
N8 O35 1.208576 1_665
N8 O7 1.306412 1_555
N8 O43 1.306412 1_554
N9 O25 1.208576 1_545
N9 O14 1.306412 1_555
N9 O28 1.306412 1_455
N10 O10 1.237241 1_555
N10 O22 1.284773 1_555
N10 O0 1.284801 1_455
N11 O20 1.208576 1_455
N11 O15 1.306412 1_555
N11 O37 1.306412 1_545
N12 O36 1.237232 1_556
N12 O17 1.284780 1_555
N12 O21 1.284801 1_655
N13 O34 1.237232 1_555
N13 O3 1.284780 1_555
N13 O27 1.284801 1_555
N14 O24 1.240679 1_555
N14 O30 1.283922 1_555
N14 O41 1.285842 1_555
O0 Y2 2.487343 1_655
O0 Rb1 3.066917 1_655
O1 Rb3 3.219092 1_555
O2 Y2 2.528828 1_655
O2 Rb5 3.428993 1_555
O2 Rb0 3.447597 1_555
O3 Y0 2.503006 1_556
O3 Rb5 3.046309 1_565
O4 Y1 2.528828 1_565
O4 Rb1 3.428993 1_555
O4 Rb2 3.447597 1_555
O5 Y0 2.487343 1_555
O5 Rb3 3.066917 1_555
O6 Y1 2.503006 1_565
O6 Rb1 3.046310 1_555
O7 Y0 2.409844 1_555
O7 Rb0 3.104909 1_565
O8 Y1 2.503013 1_555
O8 Rb3 3.046310 1_555
O9 Y2 2.528825 1_555
O9 Rb3 3.428993 1_555
O9 Rb4 3.447597 1_556
O10 Rb1 3.197267 1_555
O10 Rb4 3.394599 1_555
O11 Rb5 3.219101 1_565
O12 Y2 2.458455 1_555
O12 Rb2 2.947947 1_555
O13 Rb1 3.219101 1_655
O14 Y2 2.409844 1_555
O14 Rb4 3.104909 1_556
O15 Y1 2.409844 1_555
O15 Rb4 3.104909 1_555
O16 Y0 2.458455 1_555
O16 Rb4 2.947947 1_555
O17 Y2 2.503006 1_655
O17 Rb5 3.046310 1_555
O18 Rb5 3.197269 1_565
O18 Rb2 3.394599 1_555
O19 Y1 2.458455 1_555
O19 Rb0 2.947947 1_555
O20 Rb0 2.818415 1_555
O21 Y2 2.487343 1_555
O21 Rb1 3.066917 1_556
O22 Y2 2.503013 1_555
O22 Rb3 3.046310 1_555
O23 Y2 2.458455 1_655
O23 Rb2 2.947947 1_655
O24 Rb5 3.219104 1_555
O25 Rb2 2.818415 1_555
O26 Rb3 3.197269 1_555
O26 Rb2 3.394606 1_655
O27 Y0 2.487343 1_556
O27 Rb3 3.066917 1_555
O28 Y2 2.409844 1_655
O28 Rb0 3.104917 1_555
O29 Y0 2.503006 1_555
O29 Rb1 3.046309 1_655
O30 Y0 2.458455 1_556
O30 Rb4 2.947947 1_556
O31 Y1 2.487343 1_555
O31 Rb5 3.066917 1_554
O32 Rb5 3.197267 1_555
O32 Rb4 3.394599 1_556
O33 Y0 2.528825 1_555
O33 Rb5 3.428993 1_564
O33 Rb0 3.447597 1_565
O34 Rb3 3.197269 1_555
O34 Rb0 3.394606 1_565
O35 Rb4 2.818415 1_555
O36 Rb1 3.197269 1_655
O36 Rb0 3.394599 1_555
O37 Y1 2.409844 1_565
O37 Rb2 3.104917 1_555
O38 Rb1 3.219104 1_555
O39 Y1 2.528825 1_555
O39 Rb3 3.428993 1_555
O39 Rb4 3.447597 1_555
O40 Y1 2.487343 1_565
O40 Rb5 3.066917 1_565
O41 Y0 2.528825 1_556
O41 Rb1 3.428993 1_656
O41 Rb2 3.447597 1_655
O42 Rb3 3.219092 1_555
O43 Y0 2.409844 1_556
O43 Rb2 3.104909 1_655
O44 Y1 2.458455 1_565
O44 Rb0 2.947947 1_565
