# generated using pymatgen
data_K2La6OsI12
_symmetry_space_group_name_H-M   'P 1'
_cell_length_a   19.64852100
_cell_length_b   10.06193200
_cell_length_c   10.09074869
_cell_angle_alpha   71.75812062
_cell_angle_beta   90.00000000
_cell_angle_gamma   90.00000000
_symmetry_Int_Tables_number   1
_chemical_formula_structural   K2La6OsI12
_chemical_formula_sum   'K4 La12 Os2 I24'
_cell_volume   1894.70222214
_cell_formula_units_Z   2
loop_
 _symmetry_equiv_pos_site_id
 _symmetry_equiv_pos_as_xyz
  1  'x, y, z'
loop_
 _atom_site_type_symbol
 _atom_site_label
 _atom_site_symmetry_multiplicity
 _atom_site_fract_x
 _atom_site_fract_y
 _atom_site_fract_z
 _atom_site_occupancy
  K  K0  1  0.30758400  0.91184700  0.42666300  1
  K  K1  1  0.80758400  0.58815300  0.57333700  1
  K  K2  1  0.69241600  0.08815300  0.57333700  1
  K  K3  1  0.19241600  0.41184700  0.42666300  1
  La  La0  1  0.45578500  0.76325600  0.00749300  1
  La  La1  1  0.64467800  0.59779400  0.97744300  1
  La  La2  1  0.54421500  0.23674400  0.99250700  1
  La  La3  1  0.98674100  0.90671600  0.29251000  1
  La  La4  1  0.51325900  0.40671600  0.29251000  1
  La  La5  1  0.85532200  0.09779400  0.97744300  1
  La  La6  1  0.04421500  0.26325600  0.00749300  1
  La  La7  1  0.14467800  0.90220600  0.02255700  1
  La  La8  1  0.95578500  0.73674400  0.99250700  1
  La  La9  1  0.01325900  0.09328400  0.70749000  1
  La  La10  1  0.48674100  0.59328400  0.70749000  1
  La  La11  1  0.35532200  0.40220600  0.02255700  1
  Os  Os0  1  0.50000000  0.50000000  0.00000000  1
  Os  Os1  1  0.00000000  0.00000000  0.00000000  1
  I  I0  1  0.06603900  0.40563100  0.67707100  1
  I  I1  1  0.20555400  0.18656100  0.08083000  1
  I  I2  1  0.17761500  0.01978900  0.69154800  1
  I  I3  1  0.70555400  0.31343900  0.91917000  1
  I  I4  1  0.43396100  0.90563100  0.67707100  1
  I  I5  1  0.53148100  0.29961500  0.65212700  1
  I  I6  1  0.46851900  0.70038500  0.34787300  1
  I  I7  1  0.10353600  0.58380200  0.02515300  1
  I  I8  1  0.56603900  0.09436900  0.32292900  1
  I  I9  1  0.85527800  0.21997900  0.63630200  1
  I  I10  1  0.35527800  0.28002100  0.36369800  1
  I  I11  1  0.67761500  0.48021100  0.30845200  1
  I  I12  1  0.60353600  0.91619800  0.97484700  1
  I  I13  1  0.03148100  0.20038500  0.34787300  1
  I  I14  1  0.79444600  0.81343900  0.91917000  1
  I  I15  1  0.29444600  0.68656100  0.08083000  1
  I  I16  1  0.89646400  0.41619800  0.97484700  1
  I  I17  1  0.39646400  0.08380200  0.02515300  1
  I  I18  1  0.93396100  0.59436900  0.32292900  1
  I  I19  1  0.64472200  0.71997900  0.63630200  1
  I  I20  1  0.14472200  0.78002100  0.36369800  1
  I  I21  1  0.82238500  0.98021100  0.30845200  1
  I  I22  1  0.96851900  0.79961500  0.65212700  1
  I  I23  1  0.32238500  0.51978900  0.69154800  1
loop_
_geom_bond_atom_site_label_1
_geom_bond_atom_site_label_2
_geom_bond_distance
_geom_bond_site_symmetry_2
La0 Os0 2.811108 1_555
La1 Os0 2.993465 1_556
La2 Os0 2.811108 1_556
La3 Os1 2.815423 1_665
La4 Os0 2.815423 1_555
La5 Os1 2.993465 1_656
La6 Os1 2.811108 1_555
La7 Os1 2.993465 1_565
La8 Os1 2.811108 1_666
La9 Os1 2.815423 1_556
La10 Os0 2.815423 1_556
La11 Os0 2.993465 1_555
I0 La6 3.219115 1_556
I0 La9 3.231566 1_555
I0 K3 3.529249 1_555
I1 La6 3.291655 1_555
I1 La7 3.319037 1_545
I1 La11 3.593695 1_555
I2 La7 3.240526 1_546
I2 La9 3.328053 1_555
I2 K3 4.023626 1_555
I2 K0 4.082010 1_545
I3 La2 3.291655 1_555
I3 La1 3.319037 1_555
I3 La5 3.593695 1_555
I4 La0 3.219115 1_556
I4 La10 3.231566 1_555
I4 K0 3.529249 1_555
I5 La10 3.293879 1_555
I5 La2 3.301451 1_555
I5 La4 3.465471 1_555
I5 K2 4.027089 1_555
I6 La4 3.293879 1_555
I6 La0 3.301451 1_555
I6 La10 3.465471 1_555
I6 K0 4.027089 1_555
I7 La8 3.253806 1_454
I7 La7 3.296316 1_555
I7 La6 3.486084 1_555
I8 La2 3.219115 1_554
I8 La4 3.231566 1_555
I8 K2 3.529249 1_555
I9 La5 3.272892 1_555
I9 La9 3.347119 1_655
I9 K2 3.595927 1_555
I9 K1 3.678577 1_555
I10 La11 3.272892 1_555
I10 La4 3.347119 1_555
I10 K3 3.595927 1_555
I10 K0 3.678577 1_545
I11 La1 3.240526 1_554
I11 La4 3.328053 1_555
I11 K2 4.023626 1_555
I11 K1 4.082010 1_555
I12 La0 3.253806 1_556
I12 La1 3.296316 1_555
I12 La2 3.486084 1_565
I13 La3 3.293879 1_445
I13 La6 3.301451 1_555
I13 La9 3.465471 1_555
I13 K3 4.027089 1_555
I14 La8 3.291655 1_555
I14 La5 3.319037 1_565
I14 La1 3.593695 1_555
I15 La0 3.291655 1_555
I15 La11 3.319037 1_555
I15 La7 3.593695 1_555
I16 La6 3.253806 1_656
I16 La5 3.296316 1_555
I16 La8 3.486084 1_555
I17 La2 3.253806 1_554
I17 La11 3.296316 1_555
I17 La0 3.486084 1_545
I18 La8 3.219115 1_554
I18 La3 3.231566 1_555
I18 K1 3.529249 1_555
I19 La1 3.272892 1_555
I19 La10 3.347119 1_555
I19 K1 3.595927 1_555
I19 K2 3.678577 1_565
I20 La7 3.272892 1_555
I20 La3 3.347119 1_455
I20 K0 3.595927 1_555
I20 K3 3.678577 1_555
I21 La5 3.240526 1_564
I21 La3 3.328053 1_555
I21 K1 4.023626 1_555
I21 K2 4.082010 1_565
I22 La9 3.293879 1_665
I22 La8 3.301451 1_555
I22 La3 3.465471 1_555
I22 K1 4.027089 1_555
I23 La11 3.240526 1_556
I23 La10 3.328053 1_555
I23 K0 4.023626 1_555
I23 K3 4.082010 1_555
