# generated using pymatgen
data_Na3VS3O
_symmetry_space_group_name_H-M   'P 1'
_cell_length_a   5.98567300
_cell_length_b   9.74948600
_cell_length_c   12.01236100
_cell_angle_alpha   90.00000000
_cell_angle_beta   90.00000000
_cell_angle_gamma   90.00000000
_symmetry_Int_Tables_number   1
_chemical_formula_structural   Na3VS3O
_chemical_formula_sum   'Na12 V4 S12 O4'
_cell_volume   701.00817515
_cell_formula_units_Z   4
loop_
 _symmetry_equiv_pos_site_id
 _symmetry_equiv_pos_as_xyz
  1  'x, y, z'
loop_
 _atom_site_type_symbol
 _atom_site_label
 _atom_site_symmetry_multiplicity
 _atom_site_fract_x
 _atom_site_fract_y
 _atom_site_fract_z
 _atom_site_occupancy
  Na  Na0  1  0.25028800  0.45542700  0.12994000  1
  Na  Na1  1  0.23889100  0.75000000  0.36827000  1
  Na  Na2  1  0.24971200  0.95542700  0.62994000  1
  Na  Na3  1  0.75028800  0.04457300  0.37006000  1
  Na  Na4  1  0.26110900  0.25000000  0.86827000  1
  Na  Na5  1  0.25028800  0.04457300  0.12994000  1
  Na  Na6  1  0.24971200  0.54457300  0.62994000  1
  Na  Na7  1  0.73889100  0.75000000  0.13173000  1
  Na  Na8  1  0.75028800  0.45542700  0.37006000  1
  Na  Na9  1  0.74971200  0.95542700  0.87006000  1
  Na  Na10  1  0.76110900  0.25000000  0.63173000  1
  Na  Na11  1  0.74971200  0.54457300  0.87006000  1
  V  V0  1  0.34299000  0.25000000  0.45306100  1
  V  V1  1  0.15701000  0.75000000  0.95306100  1
  V  V2  1  0.65701000  0.75000000  0.54693900  1
  V  V3  1  0.84299000  0.25000000  0.04693900  1
  S  S0  1  0.25427600  0.75000000  0.13071700  1
  S  S1  1  0.22832800  0.06069400  0.37362200  1
  S  S2  1  0.24572400  0.25000000  0.63071800  1
  S  S3  1  0.22832800  0.43930600  0.37362200  1
  S  S4  1  0.74572400  0.25000000  0.86928200  1
  S  S5  1  0.72832800  0.43930600  0.12637800  1
  S  S6  1  0.77167200  0.56069400  0.62637800  1
  S  S7  1  0.72832800  0.06069400  0.12637800  1
  S  S8  1  0.77167200  0.93930600  0.62637800  1
  S  S9  1  0.27167200  0.93930600  0.87362200  1
  S  S10  1  0.27167200  0.56069400  0.87362200  1
  S  S11  1  0.75427600  0.75000000  0.36928300  1
  O  O0  1  0.62658100  0.25000000  0.44851000  1
  O  O1  1  0.37341900  0.75000000  0.55149000  1
  O  O2  1  0.87341900  0.75000000  0.94851000  1
  O  O3  1  0.12658100  0.25000000  0.05149000  1
loop_
_geom_bond_atom_site_label_1
_geom_bond_atom_site_label_2
_geom_bond_distance
_geom_bond_site_symmetry_2
Na0 O3 2.334008 1_555
Na0 S5 2.866024 1_555
Na0 S0 2.872050 1_555
Na0 S3 2.934358 1_555
Na0 S5 3.128525 1_455
Na0 S10 3.248048 1_554
Na1 O1 2.343586 1_555
Na1 S0 2.855058 1_555
Na1 S11 2.900772 1_455
Na1 S1 3.030449 1_565
Na1 S3 3.030449 1_555
Na1 S11 3.084950 1_555
Na2 O1 2.334008 1_555
Na2 S8 2.866024 1_455
Na2 S2 2.872050 1_565
Na2 S9 2.934358 1_555
Na2 S8 3.128525 1_555
Na2 S1 3.248048 1_565
Na3 O0 2.334008 1_555
Na3 S1 2.866024 1_655
Na3 S11 2.872050 1_545
Na3 S7 2.934358 1_555
Na3 S1 3.128525 1_555
Na3 S8 3.248048 1_545
Na4 O3 2.343586 1_556
Na4 S2 2.855046 1_555
Na4 S4 2.900772 1_555
Na4 S9 3.030449 1_545
Na4 S10 3.030449 1_555
Na4 S4 3.084950 1_455
Na5 O3 2.334008 1_555
Na5 S7 2.866024 1_555
Na5 S0 2.872050 1_545
Na5 S1 2.934358 1_555
Na5 S7 3.128525 1_455
Na5 S9 3.248048 1_544
Na6 O1 2.334008 1_555
Na6 S6 2.866024 1_455
Na6 S2 2.872050 1_555
Na6 S10 2.934358 1_555
Na6 S6 3.128525 1_555
Na6 S3 3.248048 1_555
Na7 O2 2.343586 1_554
Na7 S11 2.855058 1_555
Na7 S0 2.900772 1_555
Na7 S7 3.030449 1_565
Na7 S5 3.030449 1_555
Na7 S0 3.084950 1_655
Na8 O0 2.334008 1_555
Na8 S3 2.866024 1_655
Na8 S11 2.872050 1_555
Na8 S5 2.934358 1_555
Na8 S3 3.128525 1_555
Na8 S6 3.248048 1_555
Na9 O2 2.334008 1_555
Na9 S9 2.866024 1_555
Na9 S4 2.872050 1_565
Na9 S8 2.934358 1_555
Na9 S9 3.128525 1_655
Na9 S7 3.248048 1_566
Na10 O0 2.343586 1_555
Na10 S4 2.855046 1_555
Na10 S2 2.900772 1_655
Na10 S6 3.030449 1_555
Na10 S8 3.030449 1_545
Na10 S2 3.084950 1_555
Na11 O2 2.334008 1_555
Na11 S10 2.866024 1_555
Na11 S4 2.872050 1_555
Na11 S6 2.934358 1_555
Na11 S10 3.128525 1_655
Na11 S5 3.248048 1_556
S0 V1 2.212059 1_554
S1 V0 2.188153 1_555
S2 V0 2.212071 1_555
S3 V0 2.188153 1_555
S4 V3 2.212071 1_556
S5 V3 2.188153 1_555
S6 V2 2.188153 1_555
S7 V3 2.188153 1_555
S8 V2 2.188153 1_555
S9 V1 2.188153 1_555
S10 V1 2.188153 1_555
S11 V2 2.212059 1_555
O0 V0 1.698363 1_555
O1 V2 1.698363 1_555
O2 V1 1.698363 1_655
O3 V3 1.698363 1_455
