# generated using pymatgen
data_Ti4MnBi2
_symmetry_space_group_name_H-M   'P 1'
_cell_length_a   5.03929640
_cell_length_b   7.88478839
_cell_length_c   7.88532174
_cell_angle_alpha   84.13909300
_cell_angle_beta   71.36509817
_cell_angle_gamma   71.36379341
_symmetry_Int_Tables_number   1
_chemical_formula_structural   Ti4MnBi2
_chemical_formula_sum   'Ti8 Mn2 Bi4'
_cell_volume   281.32105968
_cell_formula_units_Z   2
loop_
 _symmetry_equiv_pos_site_id
 _symmetry_equiv_pos_as_xyz
  1  'x, y, z'
loop_
 _atom_site_type_symbol
 _atom_site_label
 _atom_site_symmetry_multiplicity
 _atom_site_fract_x
 _atom_site_fract_y
 _atom_site_fract_z
 _atom_site_occupancy
  Ti  Ti0  1  0.69651035  0.88587072  0.72110657  1
  Ti  Ti1  1  0.30348965  0.11412928  0.27889343  1
  Ti  Ti2  1  0.58234149  0.72111303  0.11420200  1
  Ti  Ti3  1  0.08236426  0.11418430  0.72108718  1
  Ti  Ti4  1  0.80349218  0.27885601  0.11415863  1
  Ti  Ti5  1  0.41765851  0.27888697  0.88579800  1
  Ti  Ti6  1  0.91763574  0.88581570  0.27891282  1
  Ti  Ti7  1  0.19650782  0.72114399  0.88584137  1
  Mn  Mn0  1  0.25000686  1.00000000  1.00000000  1
  Mn  Mn1  1  0.74999314  0.00000000  0.00000000  1
  Bi  Bi0  1  0.14063662  0.49997698  0.21875078  1
  Bi  Bi1  1  0.35942779  0.78112762  0.50001680  1
  Bi  Bi2  1  0.85936338  0.50002302  0.78124922  1
  Bi  Bi3  1  0.64057221  0.21887238  0.49998320  1
loop_
_geom_bond_atom_site_label_1
_geom_bond_atom_site_label_2
_geom_bond_distance
_geom_bond_site_symmetry_2
Mn0 Mn1 2.519579 1_566
Mn0 Mn1 2.519717 1_466
Mn0 Ti7 2.579832 1_555
Mn0 Ti4 2.579834 1_466
Mn0 Ti0 2.580056 1_555
Mn0 Ti1 2.580061 1_566
Mn0 Ti2 2.580086 1_556
Mn0 Ti5 2.580091 1_565
Mn0 Ti6 2.580340 1_456
Mn0 Ti3 2.580340 1_565
Mn1 Ti4 2.579832 1_555
Mn1 Ti7 2.579834 1_644
Mn1 Ti1 2.580056 1_555
Mn1 Ti0 2.580061 1_544
Mn1 Ti5 2.580086 1_554
Mn1 Ti2 2.580091 1_545
Mn1 Ti3 2.580340 1_654
Mn1 Ti6 2.580340 1_545
Bi0 Ti6 2.917581 1_455
Bi0 Ti1 2.917622 1_555
Bi0 Ti5 2.986262 1_554
Bi0 Ti7 2.986300 1_554
Bi0 Ti2 3.112643 1_555
Bi0 Ti2 3.112655 1_455
Bi0 Ti4 3.112670 1_555
Bi0 Ti4 3.112678 1_455
Bi1 Ti2 2.917444 1_555
Bi1 Ti7 2.917478 1_555
Bi1 Ti1 2.986606 1_565
Bi1 Ti3 2.986740 1_565
Bi1 Ti6 3.112835 1_555
Bi1 Ti6 3.112835 1_455
Bi1 Ti0 3.112881 1_555
Bi1 Ti0 3.112889 1_455
Bi2 Ti3 2.917581 1_655
Bi2 Ti0 2.917622 1_555
Bi2 Ti2 2.986262 1_556
Bi2 Ti4 2.986300 1_556
Bi2 Ti5 3.112643 1_555
Bi2 Ti5 3.112655 1_655
Bi2 Ti7 3.112670 1_555
Bi2 Ti7 3.112678 1_655
Bi3 Ti5 2.917444 1_555
Bi3 Ti4 2.917478 1_555
Bi3 Ti0 2.986606 1_545
Bi3 Ti6 2.986740 1_545
Bi3 Ti3 3.112835 1_555
Bi3 Ti3 3.112835 1_655
Bi3 Ti1 3.112881 1_555
Bi3 Ti1 3.112889 1_655
