# generated using pymatgen
data_AgHg2AsO4
_symmetry_space_group_name_H-M   'P 1'
_cell_length_a   6.32699589
_cell_length_b   8.78694199
_cell_length_c   9.63926057
_cell_angle_alpha   90.00000000
_cell_angle_beta   90.00000000
_cell_angle_gamma   90.00000000
_symmetry_Int_Tables_number   1
_chemical_formula_structural   AgHg2AsO4
_chemical_formula_sum   'Ag4 Hg8 As4 O16'
_cell_volume   535.89416948
_cell_formula_units_Z   4
loop_
 _symmetry_equiv_pos_site_id
 _symmetry_equiv_pos_as_xyz
  1  'x, y, z'
loop_
 _atom_site_type_symbol
 _atom_site_label
 _atom_site_symmetry_multiplicity
 _atom_site_fract_x
 _atom_site_fract_y
 _atom_site_fract_z
 _atom_site_occupancy
  Ag  Ag0  1  0.50000000  0.03022092  0.85498490  1
  Ag  Ag1  1  0.50000000  0.46977908  0.35498490  1
  Ag  Ag2  1  0.50000000  0.53022092  0.64501510  1
  Ag  Ag3  1  0.50000000  0.96977908  0.14501510  1
  Hg  Hg0  1  0.29006345  0.74108482  0.46913879  1
  Hg  Hg1  1  0.70993655  0.25891518  0.53086121  1
  Hg  Hg2  1  0.29006345  0.24108482  0.03086121  1
  Hg  Hg3  1  0.29006345  0.25891518  0.53086121  1
  Hg  Hg4  1  0.70993655  0.24108482  0.03086121  1
  Hg  Hg5  1  0.70993655  0.75891518  0.96913879  1
  Hg  Hg6  1  0.29006345  0.75891518  0.96913879  1
  Hg  Hg7  1  0.70993655  0.74108482  0.46913879  1
  As  As0  1  -0.00000000  0.96354707  0.71278278  1
  As  As1  1  -0.00000000  0.46354707  0.78721722  1
  As  As2  1  -0.00000000  0.03645293  0.28721722  1
  As  As3  1  -0.00000000  0.53645293  0.21278378  1
  O  O0  1  -0.00000000  0.67325825  0.08560729  1
  O  O1  1  0.23018965  0.43829674  0.19697611  1
  O  O2  1  -0.00000000  0.88194777  0.87294113  1
  O  O3  1  -0.00000000  0.38194777  0.62705887  1
  O  O4  1  -0.00000000  0.32674175  0.91439271  1
  O  O5  1  0.23018965  0.56170326  0.80302389  1
  O  O6  1  -0.00000000  0.11805223  0.12705887  1
  O  O7  1  0.23018965  0.93829674  0.30302389  1
  O  O8  1  -0.00000000  0.61805223  0.37294113  1
  O  O9  1  0.23018965  0.06170326  0.69697611  1
  O  O10  1  0.76981035  0.06170326  0.69697611  1
  O  O11  1  -0.00000000  0.17325825  0.41439271  1
  O  O12  1  0.76981035  0.43829674  0.19697611  1
  O  O13  1  -0.00000000  0.82674175  0.58560729  1
  O  O14  1  0.76981035  0.56170326  0.80302389  1
  O  O15  1  0.76981035  0.93829674  0.30302389  1
loop_
_geom_bond_atom_site_label_1
_geom_bond_atom_site_label_2
_geom_bond_distance
_geom_bond_site_symmetry_2
Ag0 O9 2.304447 1_555
Ag0 O10 2.304447 1_555
Ag1 O12 2.304447 1_555
Ag1 O1 2.304447 1_555
Ag2 O14 2.304447 1_555
Ag2 O5 2.304447 1_555
Ag3 O15 2.304447 1_555
Ag3 O7 2.304447 1_555
Hg0 O13 2.279245 1_555
Hg0 O8 2.323067 1_555
Hg0 O7 2.389630 1_555
Hg1 O11 2.279245 1_655
Hg1 O3 2.323067 1_655
Hg1 O10 2.389630 1_555
Hg2 O4 2.279245 1_554
Hg2 O6 2.323067 1_555
Hg2 O1 2.389630 1_555
Hg3 O11 2.279245 1_555
Hg3 O3 2.323067 1_555
Hg3 O9 2.389630 1_555
Hg4 O4 2.279245 1_654
Hg4 O6 2.323067 1_655
Hg4 O12 2.389630 1_555
Hg5 O0 2.279245 1_656
Hg5 O2 2.323067 1_655
Hg5 O14 2.389630 1_555
Hg6 O0 2.279245 1_556
Hg6 O2 2.323067 1_555
Hg6 O5 2.389630 1_555
Hg7 O13 2.279245 1_655
Hg7 O8 2.323067 1_655
Hg7 O15 2.389630 1_555
As0 O9 1.699481 1_565
As0 O10 1.699481 1_465
As0 O2 1.702188 1_555
As0 O13 1.716922 1_555
As1 O5 1.699481 1_555
As1 O14 1.699481 1_455
As1 O3 1.702188 1_555
As1 O4 1.716922 1_555
As2 O7 1.699481 1_545
As2 O15 1.699481 1_445
As2 O6 1.702188 1_555
As2 O11 1.716922 1_555
As3 O1 1.699482 1_555
As3 O12 1.699482 1_455
As3 O8 1.702179 1_555
As3 O0 1.716929 1_555
