# generated using pymatgen
data_Ba2ReO5
_symmetry_space_group_name_H-M   'P 1'
_cell_length_a   5.72199782
_cell_length_b   7.37515435
_cell_length_c   11.63040178
_cell_angle_alpha   90.00000000
_cell_angle_beta   90.00000000
_cell_angle_gamma   90.00000000
_symmetry_Int_Tables_number   1
_chemical_formula_structural   Ba2ReO5
_chemical_formula_sum   'Ba8 Re4 O20'
_cell_volume   490.81013239
_cell_formula_units_Z   4
loop_
 _symmetry_equiv_pos_site_id
 _symmetry_equiv_pos_as_xyz
  1  'x, y, z'
loop_
 _atom_site_type_symbol
 _atom_site_label
 _atom_site_symmetry_multiplicity
 _atom_site_fract_x
 _atom_site_fract_y
 _atom_site_fract_z
 _atom_site_occupancy
  Ba  Ba0  1  0.75000000  0.47672437  0.28484804  1
  Ba  Ba1  1  0.25000000  0.52327563  0.71515196  1
  Ba  Ba2  1  0.75000000  0.97672437  0.21515196  1
  Ba  Ba3  1  0.25000000  0.02327563  0.78484804  1
  Ba  Ba4  1  0.75000000  0.16466903  0.58116489  1
  Ba  Ba5  1  0.25000000  0.83533097  0.41883511  1
  Ba  Ba6  1  0.75000000  0.66466903  0.91883511  1
  Ba  Ba7  1  0.25000000  0.33533097  0.08116489  1
  Re  Re0  1  0.75000000  0.16934319  0.93660560  1
  Re  Re1  1  0.25000000  0.83065681  0.06339440  1
  Re  Re2  1  0.75000000  0.66934319  0.56339440  1
  Re  Re3  1  0.25000000  0.33065681  0.43660560  1
  O  O0  1  0.48715755  0.17626251  0.38373318  1
  O  O1  1  0.98715755  0.82373749  0.61626682  1
  O  O2  1  0.01284245  0.67626251  0.11626682  1
  O  O3  1  0.51284245  0.32373749  0.88373318  1
  O  O4  1  0.51284245  0.82373749  0.61626682  1
  O  O5  1  0.01284245  0.17626251  0.38373318  1
  O  O6  1  0.98715755  0.32373749  0.88373318  1
  O  O7  1  0.48715755  0.67626251  0.11626682  1
  O  O8  1  0.50000000  0.50000000  0.50000000  1
  O  O9  1  0.00000000  0.50000000  0.50000000  1
  O  O10  1  0.00000000  -0.00000000  -0.00000000  1
  O  O11  1  0.50000000  -0.00000000  -0.00000000  1
  O  O12  1  0.75000000  0.27746078  0.08912719  1
  O  O13  1  0.25000000  0.72253922  0.91087281  1
  O  O14  1  0.75000000  0.77746078  0.41087281  1
  O  O15  1  0.25000000  0.22253922  0.58912719  1
  O  O16  1  0.75000000  0.01859730  0.80822282  1
  O  O17  1  0.25000000  0.98140270  0.19177718  1
  O  O18  1  0.75000000  0.51859730  0.69177718  1
  O  O19  1  0.25000000  0.48140270  0.30822282  1
loop_
_geom_bond_atom_site_label_1
_geom_bond_atom_site_label_2
_geom_bond_distance
_geom_bond_site_symmetry_2
Ba0 O14 2.658525 1_555
Ba0 O12 2.709487 1_555
Ba0 O19 2.874093 1_555
Ba0 O19 2.874093 1_655
Ba0 O2 2.876085 1_655
Ba0 O7 2.876085 1_555
Ba0 O8 2.887442 1_555
Ba0 O9 2.887442 1_655
Ba0 O5 2.914633 1_655
Ba0 O0 2.914633 1_555
Ba1 O15 2.658525 1_555
Ba1 O13 2.709487 1_555
Ba1 O18 2.874093 1_555
Ba1 O18 2.874093 1_455
Ba1 O6 2.876085 1_455
Ba1 O3 2.876085 1_555
Ba1 O8 2.887442 1_555
Ba1 O9 2.887442 1_555
Ba1 O1 2.914633 1_455
Ba1 O4 2.914633 1_555
Ba2 O12 2.658525 1_565
Ba2 O14 2.709487 1_555
Ba2 O17 2.874093 1_555
Ba2 O17 2.874093 1_655
Ba2 O5 2.876085 1_665
Ba2 O0 2.876085 1_565
Ba2 O10 2.887442 1_665
Ba2 O11 2.887442 1_565
Ba2 O2 2.914633 1_655
Ba2 O7 2.914633 1_555
Ba3 O13 2.658525 1_545
Ba3 O15 2.709487 1_555
Ba3 O16 2.874093 1_555
Ba3 O16 2.874093 1_455
Ba3 O1 2.876085 1_445
Ba3 O4 2.876085 1_545
Ba3 O11 2.887442 1_556
Ba3 O10 2.887442 1_556
Ba3 O6 2.914633 1_455
Ba3 O3 2.914633 1_555
Ba4 O5 2.746245 1_655
Ba4 O0 2.746245 1_555
Ba4 O16 2.852064 1_555
Ba4 O4 2.886257 1_545
Ba4 O1 2.886257 1_545
Ba4 O15 2.894141 1_555
Ba4 O15 2.894141 1_655
Ba4 O18 2.910074 1_555
Ba4 O8 3.008943 1_555
Ba4 O9 3.008943 1_655
Ba5 O1 2.746245 1_455
Ba5 O4 2.746245 1_555
Ba5 O17 2.852064 1_555
Ba5 O0 2.886257 1_565
Ba5 O5 2.886257 1_565
Ba5 O14 2.894141 1_455
Ba5 O14 2.894141 1_555
Ba5 O19 2.910074 1_555
Ba5 O8 3.008943 1_555
Ba5 O9 3.008943 1_555
Ba6 O2 2.746245 1_656
Ba6 O7 2.746245 1_556
Ba6 O18 2.852064 1_555
Ba6 O6 2.886257 1_555
Ba6 O3 2.886257 1_555
Ba6 O13 2.894141 1_655
Ba6 O13 2.894141 1_555
Ba6 O16 2.910074 1_565
Ba6 O11 3.008943 1_566
Ba6 O10 3.008943 1_666
Ba7 O6 2.746245 1_454
Ba7 O3 2.746245 1_554
Ba7 O19 2.852064 1_555
Ba7 O2 2.886257 1_555
Ba7 O7 2.886257 1_555
Ba7 O12 2.894141 1_455
Ba7 O12 2.894141 1_555
Ba7 O17 2.910074 1_545
Ba7 O10 3.008943 1_555
Ba7 O11 3.008943 1_555
O0 Re3 1.875159 1_555
O1 Re2 1.875159 1_555
O2 Re1 1.875159 1_555
O3 Re0 1.875159 1_555
O4 Re2 1.875159 1_555
O5 Re3 1.875159 1_555
O6 Re0 1.875159 1_555
O7 Re1 1.875159 1_555
O8 Re3 2.037100 1_555
O8 Re2 2.037100 1_555
O9 Re3 2.037100 1_555
O9 Re2 2.037100 1_455
O10 Re1 2.037100 1_545
O10 Re0 2.037100 1_454
O11 Re1 2.037100 1_545
O11 Re0 2.037100 1_554
O12 Re0 1.944864 1_554
O13 Re1 1.944864 1_556
O14 Re2 1.944864 1_555
O15 Re3 1.944864 1_555
O16 Re0 1.861590 1_555
O17 Re1 1.861590 1_555
O18 Re2 1.861590 1_555
O19 Re3 1.861590 1_555
