# generated using pymatgen
data_Si2Pd9
_symmetry_space_group_name_H-M   'P 1'
_cell_length_a   7.46804512
_cell_length_b   9.08311357
_cell_length_c   9.47092013
_cell_angle_alpha   90.00000000
_cell_angle_beta   90.00000000
_cell_angle_gamma   90.00000000
_symmetry_Int_Tables_number   1
_chemical_formula_structural   Si2Pd9
_chemical_formula_sum   'Si8 Pd36'
_cell_volume   642.44189094
_cell_formula_units_Z   4
loop_
 _symmetry_equiv_pos_site_id
 _symmetry_equiv_pos_as_xyz
  1  'x, y, z'
loop_
 _atom_site_type_symbol
 _atom_site_label
 _atom_site_symmetry_multiplicity
 _atom_site_fract_x
 _atom_site_fract_y
 _atom_site_fract_z
 _atom_site_occupancy
  Si  Si0  1  0.75000000  0.63050414  0.78884603  1
  Si  Si1  1  0.25000000  0.36949586  0.21115397  1
  Si  Si2  1  0.75000000  0.13050414  0.71115397  1
  Si  Si3  1  0.25000000  0.86949586  0.28884603  1
  Si  Si4  1  0.75000000  0.77331402  0.17878345  1
  Si  Si5  1  0.25000000  0.22668598  0.82121655  1
  Si  Si6  1  0.75000000  0.27331402  0.32121655  1
  Si  Si7  1  0.25000000  0.72668598  0.67878345  1
  Pd  Pd0  1  0.93398706  0.89823168  0.68115797  1
  Pd  Pd1  1  0.43398706  0.10176832  0.31884203  1
  Pd  Pd2  1  0.56601294  0.39823168  0.81884203  1
  Pd  Pd3  1  0.06601294  0.60176832  0.18115797  1
  Pd  Pd4  1  0.06601294  0.10176832  0.31884203  1
  Pd  Pd5  1  0.56601294  0.89823168  0.68115797  1
  Pd  Pd6  1  0.43398706  0.60176832  0.18115797  1
  Pd  Pd7  1  0.93398706  0.39823168  0.81884203  1
  Pd  Pd8  1  0.94310194  0.61237623  0.59436840  1
  Pd  Pd9  1  0.44310194  0.38762377  0.40563160  1
  Pd  Pd10  1  0.55689806  0.11237623  0.90563160  1
  Pd  Pd11  1  0.05689806  0.88762377  0.09436840  1
  Pd  Pd12  1  0.05689806  0.38762377  0.40563160  1
  Pd  Pd13  1  0.55689806  0.61237623  0.59436840  1
  Pd  Pd14  1  0.44310194  0.88762377  0.09436840  1
  Pd  Pd15  1  0.94310194  0.11237623  0.90563160  1
  Pd  Pd16  1  0.94121001  0.81758559  0.37780899  1
  Pd  Pd17  1  0.44121001  0.18241441  0.62219101  1
  Pd  Pd18  1  0.55878999  0.31758559  0.12219101  1
  Pd  Pd19  1  0.05878999  0.68241441  0.87780899  1
  Pd  Pd20  1  0.05878999  0.18241441  0.62219101  1
  Pd  Pd21  1  0.55878999  0.81758559  0.37780899  1
  Pd  Pd22  1  0.44121001  0.68241441  0.87780899  1
  Pd  Pd23  1  0.94121001  0.31758559  0.12219101  1
  Pd  Pd24  1  0.75000000  0.85109138  0.93268705  1
  Pd  Pd25  1  0.25000000  0.14890962  0.06731295  1
  Pd  Pd26  1  0.75000000  0.35109138  0.56731295  1
  Pd  Pd27  1  0.25000000  0.64890862  0.43268705  1
  Pd  Pd28  1  0.75000000  0.55105158  0.33611690  1
  Pd  Pd29  1  0.25000000  0.44894842  0.66388310  1
  Pd  Pd30  1  0.75000000  0.05105158  0.16388310  1
  Pd  Pd31  1  0.25000000  0.94894842  0.83611690  1
  Pd  Pd32  1  0.75000000  0.55955507  0.03054509  1
  Pd  Pd33  1  0.25000000  0.44044493  0.96945491  1
  Pd  Pd34  1  0.75000000  0.05955507  0.46945491  1
  Pd  Pd35  1  0.25000000  0.94044493  0.53054509  1
loop_
_geom_bond_atom_site_label_1
_geom_bond_atom_site_label_2
_geom_bond_distance
_geom_bond_site_symmetry_2
Pd0 Si2 2.533717 1_565
Pd0 Pd8 2.724311 1_555
Pd0 Pd5 2.748047 1_555
Pd0 Pd24 2.783202 1_555
Pd0 Pd35 2.784125 1_655
Pd0 Pd20 2.800625 1_665
Pd0 Pd31 2.817032 1_655
Pd0 Si7 2.828072 1_655
Pd0 Pd34 2.838171 1_565
Pd0 Pd19 2.860108 1_655
Pd0 Pd15 2.882326 1_565
Pd0 Pd16 2.965398 1_555
Pd0 Si0 2.973516 1_555
Pd1 Si3 2.533717 1_545
Pd1 Pd9 2.724311 1_555
Pd1 Pd4 2.748047 1_555
Pd1 Pd25 2.783203 1_555
Pd1 Pd34 2.784125 1_555
Pd1 Pd21 2.800625 1_545
Pd1 Pd30 2.817032 1_555
Pd1 Si6 2.828072 1_555
Pd1 Pd35 2.838171 1_545
Pd1 Pd18 2.860108 1_555
Pd1 Pd14 2.882326 1_545
Pd1 Pd17 2.965398 1_555
Pd1 Si1 2.973516 1_555
Pd2 Si0 2.533717 1_555
Pd2 Pd7 2.748047 1_555
Pd2 Pd26 2.783202 1_555
Pd2 Pd33 2.784125 1_555
Pd2 Pd22 2.800625 1_555
Pd2 Pd29 2.817032 1_555
Pd2 Si5 2.828072 1_555
Pd2 Pd32 2.838171 1_556
Pd2 Si2 2.973516 1_555
Pd3 Si1 2.533717 1_555
Pd3 Pd6 2.748047 1_555
Pd3 Pd32 2.784125 1_455
Pd3 Si4 2.828072 1_455
Pd3 Pd33 2.838171 1_554
Pd3 Si3 2.973516 1_555
Pd4 Si3 2.533717 1_545
Pd4 Si6 2.828072 1_455
Pd4 Si1 2.973516 1_555
Pd5 Si2 2.533717 1_565
Pd5 Si7 2.828072 1_555
Pd5 Si0 2.973516 1_555
Pd6 Si1 2.533717 1_555
Pd6 Si4 2.828072 1_555
Pd6 Pd9 2.882326 1_555
Pd6 Si3 2.973516 1_555
Pd7 Si0 2.533717 1_555
Pd7 Si5 2.828072 1_655
Pd7 Pd8 2.882326 1_555
Pd7 Si2 2.973516 1_555
Pd8 Si0 2.345054 1_555
Pd8 Si7 2.640106 1_655
Pd9 Si1 2.345054 1_555
Pd9 Si6 2.640106 1_555
Pd10 Si2 2.345054 1_555
Pd10 Si5 2.640106 1_555
Pd10 Pd2 2.724311 1_555
Pd10 Pd5 2.882326 1_545
Pd11 Si3 2.345054 1_555
Pd11 Si4 2.640106 1_455
Pd11 Pd3 2.724311 1_555
Pd11 Pd4 2.882326 1_565
Pd12 Si1 2.345054 1_555
Pd12 Si6 2.640106 1_455
Pd12 Pd4 2.724311 1_555
Pd12 Pd3 2.882326 1_555
Pd13 Si0 2.345054 1_555
Pd13 Si7 2.640106 1_555
Pd13 Pd5 2.724311 1_555
Pd13 Pd2 2.882326 1_555
Pd14 Si3 2.345054 1_555
Pd14 Si4 2.640106 1_555
Pd14 Pd6 2.724311 1_555
Pd15 Si2 2.345054 1_555
Pd15 Si5 2.640106 1_655
Pd15 Pd7 2.724311 1_555
Pd16 Si4 2.398717 1_555
Pd16 Si3 2.500026 1_655
Pd16 Pd4 2.800625 1_665
Pd16 Pd3 2.860108 1_655
Pd17 Si5 2.398717 1_555
Pd17 Si2 2.500026 1_555
Pd17 Pd5 2.800625 1_545
Pd17 Pd2 2.860108 1_555
Pd18 Si6 2.398717 1_555
Pd18 Si1 2.500026 1_555
Pd18 Pd6 2.800625 1_555
Pd18 Pd2 2.965398 1_554
Pd19 Si7 2.398717 1_555
Pd19 Si0 2.500026 1_455
Pd19 Pd7 2.800625 1_455
Pd19 Pd3 2.965398 1_556
Pd20 Si5 2.398717 1_555
Pd20 Si2 2.500026 1_455
Pd20 Pd7 2.860108 1_455
Pd20 Pd4 2.965398 1_555
Pd21 Si4 2.398717 1_555
Pd21 Si3 2.500026 1_555
Pd21 Pd6 2.860108 1_555
Pd21 Pd5 2.965398 1_555
Pd22 Si7 2.398717 1_555
Pd22 Si0 2.500026 1_555
Pd22 Pd5 2.860108 1_555
Pd22 Pd6 2.965398 1_556
Pd23 Si6 2.398717 1_555
Pd23 Si1 2.500026 1_655
Pd23 Pd3 2.800625 1_655
Pd23 Pd4 2.860108 1_655
Pd23 Pd7 2.965398 1_554
Pd24 Si0 2.422884 1_555
Pd24 Si4 2.435472 1_556
Pd24 Pd5 2.783202 1_555
Pd25 Si1 2.422877 1_555
Pd25 Si5 2.435470 1_554
Pd25 Pd4 2.783203 1_555
Pd26 Si2 2.422884 1_555
Pd26 Si6 2.435472 1_555
Pd26 Pd7 2.783202 1_555
Pd27 Si3 2.422884 1_555
Pd27 Si7 2.435472 1_555
Pd27 Pd3 2.783202 1_555
Pd27 Pd6 2.783202 1_555
Pd28 Si4 2.509197 1_555
Pd28 Si6 2.526666 1_555
Pd28 Pd3 2.817032 1_655
Pd28 Pd6 2.817032 1_555
Pd29 Si5 2.509197 1_555
Pd29 Si7 2.526666 1_555
Pd29 Pd7 2.817032 1_455
Pd30 Si6 2.509197 1_555
Pd30 Si4 2.526666 1_545
Pd30 Pd4 2.817032 1_655
Pd31 Si7 2.509197 1_555
Pd31 Si5 2.526666 1_565
Pd31 Pd5 2.817032 1_555
Pd32 Si0 2.378095 1_554
Pd32 Si4 2.396014 1_555
Pd32 Pd6 2.784125 1_555
Pd32 Pd7 2.838171 1_554
Pd33 Si1 2.378095 1_556
Pd33 Si5 2.396014 1_555
Pd33 Pd7 2.784125 1_455
Pd33 Pd6 2.838171 1_556
Pd34 Si2 2.378095 1_555
Pd34 Si6 2.396014 1_555
Pd34 Pd4 2.784125 1_655
Pd34 Pd5 2.838171 1_545
Pd35 Si3 2.378095 1_555
Pd35 Si7 2.396014 1_555
Pd35 Pd5 2.784125 1_555
Pd35 Pd4 2.838171 1_565
