# generated using pymatgen
data_Na5Cr3F14
_symmetry_space_group_name_H-M   'P 1'
_cell_length_a   7.35487500
_cell_length_b   7.40403800
_cell_length_c   12.90734728
_cell_angle_alpha   55.82360303
_cell_angle_beta   90.00000000
_cell_angle_gamma   90.00000000
_symmetry_Int_Tables_number   1
_chemical_formula_structural   Na5Cr3F14
_chemical_formula_sum   'Na10 Cr6 F28'
_cell_volume   581.50075475
_cell_formula_units_Z   2
loop_
 _symmetry_equiv_pos_site_id
 _symmetry_equiv_pos_as_xyz
  1  'x, y, z'
loop_
 _atom_site_type_symbol
 _atom_site_label
 _atom_site_symmetry_multiplicity
 _atom_site_fract_x
 _atom_site_fract_y
 _atom_site_fract_z
 _atom_site_occupancy
  Na  Na0  1  0.79800800  0.98711400  0.74825900  1
  Na  Na1  1  0.50000000  0.50000000  0.00000000  1
  Na  Na2  1  0.23608700  0.52231900  0.75724900  1
  Na  Na3  1  0.70199200  0.98711400  0.24825900  1
  Na  Na4  1  0.76391300  0.47768100  0.24275100  1
  Na  Na5  1  0.20199200  0.01288600  0.25174100  1
  Na  Na6  1  0.73608700  0.47768100  0.74275100  1
  Na  Na7  1  0.00000000  0.50000000  0.50000000  1
  Na  Na8  1  0.26391300  0.52231900  0.25724900  1
  Na  Na9  1  0.29800800  0.01288600  0.75174100  1
  Cr  Cr0  1  0.00000000  0.00000000  0.00000000  1
  Cr  Cr1  1  0.00000000  0.00000000  0.50000000  1
  Cr  Cr2  1  0.50000000  0.00000000  0.50000000  1
  Cr  Cr3  1  0.00000000  0.50000000  0.00000000  1
  Cr  Cr4  1  0.50000000  0.50000000  0.50000000  1
  Cr  Cr5  1  0.50000000  0.00000000  0.00000000  1
  F  F0  1  0.06023300  0.04878100  0.62884200  1
  F  F1  1  0.51007600  0.68403700  0.11845900  1
  F  F2  1  0.25207600  0.96701200  0.46007400  1
  F  F3  1  0.08215100  0.25095800  0.99730400  1
  F  F4  1  0.74792400  0.03298800  0.53992600  1
  F  F5  1  0.66795600  0.60362600  0.36162300  1
  F  F6  1  0.91784900  0.74904200  0.00269600  1
  F  F7  1  0.33204400  0.39637400  0.63837700  1
  F  F8  1  0.01007600  0.31596300  0.38154100  1
  F  F9  1  0.75207600  0.03298800  0.03992600  1
  F  F10  1  0.24792400  0.96701200  0.96007400  1
  F  F11  1  0.70409400  0.34875700  0.61203200  1
  F  F12  1  0.16795600  0.39637400  0.13837700  1
  F  F13  1  0.45557900  0.81412300  0.67722400  1
  F  F14  1  0.93976700  0.95121900  0.37115800  1
  F  F15  1  0.48992400  0.31596300  0.88154100  1
  F  F16  1  0.20409400  0.65124300  0.88796800  1
  F  F17  1  0.54442100  0.18587700  0.32277600  1
  F  F18  1  0.83204400  0.60362600  0.86162300  1
  F  F19  1  0.41784900  0.25095800  0.49730400  1
  F  F20  1  0.98992400  0.68403700  0.61845900  1
  F  F21  1  0.43976700  0.04878100  0.12884200  1
  F  F22  1  0.95557900  0.18587700  0.82277600  1
  F  F23  1  0.29590600  0.65124300  0.38796800  1
  F  F24  1  0.04442100  0.81412300  0.17722400  1
  F  F25  1  0.79590600  0.34875700  0.11203200  1
  F  F26  1  0.56023300  0.95121900  0.87115800  1
  F  F27  1  0.58215100  0.74904200  0.50269600  1
loop_
_geom_bond_atom_site_label_1
_geom_bond_atom_site_label_2
_geom_bond_distance
_geom_bond_site_symmetry_2
Cr0 F24 1.922631 1_545
Cr0 F22 1.922631 1_454
Cr0 F3 1.935506 1_554
Cr0 F6 1.935506 1_445
Cr0 F10 1.947206 1_544
Cr0 F9 1.947206 1_455
Cr1 F0 1.940904 1_555
Cr1 F14 1.940904 1_445
Cr1 F20 1.948714 1_445
Cr1 F8 1.948714 1_555
Cr1 F2 1.975832 1_545
Cr1 F4 1.975832 1_455
Cr2 F13 1.922631 1_545
Cr2 F17 1.922631 1_555
Cr2 F19 1.935506 1_555
Cr2 F27 1.935506 1_545
Cr2 F4 1.947206 1_555
Cr2 F2 1.947206 1_545
Cr3 F12 1.940391 1_555
Cr3 F18 1.940391 1_454
Cr3 F25 1.943967 1_455
Cr3 F16 1.943967 1_554
Cr3 F3 1.959183 1_554
Cr3 F6 1.959183 1_455
Cr4 F7 1.940391 1_555
Cr4 F5 1.940391 1_555
Cr4 F23 1.943967 1_555
Cr4 F11 1.943967 1_555
Cr4 F27 1.959183 1_555
Cr4 F19 1.959183 1_555
Cr5 F21 1.940904 1_555
Cr5 F26 1.940904 1_544
Cr5 F1 1.948714 1_545
Cr5 F15 1.948714 1_554
Cr5 F9 1.975832 1_555
Cr5 F10 1.975832 1_544
F0 Na9 2.274127 1_555
F0 Na0 2.348022 1_445
F0 Na7 2.807341 1_555
F1 Na8 2.347529 1_555
F1 Na4 2.374816 1_555
F1 Na1 2.557486 1_555
F2 Na5 2.540826 1_565
F4 Na0 2.540826 1_545
F5 Na4 2.308511 1_555
F5 Na3 2.366009 1_555
F5 Na7 2.864127 1_655
F7 Na2 2.308511 1_555
F7 Na9 2.366009 1_555
F7 Na7 2.864127 1_555
F8 Na4 2.347529 1_455
F8 Na8 2.374816 1_555
F8 Na7 2.557486 1_555
F9 Na3 2.540826 1_545
F10 Na9 2.540826 1_565
F11 Na0 2.334297 1_545
F11 Na6 2.371236 1_555
F11 Na7 2.502450 1_655
F12 Na8 2.308511 1_555
F12 Na5 2.366009 1_555
F12 Na1 2.864127 1_555
F13 Na2 2.415297 1_555
F13 Na9 2.454419 1_565
F14 Na3 2.274127 1_555
F14 Na5 2.348022 1_665
F14 Na7 2.807341 1_655
F15 Na6 2.347529 1_555
F15 Na2 2.374816 1_555
F15 Na1 2.557486 1_556
F16 Na9 2.334297 1_565
F16 Na2 2.371236 1_555
F16 Na1 2.502450 1_556
F17 Na4 2.415297 1_555
F17 Na3 2.454419 1_545
F18 Na6 2.308511 1_555
F18 Na0 2.366009 1_555
F18 Na1 2.864127 1_556
F20 Na2 2.347529 1_655
F20 Na6 2.374816 1_555
F20 Na7 2.557486 1_655
F21 Na5 2.274127 1_555
F21 Na3 2.348022 1_545
F21 Na1 2.807341 1_555
F22 Na6 2.415297 1_555
F22 Na0 2.454419 1_545
F23 Na5 2.334297 1_565
F23 Na8 2.371236 1_555
F23 Na7 2.502450 1_555
F24 Na8 2.415297 1_555
F24 Na5 2.454419 1_565
F25 Na3 2.334297 1_545
F25 Na4 2.371236 1_555
F25 Na1 2.502450 1_555
F26 Na0 2.274127 1_555
F26 Na9 2.348022 1_565
F26 Na1 2.807341 1_556
