# generated using pymatgen
data_Li4P2O7
_symmetry_space_group_name_H-M   'P 1'
_cell_length_a   14.11846800
_cell_length_b   5.25963400
_cell_length_c   9.56035484
_cell_angle_alpha   56.68904263
_cell_angle_beta   90.00000000
_cell_angle_gamma   90.00000000
_symmetry_Int_Tables_number   1
_chemical_formula_structural   Li4P2O7
_chemical_formula_sum   'Li16 P8 O28'
_cell_volume   593.29232847
_cell_formula_units_Z   4
loop_
 _symmetry_equiv_pos_site_id
 _symmetry_equiv_pos_as_xyz
  1  'x, y, z'
loop_
 _atom_site_type_symbol
 _atom_site_label
 _atom_site_symmetry_multiplicity
 _atom_site_fract_x
 _atom_site_fract_y
 _atom_site_fract_z
 _atom_site_occupancy
  Li  Li0  1  0.78308900  0.85376900  0.94853200  1
  Li  Li1  1  0.17490500  0.74255000  0.45422500  1
  Li  Li2  1  0.94192200  0.73900200  0.44094800  1
  Li  Li3  1  0.60639900  0.10204700  0.56839200  1
  Li  Li4  1  0.55807800  0.73900200  0.94094800  1
  Li  Li5  1  0.71691100  0.85376900  0.44853200  1
  Li  Li6  1  0.82509500  0.25745000  0.54577500  1
  Li  Li7  1  0.10639900  0.89795300  0.93160800  1
  Li  Li8  1  0.05807800  0.26099800  0.55905200  1
  Li  Li9  1  0.67490500  0.25745000  0.04577500  1
  Li  Li10  1  0.39360100  0.89795300  0.43160800  1
  Li  Li11  1  0.28308900  0.14623100  0.55146800  1
  Li  Li12  1  0.89360100  0.10204700  0.06839200  1
  Li  Li13  1  0.32509500  0.74255000  0.95422500  1
  Li  Li14  1  0.21691100  0.14623100  0.05146800  1
  Li  Li15  1  0.44192200  0.26099800  0.05905200  1
  P  P0  1  0.05118800  0.56370400  0.76334400  1
  P  P1  1  0.55118800  0.43629600  0.73665600  1
  P  P2  1  0.33353700  0.44306800  0.73854300  1
  P  P3  1  0.66646300  0.55693200  0.26145700  1
  P  P4  1  0.94881200  0.43629600  0.23665600  1
  P  P5  1  0.44881200  0.56370400  0.26334400  1
  P  P6  1  0.83353700  0.55693200  0.76145700  1
  P  P7  1  0.16646300  0.44306800  0.23854300  1
  O  O0  1  0.43072900  0.85866200  0.25371200  1
  O  O1  1  0.28034500  0.72056200  0.59620100  1
  O  O2  1  0.56927100  0.14133800  0.74628800  1
  O  O3  1  0.88999500  0.70525300  0.10659700  1
  O  O4  1  0.71965500  0.27943800  0.40379900  1
  O  O5  1  0.55771800  0.45249400  0.33399400  1
  O  O6  1  0.78034500  0.27943800  0.90379900  1
  O  O7  1  0.18922000  0.14762600  0.25180700  1
  O  O8  1  0.81078000  0.85237400  0.74819300  1
  O  O9  1  0.38999500  0.29474700  0.39340300  1
  O  O10  1  0.44228200  0.54750600  0.66600600  1
  O  O11  1  0.17084700  0.40936200  0.40880700  1
  O  O12  1  0.94668100  0.38948700  0.41076900  1
  O  O13  1  0.61000500  0.70525300  0.60659700  1
  O  O14  1  0.05331900  0.61051300  0.58923100  1
  O  O15  1  0.11000500  0.29474700  0.89340300  1
  O  O16  1  0.67084700  0.59063800  0.09119300  1
  O  O17  1  0.82915300  0.59063800  0.59119300  1
  O  O18  1  0.32915300  0.40936200  0.90880700  1
  O  O19  1  0.93072900  0.14133800  0.24628800  1
  O  O20  1  0.55331900  0.38948700  0.91076900  1
  O  O21  1  0.06927100  0.85866200  0.75371200  1
  O  O22  1  0.68922000  0.85237400  0.24819300  1
  O  O23  1  0.21965500  0.72056200  0.09620100  1
  O  O24  1  0.44668100  0.61051300  0.08923100  1
  O  O25  1  0.05771800  0.54750600  0.16600600  1
  O  O26  1  0.94228200  0.45249400  0.83399400  1
  O  O27  1  0.31078000  0.14762600  0.75180700  1
loop_
_geom_bond_atom_site_label_1
_geom_bond_atom_site_label_2
_geom_bond_distance
_geom_bond_site_symmetry_2
Li0 O8 1.958763 1_555
Li0 O3 1.968597 1_556
Li0 O6 2.035987 1_565
Li0 O16 2.052692 1_556
Li1 O7 1.948453 1_565
Li1 O1 1.974694 1_555
Li1 O11 2.024519 1_555
Li1 O14 2.027418 1_555
Li2 O19 1.908103 1_565
Li2 O14 1.971721 1_655
Li2 O17 1.993964 1_555
Li2 O12 2.012400 1_555
Li3 O2 1.896331 1_555
Li3 O13 1.911615 1_545
Li3 O4 2.071439 1_555
Li3 O5 2.086811 1_555
Li4 O2 1.908103 1_565
Li4 O24 1.971721 1_556
Li4 O16 1.993964 1_556
Li4 O20 2.012400 1_555
Li5 O22 1.958763 1_555
Li5 O13 1.968597 1_555
Li5 O4 2.035987 1_565
Li5 O17 2.052692 1_555
Li6 O8 1.948453 1_545
Li6 O4 1.974694 1_555
Li6 O17 2.024519 1_555
Li6 O12 2.027418 1_555
Li7 O21 1.896331 1_555
Li7 O15 1.911615 1_565
Li7 O23 2.071439 1_556
Li7 O25 2.086811 1_556
Li8 O21 1.908103 1_545
Li8 O12 1.971721 1_455
Li8 O11 1.993964 1_555
Li8 O14 2.012400 1_555
Li9 O22 1.948453 1_545
Li9 O6 1.974694 1_554
Li9 O16 2.024519 1_555
Li9 O20 2.027418 1_554
Li10 O0 1.896331 1_555
Li10 O9 1.911615 1_565
Li10 O1 2.071439 1_555
Li10 O10 2.086811 1_555
Li11 O27 1.958763 1_555
Li11 O9 1.968597 1_555
Li11 O1 2.035987 1_545
Li11 O11 2.052692 1_555
Li12 O19 1.896331 1_555
Li12 O3 1.911615 1_545
Li12 O6 2.071439 1_554
Li12 O26 2.086811 1_554
Li13 O27 1.948453 1_565
Li13 O23 1.974694 1_556
Li13 O18 2.024519 1_555
Li13 O24 2.027418 1_556
Li14 O7 1.958763 1_555
Li14 O15 1.968597 1_554
Li14 O23 2.035987 1_545
Li14 O18 2.052692 1_554
Li15 O0 1.908103 1_545
Li15 O20 1.971721 1_554
Li15 O18 1.993964 1_554
Li15 O24 2.012400 1_555
O0 P5 1.524304 1_555
O1 P2 1.537700 1_555
O2 P1 1.524304 1_555
O3 P4 1.518161 1_555
O4 P3 1.537700 1_555
O5 P3 1.649677 1_555
O5 P5 1.651842 1_555
O6 P6 1.537700 1_555
O7 P7 1.522345 1_555
O8 P6 1.522345 1_555
O9 P5 1.518161 1_555
O10 P2 1.649677 1_555
O10 P1 1.651842 1_555
O11 P7 1.538824 1_555
O12 P4 1.543445 1_555
O13 P1 1.518161 1_555
O14 P0 1.543445 1_555
O15 P0 1.518161 1_555
O16 P3 1.538824 1_555
O17 P6 1.538824 1_555
O18 P2 1.538824 1_555
O19 P4 1.524304 1_555
O20 P1 1.543445 1_555
O21 P0 1.524304 1_555
O22 P3 1.522345 1_555
O23 P7 1.537700 1_555
O24 P5 1.543445 1_555
O25 P7 1.649677 1_555
O25 P4 1.651842 1_455
O26 P6 1.649677 1_555
O26 P0 1.651842 1_655
O27 P2 1.522345 1_555
