# generated using pymatgen
data_BaCa(GaO2)4
_symmetry_space_group_name_H-M   'P 1'
_cell_length_a   6.76962977
_cell_length_b   6.76962977
_cell_length_c   6.76962977
_cell_angle_alpha   134.46655526
_cell_angle_beta   103.99265873
_cell_angle_gamma   93.30835598
_symmetry_Int_Tables_number   1
_chemical_formula_structural   BaCa(GaO2)4
_chemical_formula_sum   'Ba1 Ca1 Ga4 O8'
_cell_volume   202.95434093
_cell_formula_units_Z   1
loop_
 _symmetry_equiv_pos_site_id
 _symmetry_equiv_pos_as_xyz
  1  'x, y, z'
loop_
 _atom_site_type_symbol
 _atom_site_label
 _atom_site_symmetry_multiplicity
 _atom_site_fract_x
 _atom_site_fract_y
 _atom_site_fract_z
 _atom_site_occupancy
  Ba  Ba0  1  0.00000000  0.00537000  0.00537000  1
  Ca  Ca0  1  0.50000000  0.93216700  0.43216700  1
  Ga  Ga0  1  0.87552200  0.62737000  0.16917500  1
  Ga  Ga1  1  0.54180500  0.29365200  0.16917500  1
  Ga  Ga2  1  0.12447800  0.29365200  0.75184700  1
  Ga  Ga3  1  0.45819500  0.62737000  0.75184700  1
  O  O0  1  0.45987100  0.26915900  0.39782900  1
  O  O1  1  0.54012900  0.93795800  0.80928900  1
  O  O2  1  0.80897100  0.57423700  0.38320800  1
  O  O3  1  0.19102900  0.57423700  0.76526600  1
  O  O4  1  0.12867000  0.93795800  0.39782900  1
  O  O5  1  0.87133000  0.26915900  0.80928900  1
  O  O6  1  0.32918100  0.41778600  0.08860500  1
  O  O7  1  0.67081900  0.75942400  0.08860500  1
loop_
_geom_bond_atom_site_label_1
_geom_bond_atom_site_label_2
_geom_bond_distance
_geom_bond_site_symmetry_2
Ba0 O3 2.763792 1_544
Ba0 O2 2.763792 1_444
Ba0 O5 2.941243 1_454
Ba0 O1 2.941247 1_444
Ba0 O0 2.941248 1_555
Ba0 O4 2.941248 1_545
Ba0 O7 3.090122 1_445
Ba0 O6 3.090122 1_555
Ba0 O2 3.379284 1_455
Ba0 O3 3.379284 1_555
Ca0 O6 2.400070 1_555
Ca0 O7 2.400070 1_555
Ca0 O0 2.473086 1_565
Ca0 O4 2.473086 1_555
Ca0 O5 2.473087 1_565
Ca0 O1 2.473092 1_555
Ga0 O2 1.859799 1_555
Ga0 O7 1.864822 1_555
Ga0 O4 1.869577 1_655
Ga0 O5 1.870422 1_554
Ga1 O2 1.859802 1_555
Ga1 O6 1.864827 1_555
Ga1 O0 1.869572 1_555
Ga1 O1 1.870419 1_544
Ga2 O3 1.859801 1_555
Ga2 O6 1.864824 1_556
Ga2 O5 1.869582 1_455
Ga2 O4 1.870419 1_545
Ga3 O3 1.859802 1_555
Ga3 O7 1.864827 1_556
Ga3 O1 1.869568 1_555
Ga3 O0 1.870422 1_555
