# generated using pymatgen
data_Ca2MgSi2O7
_symmetry_space_group_name_H-M   'P 1'
_cell_length_a   7.81411000
_cell_length_b   9.22347000
_cell_length_c   9.97541635
_cell_angle_alpha   58.30888707
_cell_angle_beta   90.00000000
_cell_angle_gamma   90.00000000
_symmetry_Int_Tables_number   1
_chemical_formula_structural   Ca2MgSi2O7
_chemical_formula_sum   'Ca8 Mg4 Si8 O28'
_cell_volume   611.75797595
_cell_formula_units_Z   4
loop_
 _symmetry_equiv_pos_site_id
 _symmetry_equiv_pos_as_xyz
  1  'x, y, z'
loop_
 _atom_site_type_symbol
 _atom_site_label
 _atom_site_symmetry_multiplicity
 _atom_site_fract_x
 _atom_site_fract_y
 _atom_site_fract_z
 _atom_site_occupancy
  Ca  Ca0  1  0.55616500  0.08084700  0.19883400  1
  Ca  Ca1  1  0.71800500  0.56920500  0.97383100  1
  Ca  Ca2  1  0.78199500  0.56920500  0.47383100  1
  Ca  Ca3  1  0.05616500  0.91915300  0.30116600  1
  Ca  Ca4  1  0.44383500  0.91915300  0.80116600  1
  Ca  Ca5  1  0.94383500  0.08084700  0.69883400  1
  Ca  Ca6  1  0.21800500  0.43079500  0.52616900  1
  Ca  Ca7  1  0.28199500  0.43079500  0.02616900  1
  Mg  Mg0  1  0.89656300  0.28393900  0.88733500  1
  Mg  Mg1  1  0.60343700  0.28393900  0.38733500  1
  Mg  Mg2  1  0.10343700  0.71606100  0.11266500  1
  Mg  Mg3  1  0.39656300  0.71606100  0.61266500  1
  Si  Si0  1  0.27127000  0.11328100  0.41699600  1
  Si  Si1  1  0.96004700  0.33972400  0.28848600  1
  Si  Si2  1  0.72873000  0.88671900  0.58300400  1
  Si  Si3  1  0.46004700  0.66027600  0.21151400  1
  Si  Si4  1  0.77127000  0.88671900  0.08300400  1
  Si  Si5  1  0.03995300  0.66027600  0.71151400  1
  Si  Si6  1  0.22873000  0.11328100  0.91699600  1
  Si  Si7  1  0.53995300  0.33972400  0.78848600  1
  O  O0  1  0.72746700  0.32244100  0.72546500  1
  O  O1  1  0.56244200  0.50400100  0.35966100  1
  O  O2  1  0.07148800  0.15994800  0.34062400  1
  O  O3  1  0.42851200  0.15994800  0.84062400  1
  O  O4  1  0.57148800  0.84005200  0.15937600  1
  O  O5  1  0.04846900  0.64254800  0.55565500  1
  O  O6  1  0.06244200  0.49599900  0.14033900  1
  O  O7  1  0.09397000  0.24807500  0.78165600  1
  O  O8  1  0.45153100  0.64254800  0.05565500  1
  O  O9  1  0.31250900  0.93083400  0.43254600  1
  O  O10  1  0.59397000  0.75192500  0.71834400  1
  O  O11  1  0.54846900  0.35745200  0.94434500  1
  O  O12  1  0.90603000  0.75192500  0.21834400  1
  O  O13  1  0.77253300  0.32244100  0.22546500  1
  O  O14  1  0.93755800  0.50400100  0.85966100  1
  O  O15  1  0.27797300  0.12615000  0.57323100  1
  O  O16  1  0.95153100  0.35745200  0.44434500  1
  O  O17  1  0.77797300  0.87385000  0.92676900  1
  O  O18  1  0.27253300  0.67755900  0.27453500  1
  O  O19  1  0.92851200  0.84005200  0.65937600  1
  O  O20  1  0.22202700  0.12615000  0.07323100  1
  O  O21  1  0.68749100  0.06916600  0.56745400  1
  O  O22  1  0.22746700  0.67755900  0.77453500  1
  O  O23  1  0.43755800  0.49599900  0.64033900  1
  O  O24  1  0.81250900  0.06916600  0.06745400  1
  O  O25  1  0.18749100  0.93083400  0.93254600  1
  O  O26  1  0.72202700  0.87385000  0.42676900  1
  O  O27  1  0.40603000  0.24807500  0.28165600  1
loop_
_geom_bond_atom_site_label_1
_geom_bond_atom_site_label_2
_geom_bond_distance
_geom_bond_site_symmetry_2
Ca0 O27 2.403515 1_555
Ca0 O24 2.426926 1_555
Ca0 O26 2.435930 1_545
Ca0 O4 2.453661 1_545
Ca0 O11 2.480373 1_554
Ca0 O9 2.754187 1_545
Ca0 O20 2.830488 1_555
Ca0 O13 2.918315 1_555
Ca1 O14 2.306890 1_555
Ca1 O13 2.379074 1_556
Ca1 O10 2.400444 1_555
Ca1 O8 2.457598 1_556
Ca1 O11 2.501943 1_555
Ca1 O17 2.636178 1_555
Ca2 O1 2.306890 1_555
Ca2 O0 2.379074 1_555
Ca2 O12 2.400444 1_555
Ca2 O5 2.457598 1_655
Ca2 O16 2.501943 1_555
Ca2 O26 2.636178 1_555
Ca3 O12 2.403515 1_455
Ca3 O9 2.426926 1_555
Ca3 O20 2.435930 1_565
Ca3 O2 2.453661 1_565
Ca3 O5 2.480373 1_555
Ca3 O24 2.754187 1_465
Ca3 O26 2.830488 1_455
Ca3 O18 2.918315 1_555
Ca4 O10 2.403515 1_555
Ca4 O25 2.426926 1_555
Ca4 O15 2.435930 1_565
Ca4 O3 2.453661 1_565
Ca4 O8 2.480373 1_556
Ca4 O21 2.754187 1_565
Ca4 O17 2.830488 1_555
Ca4 O22 2.918315 1_555
Ca5 O7 2.403515 1_655
Ca5 O21 2.426926 1_555
Ca5 O17 2.435930 1_545
Ca5 O19 2.453661 1_545
Ca5 O16 2.480373 1_555
Ca5 O25 2.754187 1_645
Ca5 O15 2.830488 1_655
Ca5 O0 2.918315 1_555
Ca6 O23 2.306890 1_555
Ca6 O18 2.379074 1_555
Ca6 O7 2.400444 1_555
Ca6 O16 2.457598 1_455
Ca6 O5 2.501943 1_555
Ca6 O15 2.636178 1_555
Ca7 O6 2.306890 1_555
Ca7 O22 2.379074 1_554
Ca7 O27 2.400444 1_555
Ca7 O11 2.457598 1_554
Ca7 O8 2.501943 1_555
Ca7 O20 2.636178 1_555
Mg0 O14 1.926117 1_555
Mg0 O24 1.960673 1_556
Mg0 O0 1.968979 1_555
Mg0 O7 1.991639 1_655
Mg1 O1 1.926117 1_555
Mg1 O21 1.960673 1_555
Mg1 O13 1.968979 1_555
Mg1 O27 1.991639 1_555
Mg2 O6 1.926117 1_555
Mg2 O25 1.960673 1_554
Mg2 O18 1.968979 1_555
Mg2 O12 1.991639 1_455
Mg3 O23 1.926117 1_555
Mg3 O9 1.960673 1_555
Mg3 O22 1.968979 1_555
Mg3 O10 1.991639 1_555
O0 Si7 1.634898 1_555
O1 Si3 1.632088 1_555
O2 Si0 1.690629 1_555
O2 Si1 1.694755 1_455
O3 Si6 1.690629 1_555
O3 Si7 1.694755 1_555
O4 Si4 1.690629 1_555
O4 Si3 1.694755 1_555
O5 Si5 1.647892 1_555
O6 Si1 1.632088 1_455
O7 Si6 1.647336 1_555
O8 Si3 1.647892 1_555
O9 Si0 1.638732 1_565
O10 Si2 1.647336 1_555
O11 Si7 1.647892 1_555
O12 Si4 1.647336 1_555
O13 Si1 1.634898 1_555
O14 Si5 1.632088 1_655
O15 Si0 1.624853 1_555
O16 Si1 1.647892 1_555
O17 Si4 1.624853 1_556
O18 Si3 1.634898 1_555
O19 Si2 1.690629 1_555
O19 Si5 1.694755 1_655
O20 Si6 1.624853 1_554
O21 Si2 1.638732 1_545
O22 Si5 1.634898 1_555
O23 Si7 1.632088 1_555
O24 Si4 1.638732 1_545
O25 Si6 1.638732 1_565
O26 Si2 1.624853 1_555
O27 Si0 1.647336 1_555
