# generated using pymatgen
data_Rb16Yb3Ti13(PO4)24
_symmetry_space_group_name_H-M   'P 1'
_cell_length_a   10.16216564
_cell_length_b   10.15983440
_cell_length_c   20.32323886
_cell_angle_alpha   89.93269085
_cell_angle_beta   89.97664136
_cell_angle_gamma   90.32053291
_symmetry_Int_Tables_number   1
_chemical_formula_structural   Rb16Yb3Ti13(PO4)24
_chemical_formula_sum   'Rb16 Yb3 Ti13 P24 O96'
_cell_volume   2098.25703065
_cell_formula_units_Z   1
loop_
 _symmetry_equiv_pos_site_id
 _symmetry_equiv_pos_as_xyz
  1  'x, y, z'
loop_
 _atom_site_type_symbol
 _atom_site_label
 _atom_site_symmetry_multiplicity
 _atom_site_fract_x
 _atom_site_fract_y
 _atom_site_fract_z
 _atom_site_occupancy
  O  O0  1  0.00582816  0.07795115  0.17317176  1
  O  O1  1  0.00474285  0.10628234  0.66748351  1
  O  O2  1  0.02628227  0.93199478  0.40059658  1
  O  O3  1  0.99173636  0.97158675  0.89541356  1
  O  O4  1  0.02791927  0.80982572  0.12844827  1
  O  O5  1  0.01048289  0.78773417  0.62193209  1
  O  O6  1  0.03597587  0.29067483  0.23692594  1
  O  O7  1  0.03054410  0.30413685  0.74349538  1
  O  O8  1  0.06536043  0.17071975  0.37517587  1
  O  O9  1  0.07967107  0.19922885  0.86767394  1
  O  O10  1  0.07826726  0.37892781  0.00099792  1
  O  O11  1  0.08460094  0.35003075  0.50525773  1
  O  O12  1  0.13681227  0.99279272  0.29327179  1
  O  O13  1  0.14468748  1.00504650  0.79744660  1
  O  O14  1  0.19951717  0.76163296  0.23653144  1
  O  O15  1  0.20392284  0.74574850  0.74785514  1
  O  O16  1  0.19196756  0.73367714  0.04306492  1
  O  O17  1  0.19004481  0.72352935  0.53899070  1
  O  O18  1  0.21049591  0.52492017  0.26539545  1
  O  O19  1  0.20923232  0.50439214  0.76918752  1
  O  O20  1  0.24541297  0.43412105  0.41690939  1
  O  O21  1  0.22972591  0.42261173  0.90393092  1
  O  O22  1  0.25735744  0.02050905  0.40148660  1
  O  O23  1  0.22640117  0.01701643  0.91427592  1
  O  O24  1  0.25107092  0.97543848  0.16556232  1
  O  O25  1  0.25631966  0.99041821  0.64397730  1
  O  O26  1  0.27699170  0.59264521  0.15182525  1
  O  O27  1  0.27375881  0.58733501  0.65690427  1
  O  O28  1  0.29397995  0.50143554  0.01703689  1
  O  O29  1  0.29733701  0.47116560  0.53592451  1
  O  O30  1  0.32936743  0.24654955  0.28136981  1
  O  O31  1  0.30607477  0.26912919  0.79472819  1
  O  O32  1  0.30682413  0.24155403  0.49098348  1
  O  O33  1  0.29543926  0.26142581  0.99476697  1
  O  O34  1  0.34620386  0.01135031  0.05375654  1
  O  O35  1  0.37094134  0.00143490  0.53485665  1
  O  O36  1  0.42322823  0.65304850  0.24968735  1
  O  O37  1  0.42292921  0.63509562  0.75372561  1
  O  O38  1  0.41810196  0.81026575  0.11875163  1
  O  O39  1  0.41672263  0.80904141  0.61116938  1
  O  O40  1  0.46747605  0.70292543  0.99573961  1
  O  O41  1  0.45455066  0.70051095  0.48955081  1
  O  O42  1  0.47801941  0.19791396  0.37861971  1
  O  O43  1  0.49503000  0.19758855  0.86894365  1
  O  O44  1  0.48719977  0.03762875  0.15610629  1
  O  O45  1  0.49781772  0.03542238  0.64128091  1
  O  O46  1  0.49259467  0.91586119  0.42473949  1
  O  O47  1  0.48940351  0.89172538  0.91574650  1
  O  O48  1  0.50239849  0.41516184  0.31743916  1
  O  O49  1  0.50927755  0.41583889  0.81307212  1
  O  O50  1  0.51688302  0.53366186  0.10069558  1
  O  O51  1  0.51989999  0.54664796  0.60236618  1
  O  O52  1  0.52991804  0.65824065  0.87896822  1
  O  O53  1  0.51943350  0.69433945  0.37137128  1
  O  O54  1  0.52407836  0.20593428  0.74686890  1
  O  O55  1  0.57061475  0.19763461  0.26519475  1
  O  O56  1  0.58032316  0.30605653  0.14085028  1
  O  O57  1  0.58712493  0.31385488  0.63238653  1
  O  O58  1  0.59105330  0.14398824  0.49407621  1
  O  O59  1  0.60330937  0.16416562  0.99799250  1
  O  O60  1  0.64766092  0.50974626  0.20686763  1
  O  O61  1  0.65497957  0.51062755  0.70558600  1
  O  O62  1  0.69865079  0.74152408  0.26572570  1
  O  O63  1  0.66194227  0.75310524  0.76643757  1
  O  O64  1  0.68534971  0.77456451  0.45819694  1
  O  O65  1  0.69288921  0.76782249  0.95813995  1
  O  O66  1  0.70735582  0.97527157  0.22847648  1
  O  O67  1  0.69086267  0.99050378  0.73493905  1
  O  O68  1  0.73254013  0.08471062  0.09721293  1
  O  O69  1  0.73365724  0.08648491  0.59451433  1
  O  O70  1  0.75329560  0.46537301  0.09610775  1
  O  O71  1  0.75404068  0.48256031  0.59184089  1
  O  O72  1  0.72795999  0.52263397  0.35034895  1
  O  O73  1  0.75256514  0.52646756  0.84192347  1
  O  O74  1  0.77756809  0.92103202  0.34499488  1
  O  O75  1  0.75689626  0.91334822  0.84877824  1
  O  O76  1  0.80443500  0.01617179  0.48033501  1
  O  O77  1  0.79780824  0.01146152  0.98414819  1
  O  O78  1  0.81009588  0.22224104  0.20323148  1
  O  O79  1  0.80311545  0.23195828  0.70758949  1
  O  O80  1  0.81231232  0.25417639  0.51132831  1
  O  O81  1  0.83243392  0.24776808  0.01308645  1
  O  O82  1  0.84536989  0.49446476  0.45892523  1
  O  O83  1  0.84665768  0.49177743  0.95663121  1
  O  O84  1  0.91952943  0.85079050  0.24729933  1
  O  O85  1  0.88939938  0.84251671  0.74732271  1
  O  O86  1  0.89767204  0.69238411  0.38465072  1
  O  O87  1  0.91626153  0.69334182  0.88868246  1
  O  O88  1  0.95804913  0.78682278  0.50332901  1
  O  O89  1  0.96429064  0.80344984  0.00878492  1
  O  O90  1  0.97817664  0.30321915  0.11854319  1
  O  O91  1  0.96421436  0.33380154  0.62570626  1
  O  O92  1  0.96758166  0.46686937  0.35108413  1
  O  O93  1  0.98782752  0.46649084  0.85338276  1
  O  O94  1  0.98834937  0.59057639  0.07290324  1
  O  O95  1  0.99845305  0.57285910  0.56335657  1
  P  P0  1  0.04407700  0.73173955  0.06313347  1
  P  P1  1  0.04171011  0.71944643  0.55783366  1
  P  P2  1  0.12026033  0.03406788  0.36696233  1
  P  P3  1  0.11599619  0.04749728  0.86679236  1
  P  P4  1  0.23138827  0.37488554  0.48486278  1
  P  P5  1  0.22474546  0.38776846  0.97865792  1
  P  P6  1  0.27809235  0.63162823  0.22623156  1
  P  P7  1  0.27704453  0.62033818  0.73183118  1
  P  P8  1  0.37533085  0.95738047  0.12084190  1
  P  P9  1  0.38281842  0.95840587  0.60825325  1
  P  P10  1  0.46556372  0.26679449  0.30942934  1
  P  P11  1  0.45702345  0.27222073  0.80746600  1
  P  P12  1  0.54600494  0.76087560  0.93565913  1
  P  P13  1  0.53859565  0.77230964  0.43651960  1
  P  P14  1  0.62370611  0.45326952  0.13691359  1
  P  P15  1  0.62909592  0.46109263  0.63459829  1
  P  P16  1  0.73686363  0.12779123  0.02369401  1
  P  P17  1  0.73187717  0.12449631  0.52053302  1
  P  P18  1  0.77717482  0.87243874  0.27228683  1
  P  P19  1  0.75565789  0.87549017  0.77449348  1
  P  P20  1  0.86226734  0.54295005  0.38684577  1
  P  P21  1  0.87541933  0.54556570  0.88656128  1
  P  P22  1  0.95881606  0.22251134  0.18355981  1
  P  P23  1  0.95149974  0.23893456  0.68624247  1
  Rb  Rb0  1  0.07771244  0.07427337  0.03323351  1
  Rb  Rb1  1  0.07612235  0.06542463  0.53360299  1
  Rb  Rb2  1  0.20018888  0.69969667  0.39213739  1
  Rb  Rb3  1  0.20810276  0.72007563  0.89685768  1
  Rb  Rb4  1  0.28815289  0.29670421  0.14571385  1
  Rb  Rb5  1  0.28897678  0.28657526  0.65085273  1
  Rb  Rb6  1  0.42801712  0.93456586  0.28712490  1
  Rb  Rb7  1  0.41654424  0.93440094  0.78202628  1
  Rb  Rb8  1  0.56267386  0.42450462  0.96311522  1
  Rb  Rb9  1  0.56137770  0.42879983  0.46436755  1
  Rb  Rb10  1  0.70832529  0.79233901  0.10351902  1
  Rb  Rb11  1  0.71192281  0.79617567  0.60583469  1
  Rb  Rb12  1  0.80029314  0.21486662  0.35157957  1
  Rb  Rb13  1  0.78841721  0.20328226  0.85440333  1
  Rb  Rb14  1  0.93709426  0.56275491  0.21686014  1
  Rb  Rb15  1  0.93821020  0.57593589  0.71411729  1
  Ti  Ti0  1  0.08991838  0.91483263  0.20826972  1
  Ti  Ti1  1  0.13957450  0.35789855  0.82300327  1
  Ti  Ti2  1  0.35972342  0.64743123  0.07007846  1
  Ti  Ti3  1  0.35774967  0.63869126  0.57309360  1
  Ti  Ti4  1  0.41506452  0.08675001  0.45352107  1
  Ti  Ti5  1  0.58418668  0.58683498  0.29282675  1
  Ti  Ti6  1  0.58759793  0.58441602  0.79287080  1
  Ti  Ti7  1  0.64545765  0.13879154  0.18083073  1
  Ti  Ti8  1  0.64119240  0.14412469  0.67746239  1
  Ti  Ti9  1  0.85740911  0.85512741  0.42889736  1
  Ti  Ti10  1  0.85508285  0.86200295  0.92965149  1
  Ti  Ti11  1  0.91348549  0.41285452  0.54184827  1
  Ti  Ti12  1  0.91343651  0.41265616  0.04283637  1
  Yb  Yb0  1  0.08226915  0.91422448  0.70483747  1
  Yb  Yb1  1  0.15025984  0.35113233  0.32498932  1
  Yb  Yb2  1  0.41549698  0.08551374  0.95706853  1
loop_
_geom_bond_atom_site_label_1
_geom_bond_atom_site_label_2
_geom_bond_distance
_geom_bond_site_symmetry_2
O0 P22 1.561541 1_455
O0 Ti0 1.999776 1_545
O0 Rb0 2.936361 1_555
O1 P23 1.504546 1_455
O1 Yb0 2.240242 1_545
O1 Rb1 2.847123 1_555
O1 Rb5 3.427991 1_555
O2 P2 1.562530 1_565
O2 Ti9 1.966955 1_455
O2 Rb2 2.961467 1_555
O2 Rb1 3.066456 1_565
O3 P3 1.585920 1_665
O3 Ti10 1.905859 1_555
O3 Rb0 3.113801 1_666
O4 P0 1.556316 1_555
O4 Ti0 2.040623 1_555
O4 Rb14 3.216156 1_455
O4 Rb10 3.291100 1_455
O4 Rb0 3.345283 1_565
O5 P1 1.511058 1_555
O5 Yb0 2.240138 1_555
O5 Rb15 2.941350 1_455
O5 Rb11 3.053407 1_455
O5 Rb1 3.404877 1_565
O6 P22 1.505692 1_455
O6 Yb1 2.219350 1_555
O6 Rb14 2.974237 1_455
O6 Rb4 3.162499 1_555
O6 Rb12 3.424846 1_455
O7 P23 1.560309 1_455
O7 Ti1 2.033159 1_555
O7 Rb15 2.981274 1_455
O7 Rb5 3.236646 1_555
O8 P2 1.508575 1_555
O8 Yb1 2.263097 1_555
O8 Rb12 2.775068 1_455
O8 Rb1 3.393626 1_555
O9 P3 1.587276 1_555
O9 Ti1 1.943871 1_555
O9 Rb13 2.972652 1_455
O10 P5 1.558139 1_554
O10 Ti12 1.911052 1_455
O10 Rb0 3.163032 1_555
O11 P4 1.567069 1_555
O11 Ti11 1.999166 1_455
O11 Rb1 2.948492 1_555
O12 P2 1.564961 1_565
O12 Ti0 1.959192 1_555
O12 Rb6 3.023626 1_555
O13 P3 1.503242 1_565
O13 Yb0 2.189671 1_555
O13 Rb7 2.875350 1_555
O14 P6 1.561508 1_555
O14 Ti0 2.002704 1_555
O14 Rb6 3.081666 1_555
O14 Rb2 3.223707 1_555
O14 Rb14 3.361063 1_455
O15 P7 1.514278 1_555
O15 Yb0 2.289890 1_555
O15 Rb7 2.963537 1_555
O15 Rb3 3.039456 1_555
O15 Rb15 3.269559 1_455
O16 P0 1.557100 1_555
O16 Ti2 1.997942 1_555
O16 Rb3 2.979270 1_554
O17 P1 1.555450 1_555
O17 Ti3 2.035620 1_555
O17 Rb2 2.996403 1_555
O18 P6 1.506628 1_555
O18 Yb1 2.222922 1_555
O18 Rb14 2.975445 1_455
O18 Rb2 3.132327 1_555
O18 Rb4 3.456469 1_555
O19 P7 1.557989 1_555
O19 Ti1 1.973888 1_555
O19 Rb15 3.064217 1_455
O19 Rb5 3.371758 1_555
O20 P4 1.512178 1_555
O20 Yb1 2.265352 1_555
O20 Rb2 2.784932 1_555
O20 Rb9 3.353703 1_555
O21 P5 1.559739 1_555
O21 Ti1 1.993410 1_555
O21 Rb3 3.034630 1_555
O22 P2 1.566849 1_555
O22 Ti4 2.032415 1_555
O22 Rb6 3.031576 1_545
O22 Rb1 3.289058 1_555
O22 Rb2 3.313256 1_545
O23 P3 1.513279 1_555
O23 Yb2 2.218358 1_555
O23 Rb0 2.911441 1_556
O23 Rb3 3.042643 1_545
O23 Rb7 3.417797 1_545
O24 P8 1.567252 1_555
O24 Ti0 1.949542 1_555
O24 Rb6 3.085282 1_555
O24 Rb4 3.307791 1_565
O24 Rb0 3.370727 1_565
O25 P9 1.513236 1_555
O25 Yb0 2.288705 1_555
O25 Rb1 2.996786 1_565
O25 Rb5 3.028701 1_565
O25 Rb7 3.294963 1_555
O26 P6 1.563663 1_555
O26 Ti2 1.941191 1_555
O26 Rb4 3.012190 1_555
O27 P7 1.559952 1_555
O27 Ti3 1.973258 1_555
O27 Rb5 3.063056 1_555
O28 P5 1.559011 1_554
O28 Ti2 1.949820 1_555
O28 Rb8 3.048109 1_554
O28 Rb4 3.339864 1_555
O29 P4 1.574331 1_555
O29 Ti3 1.958609 1_555
O29 Rb5 2.994611 1_555
O29 Rb9 3.084003 1_555
O30 P10 1.510242 1_555
O30 Yb1 2.291340 1_555
O30 Rb4 2.834780 1_555
O30 Rb6 3.331736 1_545
O31 P11 1.555910 1_555
O31 Ti1 2.005985 1_555
O31 Rb5 2.934453 1_555
O32 P4 1.565071 1_555
O32 Ti4 2.069953 1_555
O32 Rb1 3.065367 1_555
O32 Rb9 3.247255 1_555
O32 Rb5 3.286709 1_555
O33 P5 1.510128 1_555
O33 Yb2 2.301429 1_555
O33 Rb0 3.011667 1_556
O33 Rb4 3.089921 1_556
O33 Rb8 3.237223 1_555
O34 P8 1.499166 1_545
O34 Yb2 2.216829 1_554
O34 Rb0 2.836712 1_555
O34 Rb4 3.503814 1_555
O35 P9 1.558823 1_545
O35 Ti4 1.917412 1_555
O35 Rb1 3.069388 1_555
O36 P6 1.564334 1_555
O36 Ti5 1.977062 1_555
O36 Rb6 2.960645 1_555
O37 P7 1.554510 1_555
O37 Ti6 1.925624 1_555
O37 Rb7 3.096504 1_555
O38 P8 1.559531 1_555
O38 Ti2 2.015129 1_555
O38 Rb10 2.971997 1_555
O39 P9 1.559082 1_555
O39 Ti3 1.986277 1_555
O39 Rb11 3.005368 1_555
O40 P12 1.570560 1_555
O40 Ti2 1.946583 1_556
O40 Rb8 3.067834 1_555
O41 P13 1.553569 1_555
O41 Ti3 2.057696 1_555
O41 Rb9 3.016196 1_555
O41 Rb2 3.256533 1_555
O42 P10 1.575407 1_555
O42 Ti4 1.997284 1_555
O42 Rb9 3.040669 1_555
O42 Rb6 3.297237 1_545
O42 Rb12 3.324046 1_555
O43 P11 1.512159 1_555
O43 Yb2 2.267407 1_555
O43 Rb13 2.996168 1_555
O43 Rb8 3.073133 1_555
O43 Rb7 3.300729 1_545
O44 P8 1.569210 1_545
O44 Ti7 1.969436 1_555
O44 Rb6 2.921185 1_545
O44 Rb4 3.335118 1_555
O45 P9 1.555693 1_545
O45 Ti8 1.966727 1_555
O45 Rb7 3.146290 1_545
O45 Rb5 3.333819 1_555
O45 Rb11 3.350116 1_545
O46 P13 1.552369 1_555
O46 Ti4 1.998652 1_565
O46 Rb6 2.879299 1_555
O47 P12 1.506465 1_555
O47 Yb2 2.272807 1_565
O47 Rb7 2.850291 1_555
O48 P10 1.559855 1_555
O48 Ti5 1.991112 1_555
O48 Rb9 3.049014 1_555
O49 P11 1.554287 1_555
O49 Ti6 1.928275 1_555
O49 Rb8 3.098749 1_555
O50 P14 1.548063 1_555
O50 Ti2 2.072120 1_555
O50 Rb8 3.045737 1_554
O50 Rb10 3.261652 1_555
O50 Rb4 3.459216 1_555
O51 P15 1.557585 1_555
O51 Ti3 1.990073 1_555
O51 Rb9 3.080498 1_555
O51 Rb11 3.191398 1_555
O52 P12 1.562870 1_555
O52 Ti6 1.993749 1_555
O52 Rb8 2.945240 1_555
O53 P13 1.555453 1_555
O53 Ti5 2.045814 1_555
O53 Rb6 3.125409 1_555
O53 Rb2 3.272145 1_555
O53 Rb9 3.321687 1_555
O54 P11 1.562354 1_555
O54 Ti8 1.951803 1_555
O54 Rb7 3.045703 1_545
O54 Rb5 3.195152 1_555
O55 P10 1.565456 1_555
O55 Ti7 1.970275 1_555
O55 Rb12 2.925754 1_555
O55 Rb6 3.065189 1_545
O56 P14 1.558869 1_555
O56 Ti7 1.999004 1_555
O56 Rb4 2.971672 1_555
O57 P15 1.553937 1_555
O57 Ti8 2.030287 1_555
O57 Rb5 3.063816 1_555
O58 P17 1.542677 1_555
O58 Ti4 2.051016 1_555
O58 Rb9 2.972279 1_555
O59 P16 1.502378 1_556
O59 Yb2 2.226826 1_555
O59 Rb8 2.770746 1_555
O60 P14 1.552529 1_555
O60 Ti5 2.022210 1_555
O60 Rb14 2.994224 1_555
O61 P15 1.550607 1_555
O61 Ti6 2.045856 1_555
O61 Rb15 2.955314 1_555
O62 P18 1.553146 1_555
O62 Ti5 2.025677 1_555
O62 Rb14 3.194999 1_555
O62 Rb10 3.337471 1_555
O62 Rb6 3.414797 1_555
O63 P19 1.570735 1_555
O63 Ti6 1.944142 1_555
O63 Rb7 3.124761 1_555
O63 Rb11 3.331031 1_555
O64 P13 1.555275 1_555
O64 Ti9 2.015877 1_555
O64 Rb11 3.020851 1_555
O65 P12 1.562440 1_555
O65 Ti10 1.986896 1_555
O65 Rb10 2.969482 1_556
O66 P18 1.547359 1_555
O66 Ti7 2.025277 1_565
O66 Rb6 3.103677 1_555
O66 Rb10 3.148793 1_555
O67 P19 1.565903 1_555
O67 Ti8 2.015008 1_565
O67 Rb7 2.998423 1_555
O67 Rb11 3.293128 1_555
O68 P16 1.556972 1_555
O68 Ti7 1.994830 1_555
O68 Rb10 2.981851 1_545
O69 P17 1.552043 1_555
O69 Ti8 2.018634 1_555
O69 Rb11 2.965182 1_545
O70 P14 1.560186 1_555
O70 Ti12 2.029045 1_555
O70 Rb14 3.237098 1_555
O70 Rb8 3.350839 1_554
O70 Rb10 3.359284 1_555
O71 P15 1.552545 1_555
O71 Ti11 2.042646 1_555
O71 Rb11 3.230131 1_555
O71 Rb15 3.250798 1_555
O71 Rb9 3.292214 1_555
O72 P20 1.566407 1_555
O72 Ti5 1.984196 1_555
O72 Rb9 3.019544 1_555
O72 Rb12 3.216174 1_555
O72 Rb14 3.467830 1_555
O73 P21 1.554968 1_555
O73 Ti6 2.040067 1_555
O73 Rb15 3.246643 1_555
O73 Rb8 3.291062 1_555
O74 P18 1.558506 1_555
O74 Ti9 2.004686 1_555
O74 Rb12 2.996093 1_565
O75 P19 1.558410 1_555
O75 Ti10 1.993564 1_555
O75 Rb13 2.963609 1_565
O76 P17 1.559815 1_555
O76 Ti9 2.018201 1_545
O76 Rb1 3.005557 1_655
O76 Rb12 3.303459 1_555
O77 P16 1.560891 1_556
O77 Ti10 1.970916 1_545
O77 Rb0 3.078424 1_656
O78 P22 1.563133 1_555
O78 Ti7 1.926379 1_555
O78 Rb12 3.017347 1_555
O79 P23 1.570102 1_555
O79 Ti8 1.965841 1_555
O79 Rb13 3.001160 1_555
O80 P17 1.557645 1_555
O80 Ti11 2.006272 1_555
O80 Rb9 3.257267 1_555
O80 Rb12 3.273795 1_555
O80 Rb1 3.335573 1_655
O81 P16 1.568917 1_555
O81 Ti12 1.958807 1_555
O81 Rb0 3.088015 1_655
O82 P20 1.554089 1_555
O82 Ti11 2.002707 1_555
O82 Rb9 2.960438 1_555
O83 P21 1.551782 1_555
O83 Ti12 2.044472 1_556
O83 Rb8 2.964841 1_555
O84 P18 1.549912 1_555
O84 Ti0 2.008920 1_655
O84 Rb14 2.998057 1_555
O85 P19 1.506396 1_555
O85 Yb0 2.258088 1_655
O85 Rb15 2.838314 1_555
O85 Rb11 3.426489 1_555
O86 P20 1.558898 1_555
O86 Ti9 1.928906 1_555
O86 Rb2 3.078537 1_655
O87 P21 1.556104 1_555
O87 Ti10 2.007723 1_555
O87 Rb3 2.981355 1_655
O88 P1 1.556890 1_655
O88 Ti9 1.955126 1_555
O88 Rb1 3.130010 1_665
O88 Rb11 3.256334 1_555
O89 P0 1.553596 1_655
O89 Ti10 2.044157 1_554
O89 Rb0 3.019017 1_665
O89 Rb10 3.236928 1_555
O90 P22 1.566037 1_555
O90 Ti12 2.010317 1_555
O90 Rb0 3.077981 1_655
O90 Rb4 3.199321 1_655
O90 Rb14 3.338221 1_555
O91 P23 1.566837 1_555
O91 Ti11 1.953839 1_555
O91 Rb15 3.060623 1_555
O91 Rb5 3.376659 1_655
O92 P20 1.510305 1_555
O92 Yb1 2.266109 1_655
O92 Rb14 2.912747 1_555
O92 Rb12 3.065378 1_555
O93 P21 1.554314 1_555
O93 Ti1 1.999071 1_655
O93 Rb15 3.082441 1_555
O94 P0 1.551515 1_655
O94 Ti12 2.051359 1_555
O94 Rb14 2.984277 1_555
O95 P1 1.554381 1_655
O95 Ti11 1.888263 1_555
O95 Rb15 3.124490 1_555
