# generated using pymatgen
data_Cs2Nb6PbCl18
_symmetry_space_group_name_H-M   'P 1'
_cell_length_a   10.54475658
_cell_length_b   10.54475658
_cell_length_c   10.54475642
_cell_angle_alpha   54.77681131
_cell_angle_beta   54.77681131
_cell_angle_gamma   54.77680937
_symmetry_Int_Tables_number   1
_chemical_formula_structural   Cs2Nb6PbCl18
_chemical_formula_sum   'Cs2 Nb6 Pb1 Cl18'
_cell_volume   728.22965932
_cell_formula_units_Z   1
loop_
 _symmetry_equiv_pos_site_id
 _symmetry_equiv_pos_as_xyz
  1  'x, y, z'
loop_
 _atom_site_type_symbol
 _atom_site_label
 _atom_site_symmetry_multiplicity
 _atom_site_fract_x
 _atom_site_fract_y
 _atom_site_fract_z
 _atom_site_occupancy
  Cs  Cs0  1  0.72300500  0.72300500  0.72300500  1
  Cs  Cs1  1  0.27699500  0.27699500  0.27699500  1
  Nb  Nb0  1  0.57978500  0.35417500  0.70037900  1
  Nb  Nb1  1  0.35417500  0.70037900  0.57978500  1
  Nb  Nb2  1  0.70037900  0.57978500  0.35417500  1
  Nb  Nb3  1  0.64582500  0.29962100  0.42021500  1
  Nb  Nb4  1  0.42021500  0.64582500  0.29962100  1
  Nb  Nb5  1  0.29962100  0.42021500  0.64582500  1
  Pb  Pb0  1  0.00000000  0.00000000  0.00000000  1
  Cl  Cl0  1  0.90569700  0.35924600  0.23374300  1
  Cl  Cl1  1  0.82999000  0.42216400  0.56493600  1
  Cl  Cl2  1  0.76625700  0.09430300  0.64075400  1
  Cl  Cl3  1  0.09430300  0.64075400  0.76625700  1
  Cl  Cl4  1  0.67619200  0.17312200  0.95884900  1
  Cl  Cl5  1  0.23374300  0.90569700  0.35924600  1
  Cl  Cl6  1  0.43506400  0.17001000  0.57783600  1
  Cl  Cl7  1  0.64075400  0.76625700  0.09430300  1
  Cl  Cl8  1  0.57783600  0.43506400  0.17001000  1
  Cl  Cl9  1  0.04115100  0.32380800  0.82687800  1
  Cl  Cl10  1  0.56493600  0.82999000  0.42216400  1
  Cl  Cl11  1  0.35924600  0.23374300  0.90569700  1
  Cl  Cl12  1  0.95884900  0.67619200  0.17312200  1
  Cl  Cl13  1  0.17001000  0.57783600  0.43506400  1
  Cl  Cl14  1  0.82687800  0.04115100  0.32380800  1
  Cl  Cl15  1  0.42216400  0.56493600  0.82999000  1
  Cl  Cl16  1  0.17312200  0.95884900  0.67619200  1
  Cl  Cl17  1  0.32380800  0.82687800  0.04115100  1
loop_
_geom_bond_atom_site_label_1
_geom_bond_atom_site_label_2
_geom_bond_distance
_geom_bond_site_symmetry_2
Cl0 Nb3 2.473195 1_555
Cl0 Nb2 2.476984 1_555
Cl0 Cs1 3.738427 1_655
Cl1 Nb0 2.483710 1_555
Cl1 Nb2 2.488383 1_555
Cl1 Cs0 3.730478 1_555
Cl1 Cs1 3.782757 1_655
Cl2 Nb0 2.473195 1_555
Cl2 Nb3 2.476984 1_555
Cl2 Cs0 3.738427 1_545
Cl3 Nb1 2.473195 1_555
Cl3 Nb5 2.476984 1_555
Cl3 Cs0 3.738427 1_455
Cl4 Nb0 2.657390 1_555
Cl4 Pb0 2.963891 1_656
Cl4 Cs1 3.578263 1_556
Cl5 Nb4 2.473195 1_555
Cl5 Nb1 2.476984 1_555
Cl5 Cs1 3.738427 1_565
Cl6 Nb5 2.483710 1_555
Cl6 Nb3 2.488384 1_555
Cl6 Cs1 3.730478 1_555
Cl6 Cs0 3.782757 1_545
Cl7 Nb2 2.473195 1_555
Cl7 Nb4 2.476984 1_555
Cl7 Cs0 3.738427 1_554
Cl8 Nb3 2.483710 1_555
Cl8 Nb4 2.488383 1_555
Cl8 Cs1 3.730478 1_555
Cl8 Cs0 3.782757 1_554
Cl9 Nb5 2.657390 1_555
Cl9 Pb0 2.963892 1_556
Cl9 Cs0 3.578263 1_455
Cl10 Nb2 2.483710 1_555
Cl10 Nb1 2.488384 1_555
Cl10 Cs0 3.730478 1_555
Cl10 Cs1 3.782757 1_565
Cl11 Nb5 2.473195 1_555
Cl11 Nb0 2.476984 1_555
Cl11 Cs1 3.738427 1_556
Cl12 Nb2 2.657390 1_555
Cl12 Pb0 2.963892 1_665
Cl12 Cs1 3.578263 1_655
Cl13 Nb4 2.483710 1_555
Cl13 Nb5 2.488383 1_555
Cl13 Cs1 3.730478 1_555
Cl13 Cs0 3.782757 1_455
Cl14 Nb3 2.657390 1_555
Cl14 Pb0 2.963891 1_655
Cl14 Cs0 3.578263 1_545
Cl15 Nb1 2.483710 1_555
Cl15 Nb0 2.488383 1_555
Cl15 Cs0 3.730478 1_555
Cl15 Cs1 3.782757 1_556
Cl16 Nb1 2.657390 1_555
Cl16 Pb0 2.963891 1_566
Cl16 Cs1 3.578263 1_565
Cl17 Nb4 2.657390 1_555
Cl17 Pb0 2.963891 1_565
Cl17 Cs0 3.578263 1_554
