# generated using pymatgen
data_SiPb4(BrO)4
_symmetry_space_group_name_H-M   'P 1'
_cell_length_a   16.50110000
_cell_length_b   8.57520500
_cell_length_c   9.19468269
_cell_angle_alpha   87.86969644
_cell_angle_beta   90.00000000
_cell_angle_gamma   90.00000000
_symmetry_Int_Tables_number   1
_chemical_formula_structural   SiPb4(BrO)4
_chemical_formula_sum   'Si4 Pb16 Br16 O16'
_cell_volume   1300.15130840
_cell_formula_units_Z   4
loop_
 _symmetry_equiv_pos_site_id
 _symmetry_equiv_pos_as_xyz
  1  'x, y, z'
loop_
 _atom_site_type_symbol
 _atom_site_label
 _atom_site_symmetry_multiplicity
 _atom_site_fract_x
 _atom_site_fract_y
 _atom_site_fract_z
 _atom_site_occupancy
  Si  Si0  1  0.14943500  0.14232300  0.36914800  1
  Si  Si1  1  0.35056500  0.64232300  0.36914800  1
  Si  Si2  1  0.64943500  0.35767700  0.63085200  1
  Si  Si3  1  0.85056500  0.85767700  0.63085200  1
  Pb  Pb0  1  0.25641600  0.42117400  0.11955500  1
  Pb  Pb1  1  0.74358400  0.57882600  0.88044500  1
  Pb  Pb2  1  0.29670700  0.98579600  0.55970900  1
  Pb  Pb3  1  0.20329300  0.48579600  0.55970900  1
  Pb  Pb4  1  0.70329300  0.01420400  0.44029100  1
  Pb  Pb5  1  0.24358400  0.92117400  0.11955500  1
  Pb  Pb6  1  0.51705700  0.19733200  0.83231600  1
  Pb  Pb7  1  0.03473100  0.14271600  0.65048900  1
  Pb  Pb8  1  0.53473100  0.35728400  0.34951100  1
  Pb  Pb9  1  0.96526900  0.85728400  0.34951100  1
  Pb  Pb10  1  0.01705700  0.30266800  0.16768400  1
  Pb  Pb11  1  0.79670700  0.51420400  0.44029100  1
  Pb  Pb12  1  0.46526900  0.64271600  0.65048900  1
  Pb  Pb13  1  0.75641600  0.07882600  0.88044500  1
  Pb  Pb14  1  0.98294300  0.69733200  0.83231600  1
  Pb  Pb15  1  0.48294300  0.80266800  0.16768400  1
  Br  Br0  1  0.15222800  0.86644800  0.72468500  1
  Br  Br1  1  0.88828900  0.61599900  0.12855700  1
  Br  Br2  1  0.61171100  0.11599900  0.12855700  1
  Br  Br3  1  0.65222800  0.63355200  0.27531500  1
  Br  Br4  1  0.37772200  0.16109000  0.17892000  1
  Br  Br5  1  0.11171100  0.38400100  0.87144300  1
  Br  Br6  1  0.87772200  0.33891000  0.82108000  1
  Br  Br7  1  0.84777200  0.13355200  0.27531500  1
  Br  Br8  1  0.62227800  0.83891000  0.82108000  1
  Br  Br9  1  0.12227800  0.66109000  0.17892000  1
  Br  Br10  1  0.38828900  0.88400100  0.87144300  1
  Br  Br11  1  0.00000000  0.00000000  0.00000000  1
  Br  Br12  1  0.34777200  0.36644800  0.72468500  1
  Br  Br13  1  0.50000000  0.50000000  0.00000000  1
  Br  Br14  1  0.00000000  0.50000000  0.50000000  1
  Br  Br15  1  0.50000000  0.00000000  0.50000000  1
  O  O0  1  0.84222900  0.74161400  0.77816700  1
  O  O1  1  0.29140800  0.48903900  0.35420300  1
  O  O2  1  0.65777100  0.24161400  0.77816700  1
  O  O3  1  0.70859200  0.51096100  0.64579700  1
  O  O4  1  0.17249000  0.22394200  0.52318500  1
  O  O5  1  0.32751000  0.72394200  0.52318500  1
  O  O6  1  0.94903500  0.89889800  0.62175200  1
  O  O7  1  0.44903500  0.60110200  0.37824800  1
  O  O8  1  0.79140800  0.01096100  0.64579700  1
  O  O9  1  0.20859200  0.98903900  0.35420300  1
  O  O10  1  0.55096500  0.39889800  0.62175200  1
  O  O11  1  0.67249000  0.27605800  0.47681500  1
  O  O12  1  0.15777100  0.25838600  0.22183300  1
  O  O13  1  0.82751000  0.77605800  0.47681500  1
  O  O14  1  0.05096500  0.10110200  0.37824800  1
  O  O15  1  0.34222900  0.75838600  0.22183300  1
loop_
_geom_bond_atom_site_label_1
_geom_bond_atom_site_label_2
_geom_bond_distance
_geom_bond_site_symmetry_2
Br0 Pb2 2.986092 1_555
Br0 Pb7 3.117168 1_565
Br0 Pb14 3.283107 1_455
Br1 Pb14 3.194375 1_554
Br1 Pb9 3.214733 1_555
Br1 Pb1 3.325899 1_554
Br1 Pb11 3.327965 1_555
Br1 Pb10 3.433906 1_655
Br2 Pb6 3.194375 1_554
Br2 Pb8 3.214733 1_555
Br2 Pb13 3.325899 1_554
Br2 Pb4 3.327965 1_555
Br2 Pb15 3.433906 1_545
Br3 Pb11 2.986092 1_555
Br3 Pb8 3.117168 1_555
Br3 Pb15 3.283107 1_555
Br4 Pb0 3.031219 1_555
Br4 Pb5 3.084361 1_545
Br5 Pb10 3.194375 1_556
Br5 Pb7 3.214733 1_555
Br5 Pb0 3.325899 1_556
Br5 Pb3 3.327965 1_555
Br5 Pb14 3.433906 1_455
Br6 Pb13 3.031219 1_555
Br6 Pb1 3.084361 1_555
Br7 Pb4 2.986092 1_555
Br7 Pb9 3.117168 1_545
Br7 Pb10 3.283107 1_655
Br8 Pb1 3.031219 1_555
Br8 Pb13 3.084361 1_565
Br9 Pb5 3.031219 1_555
Br9 Pb0 3.084361 1_555
Br10 Pb15 3.194375 1_556
Br10 Pb12 3.214733 1_555
Br10 Pb5 3.325899 1_556
Br10 Pb2 3.327965 1_555
Br10 Pb6 3.433906 1_565
Br11 Pb10 3.080614 1_555
Br11 Pb14 3.080614 1_444
Br12 Pb3 2.986092 1_555
Br12 Pb12 3.117168 1_555
Br12 Pb6 3.283107 1_555
Br13 Pb15 3.080614 1_555
Br13 Pb6 3.080614 1_554
Br14 Pb9 3.363727 1_455
Br14 Pb7 3.363727 1_555
Br14 Pb3 3.400637 1_555
Br14 Pb11 3.400637 1_455
Br15 Pb12 3.363727 1_545
Br15 Pb8 3.363727 1_555
Br15 Pb4 3.400637 1_555
Br15 Pb2 3.400637 1_545
O0 Si3 1.656490 1_555
O0 Pb1 2.320561 1_555
O0 Pb14 2.401960 1_555
O1 Si1 1.647103 1_555
O1 Pb0 2.328150 1_555
O1 Pb3 2.383571 1_555
O2 Si2 1.656490 1_555
O2 Pb13 2.320561 1_555
O2 Pb6 2.401960 1_555
O3 Si2 1.647103 1_555
O3 Pb1 2.328150 1_555
O3 Pb11 2.383571 1_555
O4 Si0 1.647498 1_555
O4 Pb3 2.338642 1_555
O4 Pb7 2.638557 1_555
O5 Si1 1.647498 1_555
O5 Pb2 2.338642 1_555
O5 Pb12 2.638557 1_555
O6 Si3 1.664311 1_555
O6 Pb7 2.545959 1_665
O6 Pb9 2.555654 1_555
O6 Pb14 2.607728 1_555
O7 Si1 1.664311 1_555
O7 Pb8 2.545959 1_555
O7 Pb12 2.555654 1_555
O7 Pb15 2.607728 1_555
O8 Si3 1.647103 1_545
O8 Pb13 2.328150 1_555
O8 Pb4 2.383571 1_555
O9 Si0 1.647103 1_565
O9 Pb5 2.328150 1_555
O9 Pb2 2.383571 1_555
O10 Si2 1.664311 1_555
O10 Pb12 2.545959 1_555
O10 Pb8 2.555654 1_555
O10 Pb6 2.607728 1_555
O11 Si2 1.647498 1_555
O11 Pb4 2.338642 1_555
O11 Pb8 2.638557 1_555
O12 Si0 1.656490 1_555
O12 Pb0 2.320561 1_555
O12 Pb10 2.401960 1_555
O13 Si3 1.647498 1_555
O13 Pb11 2.338642 1_555
O13 Pb9 2.638557 1_555
O14 Si0 1.664311 1_555
O14 Pb9 2.545959 1_445
O14 Pb7 2.555654 1_555
O14 Pb10 2.607728 1_555
O15 Si1 1.656490 1_555
O15 Pb5 2.320561 1_555
O15 Pb15 2.401960 1_555
