# generated using pymatgen
data_Nb10Se40I3
_symmetry_space_group_name_H-M   'P 1'
_cell_length_a   9.78710300
_cell_length_b   9.78710300
_cell_length_c   32.35331600
_cell_angle_alpha   90.00000000
_cell_angle_beta   90.00000000
_cell_angle_gamma   90.00000000
_symmetry_Int_Tables_number   1
_chemical_formula_structural   Nb10Se40I3
_chemical_formula_sum   'Nb20 Se80 I6'
_cell_volume   3099.03954001
_cell_formula_units_Z   2
loop_
 _symmetry_equiv_pos_site_id
 _symmetry_equiv_pos_as_xyz
  1  'x, y, z'
loop_
 _atom_site_type_symbol
 _atom_site_label
 _atom_site_symmetry_multiplicity
 _atom_site_fract_x
 _atom_site_fract_y
 _atom_site_fract_z
 _atom_site_occupancy
  Nb  Nb0  1  0.50000000  0.00000000  0.95103900  1
  Nb  Nb1  1  0.00000000  0.50000000  0.25000000  1
  Nb  Nb2  1  0.50000000  0.00000000  0.84911200  1
  Nb  Nb3  1  0.50000000  0.00000000  0.04896100  1
  Nb  Nb4  1  0.00000000  0.50000000  0.95103900  1
  Nb  Nb5  1  0.00000000  0.50000000  0.54896100  1
  Nb  Nb6  1  0.00000000  0.50000000  0.45103900  1
  Nb  Nb7  1  0.00000000  0.50000000  0.75000000  1
  Nb  Nb8  1  0.50000000  0.00000000  0.54896100  1
  Nb  Nb9  1  0.50000000  0.00000000  0.15088800  1
  Nb  Nb10  1  0.50000000  0.00000000  0.25000000  1
  Nb  Nb11  1  0.50000000  0.00000000  0.45103900  1
  Nb  Nb12  1  0.00000000  0.50000000  0.84911200  1
  Nb  Nb13  1  0.50000000  0.00000000  0.75000000  1
  Nb  Nb14  1  0.00000000  0.50000000  0.15088800  1
  Nb  Nb15  1  0.50000000  0.00000000  0.65088800  1
  Nb  Nb16  1  0.00000000  0.50000000  0.65088800  1
  Nb  Nb17  1  0.50000000  0.00000000  0.34911200  1
  Nb  Nb18  1  0.00000000  0.50000000  0.34911200  1
  Nb  Nb19  1  0.00000000  0.50000000  0.04896100  1
  Se  Se0  1  0.96377000  0.71504300  0.30255000  1
  Se  Se1  1  0.79000100  0.44945200  0.10317700  1
  Se  Se2  1  0.18706800  0.38061800  0.79624600  1
  Se  Se3  1  0.61938200  0.81293200  0.70375400  1
  Se  Se4  1  0.10409500  0.30490100  0.50000000  1
  Se  Se5  1  0.32012500  0.12528400  0.59690400  1
  Se  Se6  1  0.71504300  0.96377000  0.80255000  1
  Se  Se7  1  0.44945200  0.20999900  0.10317700  1
  Se  Se8  1  0.78142500  0.51748300  0.00000000  1
  Se  Se9  1  0.61938200  0.18706800  0.20375400  1
  Se  Se10  1  0.71504300  0.96377000  0.19745000  1
  Se  Se11  1  0.18706800  0.61938200  0.70375400  1
  Se  Se12  1  0.81293200  0.38061800  0.70375400  1
  Se  Se13  1  0.69509900  0.10409500  0.50000000  1
  Se  Se14  1  0.48251700  0.21857500  0.50000000  1
  Se  Se15  1  0.44945200  0.79000100  0.39682300  1
  Se  Se16  1  0.55054800  0.20999900  0.60317700  1
  Se  Se17  1  0.28495700  0.03623000  0.80255000  1
  Se  Se18  1  0.71504300  0.03623000  0.30255000  1
  Se  Se19  1  0.67987500  0.12528400  0.90309600  1
  Se  Se20  1  0.87471600  0.32012500  0.59690400  1
  Se  Se21  1  0.55054800  0.79000100  0.10317700  1
  Se  Se22  1  0.87471600  0.32012500  0.40309600  1
  Se  Se23  1  0.30490100  0.89590500  0.50000000  1
  Se  Se24  1  0.32012500  0.87471600  0.09690400  1
  Se  Se25  1  0.28495700  0.03623000  0.19745000  1
  Se  Se26  1  0.81293200  0.38061800  0.29624600  1
  Se  Se27  1  0.21857500  0.48251700  0.00000000  1
  Se  Se28  1  0.12528400  0.32012500  0.09690400  1
  Se  Se29  1  0.20999900  0.44945200  0.39682300  1
  Se  Se30  1  0.03623000  0.28495700  0.69745000  1
  Se  Se31  1  0.28495700  0.96377000  0.69745000  1
  Se  Se32  1  0.28495700  0.96377000  0.30255000  1
  Se  Se33  1  0.81293200  0.61938200  0.20375400  1
  Se  Se34  1  0.03623000  0.28495700  0.30255000  1
  Se  Se35  1  0.03623000  0.71504300  0.80255000  1
  Se  Se36  1  0.51748300  0.21857500  0.00000000  1
  Se  Se37  1  0.38061800  0.81293200  0.20375400  1
  Se  Se38  1  0.12528400  0.67987500  0.40309600  1
  Se  Se39  1  0.87471600  0.67987500  0.09690400  1
  Se  Se40  1  0.38061800  0.81293200  0.79624600  1
  Se  Se41  1  0.32012500  0.12528400  0.40309600  1
  Se  Se42  1  0.67987500  0.12528400  0.09690400  1
  Se  Se43  1  0.55054800  0.79000100  0.89682300  1
  Se  Se44  1  0.10409500  0.69509900  0.00000000  1
  Se  Se45  1  0.78142500  0.48251700  0.50000000  1
  Se  Se46  1  0.81293200  0.61938200  0.79624600  1
  Se  Se47  1  0.38061800  0.18706800  0.29624600  1
  Se  Se48  1  0.48251700  0.78142500  0.00000000  1
  Se  Se49  1  0.20999900  0.44945200  0.60317700  1
  Se  Se50  1  0.20999900  0.55054800  0.10317700  1
  Se  Se51  1  0.44945200  0.79000100  0.60317700  1
  Se  Se52  1  0.79000100  0.55054800  0.39682300  1
  Se  Se53  1  0.89590500  0.69509900  0.50000000  1
  Se  Se54  1  0.71504300  0.03623000  0.69745000  1
  Se  Se55  1  0.79000100  0.55054800  0.60317700  1
  Se  Se56  1  0.61938200  0.18706800  0.79624600  1
  Se  Se57  1  0.79000100  0.44945200  0.89682300  1
  Se  Se58  1  0.96377000  0.28495700  0.80255000  1
  Se  Se59  1  0.12528400  0.67987500  0.59690400  1
  Se  Se60  1  0.20999900  0.55054800  0.89682300  1
  Se  Se61  1  0.30490100  0.10409500  0.00000000  1
  Se  Se62  1  0.87471600  0.67987500  0.90309600  1
  Se  Se63  1  0.44945200  0.20999900  0.89682300  1
  Se  Se64  1  0.18706800  0.38061800  0.20375400  1
  Se  Se65  1  0.67987500  0.87471600  0.40309600  1
  Se  Se66  1  0.03623000  0.71504300  0.19745000  1
  Se  Se67  1  0.55054800  0.20999900  0.39682300  1
  Se  Se68  1  0.96377000  0.28495700  0.19745000  1
  Se  Se69  1  0.67987500  0.87471600  0.59690400  1
  Se  Se70  1  0.18706800  0.61938200  0.29624600  1
  Se  Se71  1  0.51748300  0.78142500  0.50000000  1
  Se  Se72  1  0.38061800  0.18706800  0.70375400  1
  Se  Se73  1  0.12528400  0.32012500  0.90309600  1
  Se  Se74  1  0.69509900  0.89590500  0.00000000  1
  Se  Se75  1  0.96377000  0.71504300  0.69745000  1
  Se  Se76  1  0.21857500  0.51748300  0.50000000  1
  Se  Se77  1  0.32012500  0.87471600  0.90309600  1
  Se  Se78  1  0.61938200  0.81293200  0.29624600  1
  Se  Se79  1  0.89590500  0.30490100  0.00000000  1
  I  I0  1  0.00000000  0.00000000  0.58036900  1
  I  I1  1  0.00000000  0.00000000  0.41963100  1
  I  I2  1  0.00000000  0.00000000  0.91963100  1
  I  I3  1  0.00000000  0.00000000  0.08036900  1
  I  I4  1  0.50000000  0.50000000  0.25000000  1
  I  I5  1  0.50000000  0.50000000  0.75000000  1
loop_
_geom_bond_atom_site_label_1
_geom_bond_atom_site_label_2
_geom_bond_distance
_geom_bond_site_symmetry_2
Nb0 Se19 2.647385 1_555
Nb0 Se77 2.647385 1_545
Nb0 Se36 2.667347 1_556
Nb0 Se48 2.667347 1_546
Nb0 Se61 2.682007 1_556
Nb0 Se74 2.682007 1_546
Nb0 Se43 2.746941 1_545
Nb0 Se63 2.746941 1_555
Nb1 Se70 2.637393 1_555
Nb1 Se64 2.637393 1_555
Nb1 Se33 2.637393 1_455
Nb1 Se26 2.637393 1_455
Nb1 Se66 2.728707 1_555
Nb1 Se0 2.728707 1_455
Nb1 Se68 2.728707 1_455
Nb1 Se34 2.728707 1_555
Nb2 Se6 2.612398 1_545
Nb2 Se17 2.612398 1_555
Nb2 Se43 2.617567 1_545
Nb2 Se63 2.617567 1_555
Nb2 Se56 2.764530 1_555
Nb2 Se40 2.764530 1_545
Nb2 Se19 2.766436 1_555
Nb2 Se77 2.766436 1_545
Nb3 Se42 2.647385 1_555
Nb3 Se24 2.647385 1_545
Nb3 Se36 2.667347 1_555
Nb3 Se48 2.667347 1_545
Nb3 Se61 2.682007 1_555
Nb3 Se74 2.682007 1_545
Nb3 Se21 2.746941 1_545
Nb3 Se7 2.746941 1_555
Nb4 Se73 2.647385 1_555
Nb4 Se62 2.647385 1_455
Nb4 Se27 2.667347 1_556
Nb4 Se8 2.667347 1_456
Nb4 Se44 2.682007 1_556
Nb4 Se79 2.682007 1_456
Nb4 Se60 2.746941 1_555
Nb4 Se57 2.746941 1_455
Nb5 Se59 2.647385 1_555
Nb5 Se20 2.647385 1_455
Nb5 Se76 2.667347 1_555
Nb5 Se45 2.667347 1_455
Nb5 Se4 2.682007 1_555
Nb5 Se53 2.682007 1_455
Nb5 Se55 2.746941 1_455
Nb5 Se49 2.746941 1_555
Nb6 Se38 2.647385 1_555
Nb6 Se22 2.647385 1_455
Nb6 Se76 2.667347 1_555
Nb6 Se45 2.667347 1_455
Nb6 Se4 2.682007 1_555
Nb6 Se53 2.682007 1_455
Nb6 Se52 2.746941 1_455
Nb6 Se29 2.746941 1_555
Nb7 Se11 2.637393 1_555
Nb7 Se2 2.637393 1_555
Nb7 Se46 2.637393 1_455
Nb7 Se12 2.637393 1_455
Nb7 Se75 2.728707 1_455
Nb7 Se35 2.728707 1_555
Nb7 Se30 2.728707 1_555
Nb7 Se58 2.728707 1_455
Nb8 Se5 2.647385 1_555
Nb8 Se69 2.647385 1_545
Nb8 Se14 2.667347 1_555
Nb8 Se71 2.667347 1_545
Nb8 Se13 2.682007 1_555
Nb8 Se23 2.682007 1_545
Nb8 Se16 2.746941 1_555
Nb8 Se51 2.746941 1_545
Nb9 Se10 2.612398 1_545
Nb9 Se25 2.612398 1_555
Nb9 Se21 2.617567 1_545
Nb9 Se7 2.617567 1_555
Nb9 Se9 2.764530 1_555
Nb9 Se37 2.764530 1_545
Nb9 Se42 2.766436 1_555
Nb9 Se24 2.766436 1_545
Nb10 Se9 2.637393 1_555
Nb10 Se47 2.637393 1_555
Nb10 Se78 2.637393 1_545
Nb10 Se37 2.637393 1_545
Nb10 Se10 2.728707 1_545
Nb10 Se18 2.728707 1_555
Nb10 Se25 2.728707 1_555
Nb10 Se32 2.728707 1_545
Nb11 Se41 2.647385 1_555
Nb11 Se65 2.647385 1_545
Nb11 Se14 2.667347 1_555
Nb11 Se71 2.667347 1_545
Nb11 Se13 2.682007 1_555
Nb11 Se23 2.682007 1_545
Nb11 Se67 2.746941 1_555
Nb11 Se15 2.746941 1_545
Nb12 Se35 2.612398 1_555
Nb12 Se58 2.612398 1_455
Nb12 Se60 2.617567 1_555
Nb12 Se57 2.617567 1_455
Nb12 Se2 2.764530 1_555
Nb12 Se46 2.764530 1_455
Nb12 Se73 2.766436 1_555
Nb12 Se62 2.766436 1_455
Nb13 Se56 2.637393 1_555
Nb13 Se72 2.637393 1_555
Nb13 Se3 2.637393 1_545
Nb13 Se40 2.637393 1_545
Nb13 Se54 2.728707 1_555
Nb13 Se6 2.728707 1_545
Nb13 Se31 2.728707 1_545
Nb13 Se17 2.728707 1_555
Nb14 Se66 2.612398 1_555
Nb14 Se68 2.612398 1_455
Nb14 Se50 2.617567 1_555
Nb14 Se1 2.617567 1_455
Nb14 Se64 2.764530 1_555
Nb14 Se33 2.764530 1_455
Nb14 Se28 2.766436 1_555
Nb14 Se39 2.766436 1_455
Nb15 Se54 2.612398 1_555
Nb15 Se31 2.612398 1_545
Nb15 Se16 2.617567 1_555
Nb15 Se51 2.617567 1_545
Nb15 Se72 2.764530 1_555
Nb15 Se3 2.764530 1_545
Nb15 Se5 2.766436 1_555
Nb15 Se69 2.766436 1_545
Nb16 Se75 2.612398 1_455
Nb16 Se30 2.612398 1_555
Nb16 Se55 2.617567 1_455
Nb16 Se49 2.617567 1_555
Nb16 Se11 2.764530 1_555
Nb16 Se12 2.764530 1_455
Nb16 Se59 2.766436 1_555
Nb16 Se20 2.766436 1_455
Nb17 Se18 2.612398 1_555
Nb17 Se32 2.612398 1_545
Nb17 Se67 2.617567 1_555
Nb17 Se15 2.617567 1_545
Nb17 Se47 2.764530 1_555
Nb17 Se78 2.764530 1_545
Nb17 Se41 2.766436 1_555
Nb17 Se65 2.766436 1_545
Nb18 Se0 2.612398 1_455
Nb18 Se34 2.612398 1_555
Nb18 Se52 2.617567 1_455
Nb18 Se29 2.617567 1_555
Nb18 Se70 2.764530 1_555
Nb18 Se26 2.764530 1_455
Nb18 Se38 2.766436 1_555
Nb18 Se22 2.766436 1_455
Nb19 Se28 2.647385 1_555
Nb19 Se39 2.647385 1_455
Nb19 Se27 2.667347 1_555
Nb19 Se8 2.667347 1_455
Nb19 Se44 2.682007 1_555
Nb19 Se79 2.682007 1_455
Nb19 Se50 2.746941 1_555
Nb19 Se1 2.746941 1_455
Se0 Se70 2.386273 1_655
Se1 Se39 2.411313 1_555
Se2 Se58 2.386273 1_455
Se3 Se54 2.386273 1_565
Se4 Se76 2.363069 1_555
Se10 Se9 2.386273 1_565
Se11 Se75 2.386273 1_455
Se12 Se30 2.386273 1_655
Se13 Se14 2.363069 1_555
Se15 Se65 2.411313 1_555
Se16 Se5 2.411313 1_555
Se17 Se40 2.386273 1_545
Se18 Se78 2.386273 1_545
Se19 Se63 2.411313 1_555
Se20 Se55 2.411313 1_555
Se21 Se24 2.411313 1_555
Se22 Se52 2.411313 1_555
Se23 Se71 2.363069 1_555
Se25 Se37 2.386273 1_545
Se26 Se34 2.386273 1_655
Se27 Se44 2.363069 1_555
Se28 Se50 2.411313 1_555
Se29 Se38 2.411313 1_555
Se31 Se72 2.386273 1_565
Se32 Se47 2.386273 1_565
Se33 Se66 2.386273 1_655
Se35 Se46 2.386273 1_455
Se36 Se61 2.363069 1_555
Se41 Se67 2.411313 1_555
Se42 Se7 2.411313 1_555
Se43 Se77 2.411313 1_555
Se45 Se53 2.363069 1_555
Se48 Se74 2.363069 1_555
Se49 Se59 2.411313 1_555
Se51 Se69 2.411313 1_555
Se56 Se6 2.386273 1_545
Se57 Se62 2.411313 1_555
Se60 Se73 2.411313 1_555
Se64 Se68 2.386273 1_455
Se79 Se8 2.363069 1_555
