# generated using pymatgen
data_K(Mo6S7)2
_symmetry_space_group_name_H-M   'P 1'
_cell_length_a   9.27955220
_cell_length_b   9.27955220
_cell_length_c   16.48243400
_cell_angle_alpha   90.00000000
_cell_angle_beta   90.00000000
_cell_angle_gamma   120.00000143
_symmetry_Int_Tables_number   1
_chemical_formula_structural   K(Mo6S7)2
_chemical_formula_sum   'K2 Mo24 S28'
_cell_volume   1229.15318031
_cell_formula_units_Z   2
loop_
 _symmetry_equiv_pos_site_id
 _symmetry_equiv_pos_as_xyz
  1  'x, y, z'
loop_
 _atom_site_type_symbol
 _atom_site_label
 _atom_site_symmetry_multiplicity
 _atom_site_fract_x
 _atom_site_fract_y
 _atom_site_fract_z
 _atom_site_occupancy
  K  K0  1  0.66666700  0.33333300  0.75000000  1
  K  K1  1  0.33333300  0.66666700  0.25000000  1
  Mo  Mo0  1  0.66881300  0.50317500  0.31606900  1
  Mo  Mo1  1  0.65346300  0.15815900  0.45814200  1
  Mo  Mo2  1  0.49682500  0.16563800  0.31606900  1
  Mo  Mo3  1  0.34653700  0.50469600  0.95814200  1
  Mo  Mo4  1  0.15815900  0.65346300  0.95814200  1
  Mo  Mo5  1  0.34653700  0.84184100  0.54185800  1
  Mo  Mo6  1  0.50469600  0.34653700  0.45814200  1
  Mo  Mo7  1  0.84184100  0.49530400  0.45814200  1
  Mo  Mo8  1  0.66881300  0.16563800  0.18393100  1
  Mo  Mo9  1  0.83436200  0.33118700  0.31606900  1
  Mo  Mo10  1  0.49530400  0.84184100  0.95814200  1
  Mo  Mo11  1  0.33118700  0.49682500  0.68393100  1
  Mo  Mo12  1  0.49530400  0.65346300  0.54185800  1
  Mo  Mo13  1  0.50469600  0.15815900  0.04185800  1
  Mo  Mo14  1  0.83436200  0.50317500  0.18393100  1
  Mo  Mo15  1  0.15815900  0.50469600  0.54185800  1
  Mo  Mo16  1  0.50317500  0.83436200  0.68393100  1
  Mo  Mo17  1  0.33118700  0.83436200  0.81606900  1
  Mo  Mo18  1  0.65346300  0.49530400  0.04185800  1
  Mo  Mo19  1  0.84184100  0.34653700  0.04185800  1
  Mo  Mo20  1  0.16563800  0.49682500  0.81606900  1
  Mo  Mo21  1  0.49682500  0.33118700  0.18393100  1
  Mo  Mo22  1  0.16563800  0.66881300  0.68393100  1
  Mo  Mo23  1  0.50317500  0.66881300  0.81606900  1
  S  S0  1  0.33929800  0.36215500  0.81870000  1
  S  S1  1  0.36215500  0.33929800  0.31870000  1
  S  S2  1  0.95758700  0.30940200  0.44261500  1
  S  S3  1  0.36215500  0.02285700  0.18130000  1
  S  S4  1  0.63784500  0.97714300  0.81870000  1
  S  S5  1  0.35181500  0.04241300  0.44261500  1
  S  S6  1  0.63784500  0.66070200  0.68130000  1
  S  S7  1  0.69059800  0.64818500  0.44261500  1
  S  S8  1  0.66666700  0.33333300  0.56813800  1
  S  S9  1  0.35181500  0.30940200  0.05738500  1
  S  S10  1  0.33929800  0.97714300  0.68130000  1
  S  S11  1  0.95758700  0.64818500  0.05738500  1
  S  S12  1  0.64818500  0.69059800  0.94261500  1
  S  S13  1  0.97714300  0.63784500  0.31870000  1
  S  S14  1  0.66070200  0.63784500  0.18130000  1
  S  S15  1  0.69059800  0.04241300  0.05738500  1
  S  S16  1  0.33333300  0.66666700  0.43186200  1
  S  S17  1  0.66666700  0.33333300  0.93186200  1
  S  S18  1  0.02285700  0.66070200  0.81870000  1
  S  S19  1  0.97714300  0.33929800  0.18130000  1
  S  S20  1  0.04241300  0.69059800  0.55738500  1
  S  S21  1  0.04241300  0.35181500  0.94261500  1
  S  S22  1  0.30940200  0.95758700  0.94261500  1
  S  S23  1  0.33333300  0.66666700  0.06813800  1
  S  S24  1  0.02285700  0.36215500  0.68130000  1
  S  S25  1  0.30940200  0.35181500  0.55738500  1
  S  S26  1  0.66070200  0.02285700  0.31870000  1
  S  S27  1  0.64818500  0.95758700  0.55738500  1
loop_
_geom_bond_atom_site_label_1
_geom_bond_atom_site_label_2
_geom_bond_distance
_geom_bond_site_symmetry_2
K0 S8 2.997528 1_555
K0 S17 2.997528 1_555
K0 S24 3.375592 1_655
K0 S4 3.375592 1_545
K0 S18 3.375595 1_655
K0 S10 3.375595 1_545
K0 S6 3.375600 1_555
K0 S0 3.375600 1_555
K1 S23 2.997528 1_555
K1 S16 2.997528 1_555
K1 S3 3.375592 1_565
K1 S13 3.375592 1_455
K1 S26 3.375595 1_565
K1 S19 3.375595 1_455
K1 S1 3.375600 1_555
K1 S14 3.375600 1_555
Mo0 S7 2.435171 1_555
Mo0 S1 2.466728 1_555
Mo0 S13 2.484814 1_555
Mo0 S14 2.568207 1_555
Mo1 S8 2.396911 1_555
Mo1 S2 2.457415 1_555
Mo1 S5 2.459251 1_555
Mo1 S27 2.459900 1_545
Mo1 S26 2.635834 1_555
Mo2 S5 2.435171 1_555
Mo2 S26 2.466729 1_555
Mo2 S1 2.484815 1_555
Mo2 S3 2.568207 1_555
Mo3 S23 2.396917 1_556
Mo3 S21 2.457415 1_555
Mo3 S12 2.459251 1_555
Mo3 S9 2.459900 1_556
Mo3 S0 2.635834 1_555
Mo4 S23 2.396911 1_556
Mo4 S22 2.457415 1_555
Mo4 S21 2.459251 1_555
Mo4 S11 2.459900 1_456
Mo4 S18 2.635834 1_555
Mo5 S16 2.396911 1_555
Mo5 S20 2.457415 1_555
Mo5 S27 2.459251 1_555
Mo5 S5 2.459900 1_565
Mo5 S10 2.635834 1_555
Mo6 S8 2.396917 1_555
Mo6 S5 2.457415 1_555
Mo6 S7 2.459251 1_555
Mo6 S25 2.459900 1_555
Mo6 S1 2.635834 1_555
Mo7 S8 2.396914 1_555
Mo7 S7 2.457415 1_555
Mo7 S2 2.459251 1_555
Mo7 S20 2.459900 1_655
Mo7 S13 2.635834 1_555
Mo8 S15 2.435171 1_555
Mo8 S3 2.466728 1_555
Mo8 S19 2.484814 1_555
Mo8 S26 2.568207 1_555
Mo9 S2 2.435171 1_555
Mo9 S13 2.466728 1_555
Mo9 S26 2.484814 1_555
Mo9 S19 2.568207 1_555
Mo10 S23 2.396914 1_556
Mo10 S12 2.457415 1_555
Mo10 S22 2.459251 1_555
Mo10 S15 2.459900 1_566
Mo10 S4 2.635834 1_555
Mo11 S25 2.435171 1_555
Mo11 S6 2.466728 1_555
Mo11 S24 2.484814 1_555
Mo11 S0 2.568207 1_555
Mo12 S16 2.396917 1_555
Mo12 S27 2.457415 1_555
Mo12 S25 2.459251 1_555
Mo12 S7 2.459900 1_555
Mo12 S6 2.635834 1_555
Mo13 S17 2.396914 1_554
Mo13 S9 2.457415 1_555
Mo13 S15 2.459251 1_555
Mo13 S22 2.459900 1_544
Mo13 S3 2.635834 1_555
Mo14 S11 2.435171 1_555
Mo14 S19 2.466729 1_555
Mo14 S14 2.484815 1_555
Mo14 S13 2.568207 1_555
Mo15 S16 2.396914 1_555
Mo15 S25 2.457415 1_555
Mo15 S20 2.459251 1_555
Mo15 S2 2.459900 1_455
Mo15 S24 2.635834 1_555
Mo16 S27 2.435171 1_555
Mo16 S10 2.466729 1_555
Mo16 S6 2.484815 1_555
Mo16 S4 2.568207 1_555
Mo17 S22 2.435171 1_555
Mo17 S4 2.466728 1_555
Mo17 S18 2.484814 1_555
Mo17 S10 2.568207 1_555
Mo18 S17 2.396917 1_554
Mo18 S11 2.457415 1_555
Mo18 S9 2.459251 1_555
Mo18 S12 2.459900 1_554
Mo18 S14 2.635834 1_555
Mo19 S17 2.396911 1_554
Mo19 S15 2.457415 1_555
Mo19 S11 2.459251 1_555
Mo19 S21 2.459900 1_654
Mo19 S19 2.635834 1_555
Mo20 S21 2.435171 1_555
Mo20 S18 2.466729 1_555
Mo20 S0 2.484815 1_555
Mo20 S24 2.568207 1_555
Mo21 S9 2.435171 1_555
Mo21 S14 2.466728 1_555
Mo21 S3 2.484814 1_555
Mo21 S1 2.568207 1_555
Mo22 S20 2.435171 1_555
Mo22 S24 2.466728 1_555
Mo22 S10 2.484814 1_555
Mo22 S18 2.568207 1_555
Mo23 S12 2.435171 1_555
Mo23 S0 2.466728 1_555
Mo23 S4 2.484814 1_555
Mo23 S6 2.568207 1_555
