# generated using pymatgen
data_GaBiO3
_symmetry_space_group_name_H-M   'P 1'
_cell_length_a   5.15381992
_cell_length_b   5.43275855
_cell_length_c   9.93184812
_cell_angle_alpha   90.00000000
_cell_angle_beta   90.00000000
_cell_angle_gamma   90.00000000
_symmetry_Int_Tables_number   1
_chemical_formula_structural   GaBiO3
_chemical_formula_sum   'Ga4 Bi4 O12'
_cell_volume   278.08637657
_cell_formula_units_Z   4
loop_
 _symmetry_equiv_pos_site_id
 _symmetry_equiv_pos_as_xyz
  1  'x, y, z'
loop_
 _atom_site_type_symbol
 _atom_site_label
 _atom_site_symmetry_multiplicity
 _atom_site_fract_x
 _atom_site_fract_y
 _atom_site_fract_z
 _atom_site_occupancy
  Ga  Ga0  1  0.50000000  0.75000000  0.35802599  1
  Ga  Ga1  1  0.50000000  0.75000000  0.85802599  1
  Ga  Ga2  1  0.50000000  0.25000000  0.14197401  1
  Ga  Ga3  1  0.50000000  0.25000000  0.64197401  1
  Bi  Bi0  1  -0.00000000  0.25000000  0.88778566  1
  Bi  Bi1  1  -0.00000000  0.75000000  0.11221434  1
  Bi  Bi2  1  -0.00000000  0.25000000  0.38778566  1
  Bi  Bi3  1  -0.00000000  0.75000000  0.61221434  1
  O  O0  1  0.76932046  0.09542805  0.05255753  1
  O  O1  1  0.23067954  0.90457195  0.94744247  1
  O  O2  1  0.23067954  0.59542805  0.44744247  1
  O  O3  1  0.76932046  0.40457195  0.55255753  1
  O  O4  1  0.76932046  0.90457195  0.44744247  1
  O  O5  1  0.35867187  0.00000000  0.25000000  1
  O  O6  1  0.35867187  0.50000000  0.75000000  1
  O  O7  1  0.76932046  0.59542805  0.94744247  1
  O  O8  1  0.23067954  0.40457195  0.05255753  1
  O  O9  1  0.64132813  0.50000000  0.25000000  1
  O  O10  1  0.23067954  0.09542805  0.55255753  1
  O  O11  1  0.64132813  0.00000000  0.75000000  1
loop_
_geom_bond_atom_site_label_1
_geom_bond_atom_site_label_2
_geom_bond_distance
_geom_bond_site_symmetry_2
Ga0 O4 1.849454 1_555
Ga0 O2 1.849454 1_555
Ga0 O9 1.877851 1_555
Ga0 O5 1.877851 1_565
Ga1 O1 1.849454 1_555
Ga1 O7 1.849454 1_555
Ga1 O6 1.877851 1_555
Ga1 O11 1.877851 1_565
Ga2 O0 1.849454 1_555
Ga2 O8 1.849454 1_555
Ga2 O9 1.877851 1_555
Ga2 O5 1.877851 1_555
Ga3 O10 1.849454 1_555
Ga3 O3 1.849454 1_555
Ga3 O11 1.877851 1_555
Ga3 O6 1.877851 1_555
Bi0 O0 2.190141 1_456
Bi0 O8 2.190141 1_556
Bi0 O1 2.299179 1_545
Bi0 O7 2.299179 1_455
Bi0 O11 2.671038 1_455
Bi0 O6 2.671038 1_555
Bi1 O1 2.190141 1_554
Bi1 O7 2.190141 1_454
Bi1 O8 2.299179 1_555
Bi1 O0 2.299179 1_465
Bi1 O9 2.671038 1_455
Bi1 O5 2.671038 1_565
Bi2 O10 2.190141 1_555
Bi2 O3 2.190141 1_455
Bi2 O4 2.299179 1_445
Bi2 O2 2.299179 1_555
Bi2 O9 2.671038 1_455
Bi2 O5 2.671038 1_555
Bi3 O2 2.190141 1_555
Bi3 O4 2.190141 1_455
Bi3 O10 2.299179 1_565
Bi3 O3 2.299179 1_455
Bi3 O6 2.671038 1_555
Bi3 O11 2.671038 1_465
