# generated using pymatgen
data_LaFePO
_symmetry_space_group_name_H-M   'P 1'
_cell_length_a   4.06887900
_cell_length_b   4.06887900
_cell_length_c   9.08498100
_cell_angle_alpha   90.00000000
_cell_angle_beta   90.00000000
_cell_angle_gamma   90.00000000
_symmetry_Int_Tables_number   1
_chemical_formula_structural   LaFePO
_chemical_formula_sum   'La2 Fe2 P2 O2'
_cell_volume   150.40891328
_cell_formula_units_Z   2
loop_
 _symmetry_equiv_pos_site_id
 _symmetry_equiv_pos_as_xyz
  1  'x, y, z'
loop_
 _atom_site_type_symbol
 _atom_site_label
 _atom_site_symmetry_multiplicity
 _atom_site_fract_x
 _atom_site_fract_y
 _atom_site_fract_z
 _atom_site_occupancy
  La  La0  1  0.50000000  0.00000000  0.13515100  1
  La  La1  1  0.00000000  0.50000000  0.86484900  1
  Fe  Fe0  1  0.00000000  0.00000000  0.50000000  1
  Fe  Fe1  1  0.50000000  0.50000000  0.50000000  1
  P  P0  1  0.50000000  0.00000000  0.66575300  1
  P  P1  1  0.00000000  0.50000000  0.33424700  1
  O  O0  1  0.00000000  0.00000000  0.00000000  1
  O  O1  1  0.50000000  0.50000000  0.00000000  1
loop_
_geom_bond_atom_site_label_1
_geom_bond_atom_site_label_2
_geom_bond_distance
_geom_bond_site_symmetry_2
La0 O0 2.376246 1_655
La0 O1 2.376246 1_555
La0 O0 2.376246 1_555
La0 O1 2.376246 1_545
La0 P1 3.398468 1_645
La0 P1 3.398468 1_555
La0 P1 3.398468 1_545
La0 P1 3.398468 1_655
La1 O0 2.376246 1_556
La1 O0 2.376246 1_566
La1 O1 2.376246 1_556
La1 O1 2.376246 1_456
La1 P0 3.398468 1_555
La1 P0 3.398468 1_455
La1 P0 3.398468 1_565
La1 P0 3.398468 1_465
Fe0 P1 2.531120 1_555
Fe0 P1 2.531120 1_545
Fe0 P0 2.531120 1_455
Fe0 P0 2.531120 1_555
Fe1 P1 2.531120 1_555
Fe1 P1 2.531120 1_655
Fe1 P0 2.531120 1_555
Fe1 P0 2.531120 1_565
