# generated using pymatgen
data_SmH18(IO3)3
_symmetry_space_group_name_H-M   'P 1'
_cell_length_a   8.07613300
_cell_length_b   8.97714300
_cell_length_c   11.59979400
_cell_angle_alpha   90.00000000
_cell_angle_beta   90.00000000
_cell_angle_gamma   90.00000000
_symmetry_Int_Tables_number   1
_chemical_formula_structural   SmH18(IO3)3
_chemical_formula_sum   'Sm2 H36 I6 O18'
_cell_volume   840.99203448
_cell_formula_units_Z   2
loop_
 _symmetry_equiv_pos_site_id
 _symmetry_equiv_pos_as_xyz
  1  'x, y, z'
loop_
 _atom_site_type_symbol
 _atom_site_label
 _atom_site_symmetry_multiplicity
 _atom_site_fract_x
 _atom_site_fract_y
 _atom_site_fract_z
 _atom_site_occupancy
  Sm  Sm0  1  0.50000000  0.33588100  0.00000000  1
  Sm  Sm1  1  0.00000000  0.66411900  0.50000000  1
  H  H0  1  0.21477700  0.51934100  0.10029400  1
  H  H1  1  0.71477700  0.48065900  0.39970600  1
  H  H2  1  0.78522300  0.51934100  0.89970600  1
  H  H3  1  0.28522300  0.48065900  0.60029400  1
  H  H4  1  0.28522300  0.48065900  0.39970600  1
  H  H5  1  0.78522300  0.51934100  0.10029400  1
  H  H6  1  0.71477700  0.48065900  0.60029400  1
  H  H7  1  0.21477700  0.51934100  0.89970600  1
  H  H8  1  0.20983800  0.36939400  0.17023500  1
  H  H9  1  0.70983800  0.63060600  0.32976500  1
  H  H10  1  0.79016200  0.36939400  0.82976500  1
  H  H11  1  0.29016200  0.63060600  0.67023500  1
  H  H12  1  0.29016200  0.63060600  0.32976500  1
  H  H13  1  0.79016200  0.36939400  0.17023500  1
  H  H14  1  0.70983800  0.63060600  0.67023500  1
  H  H15  1  0.20983800  0.36939400  0.82976500  1
  H  H16  1  0.50000000  0.68118000  0.93153600  1
  H  H17  1  0.00000000  0.31882000  0.56846400  1
  H  H18  1  0.50000000  0.68118000  0.06846400  1
  H  H19  1  0.00000000  0.31882000  0.43153600  1
  H  H20  1  0.77959100  0.11637300  0.93236000  1
  H  H21  1  0.27959100  0.88362700  0.56764000  1
  H  H22  1  0.22040900  0.11637300  0.06764000  1
  H  H23  1  0.72040900  0.88362700  0.43236000  1
  H  H24  1  0.72040900  0.88362700  0.56764000  1
  H  H25  1  0.22040900  0.11637300  0.93236000  1
  H  H26  1  0.27959100  0.88362700  0.43236000  1
  H  H27  1  0.77959100  0.11637300  0.06764000  1
  H  H28  1  0.50000000  0.09503800  0.20103100  1
  H  H29  1  0.00000000  0.90496200  0.29896900  1
  H  H30  1  0.50000000  0.09503800  0.79896900  1
  H  H31  1  0.00000000  0.90496200  0.70103100  1
  H  H32  1  0.50000000  0.24809800  0.26642700  1
  H  H33  1  0.00000000  0.75190200  0.23357300  1
  H  H34  1  0.50000000  0.24809800  0.73357300  1
  H  H35  1  0.00000000  0.75190200  0.76642700  1
  I  I0  1  0.00000000  0.17147000  0.23725600  1
  I  I1  1  0.50000000  0.82853000  0.26274400  1
  I  I2  1  0.00000000  0.17147000  0.76274400  1
  I  I3  1  0.50000000  0.82853000  0.73725600  1
  I  I4  1  0.50000000  0.30681700  0.50000000  1
  I  I5  1  0.00000000  0.69318300  0.00000000  1
  O  O0  1  0.28555100  0.43774700  0.12922200  1
  O  O1  1  0.78555100  0.56225300  0.37077800  1
  O  O2  1  0.71444900  0.43774700  0.87077800  1
  O  O3  1  0.21444900  0.56225300  0.62922200  1
  O  O4  1  0.21444900  0.56225300  0.37077800  1
  O  O5  1  0.71444900  0.43774700  0.12922200  1
  O  O6  1  0.78555100  0.56225300  0.62922200  1
  O  O7  1  0.28555100  0.43774700  0.87077800  1
  O  O8  1  0.50000000  0.61607600  0.00000000  1
  O  O9  1  0.00000000  0.38392400  0.50000000  1
  O  O10  1  0.70720100  0.12915900  0.00000000  1
  O  O11  1  0.20720100  0.87084100  0.50000000  1
  O  O12  1  0.29279900  0.12915900  0.00000000  1
  O  O13  1  0.79279900  0.87084100  0.50000000  1
  O  O14  1  0.50000000  0.20419200  0.18887400  1
  O  O15  1  0.00000000  0.79580800  0.31112600  1
  O  O16  1  0.50000000  0.20419200  0.81112600  1
  O  O17  1  0.00000000  0.79580800  0.68887400  1
loop_
_geom_bond_atom_site_label_1
_geom_bond_atom_site_label_2
_geom_bond_distance
_geom_bond_site_symmetry_2
H0 O0 0.987842 1_555
H1 O1 0.987842 1_555
H2 O2 0.987842 1_555
H3 O3 0.987842 1_555
H4 O4 0.987842 1_555
H5 O5 0.987842 1_555
H6 O6 0.987842 1_555
H7 O7 0.987842 1_555
H8 O0 0.988305 1_555
H9 O1 0.988305 1_555
H10 O2 0.988305 1_555
H11 O3 0.988305 1_555
H12 O4 0.988305 1_555
H13 O5 0.988305 1_555
H14 O6 0.988305 1_555
H15 O7 0.988305 1_555
H16 O8 0.986044 1_556
H17 O9 0.986044 1_555
H18 O8 0.986044 1_555
H19 O9 0.986044 1_555
H20 O10 0.985181 1_556
H21 O11 0.985181 1_555
H22 O12 0.985181 1_555
H23 O13 0.985181 1_555
H24 O13 0.985181 1_555
H25 O12 0.985181 1_556
H26 O11 0.985181 1_555
H27 O10 0.985181 1_555
H28 O14 0.989986 1_555
H29 O15 0.989986 1_555
H30 O16 0.989986 1_555
H31 O17 0.989986 1_555
H32 O14 0.982157 1_555
H33 O15 0.982157 1_555
H34 O16 0.982157 1_555
H35 O17 0.982157 1_555
O0 Sm0 2.466300 1_555
O1 Sm1 2.466300 1_655
O2 Sm0 2.466300 1_556
O3 Sm1 2.466300 1_555
O4 Sm1 2.466300 1_555
O5 Sm0 2.466300 1_555
O6 Sm1 2.466300 1_655
O7 Sm0 2.466300 1_556
O8 Sm0 2.515351 1_555
O9 Sm1 2.515351 1_555
O10 Sm0 2.498820 1_555
O11 Sm1 2.498820 1_555
O12 Sm0 2.498820 1_555
O13 Sm1 2.498820 1_655
O14 Sm0 2.489501 1_555
O15 Sm1 2.489501 1_555
O16 Sm0 2.489501 1_556
O17 Sm1 2.489501 1_555
