# generated using pymatgen
data_Dy2Te5O13
_symmetry_space_group_name_H-M   'P 1'
_cell_length_a   6.96164471
_cell_length_b   8.64278518
_cell_length_c   10.56863779
_cell_angle_alpha   88.94587757
_cell_angle_beta   93.12527748
_cell_angle_gamma   105.05927181
_symmetry_Int_Tables_number   1
_chemical_formula_structural   Dy2Te5O13
_chemical_formula_sum   'Dy4 Te10 O26'
_cell_volume   613.13647319
_cell_formula_units_Z   2
loop_
 _symmetry_equiv_pos_site_id
 _symmetry_equiv_pos_as_xyz
  1  'x, y, z'
loop_
 _atom_site_type_symbol
 _atom_site_label
 _atom_site_symmetry_multiplicity
 _atom_site_fract_x
 _atom_site_fract_y
 _atom_site_fract_z
 _atom_site_occupancy
  Dy  Dy0  1  0.55270762  0.47263523  0.82098740  1
  Dy  Dy1  1  0.99746520  0.26230652  0.76214546  1
  Dy  Dy2  1  0.00253480  0.73769348  0.23785454  1
  Dy  Dy3  1  0.44729238  0.52736477  0.17901260  1
  Te  Te0  1  0.27393235  0.60528521  0.51567982  1
  Te  Te1  1  0.29234262  0.12111177  0.02651717  1
  Te  Te2  1  0.72606765  0.39471479  0.48432018  1
  Te  Te3  1  0.70765738  0.87888823  0.97348283  1
  Te  Te4  1  0.43473764  0.09824188  0.69707944  1
  Te  Te5  1  0.56526236  0.90175812  0.30292056  1
  Te  Te6  1  0.12251719  0.65099228  0.89252899  1
  Te  Te7  1  0.15389419  0.19579673  0.36105796  1
  Te  Te8  1  0.84610581  0.80420327  0.63894204  1
  Te  Te9  1  0.87748281  0.34900772  0.10747101  1
  O  O0  1  0.65576778  0.97998897  0.12568615  1
  O  O1  1  0.12245877  0.50930088  0.10564635  1
  O  O2  1  0.87754123  0.49069912  0.89435365  1
  O  O3  1  0.45970364  0.80479422  0.47990923  1
  O  O4  1  0.66561818  0.51367229  0.61651671  1
  O  O5  1  0.32657000  0.25844241  0.22852602  1
  O  O6  1  0.76510241  0.49532859  0.18462921  1
  O  O7  1  0.66822515  0.22372294  0.77696797  1
  O  O8  1  0.06287553  0.18110981  0.96546944  1
  O  O9  1  0.68662030  0.73381708  0.28936177  1
  O  O10  1  0.46553845  0.32744251  0.00251218  1
  O  O11  1  0.06291289  0.73095444  0.72154245  1
  O  O12  1  0.05944409  0.98446890  0.30747599  1
  O  O13  1  0.33438182  0.48632771  0.38348329  1
  O  O14  1  0.34423222  0.02001103  0.87431385  1
  O  O15  1  0.53446155  0.67255749  0.99748782  1
  O  O16  1  0.54029636  0.19520578  0.52009077  1
  O  O17  1  0.04713424  0.65015870  0.43584735  1
  O  O18  1  0.93708711  0.26904556  0.27845755  1
  O  O19  1  0.23489759  0.50467141  0.81537079  1
  O  O20  1  0.94055591  0.01553110  0.69252401  1
  O  O21  1  0.95286576  0.34984130  0.56415265  1
  O  O22  1  0.67343000  0.74155759  0.77147398  1
  O  O23  1  0.93712447  0.81889019  0.03453056  1
  O  O24  1  0.31337970  0.26618292  0.71063823  1
  O  O25  1  0.33177485  0.77627706  0.22303203  1
loop_
_geom_bond_atom_site_label_1
_geom_bond_atom_site_label_2
_geom_bond_distance
_geom_bond_site_symmetry_2
Dy0 O10 2.294807 1_556
Dy0 O19 2.297533 1_555
Dy0 O2 2.317157 1_555
Dy0 O22 2.317413 1_555
Dy0 O4 2.329297 1_555
Dy0 O24 2.374814 1_555
Dy0 O7 2.543197 1_555
Dy0 O15 2.596113 1_555
Dy1 O20 2.198679 1_555
Dy1 O7 2.242610 1_555
Dy1 O21 2.245072 1_555
Dy1 O24 2.286020 1_655
Dy1 O8 2.306793 1_655
Dy1 O19 2.362025 1_655
Dy1 O2 2.762398 1_555
Dy2 O12 2.198679 1_555
Dy2 O25 2.242610 1_555
Dy2 O17 2.245072 1_555
Dy2 O9 2.286020 1_455
Dy2 O23 2.306793 1_455
Dy2 O6 2.362025 1_455
Dy2 O1 2.762398 1_555
Dy3 O15 2.294807 1_554
Dy3 O6 2.297533 1_555
Dy3 O1 2.317157 1_555
Dy3 O5 2.317413 1_555
Dy3 O13 2.329297 1_555
Dy3 O9 2.374814 1_555
Dy3 O25 2.543197 1_555
Dy3 O10 2.596113 1_555
O0 Te3 1.939236 1_554
O0 Te5 2.055106 1_555
O1 Te9 1.898165 1_455
O1 Te6 2.543845 1_554
O2 Te6 1.898165 1_655
O2 Te9 2.543845 1_556
O3 Te0 1.912921 1_555
O3 Te5 2.124477 1_555
O4 Te2 1.878275 1_555
O4 Te8 2.507986 1_555
O5 Te7 1.875528 1_555
O5 Te1 2.431955 1_555
O6 Te9 1.870276 1_555
O7 Te4 1.870602 1_555
O8 Te1 1.882240 1_556
O8 Te9 2.699681 1_456
O9 Te5 1.870607 1_555
O10 Te1 1.896739 1_555
O11 Te8 1.942543 1_455
O11 Te6 1.984108 1_555
O12 Te7 1.860748 1_565
O13 Te0 1.878275 1_555
O13 Te7 2.507986 1_555
O14 Te1 1.939236 1_556
O14 Te4 2.055106 1_555
O15 Te3 1.896739 1_555
O16 Te2 1.912921 1_555
O16 Te4 2.124477 1_555
O17 Te0 1.875118 1_555
O18 Te7 1.942543 1_655
O18 Te9 1.984108 1_555
O19 Te6 1.870276 1_555
O20 Te8 1.860748 1_545
O21 Te2 1.875118 1_555
O22 Te8 1.875528 1_555
O22 Te3 2.431955 1_555
O23 Te3 1.882240 1_554
O23 Te6 2.699681 1_654
O24 Te4 1.870607 1_555
O25 Te5 1.870602 1_555
