# generated using pymatgen
data_Ho2Cu2O5
_symmetry_space_group_name_H-M   'P 1'
_cell_length_a   3.50962900
_cell_length_b   10.88107400
_cell_length_c   12.51726400
_cell_angle_alpha   90.00000000
_cell_angle_beta   90.00000000
_cell_angle_gamma   90.00000000
_symmetry_Int_Tables_number   1
_chemical_formula_structural   Ho2Cu2O5
_chemical_formula_sum   'Ho8 Cu8 O20'
_cell_volume   478.01594760
_cell_formula_units_Z   4
loop_
 _symmetry_equiv_pos_site_id
 _symmetry_equiv_pos_as_xyz
  1  'x, y, z'
loop_
 _atom_site_type_symbol
 _atom_site_label
 _atom_site_symmetry_multiplicity
 _atom_site_fract_x
 _atom_site_fract_y
 _atom_site_fract_z
 _atom_site_occupancy
  Ho  Ho0  1  0.27751100  0.54267200  0.83053600  1
  Ho  Ho1  1  0.72248900  0.45732800  0.33053600  1
  Ho  Ho2  1  0.22248900  0.04267200  0.83053600  1
  Ho  Ho3  1  0.77751100  0.95732800  0.33053600  1
  Ho  Ho4  1  0.27882800  0.70753400  0.50290200  1
  Ho  Ho5  1  0.72117200  0.29246600  0.00290200  1
  Ho  Ho6  1  0.22117200  0.20753400  0.50290200  1
  Ho  Ho7  1  0.77882800  0.79246600  0.00290200  1
  Cu  Cu0  1  0.84370200  0.76191400  0.71943500  1
  Cu  Cu1  1  0.15629800  0.23808600  0.21943500  1
  Cu  Cu2  1  0.65629800  0.26191400  0.71943500  1
  Cu  Cu3  1  0.34370200  0.73808600  0.21943500  1
  Cu  Cu4  1  0.83973300  0.48847700  0.61347800  1
  Cu  Cu5  1  0.16026700  0.51152300  0.11347800  1
  Cu  Cu6  1  0.66026700  0.98847700  0.61347800  1
  Cu  Cu7  1  0.33973300  0.01152300  0.11347800  1
  O  O0  1  0.27260500  0.92306300  0.97411600  1
  O  O1  1  0.72739500  0.07693700  0.47411600  1
  O  O2  1  0.22739500  0.42306300  0.97411600  1
  O  O3  1  0.77260500  0.57693700  0.47411600  1
  O  O4  1  0.72459200  0.92848200  0.76464400  1
  O  O5  1  0.27540800  0.07151800  0.26464400  1
  O  O6  1  0.77540800  0.42848200  0.76464400  1
  O  O7  1  0.22459200  0.57151800  0.26464400  1
  O  O8  1  0.15525100  0.62471900  0.66665800  1
  O  O9  1  0.84474900  0.37528100  0.16665800  1
  O  O10  1  0.34474900  0.12471900  0.66665800  1
  O  O11  1  0.65525100  0.87528100  0.16665800  1
  O  O12  1  0.78099200  0.82206200  0.56783800  1
  O  O13  1  0.21900800  0.17793800  0.06783800  1
  O  O14  1  0.71900800  0.32206200  0.56783800  1
  O  O15  1  0.28099200  0.67793800  0.06783800  1
  O  O16  1  0.27503200  0.82669000  0.35869300  1
  O  O17  1  0.72496800  0.17331000  0.85869300  1
  O  O18  1  0.22496800  0.32669000  0.35869300  1
  O  O19  1  0.77503200  0.67331000  0.85869300  1
loop_
_geom_bond_atom_site_label_1
_geom_bond_atom_site_label_2
_geom_bond_distance
_geom_bond_site_symmetry_2
Ho0 O2 2.225939 1_555
Ho0 O8 2.277934 1_555
Ho0 O19 2.278979 1_555
Ho0 O19 2.292338 1_455
Ho0 O6 2.297309 1_555
Ho0 O6 2.308557 1_455
Ho1 O3 2.225939 1_555
Ho1 O9 2.277934 1_555
Ho1 O18 2.278979 1_555
Ho1 O18 2.292338 1_655
Ho1 O7 2.297309 1_555
Ho1 O7 2.308557 1_655
Ho2 O0 2.225939 1_545
Ho2 O10 2.277934 1_555
Ho2 O17 2.278979 1_455
Ho2 O17 2.292338 1_555
Ho2 O4 2.297309 1_445
Ho2 O4 2.308557 1_545
Ho3 O1 2.225939 1_565
Ho3 O11 2.277934 1_555
Ho3 O16 2.278979 1_655
Ho3 O16 2.292338 1_555
Ho3 O5 2.297309 1_665
Ho3 O5 2.308557 1_565
Ho4 O16 2.222521 1_555
Ho4 O3 2.269884 1_555
Ho4 O8 2.280724 1_555
Ho4 O12 2.294872 1_455
Ho4 O3 2.303405 1_455
Ho4 O12 2.306458 1_555
Ho5 O17 2.222521 1_554
Ho5 O2 2.269884 1_554
Ho5 O9 2.280724 1_555
Ho5 O13 2.294872 1_655
Ho5 O2 2.303405 1_654
Ho5 O13 2.306458 1_555
Ho6 O18 2.222521 1_555
Ho6 O1 2.269884 1_455
Ho6 O10 2.280724 1_555
Ho6 O14 2.294872 1_555
Ho6 O1 2.303405 1_555
Ho6 O14 2.306458 1_455
Ho7 O19 2.222521 1_554
Ho7 O0 2.269884 1_654
Ho7 O11 2.280724 1_555
Ho7 O15 2.294872 1_555
Ho7 O0 2.303405 1_554
Ho7 O15 2.306458 1_655
Cu0 O4 1.944202 1_555
Cu0 O8 1.964824 1_655
Cu0 O19 2.006511 1_555
Cu0 O12 2.019303 1_555
Cu1 O5 1.944202 1_555
Cu1 O9 1.964824 1_455
Cu1 O18 2.006511 1_555
Cu1 O13 2.019303 1_555
Cu2 O6 1.944202 1_555
Cu2 O10 1.964824 1_555
Cu2 O17 2.006511 1_555
Cu2 O14 2.019303 1_555
Cu3 O7 1.944202 1_555
Cu3 O11 1.964824 1_555
Cu3 O16 2.006511 1_555
Cu3 O15 2.019303 1_555
Cu4 O14 1.945455 1_555
Cu4 O8 1.966476 1_655
Cu4 O3 2.006247 1_555
Cu4 O6 2.014321 1_555
Cu5 O15 1.945455 1_555
Cu5 O9 1.966476 1_455
Cu5 O2 2.006247 1_554
Cu5 O7 2.014321 1_555
Cu6 O12 1.945455 1_555
Cu6 O10 1.966476 1_565
Cu6 O1 2.006247 1_565
Cu6 O4 2.014321 1_555
Cu7 O13 1.945455 1_555
Cu7 O11 1.966476 1_545
Cu7 O0 2.006247 1_544
Cu7 O5 2.014321 1_555
