# generated using pymatgen
data_Sm3(AlNi3)2
_symmetry_space_group_name_H-M   'P 1'
_cell_length_a   7.76192859
_cell_length_b   7.76193058
_cell_length_c   7.76192445
_cell_angle_alpha   109.46805628
_cell_angle_beta   109.46847200
_cell_angle_gamma   109.46902760
_symmetry_Int_Tables_number   1
_chemical_formula_structural   Sm3(AlNi3)2
_chemical_formula_sum   'Sm6 Al4 Ni12'
_cell_volume   360.02309123
_cell_formula_units_Z   2
loop_
 _symmetry_equiv_pos_site_id
 _symmetry_equiv_pos_as_xyz
  1  'x, y, z'
loop_
 _atom_site_type_symbol
 _atom_site_label
 _atom_site_symmetry_multiplicity
 _atom_site_fract_x
 _atom_site_fract_y
 _atom_site_fract_z
 _atom_site_occupancy
  Sm  Sm0  1  0.29362603  0.00004280  0.29360245  1
  Sm  Sm1  1  -0.00006880  0.29353414  0.29354350  1
  Sm  Sm2  1  -0.00005893  0.70639352  0.70640206  1
  Sm  Sm3  1  0.70644816  0.00005534  0.70642232  1
  Sm  Sm4  1  0.29361027  0.29357132  0.00000889  1
  Sm  Sm5  1  0.70644580  0.70640385  0.00002162  1
  Al  Al0  1  0.50002025  0.00002871  0.00003320  1
  Al  Al1  1  -0.00002132  0.49998641  -0.00001886  1
  Al  Al2  1  0.50001972  0.49998609  0.49999295  1
  Al  Al3  1  -0.00001781  -0.00000008  0.49999426  1
  Ni  Ni0  1  0.66677708  0.33354392  0.66676674  1
  Ni  Ni1  1  0.66676374  0.33322740  -0.00001581  1
  Ni  Ni2  1  0.33327004  0.66680696  0.00008258  1
  Ni  Ni3  1  0.33359260  0.66678917  0.66679686  1
  Ni  Ni4  1  0.66680118  0.66675280  0.33355199  1
  Ni  Ni5  1  0.33327031  0.66645097  0.33318034  1
  Ni  Ni6  1  0.33329428  0.33314643  0.66644354  1
  Ni  Ni7  1  0.66641795  0.33319748  0.33322550  1
  Ni  Ni8  1  -0.00013961  0.66672119  0.33314001  1
  Ni  Ni9  1  0.66680473  0.00007587  0.33327862  1
  Ni  Ni10  1  0.33330441  0.00015522  0.66684134  1
  Ni  Ni11  1  -0.00016008  0.33313049  0.66670591  1
loop_
_geom_bond_atom_site_label_1
_geom_bond_atom_site_label_2
_geom_bond_distance
_geom_bond_site_symmetry_2
Al0 Ni7 2.476535 1_555
Al0 Ni9 2.476595 1_555
Al0 Ni1 2.476603 1_555
Al0 Ni2 2.476769 1_545
Al0 Ni10 2.476844 1_554
Al0 Ni3 2.476960 1_544
Al0 Sm4 3.192436 1_555
Al0 Sm0 3.192494 1_555
Al0 Sm1 3.192496 1_655
Al0 Sm3 3.192995 1_554
Al0 Sm5 3.193068 1_545
Al0 Sm2 3.193599 1_544
Al1 Ni11 2.476531 1_554
Al1 Ni1 2.476547 1_455
Al1 Ni8 2.476623 1_555
Al1 Ni0 2.476688 1_454
Al1 Ni2 2.476723 1_555
Al1 Ni5 2.476961 1_555
Al1 Sm5 3.192421 1_455
Al1 Sm2 3.192615 1_554
Al1 Sm3 3.192660 1_454
Al1 Sm1 3.192807 1_555
Al1 Sm4 3.193045 1_555
Al1 Sm0 3.193478 1_565
Al2 Ni7 2.476230 1_555
Al2 Ni0 2.476417 1_555
Al2 Ni4 2.476465 1_555
Al2 Ni6 2.476599 1_555
Al2 Ni3 2.476632 1_555
Al2 Ni5 2.476695 1_555
Al2 Sm2 3.192452 1_655
Al2 Sm0 3.192628 1_555
Al2 Sm4 3.192893 1_555
Al2 Sm5 3.193187 1_556
Al2 Sm3 3.193449 1_565
Al2 Sm1 3.193548 1_555
Al3 Ni11 2.476499 1_555
Al3 Ni9 2.476543 1_455
Al3 Ni8 2.476623 1_545
Al3 Ni4 2.476726 1_445
Al3 Ni10 2.476761 1_555
Al3 Ni6 2.476840 1_555
Al3 Sm3 3.192486 1_455
Al3 Sm1 3.192608 1_555
Al3 Sm2 3.192805 1_545
Al3 Sm5 3.192931 1_445
Al3 Sm0 3.192975 1_555
Al3 Sm4 3.193209 1_556
Ni0 Ni11 2.586438 1_655
Ni0 Ni6 2.586607 1_555
Ni0 Ni7 2.587098 1_555
Ni0 Ni1 2.587263 1_556
Ni0 Sm3 2.808772 1_555
Ni0 Sm0 2.809222 1_555
Ni0 Sm2 3.007475 1_655
Ni0 Sm5 3.007786 1_556
Ni1 Ni10 2.586813 1_554
Ni1 Ni8 2.586999 1_655
Ni1 Ni7 2.587567 1_555
Ni1 Sm5 2.808852 1_555
Ni1 Sm4 2.808904 1_555
Ni1 Sm1 3.007599 1_655
Ni1 Sm3 3.007603 1_554
Ni2 Ni5 2.586401 1_555
Ni2 Ni9 2.587654 1_565
Ni2 Ni3 2.587728 1_554
Ni2 Sm4 2.809242 1_555
Ni2 Sm5 2.809291 1_555
Ni2 Sm0 3.007555 1_565
Ni2 Sm2 3.008347 1_554
Ni3 Ni5 2.587799 1_555
Ni3 Ni6 2.588027 1_555
Ni3 Sm2 2.809686 1_555
Ni3 Sm1 2.810085 1_555
Ni3 Sm5 3.007830 1_556
Ni3 Sm3 3.007943 1_565
Ni4 Ni8 2.586331 1_655
Ni4 Ni5 2.587102 1_555
Ni4 Ni7 2.587199 1_555
Ni4 Ni9 2.587929 1_565
Ni4 Sm5 2.808998 1_555
Ni4 Sm4 2.809464 1_555
Ni4 Sm2 3.007380 1_655
Ni4 Sm3 3.008110 1_565
Ni5 Ni8 2.588500 1_555
Ni5 Sm0 2.809261 1_565
Ni5 Sm3 2.809718 1_565
Ni5 Sm4 3.007591 1_555
Ni5 Sm1 3.008490 1_555
Ni6 Sm4 2.809161 1_556
Ni6 Sm5 2.809635 1_556
Ni6 Sm0 3.007101 1_555
Ni6 Sm1 3.008616 1_555
Ni7 Ni9 2.586806 1_555
Ni7 Sm1 2.809019 1_655
Ni7 Sm2 2.809433 1_655
Ni7 Sm0 3.007199 1_555
Ni7 Sm4 3.007527 1_555
Ni8 Sm2 2.809406 1_555
Ni8 Sm1 2.809414 1_555
Ni8 Sm5 3.006733 1_455
Ni8 Sm0 3.008381 1_565
Ni9 Sm3 2.808841 1_555
Ni9 Sm0 2.808895 1_555
Ni9 Sm1 3.007187 1_655
Ni9 Sm5 3.008241 1_545
Ni10 Ni6 2.585712 1_555
Ni10 Ni3 2.588196 1_545
Ni10 Ni8 2.589154 1_545
Ni10 Sm0 2.809120 1_555
Ni10 Sm3 2.809191 1_555
Ni10 Sm4 3.007057 1_556
Ni10 Sm2 3.008688 1_545
Ni11 Ni9 2.586406 1_455
Ni11 Ni6 2.588887 1_555
Ni11 Ni2 2.588906 1_556
Ni11 Sm1 2.809282 1_555
Ni11 Sm2 2.809312 1_555
Ni11 Sm3 3.006578 1_455
Ni11 Sm4 3.008433 1_556
