# generated using pymatgen
data_Ca3Ge(ClO2)2
_symmetry_space_group_name_H-M   'P 1'
_cell_length_a   5.76546400
_cell_length_b   10.44754600
_cell_length_c   11.78677000
_cell_angle_alpha   90.00000000
_cell_angle_beta   90.00000000
_cell_angle_gamma   90.00000000
_symmetry_Int_Tables_number   1
_chemical_formula_structural   Ca3Ge(ClO2)2
_chemical_formula_sum   'Ca12 Ge4 Cl8 O16'
_cell_volume   709.97550575
_cell_formula_units_Z   4
loop_
 _symmetry_equiv_pos_site_id
 _symmetry_equiv_pos_as_xyz
  1  'x, y, z'
loop_
 _atom_site_type_symbol
 _atom_site_label
 _atom_site_symmetry_multiplicity
 _atom_site_fract_x
 _atom_site_fract_y
 _atom_site_fract_z
 _atom_site_occupancy
  Ca  Ca0  1  0.38275600  0.58029500  0.33668100  1
  Ca  Ca1  1  0.39802500  0.25000000  0.95966900  1
  Ca  Ca2  1  0.61724400  0.41970500  0.66331900  1
  Ca  Ca3  1  0.60197500  0.75000000  0.04033100  1
  Ca  Ca4  1  0.88275600  0.41970500  0.16331900  1
  Ca  Ca5  1  0.10197500  0.25000000  0.45966900  1
  Ca  Ca6  1  0.88275600  0.08029500  0.16331900  1
  Ca  Ca7  1  0.38275600  0.91970500  0.33668100  1
  Ca  Ca8  1  0.11724400  0.91970500  0.83668100  1
  Ca  Ca9  1  0.11724400  0.58029500  0.83668100  1
  Ca  Ca10  1  0.89802500  0.75000000  0.54033100  1
  Ca  Ca11  1  0.61724400  0.08029500  0.66331900  1
  Ge  Ge0  1  0.32178300  0.25000000  0.22140100  1
  Ge  Ge1  1  0.67821700  0.75000000  0.77859900  1
  Ge  Ge2  1  0.17821700  0.25000000  0.72140100  1
  Ge  Ge3  1  0.82178300  0.75000000  0.27859900  1
  Cl  Cl0  1  0.75152500  0.43255100  0.92991100  1
  Cl  Cl1  1  0.24847500  0.93255100  0.07008900  1
  Cl  Cl2  1  0.24847500  0.56744900  0.07008900  1
  Cl  Cl3  1  0.25152500  0.56744900  0.57008900  1
  Cl  Cl4  1  0.74847500  0.43255100  0.42991100  1
  Cl  Cl5  1  0.75152500  0.06744900  0.92991100  1
  Cl  Cl6  1  0.25152500  0.93255100  0.57008900  1
  Cl  Cl7  1  0.74847500  0.06744900  0.42991100  1
  O  O0  1  0.22151600  0.38253000  0.30327100  1
  O  O1  1  0.27848400  0.11747000  0.80327100  1
  O  O2  1  0.87248400  0.75000000  0.89778700  1
  O  O3  1  0.72151600  0.88253000  0.19672900  1
  O  O4  1  0.89413000  0.25000000  0.66452600  1
  O  O5  1  0.39413000  0.75000000  0.83547400  1
  O  O6  1  0.10587000  0.75000000  0.33547400  1
  O  O7  1  0.62751600  0.75000000  0.39778700  1
  O  O8  1  0.72151600  0.61747000  0.19672900  1
  O  O9  1  0.77848400  0.61747000  0.69672900  1
  O  O10  1  0.22151600  0.11747000  0.30327100  1
  O  O11  1  0.77848400  0.88253000  0.69672900  1
  O  O12  1  0.12751600  0.25000000  0.10221300  1
  O  O13  1  0.60587000  0.25000000  0.16452600  1
  O  O14  1  0.27848400  0.38253000  0.80327100  1
  O  O15  1  0.37248400  0.25000000  0.60221300  1
loop_
_geom_bond_atom_site_label_1
_geom_bond_atom_site_label_2
_geom_bond_distance
_geom_bond_site_symmetry_2
Ca0 O0 2.299628 1_555
Ca0 O7 2.377738 1_555
Ca0 O6 2.385823 1_555
Ca0 O8 2.585846 1_555
Ca0 Cl4 2.834795 1_555
Ca0 Cl3 2.856425 1_555
Ca0 Cl2 3.239008 1_555
Ca1 O12 2.292429 1_556
Ca1 O1 2.406322 1_555
Ca1 O14 2.406322 1_555
Ca1 O13 2.695604 1_556
Ca1 Cl0 2.813235 1_555
Ca1 Cl5 2.813235 1_555
Ca2 O9 2.299628 1_555
Ca2 O15 2.377738 1_555
Ca2 O4 2.385823 1_555
Ca2 O14 2.585846 1_555
Ca2 Cl3 2.834795 1_555
Ca2 Cl4 2.856425 1_555
Ca2 Cl0 3.239008 1_555
Ca3 O2 2.292429 1_554
Ca3 O8 2.406322 1_555
Ca3 O3 2.406322 1_555
Ca3 O5 2.695604 1_554
Ca3 Cl1 2.813235 1_555
Ca3 Cl2 2.813235 1_555
Ca4 O8 2.299628 1_555
Ca4 O12 2.377738 1_655
Ca4 O13 2.385823 1_555
Ca4 O0 2.585846 1_655
Ca4 Cl2 2.834795 1_655
Ca4 Cl0 2.856425 1_554
Ca4 Cl4 3.239008 1_555
Ca5 O15 2.292429 1_555
Ca5 O10 2.406322 1_555
Ca5 O0 2.406322 1_555
Ca5 O4 2.695604 1_455
Ca5 Cl4 2.813235 1_455
Ca5 Cl7 2.813235 1_455
Ca6 O3 2.299628 1_545
Ca6 O12 2.377738 1_655
Ca6 O13 2.385823 1_555
Ca6 O10 2.585846 1_655
Ca6 Cl1 2.834795 1_645
Ca6 Cl5 2.856425 1_554
Ca6 Cl7 3.239008 1_555
Ca7 O10 2.299628 1_565
Ca7 O7 2.377738 1_555
Ca7 O6 2.385823 1_555
Ca7 O3 2.585846 1_555
Ca7 Cl7 2.834795 1_565
Ca7 Cl6 2.856425 1_555
Ca7 Cl1 3.239008 1_555
Ca8 O1 2.299628 1_565
Ca8 O2 2.377738 1_455
Ca8 O5 2.385823 1_555
Ca8 O11 2.585846 1_455
Ca8 Cl5 2.834795 1_465
Ca8 Cl1 2.856425 1_556
Ca8 Cl6 3.239008 1_555
Ca9 O14 2.299628 1_555
Ca9 O2 2.377738 1_455
Ca9 O5 2.385823 1_555
Ca9 O9 2.585846 1_455
Ca9 Cl0 2.834795 1_455
Ca9 Cl2 2.856425 1_556
Ca9 Cl3 3.239008 1_555
Ca10 O7 2.292429 1_555
Ca10 O9 2.406322 1_555
Ca10 O11 2.406322 1_555
Ca10 O6 2.695604 1_655
Ca10 Cl6 2.813235 1_655
Ca10 Cl3 2.813235 1_655
Ca11 O11 2.299628 1_545
Ca11 O15 2.377738 1_555
Ca11 O4 2.385823 1_555
Ca11 O1 2.585846 1_555
Ca11 Cl6 2.834795 1_545
Ca11 Cl7 2.856425 1_555
Ca11 Cl5 3.239008 1_555
Ge0 O13 1.769772 1_555
Ge0 O10 1.783964 1_555
Ge0 O0 1.783964 1_555
Ge0 O12 1.796683 1_555
Ge1 O5 1.769772 1_555
Ge1 O9 1.783964 1_555
Ge1 O11 1.783964 1_555
Ge1 O2 1.796683 1_555
Ge2 O4 1.769772 1_455
Ge2 O1 1.783964 1_555
Ge2 O14 1.783964 1_555
Ge2 O15 1.796683 1_555
Ge3 O6 1.769772 1_655
Ge3 O8 1.783964 1_555
Ge3 O3 1.783964 1_555
Ge3 O7 1.796683 1_555
