# generated using pymatgen
data_K2S2O7
_symmetry_space_group_name_H-M   'P 1'
_cell_length_a   7.12222655
_cell_length_b   7.12222655
_cell_length_c   7.26221138
_cell_angle_alpha   86.63076482
_cell_angle_beta   86.63076482
_cell_angle_gamma   61.39939834
_symmetry_Int_Tables_number   1
_chemical_formula_structural   K2S2O7
_chemical_formula_sum   'K4 S4 O14'
_cell_volume   322.67644091
_cell_formula_units_Z   2
loop_
 _symmetry_equiv_pos_site_id
 _symmetry_equiv_pos_as_xyz
  1  'x, y, z'
loop_
 _atom_site_type_symbol
 _atom_site_label
 _atom_site_symmetry_multiplicity
 _atom_site_fract_x
 _atom_site_fract_y
 _atom_site_fract_z
 _atom_site_occupancy
  K  K0  1  0.50012538  0.20607803  0.85810808  1
  K  K1  1  0.20607803  0.50012538  0.35810808  1
  K  K2  1  0.79392197  0.49987462  0.64189192  1
  K  K3  1  0.49987462  0.79392197  0.14189192  1
  S  S0  1  0.71710780  0.07657122  0.36213020  1
  S  S1  1  0.92342878  0.28289220  0.13786980  1
  S  S2  1  0.28289220  0.92342878  0.63786980  1
  S  S3  1  0.07657122  0.71710780  0.86213020  1
  O  O0  1  0.14319263  0.19438089  0.07425431  1
  O  O1  1  0.80561911  0.85680737  0.42574569  1
  O  O2  1  0.44579385  0.85977595  0.77330042  1
  O  O3  1  0.14022405  0.55420615  0.72669958  1
  O  O4  1  0.85680737  0.80561911  0.92574569  1
  O  O5  1  0.23024671  0.65521719  0.00536515  1
  O  O6  1  0.07421115  0.92578885  0.75000000  1
  O  O7  1  0.34478281  0.76975329  0.49463485  1
  O  O8  1  0.76975329  0.34478281  0.99463485  1
  O  O9  1  0.85977595  0.44579385  0.27330042  1
  O  O10  1  0.55420615  0.14022405  0.22669958  1
  O  O11  1  0.92578885  0.07421115  0.25000000  1
  O  O12  1  0.65521719  0.23024671  0.50536515  1
  O  O13  1  0.19438089  0.14319263  0.57425431  1
loop_
_geom_bond_atom_site_label_1
_geom_bond_atom_site_label_2
_geom_bond_distance
_geom_bond_site_symmetry_2
K0 O10 2.708173 1_556
K0 O3 2.748355 1_555
K0 O12 2.758560 1_555
K0 O2 2.780777 1_545
K0 O8 2.793191 1_555
K0 O4 2.806184 1_545
K0 O0 2.941396 1_556
K0 O5 3.056921 1_556
K0 O13 3.280513 1_555
K1 O3 2.708173 1_555
K1 O10 2.748355 1_555
K1 O5 2.758560 1_555
K1 O9 2.780777 1_455
K1 O7 2.793191 1_555
K1 O1 2.806184 1_455
K1 O13 2.941396 1_555
K1 O12 3.056921 1_555
K1 O0 3.280513 1_555
K2 O9 2.708173 1_555
K2 O2 2.748355 1_555
K2 O8 2.758560 1_555
K2 O3 2.780777 1_655
K2 O12 2.793191 1_555
K2 O13 2.806184 1_655
K2 O1 2.941396 1_555
K2 O7 3.056921 1_555
K2 O4 3.280513 1_555
K3 O2 2.708173 1_554
K3 O9 2.748355 1_555
K3 O7 2.758560 1_555
K3 O10 2.780777 1_565
K3 O5 2.793191 1_555
K3 O0 2.806184 1_565
K3 O4 2.941396 1_554
K3 O8 3.056921 1_554
K3 O1 3.280513 1_555
O0 S1 1.437107 1_455
O1 S0 1.437107 1_565
O2 S2 1.448137 1_555
O3 S3 1.448137 1_555
O4 S3 1.437107 1_655
O5 S3 1.446478 1_554
O6 S3 1.645548 1_555
O6 S2 1.645548 1_555
O7 S2 1.446478 1_555
O8 S1 1.446478 1_556
O9 S1 1.448137 1_555
O10 S0 1.448137 1_555
O11 S0 1.645548 1_555
O11 S1 1.645548 1_555
O12 S0 1.446478 1_555
O13 S2 1.437107 1_545
