# generated using pymatgen
data_Na2UF6
_symmetry_space_group_name_H-M   'P 1'
_cell_length_a   6.05948108
_cell_length_b   6.05948498
_cell_length_c   7.13515254
_cell_angle_alpha   89.99978804
_cell_angle_beta   89.99998788
_cell_angle_gamma   120.00273244
_symmetry_Int_Tables_number   1
_chemical_formula_structural   Na2UF6
_chemical_formula_sum   'Na4 U2 F12'
_cell_volume   226.87836430
_cell_formula_units_Z   2
loop_
 _symmetry_equiv_pos_site_id
 _symmetry_equiv_pos_as_xyz
  1  'x, y, z'
loop_
 _atom_site_type_symbol
 _atom_site_label
 _atom_site_symmetry_multiplicity
 _atom_site_fract_x
 _atom_site_fract_y
 _atom_site_fract_z
 _atom_site_occupancy
  Na  Na0  1  -0.00004312  -0.00003058  0.02445693  1
  Na  Na1  1  0.66660508  0.33327516  0.62810875  1
  Na  Na2  1  -0.00000091  -0.00000271  0.51140828  1
  Na  Na3  1  0.33341216  0.66674502  0.37527445  1
  U  U0  1  0.33333424  0.66665931  0.85737223  1
  U  U1  1  0.66667140  0.33333918  0.14441248  1
  F  F0  1  0.90661924  0.62046186  0.35675646  1
  F  F1  1  0.61286961  0.70264816  0.64262579  1
  F  F2  1  0.31069460  0.91505122  0.10971742  1
  F  F3  1  0.91664874  0.61297863  0.89476157  1
  F  F4  1  0.69633977  0.08336411  0.89476605  1
  F  F5  1  0.60436841  0.68930794  0.10971322  1
  F  F6  1  0.71381583  0.09335889  0.35674571  1
  F  F7  1  0.08495135  0.39565231  0.10973689  1
  F  F8  1  0.38699851  0.30365612  0.89476718  1
  F  F9  1  0.37953781  0.28615728  0.35675199  1
  F  F10  1  0.29739529  0.91023146  0.64261187  1
  F  F11  1  0.08978199  0.38714364  0.64261472  1
loop_
_geom_bond_atom_site_label_1
_geom_bond_atom_site_label_2
_geom_bond_distance
_geom_bond_site_symmetry_2
F0 U1 2.215106 1_555
F0 Na2 2.350627 1_665
F0 Na3 2.461484 1_655
F0 Na1 2.522101 1_555
F1 U0 2.212469 1_555
F1 Na2 2.323532 1_665
F1 Na1 2.419748 1_555
F1 Na3 2.487028 1_555
F2 Na0 2.269175 1_565
F2 U1 2.381311 1_565
F2 U0 2.394289 1_554
F2 Na3 2.465794 1_555
F3 Na0 2.329424 1_666
F3 U0 2.393893 1_655
F3 U1 2.402449 1_556
F3 Na1 2.493987 1_555
F4 Na0 2.329408 1_656
F4 U0 2.393889 1_545
F4 U1 2.402489 1_556
F4 Na1 2.493703 1_555
F5 Na0 2.268664 1_665
F5 U1 2.381343 1_555
F5 U0 2.394250 1_554
F5 Na3 2.465811 1_555
F6 U1 2.215158 1_555
F6 Na2 2.350773 1_655
F6 Na3 2.460504 1_545
F6 Na1 2.521935 1_555
F7 Na0 2.269191 1_555
F7 U1 2.381320 1_455
F7 U0 2.394268 1_554
F7 Na3 2.466061 1_555
F8 Na0 2.329541 1_556
F8 U0 2.393856 1_555
F8 U1 2.402564 1_556
F8 Na1 2.493737 1_555
F9 U1 2.215152 1_555
F9 Na2 2.350605 1_555
F9 Na3 2.461424 1_555
F9 Na1 2.521783 1_555
F10 U0 2.212529 1_555
F10 Na2 2.323787 1_565
F10 Na1 2.419007 1_565
F10 Na3 2.486970 1_555
F11 U0 2.212448 1_555
F11 Na2 2.323647 1_555
F11 Na1 2.419809 1_455
F11 Na3 2.487377 1_555
