# generated using pymatgen
data_ZnS
_symmetry_space_group_name_H-M   'P 1'
_cell_length_a   3.80907695
_cell_length_b   3.80907690
_cell_length_c   74.73938909
_cell_angle_alpha   90.00000000
_cell_angle_beta   90.00000000
_cell_angle_gamma   120.00000916
_symmetry_Int_Tables_number   1
_chemical_formula_structural   ZnS
_chemical_formula_sum   'Zn24 S24'
_cell_volume   939.11682778
_cell_formula_units_Z   24
loop_
 _symmetry_equiv_pos_site_id
 _symmetry_equiv_pos_as_xyz
  1  'x, y, z'
loop_
 _atom_site_type_symbol
 _atom_site_label
 _atom_site_symmetry_multiplicity
 _atom_site_fract_x
 _atom_site_fract_y
 _atom_site_fract_z
 _atom_site_occupancy
  Zn  Zn0  1  0.66666700  0.33333300  0.33332318  1
  Zn  Zn1  1  0.00000000  -0.00000000  0.37500258  1
  Zn  Zn2  1  0.33333300  0.66666700  0.45834128  1
  Zn  Zn3  1  0.33333300  0.66666700  0.83334127  1
  Zn  Zn4  1  0.66666700  0.33333300  0.08334506  1
  Zn  Zn5  1  -0.00000000  0.00000000  0.79166614  1
  Zn  Zn6  1  0.66666700  0.33333300  0.91667691  1
  Zn  Zn7  1  0.66666700  0.33333300  0.20833784  1
  Zn  Zn8  1  0.66666700  0.33333300  0.75001486  1
  Zn  Zn9  1  -0.00000000  -0.00000000  0.66668753  1
  Zn  Zn10  1  0.33333300  0.66666700  0.04170611  1
  Zn  Zn11  1  -0.00000000  0.00000000  0.12501013  1
  Zn  Zn12  1  0.33333300  0.66666700  0.16667776  1
  Zn  Zn13  1  0.33333300  0.66666700  0.29167386  1
  Zn  Zn14  1  0.00000000  0.00000000  0.50000859  1
  Zn  Zn15  1  0.33333300  0.66666700  0.58333889  1
  Zn  Zn16  1  0.33333300  0.66666700  0.95832529  1
  Zn  Zn17  1  0.66666700  0.33333300  0.41670114  1
  Zn  Zn18  1  0.33333300  0.66666700  0.70834682  1
  Zn  Zn19  1  -0.00000000  -0.00000000  0.87503222  1
  Zn  Zn20  1  0.66666700  0.33333300  0.54166374  1
  Zn  Zn21  1  0.66666700  0.33333300  0.62504230  1
  Zn  Zn22  1  -0.00000000  0.00000000  0.00000743  1
  Zn  Zn23  1  -0.00000000  -0.00000000  0.25000594  1
  S  S0  1  0.66666700  0.33333300  0.94790246  1
  S  S1  1  -0.00000000  0.00000000  0.82286685  1
  S  S2  1  0.33333300  0.66666700  0.19790297  1
  S  S3  1  0.33333300  0.66666700  0.98953539  1
  S  S4  1  0.66666700  0.33333300  0.78123806  1
  S  S5  1  0.33333300  0.66666700  0.32289924  1
  S  S6  1  -0.00000000  0.00000000  0.40626729  1
  S  S7  1  -0.00000000  -0.00000000  0.69790810  1
  S  S8  1  -0.00000000  0.00000000  0.53123691  1
  S  S9  1  0.66666700  0.33333300  0.57287274  1
  S  S10  1  0.66666700  0.33333300  0.44791116  1
  S  S11  1  0.66666700  0.33333300  0.23956627  1
  S  S12  1  -0.00000000  0.00000000  0.03127250  1
  S  S13  1  0.66666700  0.33333300  0.65625004  1
  S  S14  1  0.33333300  0.66666700  0.73957210  1
  S  S15  1  -0.00000000  -0.00000000  0.15624049  1
  S  S16  1  0.33333300  0.66666700  0.86459994  1
  S  S17  1  0.33333300  0.66666700  0.61460287  1
  S  S18  1  -0.00000000  0.00000000  0.28123799  1
  S  S19  1  0.66666700  0.33333300  0.36453112  1
  S  S20  1  0.33333300  0.66666700  0.48956927  1
  S  S21  1  0.33333300  0.66666700  0.07291548  1
  S  S22  1  0.66666700  0.33333300  0.11457059  1
  S  S23  1  -0.00000000  0.00000000  0.90624630  1
loop_
_geom_bond_atom_site_label_1
_geom_bond_atom_site_label_2
_geom_bond_distance
_geom_bond_site_symmetry_2
S0 Zn16 2.333062 1_545
S0 Zn16 2.333062 1_655
S0 Zn16 2.333069 1_555
S0 Zn6 2.333779 1_555
S1 Zn5 2.331922 1_555
S1 Zn3 2.334353 1_545
S1 Zn3 2.334356 1_555
S1 Zn3 2.334356 1_445
S2 Zn7 2.333363 1_565
S2 Zn7 2.333363 1_455
S2 Zn7 2.333369 1_555
S2 Zn12 2.333753 1_555
S3 Zn16 2.332624 1_555
S3 Zn22 2.334293 1_566
S3 Zn22 2.334296 1_556
S3 Zn22 2.334296 1_666
S4 Zn5 2.333194 1_655
S4 Zn5 2.333196 1_665
S4 Zn5 2.333196 1_555
S4 Zn8 2.333603 1_555
S5 Zn0 2.333090 1_565
S5 Zn0 2.333090 1_455
S5 Zn0 2.333097 1_555
S5 Zn13 2.333766 1_555
S6 Zn17 2.333338 1_455
S6 Zn17 2.333341 1_445
S6 Zn17 2.333341 1_555
S6 Zn1 2.336705 1_555
S7 Zn9 2.333406 1_555
S7 Zn18 2.333459 1_545
S7 Zn18 2.333462 1_555
S7 Zn18 2.333462 1_445
S8 Zn20 2.333162 1_455
S8 Zn20 2.333165 1_445
S8 Zn20 2.333165 1_555
S8 Zn14 2.333986 1_555
S9 Zn20 2.332542 1_555
S9 Zn15 2.334145 1_545
S9 Zn15 2.334145 1_655
S9 Zn15 2.334152 1_555
S10 Zn17 2.332618 1_555
S10 Zn2 2.333244 1_545
S10 Zn2 2.333244 1_655
S10 Zn2 2.333251 1_555
S11 Zn23 2.333483 1_655
S11 Zn23 2.333486 1_665
S11 Zn23 2.333486 1_555
S11 Zn7 2.333994 1_555
S12 Zn10 2.333332 1_545
S12 Zn10 2.333335 1_555
S12 Zn10 2.333335 1_445
S12 Zn22 2.336732 1_555
S13 Zn21 2.332447 1_555
S13 Zn9 2.333429 1_655
S13 Zn9 2.333431 1_665
S13 Zn9 2.333432 1_555
S14 Zn8 2.333560 1_565
S14 Zn8 2.333560 1_455
S14 Zn8 2.333567 1_555
S14 Zn18 2.333758 1_555
S15 Zn12 2.333423 1_545
S15 Zn12 2.333426 1_555
S15 Zn12 2.333426 1_445
S15 Zn11 2.334138 1_555
S16 Zn19 2.333299 1_565
S16 Zn19 2.333301 1_555
S16 Zn19 2.333301 1_665
S16 Zn3 2.336254 1_555
S17 Zn21 2.333477 1_565
S17 Zn21 2.333477 1_455
S17 Zn21 2.333483 1_555
S17 Zn15 2.336651 1_555
S18 Zn13 2.333388 1_545
S18 Zn13 2.333391 1_555
S18 Zn13 2.333391 1_445
S18 Zn23 2.334264 1_555
S19 Zn0 2.332462 1_555
S19 Zn1 2.334279 1_655
S19 Zn1 2.334281 1_665
S19 Zn1 2.334282 1_555
S20 Zn14 2.333474 1_565
S20 Zn14 2.333477 1_555
S20 Zn14 2.333477 1_665
S20 Zn2 2.333961 1_555
S21 Zn10 2.332569 1_555
S21 Zn4 2.333231 1_565
S21 Zn4 2.333231 1_455
S21 Zn4 2.333237 1_555
S22 Zn11 2.333480 1_655
S22 Zn11 2.333483 1_665
S22 Zn11 2.333483 1_555
S22 Zn4 2.333777 1_555
S23 Zn19 2.332921 1_555
S23 Zn6 2.333257 1_455
S23 Zn6 2.333260 1_445
S23 Zn6 2.333260 1_555
