# generated using pymatgen
data_CuMo3Br7
_symmetry_space_group_name_H-M   'P 1'
_cell_length_a   13.73653900
_cell_length_b   13.73653900
_cell_length_c   13.73653900
_cell_angle_alpha   90.00000000
_cell_angle_beta   90.00000000
_cell_angle_gamma   90.00000000
_symmetry_Int_Tables_number   1
_chemical_formula_structural   CuMo3Br7
_chemical_formula_sum   'Cu8 Mo24 Br56'
_cell_volume   2591.98193606
_cell_formula_units_Z   8
loop_
 _symmetry_equiv_pos_site_id
 _symmetry_equiv_pos_as_xyz
  1  'x, y, z'
loop_
 _atom_site_type_symbol
 _atom_site_label
 _atom_site_symmetry_multiplicity
 _atom_site_fract_x
 _atom_site_fract_y
 _atom_site_fract_z
 _atom_site_occupancy
  Cu  Cu0  1  0.18828300  0.18828300  0.18828300  1
  Cu  Cu1  1  0.81171700  0.81171700  0.18828300  1
  Cu  Cu2  1  0.18828300  0.81171700  0.81171700  1
  Cu  Cu3  1  0.68828300  0.68828300  0.31171700  1
  Cu  Cu4  1  0.68828300  0.31171700  0.68828300  1
  Cu  Cu5  1  0.31171700  0.31171700  0.31171700  1
  Cu  Cu6  1  0.81171700  0.18828300  0.81171700  1
  Cu  Cu7  1  0.31171700  0.68828300  0.68828300  1
  Mo  Mo0  1  0.77441700  0.28053800  0.38090900  1
  Mo  Mo1  1  0.38090900  0.77441700  0.28053800  1
  Mo  Mo2  1  0.71946200  0.61909100  0.77441700  1
  Mo  Mo3  1  0.88090900  0.72558300  0.78053800  1
  Mo  Mo4  1  0.21946200  0.88090900  0.27441700  1
  Mo  Mo5  1  0.78053800  0.88090900  0.72558300  1
  Mo  Mo6  1  0.28053800  0.38090900  0.77441700  1
  Mo  Mo7  1  0.61909100  0.77441700  0.71946200  1
  Mo  Mo8  1  0.71946200  0.38090900  0.22558300  1
  Mo  Mo9  1  0.72558300  0.21946200  0.11909100  1
  Mo  Mo10  1  0.88090900  0.27441700  0.21946200  1
  Mo  Mo11  1  0.21946200  0.11909100  0.72558300  1
  Mo  Mo12  1  0.22558300  0.71946200  0.38090900  1
  Mo  Mo13  1  0.77441700  0.71946200  0.61909100  1
  Mo  Mo14  1  0.78053800  0.11909100  0.27441700  1
  Mo  Mo15  1  0.28053800  0.61909100  0.22558300  1
  Mo  Mo16  1  0.72558300  0.78053800  0.88090900  1
  Mo  Mo17  1  0.22558300  0.28053800  0.61909100  1
  Mo  Mo18  1  0.11909100  0.72558300  0.21946200  1
  Mo  Mo19  1  0.61909100  0.22558300  0.28053800  1
  Mo  Mo20  1  0.27441700  0.21946200  0.88090900  1
  Mo  Mo21  1  0.11909100  0.27441700  0.78053800  1
  Mo  Mo22  1  0.38090900  0.22558300  0.71946200  1
  Mo  Mo23  1  0.27441700  0.78053800  0.11909100  1
  Br  Br0  1  0.11435600  0.11435600  0.88564400  1
  Br  Br1  1  0.56650300  0.67591500  0.87400500  1
  Br  Br2  1  0.43465400  0.18881900  0.32778100  1
  Br  Br3  1  0.56534600  0.18881900  0.67221900  1
  Br  Br4  1  0.82778100  0.93465400  0.31118100  1
  Br  Br5  1  0.12599500  0.56650300  0.32408500  1
  Br  Br6  1  0.61435600  0.38564400  0.38564400  1
  Br  Br7  1  0.17221900  0.06534600  0.31118100  1
  Br  Br8  1  0.88564400  0.88564400  0.88564400  1
  Br  Br9  1  0.38564400  0.61435600  0.38564400  1
  Br  Br10  1  0.62599500  0.93349700  0.82408500  1
  Br  Br11  1  0.12599500  0.43349700  0.67591500  1
  Br  Br12  1  0.06650300  0.82408500  0.37400500  1
  Br  Br13  1  0.06534600  0.68881900  0.82778100  1
  Br  Br14  1  0.67221900  0.43465400  0.81118100  1
  Br  Br15  1  0.32778100  0.43465400  0.18881900  1
  Br  Br16  1  0.56650300  0.32408500  0.12599500  1
  Br  Br17  1  0.87400500  0.43349700  0.32408500  1
  Br  Br18  1  0.18881900  0.32778100  0.43465400  1
  Br  Br19  1  0.61435600  0.61435600  0.61435600  1
  Br  Br20  1  0.82778100  0.06534600  0.68881900  1
  Br  Br21  1  0.17221900  0.93465400  0.68881900  1
  Br  Br22  1  0.62599500  0.06650300  0.17591500  1
  Br  Br23  1  0.31118100  0.82778100  0.93465400  1
  Br  Br24  1  0.11435600  0.88564400  0.11435600  1
  Br  Br25  1  0.93349700  0.17591500  0.37400500  1
  Br  Br26  1  0.38564400  0.38564400  0.61435600  1
  Br  Br27  1  0.82408500  0.62599500  0.93349700  1
  Br  Br28  1  0.68881900  0.82778100  0.06534600  1
  Br  Br29  1  0.18881900  0.67221900  0.56534600  1
  Br  Br30  1  0.17591500  0.62599500  0.06650300  1
  Br  Br31  1  0.68881900  0.17221900  0.93465400  1
  Br  Br32  1  0.88564400  0.11435600  0.11435600  1
  Br  Br33  1  0.82408500  0.37400500  0.06650300  1
  Br  Br34  1  0.67591500  0.87400500  0.56650300  1
  Br  Br35  1  0.17591500  0.37400500  0.93349700  1
  Br  Br36  1  0.32408500  0.87400500  0.43349700  1
  Br  Br37  1  0.06650300  0.17591500  0.62599500  1
  Br  Br38  1  0.37400500  0.93349700  0.17591500  1
  Br  Br39  1  0.93465400  0.68881900  0.17221900  1
  Br  Br40  1  0.06534600  0.31118100  0.17221900  1
  Br  Br41  1  0.81118100  0.67221900  0.43465400  1
  Br  Br42  1  0.37400500  0.06650300  0.82408500  1
  Br  Br43  1  0.43349700  0.67591500  0.12599500  1
  Br  Br44  1  0.32408500  0.12599500  0.56650300  1
  Br  Br45  1  0.67221900  0.56534600  0.18881900  1
  Br  Br46  1  0.31118100  0.17221900  0.06534600  1
  Br  Br47  1  0.93465400  0.31118100  0.82778100  1
  Br  Br48  1  0.56534600  0.81118100  0.32778100  1
  Br  Br49  1  0.43349700  0.32408500  0.87400500  1
  Br  Br50  1  0.87400500  0.56650300  0.67591500  1
  Br  Br51  1  0.93349700  0.82408500  0.62599500  1
  Br  Br52  1  0.67591500  0.12599500  0.43349700  1
  Br  Br53  1  0.32778100  0.56534600  0.81118100  1
  Br  Br54  1  0.81118100  0.32778100  0.56534600  1
  Br  Br55  1  0.43465400  0.81118100  0.67221900  1
loop_
_geom_bond_atom_site_label_1
_geom_bond_atom_site_label_2
_geom_bond_distance
_geom_bond_site_symmetry_2
Br0 Mo11 2.631156 1_555
Br0 Mo21 2.631156 1_555
Br0 Mo20 2.631156 1_555
Br1 Mo16 2.617165 1_555
Br1 Mo7 2.619025 1_555
Br1 Mo2 2.625914 1_555
Br2 Cu5 2.398019 1_555
Br2 Mo19 2.663631 1_555
Br3 Cu4 2.398019 1_555
Br3 Mo22 2.663631 1_555
Br4 Cu1 2.398019 1_555
Br4 Mo14 2.663631 1_565
Br5 Mo18 2.617165 1_555
Br5 Mo15 2.619025 1_555
Br5 Mo12 2.625914 1_555
Br6 Mo19 2.631156 1_555
Br6 Mo0 2.631156 1_555
Br6 Mo8 2.631156 1_555
Br7 Cu0 2.398019 1_555
Br7 Mo4 2.663631 1_545
Br8 Mo16 2.631156 1_555
Br8 Mo5 2.631156 1_555
Br8 Mo3 2.631156 1_555
Br9 Mo15 2.631156 1_555
Br9 Mo12 2.631156 1_555
Br9 Mo1 2.631156 1_555
Br10 Mo7 2.617165 1_555
Br10 Mo5 2.619025 1_555
Br10 Mo16 2.625914 1_555
Br11 Mo21 2.617165 1_555
Br11 Mo6 2.619025 1_555
Br11 Mo17 2.625914 1_555
Br12 Mo12 2.617165 1_555
Br12 Mo18 2.619025 1_555
Br12 Mo4 2.625914 1_555
Br13 Cu2 2.398019 1_555
Br13 Mo3 2.663631 1_455
Br14 Cu4 2.398019 1_555
Br14 Mo2 2.663631 1_555
Br15 Cu5 2.398019 1_555
Br15 Mo15 2.663631 1_555
Br16 Mo9 2.617165 1_555
Br16 Mo19 2.619025 1_555
Br16 Mo8 2.625914 1_555
Br17 Mo10 2.617165 1_555
Br17 Mo8 2.619025 1_555
Br17 Mo0 2.625914 1_555
Br18 Cu5 2.398019 1_555
Br18 Mo17 2.663631 1_555
Br19 Mo7 2.631156 1_555
Br19 Mo2 2.631156 1_555
Br19 Mo13 2.631156 1_555
Br20 Cu6 2.398019 1_555
Br20 Mo5 2.663631 1_545
Br21 Cu2 2.398019 1_555
Br21 Mo11 2.663631 1_565
Br22 Mo19 2.617165 1_555
Br22 Mo14 2.619025 1_555
Br22 Mo9 2.625914 1_555
Br23 Cu2 2.398019 1_555
Br23 Mo23 2.663631 1_556
Br24 Mo4 2.631156 1_555
Br24 Mo23 2.631156 1_555
Br24 Mo18 2.631156 1_555
Br25 Mo0 2.617165 1_555
Br25 Mo10 2.619025 1_555
Br25 Mo14 2.625914 1_555
Br26 Mo17 2.631156 1_555
Br26 Mo22 2.631156 1_555
Br26 Mo6 2.631156 1_555
Br27 Mo2 2.617165 1_555
Br27 Mo16 2.619025 1_555
Br27 Mo3 2.625914 1_555
Br28 Cu1 2.398019 1_555
Br28 Mo16 2.663631 1_554
Br29 Cu7 2.398019 1_555
Br29 Mo12 2.663631 1_555
Br30 Mo15 2.617165 1_555
Br30 Mo23 2.619025 1_555
Br30 Mo18 2.625914 1_555
Br31 Cu6 2.398019 1_555
Br31 Mo9 2.663631 1_556
Br32 Mo10 2.631156 1_555
Br32 Mo9 2.631156 1_555
Br32 Mo14 2.631156 1_555
Br33 Mo8 2.617165 1_555
Br33 Mo9 2.619025 1_555
Br33 Mo10 2.625914 1_555
Br34 Mo5 2.617165 1_555
Br34 Mo13 2.619025 1_555
Br34 Mo7 2.625914 1_555
Br35 Mo6 2.617165 1_555
Br35 Mo20 2.619025 1_555
Br35 Mo21 2.625914 1_555
Br36 Mo4 2.617165 1_555
Br36 Mo12 2.619025 1_555
Br36 Mo1 2.625914 1_555
Br37 Mo17 2.617165 1_555
Br37 Mo21 2.619025 1_555
Br37 Mo11 2.625914 1_555
Br38 Mo1 2.617165 1_555
Br38 Mo4 2.619025 1_555
Br38 Mo23 2.625914 1_555
Br39 Cu1 2.398019 1_555
Br39 Mo18 2.663631 1_655
Br40 Cu0 2.398019 1_555
Br40 Mo10 2.663631 1_455
Br41 Cu3 2.398019 1_555
Br41 Mo13 2.663631 1_555
Br42 Mo22 2.617165 1_555
Br42 Mo11 2.619025 1_555
Br42 Mo20 2.625914 1_555
Br43 Mo23 2.617165 1_555
Br43 Mo1 2.619025 1_555
Br43 Mo15 2.625914 1_555
Br44 Mo11 2.617165 1_555
Br44 Mo17 2.619025 1_555
Br44 Mo22 2.625914 1_555
Br45 Cu3 2.398019 1_555
Br45 Mo8 2.663631 1_555
Br46 Cu0 2.398019 1_555
Br46 Mo20 2.663631 1_554
Br47 Cu6 2.398019 1_555
Br47 Mo21 2.663631 1_655
Br48 Cu3 2.398019 1_555
Br48 Mo1 2.663631 1_555
Br49 Mo20 2.617165 1_555
Br49 Mo22 2.619025 1_555
Br49 Mo6 2.625914 1_555
Br50 Mo3 2.617165 1_555
Br50 Mo2 2.619025 1_555
Br50 Mo13 2.625914 1_555
Br51 Mo13 2.617165 1_555
Br51 Mo3 2.619025 1_555
Br51 Mo5 2.625914 1_555
Br52 Mo14 2.617165 1_555
Br52 Mo0 2.619025 1_555
Br52 Mo19 2.625914 1_555
Br53 Cu7 2.398019 1_555
Br53 Mo6 2.663631 1_555
Br54 Cu4 2.398019 1_555
Br54 Mo0 2.663631 1_555
Br55 Cu7 2.398019 1_555
Br55 Mo7 2.663631 1_555
