# generated using pymatgen
data_KNd(PO3)4
_symmetry_space_group_name_H-M   'P 1'
_cell_length_a   7.33464311
_cell_length_b   7.33464319
_cell_length_c   10.60226228
_cell_angle_alpha   100.81407682
_cell_angle_beta   100.81407468
_cell_angle_gamma   115.18344909
_symmetry_Int_Tables_number   1
_chemical_formula_structural   KNd(PO3)4
_chemical_formula_sum   'K2 Nd2 P8 O24'
_cell_volume   483.49452400
_cell_formula_units_Z   2
loop_
 _symmetry_equiv_pos_site_id
 _symmetry_equiv_pos_as_xyz
  1  'x, y, z'
loop_
 _atom_site_type_symbol
 _atom_site_label
 _atom_site_symmetry_multiplicity
 _atom_site_fract_x
 _atom_site_fract_y
 _atom_site_fract_z
 _atom_site_occupancy
  K  K0  1  0.31651837  0.18348163  0.75000000  1
  K  K1  1  0.68348163  0.81651837  0.25000000  1
  Nd  Nd0  1  0.61985308  0.88014692  0.75000000  1
  Nd  Nd1  1  0.38014692  0.11985308  0.25000000  1
  P  P0  1  0.19383131  0.73851912  0.43984662  1
  P  P1  1  0.86989536  0.71287629  0.00074808  1
  P  P2  1  0.13010464  0.28712371  0.99925192  1
  P  P3  1  0.76148088  0.30616869  0.06015338  1
  P  P4  1  0.80616869  0.26148088  0.56015338  1
  P  P5  1  0.23851912  0.69383131  0.93984662  1
  P  P6  1  0.78712371  0.63010464  0.49925192  1
  P  P7  1  0.21287629  0.36989536  0.50074808  1
  O  O0  1  0.03507584  0.28387317  0.57404245  1
  O  O1  1  0.41225547  0.50670166  0.61258176  1
  O  O2  1  0.96492416  0.71612683  0.42595755  1
  O  O3  1  0.80691146  0.81768890  0.59556222  1
  O  O4  1  0.74459508  0.19594434  0.67537377  1
  O  O5  1  0.99329834  0.08774453  0.88741824  1
  O  O6  1  0.58774453  0.49329834  0.38741824  1
  O  O7  1  0.36225706  0.83225701  0.08009452  1
  O  O8  1  0.00670166  0.91225547  0.11258176  1
  O  O9  1  0.78387317  0.53507584  0.07404245  1
  O  O10  1  0.30405566  0.75540492  0.82462623  1
  O  O11  1  0.68231110  0.69308854  0.90443778  1
  O  O12  1  0.63774294  0.16774299  0.91990548  1
  O  O13  1  0.25540492  0.80405566  0.32462623  1
  O  O14  1  0.31768890  0.30691146  0.09556222  1
  O  O15  1  0.99730934  0.64356770  0.91520668  1
  O  O16  1  0.33225701  0.86225706  0.58009452  1
  O  O17  1  0.21612683  0.46492416  0.92595755  1
  O  O18  1  0.85643230  0.50269066  0.58479332  1
  O  O19  1  0.66774299  0.13774294  0.41990548  1
  O  O20  1  0.69594434  0.24459508  0.17537377  1
  O  O21  1  0.19308854  0.18231110  0.40443678  1
  O  O22  1  0.00269066  0.35643230  0.08479332  1
  O  O23  1  0.14356770  0.49730934  0.41520668  1
loop_
_geom_bond_atom_site_label_1
_geom_bond_atom_site_label_2
_geom_bond_distance
_geom_bond_site_symmetry_2
K0 O16 2.743400 1_545
K0 O12 2.743400 1_555
K0 O5 2.915351 1_455
K0 O1 2.915351 1_555
K0 O17 2.940694 1_555
K0 O0 2.940694 1_555
K1 O19 2.743400 1_565
K1 O7 2.743400 1_555
K1 O8 2.915351 1_655
K1 O6 2.915351 1_555
K1 O9 2.940694 1_555
K1 O2 2.940694 1_555
Nd0 O3 2.422752 1_555
Nd0 O11 2.422752 1_555
Nd0 O12 2.441658 1_565
Nd0 O16 2.441658 1_555
Nd0 O10 2.446216 1_555
Nd0 O4 2.446216 1_565
Nd0 O1 2.462604 1_555
Nd0 O5 2.462604 1_565
Nd1 O21 2.422744 1_555
Nd1 O14 2.422752 1_555
Nd1 O7 2.441658 1_545
Nd1 O19 2.441658 1_555
Nd1 O20 2.446216 1_555
Nd1 O13 2.446216 1_545
Nd1 O6 2.462604 1_555
Nd1 O8 2.462604 1_545
O0 P4 1.590917 1_455
O0 P7 1.602076 1_555
O1 P7 1.485050 1_555
O2 P0 1.590917 1_655
O2 P6 1.602076 1_555
O3 P6 1.484584 1_555
O4 P4 1.473071 1_555
O5 P2 1.485050 1_655
O6 P6 1.485050 1_555
O7 P5 1.486080 1_554
O8 P1 1.485050 1_455
O9 P3 1.590917 1_555
O9 P1 1.602076 1_555
O10 P5 1.473071 1_555
O11 P1 1.484584 1_556
O12 P3 1.486080 1_556
O13 P0 1.473071 1_555
O14 P2 1.484584 1_554
O15 P1 1.582293 1_556
O15 P5 1.602977 1_655
O16 P0 1.486080 1_555
O17 P5 1.590917 1_555
O17 P2 1.602076 1_555
O18 P6 1.582293 1_555
O18 P4 1.602977 1_555
O19 P4 1.486080 1_555
O20 P3 1.473071 1_555
O21 P7 1.484589 1_555
O22 P2 1.582293 1_554
O22 P3 1.602977 1_455
O23 P7 1.582293 1_555
O23 P0 1.602977 1_555
