# generated using pymatgen
data_Rb5Th(PS4)3
_symmetry_space_group_name_H-M   'P 1'
_cell_length_a   10.18507800
_cell_length_b   13.57520900
_cell_length_c   18.65016795
_cell_angle_alpha   78.39450221
_cell_angle_beta   90.00000000
_cell_angle_gamma   90.00000000
_symmetry_Int_Tables_number   1
_chemical_formula_structural   Rb5Th(PS4)3
_chemical_formula_sum   'Rb20 Th4 P12 S48'
_cell_volume   2525.93911593
_cell_formula_units_Z   4
loop_
 _symmetry_equiv_pos_site_id
 _symmetry_equiv_pos_as_xyz
  1  'x, y, z'
loop_
 _atom_site_type_symbol
 _atom_site_label
 _atom_site_symmetry_multiplicity
 _atom_site_fract_x
 _atom_site_fract_y
 _atom_site_fract_z
 _atom_site_occupancy
  Rb  Rb0  1  0.66396500  0.19610800  0.71694300  1
  Rb  Rb1  1  0.18180400  0.48073400  0.12928600  1
  Rb  Rb2  1  0.81819600  0.51926600  0.87071400  1
  Rb  Rb3  1  0.38422600  0.15376600  0.19255700  1
  Rb  Rb4  1  0.16396500  0.80389200  0.78305700  1
  Rb  Rb5  1  0.11577400  0.15376600  0.69255700  1
  Rb  Rb6  1  0.14476000  0.14776100  0.45070500  1
  Rb  Rb7  1  0.61577400  0.84623400  0.80744300  1
  Rb  Rb8  1  0.11880100  0.48519600  0.37449800  1
  Rb  Rb9  1  0.88422600  0.84623400  0.30744300  1
  Rb  Rb10  1  0.61880100  0.51480400  0.12550200  1
  Rb  Rb11  1  0.64476000  0.85223900  0.04929500  1
  Rb  Rb12  1  0.88119900  0.51480400  0.62550200  1
  Rb  Rb13  1  0.35524000  0.14776100  0.95070500  1
  Rb  Rb14  1  0.85524000  0.85223900  0.54929500  1
  Rb  Rb15  1  0.33603500  0.80389200  0.28305700  1
  Rb  Rb16  1  0.83603500  0.19610800  0.21694300  1
  Rb  Rb17  1  0.68180400  0.51926600  0.37071400  1
  Rb  Rb18  1  0.31819600  0.48073400  0.62928600  1
  Rb  Rb19  1  0.38119900  0.48519600  0.87449800  1
  Th  Th0  1  0.60041100  0.18261400  0.46383400  1
  Th  Th1  1  0.89958900  0.18261400  0.96383400  1
  Th  Th2  1  0.10041100  0.81738600  0.03616600  1
  Th  Th3  1  0.39958900  0.81738600  0.53616600  1
  P  P0  1  0.08882100  0.03002200  0.13132400  1
  P  P1  1  0.09988700  0.35345000  0.82057500  1
  P  P2  1  0.40011300  0.35345000  0.32057500  1
  P  P3  1  0.63594000  0.28342700  0.01836100  1
  P  P4  1  0.59988700  0.64655000  0.67942500  1
  P  P5  1  0.13594000  0.71657300  0.48163900  1
  P  P6  1  0.91117900  0.96997800  0.86867600  1
  P  P7  1  0.36406000  0.71657300  0.98163900  1
  P  P8  1  0.86406000  0.28342700  0.51836100  1
  P  P9  1  0.90011300  0.64655000  0.17942500  1
  P  P10  1  0.41117900  0.03002200  0.63132400  1
  P  P11  1  0.58882100  0.96997800  0.36867600  1
  S  S0  1  0.30526000  0.64668400  0.45799900  1
  S  S1  1  0.03595600  0.33826700  0.54692200  1
  S  S2  1  0.08868300  0.02291800  0.23968600  1
  S  S3  1  0.69474000  0.35331600  0.54200100  1
  S  S4  1  0.90055200  0.66112400  0.06619600  1
  S  S5  1  0.96404400  0.66173300  0.45307800  1
  S  S6  1  0.66885600  0.13419500  0.06584600  1
  S  S7  1  0.40421100  0.17824400  0.57719800  1
  S  S8  1  0.59944800  0.66112400  0.56619600  1
  S  S9  1  0.41488100  0.49990900  0.26987800  1
  S  S10  1  0.19474000  0.64668400  0.95799900  1
  S  S11  1  0.53595600  0.66173300  0.95307800  1
  S  S12  1  0.46404400  0.33826700  0.04692200  1
  S  S13  1  0.85013800  0.28868600  0.40715600  1
  S  S14  1  0.93251000  0.27066900  0.80698100  1
  S  S15  1  0.25163000  0.95541600  0.10228600  1
  S  S16  1  0.16885600  0.86580500  0.43415400  1
  S  S17  1  0.91488100  0.50009100  0.23012200  1
  S  S18  1  0.35013800  0.71131400  0.09284400  1
  S  S19  1  0.83114400  0.13419500  0.56584600  1
  S  S20  1  0.09944800  0.33887600  0.93380400  1
  S  S21  1  0.24837000  0.95541600  0.60228600  1
  S  S22  1  0.73214800  0.70613100  0.21136600  1
  S  S23  1  0.57210500  0.97010700  0.58650800  1
  S  S24  1  0.64986200  0.28868600  0.90715600  1
  S  S25  1  0.90421100  0.82175600  0.92280200  1
  S  S26  1  0.41131700  0.02291800  0.73968600  1
  S  S27  1  0.06749000  0.72933100  0.19301900  1
  S  S28  1  0.42789500  0.02989300  0.41349200  1
  S  S29  1  0.09578900  0.17824400  0.07719800  1
  S  S30  1  0.91131700  0.97708200  0.76031400  1
  S  S31  1  0.08511900  0.49990900  0.76987800  1
  S  S32  1  0.33114400  0.86580500  0.93415400  1
  S  S33  1  0.92789500  0.97010700  0.08650800  1
  S  S34  1  0.58868300  0.97708200  0.26031400  1
  S  S35  1  0.75163000  0.04458400  0.39771400  1
  S  S36  1  0.59578900  0.82175600  0.42280200  1
  S  S37  1  0.07210500  0.02989300  0.91349200  1
  S  S38  1  0.40055200  0.33887600  0.43380400  1
  S  S39  1  0.74837000  0.04458400  0.89771400  1
  S  S40  1  0.43251000  0.72933100  0.69301900  1
  S  S41  1  0.23214800  0.29386900  0.28863400  1
  S  S42  1  0.76785200  0.70613100  0.71136600  1
  S  S43  1  0.14986200  0.71131400  0.59284400  1
  S  S44  1  0.56749000  0.27066900  0.30698100  1
  S  S45  1  0.80526000  0.35331600  0.04200100  1
  S  S46  1  0.58511900  0.50009100  0.73012200  1
  S  S47  1  0.26785200  0.29386900  0.78863400  1
loop_
_geom_bond_atom_site_label_1
_geom_bond_atom_site_label_2
_geom_bond_distance
_geom_bond_site_symmetry_2
Rb0 S26 3.453674 1_555
Rb0 S14 3.465431 1_555
Rb0 S3 3.535029 1_555
Rb0 S19 3.535488 1_555
Rb0 S39 3.680537 1_555
Rb0 S7 3.755665 1_555
Rb0 S30 3.856702 1_545
Rb1 S17 3.345972 1_455
Rb1 S18 3.513323 1_555
Rb1 S10 3.521646 1_554
Rb1 S41 3.535070 1_555
Rb1 S9 3.585112 1_555
Rb1 S4 3.798385 1_455
Rb1 S12 3.944475 1_555
Rb2 S31 3.345972 1_655
Rb2 S24 3.513323 1_555
Rb2 S45 3.521646 1_556
Rb2 S42 3.535070 1_555
Rb2 S46 3.585112 1_555
Rb2 S20 3.798385 1_655
Rb2 S11 3.944475 1_555
Rb3 S34 3.235234 1_545
Rb3 S41 3.255520 1_555
Rb3 S12 3.402103 1_555
Rb3 S44 3.452423 1_555
Rb3 S2 3.515747 1_555
Rb3 S29 3.616901 1_555
Rb3 S15 3.705740 1_545
Rb3 S6 3.783107 1_555
Rb4 S30 3.453674 1_455
Rb4 S40 3.465431 1_555
Rb4 S10 3.535029 1_555
Rb4 S32 3.535488 1_555
Rb4 S21 3.680537 1_555
Rb4 S25 3.755665 1_455
Rb4 S26 3.856702 1_565
Rb5 S30 3.235234 1_445
Rb5 S47 3.255520 1_555
Rb5 S1 3.402103 1_555
Rb5 S14 3.452423 1_455
Rb5 S26 3.515747 1_555
Rb5 S7 3.616901 1_555
Rb5 S21 3.705740 1_545
Rb5 S19 3.783107 1_455
Rb6 S41 3.383861 1_555
Rb6 S28 3.435807 1_555
Rb6 S13 3.563550 1_455
Rb6 S21 3.599110 1_545
Rb6 S1 3.606044 1_555
Rb6 S7 3.621106 1_555
Rb6 S38 3.645375 1_555
Rb6 S19 3.832631 1_455
Rb6 S16 3.909155 1_545
Rb7 S26 3.235234 1_565
Rb7 S42 3.255520 1_555
Rb7 S11 3.402103 1_555
Rb7 S40 3.452423 1_555
Rb7 S30 3.515747 1_555
Rb7 S25 3.616901 1_555
Rb7 S39 3.705740 1_565
Rb7 S32 3.783107 1_555
Rb8 S17 3.374286 1_455
Rb8 S5 3.433463 1_455
Rb8 S0 3.494462 1_555
Rb8 S41 3.509502 1_555
Rb8 S1 3.528549 1_555
Rb8 S38 3.538339 1_555
Rb8 S9 3.575476 1_555
Rb8 S13 3.784350 1_455
Rb9 S2 3.235234 1_665
Rb9 S22 3.255520 1_555
Rb9 S5 3.402103 1_555
Rb9 S27 3.452423 1_655
Rb9 S34 3.515747 1_555
Rb9 S36 3.616901 1_555
Rb9 S35 3.705740 1_565
Rb9 S16 3.783107 1_655
Rb10 S9 3.374286 1_555
Rb10 S12 3.433463 1_555
Rb10 S45 3.494462 1_555
Rb10 S22 3.509502 1_555
Rb10 S11 3.528549 1_554
Rb10 S4 3.538339 1_555
Rb10 S17 3.575476 1_555
Rb10 S18 3.784350 1_555
Rb11 S22 3.383861 1_555
Rb11 S33 3.435807 1_555
Rb11 S18 3.563550 1_555
Rb11 S39 3.599110 1_564
Rb11 S11 3.606044 1_554
Rb11 S25 3.621106 1_554
Rb11 S4 3.645375 1_555
Rb11 S32 3.832631 1_554
Rb11 S6 3.909155 1_565
Rb12 S31 3.374286 1_655
Rb12 S1 3.433463 1_655
Rb12 S3 3.494462 1_555
Rb12 S42 3.509502 1_555
Rb12 S5 3.528549 1_555
Rb12 S8 3.538339 1_555
Rb12 S46 3.575476 1_555
Rb12 S43 3.784350 1_655
Rb13 S47 3.383861 1_555
Rb13 S37 3.435807 1_555
Rb13 S24 3.563550 1_555
Rb13 S15 3.599110 1_546
Rb13 S12 3.606044 1_556
Rb13 S29 3.621106 1_556
Rb13 S20 3.645375 1_555
Rb13 S6 3.832631 1_556
Rb13 S32 3.909155 1_545
Rb14 S42 3.383861 1_555
Rb14 S23 3.435807 1_555
Rb14 S43 3.563550 1_655
Rb14 S35 3.599110 1_565
Rb14 S5 3.606044 1_555
Rb14 S36 3.621106 1_555
Rb14 S8 3.645375 1_555
Rb14 S16 3.832631 1_655
Rb14 S19 3.909155 1_565
Rb15 S34 3.453674 1_555
Rb15 S27 3.465431 1_555
Rb15 S0 3.535029 1_555
Rb15 S16 3.535488 1_555
Rb15 S15 3.680537 1_555
Rb15 S36 3.755665 1_555
Rb15 S2 3.856702 1_565
Rb16 S2 3.453674 1_655
Rb16 S44 3.465431 1_555
Rb16 S45 3.535029 1_555
Rb16 S6 3.535488 1_555
Rb16 S35 3.680537 1_555
Rb16 S29 3.755665 1_655
Rb16 S34 3.856702 1_545
Rb17 S9 3.345972 1_555
Rb17 S13 3.513323 1_555
Rb17 S3 3.521646 1_555
Rb17 S22 3.535070 1_555
Rb17 S17 3.585112 1_555
Rb17 S38 3.798385 1_555
Rb17 S5 3.944475 1_555
Rb18 S46 3.345972 1_555
Rb18 S43 3.513323 1_555
Rb18 S0 3.521646 1_555
Rb18 S47 3.535070 1_555
Rb18 S31 3.585112 1_555
Rb18 S8 3.798385 1_555
Rb18 S1 3.944475 1_555
Rb19 S46 3.374286 1_555
Rb19 S11 3.433463 1_555
Rb19 S10 3.494462 1_555
Rb19 S47 3.509502 1_555
Rb19 S12 3.528549 1_556
Rb19 S20 3.538339 1_555
Rb19 S31 3.575476 1_555
Rb19 S24 3.784350 1_555
P0 S2 2.003797 1_555
P0 S29 2.062896 1_555
P0 S15 2.071092 1_545
P0 S33 2.078496 1_445
P1 S31 2.028112 1_555
P1 S47 2.032127 1_555
P1 S20 2.080988 1_555
P1 S14 2.085170 1_455
P2 S9 2.028112 1_555
P2 S41 2.032127 1_555
P2 S38 2.080988 1_555
P2 S44 2.085170 1_555
P3 S12 2.015620 1_555
P3 S45 2.058362 1_555
P3 S24 2.065689 1_554
P3 S6 2.068558 1_555
P4 S46 2.028112 1_555
P4 S42 2.032127 1_555
P4 S8 2.080988 1_555
P4 S40 2.085170 1_555
P5 S5 2.015620 1_455
P5 S0 2.058362 1_555
P5 S43 2.065689 1_555
P5 S16 2.068558 1_555
P6 S30 2.003797 1_555
P6 S25 2.062896 1_555
P6 S39 2.071092 1_565
P6 S37 2.078496 1_665
P7 S11 2.015620 1_555
P7 S10 2.058362 1_555
P7 S18 2.065689 1_556
P7 S32 2.068558 1_555
P8 S1 2.015620 1_655
P8 S3 2.058362 1_555
P8 S13 2.065689 1_555
P8 S19 2.068558 1_555
P9 S17 2.028112 1_555
P9 S22 2.032127 1_555
P9 S4 2.080988 1_555
P9 S27 2.085170 1_655
P10 S26 2.003797 1_555
P10 S7 2.062896 1_555
P10 S21 2.071092 1_545
P10 S23 2.078496 1_545
P11 S34 2.003797 1_555
P11 S36 2.062896 1_555
P11 S35 2.071092 1_565
P11 S28 2.078496 1_565
S0 Th3 3.126894 1_555
S3 Th0 3.126894 1_555
S4 Th2 2.911892 1_655
S6 Th1 3.011846 1_554
S7 Th0 2.901102 1_555
S8 Th3 2.911892 1_555
S10 Th2 3.126894 1_556
S13 Th0 3.007947 1_555
S14 Th1 2.948216 1_555
S15 Th2 2.886790 1_555
S16 Th3 3.011846 1_555
S18 Th2 3.007947 1_555
S19 Th0 3.011846 1_555
S20 Th1 2.911892 1_455
S21 Th3 2.886790 1_555
S23 Th3 3.008368 1_555
S23 Th0 3.314249 1_565
S24 Th1 3.007947 1_555
S25 Th2 2.901102 1_656
S27 Th2 2.948216 1_555
S28 Th0 3.008368 1_555
S28 Th3 3.314249 1_545
S29 Th1 2.901102 1_454
S32 Th2 3.011846 1_556
S33 Th2 3.008368 1_655
S33 Th1 3.314249 1_564
S35 Th0 2.886790 1_555
S36 Th3 2.901102 1_555
S37 Th1 3.008368 1_455
S37 Th2 3.314249 1_546
S38 Th0 2.911892 1_555
S39 Th1 2.886790 1_555
S40 Th3 2.948216 1_555
S43 Th3 3.007947 1_555
S44 Th0 2.948216 1_555
S45 Th1 3.126894 1_554
