# generated using pymatgen
data_Li2MgMn3O8
_symmetry_space_group_name_H-M   'P 1'
_cell_length_a   8.32995200
_cell_length_b   8.32995200
_cell_length_c   8.32995200
_cell_angle_alpha   90.00000000
_cell_angle_beta   90.00000000
_cell_angle_gamma   90.00000000
_symmetry_Int_Tables_number   1
_chemical_formula_structural   Li2MgMn3O8
_chemical_formula_sum   'Li8 Mg4 Mn12 O32'
_cell_volume   577.99954506
_cell_formula_units_Z   4
loop_
 _symmetry_equiv_pos_site_id
 _symmetry_equiv_pos_as_xyz
  1  'x, y, z'
loop_
 _atom_site_type_symbol
 _atom_site_label
 _atom_site_symmetry_multiplicity
 _atom_site_fract_x
 _atom_site_fract_y
 _atom_site_fract_z
 _atom_site_occupancy
  Li  Li0  1  0.49674200  0.99674200  0.50325800  1
  Li  Li1  1  0.24674200  0.24674200  0.24674200  1
  Li  Li2  1  0.25325800  0.75325800  0.74674200  1
  Li  Li3  1  0.74674200  0.25325800  0.75325800  1
  Li  Li4  1  0.99674200  0.50325800  0.49674200  1
  Li  Li5  1  0.75325800  0.74674200  0.25325800  1
  Li  Li6  1  0.50325800  0.49674200  0.99674200  1
  Li  Li7  1  0.00325800  0.00325800  0.00325800  1
  Mg  Mg0  1  0.37500000  0.12500000  0.87500000  1
  Mg  Mg1  1  0.12500000  0.87500000  0.37500000  1
  Mg  Mg2  1  0.87500000  0.37500000  0.12500000  1
  Mg  Mg3  1  0.62500000  0.62500000  0.62500000  1
  Mn  Mn0  1  0.12500000  0.38013600  0.86986400  1
  Mn  Mn1  1  0.37500000  0.61986400  0.36986400  1
  Mn  Mn2  1  0.63013600  0.87500000  0.88013600  1
  Mn  Mn3  1  0.61986400  0.36986400  0.37500000  1
  Mn  Mn4  1  0.38013600  0.86986400  0.12500000  1
  Mn  Mn5  1  0.88013600  0.63013600  0.87500000  1
  Mn  Mn6  1  0.87500000  0.88013600  0.63013600  1
  Mn  Mn7  1  0.62500000  0.11986400  0.13013600  1
  Mn  Mn8  1  0.11986400  0.13013600  0.62500000  1
  Mn  Mn9  1  0.13013600  0.62500000  0.11986400  1
  Mn  Mn10  1  0.36986400  0.37500000  0.61986400  1
  Mn  Mn11  1  0.86986400  0.12500000  0.38013600  1
  O  O0  1  0.12496400  0.39266400  0.09921100  1
  O  O1  1  0.60733600  0.59921100  0.37503600  1
  O  O2  1  0.39266400  0.09921100  0.12496400  1
  O  O3  1  0.62496400  0.10733600  0.90078900  1
  O  O4  1  0.09921100  0.12496400  0.39266400  1
  O  O5  1  0.36564600  0.63435400  0.13435400  1
  O  O6  1  0.15078900  0.85733600  0.12503600  1
  O  O7  1  0.87503600  0.89266400  0.40078900  1
  O  O8  1  0.40078900  0.87503600  0.89266400  1
  O  O9  1  0.59921100  0.37503600  0.60733600  1
  O  O10  1  0.38435400  0.38435400  0.38435400  1
  O  O11  1  0.37496400  0.84921100  0.35733600  1
  O  O12  1  0.90078900  0.62496400  0.10733600  1
  O  O13  1  0.85733600  0.12503600  0.15078900  1
  O  O14  1  0.89266400  0.40078900  0.87503600  1
  O  O15  1  0.14266400  0.62503600  0.34921100  1
  O  O16  1  0.65078900  0.64266400  0.87496400  1
  O  O17  1  0.61564600  0.88435400  0.11564600  1
  O  O18  1  0.35733600  0.37496400  0.84921100  1
  O  O19  1  0.87496400  0.65078900  0.64266400  1
  O  O20  1  0.62503600  0.34921100  0.14266400  1
  O  O21  1  0.63435400  0.13435400  0.36564600  1
  O  O22  1  0.84921100  0.35733600  0.37496400  1
  O  O23  1  0.88435400  0.11564600  0.61564600  1
  O  O24  1  0.11564600  0.61564600  0.88435400  1
  O  O25  1  0.37503600  0.60733600  0.59921100  1
  O  O26  1  0.10733600  0.90078900  0.62496400  1
  O  O27  1  0.34921100  0.14266400  0.62503600  1
  O  O28  1  0.13435400  0.36564600  0.63435400  1
  O  O29  1  0.64266400  0.87496400  0.65078900  1
  O  O30  1  0.86564600  0.86564600  0.86564600  1
  O  O31  1  0.12503600  0.15078900  0.85733600  1
loop_
_geom_bond_atom_site_label_1
_geom_bond_atom_site_label_2
_geom_bond_distance
_geom_bond_site_symmetry_2
Li0 O21 1.985452 1_565
Li0 O27 2.004189 1_565
Li0 O11 2.004189 1_555
Li0 O29 2.004189 1_555
Li1 O10 1.985452 1_555
Li1 O0 2.004189 1_555
Li1 O2 2.004189 1_555
Li1 O4 2.004189 1_555
Li2 O24 1.985452 1_555
Li2 O8 2.004189 1_555
Li2 O26 2.004189 1_555
Li2 O25 2.004189 1_555
Li3 O23 1.985452 1_555
Li3 O14 2.004189 1_555
Li3 O3 2.004189 1_555
Li3 O9 2.004189 1_555
Li4 O28 1.985452 1_655
Li4 O15 2.004189 1_655
Li4 O22 2.004189 1_555
Li4 O19 2.004189 1_555
Li5 O17 1.985452 1_555
Li5 O7 2.004189 1_555
Li5 O12 2.004189 1_555
Li5 O1 2.004189 1_555
Li6 O5 1.985452 1_556
Li6 O20 2.004189 1_556
Li6 O18 2.004189 1_555
Li6 O16 2.004189 1_555
Li7 O30 1.985452 1_444
Li7 O31 2.004189 1_554
Li7 O13 2.004189 1_455
Li7 O6 2.004189 1_545
Mg0 O2 2.098406 1_556
Mg0 O18 2.098406 1_555
Mg0 O3 2.098406 1_555
Mg0 O27 2.098406 1_555
Mg0 O8 2.098406 1_545
Mg0 O31 2.098406 1_555
Mg1 O4 2.098406 1_565
Mg1 O11 2.098406 1_555
Mg1 O26 2.098406 1_555
Mg1 O15 2.098406 1_555
Mg1 O7 2.098406 1_455
Mg1 O6 2.098406 1_555
Mg2 O0 2.098406 1_655
Mg2 O22 2.098406 1_555
Mg2 O12 2.098406 1_555
Mg2 O20 2.098406 1_555
Mg2 O14 2.098406 1_554
Mg2 O13 2.098406 1_555
Mg3 O16 2.098406 1_555
Mg3 O19 2.098406 1_555
Mg3 O29 2.098406 1_555
Mg3 O9 2.098406 1_555
Mg3 O25 2.098406 1_555
Mg3 O1 2.098406 1_555
Mn0 O0 1.913298 1_556
Mn0 O31 1.913298 1_555
Mn0 O14 1.943457 1_455
Mn0 O18 1.943457 1_555
Mn0 O28 1.967040 1_555
Mn0 O24 1.967040 1_555
Mn1 O11 1.913298 1_555
Mn1 O25 1.913298 1_555
Mn1 O1 1.943457 1_555
Mn1 O15 1.943457 1_555
Mn1 O5 1.967040 1_555
Mn1 O10 1.967040 1_555
Mn2 O8 1.913298 1_555
Mn2 O29 1.913298 1_555
Mn2 O16 1.943457 1_555
Mn2 O3 1.943457 1_565
Mn2 O30 1.967040 1_555
Mn2 O17 1.967040 1_556
Mn3 O22 1.913298 1_555
Mn3 O1 1.913298 1_555
Mn3 O9 1.943457 1_555
Mn3 O20 1.943457 1_555
Mn3 O21 1.967040 1_555
Mn3 O10 1.967040 1_555
Mn4 O2 1.913298 1_565
Mn4 O6 1.913298 1_555
Mn4 O8 1.943457 1_554
Mn4 O11 1.943457 1_555
Mn4 O17 1.967040 1_555
Mn4 O5 1.967040 1_555
Mn5 O14 1.913298 1_555
Mn5 O16 1.913298 1_555
Mn5 O19 1.943457 1_555
Mn5 O12 1.943457 1_556
Mn5 O30 1.967040 1_555
Mn5 O24 1.967040 1_655
Mn6 O7 1.913298 1_555
Mn6 O19 1.913298 1_555
Mn6 O29 1.943457 1_555
Mn6 O26 1.943457 1_655
Mn6 O30 1.967040 1_555
Mn6 O23 1.967040 1_565
Mn7 O20 1.913298 1_555
Mn7 O3 1.913298 1_554
Mn7 O13 1.943457 1_555
Mn7 O2 1.943457 1_555
Mn7 O21 1.967040 1_555
Mn7 O17 1.967040 1_545
Mn8 O27 1.913298 1_555
Mn8 O26 1.913298 1_545
Mn8 O31 1.943457 1_555
Mn8 O4 1.943457 1_555
Mn8 O28 1.967040 1_555
Mn8 O23 1.967040 1_455
Mn9 O15 1.913298 1_555
Mn9 O12 1.913298 1_455
Mn9 O6 1.943457 1_555
Mn9 O0 1.943457 1_555
Mn9 O5 1.967040 1_555
Mn9 O24 1.967040 1_554
Mn10 O18 1.913298 1_555
Mn10 O9 1.913298 1_555
Mn10 O25 1.943457 1_555
Mn10 O27 1.943457 1_555
Mn10 O28 1.967040 1_555
Mn10 O10 1.967040 1_555
Mn11 O4 1.913298 1_655
Mn11 O13 1.913298 1_555
Mn11 O7 1.943457 1_545
Mn11 O22 1.943457 1_555
Mn11 O23 1.967040 1_555
Mn11 O21 1.967040 1_555
