# generated using pymatgen
data_Al(TeCl2)2
_symmetry_space_group_name_H-M   'P 1'
_cell_length_a   11.21872376
_cell_length_b   12.18830403
_cell_length_c   13.93071115
_cell_angle_alpha   90.00000000
_cell_angle_beta   90.00000000
_cell_angle_gamma   90.00000000
_symmetry_Int_Tables_number   1
_chemical_formula_structural   Al(TeCl2)2
_chemical_formula_sum   'Al8 Te16 Cl32'
_cell_volume   1904.84665977
_cell_formula_units_Z   8
loop_
 _symmetry_equiv_pos_site_id
 _symmetry_equiv_pos_as_xyz
  1  'x, y, z'
loop_
 _atom_site_type_symbol
 _atom_site_label
 _atom_site_symmetry_multiplicity
 _atom_site_fract_x
 _atom_site_fract_y
 _atom_site_fract_z
 _atom_site_occupancy
  Al  Al0  1  0.60294035  0.90946311  0.35733924  1
  Al  Al1  1  0.10294035  0.09053689  0.14266076  1
  Al  Al2  1  0.89705965  0.40946311  0.64266076  1
  Al  Al3  1  0.39705965  0.59053689  0.85733924  1
  Al  Al4  1  0.39705965  0.09053689  0.64266076  1
  Al  Al5  1  0.89705965  0.90946311  0.85733924  1
  Al  Al6  1  0.10294035  0.59053689  0.35733924  1
  Al  Al7  1  0.60294035  0.40946311  0.14266076  1
  Te  Te0  1  0.00784050  0.63630488  0.06714740  1
  Te  Te1  1  0.50784050  0.36369512  0.43285260  1
  Te  Te2  1  0.49215950  0.13630488  0.93285260  1
  Te  Te3  1  0.99215950  0.86369512  0.56714740  1
  Te  Te4  1  0.99215950  0.36369512  0.93285260  1
  Te  Te5  1  0.49215950  0.63630488  0.56714740  1
  Te  Te6  1  0.50784050  0.86369512  0.06714740  1
  Te  Te7  1  0.00784050  0.13630488  0.43285260  1
  Te  Te8  1  0.61683438  0.55983230  0.41550930  1
  Te  Te9  1  0.11683438  0.44016770  0.08449070  1
  Te  Te10  1  0.88316562  0.05983230  0.58449070  1
  Te  Te11  1  0.38316562  0.94016770  0.91550930  1
  Te  Te12  1  0.38316562  0.44016770  0.58449070  1
  Te  Te13  1  0.88316562  0.55983230  0.91550930  1
  Te  Te14  1  0.11683438  0.94016770  0.41550930  1
  Te  Te15  1  0.61683438  0.05983230  0.08449070  1
  Cl  Cl0  1  0.61590424  0.58043762  0.11525101  1
  Cl  Cl1  1  0.11590424  0.41956238  0.38474899  1
  Cl  Cl2  1  0.88409576  0.08043762  0.88474899  1
  Cl  Cl3  1  0.38409576  0.91956238  0.61525101  1
  Cl  Cl4  1  0.38409576  0.41956238  0.88474899  1
  Cl  Cl5  1  0.88409576  0.58043762  0.61525101  1
  Cl  Cl6  1  0.11590424  0.91956238  0.11525101  1
  Cl  Cl7  1  0.61590424  0.08043762  0.38474899  1
  Cl  Cl8  1  0.92682423  0.64636487  0.32885946  1
  Cl  Cl9  1  0.42682423  0.35363513  0.17114054  1
  Cl  Cl10  1  0.57317577  0.14636487  0.67114054  1
  Cl  Cl11  1  0.07317577  0.85363513  0.82885946  1
  Cl  Cl12  1  0.07317577  0.35363513  0.67114054  1
  Cl  Cl13  1  0.57317577  0.64636487  0.82885946  1
  Cl  Cl14  1  0.42682423  0.85363513  0.32885946  1
  Cl  Cl15  1  0.92682423  0.14636487  0.17114054  1
  Cl  Cl16  1  0.67666344  0.81724565  0.47648912  1
  Cl  Cl17  1  0.17666344  0.18275435  0.02351088  1
  Cl  Cl18  1  0.82333656  0.31724565  0.52351088  1
  Cl  Cl19  1  0.32333656  0.68275435  0.97648912  1
  Cl  Cl20  1  0.32333656  0.18275435  0.52351088  1
  Cl  Cl21  1  0.82333656  0.81724565  0.97648912  1
  Cl  Cl22  1  0.17666344  0.68275435  0.47648912  1
  Cl  Cl23  1  0.67666344  0.31724565  0.02351088  1
  Cl  Cl24  1  0.71390525  0.87140577  0.23434741  1
  Cl  Cl25  1  0.21390525  0.12859423  0.26565259  1
  Cl  Cl26  1  0.78609475  0.37140577  0.76565259  1
  Cl  Cl27  1  0.28609475  0.62859423  0.73434741  1
  Cl  Cl28  1  0.28609475  0.12859423  0.76565259  1
  Cl  Cl29  1  0.78609475  0.87140577  0.73434741  1
  Cl  Cl30  1  0.21390525  0.62859423  0.23434741  1
  Cl  Cl31  1  0.71390525  0.37140577  0.26565259  1
loop_
_geom_bond_atom_site_label_1
_geom_bond_atom_site_label_2
_geom_bond_distance
_geom_bond_site_symmetry_2
Al0 Cl7 2.123569 1_565
Al0 Cl14 2.127015 1_555
Al0 Cl24 2.168067 1_555
Al0 Cl16 2.168515 1_555
Al1 Cl6 2.123569 1_545
Al1 Cl15 2.127015 1_455
Al1 Cl25 2.168067 1_555
Al1 Cl17 2.168515 1_555
Al2 Cl5 2.123569 1_555
Al2 Cl12 2.127015 1_655
Al2 Cl26 2.168067 1_555
Al2 Cl18 2.168515 1_555
Al3 Cl4 2.123569 1_555
Al3 Cl13 2.127015 1_555
Al3 Cl27 2.168067 1_555
Al3 Cl19 2.168515 1_555
Al4 Cl3 2.123569 1_545
Al4 Cl10 2.127015 1_555
Al4 Cl28 2.168067 1_555
Al4 Cl20 2.168515 1_555
Al5 Cl2 2.123569 1_565
Al5 Cl11 2.127015 1_655
Al5 Cl29 2.168067 1_555
Al5 Cl21 2.168515 1_555
Al6 Cl1 2.123569 1_555
Al6 Cl8 2.127015 1_455
Al6 Cl30 2.168067 1_555
Al6 Cl22 2.168515 1_555
Al7 Cl0 2.123569 1_555
Al7 Cl9 2.127015 1_555
Al7 Cl31 2.168067 1_555
Al7 Cl23 2.168515 1_555
Te0 Te9 2.696000 1_555
Te0 Te13 2.699527 1_454
Te1 Te8 2.696000 1_555
Te1 Te12 2.699527 1_555
Te4 Te9 2.699527 1_656
Te5 Te8 2.699527 1_555
Te10 Te3 2.696000 1_545
Te10 Te7 2.699527 1_655
Te11 Te2 2.696000 1_565
Te11 Te6 2.699527 1_556
Te12 Te5 2.696000 1_555
Te13 Te4 2.696000 1_555
Te14 Te7 2.696000 1_565
Te14 Te3 2.699527 1_455
Te15 Te6 2.696000 1_545
Te15 Te2 2.699527 1_554
