# generated using pymatgen
data_ErBi2ClO4
_symmetry_space_group_name_H-M   'P 1'
_cell_length_a   3.84189573
_cell_length_b   3.84189573
_cell_length_c   8.93974821
_cell_angle_alpha   90.00000000
_cell_angle_beta   90.00000000
_cell_angle_gamma   90.00000000
_symmetry_Int_Tables_number   1
_chemical_formula_structural   ErBi2ClO4
_chemical_formula_sum   'Er1 Bi2 Cl1 O4'
_cell_volume   131.95213897
_cell_formula_units_Z   1
loop_
 _symmetry_equiv_pos_site_id
 _symmetry_equiv_pos_as_xyz
  1  'x, y, z'
loop_
 _atom_site_type_symbol
 _atom_site_label
 _atom_site_symmetry_multiplicity
 _atom_site_fract_x
 _atom_site_fract_y
 _atom_site_fract_z
 _atom_site_occupancy
  Er  Er0  1  0.00000000  0.00000000  0.00000000  1
  Bi  Bi0  1  0.50000000  0.50000000  0.27716386  1
  Bi  Bi1  1  0.50000000  0.50000000  0.72283614  1
  Cl  Cl0  1  0.00000000  0.00000000  0.50000000  1
  O  O0  1  0.50000000  0.00000000  0.84845515  1
  O  O1  1  -0.00000000  0.50000000  0.84845515  1
  O  O2  1  0.50000000  -0.00000000  0.15154485  1
  O  O3  1  0.00000000  0.50000000  0.15154485  1
loop_
_geom_bond_atom_site_label_1
_geom_bond_atom_site_label_2
_geom_bond_distance
_geom_bond_site_symmetry_2
Er0 O1 2.350628 1_554
Er0 O3 2.350628 1_545
Er0 O2 2.350628 1_455
Er0 O1 2.350628 1_544
Er0 O0 2.350628 1_554
Er0 O3 2.350628 1_555
Er0 O2 2.350628 1_555
Er0 O0 2.350628 1_454
Bi0 O2 2.225124 1_555
Bi0 O3 2.225124 1_555
Bi0 O2 2.225124 1_565
Bi0 O3 2.225124 1_655
Bi1 O0 2.225124 1_555
Bi1 O1 2.225124 1_555
Bi1 O0 2.225124 1_565
Bi1 O1 2.225124 1_655
