# generated using pymatgen
data_Ca14MnP11
_symmetry_space_group_name_H-M   'P 1'
_cell_length_a   14.90528392
_cell_length_b   14.90528392
_cell_length_c   14.90528392
_cell_angle_alpha   118.15836137
_cell_angle_beta   118.10258505
_cell_angle_gamma   93.26981990
_symmetry_Int_Tables_number   1
_chemical_formula_structural   Ca14MnP11
_chemical_formula_sum   'Ca56 Mn4 P44'
_cell_volume   2403.49565578
_cell_formula_units_Z   4
loop_
 _symmetry_equiv_pos_site_id
 _symmetry_equiv_pos_as_xyz
  1  'x, y, z'
loop_
 _atom_site_type_symbol
 _atom_site_label
 _atom_site_symmetry_multiplicity
 _atom_site_fract_x
 _atom_site_fract_y
 _atom_site_fract_z
 _atom_site_occupancy
  Ca  Ca0  1  0.50000000  0.35178300  0.85178300  1
  Ca  Ca1  1  0.64546700  0.62343800  0.11466900  1
  Ca  Ca2  1  0.87792300  0.84048300  0.37920700  1
  Ca  Ca3  1  0.58573800  0.50077000  0.77147000  1
  Ca  Ca4  1  0.72935800  0.37262600  0.09656400  1
  Ca  Ca5  1  0.46127500  0.34048300  0.46256000  1
  Ca  Ca6  1  0.36677300  0.26845600  0.14765700  1
  Ca  Ca7  1  0.86713500  0.72340700  0.09676000  1
  Ca  Ca8  1  0.69566600  0.27439100  0.77934500  1
  Ca  Ca9  1  0.14454700  0.99565400  0.64785200  1
  Ca  Ca10  1  0.96999200  0.49331700  0.11455000  1
  Ca  Ca11  1  0.12079900  0.76845600  0.40168300  1
  Ca  Ca12  1  0.85545300  0.50330500  0.85110700  1
  Ca  Ca13  1  0.41426200  0.18573200  0.91503200  1
  Ca  Ca14  1  0.77410400  0.49869200  0.58381900  1
  Ca  Ca15  1  0.30433400  0.08367900  0.57872500  1
  Ca  Ca16  1  0.99776000  0.72976200  0.91038800  1
  Ca  Ca17  1  0.23203300  0.13347900  0.35209500  1
  Ca  Ca18  1  0.87920100  0.28088400  0.64765700  1
  Ca  Ca19  1  0.78138400  0.63347900  0.40144600  1
  Ca  Ca20  1  0.00224000  0.91262800  0.73200200  1
  Ca  Ca21  1  0.15926200  0.03819500  0.03849900  1
  Ca  Ca22  1  0.27070000  0.68573200  0.27147000  1
  Ca  Ca23  1  0.12207700  0.50128500  0.96256000  1
  Ca  Ca24  1  0.00000000  0.64798400  0.64798400  1
  Ca  Ca25  1  0.49123100  0.96920300  0.61466900  1
  Ca  Ca26  1  0.27606200  0.87262600  0.14326800  1
  Ca  Ca27  1  0.00030300  0.37923600  0.53849900  1
  Ca  Ca28  1  0.50876900  0.12343800  0.47797100  1
  Ca  Ca29  1  0.21861600  0.62006200  0.85209500  1
  Ca  Ca30  1  0.99969700  0.53819500  0.37893300  1
  Ca  Ca31  1  0.50000000  0.85178300  0.35178300  1
  Ca  Ca32  1  0.37876700  0.99331700  0.02332500  1
  Ca  Ca33  1  0.22589600  0.80971600  0.72458900  1
  Ca  Ca34  1  0.35453300  0.46920300  0.97797100  1
  Ca  Ca35  1  0.50495400  0.58367900  0.27934500  1
  Ca  Ca36  1  0.72393800  0.86720500  0.59656400  1
  Ca  Ca37  1  0.62664700  0.22340700  0.35627200  1
  Ca  Ca38  1  0.27064200  0.36720500  0.64326800  1
  Ca  Ca39  1  0.49504600  0.77439100  0.07872500  1
  Ca  Ca40  1  0.18062600  0.41262800  0.41038800  1
  Ca  Ca41  1  0.72930000  0.00077000  0.41503200  1
  Ca  Ca42  1  0.08512700  0.30971600  0.08381900  1
  Ca  Ca43  1  0.65219800  0.00330500  0.14785200  1
  Ca  Ca44  1  0.37335300  0.72962500  0.59676000  1
  Ca  Ca45  1  0.53872500  0.00128500  0.87920700  1
  Ca  Ca46  1  0.34780200  0.49565400  0.35110700  1
  Ca  Ca47  1  0.81937400  0.22976200  0.23200200  1
  Ca  Ca48  1  0.63322700  0.78088400  0.90168300  1
  Ca  Ca49  1  0.13286500  0.22962500  0.85627200  1
  Ca  Ca50  1  0.03000800  0.14455900  0.52332500  1
  Ca  Ca51  1  0.76796700  0.12006200  0.90144600  1
  Ca  Ca52  1  0.91487300  0.99869200  0.22458900  1
  Ca  Ca53  1  0.62123300  0.64455900  0.61455000  1
  Ca  Ca54  1  0.84073800  0.87923600  0.87893300  1
  Ca  Ca55  1  0.00000000  0.14798400  0.14798400  1
  Mn  Mn0  1  0.62569600  0.37399000  0.24966600  1
  Mn  Mn1  1  0.12432400  0.87399000  0.24829400  1
  Mn  Mn2  1  0.87567600  0.12397000  0.74966600  1
  Mn  Mn3  1  0.37430400  0.62397000  0.74829400  1
  P  P0  1  0.55359200  0.43242300  0.11160400  1
  P  P1  1  0.42603900  0.26957500  0.60391300  1
  P  P2  1  0.74631200  0.49624800  0.99187700  1
  P  P3  1  0.85536300  0.60568900  0.21091700  1
  P  P4  1  0.76895200  0.66883300  0.84568400  1
  P  P5  1  0.55764200  0.44313600  0.37887500  1
  P  P6  1  0.06426100  0.94313600  0.38549400  1
  P  P7  1  0.25368800  0.24556500  0.74993600  1
  P  P8  1  0.67819200  0.33516100  0.60730700  1
  P  P9  1  0.05375900  0.94209700  0.12011600  1
  P  P10  1  0.83171500  0.72863900  0.65434900  1
  P  P11  1  0.32180800  0.92911500  0.65696900  1
  P  P12  1  0.05869800  0.67840700  0.10901500  1
  P  P13  1  0.93573900  0.32123300  0.87887500  1
  P  P14  1  0.98793800  0.51343800  0.75031200  1
  P  P15  1  0.82198000  0.44209700  0.38833800  1
  P  P16  1  0.32081900  0.93242300  0.37883100  1
  P  P17  1  0.57396100  0.17787400  0.84353600  1
  P  P18  1  0.16828500  0.82263400  0.89692300  1
  P  P19  1  0.27214600  0.42911500  0.10730700  1
  P  P20  1  0.01206200  0.76237300  0.52550000  1
  P  P21  1  0.49562900  0.74556500  0.49187700  1
  P  P22  1  0.39477300  0.10568900  0.25032600  1
  P  P23  1  0.23104800  0.07673300  0.89988100  1
  P  P24  1  0.14463700  0.35555400  0.75032600  1
  P  P25  1  0.33433800  0.67787400  0.10391300  1
  P  P26  1  0.92571100  0.32263400  0.15434900  1
  P  P27  1  0.17802000  0.56635700  0.62011600  1
  P  P28  1  0.67918100  0.05801200  0.61160400  1
  P  P29  1  0.50437100  0.99624800  0.24993600  1
  P  P30  1  0.56939200  0.17840700  0.11970900  1
  P  P31  1  0.44235800  0.82123300  0.88549400  1
  P  P32  1  0.17685200  0.57673300  0.34568400  1
  P  P33  1  0.66566200  0.76957500  0.34353600  1
  P  P34  1  0.44640800  0.55801200  0.87883100  1
  P  P35  1  0.82314800  0.16883300  0.39988100  1
  P  P36  1  0.23687300  0.26237300  0.25031200  1
  P  P37  1  0.43060800  0.55031700  0.60901500  1
  P  P38  1  0.94130200  0.05031700  0.61970900  1
  P  P39  1  0.72785400  0.83516100  0.15696900  1
  P  P40  1  0.76312700  0.01343800  0.02550000  1
  P  P41  1  0.60522700  0.85555400  0.71091700  1
  P  P42  1  0.07428900  0.22863900  0.39692300  1
  P  P43  1  0.94624100  0.06635700  0.88833800  1
loop_
_geom_bond_atom_site_label_1
_geom_bond_atom_site_label_2
_geom_bond_distance
_geom_bond_site_symmetry_2
Ca0 P1 2.846514 1_555
Ca0 P17 2.846514 1_555
Ca0 P34 3.108594 1_555
Ca0 P0 3.108594 1_556
Ca0 P2 3.179271 1_555
Ca0 P7 3.179271 1_555
Ca1 P3 2.853103 1_555
Ca1 P33 2.901212 1_555
Ca1 P34 2.952908 1_554
Ca1 P39 2.969024 1_555
Ca1 P2 2.974103 1_554
Ca1 P0 3.058937 1_555
Ca2 P20 2.943137 1_655
Ca2 P39 2.955279 1_555
Ca2 P33 2.985439 1_555
Ca2 P6 3.032928 1_655
Ca2 P38 3.068486 1_565
Ca2 P3 3.072225 1_555
Ca3 P37 2.891897 1_555
Ca3 P4 2.952072 1_555
Ca3 P1 3.019815 1_555
Ca3 P2 3.057024 1_555
Ca3 P34 3.105810 1_555
Ca3 P8 3.441459 1_555
Ca4 P0 2.887788 1_555
Ca4 P26 2.888309 1_555
Ca4 P17 2.947131 1_554
Ca4 P2 2.987637 1_554
Ca4 P3 3.025190 1_555
Ca4 P15 3.438309 1_555
Ca5 P36 2.943123 1_555
Ca5 P8 2.955290 1_555
Ca5 P1 2.985431 1_555
Ca5 P5 3.032938 1_555
Ca5 P37 3.068478 1_555
Ca5 P22 3.072231 1_555
Ca6 P5 2.863409 1_555
Ca6 P23 2.870401 1_554
Ca6 P36 3.000043 1_555
Ca6 P19 3.005152 1_555
Ca6 P22 3.379325 1_555
Ca7 P12 2.911828 1_655
Ca7 P39 2.937467 1_555
Ca7 P4 2.939386 1_554
Ca7 P2 2.967750 1_554
Ca7 P3 3.011431 1_555
Ca7 P6 3.401051 1_655
Ca8 P28 2.904049 1_555
Ca8 P17 2.985362 1_555
Ca8 P8 3.008941 1_555
Ca8 P2 3.019200 1_555
Ca8 P13 3.037947 1_555
Ca9 P11 2.840916 1_555
Ca9 P23 2.865148 1_565
Ca9 P20 3.025679 1_555
Ca9 P38 3.069880 1_465
Ca9 P6 3.151546 1_555
Ca9 P7 3.234885 1_565
Ca10 P3 2.855816 1_555
Ca10 P32 2.904139 1_655
Ca10 P2 2.968110 1_554
Ca10 P13 2.972615 1_554
Ca10 P26 2.976841 1_555
Ca10 P12 3.044264 1_655
Ca11 P6 2.863409 1_555
Ca11 P32 2.870400 1_555
Ca11 P20 3.000030 1_555
Ca11 P11 3.005152 1_555
Ca11 P3 3.379326 1_455
Ca12 P8 2.840916 1_555
Ca12 P4 2.865152 1_555
Ca12 P14 3.025666 1_555
Ca12 P12 3.069880 1_656
Ca12 P13 3.151546 1_555
Ca12 P2 3.234885 1_555
Ca13 P30 2.891897 1_556
Ca13 P23 2.952065 1_555
Ca13 P17 3.019815 1_555
Ca13 P7 3.057024 1_555
Ca13 P0 3.105810 1_556
Ca13 P11 3.441459 1_545
Ca14 P14 2.884272 1_555
Ca14 P5 2.906802 1_555
Ca14 P8 2.997835 1_555
Ca14 P10 3.000476 1_555
Ca14 P15 3.068907 1_555
Ca15 P16 2.904049 1_545
Ca15 P1 2.985362 1_555
Ca15 P11 3.008941 1_545
Ca15 P7 3.019200 1_555
Ca15 P6 3.037947 1_545
Ca16 P9 2.896235 1_656
Ca16 P14 2.909791 1_555
Ca16 P18 2.959445 1_655
Ca16 P4 3.017839 1_555
Ca16 P12 3.140198 1_656
Ca16 P10 3.424420 1_555
Ca17 P9 2.885124 1_545
Ca17 P1 2.912790 1_555
Ca17 P36 2.972548 1_555
Ca17 P42 2.992077 1_555
Ca17 P22 3.368171 1_555
Ca18 P13 2.863409 1_555
Ca18 P35 2.870401 1_555
Ca18 P14 3.000026 1_555
Ca18 P8 3.005152 1_555
Ca18 P24 3.379326 1_655
Ca19 P15 2.885120 1_555
Ca19 P33 2.912790 1_555
Ca19 P20 2.972561 1_655
Ca19 P10 2.992069 1_555
Ca19 P3 3.368157 1_555
Ca20 P43 2.896235 1_465
Ca20 P20 2.909796 1_555
Ca20 P10 2.959434 1_455
Ca20 P23 3.017845 1_565
Ca20 P38 3.140198 1_465
Ca20 P18 3.424412 1_555
Ca21 P36 2.938110 1_555
Ca21 P18 2.951597 1_544
Ca21 P23 2.979358 1_554
Ca21 P9 3.032241 1_545
Ca21 P22 3.075879 1_555
Ca21 P43 3.100138 1_454
Ca22 P12 2.891897 1_555
Ca22 P32 2.952052 1_555
Ca22 P25 3.019815 1_555
Ca22 P21 3.057024 1_555
Ca22 P16 3.105810 1_555
Ca22 P19 3.441459 1_555
Ca23 P14 2.943116 1_455
Ca23 P19 2.955290 1_556
Ca23 P25 2.985431 1_556
Ca23 P13 3.032938 1_455
Ca23 P12 3.068478 1_556
Ca23 P24 3.072228 1_555
Ca24 P18 2.864699 1_555
Ca24 P10 2.864706 1_455
Ca24 P20 3.079694 1_555
Ca24 P14 3.079706 1_455
Ca24 P15 3.102123 1_455
Ca24 P27 3.102134 1_555
Ca25 P41 2.853110 1_555
Ca25 P17 2.901205 1_565
Ca25 P16 2.952901 1_555
Ca25 P11 2.969028 1_555
Ca25 P21 2.974115 1_555
Ca25 P28 3.058931 1_565
Ca26 P16 2.887788 1_555
Ca26 P18 2.888309 1_554
Ca26 P25 2.947131 1_555
Ca26 P29 2.987637 1_555
Ca26 P22 3.025194 1_565
Ca26 P9 3.438306 1_555
Ca27 P14 2.938110 1_455
Ca27 P42 2.951595 1_555
Ca27 P35 2.979340 1_455
Ca27 P27 3.032270 1_555
Ca27 P24 3.075863 1_555
Ca27 P15 3.100148 1_455
Ca28 P22 2.853103 1_555
Ca28 P1 2.901212 1_555
Ca28 P28 2.952908 1_555
Ca28 P8 2.969024 1_555
Ca28 P29 2.974103 1_545
Ca28 P16 3.058937 1_545
Ca29 P27 2.885130 1_555
Ca29 P25 2.912790 1_556
Ca29 P14 2.972565 1_455
Ca29 P18 2.992071 1_555
Ca29 P24 3.368157 1_555
Ca30 P20 2.938110 1_655
Ca30 P26 2.951594 1_555
Ca30 P32 2.979354 1_655
Ca30 P15 3.032266 1_555
Ca30 P3 3.075874 1_555
Ca30 P27 3.100138 1_655
Ca31 P33 2.846514 1_555
Ca31 P25 2.846514 1_555
Ca31 P16 3.108594 1_555
Ca31 P28 3.108594 1_565
Ca31 P21 3.179271 1_555
Ca31 P29 3.179271 1_555
Ca32 P22 2.855808 1_565
Ca32 P23 2.904146 1_564
Ca32 P29 2.968110 1_555
Ca32 P31 2.972615 1_554
Ca32 P18 2.976841 1_554
Ca32 P30 3.044264 1_565
Ca33 P20 2.884268 1_555
Ca33 P31 2.906803 1_555
Ca33 P11 2.997837 1_555
Ca33 P18 3.000452 1_555
Ca33 P27 3.068930 1_555
Ca34 P24 2.853103 1_555
Ca34 P25 2.901200 1_556
Ca34 P0 2.952916 1_556
Ca34 P19 2.969031 1_556
Ca34 P7 2.974111 1_555
Ca34 P34 3.058927 1_555
Ca35 P0 2.904049 1_555
Ca35 P33 2.985362 1_555
Ca35 P19 3.008941 1_555
Ca35 P21 3.019200 1_555
Ca35 P5 3.037947 1_555
Ca36 P28 2.887803 1_565
Ca36 P10 2.888283 1_555
Ca36 P33 2.947133 1_555
Ca36 P21 2.987632 1_555
Ca36 P41 3.025199 1_555
Ca36 P43 3.438309 1_565
Ca37 P30 2.911828 1_555
Ca37 P8 2.937467 1_555
Ca37 P35 2.939373 1_555
Ca37 P29 2.967750 1_545
Ca37 P22 3.011418 1_555
Ca37 P5 3.401051 1_555
Ca38 P34 2.887794 1_555
Ca38 P42 2.888308 1_555
Ca38 P1 2.947124 1_555
Ca38 P7 2.987624 1_555
Ca38 P24 3.025186 1_555
Ca38 P27 3.438314 1_555
Ca39 P34 2.904049 1_554
Ca39 P25 2.985362 1_555
Ca39 P39 3.008941 1_555
Ca39 P29 3.019200 1_555
Ca39 P31 3.037947 1_554
Ca40 P27 2.896226 1_555
Ca40 P36 2.909787 1_555
Ca40 P42 2.959432 1_555
Ca40 P32 3.017855 1_555
Ca40 P37 3.140198 1_555
Ca40 P26 3.424412 1_455
Ca41 P38 2.891897 1_555
Ca41 P35 2.952065 1_555
Ca41 P33 3.019815 1_545
Ca41 P29 3.057024 1_545
Ca41 P28 3.105810 1_555
Ca41 P39 3.441459 1_545
Ca42 P36 2.884286 1_555
Ca42 P13 2.906793 1_454
Ca42 P19 2.997828 1_555
Ca42 P26 3.000462 1_455
Ca42 P43 3.068928 1_454
Ca43 P39 2.840916 1_545
Ca43 P35 2.865148 1_555
Ca43 P40 3.025679 1_555
Ca43 P30 3.069880 1_555
Ca43 P31 3.151546 1_544
Ca43 P29 3.234885 1_545
Ca44 P37 2.911828 1_555
Ca44 P11 2.937467 1_555
Ca44 P32 2.939379 1_555
Ca44 P21 2.967750 1_555
Ca44 P41 3.011418 1_555
Ca44 P31 3.401051 1_555
Ca45 P40 2.943131 1_556
Ca45 P11 2.955284 1_545
Ca45 P17 2.985421 1_555
Ca45 P31 3.032948 1_545
Ca45 P30 3.068489 1_556
Ca45 P41 3.072207 1_545
Ca46 P19 2.840916 1_555
Ca46 P32 2.865146 1_555
Ca46 P36 3.025683 1_555
Ca46 P37 3.069880 1_555
Ca46 P5 3.151546 1_555
Ca46 P21 3.234885 1_555
Ca47 P15 2.896241 1_555
Ca47 P40 2.909796 1_555
Ca47 P26 2.959445 1_555
Ca47 P35 3.017845 1_555
Ca47 P30 3.140198 1_555
Ca47 P42 3.424406 1_655
Ca48 P31 2.863409 1_555
Ca48 P4 2.870406 1_555
Ca48 P40 3.000030 1_566
Ca48 P39 3.005152 1_556
Ca48 P41 3.379322 1_555
Ca49 P38 2.911828 1_455
Ca49 P19 2.937467 1_556
Ca49 P23 2.939373 1_555
Ca49 P7 2.967750 1_555
Ca49 P24 3.011431 1_555
Ca49 P13 3.401051 1_455
Ca50 P24 2.855808 1_555
Ca50 P35 2.904139 1_455
Ca50 P7 2.968111 1_555
Ca50 P6 2.972626 1_545
Ca50 P42 2.976841 1_555
Ca50 P38 3.044273 1_455
Ca51 P43 2.885124 1_555
Ca51 P17 2.912790 1_555
Ca51 P40 2.972561 1_556
Ca51 P26 2.992071 1_556
Ca51 P41 3.368161 1_545
Ca52 P40 2.884277 1_565
Ca52 P6 2.906793 1_655
Ca52 P39 2.997828 1_555
Ca52 P42 3.000473 1_665
Ca52 P9 3.068928 1_655
Ca53 P41 2.855808 1_555
Ca53 P4 2.904142 1_555
Ca53 P21 2.968097 1_555
Ca53 P5 2.972622 1_555
Ca53 P10 2.976841 1_555
Ca53 P37 3.044269 1_555
Ca54 P40 2.938110 1_566
Ca54 P10 2.951591 1_555
Ca54 P4 2.979336 1_555
Ca54 P43 3.032254 1_565
Ca54 P41 3.075886 1_555
Ca54 P9 3.100133 1_656
Ca55 P42 2.864696 1_555
Ca55 P26 2.864699 1_455
Ca55 P36 3.079689 1_555
Ca55 P40 3.079694 1_455
Ca55 P43 3.102120 1_454
Ca55 P9 3.102120 1_545
Mn0 P30 2.411367 1_555
Mn0 P15 2.417862 1_555
Mn0 P0 2.421401 1_555
Mn0 P5 2.426222 1_555
Mn1 P12 2.411367 1_555
Mn1 P9 2.417874 1_555
Mn1 P16 2.421401 1_555
Mn1 P6 2.426222 1_555
Mn2 P38 2.411367 1_555
Mn2 P43 2.417874 1_555
Mn2 P28 2.421401 1_555
Mn2 P13 2.426222 1_555
Mn3 P37 2.411367 1_555
Mn3 P27 2.417862 1_555
Mn3 P34 2.421401 1_555
Mn3 P31 2.426222 1_555
P2 P3 2.373533 1_556
P21 P41 2.373533 1_555
P22 P29 2.373522 1_545
P24 P7 2.373533 1_555
