# generated using pymatgen
data_BaErAgS3
_symmetry_space_group_name_H-M   'P 1'
_cell_length_a   4.05828400
_cell_length_b   8.60324651
_cell_length_c   8.99866005
_cell_angle_alpha   102.66863977
_cell_angle_beta   103.03191674
_cell_angle_gamma   90.00000000
_symmetry_Int_Tables_number   1
_chemical_formula_structural   BaErAgS3
_chemical_formula_sum   'Ba2 Er2 Ag2 S6'
_cell_volume   298.23473645
_cell_formula_units_Z   2
loop_
 _symmetry_equiv_pos_site_id
 _symmetry_equiv_pos_as_xyz
  1  'x, y, z'
loop_
 _atom_site_type_symbol
 _atom_site_label
 _atom_site_symmetry_multiplicity
 _atom_site_fract_x
 _atom_site_fract_y
 _atom_site_fract_z
 _atom_site_occupancy
  Ba  Ba0  1  0.86414700  0.43111200  0.72829400  1
  Ba  Ba1  1  0.13585300  0.56888800  0.27170600  1
  Er  Er0  1  0.16382600  0.08043800  0.32765200  1
  Er  Er1  1  0.83617400  0.91956200  0.67234800  1
  Ag  Ag0  1  0.51463100  0.20868700  0.02926200  1
  Ag  Ag1  1  0.48536900  0.79131300  0.97073800  1
  S  S0  1  0.32529000  0.12943900  0.65058000  1
  S  S1  1  0.67471000  0.87056100  0.34942000  1
  S  S2  1  0.32404400  0.70091600  0.64808800  1
  S  S3  1  0.67595600  0.29908400  0.35191200  1
  S  S4  1  0.50000000  0.50000000  0.00000000  1
  S  S5  1  0.00000000  0.00000000  0.00000000  1
loop_
_geom_bond_atom_site_label_1
_geom_bond_atom_site_label_2
_geom_bond_distance
_geom_bond_site_symmetry_2
Ba0 S4 3.083356 1_556
Ba0 S4 3.083356 1_656
Ba0 S3 3.238949 1_555
Ba0 S0 3.243675 1_555
Ba0 S0 3.243675 1_655
Ba0 S2 3.276371 1_555
Ba0 S2 3.276371 1_655
Ba1 S4 3.083356 1_555
Ba1 S4 3.083356 1_455
Ba1 S2 3.238949 1_555
Ba1 S1 3.243675 1_455
Ba1 S1 3.243675 1_555
Ba1 S3 3.276371 1_455
Ba1 S3 3.276371 1_555
Er0 S3 2.742433 1_555
Er0 S3 2.742433 1_455
Er0 S1 2.751227 1_445
Er0 S1 2.751227 1_545
Er0 S0 2.766835 1_555
Er0 S5 2.799132 1_555
Er1 S2 2.742433 1_655
Er1 S2 2.742433 1_555
Er1 S0 2.751227 1_665
Er1 S0 2.751227 1_565
Er1 S1 2.766835 1_555
Er1 S5 2.799132 1_666
Ag0 S4 2.576141 1_555
Ag0 S5 2.683146 1_555
Ag0 S5 2.683146 1_655
Ag0 S3 2.759639 1_555
Ag1 S4 2.576141 1_556
Ag1 S5 2.683146 1_566
Ag1 S5 2.683146 1_666
Ag1 S2 2.759639 1_555
