# generated using pymatgen
data_Si3Ir
_symmetry_space_group_name_H-M   'P 1'
_cell_length_a   4.77763587
_cell_length_b   4.77763587
_cell_length_c   6.42282600
_cell_angle_alpha   90.00000000
_cell_angle_beta   90.00000000
_cell_angle_gamma   119.99999825
_symmetry_Int_Tables_number   1
_chemical_formula_structural   Si3Ir
_chemical_formula_sum   'Si6 Ir2'
_cell_volume   126.96467057
_cell_formula_units_Z   2
loop_
 _symmetry_equiv_pos_site_id
 _symmetry_equiv_pos_as_xyz
  1  'x, y, z'
loop_
 _atom_site_type_symbol
 _atom_site_label
 _atom_site_symmetry_multiplicity
 _atom_site_fract_x
 _atom_site_fract_y
 _atom_site_fract_z
 _atom_site_occupancy
  Si  Si0  1  0.66543500  0.83271700  0.58145900  1
  Si  Si1  1  0.33456500  0.16728300  0.08145900  1
  Si  Si2  1  0.83271700  0.66543500  0.08145900  1
  Si  Si3  1  0.16728300  0.83271700  0.58145900  1
  Si  Si4  1  0.83271700  0.16728300  0.08145900  1
  Si  Si5  1  0.16728300  0.33456500  0.58145900  1
  Ir  Ir0  1  0.66666700  0.33333300  0.75462200  1
  Ir  Ir1  1  0.33333300  0.66666700  0.25462200  1
loop_
_geom_bond_atom_site_label_1
_geom_bond_atom_site_label_2
_geom_bond_distance
_geom_bond_site_symmetry_2
Si0 Si3 2.379989 1_555
Si0 Si5 2.379989 1_555
Si0 Si3 2.397647 1_655
Si0 Si5 2.397647 1_665
Si1 Si4 2.379989 1_555
Si1 Si2 2.379989 1_555
Si1 Si4 2.397647 1_455
Si1 Si2 2.397647 1_445
Si2 Si4 2.379989 1_555
Si2 Si4 2.397647 1_565
Si3 Si5 2.379989 1_555
Si3 Si5 2.397647 1_565
Ir0 Si4 2.508947 1_556
Ir0 Si1 2.508951 1_556
Ir0 Si2 2.508951 1_556
Ir0 Si0 2.635044 1_555
Ir0 Si5 2.635044 1_555
Ir0 Si5 2.635044 1_655
Ir0 Si0 2.635044 1_545
Ir0 Si3 2.635044 1_655
Ir0 Si3 2.635044 1_545
Ir1 Si3 2.508947 1_555
Ir1 Si5 2.508951 1_555
Ir1 Si0 2.508951 1_555
Ir1 Si2 2.635044 1_555
Ir1 Si1 2.635044 1_555
Ir1 Si1 2.635044 1_565
Ir1 Si2 2.635044 1_455
Ir1 Si4 2.635044 1_565
Ir1 Si4 2.635044 1_455
