# generated using pymatgen
data_CsTi3Si2P6O25
_symmetry_space_group_name_H-M   'P 1'
_cell_length_a   8.36275501
_cell_length_b   8.36275501
_cell_length_c   17.52852100
_cell_angle_alpha   90.00000000
_cell_angle_beta   90.00000000
_cell_angle_gamma   119.99999218
_symmetry_Int_Tables_number   1
_chemical_formula_structural   CsTi3Si2P6O25
_chemical_formula_sum   'Cs2 Ti6 Si4 P12 O50'
_cell_volume   1061.63367929
_cell_formula_units_Z   2
loop_
 _symmetry_equiv_pos_site_id
 _symmetry_equiv_pos_as_xyz
  1  'x, y, z'
loop_
 _atom_site_type_symbol
 _atom_site_label
 _atom_site_symmetry_multiplicity
 _atom_site_fract_x
 _atom_site_fract_y
 _atom_site_fract_z
 _atom_site_occupancy
  Cs  Cs0  1  0.33333300  0.66666700  0.25000000  1
  Cs  Cs1  1  0.66666700  0.33333300  0.75000000  1
  Ti  Ti0  1  0.33333300  0.66666700  0.02232400  1
  Ti  Ti1  1  0.33333300  0.66666700  0.47767600  1
  Ti  Ti2  1  0.66666700  0.33333300  0.97767600  1
  Ti  Ti3  1  0.66666700  0.33333300  0.52232400  1
  Ti  Ti4  1  0.66666700  0.33333300  0.25000000  1
  Ti  Ti5  1  0.33333300  0.66666700  0.75000000  1
  Si  Si0  1  0.00000000  0.00000000  0.09133400  1
  Si  Si1  1  0.00000000  0.00000000  0.40866600  1
  Si  Si2  1  0.00000000  0.00000000  0.90866600  1
  Si  Si3  1  0.00000000  0.00000000  0.59133400  1
  P  P0  1  0.38406600  0.33223800  0.10915200  1
  P  P1  1  0.66776200  0.05182900  0.10915200  1
  P  P2  1  0.94817100  0.61593400  0.10915200  1
  P  P3  1  0.66776200  0.61593400  0.39084800  1
  P  P4  1  0.94817100  0.33223800  0.39084800  1
  P  P5  1  0.38406600  0.05182900  0.39084800  1
  P  P6  1  0.61593400  0.66776200  0.89084800  1
  P  P7  1  0.33223800  0.94817100  0.89084800  1
  P  P8  1  0.05182900  0.38406600  0.89084800  1
  P  P9  1  0.33223800  0.38406600  0.60915200  1
  P  P10  1  0.05182900  0.66776200  0.60915200  1
  P  P11  1  0.61593400  0.94817100  0.60915200  1
  O  O0  1  0.11797500  0.59978000  0.08955700  1
  O  O1  1  0.40022000  0.51819600  0.08955700  1
  O  O2  1  0.48180400  0.88202500  0.08955700  1
  O  O3  1  0.40022000  0.88202500  0.41044300  1
  O  O4  1  0.48180400  0.59978000  0.41044300  1
  O  O5  1  0.11797500  0.51819600  0.41044300  1
  O  O6  1  0.88202500  0.40022000  0.91044300  1
  O  O7  1  0.59978000  0.48180400  0.91044300  1
  O  O8  1  0.51819600  0.11797500  0.91044300  1
  O  O9  1  0.59978000  0.11797500  0.58955700  1
  O  O10  1  0.51819600  0.40022000  0.58955700  1
  O  O11  1  0.88202500  0.48180400  0.58955700  1
  O  O12  1  0.80765000  0.25340500  0.45607300  1
  O  O13  1  0.74659500  0.55424600  0.45607300  1
  O  O14  1  0.44575400  0.19235000  0.45607300  1
  O  O15  1  0.74659500  0.19235000  0.04392700  1
  O  O16  1  0.44575400  0.25340500  0.04392700  1
  O  O17  1  0.80765000  0.55424600  0.04392700  1
  O  O18  1  0.19235000  0.74659500  0.54392700  1
  O  O19  1  0.25340500  0.44575400  0.54392700  1
  O  O20  1  0.55424600  0.80765000  0.54392700  1
  O  O21  1  0.25340500  0.80765000  0.95607300  1
  O  O22  1  0.55424600  0.74659500  0.95607300  1
  O  O23  1  0.19235000  0.44575400  0.95607300  1
  O  O24  1  0.47883600  0.34578400  0.18526100  1
  O  O25  1  0.65421600  0.13305300  0.18526100  1
  O  O26  1  0.86694700  0.52116400  0.18526100  1
  O  O27  1  0.65421600  0.52116400  0.31473900  1
  O  O28  1  0.86694700  0.34578400  0.31473900  1
  O  O29  1  0.47883600  0.13305300  0.31473900  1
  O  O30  1  0.52116400  0.65421600  0.81473900  1
  O  O31  1  0.34578400  0.86694700  0.81473900  1
  O  O32  1  0.13305300  0.47883600  0.81473900  1
  O  O33  1  0.34578400  0.47883600  0.68526100  1
  O  O34  1  0.13305300  0.65421600  0.68526100  1
  O  O35  1  0.52116400  0.86694700  0.68526100  1
  O  O36  1  0.00000000  0.00000000  0.00000000  1
  O  O37  1  0.00000000  0.00000000  0.50000000  1
  O  O38  1  0.02219400  0.82997200  0.12472000  1
  O  O39  1  0.17002800  0.19222300  0.12472000  1
  O  O40  1  0.80777700  0.97780600  0.12472000  1
  O  O41  1  0.17002800  0.97780600  0.37528000  1
  O  O42  1  0.80777700  0.82997200  0.37528000  1
  O  O43  1  0.02219400  0.19222300  0.37528000  1
  O  O44  1  0.97780600  0.17002800  0.87528000  1
  O  O45  1  0.82997200  0.80777700  0.87528000  1
  O  O46  1  0.19222300  0.02219400  0.87528000  1
  O  O47  1  0.82997200  0.02219400  0.62472000  1
  O  O48  1  0.19222300  0.17002800  0.62472000  1
  O  O49  1  0.97780600  0.80777700  0.62472000  1
loop_
_geom_bond_atom_site_label_1
_geom_bond_atom_site_label_2
_geom_bond_distance
_geom_bond_site_symmetry_2
Cs0 O4 3.233918 1_555
Cs0 O1 3.233918 1_555
Cs0 O3 3.233918 1_555
Cs0 O0 3.233918 1_555
Cs0 O2 3.233918 1_555
Cs0 O5 3.233918 1_555
Cs0 O27 3.637937 1_555
Cs0 O24 3.637937 1_555
Cs0 O29 3.637937 1_565
Cs0 O26 3.637937 1_455
Cs0 O25 3.637937 1_565
Cs0 O28 3.637937 1_455
Cs1 O7 3.233918 1_555
Cs1 O10 3.233918 1_555
Cs1 O6 3.233918 1_555
Cs1 O9 3.233918 1_555
Cs1 O11 3.233918 1_555
Cs1 O8 3.233918 1_555
Cs1 O30 3.637937 1_555
Cs1 O33 3.637937 1_555
Cs1 O32 3.637937 1_655
Cs1 O35 3.637937 1_545
Cs1 O34 3.637937 1_655
Cs1 O31 3.637937 1_545
O0 P2 1.531189 1_455
O0 Ti0 1.984411 1_555
O1 P0 1.531189 1_555
O1 Ti0 1.984411 1_555
O2 P1 1.531189 1_565
O2 Ti0 1.984411 1_555
O3 P5 1.531189 1_565
O3 Ti1 1.984411 1_555
O4 P3 1.531189 1_555
O4 Ti1 1.984411 1_555
O5 P4 1.531189 1_455
O5 Ti1 1.984411 1_555
O6 P8 1.531189 1_655
O6 Ti2 1.984411 1_555
O7 P6 1.531189 1_555
O7 Ti2 1.984411 1_555
O8 P7 1.531189 1_545
O8 Ti2 1.984411 1_555
O9 P11 1.531189 1_545
O9 Ti3 1.984411 1_555
O10 P9 1.531189 1_555
O10 Ti3 1.984411 1_555
O11 P10 1.531189 1_655
O11 Ti3 1.984411 1_555
O12 P4 1.532315 1_555
O12 Ti3 1.993360 1_555
O13 P3 1.532315 1_555
O13 Ti3 1.993373 1_555
O14 P5 1.532315 1_555
O14 Ti3 1.993371 1_555
O15 P1 1.532315 1_555
O15 Ti2 1.993360 1_554
O16 P0 1.532315 1_555
O16 Ti2 1.993373 1_554
O17 P2 1.532315 1_555
O17 Ti2 1.993371 1_554
O18 P10 1.532315 1_555
O18 Ti1 1.993360 1_555
O19 P9 1.532315 1_555
O19 Ti1 1.993373 1_555
O20 P11 1.532315 1_555
O20 Ti1 1.993371 1_555
O21 P7 1.532315 1_555
O21 Ti0 1.993360 1_556
O22 P6 1.532315 1_555
O22 Ti0 1.993373 1_556
O23 P8 1.532315 1_555
O23 Ti0 1.993371 1_556
O24 P0 1.526740 1_555
O24 Ti4 1.982293 1_555
O25 P1 1.526740 1_555
O25 Ti4 1.982280 1_555
O26 P2 1.526740 1_555
O26 Ti4 1.982286 1_555
O27 P3 1.526740 1_555
O27 Ti4 1.982293 1_555
O28 P4 1.526740 1_555
O28 Ti4 1.982280 1_555
O29 P5 1.526740 1_555
O29 Ti4 1.982286 1_555
O30 P6 1.526740 1_555
O30 Ti5 1.982293 1_555
O31 P7 1.526740 1_555
O31 Ti5 1.982280 1_555
O32 P8 1.526740 1_555
O32 Ti5 1.982286 1_555
O33 P9 1.526740 1_555
O33 Ti5 1.982293 1_555
O34 P10 1.526740 1_555
O34 Ti5 1.982280 1_555
O35 P11 1.526740 1_555
O35 Ti5 1.982286 1_555
O36 Si0 1.600950 1_555
O36 Si2 1.600950 1_554
O37 Si1 1.600950 1_555
O37 Si3 1.600950 1_555
O38 P2 1.597980 1_455
O38 Si0 1.631757 1_565
O39 P0 1.597980 1_555
O39 Si0 1.631762 1_555
O40 P1 1.597980 1_565
O40 Si0 1.631765 1_665
O41 P5 1.597980 1_565
O41 Si1 1.631757 1_565
O42 P3 1.597980 1_555
O42 Si1 1.631762 1_665
O43 P4 1.597980 1_455
O43 Si1 1.631765 1_555
O44 P8 1.597980 1_655
O44 Si2 1.631757 1_655
O45 P6 1.597980 1_555
O45 Si2 1.631762 1_665
O46 P7 1.597980 1_545
O46 Si2 1.631765 1_555
O47 P11 1.597980 1_545
O47 Si3 1.631757 1_655
O48 P9 1.597980 1_555
O48 Si3 1.631762 1_555
O49 P10 1.597980 1_655
O49 Si3 1.631765 1_665
