# generated using pymatgen
data_Rb2BeH4(SO5)2
_symmetry_space_group_name_H-M   'P 1'
_cell_length_a   12.04303200
_cell_length_b   7.53370500
_cell_length_c   11.50453884
_cell_angle_alpha   83.57104098
_cell_angle_beta   90.00000000
_cell_angle_gamma   90.00000000
_symmetry_Int_Tables_number   1
_chemical_formula_structural   Rb2BeH4(SO5)2
_chemical_formula_sum   'Rb8 Be4 H16 S8 O40'
_cell_volume   1037.22735120
_cell_formula_units_Z   4
loop_
 _symmetry_equiv_pos_site_id
 _symmetry_equiv_pos_as_xyz
  1  'x, y, z'
loop_
 _atom_site_type_symbol
 _atom_site_label
 _atom_site_symmetry_multiplicity
 _atom_site_fract_x
 _atom_site_fract_y
 _atom_site_fract_z
 _atom_site_occupancy
  Rb  Rb0  1  0.76168100  0.98864900  0.90832400  1
  Rb  Rb1  1  0.26168100  0.51135100  0.09167600  1
  Rb  Rb2  1  0.23831900  0.01135100  0.09167600  1
  Rb  Rb3  1  0.73831900  0.48864900  0.90832400  1
  Rb  Rb4  1  0.89799700  0.33431200  0.60551600  1
  Rb  Rb5  1  0.39799700  0.16568800  0.39448400  1
  Rb  Rb6  1  0.10200300  0.66568800  0.39448400  1
  Rb  Rb7  1  0.60200300  0.83431200  0.60551600  1
  Be  Be0  1  0.91965900  0.07546400  0.23226300  1
  Be  Be1  1  0.41965900  0.42453600  0.76773700  1
  Be  Be2  1  0.08034100  0.92453600  0.76773700  1
  Be  Be3  1  0.58034100  0.57546400  0.23226300  1
  H  H0  1  0.81946700  0.02782200  0.40454800  1
  H  H1  1  0.31946700  0.47217800  0.59545200  1
  H  H2  1  0.18053300  0.97217800  0.59545200  1
  H  H3  1  0.68053300  0.52782200  0.40454800  1
  H  H4  1  0.73671800  0.09293900  0.29160600  1
  H  H5  1  0.23671800  0.40706100  0.70839400  1
  H  H6  1  0.26328200  0.90706100  0.70839400  1
  H  H7  1  0.76328200  0.59293900  0.29160600  1
  H  H8  1  0.91021000  0.38469200  0.18162100  1
  H  H9  1  0.41021000  0.11530800  0.81837900  1
  H  H10  1  0.08979000  0.61530800  0.81837900  1
  H  H11  1  0.58979000  0.88469200  0.18162100  1
  H  H12  1  0.97990000  0.28541100  0.08745300  1
  H  H13  1  0.47990000  0.21458900  0.91254700  1
  H  H14  1  0.02010000  0.71458900  0.91254700  1
  H  H15  1  0.52010000  0.78541100  0.08745300  1
  S  S0  1  0.94527900  0.73992600  0.12731800  1
  S  S1  1  0.44527900  0.76007400  0.87268200  1
  S  S2  1  0.05472100  0.26007400  0.87268200  1
  S  S3  1  0.55472100  0.23992600  0.12731800  1
  S  S4  1  0.89270200  0.83945900  0.63407800  1
  S  S5  1  0.39270200  0.66054100  0.36592200  1
  S  S6  1  0.10729800  0.16054100  0.36592200  1
  S  S7  1  0.60729800  0.33945900  0.63407800  1
  O  O0  1  0.06678700  0.73761100  0.14063000  1
  O  O1  1  0.56678700  0.76238900  0.85937000  1
  O  O2  1  0.93321300  0.26238900  0.85937000  1
  O  O3  1  0.43321300  0.23761100  0.14063000  1
  O  O4  1  0.91305300  0.70159000  0.00750100  1
  O  O5  1  0.41305300  0.79841000  0.99249900  1
  O  O6  1  0.08694700  0.29841000  0.99249900  1
  O  O7  1  0.58694700  0.20159000  0.00750100  1
  O  O8  1  0.89261700  0.60658500  0.21692300  1
  O  O9  1  0.39261700  0.89341500  0.78307700  1
  O  O10  1  0.10738300  0.39341500  0.78307700  1
  O  O11  1  0.60738300  0.10658500  0.21692300  1
  O  O12  1  0.89936500  0.92404600  0.14170000  1
  O  O13  1  0.39936500  0.57595400  0.85830000  1
  O  O14  1  0.10063500  0.07595400  0.85830000  1
  O  O15  1  0.60063500  0.42404600  0.14170000  1
  O  O16  1  0.96086900  0.70866900  0.58073800  1
  O  O17  1  0.46086900  0.79133100  0.41926200  1
  O  O18  1  0.03913100  0.29133100  0.41926200  1
  O  O19  1  0.53913100  0.20866900  0.58073800  1
  O  O20  1  0.81671200  0.75169200  0.72396900  1
  O  O21  1  0.31671200  0.74830800  0.27603100  1
  O  O22  1  0.18328800  0.24830800  0.27603100  1
  O  O23  1  0.68328800  0.25169200  0.72396900  1
  O  O24  1  0.82795800  0.95663400  0.54576700  1
  O  O25  1  0.32795800  0.54336600  0.45423300  1
  O  O26  1  0.17204200  0.04336600  0.45423300  1
  O  O27  1  0.67204200  0.45663400  0.54576700  1
  O  O28  1  0.96860900  0.96610700  0.69371000  1
  O  O29  1  0.46860900  0.53389300  0.30629000  1
  O  O30  1  0.03139100  0.03389300  0.30629000  1
  O  O31  1  0.53139100  0.46610700  0.69371000  1
  O  O32  1  0.81409100  0.08497600  0.32163200  1
  O  O33  1  0.31409100  0.41502400  0.67836800  1
  O  O34  1  0.18590900  0.91502400  0.67836800  1
  O  O35  1  0.68590900  0.58497600  0.32163200  1
  O  O36  1  0.91889500  0.26932300  0.14741700  1
  O  O37  1  0.41889500  0.23067700  0.85258300  1
  O  O38  1  0.08110500  0.73067700  0.85258300  1
  O  O39  1  0.58110500  0.76932300  0.14741700  1
loop_
_geom_bond_atom_site_label_1
_geom_bond_atom_site_label_2
_geom_bond_distance
_geom_bond_site_symmetry_2
Be0 O30 1.604454 1_655
Be0 O32 1.641669 1_555
Be0 O12 1.647028 1_545
Be0 O36 1.663317 1_555
Be1 O31 1.604454 1_555
Be1 O33 1.641669 1_555
Be1 O13 1.647028 1_555
Be1 O37 1.663317 1_555
Be2 O28 1.604454 1_455
Be2 O34 1.641669 1_555
Be2 O14 1.647028 1_565
Be2 O38 1.663317 1_555
Be3 O29 1.604454 1_555
Be3 O35 1.641669 1_555
Be3 O15 1.647028 1_555
Be3 O39 1.663317 1_555
H0 O32 1.003771 1_555
H0 O24 1.656043 1_545
H1 O33 1.003771 1_555
H1 O25 1.656043 1_555
H2 O34 1.003771 1_555
H2 O26 1.656043 1_565
H3 O35 1.003771 1_555
H3 O27 1.656043 1_555
H4 O32 0.993250 1_555
H5 O33 0.993250 1_555
H6 O34 0.993250 1_555
H7 O35 0.993250 1_555
H8 O36 0.998903 1_555
H9 O37 0.998903 1_555
H10 O38 0.998903 1_555
H11 O39 0.998903 1_555
H12 O36 1.005799 1_555
H12 O6 1.685508 1_654
H13 O37 1.005799 1_555
H13 O7 1.685508 1_556
H14 O38 1.005799 1_555
H14 O4 1.685508 1_456
H15 O39 1.005799 1_555
H15 O5 1.685508 1_554
O0 S0 1.471217 1_455
O0 Rb2 2.928730 1_565
O0 Rb6 2.940791 1_555
O0 Rb1 2.991103 1_555
O1 S1 1.471217 1_555
O1 Rb3 2.928730 1_555
O1 Rb7 2.940791 1_555
O1 Rb0 2.991103 1_555
O2 S2 1.471217 1_655
O2 Rb0 2.928730 1_545
O2 Rb4 2.940791 1_555
O2 Rb3 2.991103 1_555
O3 S3 1.471217 1_555
O3 Rb1 2.928730 1_555
O3 Rb5 2.940791 1_555
O3 Rb2 2.991103 1_555
O4 S0 1.491067 1_555
O4 Rb3 2.951867 1_554
O4 Rb0 2.957944 1_554
O5 S1 1.491067 1_555
O5 Rb2 2.951867 1_566
O5 Rb1 2.957944 1_556
O6 S2 1.491067 1_555
O6 Rb1 2.951867 1_556
O6 Rb2 2.957944 1_556
O7 S3 1.491067 1_555
O7 Rb0 2.951867 1_544
O7 Rb3 2.957944 1_554
O8 S0 1.497372 1_555
O8 Rb6 3.306583 1_655
O9 S1 1.497372 1_555
O9 Rb7 3.306583 1_555
O10 S2 1.497372 1_555
O10 Rb4 3.306583 1_455
O11 S3 1.497372 1_555
O11 Rb5 3.306583 1_555
O12 S0 1.519402 1_555
O12 Rb0 3.146784 1_554
O13 S1 1.519402 1_555
O13 Rb1 3.146784 1_556
O14 S2 1.519402 1_555
O14 Rb2 3.146784 1_556
O15 S3 1.519402 1_555
O15 Rb3 3.146784 1_554
O16 S4 1.468603 1_555
O16 Rb6 2.782192 1_655
O16 Rb4 2.903204 1_555
O17 S5 1.468603 1_555
O17 Rb7 2.782192 1_555
O17 Rb5 2.903204 1_565
O18 S6 1.468603 1_555
O18 Rb4 2.782192 1_455
O18 Rb6 2.903204 1_555
O19 S7 1.468603 1_555
O19 Rb5 2.782192 1_555
O19 Rb7 2.903204 1_545
O20 S4 1.480218 1_555
O20 Rb3 2.894039 1_555
O20 Rb7 2.956458 1_555
O20 Rb0 2.995367 1_555
O21 S5 1.480218 1_555
O21 Rb2 2.894039 1_565
O21 Rb6 2.956458 1_555
O21 Rb1 2.995367 1_555
O22 S6 1.480218 1_555
O22 Rb1 2.894039 1_555
O22 Rb5 2.956458 1_555
O22 Rb2 2.995367 1_555
O23 S7 1.480218 1_555
O23 Rb0 2.894039 1_545
O23 Rb4 2.956458 1_555
O23 Rb3 2.995367 1_555
O24 S4 1.489492 1_555
O24 Rb7 2.929968 1_555
O24 Rb4 3.117333 1_565
O25 S5 1.489492 1_555
O25 Rb6 2.929968 1_555
O25 Rb5 3.117333 1_555
O26 S6 1.489492 1_555
O26 Rb5 2.929968 1_555
O26 Rb6 3.117333 1_545
O27 S7 1.489492 1_555
O27 Rb4 2.929968 1_555
O27 Rb7 3.117333 1_555
O28 S4 1.537292 1_555
O28 Rb4 2.969364 1_565
O29 S5 1.537292 1_555
O29 Rb5 2.969364 1_555
O30 S6 1.537292 1_555
O30 Rb6 2.969364 1_545
O31 S7 1.537292 1_555
O31 Rb7 2.969364 1_555
