# generated using pymatgen
data_KZrP2HO8
_symmetry_space_group_name_H-M   'P 1'
_cell_length_a   5.41966700
_cell_length_b   9.35397300
_cell_length_c   16.84846834
_cell_angle_alpha   65.68436760
_cell_angle_beta   90.00000000
_cell_angle_gamma   90.00000000
_symmetry_Int_Tables_number   1
_chemical_formula_structural   KZrP2HO8
_chemical_formula_sum   'K4 Zr4 P8 H4 O32'
_cell_volume   778.37021061
_cell_formula_units_Z   4
loop_
 _symmetry_equiv_pos_site_id
 _symmetry_equiv_pos_as_xyz
  1  'x, y, z'
loop_
 _atom_site_type_symbol
 _atom_site_label
 _atom_site_symmetry_multiplicity
 _atom_site_fract_x
 _atom_site_fract_y
 _atom_site_fract_z
 _atom_site_occupancy
  K  K0  1  0.94342600  0.50000000  0.75000000  1
  K  K1  1  0.05657400  0.50000000  0.25000000  1
  K  K2  1  0.03858600  0.00000000  0.75000000  1
  K  K3  1  0.96141400  0.00000000  0.25000000  1
  Zr  Zr0  1  0.22226500  0.25237200  0.50105900  1
  Zr  Zr1  1  0.22226500  0.74762800  0.99894100  1
  Zr  Zr2  1  0.77773500  0.74762800  0.49894100  1
  Zr  Zr3  1  0.77773500  0.25237200  0.00105900  1
  P  P0  1  0.27551000  0.83569300  0.61136900  1
  P  P1  1  0.27551000  0.16430700  0.88863100  1
  P  P2  1  0.72449000  0.16430700  0.38863100  1
  P  P3  1  0.72449000  0.83569300  0.11136900  1
  P  P4  1  0.72128300  0.33327800  0.61472700  1
  P  P5  1  0.72128300  0.66672200  0.88527300  1
  P  P6  1  0.27871700  0.66672200  0.38527300  1
  P  P7  1  0.27871700  0.33327800  0.11472700  1
  H  H0  1  0.47727500  0.74907200  0.74284300  1
  H  H1  1  0.47727500  0.25092800  0.75715700  1
  H  H2  1  0.52272500  0.25092800  0.25715700  1
  H  H3  1  0.52272500  0.74907200  0.24284300  1
  O  O0  1  0.23713200  0.01145400  0.58852500  1
  O  O1  1  0.23713200  0.98854600  0.91147500  1
  O  O2  1  0.76286800  0.98854600  0.41147500  1
  O  O3  1  0.76286800  0.01145400  0.08852500  1
  O  O4  1  0.50756200  0.80519700  0.56908300  1
  O  O5  1  0.50756200  0.19480300  0.93091700  1
  O  O6  1  0.49243800  0.19480300  0.43091700  1
  O  O7  1  0.49243800  0.80519700  0.06908300  1
  O  O8  1  0.04363400  0.76785300  0.58721600  1
  O  O9  1  0.04363400  0.23214700  0.91278400  1
  O  O10  1  0.95636600  0.23214700  0.41278400  1
  O  O11  1  0.95636600  0.76785300  0.08721600  1
  O  O12  1  0.47954900  0.30897800  0.57330500  1
  O  O13  1  0.47954900  0.69102200  0.92669500  1
  O  O14  1  0.52045100  0.69102200  0.42669500  1
  O  O15  1  0.52045100  0.30897800  0.07330500  1
  O  O16  1  0.22800100  0.48864400  0.41442600  1
  O  O17  1  0.22800100  0.51135600  0.08557400  1
  O  O18  1  0.77199900  0.51135600  0.58557400  1
  O  O19  1  0.77199900  0.48864400  0.91442600  1
  O  O20  1  0.93927000  0.26310800  0.58267700  1
  O  O21  1  0.93927000  0.73689200  0.91732300  1
  O  O22  1  0.06073000  0.73689200  0.41732300  1
  O  O23  1  0.06073000  0.26310800  0.08267700  1
  O  O24  1  0.30120300  0.74747800  0.71354100  1
  O  O25  1  0.30120300  0.25252200  0.78645900  1
  O  O26  1  0.69879700  0.25252200  0.28645900  1
  O  O27  1  0.69879700  0.74747800  0.21354100  1
  O  O28  1  0.70511100  0.74703800  0.78562400  1
  O  O29  1  0.70511100  0.25296200  0.71437600  1
  O  O30  1  0.29488900  0.25296200  0.21437600  1
  O  O31  1  0.29488900  0.74703800  0.28562400  1
loop_
_geom_bond_atom_site_label_1
_geom_bond_atom_site_label_2
_geom_bond_distance
_geom_bond_site_symmetry_2
K0 O19 2.882158 1_555
K0 O18 2.882158 1_555
K0 O24 2.885292 1_655
K0 O25 2.885292 1_655
K0 O9 2.904408 1_655
K0 O8 2.904408 1_655
K0 O28 2.917256 1_555
K0 O29 2.917256 1_555
K1 O16 2.882158 1_555
K1 O17 2.882158 1_555
K1 O27 2.885292 1_455
K1 O26 2.885292 1_455
K1 O11 2.904408 1_455
K1 O10 2.904408 1_455
K1 O31 2.917256 1_555
K1 O30 2.917256 1_555
K2 O29 2.838307 1_455
K2 O28 2.838307 1_445
K2 O1 2.886351 1_545
K2 O0 2.886351 1_555
K2 O21 2.929251 1_445
K2 O20 2.929251 1_455
K2 O25 3.029434 1_555
K2 O24 3.029434 1_545
K3 O30 2.838307 1_655
K3 O31 2.838307 1_645
K3 O2 2.886351 1_545
K3 O3 2.886351 1_555
K3 O22 2.929251 1_645
K3 O23 2.929251 1_655
K3 O26 3.029434 1_555
K3 O27 3.029434 1_545
H0 O24 1.077318 1_555
H0 O28 1.425950 1_555
H1 O25 1.077318 1_555
H1 O29 1.425950 1_555
H2 O26 1.077318 1_555
H2 O30 1.425950 1_555
H3 O27 1.077318 1_555
H3 O31 1.425950 1_555
O0 P0 1.540531 1_545
O0 Zr0 2.126436 1_555
O1 P1 1.540531 1_565
O1 Zr1 2.126436 1_555
O2 P2 1.540531 1_565
O2 Zr2 2.126436 1_555
O3 P3 1.540531 1_545
O3 Zr3 2.126436 1_555
O4 P0 1.529053 1_555
O4 Zr2 2.086792 1_555
O5 P1 1.529053 1_555
O5 Zr3 2.086792 1_556
O6 P2 1.529053 1_555
O6 Zr0 2.086792 1_555
O7 P3 1.529053 1_555
O7 Zr1 2.086792 1_554
O8 P0 1.536300 1_555
O8 Zr2 2.134547 1_455
O9 P1 1.536300 1_555
O9 Zr3 2.134547 1_456
O10 P2 1.536300 1_555
O10 Zr0 2.134547 1_655
O11 P3 1.536300 1_555
O11 Zr1 2.134547 1_654
O12 P4 1.544595 1_555
O12 Zr0 2.058429 1_555
O13 P5 1.544595 1_555
O13 Zr1 2.058429 1_555
O14 P6 1.544595 1_555
O14 Zr2 2.058429 1_555
O15 P7 1.544595 1_555
O15 Zr3 2.058429 1_555
O16 P6 1.554894 1_555
O16 Zr0 2.087903 1_555
O17 P7 1.554894 1_555
O17 Zr1 2.087903 1_554
O18 P4 1.554894 1_555
O18 Zr2 2.087903 1_555
O19 P5 1.554894 1_555
O19 Zr3 2.087903 1_556
O20 P4 1.552432 1_555
O20 Zr0 2.089778 1_655
O21 P5 1.552432 1_555
O21 Zr1 2.089778 1_655
O22 P6 1.552432 1_555
O22 Zr2 2.089778 1_455
O23 P7 1.552432 1_555
O23 Zr3 2.089778 1_455
O24 P0 1.579193 1_555
O25 P1 1.579193 1_555
O26 P2 1.579193 1_555
O27 P3 1.579193 1_555
O28 P5 1.533677 1_555
O29 P4 1.533677 1_555
O30 P7 1.533677 1_555
O31 P6 1.533677 1_555
