# generated using pymatgen
data_Bi3Se4
_symmetry_space_group_name_H-M   'P 1'
_cell_length_a   13.23266371
_cell_length_b   13.23266371
_cell_length_c   13.23266378
_cell_angle_alpha   18.84018889
_cell_angle_beta   18.84018889
_cell_angle_gamma   18.84018760
_symmetry_Int_Tables_number   1
_chemical_formula_structural   Bi3Se4
_chemical_formula_sum   'Bi3 Se4'
_cell_volume   211.14607428
_cell_formula_units_Z   1
loop_
 _symmetry_equiv_pos_site_id
 _symmetry_equiv_pos_as_xyz
  1  'x, y, z'
loop_
 _atom_site_type_symbol
 _atom_site_label
 _atom_site_symmetry_multiplicity
 _atom_site_fract_x
 _atom_site_fract_y
 _atom_site_fract_z
 _atom_site_occupancy
  Bi  Bi0  1  -0.00000000  -0.00000000  0.00000000  1
  Bi  Bi1  1  0.42622447  0.42622447  0.42622447  1
  Bi  Bi2  1  0.57377553  0.57377553  0.57377553  1
  Se  Se0  1  0.12812279  0.12812279  0.12812279  1
  Se  Se1  1  0.87187721  0.87187721  0.87187721  1
  Se  Se2  1  0.29155531  0.29155531  0.29155531  1
  Se  Se3  1  0.70844469  0.70844469  0.70844469  1
loop_
_geom_bond_atom_site_label_1
_geom_bond_atom_site_label_2
_geom_bond_distance
_geom_bond_site_symmetry_2
Bi0 Se2 2.984415 1_545
Bi0 Se3 2.984415 1_454
Bi0 Se3 2.984415 1_544
Bi0 Se2 2.984415 1_455
Bi0 Se3 2.984415 1_445
Bi0 Se2 2.984415 1_554
Bi1 Se0 2.853179 1_565
Bi1 Se0 2.853179 1_655
Bi1 Se0 2.853179 1_556
Bi1 Se3 3.197575 1_455
Bi1 Se3 3.197575 1_545
Bi1 Se3 3.197575 1_554
Bi2 Se1 2.853179 1_455
Bi2 Se1 2.853179 1_545
Bi2 Se1 2.853179 1_554
Bi2 Se2 3.197575 1_655
Bi2 Se2 3.197575 1_565
Bi2 Se2 3.197575 1_556
