# generated using pymatgen
data_DyMoO4F
_symmetry_space_group_name_H-M   'P 1'
_cell_length_a   12.44382900
_cell_length_b   5.27003100
_cell_length_c   6.73406170
_cell_angle_alpha   66.84522279
_cell_angle_beta   90.00000000
_cell_angle_gamma   90.00000000
_symmetry_Int_Tables_number   1
_chemical_formula_structural   DyMoO4F
_chemical_formula_sum   'Dy4 Mo4 O16 F4'
_cell_volume   406.04158726
_cell_formula_units_Z   4
loop_
 _symmetry_equiv_pos_site_id
 _symmetry_equiv_pos_as_xyz
  1  'x, y, z'
loop_
 _atom_site_type_symbol
 _atom_site_label
 _atom_site_symmetry_multiplicity
 _atom_site_fract_x
 _atom_site_fract_y
 _atom_site_fract_z
 _atom_site_occupancy
  Dy  Dy0  1  0.55129800  0.63890900  0.69988100  1
  Dy  Dy1  1  0.94870200  0.63890900  0.19988100  1
  Dy  Dy2  1  0.05129800  0.36109100  0.80011900  1
  Dy  Dy3  1  0.44870200  0.36109100  0.30011900  1
  Mo  Mo0  1  0.35667300  0.07889000  0.86963600  1
  Mo  Mo1  1  0.85667300  0.92111000  0.63036400  1
  Mo  Mo2  1  0.64332700  0.92111000  0.13036400  1
  Mo  Mo3  1  0.14332700  0.07889000  0.36963600  1
  O  O0  1  0.93113200  0.99633300  0.83761100  1
  O  O1  1  0.27738400  0.19308100  0.29474800  1
  O  O2  1  0.93479400  0.69108100  0.53827300  1
  O  O3  1  0.34708600  0.76174100  0.09285200  1
  O  O4  1  0.56886800  0.99633300  0.33761100  1
  O  O5  1  0.84708600  0.23825900  0.40714800  1
  O  O6  1  0.77738400  0.80691900  0.20525200  1
  O  O7  1  0.15291400  0.76174100  0.59285200  1
  O  O8  1  0.06886800  0.00366700  0.16238900  1
  O  O9  1  0.43113200  0.00366700  0.66238900  1
  O  O10  1  0.22261600  0.19308100  0.79474800  1
  O  O11  1  0.43479400  0.30891900  0.96172700  1
  O  O12  1  0.06520600  0.30891900  0.46172700  1
  O  O13  1  0.56520600  0.69108100  0.03827300  1
  O  O14  1  0.72261600  0.80691900  0.70525200  1
  O  O15  1  0.65291400  0.23825900  0.90714800  1
  F  F0  1  0.09760800  0.54512600  0.03599500  1
  F  F1  1  0.59760800  0.45487400  0.46400500  1
  F  F2  1  0.40239200  0.54512600  0.53599500  1
  F  F3  1  0.90239200  0.45487400  0.96400500  1
loop_
_geom_bond_atom_site_label_1
_geom_bond_atom_site_label_2
_geom_bond_distance
_geom_bond_site_symmetry_2
Dy0 F1 2.237700 1_555
Dy0 F2 2.307525 1_555
Dy0 O14 2.314141 1_555
Dy0 O9 2.369229 1_565
Dy0 O15 2.384865 1_555
Dy0 O13 2.406448 1_556
Dy0 O11 2.413241 1_555
Dy0 O4 2.435868 1_555
Dy1 F3 2.237700 1_554
Dy1 F0 2.307525 1_655
Dy1 O6 2.314141 1_555
Dy1 O8 2.369229 1_665
Dy1 O5 2.384865 1_555
Dy1 O2 2.406448 1_555
Dy1 O12 2.413241 1_655
Dy1 O0 2.435868 1_554
Dy2 F0 2.237700 1_556
Dy2 F3 2.307525 1_455
Dy2 O10 2.314141 1_555
Dy2 O0 2.369229 1_445
Dy2 O7 2.384865 1_555
Dy2 O12 2.406448 1_555
Dy2 O2 2.413241 1_455
Dy2 O8 2.435868 1_556
Dy3 F2 2.237700 1_555
Dy3 F1 2.307525 1_555
Dy3 O1 2.314141 1_555
Dy3 O4 2.369229 1_545
Dy3 O3 2.384865 1_555
Dy3 O11 2.406448 1_554
Dy3 O13 2.413241 1_555
Dy3 O9 2.435868 1_555
Mo0 O3 1.758247 1_546
Mo0 O10 1.777817 1_555
Mo0 O11 1.841305 1_555
Mo0 O9 1.843502 1_555
Mo1 O5 1.758247 1_565
Mo1 O14 1.777817 1_555
Mo1 O2 1.841305 1_555
Mo1 O0 1.843502 1_555
Mo2 O15 1.758247 1_564
Mo2 O6 1.777817 1_555
Mo2 O13 1.841305 1_555
Mo2 O4 1.843502 1_555
Mo3 O7 1.758247 1_545
Mo3 O1 1.777817 1_555
Mo3 O12 1.841305 1_555
Mo3 O8 1.843502 1_555
