# generated using pymatgen
data_Ba3AlF9
_symmetry_space_group_name_H-M   'P 1'
_cell_length_a   5.65912200
_cell_length_b   10.23109200
_cell_length_c   15.07179500
_cell_angle_alpha   90.00000000
_cell_angle_beta   90.00000000
_cell_angle_gamma   90.00000000
_symmetry_Int_Tables_number   1
_chemical_formula_structural   Ba3AlF9
_chemical_formula_sum   'Ba12 Al4 F36'
_cell_volume   872.64182587
_cell_formula_units_Z   4
loop_
 _symmetry_equiv_pos_site_id
 _symmetry_equiv_pos_as_xyz
  1  'x, y, z'
loop_
 _atom_site_type_symbol
 _atom_site_label
 _atom_site_symmetry_multiplicity
 _atom_site_fract_x
 _atom_site_fract_y
 _atom_site_fract_z
 _atom_site_occupancy
  Ba  Ba0  1  0.25000000  0.83013600  0.45915300  1
  Ba  Ba1  1  0.75000000  0.26515700  0.81963300  1
  Ba  Ba2  1  0.75000000  0.16986400  0.54084700  1
  Ba  Ba3  1  0.25000000  0.44694200  0.60071500  1
  Ba  Ba4  1  0.25000000  0.94694200  0.89928500  1
  Ba  Ba5  1  0.75000000  0.76515700  0.68036700  1
  Ba  Ba6  1  0.25000000  0.73484300  0.18036700  1
  Ba  Ba7  1  0.25000000  0.23484300  0.31963300  1
  Ba  Ba8  1  0.75000000  0.66986400  0.95915300  1
  Ba  Ba9  1  0.25000000  0.33013600  0.04084700  1
  Ba  Ba10  1  0.75000000  0.55305800  0.39928500  1
  Ba  Ba11  1  0.75000000  0.05305800  0.10071500  1
  Al  Al0  1  0.25000000  0.52390300  0.83115400  1
  Al  Al1  1  0.25000000  0.02390300  0.66884600  1
  Al  Al2  1  0.75000000  0.97609700  0.33115400  1
  Al  Al3  1  0.75000000  0.47609700  0.16884600  1
  F  F0  1  0.01895000  0.95549500  0.59403300  1
  F  F1  1  0.98105000  0.04450500  0.40596700  1
  F  F2  1  0.47885000  0.08486200  0.74132600  1
  F  F3  1  0.25000000  0.17259500  0.60058600  1
  F  F4  1  0.75000000  0.82740500  0.39941400  1
  F  F5  1  0.00301100  0.85129900  0.04380100  1
  F  F6  1  0.25000000  0.14322400  0.15232400  1
  F  F7  1  0.48105000  0.95549500  0.59403300  1
  F  F8  1  0.50301100  0.64870100  0.54380100  1
  F  F9  1  0.75000000  0.35677600  0.65232400  1
  F  F10  1  0.00301100  0.35129900  0.45619900  1
  F  F11  1  0.75000000  0.85677600  0.84767600  1
  F  F12  1  0.52115000  0.91513800  0.25867400  1
  F  F13  1  0.47885000  0.58486200  0.75867400  1
  F  F14  1  0.97885000  0.41513800  0.24132600  1
  F  F15  1  0.52115000  0.41513800  0.24132600  1
  F  F16  1  0.01895000  0.45549500  0.90596700  1
  F  F17  1  0.98105000  0.54450500  0.09403300  1
  F  F18  1  0.49698900  0.35129900  0.45619900  1
  F  F19  1  0.25000000  0.64322400  0.34767600  1
  F  F20  1  0.49698900  0.85129900  0.04380100  1
  F  F21  1  0.75000000  0.63342800  0.22652500  1
  F  F22  1  0.75000000  0.32740500  0.10058600  1
  F  F23  1  0.25000000  0.86657200  0.72652500  1
  F  F24  1  0.02115000  0.08486200  0.74132600  1
  F  F25  1  0.51895000  0.04450500  0.40596700  1
  F  F26  1  0.51895000  0.54450500  0.09403300  1
  F  F27  1  0.25000000  0.36657200  0.77347500  1
  F  F28  1  0.99698900  0.14870100  0.95619900  1
  F  F29  1  0.99698900  0.64870100  0.54380100  1
  F  F30  1  0.02115000  0.58486200  0.75867400  1
  F  F31  1  0.25000000  0.67259500  0.89941400  1
  F  F32  1  0.48105000  0.45549500  0.90596700  1
  F  F33  1  0.50301100  0.14870100  0.95619900  1
  F  F34  1  0.97885000  0.91513800  0.25867400  1
  F  F35  1  0.75000000  0.13342800  0.27347500  1
loop_
_geom_bond_atom_site_label_1
_geom_bond_atom_site_label_2
_geom_bond_distance
_geom_bond_site_symmetry_2
Ba0 F19 2.545560 1_555
Ba0 F8 2.668995 1_555
Ba0 F29 2.668995 1_455
Ba0 F7 2.736281 1_555
Ba0 F0 2.736281 1_555
Ba0 F1 2.787360 1_465
Ba0 F25 2.787360 1_565
Ba0 F4 2.969490 1_555
Ba0 F4 2.969490 1_455
Ba1 F2 2.673975 1_555
Ba1 F24 2.673975 1_655
Ba1 F9 2.690233 1_555
Ba1 F28 2.758598 1_555
Ba1 F33 2.758598 1_555
Ba1 F32 2.793192 1_555
Ba1 F16 2.793192 1_655
Ba1 F27 3.093053 1_655
Ba1 F27 3.093053 1_555
Ba2 F9 2.545560 1_555
Ba2 F10 2.668995 1_655
Ba2 F18 2.668995 1_555
Ba2 F25 2.736281 1_555
Ba2 F1 2.736281 1_555
Ba2 F7 2.787360 1_545
Ba2 F0 2.787360 1_645
Ba2 F3 2.969490 1_655
Ba2 F3 2.969490 1_555
Ba3 F8 2.654601 1_555
Ba3 F29 2.654601 1_455
Ba3 F27 2.730554 1_555
Ba3 F18 2.766838 1_555
Ba3 F10 2.766838 1_555
Ba3 F3 2.806870 1_555
Ba3 F30 3.055526 1_555
Ba3 F13 3.055526 1_555
Ba3 F9 3.076110 1_555
Ba3 F9 3.076110 1_455
Ba4 F33 2.654601 1_565
Ba4 F28 2.654601 1_465
Ba4 F23 2.730554 1_555
Ba4 F20 2.766838 1_556
Ba4 F5 2.766838 1_556
Ba4 F31 2.806870 1_555
Ba4 F2 3.055526 1_565
Ba4 F24 3.055526 1_565
Ba4 F11 3.076110 1_455
Ba4 F11 3.076110 1_555
Ba5 F13 2.673975 1_555
Ba5 F30 2.673975 1_655
Ba5 F11 2.690233 1_555
Ba5 F29 2.758598 1_555
Ba5 F8 2.758598 1_555
Ba5 F0 2.793192 1_655
Ba5 F7 2.793192 1_555
Ba5 F23 3.093053 1_555
Ba5 F23 3.093053 1_655
Ba6 F34 2.673975 1_455
Ba6 F12 2.673975 1_555
Ba6 F19 2.690233 1_555
Ba6 F20 2.758598 1_555
Ba6 F5 2.758598 1_555
Ba6 F17 2.793192 1_455
Ba6 F26 2.793192 1_555
Ba6 F21 3.093053 1_455
Ba6 F21 3.093053 1_555
Ba7 F14 2.673975 1_455
Ba7 F15 2.673975 1_555
Ba7 F6 2.690233 1_555
Ba7 F18 2.758598 1_555
Ba7 F10 2.758598 1_555
Ba7 F1 2.793192 1_455
Ba7 F25 2.793192 1_555
Ba7 F35 3.093053 1_455
Ba7 F35 3.093053 1_555
Ba8 F11 2.545560 1_555
Ba8 F5 2.668995 1_656
Ba8 F20 2.668995 1_556
Ba8 F26 2.736281 1_556
Ba8 F17 2.736281 1_556
Ba8 F32 2.787360 1_555
Ba8 F16 2.787360 1_655
Ba8 F31 2.969490 1_555
Ba8 F31 2.969490 1_655
Ba9 F6 2.545560 1_555
Ba9 F33 2.668995 1_554
Ba9 F28 2.668995 1_454
Ba9 F16 2.736281 1_554
Ba9 F32 2.736281 1_554
Ba9 F17 2.787360 1_455
Ba9 F26 2.787360 1_555
Ba9 F22 2.969490 1_455
Ba9 F22 2.969490 1_555
Ba10 F10 2.654601 1_655
Ba10 F18 2.654601 1_555
Ba10 F21 2.730554 1_555
Ba10 F29 2.766838 1_555
Ba10 F8 2.766838 1_555
Ba10 F4 2.806870 1_555
Ba10 F15 3.055526 1_555
Ba10 F14 3.055526 1_555
Ba10 F19 3.076110 1_655
Ba10 F19 3.076110 1_555
Ba11 F5 2.654601 1_645
Ba11 F20 2.654601 1_545
Ba11 F35 2.730554 1_555
Ba11 F28 2.766838 1_554
Ba11 F33 2.766838 1_554
Ba11 F22 2.806870 1_555
Ba11 F12 3.055526 1_545
Ba11 F34 3.055526 1_545
Ba11 F6 3.076110 1_655
Ba11 F6 3.076110 1_555
Al0 F30 1.805430 1_555
Al0 F13 1.805430 1_555
Al0 F27 1.829415 1_555
Al0 F31 1.836499 1_555
Al0 F16 1.863038 1_555
Al0 F32 1.863038 1_555
Al1 F24 1.805430 1_555
Al1 F2 1.805430 1_555
Al1 F23 1.829415 1_545
Al1 F3 1.836499 1_555
Al1 F0 1.863038 1_545
Al1 F7 1.863038 1_545
Al2 F12 1.805430 1_555
Al2 F34 1.805430 1_555
Al2 F35 1.829415 1_565
Al2 F4 1.836499 1_555
Al2 F25 1.863038 1_565
Al2 F1 1.863038 1_565
Al3 F15 1.805430 1_555
Al3 F14 1.805430 1_555
Al3 F21 1.829415 1_555
Al3 F22 1.836499 1_555
Al3 F26 1.863038 1_555
Al3 F17 1.863038 1_555
