# generated using pymatgen
data_YbSeO3F
_symmetry_space_group_name_H-M   'P 1'
_cell_length_a   6.96499500
_cell_length_b   6.90153400
_cell_length_c   7.13997695
_cell_angle_alpha   83.92300013
_cell_angle_beta   90.00000000
_cell_angle_gamma   90.00000000
_symmetry_Int_Tables_number   1
_chemical_formula_structural   YbSeO3F
_chemical_formula_sum   'Yb4 Se4 O12 F4'
_cell_volume   341.28394550
_cell_formula_units_Z   4
loop_
 _symmetry_equiv_pos_site_id
 _symmetry_equiv_pos_as_xyz
  1  'x, y, z'
loop_
 _atom_site_type_symbol
 _atom_site_label
 _atom_site_symmetry_multiplicity
 _atom_site_fract_x
 _atom_site_fract_y
 _atom_site_fract_z
 _atom_site_occupancy
  Yb  Yb0  1  0.84934500  0.85203000  0.81202100  1
  Yb  Yb1  1  0.65065500  0.85203000  0.31202100  1
  Yb  Yb2  1  0.15065500  0.14797000  0.18797900  1
  Yb  Yb3  1  0.34934500  0.14797000  0.68797900  1
  Se  Se0  1  0.61689900  0.32340700  0.22735000  1
  Se  Se1  1  0.11689900  0.67659300  0.27265000  1
  Se  Se2  1  0.38310100  0.67659300  0.77265000  1
  Se  Se3  1  0.88310100  0.32340700  0.72735000  1
  O  O0  1  0.30925900  0.49386100  0.64902300  1
  O  O1  1  0.96658100  0.82637700  0.13661300  1
  O  O2  1  0.19801800  0.82961600  0.80090300  1
  O  O3  1  0.30198200  0.82961600  0.30090300  1
  O  O4  1  0.46658100  0.17362300  0.36338700  1
  O  O5  1  0.80925900  0.50613900  0.85097700  1
  O  O6  1  0.80198200  0.17038400  0.19909700  1
  O  O7  1  0.53341900  0.82637700  0.63661300  1
  O  O8  1  0.69074100  0.50613900  0.35097700  1
  O  O9  1  0.19074100  0.49386100  0.14902300  1
  O  O10  1  0.69801800  0.17038400  0.69909700  1
  O  O11  1  0.03341900  0.17362300  0.86338700  1
  F  F0  1  0.89785700  0.80487300  0.51356000  1
  F  F1  1  0.39785700  0.19512700  0.98644000  1
  F  F2  1  0.10214300  0.19512700  0.48644000  1
  F  F3  1  0.60214300  0.80487300  0.01356000  1
loop_
_geom_bond_atom_site_label_1
_geom_bond_atom_site_label_2
_geom_bond_distance
_geom_bond_site_symmetry_2
O0 Se2 1.694051 1_555
O0 Yb3 2.390262 1_555
O1 Se1 1.701642 1_655
O1 Yb0 2.445893 1_554
O1 Yb1 2.547289 1_555
O1 Yb2 2.622343 1_665
O2 Se2 1.692016 1_555
O2 Yb0 2.435256 1_455
O2 Yb3 2.492646 1_565
O3 Se1 1.692016 1_555
O3 Yb1 2.435256 1_555
O3 Yb2 2.492646 1_565
O4 Se0 1.701642 1_555
O4 Yb3 2.445893 1_555
O4 Yb2 2.547289 1_555
O4 Yb1 2.622343 1_545
O5 Se3 1.694051 1_555
O5 Yb0 2.390262 1_555
O6 Se0 1.692016 1_555
O6 Yb2 2.435256 1_655
O6 Yb1 2.492646 1_545
O7 Se2 1.701642 1_555
O7 Yb1 2.445893 1_555
O7 Yb0 2.547289 1_555
O7 Yb3 2.622343 1_565
O8 Se0 1.694051 1_555
O8 Yb1 2.390262 1_555
O9 Se1 1.694051 1_555
O9 Yb2 2.390262 1_555
O10 Se3 1.692016 1_555
O10 Yb3 2.435256 1_555
O10 Yb0 2.492646 1_545
O11 Se3 1.701642 1_455
O11 Yb2 2.445893 1_556
O11 Yb3 2.547289 1_555
O11 Yb0 2.622343 1_445
F0 Yb0 2.215426 1_555
F0 Yb1 2.245417 1_555
F1 Yb3 2.215426 1_555
F1 Yb2 2.245417 1_556
F2 Yb2 2.215426 1_555
F2 Yb3 2.245417 1_555
F3 Yb1 2.215426 1_555
F3 Yb0 2.245417 1_554
