# generated using pymatgen
data_Ca(CuSi)2
_symmetry_space_group_name_H-M   'P 1'
_cell_length_a   4.03451167
_cell_length_b   4.03451207
_cell_length_c   5.69549130
_cell_angle_alpha   110.74348821
_cell_angle_beta   110.74348169
_cell_angle_gamma   89.99999769
_symmetry_Int_Tables_number   1
_chemical_formula_structural   Ca(CuSi)2
_chemical_formula_sum   'Ca1 Cu2 Si2'
_cell_volume   80.23889570
_cell_formula_units_Z   1
loop_
 _symmetry_equiv_pos_site_id
 _symmetry_equiv_pos_as_xyz
  1  'x, y, z'
loop_
 _atom_site_type_symbol
 _atom_site_label
 _atom_site_symmetry_multiplicity
 _atom_site_fract_x
 _atom_site_fract_y
 _atom_site_fract_z
 _atom_site_occupancy
  Ca  Ca0  1  -0.00000000  -0.00000000  -0.00000000  1
  Cu  Cu0  1  0.25000000  0.75000000  0.50000000  1
  Cu  Cu1  1  0.75000000  0.25000000  0.50000000  1
  Si  Si0  1  0.62015161  0.62015161  0.24030222  1
  Si  Si1  1  0.37984839  0.37984839  0.75969778  1
loop_
_geom_bond_atom_site_label_1
_geom_bond_atom_site_label_2
_geom_bond_distance
_geom_bond_site_symmetry_2
Ca0 Si0 3.088986 1_445
Ca0 Si1 3.088986 1_554
Ca0 Si1 3.088988 1_544
Ca0 Si0 3.088988 1_455
Ca0 Si1 3.088988 1_454
Ca0 Si0 3.088988 1_545
Ca0 Si0 3.088991 1_555
Ca0 Si1 3.088991 1_444
Ca0 Cu1 3.185014 1_455
Ca0 Cu0 3.185014 1_544
Ca0 Cu0 3.185014 1_555
Ca0 Cu1 3.185014 1_444
Ca0 Cu0 3.185014 1_444
Ca0 Cu1 3.185014 1_555
Ca0 Cu1 3.185014 1_454
Ca0 Cu0 3.185014 1_545
Cu0 Si0 2.389179 1_455
Cu0 Si1 2.389179 1_565
Cu0 Si0 2.389182 1_555
Cu0 Si1 2.389182 1_555
Cu0 Cu1 2.852831 1_555
Cu0 Cu1 2.852831 1_465
Cu0 Cu1 2.852831 1_565
Cu0 Cu1 2.852831 1_455
Cu1 Si1 2.389179 1_655
Cu1 Si0 2.389179 1_545
Cu1 Si1 2.389182 1_555
Cu1 Si0 2.389182 1_555
Si0 Si1 2.369140 1_554
