# generated using pymatgen
data_SnHg7(As2I3)2
_symmetry_space_group_name_H-M   'P 1'
_cell_length_a   13.50471000
_cell_length_b   13.50471000
_cell_length_c   13.50471000
_cell_angle_alpha   90.00000000
_cell_angle_beta   90.00000000
_cell_angle_gamma   90.00000000
_symmetry_Int_Tables_number   1
_chemical_formula_structural   SnHg7(As2I3)2
_chemical_formula_sum   'Sn4 Hg28 As16 I24'
_cell_volume   2462.95109106
_cell_formula_units_Z   4
loop_
 _symmetry_equiv_pos_site_id
 _symmetry_equiv_pos_as_xyz
  1  'x, y, z'
loop_
 _atom_site_type_symbol
 _atom_site_label
 _atom_site_symmetry_multiplicity
 _atom_site_fract_x
 _atom_site_fract_y
 _atom_site_fract_z
 _atom_site_occupancy
  Sn  Sn0  1  0.76497700  0.76497700  0.76497700  1
  Sn  Sn1  1  0.23502300  0.26497700  0.73502300  1
  Sn  Sn2  1  0.26497700  0.73502300  0.23502300  1
  Sn  Sn3  1  0.73502300  0.23502300  0.26497700  1
  Hg  Hg0  1  0.31830700  0.09797600  0.07647400  1
  Hg  Hg1  1  0.06880600  0.49978100  0.75105500  1
  Hg  Hg2  1  0.43119400  0.50021900  0.25105500  1
  Hg  Hg3  1  0.93119400  0.99978100  0.74894500  1
  Hg  Hg4  1  0.53509800  0.46490200  0.96490200  1
  Hg  Hg5  1  0.68169300  0.59797600  0.42352600  1
  Hg  Hg6  1  0.57647400  0.18169300  0.90202400  1
  Hg  Hg7  1  0.03509800  0.03509800  0.03509800  1
  Hg  Hg8  1  0.18169300  0.90202400  0.57647400  1
  Hg  Hg9  1  0.24894500  0.56880600  0.00021900  1
  Hg  Hg10  1  0.90202400  0.57647400  0.18169300  1
  Hg  Hg11  1  0.25105500  0.43119400  0.50021900  1
  Hg  Hg12  1  0.74894500  0.93119400  0.99978100  1
  Hg  Hg13  1  0.49978100  0.75105500  0.06880600  1
  Hg  Hg14  1  0.59797600  0.42352600  0.68169300  1
  Hg  Hg15  1  0.09797600  0.07647400  0.31830700  1
  Hg  Hg16  1  0.81830700  0.40202400  0.92352600  1
  Hg  Hg17  1  0.92352600  0.81830700  0.40202400  1
  Hg  Hg18  1  0.50021900  0.25105500  0.43119400  1
  Hg  Hg19  1  0.40202400  0.92352600  0.81830700  1
  Hg  Hg20  1  0.46490200  0.96490200  0.53509800  1
  Hg  Hg21  1  0.42352600  0.68169300  0.59797600  1
  Hg  Hg22  1  0.07647400  0.31830700  0.09797600  1
  Hg  Hg23  1  0.99978100  0.74894500  0.93119400  1
  Hg  Hg24  1  0.56880600  0.00021900  0.24894500  1
  Hg  Hg25  1  0.96490200  0.53509800  0.46490200  1
  Hg  Hg26  1  0.75105500  0.06880600  0.49978100  1
  Hg  Hg27  1  0.00021900  0.24894500  0.56880600  1
  As  As0  1  0.96381900  0.46381900  0.03618100  1
  As  As1  1  0.53618100  0.53618100  0.53618100  1
  As  As2  1  0.07376700  0.42623300  0.57376700  1
  As  As3  1  0.06916200  0.56916200  0.93083800  1
  As  As4  1  0.85635700  0.64364300  0.35635700  1
  As  As5  1  0.64364300  0.35635700  0.85635700  1
  As  As6  1  0.03618100  0.96381900  0.46381900  1
  As  As7  1  0.43083800  0.43083800  0.43083800  1
  As  As8  1  0.14364300  0.14364300  0.14364300  1
  As  As9  1  0.57376700  0.07376700  0.42623300  1
  As  As10  1  0.56916200  0.93083800  0.06916200  1
  As  As11  1  0.93083800  0.06916200  0.56916200  1
  As  As12  1  0.42623300  0.57376700  0.07376700  1
  As  As13  1  0.35635700  0.85635700  0.64364300  1
  As  As14  1  0.92623300  0.92623300  0.92623300  1
  As  As15  1  0.46381900  0.03618100  0.96381900  1
  I  I0  1  0.52630700  0.73627500  0.31425200  1
  I  I1  1  0.78684900  0.18753200  0.05542800  1
  I  I2  1  0.71315100  0.81246800  0.55542800  1
  I  I3  1  0.81425200  0.97369300  0.26372500  1
  I  I4  1  0.68753200  0.44457200  0.21315100  1
  I  I5  1  0.18574800  0.47369300  0.23627500  1
  I  I6  1  0.55542800  0.71315100  0.81246800  1
  I  I7  1  0.44457200  0.21315100  0.68753200  1
  I  I8  1  0.76372500  0.68574800  0.02630700  1
  I  I9  1  0.23627500  0.18574800  0.47369300  1
  I  I10  1  0.47369300  0.23627500  0.18574800  1
  I  I11  1  0.28684900  0.31246800  0.94457200  1
  I  I12  1  0.31246800  0.94457200  0.28684900  1
  I  I13  1  0.68574800  0.02630700  0.76372500  1
  I  I14  1  0.05542800  0.78684900  0.18753200  1
  I  I15  1  0.94457200  0.28684900  0.31246800  1
  I  I16  1  0.02630700  0.76372500  0.68574800  1
  I  I17  1  0.73627500  0.31425200  0.52630700  1
  I  I18  1  0.18753200  0.05542800  0.78684900  1
  I  I19  1  0.26372500  0.81425200  0.97369300  1
  I  I20  1  0.21315100  0.68753200  0.44457200  1
  I  I21  1  0.81246800  0.55542800  0.71315100  1
  I  I22  1  0.31425200  0.52630700  0.73627500  1
  I  I23  1  0.97369300  0.26372500  0.81425200  1
loop_
_geom_bond_atom_site_label_1
_geom_bond_atom_site_label_2
_geom_bond_distance
_geom_bond_site_symmetry_2
Hg0 I10 3.173240 1_555
Hg1 I22 3.339948 1_555
Hg2 I5 3.339948 1_555
Hg3 I13 3.339948 1_565
Hg5 I0 3.173240 1_555
Hg6 I13 3.173240 1_555
Hg8 I16 3.173240 1_555
Hg9 I19 3.339948 1_554
Hg10 I8 3.173240 1_555
Hg11 I9 3.339948 1_555
Hg12 I8 3.339948 1_556
Hg13 I0 3.339948 1_555
Hg14 I17 3.173240 1_555
Hg15 I9 3.173240 1_555
Hg16 I23 3.173240 1_555
Hg17 I3 3.173240 1_555
Hg18 I10 3.339948 1_555
Hg19 I19 3.173240 1_555
Hg21 I22 3.173240 1_555
Hg22 I5 3.173240 1_555
Hg23 I16 3.339948 1_655
Hg24 I3 3.339948 1_545
Hg26 I17 3.339948 1_555
Hg27 I23 3.339948 1_455
As0 As3 2.464062 1_654
As0 Hg22 2.621567 1_655
As0 Hg16 2.621567 1_554
As0 Hg10 2.621567 1_555
As1 As7 2.464062 1_555
As1 Hg21 2.621567 1_555
As1 Hg5 2.621567 1_555
As1 Hg14 2.621567 1_555
As2 Hg25 2.546444 1_455
As2 Hg1 2.592938 1_555
As2 Hg27 2.592938 1_555
As2 Hg11 2.592938 1_555
As3 Hg9 2.602445 1_556
As3 Hg23 2.602445 1_455
As3 Hg1 2.602445 1_555
As4 Hg25 2.538959 1_555
As4 Hg10 2.601354 1_555
As4 Hg17 2.601354 1_555
As4 Hg5 2.601354 1_555
As5 Hg4 2.538959 1_555
As5 Hg6 2.601354 1_555
As5 Hg16 2.601354 1_555
As5 Hg14 2.601354 1_555
As6 Hg15 2.621567 1_565
As6 Hg17 2.621567 1_455
As6 Hg8 2.621567 1_555
As7 Hg18 2.602445 1_555
As7 Hg11 2.602445 1_555
As7 Hg2 2.602445 1_555
As8 Hg7 2.538959 1_555
As8 Hg15 2.601354 1_555
As8 Hg0 2.601354 1_555
As8 Hg22 2.601354 1_555
As9 Hg20 2.546444 1_545
As9 Hg24 2.592938 1_555
As9 Hg26 2.592938 1_555
As9 Hg18 2.592938 1_555
As10 As15 2.464062 1_564
As10 Hg24 2.602445 1_565
As10 Hg13 2.602445 1_555
As10 Hg12 2.602445 1_554
As11 As6 2.464062 1_645
As11 Hg27 2.602445 1_655
As11 Hg26 2.602445 1_555
As11 Hg3 2.602445 1_545
As12 Hg4 2.546444 1_554
As12 Hg13 2.592938 1_555
As12 Hg9 2.592938 1_555
As12 Hg2 2.592938 1_555
As13 Hg20 2.538959 1_555
As13 Hg8 2.601354 1_555
As13 Hg19 2.601354 1_555
As13 Hg21 2.601354 1_555
As14 Hg7 2.546444 1_666
As14 Hg12 2.592938 1_555
As14 Hg3 2.592938 1_555
As14 Hg23 2.592938 1_555
As15 Hg0 2.621567 1_556
As15 Hg19 2.621567 1_545
As15 Hg6 2.621567 1_555
I1 Sn3 2.984880 1_555
I2 Sn0 2.984880 1_555
I4 Sn3 2.984880 1_555
I6 Sn0 2.984880 1_555
I7 Sn1 2.984880 1_555
I11 Sn1 2.984880 1_555
I12 Sn2 2.984880 1_555
I14 Sn2 2.984880 1_555
I15 Sn3 2.984880 1_555
I18 Sn1 2.984880 1_555
I20 Sn2 2.984880 1_555
I21 Sn0 2.984880 1_555
