# generated using pymatgen
data_Ce2Ni7P4
_symmetry_space_group_name_H-M   'P 1'
_cell_length_a   3.75905900
_cell_length_b   9.14972600
_cell_length_c   10.35275200
_cell_angle_alpha   90.00000000
_cell_angle_beta   90.00000000
_cell_angle_gamma   90.00000000
_symmetry_Int_Tables_number   1
_chemical_formula_structural   Ce2Ni7P4
_chemical_formula_sum   'Ce4 Ni14 P8'
_cell_volume   356.07627791
_cell_formula_units_Z   2
loop_
 _symmetry_equiv_pos_site_id
 _symmetry_equiv_pos_as_xyz
  1  'x, y, z'
loop_
 _atom_site_type_symbol
 _atom_site_label
 _atom_site_symmetry_multiplicity
 _atom_site_fract_x
 _atom_site_fract_y
 _atom_site_fract_z
 _atom_site_occupancy
  Ce  Ce0  1  0.00000000  0.06113100  0.00020100  1
  Ce  Ce1  1  0.50000000  0.93886900  0.50020100  1
  Ce  Ce2  1  0.00000000  0.44100200  0.77875700  1
  Ce  Ce3  1  0.50000000  0.55899800  0.27875700  1
  Ni  Ni0  1  0.00000000  0.07999700  0.30886600  1
  Ni  Ni1  1  0.50000000  0.92000300  0.80886600  1
  Ni  Ni2  1  0.00000000  0.19280600  0.56723600  1
  Ni  Ni3  1  0.50000000  0.80719400  0.06723600  1
  Ni  Ni4  1  0.00000000  0.40047600  0.07835300  1
  Ni  Ni5  1  0.50000000  0.59952400  0.57835300  1
  Ni  Ni6  1  0.00000000  0.44071400  0.47554700  1
  Ni  Ni7  1  0.50000000  0.55928600  0.97554700  1
  Ni  Ni8  1  0.00000000  0.75540100  0.89950300  1
  Ni  Ni9  1  0.50000000  0.24459900  0.39950300  1
  Ni  Ni10  1  0.00000000  0.77745800  0.66740600  1
  Ni  Ni11  1  0.50000000  0.22254200  0.16740600  1
  Ni  Ni12  1  0.00000000  0.81470900  0.26433200  1
  Ni  Ni13  1  0.50000000  0.18529100  0.76433200  1
  P  P0  1  0.00000000  0.02587500  0.71840200  1
  P  P1  1  0.50000000  0.97412500  0.21840200  1
  P  P2  1  0.00000000  0.31676700  0.28339700  1
  P  P3  1  0.50000000  0.68323300  0.78339700  1
  P  P4  1  0.00000000  0.65538500  0.08808200  1
  P  P5  1  0.50000000  0.34461500  0.58808200  1
  P  P6  1  0.00000000  0.68907800  0.46522500  1
  P  P7  1  0.50000000  0.31092200  0.96522500  1
loop_
_geom_bond_atom_site_label_1
_geom_bond_atom_site_label_2
_geom_bond_distance
_geom_bond_site_symmetry_2
Ce0 P0 2.935175 1_554
Ce0 Ni11 2.951311 1_555
Ce0 Ni11 2.951311 1_455
Ce0 P7 2.981165 1_554
Ce0 P7 2.981165 1_454
Ce0 Ni8 2.985289 1_544
Ce0 Ni1 3.020560 1_444
Ce0 Ni1 3.020560 1_544
Ce0 P1 3.044564 1_445
Ce0 P1 3.044564 1_545
Ce0 Ni3 3.068013 1_445
Ce0 Ni3 3.068013 1_545
Ce0 Ni0 3.200191 1_555
Ce0 Ni4 3.208600 1_555
Ce0 Ni13 3.284210 1_554
Ce0 Ni13 3.284210 1_454
Ce1 P1 2.935175 1_555
Ce1 Ni10 2.951311 1_555
Ce1 Ni10 2.951311 1_655
Ce1 P6 2.981165 1_655
Ce1 P6 2.981165 1_555
Ce1 Ni9 2.985289 1_565
Ce1 Ni0 3.020560 1_665
Ce1 Ni0 3.020560 1_565
Ce1 P0 3.044564 1_565
Ce1 P0 3.044564 1_665
Ce1 Ni2 3.068013 1_565
Ce1 Ni2 3.068013 1_665
Ce1 Ni1 3.200191 1_555
Ce1 Ni5 3.208600 1_555
Ce1 Ni12 3.284210 1_555
Ce1 Ni12 3.284210 1_655
Ce2 P5 2.864808 1_455
Ce2 P5 2.864808 1_555
Ce2 P3 2.906395 1_455
Ce2 P3 2.906395 1_555
Ce2 P7 2.945482 1_455
Ce2 P7 2.945482 1_555
Ce2 Ni7 2.975667 1_455
Ce2 Ni7 2.975667 1_555
Ce2 Ni13 3.004840 1_455
Ce2 Ni13 3.004840 1_555
Ce2 Ni4 3.123729 1_556
Ce2 Ni8 3.136532 1_555
Ce2 Ni6 3.139059 1_555
Ce2 Ni5 3.152920 1_455
Ce2 Ni5 3.152920 1_555
Ce2 Ni2 3.154748 1_555
Ce2 Ni10 3.287243 1_555
Ce3 P4 2.864808 1_555
Ce3 P4 2.864808 1_655
Ce3 P2 2.906395 1_555
Ce3 P2 2.906395 1_655
Ce3 P6 2.945482 1_555
Ce3 P6 2.945482 1_655
Ce3 Ni6 2.975667 1_655
Ce3 Ni6 2.975667 1_555
Ce3 Ni12 3.004840 1_555
Ce3 Ni12 3.004840 1_655
Ce3 Ni5 3.123729 1_555
Ce3 Ni9 3.136532 1_555
Ce3 Ni7 3.139059 1_554
Ce3 Ni4 3.152920 1_655
Ce3 Ni4 3.152920 1_555
Ce3 Ni3 3.154748 1_555
Ce3 Ni11 3.287243 1_555
Ni0 P2 2.182368 1_555
Ni0 P1 2.312604 1_445
Ni0 P1 2.312604 1_545
Ni1 P3 2.182368 1_555
Ni1 P0 2.312604 1_565
Ni1 P0 2.312604 1_665
Ni2 P0 2.186788 1_555
Ni2 P5 2.347032 1_455
Ni2 P5 2.347032 1_555
Ni3 P1 2.186788 1_555
Ni3 P4 2.347032 1_655
Ni3 P4 2.347032 1_555
Ni4 P2 2.256718 1_555
Ni4 P4 2.334521 1_555
Ni4 P7 2.361295 1_454
Ni4 P7 2.361295 1_554
Ni5 P3 2.256718 1_555
Ni5 P5 2.334521 1_555
Ni5 P6 2.361295 1_555
Ni5 P6 2.361295 1_655
Ni6 P6 2.274974 1_555
Ni6 P2 2.289843 1_555
Ni6 P5 2.379726 1_555
Ni6 P5 2.379726 1_455
Ni7 P7 2.274974 1_555
Ni7 P3 2.289843 1_555
Ni7 P4 2.379726 1_656
Ni7 P4 2.379726 1_556
Ni8 P4 2.156146 1_556
Ni8 P3 2.326692 1_555
Ni8 P3 2.326692 1_455
Ni9 P5 2.156146 1_555
Ni9 P2 2.326692 1_655
Ni9 P2 2.326692 1_555
Ni10 P6 2.243905 1_555
Ni10 P0 2.333457 1_565
Ni10 P3 2.391210 1_455
Ni10 P3 2.391210 1_555
Ni11 P7 2.243905 1_554
Ni11 P1 2.333457 1_545
Ni11 P2 2.391210 1_555
Ni11 P2 2.391210 1_655
Ni12 P4 2.335493 1_555
Ni12 P6 2.376315 1_555
Ni12 P1 2.426167 1_555
Ni12 P1 2.426167 1_455
Ni13 P5 2.335493 1_555
Ni13 P7 2.376315 1_555
Ni13 P0 2.426167 1_555
Ni13 P0 2.426167 1_655
