# generated using pymatgen
data_Li3Gd(BO3)2
_symmetry_space_group_name_H-M   'P 1'
_cell_length_a   6.37827123
_cell_length_b   8.73462071
_cell_length_c   10.06821180
_cell_angle_alpha   62.91631781
_cell_angle_beta   90.00000000
_cell_angle_gamma   90.00000000
_symmetry_Int_Tables_number   1
_chemical_formula_structural   Li3Gd(BO3)2
_chemical_formula_sum   'Li12 Gd4 B8 O24'
_cell_volume   499.40913876
_cell_formula_units_Z   4
loop_
 _symmetry_equiv_pos_site_id
 _symmetry_equiv_pos_as_xyz
  1  'x, y, z'
loop_
 _atom_site_type_symbol
 _atom_site_label
 _atom_site_symmetry_multiplicity
 _atom_site_fract_x
 _atom_site_fract_y
 _atom_site_fract_z
 _atom_site_occupancy
  Li  Li0  1  0.56252770  0.29503332  0.66567289  1
  Li  Li1  1  0.25694807  0.39496648  0.47882486  1
  Li  Li2  1  0.24305193  0.39496648  0.97882486  1
  Li  Li3  1  0.75694807  0.60503352  0.02117514  1
  Li  Li4  1  0.77956660  0.16414137  0.54122984  1
  Li  Li5  1  0.06252770  0.70496668  0.83432711  1
  Li  Li6  1  0.43747230  0.70496668  0.33432711  1
  Li  Li7  1  0.22043340  0.83585863  0.45877016  1
  Li  Li8  1  0.74305193  0.60503352  0.52117514  1
  Li  Li9  1  0.27956660  0.83585863  0.95877016  1
  Li  Li10  1  0.72043340  0.16414137  0.04122984  1
  Li  Li11  1  0.93747230  0.29503332  0.16567289  1
  Gd  Gd0  1  0.97277818  0.81761811  0.20026764  1
  Gd  Gd1  1  0.47277818  0.18238189  0.29973236  1
  Gd  Gd2  1  0.02722182  0.18238189  0.79973236  1
  Gd  Gd3  1  0.52722182  0.81761811  0.70026764  1
  B  B0  1  0.66279011  0.45951363  0.32332438  1
  B  B1  1  0.67010381  0.94795749  0.89331739  1
  B  B2  1  0.33720989  0.54048637  0.67667562  1
  B  B3  1  0.83720989  0.45951363  0.82332438  1
  B  B4  1  0.17010381  0.05204251  0.60668261  1
  B  B5  1  0.32989619  0.05204251  0.10668261  1
  B  B6  1  0.16279011  0.54048637  0.17667562  1
  B  B7  1  0.82989619  0.94795749  0.39331739  1
  O  O0  1  0.70880329  0.61830735  0.31243644  1
  O  O1  1  0.44053820  0.66433542  0.55113252  1
  O  O2  1  0.78289411  0.99131940  0.98727861  1
  O  O3  1  0.29119671  0.38169265  0.68756356  1
  O  O4  1  0.82063864  0.05960822  0.24183360  1
  O  O5  1  0.20880329  0.38169265  0.18756356  1
  O  O6  1  0.55946180  0.33566458  0.44886748  1
  O  O7  1  0.71108065  0.41097741  0.21329854  1
  O  O8  1  0.94053820  0.33566458  0.94886748  1
  O  O9  1  0.05946180  0.66433542  0.05113252  1
  O  O10  1  0.28289411  0.00868060  0.51272139  1
  O  O11  1  0.21710589  0.00868060  0.01272139  1
  O  O12  1  0.43611107  0.20394655  0.05925916  1
  O  O13  1  0.79119671  0.61830735  0.81243644  1
  O  O14  1  0.78891935  0.41097741  0.71329854  1
  O  O15  1  0.93611107  0.79605345  0.44074084  1
  O  O16  1  0.32063864  0.94039178  0.25816640  1
  O  O17  1  0.56388893  0.79605345  0.94074084  1
  O  O18  1  0.17936136  0.94039178  0.75816640  1
  O  O19  1  0.28891935  0.58902259  0.78670146  1
  O  O20  1  0.21108065  0.58902259  0.28670146  1
  O  O21  1  0.71710589  0.99131940  0.48727861  1
  O  O22  1  0.06388893  0.20394655  0.55925916  1
  O  O23  1  0.67936136  0.05960822  0.74183360  1
loop_
_geom_bond_atom_site_label_1
_geom_bond_atom_site_label_2
_geom_bond_distance
_geom_bond_site_symmetry_2
Li0 O3 1.941261 1_555
Li0 O14 1.944949 1_555
Li0 O23 1.983950 1_555
Li0 O6 2.045903 1_555
Li1 O20 1.927371 1_555
Li1 O22 1.930183 1_555
Li1 O6 2.055374 1_555
Li1 O3 2.063035 1_555
Li2 O19 1.927371 1_555
Li2 O12 1.930183 1_556
Li2 O8 2.055374 1_455
Li2 O5 2.063035 1_556
Li3 O7 1.927371 1_555
Li3 O17 1.930183 1_554
Li3 O9 2.055374 1_655
Li3 O13 2.063035 1_554
Li4 O21 1.865239 1_545
Li4 O22 1.870837 1_655
Li4 O23 1.908459 1_555
Li4 O6 1.952334 1_555
Li5 O13 1.941261 1_455
Li5 O19 1.944949 1_555
Li5 O18 1.983950 1_555
Li5 O9 2.045903 1_556
Li6 O0 1.941261 1_555
Li6 O20 1.944949 1_555
Li6 O16 1.983950 1_555
Li6 O1 2.045903 1_555
Li7 O10 1.865239 1_565
Li7 O15 1.870837 1_455
Li7 O16 1.908459 1_555
Li7 O1 1.952334 1_555
Li8 O14 1.927371 1_555
Li8 O15 1.930183 1_555
Li8 O1 2.055374 1_555
Li8 O0 2.063035 1_555
Li9 O11 1.865239 1_566
Li9 O17 1.870837 1_555
Li9 O18 1.908459 1_555
Li9 O9 1.952334 1_556
Li10 O2 1.865239 1_544
Li10 O12 1.870837 1_555
Li10 O4 1.908459 1_555
Li10 O8 1.952334 1_554
Li11 O5 1.941261 1_655
Li11 O7 1.944949 1_555
Li11 O4 1.983950 1_555
Li11 O8 2.045903 1_554
Gd0 O0 2.313167 1_555
Gd0 O2 2.324799 1_554
Gd0 O20 2.339263 1_655
Gd0 O15 2.353042 1_555
Gd0 O11 2.430990 1_665
Gd0 O9 2.486646 1_655
Gd0 O4 2.527836 1_565
Gd0 O16 2.642328 1_655
Gd1 O5 2.313167 1_555
Gd1 O10 2.324799 1_555
Gd1 O7 2.339263 1_555
Gd1 O12 2.353042 1_555
Gd1 O21 2.430990 1_545
Gd1 O6 2.486646 1_555
Gd1 O16 2.527836 1_545
Gd1 O4 2.642328 1_555
Gd2 O3 2.313167 1_555
Gd2 O11 2.324799 1_556
Gd2 O14 2.339263 1_455
Gd2 O22 2.353042 1_555
Gd2 O2 2.430990 1_445
Gd2 O8 2.486646 1_455
Gd2 O18 2.527836 1_545
Gd2 O23 2.642328 1_455
Gd3 O13 2.313167 1_555
Gd3 O21 2.324799 1_555
Gd3 O19 2.339263 1_555
Gd3 O17 2.353042 1_555
Gd3 O10 2.430990 1_565
Gd3 O1 2.486646 1_555
Gd3 O23 2.527836 1_565
Gd3 O18 2.642328 1_555
B0 O0 1.372398 1_555
B0 O7 1.389021 1_555
B0 O6 1.398993 1_555
B1 O17 1.367674 1_555
B1 O2 1.371941 1_555
B1 O23 1.387916 1_565
B2 O3 1.372398 1_555
B2 O19 1.389021 1_555
B2 O1 1.398993 1_555
B3 O13 1.372398 1_555
B3 O14 1.389021 1_555
B3 O8 1.398993 1_555
B4 O22 1.367674 1_555
B4 O10 1.371941 1_555
B4 O18 1.387916 1_545
B5 O12 1.367674 1_555
B5 O11 1.371941 1_555
B5 O16 1.387916 1_545
B6 O5 1.372398 1_555
B6 O20 1.389021 1_555
B6 O9 1.398993 1_555
B7 O15 1.367674 1_555
B7 O21 1.371941 1_555
B7 O4 1.387916 1_565
