# generated using pymatgen
data_KVPO5
_symmetry_space_group_name_H-M   'P 1'
_cell_length_a   7.47236300
_cell_length_b   7.75354000
_cell_length_c   8.54289400
_cell_angle_alpha   90.00000000
_cell_angle_beta   90.00000000
_cell_angle_gamma   90.00000000
_symmetry_Int_Tables_number   1
_chemical_formula_structural   KVPO5
_chemical_formula_sum   'K4 V4 P4 O20'
_cell_volume   494.95191709
_cell_formula_units_Z   4
loop_
 _symmetry_equiv_pos_site_id
 _symmetry_equiv_pos_as_xyz
  1  'x, y, z'
loop_
 _atom_site_type_symbol
 _atom_site_label
 _atom_site_symmetry_multiplicity
 _atom_site_fract_x
 _atom_site_fract_y
 _atom_site_fract_z
 _atom_site_occupancy
  K  K0  1  0.38288800  0.53883900  0.75910700  1
  K  K1  1  0.61711200  0.03883900  0.74089300  1
  K  K2  1  0.11711200  0.46116100  0.25910700  1
  K  K3  1  0.88288800  0.96116100  0.24089300  1
  V  V0  1  0.38298100  0.94794700  0.11809400  1
  V  V1  1  0.88298100  0.55205300  0.88190600  1
  V  V2  1  0.11701900  0.05205300  0.61809400  1
  V  V3  1  0.61701900  0.44794700  0.38190600  1
  P  P0  1  0.12316500  0.18674000  0.90372100  1
  P  P1  1  0.37683500  0.81326000  0.40372100  1
  P  P2  1  0.62316500  0.31326000  0.09627900  1
  P  P3  1  0.87683500  0.68674000  0.59627900  1
  O  O0  1  0.17752800  0.09914600  0.05954400  1
  O  O1  1  0.43191000  0.62663700  0.44125300  1
  O  O2  1  0.52839400  0.91338800  0.31512400  1
  O  O3  1  0.41644600  0.80650800  0.97876000  1
  O  O4  1  0.91644600  0.69349200  0.02124000  1
  O  O5  1  0.22394000  0.82476200  0.27841800  1
  O  O6  1  0.47160600  0.41338800  0.18487600  1
  O  O7  1  0.32247200  0.90085400  0.55954400  1
  O  O8  1  0.02839400  0.58661200  0.68487600  1
  O  O9  1  0.08355400  0.19349200  0.47876000  1
  O  O10  1  0.06809000  0.37336300  0.94125300  1
  O  O11  1  0.93191000  0.87336300  0.55874700  1
  O  O12  1  0.27606000  0.17523800  0.77841800  1
  O  O13  1  0.58355400  0.30650800  0.52124000  1
  O  O14  1  0.72394000  0.67523800  0.72158200  1
  O  O15  1  0.67752800  0.40085400  0.94045600  1
  O  O16  1  0.97160600  0.08661200  0.81512400  1
  O  O17  1  0.77606000  0.32476200  0.22158200  1
  O  O18  1  0.82247200  0.59914600  0.44045600  1
  O  O19  1  0.56809000  0.12663700  0.05874700  1
loop_
_geom_bond_atom_site_label_1
_geom_bond_atom_site_label_2
_geom_bond_distance
_geom_bond_site_symmetry_2
K0 O8 2.748829 1_555
K0 O14 2.777751 1_555
K0 O3 2.809135 1_555
K0 O1 2.823288 1_555
K0 O15 2.896909 1_555
K0 O12 2.934670 1_555
K0 O10 3.098500 1_555
K0 O13 3.102042 1_555
K0 O7 3.314963 1_555
K1 O16 2.748829 1_555
K1 O12 2.777751 1_555
K1 O13 2.809135 1_555
K1 O19 2.823288 1_556
K1 O7 2.896909 1_545
K1 O14 2.934670 1_545
K1 O11 3.098500 1_545
K1 O3 3.102042 1_545
K1 O15 3.314963 1_555
K2 O6 2.748829 1_555
K2 O17 2.777751 1_455
K2 O9 2.809135 1_555
K2 O10 2.823288 1_554
K2 O18 2.896909 1_455
K2 O5 2.934670 1_555
K2 O1 3.098500 1_555
K2 O4 3.102042 1_455
K2 O0 3.314963 1_555
K3 O2 2.748829 1_555
K3 O5 2.777751 1_655
K3 O4 2.809135 1_555
K3 O11 2.823288 1_555
K3 O0 2.896909 1_665
K3 O17 2.934670 1_565
K3 O19 3.098500 1_565
K3 O9 3.102042 1_665
K3 O18 3.314963 1_555
O0 P0 1.548650 1_554
O0 V0 1.995354 1_545
O1 P1 1.538164 1_555
O1 V3 2.022337 1_555
O2 P1 1.567845 1_555
O2 V0 2.021296 1_555
O3 V0 1.637691 1_556
O4 V1 1.637691 1_554
O5 P1 1.568150 1_555
O5 V0 2.049504 1_555
O6 P2 1.567845 1_555
O6 V3 2.021296 1_555
O7 P1 1.548650 1_555
O7 V2 1.995354 1_565
O8 P3 1.567845 1_455
O8 V1 2.021296 1_455
O9 V2 1.637691 1_555
O10 P0 1.538164 1_555
O10 V1 2.022337 1_455
O11 P3 1.538164 1_555
O11 V2 2.022337 1_665
O12 P0 1.568150 1_555
O12 V2 2.049504 1_555
O13 V3 1.637691 1_555
O14 P3 1.568150 1_555
O14 V1 2.049504 1_555
O15 P2 1.548650 1_556
O15 V1 1.995354 1_555
O16 P0 1.567845 1_655
O16 V2 2.021296 1_655
O17 P2 1.568150 1_555
O17 V3 2.049504 1_555
O18 P3 1.548650 1_555
O18 V3 1.995354 1_555
O19 P2 1.538164 1_555
O19 V0 2.022337 1_545
