# generated using pymatgen
data_CaZr4(PO4)6
_symmetry_space_group_name_H-M   'P 1'
_cell_length_a   9.21760882
_cell_length_b   9.21760882
_cell_length_c   9.21760850
_cell_angle_alpha   58.06164869
_cell_angle_beta   58.06164869
_cell_angle_gamma   58.06164902
_symmetry_Int_Tables_number   1
_chemical_formula_structural   CaZr4(PO4)6
_chemical_formula_sum   'Ca1 Zr4 P6 O24'
_cell_volume   529.16826381
_cell_formula_units_Z   1
loop_
 _symmetry_equiv_pos_site_id
 _symmetry_equiv_pos_as_xyz
  1  'x, y, z'
loop_
 _atom_site_type_symbol
 _atom_site_label
 _atom_site_symmetry_multiplicity
 _atom_site_fract_x
 _atom_site_fract_y
 _atom_site_fract_z
 _atom_site_occupancy
  Ca  Ca0  1  0.50000000  0.50000000  0.50000000  1
  Zr  Zr0  1  0.35122600  0.35122600  0.35122600  1
  Zr  Zr1  1  0.86048400  0.86048400  0.86048400  1
  Zr  Zr2  1  0.64877400  0.64877400  0.64877400  1
  Zr  Zr3  1  0.13951600  0.13951600  0.13951600  1
  P  P0  1  0.04602600  0.46929800  0.74301100  1
  P  P1  1  0.74301100  0.04602600  0.46929800  1
  P  P2  1  0.53070200  0.25698900  0.95397400  1
  P  P3  1  0.46929800  0.74301100  0.04602600  1
  P  P4  1  0.95397400  0.53070200  0.25698900  1
  P  P5  1  0.25698900  0.95397400  0.53070200  1
  O  O0  1  0.30932100  0.10765600  0.49446500  1
  O  O1  1  0.23342300  0.42991100  0.58692000  1
  O  O2  1  0.57008900  0.41308000  0.76657800  1
  O  O3  1  0.94817100  0.69809100  0.08228900  1
  O  O4  1  0.91771100  0.05182900  0.30190900  1
  O  O5  1  0.69809100  0.08228900  0.94817100  1
  O  O6  1  0.10765600  0.49446500  0.30932100  1
  O  O7  1  0.36191500  0.23420100  0.98552700  1
  O  O8  1  0.30190900  0.91771100  0.05182900  1
  O  O9  1  0.89234400  0.50553500  0.69067900  1
  O  O10  1  0.05182900  0.30190900  0.91771100  1
  O  O11  1  0.58692000  0.23342300  0.42991100  1
  O  O12  1  0.08228900  0.94817100  0.69809100  1
  O  O13  1  0.50553500  0.69067900  0.89234400  1
  O  O14  1  0.01447300  0.63808500  0.76579900  1
  O  O15  1  0.41308000  0.76657800  0.57008900  1
  O  O16  1  0.63808500  0.76579900  0.01447300  1
  O  O17  1  0.98552700  0.36191500  0.23420100  1
  O  O18  1  0.69067900  0.89234400  0.50553500  1
  O  O19  1  0.76579900  0.01447300  0.63808500  1
  O  O20  1  0.42991100  0.58692000  0.23342300  1
  O  O21  1  0.23420100  0.98552700  0.36191500  1
  O  O22  1  0.49446500  0.30932100  0.10765600  1
  O  O23  1  0.76657800  0.57008900  0.41308000  1
loop_
_geom_bond_atom_site_label_1
_geom_bond_atom_site_label_2
_geom_bond_distance
_geom_bond_site_symmetry_2
Ca0 O20 2.479147 1_555
Ca0 O11 2.479147 1_555
Ca0 O1 2.479147 1_555
Ca0 O2 2.479156 1_555
Ca0 O15 2.479156 1_555
Ca0 O23 2.479156 1_555
O0 P5 1.550109 1_545
O0 Zr0 2.043221 1_555
O1 P0 1.563760 1_555
O1 Zr0 2.182428 1_555
O2 P2 1.563756 1_555
O2 Zr2 2.182426 1_555
O3 P4 1.533518 1_555
O3 Zr1 2.074692 1_554
O4 P1 1.533518 1_555
O4 Zr3 2.074692 1_655
O5 P2 1.533518 1_555
O5 Zr1 2.074692 1_545
O6 P4 1.550109 1_455
O6 Zr0 2.043221 1_555
O7 P2 1.533505 1_555
O7 Zr3 2.117214 1_556
O8 P3 1.533518 1_555
O8 Zr3 2.074692 1_565
O9 P0 1.550109 1_655
O9 Zr2 2.043221 1_555
O10 P0 1.533518 1_555
O10 Zr3 2.074692 1_556
O11 P1 1.563760 1_555
O11 Zr0 2.182428 1_555
O12 P5 1.533518 1_555
O12 Zr1 2.074692 1_455
O13 P3 1.550109 1_556
O13 Zr2 2.043221 1_555
O14 P0 1.533505 1_555
O14 Zr1 2.117214 1_455
O15 P5 1.563756 1_555
O15 Zr2 2.182426 1_555
O16 P3 1.533505 1_555
O16 Zr1 2.117214 1_554
O17 P4 1.533505 1_555
O17 Zr3 2.117214 1_655
O18 P1 1.550109 1_565
O18 Zr2 2.043221 1_555
O19 P1 1.533505 1_555
O19 Zr1 2.117214 1_545
O20 P3 1.563760 1_555
O20 Zr0 2.182428 1_555
O21 P5 1.533505 1_555
O21 Zr3 2.117214 1_565
O22 P2 1.550109 1_554
O22 Zr0 2.043221 1_555
O23 P4 1.563756 1_555
O23 Zr2 2.182426 1_555
