# generated using pymatgen
data_NaTbMnWO6
_symmetry_space_group_name_H-M   'P 1'
_cell_length_a   5.67384900
_cell_length_b   5.48311000
_cell_length_c   8.00799356
_cell_angle_alpha   89.96428312
_cell_angle_beta   90.00000000
_cell_angle_gamma   90.00000000
_symmetry_Int_Tables_number   1
_chemical_formula_structural   NaTbMnWO6
_chemical_formula_sum   'Na2 Tb2 Mn2 W2 O12'
_cell_volume   249.13133935
_cell_formula_units_Z   2
loop_
 _symmetry_equiv_pos_site_id
 _symmetry_equiv_pos_as_xyz
  1  'x, y, z'
loop_
 _atom_site_type_symbol
 _atom_site_label
 _atom_site_symmetry_multiplicity
 _atom_site_fract_x
 _atom_site_fract_y
 _atom_site_fract_z
 _atom_site_occupancy
  Na  Na0  1  0.30593200  0.25116100  0.99905800  1
  Na  Na1  1  0.80593200  0.74883900  0.00094200  1
  Tb  Tb0  1  0.20944100  0.26530900  0.49850700  1
  Tb  Tb1  1  0.70944100  0.73469100  0.50149300  1
  Mn  Mn0  1  0.26545100  0.75200700  0.75821600  1
  Mn  Mn1  1  0.76545100  0.24799300  0.24178400  1
  W  W0  1  0.27523300  0.76171100  0.24382500  1
  W  W1  1  0.77523300  0.23828900  0.75617500  1
  O  O0  1  0.07974900  0.08926600  0.78279700  1
  O  O1  1  0.46682300  0.46963600  0.32013100  1
  O  O2  1  0.96682300  0.53036400  0.67986900  1
  O  O3  1  0.10810100  0.06043500  0.22531200  1
  O  O4  1  0.99984400  0.56665500  0.32162000  1
  O  O5  1  0.73771800  0.33005500  0.97968600  1
  O  O6  1  0.49984400  0.43334500  0.67838000  1
  O  O7  1  0.23771800  0.66994500  0.02031400  1
  O  O8  1  0.57974900  0.91073400  0.21720300  1
  O  O9  1  0.60810100  0.93956500  0.77468800  1
  O  O10  1  0.81610900  0.13678900  0.50694000  1
  O  O11  1  0.31610900  0.86321100  0.49306000  1
loop_
_geom_bond_atom_site_label_1
_geom_bond_atom_site_label_2
_geom_bond_distance
_geom_bond_site_symmetry_2
Na0 O0 2.331529 1_555
Na0 O7 2.334946 1_556
Na0 O3 2.373598 1_556
Na0 O5 2.492602 1_555
Na1 O8 2.331529 1_555
Na1 O5 2.334946 1_554
Na1 O9 2.373598 1_554
Na1 O7 2.492602 1_655
Mn0 O0 2.137525 1_565
Mn0 O7 2.152054 1_556
Mn0 O2 2.177708 1_455
Mn0 O9 2.203378 1_555
Mn0 O11 2.227437 1_555
Mn0 O6 2.287292 1_555
Mn1 O8 2.137525 1_545
Mn1 O5 2.152054 1_554
Mn1 O1 2.177708 1_555
Mn1 O3 2.203378 1_655
Mn1 O10 2.227437 1_555
Mn1 O4 2.287292 1_555
O0 W1 1.923049 1_455
O0 Tb0 2.579408 1_555
O1 W0 2.029431 1_555
O1 Tb0 2.329425 1_555
O1 Tb1 2.473674 1_555
O2 W1 2.029431 1_555
O2 Tb1 2.329425 1_555
O2 Tb0 2.473674 1_655
O3 W0 1.898355 1_545
O3 Tb0 2.526224 1_555
O4 W0 1.993136 1_655
O4 Tb1 2.374931 1_555
O4 Tb0 2.479510 1_655
O5 W1 1.871698 1_555
O6 W1 1.993136 1_555
O6 Tb0 2.374931 1_555
O6 Tb1 2.479510 1_555
O7 W0 1.871698 1_555
O8 W0 1.923049 1_555
O8 Tb1 2.579408 1_555
O9 W1 1.898355 1_565
O9 Tb1 2.526224 1_555
O10 W1 2.085285 1_555
O10 Tb1 2.286750 1_545
O10 Tb0 2.341282 1_655
O11 W0 2.085285 1_555
O11 Tb0 2.286750 1_565
O11 Tb1 2.341282 1_555
