# generated using pymatgen
data_Zr6Si7Ni16
_symmetry_space_group_name_H-M   'P 1'
_cell_length_a   8.05053086
_cell_length_b   8.05063537
_cell_length_c   8.05055317
_cell_angle_alpha   60.00447611
_cell_angle_beta   60.00407007
_cell_angle_gamma   60.00439540
_symmetry_Int_Tables_number   1
_chemical_formula_structural   Zr6Si7Ni16
_chemical_formula_sum   'Zr6 Si7 Ni16'
_cell_volume   368.98428853
_cell_formula_units_Z   1
loop_
 _symmetry_equiv_pos_site_id
 _symmetry_equiv_pos_as_xyz
  1  'x, y, z'
loop_
 _atom_site_type_symbol
 _atom_site_label
 _atom_site_symmetry_multiplicity
 _atom_site_fract_x
 _atom_site_fract_y
 _atom_site_fract_z
 _atom_site_occupancy
  Zr  Zr0  1  0.79207744  0.20791564  0.79207679  1
  Zr  Zr1  1  0.79207601  0.79207855  0.20791812  1
  Zr  Zr2  1  0.20791895  0.79207851  0.79207553  1
  Zr  Zr3  1  0.20792755  0.20792104  0.79208012  1
  Zr  Zr4  1  0.79208000  0.20792195  0.20792738  1
  Zr  Zr5  1  0.20792483  0.79208175  0.20792350  1
  Si  Si0  1  0.99999290  0.50000557  0.99999329  1
  Si  Si1  1  0.49999905  0.49999890  0.49999984  1
  Si  Si2  1  0.50000166  0.50000299  -0.00000048  1
  Si  Si3  1  0.50000218  -0.00000100  0.50000274  1
  Si  Si4  1  -0.00000023  0.50000195  0.50000180  1
  Si  Si5  1  0.99999298  0.99999272  0.50000550  1
  Si  Si6  1  0.50000551  0.99999245  0.99999306  1
  Ni  Ni0  1  0.16943548  0.16944570  0.16943888  1
  Ni  Ni1  1  0.61852258  0.61849854  0.14446240  1
  Ni  Ni2  1  0.38149830  0.38152416  0.38150320  1
  Ni  Ni3  1  0.16942795  0.49169873  0.16943079  1
  Ni  Ni4  1  0.16942845  0.16943798  0.49168982  1
  Ni  Ni5  1  0.14446164  0.61850115  0.61851854  1
  Ni  Ni6  1  0.61851679  0.14446236  0.61851002  1
  Ni  Ni7  1  0.83054217  0.83053070  0.83053962  1
  Ni  Ni8  1  0.85546337  0.38152854  0.38150800  1
  Ni  Ni9  1  0.38150436  0.38153102  0.85546320  1
  Ni  Ni10  1  0.38151153  0.85546193  0.38151711  1
  Ni  Ni11  1  0.50837839  0.83053824  0.83054742  1
  Ni  Ni12  1  0.61852479  0.61850208  0.61851907  1
  Ni  Ni13  1  0.83054943  0.83053897  0.50837594  1
  Ni  Ni14  1  0.49168785  0.16943825  0.16943107  1
  Ni  Ni15  1  0.83054809  0.50837062  0.83054672  1
loop_
_geom_bond_atom_site_label_1
_geom_bond_atom_site_label_2
_geom_bond_distance
_geom_bond_site_symmetry_2
Si0 Zr4 2.886387 1_556
Si0 Zr3 2.886395 1_655
Si0 Zr1 2.886401 1_556
Si0 Zr2 2.886406 1_655
Si2 Zr5 2.886482 1_555
Si2 Zr4 2.886501 1_555
Si2 Zr2 2.886502 1_554
Si2 Zr0 2.886524 1_554
Si3 Zr3 2.886454 1_555
Si3 Zr4 2.886461 1_555
Si3 Zr2 2.886477 1_545
Si3 Zr1 2.886486 1_545
Si4 Zr5 2.886497 1_555
Si4 Zr3 2.886503 1_555
Si4 Zr1 2.886510 1_455
Si4 Zr0 2.886517 1_455
Si5 Zr4 2.886346 1_565
Si5 Zr5 2.886359 1_655
Si5 Zr0 2.886371 1_565
Si5 Zr2 2.886380 1_655
Si6 Zr3 2.886343 1_565
Si6 Zr5 2.886347 1_556
Si6 Zr0 2.886373 1_565
Si6 Zr1 2.886376 1_556
Ni0 Si0 2.324832 1_454
Ni0 Si5 2.324858 1_445
Ni0 Si6 2.324876 1_544
Ni0 Ni8 2.550218 1_455
Ni0 Ni9 2.550240 1_554
Ni0 Ni10 2.550275 1_545
Ni0 Ni4 2.594239 1_555
Ni0 Ni14 2.594241 1_555
Ni0 Ni3 2.594279 1_555
Ni0 Zr4 2.763105 1_455
Ni0 Zr3 2.763132 1_554
Ni0 Zr5 2.763187 1_545
Ni1 Si1 2.337161 1_555
Ni1 Si2 2.510384 1_555
Ni1 Si0 2.510531 1_554
Ni1 Si6 2.510727 1_554
Ni1 Ni15 2.549571 1_554
Ni1 Ni11 2.549643 1_554
Ni1 Ni7 2.549683 1_554
Ni1 Ni8 2.698309 1_555
Ni1 Ni2 2.698380 1_555
Ni1 Ni10 2.698491 1_555
Ni1 Zr1 2.746930 1_555
Ni1 Zr4 2.747070 1_555
Ni1 Zr5 2.747179 1_555
Ni2 Si1 2.336536 1_555
Ni2 Si4 2.510720 1_555
Ni2 Si2 2.510762 1_555
Ni2 Si3 2.510935 1_555
Ni2 Ni3 2.550027 1_555
Ni2 Ni4 2.550093 1_555
Ni2 Ni5 2.698344 1_555
Ni2 Ni6 2.698531 1_555
Ni2 Zr5 2.747056 1_555
Ni2 Zr3 2.747158 1_555
Ni2 Zr4 2.747181 1_555
Ni3 Si0 2.324597 1_454
Ni3 Si4 2.324767 1_555
Ni3 Si2 2.324782 1_555
Ni3 Ni8 2.550067 1_455
Ni3 Ni9 2.550081 1_554
Ni3 Ni4 2.594559 1_555
Ni3 Zr5 2.763119 1_555
Ni3 Zr1 2.763206 1_455
Ni3 Zr2 2.763231 1_554
Ni4 Si5 2.324623 1_445
Ni4 Si4 2.324770 1_555
Ni4 Si3 2.324811 1_555
Ni4 Ni8 2.550126 1_455
Ni4 Zr3 2.763119 1_555
Ni4 Zr0 2.763203 1_455
Ni4 Zr2 2.763282 1_545
Ni5 Si1 2.337153 1_555
Ni5 Si4 2.510373 1_555
Ni5 Si0 2.510568 1_455
Ni5 Si5 2.510711 1_455
Ni5 Ni7 2.549667 1_455
Ni5 Ni9 2.698315 1_555
Ni5 Zr2 2.746947 1_555
Ni5 Zr3 2.747094 1_555
Ni5 Zr5 2.747168 1_555
Ni6 Si1 2.337187 1_555
Ni6 Si3 2.510424 1_555
Ni6 Si5 2.510571 1_545
Ni6 Si6 2.510624 1_545
Ni6 Ni7 2.549733 1_545
Ni6 Ni8 2.698460 1_555
Ni6 Ni9 2.698512 1_555
Ni6 Zr0 2.746869 1_555
Ni6 Zr4 2.747079 1_555
Ni6 Zr3 2.747117 1_555
Ni7 Si0 2.324716 1_555
Ni7 Si5 2.324755 1_555
Ni7 Si6 2.324766 1_555
Ni7 Zr2 2.763423 1_655
Ni7 Zr1 2.763440 1_556
Ni7 Zr0 2.763496 1_565
Ni8 Si1 2.336672 1_555
Ni8 Si4 2.510564 1_655
Ni8 Si0 2.510847 1_554
Ni8 Si5 2.511017 1_545
Ni8 Zr4 2.746898 1_555
Ni8 Zr1 2.746989 1_555
Ni8 Zr0 2.747087 1_555
Ni9 Si1 2.336674 1_555
Ni9 Si2 2.510578 1_556
Ni9 Si0 2.510817 1_455
Ni9 Si6 2.511035 1_545
Ni9 Zr3 2.746892 1_555
Ni9 Zr2 2.746970 1_555
Ni9 Zr0 2.747106 1_555
Ni10 Si1 2.336704 1_555
Ni10 Si3 2.510630 1_565
Ni10 Si5 2.510865 1_455
Ni10 Si6 2.510909 1_554
Ni10 Ni4 2.550180 1_565
Ni10 Ni14 2.550199 1_565
Ni10 Ni5 2.698448 1_555
Ni10 Ni12 2.698474 1_555
Ni10 Zr5 2.746825 1_555
Ni10 Zr2 2.747011 1_555
Ni10 Zr1 2.747044 1_555
Ni11 Si6 2.324502 1_555
Ni11 Si2 2.324732 1_556
Ni11 Si3 2.324774 1_565
Ni11 Ni12 2.549588 1_555
Ni11 Ni6 2.549695 1_565
Ni11 Ni7 2.593528 1_555
Ni11 Ni13 2.593813 1_555
Ni11 Ni15 2.593818 1_555
Ni11 Zr2 2.763416 1_555
Ni11 Zr5 2.763533 1_556
Ni11 Zr3 2.763590 1_565
Ni12 Si1 2.337036 1_555
Ni12 Si4 2.510546 1_655
Ni12 Si2 2.510591 1_556
Ni12 Si3 2.510732 1_565
Ni12 Ni15 2.549525 1_555
Ni12 Ni13 2.549574 1_555
Ni12 Ni8 2.698300 1_555
Ni12 Ni9 2.698339 1_555
Ni12 Zr0 2.747162 1_555
Ni12 Zr1 2.747232 1_555
Ni12 Zr2 2.747258 1_555
Ni13 Si5 2.324493 1_555
Ni13 Si4 2.324736 1_655
Ni13 Si3 2.324776 1_565
Ni13 Ni5 2.549612 1_655
Ni13 Ni6 2.549670 1_565
Ni13 Ni7 2.593533 1_555
Ni13 Ni15 2.593832 1_555
Ni13 Zr1 2.763420 1_555
Ni13 Zr5 2.763523 1_655
Ni13 Zr4 2.763590 1_565
Ni14 Si6 2.324638 1_544
Ni14 Si2 2.324782 1_555
Ni14 Si3 2.324809 1_555
Ni14 Ni2 2.550102 1_555
Ni14 Ni9 2.550158 1_554
Ni14 Ni4 2.594520 1_555
Ni14 Ni3 2.594555 1_555
Ni14 Zr4 2.763117 1_555
Ni14 Zr0 2.763230 1_554
Ni14 Zr1 2.763285 1_545
Ni15 Si0 2.324467 1_555
Ni15 Si4 2.324747 1_655
Ni15 Si2 2.324749 1_556
Ni15 Ni5 2.549564 1_655
Ni15 Ni7 2.593541 1_555
Ni15 Zr0 2.763452 1_555
Ni15 Zr3 2.763555 1_655
Ni15 Zr4 2.763566 1_556
