# generated using pymatgen
data_Mn4Bi3NO15
_symmetry_space_group_name_H-M   'P 1'
_cell_length_a   5.06738376
_cell_length_b   5.06738376
_cell_length_c   13.35117100
_cell_angle_alpha   90.00000000
_cell_angle_beta   90.00000000
_cell_angle_gamma   119.99999689
_symmetry_Int_Tables_number   1
_chemical_formula_structural   Mn4Bi3NO15
_chemical_formula_sum   'Mn4 Bi3 N1 O15'
_cell_volume   296.90505684
_cell_formula_units_Z   1
loop_
 _symmetry_equiv_pos_site_id
 _symmetry_equiv_pos_as_xyz
  1  'x, y, z'
loop_
 _atom_site_type_symbol
 _atom_site_label
 _atom_site_symmetry_multiplicity
 _atom_site_fract_x
 _atom_site_fract_y
 _atom_site_fract_z
 _atom_site_occupancy
  Mn  Mn0  1  0.66666700  0.33333300  0.18135500  1
  Mn  Mn1  1  0.00000000  0.00000000  0.18101500  1
  Mn  Mn2  1  0.00000000  0.00000000  0.81898500  1
  Mn  Mn3  1  0.66666700  0.33333300  0.81864500  1
  Bi  Bi0  1  0.33333300  0.66666700  0.00000000  1
  Bi  Bi1  1  0.33333300  0.66666700  0.34791500  1
  Bi  Bi2  1  0.33333300  0.66666700  0.65208500  1
  N  N0  1  0.00000000  0.00000000  0.50000000  1
  O  O0  1  0.70779600  0.66638200  0.88941100  1
  O  O1  1  0.85550800  0.14449200  0.50000000  1
  O  O2  1  0.96837300  0.30107700  0.26481800  1
  O  O3  1  0.33361800  0.29220400  0.11058900  1
  O  O4  1  0.95858600  0.29220400  0.88941100  1
  O  O5  1  0.33361800  0.04141400  0.88941100  1
  O  O6  1  0.69892300  0.03162700  0.73518200  1
  O  O7  1  0.33270400  0.03162700  0.26481800  1
  O  O8  1  0.85550800  0.71101500  0.50000000  1
  O  O9  1  0.33270400  0.30107700  0.73518200  1
  O  O10  1  0.69892300  0.66729600  0.26481800  1
  O  O11  1  0.96837300  0.66729600  0.73518200  1
  O  O12  1  0.70779600  0.04141400  0.11058900  1
  O  O13  1  0.95858600  0.66638200  0.11058900  1
  O  O14  1  0.28898500  0.14449200  0.50000000  1
loop_
_geom_bond_atom_site_label_1
_geom_bond_atom_site_label_2
_geom_bond_distance
_geom_bond_site_symmetry_2
Mn0 O12 1.852736 1_555
Mn0 O13 1.852739 1_555
Mn0 O3 1.852741 1_555
Mn0 O2 1.963608 1_555
Mn0 O7 1.963610 1_555
Mn0 O10 1.963612 1_555
Mn1 O12 1.852402 1_455
Mn1 O13 1.852402 1_445
Mn1 O3 1.852402 1_555
Mn1 O2 1.962076 1_455
Mn1 O7 1.962076 1_555
Mn1 O10 1.962076 1_445
Mn2 O4 1.852402 1_455
Mn2 O5 1.852402 1_555
Mn2 O0 1.852402 1_445
Mn2 O6 1.962076 1_455
Mn2 O11 1.962076 1_445
Mn2 O9 1.962076 1_555
Mn3 O4 1.852736 1_555
Mn3 O5 1.852739 1_555
Mn3 O0 1.852741 1_555
Mn3 O6 1.963608 1_555
Mn3 O11 1.963610 1_555
Mn3 O9 1.963612 1_555
Bi0 O13 2.404879 1_455
Bi0 O5 2.404879 1_564
Bi0 O12 2.404881 1_565
Bi0 O4 2.404881 1_454
Bi0 O3 2.404883 1_555
Bi0 O0 2.404883 1_554
Bi1 O7 2.158013 1_565
Bi1 O2 2.158015 1_455
Bi1 O10 2.158017 1_555
Bi2 O11 2.158013 1_455
Bi2 O6 2.158015 1_565
Bi2 O9 2.158017 1_555
N0 O1 1.268201 1_455
N0 O14 1.268206 1_555
N0 O8 1.268206 1_445
