# generated using pymatgen
data_SiO2
_symmetry_space_group_name_H-M   'P 1'
_cell_length_a   13.66606743
_cell_length_b   13.66606742
_cell_length_c   8.96418908
_cell_angle_alpha   90.00000000
_cell_angle_beta   90.00000000
_cell_angle_gamma   120.00000005
_symmetry_Int_Tables_number   1
_chemical_formula_structural   SiO2
_chemical_formula_sum   'Si24 O48'
_cell_volume   1449.86897974
_cell_formula_units_Z   24
loop_
 _symmetry_equiv_pos_site_id
 _symmetry_equiv_pos_as_xyz
  1  'x, y, z'
loop_
 _atom_site_type_symbol
 _atom_site_label
 _atom_site_symmetry_multiplicity
 _atom_site_fract_x
 _atom_site_fract_y
 _atom_site_fract_z
 _atom_site_occupancy
  Si  Si0  1  0.33054673  0.86939909  0.07361719  1
  Si  Si1  1  0.53885236  0.86939909  0.92638281  1
  Si  Si2  1  0.13060091  0.46114764  0.42638281  1
  Si  Si3  1  0.86939909  0.53885236  0.92638281  1
  Si  Si4  1  0.46114764  0.13060091  0.07361719  1
  Si  Si5  1  0.46114764  0.33054673  0.57361719  1
  Si  Si6  1  0.13060091  0.66945327  0.92638281  1
  Si  Si7  1  0.46114764  0.33054673  0.92638281  1
  Si  Si8  1  0.66945327  0.13060091  0.57361719  1
  Si  Si9  1  0.46114764  0.13060091  0.42638281  1
  Si  Si10  1  0.33054673  0.46114764  0.57361719  1
  Si  Si11  1  0.86939909  0.33054673  0.42638281  1
  Si  Si12  1  0.53885236  0.66945327  0.42638281  1
  Si  Si13  1  0.33054673  0.46114764  0.92638281  1
  Si  Si14  1  0.33054673  0.86939909  0.42638281  1
  Si  Si15  1  0.66945327  0.13060091  0.92638281  1
  Si  Si16  1  0.53885236  0.66945327  0.07361719  1
  Si  Si17  1  0.13060091  0.66945327  0.57361719  1
  Si  Si18  1  0.13060091  0.46114764  0.07361719  1
  Si  Si19  1  0.86939909  0.33054673  0.07361719  1
  Si  Si20  1  0.66945327  0.53885236  0.42638281  1
  Si  Si21  1  0.86939909  0.53885236  0.57361719  1
  Si  Si22  1  0.53885236  0.86939909  0.57361719  1
  Si  Si23  1  0.66945327  0.53885236  0.07361719  1
  O  O0  1  0.58393245  0.79196623  0.50000000  1
  O  O1  1  0.41606755  0.20803377  0.00000000  1
  O  O2  1  0.79196623  0.20803377  0.00000000  1
  O  O3  1  0.63074762  0.63074762  0.04212871  1
  O  O4  1  0.20803377  0.79196623  0.00000000  1
  O  O5  1  0.15402079  0.67555296  0.75000000  1
  O  O6  1  0.20803377  0.41606755  0.00000000  1
  O  O7  1  0.84597921  0.52153218  0.75000000  1
  O  O8  1  0.20803377  0.79196623  0.50000000  1
  O  O9  1  0.79196623  0.58393245  0.00000000  1
  O  O10  1  0.41911256  0.83822712  0.00000000  1
  O  O11  1  0.47846782  0.15402079  0.25000000  1
  O  O12  1  0.00000000  0.36925238  0.04212871  1
  O  O13  1  0.63074762  -0.00000000  0.95787129  1
  O  O14  1  0.67555296  0.15402079  0.75000000  1
  O  O15  1  0.41911256  0.58088744  0.50000000  1
  O  O16  1  0.52153218  0.84597921  0.75000000  1
  O  O17  1  0.58393245  0.79196623  0.00000000  1
  O  O18  1  0.84597921  0.32444704  0.25000000  1
  O  O19  1  0.58088744  0.41911256  0.50000000  1
  O  O20  1  0.41606755  0.20803377  0.50000000  1
  O  O21  1  0.83822712  0.41911256  0.50000000  1
  O  O22  1  0.20803377  0.41606755  0.50000000  1
  O  O23  1  -0.00000000  0.63074762  0.54212871  1
  O  O24  1  -0.00000000  0.63074762  0.95787129  1
  O  O25  1  0.63074762  -0.00000000  0.54212871  1
  O  O26  1  0.00000000  0.36925238  0.45787129  1
  O  O27  1  0.41911256  0.83822712  0.50000000  1
  O  O28  1  0.36925238  -0.00000000  0.04212871  1
  O  O29  1  0.32444704  0.84597921  0.25000000  1
  O  O30  1  0.67555296  0.52153218  0.25000000  1
  O  O31  1  0.47846782  0.32444704  0.75000000  1
  O  O32  1  0.58088744  0.41911256  0.00000000  1
  O  O33  1  0.15402079  0.47846782  0.25000000  1
  O  O34  1  0.36925238  0.36925238  0.54212871  1
  O  O35  1  0.83822712  0.41911256  0.00000000  1
  O  O36  1  0.52153218  0.67555296  0.25000000  1
  O  O37  1  0.36925238  0.36925238  0.95787129  1
  O  O38  1  0.63074762  0.63074762  0.45787129  1
  O  O39  1  0.58088744  0.16177288  0.00000000  1
  O  O40  1  0.16177288  0.58088744  0.00000000  1
  O  O41  1  0.41911256  0.58088744  0.00000000  1
  O  O42  1  0.36925238  -0.00000000  0.45787129  1
  O  O43  1  0.79196623  0.20803377  0.50000000  1
  O  O44  1  0.79196623  0.58393245  0.50000000  1
  O  O45  1  0.32444704  0.47846782  0.75000000  1
  O  O46  1  0.58088744  0.16177288  0.50000000  1
  O  O47  1  0.16177288  0.58088744  0.50000000  1
loop_
_geom_bond_atom_site_label_1
_geom_bond_atom_site_label_2
_geom_bond_distance
_geom_bond_site_symmetry_2
O0 Si22 1.608337 1_555
O0 Si12 1.608337 1_555
O1 Si4 1.608337 1_555
O1 Si7 1.608337 1_554
O2 Si19 1.608337 1_555
O2 Si15 1.608337 1_554
O3 Si23 1.612732 1_555
O3 Si16 1.612732 1_555
O4 Si6 1.608337 1_554
O4 Si0 1.608337 1_555
O5 Si17 1.607070 1_555
O5 Si6 1.607070 1_555
O6 Si18 1.608337 1_555
O6 Si13 1.608337 1_554
O7 Si21 1.607070 1_555
O7 Si3 1.607070 1_555
O8 Si17 1.608337 1_555
O8 Si14 1.608337 1_555
O9 Si3 1.608337 1_554
O9 Si23 1.608337 1_555
O10 Si0 1.611680 1_555
O10 Si1 1.611704 1_554
O11 Si4 1.607070 1_555
O11 Si9 1.607070 1_555
O12 Si18 1.612732 1_555
O12 Si19 1.612732 1_455
O13 Si1 1.612732 1_545
O13 Si15 1.612732 1_555
O14 Si8 1.607070 1_555
O14 Si15 1.607070 1_555
O15 Si10 1.611697 1_555
O15 Si12 1.611697 1_555
O16 Si22 1.607070 1_555
O16 Si1 1.607070 1_555
O17 Si1 1.608337 1_554
O17 Si16 1.608337 1_555
O18 Si19 1.607070 1_555
O18 Si11 1.607070 1_555
O19 Si20 1.611697 1_555
O19 Si5 1.611697 1_555
O20 Si9 1.608337 1_555
O20 Si5 1.608337 1_555
O21 Si11 1.611680 1_555
O21 Si21 1.611704 1_555
O22 Si2 1.608337 1_555
O22 Si10 1.608337 1_555
O23 Si21 1.612732 1_455
O23 Si17 1.612732 1_555
O24 Si3 1.612732 1_455
O24 Si6 1.612732 1_555
O25 Si22 1.612732 1_545
O25 Si8 1.612732 1_555
O26 Si2 1.612732 1_555
O26 Si11 1.612732 1_455
O27 Si14 1.611680 1_555
O27 Si22 1.611704 1_555
O28 Si4 1.612732 1_555
O28 Si0 1.612732 1_545
O29 Si14 1.607070 1_555
O29 Si0 1.607070 1_555
O30 Si23 1.607070 1_555
O30 Si20 1.607070 1_555
O31 Si5 1.607070 1_555
O31 Si7 1.607070 1_555
O32 Si23 1.611697 1_555
O32 Si7 1.611697 1_554
O33 Si2 1.607070 1_555
O33 Si18 1.607070 1_555
O34 Si10 1.612732 1_555
O34 Si5 1.612732 1_555
O35 Si19 1.611680 1_555
O35 Si3 1.611704 1_554
O36 Si12 1.607070 1_555
O36 Si16 1.607070 1_555
O37 Si13 1.612732 1_555
O37 Si7 1.612732 1_555
O38 Si20 1.612732 1_555
O38 Si12 1.612732 1_555
O39 Si15 1.611680 1_554
O39 Si4 1.611704 1_555
O40 Si6 1.611680 1_554
O40 Si18 1.611704 1_555
O41 Si13 1.611697 1_554
O41 Si16 1.611697 1_555
O42 Si9 1.612732 1_555
O42 Si14 1.612732 1_545
O43 Si11 1.608337 1_555
O43 Si8 1.608337 1_555
O44 Si21 1.608337 1_555
O44 Si20 1.608337 1_555
O45 Si13 1.607070 1_555
O45 Si10 1.607070 1_555
O46 Si8 1.611680 1_555
O46 Si9 1.611704 1_555
O47 Si17 1.611680 1_555
O47 Si2 1.611704 1_555
