# generated using pymatgen
data_Bi
_symmetry_space_group_name_H-M   'P 1'
_cell_length_a   6.46128600
_cell_length_b   11.73946000
_cell_length_c   11.93561600
_cell_angle_alpha   90.00000000
_cell_angle_beta   90.00000000
_cell_angle_gamma   90.00000000
_symmetry_Int_Tables_number   1
_chemical_formula_structural   Bi
_chemical_formula_sum   Bi16
_cell_volume   905.34044683
_cell_formula_units_Z   16
loop_
 _symmetry_equiv_pos_site_id
 _symmetry_equiv_pos_as_xyz
  1  'x, y, z'
loop_
 _atom_site_type_symbol
 _atom_site_label
 _atom_site_symmetry_multiplicity
 _atom_site_fract_x
 _atom_site_fract_y
 _atom_site_fract_z
 _atom_site_occupancy
  Bi  Bi0_0  1  0.06019100  0.00000000  0.37500000  1
  Bi  Bi0_1  1  0.06019100  0.00000000  0.87500000  1
  Bi  Bi0_2  1  0.06019100  0.50000000  0.37500000  1
  Bi  Bi0_3  1  0.06019100  0.50000000  0.87500000  1
  Bi  Bi0_4  1  0.56019100  0.00000000  0.37500000  1
  Bi  Bi0_5  1  0.56019100  0.00000000  0.87500000  1
  Bi  Bi0_6  1  0.56019100  0.50000000  0.37500000  1
  Bi  Bi0_7  1  0.56019100  0.50000000  0.87500000  1
  Bi  Bi1_0  1  0.43980900  0.00000000  0.12500000  1
  Bi  Bi1_1  1  0.43980900  0.00000000  0.62500000  1
  Bi  Bi1_2  1  0.43980900  0.50000000  0.12500000  1
  Bi  Bi1_3  1  0.43980900  0.50000000  0.62500000  1
  Bi  Bi1_4  1  0.93980900  0.00000000  0.12500000  1
  Bi  Bi1_5  1  0.93980900  0.00000000  0.62500000  1
  Bi  Bi1_6  1  0.93980900  0.50000000  0.12500000  1
  Bi  Bi1_7  1  0.93980900  0.50000000  0.62500000  1
loop_
_geom_bond_atom_site_label_1
_geom_bond_atom_site_label_2
_geom_bond_distance
_geom_bond_site_symmetry_2
Bi0_0 Bi1_5 3.083617 1_455
Bi0_0 Bi1_4 3.083617 1_455
Bi0_0 Bi0_4 3.230643 1_455
Bi0_0 Bi0_4 3.230643 1_555
Bi0_1 Bi1_4 3.083617 1_456
Bi0_1 Bi1_5 3.083617 1_455
Bi0_1 Bi0_5 3.230643 1_455
Bi0_1 Bi0_5 3.230643 1_555
Bi0_2 Bi1_7 3.083617 1_455
Bi0_2 Bi1_6 3.083617 1_455
Bi0_2 Bi0_6 3.230643 1_455
Bi0_2 Bi0_6 3.230643 1_555
Bi0_3 Bi1_6 3.083617 1_456
Bi0_3 Bi1_7 3.083617 1_455
Bi0_3 Bi0_7 3.230643 1_455
Bi0_3 Bi0_7 3.230643 1_555
Bi0_4 Bi1_1 3.083617 1_555
Bi0_4 Bi1_0 3.083617 1_555
Bi0_5 Bi1_0 3.083617 1_556
Bi0_5 Bi1_1 3.083617 1_555
Bi0_6 Bi1_3 3.083617 1_555
Bi0_6 Bi1_2 3.083617 1_555
Bi0_7 Bi1_2 3.083617 1_556
Bi0_7 Bi1_3 3.083617 1_555
Bi1_0 Bi1_4 3.230643 1_555
Bi1_0 Bi1_4 3.230643 1_455
Bi1_1 Bi1_5 3.230643 1_555
Bi1_1 Bi1_5 3.230643 1_455
Bi1_2 Bi1_6 3.230643 1_555
Bi1_2 Bi1_6 3.230643 1_455
Bi1_3 Bi1_7 3.230643 1_555
Bi1_3 Bi1_7 3.230643 1_455
