# generated using pymatgen
data_Ho(CoB)2
_symmetry_space_group_name_H-M   'P 1'
_cell_length_a   3.52667707
_cell_length_b   3.52668377
_cell_length_c   5.26695330
_cell_angle_alpha   109.56249605
_cell_angle_beta   109.56240333
_cell_angle_gamma   89.97883052
_symmetry_Int_Tables_number   1
_chemical_formula_structural   Ho(CoB)2
_chemical_formula_sum   'Ho1 Co2 B2'
_cell_volume   57.70081575
_cell_formula_units_Z   1
loop_
 _symmetry_equiv_pos_site_id
 _symmetry_equiv_pos_as_xyz
  1  'x, y, z'
loop_
 _atom_site_type_symbol
 _atom_site_label
 _atom_site_symmetry_multiplicity
 _atom_site_fract_x
 _atom_site_fract_y
 _atom_site_fract_z
 _atom_site_occupancy
  Ho  Ho0  1  -0.00000000  -0.00000000  0.00000000  1
  Co  Co0  1  0.25003297  0.74996803  0.50000000  1
  Co  Co1  1  0.74996703  0.25003197  0.50000000  1
  B  B0  1  0.34824123  0.34824123  0.69631811  1
  B  B1  1  0.65175877  0.65175877  0.30368189  1
loop_
_geom_bond_atom_site_label_1
_geom_bond_atom_site_label_2
_geom_bond_distance
_geom_bond_site_symmetry_2
Co0 Ho0 2.913711 1_566
Co0 Ho0 2.913712 1_565
Co0 Ho0 2.913835 1_666
Co0 Ho0 2.913838 1_555
Co1 Ho0 2.913711 1_655
Co1 Ho0 2.913712 1_656
Co1 Ho0 2.913835 1_555
Co1 Ho0 2.913838 1_666
B0 Co1 1.984221 1_555
B0 Co0 1.984228 1_555
B0 Co0 1.985095 1_545
B0 Co1 1.985096 1_455
B0 Ho0 2.863796 1_566
B0 Ho0 2.863798 1_656
B0 Ho0 2.864405 1_666
B0 Ho0 2.864793 1_556
B1 Co0 1.984221 1_555
B1 Co1 1.984228 1_555
B1 Co1 1.985095 1_565
B1 Co0 1.985096 1_655
B1 Ho0 2.863796 1_655
B1 Ho0 2.863798 1_565
B1 Ho0 2.864405 1_555
B1 Ho0 2.864793 1_665
