# generated using pymatgen
data_MnCuO2
_symmetry_space_group_name_H-M   'P 1'
_cell_length_a   2.89276632
_cell_length_b   3.14051879
_cell_length_c   5.87455923
_cell_angle_alpha   102.37388228
_cell_angle_beta   90.00000000
_cell_angle_gamma   117.42298914
_symmetry_Int_Tables_number   1
_chemical_formula_structural   MnCuO2
_chemical_formula_sum   'Mn1 Cu1 O2'
_cell_volume   45.97085781
_cell_formula_units_Z   1
loop_
 _symmetry_equiv_pos_site_id
 _symmetry_equiv_pos_as_xyz
  1  'x, y, z'
loop_
 _atom_site_type_symbol
 _atom_site_label
 _atom_site_symmetry_multiplicity
 _atom_site_fract_x
 _atom_site_fract_y
 _atom_site_fract_z
 _atom_site_occupancy
  Mn  Mn0  1  -0.00000000  -0.00000000  -0.00000000  1
  Cu  Cu0  1  0.50000100  0.00000100  0.50000100  1
  O  O0  1  0.59503972  0.19007843  0.82002781  1
  O  O1  1  0.40496028  0.80991957  0.17997119  1
loop_
_geom_bond_atom_site_label_1
_geom_bond_atom_site_label_2
_geom_bond_distance
_geom_bond_site_symmetry_2
Mn0 O1 1.939343 1_445
Mn0 O0 1.939345 1_454
Mn0 O1 1.939346 1_545
Mn0 O0 1.939347 1_554
Mn0 O1 2.250039 1_555
Mn0 O0 2.250045 1_444
Cu0 O0 1.825990 1_555
Cu0 O1 1.826007 1_545
