# generated using pymatgen
data_Na3Li4Th6F31
_symmetry_space_group_name_H-M   'P 1'
_cell_length_a   9.96199634
_cell_length_b   9.96199634
_cell_length_c   13.46531400
_cell_angle_alpha   90.00000000
_cell_angle_beta   90.00000000
_cell_angle_gamma   120.00000225
_symmetry_Int_Tables_number   1
_chemical_formula_structural   Na3Li4Th6F31
_chemical_formula_sum   'Na6 Li8 Th12 F62'
_cell_volume   1157.28377045
_cell_formula_units_Z   2
loop_
 _symmetry_equiv_pos_site_id
 _symmetry_equiv_pos_as_xyz
  1  'x, y, z'
loop_
 _atom_site_type_symbol
 _atom_site_label
 _atom_site_symmetry_multiplicity
 _atom_site_fract_x
 _atom_site_fract_y
 _atom_site_fract_z
 _atom_site_occupancy
  Na  Na0  1  0.33333300  0.66666700  0.75727700  1
  Na  Na1  1  0.00000000  0.00000000  0.12350900  1
  Na  Na2  1  0.33333300  0.66666700  0.25727700  1
  Na  Na3  1  0.66666700  0.33333300  0.95347500  1
  Na  Na4  1  0.66666700  0.33333300  0.45347500  1
  Na  Na5  1  0.00000000  0.00000000  0.62350900  1
  Li  Li0  1  0.23829700  0.95119400  0.31174000  1
  Li  Li1  1  0.71289700  0.95119400  0.81174000  1
  Li  Li2  1  0.00000000  0.00000000  0.36103200  1
  Li  Li3  1  0.00000000  0.00000000  0.86103200  1
  Li  Li4  1  0.04880600  0.28710300  0.31174000  1
  Li  Li5  1  0.04880600  0.76170300  0.81174000  1
  Li  Li6  1  0.71289700  0.76170300  0.31174000  1
  Li  Li7  1  0.23829700  0.28710300  0.81174000  1
  Th  Th0  1  0.91386100  0.32530100  0.70666900  1
  Th  Th1  1  0.60397300  0.92092400  0.50090900  1
  Th  Th2  1  0.41143900  0.08613900  0.70666900  1
  Th  Th3  1  0.67469900  0.08613900  0.20666900  1
  Th  Th4  1  0.07907600  0.68304900  0.50090900  1
  Th  Th5  1  0.91386100  0.58856100  0.20666900  1
  Th  Th6  1  0.31695100  0.92092400  0.00090900  1
  Th  Th7  1  0.67469900  0.58856100  0.70666900  1
  Th  Th8  1  0.07907600  0.39602700  0.00090900  1
  Th  Th9  1  0.31695100  0.39602700  0.50090900  1
  Th  Th10  1  0.41143900  0.32530100  0.20666900  1
  Th  Th11  1  0.60397300  0.68304900  0.00090900  1
  F  F0  1  0.81084800  0.68978400  0.08371700  1
  F  F1  1  0.16565600  0.65464500  0.95479000  1
  F  F2  1  0.44316400  0.12977600  0.88476900  1
  F  F3  1  0.28503700  0.42516900  0.31096400  1
  F  F4  1  0.89341000  0.08085200  0.26422500  1
  F  F5  1  0.48899000  0.83434400  0.95479000  1
  F  F6  1  0.44316400  0.31338800  0.38476900  1
  F  F7  1  0.14013200  0.42516900  0.81096400  1
  F  F8  1  0.18854400  0.88321200  0.62430400  1
  F  F9  1  0.41560200  0.54602000  0.64690800  1
  F  F10  1  0.28503700  0.85986800  0.81096400  1
  F  F11  1  0.13041800  0.58439800  0.64690800  1
  F  F12  1  0.68661200  0.55683600  0.88476900  1
  F  F13  1  0.69466800  0.81145600  0.62430400  1
  F  F14  1  0.11678800  0.81145600  0.12430400  1
  F  F15  1  0.80050300  0.90621100  0.93311800  1
  F  F16  1  0.89341000  0.81255800  0.76422500  1
  F  F17  1  0.31021600  0.12106400  0.08371700  1
  F  F18  1  0.88409700  0.46476800  0.05187100  1
  F  F19  1  0.58067100  0.11590300  0.05187100  1
  F  F20  1  0.41560200  0.86958200  0.14690800  1
  F  F21  1  0.64813300  0.55413800  0.26264800  1
  F  F22  1  0.11678800  0.30533200  0.62430400  1
  F  F23  1  0.58067100  0.46476800  0.55187100  1
  F  F24  1  0.45398000  0.58439800  0.14690800  1
  F  F25  1  0.80050300  0.89429200  0.43311800  1
  F  F26  1  0.57483100  0.85986800  0.31096400  1
  F  F27  1  0.90600500  0.35186700  0.26264800  1
  F  F28  1  0.10570800  0.90621100  0.43311800  1
  F  F29  1  0.09378900  0.19949700  0.43311800  1
  F  F30  1  0.18854400  0.30533200  0.12430400  1
  F  F31  1  0.31021600  0.18915200  0.58371700  1
  F  F32  1  0.68661200  0.12977600  0.38476900  1
  F  F33  1  0.87893600  0.68978400  0.58371700  1
  F  F34  1  0.09378900  0.89429200  0.93311800  1
  F  F35  1  0.87022400  0.31338800  0.88476900  1
  F  F36  1  0.34535500  0.51101000  0.95479000  1
  F  F37  1  0.64813300  0.09399500  0.76264800  1
  F  F38  1  0.44586200  0.09399500  0.26264800  1
  F  F39  1  0.87893600  0.18915200  0.08371700  1
  F  F40  1  0.81084800  0.12106400  0.58371700  1
  F  F41  1  0.53523200  0.41932900  0.05187100  1
  F  F42  1  0.34535500  0.83434400  0.45479000  1
  F  F43  1  0.14013200  0.71496300  0.31096400  1
  F  F44  1  0.45398000  0.86958200  0.64690800  1
  F  F45  1  0.53523200  0.11590300  0.55187100  1
  F  F46  1  0.10570800  0.19949700  0.93311800  1
  F  F47  1  0.44586200  0.35186700  0.76264800  1
  F  F48  1  0.66666700  0.33333300  0.69401100  1
  F  F49  1  0.88409700  0.41932900  0.55187100  1
  F  F50  1  0.13041800  0.54602000  0.14690800  1
  F  F51  1  0.90600500  0.55413800  0.76264800  1
  F  F52  1  0.57483100  0.71496300  0.81096400  1
  F  F53  1  0.18744200  0.08085200  0.76422500  1
  F  F54  1  0.91914800  0.10659000  0.76422500  1
  F  F55  1  0.91914800  0.81255800  0.26422500  1
  F  F56  1  0.87022400  0.55683600  0.38476900  1
  F  F57  1  0.18744200  0.10659000  0.26422500  1
  F  F58  1  0.66666700  0.33333300  0.19401100  1
  F  F59  1  0.16565600  0.51101000  0.45479000  1
  F  F60  1  0.69466800  0.88321200  0.12430400  1
  F  F61  1  0.48899000  0.65464500  0.45479000  1
loop_
_geom_bond_atom_site_label_1
_geom_bond_atom_site_label_2
_geom_bond_distance
_geom_bond_site_symmetry_2
F0 Th11 2.314475 1_555
F0 Th5 2.417797 1_555
F0 Na1 2.750438 1_665
F1 Th8 2.354789 1_556
F1 Th6 2.386599 1_556
F2 Na3 2.326032 1_555
F2 Th6 2.395702 1_546
F2 Th2 2.429547 1_555
F3 Li4 2.047740 1_555
F3 Na2 2.320448 1_555
F3 Th10 2.408410 1_555
F3 Th9 2.611384 1_555
F4 Li4 1.961314 1_655
F4 Li2 2.081043 1_655
F4 Th3 2.337805 1_555
F4 Na1 2.494342 1_655
F5 Th6 2.354798 1_556
F5 Th11 2.386592 1_556
F6 Na4 2.326036 1_555
F6 Th9 2.395702 1_555
F6 Th10 2.429549 1_555
F7 Li7 2.047740 1_555
F7 Na0 2.320444 1_555
F7 Th0 2.408417 1_455
F7 Th8 2.611384 1_556
F8 Th4 2.398249 1_555
F8 Th2 2.399674 1_565
F8 Na5 2.658362 1_565
F9 Na0 2.304319 1_555
F9 Th9 2.365359 1_555
F9 Th7 2.528928 1_555
F10 Li5 2.047740 1_555
F10 Na0 2.320438 1_555
F10 Th2 2.408416 1_565
F10 Th6 2.611384 1_556
F11 Na0 2.304312 1_555
F11 Th4 2.365359 1_555
F11 Th0 2.528932 1_455
F12 Na3 2.326036 1_555
F12 Th11 2.395702 1_556
F12 Th7 2.429549 1_555
F13 Th1 2.398249 1_555
F13 Th7 2.399670 1_555
F13 Na5 2.658362 1_665
F14 Th6 2.398249 1_555
F14 Th5 2.399674 1_455
F14 Na1 2.658362 1_565
F15 Li3 1.976864 1_665
F15 Li1 2.006190 1_555
F15 Th11 2.292634 1_556
F16 Li5 1.961314 1_655
F16 Li3 2.081043 1_665
F16 Th7 2.337800 1_555
F16 Na5 2.494342 1_665
F17 Th6 2.314475 1_545
F17 Th10 2.417803 1_555
F17 Na1 2.750438 1_555
F18 Na3 2.307696 1_554
F18 Th5 2.363861 1_555
F18 Th8 2.458215 1_655
F19 Na3 2.307695 1_554
F19 Th3 2.363856 1_555
F19 Th6 2.458215 1_545
F20 Na2 2.304312 1_555
F20 Th6 2.365359 1_555
F20 Th3 2.528932 1_565
F21 Li6 1.948022 1_555
F21 Th10 2.439190 1_555
F21 Th5 2.604912 1_555
F22 Th9 2.398249 1_555
F22 Th0 2.399679 1_455
F22 Na5 2.658362 1_555
F23 Na4 2.307703 1_555
F23 Th7 2.363860 1_555
F23 Th9 2.458215 1_555
F24 Na2 2.304319 1_555
F24 Th11 2.365359 1_555
F24 Th10 2.528928 1_555
F25 Li2 1.976864 1_665
F25 Li6 2.006190 1_555
F25 Th1 2.292634 1_555
F26 Li6 2.047740 1_555
F26 Na2 2.320444 1_555
F26 Th3 2.408417 1_565
F26 Th1 2.611384 1_555
F27 Li4 1.948022 1_655
F27 Th5 2.439194 1_555
F27 Th3 2.604915 1_555
F28 Li2 1.976864 1_565
F28 Li0 2.006190 1_555
F28 Th4 2.292634 1_555
F29 Li2 1.976864 1_555
F29 Li4 2.006190 1_555
F29 Th9 2.292634 1_555
F30 Th8 2.398249 1_555
F30 Th10 2.399670 1_555
F30 Na1 2.658362 1_555
F31 Th9 2.314475 1_555
F31 Th2 2.417797 1_555
F31 Na5 2.750438 1_555
F32 Na4 2.326027 1_555
F32 Th1 2.395702 1_545
F32 Th3 2.429547 1_555
F33 Th4 2.314475 1_655
F33 Th7 2.417803 1_555
F33 Na5 2.750438 1_665
F34 Li3 1.976864 1_565
F34 Li5 2.006190 1_555
F34 Th6 2.292634 1_556
F35 Na3 2.326027 1_555
F35 Th8 2.395702 1_656
F35 Th0 2.429547 1_555
F36 Th11 2.354791 1_556
F36 Th8 2.386600 1_556
F37 Li1 1.948022 1_545
F37 Th2 2.439194 1_555
F37 Th0 2.604915 1_555
F38 Li0 1.948022 1_545
F38 Th3 2.439185 1_555
F38 Th10 2.604921 1_555
F39 Th8 2.314474 1_655
F39 Th3 2.417803 1_555
F39 Na1 2.750438 1_655
F40 Th1 2.314474 1_545
F40 Th0 2.417803 1_555
F40 Na5 2.750438 1_655
F41 Na3 2.307703 1_554
F41 Th10 2.363860 1_555
F41 Th11 2.458215 1_555
F42 Th1 2.354789 1_555
F42 Th4 2.386599 1_555
F43 Li0 2.047740 1_555
F43 Na2 2.320438 1_555
F43 Th5 2.408416 1_455
F43 Th4 2.611384 1_555
F44 Na0 2.304312 1_555
F44 Th1 2.365359 1_555
F44 Th2 2.528938 1_565
F45 Na4 2.307696 1_555
F45 Th2 2.363861 1_555
F45 Th1 2.458215 1_545
F46 Li3 1.976864 1_555
F46 Li7 2.006190 1_555
F46 Th8 2.292634 1_556
F47 Li7 1.948022 1_555
F47 Th7 2.439190 1_555
F47 Th2 2.604912 1_555
F48 Th0 2.509308 1_555
F48 Th2 2.509318 1_555
F48 Th7 2.509328 1_555
F49 Na4 2.307695 1_555
F49 Th0 2.363856 1_555
F49 Th4 2.458215 1_655
F50 Na2 2.304312 1_555
F50 Th8 2.365359 1_555
F50 Th5 2.528938 1_455
F51 Li5 1.948022 1_655
F51 Th0 2.439185 1_555
F51 Th7 2.604921 1_555
F52 Li1 2.047740 1_555
F52 Na0 2.320448 1_555
F52 Th7 2.408410 1_555
F52 Th11 2.611384 1_556
F53 Li7 1.961314 1_555
F53 Li3 2.081043 1_555
F53 Th2 2.337795 1_555
F53 Na5 2.494342 1_555
F54 Li1 1.961314 1_545
F54 Li3 2.081043 1_655
F54 Th0 2.337805 1_555
F54 Na5 2.494342 1_655
F55 Li6 1.961314 1_555
F55 Li2 2.081043 1_665
F55 Th5 2.337795 1_555
F55 Na1 2.494342 1_665
F56 Na4 2.326032 1_555
F56 Th4 2.395702 1_655
F56 Th5 2.429547 1_555
F57 Li0 1.961314 1_545
F57 Li2 2.081043 1_555
F57 Th10 2.337800 1_555
F57 Na1 2.494342 1_555
F58 Th3 2.509308 1_555
F58 Th5 2.509318 1_555
F58 Th10 2.509328 1_555
F59 Th4 2.354798 1_555
F59 Th9 2.386592 1_555
F60 Th11 2.398249 1_555
F60 Th3 2.399679 1_565
F60 Na1 2.658362 1_665
F61 Th9 2.354791 1_555
F61 Th1 2.386600 1_555
