# generated using pymatgen
data_LiMnPO4
_symmetry_space_group_name_H-M   'P 1'
_cell_length_a   10.23570052
_cell_length_b   10.23570052
_cell_length_c   17.71461018
_cell_angle_alpha   72.10124682
_cell_angle_beta   72.10124682
_cell_angle_gamma   59.05688652
_symmetry_Int_Tables_number   1
_chemical_formula_structural   LiMnPO4
_chemical_formula_sum   'Li16 Mn16 P16 O64'
_cell_volume   1489.20533094
_cell_formula_units_Z   16
loop_
 _symmetry_equiv_pos_site_id
 _symmetry_equiv_pos_as_xyz
  1  'x, y, z'
loop_
 _atom_site_type_symbol
 _atom_site_label
 _atom_site_symmetry_multiplicity
 _atom_site_fract_x
 _atom_site_fract_y
 _atom_site_fract_z
 _atom_site_occupancy
  Li  Li0  1  0.25821100  0.18203600  0.93616700  1
  Li  Li1  1  0.12306800  0.75820800  0.43738500  1
  Li  Li2  1  0.25801000  0.68349300  0.93606200  1
  Li  Li3  1  0.49361900  0.88068100  0.68631700  1
  Li  Li4  1  0.44136000  0.37520700  0.68494700  1
  Li  Li5  1  0.62297500  0.75952100  0.43700400  1
  Li  Li6  1  0.36895900  0.93999400  0.18693200  1
  Li  Li7  1  0.37520700  0.44136000  0.18494700  1
  Li  Li8  1  0.75820800  0.12306800  0.93738500  1
  Li  Li9  1  0.99344100  0.87304000  0.68695500  1
  Li  Li10  1  0.75952100  0.62297500  0.93700400  1
  Li  Li11  1  0.93999400  0.36895900  0.68693200  1
  Li  Li12  1  0.68349300  0.25801000  0.43606200  1
  Li  Li13  1  0.87304000  0.99344100  0.18695500  1
  Li  Li14  1  0.88068100  0.49361900  0.18631700  1
  Li  Li15  1  0.18203600  0.25821100  0.43616700  1
  Mn  Mn0  1  0.12461000  0.50405100  0.81191500  1
  Mn  Mn1  1  0.12973300  0.00377600  0.81255600  1
  Mn  Mn2  1  0.00377600  0.12973300  0.31255600  1
  Mn  Mn3  1  0.74180400  0.81548200  0.06252200  1
  Mn  Mn4  1  0.63066100  0.05873600  0.81277500  1
  Mn  Mn5  1  0.62576900  0.55781800  0.81361000  1
  Mn  Mn6  1  0.24296900  0.87526300  0.06160700  1
  Mn  Mn7  1  0.87526300  0.24296900  0.56160700  1
  Mn  Mn8  1  0.37743900  0.23939100  0.56152100  1
  Mn  Mn9  1  0.50405100  0.12461000  0.31191500  1
  Mn  Mn10  1  0.81548200  0.74180400  0.56252200  1
  Mn  Mn11  1  0.55781800  0.62576900  0.31361000  1
  Mn  Mn12  1  0.31526300  0.74103900  0.56211600  1
  Mn  Mn13  1  0.74103900  0.31526300  0.06211600  1
  Mn  Mn14  1  0.23939100  0.37743900  0.06152100  1
  Mn  Mn15  1  0.05873600  0.63066100  0.31277500  1
  P  P0  1  0.06458200  0.68497900  0.12280700  1
  P  P1  1  0.68497900  0.06458200  0.62280700  1
  P  P2  1  0.62805700  0.56559700  0.62463800  1
  P  P3  1  0.31534200  0.93521300  0.37495900  1
  P  P4  1  0.18325300  0.06255500  0.62341800  1
  P  P5  1  0.81661400  0.93775800  0.37508000  1
  P  P6  1  0.43820000  0.87230900  0.87347800  1
  P  P7  1  0.06255500  0.18325300  0.12341800  1
  P  P8  1  0.37159600  0.43445600  0.37348300  1
  P  P9  1  0.12713000  0.56222400  0.62461000  1
  P  P10  1  0.87230900  0.43820000  0.37347800  1
  P  P11  1  0.93775800  0.81661400  0.87508000  1
  P  P12  1  0.43445600  0.37159600  0.87348300  1
  P  P13  1  0.56222400  0.12713000  0.12461000  1
  P  P14  1  0.93521300  0.31534200  0.87495900  1
  P  P15  1  0.56559700  0.62805700  0.12463800  1
  O  O0  1  0.11049300  0.17376600  0.54830500  1
  O  O1  1  0.87021900  0.91551800  0.79672600  1
  O  O2  1  0.35033200  0.03953400  0.61083100  1
  O  O3  1  0.17308500  0.61256700  0.04707400  1
  O  O4  1  0.95338300  0.65159300  0.89126200  1
  O  O5  1  0.66982000  0.16707300  0.04771600  1
  O  O6  1  0.27054500  0.40049800  0.63745700  1
  O  O7  1  0.66919500  0.67004600  0.04623500  1
  O  O8  1  0.32376500  0.32831600  0.94702200  1
  O  O9  1  0.83115700  0.32418200  0.44570700  1
  O  O10  1  0.61256700  0.17308500  0.54707400  1
  O  O11  1  0.41157600  0.36524000  0.29754300  1
  O  O12  1  0.90063000  0.82219900  0.44612800  1
  O  O13  1  0.13790200  0.08051100  0.19906600  1
  O  O14  1  0.04047500  0.85236700  0.11039400  1
  O  O15  1  0.32418200  0.83115700  0.94570700  1
  O  O16  1  0.17376600  0.11049300  0.04830500  1
  O  O17  1  0.36524000  0.41157600  0.79754300  1
  O  O18  1  0.60042400  0.23327900  0.86424700  1
  O  O19  1  0.91551800  0.87021900  0.29672600  1
  O  O20  1  0.80505000  0.09969500  0.36416200  1
  O  O21  1  0.14969000  0.95235600  0.39168100  1
  O  O22  1  0.40234000  0.76878500  0.13827200  1
  O  O23  1  0.58178500  0.14563200  0.69652600  1
  O  O24  1  0.68731100  0.90586200  0.63750500  1
  O  O25  1  0.82154000  0.39991400  0.94615300  1
  O  O26  1  0.14563200  0.58178500  0.19652600  1
  O  O27  1  0.65159300  0.95338300  0.39126200  1
  O  O28  1  0.08051100  0.13790200  0.69906600  1
  O  O29  1  0.51106200  0.44366600  0.38480200  1
  O  O30  1  0.41337000  0.86414800  0.29762700  1
  O  O31  1  0.58573700  0.64752200  0.69590200  1
  O  O32  1  0.03953400  0.35033200  0.11083100  1
  O  O33  1  0.32831600  0.32376500  0.44702200  1
  O  O34  1  0.91668500  0.37058600  0.29621100  1
  O  O35  1  0.45057900  0.00873600  0.88620600  1
  O  O36  1  0.30432500  0.09726100  0.36317600  1
  O  O37  1  0.82219900  0.90063000  0.94612800  1
  O  O38  1  0.37058600  0.91668500  0.79621100  1
  O  O39  1  0.60202200  0.73088800  0.86431200  1
  O  O40  1  0.64752200  0.58573700  0.19590200  1
  O  O41  1  0.49097100  0.54802400  0.61709200  1
  O  O42  1  0.99183900  0.54325600  0.61584600  1
  O  O43  1  0.39991400  0.82154000  0.44615300  1
  O  O44  1  0.54325600  0.99183900  0.11584600  1
  O  O45  1  0.54802400  0.49097100  0.11709200  1
  O  O46  1  0.67004600  0.66919500  0.54623500  1
  O  O47  1  0.90362300  0.18641800  0.13708400  1
  O  O48  1  0.40049800  0.27054500  0.13745700  1
  O  O49  1  0.86414800  0.41337000  0.79762700  1
  O  O50  1  0.73088800  0.60202200  0.36431200  1
  O  O51  1  0.90586200  0.68731100  0.13750500  1
  O  O52  1  0.08264200  0.63925500  0.69832600  1
  O  O53  1  0.23327900  0.60042400  0.36424700  1
  O  O54  1  0.63925500  0.08264200  0.19832600  1
  O  O55  1  0.00873600  0.45057900  0.38620600  1
  O  O56  1  0.18641800  0.90362300  0.63708400  1
  O  O57  1  0.09726100  0.30432500  0.86317600  1
  O  O58  1  0.09969500  0.80505000  0.86416200  1
  O  O59  1  0.76878500  0.40234000  0.63827200  1
  O  O60  1  0.16707300  0.66982000  0.54771600  1
  O  O61  1  0.95235600  0.14969000  0.89168100  1
  O  O62  1  0.85236700  0.04047500  0.61039400  1
  O  O63  1  0.44366600  0.51106200  0.88480200  1
loop_
_geom_bond_atom_site_label_1
_geom_bond_atom_site_label_2
_geom_bond_distance
_geom_bond_site_symmetry_2
Li0 O16 1.982631 1_556
Li0 O8 2.004619 1_555
Li0 O35 2.027030 1_555
Li0 O57 2.036316 1_555
Li1 O60 1.968885 1_555
Li1 O12 1.987173 1_455
Li1 O53 2.018344 1_555
Li1 O21 2.027606 1_555
Li2 O3 1.967387 1_556
Li2 O58 2.004343 1_555
Li2 O63 2.006523 1_555
Li2 O15 2.013717 1_555
Li3 O38 1.992054 1_555
Li3 O2 1.999900 1_565
Li3 O24 2.019773 1_555
Li3 O31 2.036836 1_555
Li4 O17 1.981648 1_555
Li4 O23 2.010333 1_555
Li4 O41 2.018252 1_555
Li4 O6 2.033833 1_555
Li5 O46 1.961227 1_555
Li5 O43 1.996864 1_555
Li5 O50 2.011888 1_555
Li5 O27 2.035539 1_555
Li6 O30 1.975804 1_555
Li6 O22 2.015579 1_555
Li6 O13 2.021804 1_565
Li6 O44 2.057213 1_555
Li7 O11 1.981648 1_555
Li7 O26 2.010333 1_555
Li7 O45 2.018252 1_555
Li7 O48 2.033833 1_555
Li8 O5 1.968885 1_556
Li8 O37 1.987173 1_545
Li8 O18 2.018344 1_555
Li8 O61 2.027606 1_555
Li9 O1 2.002326 1_555
Li9 O62 2.022818 1_565
Li9 O52 2.042145 1_655
Li9 O56 2.042882 1_655
Li10 O7 1.961227 1_556
Li10 O25 1.996864 1_555
Li10 O39 2.011888 1_555
Li10 O4 2.035539 1_555
Li11 O49 1.975804 1_555
Li11 O59 2.015579 1_555
Li11 O28 2.021804 1_655
Li11 O42 2.057213 1_555
Li12 O10 1.967387 1_555
Li12 O20 2.004343 1_555
Li12 O29 2.006523 1_555
Li12 O9 2.013717 1_555
Li13 O19 2.002326 1_555
Li13 O14 2.022818 1_655
Li13 O54 2.042145 1_565
Li13 O47 2.042882 1_565
Li14 O34 1.992054 1_555
Li14 O32 1.999900 1_655
Li14 O51 2.019773 1_555
Li14 O40 2.036836 1_555
Li15 O0 1.982631 1_555
Li15 O33 2.004619 1_555
Li15 O55 2.027030 1_555
Li15 O36 2.036316 1_555
Mn0 O52 2.087321 1_555
Mn0 O57 2.091281 1_555
Mn0 O17 2.095804 1_555
Mn0 O4 2.096841 1_455
Mn1 O58 2.096473 1_545
Mn1 O28 2.096475 1_555
Mn1 O38 2.101446 1_545
Mn1 O61 2.103713 1_455
Mn2 O20 2.096473 1_455
Mn2 O13 2.096475 1_555
Mn2 O34 2.101446 1_455
Mn2 O21 2.103713 1_545
Mn3 O37 2.068364 1_554
Mn3 O51 2.083204 1_555
Mn3 O44 2.091998 1_555
Mn3 O7 2.094087 1_555
Mn4 O23 2.081329 1_555
Mn4 O1 2.091282 1_545
Mn4 O18 2.092421 1_555
Mn4 O35 2.106832 1_555
Mn5 O31 2.078525 1_555
Mn5 O49 2.083851 1_555
Mn5 O63 2.096494 1_555
Mn5 O39 2.098802 1_555
Mn6 O15 2.060311 1_554
Mn6 O22 2.077718 1_555
Mn6 O16 2.086735 1_565
Mn6 O14 2.090877 1_555
Mn7 O9 2.060311 1_555
Mn7 O59 2.077718 1_555
Mn7 O0 2.086735 1_655
Mn7 O62 2.090877 1_555
Mn8 O33 2.053359 1_555
Mn8 O6 2.080703 1_555
Mn8 O2 2.088336 1_555
Mn8 O10 2.089675 1_555
Mn9 O54 2.087321 1_555
Mn9 O36 2.091281 1_555
Mn9 O11 2.095804 1_555
Mn9 O27 2.096841 1_545
Mn10 O12 2.068364 1_555
Mn10 O24 2.083204 1_555
Mn10 O42 2.091998 1_555
Mn10 O46 2.094087 1_555
Mn11 O40 2.078525 1_555
Mn11 O30 2.083851 1_555
Mn11 O29 2.096494 1_555
Mn11 O50 2.098802 1_555
Mn12 O43 2.061387 1_555
Mn12 O56 2.072988 1_555
Mn12 O41 2.079939 1_555
Mn12 O60 2.094394 1_555
Mn13 O25 2.061387 1_554
Mn13 O47 2.072988 1_555
Mn13 O45 2.079939 1_555
Mn13 O5 2.094394 1_555
Mn14 O8 2.053359 1_554
Mn14 O48 2.080703 1_555
Mn14 O32 2.088336 1_555
Mn14 O3 2.089675 1_555
Mn15 O26 2.081329 1_555
Mn15 O19 2.091282 1_455
Mn15 O53 2.092421 1_555
Mn15 O55 2.106832 1_555
O0 P4 1.557949 1_555
O1 P11 1.560682 1_555
O2 P4 1.553519 1_555
O3 P0 1.559322 1_555
O4 P11 1.553570 1_555
O5 P13 1.560170 1_555
O6 P9 1.556205 1_555
O7 P15 1.560334 1_555
O8 P12 1.559229 1_555
O9 P10 1.559800 1_555
O10 P1 1.559322 1_555
O11 P8 1.558328 1_555
O12 P5 1.557831 1_555
O13 P7 1.559325 1_555
O14 P0 1.552985 1_555
O15 P6 1.559800 1_555
O16 P7 1.557949 1_555
O17 P12 1.558328 1_555
O18 P12 1.554117 1_555
O19 P5 1.560682 1_555
O20 P5 1.553740 1_545
O21 P3 1.552654 1_555
O22 P15 1.554362 1_555
O23 P1 1.557637 1_555
O24 P1 1.552951 1_565
O25 P14 1.557885 1_555
O26 P0 1.557637 1_555
O27 P5 1.553570 1_555
O28 P4 1.559325 1_555
O29 P8 1.553349 1_555
O30 P3 1.558709 1_555
O31 P2 1.557411 1_555
O32 P7 1.553519 1_555
O33 P8 1.559229 1_555
O34 P10 1.560647 1_555
O35 P6 1.552401 1_545
O36 P3 1.554604 1_545
O37 P11 1.557831 1_555
O38 P6 1.560647 1_555
O39 P6 1.553857 1_555
O40 P15 1.557411 1_555
O41 P2 1.552011 1_555
O42 P9 1.551331 1_655
O43 P3 1.557885 1_555
O44 P13 1.551331 1_565
O45 P15 1.552011 1_555
O46 P2 1.560334 1_555
O47 P7 1.553905 1_655
O48 P13 1.556205 1_555
O49 P14 1.558709 1_555
O50 P10 1.553857 1_555
O51 P0 1.552951 1_655
O52 P9 1.559623 1_555
O53 P8 1.554117 1_555
O54 P13 1.559623 1_555
O55 P10 1.552401 1_455
O56 P4 1.553905 1_565
O57 P14 1.554604 1_455
O58 P11 1.553740 1_455
O59 P2 1.554362 1_555
O60 P9 1.560170 1_555
O61 P14 1.552654 1_555
O62 P1 1.552985 1_555
O63 P12 1.553349 1_555
