# generated using pymatgen
data_MgVO3
_symmetry_space_group_name_H-M   'P 1'
_cell_length_a   5.81643917
_cell_length_b   5.81643917
_cell_length_c   5.34152600
_cell_angle_alpha   90.00000000
_cell_angle_beta   90.00000000
_cell_angle_gamma   126.78742948
_symmetry_Int_Tables_number   1
_chemical_formula_structural   MgVO3
_chemical_formula_sum   'Mg2 V2 O6'
_cell_volume   144.72309292
_cell_formula_units_Z   2
loop_
 _symmetry_equiv_pos_site_id
 _symmetry_equiv_pos_as_xyz
  1  'x, y, z'
loop_
 _atom_site_type_symbol
 _atom_site_label
 _atom_site_symmetry_multiplicity
 _atom_site_fract_x
 _atom_site_fract_y
 _atom_site_fract_z
 _atom_site_occupancy
  Mg  Mg0  1  0.17391200  0.82608800  0.00000000  1
  Mg  Mg1  1  0.82608800  0.17391200  0.00000000  1
  V  V0  1  0.67467900  0.32532100  0.50000000  1
  V  V1  1  0.32532100  0.67467900  0.50000000  1
  O  O0  1  0.00000000  0.50000000  0.27133100  1
  O  O1  1  0.50000000  0.00000000  0.72866900  1
  O  O2  1  0.50000000  0.50000000  0.50000000  1
  O  O3  1  0.50000000  0.00000000  0.27133100  1
  O  O4  1  0.00000000  0.50000000  0.72866900  1
  O  O5  1  0.00000000  0.00000000  0.00000000  1
loop_
_geom_bond_atom_site_label_1
_geom_bond_atom_site_label_2
_geom_bond_distance
_geom_bond_site_symmetry_2
Mg0 O5 1.808861 1_565
Mg0 O0 2.103154 1_555
Mg0 O4 2.103154 1_554
Mg0 O1 2.103154 1_564
Mg0 O3 2.103154 1_565
Mg1 O5 1.808861 1_655
Mg1 O3 2.103154 1_555
Mg1 O1 2.103154 1_554
Mg1 O4 2.103154 1_654
Mg1 O0 2.103154 1_655
O0 V1 1.949892 1_555
O0 V0 1.949892 1_455
O1 V0 1.949892 1_555
O1 V1 1.949892 1_545
O2 V1 1.816839 1_555
O2 V0 1.816839 1_555
O3 V0 1.949892 1_555
O3 V1 1.949892 1_545
O4 V1 1.949892 1_555
O4 V0 1.949892 1_455
