# generated using pymatgen
data_Zr5AlSn3
_symmetry_space_group_name_H-M   'P 1'
_cell_length_a   8.71258557
_cell_length_b   8.71258557
_cell_length_c   5.89896913
_cell_angle_alpha   90.00000000
_cell_angle_beta   90.00000000
_cell_angle_gamma   120.00000202
_symmetry_Int_Tables_number   1
_chemical_formula_structural   Zr5AlSn3
_chemical_formula_sum   'Zr10 Al2 Sn6'
_cell_volume   387.79379788
_cell_formula_units_Z   2
loop_
 _symmetry_equiv_pos_site_id
 _symmetry_equiv_pos_as_xyz
  1  'x, y, z'
loop_
 _atom_site_type_symbol
 _atom_site_label
 _atom_site_symmetry_multiplicity
 _atom_site_fract_x
 _atom_site_fract_y
 _atom_site_fract_z
 _atom_site_occupancy
  Zr  Zr0  1  0.33333300  0.66666700  0.00000000  1
  Zr  Zr1  1  0.66666700  0.33333300  0.50000000  1
  Zr  Zr2  1  0.66666700  0.33333300  0.00000000  1
  Zr  Zr3  1  0.33333300  0.66666700  0.50000000  1
  Zr  Zr4  1  0.26875470  0.00000000  0.25000000  1
  Zr  Zr5  1  0.26875470  0.26875470  0.75000000  1
  Zr  Zr6  1  1.00000000  0.73124530  0.75000000  1
  Zr  Zr7  1  0.00000000  0.26875470  0.25000000  1
  Zr  Zr8  1  0.73124530  0.73124530  0.25000000  1
  Zr  Zr9  1  0.73124530  1.00000000  0.75000000  1
  Al  Al0  1  -0.00000000  -0.00000000  0.00000000  1
  Al  Al1  1  -0.00000000  -0.00000000  0.50000000  1
  Sn  Sn0  1  0.61413489  0.00000000  0.25000000  1
  Sn  Sn1  1  0.61413489  0.61413489  0.75000000  1
  Sn  Sn2  1  1.00000000  0.38586511  0.75000000  1
  Sn  Sn3  1  0.00000000  0.61413489  0.25000000  1
  Sn  Sn4  1  0.38586511  0.38586511  0.25000000  1
  Sn  Sn5  1  0.38586511  1.00000000  0.75000000  1
loop_
_geom_bond_atom_site_label_1
_geom_bond_atom_site_label_2
_geom_bond_distance
_geom_bond_site_symmetry_2
Zr0 Zr3 2.949485 1_554
Zr0 Zr3 2.949485 1_555
Zr1 Zr2 2.949485 1_556
Zr1 Zr2 2.949485 1_555
Al0 Zr8 2.767257 1_445
Al0 Zr5 2.767257 1_554
Al0 Zr9 2.767257 1_444
Al0 Zr7 2.767257 1_555
Al0 Zr4 2.767257 1_555
Al0 Zr6 2.767257 1_444
Al0 Al1 2.949485 1_554
Al0 Al1 2.949485 1_555
Al1 Zr5 2.767257 1_555
Al1 Zr8 2.767257 1_445
Al1 Zr9 2.767257 1_445
Al1 Zr7 2.767257 1_555
Al1 Zr4 2.767257 1_555
Al1 Zr6 2.767257 1_445
Sn0 Zr7 2.985480 1_655
Sn0 Zr8 2.985480 1_545
Sn0 Zr4 3.009154 1_555
Sn0 Zr2 3.080496 1_555
Sn0 Zr1 3.080496 1_555
Sn0 Zr0 3.080499 1_545
Sn0 Zr3 3.080499 1_545
Sn0 Zr9 3.120984 1_544
Sn0 Zr9 3.120984 1_545
Sn1 Zr9 2.985480 1_555
Sn1 Zr6 2.985480 1_555
Sn1 Zr5 3.009154 1_555
Sn1 Zr0 3.080504 1_556
Sn1 Zr2 3.080504 1_556
Sn1 Zr1 3.080504 1_555
Sn1 Zr3 3.080504 1_555
Sn1 Zr8 3.120984 1_556
Sn1 Zr8 3.120984 1_555
Sn2 Zr9 2.985480 1_545
Sn2 Zr5 2.985480 1_655
Sn2 Zr6 3.009154 1_555
Sn2 Zr1 3.080496 1_555
Sn2 Zr2 3.080496 1_556
Sn2 Zr3 3.080499 1_655
Sn2 Zr0 3.080499 1_656
Sn2 Zr7 3.120984 1_656
Sn2 Zr7 3.120984 1_655
Sn3 Zr4 2.985480 1_565
Sn3 Zr8 2.985480 1_455
Sn3 Zr7 3.009154 1_555
Sn3 Zr3 3.080496 1_555
Sn3 Zr0 3.080496 1_555
Sn3 Zr1 3.080499 1_455
Sn3 Zr2 3.080499 1_455
Sn3 Zr6 3.120984 1_455
Sn3 Zr6 3.120984 1_454
Sn4 Zr4 2.985480 1_555
Sn4 Zr7 2.985480 1_555
Sn4 Zr8 3.009154 1_555
Sn4 Zr0 3.080504 1_555
Sn4 Zr2 3.080504 1_555
Sn4 Zr1 3.080504 1_555
Sn4 Zr3 3.080504 1_555
Sn4 Zr5 3.120984 1_555
Sn4 Zr5 3.120984 1_554
Sn5 Zr6 2.985480 1_455
Sn5 Zr5 2.985480 1_565
Sn5 Zr9 3.009154 1_555
Sn5 Zr3 3.080496 1_555
Sn5 Zr0 3.080496 1_556
Sn5 Zr2 3.080499 1_566
Sn5 Zr1 3.080499 1_565
Sn5 Zr4 3.120984 1_565
Sn5 Zr4 3.120984 1_566
