# generated using pymatgen
data_Li2Ni12P7
_symmetry_space_group_name_H-M   'P 1'
_cell_length_a   8.92736581
_cell_length_b   8.92765054
_cell_length_c   3.51378130
_cell_angle_alpha   90.00000422
_cell_angle_beta   90.00000291
_cell_angle_gamma   119.99780198
_symmetry_Int_Tables_number   1
_chemical_formula_structural   Li2Ni12P7
_chemical_formula_sum   'Li2 Ni12 P7'
_cell_volume   242.53559757
_cell_formula_units_Z   1
loop_
 _symmetry_equiv_pos_site_id
 _symmetry_equiv_pos_as_xyz
  1  'x, y, z'
loop_
 _atom_site_type_symbol
 _atom_site_label
 _atom_site_symmetry_multiplicity
 _atom_site_fract_x
 _atom_site_fract_y
 _atom_site_fract_z
 _atom_site_occupancy
  Li  Li0  1  0.00000136  -0.00000081  -0.00000004  1
  Li  Li1  1  0.33337257  0.66669579  0.49999995  1
  Ni  Ni0  1  0.10165920  0.39392909  -0.00000004  1
  Ni  Ni1  1  0.29239009  0.89846560  -0.00000002  1
  Ni  Ni2  1  0.60602052  0.70763045  -0.00000002  1
  Ni  Ni3  1  0.82542752  0.61054424  0.00000005  1
  Ni  Ni4  1  0.78497015  0.17445183  -0.00000011  1
  Ni  Ni5  1  0.38954808  0.21496807  0.00000012  1
  Ni  Ni6  1  0.05025171  0.76775879  0.49999985  1
  Ni  Ni7  1  0.71738753  0.94969754  0.49999981  1
  Ni  Ni8  1  0.23242279  0.28249171  0.49999988  1
  Ni  Ni9  1  0.88654617  0.42637428  0.50000003  1
  Ni  Ni10  1  0.53963322  0.11333218  0.49999982  1
  Ni  Ni11  1  0.57355924  0.46024928  0.50000022  1
  P  P0  1  0.66668761  0.33336321  -0.00000003  1
  P  P1  1  0.08463880  0.62797879  -0.00000009  1
  P  P2  1  0.54326608  0.91531433  -0.00000015  1
  P  P3  1  0.37213708  0.45670809  -0.00000003  1
  P  P4  1  0.78699612  0.74683526  0.50000000  1
  P  P5  1  0.95988971  0.21303253  0.49999985  1
  P  P6  1  0.25319544  0.04017975  0.49999996  1
loop_
_geom_bond_atom_site_label_1
_geom_bond_atom_site_label_2
_geom_bond_distance
_geom_bond_site_symmetry_2
Li0 P5 2.740998 1_455
Li0 P5 2.740999 1_454
Li0 P4 2.741057 1_444
Li0 P4 2.741058 1_445
Li0 P6 2.741127 1_555
Li0 P6 2.741127 1_554
Li1 P2 2.713954 1_556
Li1 P2 2.713954 1_555
Li1 P1 2.714672 1_556
Li1 P1 2.714672 1_555
Li1 P3 2.714708 1_555
Li1 P3 2.714708 1_556
Li1 Ni2 2.873196 1_556
Li1 Ni2 2.873196 1_555
Li1 Ni0 2.873802 1_555
Li1 Ni0 2.873802 1_556
Li1 Ni1 2.873835 1_556
Li1 Ni1 2.873835 1_555
Li1 Ni7 3.078187 1_555
Li1 Ni6 3.079409 1_555
Li1 Ni8 3.079994 1_555
Ni0 P1 2.169477 1_555
Ni0 P3 2.188935 1_555
Ni0 P5 2.291902 1_455
Ni0 P5 2.291902 1_454
Ni1 P2 2.168374 1_555
Ni1 P1 2.189232 1_555
Ni1 P6 2.291817 1_565
Ni1 P6 2.291817 1_564
Ni2 P3 2.168136 1_555
Ni2 P2 2.188682 1_555
Ni2 P4 2.292161 1_555
Ni2 P4 2.292161 1_554
Ni3 P0 2.150632 1_555
Ni3 P1 2.240313 1_655
Ni3 P4 2.258829 1_555
Ni3 P4 2.258829 1_554
Ni4 P0 2.150754 1_555
Ni4 P2 2.239772 1_545
Ni4 P5 2.259641 1_555
Ni4 P5 2.259642 1_554
Ni5 P0 2.150250 1_555
Ni5 P3 2.239931 1_555
Ni5 P6 2.259214 1_555
Ni5 P6 2.259215 1_554
Ni6 P6 2.188932 1_565
Ni6 P4 2.262577 1_455
Ni6 P1 2.263016 1_555
Ni6 P1 2.263016 1_556
Ni7 P4 2.188963 1_555
Ni7 P2 2.262757 1_555
Ni7 P2 2.262757 1_556
Ni7 P5 2.263751 1_565
Ni8 P5 2.189843 1_455
Ni8 P6 2.261702 1_555
Ni8 P3 2.263105 1_555
Ni8 P3 2.263105 1_556
Ni9 P5 2.302907 1_555
Ni9 P0 2.449263 1_556
Ni9 P0 2.449263 1_555
Ni9 P1 2.504158 1_656
Ni9 P1 2.504158 1_655
Ni10 P6 2.301206 1_555
Ni10 P0 2.450301 1_555
Ni10 P0 2.450301 1_556
Ni10 P2 2.504053 1_545
Ni10 P2 2.504054 1_546
Ni11 P4 2.302606 1_555
Ni11 P0 2.450067 1_556
Ni11 P0 2.450068 1_555
Ni11 P3 2.502844 1_556
Ni11 P3 2.502845 1_555
