# generated using pymatgen
data_V(CO)6
_symmetry_space_group_name_H-M   'P 1'
_cell_length_a   6.82088800
_cell_length_b   11.29383000
_cell_length_c   12.79412800
_cell_angle_alpha   90.00000000
_cell_angle_beta   90.00000000
_cell_angle_gamma   90.00000000
_symmetry_Int_Tables_number   1
_chemical_formula_structural   V(CO)6
_chemical_formula_sum   'V4 C24 O24'
_cell_volume   985.58221052
_cell_formula_units_Z   4
loop_
 _symmetry_equiv_pos_site_id
 _symmetry_equiv_pos_as_xyz
  1  'x, y, z'
loop_
 _atom_site_type_symbol
 _atom_site_label
 _atom_site_symmetry_multiplicity
 _atom_site_fract_x
 _atom_site_fract_y
 _atom_site_fract_z
 _atom_site_occupancy
  V  V0  1  0.93845600  0.75000000  0.12697900  1
  V  V1  1  0.43845600  0.25000000  0.37302100  1
  V  V2  1  0.06154400  0.25000000  0.87302100  1
  V  V3  1  0.56154400  0.75000000  0.62697900  1
  C  C0  1  0.68888700  0.75000000  0.21471500  1
  C  C1  1  0.18888700  0.25000000  0.28528500  1
  C  C2  1  0.31111300  0.25000000  0.78528500  1
  C  C3  1  0.81111300  0.75000000  0.71471500  1
  C  C4  1  0.18982000  0.75000000  0.04041300  1
  C  C5  1  0.68982000  0.25000000  0.45958700  1
  C  C6  1  0.81018000  0.25000000  0.95958700  1
  C  C7  1  0.31018000  0.75000000  0.54041300  1
  C  C8  1  0.82033600  0.86872000  0.02838900  1
  C  C9  1  0.32033600  0.13128000  0.47161100  1
  C  C10  1  0.17966400  0.36872000  0.97161100  1
  C  C11  1  0.67966400  0.63128000  0.52838900  1
  C  C12  1  0.17966400  0.13128000  0.97161100  1
  C  C13  1  0.67966400  0.86872000  0.52838900  1
  C  C14  1  0.82033600  0.63128000  0.02838900  1
  C  C15  1  0.32033600  0.36872000  0.47161100  1
  C  C16  1  0.05807700  0.86999700  0.22427300  1
  C  C17  1  0.55807700  0.13000300  0.27572700  1
  C  C18  1  0.94192300  0.36999700  0.77572700  1
  C  C19  1  0.44192300  0.63000300  0.72427300  1
  C  C20  1  0.94192300  0.13000300  0.77572700  1
  C  C21  1  0.44192300  0.86999700  0.72427300  1
  C  C22  1  0.05807700  0.63000300  0.22427300  1
  C  C23  1  0.55807700  0.36999700  0.27572700  1
  O  O0  1  0.54782300  0.75000000  0.26479800  1
  O  O1  1  0.04782300  0.25000000  0.23520200  1
  O  O2  1  0.45217700  0.25000000  0.73520200  1
  O  O3  1  0.95217700  0.75000000  0.76479800  1
  O  O4  1  0.33272600  0.75000000  0.99197400  1
  O  O5  1  0.83272600  0.25000000  0.50802600  1
  O  O6  1  0.66727400  0.25000000  0.00802600  1
  O  O7  1  0.16727400  0.75000000  0.49197400  1
  O  O8  1  0.75282200  0.93554800  0.96966000  1
  O  O9  1  0.25282200  0.06445200  0.53034000  1
  O  O10  1  0.24717800  0.43554800  0.03034000  1
  O  O11  1  0.74717800  0.56445200  0.46966000  1
  O  O12  1  0.24717800  0.06445200  0.03034000  1
  O  O13  1  0.74717800  0.93554800  0.46966000  1
  O  O14  1  0.75282200  0.56445200  0.96966000  1
  O  O15  1  0.25282200  0.43554800  0.53034000  1
  O  O16  1  0.12833200  0.93809400  0.28078800  1
  O  O17  1  0.62833200  0.06190600  0.21921200  1
  O  O18  1  0.87166800  0.43809400  0.71921200  1
  O  O19  1  0.37166800  0.56190600  0.78078800  1
  O  O20  1  0.87166800  0.06190600  0.71921200  1
  O  O21  1  0.37166800  0.93809400  0.78078800  1
  O  O22  1  0.12833200  0.56190600  0.28078800  1
  O  O23  1  0.62833200  0.43809400  0.21921200  1
loop_
_geom_bond_atom_site_label_1
_geom_bond_atom_site_label_2
_geom_bond_distance
_geom_bond_site_symmetry_2
C0 O0 1.156018 1_555
C0 V0 2.039064 1_555
C1 O1 1.156018 1_555
C1 V1 2.039064 1_555
C2 O2 1.156018 1_555
C2 V2 2.039064 1_555
C3 O3 1.156018 1_555
C3 V3 2.039064 1_555
C4 O4 1.155076 1_554
C4 V0 2.041136 1_455
C5 O5 1.155076 1_555
C5 V1 2.041136 1_555
C6 O6 1.155076 1_556
C6 V2 2.041136 1_655
C7 O7 1.155076 1_555
C7 V3 2.041136 1_555
C8 O8 1.160295 1_554
C8 V0 2.009463 1_555
C9 O9 1.160295 1_555
C9 V1 2.009463 1_555
C10 O10 1.160295 1_556
C10 V2 2.009463 1_555
C11 O11 1.160295 1_555
C11 V3 2.009463 1_555
C12 O12 1.160295 1_556
C12 V2 2.009463 1_555
C13 O13 1.160295 1_555
C13 V3 2.009463 1_555
C14 O14 1.160295 1_554
C14 V0 2.009463 1_555
C15 O15 1.160295 1_555
C15 V1 2.009463 1_555
C16 O16 1.159279 1_555
C16 V0 2.012926 1_455
C17 O17 1.159279 1_555
C17 V1 2.012926 1_555
C18 O18 1.159279 1_555
C18 V2 2.012926 1_655
C19 O19 1.159279 1_555
C19 V3 2.012926 1_555
C20 O20 1.159279 1_555
C20 V2 2.012926 1_655
C21 O21 1.159279 1_555
C21 V3 2.012926 1_555
C22 O22 1.159279 1_555
C22 V0 2.012926 1_455
C23 O23 1.159279 1_555
C23 V1 2.012926 1_555
