# generated using pymatgen
data_KSbO3
_symmetry_space_group_name_H-M   'P 1'
_cell_length_a   6.84028095
_cell_length_b   6.84026105
_cell_length_c   6.84030694
_cell_angle_alpha   46.47726357
_cell_angle_beta   46.47717131
_cell_angle_gamma   46.47728063
_symmetry_Int_Tables_number   1
_chemical_formula_structural   KSbO3
_chemical_formula_sum   'K2 Sb2 O6'
_cell_volume   153.64624010
_cell_formula_units_Z   2
loop_
 _symmetry_equiv_pos_site_id
 _symmetry_equiv_pos_as_xyz
  1  'x, y, z'
loop_
 _atom_site_type_symbol
 _atom_site_label
 _atom_site_symmetry_multiplicity
 _atom_site_fract_x
 _atom_site_fract_y
 _atom_site_fract_z
 _atom_site_occupancy
  K  K0  1  0.64183221  0.64184426  0.64183403  1
  K  K1  1  0.35816579  0.35815574  0.35816797  1
  Sb  Sb0  1  0.16389656  0.16389595  0.16389597  1
  Sb  Sb1  1  0.83610344  0.83610405  0.83610303  1
  O  O0  1  0.44276345  0.03704660  0.83313352  1
  O  O1  1  0.55723755  0.96295340  0.16686648  1
  O  O2  1  0.03704510  0.83313260  0.44276470  1
  O  O3  1  0.96295590  0.16686740  0.55723530  1
  O  O4  1  0.83313329  0.44276194  0.03704656  1
  O  O5  1  0.16686671  0.55723806  0.96295344  1
loop_
_geom_bond_atom_site_label_1
_geom_bond_atom_site_label_2
_geom_bond_distance
_geom_bond_site_symmetry_2
K0 O5 2.593273 1_555
K0 O1 2.593274 1_555
K0 O3 2.593305 1_555
K0 O0 2.867457 1_565
K0 O2 2.867459 1_655
K0 O4 2.867502 1_556
K1 O0 2.593273 1_555
K1 O4 2.593281 1_555
K1 O2 2.593301 1_555
K1 O3 2.867447 1_455
K1 O1 2.867458 1_545
K1 O5 2.867504 1_554
O0 Sb0 1.997657 1_556
O0 Sb1 2.017955 1_545
O1 Sb1 1.997663 1_554
O1 Sb0 2.017964 1_565
O2 Sb0 1.997658 1_565
O2 Sb1 2.017958 1_455
O3 Sb1 1.997662 1_545
O3 Sb0 2.017966 1_655
O4 Sb0 1.997663 1_655
O4 Sb1 2.017959 1_554
O5 Sb1 1.997667 1_455
O5 Sb0 2.017960 1_556
