# generated using pymatgen
data_YCu(MoO4)2
_symmetry_space_group_name_H-M   'P 1'
_cell_length_a   9.88324800
_cell_length_b   10.30289600
_cell_length_c   14.72561200
_cell_angle_alpha   90.00000000
_cell_angle_beta   90.00000000
_cell_angle_gamma   90.00000000
_symmetry_Int_Tables_number   1
_chemical_formula_structural   YCu(MoO4)2
_chemical_formula_sum   'Y8 Cu8 Mo16 O64'
_cell_volume   1499.45129087
_cell_formula_units_Z   8
loop_
 _symmetry_equiv_pos_site_id
 _symmetry_equiv_pos_as_xyz
  1  'x, y, z'
loop_
 _atom_site_type_symbol
 _atom_site_label
 _atom_site_symmetry_multiplicity
 _atom_site_fract_x
 _atom_site_fract_y
 _atom_site_fract_z
 _atom_site_occupancy
  Y  Y0  1  0.27812600  0.46569200  0.89609600  1
  Y  Y1  1  0.22187400  0.96569200  0.10390400  1
  Y  Y2  1  0.77812600  0.53430800  0.60390400  1
  Y  Y3  1  0.77812600  0.03430800  0.89609600  1
  Y  Y4  1  0.27812600  0.96569200  0.60390400  1
  Y  Y5  1  0.72187400  0.53430800  0.10390400  1
  Y  Y6  1  0.22187400  0.46569200  0.39609600  1
  Y  Y7  1  0.72187400  0.03430800  0.39609600  1
  Cu  Cu0  1  0.18905000  0.31752600  0.19607200  1
  Cu  Cu1  1  0.81095000  0.18247400  0.69607200  1
  Cu  Cu2  1  0.18905000  0.81752600  0.30392800  1
  Cu  Cu3  1  0.31095000  0.81752600  0.80392800  1
  Cu  Cu4  1  0.68905000  0.18247400  0.19607200  1
  Cu  Cu5  1  0.68905000  0.68247400  0.30392800  1
  Cu  Cu6  1  0.31095000  0.31752600  0.69607200  1
  Cu  Cu7  1  0.81095000  0.68247400  0.80392800  1
  Mo  Mo0  1  0.99985300  0.28104300  0.05646100  1
  Mo  Mo1  1  0.50014700  0.78104300  0.94353900  1
  Mo  Mo2  1  0.83169100  0.39674600  0.34676400  1
  Mo  Mo3  1  0.00014700  0.71895700  0.94353900  1
  Mo  Mo4  1  0.50014700  0.28104300  0.55646100  1
  Mo  Mo5  1  0.66830900  0.89674600  0.65323600  1
  Mo  Mo6  1  0.00014700  0.21895700  0.55646100  1
  Mo  Mo7  1  0.66830900  0.39674600  0.84676400  1
  Mo  Mo8  1  0.33169100  0.60325400  0.15323600  1
  Mo  Mo9  1  0.49985300  0.21895700  0.05646100  1
  Mo  Mo10  1  0.99985300  0.78104300  0.44353900  1
  Mo  Mo11  1  0.16830900  0.60325400  0.65323600  1
  Mo  Mo12  1  0.33169100  0.10325400  0.34676400  1
  Mo  Mo13  1  0.16830900  0.10325400  0.84676400  1
  Mo  Mo14  1  0.49985300  0.71895700  0.44353900  1
  Mo  Mo15  1  0.83169100  0.89674600  0.15323600  1
  O  O0  1  0.39599300  0.61259100  0.37614300  1
  O  O1  1  0.20809200  0.07385100  0.96264100  1
  O  O2  1  0.70809200  0.92614900  0.53735900  1
  O  O3  1  0.10854900  0.32932200  0.49793700  1
  O  O4  1  0.89599300  0.38740900  0.12385700  1
  O  O5  1  0.24261100  0.98933100  0.27157700  1
  O  O6  1  0.60854900  0.67067800  0.00206300  1
  O  O7  1  0.90338300  0.12891200  0.47611800  1
  O  O8  1  0.10932500  0.67997300  0.36840500  1
  O  O9  1  0.60400700  0.88740900  0.87614300  1
  O  O10  1  0.60932500  0.82002700  0.36840500  1
  O  O11  1  0.27602800  0.76663300  0.18063800  1
  O  O12  1  0.00983700  0.91268300  0.16786000  1
  O  O13  1  0.40338300  0.87108800  0.02388200  1
  O  O14  1  0.10400700  0.61259100  0.87614300  1
  O  O15  1  0.29190800  0.57385100  0.03735900  1
  O  O16  1  0.70809200  0.42614900  0.96264100  1
  O  O17  1  0.39067500  0.17997300  0.63159500  1
  O  O18  1  0.74261100  0.01066900  0.22842300  1
  O  O19  1  0.39145100  0.32932200  0.99793700  1
  O  O20  1  0.39067500  0.67997300  0.86840500  1
  O  O21  1  0.89067500  0.82002700  0.86840500  1
  O  O22  1  0.60400700  0.38740900  0.62385700  1
  O  O23  1  0.25738900  0.48933100  0.72842300  1
  O  O24  1  0.99016300  0.08731700  0.83214000  1
  O  O25  1  0.27602800  0.26663300  0.31936200  1
  O  O26  1  0.72397200  0.73336700  0.68063800  1
  O  O27  1  0.59661700  0.12891200  0.97611800  1
  O  O28  1  0.10400700  0.11259100  0.62385700  1
  O  O29  1  0.09661700  0.87108800  0.52388200  1
  O  O30  1  0.22397200  0.26663300  0.81936200  1
  O  O31  1  0.40338300  0.37108800  0.47611800  1
  O  O32  1  0.60854900  0.17067800  0.49793700  1
  O  O33  1  0.75738900  0.01066900  0.72842300  1
  O  O34  1  0.09661700  0.37108800  0.97611800  1
  O  O35  1  0.10854900  0.82932200  0.00206300  1
  O  O36  1  0.50983700  0.08731700  0.33214000  1
  O  O37  1  0.29190800  0.07385100  0.46264100  1
  O  O38  1  0.89067500  0.32002700  0.63159500  1
  O  O39  1  0.50983700  0.58731700  0.16786000  1
  O  O40  1  0.90338300  0.62891200  0.02388200  1
  O  O41  1  0.49016300  0.91268300  0.66786000  1
  O  O42  1  0.75738900  0.51066900  0.77157700  1
  O  O43  1  0.72397200  0.23336700  0.81936200  1
  O  O44  1  0.00983700  0.41268300  0.33214000  1
  O  O45  1  0.89599300  0.88740900  0.37614300  1
  O  O46  1  0.89145100  0.67067800  0.50206300  1
  O  O47  1  0.99016300  0.58731700  0.66786000  1
  O  O48  1  0.25738900  0.98933100  0.77157700  1
  O  O49  1  0.10932500  0.17997300  0.13159500  1
  O  O50  1  0.79190800  0.92614900  0.03735900  1
  O  O51  1  0.49016300  0.41268300  0.83214000  1
  O  O52  1  0.89145100  0.17067800  0.99793700  1
  O  O53  1  0.39599300  0.11259100  0.12385700  1
  O  O54  1  0.60932500  0.32002700  0.13159500  1
  O  O55  1  0.24261100  0.48933100  0.22842300  1
  O  O56  1  0.77602800  0.73336700  0.18063800  1
  O  O57  1  0.59661700  0.62891200  0.52388200  1
  O  O58  1  0.74261100  0.51066900  0.27157700  1
  O  O59  1  0.39145100  0.82932200  0.50206300  1
  O  O60  1  0.79190800  0.42614900  0.46264100  1
  O  O61  1  0.77602800  0.23336700  0.31936200  1
  O  O62  1  0.20809200  0.57385100  0.53735900  1
  O  O63  1  0.22397200  0.76663300  0.68063800  1
loop_
_geom_bond_atom_site_label_1
_geom_bond_atom_site_label_2
_geom_bond_distance
_geom_bond_site_symmetry_2
Cu0 O49 1.879035 1_555
Cu0 O55 1.907978 1_555
Cu0 O25 2.076056 1_555
Cu1 O38 1.879035 1_555
Cu1 O33 1.907978 1_555
Cu1 O43 2.076056 1_555
Cu2 O8 1.879035 1_555
Cu2 O5 1.907978 1_555
Cu2 O11 2.076056 1_555
Cu3 O20 1.879035 1_555
Cu3 O48 1.907978 1_555
Cu3 O63 2.076056 1_555
Cu4 O54 1.879035 1_555
Cu4 O18 1.907978 1_555
Cu4 O61 2.076056 1_555
Cu5 O10 1.879035 1_555
Cu5 O58 1.907978 1_555
Cu5 O56 2.076056 1_555
Cu6 O17 1.879035 1_555
Cu6 O23 1.907978 1_555
Cu6 O30 2.076056 1_555
Cu7 O21 1.879035 1_555
Cu7 O42 1.907978 1_555
Cu7 O26 2.076056 1_555
Mo0 O34 1.781850 1_654
Mo0 O52 1.784229 1_554
Mo0 O4 1.799875 1_555
Mo0 O49 1.865217 1_655
Mo1 O13 1.781850 1_556
Mo1 O6 1.784229 1_556
Mo1 O9 1.799875 1_555
Mo1 O20 1.865217 1_555
Mo2 O60 1.777084 1_555
Mo2 O44 1.781365 1_655
Mo2 O61 1.816284 1_555
Mo2 O58 1.838096 1_555
Mo3 O40 1.781850 1_456
Mo3 O35 1.784229 1_556
Mo3 O14 1.799875 1_555
Mo3 O21 1.865217 1_455
Mo4 O31 1.781850 1_555
Mo4 O32 1.784229 1_555
Mo4 O22 1.799875 1_555
Mo4 O17 1.865217 1_555
Mo5 O2 1.777084 1_555
Mo5 O41 1.781365 1_555
Mo5 O26 1.816284 1_555
Mo5 O33 1.838096 1_565
Mo6 O7 1.781850 1_455
Mo6 O3 1.784229 1_555
Mo6 O28 1.799875 1_555
Mo6 O38 1.865217 1_455
Mo7 O16 1.777084 1_555
Mo7 O51 1.781365 1_555
Mo7 O43 1.816284 1_555
Mo7 O42 1.838096 1_555
Mo8 O15 1.777084 1_555
Mo8 O39 1.781365 1_555
Mo8 O11 1.816284 1_555
Mo8 O55 1.838096 1_555
Mo9 O27 1.781850 1_554
Mo9 O19 1.784229 1_554
Mo9 O53 1.799875 1_555
Mo9 O54 1.865217 1_555
Mo10 O29 1.781850 1_655
Mo10 O46 1.784229 1_555
Mo10 O45 1.799875 1_555
Mo10 O8 1.865217 1_655
Mo11 O62 1.777084 1_555
Mo11 O47 1.781365 1_455
Mo11 O63 1.816284 1_555
Mo11 O23 1.838096 1_555
Mo12 O37 1.777084 1_555
Mo12 O36 1.781365 1_555
Mo12 O25 1.816284 1_555
Mo12 O5 1.838096 1_545
Mo13 O1 1.777084 1_555
Mo13 O24 1.781365 1_455
Mo13 O30 1.816284 1_555
Mo13 O48 1.838096 1_545
Mo14 O57 1.781850 1_555
Mo14 O59 1.784229 1_555
Mo14 O0 1.799875 1_555
Mo14 O10 1.865217 1_555
Mo15 O50 1.777084 1_555
Mo15 O12 1.781365 1_655
Mo15 O56 1.816284 1_555
Mo15 O18 1.838096 1_565
O0 Y6 2.310483 1_555
O1 Y1 2.363789 1_546
O2 Y7 2.363789 1_565
O3 Y6 2.340405 1_555
O4 Y5 2.310483 1_555
O5 Y1 2.489521 1_555
O6 Y5 2.340405 1_555
O7 Y7 2.357258 1_555
O8 Y6 2.505514 1_555
O9 Y3 2.310483 1_565
O10 Y7 2.505514 1_565
O11 Y1 2.401954 1_555
O12 Y1 2.361535 1_555
O13 Y1 2.357258 1_555
O14 Y0 2.310483 1_555
O15 Y0 2.363789 1_554
O16 Y5 2.363789 1_556
O17 Y4 2.505514 1_545
O18 Y7 2.489521 1_555
O19 Y0 2.340405 1_555
O20 Y0 2.505514 1_555
O21 Y3 2.505514 1_565
O22 Y2 2.310483 1_555
O23 Y0 2.489521 1_555
O24 Y3 2.361535 1_555
O25 Y6 2.401954 1_555
O26 Y2 2.401954 1_555
O27 Y3 2.357258 1_555
O28 Y4 2.310483 1_545
O29 Y4 2.357258 1_555
O30 Y0 2.401954 1_555
O31 Y6 2.357258 1_555
O32 Y7 2.340405 1_555
O33 Y3 2.489521 1_555
O34 Y0 2.357258 1_555
O35 Y1 2.340405 1_555
O36 Y7 2.361535 1_555
O37 Y4 2.363789 1_545
O38 Y2 2.505514 1_555
O39 Y5 2.361535 1_555
O40 Y5 2.357258 1_555
O41 Y4 2.361535 1_555
O42 Y2 2.489521 1_555
O43 Y3 2.401954 1_555
O44 Y6 2.361535 1_555
O45 Y7 2.310483 1_565
O46 Y2 2.340405 1_555
O47 Y2 2.361535 1_555
O48 Y4 2.489521 1_555
O49 Y1 2.505514 1_545
O50 Y3 2.363789 1_564
O51 Y0 2.361535 1_555
O52 Y3 2.340405 1_555
O53 Y1 2.310483 1_545
O54 Y5 2.505514 1_555
O55 Y6 2.489521 1_555
O56 Y5 2.401954 1_555
O57 Y2 2.357258 1_555
O58 Y5 2.489521 1_555
O59 Y4 2.340405 1_555
O60 Y2 2.363789 1_555
O61 Y7 2.401954 1_555
O62 Y6 2.363789 1_555
O63 Y4 2.401954 1_555
