# generated using pymatgen
data_ErPH5CO7
_symmetry_space_group_name_H-M   'P 1'
_cell_length_a   6.48636600
_cell_length_b   6.88852633
_cell_length_c   7.73931602
_cell_angle_alpha   111.90949226
_cell_angle_beta   96.31370848
_cell_angle_gamma   90.77202666
_symmetry_Int_Tables_number   1
_chemical_formula_structural   ErPH5CO7
_chemical_formula_sum   'Er2 P2 H10 C2 O14'
_cell_volume   318.32484305
_cell_formula_units_Z   2
loop_
 _symmetry_equiv_pos_site_id
 _symmetry_equiv_pos_as_xyz
  1  'x, y, z'
loop_
 _atom_site_type_symbol
 _atom_site_label
 _atom_site_symmetry_multiplicity
 _atom_site_fract_x
 _atom_site_fract_y
 _atom_site_fract_z
 _atom_site_occupancy
  Er  Er0  1  0.12354300  0.22053600  0.93361500  1
  Er  Er1  1  0.87645700  0.77946400  0.06638500  1
  P  P0  1  0.67150100  0.25138700  0.02025900  1
  P  P1  1  0.32849900  0.74861300  0.97974100  1
  H  H0  1  0.48406900  0.88476500  0.59409600  1
  H  H1  1  0.72180100  0.67760700  0.65360800  1
  H  H2  1  0.52390500  0.73965400  0.39249900  1
  H  H3  1  0.51593100  0.11523500  0.40590400  1
  H  H4  1  0.27819900  0.32239300  0.34639200  1
  H  H5  1  0.47609500  0.26034600  0.60750100  1
  H  H6  1  0.62645500  0.29394600  0.20377300  1
  H  H7  1  0.16216000  0.52005400  0.31604000  1
  H  H8  1  0.83784000  0.47994600  0.68396000  1
  H  H9  1  0.37354500  0.70605400  0.79622700  1
  C  C0  1  0.05786600  0.90490600  0.50258700  1
  C  C1  1  0.94213400  0.09509400  0.49741300  1
  O  O0  1  0.14860600  0.91591800  0.65871300  1
  O  O1  1  0.78588200  0.62147900  0.74690800  1
  O  O2  1  0.80530000  0.05645900  0.96221200  1
  O  O3  1  0.58920700  0.80107300  0.52267900  1
  O  O4  1  0.46536800  0.22026100  0.89393300  1
  O  O5  1  0.94753800  0.24848500  0.65380500  1
  O  O6  1  0.81983000  0.43108300  0.02475400  1
  O  O7  1  0.18017000  0.56891700  0.97524600  1
  O  O8  1  0.53463200  0.77973900  0.10606700  1
  O  O9  1  0.19470000  0.94354100  0.03778800  1
  O  O10  1  0.85139400  0.08408200  0.34128700  1
  O  O11  1  0.05246200  0.75151500  0.34619500  1
  O  O12  1  0.21411800  0.37852100  0.25309200  1
  O  O13  1  0.41079300  0.19892700  0.47732100  1
loop_
_geom_bond_atom_site_label_1
_geom_bond_atom_site_label_2
_geom_bond_distance
_geom_bond_site_symmetry_2
Er0 O4 2.271509 1_555
Er0 O12 2.301761 1_556
Er0 O7 2.317562 1_555
Er0 O9 2.365114 1_546
Er0 O0 2.389483 1_545
Er0 O5 2.408995 1_455
Er0 O2 2.410773 1_455
Er0 O6 2.470040 1_456
Er1 O8 2.271509 1_555
Er1 O1 2.301761 1_554
Er1 O6 2.317562 1_555
Er1 O2 2.365114 1_564
Er1 O10 2.389483 1_565
Er1 O11 2.408995 1_655
Er1 O9 2.410773 1_655
Er1 O7 2.470040 1_654
H0 O3 0.979100 1_555
H1 O1 0.995149 1_555
H2 O3 0.978099 1_555
H3 O13 0.979100 1_555
H4 O12 0.995149 1_555
H5 O13 0.978099 1_555
H6 P0 1.404044 1_555
H7 O12 0.995971 1_555
H7 O11 1.700691 1_555
H8 O1 0.995971 1_555
H8 O5 1.700691 1_555
H9 P1 1.404044 1_555
C0 O0 1.259427 1_555
C0 O11 1.271981 1_555
C1 O10 1.259427 1_555
C1 O5 1.271981 1_555
O2 P0 1.557246 1_556
O4 P0 1.529006 1_556
O6 P0 1.545165 1_555
O7 P1 1.545165 1_555
O8 P1 1.529006 1_554
O9 P1 1.557246 1_554
