# generated using pymatgen
data_GdCu(MoO4)2
_symmetry_space_group_name_H-M   'P 1'
_cell_length_a   9.93289342
_cell_length_b   10.38201818
_cell_length_c   14.81329487
_cell_angle_alpha   90.00000000
_cell_angle_beta   90.00000000
_cell_angle_gamma   90.00000000
_symmetry_Int_Tables_number   1
_chemical_formula_structural   GdCu(MoO4)2
_chemical_formula_sum   'Gd8 Cu8 Mo16 O64'
_cell_volume   1527.59851824
_cell_formula_units_Z   8
loop_
 _symmetry_equiv_pos_site_id
 _symmetry_equiv_pos_as_xyz
  1  'x, y, z'
loop_
 _atom_site_type_symbol
 _atom_site_label
 _atom_site_symmetry_multiplicity
 _atom_site_fract_x
 _atom_site_fract_y
 _atom_site_fract_z
 _atom_site_occupancy
  Gd  Gd0  1  0.77736881  0.53465913  0.39635371  1
  Gd  Gd1  1  0.22263119  0.96534087  0.89635371  1
  Gd  Gd2  1  0.27736881  0.96534087  0.39635371  1
  Gd  Gd3  1  0.77736881  0.03465913  0.10364629  1
  Gd  Gd4  1  0.22263119  0.46534087  0.60364629  1
  Gd  Gd5  1  0.72263119  0.53465913  0.89635371  1
  Gd  Gd6  1  0.72263119  0.03465913  0.60364629  1
  Gd  Gd7  1  0.27736881  0.46534087  0.10364629  1
  Cu  Cu0  1  0.30877463  0.81809297  0.19530367  1
  Cu  Cu1  1  0.19122537  0.31809297  0.80469633  1
  Cu  Cu2  1  0.30877463  0.31809297  0.30469633  1
  Cu  Cu3  1  0.80877463  0.18190703  0.30469633  1
  Cu  Cu4  1  0.69122537  0.68190703  0.69530367  1
  Cu  Cu5  1  0.69122537  0.18190703  0.80469633  1
  Cu  Cu6  1  0.19122537  0.81809297  0.69530367  1
  Cu  Cu7  1  0.80877463  0.68190703  0.19530367  1
  Mo  Mo0  1  0.83017541  0.89671051  0.84710383  1
  Mo  Mo1  1  0.00021628  0.78015468  0.55723047  1
  Mo  Mo2  1  0.49978372  0.78015468  0.05723047  1
  Mo  Mo3  1  0.66982459  0.89671051  0.34710383  1
  Mo  Mo4  1  0.99978372  0.71984532  0.05723047  1
  Mo  Mo5  1  0.00021628  0.28015468  0.94276953  1
  Mo  Mo6  1  0.16982459  0.60328949  0.34710383  1
  Mo  Mo7  1  0.83017541  0.39671051  0.65289617  1
  Mo  Mo8  1  0.33017541  0.10328949  0.65289617  1
  Mo  Mo9  1  0.49978372  0.28015468  0.44276953  1
  Mo  Mo10  1  0.66982459  0.39671051  0.15289617  1
  Mo  Mo11  1  0.33017541  0.60328949  0.84710383  1
  Mo  Mo12  1  0.50021628  0.21984532  0.94276953  1
  Mo  Mo13  1  0.50021628  0.71984532  0.55723047  1
  Mo  Mo14  1  0.16982459  0.10328949  0.15289617  1
  Mo  Mo15  1  0.99978372  0.21984532  0.44276953  1
  O  O0  1  0.75686300  0.01127595  0.27262248  1
  O  O1  1  0.24313700  0.48872405  0.77262248  1
  O  O2  1  0.24313700  0.98872405  0.72737752  1
  O  O3  1  0.75686300  0.51127595  0.22737752  1
  O  O4  1  0.60850786  0.16896820  0.49876895  1
  O  O5  1  0.89149214  0.66896820  0.50123105  1
  O  O6  1  0.09437122  0.36835333  0.02450093  1
  O  O7  1  0.09437122  0.86835333  0.47549907  1
  O  O8  1  0.90562878  0.63164667  0.97549907  1
  O  O9  1  0.89833394  0.38681206  0.87569549  1
  O  O10  1  0.60166606  0.88681206  0.12430451  1
  O  O11  1  0.89833394  0.88681206  0.62430451  1
  O  O12  1  0.10850786  0.33103180  0.49876895  1
  O  O13  1  0.99227491  0.58757822  0.33400517  1
  O  O14  1  0.00772509  0.41242178  0.66599483  1
  O  O15  1  0.60850786  0.66896820  0.00123105  1
  O  O16  1  0.00772509  0.91242178  0.83400517  1
  O  O17  1  0.50772509  0.58757822  0.83400517  1
  O  O18  1  0.61115981  0.81838153  0.63159768  1
  O  O19  1  0.39833394  0.61318794  0.62430451  1
  O  O20  1  0.49227491  0.41242178  0.16599483  1
  O  O21  1  0.40562878  0.86835333  0.97549907  1
  O  O22  1  0.22505422  0.76487080  0.31830809  1
  O  O23  1  0.11115981  0.68161847  0.63159768  1
  O  O24  1  0.38884019  0.18161847  0.36840232  1
  O  O25  1  0.39149214  0.33103180  0.99876895  1
  O  O26  1  0.27494578  0.26487080  0.68169191  1
  O  O27  1  0.90562878  0.13164667  0.52450093  1
  O  O28  1  0.61115981  0.31838153  0.86840232  1
  O  O29  1  0.21163492  0.57562296  0.46214063  1
  O  O30  1  0.88884019  0.81838153  0.13159768  1
  O  O31  1  0.77494578  0.23512920  0.68169191  1
  O  O32  1  0.74313700  0.01127595  0.77262248  1
  O  O33  1  0.25686300  0.98872405  0.22737752  1
  O  O34  1  0.99227491  0.08757822  0.16599483  1
  O  O35  1  0.72505422  0.73512920  0.31830809  1
  O  O36  1  0.22505422  0.26487080  0.18169191  1
  O  O37  1  0.10166606  0.11318794  0.37569549  1
  O  O38  1  0.21163492  0.07562296  0.03785937  1
  O  O39  1  0.11115981  0.18161847  0.86840232  1
  O  O40  1  0.39149214  0.83103180  0.50123105  1
  O  O41  1  0.39833394  0.11318794  0.87569549  1
  O  O42  1  0.71163492  0.42437704  0.03785937  1
  O  O43  1  0.78836508  0.92437704  0.96214063  1
  O  O44  1  0.59437122  0.13164667  0.02450093  1
  O  O45  1  0.72505422  0.23512920  0.18169191  1
  O  O46  1  0.59437122  0.63164667  0.47549907  1
  O  O47  1  0.60166606  0.38681206  0.37569549  1
  O  O48  1  0.10166606  0.61318794  0.12430451  1
  O  O49  1  0.77494578  0.73512920  0.81830809  1
  O  O50  1  0.78836508  0.42437704  0.53785937  1
  O  O51  1  0.28836508  0.07562296  0.53785937  1
  O  O52  1  0.38884019  0.68161847  0.13159768  1
  O  O53  1  0.89149214  0.16896820  0.99876895  1
  O  O54  1  0.88884019  0.31838153  0.36840232  1
  O  O55  1  0.28836508  0.57562296  0.96214063  1
  O  O56  1  0.49227491  0.91242178  0.33400517  1
  O  O57  1  0.50772509  0.08757822  0.66599483  1
  O  O58  1  0.74313700  0.51127595  0.72737752  1
  O  O59  1  0.40562878  0.36835333  0.52450093  1
  O  O60  1  0.27494578  0.76487080  0.81830809  1
  O  O61  1  0.10850786  0.83103180  0.00123105  1
  O  O62  1  0.25686300  0.48872405  0.27262248  1
  O  O63  1  0.71163492  0.92437704  0.46214063  1
loop_
_geom_bond_atom_site_label_1
_geom_bond_atom_site_label_2
_geom_bond_distance
_geom_bond_site_symmetry_2
Gd0 O47 2.344264 1_555
Gd0 O5 2.375489 1_555
Gd0 O46 2.385885 1_555
Gd0 O13 2.389884 1_555
Gd0 O50 2.390973 1_555
Gd0 O35 2.436875 1_555
Gd0 O3 2.523074 1_555
Gd0 O54 2.537561 1_555
Gd1 O41 2.344264 1_565
Gd1 O61 2.375489 1_556
Gd1 O21 2.385885 1_555
Gd1 O16 2.389884 1_555
Gd1 O38 2.390973 1_566
Gd1 O60 2.436875 1_555
Gd1 O2 2.523074 1_555
Gd1 O39 2.537561 1_565
Gd2 O37 2.344264 1_565
Gd2 O40 2.375489 1_555
Gd2 O7 2.385885 1_555
Gd2 O56 2.389884 1_555
Gd2 O51 2.390973 1_565
Gd2 O22 2.436875 1_555
Gd2 O33 2.523074 1_555
Gd2 O24 2.537561 1_565
Gd3 O10 2.344264 1_545
Gd3 O53 2.375489 1_554
Gd3 O44 2.385885 1_555
Gd3 O34 2.389884 1_555
Gd3 O43 2.390973 1_544
Gd3 O45 2.436875 1_555
Gd3 O0 2.523074 1_555
Gd3 O30 2.537561 1_545
Gd4 O19 2.344264 1_555
Gd4 O12 2.375489 1_555
Gd4 O59 2.385885 1_555
Gd4 O14 2.389884 1_555
Gd4 O29 2.390973 1_555
Gd4 O26 2.436875 1_555
Gd4 O1 2.523074 1_555
Gd4 O23 2.537561 1_555
Gd5 O9 2.344264 1_555
Gd5 O15 2.375489 1_556
Gd5 O8 2.385885 1_555
Gd5 O17 2.389884 1_555
Gd5 O42 2.390973 1_556
Gd5 O49 2.436875 1_555
Gd5 O58 2.523074 1_555
Gd5 O28 2.537561 1_555
Gd6 O11 2.344264 1_545
Gd6 O4 2.375489 1_555
Gd6 O27 2.385885 1_555
Gd6 O57 2.389884 1_555
Gd6 O63 2.390973 1_545
Gd6 O31 2.436875 1_555
Gd6 O32 2.523074 1_555
Gd6 O18 2.537561 1_545
Gd7 O48 2.344264 1_555
Gd7 O25 2.375489 1_554
Gd7 O6 2.385885 1_555
Gd7 O20 2.389884 1_555
Gd7 O55 2.390973 1_554
Gd7 O36 2.436875 1_555
Gd7 O62 2.523074 1_555
Gd7 O52 2.537561 1_555
Cu0 O52 1.878986 1_555
Cu0 O33 1.905206 1_555
Cu0 O22 2.077715 1_555
Cu1 O39 1.878986 1_555
Cu1 O1 1.905206 1_555
Cu1 O26 2.077715 1_555
Cu2 O24 1.878986 1_555
Cu2 O62 1.905206 1_555
Cu2 O36 2.077715 1_555
Cu3 O54 1.878986 1_555
Cu3 O0 1.905206 1_555
Cu3 O45 2.077715 1_555
Cu4 O18 1.878986 1_555
Cu4 O58 1.905206 1_555
Cu4 O49 2.077715 1_555
Cu5 O28 1.878986 1_555
Cu5 O32 1.905206 1_555
Cu5 O31 2.077715 1_555
Cu6 O23 1.878986 1_555
Cu6 O2 1.905206 1_555
Cu6 O60 2.077715 1_555
Cu7 O30 1.878986 1_555
Cu7 O3 1.905206 1_555
Cu7 O35 2.077715 1_555
Mo0 O43 1.777314 1_555
Mo0 O16 1.781706 1_655
Mo0 O49 1.815777 1_555
Mo0 O32 1.838330 1_565
Mo1 O7 1.782961 1_555
Mo1 O5 1.785193 1_455
Mo1 O11 1.799302 1_455
Mo1 O23 1.864000 1_555
Mo2 O21 1.782961 1_554
Mo2 O15 1.785193 1_555
Mo2 O10 1.799302 1_555
Mo2 O52 1.864000 1_555
Mo3 O63 1.777314 1_555
Mo3 O56 1.781706 1_555
Mo3 O35 1.815777 1_555
Mo3 O0 1.838330 1_565
Mo4 O8 1.782961 1_554
Mo4 O61 1.785193 1_655
Mo4 O48 1.799302 1_655
Mo4 O30 1.864000 1_555
Mo5 O6 1.782961 1_556
Mo5 O53 1.785193 1_455
Mo5 O9 1.799302 1_455
Mo5 O39 1.864000 1_555
Mo6 O29 1.777314 1_555
Mo6 O13 1.781706 1_455
Mo6 O22 1.815777 1_555
Mo6 O62 1.838330 1_555
Mo7 O50 1.777314 1_555
Mo7 O14 1.781706 1_655
Mo7 O31 1.815777 1_555
Mo7 O58 1.838330 1_555
Mo8 O51 1.777314 1_555
Mo8 O57 1.781706 1_555
Mo8 O26 1.815777 1_555
Mo8 O2 1.838330 1_545
Mo9 O59 1.782961 1_555
Mo9 O4 1.785193 1_555
Mo9 O47 1.799302 1_555
Mo9 O24 1.864000 1_555
Mo10 O42 1.777314 1_555
Mo10 O20 1.781706 1_555
Mo10 O45 1.815777 1_555
Mo10 O3 1.838330 1_555
Mo11 O55 1.777314 1_555
Mo11 O17 1.781706 1_555
Mo11 O60 1.815777 1_555
Mo11 O1 1.838330 1_555
Mo12 O44 1.782961 1_556
Mo12 O25 1.785193 1_555
Mo12 O41 1.799302 1_555
Mo12 O28 1.864000 1_555
Mo13 O46 1.782961 1_555
Mo13 O40 1.785193 1_555
Mo13 O19 1.799302 1_555
Mo13 O18 1.864000 1_555
Mo14 O38 1.777314 1_555
Mo14 O34 1.781706 1_455
Mo14 O36 1.815777 1_555
Mo14 O33 1.838330 1_545
Mo15 O27 1.782961 1_555
Mo15 O12 1.785193 1_655
Mo15 O37 1.799302 1_655
Mo15 O54 1.864000 1_555
