# generated using pymatgen
data_ZnS
_symmetry_space_group_name_H-M   'P 1'
_cell_length_a   3.80713367
_cell_length_b   3.80713399
_cell_length_c   62.28462530
_cell_angle_alpha   90.00000000
_cell_angle_beta   90.00000000
_cell_angle_gamma   120.00001499
_symmetry_Int_Tables_number   1
_chemical_formula_structural   ZnS
_chemical_formula_sum   'Zn20 S20'
_cell_volume   781.82168064
_cell_formula_units_Z   20
loop_
 _symmetry_equiv_pos_site_id
 _symmetry_equiv_pos_as_xyz
  1  'x, y, z'
loop_
 _atom_site_type_symbol
 _atom_site_label
 _atom_site_symmetry_multiplicity
 _atom_site_fract_x
 _atom_site_fract_y
 _atom_site_fract_z
 _atom_site_occupancy
  Zn  Zn0  1  0.00000000  0.00000000  0.40004073  1
  Zn  Zn1  1  0.66666700  0.33333300  0.44999866  1
  Zn  Zn2  1  0.33333300  0.66666700  0.65001664  1
  Zn  Zn3  1  0.33333300  0.66666700  0.95000531  1
  Zn  Zn4  1  0.33333300  0.66666700  0.20001664  1
  Zn  Zn5  1  -0.00000000  0.00000000  0.59999562  1
  Zn  Zn6  1  0.66666700  0.33333300  0.55004941  1
  Zn  Zn7  1  0.66666700  0.33333300  0.90001810  1
  Zn  Zn8  1  -0.00000000  0.00000000  0.29999190  1
  Zn  Zn9  1  0.33333300  0.66666700  0.35001386  1
  Zn  Zn10  1  0.66666700  0.33333300  0.75001942  1
  Zn  Zn11  1  0.66666700  0.33333300  0.10002515  1
  Zn  Zn12  1  0.33333300  0.66666700  0.80002530  1
  Zn  Zn13  1  0.00000000  -0.00000000  0.00001167  1
  Zn  Zn14  1  0.33333300  0.66666700  0.05004515  1
  Zn  Zn15  1  0.00000000  -0.00000000  0.85001380  1
  Zn  Zn16  1  0.00000000  -0.00000000  0.15001272  1
  Zn  Zn17  1  0.00000000  -0.00000000  0.70004542  1
  Zn  Zn18  1  0.66666700  0.33333300  0.25002007  1
  Zn  Zn19  1  0.33333300  0.66666700  0.50002228  1
  S  S0  1  0.66666700  0.33333300  0.58748409  1
  S  S1  1  0.00000000  -0.00000000  0.88747747  1
  S  S2  1  0.00000000  -0.00000000  0.03751673  1
  S  S3  1  0.33333300  0.66666700  0.98743775  1
  S  S4  1  0.33333300  0.66666700  0.08748946  1
  S  S5  1  0.66666700  0.33333300  0.28747638  1
  S  S6  1  0.00000000  -0.00000000  0.33743330  1
  S  S7  1  -0.00000000  0.00000000  0.63743319  1
  S  S8  1  -0.00000000  0.00000000  0.73748405  1
  S  S9  1  0.33333300  0.66666700  0.23748202  1
  S  S10  1  0.66666700  0.33333300  0.48744066  1
  S  S11  1  0.66666700  0.33333300  0.93747816  1
  S  S12  1  0.66666700  0.33333300  0.78748212  1
  S  S13  1  0.33333300  0.66666700  0.53752577  1
  S  S14  1  0.33333300  0.66666700  0.68752379  1
  S  S15  1  0.33333300  0.66666700  0.83748167  1
  S  S16  1  0.00000000  -0.00000000  0.18747692  1
  S  S17  1  0.33333300  0.66666700  0.38752524  1
  S  S18  1  0.66666700  0.33333300  0.13748247  1
  S  S19  1  -0.00000000  0.00000000  0.43748091  1
loop_
_geom_bond_atom_site_label_1
_geom_bond_atom_site_label_2
_geom_bond_distance
_geom_bond_site_symmetry_2
S0 Zn6 2.331605 1_555
S0 Zn5 2.332099 1_655
S0 Zn5 2.332101 1_555
S0 Zn5 2.332102 1_665
S1 Zn7 2.332705 1_455
S1 Zn7 2.332708 1_555
S1 Zn7 2.332708 1_445
S1 Zn15 2.333411 1_555
S2 Zn14 2.332451 1_545
S2 Zn14 2.332453 1_445
S2 Zn14 2.332453 1_555
S2 Zn13 2.335989 1_555
S3 Zn3 2.331465 1_555
S3 Zn13 2.333400 1_566
S3 Zn13 2.333403 1_666
S3 Zn13 2.333403 1_556
S4 Zn14 2.332205 1_555
S4 Zn11 2.332601 1_455
S4 Zn11 2.332602 1_565
S4 Zn11 2.332608 1_555
S5 Zn8 2.332182 1_655
S5 Zn8 2.332184 1_555
S5 Zn8 2.332185 1_665
S5 Zn18 2.332952 1_555
S6 Zn8 2.332024 1_555
S6 Zn9 2.333539 1_545
S6 Zn9 2.333542 1_445
S6 Zn9 2.333542 1_555
S7 Zn5 2.331785 1_555
S7 Zn2 2.333599 1_545
S7 Zn2 2.333602 1_445
S7 Zn2 2.333602 1_555
S8 Zn17 2.331851 1_555
S8 Zn10 2.332595 1_455
S8 Zn10 2.332598 1_555
S8 Zn10 2.332598 1_445
S9 Zn18 2.332651 1_455
S9 Zn18 2.332651 1_565
S9 Zn18 2.332657 1_555
S9 Zn4 2.333517 1_555
S10 Zn1 2.332061 1_555
S10 Zn19 2.333561 1_655
S10 Zn19 2.333561 1_545
S10 Zn19 2.333567 1_555
S11 Zn3 2.332424 1_655
S11 Zn3 2.332424 1_545
S11 Zn3 2.332430 1_555
S11 Zn7 2.333186 1_555
S12 Zn12 2.332758 1_655
S12 Zn12 2.332758 1_545
S12 Zn12 2.332764 1_555
S12 Zn10 2.333350 1_555
S13 Zn6 2.332350 1_455
S13 Zn6 2.332351 1_565
S13 Zn6 2.332357 1_555
S13 Zn19 2.335891 1_555
S14 Zn17 2.332309 1_565
S14 Zn17 2.332312 1_665
S14 Zn17 2.332312 1_555
S14 Zn2 2.336119 1_555
S15 Zn15 2.332528 1_565
S15 Zn15 2.332530 1_665
S15 Zn15 2.332531 1_555
S15 Zn12 2.332956 1_555
S16 Zn4 2.332686 1_545
S16 Zn4 2.332689 1_445
S16 Zn4 2.332689 1_555
S16 Zn16 2.333444 1_555
S17 Zn0 2.332181 1_565
S17 Zn0 2.332184 1_665
S17 Zn0 2.332184 1_555
S17 Zn9 2.336382 1_555
S18 Zn16 2.332489 1_655
S18 Zn16 2.332491 1_555
S18 Zn16 2.332491 1_665
S18 Zn11 2.333015 1_555
S19 Zn0 2.331948 1_555
S19 Zn1 2.332228 1_455
S19 Zn1 2.332231 1_555
S19 Zn1 2.332231 1_445
