# generated using pymatgen
data_SrCeI4
_symmetry_space_group_name_H-M   'P 1'
_cell_length_a   7.49990849
_cell_length_b   8.68164614
_cell_length_c   9.10762997
_cell_angle_alpha   113.49655936
_cell_angle_beta   108.67544391
_cell_angle_gamma   101.03809621
_symmetry_Int_Tables_number   1
_chemical_formula_structural   SrCeI4
_chemical_formula_sum   'Sr2 Ce2 I8'
_cell_volume   479.19152165
_cell_formula_units_Z   2
loop_
 _symmetry_equiv_pos_site_id
 _symmetry_equiv_pos_as_xyz
  1  'x, y, z'
loop_
 _atom_site_type_symbol
 _atom_site_label
 _atom_site_symmetry_multiplicity
 _atom_site_fract_x
 _atom_site_fract_y
 _atom_site_fract_z
 _atom_site_occupancy
  Sr  Sr0  1  0.38529365  0.13535220  0.27047878  1
  Sr  Sr1  1  0.61470635  0.86464880  0.72952122  1
  Ce  Ce0  1  0.75063319  0.50049742  0.00188354  1
  Ce  Ce1  1  0.24936681  0.49950258  0.99811646  1
  I  I0  1  0.99368717  0.25690893  0.12362458  1
  I  I1  1  0.21206816  0.79991684  0.35432037  1
  I  I2  1  0.64278306  0.55404537  0.35419467  1
  I  I3  1  0.35721694  0.44595463  0.64580533  1
  I  I4  1  0.36925947  0.13279981  0.87561670  1
  I  I5  1  0.78793184  0.20008316  0.64567963  1
  I  I6  1  0.63074053  0.86720019  0.12438330  1
  I  I7  1  0.00631283  0.74309107  0.87637542  1
loop_
_geom_bond_atom_site_label_1
_geom_bond_atom_site_label_2
_geom_bond_distance
_geom_bond_site_symmetry_2
Ce0 I0 3.328048 1_555
Ce0 I6 3.330901 1_555
Ce0 I4 3.341231 1_554
Ce0 I7 3.346099 1_654
Ce0 I5 3.393940 1_554
Ce0 I3 3.399984 1_554
Ce0 I2 3.432630 1_555
Ce0 I1 3.438732 1_655
Ce1 I7 3.328048 1_555
Ce1 I4 3.330901 1_555
Ce1 I6 3.341231 1_556
Ce1 I0 3.346099 1_456
Ce1 I1 3.393940 1_556
Ce1 I2 3.399984 1_556
Ce1 I3 3.432630 1_555
Ce1 I5 3.438732 1_455
I0 Sr0 3.365304 1_655
I0 Sr1 3.545782 1_544
I1 Sr0 3.422160 1_565
I1 Sr1 3.510313 1_555
I2 Sr0 3.417986 1_555
I2 Sr1 3.511275 1_555
I3 Sr1 3.417993 1_555
I3 Sr0 3.511271 1_555
I4 Sr1 3.364265 1_545
I4 Sr0 3.550563 1_556
I5 Sr1 3.422152 1_545
I5 Sr0 3.510316 1_555
I6 Sr0 3.364271 1_565
I6 Sr1 3.550567 1_554
I7 Sr1 3.365309 1_455
I7 Sr0 3.545786 1_566
