# generated using pymatgen
data_Na2Al2Si3(HO3)4
_symmetry_space_group_name_H-M   'P 1'
_cell_length_a   13.81520026
_cell_length_b   10.64383588
_cell_length_c   10.02147354
_cell_angle_alpha   83.84822055
_cell_angle_beta   49.99668386
_cell_angle_gamma   46.15509559
_symmetry_Int_Tables_number   1
_chemical_formula_structural   Na2Al2Si3(HO3)4
_chemical_formula_sum   'Na4 Al4 Si6 H8 O24'
_cell_volume   643.81730387
_cell_formula_units_Z   2
loop_
 _symmetry_equiv_pos_site_id
 _symmetry_equiv_pos_as_xyz
  1  'x, y, z'
loop_
 _atom_site_type_symbol
 _atom_site_label
 _atom_site_symmetry_multiplicity
 _atom_site_fract_x
 _atom_site_fract_y
 _atom_site_fract_z
 _atom_site_occupancy
  Na  Na0  1  0.05473200  0.05372500  0.38311300  1
  Na  Na1  1  0.50843000  0.38311300  0.05372500  1
  Na  Na2  1  0.19627500  0.19526800  0.74157000  1
  Na  Na3  1  0.86688700  0.74157000  0.19526800  1
  Al  Al0  1  0.09463400  0.33648400  0.20972100  1
  Al  Al1  1  0.35916100  0.20972100  0.33648400  1
  Al  Al2  1  0.91351600  0.15536600  0.89083900  1
  Al  Al3  1  0.04027900  0.89083900  0.15536600  1
  Si  Si0  1  0.59671500  0.90328500  0.90328500  1
  Si  Si1  1  0.34671500  0.65328500  0.65328500  1
  Si  Si2  1  0.02052400  0.64519800  0.40959100  1
  Si  Si3  1  0.92468800  0.40959100  0.64519800  1
  Si  Si4  1  0.60480200  0.22947600  0.32531200  1
  Si  Si5  1  0.84040900  0.32531200  0.22947600  1
  H  H0  1  0.49567000  0.33262800  0.83005300  1
  H  H1  1  0.34164900  0.83005300  0.33262800  1
  H  H2  1  0.91737200  0.75433000  0.90835100  1
  H  H3  1  0.41994700  0.90835100  0.75433000  1
  H  H4  1  0.02978700  0.68537500  0.83863500  1
  H  H5  1  0.44620300  0.83863500  0.68537500  1
  H  H6  1  0.56462500  0.22021300  0.80379700  1
  H  H7  1  0.41136500  0.80379700  0.22021300  1
  O  O0  1  0.78607100  0.83768200  0.67223300  1
  O  O1  1  0.70401400  0.67223300  0.83768200  1
  O  O2  1  0.41231800  0.46392900  0.54598600  1
  O  O3  1  0.57776700  0.54598600  0.46392900  1
  O  O4  1  0.37625800  0.07585900  0.99082300  1
  O  O5  1  0.55705900  0.99082300  0.07585900  1
  O  O6  1  0.17414100  0.87374200  0.69294100  1
  O  O7  1  0.25917700  0.69294100  0.87374200  1
  O  O8  1  0.89817300  0.41962900  0.24599400  1
  O  O9  1  0.43620400  0.24599400  0.41962900  1
  O  O10  1  0.83037100  0.35182700  0.81379600  1
  O  O11  1  0.00400600  0.81379600  0.35182700  1
  O  O12  1  0.98503100  0.33213600  0.44595300  1
  O  O13  1  0.23688100  0.44595300  0.33213600  1
  O  O14  1  0.91786400  0.26496900  0.01311900  1
  O  O15  1  0.80404700  0.01311900  0.26496900  1
  O  O16  1  0.01494600  0.56032800  0.29225900  1
  O  O17  1  0.13246600  0.29225900  0.56032800  1
  O  O18  1  0.68967200  0.23505400  0.11753400  1
  O  O19  1  0.95774100  0.11753400  0.23505400  1
  O  O20  1  0.87496900  0.18626400  0.73236100  1
  O  O21  1  0.20640600  0.73236100  0.18626400  1
  O  O22  1  0.06373600  0.37503100  0.04359400  1
  O  O23  1  0.51763900  0.04359400  0.37503100  1
loop_
_geom_bond_atom_site_label_1
_geom_bond_atom_site_label_2
_geom_bond_distance
_geom_bond_site_symmetry_2
Na0 O20 2.331729 1_455
Na0 O19 2.353221 1_455
Na0 O12 2.402572 1_455
Na0 O21 2.486831 1_545
Na1 O21 2.331729 1_555
Na1 O18 2.353231 1_555
Na1 O13 2.402563 1_555
Na1 O20 2.486831 1_554
Na2 O22 2.331729 1_556
Na2 O17 2.353230 1_555
Na2 O14 2.402571 1_456
Na2 O23 2.486831 1_555
Na3 O23 2.331729 1_565
Na3 O16 2.353223 1_655
Na3 O15 2.402562 1_565
Na3 O22 2.486831 1_655
Al0 O4 1.738819 1_554
Al0 O16 1.786192 1_555
Al0 O12 1.834221 1_455
Al0 O22 1.909676 1_555
Al0 O8 1.937702 1_455
Al1 O5 1.738823 1_545
Al1 O17 1.786200 1_555
Al1 O13 1.834221 1_555
Al1 O23 1.909676 1_555
Al1 O9 1.937702 1_555
Al2 O6 1.738819 1_645
Al2 O18 1.786194 1_556
Al2 O14 1.834214 1_556
Al2 O20 1.909676 1_555
Al2 O10 1.937702 1_555
Al3 O7 1.738817 1_554
Al3 O19 1.786202 1_465
Al3 O15 1.834226 1_465
Al3 O21 1.909676 1_555
Al3 O11 1.937702 1_555
H0 H6 0.757934 1_555
H0 Na1 2.498330 1_556
H1 H7 0.757934 1_555
H1 Na0 2.498330 1_565
H2 H4 0.757934 1_655
H2 Na3 2.498330 1_556
H3 H5 0.757934 1_555
H3 Na2 2.498330 1_565
H4 Na3 2.539339 1_456
H5 Na2 2.539339 1_565
H6 Na1 2.539339 1_556
H7 Na0 2.539339 1_565
O0 Si2 1.617990 1_655
O0 Si0 1.649441 1_555
O1 Si3 1.617989 1_555
O1 Si0 1.649441 1_555
O2 Si4 1.617994 1_555
O2 Si1 1.649441 1_555
O3 Si5 1.617990 1_555
O3 Si1 1.649441 1_555
O4 Si0 1.606025 1_545
O5 Si0 1.606014 1_554
O6 Si1 1.606019 1_555
O7 Si1 1.606024 1_555
O8 Si5 1.728408 1_555
O9 Si4 1.728396 1_555
O10 O20 1.519411 1_555
O10 Si3 1.728404 1_555
O11 O21 1.519411 1_555
O11 Si2 1.728399 1_555
O12 Si3 1.619298 1_555
O13 Si2 1.619298 1_555
O14 Si5 1.619298 1_555
O15 Si4 1.619298 1_555
O16 Si2 1.626394 1_555
O17 Si3 1.626369 1_455
O18 Si4 1.626377 1_555
O19 Si5 1.626379 1_555
O22 O8 1.519411 1_455
O23 O9 1.519411 1_555
