# generated using pymatgen
data_Cd2H2SO6
_symmetry_space_group_name_H-M   'P 1'
_cell_length_a   6.95009059
_cell_length_b   7.51857578
_cell_length_c   9.98649203
_cell_angle_alpha   90.00000000
_cell_angle_beta   97.32149480
_cell_angle_gamma   90.00000000
_symmetry_Int_Tables_number   1
_chemical_formula_structural   Cd2H2SO6
_chemical_formula_sum   'Cd8 H8 S4 O24'
_cell_volume   517.58723998
_cell_formula_units_Z   4
loop_
 _symmetry_equiv_pos_site_id
 _symmetry_equiv_pos_as_xyz
  1  'x, y, z'
loop_
 _atom_site_type_symbol
 _atom_site_label
 _atom_site_symmetry_multiplicity
 _atom_site_fract_x
 _atom_site_fract_y
 _atom_site_fract_z
 _atom_site_occupancy
  Cd  Cd0  1  0.01326875  0.53655249  0.66736989  1
  Cd  Cd1  1  0.32426557  0.16506894  0.49694885  1
  Cd  Cd2  1  0.67573443  0.83493106  0.50305115  1
  Cd  Cd3  1  0.82426557  0.33493106  0.99694885  1
  Cd  Cd4  1  0.48673125  0.03655249  0.83263011  1
  Cd  Cd5  1  0.98673125  0.46344751  0.33263011  1
  Cd  Cd6  1  0.51326875  0.96344751  0.16736989  1
  Cd  Cd7  1  0.17573443  0.66506894  0.00305115  1
  H  H0  1  0.86982968  0.67761182  0.13407340  1
  H  H1  1  0.36982968  0.82238818  0.63407340  1
  H  H2  1  0.46951900  0.28813443  0.04800481  1
  H  H3  1  0.53048100  0.71186557  0.95199519  1
  H  H4  1  0.96951900  0.21186557  0.54800481  1
  H  H5  1  0.03048100  0.78813443  0.45199519  1
  H  H6  1  0.63017032  0.17761182  0.36592660  1
  H  H7  1  0.13017032  0.32238818  0.86592660  1
  S  S0  1  0.47261174  0.50644837  0.28204287  1
  S  S1  1  0.02738826  0.00644837  0.21795713  1
  S  S2  1  0.97261174  0.99355163  0.78204287  1
  S  S3  1  0.52738826  0.49355163  0.71795713  1
  O  O0  1  0.65378825  0.40602421  0.31405635  1
  O  O1  1  0.94721524  0.69117189  0.47459189  1
  O  O2  1  0.15378825  0.09397579  0.81405635  1
  O  O3  1  0.10398112  0.98273060  0.36101454  1
  O  O4  1  0.55278476  0.19117189  0.02540811  1
  O  O5  1  0.94398172  0.56919812  0.12482721  1
  O  O6  1  0.05601828  0.43080188  0.87517279  1
  O  O7  1  0.89601888  0.01726940  0.63898546  1
  O  O8  1  0.05278476  0.30882811  0.52540811  1
  O  O9  1  0.49314720  0.30169600  0.69105158  1
  O  O10  1  0.39601888  0.48273060  0.13898546  1
  O  O11  1  0.44398172  0.93080188  0.62482721  1
  O  O12  1  0.84621175  0.90602421  0.18594365  1
  O  O13  1  0.55601828  0.06919812  0.37517279  1
  O  O14  1  0.00685280  0.80169600  0.80894842  1
  O  O15  1  0.60398112  0.51726940  0.86101454  1
  O  O16  1  0.67001225  0.55994369  0.63159199  1
  O  O17  1  0.82998775  0.05994369  0.86840801  1
  O  O18  1  0.34621175  0.59397579  0.68594365  1
  O  O19  1  0.50685280  0.69830400  0.30894842  1
  O  O20  1  0.44721524  0.80882811  0.97459189  1
  O  O21  1  0.17001225  0.94005631  0.13159199  1
  O  O22  1  0.32998775  0.44005631  0.36840801  1
  O  O23  1  0.99314720  0.19830400  0.19105158  1
loop_
_geom_bond_atom_site_label_1
_geom_bond_atom_site_label_2
_geom_bond_distance
_geom_bond_site_symmetry_2
Cd0 O6 2.206773 1_555
Cd0 O1 2.245717 1_455
Cd0 O8 2.261866 1_555
Cd0 O18 2.337933 1_555
Cd0 O16 2.373337 1_455
Cd0 O14 2.447681 1_555
Cd1 O8 2.223914 1_555
Cd1 O13 2.256572 1_555
Cd1 O11 2.270399 1_545
Cd1 O3 2.352976 1_545
Cd1 O9 2.368634 1_555
Cd1 O22 2.436600 1_555
Cd2 O1 2.223914 1_555
Cd2 O11 2.256572 1_555
Cd2 O13 2.270399 1_565
Cd2 O7 2.352976 1_565
Cd2 O19 2.368634 1_555
Cd2 O16 2.436600 1_555
Cd3 O4 2.223914 1_556
Cd3 O6 2.256572 1_655
Cd3 O5 2.270399 1_556
Cd3 O15 2.352976 1_555
Cd3 O23 2.368634 1_556
Cd3 O17 2.436600 1_555
Cd4 O11 2.206773 1_545
Cd4 O4 2.245717 1_556
Cd4 O20 2.261866 1_545
Cd4 O2 2.337933 1_555
Cd4 O17 2.373337 1_555
Cd4 O9 2.447681 1_555
Cd5 O5 2.206773 1_555
Cd5 O8 2.245717 1_655
Cd5 O1 2.261866 1_555
Cd5 O0 2.337933 1_555
Cd5 O22 2.373337 1_655
Cd5 O23 2.447681 1_555
Cd6 O13 2.206773 1_565
Cd6 O20 2.245717 1_554
Cd6 O4 2.261866 1_565
Cd6 O12 2.337933 1_555
Cd6 O21 2.373337 1_555
Cd6 O19 2.447681 1_555
Cd7 O20 2.223914 1_554
Cd7 O5 2.256572 1_455
Cd7 O6 2.270399 1_554
Cd7 O10 2.352976 1_555
Cd7 O14 2.368634 1_554
Cd7 O21 2.436600 1_555
H0 O5 0.975023 1_555
H1 O11 0.975023 1_555
H2 O4 0.974975 1_555
H3 O20 0.974975 1_555
H4 O8 0.974975 1_655
H5 O1 0.974975 1_455
H6 O13 0.975023 1_555
H7 O6 0.975023 1_555
O0 S0 1.468083 1_555
O2 S2 1.468083 1_445
O3 S1 1.470495 1_565
O7 S2 1.470495 1_545
O9 S3 1.480974 1_555
O10 S0 1.470495 1_555
O12 S1 1.468083 1_665
O14 S2 1.480974 1_455
O15 S3 1.470495 1_555
O16 S3 1.481057 1_555
O17 S2 1.481057 1_545
O18 S3 1.468083 1_555
O19 S0 1.480974 1_555
O21 S1 1.481057 1_565
O22 S0 1.481057 1_555
O23 S1 1.480974 1_655
