# generated using pymatgen
data_ZnS
_symmetry_space_group_name_H-M   'P 1'
_cell_length_a   3.80508799
_cell_length_b   3.80508814
_cell_length_c   24.91593450
_cell_angle_alpha   90.00000000
_cell_angle_beta   90.00000000
_cell_angle_gamma   120.00000744
_symmetry_Int_Tables_number   1
_chemical_formula_structural   ZnS
_chemical_formula_sum   'Zn8 S8'
_cell_volume   312.41883262
_cell_formula_units_Z   8
loop_
 _symmetry_equiv_pos_site_id
 _symmetry_equiv_pos_as_xyz
  1  'x, y, z'
loop_
 _atom_site_type_symbol
 _atom_site_label
 _atom_site_symmetry_multiplicity
 _atom_site_fract_x
 _atom_site_fract_y
 _atom_site_fract_z
 _atom_site_occupancy
  Zn  Zn0  1  0.33333300  0.66666700  0.12511841  1
  Zn  Zn1  1  0.00000000  0.00000000  0.00015897  1
  Zn  Zn2  1  0.66666700  0.33333300  0.62504747  1
  Zn  Zn3  1  0.66666700  0.33333300  0.87513870  1
  Zn  Zn4  1  0.00000000  0.00000000  0.75002227  1
  Zn  Zn5  1  0.33333300  0.66666700  0.50007816  1
  Zn  Zn6  1  -0.00000000  0.00000000  0.37508794  1
  Zn  Zn7  1  0.66666700  0.33333300  0.25012849  1
  S  S0  1  0.66666700  0.33333300  0.34372199  1
  S  S1  1  0.66666700  0.33333300  0.71858116  1
  S  S2  1  0.33333300  0.66666700  0.21873405  1
  S  S3  1  0.00000000  0.00000000  0.84367239  1
  S  S4  1  0.66666700  0.33333300  0.96881275  1
  S  S5  1  0.00000000  0.00000000  0.09372606  1
  S  S6  1  0.33333300  0.66666700  0.59368598  1
  S  S7  1  0.00000000  0.00000000  0.46868621  1
loop_
_geom_bond_atom_site_label_1
_geom_bond_atom_site_label_2
_geom_bond_distance
_geom_bond_site_symmetry_2
S0 Zn6 2.331734 1_655
S0 Zn6 2.331737 1_555
S0 Zn6 2.331737 1_665
S0 Zn7 2.331970 1_555
S1 Zn2 2.330479 1_555
S1 Zn4 2.332362 1_655
S1 Zn4 2.332365 1_555
S1 Zn4 2.332365 1_665
S2 Zn7 2.331972 1_455
S2 Zn7 2.331972 1_565
S2 Zn7 2.331978 1_555
S2 Zn0 2.332521 1_555
S3 Zn3 2.332573 1_455
S3 Zn3 2.332576 1_555
S3 Zn3 2.332576 1_445
S3 Zn4 2.333380 1_555
S4 Zn1 2.331569 1_656
S4 Zn1 2.331572 1_556
S4 Zn1 2.331572 1_666
S4 Zn3 2.333976 1_555
S5 Zn1 2.331311 1_555
S5 Zn0 2.331955 1_545
S5 Zn0 2.331957 1_445
S5 Zn0 2.331957 1_555
S6 Zn2 2.331696 1_455
S6 Zn2 2.331697 1_565
S6 Zn2 2.331703 1_555
S6 Zn5 2.332326 1_555
S7 Zn5 2.331951 1_545
S7 Zn5 2.331954 1_445
S7 Zn5 2.331954 1_555
S7 Zn6 2.332088 1_555
