# generated using pymatgen
data_K3Sc(MoO4)3
_symmetry_space_group_name_H-M   'P 1'
_cell_length_a   9.38062564
_cell_length_b   10.91916168
_cell_length_c   13.68100805
_cell_angle_alpha   90.00000000
_cell_angle_beta   90.00000000
_cell_angle_gamma   90.00000000
_symmetry_Int_Tables_number   1
_chemical_formula_structural   K3Sc(MoO4)3
_chemical_formula_sum   'K12 Sc4 Mo12 O48'
_cell_volume   1401.32606367
_cell_formula_units_Z   4
loop_
 _symmetry_equiv_pos_site_id
 _symmetry_equiv_pos_as_xyz
  1  'x, y, z'
loop_
 _atom_site_type_symbol
 _atom_site_label
 _atom_site_symmetry_multiplicity
 _atom_site_fract_x
 _atom_site_fract_y
 _atom_site_fract_z
 _atom_site_occupancy
  K  K0  1  0.47390499  0.51284897  0.25000000  1
  K  K1  1  0.54129044  0.25000000  -0.00000000  1
  K  K2  1  0.18208479  0.27539300  0.75000000  1
  K  K3  1  0.45870956  0.75000000  0.50000000  1
  K  K4  1  0.47390499  0.98715103  0.75000000  1
  K  K5  1  0.45870956  0.75000000  -0.00000000  1
  K  K6  1  0.81791521  0.77539300  0.75000000  1
  K  K7  1  0.18208479  0.22460700  0.25000000  1
  K  K8  1  0.52609501  0.48715103  0.75000000  1
  K  K9  1  0.54129044  0.25000000  0.50000000  1
  K  K10  1  0.81791521  0.72460700  0.25000000  1
  K  K11  1  0.52609501  0.01284897  0.25000000  1
  Sc  Sc0  1  0.06477727  0.75000000  0.50000000  1
  Sc  Sc1  1  0.06477727  0.75000000  -0.00000000  1
  Sc  Sc2  1  0.93522273  0.25000000  0.50000000  1
  Sc  Sc3  1  0.93522273  0.25000000  -0.00000000  1
  Mo  Mo0  1  0.18328350  0.83050904  0.25000000  1
  Mo  Mo1  1  0.74780022  0.54776496  0.99454937  1
  Mo  Mo2  1  0.25219978  0.04776496  0.99454937  1
  Mo  Mo3  1  0.81671650  0.33050904  0.25000000  1
  Mo  Mo4  1  0.74780022  0.95223504  0.49454937  1
  Mo  Mo5  1  0.25219978  0.45223504  0.00545063  1
  Mo  Mo6  1  0.18328350  0.66949096  0.75000000  1
  Mo  Mo7  1  0.74780022  0.95223504  0.00545063  1
  Mo  Mo8  1  0.25219978  0.45223504  0.49454937  1
  Mo  Mo9  1  0.25219978  0.04776496  0.50545063  1
  Mo  Mo10  1  0.74780022  0.54776496  0.50545063  1
  Mo  Mo11  1  0.81671650  0.16949096  0.75000000  1
  O  O0  1  0.69121876  0.88562865  0.38513176  1
  O  O1  1  0.61079047  0.57087258  0.07859655  1
  O  O2  1  0.61079047  0.57087258  0.42140345  1
  O  O3  1  0.65585934  0.24996430  0.75000000  1
  O  O4  1  0.30878124  0.38562865  0.11486824  1
  O  O5  1  0.07339597  0.70543428  0.64682942  1
  O  O6  1  0.22287700  0.51462676  0.75000000  1
  O  O7  1  0.90462331  0.87628463  0.96385398  1
  O  O8  1  0.22354668  0.61400203  0.02115681  1
  O  O9  1  0.22354668  0.88599797  0.97884319  1
  O  O10  1  0.77645332  0.38599797  0.52115681  1
  O  O11  1  0.90462331  0.62371537  0.03614602  1
  O  O12  1  0.92660403  0.20543428  0.64682942  1
  O  O13  1  0.92660403  0.20543428  0.85317058  1
  O  O14  1  0.38920953  0.42912742  0.57859655  1
  O  O15  1  0.34414066  0.74996430  0.75000000  1
  O  O16  1  0.34414066  0.75003570  0.25000000  1
  O  O17  1  0.65585934  0.25003570  0.25000000  1
  O  O18  1  0.09537669  0.12371537  0.03614602  1
  O  O19  1  0.22287700  0.98537324  0.25000000  1
  O  O20  1  0.69121876  0.88562865  0.11486824  1
  O  O21  1  0.30878124  0.11437135  0.61486824  1
  O  O22  1  0.09537669  0.37628463  0.96385398  1
  O  O23  1  0.09537669  0.37628463  0.53614602  1
  O  O24  1  0.77645332  0.11400203  0.02115681  1
  O  O25  1  0.77712300  0.48537324  0.25000000  1
  O  O26  1  0.77645332  0.11400203  0.47884319  1
  O  O27  1  0.90462331  0.62371537  0.46385398  1
  O  O28  1  0.61079047  0.92912742  0.92140345  1
  O  O29  1  0.92660403  0.29456572  0.14682942  1
  O  O30  1  0.22354668  0.61400203  0.47884319  1
  O  O31  1  0.38920953  0.42912742  0.92140345  1
  O  O32  1  0.30878124  0.38562865  0.38513176  1
  O  O33  1  0.09537669  0.12371537  0.46385398  1
  O  O34  1  0.77645332  0.38599797  0.97884319  1
  O  O35  1  0.77712300  0.01462676  0.75000000  1
  O  O36  1  0.22354668  0.88599797  0.52115681  1
  O  O37  1  0.30878124  0.11437135  0.88513176  1
  O  O38  1  0.69121876  0.61437135  0.61486824  1
  O  O39  1  0.61079047  0.92912742  0.57859655  1
  O  O40  1  0.90462331  0.87628463  0.53614602  1
  O  O41  1  0.07339597  0.79456572  0.35317058  1
  O  O42  1  0.07339597  0.70543428  0.85317058  1
  O  O43  1  0.38920953  0.07087258  0.07859655  1
  O  O44  1  0.07339597  0.79456572  0.14682942  1
  O  O45  1  0.38920953  0.07087258  0.42140345  1
  O  O46  1  0.69121876  0.61437135  0.88513176  1
  O  O47  1  0.92660403  0.29456572  0.35317058  1
loop_
_geom_bond_atom_site_label_1
_geom_bond_atom_site_label_2
_geom_bond_distance
_geom_bond_site_symmetry_2
K0 O2 2.747570 1_555
K0 O1 2.747570 1_555
K0 O32 2.783313 1_555
K0 O4 2.783313 1_555
K0 O25 2.860153 1_555
K0 O16 2.861683 1_555
K0 O17 3.338937 1_555
K1 O43 2.648978 1_555
K1 O31 2.648978 1_554
K1 O24 2.674936 1_555
K1 O34 2.674936 1_554
K1 O37 3.069200 1_554
K1 O4 3.069200 1_555
K2 O6 2.640110 1_555
K2 O37 2.814550 1_555
K2 O21 2.814550 1_555
K2 O12 2.884327 1_455
K2 O13 2.884327 1_455
K2 O22 3.230350 1_555
K2 O23 3.230350 1_555
K3 O39 2.648978 1_555
K3 O2 2.648978 1_555
K3 O36 2.674936 1_555
K3 O30 2.674936 1_555
K3 O38 3.069200 1_555
K3 O0 3.069200 1_555
K4 O28 2.747570 1_555
K4 O39 2.747570 1_555
K4 O37 2.783313 1_565
K4 O21 2.783313 1_565
K4 O35 2.860153 1_565
K4 O15 2.861683 1_555
K4 O3 3.338937 1_565
K5 O1 2.648978 1_555
K5 O28 2.648978 1_554
K5 O8 2.674936 1_555
K5 O9 2.674936 1_554
K5 O46 3.069200 1_554
K5 O20 3.069200 1_555
K6 O35 2.640110 1_565
K6 O38 2.814550 1_555
K6 O46 2.814550 1_555
K6 O42 2.884327 1_655
K6 O5 2.884327 1_655
K6 O7 3.230350 1_555
K6 O40 3.230350 1_555
K7 O19 2.640110 1_545
K7 O32 2.814550 1_555
K7 O4 2.814550 1_555
K7 O47 2.884327 1_455
K7 O29 2.884327 1_455
K7 O33 3.230350 1_555
K7 O18 3.230350 1_555
K8 O14 2.747570 1_555
K8 O31 2.747570 1_555
K8 O46 2.783313 1_555
K8 O38 2.783313 1_555
K8 O6 2.860153 1_555
K8 O3 2.861683 1_555
K8 O15 3.338937 1_555
K9 O45 2.648978 1_555
K9 O14 2.648978 1_555
K9 O10 2.674936 1_555
K9 O26 2.674936 1_555
K9 O21 3.069200 1_555
K9 O32 3.069200 1_555
K10 O25 2.640110 1_555
K10 O0 2.814550 1_555
K10 O20 2.814550 1_555
K10 O44 2.884327 1_655
K10 O41 2.884327 1_655
K10 O27 3.230350 1_555
K10 O11 3.230350 1_555
K11 O45 2.747570 1_555
K11 O43 2.747570 1_555
K11 O20 2.783313 1_545
K11 O0 2.783313 1_545
K11 O19 2.860153 1_545
K11 O17 2.861683 1_555
K11 O16 3.338937 1_545
Mo0 O19 1.731296 1_555
Mo0 O16 1.746144 1_555
Mo0 O44 1.791335 1_555
Mo0 O41 1.791335 1_555
Mo1 O1 1.742886 1_556
Mo1 O46 1.746854 1_555
Mo1 O11 1.782064 1_556
Mo1 O34 1.799568 1_555
Mo2 O43 1.742886 1_556
Mo2 O37 1.746854 1_555
Mo2 O18 1.782064 1_556
Mo2 O9 1.799568 1_545
Mo3 O25 1.731296 1_555
Mo3 O17 1.746144 1_555
Mo3 O47 1.791335 1_555
Mo3 O29 1.791335 1_555
Mo4 O39 1.742886 1_555
Mo4 O0 1.746854 1_555
Mo4 O40 1.782064 1_555
Mo4 O26 1.799568 1_565
Mo5 O31 1.742886 1_554
Mo5 O4 1.746854 1_555
Mo5 O22 1.782064 1_554
Mo5 O8 1.799568 1_555
Mo6 O6 1.731296 1_555
Mo6 O15 1.746144 1_555
Mo6 O42 1.791335 1_555
Mo6 O5 1.791335 1_555
Mo7 O28 1.742886 1_554
Mo7 O20 1.746854 1_555
Mo7 O7 1.782064 1_554
Mo7 O24 1.799568 1_565
Mo8 O14 1.742886 1_555
Mo8 O32 1.746854 1_555
Mo8 O23 1.782064 1_555
Mo8 O30 1.799568 1_555
Mo9 O45 1.742886 1_555
Mo9 O21 1.746854 1_555
Mo9 O33 1.782064 1_555
Mo9 O36 1.799568 1_545
Mo10 O2 1.742886 1_555
Mo10 O38 1.746854 1_555
Mo10 O27 1.782064 1_555
Mo10 O10 1.799568 1_555
Mo11 O35 1.731296 1_555
Mo11 O3 1.746144 1_555
Mo11 O13 1.791335 1_555
Mo11 O12 1.791335 1_555
O5 Sc0 2.068456 1_555
O7 Sc1 2.098335 1_656
O8 Sc1 2.123002 1_555
O9 Sc1 2.123002 1_556
O10 Sc2 2.123002 1_555
O11 Sc1 2.098335 1_655
O12 Sc2 2.068456 1_555
O13 Sc3 2.068456 1_556
O18 Sc3 2.098335 1_455
O22 Sc3 2.098335 1_456
O23 Sc2 2.098335 1_455
O24 Sc3 2.123002 1_555
O26 Sc2 2.123002 1_555
O27 Sc0 2.098335 1_655
O29 Sc3 2.068456 1_555
O30 Sc0 2.123002 1_555
O33 Sc2 2.098335 1_455
O34 Sc3 2.123002 1_556
O36 Sc0 2.123002 1_555
O40 Sc0 2.098335 1_655
O41 Sc0 2.068456 1_555
O42 Sc1 2.068456 1_556
O44 Sc1 2.068456 1_555
O47 Sc2 2.068456 1_555
