# generated using pymatgen
data_Tb2MnNiO6
_symmetry_space_group_name_H-M   'P 1'
_cell_length_a   5.60573300
_cell_length_b   5.29363300
_cell_length_c   9.23242097
_cell_angle_alpha   55.38012008
_cell_angle_beta   90.00000000
_cell_angle_gamma   90.00000000
_symmetry_Int_Tables_number   1
_chemical_formula_structural   Tb2MnNiO6
_chemical_formula_sum   'Tb4 Mn2 Ni2 O12'
_cell_volume   225.46006935
_cell_formula_units_Z   2
loop_
 _symmetry_equiv_pos_site_id
 _symmetry_equiv_pos_as_xyz
  1  'x, y, z'
loop_
 _atom_site_type_symbol
 _atom_site_label
 _atom_site_symmetry_multiplicity
 _atom_site_fract_x
 _atom_site_fract_y
 _atom_site_fract_z
 _atom_site_occupancy
  Tb  Tb0  1  0.57000300  0.76975800  0.74894300  1
  Tb  Tb1  1  0.92999700  0.76975800  0.24894300  1
  Tb  Tb2  1  0.07000300  0.23024200  0.75105700  1
  Tb  Tb3  1  0.42999700  0.23024200  0.25105700  1
  Mn  Mn0  1  0.50000000  0.50000000  0.50000000  1
  Mn  Mn1  1  0.00000000  0.50000000  0.00000000  1
  Ni  Ni0  1  0.00000000  0.00000000  0.50000000  1
  Ni  Ni1  1  0.50000000  0.00000000  0.00000000  1
  O  O0  1  0.70750200  0.25908200  0.05603900  1
  O  O1  1  0.96558100  0.63696600  0.75743000  1
  O  O2  1  0.79249800  0.25908200  0.55603900  1
  O  O3  1  0.53441900  0.63696600  0.25743000  1
  O  O4  1  0.29249800  0.74091800  0.94396100  1
  O  O5  1  0.46558100  0.36303400  0.74257000  1
  O  O6  1  0.31104600  0.15098100  0.55184500  1
  O  O7  1  0.20750200  0.74091800  0.44396100  1
  O  O8  1  0.18895400  0.15098100  0.05184500  1
  O  O9  1  0.03441900  0.36303400  0.24257000  1
  O  O10  1  0.68895400  0.84901900  0.44815500  1
  O  O11  1  0.81104600  0.84901900  0.94815500  1
loop_
_geom_bond_atom_site_label_1
_geom_bond_atom_site_label_2
_geom_bond_distance
_geom_bond_site_symmetry_2
Mn0 O5 1.932180 1_555
Mn0 O3 1.932180 1_555
Mn0 O6 1.939011 1_555
Mn0 O10 1.939011 1_555
Mn0 O7 1.957784 1_555
Mn0 O2 1.957784 1_555
Mn1 O1 1.932180 1_454
Mn1 O9 1.932180 1_555
Mn1 O11 1.939011 1_454
Mn1 O8 1.939011 1_555
Mn1 O4 1.957784 1_554
Mn1 O0 1.957784 1_455
Ni0 O1 2.046779 1_445
Ni0 O9 2.046779 1_555
Ni0 O2 2.075559 1_455
Ni0 O7 2.075559 1_545
Ni0 O6 2.083953 1_555
Ni0 O10 2.083953 1_445
Ni1 O3 2.046779 1_545
Ni1 O5 2.046779 1_554
Ni1 O0 2.075559 1_555
Ni1 O4 2.075559 1_544
Ni1 O8 2.083953 1_555
Ni1 O11 2.083953 1_544
O0 Tb3 2.317905 1_555
O0 Tb1 2.489036 1_545
O0 Tb0 2.689188 1_554
O1 Tb2 2.263994 1_655
O1 Tb0 2.314092 1_555
O2 Tb2 2.317905 1_655
O2 Tb0 2.489036 1_545
O2 Tb1 2.689188 1_555
O3 Tb3 2.263994 1_555
O3 Tb1 2.314092 1_555
O4 Tb0 2.317905 1_555
O4 Tb2 2.489036 1_565
O4 Tb3 2.689188 1_556
O5 Tb0 2.263994 1_555
O5 Tb2 2.314092 1_555
O6 Tb0 2.306183 1_545
O6 Tb2 2.502275 1_555
O6 Tb3 2.647353 1_555
O7 Tb1 2.317905 1_455
O7 Tb3 2.489036 1_565
O7 Tb2 2.689188 1_555
O8 Tb1 2.306183 1_445
O8 Tb3 2.502275 1_555
O8 Tb2 2.647353 1_554
O9 Tb1 2.263994 1_455
O9 Tb3 2.314092 1_555
O10 Tb3 2.306183 1_565
O10 Tb1 2.502275 1_555
O10 Tb0 2.647353 1_555
O11 Tb2 2.306183 1_665
O11 Tb0 2.502275 1_555
O11 Tb1 2.647353 1_556
