# generated using pymatgen
data_GdBi2BrO4
_symmetry_space_group_name_H-M   'P 1'
_cell_length_a   3.94466100
_cell_length_b   3.94466100
_cell_length_c   9.37246300
_cell_angle_alpha   90.00000000
_cell_angle_beta   90.00000000
_cell_angle_gamma   90.00000000
_symmetry_Int_Tables_number   1
_chemical_formula_structural   GdBi2BrO4
_chemical_formula_sum   'Gd1 Bi2 Br1 O4'
_cell_volume   145.83880844
_cell_formula_units_Z   1
loop_
 _symmetry_equiv_pos_site_id
 _symmetry_equiv_pos_as_xyz
  1  'x, y, z'
loop_
 _atom_site_type_symbol
 _atom_site_label
 _atom_site_symmetry_multiplicity
 _atom_site_fract_x
 _atom_site_fract_y
 _atom_site_fract_z
 _atom_site_occupancy
  Gd  Gd0  1  0.00000000  0.00000000  0.00000000  1
  Bi  Bi0  1  0.50000000  0.50000000  0.26987100  1
  Bi  Bi1  1  0.50000000  0.50000000  0.73012900  1
  Br  Br0  1  0.00000000  0.00000000  0.50000000  1
  O  O0  1  0.00000000  0.50000000  0.15161200  1
  O  O1  1  0.50000000  0.00000000  0.84838800  1
  O  O2  1  0.00000000  0.50000000  0.84838800  1
  O  O3  1  0.50000000  0.00000000  0.15161200  1
loop_
_geom_bond_atom_site_label_1
_geom_bond_atom_site_label_2
_geom_bond_distance
_geom_bond_site_symmetry_2
Gd0 O0 2.430898 1_545
Gd0 O2 2.430898 1_554
Gd0 O1 2.430898 1_454
Gd0 O3 2.430898 1_455
Gd0 O3 2.430898 1_555
Gd0 O0 2.430898 1_555
Gd0 O2 2.430898 1_544
Gd0 O1 2.430898 1_554
Bi0 O0 2.262430 1_555
Bi0 O3 2.262430 1_565
Bi0 O0 2.262430 1_655
Bi0 O3 2.262430 1_555
Bi1 O2 2.262430 1_555
Bi1 O2 2.262430 1_655
Bi1 O1 2.262430 1_555
Bi1 O1 2.262430 1_565
