# generated using pymatgen
data_Eu(ErS2)2
_symmetry_space_group_name_H-M   'P 1'
_cell_length_a   3.92939574
_cell_length_b   11.84082197
_cell_length_c   14.14283972
_cell_angle_alpha   90.00000000
_cell_angle_beta   90.00000000
_cell_angle_gamma   90.00000000
_symmetry_Int_Tables_number   1
_chemical_formula_structural   Eu(ErS2)2
_chemical_formula_sum   'Eu4 Er8 S16'
_cell_volume   658.02779869
_cell_formula_units_Z   4
loop_
 _symmetry_equiv_pos_site_id
 _symmetry_equiv_pos_as_xyz
  1  'x, y, z'
loop_
 _atom_site_type_symbol
 _atom_site_label
 _atom_site_symmetry_multiplicity
 _atom_site_fract_x
 _atom_site_fract_y
 _atom_site_fract_z
 _atom_site_occupancy
  Eu  Eu0  1  0.75000000  0.74289697  0.83795888  1
  Eu  Eu1  1  0.25000000  0.25710303  0.16204112  1
  Eu  Eu2  1  0.75000000  0.24289697  0.66204112  1
  Eu  Eu3  1  0.25000000  0.75710303  0.33795888  1
  Er  Er0  1  0.75000000  0.08112739  0.39960075  1
  Er  Er1  1  0.25000000  0.91887261  0.60039925  1
  Er  Er2  1  0.75000000  0.58112739  0.10039925  1
  Er  Er3  1  0.25000000  0.41887261  0.89960075  1
  Er  Er4  1  0.75000000  0.06759992  0.88942695  1
  Er  Er5  1  0.25000000  0.93240008  0.11057305  1
  Er  Er6  1  0.75000000  0.56759992  0.61057305  1
  Er  Er7  1  0.25000000  0.43240008  0.38942695  1
  S  S0  1  0.75000000  0.36905574  0.02782553  1
  S  S1  1  0.25000000  0.63094426  0.97217447  1
  S  S2  1  0.75000000  0.86905574  0.47217447  1
  S  S3  1  0.25000000  0.13094426  0.52782553  1
  S  S4  1  0.75000000  0.47723976  0.78426537  1
  S  S5  1  0.25000000  0.52276024  0.21573463  1
  S  S6  1  0.75000000  0.97723976  0.71573463  1
  S  S7  1  0.25000000  0.02276024  0.28426537  1
  S  S8  1  0.75000000  0.08673142  0.07872730  1
  S  S9  1  0.25000000  0.91326858  0.92127270  1
  S  S10  1  0.75000000  0.58673142  0.42127270  1
  S  S11  1  0.25000000  0.41326858  0.57872730  1
  S  S12  1  0.75000000  0.29229068  0.32430984  1
  S  S13  1  0.25000000  0.70770932  0.67569016  1
  S  S14  1  0.75000000  0.79229068  0.17569016  1
  S  S15  1  0.25000000  0.20770932  0.82430984  1
loop_
_geom_bond_atom_site_label_1
_geom_bond_atom_site_label_2
_geom_bond_distance
_geom_bond_site_symmetry_2
Eu0 S1 3.036513 1_555
Eu0 S1 3.036513 1_655
Eu0 S13 3.049654 1_555
Eu0 S13 3.049654 1_655
Eu0 S9 3.052552 1_655
Eu0 S9 3.052552 1_555
Eu0 S4 3.235963 1_555
Eu0 S6 3.269194 1_555
Eu1 S0 3.036513 1_555
Eu1 S0 3.036513 1_455
Eu1 S12 3.049654 1_455
Eu1 S12 3.049654 1_555
Eu1 S8 3.052552 1_455
Eu1 S8 3.052552 1_555
Eu1 S5 3.235963 1_555
Eu1 S7 3.269194 1_555
Eu2 S3 3.036513 1_655
Eu2 S3 3.036513 1_555
Eu2 S15 3.049654 1_555
Eu2 S15 3.049654 1_655
Eu2 S11 3.052552 1_555
Eu2 S11 3.052552 1_655
Eu2 S6 3.235963 1_545
Eu2 S4 3.269194 1_555
Eu3 S2 3.036513 1_455
Eu3 S2 3.036513 1_555
Eu3 S14 3.049654 1_455
Eu3 S14 3.049654 1_555
Eu3 S10 3.052552 1_455
Eu3 S10 3.052552 1_555
Eu3 S7 3.235963 1_565
Eu3 S5 3.269194 1_555
Er0 S7 2.645448 1_555
Er0 S7 2.645448 1_655
Er0 S2 2.712772 1_545
Er0 S12 2.717645 1_555
Er0 S3 2.737998 1_555
Er0 S3 2.737998 1_655
Er1 S6 2.645448 1_555
Er1 S6 2.645448 1_455
Er1 S3 2.712772 1_565
Er1 S13 2.717645 1_555
Er1 S2 2.737998 1_555
Er1 S2 2.737998 1_455
Er2 S5 2.645448 1_555
Er2 S5 2.645448 1_655
Er2 S0 2.712772 1_555
Er2 S14 2.717645 1_555
Er2 S1 2.737998 1_554
Er2 S1 2.737998 1_654
Er3 S4 2.645448 1_555
Er3 S4 2.645448 1_455
Er3 S1 2.712772 1_555
Er3 S15 2.717645 1_555
Er3 S0 2.737998 1_556
Er3 S0 2.737998 1_456
Er4 S6 2.679398 1_545
Er4 S8 2.686811 1_556
Er4 S9 2.720720 1_645
Er4 S9 2.720720 1_545
Er4 S15 2.731389 1_655
Er4 S15 2.731389 1_555
Er5 S7 2.679398 1_565
Er5 S9 2.686811 1_554
Er5 S8 2.720720 1_465
Er5 S8 2.720720 1_565
Er5 S14 2.731389 1_555
Er5 S14 2.731389 1_455
Er6 S4 2.679398 1_555
Er6 S10 2.686811 1_555
Er6 S11 2.720720 1_655
Er6 S11 2.720720 1_555
Er6 S13 2.731389 1_555
Er6 S13 2.731389 1_655
Er7 S5 2.679398 1_555
Er7 S11 2.686811 1_555
Er7 S10 2.720720 1_555
Er7 S10 2.720720 1_455
Er7 S12 2.731389 1_455
Er7 S12 2.731389 1_555
