# generated using pymatgen
data_FeSe2NCl6
_symmetry_space_group_name_H-M   'P 1'
_cell_length_a   11.82471000
_cell_length_b   10.21906000
_cell_length_c   10.93136585
_cell_angle_alpha   65.60837195
_cell_angle_beta   90.00000000
_cell_angle_gamma   90.00000000
_symmetry_Int_Tables_number   1
_chemical_formula_structural   FeSe2NCl6
_chemical_formula_sum   'Fe4 Se8 N4 Cl24'
_cell_volume   1203.01821188
_cell_formula_units_Z   4
loop_
 _symmetry_equiv_pos_site_id
 _symmetry_equiv_pos_as_xyz
  1  'x, y, z'
loop_
 _atom_site_type_symbol
 _atom_site_label
 _atom_site_symmetry_multiplicity
 _atom_site_fract_x
 _atom_site_fract_y
 _atom_site_fract_z
 _atom_site_occupancy
  Fe  Fe0  1  0.80666200  0.67331900  0.01218900  1
  Fe  Fe1  1  0.69333800  0.67331900  0.51218900  1
  Fe  Fe2  1  0.30666200  0.32668100  0.48781100  1
  Fe  Fe3  1  0.19333800  0.32668100  0.98781100  1
  Se  Se0  1  0.68308900  0.28811200  0.37717600  1
  Se  Se1  1  0.31691100  0.71188800  0.62282400  1
  Se  Se2  1  0.95493500  0.22694700  0.45194800  1
  Se  Se3  1  0.81691100  0.28811200  0.87717600  1
  Se  Se4  1  0.54506500  0.22694700  0.95194800  1
  Se  Se5  1  0.45493500  0.77305300  0.04805200  1
  Se  Se6  1  0.18308900  0.71188800  0.12282400  1
  Se  Se7  1  0.04506500  0.77305300  0.54805200  1
  N  N0  1  0.32888900  0.71326000  0.12975400  1
  N  N1  1  0.17111100  0.71326000  0.62975400  1
  N  N2  1  0.82888900  0.28674000  0.37024600  1
  N  N3  1  0.67111100  0.28674000  0.87024600  1
  Cl  Cl0  1  0.91701500  0.66600500  0.17736100  1
  Cl  Cl1  1  0.58298500  0.66600500  0.67736100  1
  Cl  Cl2  1  0.40472300  0.35229800  0.64720200  1
  Cl  Cl3  1  0.09527700  0.35229800  0.14720200  1
  Cl  Cl4  1  0.42183600  0.92365800  0.83988600  1
  Cl  Cl5  1  0.28788800  0.12197200  0.06622400  1
  Cl  Cl6  1  0.90472300  0.64770200  0.85279800  1
  Cl  Cl7  1  0.21211200  0.12197200  0.56622400  1
  Cl  Cl8  1  0.07816400  0.92365800  0.33988600  1
  Cl  Cl9  1  0.36605100  0.86687100  0.42143300  1
  Cl  Cl10  1  0.08298500  0.33399500  0.82263900  1
  Cl  Cl11  1  0.92183600  0.07634200  0.66011400  1
  Cl  Cl12  1  0.13394900  0.86687100  0.92143300  1
  Cl  Cl13  1  0.57816400  0.07634200  0.16011400  1
  Cl  Cl14  1  0.32101600  0.50469600  0.91281800  1
  Cl  Cl15  1  0.78788800  0.87802800  0.43377600  1
  Cl  Cl16  1  0.17898400  0.50469600  0.41281800  1
  Cl  Cl17  1  0.67898400  0.49530400  0.08718200  1
  Cl  Cl18  1  0.41701500  0.33399500  0.32263900  1
  Cl  Cl19  1  0.82101600  0.49530400  0.58718200  1
  Cl  Cl20  1  0.59527700  0.64770200  0.35279800  1
  Cl  Cl21  1  0.86605100  0.13312900  0.07856700  1
  Cl  Cl22  1  0.63394900  0.13312900  0.57856700  1
  Cl  Cl23  1  0.71211200  0.87802800  0.93377600  1
loop_
_geom_bond_atom_site_label_1
_geom_bond_atom_site_label_2
_geom_bond_distance
_geom_bond_site_symmetry_2
N0 Se5 1.715150 1_555
N0 Se6 1.726017 1_555
N1 Se7 1.715150 1_555
N1 Se1 1.726017 1_555
N2 Se2 1.715150 1_555
N2 Se0 1.726017 1_555
N3 Se4 1.715150 1_555
N3 Se3 1.726017 1_555
Cl0 Fe0 2.203837 1_555
Cl1 Fe1 2.203837 1_555
Cl2 Fe2 2.196729 1_555
Cl3 Fe3 2.196729 1_554
Cl4 Se5 2.192563 1_556
Cl5 Fe3 2.209044 1_554
Cl6 Fe0 2.196729 1_556
Cl7 Fe2 2.209044 1_555
Cl8 Se7 2.192563 1_555
Cl9 Se1 2.193793 1_555
Cl10 Fe3 2.203837 1_555
Cl11 Se2 2.192563 1_555
Cl12 Se6 2.193793 1_556
Cl13 Se4 2.192563 1_554
Cl14 Fe3 2.242535 1_555
Cl15 Fe1 2.209044 1_555
Cl16 Fe2 2.242535 1_555
Cl17 Fe0 2.242535 1_555
Cl18 Fe2 2.203837 1_555
Cl19 Fe1 2.242535 1_555
Cl20 Fe1 2.196729 1_555
Cl21 Se3 2.193793 1_554
Cl22 Se0 2.193793 1_555
Cl23 Fe0 2.209044 1_556
