# generated using pymatgen
data_ZnCr6Si2Pb10(O16F)2
_symmetry_space_group_name_H-M   'P 1'
_cell_length_a   9.65360600
_cell_length_b   10.11368672
_cell_length_c   10.15031288
_cell_angle_alpha   65.72374284
_cell_angle_beta   72.35806191
_cell_angle_gamma   69.36589357
_symmetry_Int_Tables_number   1
_chemical_formula_structural   ZnCr6Si2Pb10(O16F)2
_chemical_formula_sum   'Zn1 Cr6 Si2 Pb10 O32 F2'
_cell_volume   830.76707065
_cell_formula_units_Z   1
loop_
 _symmetry_equiv_pos_site_id
 _symmetry_equiv_pos_as_xyz
  1  'x, y, z'
loop_
 _atom_site_type_symbol
 _atom_site_label
 _atom_site_symmetry_multiplicity
 _atom_site_fract_x
 _atom_site_fract_y
 _atom_site_fract_z
 _atom_site_occupancy
  Zn  Zn0  1  0.50000000  0.00000000  0.50000000  1
  Cr  Cr0  1  0.03448000  0.64340100  0.28253300  1
  Cr  Cr1  1  0.96552000  0.35659900  0.71746700  1
  Cr  Cr2  1  0.74095000  0.84563200  0.98042300  1
  Cr  Cr3  1  0.25905000  0.15436800  0.01957700  1
  Cr  Cr4  1  0.76989700  0.16231200  0.51151300  1
  Cr  Cr5  1  0.23010300  0.83768800  0.48848700  1
  Si  Si0  1  0.47549400  0.33816200  0.20932200  1
  Si  Si1  1  0.52450600  0.66183800  0.79067800  1
  Pb  Pb0  1  0.37119300  0.73970800  0.14895200  1
  Pb  Pb1  1  0.62880700  0.26029200  0.85104800  1
  Pb  Pb2  1  0.34756000  0.34142200  0.56788300  1
  Pb  Pb3  1  0.65244000  0.65857800  0.43211700  1
  Pb  Pb4  1  0.17759000  0.96903000  0.79002800  1
  Pb  Pb5  1  0.82241000  0.03097000  0.20997200  1
  Pb  Pb6  1  0.14643400  0.25185500  0.32719300  1
  Pb  Pb7  1  0.85356600  0.74814500  0.67280700  1
  Pb  Pb8  1  0.76510800  0.47000400  0.08031500  1
  Pb  Pb9  1  0.23489200  0.52999600  0.91968500  1
  O  O0  1  0.97782700  0.51484300  0.26350100  1
  O  O1  1  0.02217300  0.48515700  0.73649900  1
  O  O2  1  0.18412700  0.56107100  0.36295500  1
  O  O3  1  0.81587300  0.43892900  0.63704500  1
  O  O4  1  0.11218500  0.26365200  0.61715800  1
  O  O5  1  0.88781500  0.73634800  0.38284200  1
  O  O6  1  0.08321200  0.76619600  0.12041200  1
  O  O7  1  0.91678800  0.23380400  0.87958800  1
  O  O8  1  0.64981600  0.72859000  0.13010200  1
  O  O9  1  0.35018400  0.27141000  0.86989800  1
  O  O10  1  0.63360800  0.94239400  0.85769600  1
  O  O11  1  0.36639200  0.05760600  0.14230400  1
  O  O12  1  0.78517200  0.96780800  0.02196400  1
  O  O13  1  0.21482800  0.03219200  0.97803600  1
  O  O14  1  0.89467700  0.73487500  0.90862200  1
  O  O15  1  0.10532300  0.26512500  0.09137800  1
  O  O16  1  0.89256700  0.08451200  0.62030400  1
  O  O17  1  0.10743300  0.91548800  0.37969600  1
  O  O18  1  0.85053600  0.25675100  0.34525100  1
  O  O19  1  0.14946400  0.74324900  0.65474900  1
  O  O20  1  0.71765400  0.02646200  0.49314400  1
  O  O21  1  0.28234600  0.97353800  0.50685600  1
  O  O22  1  0.61917600  0.27949700  0.58106200  1
  O  O23  1  0.38082400  0.72050300  0.41893800  1
  O  O24  1  0.51260400  0.48837900  0.20544500  1
  O  O25  1  0.48739600  0.51162100  0.79455500  1
  O  O26  1  0.43023600  0.22962000  0.38261700  1
  O  O27  1  0.56976400  0.77038000  0.61738300  1
  O  O28  1  0.36634100  0.74211100  0.88336800  1
  O  O29  1  0.63365900  0.25788900  0.11663200  1
  O  O30  1  0.32624700  0.38412500  0.13789400  1
  O  O31  1  0.67375300  0.61587500  0.86210600  1
  F  F0  1  0.39093900  0.06929400  0.67848000  1
  F  F1  1  0.60906100  0.93070600  0.32152000  1
loop_
_geom_bond_atom_site_label_1
_geom_bond_atom_site_label_2
_geom_bond_distance
_geom_bond_site_symmetry_2
Cr0 O6 1.653382 1_555
Cr0 O2 1.659742 1_555
Cr0 O0 1.672924 1_455
Cr0 O5 1.702977 1_455
Cr1 O7 1.653382 1_555
Cr1 O3 1.659742 1_555
Cr1 O1 1.672924 1_655
Cr1 O4 1.702977 1_655
Cr2 O10 1.627449 1_555
Cr2 O12 1.672177 1_556
Cr2 O14 1.682953 1_555
Cr2 O8 1.711273 1_556
Cr3 O11 1.627449 1_555
Cr3 O13 1.672177 1_554
Cr3 O15 1.682953 1_555
Cr3 O9 1.711273 1_554
Cr4 O16 1.631661 1_555
Cr4 O18 1.663917 1_555
Cr4 O22 1.694114 1_555
Cr4 O20 1.712558 1_555
Cr5 O17 1.631661 1_555
Cr5 O19 1.663917 1_555
Cr5 O23 1.694114 1_555
Cr5 O21 1.712558 1_555
O0 Pb6 2.512834 1_655
O1 Pb7 2.512834 1_455
O2 Pb2 2.733176 1_555
O2 Pb0 2.817532 1_555
O3 Pb3 2.733176 1_555
O3 Pb1 2.817532 1_555
O4 Pb2 2.505805 1_555
O4 Pb4 2.720772 1_545
O4 Pb6 2.908143 1_555
O5 Pb3 2.505805 1_555
O5 Pb5 2.720772 1_565
O5 Pb7 2.908143 1_555
O6 Pb0 2.789952 1_555
O7 Pb1 2.789952 1_555
O8 Pb0 2.603156 1_555
O8 Pb8 2.651043 1_555
O8 Pb3 2.854672 1_555
O9 Pb1 2.603156 1_555
O9 Pb9 2.651043 1_555
O9 Pb2 2.854672 1_555
O12 Pb5 2.399814 1_565
O12 Pb1 2.873852 1_564
O13 Pb4 2.399814 1_545
O13 Pb0 2.873852 1_546
O14 Pb7 2.485745 1_555
O15 Pb6 2.485745 1_555
O18 Pb6 2.790333 1_655
O18 Pb8 2.808022 1_555
O19 Pb7 2.790333 1_455
O19 Pb9 2.808022 1_555
O20 Zn0 2.187159 1_555
O20 Pb5 2.729315 1_555
O20 Pb7 2.756219 1_545
O21 Zn0 2.187159 1_565
O21 Pb4 2.729315 1_555
O21 Pb6 2.756219 1_565
O22 Pb2 2.504340 1_555
O22 Pb1 2.694517 1_555
O23 Pb3 2.504340 1_555
O23 Pb0 2.694517 1_555
O24 Si0 1.662495 1_555
O24 Pb0 2.341750 1_555
O24 Pb8 2.363834 1_555
O25 Si1 1.662495 1_555
O25 Pb1 2.341750 1_555
O25 Pb9 2.363834 1_555
O26 Si0 1.665674 1_555
O26 Zn0 2.091684 1_555
O26 Pb2 2.377922 1_555
O26 Pb6 2.875597 1_555
O27 Si1 1.665674 1_555
O27 Zn0 2.091684 1_565
O27 Pb3 2.377922 1_555
O27 Pb7 2.875597 1_555
O28 Si1 1.661104 1_555
O28 Pb4 2.407476 1_555
O28 Pb0 2.700328 1_556
O28 Pb9 2.707977 1_555
O29 Si0 1.661104 1_555
O29 Pb5 2.407476 1_555
O29 Pb1 2.700328 1_554
O29 Pb8 2.707977 1_555
O30 Si0 1.643640 1_555
O30 Pb9 2.332402 1_554
O30 Pb6 2.448680 1_555
O31 Si1 1.643640 1_555
O31 Pb8 2.332402 1_556
O31 Pb7 2.448680 1_555
F0 Zn0 2.061416 1_555
F0 Pb4 2.380453 1_545
F0 Pb2 2.437706 1_555
F1 Zn0 2.061416 1_565
F1 Pb5 2.380453 1_565
F1 Pb3 2.437706 1_555
