# generated using pymatgen
data_PNF2
_symmetry_space_group_name_H-M   'P 1'
_cell_length_a   7.22463400
_cell_length_b   9.21327900
_cell_length_c   12.33017900
_cell_angle_alpha   90.00000000
_cell_angle_beta   90.00000000
_cell_angle_gamma   90.00000000
_symmetry_Int_Tables_number   1
_chemical_formula_structural   PNF2
_chemical_formula_sum   'P12 N12 F24'
_cell_volume   820.72838695
_cell_formula_units_Z   12
loop_
 _symmetry_equiv_pos_site_id
 _symmetry_equiv_pos_as_xyz
  1  'x, y, z'
loop_
 _atom_site_type_symbol
 _atom_site_label
 _atom_site_symmetry_multiplicity
 _atom_site_fract_x
 _atom_site_fract_y
 _atom_site_fract_z
 _atom_site_occupancy
  P  P0  1  0.66718100  0.59892900  0.86136100  1
  P  P1  1  0.59192600  0.55905300  0.25000000  1
  P  P2  1  0.83281900  0.09892900  0.13863900  1
  P  P3  1  0.90807400  0.05905300  0.75000000  1
  P  P4  1  0.33281900  0.40107100  0.36136100  1
  P  P5  1  0.09192600  0.94094700  0.25000000  1
  P  P6  1  0.16718100  0.90107100  0.86136100  1
  P  P7  1  0.33281900  0.40107100  0.13863900  1
  P  P8  1  0.66718100  0.59892900  0.63863900  1
  P  P9  1  0.83281900  0.09892900  0.36136100  1
  P  P10  1  0.40807400  0.44094700  0.75000000  1
  P  P11  1  0.16718100  0.90107100  0.63863900  1
  N  N0  1  0.50317400  0.50892300  0.36090000  1
  N  N1  1  0.49682600  0.49107700  0.86090000  1
  N  N2  1  0.99682600  0.00892300  0.63910000  1
  N  N3  1  0.25412000  0.84911200  0.75000000  1
  N  N4  1  0.00317400  0.99107700  0.13910000  1
  N  N5  1  0.49682600  0.49107700  0.63910000  1
  N  N6  1  0.99682600  0.00892300  0.86090000  1
  N  N7  1  0.00317400  0.99107700  0.36090000  1
  N  N8  1  0.74588000  0.15088800  0.25000000  1
  N  N9  1  0.24588000  0.34911200  0.25000000  1
  N  N10  1  0.75412000  0.65088800  0.75000000  1
  N  N11  1  0.50317400  0.50892300  0.13910000  1
  F  F0  1  0.11861400  0.76519200  0.56907900  1
  F  F1  1  0.89124500  0.22808300  0.75000000  1
  F  F2  1  0.69753300  0.02267400  0.75000000  1
  F  F3  1  0.61861400  0.73480800  0.56907900  1
  F  F4  1  0.60875500  0.72808300  0.25000000  1
  F  F5  1  0.80246700  0.52267400  0.25000000  1
  F  F6  1  0.17692200  0.46487700  0.43399900  1
  F  F7  1  0.88138600  0.23480800  0.06907900  1
  F  F8  1  0.11861400  0.76519200  0.93092100  1
  F  F9  1  0.39124500  0.27191700  0.75000000  1
  F  F10  1  0.82307800  0.53512300  0.93399900  1
  F  F11  1  0.19753300  0.47732600  0.75000000  1
  F  F12  1  0.82307800  0.53512300  0.56600100  1
  F  F13  1  0.30246700  0.97732600  0.25000000  1
  F  F14  1  0.32307800  0.96487700  0.93399900  1
  F  F15  1  0.67692200  0.03512300  0.43399900  1
  F  F16  1  0.10875500  0.77191700  0.25000000  1
  F  F17  1  0.88138600  0.23480800  0.43092100  1
  F  F18  1  0.17692200  0.46487700  0.06600100  1
  F  F19  1  0.38138600  0.26519200  0.43092100  1
  F  F20  1  0.61861400  0.73480800  0.93092100  1
  F  F21  1  0.67692200  0.03512300  0.06600100  1
  F  F22  1  0.32307800  0.96487700  0.56600100  1
  F  F23  1  0.38138600  0.26519200  0.06907900  1
loop_
_geom_bond_atom_site_label_1
_geom_bond_atom_site_label_2
_geom_bond_distance
_geom_bond_site_symmetry_2
N0 P1 1.579330 1_555
N0 P4 1.581823 1_555
N1 P10 1.579330 1_555
N1 P0 1.581823 1_555
N2 P3 1.579330 1_555
N2 P11 1.581823 1_645
N3 P11 1.584009 1_555
N3 P6 1.584009 1_555
N4 P5 1.579330 1_555
N4 P2 1.581823 1_465
N5 P10 1.579330 1_555
N5 P8 1.581823 1_555
N6 P3 1.579330 1_555
N6 P6 1.581823 1_645
N7 P5 1.579330 1_555
N7 P9 1.581823 1_465
N8 P9 1.584009 1_555
N8 P2 1.584009 1_555
N9 P7 1.584009 1_555
N9 P4 1.584009 1_555
N10 P0 1.584009 1_555
N10 P8 1.584009 1_555
N11 P1 1.579330 1_555
N11 P7 1.581823 1_555
F0 P11 1.557554 1_555
F1 P3 1.562059 1_555
F2 P3 1.557571 1_555
F3 P8 1.557554 1_555
F4 P1 1.562059 1_555
F5 P1 1.557571 1_555
F6 P4 1.554446 1_555
F7 P2 1.557554 1_555
F8 P6 1.557554 1_555
F9 P10 1.562059 1_555
F10 P0 1.554446 1_555
F11 P10 1.557571 1_555
F12 P8 1.554446 1_555
F13 P5 1.557571 1_555
F14 P6 1.554446 1_555
F15 P9 1.554446 1_555
F16 P5 1.562059 1_555
F17 P9 1.557554 1_555
F18 P7 1.554446 1_555
F19 P4 1.557554 1_555
F20 P0 1.557554 1_555
F21 P2 1.554446 1_555
F22 P11 1.554446 1_555
F23 P7 1.557554 1_555
