# generated using pymatgen
data_K2Ca2(CO3)3
_symmetry_space_group_name_H-M   'P 1'
_cell_length_a   8.04204488
_cell_length_b   8.04204488
_cell_length_c   8.04204542
_cell_angle_alpha   107.98142427
_cell_angle_beta   107.98142427
_cell_angle_gamma   107.98143169
_symmetry_Int_Tables_number   1
_chemical_formula_structural   K2Ca2(CO3)3
_chemical_formula_sum   'K4 Ca4 C6 O18'
_cell_volume   421.02231986
_cell_formula_units_Z   2
loop_
 _symmetry_equiv_pos_site_id
 _symmetry_equiv_pos_as_xyz
  1  'x, y, z'
loop_
 _atom_site_type_symbol
 _atom_site_label
 _atom_site_symmetry_multiplicity
 _atom_site_fract_x
 _atom_site_fract_y
 _atom_site_fract_z
 _atom_site_occupancy
  K  K0  1  0.12876951  0.12876951  0.12876951  1
  K  K1  1  0.90232728  0.44411931  0.29951664  1
  K  K2  1  0.29951664  0.90232728  0.44411931  1
  K  K3  1  0.44411931  0.29951664  0.90232728  1
  Ca  Ca0  1  0.97534030  0.49348286  0.82898664  1
  Ca  Ca1  1  0.49348286  0.82898664  0.97534030  1
  Ca  Ca2  1  0.82898664  0.97534030  0.49348286  1
  Ca  Ca3  1  0.55304384  0.55304384  0.55304384  1
  C  C0  1  0.58253656  0.19689493  0.38564044  1
  C  C1  1  0.06676360  0.82092641  0.73404448  1
  C  C2  1  0.73404448  0.06676360  0.82092641  1
  C  C3  1  0.82092641  0.73404448  0.06676360  1
  C  C4  1  0.19689493  0.38564044  0.58253656  1
  C  C5  1  0.38564044  0.58253656  0.19689493  1
  O  O0  1  0.63928229  0.89717897  0.66973114  1
  O  O1  1  0.89893590  0.18794013  0.84548591  1
  O  O2  1  0.66451952  0.11080770  0.94373779  1
  O  O3  1  0.52553918  0.28092961  0.28280276  1
  O  O4  1  0.64868471  0.28229481  0.57340599  1
  O  O5  1  0.57105195  0.02443715  0.30297568  1
  O  O6  1  0.28280276  0.52553918  0.28092961  1
  O  O7  1  0.11080770  0.94373779  0.66451952  1
  O  O8  1  0.30297568  0.57105195  0.02443715  1
  O  O9  1  0.57340599  0.64868471  0.28229481  1
  O  O10  1  0.89717897  0.66973114  0.63928229  1
  O  O11  1  0.28092961  0.28280276  0.52553918  1
  O  O12  1  0.84548591  0.89893590  0.18794013  1
  O  O13  1  0.66973114  0.63928229  0.89717897  1
  O  O14  1  0.94373779  0.66451952  0.11080770  1
  O  O15  1  0.02443715  0.30297568  0.57105195  1
  O  O16  1  0.28229481  0.57340599  0.64868471  1
  O  O17  1  0.18794013  0.84548591  0.89893590  1
loop_
_geom_bond_atom_site_label_1
_geom_bond_atom_site_label_2
_geom_bond_distance
_geom_bond_site_symmetry_2
K0 O6 2.725118 1_555
K0 O3 2.725118 1_555
K0 O11 2.725118 1_555
K0 O12 2.728625 1_445
K0 O17 2.728626 1_544
K0 O1 2.728626 1_454
K1 O14 2.676578 1_555
K1 O2 2.783923 1_554
K1 O10 2.795543 1_555
K1 O15 2.813521 1_655
K1 O3 2.847196 1_555
K1 O6 2.986517 1_655
K2 O7 2.676578 1_555
K2 O14 2.783923 1_455
K2 O0 2.795543 1_555
K2 O5 2.813521 1_565
K2 O6 2.847196 1_555
K2 O11 2.986517 1_565
K3 O2 2.676578 1_555
K3 O7 2.783922 1_545
K3 O13 2.795543 1_555
K3 O8 2.813521 1_556
K3 O11 2.847197 1_555
K3 O3 2.986518 1_556
Ca0 O8 2.371704 1_656
Ca0 O15 2.392270 1_655
Ca0 O14 2.395813 1_556
Ca0 O1 2.398412 1_555
Ca0 O4 2.401342 1_555
Ca0 O10 2.454529 1_555
Ca0 O17 2.586100 1_655
Ca1 O5 2.371704 1_566
Ca1 O8 2.392270 1_556
Ca1 O2 2.395813 1_565
Ca1 O17 2.398412 1_555
Ca1 O16 2.401342 1_555
Ca1 O13 2.454529 1_555
Ca1 O12 2.586100 1_556
Ca2 O15 2.371703 1_665
Ca2 O5 2.392270 1_565
Ca2 O7 2.395813 1_655
Ca2 O12 2.398412 1_555
Ca2 O9 2.401342 1_555
Ca2 O0 2.454529 1_555
Ca2 O1 2.586100 1_565
Ca3 O10 2.414654 1_555
Ca3 O0 2.414654 1_555
Ca3 O13 2.414654 1_555
Ca3 O11 2.455393 1_555
Ca3 O3 2.455394 1_555
Ca3 O6 2.455394 1_555
Ca3 O16 2.556512 1_555
Ca3 O4 2.556512 1_555
Ca3 O9 2.556512 1_555
C0 O3 1.285724 1_555
C0 O4 1.293442 1_555
C0 O5 1.299133 1_555
C1 O7 1.288711 1_555
C1 O17 1.291787 1_555
C1 O10 1.296738 1_455
C2 O2 1.288711 1_555
C2 O1 1.291787 1_555
C2 O0 1.296738 1_545
C3 O14 1.288711 1_555
C3 O12 1.291787 1_555
C3 O13 1.296738 1_554
C4 O11 1.285724 1_555
C4 O16 1.293442 1_555
C4 O15 1.299133 1_555
C5 O6 1.285724 1_555
C5 O9 1.293442 1_555
C5 O8 1.299133 1_555
