# generated using pymatgen
data_Al2NiO4
_symmetry_space_group_name_H-M   'P 1'
_cell_length_a   5.76055331
_cell_length_b   5.76055331
_cell_length_c   23.56903712
_cell_angle_alpha   82.91897184
_cell_angle_beta   82.91897184
_cell_angle_gamma   60.05629196
_symmetry_Int_Tables_number   1
_chemical_formula_structural   Al2NiO4
_chemical_formula_sum   'Al20 Ni10 O40'
_cell_volume   670.80988641
_cell_formula_units_Z   10
loop_
 _symmetry_equiv_pos_site_id
 _symmetry_equiv_pos_as_xyz
  1  'x, y, z'
loop_
 _atom_site_type_symbol
 _atom_site_label
 _atom_site_symmetry_multiplicity
 _atom_site_fract_x
 _atom_site_fract_y
 _atom_site_fract_z
 _atom_site_occupancy
  Al  Al0  1  0.99958900  0.99958900  0.00219500  1
  Al  Al1  1  0.29224200  0.80170400  0.10049800  1
  Al  Al2  1  0.80170400  0.29224200  0.10049800  1
  Al  Al3  1  0.59761000  0.59761000  0.20234500  1
  Al  Al4  1  0.52857900  0.52857900  0.42753600  1
  Al  Al5  1  0.89447900  0.39919600  0.30058600  1
  Al  Al6  1  0.26627700  0.26627700  0.17596900  1
  Al  Al7  1  0.39919600  0.89447900  0.30058600  1
  Al  Al8  1  0.13026500  0.13026500  0.62612000  1
  Al  Al9  1  0.49971300  0.00040900  0.49978600  1
  Al  Al10  1  0.86904000  0.86904000  0.37317500  1
  Al  Al11  1  0.00040900  0.49971300  0.49978600  1
  Al  Al12  1  0.73389200  0.73389200  0.82444400  1
  Al  Al13  1  0.10110000  0.60140100  0.69925400  1
  Al  Al14  1  0.60140100  0.10110000  0.69925400  1
  Al  Al15  1  0.47087600  0.47087600  0.57301100  1
  Al  Al16  1  0.70141900  0.20554500  0.89847700  1
  Al  Al17  1  0.07217500  0.07217500  0.77279700  1
  Al  Al18  1  0.20554500  0.70141900  0.89847700  1
  Al  Al19  1  0.66960800  0.66960800  0.97616100  1
  Ni  Ni0  1  0.32692800  0.32692800  0.02317400  1
  Ni  Ni1  1  0.92385300  0.92385300  0.22738700  1
  Ni  Ni2  1  0.80073700  0.80073700  0.10032700  1
  Ni  Ni3  1  0.19903800  0.19903800  0.39965700  1
  Ni  Ni4  1  0.39885200  0.39885200  0.30070900  1
  Ni  Ni5  1  0.80022900  0.80022900  0.59974500  1
  Ni  Ni6  1  0.99996500  0.99996500  0.50001700  1
  Ni  Ni7  1  0.20406100  0.20406100  0.89897800  1
  Ni  Ni8  1  0.40223000  0.40223000  0.79963500  1
  Ni  Ni9  1  0.60083800  0.60083800  0.69949300  1
  O  O0  1  0.68498600  0.14821700  0.05034900  1
  O  O1  1  0.14821700  0.68498600  0.05034900  1
  O  O2  1  0.96169200  0.96169200  0.14381200  1
  O  O3  1  0.13263000  0.13263000  0.05325400  1
  O  O4  1  0.28701000  0.74449300  0.25136600  1
  O  O5  1  0.45487400  0.45487400  0.14925200  1
  O  O6  1  0.44545000  0.92704100  0.15072900  1
  O  O7  1  0.63911600  0.63911600  0.05404000  1
  O  O8  1  0.74449300  0.28701000  0.25136600  1
  O  O9  1  0.55552100  0.55552100  0.35027700  1
  O  O10  1  0.72666600  0.72666600  0.25385600  1
  O  O11  1  0.92704100  0.44545000  0.15072900  1
  O  O12  1  0.85824400  0.36031700  0.45361300  1
  O  O13  1  0.05071500  0.05071500  0.34542900  1
  O  O14  1  0.23874300  0.23874300  0.25352200  1
  O  O15  1  0.03590100  0.54176300  0.34657800  1
  O  O16  1  0.15897700  0.15897700  0.54783300  1
  O  O17  1  0.36031700  0.85824400  0.45361300  1
  O  O18  1  0.34549900  0.34549900  0.45429800  1
  O  O19  1  0.54176300  0.03590100  0.34657800  1
  O  O20  1  0.65344800  0.65344800  0.54632600  1
  O  O21  1  0.45782600  0.96215200  0.65308000  1
  O  O22  1  0.84076900  0.84076900  0.45230700  1
  O  O23  1  0.63875400  0.14215900  0.54691600  1
  O  O24  1  0.76097200  0.76097200  0.74631300  1
  O  O25  1  0.96215200  0.45782600  0.65308000  1
  O  O26  1  0.14215900  0.63875400  0.54691600  1
  O  O27  1  0.94767500  0.94767500  0.65351100  1
  O  O28  1  0.05714500  0.56676900  0.85228200  1
  O  O29  1  0.25471200  0.25471200  0.74621900  1
  O  O30  1  0.23972400  0.74342900  0.74666000  1
  O  O31  1  0.44157500  0.44157500  0.65214100  1
  O  O32  1  0.36966500  0.36966500  0.93898800  1
  O  O33  1  0.56676900  0.05714500  0.85228200  1
  O  O34  1  0.55444500  0.55444500  0.85244000  1
  O  O35  1  0.74342900  0.23972400  0.74666000  1
  O  O36  1  0.85943900  0.85943900  0.94960700  1
  O  O37  1  0.85084000  0.32997600  0.95045000  1
  O  O38  1  0.04311800  0.04311800  0.85241700  1
  O  O39  1  0.32997600  0.85084000  0.95045000  1
loop_
_geom_bond_atom_site_label_1
_geom_bond_atom_site_label_2
_geom_bond_distance
_geom_bond_site_symmetry_2
Al0 O0 1.867884 1_565
Al0 O1 1.867884 1_655
Al0 O3 1.914165 1_665
Al0 O37 1.975138 1_564
Al0 O39 1.975138 1_654
Al0 O36 1.995981 1_554
Al1 O2 1.875670 1_455
Al1 O1 1.879371 1_555
Al1 O3 1.923175 1_565
Al1 O6 1.950977 1_555
Al1 O7 1.978390 1_555
Al1 O5 2.005152 1_555
Al2 O2 1.875670 1_545
Al2 O0 1.879371 1_555
Al2 O3 1.923175 1_655
Al2 O11 1.950977 1_555
Al2 O7 1.978390 1_555
Al2 O5 2.005152 1_555
Al3 O8 1.863379 1_555
Al3 O4 1.863379 1_555
Al3 O10 1.891070 1_555
Al3 O11 1.970459 1_555
Al3 O6 1.970459 1_555
Al3 O5 2.024920 1_555
Al4 O12 1.796373 1_555
Al4 O17 1.796373 1_555
Al4 O9 1.802393 1_555
Al4 O18 1.845197 1_555
Al5 O8 1.870632 1_555
Al5 O15 1.902187 1_655
Al5 O10 1.906793 1_555
Al5 O13 1.965880 1_655
Al5 O14 1.974381 1_655
Al5 O9 1.983944 1_555
Al6 O14 1.809284 1_555
Al6 O6 1.832953 1_545
Al6 O11 1.832953 1_455
Al6 O5 1.896871 1_555
Al7 O4 1.870632 1_555
Al7 O19 1.902187 1_565
Al7 O10 1.906793 1_555
Al7 O13 1.965880 1_565
Al7 O14 1.974381 1_565
Al7 O9 1.983944 1_555
Al8 O21 1.794930 1_545
Al8 O25 1.794930 1_455
Al8 O16 1.826503 1_555
Al8 O27 1.843648 1_445
Al9 O17 1.895112 1_545
Al9 O23 1.907376 1_555
Al9 O18 1.958768 1_555
Al9 O22 1.966182 1_545
Al9 O16 1.971443 1_555
Al9 O20 1.978431 1_545
Al10 O15 1.790242 1_655
Al10 O19 1.790242 1_565
Al10 O13 1.836874 1_665
Al10 O22 1.846136 1_555
Al11 O12 1.895112 1_455
Al11 O26 1.907376 1_555
Al11 O18 1.958768 1_555
Al11 O22 1.966182 1_455
Al11 O16 1.971443 1_555
Al11 O20 1.978431 1_455
Al12 O28 1.783434 1_655
Al12 O33 1.783434 1_565
Al12 O34 1.817397 1_555
Al12 O24 1.822728 1_555
Al13 O25 1.899107 1_455
Al13 O30 1.911294 1_555
Al13 O24 1.957472 1_455
Al13 O31 1.959561 1_555
Al13 O27 1.966509 1_455
Al13 O29 1.982179 1_555
Al14 O21 1.899107 1_545
Al14 O35 1.911294 1_555
Al14 O24 1.957472 1_545
Al14 O31 1.959561 1_555
Al14 O27 1.966509 1_545
Al14 O29 1.982179 1_555
Al15 O23 1.792081 1_555
Al15 O26 1.792081 1_555
Al15 O20 1.840064 1_555
Al15 O31 1.846210 1_555
Al16 O32 1.851135 1_555
Al16 O33 1.901974 1_555
Al16 O38 1.952811 1_655
Al16 O37 1.961515 1_555
Al16 O34 1.980845 1_555
Al16 O36 2.030326 1_545
Al17 O35 1.792681 1_455
Al17 O30 1.792681 1_545
Al17 O29 1.839231 1_555
Al17 O38 1.857585 1_555
Al18 O32 1.851135 1_555
Al18 O28 1.901974 1_555
Al18 O38 1.952811 1_565
Al18 O39 1.961515 1_555
Al18 O34 1.980845 1_555
Al18 O36 2.030326 1_455
Al19 O7 1.817336 1_556
Al19 O37 1.839067 1_555
Al19 O39 1.839067 1_555
Al19 O36 1.907780 1_555
Ni0 O1 1.941073 1_555
Ni0 O0 1.941073 1_555
Ni0 O3 1.966588 1_555
Ni0 O32 1.969223 1_554
Ni1 O4 1.937287 1_655
Ni1 O8 1.937287 1_565
Ni1 O2 1.952123 1_555
Ni1 O10 1.976972 1_555
Ni2 O2 2.023999 1_555
Ni2 O0 2.029470 1_565
Ni2 O1 2.029470 1_655
Ni2 O11 2.063110 1_555
Ni2 O6 2.063110 1_555
Ni2 O7 2.071216 1_555
Ni3 O19 2.043215 1_555
Ni3 O15 2.043215 1_555
Ni3 O17 2.046788 1_545
Ni3 O12 2.046788 1_455
Ni3 O18 2.080516 1_555
Ni3 O13 2.088274 1_555
Ni4 O4 2.016237 1_555
Ni4 O8 2.016237 1_555
Ni4 O15 2.040040 1_555
Ni4 O19 2.040040 1_555
Ni4 O14 2.072011 1_555
Ni4 O9 2.080117 1_555
Ni5 O26 2.036454 1_655
Ni5 O23 2.036454 1_565
Ni5 O21 2.044951 1_555
Ni5 O25 2.044951 1_555
Ni5 O20 2.062448 1_555
Ni5 O27 2.073553 1_555
Ni6 O17 2.034778 1_655
Ni6 O12 2.034778 1_565
Ni6 O26 2.043791 1_655
Ni6 O23 2.043791 1_565
Ni6 O22 2.072314 1_555
Ni6 O16 2.072396 1_665
Ni7 O32 2.015305 1_555
Ni7 O28 2.047078 1_555
Ni7 O33 2.047078 1_555
Ni7 O37 2.067131 1_455
Ni7 O39 2.067131 1_545
Ni7 O38 2.069579 1_555
Ni8 O35 2.035863 1_555
Ni8 O30 2.035863 1_555
Ni8 O28 2.047094 1_555
Ni8 O33 2.047094 1_555
Ni8 O29 2.068260 1_555
Ni8 O34 2.095779 1_555
Ni9 O21 2.038749 1_555
Ni9 O25 2.038749 1_555
Ni9 O35 2.046224 1_555
Ni9 O30 2.046224 1_555
Ni9 O24 2.066641 1_555
Ni9 O31 2.067389 1_555
