# generated using pymatgen
data_Sr4RhO6
_symmetry_space_group_name_H-M   'P 1'
_cell_length_a   6.87118627
_cell_length_b   6.87118627
_cell_length_c   6.87118609
_cell_angle_alpha   90.13274534
_cell_angle_beta   90.13274534
_cell_angle_gamma   90.13276335
_symmetry_Int_Tables_number   1
_chemical_formula_structural   Sr4RhO6
_chemical_formula_sum   'Sr8 Rh2 O12'
_cell_volume   324.40807224
_cell_formula_units_Z   2
loop_
 _symmetry_equiv_pos_site_id
 _symmetry_equiv_pos_as_xyz
  1  'x, y, z'
loop_
 _atom_site_type_symbol
 _atom_site_label
 _atom_site_symmetry_multiplicity
 _atom_site_fract_x
 _atom_site_fract_y
 _atom_site_fract_z
 _atom_site_occupancy
  Sr  Sr0  1  0.88254235  0.61745765  0.25000000  1
  Sr  Sr1  1  0.11745765  0.38254235  0.75000000  1
  Sr  Sr2  1  0.25000000  0.88254235  0.61745765  1
  Sr  Sr3  1  0.61745765  0.25000000  0.88254235  1
  Sr  Sr4  1  0.75000000  0.75000000  0.75000000  1
  Sr  Sr5  1  0.38254235  0.75000000  0.11745765  1
  Sr  Sr6  1  0.25000000  0.25000000  0.25000000  1
  Sr  Sr7  1  0.75000000  0.11745765  0.38254235  1
  Rh  Rh0  1  0.00000000  -0.00000000  0.00000000  1
  Rh  Rh1  1  0.50000000  0.50000000  0.50000000  1
  O  O0  1  0.44156801  0.57178316  0.78362001  1
  O  O1  1  0.57178316  0.78362001  0.44156801  1
  O  O2  1  0.94156801  0.28362001  0.07178316  1
  O  O3  1  0.55843199  0.42821684  0.21637999  1
  O  O4  1  0.21637999  0.55843199  0.42821684  1
  O  O5  1  0.05843199  0.71637999  0.92821684  1
  O  O6  1  0.78362001  0.44156801  0.57178316  1
  O  O7  1  0.71637999  0.92821684  0.05843199  1
  O  O8  1  0.07178316  0.94156801  0.28362001  1
  O  O9  1  0.92821684  0.05843199  0.71637999  1
  O  O10  1  0.42821684  0.21637999  0.55843199  1
  O  O11  1  0.28362001  0.07178316  0.94156801  1
loop_
_geom_bond_atom_site_label_1
_geom_bond_atom_site_label_2
_geom_bond_distance
_geom_bond_site_symmetry_2
O0 Rh1 2.049979 1_555
O0 Sr4 2.456801 1_555
O0 Sr1 2.585847 1_555
O0 Sr3 2.612826 1_555
O0 Sr5 2.630482 1_556
O0 Sr2 2.759166 1_555
O1 Rh1 2.049979 1_555
O1 Sr4 2.456802 1_555
O1 Sr5 2.585847 1_555
O1 Sr2 2.612825 1_555
O1 Sr7 2.630482 1_565
O1 Sr0 2.759166 1_555
O2 Rh0 2.049979 1_655
O2 Sr6 2.456802 1_655
O2 Sr3 2.585847 1_554
O2 Sr1 2.612825 1_654
O2 Sr0 2.630482 1_555
O2 Sr7 2.759165 1_555
O3 Rh1 2.049979 1_555
O3 Sr6 2.456801 1_555
O3 Sr0 2.585847 1_555
O3 Sr5 2.612826 1_555
O3 Sr3 2.630482 1_554
O3 Sr7 2.759166 1_555
O4 Rh1 2.049979 1_555
O4 Sr6 2.456802 1_555
O4 Sr2 2.585847 1_555
O4 Sr1 2.612825 1_555
O4 Sr0 2.630482 1_455
O4 Sr5 2.759165 1_555
O5 Rh0 2.049979 1_566
O5 Sr4 2.456802 1_455
O5 Sr5 2.585847 1_556
O5 Sr0 2.612825 1_456
O5 Sr1 2.630482 1_555
O5 Sr2 2.759165 1_555
O6 Rh1 2.049979 1_555
O6 Sr4 2.456802 1_555
O6 Sr7 2.585847 1_555
O6 Sr0 2.612825 1_555
O6 Sr1 2.630482 1_655
O6 Sr3 2.759165 1_555
O7 Rh0 2.049979 1_665
O7 Sr4 2.456802 1_554
O7 Sr7 2.585847 1_565
O7 Sr3 2.612825 1_564
O7 Sr5 2.630482 1_555
O7 Sr0 2.759166 1_555
O8 Rh0 2.049979 1_565
O8 Sr6 2.456801 1_565
O8 Sr0 2.585847 1_455
O8 Sr7 2.612826 1_465
O8 Sr2 2.630482 1_555
O8 Sr5 2.759166 1_555
O9 Rh0 2.049979 1_656
O9 Sr4 2.456801 1_545
O9 Sr1 2.585847 1_655
O9 Sr2 2.612826 1_645
O9 Sr7 2.630482 1_555
O9 Sr3 2.759166 1_555
O10 Rh1 2.049979 1_555
O10 Sr6 2.456802 1_555
O10 Sr3 2.585847 1_555
O10 Sr7 2.612825 1_555
O10 Sr2 2.630482 1_545
O10 Sr1 2.759166 1_555
O11 Rh0 2.049979 1_556
O11 Sr6 2.456802 1_556
O11 Sr2 2.585847 1_545
O11 Sr5 2.612825 1_546
O11 Sr3 2.630482 1_555
O11 Sr1 2.759166 1_555
