# generated using pymatgen
data_KNO3
_symmetry_space_group_name_H-M   'P 1'
_cell_length_a   5.41092660
_cell_length_b   6.18542073
_cell_length_c   9.15028024
_cell_angle_alpha   90.00000000
_cell_angle_beta   90.00000000
_cell_angle_gamma   90.00000000
_symmetry_Int_Tables_number   1
_chemical_formula_structural   KNO3
_chemical_formula_sum   'K4 N4 O12'
_cell_volume   306.24942599
_cell_formula_units_Z   4
loop_
 _symmetry_equiv_pos_site_id
 _symmetry_equiv_pos_as_xyz
  1  'x, y, z'
loop_
 _atom_site_type_symbol
 _atom_site_label
 _atom_site_symmetry_multiplicity
 _atom_site_fract_x
 _atom_site_fract_y
 _atom_site_fract_z
 _atom_site_occupancy
  K  K0  1  0.25000000  0.75417199  0.08367742  1
  K  K1  1  0.75000000  0.24582801  0.91632258  1
  K  K2  1  0.25000000  0.25417199  0.41632258  1
  K  K3  1  0.75000000  0.74582801  0.58367742  1
  N  N0  1  0.25000000  0.91151374  0.74561936  1
  N  N1  1  0.75000000  0.08848626  0.25438064  1
  N  N2  1  0.25000000  0.41151374  0.75438064  1
  N  N3  1  0.75000000  0.58848626  0.24561936  1
  O  O0  1  0.45193443  0.41164373  0.68537944  1
  O  O1  1  0.95193443  0.58835627  0.31462056  1
  O  O2  1  0.04806557  0.91164373  0.81462056  1
  O  O3  1  0.54806557  0.08835627  0.18537944  1
  O  O4  1  0.75000000  0.59277437  0.10783067  1
  O  O5  1  0.25000000  0.40722563  0.89216933  1
  O  O6  1  0.75000000  0.09277437  0.39216933  1
  O  O7  1  0.25000000  0.90722563  0.60783067  1
  O  O8  1  0.54806557  0.58835627  0.31462056  1
  O  O9  1  0.04806557  0.41164373  0.68537944  1
  O  O10  1  0.95193443  0.08835627  0.18537944  1
  O  O11  1  0.45193443  0.91164373  0.81462056  1
loop_
_geom_bond_atom_site_label_1
_geom_bond_atom_site_label_2
_geom_bond_distance
_geom_bond_site_symmetry_2
K0 O5 2.770577 1_554
K0 O10 2.782078 1_465
K0 O3 2.782078 1_565
K0 O8 2.849331 1_555
K0 O1 2.849331 1_455
K0 O11 2.864227 1_554
K0 O2 2.864227 1_554
K0 O4 2.892232 1_455
K0 O4 2.892232 1_555
K1 O4 2.770577 1_556
K1 O2 2.782078 1_645
K1 O11 2.782078 1_545
K1 O9 2.849331 1_655
K1 O0 2.849331 1_555
K1 O3 2.864227 1_556
K1 O10 2.864227 1_556
K1 O5 2.892232 1_555
K1 O5 2.892232 1_655
K2 O7 2.770577 1_545
K2 O8 2.782078 1_555
K2 O1 2.782078 1_455
K2 O10 2.849331 1_455
K2 O3 2.849331 1_555
K2 O9 2.864227 1_555
K2 O0 2.864227 1_555
K2 O6 2.892232 1_455
K2 O6 2.892232 1_555
K3 O6 2.770577 1_565
K3 O9 2.782078 1_655
K3 O0 2.782078 1_555
K3 O11 2.849331 1_555
K3 O2 2.849331 1_655
K3 O8 2.864227 1_555
K3 O1 2.864227 1_555
K3 O7 2.892232 1_555
K3 O7 2.892232 1_655
N0 O7 1.261084 1_555
N0 O2 1.261955 1_555
N0 O11 1.261955 1_555
N1 O6 1.261084 1_555
N1 O10 1.261955 1_555
N1 O3 1.261955 1_555
N2 O5 1.261084 1_555
N2 O0 1.261955 1_555
N2 O9 1.261955 1_555
N3 O4 1.261084 1_555
N3 O1 1.261955 1_555
N3 O8 1.261955 1_555
