# generated using pymatgen
data_NaCrO2
_symmetry_space_group_name_H-M   'P 1'
_cell_length_a   5.53058012
_cell_length_b   5.53057935
_cell_length_c   5.53058011
_cell_angle_alpha   31.37470422
_cell_angle_beta   31.37471575
_cell_angle_gamma   31.37471275
_symmetry_Int_Tables_number   1
_chemical_formula_structural   NaCrO2
_chemical_formula_sum   'Na1 Cr1 O2'
_cell_volume   40.70107946
_cell_formula_units_Z   1
loop_
 _symmetry_equiv_pos_site_id
 _symmetry_equiv_pos_as_xyz
  1  'x, y, z'
loop_
 _atom_site_type_symbol
 _atom_site_label
 _atom_site_symmetry_multiplicity
 _atom_site_fract_x
 _atom_site_fract_y
 _atom_site_fract_z
 _atom_site_occupancy
  Na  Na0  1  0.50000000  0.50000000  0.50000000  1
  Cr  Cr0  1  -0.00000000  0.00000000  0.00000000  1
  O  O0  1  0.26719628  0.26719628  0.26719628  1
  O  O1  1  0.73280372  0.73280372  0.73280372  1
loop_
_geom_bond_atom_site_label_1
_geom_bond_atom_site_label_2
_geom_bond_distance
_geom_bond_site_symmetry_2
Na0 O1 2.343615 1_545
Na0 O0 2.343615 1_565
Na0 O1 2.343616 1_554
Na0 O0 2.343616 1_556
Na0 O1 2.343616 1_455
Na0 O0 2.343616 1_655
Cr0 O0 2.017024 1_545
Cr0 O1 2.017024 1_454
Cr0 O0 2.017025 1_554
Cr0 O1 2.017025 1_445
Cr0 O0 2.017025 1_455
Cr0 O1 2.017025 1_544
