# generated using pymatgen
data_Sc3CoC4
_symmetry_space_group_name_H-M   'P 1'
_cell_length_a   3.43701864
_cell_length_b   4.32218057
_cell_length_c   6.57931040
_cell_angle_alpha   109.17580164
_cell_angle_beta   105.14120883
_cell_angle_gamma   90.00000134
_symmetry_Int_Tables_number   1
_chemical_formula_structural   Sc3CoC4
_chemical_formula_sum   'Sc3 Co1 C4'
_cell_volume   88.71523936
_cell_formula_units_Z   1
loop_
 _symmetry_equiv_pos_site_id
 _symmetry_equiv_pos_as_xyz
  1  'x, y, z'
loop_
 _atom_site_type_symbol
 _atom_site_label
 _atom_site_symmetry_multiplicity
 _atom_site_fract_x
 _atom_site_fract_y
 _atom_site_fract_z
 _atom_site_occupancy
  Sc  Sc0  1  -0.00000000  0.50000000  -0.00000000  1
  Sc  Sc1  1  0.18816334  0.18816334  0.37632669  1
  Sc  Sc2  1  0.81183666  0.81183666  0.62367331  1
  Co  Co0  1  0.50000000  0.00000000  -0.00000000  1
  C  C0  1  0.37659486  0.20873318  0.75319073  1
  C  C1  1  0.62340514  0.79126682  0.24680927  1
  C  C2  1  0.62340514  0.45554445  0.24680927  1
  C  C3  1  0.37659486  0.54445555  0.75319073  1
loop_
_geom_bond_atom_site_label_1
_geom_bond_atom_site_label_2
_geom_bond_distance
_geom_bond_site_symmetry_2
C0 C3 1.451053 1_555
C0 Co0 2.057494 1_556
C0 Sc1 2.364655 1_555
C0 Sc2 2.369040 1_445
C0 Sc2 2.369042 1_545
C0 Sc0 2.377417 1_556
C0 Sc0 2.377420 1_656
C1 C2 1.451053 1_555
C1 Co0 2.057494 1_565
C1 Sc2 2.364655 1_555
C1 Sc1 2.369040 1_665
C1 Sc1 2.369042 1_565
C1 Sc0 2.377417 1_655
C1 Sc0 2.377420 1_555
C2 Co0 2.057500 1_555
C2 Sc2 2.364652 1_555
C2 Sc1 2.369045 1_655
C2 Sc1 2.369048 1_555
C2 Sc0 2.377415 1_655
C2 Sc0 2.377417 1_555
C3 Co0 2.057500 1_566
C3 Sc1 2.364652 1_555
C3 Sc2 2.369045 1_455
C3 Sc2 2.369048 1_555
C3 Sc0 2.377415 1_556
C3 Sc0 2.377417 1_656
