# generated using pymatgen
data_K4(CoO2)7
_symmetry_space_group_name_H-M   'P 1'
_cell_length_a   7.84531021
_cell_length_b   7.84531021
_cell_length_c   12.69915100
_cell_angle_alpha   90.00000000
_cell_angle_beta   90.00000000
_cell_angle_gamma   120.00000175
_symmetry_Int_Tables_number   1
_chemical_formula_structural   K4(CoO2)7
_chemical_formula_sum   'K8 Co14 O28'
_cell_volume   676.90161805
_cell_formula_units_Z   2
loop_
 _symmetry_equiv_pos_site_id
 _symmetry_equiv_pos_as_xyz
  1  'x, y, z'
loop_
 _atom_site_type_symbol
 _atom_site_label
 _atom_site_symmetry_multiplicity
 _atom_site_fract_x
 _atom_site_fract_y
 _atom_site_fract_z
 _atom_site_occupancy
  K  K0  1  0.42057400  0.97217000  0.75000000  1
  K  K1  1  0.02783000  0.44840300  0.75000000  1
  K  K2  1  0.57942600  0.02783000  0.25000000  1
  K  K3  1  0.55159700  0.57942600  0.75000000  1
  K  K4  1  0.44840300  0.42057400  0.25000000  1
  K  K5  1  0.00000000  0.00000000  0.75000000  1
  K  K6  1  0.97217000  0.55159700  0.25000000  1
  K  K7  1  0.00000000  0.00000000  0.25000000  1
  Co  Co0  1  0.28345500  0.42930100  0.50588700  1
  Co  Co1  1  0.71654500  0.57069900  0.00588700  1
  Co  Co2  1  0.57069900  0.85415400  0.50588700  1
  Co  Co3  1  0.14584600  0.71654500  0.50588700  1
  Co  Co4  1  0.42930100  0.14584600  0.00588700  1
  Co  Co5  1  0.85415400  0.28345500  0.49411300  1
  Co  Co6  1  0.14584600  0.71654500  0.99411300  1
  Co  Co7  1  0.00000000  0.00000000  0.00000000  1
  Co  Co8  1  0.57069900  0.85415400  0.99411300  1
  Co  Co9  1  0.71654500  0.57069900  0.49411300  1
  Co  Co10  1  0.28345500  0.42930100  0.99411300  1
  Co  Co11  1  0.85415400  0.28345500  0.00588700  1
  Co  Co12  1  0.00000000  0.00000000  0.50000000  1
  Co  Co13  1  0.42930100  0.14584600  0.49411300  1
  O  O0  1  0.66666700  0.33333300  0.09529200  1
  O  O1  1  0.36987900  0.90107200  0.07629900  1
  O  O2  1  0.63012100  0.09892800  0.92370100  1
  O  O3  1  0.33333300  0.66666700  0.90470800  1
  O  O4  1  0.90107200  0.53119300  0.57629900  1
  O  O5  1  0.66666700  0.33333300  0.40470800  1
  O  O6  1  0.04289800  0.21994900  0.91855700  1
  O  O7  1  0.36987900  0.90107200  0.42370100  1
  O  O8  1  0.53119300  0.63012100  0.42370100  1
  O  O9  1  0.78005100  0.82294900  0.91855700  1
  O  O10  1  0.17705100  0.95710200  0.91855700  1
  O  O11  1  0.21994900  0.17705100  0.08144300  1
  O  O12  1  0.46880700  0.36987900  0.57629900  1
  O  O13  1  0.46880700  0.36987900  0.92370100  1
  O  O14  1  0.09892800  0.46880700  0.42370100  1
  O  O15  1  0.53119300  0.63012100  0.07629900  1
  O  O16  1  0.21994900  0.17705100  0.41855700  1
  O  O17  1  0.17705100  0.95710200  0.58144300  1
  O  O18  1  0.82294900  0.04289800  0.08144300  1
  O  O19  1  0.78005100  0.82294900  0.58144300  1
  O  O20  1  0.09892800  0.46880700  0.07629900  1
  O  O21  1  0.95710200  0.78005100  0.41855700  1
  O  O22  1  0.95710200  0.78005100  0.08144300  1
  O  O23  1  0.04289800  0.21994900  0.58144300  1
  O  O24  1  0.82294900  0.04289800  0.41855700  1
  O  O25  1  0.63012100  0.09892800  0.57629900  1
  O  O26  1  0.33333300  0.66666700  0.59529200  1
  O  O27  1  0.90107200  0.53119300  0.92370100  1
loop_
_geom_bond_atom_site_label_1
_geom_bond_atom_site_label_2
_geom_bond_distance
_geom_bond_site_symmetry_2
K0 O25 2.631065 1_565
K0 O2 2.631065 1_565
K0 O10 2.831971 1_555
K0 O17 2.831971 1_555
K0 O3 2.903859 1_555
K0 O26 2.903859 1_555
K1 O27 2.631068 1_455
K1 O4 2.631068 1_455
K1 O6 2.831966 1_555
K1 O23 2.831966 1_555
K1 O26 2.903862 1_555
K1 O3 2.903862 1_555
K2 O1 2.631065 1_545
K2 O7 2.631065 1_545
K2 O18 2.831971 1_555
K2 O24 2.831971 1_555
K2 O0 2.903859 1_555
K2 O5 2.903859 1_555
K3 O12 2.631064 1_555
K3 O13 2.631064 1_555
K3 O9 2.831969 1_555
K3 O19 2.831969 1_555
K3 O3 2.903871 1_555
K3 O26 2.903871 1_555
K4 O15 2.631064 1_555
K4 O8 2.631064 1_555
K4 O16 2.831969 1_555
K4 O11 2.831969 1_555
K4 O0 2.903871 1_555
K4 O5 2.903871 1_555
K5 O9 2.663078 1_445
K5 O19 2.663078 1_445
K5 O6 2.663078 1_555
K5 O23 2.663078 1_555
K5 O10 2.663078 1_545
K5 O17 2.663078 1_545
K6 O14 2.631068 1_655
K6 O20 2.631068 1_655
K6 O22 2.831966 1_555
K6 O21 2.831966 1_555
K6 O5 2.903862 1_555
K6 O0 2.903862 1_555
K7 O11 2.663078 1_555
K7 O16 2.663078 1_555
K7 O22 2.663078 1_445
K7 O21 2.663078 1_445
K7 O24 2.663078 1_455
K7 O18 2.663078 1_455
Co0 O14 1.931268 1_555
Co0 O12 1.951744 1_555
Co0 O23 2.019960 1_555
Co0 O26 2.044825 1_555
Co0 O8 2.070479 1_555
Co0 O16 2.099650 1_555
Co1 O27 1.931268 1_554
Co1 O15 1.951744 1_555
Co1 O22 2.019960 1_555
Co1 O0 2.044825 1_555
Co1 O13 2.070479 1_554
Co1 O9 2.099650 1_554
Co2 O8 1.931268 1_555
Co2 O25 1.951744 1_565
Co2 O19 2.019960 1_555
Co2 O26 2.044823 1_555
Co2 O7 2.070479 1_555
Co2 O24 2.099650 1_565
Co3 O7 1.931268 1_555
Co3 O4 1.951744 1_455
Co3 O17 2.019960 1_555
Co3 O26 2.044819 1_555
Co3 O14 2.070479 1_555
Co3 O21 2.099650 1_455
Co4 O13 1.931268 1_554
Co4 O1 1.951744 1_545
Co4 O11 2.019960 1_555
Co4 O0 2.044823 1_555
Co4 O2 2.070479 1_554
Co4 O10 2.099650 1_544
Co5 O25 1.931268 1_555
Co5 O14 1.951744 1_655
Co5 O24 2.019960 1_555
Co5 O5 2.044819 1_555
Co5 O4 2.070479 1_555
Co5 O23 2.099650 1_655
Co6 O1 1.931268 1_556
Co6 O27 1.951744 1_455
Co6 O10 2.019960 1_555
Co6 O3 2.044819 1_555
Co6 O20 2.070479 1_556
Co6 O22 2.099650 1_456
Co7 O9 1.892036 1_444
Co7 O11 1.892036 1_555
Co7 O22 1.892036 1_445
Co7 O6 1.892036 1_554
Co7 O18 1.892036 1_455
Co7 O10 1.892036 1_544
Co8 O15 1.931268 1_556
Co8 O2 1.951744 1_565
Co8 O9 2.019960 1_555
Co8 O3 2.044823 1_555
Co8 O1 2.070479 1_556
Co8 O18 2.099650 1_566
Co9 O4 1.931268 1_555
Co9 O8 1.951744 1_555
Co9 O21 2.019960 1_555
Co9 O5 2.044825 1_555
Co9 O12 2.070479 1_555
Co9 O19 2.099650 1_555
Co10 O20 1.931268 1_556
Co10 O13 1.951744 1_555
Co10 O6 2.019960 1_555
Co10 O3 2.044825 1_555
Co10 O15 2.070479 1_556
Co10 O11 2.099650 1_556
Co11 O2 1.931268 1_554
Co11 O20 1.951744 1_655
Co11 O18 2.019960 1_555
Co11 O0 2.044819 1_555
Co11 O27 2.070479 1_554
Co11 O6 2.099650 1_654
Co12 O19 1.892036 1_445
Co12 O16 1.892036 1_555
Co12 O21 1.892036 1_445
Co12 O23 1.892036 1_555
Co12 O24 1.892036 1_455
Co12 O17 1.892036 1_545
Co13 O12 1.931268 1_555
Co13 O7 1.951744 1_545
Co13 O16 2.019960 1_555
Co13 O5 2.044823 1_555
Co13 O25 2.070479 1_555
Co13 O17 2.099650 1_545
