# generated using pymatgen
data_La3Si2S8Cl
_symmetry_space_group_name_H-M   'P 1'
_cell_length_a   8.80395486
_cell_length_b   8.80395486
_cell_length_c   11.09031616
_cell_angle_alpha   83.87205775
_cell_angle_beta   83.87205775
_cell_angle_gamma   52.62454297
_symmetry_Int_Tables_number   1
_chemical_formula_structural   La3Si2S8Cl
_chemical_formula_sum   'La6 Si4 S16 Cl2'
_cell_volume   678.24617050
_cell_formula_units_Z   2
loop_
 _symmetry_equiv_pos_site_id
 _symmetry_equiv_pos_as_xyz
  1  'x, y, z'
loop_
 _atom_site_type_symbol
 _atom_site_label
 _atom_site_symmetry_multiplicity
 _atom_site_fract_x
 _atom_site_fract_y
 _atom_site_fract_z
 _atom_site_occupancy
  La  La0  1  0.07259273  0.31122261  0.81444781  1
  La  La1  1  0.68877739  0.92740727  0.68555219  1
  La  La2  1  0.31122261  0.07259273  0.31444781  1
  La  La3  1  0.61666633  0.38333367  0.25000000  1
  La  La4  1  0.92740727  0.68877739  0.18555219  1
  La  La5  1  0.38333367  0.61666633  0.75000000  1
  Si  Si0  1  0.37094228  0.30820130  0.03051929  1
  Si  Si1  1  0.62905772  0.69179870  0.96948071  1
  Si  Si2  1  0.69179870  0.62905772  0.46948071  1
  Si  Si3  1  0.30820130  0.37094228  0.53051929  1
  S  S0  1  0.72013988  0.41198968  0.94783884  1
  S  S1  1  0.44132792  0.26142184  0.84337211  1
  S  S2  1  0.89334653  0.40066986  0.35844213  1
  S  S3  1  0.40066986  0.89334653  0.85844213  1
  S  S4  1  0.73857816  0.55867208  0.65662789  1
  S  S5  1  0.27986012  0.58801032  0.05216116  1
  S  S6  1  0.85683774  0.70994000  0.91562528  1
  S  S7  1  0.26142184  0.44132792  0.34337211  1
  S  S8  1  0.58801032  0.27986012  0.55216116  1
  S  S9  1  0.29006000  0.14316226  0.58437472  1
  S  S10  1  0.14316226  0.29006000  0.08437472  1
  S  S11  1  0.41198968  0.72013988  0.44783884  1
  S  S12  1  0.70994000  0.85683774  0.41562528  1
  S  S13  1  0.59933014  0.10665347  0.14155787  1
  S  S14  1  0.10665347  0.59933014  0.64155787  1
  S  S15  1  0.55867208  0.73857816  0.15662789  1
  Cl  Cl0  1  0.00476715  0.99523285  0.75000000  1
  Cl  Cl1  1  0.99523285  0.00476715  0.25000000  1
loop_
_geom_bond_atom_site_label_1
_geom_bond_atom_site_label_2
_geom_bond_distance
_geom_bond_site_symmetry_2
La0 S0 2.926097 1_455
La0 S9 2.947745 1_555
La0 S4 2.993988 1_455
La0 S3 3.021951 1_545
La0 S1 3.049271 1_555
La0 S6 3.078966 1_455
La0 S10 3.085397 1_556
La0 S14 3.156337 1_555
La1 S8 2.926097 1_565
La1 S6 2.947745 1_555
La1 S1 2.993988 1_565
La1 S14 3.021951 1_655
La1 S4 3.049271 1_555
La1 S9 3.078966 1_565
La1 S12 3.085397 1_555
La1 S3 3.156337 1_555
La2 S11 2.926097 1_545
La2 S10 2.947745 1_555
La2 S15 2.993988 1_545
La2 S2 3.021951 1_455
La2 S7 3.049271 1_555
La2 S12 3.078966 1_545
La2 S9 3.085397 1_555
La2 S13 3.156337 1_555
La3 S2 2.918767 1_555
La3 S13 2.918767 1_555
La3 S15 2.932122 1_555
La3 S7 2.932122 1_555
La3 S11 3.303263 1_555
La3 S5 3.303263 1_555
La3 S0 3.401459 1_554
La3 S8 3.401459 1_555
La4 S5 2.926097 1_655
La4 S12 2.947745 1_555
La4 S7 2.993988 1_655
La4 S13 3.021951 1_565
La4 S15 3.049271 1_555
La4 S10 3.078966 1_655
La4 S6 3.085397 1_554
La4 S2 3.156337 1_555
La5 S3 2.918767 1_555
La5 S14 2.918767 1_555
La5 S4 2.932122 1_555
La5 S1 2.932122 1_555
La5 S8 3.303263 1_555
La5 S0 3.303263 1_555
La5 S11 3.401459 1_555
La5 S5 3.401459 1_556
S0 Si1 2.110920 1_555
S1 Si0 2.111744 1_556
S2 Si2 2.106779 1_555
S3 Si1 2.106779 1_555
S4 Si2 2.111744 1_555
S5 Si0 2.110920 1_555
S6 Si1 2.125206 1_555
S7 Si3 2.111744 1_555
S8 Si3 2.110920 1_555
S9 Si3 2.125206 1_555
S10 Si0 2.125206 1_555
S11 Si2 2.110920 1_555
S12 Si2 2.125206 1_555
S13 Si0 2.106779 1_555
S14 Si3 2.106779 1_555
S15 Si1 2.111744 1_554
Cl0 La5 2.954688 1_555
Cl0 La0 3.337542 1_565
Cl0 La1 3.337542 1_455
Cl1 La3 2.954688 1_555
Cl1 La2 3.337542 1_655
Cl1 La4 3.337542 1_545
