# generated using pymatgen
data_Ni5Sn(BO5)2
_symmetry_space_group_name_H-M   'P 1'
_cell_length_a   6.17630400
_cell_length_b   9.39444700
_cell_length_c   12.40123500
_cell_angle_alpha   90.00000000
_cell_angle_beta   90.00000000
_cell_angle_gamma   90.00000000
_symmetry_Int_Tables_number   1
_chemical_formula_structural   Ni5Sn(BO5)2
_chemical_formula_sum   'Ni20 Sn4 B8 O40'
_cell_volume   719.55636960
_cell_formula_units_Z   4
loop_
 _symmetry_equiv_pos_site_id
 _symmetry_equiv_pos_as_xyz
  1  'x, y, z'
loop_
 _atom_site_type_symbol
 _atom_site_label
 _atom_site_symmetry_multiplicity
 _atom_site_fract_x
 _atom_site_fract_y
 _atom_site_fract_z
 _atom_site_occupancy
  Ni  Ni0  1  0.25000000  0.75947400  0.61419400  1
  Ni  Ni1  1  0.75000000  0.99064900  0.00054900  1
  Ni  Ni2  1  0.75000000  0.74052600  0.11419400  1
  Ni  Ni3  1  0.50461100  0.50351500  0.28194200  1
  Ni  Ni4  1  0.75000000  0.49064900  0.49945100  1
  Ni  Ni5  1  0.00461100  0.49648500  0.71805800  1
  Ni  Ni6  1  0.99538900  0.00351500  0.21805800  1
  Ni  Ni7  1  0.00461100  0.99648500  0.78194200  1
  Ni  Ni8  1  0.25000000  0.25947400  0.88580600  1
  Ni  Ni9  1  0.49538900  0.49648500  0.71805800  1
  Ni  Ni10  1  0.25000000  0.00935100  0.99945100  1
  Ni  Ni11  1  0.49538900  0.99648500  0.78194200  1
  Ni  Ni12  1  0.99538900  0.50351500  0.28194200  1
  Ni  Ni13  1  0.50000000  0.00000000  0.50000000  1
  Ni  Ni14  1  0.50461100  0.00351500  0.21805800  1
  Ni  Ni15  1  0.75000000  0.24052600  0.38580600  1
  Ni  Ni16  1  0.25000000  0.50935100  0.50054900  1
  Ni  Ni17  1  0.50000000  0.50000000  0.00000000  1
  Ni  Ni18  1  0.00000000  0.50000000  0.00000000  1
  Ni  Ni19  1  0.00000000  0.00000000  0.50000000  1
  Sn  Sn0  1  0.25000000  0.74098500  0.11634900  1
  Sn  Sn1  1  0.25000000  0.24098500  0.38365100  1
  Sn  Sn2  1  0.75000000  0.25901500  0.88365100  1
  Sn  Sn3  1  0.75000000  0.75901500  0.61634900  1
  B  B0  1  0.75000000  0.77308400  0.35744600  1
  B  B1  1  0.25000000  0.77823400  0.36370000  1
  B  B2  1  0.25000000  0.22691600  0.64255400  1
  B  B3  1  0.25000000  0.27823400  0.13630000  1
  B  B4  1  0.25000000  0.72691600  0.85744600  1
  B  B5  1  0.75000000  0.72176600  0.86370000  1
  B  B6  1  0.75000000  0.22176600  0.63630000  1
  B  B7  1  0.75000000  0.27308400  0.14255400  1
  O  O0  1  0.49060000  0.39013000  0.42146900  1
  O  O1  1  0.99980800  0.60496700  0.14270200  1
  O  O2  1  0.75000000  0.12533500  0.14118700  1
  O  O3  1  0.00940000  0.89013000  0.07853100  1
  O  O4  1  0.25000000  0.13126500  0.14125900  1
  O  O5  1  0.25000000  0.65023500  0.95560200  1
  O  O6  1  0.99980800  0.10496700  0.35729800  1
  O  O7  1  0.50940000  0.10987000  0.92146900  1
  O  O8  1  0.75000000  0.34976500  0.04439800  1
  O  O9  1  0.75000000  0.84950200  0.26234900  1
  O  O10  1  0.75000000  0.14481300  0.73406500  1
  O  O11  1  0.99060000  0.60987000  0.57853100  1
  O  O12  1  0.25000000  0.35518700  0.23406500  1
  O  O13  1  0.25000000  0.87466500  0.85881300  1
  O  O14  1  0.49980800  0.89503300  0.64270200  1
  O  O15  1  0.25000000  0.37466500  0.64118700  1
  O  O16  1  0.25000000  0.85518700  0.26593500  1
  O  O17  1  0.75000000  0.14675300  0.54071400  1
  O  O18  1  0.75000000  0.64481300  0.76593500  1
  O  O19  1  0.00019200  0.89503300  0.64270200  1
  O  O20  1  0.75000000  0.84976500  0.45560200  1
  O  O21  1  0.50019200  0.10496700  0.35729800  1
  O  O22  1  0.49060000  0.89013000  0.07853100  1
  O  O23  1  0.50019200  0.60496700  0.14270200  1
  O  O24  1  0.00019200  0.39503300  0.85729800  1
  O  O25  1  0.25000000  0.65049800  0.76234900  1
  O  O26  1  0.49980800  0.39503300  0.85729800  1
  O  O27  1  0.99060000  0.10987000  0.92146900  1
  O  O28  1  0.25000000  0.15049800  0.73765100  1
  O  O29  1  0.75000000  0.64675300  0.95928600  1
  O  O30  1  0.00940000  0.39013000  0.42146900  1
  O  O31  1  0.50940000  0.60987000  0.57853100  1
  O  O32  1  0.75000000  0.36873500  0.64125900  1
  O  O33  1  0.25000000  0.15023500  0.54439800  1
  O  O34  1  0.25000000  0.63126500  0.35874100  1
  O  O35  1  0.75000000  0.86873500  0.85874100  1
  O  O36  1  0.25000000  0.85324700  0.45928600  1
  O  O37  1  0.75000000  0.34950200  0.23765100  1
  O  O38  1  0.25000000  0.35324700  0.04071400  1
  O  O39  1  0.75000000  0.62533500  0.35881300  1
loop_
_geom_bond_atom_site_label_1
_geom_bond_atom_site_label_2
_geom_bond_distance
_geom_bond_site_symmetry_2
Ni0 O14 2.031577 1_555
Ni0 O19 2.031577 1_555
Ni0 O25 2.103281 1_555
Ni0 O36 2.113410 1_555
Ni0 O31 2.176628 1_555
Ni0 O11 2.176628 1_455
Ni1 O22 2.096140 1_555
Ni1 O3 2.096140 1_655
Ni1 O35 2.098666 1_554
Ni1 O27 2.103435 1_564
Ni1 O7 2.103435 1_564
Ni1 O2 2.154720 1_565
Ni2 O1 2.031577 1_555
Ni2 O23 2.031577 1_555
Ni2 O9 2.103281 1_555
Ni2 O29 2.113410 1_554
Ni2 O22 2.176628 1_555
Ni2 O3 2.176628 1_655
Ni3 O23 1.972505 1_555
Ni3 O0 2.033735 1_555
Ni3 O39 2.124978 1_555
Ni3 O37 2.166137 1_555
Ni3 O12 2.183387 1_555
Ni3 O34 2.195527 1_555
Ni4 O0 2.096140 1_555
Ni4 O30 2.096140 1_655
Ni4 O32 2.098666 1_555
Ni4 O31 2.103435 1_555
Ni4 O11 2.103435 1_555
Ni4 O39 2.154720 1_555
Ni5 O24 1.972505 1_555
Ni5 O11 2.033735 1_455
Ni5 O15 2.124978 1_555
Ni5 O25 2.166137 1_555
Ni5 O18 2.183387 1_455
Ni5 O32 2.195527 1_455
Ni6 O6 1.972505 1_555
Ni6 O3 2.033735 1_645
Ni6 O2 2.124978 1_555
Ni6 O9 2.166137 1_545
Ni6 O16 2.183387 1_645
Ni6 O4 2.195527 1_655
Ni7 O19 1.972505 1_555
Ni7 O27 2.033735 1_465
Ni7 O13 2.124978 1_555
Ni7 O28 2.166137 1_565
Ni7 O10 2.183387 1_465
Ni7 O35 2.195527 1_455
Ni8 O24 2.031577 1_555
Ni8 O26 2.031577 1_555
Ni8 O28 2.103281 1_555
Ni8 O38 2.113410 1_556
Ni8 O7 2.176628 1_555
Ni8 O27 2.176628 1_455
Ni9 O26 1.972505 1_555
Ni9 O31 2.033735 1_555
Ni9 O15 2.124978 1_555
Ni9 O25 2.166137 1_555
Ni9 O18 2.183387 1_555
Ni9 O32 2.195527 1_555
Ni10 O7 2.096140 1_555
Ni10 O27 2.096140 1_455
Ni10 O4 2.098666 1_556
Ni10 O22 2.103435 1_546
Ni10 O3 2.103435 1_546
Ni10 O13 2.154720 1_545
Ni11 O14 1.972505 1_555
Ni11 O7 2.033735 1_565
Ni11 O13 2.124978 1_555
Ni11 O28 2.166137 1_565
Ni11 O10 2.183387 1_565
Ni11 O35 2.195527 1_555
Ni12 O1 1.972505 1_555
Ni12 O30 2.033735 1_655
Ni12 O39 2.124978 1_555
Ni12 O37 2.166137 1_555
Ni12 O12 2.183387 1_655
Ni12 O34 2.195527 1_655
Ni13 O14 2.025877 1_545
Ni13 O21 2.025877 1_555
Ni13 O36 2.130683 1_545
Ni13 O17 2.130683 1_555
Ni13 O20 2.163169 1_545
Ni13 O33 2.163169 1_555
Ni14 O21 1.972505 1_555
Ni14 O22 2.033735 1_545
Ni14 O2 2.124978 1_555
Ni14 O9 2.166137 1_545
Ni14 O16 2.183387 1_545
Ni14 O4 2.195527 1_555
Ni15 O21 2.031577 1_555
Ni15 O6 2.031577 1_555
Ni15 O37 2.103281 1_555
Ni15 O17 2.113410 1_555
Ni15 O0 2.176628 1_555
Ni15 O30 2.176628 1_655
Ni16 O11 2.096140 1_455
Ni16 O31 2.096140 1_555
Ni16 O34 2.098666 1_555
Ni16 O0 2.103435 1_555
Ni16 O30 2.103435 1_555
Ni16 O15 2.154720 1_555
Ni17 O26 2.025877 1_554
Ni17 O23 2.025877 1_555
Ni17 O38 2.130683 1_555
Ni17 O29 2.130683 1_554
Ni17 O8 2.163169 1_555
Ni17 O5 2.163169 1_554
Ni18 O24 2.025877 1_554
Ni18 O1 2.025877 1_455
Ni18 O29 2.130683 1_454
Ni18 O38 2.130683 1_555
Ni18 O8 2.163169 1_455
Ni18 O5 2.163169 1_554
Ni19 O19 2.025877 1_545
Ni19 O6 2.025877 1_455
Ni19 O17 2.130683 1_455
Ni19 O36 2.130683 1_545
Ni19 O20 2.163169 1_445
Ni19 O33 2.163169 1_555
B0 O9 1.380646 1_555
B0 O39 1.388124 1_555
B0 O20 1.414444 1_555
B1 O36 1.379038 1_555
B1 O34 1.382061 1_555
B1 O16 1.411580 1_555
B2 O28 1.380646 1_555
B2 O15 1.388124 1_555
B2 O33 1.414444 1_555
B3 O38 1.379038 1_555
B3 O4 1.382061 1_555
B3 O12 1.411580 1_555
B4 O25 1.380646 1_555
B4 O13 1.388124 1_555
B4 O5 1.414444 1_555
B5 O29 1.379038 1_555
B5 O35 1.382061 1_555
B5 O18 1.411580 1_555
B6 O17 1.379038 1_555
B6 O32 1.382061 1_555
B6 O10 1.411580 1_555
B7 O37 1.380646 1_555
B7 O2 1.388124 1_555
B7 O8 1.414444 1_555
O0 Sn1 2.095562 1_555
O1 Sn0 2.031612 1_655
O3 Sn0 2.095562 1_555
O5 Sn0 2.168115 1_556
O6 Sn1 2.031612 1_655
O7 Sn2 2.095562 1_555
O8 Sn2 2.168115 1_554
O10 Sn2 2.142954 1_555
O11 Sn3 2.095562 1_555
O12 Sn1 2.142954 1_555
O14 Sn3 2.031612 1_555
O16 Sn0 2.142954 1_555
O18 Sn3 2.142954 1_555
O19 Sn3 2.031612 1_455
O20 Sn3 2.168115 1_555
O21 Sn1 2.031612 1_555
O22 Sn0 2.095562 1_555
O23 Sn0 2.031612 1_555
O24 Sn2 2.031612 1_455
O26 Sn2 2.031612 1_555
O27 Sn2 2.095562 1_555
O30 Sn1 2.095562 1_555
O31 Sn3 2.095562 1_555
O33 Sn1 2.168115 1_555
