# generated using pymatgen
data_LiBeH3
_symmetry_space_group_name_H-M   'P 1'
_cell_length_a   6.15836315
_cell_length_b   6.02929539
_cell_length_c   13.18504790
_cell_angle_alpha   82.38848833
_cell_angle_beta   90.00000000
_cell_angle_gamma   90.00000000
_symmetry_Int_Tables_number   1
_chemical_formula_structural   LiBeH3
_chemical_formula_sum   'Li12 Be12 H36'
_cell_volume   485.25500042
_cell_formula_units_Z   12
loop_
 _symmetry_equiv_pos_site_id
 _symmetry_equiv_pos_as_xyz
  1  'x, y, z'
loop_
 _atom_site_type_symbol
 _atom_site_label
 _atom_site_symmetry_multiplicity
 _atom_site_fract_x
 _atom_site_fract_y
 _atom_site_fract_z
 _atom_site_occupancy
  Li  Li0  1  0.11833214  0.23868061  0.40591802  1
  Li  Li1  1  0.61971757  0.01195529  0.74750187  1
  Li  Li2  1  0.88028243  0.01195529  0.24750187  1
  Li  Li3  1  0.12806513  0.74749729  0.10181966  1
  Li  Li4  1  0.87193487  0.25250271  0.89818034  1
  Li  Li5  1  0.11971757  0.98804471  0.75249813  1
  Li  Li6  1  0.38028243  0.98804471  0.25249813  1
  Li  Li7  1  0.37193487  0.74749729  0.60181966  1
  Li  Li8  1  0.88166786  0.76131939  0.59408198  1
  Li  Li9  1  0.62806513  0.25250271  0.39818034  1
  Li  Li10  1  0.38166786  0.23868061  0.90591802  1
  Li  Li11  1  0.61833214  0.76131939  0.09408198  1
  Be  Be0  1  0.40712883  0.22966314  0.58720713  1
  Be  Be1  1  0.16538953  0.77595978  0.40873468  1
  Be  Be2  1  0.83461047  0.22404022  0.59126532  1
  Be  Be3  1  0.90712883  0.77033686  0.91279287  1
  Be  Be4  1  0.33461047  0.77595978  0.90873468  1
  Be  Be5  1  0.59287117  0.77033686  0.41279287  1
  Be  Be6  1  0.66538953  0.22404022  0.09126532  1
  Be  Be7  1  0.61736593  0.56331229  0.81355566  1
  Be  Be8  1  0.88263407  0.56331229  0.31355566  1
  Be  Be9  1  0.09287117  0.22966314  0.08720713  1
  Be  Be10  1  0.38263407  0.43668771  0.18644434  1
  Be  Be11  1  0.11736593  0.43668771  0.68644434  1
  H  H0  1  0.11715750  0.29235041  0.78070613  1
  H  H1  1  0.87956865  0.29037057  0.11568245  1
  H  H2  1  0.30402340  0.42295986  0.62001325  1
  H  H3  1  0.35596759  0.02843790  0.65132612  1
  H  H4  1  0.38075475  0.67086567  0.19399241  1
  H  H5  1  0.62000046  0.02680884  0.15866982  1
  H  H6  1  0.64403241  0.97156210  0.34867388  1
  H  H7  1  0.36876123  0.80280496  0.01066202  1
  H  H8  1  0.61924525  0.32913433  0.80600759  1
  H  H9  1  0.37999954  0.97319116  0.84133018  1
  H  H10  1  0.37695704  0.22532415  0.48165265  1
  H  H11  1  0.69597660  0.57704014  0.37998675  1
  H  H12  1  0.87695704  0.77467585  0.01834735  1
  H  H13  1  0.80402340  0.57704014  0.87998675  1
  H  H14  1  0.62043135  0.29037057  0.61568245  1
  H  H15  1  0.56357654  0.42396804  0.11768869  1
  H  H16  1  0.61715750  0.70764959  0.71929387  1
  H  H17  1  0.43642346  0.57603196  0.88231131  1
  H  H18  1  0.14403241  0.02843790  0.15132612  1
  H  H19  1  0.86876123  0.19719504  0.48933798  1
  H  H20  1  0.37956865  0.70962943  0.38431755  1
  H  H21  1  0.12304296  0.22532415  0.98165265  1
  H  H22  1  0.11924525  0.67086567  0.69399241  1
  H  H23  1  0.88284250  0.70764959  0.21929387  1
  H  H24  1  0.93642346  0.42396804  0.61768869  1
  H  H25  1  0.12000046  0.97319116  0.34133018  1
  H  H26  1  0.88075475  0.32913433  0.30600759  1
  H  H27  1  0.13123877  0.80280496  0.51066202  1
  H  H28  1  0.85596759  0.97156210  0.84867388  1
  H  H29  1  0.38284250  0.29235041  0.28070613  1
  H  H30  1  0.19597660  0.42295986  0.12001325  1
  H  H31  1  0.12043135  0.70962943  0.88431755  1
  H  H32  1  0.63123877  0.19719504  0.98933798  1
  H  H33  1  0.06357654  0.57603196  0.38231131  1
  H  H34  1  0.62304296  0.77467585  0.51834735  1
  H  H35  1  0.87999954  0.02680884  0.65866982  1
loop_
_geom_bond_atom_site_label_1
_geom_bond_atom_site_label_2
_geom_bond_distance
_geom_bond_site_symmetry_2
Be0 H10 1.407763 1_555
Be0 H3 1.419239 1_555
Be0 H14 1.427189 1_555
Be0 H2 1.442940 1_555
Be1 H27 1.390743 1_555
Be1 H25 1.414964 1_555
Be1 H20 1.427388 1_555
Be1 H33 1.441807 1_555
Be2 H19 1.390743 1_555
Be2 H35 1.414964 1_555
Be2 H14 1.427388 1_555
Be2 H24 1.441807 1_555
Be3 H12 1.407763 1_556
Be3 H28 1.419239 1_555
Be3 H31 1.427189 1_655
Be3 H13 1.442940 1_555
Be4 H7 1.390743 1_556
Be4 H9 1.414964 1_555
Be4 H31 1.427388 1_555
Be4 H17 1.441807 1_555
Be5 H34 1.407763 1_555
Be5 H6 1.419239 1_555
Be5 H20 1.427189 1_555
Be5 H11 1.442940 1_555
Be6 H32 1.390743 1_554
Be6 H5 1.414964 1_555
Be6 H1 1.427388 1_555
Be6 H15 1.441807 1_555
Be7 H16 1.419677 1_555
Be7 H8 1.428567 1_555
Be7 H17 1.444926 1_555
Be7 H13 1.454171 1_555
Be8 H23 1.419677 1_555
Be8 H26 1.428567 1_555
Be8 H33 1.444926 1_655
Be8 H11 1.454171 1_555
Be9 H21 1.407763 1_554
Be9 H18 1.419239 1_555
Be9 H1 1.427189 1_455
Be9 H30 1.442940 1_555
Be10 H29 1.419677 1_555
Be10 H4 1.428567 1_555
Be10 H15 1.444926 1_555
Be10 H30 1.454171 1_555
Be11 H0 1.419677 1_555
Be11 H22 1.428567 1_555
Be11 H24 1.444926 1_455
Be11 H2 1.454171 1_555
H0 Li5 1.919805 1_545
H0 Li4 2.153800 1_455
H1 Li2 2.250730 1_555
H2 Li7 1.984165 1_555
H3 Li7 1.896802 1_545
H3 Li5 1.967096 1_545
H3 Li1 2.054938 1_555
H4 Li3 1.990804 1_555
H4 Li11 1.995765 1_555
H4 Li6 2.154764 1_555
H5 Li11 1.910162 1_545
H5 Li6 1.920389 1_545
H5 Li2 1.980251 1_555
H6 Li9 1.896802 1_565
H6 Li2 1.967096 1_565
H6 Li6 2.054938 1_555
H7 Li11 1.887237 1_555
H7 Li3 1.909666 1_555
H8 Li4 1.990804 1_555
H8 Li10 1.995765 1_555
H8 Li1 2.154764 1_555
H9 Li10 1.910162 1_565
H9 Li1 1.920389 1_565
H9 Li5 1.980251 1_555
H10 Li0 1.875907 1_555
H10 Li9 1.892555 1_555
H11 Li9 1.984165 1_555
H12 Li11 1.875907 1_555
H12 Li3 1.892555 1_655
H13 Li4 1.984165 1_555
H14 Li1 2.250730 1_555
H15 Li11 2.044503 1_555
H16 Li1 1.919805 1_565
H16 Li7 2.153800 1_555
H17 Li10 2.044503 1_555
H18 Li3 1.896802 1_545
H18 Li6 1.967096 1_545
H18 Li2 2.054938 1_455
H19 Li0 1.887237 1_655
H19 Li9 1.909666 1_555
H20 Li6 2.250730 1_555
H21 Li10 1.875907 1_555
H21 Li4 1.892555 1_455
H22 Li7 1.990804 1_555
H22 Li8 1.995765 1_455
H22 Li5 2.154764 1_555
H23 Li2 1.919805 1_565
H23 Li3 2.153800 1_655
H24 Li8 2.044503 1_555
H25 Li0 1.910162 1_565
H25 Li2 1.920389 1_465
H25 Li6 1.980251 1_555
H26 Li9 1.990804 1_555
H26 Li0 1.995765 1_655
H26 Li2 2.154764 1_555
H27 Li8 1.887237 1_455
H27 Li7 1.909666 1_555
H28 Li4 1.896802 1_565
H28 Li1 1.967096 1_565
H28 Li5 2.054938 1_655
H29 Li6 1.919805 1_545
H29 Li9 2.153800 1_555
H30 Li3 1.984165 1_555
H31 Li5 2.250730 1_555
H32 Li10 1.887237 1_555
H32 Li4 1.909666 1_555
H33 Li0 2.044503 1_555
H34 Li8 1.875907 1_555
H34 Li7 1.892555 1_555
H35 Li8 1.910162 1_545
H35 Li5 1.920389 1_645
H35 Li1 1.980251 1_555
