# generated using pymatgen
data_K3Sm(BO3)2
_symmetry_space_group_name_H-M   'P 1'
_cell_length_a   7.19956700
_cell_length_b   9.08999300
_cell_length_c   11.28573000
_cell_angle_alpha   90.00000000
_cell_angle_beta   90.00000000
_cell_angle_gamma   90.00000000
_symmetry_Int_Tables_number   1
_chemical_formula_structural   K3Sm(BO3)2
_chemical_formula_sum   'K12 Sm4 B8 O24'
_cell_volume   738.58346798
_cell_formula_units_Z   4
loop_
 _symmetry_equiv_pos_site_id
 _symmetry_equiv_pos_as_xyz
  1  'x, y, z'
loop_
 _atom_site_type_symbol
 _atom_site_label
 _atom_site_symmetry_multiplicity
 _atom_site_fract_x
 _atom_site_fract_y
 _atom_site_fract_z
 _atom_site_occupancy
  K  K0  1  0.50358300  0.30092700  0.40299800  1
  K  K1  1  0.25000000  0.06087500  0.63039000  1
  K  K2  1  0.25000000  0.56087500  0.86961000  1
  K  K3  1  0.75000000  0.43912500  0.13039000  1
  K  K4  1  0.00358300  0.69907300  0.59700200  1
  K  K5  1  0.49641700  0.69907300  0.59700200  1
  K  K6  1  0.99641700  0.80092700  0.09700200  1
  K  K7  1  0.75000000  0.93912500  0.36961000  1
  K  K8  1  0.50358300  0.80092700  0.09700200  1
  K  K9  1  0.99641700  0.30092700  0.40299800  1
  K  K10  1  0.00358300  0.19907300  0.90299800  1
  K  K11  1  0.49641700  0.19907300  0.90299800  1
  Sm  Sm0  1  0.25000000  0.12617600  0.16886100  1
  Sm  Sm1  1  0.75000000  0.37382400  0.66886100  1
  Sm  Sm2  1  0.75000000  0.87382400  0.83113900  1
  Sm  Sm3  1  0.25000000  0.62617600  0.33113900  1
  B  B0  1  0.25000000  0.93746800  0.37347300  1
  B  B1  1  0.75000000  0.58874500  0.38396700  1
  B  B2  1  0.25000000  0.43746800  0.12652700  1
  B  B3  1  0.25000000  0.41125500  0.61603300  1
  B  B4  1  0.25000000  0.91125500  0.88396700  1
  B  B5  1  0.75000000  0.08874500  0.11603300  1
  B  B6  1  0.75000000  0.56253200  0.87347300  1
  B  B7  1  0.75000000  0.06253200  0.62652700  1
  O  O0  1  0.75000000  0.66088200  0.96640100  1
  O  O1  1  0.58141500  0.62785800  0.33084100  1
  O  O2  1  0.25000000  0.58851400  0.11592700  1
  O  O3  1  0.75000000  0.16088200  0.53359900  1
  O  O4  1  0.41858500  0.37214200  0.66915900  1
  O  O5  1  0.75000000  0.00844400  0.01014300  1
  O  O6  1  0.25000000  0.49155600  0.51014300  1
  O  O7  1  0.75000000  0.50844400  0.48985700  1
  O  O8  1  0.08141500  0.87214200  0.83084100  1
  O  O9  1  0.25000000  0.33911800  0.03359900  1
  O  O10  1  0.25000000  0.99155600  0.98985700  1
  O  O11  1  0.75000000  0.41148600  0.88407300  1
  O  O12  1  0.41858500  0.87214200  0.83084100  1
  O  O13  1  0.25000000  0.08851400  0.38407300  1
  O  O14  1  0.25000000  0.87836900  0.25760200  1
  O  O15  1  0.25000000  0.37836900  0.24239800  1
  O  O16  1  0.75000000  0.91148600  0.61592700  1
  O  O17  1  0.91858500  0.62785800  0.33084100  1
  O  O18  1  0.25000000  0.83911800  0.46640100  1
  O  O19  1  0.75000000  0.62163100  0.75760200  1
  O  O20  1  0.91858500  0.12785800  0.16915900  1
  O  O21  1  0.08141500  0.37214200  0.66915900  1
  O  O22  1  0.58141500  0.12785800  0.16915900  1
  O  O23  1  0.75000000  0.12163100  0.74239800  1
loop_
_geom_bond_atom_site_label_1
_geom_bond_atom_site_label_2
_geom_bond_distance
_geom_bond_site_symmetry_2
K0 O3 2.634469 1_555
K0 O13 2.665871 1_555
K0 O15 2.667169 1_555
K0 O7 2.768858 1_555
K0 O6 2.792486 1_555
K0 O22 3.123059 1_555
K0 O1 3.131893 1_555
K0 O4 3.133126 1_555
K1 O18 2.736521 1_545
K1 O13 2.791197 1_555
K1 O8 3.087733 1_545
K1 O12 3.087733 1_545
K1 O4 3.109693 1_555
K1 O21 3.109693 1_555
K2 O9 2.736521 1_556
K2 O2 2.791197 1_556
K2 O4 3.087733 1_555
K2 O21 3.087733 1_555
K2 O12 3.109693 1_555
K2 O8 3.109693 1_555
K3 O0 2.736521 1_554
K3 O11 2.791197 1_554
K3 O17 3.087733 1_555
K3 O1 3.087733 1_555
K3 O20 3.109693 1_555
K3 O22 3.109693 1_555
K4 O18 2.634469 1_555
K4 O16 2.665871 1_455
K4 O19 2.667169 1_455
K4 O6 2.768858 1_555
K4 O7 2.792486 1_455
K4 O8 3.123059 1_555
K4 O21 3.131893 1_555
K4 O17 3.133126 1_455
K5 O18 2.634469 1_555
K5 O16 2.665871 1_555
K5 O19 2.667169 1_555
K5 O6 2.768858 1_555
K5 O7 2.792486 1_555
K5 O12 3.123059 1_555
K5 O4 3.131893 1_555
K5 O1 3.133126 1_555
K6 O0 2.634469 1_554
K6 O2 2.665871 1_655
K6 O14 2.667169 1_655
K6 O5 2.768858 1_565
K6 O10 2.792486 1_654
K6 O17 3.123059 1_555
K6 O20 3.131893 1_565
K6 O8 3.133126 1_654
K7 O3 2.736521 1_565
K7 O16 2.791197 1_555
K7 O22 3.087733 1_565
K7 O20 3.087733 1_565
K7 O1 3.109693 1_555
K7 O17 3.109693 1_555
K8 O0 2.634469 1_554
K8 O2 2.665871 1_555
K8 O14 2.667169 1_555
K8 O5 2.768858 1_565
K8 O10 2.792486 1_554
K8 O1 3.123059 1_555
K8 O22 3.131893 1_565
K8 O12 3.133126 1_554
K9 O3 2.634469 1_555
K9 O13 2.665871 1_655
K9 O15 2.667169 1_655
K9 O7 2.768858 1_555
K9 O6 2.792486 1_655
K9 O20 3.123059 1_555
K9 O17 3.131893 1_555
K9 O21 3.133126 1_655
K10 O9 2.634469 1_556
K10 O11 2.665871 1_455
K10 O23 2.667169 1_455
K10 O10 2.768858 1_545
K10 O5 2.792486 1_456
K10 O21 3.123059 1_555
K10 O8 3.131893 1_545
K10 O20 3.133126 1_456
K11 O9 2.634469 1_556
K11 O11 2.665871 1_555
K11 O23 2.667169 1_555
K11 O10 2.768858 1_545
K11 O5 2.792486 1_556
K11 O4 3.123059 1_555
K11 O12 3.131893 1_545
K11 O22 3.133126 1_556
B0 O18 1.378091 1_555
B0 O13 1.378209 1_565
B0 O14 1.413734 1_555
B1 O17 1.399660 1_555
B1 O1 1.399660 1_555
B1 O7 1.400336 1_555
B2 O9 1.378091 1_555
B2 O2 1.378209 1_555
B2 O15 1.413734 1_555
B3 O4 1.399660 1_555
B3 O21 1.399660 1_555
B3 O6 1.400336 1_555
B4 O8 1.399660 1_555
B4 O12 1.399660 1_555
B4 O10 1.400336 1_555
B5 O20 1.399660 1_555
B5 O22 1.399660 1_555
B5 O5 1.400336 1_555
B6 O0 1.378091 1_555
B6 O11 1.378209 1_555
B6 O19 1.413734 1_555
B7 O3 1.378091 1_555
B7 O16 1.378209 1_545
B7 O23 1.413734 1_555
O0 Sm2 2.465158 1_555
O1 Sm3 2.386096 1_555
O2 Sm3 2.452833 1_555
O3 Sm1 2.465158 1_555
O4 Sm1 2.386096 1_555
O5 Sm2 2.361906 1_544
O6 Sm3 2.361906 1_555
O7 Sm1 2.361906 1_555
O8 Sm2 2.386096 1_455
O9 Sm0 2.465158 1_555
O10 Sm0 2.361906 1_566
O11 Sm1 2.452833 1_555
O12 Sm2 2.386096 1_555
O13 Sm0 2.452833 1_555
O14 Sm3 2.438035 1_555
O14 Sm0 2.465169 1_565
O15 Sm0 2.438035 1_555
O15 Sm3 2.465169 1_555
O16 Sm2 2.452833 1_555
O17 Sm3 2.386096 1_655
O18 Sm3 2.465158 1_555
O19 Sm2 2.438035 1_555
O19 Sm1 2.465169 1_555
O20 Sm0 2.386096 1_655
O21 Sm1 2.386096 1_455
O22 Sm0 2.386096 1_555
O23 Sm1 2.438035 1_555
O23 Sm2 2.465169 1_545
