# generated using pymatgen
data_CSNCl
_symmetry_space_group_name_H-M   'P 1'
_cell_length_a   13.94906700
_cell_length_b   6.69315700
_cell_length_c   7.77210306
_cell_angle_alpha   65.65086845
_cell_angle_beta   90.00000000
_cell_angle_gamma   90.00000000
_symmetry_Int_Tables_number   1
_chemical_formula_structural   CSNCl
_chemical_formula_sum   'C8 S8 N8 Cl8'
_cell_volume   661.08448823
_cell_formula_units_Z   8
loop_
 _symmetry_equiv_pos_site_id
 _symmetry_equiv_pos_as_xyz
  1  'x, y, z'
loop_
 _atom_site_type_symbol
 _atom_site_label
 _atom_site_symmetry_multiplicity
 _atom_site_fract_x
 _atom_site_fract_y
 _atom_site_fract_z
 _atom_site_occupancy
  C  C0  1  0.94645700  0.18185100  0.83885900  1
  C  C1  1  0.37479300  0.46103900  0.20693500  1
  C  C2  1  0.05354300  0.81814900  0.16114100  1
  C  C3  1  0.87479300  0.03896100  0.79306500  1
  C  C4  1  0.44645700  0.31814900  0.16114100  1
  C  C5  1  0.55354300  0.68185100  0.83885900  1
  C  C6  1  0.62520700  0.53896100  0.79306500  1
  C  C7  1  0.12520700  0.96103900  0.20693500  1
  S  S0  1  0.13633300  0.27210800  0.86397200  1
  S  S1  1  0.36366700  0.77210800  0.86397200  1
  S  S2  1  0.63633300  0.22789200  0.13602800  1
  S  S3  1  0.92826900  0.14776600  0.08616000  1
  S  S4  1  0.42826900  0.35223400  0.91384000  1
  S  S5  1  0.57173100  0.64776600  0.08616000  1
  S  S6  1  0.07173100  0.85223400  0.91384000  1
  S  S7  1  0.86366700  0.72789200  0.13602800  1
  N  N0  1  0.04674600  0.12838500  0.80640600  1
  N  N1  1  0.33846800  0.63917500  0.08622100  1
  N  N2  1  0.83846800  0.86082500  0.91377900  1
  N  N3  1  0.16153200  0.13917500  0.08622100  1
  N  N4  1  0.45325400  0.62838500  0.80640600  1
  N  N5  1  0.66153200  0.36082500  0.91377900  1
  N  N6  1  0.54674600  0.37161500  0.19359400  1
  N  N7  1  0.95325400  0.87161500  0.19359400  1
  Cl  Cl0  1  0.16131000  0.87178000  0.44079700  1
  Cl  Cl1  1  0.83869000  0.12822000  0.55920300  1
  Cl  Cl2  1  0.42487200  0.03358700  0.29241100  1
  Cl  Cl3  1  0.33869000  0.37178000  0.44079700  1
  Cl  Cl4  1  0.66131000  0.62822000  0.55920300  1
  Cl  Cl5  1  0.57512800  0.96641300  0.70758900  1
  Cl  Cl6  1  0.92487200  0.46641300  0.70758900  1
  Cl  Cl7  1  0.07512800  0.53358700  0.29241100  1
loop_
_geom_bond_atom_site_label_1
_geom_bond_atom_site_label_2
_geom_bond_distance
_geom_bond_site_symmetry_2
C0 N0 1.491019 1_655
C0 C3 1.523590 1_555
C0 Cl6 1.776738 1_555
C0 S3 1.857178 1_556
C1 N1 1.279113 1_555
C1 C4 1.523590 1_555
C1 Cl3 1.737468 1_555
C2 N7 1.491019 1_455
C2 C7 1.523590 1_555
C2 Cl7 1.776738 1_555
C2 S6 1.857178 1_554
C3 N2 1.279113 1_545
C3 Cl1 1.737468 1_555
C4 N6 1.491019 1_555
C4 Cl2 1.776738 1_555
C4 S4 1.857178 1_554
C5 N4 1.491019 1_555
C5 C6 1.523590 1_555
C5 Cl5 1.776738 1_555
C5 S5 1.857178 1_556
C6 N5 1.279113 1_555
C6 Cl4 1.737468 1_555
C7 N3 1.279113 1_565
C7 Cl0 1.737468 1_555
N0 S6 1.721148 1_545
N0 S0 1.744155 1_555
N1 S1 1.622221 1_554
N2 S7 1.622221 1_556
N3 S0 1.622221 1_554
N4 S4 1.721148 1_555
N4 S1 1.744155 1_555
N5 S2 1.622221 1_556
N6 S5 1.721148 1_555
N6 S2 1.744155 1_555
N7 S3 1.721148 1_565
N7 S7 1.744155 1_555
