# generated using pymatgen
data_LaMnO3
_symmetry_space_group_name_H-M   'P 1'
_cell_length_a   10.47480100
_cell_length_b   5.71690100
_cell_length_c   6.22764421
_cell_angle_alpha   62.94228853
_cell_angle_beta   90.00000000
_cell_angle_gamma   90.00000000
_symmetry_Int_Tables_number   1
_chemical_formula_structural   LaMnO3
_chemical_formula_sum   'La4 Mn4 O12'
_cell_volume   332.11459568
_cell_formula_units_Z   4
loop_
 _symmetry_equiv_pos_site_id
 _symmetry_equiv_pos_as_xyz
  1  'x, y, z'
loop_
 _atom_site_type_symbol
 _atom_site_label
 _atom_site_symmetry_multiplicity
 _atom_site_fract_x
 _atom_site_fract_y
 _atom_site_fract_z
 _atom_site_occupancy
  La  La0  1  0.66338000  0.00383500  0.50098200  1
  La  La1  1  0.16338000  0.99616500  0.99901800  1
  La  La2  1  0.83662000  0.00383500  0.00098200  1
  La  La3  1  0.33662000  0.99616500  0.49901800  1
  Mn  Mn0  1  0.50000000  0.00000000  0.00000000  1
  Mn  Mn1  1  0.00000000  0.50000000  0.50000000  1
  Mn  Mn2  1  0.00000000  0.00000000  0.50000000  1
  Mn  Mn3  1  0.50000000  0.50000000  0.00000000  1
  O  O0  1  0.37355800  0.23042000  0.04397700  1
  O  O1  1  0.12653900  0.76786200  0.45699800  1
  O  O2  1  0.00186200  0.20467700  0.06277400  1
  O  O3  1  0.62644200  0.76958000  0.95602300  1
  O  O4  1  0.87346100  0.23213800  0.54300200  1
  O  O5  1  0.50186200  0.79532300  0.43722600  1
  O  O6  1  0.12644200  0.23042000  0.54397700  1
  O  O7  1  0.37346100  0.76786200  0.95699800  1
  O  O8  1  0.99813800  0.79532300  0.93722600  1
  O  O9  1  0.49813800  0.20467700  0.56277400  1
  O  O10  1  0.87355800  0.76958000  0.45602300  1
  O  O11  1  0.62653900  0.23213800  0.04300200  1
loop_
_geom_bond_atom_site_label_1
_geom_bond_atom_site_label_2
_geom_bond_distance
_geom_bond_site_symmetry_2
La0 O9 2.205527 1_555
La0 O5 2.207177 1_545
La0 O3 2.553647 1_545
La0 O11 2.569127 1_555
La0 O4 2.631572 1_555
La0 O10 2.657055 1_545
La1 O8 2.205527 1_455
La1 O2 2.207177 1_566
La1 O6 2.553647 1_565
La1 O1 2.569127 1_556
La1 O7 2.631572 1_555
La1 O0 2.657055 1_566
La2 O2 2.205527 1_655
La2 O8 2.207177 1_544
La2 O10 2.553647 1_545
La2 O4 2.569127 1_554
La2 O11 2.631572 1_555
La2 O3 2.657055 1_544
La3 O5 2.205527 1_555
La3 O9 2.207177 1_565
La3 O0 2.553647 1_565
La3 O7 2.569127 1_555
La3 O1 2.631572 1_555
La3 O6 2.657055 1_565
Mn0 O0 1.972981 1_555
Mn0 O3 1.972981 1_544
Mn0 O11 1.978168 1_555
Mn0 O7 1.978168 1_544
Mn0 O9 2.425910 1_554
Mn0 O5 2.425910 1_545
Mn1 O4 1.949487 1_455
Mn1 O1 1.949487 1_555
Mn1 O6 1.954576 1_555
Mn1 O10 1.954576 1_455
Mn2 O6 1.972981 1_555
Mn2 O10 1.972981 1_445
Mn2 O4 1.978168 1_455
Mn2 O1 1.978168 1_545
Mn2 O2 2.425910 1_555
Mn2 O8 2.425910 1_445
Mn3 O11 1.949487 1_555
Mn3 O7 1.949487 1_554
Mn3 O0 1.954576 1_555
Mn3 O3 1.954576 1_554
