# generated using pymatgen
data_CsCu(BiS2)2
_symmetry_space_group_name_H-M   'P 1'
_cell_length_a   7.47729199
_cell_length_b   7.47729199
_cell_length_c   14.79169500
_cell_angle_alpha   90.00000000
_cell_angle_beta   90.00000000
_cell_angle_gamma   148.28538733
_symmetry_Int_Tables_number   1
_chemical_formula_structural   CsCu(BiS2)2
_chemical_formula_sum   'Cs2 Cu2 Bi4 S8'
_cell_volume   434.74560715
_cell_formula_units_Z   2
loop_
 _symmetry_equiv_pos_site_id
 _symmetry_equiv_pos_as_xyz
  1  'x, y, z'
loop_
 _atom_site_type_symbol
 _atom_site_label
 _atom_site_symmetry_multiplicity
 _atom_site_fract_x
 _atom_site_fract_y
 _atom_site_fract_z
 _atom_site_occupancy
  Cs  Cs0  1  0.10723100  0.89276900  0.49945100  1
  Cs  Cs1  1  0.89276900  0.10723100  0.99945100  1
  Cu  Cu0  1  0.15463800  0.84536200  0.01177800  1
  Cu  Cu1  1  0.84536200  0.15463800  0.51177800  1
  Bi  Bi0  1  0.37684400  0.62315600  0.31243100  1
  Bi  Bi1  1  0.62315600  0.37684400  0.81243100  1
  Bi  Bi2  1  0.64489800  0.35510200  0.20357400  1
  Bi  Bi3  1  0.35510200  0.64489800  0.70357400  1
  S  S0  1  0.99381600  0.00618400  0.76393200  1
  S  S1  1  0.74616200  0.25383800  0.63882700  1
  S  S2  1  0.25383800  0.74616200  0.13882700  1
  S  S3  1  0.00618400  0.99381600  0.26393200  1
  S  S4  1  0.74471500  0.25528500  0.35587800  1
  S  S5  1  0.41213500  0.58786500  0.48952900  1
  S  S6  1  0.58786500  0.41213500  0.98952900  1
  S  S7  1  0.25528500  0.74471500  0.85587800  1
loop_
_geom_bond_atom_site_label_1
_geom_bond_atom_site_label_2
_geom_bond_distance
_geom_bond_site_symmetry_2
Cs0 S5 3.474563 1_565
Cs0 S5 3.474563 1_455
Cs0 S1 3.524046 1_455
Cs0 S1 3.524046 1_565
Cs0 S4 3.549079 1_565
Cs0 S4 3.549079 1_455
Cs0 S3 3.774828 1_555
Cs1 S6 3.474563 1_655
Cs1 S6 3.474563 1_545
Cs1 S2 3.524046 1_546
Cs1 S2 3.524046 1_656
Cs1 S7 3.549079 1_545
Cs1 S7 3.549079 1_655
Cs1 S0 3.774828 1_555
Cu0 S6 2.281513 1_564
Cu0 S6 2.281513 1_454
Cu0 S2 2.359682 1_555
Cu0 S7 2.722874 1_554
Cu1 S5 2.281513 1_545
Cu1 S5 2.281513 1_655
Cu1 S1 2.359682 1_555
Cu1 S4 2.722874 1_555
Bi0 S5 2.668321 1_555
Bi0 S3 2.854970 1_655
Bi0 S3 2.854970 1_545
Bi0 S4 2.863588 1_455
Bi0 S4 2.863588 1_565
Bi0 S2 3.118531 1_555
Bi1 S6 2.668321 1_555
Bi1 S0 2.854970 1_565
Bi1 S0 2.854970 1_455
Bi1 S7 2.863588 1_545
Bi1 S7 2.863588 1_655
Bi1 S1 3.118531 1_555
Bi2 S4 2.671539 1_555
Bi2 S2 2.747274 1_655
Bi2 S2 2.747274 1_545
Bi2 S3 2.992206 1_655
Bi2 S3 2.992206 1_545
Bi3 S7 2.671539 1_555
Bi3 S1 2.747274 1_565
Bi3 S1 2.747274 1_455
Bi3 S0 2.992206 1_565
Bi3 S0 2.992206 1_455
