# generated using pymatgen
data_Cs4P2Se9
_symmetry_space_group_name_H-M   'P 1'
_cell_length_a   7.44034607
_cell_length_b   7.44034607
_cell_length_c   19.87795386
_cell_angle_alpha   87.31838431
_cell_angle_beta   87.31838431
_cell_angle_gamma   93.10978065
_symmetry_Int_Tables_number   1
_chemical_formula_structural   Cs4P2Se9
_chemical_formula_sum   'Cs8 P4 Se18'
_cell_volume   1096.25212197
_cell_formula_units_Z   2
loop_
 _symmetry_equiv_pos_site_id
 _symmetry_equiv_pos_as_xyz
  1  'x, y, z'
loop_
 _atom_site_type_symbol
 _atom_site_label
 _atom_site_symmetry_multiplicity
 _atom_site_fract_x
 _atom_site_fract_y
 _atom_site_fract_z
 _atom_site_occupancy
  Cs  Cs0  1  0.71582800  0.21557952  0.47456042  1
  Cs  Cs1  1  0.28417200  0.78442048  0.52543958  1
  Cs  Cs2  1  0.78442048  0.28417200  0.02543958  1
  Cs  Cs3  1  0.56415871  0.75832441  0.17366754  1
  Cs  Cs4  1  0.24167559  0.43584129  0.32633246  1
  Cs  Cs5  1  0.75832441  0.56415871  0.67366754  1
  Cs  Cs6  1  0.21557952  0.71582800  0.97456042  1
  Cs  Cs7  1  0.43584129  0.24167559  0.82633246  1
  P  P0  1  0.73145007  0.74670451  0.37709276  1
  P  P1  1  0.25329549  0.26854993  0.12290724  1
  P  P2  1  0.74670451  0.73145007  0.87709276  1
  P  P3  1  0.26854993  0.25329549  0.62290724  1
  Se  Se0  1  0.11241562  0.50768612  0.14445469  1
  Se  Se1  1  0.88758438  0.49231388  0.85554531  1
  Se  Se2  1  0.50795037  0.75063851  0.82004650  1
  Se  Se3  1  0.50768612  0.11241562  0.64445469  1
  Se  Se4  1  0.75063851  0.50795037  0.32004650  1
  Se  Se5  1  0.49231388  0.88758438  0.35554531  1
  Se  Se6  1  0.24936149  0.49204963  0.67995350  1
  Se  Se7  1  0.01353672  0.05821607  0.65115170  1
  Se  Se8  1  0.28428393  0.21096540  0.01615282  1
  Se  Se9  1  0.98646328  0.94178393  0.34884830  1
  Se  Se10  1  0.78903460  0.71571607  0.48384718  1
  Se  Se11  1  0.94178393  0.98646328  0.84884830  1
  Se  Se12  1  0.49204963  0.24936149  0.17995350  1
  Se  Se13  1  0.71571607  0.78903460  0.98384718  1
  Se  Se14  1  0.05821607  0.01353672  0.15115170  1
  Se  Se15  1  0.90385541  0.09614459  0.25000000  1
  Se  Se16  1  0.21096540  0.28428393  0.51615282  1
  Se  Se17  1  0.09614459  0.90385541  0.75000000  1
loop_
_geom_bond_atom_site_label_1
_geom_bond_atom_site_label_2
_geom_bond_distance
_geom_bond_site_symmetry_2
Cs0 Se4 3.670430 1_555
Cs0 Se3 3.678548 1_555
Cs0 Se10 3.745902 1_555
Cs0 Se10 3.785214 1_545
Cs0 Se16 3.825820 1_655
Cs0 Se5 3.845273 1_545
Cs0 Se9 3.860005 1_545
Cs0 Se16 3.874575 1_555
Cs1 Se6 3.670430 1_555
Cs1 Se5 3.678548 1_555
Cs1 Se16 3.745902 1_555
Cs1 Se16 3.785214 1_565
Cs1 Se10 3.825820 1_455
Cs1 Se3 3.845273 1_565
Cs1 Se7 3.860005 1_565
Cs1 Se10 3.874575 1_555
Cs2 Se12 3.670430 1_555
Cs2 Se1 3.678548 1_554
Cs2 Se8 3.745902 1_555
Cs2 Se8 3.785214 1_655
Cs2 Se13 3.825820 1_544
Cs2 Se0 3.845273 1_655
Cs2 Se14 3.860005 1_655
Cs2 Se13 3.874575 1_554
Cs3 Se12 3.728343 1_565
Cs3 Se4 3.743368 1_555
Cs3 Se12 3.791146 1_555
Cs3 Se5 3.805495 1_555
Cs3 Se0 3.836127 1_555
Cs3 Se15 3.877433 1_565
Cs3 Se13 3.879995 1_554
Cs3 Se14 4.040776 1_665
Cs4 Se4 3.728343 1_455
Cs4 Se12 3.743368 1_555
Cs4 Se4 3.791146 1_555
Cs4 Se0 3.805495 1_555
Cs4 Se5 3.836127 1_555
Cs4 Se15 3.877433 1_455
Cs4 Se16 3.879995 1_555
Cs4 Se9 4.040776 1_445
Cs5 Se6 3.728343 1_655
Cs5 Se2 3.743368 1_555
Cs5 Se6 3.791146 1_555
Cs5 Se1 3.805495 1_555
Cs5 Se3 3.836127 1_555
Cs5 Se17 3.877433 1_655
Cs5 Se10 3.879995 1_555
Cs5 Se7 4.040776 1_665
Cs6 Se2 3.670430 1_555
Cs6 Se0 3.678548 1_556
Cs6 Se13 3.745902 1_555
Cs6 Se13 3.785214 1_455
Cs6 Se8 3.825820 1_566
Cs6 Se1 3.845273 1_455
Cs6 Se11 3.860005 1_455
Cs6 Se8 3.874575 1_556
Cs7 Se2 3.728343 1_545
Cs7 Se6 3.743368 1_555
Cs7 Se2 3.791146 1_555
Cs7 Se3 3.805495 1_555
Cs7 Se1 3.836127 1_555
Cs7 Se17 3.877433 1_545
Cs7 Se8 3.879995 1_556
Cs7 Se11 4.040776 1_445
P0 Se4 2.159342 1_555
P0 Se5 2.163232 1_555
P0 Se10 2.188578 1_555
P0 Se9 2.355268 1_555
P1 Se12 2.159342 1_555
P1 Se0 2.163232 1_555
P1 Se8 2.188578 1_555
P1 Se14 2.355268 1_555
P2 Se2 2.159342 1_555
P2 Se1 2.163232 1_555
P2 Se13 2.188578 1_555
P2 Se11 2.355268 1_555
P3 Se6 2.159342 1_555
P3 Se3 2.163232 1_555
P3 Se16 2.188578 1_555
P3 Se7 2.355268 1_555
Se11 Se17 2.352889 1_655
Se14 Se15 2.352889 1_455
Se15 Se9 2.352889 1_545
Se17 Se7 2.352889 1_565
