# generated using pymatgen
data_Sm3(Ge3Pt2)2
_symmetry_space_group_name_H-M   'P 1'
_cell_length_a   4.41439600
_cell_length_b   8.86925900
_cell_length_c   26.40110300
_cell_angle_alpha   90.00000000
_cell_angle_beta   90.00000000
_cell_angle_gamma   90.00000000
_symmetry_Int_Tables_number   1
_chemical_formula_structural   Sm3(Ge3Pt2)2
_chemical_formula_sum   'Sm12 Ge24 Pt16'
_cell_volume   1033.66711147
_cell_formula_units_Z   4
loop_
 _symmetry_equiv_pos_site_id
 _symmetry_equiv_pos_as_xyz
  1  'x, y, z'
loop_
 _atom_site_type_symbol
 _atom_site_label
 _atom_site_symmetry_multiplicity
 _atom_site_fract_x
 _atom_site_fract_y
 _atom_site_fract_z
 _atom_site_occupancy
  Sm  Sm0  1  0.25000000  0.11348800  0.59225200  1
  Sm  Sm1  1  0.75000000  0.12570600  0.28010600  1
  Sm  Sm2  1  0.75000000  0.61348800  0.90774800  1
  Sm  Sm3  1  0.75000000  0.36465100  0.40718000  1
  Sm  Sm4  1  0.75000000  0.88651200  0.40774800  1
  Sm  Sm5  1  0.75000000  0.37429400  0.78010600  1
  Sm  Sm6  1  0.75000000  0.13534900  0.90718000  1
  Sm  Sm7  1  0.25000000  0.63534900  0.59282000  1
  Sm  Sm8  1  0.25000000  0.38651200  0.09225200  1
  Sm  Sm9  1  0.25000000  0.87429400  0.71989400  1
  Sm  Sm10  1  0.25000000  0.62570600  0.21989400  1
  Sm  Sm11  1  0.25000000  0.86465100  0.09282000  1
  Ge  Ge0  1  0.75000000  0.02217800  0.78426900  1
  Ge  Ge1  1  0.75000000  0.62589000  0.13854500  1
  Ge  Ge2  1  0.25000000  0.37411000  0.86145500  1
  Ge  Ge3  1  0.25000000  0.62732200  0.99735900  1
  Ge  Ge4  1  0.25000000  0.27312200  0.21544800  1
  Ge  Ge5  1  0.25000000  0.52217800  0.71573100  1
  Ge  Ge6  1  0.75000000  0.72687800  0.78455200  1
  Ge  Ge7  1  0.75000000  0.37267800  0.00264100  1
  Ge  Ge8  1  0.75000000  0.12639000  0.14206400  1
  Ge  Ge9  1  0.25000000  0.22687800  0.71544800  1
  Ge  Ge10  1  0.75000000  0.77312200  0.28455200  1
  Ge  Ge11  1  0.25000000  0.62639000  0.35793600  1
  Ge  Ge12  1  0.75000000  0.47782200  0.28426900  1
  Ge  Ge13  1  0.75000000  0.87411000  0.63854500  1
  Ge  Ge14  1  0.25000000  0.12194400  0.00142000  1
  Ge  Ge15  1  0.25000000  0.37805600  0.50142000  1
  Ge  Ge16  1  0.25000000  0.12589000  0.36145500  1
  Ge  Ge17  1  0.75000000  0.87805600  0.99858000  1
  Ge  Ge18  1  0.25000000  0.97782200  0.21573100  1
  Ge  Ge19  1  0.75000000  0.12732200  0.50264100  1
  Ge  Ge20  1  0.75000000  0.37361000  0.64206400  1
  Ge  Ge21  1  0.75000000  0.62194400  0.49858000  1
  Ge  Ge22  1  0.25000000  0.87361000  0.85793600  1
  Ge  Ge23  1  0.25000000  0.87267800  0.49735900  1
  Pt  Pt0  1  0.75000000  0.37699200  0.18774100  1
  Pt  Pt1  1  0.25000000  0.37511000  0.31230600  1
  Pt  Pt2  1  0.75000000  0.87078300  0.54446600  1
  Pt  Pt3  1  0.75000000  0.12300800  0.68774100  1
  Pt  Pt4  1  0.25000000  0.87699200  0.31225900  1
  Pt  Pt5  1  0.75000000  0.12161400  0.04967400  1
  Pt  Pt6  1  0.25000000  0.62161400  0.45032600  1
  Pt  Pt7  1  0.25000000  0.12489000  0.81230600  1
  Pt  Pt8  1  0.25000000  0.37078300  0.95553400  1
  Pt  Pt9  1  0.75000000  0.62921700  0.04446600  1
  Pt  Pt10  1  0.75000000  0.37838600  0.54967400  1
  Pt  Pt11  1  0.25000000  0.87838600  0.95032600  1
  Pt  Pt12  1  0.25000000  0.12921700  0.45553400  1
  Pt  Pt13  1  0.75000000  0.62489000  0.68769400  1
  Pt  Pt14  1  0.25000000  0.62300800  0.81225900  1
  Pt  Pt15  1  0.75000000  0.87511000  0.18769400  1
loop_
_geom_bond_atom_site_label_1
_geom_bond_atom_site_label_2
_geom_bond_distance
_geom_bond_site_symmetry_2
Ge0 Pt7 2.499903 1_555
Ge0 Pt7 2.499903 1_655
Ge0 Ge6 2.619103 1_545
Ge0 Pt3 2.700801 1_555
Ge0 Sm9 3.079061 1_645
Ge0 Sm9 3.079061 1_545
Ge0 Sm5 3.124941 1_555
Ge0 Sm6 3.396680 1_555
Ge1 Pt9 2.483965 1_555
Ge1 Pt0 2.561287 1_555
Ge1 Pt15 2.563121 1_555
Ge1 Sm10 3.079668 1_555
Ge1 Sm10 3.079668 1_655
Ge1 Sm11 3.288374 1_555
Ge1 Sm11 3.288374 1_655
Ge1 Sm8 3.297429 1_555
Ge1 Sm8 3.297429 1_655
Ge2 Pt8 2.483965 1_555
Ge2 Pt14 2.561287 1_555
Ge2 Pt7 2.563121 1_555
Ge2 Sm5 3.079668 1_555
Ge2 Sm5 3.079668 1_455
Ge2 Sm6 3.288374 1_455
Ge2 Sm6 3.288374 1_555
Ge2 Sm2 3.297429 1_455
Ge2 Sm2 3.297429 1_555
Ge3 Pt8 2.529102 1_555
Ge3 Pt9 2.533523 1_456
Ge3 Pt9 2.533523 1_556
Ge3 Pt11 2.549568 1_555
Ge3 Sm2 3.237889 1_455
Ge3 Sm2 3.237889 1_555
Ge3 Sm11 3.283676 1_556
Ge3 Sm8 3.292126 1_556
Ge4 Pt0 2.501102 1_555
Ge4 Pt0 2.501102 1_455
Ge4 Pt1 2.712431 1_555
Ge4 Sm1 3.081428 1_555
Ge4 Sm1 3.081428 1_455
Ge4 Sm10 3.129361 1_555
Ge4 Sm8 3.404442 1_555
Ge5 Pt13 2.499903 1_555
Ge5 Pt13 2.499903 1_455
Ge5 Ge9 2.619103 1_555
Ge5 Pt14 2.700801 1_555
Ge5 Sm5 3.079061 1_555
Ge5 Sm5 3.079061 1_455
Ge5 Sm9 3.124941 1_555
Ge5 Sm7 3.396680 1_555
Ge6 Pt14 2.501102 1_655
Ge6 Pt14 2.501102 1_555
Ge6 Pt13 2.712431 1_555
Ge6 Sm9 3.081428 1_655
Ge6 Sm9 3.081428 1_555
Ge6 Sm5 3.129361 1_555
Ge6 Sm2 3.404442 1_555
Ge7 Pt9 2.529102 1_555
Ge7 Pt8 2.533523 1_654
Ge7 Pt8 2.533523 1_554
Ge7 Pt5 2.549568 1_555
Ge7 Sm8 3.237889 1_555
Ge7 Sm8 3.237889 1_655
Ge7 Sm6 3.283676 1_554
Ge7 Sm2 3.292126 1_554
Ge8 Pt5 2.439566 1_555
Ge8 Pt0 2.528723 1_555
Ge8 Pt15 2.533420 1_545
Ge8 Sm8 3.453093 1_655
Ge8 Sm8 3.453093 1_555
Ge8 Sm11 3.457024 1_645
Ge8 Sm11 3.457024 1_545
Ge9 Pt3 2.501102 1_455
Ge9 Pt3 2.501102 1_555
Ge9 Pt7 2.712431 1_555
Ge9 Sm5 3.081428 1_555
Ge9 Sm5 3.081428 1_455
Ge9 Sm9 3.129361 1_545
Ge9 Sm0 3.404442 1_555
Ge10 Pt4 2.501102 1_555
Ge10 Pt4 2.501102 1_655
Ge10 Ge12 2.619103 1_555
Ge10 Pt15 2.712431 1_555
Ge10 Sm10 3.081428 1_555
Ge10 Sm10 3.081428 1_655
Ge10 Sm1 3.129361 1_565
Ge10 Sm4 3.404442 1_555
Ge11 Pt6 2.439566 1_555
Ge11 Pt4 2.528723 1_555
Ge11 Pt1 2.533420 1_555
Ge11 Sm4 3.453093 1_555
Ge11 Sm4 3.453093 1_455
Ge11 Sm3 3.457024 1_555
Ge11 Sm3 3.457024 1_455
Ge12 Pt1 2.499903 1_555
Ge12 Pt1 2.499903 1_655
Ge12 Pt0 2.700801 1_555
Ge12 Sm10 3.079061 1_555
Ge12 Sm10 3.079061 1_655
Ge12 Sm1 3.124941 1_555
Ge12 Sm3 3.396680 1_555
Ge13 Pt2 2.483965 1_555
Ge13 Pt3 2.561287 1_565
Ge13 Pt13 2.563121 1_555
Ge13 Sm9 3.079668 1_655
Ge13 Sm9 3.079668 1_555
Ge13 Sm7 3.288374 1_555
Ge13 Sm7 3.288374 1_655
Ge13 Sm0 3.297429 1_565
Ge13 Sm0 3.297429 1_665
Ge14 Pt8 2.517641 1_554
Ge14 Pt11 2.546764 1_544
Ge14 Pt5 2.548471 1_555
Ge14 Pt5 2.548471 1_455
Ge14 Sm11 3.321201 1_545
Ge14 Sm6 3.328093 1_454
Ge14 Sm6 3.328093 1_554
Ge14 Sm8 3.355128 1_555
Ge15 Pt12 2.517641 1_555
Ge15 Pt6 2.546764 1_555
Ge15 Pt10 2.548471 1_455
Ge15 Pt10 2.548471 1_555
Ge15 Sm7 3.321201 1_555
Ge15 Sm3 3.328093 1_455
Ge15 Sm3 3.328093 1_555
Ge15 Sm0 3.355128 1_555
Ge16 Pt12 2.483965 1_555
Ge16 Pt4 2.561287 1_545
Ge16 Pt1 2.563121 1_555
Ge16 Sm1 3.079668 1_555
Ge16 Sm1 3.079668 1_455
Ge16 Sm3 3.288374 1_555
Ge16 Sm3 3.288374 1_455
Ge16 Sm4 3.297429 1_445
Ge16 Sm4 3.297429 1_545
Ge17 Pt9 2.517641 1_556
Ge17 Pt5 2.546764 1_566
Ge17 Pt11 2.548471 1_655
Ge17 Pt11 2.548471 1_555
Ge17 Sm6 3.321201 1_565
Ge17 Sm11 3.328093 1_556
Ge17 Sm11 3.328093 1_656
Ge17 Sm2 3.355128 1_555
Ge18 Pt15 2.499903 1_555
Ge18 Pt15 2.499903 1_455
Ge18 Ge4 2.619103 1_565
Ge18 Pt4 2.700801 1_555
Ge18 Sm1 3.079061 1_565
Ge18 Sm1 3.079061 1_465
Ge18 Sm10 3.124941 1_555
Ge18 Sm11 3.396680 1_555
Ge19 Pt2 2.529102 1_545
Ge19 Pt12 2.533523 1_555
Ge19 Pt12 2.533523 1_655
Ge19 Pt10 2.549568 1_555
Ge19 Sm0 3.237889 1_655
Ge19 Sm0 3.237889 1_555
Ge19 Sm3 3.283676 1_555
Ge19 Sm4 3.292126 1_545
Ge20 Pt10 2.439566 1_555
Ge20 Pt3 2.528723 1_555
Ge20 Pt13 2.533420 1_555
Ge20 Sm0 3.453093 1_655
Ge20 Sm0 3.453093 1_555
Ge20 Sm7 3.457024 1_655
Ge20 Sm7 3.457024 1_555
Ge21 Pt2 2.517641 1_555
Ge21 Pt10 2.546764 1_555
Ge21 Pt6 2.548471 1_555
Ge21 Pt6 2.548471 1_655
Ge21 Sm3 3.321201 1_555
Ge21 Sm7 3.328093 1_655
Ge21 Sm7 3.328093 1_555
Ge21 Sm4 3.355128 1_555
Ge22 Pt11 2.439566 1_555
Ge22 Pt14 2.528723 1_555
Ge22 Pt7 2.533420 1_565
Ge22 Sm2 3.453093 1_455
Ge22 Sm2 3.453093 1_555
Ge22 Sm6 3.457024 1_565
Ge22 Sm6 3.457024 1_465
Ge23 Pt12 2.529102 1_565
Ge23 Pt2 2.533523 1_455
Ge23 Pt2 2.533523 1_555
Ge23 Pt6 2.549568 1_555
Ge23 Sm4 3.237889 1_455
Ge23 Sm4 3.237889 1_555
Ge23 Sm7 3.283676 1_555
Ge23 Sm0 3.292126 1_565
Pt0 Sm10 3.233936 1_555
Pt0 Sm10 3.233936 1_655
Pt0 Sm1 3.303583 1_555
Pt0 Sm8 3.351771 1_555
Pt0 Sm8 3.351771 1_655
Pt1 Sm1 3.238439 1_555
Pt1 Sm1 3.238439 1_455
Pt1 Sm10 3.300375 1_555
Pt1 Sm3 3.339797 1_455
Pt1 Sm3 3.339797 1_555
Pt2 Sm7 3.295708 1_655
Pt2 Sm7 3.295708 1_555
Pt2 Sm0 3.331233 1_665
Pt2 Sm0 3.331233 1_565
Pt3 Sm9 3.233936 1_645
Pt3 Sm9 3.233936 1_545
Pt3 Sm5 3.303583 1_555
Pt3 Sm0 3.351771 1_555
Pt3 Sm0 3.351771 1_655
Pt4 Sm1 3.233936 1_465
Pt4 Sm1 3.233936 1_565
Pt4 Sm10 3.303583 1_555
Pt4 Sm4 3.351771 1_455
Pt4 Sm4 3.351771 1_555
Pt5 Sm11 3.370971 1_645
Pt5 Sm11 3.370971 1_545
Pt5 Sm8 3.413978 1_555
Pt5 Sm8 3.413978 1_655
Pt6 Sm3 3.370971 1_455
Pt6 Sm3 3.370971 1_555
Pt6 Sm4 3.413978 1_555
Pt6 Sm4 3.413978 1_455
Pt7 Sm5 3.238439 1_455
Pt7 Sm5 3.238439 1_555
Pt7 Sm9 3.300375 1_545
Pt7 Sm6 3.339797 1_455
Pt7 Sm6 3.339797 1_555
Pt8 Sm6 3.295708 1_455
Pt8 Sm6 3.295708 1_555
Pt8 Sm2 3.331233 1_455
Pt8 Sm2 3.331233 1_555
Pt9 Sm11 3.295708 1_655
Pt9 Sm11 3.295708 1_555
Pt9 Sm8 3.331233 1_555
Pt9 Sm8 3.331233 1_655
Pt10 Sm7 3.370971 1_555
Pt10 Sm7 3.370971 1_655
Pt10 Sm0 3.413978 1_555
Pt10 Sm0 3.413978 1_655
Pt11 Sm6 3.370971 1_565
Pt11 Sm6 3.370971 1_465
Pt11 Sm2 3.413978 1_455
Pt11 Sm2 3.413978 1_555
Pt12 Sm3 3.295708 1_455
Pt12 Sm3 3.295708 1_555
Pt12 Sm4 3.331233 1_545
Pt12 Sm4 3.331233 1_445
Pt13 Sm9 3.238439 1_555
Pt13 Sm9 3.238439 1_655
Pt13 Sm5 3.300375 1_555
Pt13 Sm7 3.339797 1_555
Pt13 Sm7 3.339797 1_655
Pt14 Sm5 3.233936 1_455
Pt14 Sm5 3.233936 1_555
Pt14 Sm9 3.303583 1_555
Pt14 Sm2 3.351771 1_455
Pt14 Sm2 3.351771 1_555
Pt15 Sm10 3.238439 1_655
Pt15 Sm10 3.238439 1_555
Pt15 Sm1 3.300375 1_565
Pt15 Sm11 3.339797 1_555
Pt15 Sm11 3.339797 1_655
