# generated using pymatgen
data_Na2SrNd2Ti5O15
_symmetry_space_group_name_H-M   'P 1'
_cell_length_a   5.56517355
_cell_length_b   5.49475367
_cell_length_c   38.71192900
_cell_angle_alpha   90.00000000
_cell_angle_beta   90.00000000
_cell_angle_gamma   89.74575349
_symmetry_Int_Tables_number   1
_chemical_formula_structural   Na2SrNd2Ti5O15
_chemical_formula_sum   'Na8 Sr4 Nd8 Ti20 O60'
_cell_volume   1183.77040183
_cell_formula_units_Z   4
loop_
 _symmetry_equiv_pos_site_id
 _symmetry_equiv_pos_as_xyz
  1  'x, y, z'
loop_
 _atom_site_type_symbol
 _atom_site_label
 _atom_site_symmetry_multiplicity
 _atom_site_fract_x
 _atom_site_fract_y
 _atom_site_fract_z
 _atom_site_occupancy
  Na  Na0  1  0.52043300  0.99565400  0.65000000  1
  Na  Na1  1  0.52258400  0.99602800  0.45121100  1
  Na  Na2  1  0.52258400  0.99602800  0.84878900  1
  Na  Na3  1  0.97420000  0.50371600  0.15000000  1
  Na  Na4  1  0.97834200  0.49685200  0.55060900  1
  Na  Na5  1  0.97834200  0.49685200  0.74939100  1
  Na  Na6  1  0.97628100  0.50080000  0.35123900  1
  Na  Na7  1  0.97628100  0.50080000  0.94876100  1
  Sr  Sr0  1  0.00819000  0.49348800  0.04925100  1
  Sr  Sr1  1  0.00819000  0.49348800  0.25074900  1
  Sr  Sr2  1  0.50265600  0.99826700  0.04916900  1
  Sr  Sr3  1  0.50265600  0.99826700  0.25083100  1
  Nd  Nd0  1  0.05524700  0.48696500  0.45112500  1
  Nd  Nd1  1  0.05452000  0.48764900  0.65000000  1
  Nd  Nd2  1  0.05524700  0.48696500  0.84887500  1
  Nd  Nd3  1  0.45396900  0.99195100  0.35162600  1
  Nd  Nd4  1  0.46258700  0.99572400  0.15000000  1
  Nd  Nd5  1  0.44471200  0.98771100  0.55061800  1
  Nd  Nd6  1  0.44471200  0.98771100  0.74938200  1
  Nd  Nd7  1  0.45396900  0.99195100  0.94837400  1
  Ti  Ti0  1  0.98118800  0.00090200  0.99776200  1
  Ti  Ti1  1  0.98468400  0.00056700  0.19959000  1
  Ti  Ti2  1  0.98994400  0.98279800  0.40097100  1
  Ti  Ti3  1  0.98118800  0.00090200  0.30223800  1
  Ti  Ti4  1  0.98485400  0.98236900  0.50156200  1
  Ti  Ti5  1  0.98485400  0.98236900  0.79843800  1
  Ti  Ti6  1  0.98457600  0.98260900  0.59970100  1
  Ti  Ti7  1  0.98457600  0.98260900  0.70029900  1
  Ti  Ti8  1  0.98994400  0.98279800  0.89902900  1
  Ti  Ti9  1  0.49118800  0.49481300  0.10017400  1
  Ti  Ti10  1  0.49013300  0.49312900  0.30205800  1
  Ti  Ti11  1  0.51371700  0.48223500  0.50038800  1
  Ti  Ti12  1  0.51511800  0.48451900  0.89781400  1
  Ti  Ti13  1  0.49013300  0.49312900  0.99794200  1
  Ti  Ti14  1  0.51335400  0.48230300  0.69909100  1
  Ti  Ti15  1  0.49118800  0.49481300  0.19982600  1
  Ti  Ti16  1  0.51335400  0.48230300  0.60090900  1
  Ti  Ti17  1  0.51511800  0.48451900  0.40218600  1
  Ti  Ti18  1  0.51371700  0.48223500  0.79961200  1
  Ti  Ti19  1  0.98468400  0.00056700  0.10041000  1
  O  O0  1  0.99885500  0.95152300  0.04910400  1
  O  O1  1  0.99885500  0.95152300  0.25089600  1
  O  O2  1  0.98519600  0.92593900  0.45119100  1
  O  O3  1  0.98401900  0.92609900  0.65000000  1
  O  O4  1  0.98519600  0.92593900  0.84880900  1
  O  O5  1  0.24489000  0.74065400  0.19419200  1
  O  O6  1  0.24489000  0.74065400  0.10580800  1
  O  O7  1  0.24132200  0.73921200  0.30779300  1
  O  O8  1  0.21455200  0.72695700  0.50793000  1
  O  O9  1  0.21407100  0.72691500  0.59327100  1
  O  O10  1  0.21407100  0.72691500  0.70673000  1
  O  O11  1  0.21833200  0.72721300  0.39455500  1
  O  O12  1  0.21455200  0.72695700  0.79207000  1
  O  O13  1  0.24132200  0.73921200  0.99220700  1
  O  O14  1  0.21833200  0.72721300  0.90544500  1
  O  O15  1  0.27608100  0.23069700  0.09515600  1
  O  O16  1  0.27487900  0.23104900  0.29675900  1
  O  O17  1  0.27487900  0.23104900  0.00324100  1
  O  O18  1  0.28905900  0.22721400  0.49388500  1
  O  O19  1  0.28853500  0.22714400  0.69273900  1
  O  O20  1  0.27608100  0.23069700  0.20484500  1
  O  O21  1  0.29092600  0.22648200  0.40839300  1
  O  O22  1  0.29092600  0.22648200  0.89160700  1
  O  O23  1  0.28853500  0.22714400  0.60726100  1
  O  O24  1  0.28905900  0.22721400  0.80611500  1
  O  O25  1  0.51517700  0.43001900  0.35198700  1
  O  O26  1  0.51080100  0.43401400  0.15000000  1
  O  O27  1  0.51841500  0.42586100  0.55059800  1
  O  O28  1  0.51841500  0.42586100  0.74940200  1
  O  O29  1  0.51517700  0.43001900  0.94801300  1
  O  O30  1  0.50319100  0.54428700  0.04908800  1
  O  O31  1  0.50319100  0.54428700  0.25091200  1
  O  O32  1  0.48541200  0.57226200  0.65000000  1
  O  O33  1  0.48684500  0.57235700  0.45121400  1
  O  O34  1  0.48684500  0.57235700  0.84878600  1
  O  O35  1  0.72838800  0.77795000  0.10689900  1
  O  O36  1  0.72838800  0.77795000  0.19310100  1
  O  O37  1  0.72532200  0.77974500  0.30860800  1
  O  O38  1  0.71035600  0.79812400  0.39340400  1
  O  O39  1  0.70690200  0.79829200  0.50888300  1
  O  O40  1  0.70654600  0.79816400  0.59234100  1
  O  O41  1  0.70654600  0.79816400  0.70765900  1
  O  O42  1  0.70690200  0.79829200  0.79111700  1
  O  O43  1  0.72532200  0.77974500  0.99139200  1
  O  O44  1  0.71035600  0.79812400  0.90659600  1
  O  O45  1  0.77049700  0.26695500  0.09476500  1
  O  O46  1  0.76924700  0.26806100  0.00412800  1
  O  O47  1  0.77049700  0.26695500  0.20523500  1
  O  O48  1  0.76924700  0.26806100  0.29587200  1
  O  O49  1  0.79801000  0.29870800  0.40906300  1
  O  O50  1  0.79557900  0.29815100  0.69169800  1
  O  O51  1  0.79612400  0.29800300  0.49284800  1
  O  O52  1  0.79557900  0.29815100  0.60830200  1
  O  O53  1  0.79801000  0.29870800  0.89093700  1
  O  O54  1  0.79612400  0.29800300  0.80715200  1
  O  O55  1  0.02300700  0.05772300  0.15000000  1
  O  O56  1  0.01933900  0.06687700  0.35175100  1
  O  O57  1  0.01513700  0.07272000  0.55059700  1
  O  O58  1  0.01513700  0.07272000  0.74940300  1
  O  O59  1  0.01933900  0.06687700  0.94824900  1
loop_
_geom_bond_atom_site_label_1
_geom_bond_atom_site_label_2
_geom_bond_distance
_geom_bond_site_symmetry_2
Na0 O32 2.335446 1_555
Na0 O19 2.450774 1_565
Na0 O23 2.450774 1_565
Na0 O3 2.606413 1_555
Na0 O41 2.687491 1_555
Na0 O40 2.687491 1_555
Na0 O50 2.781308 1_565
Na0 O52 2.781308 1_565
Na1 O33 2.337328 1_555
Na1 O21 2.449205 1_565
Na1 O18 2.452977 1_565
Na1 O2 2.601471 1_555
Na1 O39 2.684638 1_555
Na1 O38 2.696713 1_555
Na1 O51 2.773277 1_565
Na1 O49 2.792915 1_565
Na2 O34 2.337328 1_555
Na2 O22 2.449205 1_565
Na2 O24 2.452977 1_565
Na2 O4 2.601471 1_555
Na2 O42 2.684638 1_555
Na2 O44 2.696713 1_555
Na2 O54 2.773277 1_565
Na2 O53 2.792915 1_565
Na3 O55 2.464430 1_655
Na3 O26 2.608861 1_555
Na3 O36 2.628241 1_555
Na3 O35 2.628241 1_555
Na3 O6 2.628390 1_655
Na3 O5 2.628390 1_655
Na3 O45 2.750057 1_555
Na3 O47 2.750057 1_555
Na4 O57 2.338574 1_655
Na4 O9 2.461975 1_655
Na4 O8 2.463969 1_655
Na4 O27 2.590837 1_555
Na4 O52 2.687848 1_555
Na4 O51 2.689217 1_555
Na4 O39 2.759053 1_555
Na4 O40 2.759848 1_555
Na5 O58 2.338574 1_655
Na5 O10 2.461949 1_655
Na5 O12 2.463969 1_655
Na5 O28 2.590837 1_555
Na5 O50 2.687848 1_555
Na5 O54 2.689217 1_555
Na5 O42 2.759053 1_555
Na5 O41 2.759848 1_555
Na6 O56 2.395335 1_655
Na6 O11 2.487768 1_655
Na6 O7 2.595694 1_655
Na6 O25 2.597296 1_555
Na6 O37 2.646589 1_555
Na6 O49 2.690341 1_555
Na6 O38 2.738999 1_555
Na6 O48 2.751371 1_555
Na7 O59 2.395335 1_655
Na7 O14 2.487768 1_655
Na7 O13 2.595694 1_655
Na7 O29 2.597296 1_555
Na7 O43 2.646589 1_555
Na7 O53 2.690341 1_555
Na7 O44 2.738999 1_555
Na7 O46 2.751371 1_556
Nd0 O51 2.404101 1_455
Nd0 O49 2.404981 1_455
Nd0 O2 2.441648 1_455
Nd0 O33 2.449363 1_555
Nd0 O18 2.540440 1_555
Nd0 O21 2.547296 1_555
Nd0 O8 2.714970 1_555
Nd0 O11 2.715299 1_555
Nd1 O50 2.404124 1_455
Nd1 O52 2.404124 1_455
Nd1 O3 2.439195 1_455
Nd1 O32 2.444668 1_555
Nd1 O19 2.542807 1_555
Nd1 O23 2.542807 1_555
Nd1 O9 2.711096 1_555
Nd1 O10 2.711127 1_555
Nd2 O54 2.404101 1_455
Nd2 O53 2.404981 1_455
Nd2 O4 2.441648 1_455
Nd2 O34 2.449363 1_555
Nd2 O24 2.540440 1_555
Nd2 O22 2.547296 1_555
Nd2 O12 2.714970 1_555
Nd2 O14 2.715299 1_555
Nd3 O38 2.402573 1_555
Nd3 O25 2.432595 1_565
Nd3 O56 2.451782 1_565
Nd3 O7 2.494592 1_555
Nd3 O37 2.529370 1_555
Nd3 O11 2.571858 1_555
Nd3 O16 2.686850 1_565
Nd3 O21 2.702392 1_565
Nd4 O26 2.424380 1_565
Nd4 O55 2.468448 1_565
Nd4 O6 2.524654 1_555
Nd4 O5 2.524654 1_555
Nd4 O35 2.527501 1_555
Nd4 O36 2.527501 1_555
Nd4 O15 2.690732 1_565
Nd4 O20 2.690762 1_565
Nd5 O40 2.409019 1_555
Nd5 O39 2.410224 1_555
Nd5 O57 2.433830 1_565
Nd5 O27 2.444010 1_565
Nd5 O8 2.537847 1_555
Nd5 O9 2.538455 1_555
Nd5 O23 2.698952 1_565
Nd5 O18 2.701040 1_565
Nd6 O41 2.409019 1_555
Nd6 O42 2.410224 1_555
Nd6 O58 2.433830 1_565
Nd6 O28 2.444010 1_565
Nd6 O12 2.537847 1_555
Nd6 O10 2.538430 1_555
Nd6 O19 2.698952 1_565
Nd6 O24 2.701040 1_565
Nd7 O44 2.402573 1_555
Nd7 O29 2.432595 1_565
Nd7 O59 2.451782 1_565
Nd7 O13 2.494592 1_555
Nd7 O43 2.529370 1_555
Nd7 O14 2.571858 1_555
Nd7 O17 2.686850 1_566
Nd7 O22 2.702392 1_565
O0 Ti19 2.005857 1_565
O0 Ti0 2.008331 1_564
O0 Sr0 2.517102 1_655
O0 Sr2 2.772219 1_555
O0 Sr2 2.816616 1_655
O0 Sr0 2.978653 1_665
O1 Ti1 2.005857 1_565
O1 Ti3 2.008331 1_565
O1 Sr1 2.517102 1_655
O1 Sr3 2.772219 1_555
O1 Sr3 2.816616 1_655
O1 Sr1 2.978653 1_665
O2 Ti2 1.969253 1_555
O2 Ti4 1.974457 1_555
O3 Ti7 1.971778 1_555
O3 Ti6 1.971778 1_555
O4 Ti8 1.969253 1_555
O4 Ti5 1.974457 1_555
O5 Ti15 1.932534 1_555
O5 Ti1 2.040078 1_465
O5 Sr1 2.896408 1_555
O5 Sr3 2.981117 1_555
O6 Ti9 1.932534 1_555
O6 Ti19 2.040078 1_465
O6 Sr0 2.896408 1_555
O6 Sr2 2.981117 1_555
O7 Ti10 1.943799 1_555
O7 Ti3 2.047242 1_465
O7 Sr1 2.897996 1_555
O7 Sr3 3.003707 1_555
O8 Ti4 1.910112 1_455
O8 Ti11 2.155335 1_555
O9 Ti6 1.910806 1_455
O9 Ti16 2.155972 1_555
O10 Ti7 1.910811 1_455
O10 Ti14 2.155977 1_555
O11 Ti2 1.906203 1_455
O11 Ti17 2.138705 1_555
O12 Ti5 1.910112 1_455
O12 Ti18 2.155335 1_555
O13 Ti13 1.943799 1_555
O13 Ti0 2.047242 1_465
O13 Sr0 2.897996 1_556
O13 Sr2 3.003707 1_556
O14 Ti8 1.906203 1_455
O14 Ti12 2.138705 1_555
O15 Ti9 1.895351 1_555
O15 Ti19 2.070840 1_455
O15 Sr2 2.525079 1_545
O15 Sr0 2.728845 1_555
O16 Ti10 1.888440 1_555
O16 Ti3 2.081813 1_455
O16 Sr3 2.527778 1_545
O16 Sr1 2.726845 1_555
O17 Ti13 1.888440 1_554
O17 Ti0 2.081813 1_454
O17 Sr2 2.527778 1_545
O17 Sr0 2.726845 1_555
O18 Ti11 1.898856 1_555
O18 Ti4 2.187380 1_445
O19 Ti14 1.899245 1_555
O19 Ti7 2.184652 1_445
O20 Ti15 1.895355 1_555
O20 Ti1 2.070843 1_455
O20 Sr3 2.525052 1_545
O20 Sr1 2.728820 1_555
O21 Ti17 1.907985 1_555
O21 Ti2 2.168183 1_445
O22 Ti12 1.907985 1_555
O22 Ti8 2.168183 1_445
O23 Ti16 1.899245 1_555
O23 Ti6 2.184652 1_445
O24 Ti18 1.898856 1_555
O24 Ti5 2.187380 1_445
O25 Ti17 1.966238 1_555
O25 Ti10 1.968540 1_555
O26 Ti9 1.960536 1_555
O26 Ti15 1.960536 1_555
O27 Ti11 1.968409 1_555
O27 Ti16 1.972355 1_555
O28 Ti18 1.968409 1_555
O28 Ti14 1.972355 1_555
O29 Ti12 1.966238 1_555
O29 Ti13 1.968540 1_555
O30 Ti9 1.997392 1_555
O30 Ti13 2.001180 1_554
O30 Sr2 2.494499 1_555
O30 Sr0 2.770111 1_555
O30 Sr0 2.823009 1_655
O30 Sr2 3.000262 1_545
O31 Ti15 1.997392 1_555
O31 Ti10 2.001180 1_555
O31 Sr3 2.494499 1_555
O31 Sr1 2.770111 1_555
O31 Sr1 2.823009 1_655
O31 Sr3 3.000262 1_545
O32 Ti14 1.969615 1_555
O32 Ti16 1.969615 1_555
O33 Ti17 1.964514 1_555
O33 Ti11 1.972485 1_555
O34 Ti12 1.964514 1_555
O34 Ti18 1.972485 1_555
O35 Ti19 1.899813 1_565
O35 Ti9 2.061304 1_555
O35 Sr2 2.832784 1_555
O35 Sr0 3.134734 1_655
O36 Ti1 1.899813 1_565
O36 Ti15 2.061304 1_555
O36 Sr3 2.832784 1_555
O36 Sr1 3.134734 1_655
O37 Ti3 1.892217 1_565
O37 Ti10 2.067845 1_555
O37 Sr3 2.822540 1_555
O37 Sr1 3.153897 1_655
O38 Ti2 1.884281 1_555
O38 Ti17 2.069325 1_555
O39 Ti4 1.873500 1_555
O39 Ti11 2.072811 1_555
O40 Ti6 1.875188 1_555
O40 Ti16 2.072377 1_555
O41 Ti7 1.875188 1_555
O41 Ti14 2.072377 1_555
O42 Ti5 1.873500 1_555
O42 Ti18 2.072811 1_555
O43 Ti0 1.892217 1_565
O43 Ti13 2.067845 1_555
O43 Sr2 2.822540 1_556
O43 Sr0 3.153897 1_656
O44 Ti8 1.884281 1_555
O44 Ti12 2.069325 1_555
O45 Ti19 1.896215 1_555
O45 Ti9 2.002575 1_555
O45 Sr0 2.533420 1_655
O45 Sr2 2.745297 1_545
O46 Ti0 1.895126 1_554
O46 Ti13 1.995621 1_554
O46 Sr0 2.523584 1_655
O46 Sr2 2.731035 1_545
O47 Ti1 1.896215 1_555
O47 Ti15 2.002575 1_555
O47 Sr1 2.533420 1_655
O47 Sr3 2.745297 1_545
O48 Ti3 1.895126 1_555
O48 Ti10 1.995621 1_555
O48 Sr1 2.523584 1_655
O48 Sr3 2.731035 1_545
O49 Ti17 1.891448 1_555
O49 Ti2 2.058100 1_545
O50 Ti14 1.886416 1_555
O50 Ti7 2.051125 1_545
O51 Ti11 1.888363 1_555
O51 Ti4 2.051511 1_545
O52 Ti16 1.886416 1_555
O52 Ti6 2.051125 1_545
O53 Ti12 1.891448 1_555
O53 Ti8 2.058100 1_545
O54 Ti18 1.888363 1_555
O54 Ti5 2.051511 1_545
O55 Ti19 1.957053 1_455
O55 Ti1 1.957053 1_455
O56 Ti3 1.962418 1_455
O56 Ti2 1.967593 1_445
O57 Ti4 1.969499 1_445
O57 Ti6 1.971876 1_445
O58 Ti5 1.969499 1_445
O58 Ti7 1.971876 1_445
O59 Ti0 1.962418 1_455
O59 Ti8 1.967593 1_445
