# generated using pymatgen
data_NaCaBeSi2O6F
_symmetry_space_group_name_H-M   'P 1'
_cell_length_a   7.38210300
_cell_length_b   7.40587191
_cell_length_c   9.93598566
_cell_angle_alpha   90.00000000
_cell_angle_beta   90.00000000
_cell_angle_gamma   90.00000000
_symmetry_Int_Tables_number   1
_chemical_formula_structural   NaCaBeSi2O6F
_chemical_formula_sum   'Na4 Ca4 Be4 Si8 O24 F4'
_cell_volume   543.20937027
_cell_formula_units_Z   4
loop_
 _symmetry_equiv_pos_site_id
 _symmetry_equiv_pos_as_xyz
  1  'x, y, z'
loop_
 _atom_site_type_symbol
 _atom_site_label
 _atom_site_symmetry_multiplicity
 _atom_site_fract_x
 _atom_site_fract_y
 _atom_site_fract_z
 _atom_site_occupancy
  Na  Na0  1  0.10478288  0.18182191  0.25444938  1
  Na  Na1  1  0.39521712  0.81817809  0.75444938  1
  Na  Na2  1  0.60478288  0.31817809  0.74555062  1
  Na  Na3  1  0.89521712  0.68182191  0.24555062  1
  Ca  Ca0  1  0.07896805  0.14564080  0.73911369  1
  Ca  Ca1  1  0.42103195  0.85435920  0.23911369  1
  Ca  Ca2  1  0.57896805  0.35435920  0.26088631  1
  Ca  Ca3  1  0.92103195  0.64564080  0.76088631  1
  Be  Be0  1  0.11939320  0.85867833  0.96609961  1
  Be  Be1  1  0.88060680  0.35867833  0.53390039  1
  Be  Be2  1  0.61939320  0.64132167  0.03390039  1
  Be  Be3  1  0.38060680  0.14132167  0.46609961  1
  Si  Si0  1  0.40102839  0.14219168  0.97562374  1
  Si  Si1  1  0.76452631  0.99092945  0.99983556  1
  Si  Si2  1  0.09897161  0.85780832  0.47562374  1
  Si  Si3  1  0.73547369  0.00907055  0.49983556  1
  Si  Si4  1  0.59897161  0.64219168  0.52437626  1
  Si  Si5  1  0.90102839  0.35780832  0.02437626  1
  Si  Si6  1  0.23547369  0.49092945  0.50016444  1
  Si  Si7  1  0.26452631  0.50907055  0.00016444  1
  O  O0  1  0.35326696  0.34280950  0.90921083  1
  O  O1  1  0.92083621  0.91228892  0.90260536  1
  O  O2  1  0.60053461  0.08624053  0.91073179  1
  O  O3  1  0.42083621  0.58771108  0.09739464  1
  O  O4  1  0.85326696  0.15719050  0.09078917  1
  O  O5  1  0.82265813  0.16208745  0.59485168  1
  O  O6  1  0.89946539  0.91375947  0.41073179  1
  O  O7  1  0.67734187  0.83791255  0.09485168  1
  O  O8  1  0.39946539  0.58624053  0.58926821  1
  O  O9  1  0.64673304  0.84280950  0.59078917  1
  O  O10  1  0.17734187  0.66208745  0.90514832  1
  O  O11  1  0.75573011  0.49250946  0.09010262  1
  O  O12  1  0.14673304  0.65719050  0.40921083  1
  O  O13  1  0.74426989  0.50749054  0.59010262  1
  O  O14  1  0.40825835  0.14572299  0.13575148  1
  O  O15  1  0.59174165  0.64572299  0.36424852  1
  O  O16  1  0.25573011  0.00749054  0.90989738  1
  O  O17  1  0.90825835  0.35427701  0.86424852  1
  O  O18  1  0.32265813  0.33791255  0.40514832  1
  O  O19  1  0.24426989  0.99250946  0.40989738  1
  O  O20  1  0.57916379  0.08771108  0.40260536  1
  O  O21  1  0.10053461  0.41375947  0.08926821  1
  O  O22  1  0.09174165  0.85427701  0.63575148  1
  O  O23  1  0.07916379  0.41228892  0.59739464  1
  F  F0  1  0.87894854  0.35175608  0.37362118  1
  F  F1  1  0.37894854  0.14824392  0.62637882  1
  F  F2  1  0.62105146  0.64824392  0.87362118  1
  F  F3  1  0.12105146  0.85175608  0.12637882  1
loop_
_geom_bond_atom_site_label_1
_geom_bond_atom_site_label_2
_geom_bond_distance
_geom_bond_site_symmetry_2
Na0 O19 2.326271 1_545
Na0 O21 2.375950 1_555
Na0 O4 2.474865 1_455
Na0 O18 2.482986 1_555
Na0 O14 2.545839 1_555
Na0 O6 2.941034 1_445
Na1 O16 2.326271 1_565
Na1 O8 2.375950 1_555
Na1 O9 2.474865 1_555
Na1 O10 2.482986 1_555
Na1 O22 2.545839 1_555
Na1 O2 2.941034 1_565
Na2 O13 2.326271 1_555
Na2 O2 2.375950 1_555
Na2 O0 2.474865 1_555
Na2 O5 2.482986 1_555
Na2 O17 2.545839 1_555
Na2 O8 2.941034 1_555
Na3 O11 2.326271 1_555
Na3 O6 2.375950 1_555
Na3 O12 2.474865 1_655
Na3 O7 2.482986 1_555
Na3 O15 2.545839 1_555
Na3 O21 2.941034 1_655
Ca0 O17 2.349770 1_455
Ca0 O16 2.372544 1_555
Ca0 O5 2.376867 1_455
Ca0 O22 2.391599 1_545
Ca0 O23 2.425383 1_555
Ca0 F1 2.481737 1_555
Ca0 O1 2.643506 1_445
Ca0 O0 3.014766 1_555
Ca1 O15 2.349770 1_555
Ca1 O19 2.372544 1_555
Ca1 O7 2.376867 1_555
Ca1 O14 2.391599 1_565
Ca1 O3 2.425383 1_555
Ca1 F3 2.481737 1_555
Ca1 O20 2.643506 1_565
Ca1 O12 3.014766 1_555
Ca2 O14 2.349770 1_555
Ca2 O11 2.372544 1_555
Ca2 O18 2.376867 1_555
Ca2 O15 2.391599 1_555
Ca2 O20 2.425383 1_555
Ca2 F0 2.481737 1_555
Ca2 O3 2.643506 1_555
Ca2 O4 3.014766 1_555
Ca3 O22 2.349770 1_655
Ca3 O13 2.372544 1_555
Ca3 O10 2.376867 1_655
Ca3 O17 2.391599 1_555
Ca3 O1 2.425383 1_555
Ca3 F2 2.481737 1_555
Ca3 O23 2.643506 1_655
Ca3 O9 3.014766 1_555
Be0 F3 1.593404 1_556
Be0 O16 1.593542 1_565
Be0 O10 1.633856 1_555
Be0 O1 1.644420 1_455
Be1 F0 1.593404 1_555
Be1 O13 1.593542 1_555
Be1 O5 1.633856 1_555
Be1 O23 1.644420 1_655
Be2 F2 1.593404 1_554
Be2 O11 1.593542 1_555
Be2 O7 1.633856 1_555
Be2 O3 1.644420 1_555
Be3 F1 1.593404 1_555
Be3 O19 1.593542 1_545
Be3 O18 1.633856 1_555
Be3 O20 1.644420 1_555
O0 Si7 1.661916 1_556
O0 Si0 1.663491 1_555
O1 Si1 1.613683 1_555
O2 Si1 1.657594 1_545
O2 Si0 1.660268 1_555
O3 Si7 1.613683 1_555
O4 Si1 1.661916 1_544
O4 Si5 1.663491 1_555
O5 Si3 1.609257 1_555
O6 Si3 1.657594 1_565
O6 Si2 1.660268 1_655
O7 Si1 1.609257 1_554
O8 Si6 1.657594 1_555
O8 Si4 1.660268 1_555
O9 Si3 1.661916 1_565
O9 Si4 1.663491 1_555
O10 Si7 1.609257 1_556
O11 Si5 1.603787 1_555
O12 Si6 1.661916 1_555
O12 Si2 1.663491 1_555
O13 Si4 1.603787 1_555
O14 Si0 1.592137 1_554
O15 Si4 1.592137 1_555
O16 Si0 1.603787 1_555
O17 Si5 1.592137 1_556
O18 Si6 1.609257 1_555
O19 Si2 1.603787 1_555
O20 Si3 1.613683 1_555
O21 Si7 1.657594 1_555
O21 Si5 1.660268 1_455
O22 Si2 1.592137 1_555
O23 Si6 1.613683 1_555
F0 Na0 2.401093 1_655
F0 Na3 2.758426 1_555
F1 Na2 2.401093 1_555
F1 Na1 2.758426 1_545
F2 Na1 2.401093 1_555
F2 Na2 2.758426 1_555
F3 Na3 2.401093 1_455
F3 Na0 2.758426 1_565
