# generated using pymatgen
data_Rb4Re6S13
_symmetry_space_group_name_H-M   'P 1'
_cell_length_a   9.75110527
_cell_length_b   9.75110527
_cell_length_c   14.09929620
_cell_angle_alpha   85.38641898
_cell_angle_beta   85.38641898
_cell_angle_gamma   119.64111688
_symmetry_Int_Tables_number   1
_chemical_formula_structural   Rb4Re6S13
_chemical_formula_sum   'Rb8 Re12 S26'
_cell_volume   1150.17358614
_cell_formula_units_Z   2
loop_
 _symmetry_equiv_pos_site_id
 _symmetry_equiv_pos_as_xyz
  1  'x, y, z'
loop_
 _atom_site_type_symbol
 _atom_site_label
 _atom_site_symmetry_multiplicity
 _atom_site_fract_x
 _atom_site_fract_y
 _atom_site_fract_z
 _atom_site_occupancy
  Rb  Rb0  1  0.62470131  0.90604069  0.38098600  1
  Rb  Rb1  1  0.09395931  0.37529869  0.11901400  1
  Rb  Rb2  1  0.37529869  0.09395931  0.61901400  1
  Rb  Rb3  1  0.90604069  0.62470131  0.88098600  1
  Rb  Rb4  1  0.29928216  0.23875416  0.34057241  1
  Rb  Rb5  1  0.76124584  0.70071784  0.15942759  1
  Rb  Rb6  1  0.70071784  0.76124584  0.65942759  1
  Rb  Rb7  1  0.23875416  0.29928216  0.84057241  1
  Re  Re0  1  0.68180402  0.98405487  0.98013378  1
  Re  Re1  1  0.01594513  0.31819598  0.51986622  1
  Re  Re2  1  0.31819598  0.01594513  0.01986622  1
  Re  Re3  1  0.98405487  0.68180402  0.48013378  1
  Re  Re4  1  0.15356170  0.57475098  0.39166218  1
  Re  Re5  1  0.42524902  0.84643830  0.10833782  1
  Re  Re6  1  0.84643830  0.42524902  0.60833782  1
  Re  Re7  1  0.57475098  0.15356170  0.89166218  1
  Re  Re8  1  0.59947849  0.15684979  0.07612657  1
  Re  Re9  1  0.84315021  0.40052151  0.42387343  1
  Re  Re10  1  0.40052151  0.84315021  0.92387343  1
  Re  Re11  1  0.15684979  0.59947849  0.57612657  1
  S  S0  1  0.30315131  0.49683708  0.49038028  1
  S  S1  1  0.50316292  0.69684869  0.00961972  1
  S  S2  1  0.69684869  0.50316292  0.50961972  1
  S  S3  1  0.49683708  0.30315131  0.99038028  1
  S  S4  1  0.69409755  0.99459541  0.14905637  1
  S  S5  1  0.00540459  0.30590245  0.35094363  1
  S  S6  1  0.30590245  0.00540459  0.85094363  1
  S  S7  1  0.99459541  0.69409755  0.64905637  1
  S  S8  1  0.27117836  0.83048840  0.45222390  1
  S  S9  1  0.16951160  0.72882164  0.04777610  1
  S  S10  1  0.72882164  0.16951160  0.54777610  1
  S  S11  1  0.83048840  0.27117836  0.95222390  1
  S  S12  1  0.35483446  0.01808956  0.18655629  1
  S  S13  1  0.98191044  0.64516554  0.31344371  1
  S  S14  1  0.64516554  0.98191044  0.81344371  1
  S  S15  1  0.01808956  0.35483446  0.68655629  1
  S  S16  1  0.64100427  0.26024174  0.32170014  1
  S  S17  1  0.73975826  0.35899573  0.17829986  1
  S  S18  1  0.35899573  0.73975826  0.67829986  1
  S  S19  1  0.26024174  0.64100427  0.82170014  1
  S  S20  1  0.07938433  0.04703448  0.05120216  1
  S  S21  1  0.95296552  0.92061567  0.44879784  1
  S  S22  1  0.92061567  0.95296552  0.94879784  1
  S  S23  1  0.04703448  0.07938433  0.55120216  1
  S  S24  1  0.35472110  0.64527890  0.25000000  1
  S  S25  1  0.64527890  0.35472110  0.75000000  1
loop_
_geom_bond_atom_site_label_1
_geom_bond_atom_site_label_2
_geom_bond_distance
_geom_bond_site_symmetry_2
Rb0 S8 3.201087 1_555
Rb0 S4 3.241688 1_555
Rb0 S21 3.353289 1_555
Rb0 S16 3.409422 1_565
Rb0 S24 3.423899 1_555
Rb0 S10 3.455045 1_565
Rb0 S0 3.740124 1_555
Rb0 S5 3.785170 1_665
Rb1 S9 3.201087 1_555
Rb1 S5 3.241688 1_555
Rb1 S20 3.353289 1_555
Rb1 S17 3.409422 1_455
Rb1 S24 3.423899 1_555
Rb1 S11 3.455045 1_454
Rb1 S1 3.740124 1_555
Rb1 S4 3.785170 1_445
Rb2 S10 3.201087 1_555
Rb2 S6 3.241688 1_555
Rb2 S23 3.353289 1_555
Rb2 S18 3.409422 1_545
Rb2 S25 3.423899 1_555
Rb2 S8 3.455045 1_545
Rb2 S2 3.740124 1_555
Rb2 S7 3.785170 1_445
Rb3 S11 3.201087 1_555
Rb3 S7 3.241688 1_555
Rb3 S22 3.353289 1_555
Rb3 S19 3.409422 1_655
Rb3 S25 3.423899 1_555
Rb3 S9 3.455045 1_656
Rb3 S3 3.740124 1_555
Rb3 S6 3.785170 1_665
Rb4 S16 3.221157 1_555
Rb4 S5 3.235101 1_555
Rb4 S12 3.369598 1_555
Rb4 S21 3.376880 1_445
Rb4 S0 3.401471 1_555
Rb4 S23 3.403820 1_555
Rb4 S24 3.819915 1_555
Rb5 S17 3.221157 1_555
Rb5 S4 3.235101 1_555
Rb5 S13 3.369598 1_555
Rb5 S20 3.376880 1_665
Rb5 S1 3.401471 1_555
Rb5 S22 3.403820 1_554
Rb5 S24 3.819915 1_555
Rb6 S18 3.221157 1_555
Rb6 S7 3.235101 1_555
Rb6 S14 3.369598 1_555
Rb6 S23 3.376880 1_665
Rb6 S2 3.401471 1_555
Rb6 S21 3.403820 1_555
Rb6 S25 3.819915 1_555
Rb7 S19 3.221157 1_555
Rb7 S6 3.235101 1_555
Rb7 S15 3.369598 1_555
Rb7 S22 3.376880 1_445
Rb7 S3 3.401471 1_555
Rb7 S20 3.403820 1_556
Rb7 S25 3.819915 1_555
Re0 S4 2.402187 1_556
Re0 S14 2.405653 1_555
Re0 S11 2.410702 1_565
Re0 S1 2.433354 1_556
Re0 S22 2.502830 1_555
Re1 S5 2.402187 1_555
Re1 S15 2.405653 1_555
Re1 S10 2.410702 1_455
Re1 S0 2.433354 1_555
Re1 S23 2.502830 1_555
Re2 S6 2.402187 1_554
Re2 S12 2.405653 1_555
Re2 S9 2.410702 1_545
Re2 S3 2.433354 1_554
Re2 S20 2.502830 1_555
Re3 S7 2.402187 1_555
Re3 S13 2.405653 1_555
Re3 S8 2.410702 1_655
Re3 S2 2.433354 1_555
Re3 S21 2.502830 1_555
Re4 S13 2.408556 1_455
Re4 S0 2.427930 1_555
Re4 S5 2.432839 1_555
Re4 S8 2.436034 1_555
Re4 S24 2.474740 1_555
Re5 S12 2.408556 1_565
Re5 S1 2.427930 1_555
Re5 S4 2.432839 1_555
Re5 S9 2.436034 1_555
Re5 S24 2.474740 1_555
Re6 S15 2.408556 1_655
Re6 S2 2.427930 1_555
Re6 S7 2.432839 1_555
Re6 S10 2.436034 1_555
Re6 S25 2.474740 1_555
Re7 S14 2.408556 1_545
Re7 S3 2.427930 1_555
Re7 S6 2.432839 1_555
Re7 S11 2.436034 1_555
Re7 S25 2.474740 1_555
Re8 S4 2.397210 1_545
Re8 S12 2.411780 1_555
Re8 S3 2.414133 1_554
Re8 S11 2.436911 1_554
Re8 S17 2.436920 1_555
Re9 S5 2.397210 1_655
Re9 S13 2.411780 1_555
Re9 S2 2.414133 1_555
Re9 S10 2.436911 1_555
Re9 S16 2.436920 1_555
Re10 S6 2.397210 1_565
Re10 S14 2.411780 1_555
Re10 S1 2.414133 1_556
Re10 S9 2.436911 1_556
Re10 S19 2.436920 1_555
Re11 S7 2.397210 1_455
Re11 S15 2.411780 1_555
Re11 S0 2.414133 1_555
Re11 S8 2.436911 1_555
Re11 S18 2.436920 1_555
S16 S17 2.097333 1_555
S18 S19 2.097333 1_555
S20 S22 2.119163 1_444
S21 S23 2.119163 1_665
