# generated using pymatgen
data_Pr3W(ClO2)3
_symmetry_space_group_name_H-M   'P 1'
_cell_length_a   9.42996007
_cell_length_b   9.42996007
_cell_length_c   5.44593200
_cell_angle_alpha   90.00000000
_cell_angle_beta   90.00000000
_cell_angle_gamma   120.00000051
_symmetry_Int_Tables_number   1
_chemical_formula_structural   Pr3W(ClO2)3
_chemical_formula_sum   'Pr6 W2 Cl6 O12'
_cell_volume   419.39432688
_cell_formula_units_Z   2
loop_
 _symmetry_equiv_pos_site_id
 _symmetry_equiv_pos_as_xyz
  1  'x, y, z'
loop_
 _atom_site_type_symbol
 _atom_site_label
 _atom_site_symmetry_multiplicity
 _atom_site_fract_x
 _atom_site_fract_y
 _atom_site_fract_z
 _atom_site_occupancy
  Pr  Pr0  1  0.68588100  0.09038600  0.25000000  1
  Pr  Pr1  1  0.40450500  0.31411900  0.25000000  1
  Pr  Pr2  1  0.09038600  0.40450500  0.75000000  1
  Pr  Pr3  1  0.90961400  0.59549500  0.25000000  1
  Pr  Pr4  1  0.59549500  0.68588100  0.75000000  1
  Pr  Pr5  1  0.31411900  0.90961400  0.75000000  1
  W  W0  1  0.33333300  0.66666700  0.25000000  1
  W  W1  1  0.66666700  0.33333300  0.75000000  1
  Cl  Cl0  1  0.95185900  0.75948100  0.75000000  1
  Cl  Cl1  1  0.24051900  0.19237800  0.75000000  1
  Cl  Cl2  1  0.75948100  0.80762200  0.25000000  1
  Cl  Cl3  1  0.80762200  0.04814100  0.75000000  1
  Cl  Cl4  1  0.19237800  0.95185900  0.25000000  1
  Cl  Cl5  1  0.04814100  0.24051900  0.25000000  1
  O  O0  1  0.63595100  0.47573100  0.51867500  1
  O  O1  1  0.36404900  0.52426900  0.48132500  1
  O  O2  1  0.47573100  0.83978000  0.01867500  1
  O  O3  1  0.83978000  0.36404900  0.98132500  1
  O  O4  1  0.52426900  0.16022000  0.51867500  1
  O  O5  1  0.36404900  0.52426900  0.01867500  1
  O  O6  1  0.52426900  0.16022000  0.98132500  1
  O  O7  1  0.83978000  0.36404900  0.51867500  1
  O  O8  1  0.47573100  0.83978000  0.48132500  1
  O  O9  1  0.63595100  0.47573100  0.98132500  1
  O  O10  1  0.16022000  0.63595100  0.48132500  1
  O  O11  1  0.16022000  0.63595100  0.01867500  1
loop_
_geom_bond_atom_site_label_1
_geom_bond_atom_site_label_2
_geom_bond_distance
_geom_bond_site_symmetry_2
Cl0 Pr5 2.972832 1_655
Cl0 Pr3 3.057533 1_556
Cl0 Pr3 3.057533 1_555
Cl0 Pr4 3.072834 1_555
Cl1 Pr2 2.972832 1_555
Cl1 Pr1 3.057533 1_555
Cl1 Pr1 3.057533 1_556
Cl1 Pr5 3.072834 1_545
Cl2 Pr3 2.972832 1_555
Cl2 Pr4 3.057533 1_555
Cl2 Pr4 3.057533 1_554
Cl2 Pr0 3.072834 1_565
Cl3 Pr4 2.972832 1_545
Cl3 Pr0 3.057533 1_555
Cl3 Pr0 3.057533 1_556
Cl3 Pr2 3.072834 1_655
Cl4 Pr1 2.972832 1_565
Cl4 Pr5 3.057533 1_555
Cl4 Pr5 3.057533 1_554
Cl4 Pr3 3.072834 1_455
Cl5 Pr0 2.972832 1_455
Cl5 Pr2 3.057533 1_554
Cl5 Pr2 3.057533 1_555
Cl5 Pr1 3.072834 1_555
O0 W1 1.965457 1_555
O0 Pr1 2.429143 1_555
O0 Pr4 2.532936 1_555
O0 Pr3 2.676109 1_555
O1 W0 1.965457 1_555
O1 Pr4 2.429143 1_555
O1 Pr1 2.532936 1_555
O1 Pr2 2.676109 1_555
O2 W0 1.965452 1_555
O2 Pr5 2.429143 1_554
O2 Pr0 2.532936 1_565
O2 Pr4 2.676109 1_554
O3 W1 1.965450 1_555
O3 Pr3 2.429143 1_556
O3 Pr2 2.532936 1_655
O3 Pr0 2.676109 1_556
O4 W1 1.965452 1_555
O4 Pr0 2.429143 1_555
O4 Pr5 2.532936 1_545
O4 Pr1 2.676109 1_555
O5 W0 1.965457 1_555
O5 Pr4 2.429143 1_554
O5 Pr1 2.532936 1_555
O5 Pr2 2.676109 1_554
O6 W1 1.965452 1_555
O6 Pr0 2.429143 1_556
O6 Pr5 2.532936 1_545
O6 Pr1 2.676109 1_556
O7 W1 1.965450 1_555
O7 Pr3 2.429143 1_555
O7 Pr2 2.532936 1_655
O7 Pr0 2.676109 1_555
O8 W0 1.965452 1_555
O8 Pr5 2.429143 1_555
O8 Pr0 2.532936 1_565
O8 Pr4 2.676109 1_555
O9 W1 1.965457 1_555
O9 Pr1 2.429143 1_556
O9 Pr4 2.532936 1_555
O9 Pr3 2.676109 1_556
O10 W0 1.965450 1_555
O10 Pr2 2.429143 1_555
O10 Pr3 2.532936 1_455
O10 Pr5 2.676109 1_555
O11 W0 1.965450 1_555
O11 Pr2 2.429143 1_554
O11 Pr3 2.532936 1_455
O11 Pr5 2.676109 1_554
