# generated using pymatgen
data_NaSO4
_symmetry_space_group_name_H-M   'P 1'
_cell_length_a   4.87763900
_cell_length_b   5.71308876
_cell_length_c   6.19528964
_cell_angle_alpha   101.54606403
_cell_angle_beta   103.10247359
_cell_angle_gamma   97.66481413
_symmetry_Int_Tables_number   1
_chemical_formula_structural   NaSO4
_chemical_formula_sum   'Na2 S2 O8'
_cell_volume   161.82712162
_cell_formula_units_Z   2
loop_
 _symmetry_equiv_pos_site_id
 _symmetry_equiv_pos_as_xyz
  1  'x, y, z'
loop_
 _atom_site_type_symbol
 _atom_site_label
 _atom_site_symmetry_multiplicity
 _atom_site_fract_x
 _atom_site_fract_y
 _atom_site_fract_z
 _atom_site_occupancy
  Na  Na0  1  0.03495500  0.31393100  0.20684500  1
  Na  Na1  1  0.96504500  0.68606900  0.79315500  1
  S  S0  1  0.61060700  0.77958400  0.24808400  1
  S  S1  1  0.38939300  0.22041600  0.75191600  1
  O  O0  1  0.77003600  0.89627300  0.11342100  1
  O  O1  1  0.22996400  0.10372700  0.88657900  1
  O  O2  1  0.57907900  0.03542000  0.41626200  1
  O  O3  1  0.23141300  0.35534600  0.60626300  1
  O  O4  1  0.42092100  0.96458000  0.58373800  1
  O  O5  1  0.32014500  0.65166300  0.12674900  1
  O  O6  1  0.76858700  0.64465400  0.39373700  1
  O  O7  1  0.67985500  0.34833700  0.87325100  1
loop_
_geom_bond_atom_site_label_1
_geom_bond_atom_site_label_2
_geom_bond_distance
_geom_bond_site_symmetry_2
Na0 O3 2.393219 1_555
Na0 O5 2.425791 1_555
Na0 O7 2.437295 1_454
Na0 O0 2.446192 1_445
Na0 O1 2.547604 1_554
Na0 O6 2.657030 1_455
Na1 O6 2.393219 1_555
Na1 O7 2.425791 1_555
Na1 O5 2.437295 1_656
Na1 O1 2.446192 1_665
Na1 O0 2.547604 1_556
Na1 O3 2.657030 1_655
O0 S0 1.457278 1_555
O1 S1 1.457278 1_555
O2 O4 1.511012 1_545
O2 S0 1.663888 1_545
O3 S1 1.457370 1_555
O4 S1 1.663888 1_565
O5 S0 1.458570 1_555
O6 S0 1.457370 1_555
O7 S1 1.458570 1_555
