# generated using pymatgen
data_Rb4Mo21S25
_symmetry_space_group_name_H-M   'P 1'
_cell_length_a   28.57187357
_cell_length_b   28.57187369
_cell_length_c   28.57187337
_cell_angle_alpha   19.13176970
_cell_angle_beta   19.13176901
_cell_angle_gamma   19.13176996
_symmetry_Int_Tables_number   1
_chemical_formula_structural   Rb4Mo21S25
_chemical_formula_sum   'Rb8 Mo42 S50'
_cell_volume   2189.90940971
_cell_formula_units_Z   2
loop_
 _symmetry_equiv_pos_site_id
 _symmetry_equiv_pos_as_xyz
  1  'x, y, z'
loop_
 _atom_site_type_symbol
 _atom_site_label
 _atom_site_symmetry_multiplicity
 _atom_site_fract_x
 _atom_site_fract_y
 _atom_site_fract_z
 _atom_site_occupancy
  Rb  Rb0  1  0.10085003  0.10085003  0.10085003  1
  Rb  Rb1  1  0.66013356  0.66013356  0.66013356  1
  Rb  Rb2  1  0.83986644  0.83986644  0.83986644  1
  Rb  Rb3  1  0.89914997  0.89914997  0.89914997  1
  Rb  Rb4  1  0.39914997  0.39914997  0.39914997  1
  Rb  Rb5  1  0.16013356  0.16013356  0.16013356  1
  Rb  Rb6  1  0.33986644  0.33986644  0.33986644  1
  Rb  Rb7  1  0.60085003  0.60085003  0.60085003  1
  Mo  Mo0  1  0.48065883  0.61028082  0.28831693  1
  Mo  Mo1  1  0.38971918  0.71168307  0.51934117  1
  Mo  Mo2  1  0.88971918  0.01934117  0.21168307  1
  Mo  Mo3  1  0.71168307  0.51934117  0.38971918  1
  Mo  Mo4  1  0.33133243  0.65928149  0.47037161  1
  Mo  Mo5  1  0.08546041  0.41453959  0.25000000  1
  Mo  Mo6  1  0.25000000  0.08546041  0.41453959  1
  Mo  Mo7  1  0.98065883  0.78831693  0.11028082  1
  Mo  Mo8  1  0.11028082  0.98065883  0.78831693  1
  Mo  Mo9  1  0.65928149  0.47037161  0.33133243  1
  Mo  Mo10  1  0.05487054  0.23080087  0.38243431  1
  Mo  Mo11  1  0.83133243  0.97037161  0.15928149  1
  Mo  Mo12  1  0.15928149  0.83133243  0.97037161  1
  Mo  Mo13  1  0.51934117  0.38971918  0.71168307  1
  Mo  Mo14  1  0.11756569  0.26919913  0.44512946  1
  Mo  Mo15  1  0.26919913  0.44512946  0.11756569  1
  Mo  Mo16  1  0.28831693  0.48065883  0.61028082  1
  Mo  Mo17  1  0.41453959  0.25000000  0.08546041  1
  Mo  Mo18  1  0.01934117  0.21168307  0.88971918  1
  Mo  Mo19  1  0.47037161  0.33133243  0.65928149  1
  Mo  Mo20  1  0.94512946  0.76919913  0.61756569  1
  Mo  Mo21  1  0.55487054  0.88243431  0.73080087  1
  Mo  Mo22  1  0.75000000  0.91453959  0.58546041  1
  Mo  Mo23  1  0.66866757  0.34071851  0.52962839  1
  Mo  Mo24  1  0.61028082  0.28831693  0.48065883  1
  Mo  Mo25  1  0.61756569  0.94512946  0.76919913  1
  Mo  Mo26  1  0.73080087  0.55487054  0.88243431  1
  Mo  Mo27  1  0.88243431  0.73080087  0.55487054  1
  Mo  Mo28  1  0.58546041  0.75000000  0.91453959  1
  Mo  Mo29  1  0.91453959  0.58546041  0.75000000  1
  Mo  Mo30  1  0.78831693  0.11028082  0.98065883  1
  Mo  Mo31  1  0.97037161  0.15928149  0.83133243  1
  Mo  Mo32  1  0.34071851  0.52962839  0.66866757  1
  Mo  Mo33  1  0.02962839  0.84071851  0.16866757  1
  Mo  Mo34  1  0.38243431  0.05487054  0.23080087  1
  Mo  Mo35  1  0.52962839  0.66866757  0.34071851  1
  Mo  Mo36  1  0.76919913  0.61756569  0.94512946  1
  Mo  Mo37  1  0.16866757  0.02962839  0.84071851  1
  Mo  Mo38  1  0.44512946  0.11756569  0.26919913  1
  Mo  Mo39  1  0.23080087  0.38243431  0.05487054  1
  Mo  Mo40  1  0.21168307  0.88971918  0.01934117  1
  Mo  Mo41  1  0.84071851  0.16866757  0.02962839  1
  S  S0  1  0.82881488  0.48346449  0.22838156  1
  S  S1  1  0.43774176  0.43774176  0.43774176  1
  S  S2  1  0.72838156  0.98346449  0.32881488  1
  S  S3  1  0.20902090  0.93671334  0.53046961  1
  S  S4  1  0.98346449  0.32881488  0.72838156  1
  S  S5  1  0.32021828  0.07384320  0.71946626  1
  S  S6  1  0.96953039  0.56328666  0.29097910  1
  S  S7  1  0.67118512  0.27161844  0.01653551  1
  S  S8  1  0.06225824  0.06225824  0.06225824  1
  S  S9  1  0.29928923  0.29928923  0.29928923  1
  S  S10  1  0.55034649  0.94965351  0.25000000  1
  S  S11  1  0.57384320  0.82021828  0.21946626  1
  S  S12  1  0.53046961  0.20902090  0.93671334  1
  S  S13  1  0.03046961  0.43671334  0.70902090  1
  S  S14  1  0.71946626  0.32021828  0.07384320  1
  S  S15  1  0.94965351  0.25000000  0.55034649  1
  S  S16  1  0.06328666  0.46953039  0.79097910  1
  S  S17  1  0.20071077  0.20071077  0.20071077  1
  S  S18  1  0.46953039  0.79097910  0.06328666  1
  S  S19  1  0.93774176  0.93774176  0.93774176  1
  S  S20  1  0.29097910  0.96953039  0.56328666  1
  S  S21  1  0.42615680  0.17978172  0.78053374  1
  S  S22  1  0.17978172  0.78053374  0.42615680  1
  S  S23  1  0.70902090  0.03046961  0.43671334  1
  S  S24  1  0.44965351  0.05034649  0.75000000  1
  S  S25  1  0.17118512  0.51653551  0.77161844  1
  S  S26  1  0.93671334  0.53046961  0.20902090  1
  S  S27  1  0.82021828  0.21946626  0.57384320  1
  S  S28  1  0.32881488  0.72838156  0.98346449  1
  S  S29  1  0.48346449  0.22838156  0.82881488  1
  S  S30  1  0.79097910  0.06328666  0.46953039  1
  S  S31  1  0.78053374  0.42615680  0.17978172  1
  S  S32  1  0.25000000  0.55034649  0.94965351  1
  S  S33  1  0.51653551  0.77161844  0.17118512  1
  S  S34  1  0.56225824  0.56225824  0.56225824  1
  S  S35  1  0.77161844  0.17118512  0.51653551  1
  S  S36  1  0.92615680  0.28053374  0.67978172  1
  S  S37  1  0.75000000  0.44965351  0.05034649  1
  S  S38  1  0.05034649  0.75000000  0.44965351  1
  S  S39  1  0.21946626  0.57384320  0.82021828  1
  S  S40  1  0.79928923  0.79928923  0.79928923  1
  S  S41  1  0.27161844  0.01653551  0.67118512  1
  S  S42  1  0.07384320  0.71946626  0.32021828  1
  S  S43  1  0.43671334  0.70902090  0.03046961  1
  S  S44  1  0.70071077  0.70071077  0.70071077  1
  S  S45  1  0.56328666  0.29097910  0.96953039  1
  S  S46  1  0.28053374  0.67978172  0.92615680  1
  S  S47  1  0.22838156  0.82881488  0.48346449  1
  S  S48  1  0.01653551  0.67118512  0.27161844  1
  S  S49  1  0.67978172  0.92615680  0.28053374  1
loop_
_geom_bond_atom_site_label_1
_geom_bond_atom_site_label_2
_geom_bond_distance
_geom_bond_site_symmetry_2
Rb0 S8 3.246446 1_555
Rb0 S30 3.296970 1_455
Rb0 S18 3.296970 1_545
Rb0 S16 3.296970 1_554
Rb0 S24 3.644296 1_554
Rb0 S38 3.644296 1_545
Rb0 S37 3.644296 1_455
Rb0 S21 3.887247 1_554
Rb0 S22 3.887248 1_545
Rb0 S31 3.887248 1_455
Rb1 S44 3.413465 1_555
Rb1 S28 3.560058 1_555
Rb1 S2 3.560058 1_555
Rb1 S4 3.560058 1_555
Rb1 S48 3.589003 1_655
Rb1 S7 3.589003 1_556
Rb1 S41 3.589003 1_565
Rb2 S40 3.413465 1_555
Rb2 S33 3.560058 1_556
Rb2 S35 3.560058 1_565
Rb2 S25 3.560058 1_655
Rb2 S47 3.589003 1_655
Rb2 S0 3.589003 1_556
Rb2 S29 3.589003 1_565
Rb3 S19 3.246446 1_555
Rb3 S3 3.296970 1_655
Rb3 S12 3.296970 1_565
Rb3 S26 3.296970 1_556
Rb3 S10 3.644296 1_556
Rb3 S15 3.644296 1_565
Rb3 S32 3.644296 1_655
Rb3 S11 3.887247 1_556
Rb3 S27 3.887248 1_565
Rb3 S39 3.887248 1_655
Rb4 S1 3.246446 1_555
Rb4 S13 3.296970 1_555
Rb4 S43 3.296970 1_555
Rb4 S23 3.296970 1_555
Rb4 S37 3.644296 1_555
Rb4 S24 3.644296 1_555
Rb4 S38 3.644296 1_555
Rb4 S14 3.887247 1_555
Rb4 S42 3.887248 1_555
Rb4 S5 3.887248 1_555
Rb5 S17 3.413465 1_555
Rb5 S29 3.560058 1_554
Rb5 S47 3.560058 1_545
Rb5 S0 3.560058 1_455
Rb5 S35 3.589003 1_455
Rb5 S25 3.589003 1_554
Rb5 S33 3.589003 1_545
Rb6 S9 3.413465 1_555
Rb6 S7 3.560058 1_555
Rb6 S41 3.560058 1_555
Rb6 S48 3.560058 1_555
Rb6 S4 3.589003 1_455
Rb6 S28 3.589003 1_554
Rb6 S2 3.589003 1_545
Rb7 S34 3.246446 1_555
Rb7 S6 3.296970 1_555
Rb7 S45 3.296970 1_555
Rb7 S20 3.296970 1_555
Rb7 S32 3.644296 1_555
Rb7 S10 3.644296 1_555
Rb7 S15 3.644296 1_555
Rb7 S46 3.887247 1_555
Rb7 S36 3.887248 1_555
Rb7 S49 3.887248 1_555
Mo0 S1 2.407259 1_555
Mo0 S18 2.476568 1_555
Mo0 S31 2.480838 1_555
Mo0 S22 2.507111 1_555
Mo0 S33 2.607027 1_555
Mo1 S34 2.407259 1_555
Mo1 S3 2.476568 1_555
Mo1 S11 2.480838 1_555
Mo1 S39 2.507111 1_555
Mo1 S47 2.607027 1_555
Mo2 S8 2.407259 1_655
Mo2 S23 2.476568 1_555
Mo2 S42 2.480838 1_645
Mo2 S14 2.507111 1_555
Mo2 S2 2.607027 1_545
Mo3 S34 2.407259 1_555
Mo3 S26 2.476568 1_555
Mo3 S27 2.480838 1_555
Mo3 S11 2.507111 1_555
Mo3 S0 2.607026 1_555
Mo4 S22 2.463509 1_555
Mo4 S33 2.480671 1_555
Mo4 S25 2.483767 1_555
Mo4 S47 2.584119 1_555
Mo5 S26 2.424776 1_455
Mo5 S6 2.424776 1_455
Mo5 S32 2.473810 1_554
Mo5 S15 2.473810 1_455
Mo6 S20 2.424776 1_545
Mo6 S3 2.424776 1_545
Mo6 S10 2.473810 1_545
Mo6 S15 2.473810 1_455
Mo7 S19 2.407259 1_554
Mo7 S6 2.476568 1_555
Mo7 S46 2.480838 1_654
Mo7 S49 2.507111 1_555
Mo7 S48 2.607027 1_655
Mo8 S19 2.407259 1_455
Mo8 S20 2.476568 1_555
Mo8 S36 2.480838 1_465
Mo8 S46 2.507111 1_555
Mo8 S41 2.607027 1_565
Mo9 S31 2.463509 1_555
Mo9 S35 2.480671 1_555
Mo9 S33 2.483767 1_555
Mo9 S0 2.584119 1_555
Mo10 S17 2.417801 1_555
Mo10 S3 2.451484 1_545
Mo10 S26 2.466798 1_455
Mo10 S27 2.537290 1_455
Mo10 S15 2.638117 1_455
Mo11 S49 2.463509 1_555
Mo11 S48 2.480671 1_655
Mo11 S7 2.483767 1_565
Mo11 S2 2.584119 1_555
Mo12 S46 2.463509 1_555
Mo12 S41 2.480671 1_565
Mo12 S48 2.483767 1_556
Mo12 S28 2.584119 1_555
Mo13 S34 2.407259 1_555
Mo13 S12 2.476568 1_555
Mo13 S39 2.480838 1_555
Mo13 S27 2.507111 1_555
Mo13 S29 2.607027 1_555
Mo14 S9 2.417801 1_555
Mo14 S6 2.451484 1_455
Mo14 S20 2.466798 1_545
Mo14 S36 2.537290 1_455
Mo14 S15 2.638117 1_455
Mo15 S9 2.417801 1_555
Mo15 S45 2.451484 1_554
Mo15 S6 2.466798 1_455
Mo15 S46 2.537290 1_554
Mo15 S32 2.638117 1_554
Mo16 S1 2.407259 1_555
Mo16 S16 2.476568 1_555
Mo16 S22 2.480838 1_555
Mo16 S21 2.507111 1_555
Mo16 S25 2.607026 1_555
Mo17 S12 2.424776 1_554
Mo17 S45 2.424776 1_554
Mo17 S10 2.473810 1_545
Mo17 S32 2.473810 1_554
Mo18 S8 2.407259 1_556
Mo18 S13 2.476568 1_555
Mo18 S14 2.480838 1_456
Mo18 S5 2.507111 1_555
Mo18 S4 2.607027 1_455
Mo19 S21 2.463509 1_555
Mo19 S25 2.480671 1_555
Mo19 S35 2.483767 1_555
Mo19 S29 2.584119 1_555
Mo20 S40 2.417801 1_555
Mo20 S30 2.451484 1_565
Mo20 S16 2.466798 1_655
Mo20 S22 2.537290 1_655
Mo20 S38 2.638117 1_655
Mo21 S44 2.417801 1_555
Mo21 S23 2.451484 1_565
Mo21 S43 2.466798 1_556
Mo21 S5 2.537290 1_565
Mo21 S24 2.638117 1_565
Mo22 S23 2.424776 1_565
Mo22 S30 2.424776 1_565
Mo22 S24 2.473810 1_565
Mo22 S38 2.473810 1_655
Mo23 S27 2.463509 1_555
Mo23 S29 2.480671 1_555
Mo23 S0 2.483767 1_555
Mo23 S35 2.584119 1_555
Mo24 S1 2.407259 1_555
Mo24 S30 2.476568 1_555
Mo24 S21 2.480838 1_555
Mo24 S31 2.507111 1_555
Mo24 S35 2.607027 1_555
Mo25 S40 2.417801 1_555
Mo25 S18 2.451484 1_556
Mo25 S30 2.466798 1_565
Mo25 S21 2.537290 1_565
Mo25 S24 2.638117 1_565
Mo26 S44 2.417801 1_555
Mo26 S43 2.451484 1_556
Mo26 S13 2.466798 1_655
Mo26 S14 2.537290 1_556
Mo26 S37 2.638117 1_556
Mo27 S44 2.417801 1_555
Mo27 S13 2.451484 1_655
Mo27 S23 2.466798 1_565
Mo27 S42 2.537290 1_655
Mo27 S38 2.638117 1_655
Mo28 S18 2.424776 1_556
Mo28 S43 2.424776 1_556
Mo28 S24 2.473810 1_565
Mo28 S37 2.473810 1_556
Mo29 S16 2.424776 1_655
Mo29 S13 2.424776 1_655
Mo29 S37 2.473810 1_556
Mo29 S38 2.473810 1_655
Mo30 S19 2.407259 1_545
Mo30 S45 2.476568 1_555
Mo30 S49 2.480838 1_546
Mo30 S36 2.507111 1_555
Mo30 S7 2.607027 1_556
Mo31 S36 2.463509 1_555
Mo31 S7 2.480671 1_556
Mo31 S41 2.483767 1_655
Mo31 S4 2.584119 1_555
Mo32 S39 2.463509 1_555
Mo32 S47 2.480671 1_555
Mo32 S29 2.483767 1_555
Mo32 S25 2.584119 1_555
Mo33 S42 2.463509 1_555
Mo33 S28 2.480671 1_554
Mo33 S2 2.483767 1_455
Mo33 S48 2.584119 1_555
Mo34 S17 2.417801 1_555
Mo34 S12 2.451484 1_554
Mo34 S3 2.466798 1_545
Mo34 S11 2.537290 1_545
Mo34 S10 2.638117 1_545
Mo35 S11 2.463509 1_555
Mo35 S0 2.480671 1_555
Mo35 S47 2.483767 1_555
Mo35 S33 2.584119 1_555
Mo36 S40 2.417801 1_555
Mo36 S16 2.451484 1_655
Mo36 S18 2.466798 1_556
Mo36 S31 2.537290 1_556
Mo36 S37 2.638117 1_556
Mo37 S5 2.463509 1_555
Mo37 S4 2.480671 1_455
Mo37 S28 2.483767 1_545
Mo37 S41 2.584119 1_555
Mo38 S9 2.417801 1_555
Mo38 S20 2.451484 1_545
Mo38 S45 2.466798 1_554
Mo38 S49 2.537290 1_545
Mo38 S10 2.638117 1_545
Mo39 S17 2.417801 1_555
Mo39 S26 2.451484 1_455
Mo39 S12 2.466798 1_554
Mo39 S39 2.537290 1_554
Mo39 S32 2.638117 1_554
Mo40 S8 2.407259 1_565
Mo40 S43 2.476568 1_555
Mo40 S5 2.480838 1_564
Mo40 S42 2.507111 1_555
Mo40 S28 2.607027 1_554
Mo41 S14 2.463509 1_555
Mo41 S2 2.480671 1_545
Mo41 S4 2.483767 1_554
Mo41 S7 2.584119 1_555
