# generated using pymatgen
data_Na4Al3Ge3B(HO3)4
_symmetry_space_group_name_H-M   'P 1'
_cell_length_a   9.13979700
_cell_length_b   9.13979700
_cell_length_c   9.13979700
_cell_angle_alpha   90.00000000
_cell_angle_beta   90.00000000
_cell_angle_gamma   90.00000000
_symmetry_Int_Tables_number   1
_chemical_formula_structural   Na4Al3Ge3B(HO3)4
_chemical_formula_sum   'Na8 Al6 Ge6 B2 H8 O24'
_cell_volume   763.50106951
_cell_formula_units_Z   2
loop_
 _symmetry_equiv_pos_site_id
 _symmetry_equiv_pos_as_xyz
  1  'x, y, z'
loop_
 _atom_site_type_symbol
 _atom_site_label
 _atom_site_symmetry_multiplicity
 _atom_site_fract_x
 _atom_site_fract_y
 _atom_site_fract_z
 _atom_site_occupancy
  Na  Na0  1  0.82730600  0.82730600  0.17269400  1
  Na  Na1  1  0.82730600  0.17269400  0.82730600  1
  Na  Na2  1  0.17269400  0.82730600  0.82730600  1
  Na  Na3  1  0.17269400  0.17269400  0.17269400  1
  Na  Na4  1  0.32730600  0.32730600  0.67269400  1
  Na  Na5  1  0.32730600  0.67269400  0.32730600  1
  Na  Na6  1  0.67269400  0.32730600  0.32730600  1
  Na  Na7  1  0.67269400  0.67269400  0.67269400  1
  Al  Al0  1  0.75000000  0.00000000  0.50000000  1
  Al  Al1  1  0.00000000  0.50000000  0.75000000  1
  Al  Al2  1  0.25000000  0.00000000  0.50000000  1
  Al  Al3  1  0.50000000  0.25000000  0.00000000  1
  Al  Al4  1  0.50000000  0.75000000  0.00000000  1
  Al  Al5  1  0.00000000  0.50000000  0.25000000  1
  Ge  Ge0  1  0.75000000  0.50000000  0.00000000  1
  Ge  Ge1  1  0.00000000  0.75000000  0.50000000  1
  Ge  Ge2  1  0.25000000  0.50000000  0.00000000  1
  Ge  Ge3  1  0.50000000  0.00000000  0.25000000  1
  Ge  Ge4  1  0.50000000  0.00000000  0.75000000  1
  Ge  Ge5  1  0.00000000  0.25000000  0.50000000  1
  B  B0  1  0.00000000  0.00000000  0.00000000  1
  B  B1  1  0.50000000  0.50000000  0.50000000  1
  H  H0  1  0.57769900  0.57769900  0.42230100  1
  H  H1  1  0.57769900  0.42230100  0.57769900  1
  H  H2  1  0.07769900  0.07769900  0.92230100  1
  H  H3  1  0.07769900  0.92230100  0.07769900  1
  H  H4  1  0.42230100  0.57769900  0.57769900  1
  H  H5  1  0.42230100  0.42230100  0.42230100  1
  H  H6  1  0.92230100  0.92230100  0.92230100  1
  H  H7  1  0.92230100  0.07769900  0.07769900  1
  O  O0  1  0.57363100  0.85656500  0.14377600  1
  O  O1  1  0.57363100  0.14343500  0.85622400  1
  O  O2  1  0.85622400  0.57363100  0.14343500  1
  O  O3  1  0.85622400  0.42636900  0.85656500  1
  O  O4  1  0.85656500  0.14377600  0.57363100  1
  O  O5  1  0.85656500  0.85622400  0.42636900  1
  O  O6  1  0.07363100  0.35622400  0.64343500  1
  O  O7  1  0.07363100  0.64377600  0.35656500  1
  O  O8  1  0.14343500  0.85622400  0.57363100  1
  O  O9  1  0.14343500  0.14377600  0.42636900  1
  O  O10  1  0.14377600  0.57363100  0.85656500  1
  O  O11  1  0.14377600  0.42636900  0.14343500  1
  O  O12  1  0.35622400  0.35656500  0.92636900  1
  O  O13  1  0.35622400  0.64343500  0.07363100  1
  O  O14  1  0.35656500  0.07363100  0.64377600  1
  O  O15  1  0.35656500  0.92636900  0.35622400  1
  O  O16  1  0.42636900  0.85656500  0.85622400  1
  O  O17  1  0.42636900  0.14343500  0.14377600  1
  O  O18  1  0.64343500  0.07363100  0.35622400  1
  O  O19  1  0.64343500  0.92636900  0.64377600  1
  O  O20  1  0.64377600  0.35656500  0.07363100  1
  O  O21  1  0.64377600  0.64343500  0.92636900  1
  O  O22  1  0.92636900  0.35622400  0.35656500  1
  O  O23  1  0.92636900  0.64377600  0.64343500  1
loop_
_geom_bond_atom_site_label_1
_geom_bond_atom_site_label_2
_geom_bond_distance
_geom_bond_site_symmetry_2
Na0 O5 2.348827 1_555
Na0 O0 2.348827 1_555
Na0 O2 2.348827 1_555
Na1 O3 2.348827 1_555
Na1 O4 2.348827 1_555
Na1 O1 2.348827 1_555
Na2 O10 2.348827 1_555
Na2 O16 2.348827 1_555
Na2 O8 2.348827 1_555
Na3 O11 2.348827 1_555
Na3 O9 2.348827 1_555
Na3 O17 2.348827 1_555
Na4 O12 2.348827 1_555
Na4 O14 2.348827 1_555
Na4 O6 2.348827 1_555
Na5 O7 2.348827 1_555
Na5 O15 2.348827 1_555
Na5 O13 2.348827 1_555
Na6 O22 2.348827 1_555
Na6 O20 2.348827 1_555
Na6 O18 2.348827 1_555
Na7 O21 2.348827 1_555
Na7 O23 2.348827 1_555
Na7 O19 2.348827 1_555
Al0 O4 1.768714 1_555
Al0 O5 1.768714 1_545
Al0 O19 1.768714 1_545
Al0 O18 1.768714 1_555
Al1 O10 1.768714 1_555
Al1 O3 1.768714 1_455
Al1 O23 1.768714 1_455
Al1 O6 1.768714 1_555
Al2 O14 1.768714 1_555
Al2 O15 1.768714 1_545
Al2 O9 1.768714 1_555
Al2 O8 1.768714 1_545
Al3 O12 1.768714 1_554
Al3 O20 1.768714 1_555
Al3 O17 1.768714 1_555
Al3 O1 1.768714 1_554
Al4 O0 1.768714 1_555
Al4 O16 1.768714 1_554
Al4 O21 1.768714 1_554
Al4 O13 1.768714 1_555
Al5 O22 1.768714 1_455
Al5 O7 1.768714 1_555
Al5 O11 1.768714 1_555
Al5 O2 1.768714 1_455
Ge0 O21 1.764683 1_554
Ge0 O2 1.764683 1_555
Ge0 O3 1.764683 1_554
Ge0 O20 1.764683 1_555
Ge1 O23 1.764683 1_455
Ge1 O8 1.764683 1_555
Ge1 O5 1.764683 1_455
Ge1 O7 1.764683 1_555
Ge2 O13 1.764683 1_555
Ge2 O11 1.764683 1_555
Ge2 O12 1.764683 1_554
Ge2 O10 1.764683 1_554
Ge3 O18 1.764683 1_555
Ge3 O17 1.764683 1_555
Ge3 O15 1.764683 1_545
Ge3 O0 1.764683 1_545
Ge4 O19 1.764683 1_545
Ge4 O1 1.764683 1_555
Ge4 O16 1.764683 1_545
Ge4 O14 1.764683 1_555
Ge5 O6 1.764683 1_555
Ge5 O9 1.764683 1_555
Ge5 O22 1.764683 1_455
Ge5 O4 1.764683 1_455
B0 H2 1.230021 1_554
B0 H7 1.230021 1_455
B0 H3 1.230021 1_545
B0 H6 1.230021 1_444
B1 H0 1.230021 1_555
B1 H4 1.230021 1_555
B1 H1 1.230021 1_555
B1 H5 1.230021 1_555
