# generated using pymatgen
data_Sr2ErGaCu2O7
_symmetry_space_group_name_H-M   'P 1'
_cell_length_a   12.20694863
_cell_length_b   12.20694863
_cell_length_c   12.20694863
_cell_angle_alpha   154.43981543
_cell_angle_beta   153.94289369
_cell_angle_gamma   36.82315248
_symmetry_Int_Tables_number   1
_chemical_formula_structural   Sr2ErGaCu2O7
_chemical_formula_sum   'Sr4 Er2 Ga2 Cu4 O14'
_cell_volume   344.26282832
_cell_formula_units_Z   2
loop_
 _symmetry_equiv_pos_site_id
 _symmetry_equiv_pos_as_xyz
  1  'x, y, z'
loop_
 _atom_site_type_symbol
 _atom_site_label
 _atom_site_symmetry_multiplicity
 _atom_site_fract_x
 _atom_site_fract_y
 _atom_site_fract_z
 _atom_site_occupancy
  Sr  Sr0  1  0.63499000  0.64995500  0.98294900  1
  Sr  Sr1  1  0.36501000  0.34795800  0.01496500  1
  Sr  Sr2  1  0.16700700  0.14995500  0.01496500  1
  Sr  Sr3  1  0.83299300  0.84795800  0.98294900  1
  Er  Er0  1  0.50000000  0.50071600  0.00071600  1
  Er  Er1  1  0.00000000  0.00071600  0.00071600  1
  Ga  Ga0  1  0.81844500  0.21224200  0.53068700  1
  Ga  Ga1  1  0.18155500  0.71224200  0.39379700  1
  Cu  Cu0  1  0.57149500  0.07128700  0.50146000  1
  Cu  Cu1  1  0.42850500  0.92996500  0.49979200  1
  Cu  Cu2  1  0.06982700  0.57128700  0.49979200  1
  Cu  Cu3  1  0.93017300  0.42996500  0.50146000  1
  O  O0  1  0.13489800  0.35941300  0.99431100  1
  O  O1  1  0.86510200  0.85941300  0.22451500  1
  O  O2  1  0.81331400  0.31402500  0.00104800  1
  O  O3  1  0.18668600  0.18773400  0.50071100  1
  O  O4  1  0.81297700  0.81402500  0.50071100  1
  O  O5  1  0.18702300  0.68773400  0.00104800  1
  O  O6  1  0.31122100  0.81000600  0.00103600  1
  O  O7  1  0.68877900  0.68981500  0.49878500  1
  O  O8  1  0.30897000  0.31000600  0.49878500  1
  O  O9  1  0.69103000  0.18981500  0.00103600  1
  O  O10  1  0.22086800  0.70434500  0.57252300  1
  O  O11  1  0.77913200  0.35165500  0.48347700  1
  O  O12  1  0.63182200  0.20434500  0.48347700  1
  O  O13  1  0.36817800  0.85165500  0.57252300  1
loop_
_geom_bond_atom_site_label_1
_geom_bond_atom_site_label_2
_geom_bond_distance
_geom_bond_site_symmetry_2
Er0 O6 2.371758 1_555
Er0 O7 2.371758 1_555
Er0 O8 2.383867 1_554
Er0 O9 2.383867 1_555
Er0 O4 2.419813 1_555
Er0 O5 2.419813 1_555
Er0 O2 2.419883 1_555
Er0 O3 2.419883 1_554
Er1 O9 2.371758 1_455
Er1 O8 2.371758 1_555
Er1 O7 2.383867 1_444
Er1 O6 2.383867 1_545
Er1 O2 2.419813 1_455
Er1 O3 2.419813 1_555
Er1 O4 2.419883 1_444
Er1 O5 2.419883 1_545
Ga0 O12 1.850317 1_555
Ga0 O11 1.850317 1_555
Ga0 O0 1.914473 1_655
Ga0 O1 1.922710 1_545
Ga1 O10 1.850317 1_555
Ga1 O13 1.850317 1_555
Ga1 O1 1.914473 1_455
Ga1 O0 1.922710 1_554
Cu0 O4 1.930696 1_545
Cu0 O2 1.933925 1_556
Cu0 O6 1.944752 1_545
Cu0 O8 1.948179 1_555
Cu0 O12 2.465217 1_555
Cu1 O5 1.930696 1_555
Cu1 O3 1.933925 1_565
Cu1 O7 1.944752 1_555
Cu1 O9 1.948179 1_566
Cu1 O13 2.465217 1_555
Cu2 O2 1.930696 1_455
Cu2 O4 1.933925 1_455
Cu2 O8 1.944752 1_555
Cu2 O6 1.948179 1_556
Cu2 O10 2.465217 1_555
Cu3 O3 1.930696 1_655
Cu3 O5 1.933925 1_656
Cu3 O9 1.944752 1_555
Cu3 O7 1.948179 1_555
Cu3 O11 2.465217 1_555
O0 Sr2 2.477043 1_556
O0 Sr1 2.477043 1_556
O1 Sr3 2.477031 1_554
O1 Sr0 2.477053 1_554
O2 Sr0 2.842972 1_554
O2 Sr2 2.851876 1_655
O3 Sr1 2.842981 1_556
O3 Sr3 2.851881 1_444
O4 Sr2 2.842981 1_666
O4 Sr0 2.851865 1_554
O5 Sr3 2.842989 1_454
O5 Sr1 2.851876 1_555
O6 Sr0 2.813069 1_554
O6 Sr2 2.813803 1_565
O7 Sr1 2.813077 1_555
O7 Sr3 2.813815 1_555
O8 Sr2 2.813077 1_555
O8 Sr0 2.813797 1_555
O9 Sr3 2.813086 1_544
O9 Sr1 2.813803 1_555
O10 Sr0 2.493924 1_555
O10 Sr2 2.615044 1_566
O10 Sr2 2.921069 1_555
O10 Sr0 3.144333 1_454
O11 Sr1 2.493919 1_555
O11 Sr3 2.615044 1_555
O11 Sr3 2.921064 1_544
O11 Sr1 3.144333 1_656
O12 Sr2 2.493919 1_555
O12 Sr0 2.615049 1_555
O12 Sr0 2.921068 1_544
O12 Sr2 3.144333 1_656
O13 Sr3 2.493919 1_555
O13 Sr1 2.615044 1_566
O13 Sr1 2.921069 1_555
O13 Sr3 3.144328 1_454
