# generated using pymatgen
data_KYb2F7
_symmetry_space_group_name_H-M   'P 1'
_cell_length_a   4.34966500
_cell_length_b   6.03297800
_cell_length_c   6.93421587
_cell_angle_alpha   66.87846836
_cell_angle_beta   90.00000000
_cell_angle_gamma   90.00000000
_symmetry_Int_Tables_number   1
_chemical_formula_structural   KYb2F7
_chemical_formula_sum   'K1 Yb2 F7'
_cell_volume   167.34734048
_cell_formula_units_Z   1
loop_
 _symmetry_equiv_pos_site_id
 _symmetry_equiv_pos_as_xyz
  1  'x, y, z'
loop_
 _atom_site_type_symbol
 _atom_site_label
 _atom_site_symmetry_multiplicity
 _atom_site_fract_x
 _atom_site_fract_y
 _atom_site_fract_z
 _atom_site_occupancy
  K  K0  1  0.49644800  0.00000000  0.50000000  1
  Yb  Yb0  1  0.99131400  0.70581500  0.20745500  1
  Yb  Yb1  1  0.99131400  0.29418500  0.79254500  1
  F  F0  1  0.99479800  0.10313100  0.15179100  1
  F  F1  1  0.99659200  0.67384100  0.54767200  1
  F  F2  1  0.49132700  0.26655400  0.76722200  1
  F  F3  1  0.99479800  0.89686900  0.84820900  1
  F  F4  1  0.99659200  0.32615900  0.45232800  1
  F  F5  1  0.94829000  0.50000000  0.00000000  1
  F  F6  1  0.49132700  0.73344600  0.23277800  1
loop_
_geom_bond_atom_site_label_1
_geom_bond_atom_site_label_2
_geom_bond_distance
_geom_bond_site_symmetry_2
F0 Yb0 2.273366 1_545
F0 Yb1 2.297670 1_554
F0 K0 3.120268 1_555
F0 K0 3.130256 1_655
F1 Yb1 2.252884 1_555
F1 Yb0 2.290386 1_555
F1 K0 2.863124 1_665
F1 K0 2.864076 1_565
F2 Yb1 2.193459 1_555
F2 Yb1 2.193571 1_455
F2 K0 2.891414 1_555
F3 Yb1 2.273366 1_565
F3 Yb0 2.297670 1_556
F3 K0 3.120268 1_565
F3 K0 3.130256 1_665
F4 Yb0 2.252884 1_555
F4 Yb1 2.290386 1_555
F4 K0 2.863124 1_655
F4 K0 2.864076 1_555
F5 Yb1 2.246997 1_554
F5 Yb0 2.246997 1_555
F6 Yb0 2.193459 1_555
F6 Yb0 2.193571 1_455
F6 K0 2.891414 1_565
