# generated using pymatgen
data_VCdAgO4
_symmetry_space_group_name_H-M   'P 1'
_cell_length_a   5.54324400
_cell_length_b   7.09974300
_cell_length_c   10.04215500
_cell_angle_alpha   90.00000000
_cell_angle_beta   90.00000000
_cell_angle_gamma   90.00000000
_symmetry_Int_Tables_number   1
_chemical_formula_structural   VCdAgO4
_chemical_formula_sum   'V4 Cd4 Ag4 O16'
_cell_volume   395.21511351
_cell_formula_units_Z   4
loop_
 _symmetry_equiv_pos_site_id
 _symmetry_equiv_pos_as_xyz
  1  'x, y, z'
loop_
 _atom_site_type_symbol
 _atom_site_label
 _atom_site_symmetry_multiplicity
 _atom_site_fract_x
 _atom_site_fract_y
 _atom_site_fract_z
 _atom_site_occupancy
  V  V0  1  0.98860800  0.75000000  0.67910100  1
  V  V1  1  0.48860800  0.25000000  0.82089900  1
  V  V2  1  0.01139200  0.25000000  0.32089900  1
  V  V3  1  0.51139200  0.75000000  0.17910100  1
  Cd  Cd0  1  0.50000000  0.50000000  0.50000000  1
  Cd  Cd1  1  0.00000000  0.50000000  0.00000000  1
  Cd  Cd2  1  0.50000000  0.00000000  0.50000000  1
  Cd  Cd3  1  0.00000000  0.00000000  0.00000000  1
  Ag  Ag0  1  0.99757800  0.75000000  0.34933200  1
  Ag  Ag1  1  0.49757800  0.25000000  0.15066800  1
  Ag  Ag2  1  0.00242200  0.25000000  0.65066800  1
  Ag  Ag3  1  0.50242200  0.75000000  0.84933200  1
  O  O0  1  0.94116200  0.75000000  0.85700100  1
  O  O1  1  0.44116200  0.25000000  0.64299900  1
  O  O2  1  0.05883800  0.25000000  0.14299900  1
  O  O3  1  0.55883800  0.75000000  0.35700100  1
  O  O4  1  0.29345300  0.75000000  0.62630100  1
  O  O5  1  0.79345300  0.25000000  0.87369900  1
  O  O6  1  0.70654700  0.25000000  0.37369900  1
  O  O7  1  0.20654700  0.75000000  0.12630100  1
  O  O8  1  0.84491200  0.55265600  0.61727500  1
  O  O9  1  0.34491200  0.44734400  0.88272500  1
  O  O10  1  0.15508800  0.05265600  0.38272500  1
  O  O11  1  0.65508800  0.94734400  0.11727500  1
  O  O12  1  0.15508800  0.44734400  0.38272500  1
  O  O13  1  0.65508800  0.55265600  0.11727500  1
  O  O14  1  0.84491200  0.94734400  0.61727500  1
  O  O15  1  0.34491200  0.05265600  0.88272500  1
loop_
_geom_bond_atom_site_label_1
_geom_bond_atom_site_label_2
_geom_bond_distance
_geom_bond_site_symmetry_2
Cd0 O8 2.276445 1_555
Cd0 O12 2.276445 1_555
Cd0 O1 2.306279 1_555
Cd0 O3 2.306279 1_555
Cd0 O6 2.463728 1_555
Cd0 O4 2.463728 1_555
Cd1 O13 2.276445 1_455
Cd1 O9 2.276445 1_554
Cd1 O2 2.306279 1_555
Cd1 O0 2.306279 1_454
Cd1 O7 2.463728 1_555
Cd1 O5 2.463728 1_454
Cd2 O10 2.276445 1_555
Cd2 O14 2.276445 1_545
Cd2 O1 2.306279 1_555
Cd2 O3 2.306279 1_545
Cd2 O6 2.463728 1_555
Cd2 O4 2.463728 1_545
Cd3 O11 2.276445 1_445
Cd3 O15 2.276445 1_554
Cd3 O2 2.306279 1_555
Cd3 O0 2.306279 1_444
Cd3 O7 2.463728 1_545
Cd3 O5 2.463728 1_454
Ag0 O10 2.343510 1_665
Ag0 O12 2.343510 1_655
Ag0 O3 2.433262 1_555
Ag0 O7 2.521532 1_655
Ag1 O13 2.343510 1_555
Ag1 O11 2.343510 1_545
Ag1 O2 2.433262 1_555
Ag1 O6 2.521532 1_555
Ag2 O8 2.343510 1_455
Ag2 O14 2.343510 1_445
Ag2 O1 2.433262 1_555
Ag2 O5 2.521532 1_455
Ag3 O15 2.343510 1_565
Ag3 O9 2.343510 1_555
Ag3 O0 2.433262 1_555
Ag3 O4 2.521532 1_555
O0 V0 1.805755 1_555
O1 V1 1.805755 1_555
O2 V2 1.805755 1_555
O3 V3 1.805755 1_555
O4 V0 1.771063 1_455
O5 V1 1.771063 1_555
O6 V2 1.771063 1_655
O7 V3 1.771063 1_555
O8 V0 1.727140 1_555
O9 V1 1.727140 1_555
O10 V2 1.727140 1_555
O11 V3 1.727140 1_555
O12 V2 1.727140 1_555
O13 V3 1.727140 1_555
O14 V0 1.727140 1_555
O15 V1 1.727140 1_555
