# generated using pymatgen
data_V3S4
_symmetry_space_group_name_H-M   'P 1'
_cell_length_a   6.29975641
_cell_length_b   6.29975641
_cell_length_c   7.02473499
_cell_angle_alpha   57.74131069
_cell_angle_beta   57.74131069
_cell_angle_gamma   28.06209301
_symmetry_Int_Tables_number   1
_chemical_formula_structural   V3S4
_chemical_formula_sum   'V3 S4'
_cell_volume   109.51890790
_cell_formula_units_Z   1
loop_
 _symmetry_equiv_pos_site_id
 _symmetry_equiv_pos_as_xyz
  1  'x, y, z'
loop_
 _atom_site_type_symbol
 _atom_site_label
 _atom_site_symmetry_multiplicity
 _atom_site_fract_x
 _atom_site_fract_y
 _atom_site_fract_z
 _atom_site_occupancy
  V  V0  1  0.91002100  0.91002100  0.45971700  1
  V  V1  1  0.00000000  0.00000000  0.00000000  1
  V  V2  1  0.08997900  0.08997900  0.54028300  1
  S  S0  1  0.33875500  0.33875500  0.27672500  1
  S  S1  1  0.59238600  0.59238600  0.25570600  1
  S  S2  1  0.66124500  0.66124500  0.72327500  1
  S  S3  1  0.40761400  0.40761400  0.74429400  1
loop_
_geom_bond_atom_site_label_1
_geom_bond_atom_site_label_2
_geom_bond_distance
_geom_bond_site_symmetry_2
S0 V1 2.404303 1_655
S0 V1 2.404303 1_565
S0 V0 2.444641 1_545
S0 V0 2.444641 1_455
S0 V2 2.545631 1_555
S1 V0 2.416752 1_455
S1 V0 2.416752 1_545
S1 V2 2.503057 1_655
S1 V2 2.503057 1_565
S1 V1 3.011095 1_565
S1 V1 3.011095 1_655
S2 V1 2.404303 1_656
S2 V1 2.404303 1_566
S2 V2 2.444641 1_655
S2 V2 2.444641 1_565
S2 V0 2.545631 1_555
S3 V2 2.416752 1_565
S3 V2 2.416752 1_655
S3 V0 2.503057 1_455
S3 V0 2.503057 1_545
S3 V1 3.011095 1_566
S3 V1 3.011095 1_656
