# generated using pymatgen
data_Zn4SiTePbO10
_symmetry_space_group_name_H-M   'P 1'
_cell_length_a   6.62229800
_cell_length_b   8.41332900
_cell_length_c   15.84203700
_cell_angle_alpha   90.00000000
_cell_angle_beta   90.00000000
_cell_angle_gamma   90.00000000
_symmetry_Int_Tables_number   1
_chemical_formula_structural   Zn4SiTePbO10
_chemical_formula_sum   'Zn16 Si4 Te4 Pb4 O40'
_cell_volume   882.64815009
_cell_formula_units_Z   4
loop_
 _symmetry_equiv_pos_site_id
 _symmetry_equiv_pos_as_xyz
  1  'x, y, z'
loop_
 _atom_site_type_symbol
 _atom_site_label
 _atom_site_symmetry_multiplicity
 _atom_site_fract_x
 _atom_site_fract_y
 _atom_site_fract_z
 _atom_site_occupancy
  Zn  Zn0  1  0.71443800  0.22877000  0.36389000  1
  Zn  Zn1  1  0.52939900  0.87785400  0.43377500  1
  Zn  Zn2  1  0.78556200  0.72877000  0.86389000  1
  Zn  Zn3  1  0.21443800  0.27123000  0.13611000  1
  Zn  Zn4  1  0.47060100  0.12214600  0.93377500  1
  Zn  Zn5  1  0.97060100  0.37785400  0.56622500  1
  Zn  Zn6  1  0.02939900  0.62214600  0.06622500  1
  Zn  Zn7  1  0.97060100  0.37785400  0.93377500  1
  Zn  Zn8  1  0.02939900  0.62214600  0.43377500  1
  Zn  Zn9  1  0.78556200  0.72877000  0.63611000  1
  Zn  Zn10  1  0.21443800  0.27123000  0.36389000  1
  Zn  Zn11  1  0.47060100  0.12214600  0.56622500  1
  Zn  Zn12  1  0.28556200  0.77123000  0.63611000  1
  Zn  Zn13  1  0.28556200  0.77123000  0.86389000  1
  Zn  Zn14  1  0.52939900  0.87785400  0.06622500  1
  Zn  Zn15  1  0.71443800  0.22877000  0.13611000  1
  Si  Si0  1  0.06585600  0.51067200  0.75000000  1
  Si  Si1  1  0.93414400  0.48932800  0.25000000  1
  Si  Si2  1  0.43414400  0.01067200  0.25000000  1
  Si  Si3  1  0.56585600  0.98932800  0.75000000  1
  Te  Te0  1  0.00000000  0.00000000  0.50000000  1
  Te  Te1  1  0.50000000  0.50000000  0.00000000  1
  Te  Te2  1  0.00000000  0.00000000  0.00000000  1
  Te  Te3  1  0.50000000  0.50000000  0.50000000  1
  Pb  Pb0  1  0.05588300  0.08997900  0.75000000  1
  Pb  Pb1  1  0.55588300  0.41002100  0.75000000  1
  Pb  Pb2  1  0.44411700  0.58997900  0.25000000  1
  Pb  Pb3  1  0.94411700  0.91002100  0.25000000  1
  O  O0  1  0.47349600  0.65781100  0.08955800  1
  O  O1  1  0.08423900  0.48181400  0.33302600  1
  O  O2  1  0.52474100  0.67032200  0.91416100  1
  O  O3  1  0.02474100  0.82967800  0.58583900  1
  O  O4  1  0.02474100  0.82967800  0.91416100  1
  O  O5  1  0.22007100  0.66664300  0.75000000  1
  O  O6  1  0.20697600  0.50586600  0.51502400  1
  O  O7  1  0.02650400  0.15781100  0.58955800  1
  O  O8  1  0.52650400  0.34218900  0.91044200  1
  O  O9  1  0.79302400  0.49413400  0.01502400  1
  O  O10  1  0.77992900  0.33335700  0.25000000  1
  O  O11  1  0.30563300  0.84475500  0.25000000  1
  O  O12  1  0.97349600  0.84218900  0.41044200  1
  O  O13  1  0.97525900  0.17032200  0.41416100  1
  O  O14  1  0.80563300  0.65524500  0.25000000  1
  O  O15  1  0.72007100  0.83335700  0.75000000  1
  O  O16  1  0.47349600  0.65781100  0.41044200  1
  O  O17  1  0.69436700  0.15524500  0.75000000  1
  O  O18  1  0.52474100  0.67032200  0.58583900  1
  O  O19  1  0.91576100  0.51818600  0.83302600  1
  O  O20  1  0.41576100  0.98181400  0.66697400  1
  O  O21  1  0.29302400  0.00586600  0.48497600  1
  O  O22  1  0.58423900  0.01818600  0.33302600  1
  O  O23  1  0.52650400  0.34218900  0.58955800  1
  O  O24  1  0.47525900  0.32967800  0.08583900  1
  O  O25  1  0.41576100  0.98181400  0.83302600  1
  O  O26  1  0.20697600  0.50586600  0.98497600  1
  O  O27  1  0.58423900  0.01818600  0.16697400  1
  O  O28  1  0.29302400  0.00586600  0.01502400  1
  O  O29  1  0.19436700  0.34475500  0.75000000  1
  O  O30  1  0.02650400  0.15781100  0.91044200  1
  O  O31  1  0.47525900  0.32967800  0.41416100  1
  O  O32  1  0.08423900  0.48181400  0.16697400  1
  O  O33  1  0.97349600  0.84218900  0.08955800  1
  O  O34  1  0.91576100  0.51818600  0.66697400  1
  O  O35  1  0.70697600  0.99413400  0.51502400  1
  O  O36  1  0.79302400  0.49413400  0.48497600  1
  O  O37  1  0.27992900  0.16664300  0.25000000  1
  O  O38  1  0.97525900  0.17032200  0.08583900  1
  O  O39  1  0.70697600  0.99413400  0.98497600  1
loop_
_geom_bond_atom_site_label_1
_geom_bond_atom_site_label_2
_geom_bond_distance
_geom_bond_site_symmetry_2
O0 Zn14 1.923793 1_555
O0 Te1 1.951045 1_555
O0 Pb2 2.612264 1_555
O1 Si1 1.649848 1_455
O1 Zn8 2.018238 1_555
O1 Zn10 2.030136 1_555
O2 Zn2 1.964534 1_555
O2 Zn13 1.965651 1_555
O2 Te1 1.982295 1_556
O3 Zn12 1.964534 1_555
O3 Zn9 1.965651 1_455
O3 Te0 1.982295 1_565
O4 Zn13 1.964534 1_555
O4 Zn2 1.965651 1_455
O4 Te2 1.982295 1_566
O5 Si0 1.662808 1_555
O5 Zn12 2.053699 1_555
O5 Zn13 2.053699 1_555
O6 Te3 1.955657 1_555
O6 Zn8 1.999182 1_555
O6 Zn5 2.065957 1_455
O7 Zn5 1.923793 1_455
O7 Te0 1.951045 1_555
O7 Pb0 2.612264 1_555
O8 Zn4 1.923793 1_555
O8 Te1 1.951045 1_556
O8 Pb1 2.612264 1_555
O9 Te1 1.955657 1_555
O9 Zn7 1.999182 1_554
O9 Zn6 2.065957 1_655
O10 Si1 1.662808 1_555
O10 Zn15 2.053699 1_555
O10 Zn0 2.053699 1_555
O11 Si2 1.634883 1_565
O11 Pb2 2.331457 1_555
O11 Pb3 2.456231 1_455
O12 Zn8 1.923793 1_655
O12 Te0 1.951045 1_665
O12 Pb3 2.612264 1_555
O13 Zn0 1.964534 1_555
O13 Zn10 1.965651 1_655
O13 Te0 1.982295 1_655
O14 Si1 1.634883 1_555
O14 Pb3 2.331457 1_555
O14 Pb2 2.456231 1_555
O15 Si3 1.662808 1_555
O15 Zn9 2.053699 1_555
O15 Zn2 2.053699 1_555
O16 Zn1 1.923793 1_555
O16 Te3 1.951045 1_555
O16 Pb2 2.612264 1_555
O17 Si3 1.634883 1_545
O17 Pb1 2.331457 1_555
O17 Pb0 2.456231 1_655
O18 Zn9 1.964534 1_555
O18 Zn12 1.965651 1_555
O18 Te3 1.982295 1_555
O19 Si0 1.649848 1_655
O19 Zn7 2.018238 1_555
O19 Zn2 2.030136 1_555
O20 Si3 1.649848 1_555
O20 Zn11 2.018238 1_565
O20 Zn12 2.030136 1_555
O21 Te0 1.955657 1_555
O21 Zn11 1.999182 1_555
O21 Zn1 2.065957 1_545
O22 Si2 1.649848 1_555
O22 Zn1 2.018238 1_545
O22 Zn0 2.030136 1_555
O23 Zn11 1.923793 1_555
O23 Te3 1.951045 1_555
O23 Pb1 2.612264 1_555
O24 Zn3 1.964534 1_555
O24 Zn15 1.965651 1_555
O24 Te1 1.982295 1_555
O25 Si3 1.649848 1_555
O25 Zn4 2.018238 1_565
O25 Zn13 2.030136 1_555
O26 Te1 1.955657 1_556
O26 Zn6 1.999182 1_556
O26 Zn7 2.065957 1_455
O27 Si2 1.649848 1_555
O27 Zn14 2.018238 1_545
O27 Zn15 2.030136 1_555
O28 Te2 1.955657 1_555
O28 Zn4 1.999182 1_554
O28 Zn14 2.065957 1_545
O29 Si0 1.634883 1_555
O29 Pb0 2.331457 1_555
O29 Pb1 2.456231 1_555
O30 Zn7 1.923793 1_455
O30 Te2 1.951045 1_556
O30 Pb0 2.612264 1_555
O31 Zn10 1.964534 1_555
O31 Zn0 1.965651 1_555
O31 Te3 1.982295 1_555
O32 Si1 1.649848 1_455
O32 Zn6 2.018238 1_555
O32 Zn3 2.030136 1_555
O33 Zn6 1.923793 1_655
O33 Te2 1.951045 1_665
O33 Pb3 2.612264 1_555
O34 Si0 1.649848 1_655
O34 Zn5 2.018238 1_555
O34 Zn9 2.030136 1_555
O35 Te0 1.955657 1_665
O35 Zn1 1.999182 1_555
O35 Zn11 2.065957 1_565
O36 Te3 1.955657 1_555
O36 Zn5 1.999182 1_555
O36 Zn8 2.065957 1_655
O37 Si2 1.662808 1_555
O37 Zn3 2.053699 1_555
O37 Zn10 2.053699 1_555
O38 Zn15 1.964534 1_555
O38 Zn3 1.965651 1_655
O38 Te2 1.982295 1_655
O39 Te2 1.955657 1_666
O39 Zn14 1.999182 1_556
O39 Zn4 2.065957 1_565
