# generated using pymatgen
data_BaPb2IF5
_symmetry_space_group_name_H-M   'P 1'
_cell_length_a   6.13021100
_cell_length_b   6.13021100
_cell_length_c   10.12016200
_cell_angle_alpha   90.00000000
_cell_angle_beta   90.00000000
_cell_angle_gamma   90.00000000
_symmetry_Int_Tables_number   1
_chemical_formula_structural   BaPb2IF5
_chemical_formula_sum   'Ba2 Pb4 I2 F10'
_cell_volume   380.31049535
_cell_formula_units_Z   2
loop_
 _symmetry_equiv_pos_site_id
 _symmetry_equiv_pos_as_xyz
  1  'x, y, z'
loop_
 _atom_site_type_symbol
 _atom_site_label
 _atom_site_symmetry_multiplicity
 _atom_site_fract_x
 _atom_site_fract_y
 _atom_site_fract_z
 _atom_site_occupancy
  Ba  Ba0  1  0.50000000  0.50000000  0.00000000  1
  Ba  Ba1  1  0.00000000  0.00000000  0.00000000  1
  Pb  Pb0  1  0.50000000  0.00000000  0.69355300  1
  Pb  Pb1  1  0.00000000  0.50000000  0.73563400  1
  Pb  Pb2  1  0.50000000  0.00000000  0.26436600  1
  Pb  Pb3  1  0.00000000  0.50000000  0.30644700  1
  I  I0  1  0.50000000  0.50000000  0.50000000  1
  I  I1  1  0.00000000  0.00000000  0.50000000  1
  F  F0  1  0.50000000  0.00000000  0.03537400  1
  F  F1  1  0.76397900  0.26397900  0.18016200  1
  F  F2  1  0.26397900  0.23602100  0.81983800  1
  F  F3  1  0.76397900  0.73602100  0.18016200  1
  F  F4  1  0.73602100  0.76397900  0.81983800  1
  F  F5  1  0.23602100  0.26397900  0.18016200  1
  F  F6  1  0.00000000  0.50000000  0.96462600  1
  F  F7  1  0.73602100  0.23602100  0.81983800  1
  F  F8  1  0.26397900  0.76397900  0.81983800  1
  F  F9  1  0.23602100  0.73602100  0.18016200  1
loop_
_geom_bond_atom_site_label_1
_geom_bond_atom_site_label_2
_geom_bond_distance
_geom_bond_site_symmetry_2
Ba0 F5 2.834860 1_555
Ba0 F9 2.834860 1_555
Ba0 F3 2.834860 1_555
Ba0 F1 2.834860 1_555
Ba0 F8 2.834860 1_554
Ba0 F2 2.834860 1_554
Ba0 F7 2.834860 1_554
Ba0 F4 2.834860 1_554
Ba0 F6 3.085941 1_654
Ba0 F0 3.085941 1_555
Ba0 F0 3.085941 1_565
Ba0 F6 3.085941 1_554
Ba1 F5 2.834860 1_555
Ba1 F9 2.834860 1_545
Ba1 F3 2.834860 1_445
Ba1 F7 2.834860 1_454
Ba1 F1 2.834860 1_455
Ba1 F4 2.834860 1_444
Ba1 F2 2.834860 1_554
Ba1 F8 2.834860 1_544
Ba1 F0 3.085941 1_555
Ba1 F6 3.085941 1_544
Ba1 F6 3.085941 1_554
Ba1 F0 3.085941 1_455
F0 Pb2 2.317436 1_555
F1 Pb3 2.412498 1_655
F1 Pb2 2.442052 1_555
F2 Pb0 2.412498 1_555
F2 Pb1 2.442052 1_555
F3 Pb3 2.412498 1_655
F3 Pb2 2.442052 1_565
F4 Pb0 2.412498 1_565
F4 Pb1 2.442052 1_655
F5 Pb3 2.412498 1_555
F5 Pb2 2.442052 1_555
F6 Pb1 2.317436 1_555
F7 Pb0 2.412498 1_555
F7 Pb1 2.442052 1_655
F8 Pb0 2.412498 1_565
F8 Pb1 2.442052 1_555
F9 Pb3 2.412498 1_555
F9 Pb2 2.442052 1_565
