# generated using pymatgen
data_TlW3Br7
_symmetry_space_group_name_H-M   'P 1'
_cell_length_a   14.12943700
_cell_length_b   14.41460500
_cell_length_c   14.45101200
_cell_angle_alpha   90.00000000
_cell_angle_beta   90.00000000
_cell_angle_gamma   90.00000000
_symmetry_Int_Tables_number   1
_chemical_formula_structural   TlW3Br7
_chemical_formula_sum   'Tl8 W24 Br56'
_cell_volume   2943.24127343
_cell_formula_units_Z   8
loop_
 _symmetry_equiv_pos_site_id
 _symmetry_equiv_pos_as_xyz
  1  'x, y, z'
loop_
 _atom_site_type_symbol
 _atom_site_label
 _atom_site_symmetry_multiplicity
 _atom_site_fract_x
 _atom_site_fract_y
 _atom_site_fract_z
 _atom_site_occupancy
  Tl  Tl0  1  0.75000000  0.25000000  0.25000000  1
  Tl  Tl1  1  0.25000000  0.75000000  0.25000000  1
  Tl  Tl2  1  0.50000000  0.50000000  0.50000000  1
  Tl  Tl3  1  0.00000000  0.00000000  0.50000000  1
  Tl  Tl4  1  0.75000000  0.25000000  0.75000000  1
  Tl  Tl5  1  0.25000000  0.75000000  0.75000000  1
  Tl  Tl6  1  0.50000000  0.00000000  0.00000000  1
  Tl  Tl7  1  0.00000000  0.50000000  0.00000000  1
  W  W0  1  0.62248300  0.54041000  0.02971300  1
  W  W1  1  0.87751700  0.95959000  0.02971300  1
  W  W2  1  0.53052400  0.37987100  0.04132700  1
  W  W3  1  0.96947600  0.12012900  0.04132700  1
  W  W4  1  0.45865700  0.53161900  0.11958600  1
  W  W5  1  0.04134300  0.96838100  0.11958600  1
  W  W6  1  0.45865700  0.96838100  0.38041400  1
  W  W7  1  0.04134300  0.53161900  0.38041400  1
  W  W8  1  0.96947600  0.37987100  0.45867300  1
  W  W9  1  0.53052400  0.12012900  0.45867300  1
  W  W10  1  0.87751700  0.54041000  0.47028700  1
  W  W11  1  0.62248300  0.95959000  0.47028700  1
  W  W12  1  0.37751700  0.04041000  0.52971300  1
  W  W13  1  0.12248300  0.45959000  0.52971300  1
  W  W14  1  0.46947600  0.87987100  0.54132700  1
  W  W15  1  0.03052400  0.62012900  0.54132700  1
  W  W16  1  0.95865700  0.46838100  0.61958600  1
  W  W17  1  0.54134300  0.03161900  0.61958600  1
  W  W18  1  0.95865700  0.03161900  0.88041400  1
  W  W19  1  0.54134300  0.46838100  0.88041400  1
  W  W20  1  0.46947600  0.62012900  0.95867300  1
  W  W21  1  0.03052400  0.87987100  0.95867300  1
  W  W22  1  0.12248300  0.04041000  0.97028700  1
  W  W23  1  0.37751700  0.45959000  0.97028700  1
  Br  Br0  1  0.30584000  0.61183100  0.04769400  1
  Br  Br1  1  0.19416000  0.88816900  0.04769400  1
  Br  Br2  1  0.79382800  0.59380100  0.07162300  1
  Br  Br3  1  0.70617200  0.90619900  0.07162300  1
  Br  Br4  1  0.57542700  0.21018600  0.09731400  1
  Br  Br5  1  0.92457300  0.28981400  0.09731400  1
  Br  Br6  1  0.55093000  0.69121000  0.10782600  1
  Br  Br7  1  0.94907000  0.80879000  0.10782600  1
  Br  Br8  1  0.36741400  0.37080300  0.13133000  1
  Br  Br9  1  0.13258600  0.12919700  0.13133000  1
  Br  Br10  1  0.88847400  0.04705500  0.19117200  1
  Br  Br11  1  0.61152600  0.45294500  0.19117200  1
  Br  Br12  1  0.09703400  0.57648700  0.21095500  1
  Br  Br13  1  0.40296600  0.92351300  0.21095500  1
  Br  Br14  1  0.40296600  0.57648700  0.28904500  1
  Br  Br15  1  0.09703400  0.92351300  0.28904500  1
  Br  Br16  1  0.61152600  0.04705500  0.30882800  1
  Br  Br17  1  0.88847400  0.45294500  0.30882800  1
  Br  Br18  1  0.36741400  0.12919700  0.36867000  1
  Br  Br19  1  0.13258600  0.37080300  0.36867000  1
  Br  Br20  1  0.94907000  0.69121000  0.39217400  1
  Br  Br21  1  0.55093000  0.80879000  0.39217400  1
  Br  Br22  1  0.92457300  0.21018600  0.40268600  1
  Br  Br23  1  0.57542700  0.28981400  0.40268600  1
  Br  Br24  1  0.70617200  0.59380100  0.42837700  1
  Br  Br25  1  0.79382800  0.90619900  0.42837700  1
  Br  Br26  1  0.19416000  0.61183100  0.45230600  1
  Br  Br27  1  0.30584000  0.88816900  0.45230600  1
  Br  Br28  1  0.69416000  0.11183100  0.54769400  1
  Br  Br29  1  0.80584000  0.38816900  0.54769400  1
  Br  Br30  1  0.20617200  0.09380100  0.57162300  1
  Br  Br31  1  0.29382800  0.40619900  0.57162300  1
  Br  Br32  1  0.42457300  0.71018600  0.59731400  1
  Br  Br33  1  0.07542700  0.78981400  0.59731400  1
  Br  Br34  1  0.44907000  0.19121000  0.60782600  1
  Br  Br35  1  0.05093000  0.30879000  0.60782600  1
  Br  Br36  1  0.86741400  0.62919700  0.63133000  1
  Br  Br37  1  0.63258600  0.87080300  0.63133000  1
  Br  Br38  1  0.11152600  0.54705500  0.69117200  1
  Br  Br39  1  0.38847400  0.95294500  0.69117200  1
  Br  Br40  1  0.90296600  0.07648700  0.71095500  1
  Br  Br41  1  0.59703400  0.42351300  0.71095500  1
  Br  Br42  1  0.59703400  0.07648700  0.78904500  1
  Br  Br43  1  0.90296600  0.42351300  0.78904500  1
  Br  Br44  1  0.38847400  0.54705500  0.80882800  1
  Br  Br45  1  0.11152600  0.95294500  0.80882800  1
  Br  Br46  1  0.86741400  0.87080300  0.86867000  1
  Br  Br47  1  0.63258600  0.62919700  0.86867000  1
  Br  Br48  1  0.05093000  0.19121000  0.89217400  1
  Br  Br49  1  0.44907000  0.30879000  0.89217400  1
  Br  Br50  1  0.07542700  0.71018600  0.90268600  1
  Br  Br51  1  0.42457300  0.78981400  0.90268600  1
  Br  Br52  1  0.29382800  0.09380100  0.92837700  1
  Br  Br53  1  0.20617200  0.40619900  0.92837700  1
  Br  Br54  1  0.80584000  0.11183100  0.95230600  1
  Br  Br55  1  0.69416000  0.38816900  0.95230600  1
loop_
_geom_bond_atom_site_label_1
_geom_bond_atom_site_label_2
_geom_bond_distance
_geom_bond_site_symmetry_2
Br0 W20 2.648581 1_554
Br0 W4 2.660529 1_555
Br0 W23 2.663224 1_554
Br1 W21 2.648581 1_554
Br1 W5 2.660529 1_555
Br1 W22 2.663224 1_564
Br2 W0 2.611586 1_555
Br2 Tl7 3.374253 1_655
Br3 W1 2.611586 1_555
Br3 Tl6 3.374253 1_565
Br4 W2 2.653254 1_555
Br4 Tl0 3.358879 1_555
Br5 W3 2.653254 1_555
Br5 Tl0 3.358879 1_555
Br6 W20 2.649563 1_554
Br6 W4 2.649663 1_555
Br6 W0 2.649795 1_555
Br7 W21 2.649563 1_654
Br7 W5 2.649663 1_655
Br7 W1 2.649795 1_555
Br8 W2 2.649558 1_555
Br8 W4 2.657904 1_555
Br8 W23 2.659767 1_554
Br9 W3 2.649558 1_455
Br9 W5 2.657904 1_545
Br9 W22 2.659767 1_554
Br10 W5 2.649839 1_645
Br10 W1 2.656606 1_545
Br10 W3 2.666164 1_555
Br11 W4 2.649839 1_555
Br11 W0 2.656606 1_555
Br11 W2 2.666164 1_555
Br12 W7 2.652237 1_555
Br12 Tl1 3.353400 1_555
Br13 W6 2.652237 1_555
Br13 Tl1 3.353400 1_555
Br14 W4 2.652237 1_555
Br14 Tl1 3.353400 1_555
Br15 W5 2.652237 1_555
Br15 Tl1 3.353400 1_555
Br16 W6 2.649839 1_545
Br16 W11 2.656606 1_545
Br16 W9 2.666164 1_555
Br17 W7 2.649839 1_655
Br17 W10 2.656606 1_555
Br17 W8 2.666164 1_555
Br18 W9 2.649558 1_555
Br18 W6 2.657904 1_545
Br18 W12 2.659767 1_555
Br19 W8 2.649558 1_455
Br19 W7 2.657904 1_555
Br19 W13 2.659767 1_555
Br20 W15 2.649563 1_655
Br20 W7 2.649663 1_655
Br20 W10 2.649795 1_555
Br21 W14 2.649563 1_555
Br21 W6 2.649663 1_555
Br21 W11 2.649795 1_555
Br22 W8 2.653254 1_555
Br22 Tl0 3.358879 1_555
Br23 W9 2.653254 1_555
Br23 Tl0 3.358879 1_555
Br24 W10 2.611586 1_555
Br24 Tl2 3.374253 1_555
Br25 W11 2.611586 1_555
Br25 Tl3 3.374253 1_665
Br26 W15 2.648581 1_555
Br26 W7 2.660529 1_555
Br26 W13 2.663224 1_555
Br27 W14 2.648581 1_555
Br27 W6 2.660529 1_555
Br27 W12 2.663224 1_565
Br28 W9 2.648581 1_555
Br28 W17 2.660529 1_555
Br28 W11 2.663224 1_545
Br29 W8 2.648581 1_555
Br29 W16 2.660529 1_555
Br29 W10 2.663224 1_555
Br30 W12 2.611586 1_555
Br30 Tl3 3.374253 1_555
Br31 W13 2.611586 1_555
Br31 Tl2 3.374253 1_555
Br32 W14 2.653254 1_555
Br32 Tl5 3.358879 1_555
Br33 W15 2.653254 1_555
Br33 Tl5 3.358879 1_555
Br34 W9 2.649563 1_555
Br34 W17 2.649663 1_555
Br34 W12 2.649795 1_555
Br35 W8 2.649563 1_455
Br35 W16 2.649663 1_455
Br35 W13 2.649795 1_555
Br36 W15 2.649558 1_655
Br36 W16 2.657904 1_555
Br36 W10 2.659767 1_555
Br37 W14 2.649558 1_555
Br37 W17 2.657904 1_565
Br37 W11 2.659767 1_555
Br38 W16 2.649839 1_455
Br38 W13 2.656606 1_555
Br38 W15 2.666164 1_555
Br39 W17 2.649839 1_565
Br39 W12 2.656606 1_565
Br39 W14 2.666164 1_555
Br40 W18 2.652237 1_555
Br40 Tl4 3.353400 1_555
Br41 W19 2.652237 1_555
Br41 Tl4 3.353400 1_555
Br42 W17 2.652237 1_555
Br42 Tl4 3.353400 1_555
Br43 W16 2.652237 1_555
Br43 Tl4 3.353400 1_555
Br44 W19 2.649839 1_555
Br44 W23 2.656606 1_555
Br44 W20 2.666164 1_555
Br45 W18 2.649839 1_465
Br45 W22 2.656606 1_565
Br45 W21 2.666164 1_555
Br46 W21 2.649558 1_655
Br46 W18 2.657904 1_565
Br46 W1 2.659767 1_556
Br47 W20 2.649558 1_555
Br47 W19 2.657904 1_555
Br47 W0 2.659767 1_556
Br48 W3 2.649563 1_456
Br48 W18 2.649663 1_455
Br48 W22 2.649795 1_555
Br49 W2 2.649563 1_556
Br49 W19 2.649663 1_555
Br49 W23 2.649795 1_555
Br50 W21 2.653254 1_555
Br50 Tl5 3.358879 1_555
Br51 W20 2.653254 1_555
Br51 Tl5 3.358879 1_555
Br52 W22 2.611586 1_555
Br52 Tl6 3.374253 1_556
Br53 W23 2.611586 1_555
Br53 Tl7 3.374253 1_556
Br54 W3 2.648581 1_556
Br54 W18 2.660529 1_555
Br54 W1 2.663224 1_546
Br55 W2 2.648581 1_556
Br55 W19 2.660529 1_555
Br55 W0 2.663224 1_556
