# generated using pymatgen
data_Na3Pr14(RuO6)6
_symmetry_space_group_name_H-M   'P 1'
_cell_length_a   19.64442226
_cell_length_b   19.64442226
_cell_length_c   19.64442218
_cell_angle_alpha   29.03141132
_cell_angle_beta   29.03141132
_cell_angle_gamma   29.03141336
_symmetry_Int_Tables_number   1
_chemical_formula_structural   Na3Pr14(RuO6)6
_chemical_formula_sum   'Na6 Pr28 Ru12 O72'
_cell_volume   1579.17939660
_cell_formula_units_Z   2
loop_
 _symmetry_equiv_pos_site_id
 _symmetry_equiv_pos_as_xyz
  1  'x, y, z'
loop_
 _atom_site_type_symbol
 _atom_site_label
 _atom_site_symmetry_multiplicity
 _atom_site_fract_x
 _atom_site_fract_y
 _atom_site_fract_z
 _atom_site_occupancy
  Na  Na0  1  0.55300700  0.55300700  0.55300700  1
  Na  Na1  1  0.75000000  0.75000000  0.75000000  1
  Na  Na2  1  0.44699300  0.44699300  0.44699300  1
  Na  Na3  1  0.94699300  0.94699300  0.94699300  1
  Na  Na4  1  0.25000000  0.25000000  0.25000000  1
  Na  Na5  1  0.05300700  0.05300700  0.05300700  1
  Pr  Pr0  1  0.18053300  0.80282400  0.45899400  1
  Pr  Pr1  1  0.77981600  0.07046600  0.49928200  1
  Pr  Pr2  1  0.69717600  0.31946700  0.04100600  1
  Pr  Pr3  1  0.81946700  0.19717600  0.54100600  1
  Pr  Pr4  1  0.49928200  0.77981600  0.07046600  1
  Pr  Pr5  1  0.95899400  0.30282400  0.68053300  1
  Pr  Pr6  1  0.45899400  0.18053300  0.80282400  1
  Pr  Pr7  1  0.22018400  0.92953400  0.50071800  1
  Pr  Pr8  1  0.50071800  0.22018400  0.92953400  1
  Pr  Pr9  1  0.19717600  0.54100600  0.81946700  1
  Pr  Pr10  1  0.10769400  0.10769400  0.10769400  1
  Pr  Pr11  1  0.99928200  0.57046600  0.27981600  1
  Pr  Pr12  1  0.39230600  0.39230600  0.39230600  1
  Pr  Pr13  1  0.31946700  0.04100600  0.69717600  1
  Pr  Pr14  1  0.68053300  0.95899400  0.30282400  1
  Pr  Pr15  1  0.00071800  0.42953400  0.72018400  1
  Pr  Pr16  1  0.27981600  0.99928200  0.57046600  1
  Pr  Pr17  1  0.30282400  0.68053300  0.95899400  1
  Pr  Pr18  1  0.80282400  0.45899400  0.18053300  1
  Pr  Pr19  1  0.72018400  0.00071800  0.42953400  1
  Pr  Pr20  1  0.57046600  0.27981600  0.99928200  1
  Pr  Pr21  1  0.89230600  0.89230600  0.89230600  1
  Pr  Pr22  1  0.60769400  0.60769400  0.60769400  1
  Pr  Pr23  1  0.04100600  0.69717600  0.31946700  1
  Pr  Pr24  1  0.54100600  0.81946700  0.19717600  1
  Pr  Pr25  1  0.42953400  0.72018400  0.00071800  1
  Pr  Pr26  1  0.07046600  0.49928200  0.77981600  1
  Pr  Pr27  1  0.92953400  0.50071800  0.22018400  1
  Ru  Ru0  1  0.75000000  0.41721500  0.08278500  1
  Ru  Ru1  1  0.66233800  0.66233800  0.66233800  1
  Ru  Ru2  1  0.50000000  0.50000000  0.50000000  1
  Ru  Ru3  1  0.83766200  0.83766200  0.83766200  1
  Ru  Ru4  1  0.91721500  0.25000000  0.58278500  1
  Ru  Ru5  1  0.16233800  0.16233800  0.16233800  1
  Ru  Ru6  1  0.08278500  0.75000000  0.41721500  1
  Ru  Ru7  1  0.58278500  0.91721500  0.25000000  1
  Ru  Ru8  1  0.25000000  0.58278500  0.91721500  1
  Ru  Ru9  1  0.41721500  0.08278500  0.75000000  1
  Ru  Ru10  1  0.33766200  0.33766200  0.33766200  1
  Ru  Ru11  1  0.00000000  0.00000000  0.00000000  1
  O  O0  1  0.92655900  0.66479500  0.98550400  1
  O  O1  1  0.24693300  0.98127400  0.30999400  1
  O  O2  1  0.83520500  0.57344100  0.51449600  1
  O  O3  1  0.46745600  0.07981800  0.28145400  1
  O  O4  1  0.26775300  0.20303200  0.70223500  1
  O  O5  1  0.74693300  0.80999400  0.48127400  1
  O  O6  1  0.66479500  0.98550400  0.92655900  1
  O  O7  1  0.25306700  0.19000600  0.51872600  1
  O  O8  1  0.51574200  0.55406200  0.18444200  1
  O  O9  1  0.51449600  0.83520500  0.57344100  1
  O  O10  1  0.03254400  0.21854600  0.42018200  1
  O  O11  1  0.70223500  0.26775300  0.20303200  1
  O  O12  1  0.29776500  0.73224700  0.79696800  1
  O  O13  1  0.78145400  0.57981800  0.96745600  1
  O  O14  1  0.18787600  0.85052100  0.02360700  1
  O  O15  1  0.01574200  0.68444200  0.05406200  1
  O  O16  1  0.81212400  0.14947900  0.97639300  1
  O  O17  1  0.98127400  0.30999400  0.24693300  1
  O  O18  1  0.98425800  0.31555800  0.94593800  1
  O  O19  1  0.57344100  0.51449600  0.83520500  1
  O  O20  1  0.79696800  0.29776500  0.73224700  1
  O  O21  1  0.75306700  0.01872600  0.69000600  1
  O  O22  1  0.23224700  0.79776500  0.29696800  1
  O  O23  1  0.98550400  0.92655900  0.66479500  1
  O  O24  1  0.68444200  0.05406200  0.01574200  1
  O  O25  1  0.69000600  0.75306700  0.01872600  1
  O  O26  1  0.53254400  0.92018200  0.71854600  1
  O  O27  1  0.71854600  0.53254400  0.92018200  1
  O  O28  1  0.81555800  0.48425800  0.44593800  1
  O  O29  1  0.42655900  0.48550400  0.16479500  1
  O  O30  1  0.68787600  0.52360700  0.35052100  1
  O  O31  1  0.42018200  0.03254400  0.21854600  1
  O  O32  1  0.01872600  0.69000600  0.75306700  1
  O  O33  1  0.55406200  0.18444200  0.51574200  1
  O  O34  1  0.02360700  0.18787600  0.85052100  1
  O  O35  1  0.44593800  0.81555800  0.48425800  1
  O  O36  1  0.28145400  0.46745600  0.07981800  1
  O  O37  1  0.51872600  0.25306700  0.19000600  1
  O  O38  1  0.47639300  0.64947900  0.31212400  1
  O  O39  1  0.31555800  0.94593800  0.98425800  1
  O  O40  1  0.52360700  0.35052100  0.68787600  1
  O  O41  1  0.48127400  0.74693300  0.80999400  1
  O  O42  1  0.70303200  0.76775300  0.20223500  1
  O  O43  1  0.18444200  0.51574200  0.55406200  1
  O  O44  1  0.07981800  0.28145400  0.46745600  1
  O  O45  1  0.35052100  0.68787600  0.52360700  1
  O  O46  1  0.07344100  0.33520500  0.01449600  1
  O  O47  1  0.16479500  0.42655900  0.48550400  1
  O  O48  1  0.30999400  0.24693300  0.98127400  1
  O  O49  1  0.96745600  0.78145400  0.57981800  1
  O  O50  1  0.31212400  0.47639300  0.64947900  1
  O  O51  1  0.64947900  0.31212400  0.47639300  1
  O  O52  1  0.29696800  0.23224700  0.79776500  1
  O  O53  1  0.76775300  0.20223500  0.70303200  1
  O  O54  1  0.14947900  0.97639300  0.81212400  1
  O  O55  1  0.01449600  0.07344100  0.33520500  1
  O  O56  1  0.57981800  0.96745600  0.78145400  1
  O  O57  1  0.80999400  0.48127400  0.74693300  1
  O  O58  1  0.19000600  0.51872600  0.25306700  1
  O  O59  1  0.48550400  0.16479500  0.42655900  1
  O  O60  1  0.85052100  0.02360700  0.18787600  1
  O  O61  1  0.20223500  0.70303200  0.76775300  1
  O  O62  1  0.79776500  0.29696800  0.23224700  1
  O  O63  1  0.92018200  0.71854600  0.53254400  1
  O  O64  1  0.20303200  0.70223500  0.26775300  1
  O  O65  1  0.33520500  0.01449600  0.07344100  1
  O  O66  1  0.05406200  0.01574200  0.68444200  1
  O  O67  1  0.94593800  0.98425800  0.31555800  1
  O  O68  1  0.21854600  0.42018200  0.03254400  1
  O  O69  1  0.48425800  0.44593800  0.81555800  1
  O  O70  1  0.97639300  0.81212400  0.14947900  1
  O  O71  1  0.73224700  0.79696800  0.29776500  1
loop_
_geom_bond_atom_site_label_1
_geom_bond_atom_site_label_2
_geom_bond_distance
_geom_bond_site_symmetry_2
Na0 O40 2.467336 1_555
Na0 O30 2.467336 1_555
Na0 O45 2.467336 1_555
Na0 O69 2.581791 1_555
Na0 O28 2.581791 1_555
Na0 O35 2.581791 1_555
Na1 O49 2.415868 1_555
Na1 O27 2.415868 1_555
Na1 O13 2.415868 1_555
Na1 O63 2.415868 1_555
Na1 O26 2.415868 1_555
Na1 O56 2.415868 1_555
Na2 O38 2.467336 1_555
Na2 O50 2.467336 1_555
Na2 O51 2.467336 1_555
Na2 O8 2.581791 1_555
Na2 O43 2.581791 1_555
Na2 O33 2.581791 1_555
Na3 O54 2.467336 1_655
Na3 O70 2.467336 1_556
Na3 O16 2.467336 1_565
Na3 O66 2.581791 1_665
Na3 O15 2.581791 1_656
Na3 O24 2.581791 1_566
Na4 O36 2.415868 1_555
Na4 O10 2.415868 1_555
Na4 O44 2.415868 1_555
Na4 O68 2.415868 1_555
Na4 O3 2.415868 1_555
Na4 O31 2.415868 1_555
Na5 O60 2.467336 1_455
Na5 O34 2.467336 1_554
Na5 O14 2.467336 1_545
Na5 O67 2.581791 1_445
Na5 O18 2.581791 1_454
Na5 O39 2.581791 1_544
O0 Ru3 2.066025 1_555
O0 Pr9 2.398982 1_655
O0 Pr27 2.408914 1_556
O0 Pr21 2.523097 1_555
O1 Ru5 1.969215 1_565
O1 Pr0 2.436023 1_555
O1 Pr7 2.485675 1_555
O1 Pr24 2.491457 1_555
O2 Ru1 2.066025 1_555
O2 Pr5 2.398982 1_555
O2 Pr11 2.408914 1_555
O2 Pr22 2.523097 1_555
O3 Ru7 2.016487 1_545
O3 Pr16 2.493631 1_545
O3 Pr20 2.541859 1_554
O3 Pr14 2.699536 1_545
O4 Ru9 1.973416 1_555
O4 Pr13 2.427959 1_555
O4 Pr15 2.476446 1_555
O4 Pr12 2.674297 1_555
O5 Ru1 1.969215 1_555
O5 Pr14 2.436023 1_555
O5 Pr19 2.485675 1_565
O5 Pr23 2.491457 1_655
O6 Ru3 2.066025 1_555
O6 Pr24 2.398982 1_556
O6 Pr8 2.408914 1_565
O6 Pr21 2.523097 1_555
O7 Ru10 1.969215 1_555
O7 Pr13 2.436023 1_555
O7 Pr16 2.485675 1_545
O7 Pr5 2.491457 1_455
O8 Ru0 2.018914 1_555
O8 Pr12 2.473879 1_555
O8 Pr4 2.485913 1_555
O8 Pr25 2.640315 1_555
O9 Ru1 2.066025 1_555
O9 Pr14 2.398982 1_555
O9 Pr16 2.408914 1_555
O9 Pr22 2.523097 1_555
O10 Ru4 2.016487 1_455
O10 Pr7 2.493632 1_545
O10 Pr27 2.541859 1_455
O10 Pr3 2.699536 1_455
O11 Ru0 1.973416 1_555
O11 Pr2 2.427959 1_555
O11 Pr19 2.476446 1_555
O11 Pr12 2.674297 1_555
O12 Ru8 1.973416 1_555
O12 Pr17 2.427959 1_555
O12 Pr16 2.476446 1_555
O12 Pr22 2.674297 1_555
O13 Ru0 2.016487 1_556
O13 Pr26 2.493631 1_655
O13 Pr4 2.541859 1_556
O13 Pr18 2.699536 1_556
O14 Ru11 2.029554 1_565
O14 Pr25 2.513832 1_555
O14 Pr23 2.537069 1_555
O14 Pr17 2.659870 1_554
O14 Pr13 2.787835 1_564
O15 Ru8 2.018914 1_554
O15 Pr21 2.473879 1_454
O15 Pr11 2.485913 1_455
O15 Pr27 2.640315 1_455
O16 Ru11 2.029554 1_656
O16 Pr20 2.513832 1_555
O16 Pr5 2.537069 1_555
O16 Pr2 2.659870 1_556
O16 Pr14 2.787835 1_546
O17 Ru5 1.969215 1_655
O17 Pr18 2.436023 1_555
O17 Pr27 2.485675 1_555
O17 Pr3 2.491457 1_555
O18 Ru0 2.018914 1_556
O18 Pr10 2.473879 1_656
O18 Pr15 2.485913 1_655
O18 Pr26 2.640315 1_655
O19 Ru1 2.066025 1_555
O19 Pr17 2.398982 1_555
O19 Pr20 2.408914 1_555
O19 Pr22 2.523097 1_555
O20 Ru4 1.973416 1_555
O20 Pr5 2.427959 1_555
O20 Pr20 2.476446 1_555
O20 Pr22 2.674298 1_555
O21 Ru3 1.969215 1_545
O21 Pr3 2.436023 1_555
O21 Pr1 2.485675 1_555
O21 Pr6 2.491457 1_555
O22 Ru6 1.973416 1_555
O22 Pr0 2.427959 1_555
O22 Pr4 2.476446 1_555
O22 Pr10 2.674297 1_565
O23 Ru3 2.066025 1_555
O23 Pr3 2.398982 1_565
O23 Pr7 2.408914 1_655
O23 Pr21 2.523097 1_555
O24 Ru7 2.018914 1_545
O24 Pr21 2.473879 1_544
O24 Pr20 2.485913 1_554
O24 Pr8 2.640315 1_554
O25 Ru3 1.969215 1_554
O25 Pr24 2.436023 1_555
O25 Pr4 2.485675 1_555
O25 Pr18 2.491457 1_555
O26 Ru9 2.016487 1_565
O26 Pr19 2.493631 1_565
O26 Pr25 2.541859 1_556
O26 Pr13 2.699536 1_565
O27 Ru0 2.016487 1_556
O27 Pr25 2.493632 1_556
O27 Pr15 2.541859 1_655
O27 Pr2 2.699536 1_556
O28 Ru4 2.018914 1_555
O28 Pr22 2.473879 1_555
O28 Pr27 2.485913 1_555
O28 Pr11 2.640315 1_555
O29 Ru10 2.066025 1_555
O29 Pr2 2.398982 1_555
O29 Pr25 2.408914 1_555
O29 Pr12 2.523097 1_555
O30 Ru2 2.029554 1_555
O30 Pr27 2.513831 1_555
O30 Pr24 2.537069 1_555
O30 Pr18 2.659870 1_555
O30 Pr3 2.787835 1_555
O31 Ru7 2.016487 1_545
O31 Pr8 2.493631 1_554
O31 Pr7 2.541859 1_545
O31 Pr24 2.699536 1_545
O32 Ru3 1.969215 1_455
O32 Pr9 2.436023 1_555
O32 Pr26 2.485675 1_555
O32 Pr0 2.491457 1_555
O33 Ru9 2.018914 1_555
O33 Pr12 2.473879 1_555
O33 Pr1 2.485913 1_555
O33 Pr19 2.640315 1_555
O34 Ru11 2.029554 1_556
O34 Pr15 2.513831 1_555
O34 Pr13 2.537069 1_555
O34 Pr5 2.659870 1_455
O34 Pr2 2.787835 1_456
O35 Ru7 2.018914 1_555
O35 Pr22 2.473879 1_555
O35 Pr7 2.485913 1_555
O35 Pr16 2.640315 1_555
O36 Ru8 2.016487 1_554
O36 Pr20 2.493632 1_554
O36 Pr11 2.541859 1_455
O36 Pr17 2.699536 1_554
O37 Ru10 1.969215 1_555
O37 Pr2 2.436023 1_555
O37 Pr20 2.485675 1_554
O37 Pr14 2.491457 1_545
O38 Ru2 2.029554 1_555
O38 Pr4 2.513831 1_555
O38 Pr0 2.537069 1_555
O38 Pr24 2.659870 1_555
O38 Pr18 2.787835 1_555
O39 Ru9 2.018914 1_565
O39 Pr10 2.473879 1_566
O39 Pr25 2.485913 1_556
O39 Pr4 2.640315 1_556
O40 Ru2 2.029554 1_555
O40 Pr8 2.513831 1_555
O40 Pr3 2.537069 1_555
O40 Pr6 2.659870 1_555
O40 Pr9 2.787835 1_555
O41 Ru1 1.969215 1_555
O41 Pr17 2.436023 1_555
O41 Pr25 2.485675 1_556
O41 Pr13 2.491457 1_565
O42 Ru7 1.973416 1_555
O42 Pr24 2.427959 1_555
O42 Pr27 2.476446 1_555
O42 Pr21 2.674297 1_554
O43 Ru6 2.018914 1_555
O43 Pr12 2.473879 1_555
O43 Pr26 2.485913 1_555
O43 Pr15 2.640315 1_555
O44 Ru4 2.016487 1_455
O44 Pr11 2.493631 1_455
O44 Pr16 2.541859 1_545
O44 Pr5 2.699536 1_455
O45 Ru2 2.029554 1_555
O45 Pr7 2.513832 1_555
O45 Pr9 2.537069 1_555
O45 Pr0 2.659870 1_555
O45 Pr24 2.787835 1_555
O46 Ru5 2.066025 1_555
O46 Pr18 2.398982 1_455
O46 Pr26 2.408914 1_554
O46 Pr10 2.523097 1_555
O47 Ru10 2.066025 1_555
O47 Pr23 2.398982 1_555
O47 Pr15 2.408914 1_555
O47 Pr12 2.523097 1_555
O48 Ru5 1.969215 1_556
O48 Pr6 2.436023 1_555
O48 Pr8 2.485675 1_555
O48 Pr9 2.491457 1_555
O49 Ru6 2.016487 1_655
O49 Pr1 2.493632 1_565
O49 Pr26 2.541859 1_655
O49 Pr0 2.699536 1_655
O50 Ru2 2.029554 1_555
O50 Pr26 2.513831 1_555
O50 Pr6 2.537069 1_555
O50 Pr9 2.659870 1_555
O50 Pr0 2.787835 1_555
O51 Ru2 2.029554 1_555
O51 Pr1 2.513832 1_555
O51 Pr18 2.537069 1_555
O51 Pr3 2.659870 1_555
O51 Pr6 2.787835 1_555
O52 Ru9 1.973416 1_555
O52 Pr6 2.427959 1_555
O52 Pr26 2.476446 1_555
O52 Pr10 2.674297 1_556
O53 Ru4 1.973416 1_555
O53 Pr3 2.427959 1_555
O53 Pr8 2.476446 1_555
O53 Pr21 2.674297 1_545
O54 Ru11 2.029554 1_566
O54 Pr16 2.513831 1_555
O54 Pr17 2.537069 1_555
O54 Pr13 2.659870 1_565
O54 Pr5 2.787835 1_465
O55 Ru5 2.066025 1_555
O55 Pr0 2.398982 1_545
O55 Pr1 2.408914 1_455
O55 Pr10 2.523097 1_555
O56 Ru9 2.016487 1_565
O56 Pr4 2.493631 1_556
O56 Pr1 2.541859 1_565
O56 Pr6 2.699536 1_565
O57 Ru1 1.969215 1_555
O57 Pr5 2.436023 1_555
O57 Pr15 2.485675 1_655
O57 Pr2 2.491457 1_556
O58 Ru10 1.969215 1_555
O58 Pr23 2.436023 1_555
O58 Pr11 2.485675 1_455
O58 Pr17 2.491457 1_554
O59 Ru10 2.066025 1_555
O59 Pr13 2.398982 1_555
O59 Pr19 2.408914 1_555
O59 Pr12 2.523097 1_555
O60 Ru11 2.029554 1_655
O60 Pr19 2.513831 1_555
O60 Pr2 2.537069 1_555
O60 Pr14 2.659870 1_545
O60 Pr23 2.787835 1_645
O61 Ru8 1.973416 1_555
O61 Pr9 2.427959 1_555
O61 Pr7 2.476446 1_555
O61 Pr21 2.674298 1_455
O62 Ru0 1.973416 1_555
O62 Pr18 2.427959 1_555
O62 Pr1 2.476446 1_555
O62 Pr10 2.674298 1_655
O63 Ru6 2.016487 1_655
O63 Pr15 2.493631 1_655
O63 Pr19 2.541859 1_565
O63 Pr23 2.699536 1_655
O64 Ru6 1.973416 1_555
O64 Pr23 2.427959 1_555
O64 Pr25 2.476446 1_555
O64 Pr12 2.674298 1_555
O65 Ru5 2.066025 1_555
O65 Pr6 2.398982 1_554
O65 Pr4 2.408914 1_545
O65 Pr10 2.523097 1_555
O66 Ru4 2.018914 1_455
O66 Pr21 2.473879 1_445
O66 Pr16 2.485913 1_545
O66 Pr7 2.640315 1_545
O67 Ru6 2.018914 1_655
O67 Pr10 2.473879 1_665
O67 Pr19 2.485913 1_565
O67 Pr1 2.640315 1_565
O68 Ru8 2.016487 1_554
O68 Pr27 2.493631 1_455
O68 Pr8 2.541859 1_554
O68 Pr9 2.699536 1_554
O69 Ru8 2.018914 1_555
O69 Pr22 2.473879 1_555
O69 Pr8 2.485913 1_555
O69 Pr20 2.640315 1_555
O70 Ru11 2.029554 1_665
O70 Pr11 2.513831 1_555
O70 Pr14 2.537069 1_555
O70 Pr23 2.659870 1_655
O70 Pr17 2.787835 1_654
O71 Ru7 1.973416 1_555
O71 Pr14 2.427959 1_555
O71 Pr11 2.476446 1_555
O71 Pr22 2.674297 1_555
