# generated using pymatgen
data_U3Cu2Se7
_symmetry_space_group_name_H-M   'P 1'
_cell_length_a   10.19403392
_cell_length_b   10.19353128
_cell_length_c   6.02446104
_cell_angle_alpha   89.99813168
_cell_angle_beta   90.00374687
_cell_angle_gamma   120.00339649
_symmetry_Int_Tables_number   1
_chemical_formula_structural   U3Cu2Se7
_chemical_formula_sum   'U6 Cu4 Se14'
_cell_volume   542.13157281
_cell_formula_units_Z   2
loop_
 _symmetry_equiv_pos_site_id
 _symmetry_equiv_pos_as_xyz
  1  'x, y, z'
loop_
 _atom_site_type_symbol
 _atom_site_label
 _atom_site_symmetry_multiplicity
 _atom_site_fract_x
 _atom_site_fract_y
 _atom_site_fract_z
 _atom_site_occupancy
  U  U0  1  0.84734833  0.62075511  0.53080820  1
  U  U1  1  0.22661672  0.84735598  0.03087036  1
  U  U2  1  0.15266362  0.37924946  0.03075033  1
  U  U3  1  0.37930754  0.22665233  0.53080576  1
  U  U4  1  0.62071650  0.77338192  0.03076264  1
  U  U5  1  0.77339946  0.15266798  0.53084995  1
  Cu  Cu0  1  0.66665646  0.33332141  0.15434041  1
  Cu  Cu1  1  -0.00002899  -0.00005138  0.99046421  1
  Cu  Cu2  1  0.33333241  0.66667419  0.65441222  1
  Cu  Cu3  1  -0.00001015  0.00001551  0.49048102  1
  Se  Se0  1  0.08151081  0.56645880  0.78378391  1
  Se  Se1  1  0.26135129  0.15159073  0.00907077  1
  Se  Se2  1  0.43352767  0.51507718  0.78351952  1
  Se  Se3  1  0.66670215  0.33339420  0.75566279  1
  Se  Se4  1  0.15158833  0.89023250  0.50909307  1
  Se  Se5  1  0.89027841  0.73868159  0.00913048  1
  Se  Se6  1  0.33335328  0.66662917  0.25567604  1
  Se  Se7  1  0.10970826  0.26126880  0.50900442  1
  Se  Se8  1  0.51507997  0.08152464  0.28369102  1
  Se  Se9  1  0.91847472  0.43353786  0.28374445  1
  Se  Se10  1  0.56647485  0.48493800  0.28351792  1
  Se  Se11  1  0.73864749  0.84842091  0.50906993  1
  Se  Se12  1  0.48491278  0.91847315  0.78365844  1
  Se  Se13  1  0.84838808  0.10975094  0.00903214  1
loop_
_geom_bond_atom_site_label_1
_geom_bond_atom_site_label_2
_geom_bond_distance
_geom_bond_site_symmetry_2
Cu0 Se10 2.369788 1_555
Cu0 Se8 2.369892 1_555
Cu0 Se9 2.370272 1_555
Cu0 Se3 2.401818 1_554
Cu1 Se5 2.318941 1_446
Cu1 Se1 2.320010 1_556
Cu1 Se13 2.320089 1_456
Cu2 Se2 2.369504 1_555
Cu2 Se12 2.369695 1_555
Cu2 Se0 2.370327 1_555
Cu2 Se6 2.402171 1_555
Cu3 Se7 2.318750 1_555
Cu3 Se11 2.319658 1_445
Cu3 Se4 2.320072 1_545
Se0 U2 2.786659 1_556
Se0 U1 2.892516 1_556
Se0 U0 3.106101 1_455
Se1 U1 2.943127 1_545
Se1 U2 3.033405 1_555
Se1 U3 3.068114 1_554
Se1 U3 3.315175 1_555
Se2 U4 2.787070 1_556
Se2 U2 2.892888 1_556
Se2 U3 3.105217 1_555
Se3 U0 2.900318 1_555
Se3 U3 2.900633 1_555
Se3 U5 2.900954 1_555
Se4 U0 2.943017 1_455
Se4 U3 3.033892 1_565
Se4 U1 3.067744 1_555
Se4 U1 3.315276 1_556
Se5 U4 2.943692 1_555
Se5 U1 3.033367 1_655
Se5 U0 3.068271 1_554
Se5 U0 3.314771 1_555
Se6 U4 2.900660 1_555
Se6 U2 2.900685 1_555
Se6 U1 2.901094 1_555
Se7 U3 2.943598 1_555
Se7 U5 3.033275 1_455
Se7 U2 3.068028 1_555
Se7 U2 3.315332 1_556
Se8 U5 2.786947 1_555
Se8 U3 2.892863 1_555
Se8 U1 3.105559 1_545
Se9 U0 2.786992 1_555
Se9 U5 2.892369 1_555
Se9 U2 3.106512 1_655
Se10 U3 2.787092 1_555
Se10 U0 2.893000 1_555
Se10 U4 3.105383 1_555
Se11 U5 2.943182 1_565
Se11 U0 3.033576 1_555
Se11 U4 3.068171 1_555
Se11 U4 3.314960 1_556
Se12 U1 2.787138 1_556
Se12 U4 2.892642 1_556
Se12 U5 3.105849 1_565
Se13 U2 2.943308 1_655
Se13 U4 3.033416 1_545
Se13 U5 3.067375 1_554
Se13 U5 3.315611 1_555
