# generated using pymatgen
data_Li2PtO3
_symmetry_space_group_name_H-M   'P 1'
_cell_length_a   5.19241407
_cell_length_b   5.19241407
_cell_length_c   28.51969151
_cell_angle_alpha   89.98233377
_cell_angle_beta   89.98233377
_cell_angle_gamma   119.96030284
_symmetry_Int_Tables_number   1
_chemical_formula_structural   Li2PtO3
_chemical_formula_sum   'Li24 Pt12 O36'
_cell_volume   666.17387169
_cell_formula_units_Z   12
loop_
 _symmetry_equiv_pos_site_id
 _symmetry_equiv_pos_as_xyz
  1  'x, y, z'
loop_
 _atom_site_type_symbol
 _atom_site_label
 _atom_site_symmetry_multiplicity
 _atom_site_fract_x
 _atom_site_fract_y
 _atom_site_fract_z
 _atom_site_occupancy
  Li  Li0  1  0.33262289  0.66737711  -0.00000000  1
  Li  Li1  1  0.00799883  0.33764792  0.08340492  1
  Li  Li2  1  0.65953599  0.66290897  0.08363803  1
  Li  Li3  1  0.33377335  0.00153549  0.08322194  1
  Li  Li4  1  0.33121681  0.33039591  0.16634873  1
  Li  Li5  1  0.33685440  0.66371867  0.24992409  1
  Li  Li6  1  0.00349060  0.00315128  0.24966629  1
  Li  Li7  1  0.66370372  0.33682242  0.24991698  1
  Li  Li8  1  0.66675492  0.66673459  0.33301278  1
  Li  Li9  1  0.67032418  0.99608744  0.41627493  1
  Li  Li10  1  0.33483101  0.33481494  0.41671865  1
  Li  Li11  1  0.99612898  0.67029302  0.41627178  1
  Li  Li12  1  0.00002763  0.99997237  0.50000000  1
  Li  Li13  1  0.32970698  0.00387102  0.58372822  1
  Li  Li14  1  0.66518506  0.66516899  0.58328135  1
  Li  Li15  1  0.00391256  0.32967582  0.58372507  1
  Li  Li16  1  0.33326541  0.33324508  0.66698722  1
  Li  Li17  1  0.66317758  0.33629628  0.75008302  1
  Li  Li18  1  0.99684872  0.99650940  0.75033371  1
  Li  Li19  1  0.33628133  0.66314560  0.75007591  1
  Li  Li20  1  0.66960409  0.66878319  0.83365127  1
  Li  Li21  1  0.33709103  0.34046401  0.91636197  1
  Li  Li22  1  0.66235208  0.99200117  0.91659508  1
  Li  Li23  1  -0.00153549  0.66622665  0.91677806  1
  Pt  Pt0  1  0.66667244  0.33332756  -0.00000000  1
  Pt  Pt1  1  0.00002319  0.99997681  -0.00000000  1
  Pt  Pt2  1  0.66673369  0.00015961  0.16657545  1
  Pt  Pt3  1  0.00014103  0.66677242  0.16656846  1
  Pt  Pt4  1  0.00015443  0.33345684  0.33309974  1
  Pt  Pt5  1  0.33351985  0.00013555  0.33309995  1
  Pt  Pt6  1  0.33327278  0.66672722  0.50000000  1
  Pt  Pt7  1  0.66679053  0.33320947  0.50000000  1
  Pt  Pt8  1  0.66654316  -0.00015443  0.66690026  1
  Pt  Pt9  1  -0.00013555  0.66648015  0.66690005  1
  Pt  Pt10  1  0.99984039  0.33326631  0.83342455  1
  Pt  Pt11  1  0.33322758  0.99985897  0.83343154  1
  O  O0  1  0.33270095  0.32042105  0.03948562  1
  O  O1  1  0.67902413  0.01273059  0.03915769  1
  O  O2  1  0.98723778  0.66636208  0.03919183  1
  O  O3  1  0.33331641  0.67937467  0.12709787  1
  O  O4  1  0.67918294  0.33337808  0.12745134  1
  O  O5  1  0.98781373  0.98794208  0.12742191  1
  O  O6  1  0.67991454  0.67947346  0.20603533  1
  O  O7  1  0.98721570  0.33289035  0.20569097  1
  O  O8  1  0.33326372  0.98745129  0.20573248  1
  O  O9  1  0.66652466  0.01262854  0.29397859  1
  O  O10  1  0.01270481  0.66648579  0.29397438  1
  O  O11  1  0.32117828  0.32115339  0.29357105  1
  O  O12  1  0.01266415  0.01262922  0.37263023  1
  O  O13  1  0.32102988  0.66708512  0.37222539  1
  O  O14  1  0.66713015  0.32100268  0.37222663  1
  O  O15  1  0.99981206  0.34610797  0.46078962  1
  O  O16  1  0.34616183  0.99975231  0.46078941  1
  O  O17  1  0.65425247  0.65419569  0.46043043  1
  O  O18  1  0.34580431  0.34574753  0.53956957  1
  O  O19  1  0.65389203  0.00018794  0.53921038  1
  O  O20  1  0.00024769  0.65383817  0.53921059  1
  O  O21  1  0.67899732  0.33286985  0.62777337  1
  O  O22  1  0.33291488  0.67897012  0.62777461  1
  O  O23  1  0.98737078  0.98733585  0.62736977  1
  O  O24  1  0.67884661  0.67882172  0.70642895  1
  O  O25  1  0.33351421  0.98729519  0.70602562  1
  O  O26  1  0.98737146  0.33347534  0.70602141  1
  O  O27  1  0.01254871  0.66673628  0.79426752  1
  O  O28  1  0.66710965  0.01278430  0.79430903  1
  O  O29  1  0.32052654  0.32008546  0.79396467  1
  O  O30  1  0.01205792  0.01218627  0.87257809  1
  O  O31  1  0.32062533  0.66668359  0.87290213  1
  O  O32  1  0.66662192  0.32081706  0.87254866  1
  O  O33  1  0.98726941  0.32097587  0.96084231  1
  O  O34  1  0.33363792  0.01276222  0.96080817  1
  O  O35  1  0.67957895  0.66729905  0.96051438  1
loop_
_geom_bond_atom_site_label_1
_geom_bond_atom_site_label_2
_geom_bond_distance
_geom_bond_site_symmetry_2
Li0 O34 2.110665 1_564
Li0 O2 2.110665 1_455
Li0 O1 2.116348 1_565
Li0 O33 2.116348 1_454
Li0 O0 2.124421 1_555
Li0 O35 2.124421 1_554
Li1 O4 2.110544 1_455
Li1 O1 2.116801 1_455
Li1 O3 2.136252 1_555
Li1 O0 2.137492 1_555
Li1 O5 2.166220 1_445
Li1 O2 2.167341 1_455
Li2 O5 2.107699 1_555
Li2 O2 2.114382 1_555
Li2 O3 2.134520 1_555
Li2 O0 2.148604 1_555
Li2 O4 2.161619 1_555
Li2 O1 2.175728 1_565
Li3 O0 2.074963 1_555
Li3 O3 2.087775 1_545
Li3 O1 2.165842 1_555
Li3 O5 2.166300 1_445
Li3 O4 2.166308 1_555
Li3 O2 2.172177 1_445
Li4 O5 2.099856 1_445
Li4 O8 2.109580 1_545
Li4 O4 2.113328 1_555
Li4 O7 2.114591 1_455
Li4 O3 2.125025 1_555
Li4 O6 2.137601 1_555
Li5 O10 2.105765 1_555
Li5 O8 2.108174 1_555
Li5 O11 2.138698 1_555
Li5 O6 2.144647 1_555
Li5 O9 2.167081 1_565
Li5 O7 2.173950 1_455
Li6 O11 2.073032 1_555
Li6 O6 2.092395 1_445
Li6 O8 2.155643 1_545
Li6 O7 2.157487 1_455
Li6 O10 2.176510 1_545
Li6 O9 2.178428 1_455
Li7 O9 2.106256 1_555
Li7 O7 2.108565 1_555
Li7 O11 2.138661 1_555
Li7 O6 2.141915 1_555
Li7 O10 2.167325 1_655
Li7 O8 2.171780 1_545
Li8 O9 2.113274 1_565
Li8 O10 2.113625 1_655
Li8 O13 2.115479 1_555
Li8 O14 2.115582 1_555
Li8 O11 2.119318 1_555
Li8 O12 2.123406 1_665
Li9 O14 2.109826 1_565
Li9 O16 2.115631 1_555
Li9 O12 2.136018 1_665
Li9 O17 2.143568 1_555
Li9 O13 2.166593 1_555
Li9 O15 2.176918 1_565
Li10 O17 2.076169 1_555
Li10 O12 2.094154 1_555
Li10 O15 2.170219 1_455
Li10 O16 2.170484 1_545
Li10 O13 2.171204 1_555
Li10 O14 2.171331 1_555
Li11 O13 2.109763 1_655
Li11 O15 2.115821 1_555
Li11 O12 2.135962 1_665
Li11 O17 2.143506 1_555
Li11 O14 2.166505 1_555
Li11 O16 2.176940 1_655
Li12 O19 2.116957 1_465
Li12 O15 2.116957 1_465
Li12 O16 2.116964 1_555
Li12 O20 2.116964 1_555
Li12 O17 2.122124 1_455
Li12 O18 2.122124 1_565
Li13 O22 2.109763 1_545
Li13 O19 2.115821 1_555
Li13 O23 2.135962 1_445
Li13 O18 2.143506 1_555
Li13 O21 2.166505 1_555
Li13 O20 2.176940 1_545
Li14 O18 2.076169 1_555
Li14 O23 2.094154 1_555
Li14 O19 2.170219 1_565
Li14 O20 2.170484 1_655
Li14 O22 2.171204 1_555
Li14 O21 2.171331 1_555
Li15 O21 2.109826 1_455
Li15 O20 2.115631 1_555
Li15 O23 2.136018 1_445
Li15 O18 2.143568 1_555
Li15 O22 2.166593 1_555
Li15 O19 2.176918 1_455
Li16 O26 2.113274 1_455
Li16 O25 2.113625 1_545
Li16 O22 2.115479 1_555
Li16 O21 2.115582 1_555
Li16 O24 2.119318 1_555
Li16 O23 2.123406 1_445
Li17 O26 2.106256 1_555
Li17 O28 2.108565 1_555
Li17 O24 2.138661 1_555
Li17 O29 2.141915 1_555
Li17 O25 2.167325 1_545
Li17 O27 2.171780 1_655
Li18 O24 2.073032 1_555
Li18 O29 2.092395 1_665
Li18 O27 2.155643 1_655
Li18 O28 2.157487 1_565
Li18 O25 2.176510 1_655
Li18 O26 2.178428 1_565
Li19 O25 2.105765 1_555
Li19 O27 2.108174 1_555
Li19 O24 2.138698 1_555
Li19 O29 2.144647 1_555
Li19 O26 2.167081 1_455
Li19 O28 2.173950 1_565
Li20 O30 2.099856 1_665
Li20 O27 2.109580 1_655
Li20 O32 2.113328 1_555
Li20 O28 2.114591 1_565
Li20 O31 2.125025 1_555
Li20 O29 2.137601 1_555
Li21 O30 2.107699 1_555
Li21 O34 2.114382 1_555
Li21 O31 2.134520 1_555
Li21 O35 2.148604 1_555
Li21 O32 2.161619 1_555
Li21 O33 2.175728 1_455
Li22 O32 2.110544 1_565
Li22 O33 2.116801 1_565
Li22 O31 2.136252 1_555
Li22 O35 2.137492 1_555
Li22 O30 2.166220 1_665
Li22 O34 2.167341 1_565
Li23 O35 2.074963 1_455
Li23 O31 2.087775 1_555
Li23 O33 2.165842 1_455
Li23 O30 2.166300 1_565
Li23 O32 2.166308 1_455
Li23 O34 2.172177 1_565
O0 Pt1 2.037687 1_545
O0 Pt0 2.040214 1_555
O1 Pt0 2.031734 1_555
O1 Pt1 2.034400 1_645
O2 Pt0 2.034129 1_555
O2 Pt1 2.034303 1_655
O3 Pt3 2.037152 1_555
O3 Pt2 2.039947 1_565
O4 Pt2 2.032211 1_555
O4 Pt3 2.034588 1_655
O5 Pt2 2.033457 1_565
O5 Pt3 2.033988 1_655
O6 Pt3 2.035789 1_655
O6 Pt2 2.038766 1_565
O7 Pt2 2.032066 1_555
O7 Pt3 2.034093 1_655
O8 Pt2 2.033288 1_565
O8 Pt3 2.034128 1_555
O9 Pt5 2.031152 1_555
O9 Pt4 2.034926 1_655
O10 Pt4 2.031202 1_555
O10 Pt5 2.035014 1_565
O11 Pt4 2.039303 1_555
O11 Pt5 2.039367 1_555
O12 Pt4 2.038953 1_555
O12 Pt5 2.039035 1_555
O13 Pt5 2.031420 1_565
O13 Pt4 2.035089 1_555
O14 Pt4 2.031402 1_655
O14 Pt5 2.035047 1_555
O15 Pt7 2.031793 1_555
O15 Pt6 2.035509 1_655
O16 Pt6 2.031831 1_555
O16 Pt7 2.035523 1_565
O17 Pt6 2.040277 1_555
O17 Pt7 2.040320 1_555
O18 Pt6 2.040277 1_555
O18 Pt7 2.040320 1_555
O19 Pt7 2.031793 1_555
O19 Pt6 2.035509 1_545
O20 Pt6 2.031831 1_555
O20 Pt7 2.035523 1_455
O21 Pt8 2.031402 1_555
O21 Pt9 2.035047 1_655
O22 Pt9 2.031420 1_555
O22 Pt8 2.035089 1_565
O23 Pt8 2.038953 1_565
O23 Pt9 2.039035 1_655
O24 Pt8 2.039303 1_565
O24 Pt9 2.039367 1_655
O25 Pt8 2.031202 1_565
O25 Pt9 2.035014 1_555
O26 Pt9 2.031152 1_655
O26 Pt8 2.034926 1_555
O27 Pt10 2.033288 1_455
O27 Pt11 2.034128 1_555
O28 Pt10 2.032066 1_555
O28 Pt11 2.034093 1_545
O29 Pt11 2.035789 1_545
O29 Pt10 2.038766 1_455
O30 Pt10 2.033457 1_455
O30 Pt11 2.033988 1_545
O31 Pt11 2.037152 1_555
O31 Pt10 2.039947 1_455
O32 Pt10 2.032211 1_555
O32 Pt11 2.034588 1_545
O33 Pt0 2.031734 1_556
O33 Pt1 2.034400 1_646
O34 Pt0 2.034129 1_556
O34 Pt1 2.034303 1_546
O35 Pt1 2.037687 1_656
O35 Pt0 2.040214 1_556
