# generated using pymatgen
data_Cs2LiCr(CN)6
_symmetry_space_group_name_H-M   'P 1'
_cell_length_a   7.67663400
_cell_length_b   7.65155800
_cell_length_c   13.28706463
_cell_angle_alpha   54.94683671
_cell_angle_beta   90.00000000
_cell_angle_gamma   90.00000000
_symmetry_Int_Tables_number   1
_chemical_formula_structural   Cs2LiCr(CN)6
_chemical_formula_sum   'Cs4 Li2 Cr2 C12 N12'
_cell_volume   638.89845030
_cell_formula_units_Z   2
loop_
 _symmetry_equiv_pos_site_id
 _symmetry_equiv_pos_as_xyz
  1  'x, y, z'
loop_
 _atom_site_type_symbol
 _atom_site_label
 _atom_site_symmetry_multiplicity
 _atom_site_fract_x
 _atom_site_fract_y
 _atom_site_fract_z
 _atom_site_occupancy
  Cs  Cs0  1  0.00718100  0.75090600  0.74960700  1
  Cs  Cs1  1  0.50718100  0.24909400  0.75039300  1
  Cs  Cs2  1  0.99281900  0.24909400  0.25039300  1
  Cs  Cs3  1  0.49281900  0.75090600  0.24960700  1
  Li  Li0  1  0.00000000  0.50000000  0.50000000  1
  Li  Li1  1  0.50000000  0.50000000  0.00000000  1
  Cr  Cr0  1  0.00000000  0.00000000  0.00000000  1
  Cr  Cr1  1  0.50000000  0.00000000  0.50000000  1
  C  C0  1  0.20731500  0.83393600  0.99984400  1
  C  C1  1  0.70731500  0.16606400  0.50015600  1
  C  C2  1  0.79268500  0.16606400  0.00015600  1
  C  C3  1  0.29268500  0.83393600  0.49984400  1
  C  C4  1  0.16607000  0.20658400  0.00116400  1
  C  C5  1  0.66607000  0.79341600  0.49883600  1
  C  C6  1  0.83393000  0.79341600  0.99883600  1
  C  C7  1  0.33393000  0.20658400  0.50116400  1
  C  C8  1  0.00037400  0.81191400  0.18731200  1
  C  C9  1  0.50037400  0.18808600  0.31268800  1
  C  C10  1  0.99962600  0.18808600  0.81268800  1
  C  C11  1  0.49962600  0.81191400  0.68731200  1
  N  N0  1  0.32715400  0.73799400  0.00011500  1
  N  N1  1  0.82715400  0.26200600  0.49988500  1
  N  N2  1  0.67284600  0.26200600  0.99988500  1
  N  N3  1  0.17284600  0.73799400  0.50011500  1
  N  N4  1  0.26231400  0.32522500  0.00210400  1
  N  N5  1  0.76231400  0.67477500  0.49789600  1
  N  N6  1  0.73768600  0.67477500  0.99789600  1
  N  N7  1  0.23768600  0.32522500  0.50210400  1
  N  N8  1  0.99779100  0.29712800  0.70461200  1
  N  N9  1  0.49779100  0.70287200  0.79538800  1
  N  N10  1  0.00220900  0.70287200  0.29538800  1
  N  N11  1  0.50220900  0.29712800  0.20461200  1
loop_
_geom_bond_atom_site_label_1
_geom_bond_atom_site_label_2
_geom_bond_distance
_geom_bond_site_symmetry_2
Cs0 N3 3.604531 1_555
Cs0 N4 3.626071 1_556
Cs0 N6 3.646295 1_455
Cs0 N1 3.648012 1_465
Cs1 N2 3.604531 1_555
Cs1 N5 3.626071 1_555
Cs1 N7 3.646295 1_555
Cs1 N0 3.648012 1_546
Cs2 N1 3.604531 1_555
Cs2 N6 3.626071 1_554
Cs2 N4 3.646295 1_655
Cs2 N3 3.648012 1_645
Cs3 N0 3.604531 1_555
Cs3 N7 3.626071 1_555
Cs3 N5 3.646295 1_555
Cs3 N2 3.648012 1_564
Li0 N10 2.225658 1_555
Li0 N8 2.225658 1_455
Li0 N7 2.252883 1_555
Li0 N5 2.252883 1_455
Li0 N3 2.253870 1_555
Li0 N1 2.253870 1_455
Li1 N11 2.225658 1_555
Li1 N9 2.225658 1_554
Li1 N6 2.252883 1_554
Li1 N4 2.252883 1_555
Li1 N0 2.253870 1_555
Li1 N2 2.253870 1_554
C0 N0 1.175676 1_556
C0 Cr0 2.037251 1_566
C1 N1 1.175676 1_555
C1 Cr1 2.037251 1_555
C2 N2 1.175676 1_554
C2 Cr0 2.037251 1_655
C3 N3 1.175676 1_555
C3 Cr1 2.037251 1_565
C4 N4 1.176065 1_555
C4 Cr0 2.037686 1_555
C5 N5 1.176065 1_555
C5 Cr1 2.037686 1_565
C6 N6 1.176065 1_555
C6 Cr0 2.037686 1_666
C7 N7 1.176065 1_555
C7 Cr1 2.037686 1_555
C8 N10 1.175672 1_555
C8 Cr0 2.037427 1_565
C9 N11 1.175672 1_555
C9 Cr1 2.037427 1_555
C10 N8 1.175672 1_555
C10 Cr0 2.037427 1_656
C11 N9 1.175672 1_555
C11 Cr1 2.037427 1_565
