# generated using pymatgen
data_SrSeO3
_symmetry_space_group_name_H-M   'P 1'
_cell_length_a   4.47018024
_cell_length_b   5.47644898
_cell_length_c   12.51970382
_cell_angle_alpha   90.00000000
_cell_angle_beta   90.00000000
_cell_angle_gamma   90.00000000
_symmetry_Int_Tables_number   1
_chemical_formula_structural   SrSeO3
_chemical_formula_sum   'Sr4 Se4 O12'
_cell_volume   306.49128878
_cell_formula_units_Z   4
loop_
 _symmetry_equiv_pos_site_id
 _symmetry_equiv_pos_as_xyz
  1  'x, y, z'
loop_
 _atom_site_type_symbol
 _atom_site_label
 _atom_site_symmetry_multiplicity
 _atom_site_fract_x
 _atom_site_fract_y
 _atom_site_fract_z
 _atom_site_occupancy
  Sr  Sr0  1  0.52686601  0.25000000  0.64998708  1
  Sr  Sr1  1  0.97313399  0.25000000  0.14998708  1
  Sr  Sr2  1  0.47313399  0.75000000  0.35001292  1
  Sr  Sr3  1  0.02686601  0.75000000  0.85001292  1
  Se  Se0  1  0.49710311  0.25000000  0.92153428  1
  Se  Se1  1  0.99710311  0.75000000  0.57846572  1
  Se  Se2  1  0.00289689  0.25000000  0.42153428  1
  Se  Se3  1  0.50289689  0.75000000  0.07846572  1
  O  O0  1  0.96784722  0.00960313  0.33553300  1
  O  O1  1  0.96784722  0.49039687  0.33553300  1
  O  O2  1  0.12123584  0.25000000  0.94498434  1
  O  O3  1  0.37876416  0.25000000  0.44498434  1
  O  O4  1  0.03215278  0.99039687  0.66446700  1
  O  O5  1  0.53215278  0.49039687  0.83553300  1
  O  O6  1  0.62123584  0.75000000  0.55501566  1
  O  O7  1  0.53215278  0.00960313  0.83553300  1
  O  O8  1  0.87876416  0.75000000  0.05501566  1
  O  O9  1  0.03215278  0.50960313  0.66446700  1
  O  O10  1  0.46784722  0.99039687  0.16446700  1
  O  O11  1  0.46784722  0.50960313  0.16446700  1
loop_
_geom_bond_atom_site_label_1
_geom_bond_atom_site_label_2
_geom_bond_distance
_geom_bond_site_symmetry_2
O0 Se2 1.707947 1_655
O0 Sr2 2.635270 1_545
O0 Sr1 2.670210 1_555
O0 Sr2 2.675058 1_645
O1 Se2 1.707947 1_655
O1 Sr2 2.635270 1_555
O1 Sr1 2.670210 1_555
O1 Sr2 2.675058 1_655
O2 Se0 1.705652 1_555
O2 Sr1 2.650585 1_456
O2 Sr3 3.014894 1_545
O2 Sr3 3.014894 1_555
O3 Se2 1.705652 1_555
O3 Sr0 2.650585 1_555
O3 Sr2 3.014894 1_555
O3 Sr2 3.014894 1_545
O4 Se1 1.707947 1_455
O4 Sr0 2.635270 1_565
O4 Sr3 2.670210 1_555
O4 Sr0 2.675058 1_465
O5 Se0 1.707947 1_555
O5 Sr3 2.635270 1_655
O5 Sr0 2.670210 1_555
O5 Sr3 2.675058 1_555
O6 Se1 1.705652 1_555
O6 Sr2 2.650585 1_555
O6 Sr0 3.014894 1_555
O6 Sr0 3.014894 1_565
O7 Se0 1.707947 1_555
O7 Sr3 2.635270 1_645
O7 Sr0 2.670210 1_555
O7 Sr3 2.675058 1_545
O8 Se3 1.705652 1_555
O8 Sr3 2.650585 1_654
O8 Sr1 3.014894 1_565
O8 Sr1 3.014894 1_555
O9 Se1 1.707947 1_455
O9 Sr0 2.635270 1_555
O9 Sr3 2.670210 1_555
O9 Sr0 2.675058 1_455
O10 Se3 1.707947 1_555
O10 Sr1 2.635270 1_465
O10 Sr2 2.670210 1_555
O10 Sr1 2.675058 1_565
O11 Se3 1.707947 1_555
O11 Sr1 2.635270 1_455
O11 Sr2 2.670210 1_555
O11 Sr1 2.675058 1_555
