# generated using pymatgen
data_Ba3Sn2S7
_symmetry_space_group_name_H-M   'P 1'
_cell_length_a   6.85804627
_cell_length_b   11.20218919
_cell_length_c   18.92638219
_cell_angle_alpha   79.35968808
_cell_angle_beta   90.00000000
_cell_angle_gamma   90.00000000
_symmetry_Int_Tables_number   1
_chemical_formula_structural   Ba3Sn2S7
_chemical_formula_sum   'Ba12 Sn8 S28'
_cell_volume   1429.02089270
_cell_formula_units_Z   4
loop_
 _symmetry_equiv_pos_site_id
 _symmetry_equiv_pos_as_xyz
  1  'x, y, z'
loop_
 _atom_site_type_symbol
 _atom_site_label
 _atom_site_symmetry_multiplicity
 _atom_site_fract_x
 _atom_site_fract_y
 _atom_site_fract_z
 _atom_site_occupancy
  Ba  Ba0  1  0.77480036  0.25665226  0.33500178  1
  Ba  Ba1  1  0.78115349  0.48744151  0.60879729  1
  Ba  Ba2  1  0.21884651  0.51255849  0.39120271  1
  Ba  Ba3  1  0.26680312  0.94156335  0.38898638  1
  Ba  Ba4  1  0.73319688  0.05843665  0.61101362  1
  Ba  Ba5  1  0.23319688  0.94156335  0.88898638  1
  Ba  Ba6  1  0.27480036  0.74334774  0.16499822  1
  Ba  Ba7  1  0.28115349  0.51255849  0.89120271  1
  Ba  Ba8  1  0.22519964  0.74334774  0.66499822  1
  Ba  Ba9  1  0.76680312  0.05843665  0.11101362  1
  Ba  Ba10  1  0.72519964  0.25665226  0.83500178  1
  Ba  Ba11  1  0.71884651  0.48744151  0.10879729  1
  Sn  Sn0  1  0.30071924  0.27485194  0.69580907  1
  Sn  Sn1  1  0.79571807  0.79395707  0.49629476  1
  Sn  Sn2  1  0.80071924  0.72514806  0.80419093  1
  Sn  Sn3  1  0.69928076  0.72514806  0.30419093  1
  Sn  Sn4  1  0.70428193  0.79395707  0.99629476  1
  Sn  Sn5  1  0.20428193  0.20604293  0.50370524  1
  Sn  Sn6  1  0.19928076  0.27485194  0.19580907  1
  Sn  Sn7  1  0.29571807  0.20604293  0.00370524  1
  S  S0  1  0.57947712  0.67601074  0.43193768  1
  S  S1  1  0.18088229  0.23294640  0.88315272  1
  S  S2  1  0.72523685  -0.00219025  0.93960916  1
  S  S3  1  0.55993504  0.54846689  0.26948137  1
  S  S4  1  0.59528760  0.31745605  0.98962762  1
  S  S5  1  0.47142821  0.09628054  0.74659162  1
  S  S6  1  0.04092893  0.75098198  0.30676390  1
  S  S7  1  0.22523685  0.00219025  0.56039084  1
  S  S8  1  0.42052288  0.32398926  0.56806232  1
  S  S9  1  0.27476315  0.00219025  0.06039084  1
  S  S10  1  0.92052288  0.67601074  0.93193768  1
  S  S11  1  0.05993504  0.45153311  0.23051863  1
  S  S12  1  0.44006496  0.45153311  0.73051863  1
  S  S13  1  0.54092893  0.24901802  0.19323610  1
  S  S14  1  0.09528760  0.68254395  0.51037238  1
  S  S15  1  0.31911771  0.23294640  0.38315272  1
  S  S16  1  0.52857179  0.90371946  0.25340838  1
  S  S17  1  0.90471240  0.31745605  0.48962762  1
  S  S18  1  0.40471240  0.68254395  0.01037238  1
  S  S19  1  0.77476315  -0.00219025  0.43960916  1
  S  S20  1  0.95907107  0.24901802  0.69323610  1
  S  S21  1  0.81911771  0.76705360  0.11684728  1
  S  S22  1  0.94006496  0.54846689  0.76948137  1
  S  S23  1  0.97142821  0.90371946  0.75340838  1
  S  S24  1  0.45907107  0.75098198  0.80676390  1
  S  S25  1  0.68088229  0.76705360  0.61684728  1
  S  S26  1  0.02857179  0.09628054  0.24659162  1
  S  S27  1  0.07947712  0.32398926  0.06806232  1
loop_
_geom_bond_atom_site_label_1
_geom_bond_atom_site_label_2
_geom_bond_distance
_geom_bond_site_symmetry_2
Ba0 S13 3.140643 1_555
Ba0 S26 3.188472 1_655
Ba0 S19 3.194915 1_555
Ba0 S17 3.249352 1_555
Ba0 S15 3.252363 1_555
Ba0 S11 3.302420 1_655
Ba0 S3 3.591415 1_555
Ba0 S15 3.840131 1_655
Ba1 S20 3.098398 1_555
Ba1 S25 3.237812 1_555
Ba1 S8 3.253485 1_555
Ba1 S12 3.255564 1_555
Ba1 S17 3.319208 1_555
Ba1 S14 3.374104 1_655
Ba1 S22 3.416357 1_555
Ba1 S0 3.868916 1_555
Ba2 S6 3.098398 1_555
Ba2 S15 3.237812 1_555
Ba2 S0 3.253485 1_555
Ba2 S3 3.255564 1_555
Ba2 S14 3.319208 1_555
Ba2 S17 3.374104 1_455
Ba2 S11 3.416357 1_555
Ba2 S8 3.868916 1_555
Ba3 S16 3.223138 1_555
Ba3 S6 3.256694 1_555
Ba3 S15 3.265326 1_565
Ba3 S26 3.348343 1_565
Ba3 S7 3.446751 1_565
Ba3 S14 3.552341 1_555
Ba3 S19 3.595094 1_465
Ba3 S0 3.635276 1_555
Ba3 S19 3.697765 1_565
Ba4 S5 3.223138 1_555
Ba4 S20 3.256694 1_555
Ba4 S25 3.265326 1_545
Ba4 S23 3.348343 1_545
Ba4 S19 3.446751 1_555
Ba4 S17 3.552341 1_555
Ba4 S7 3.595094 1_655
Ba4 S8 3.635276 1_555
Ba4 S7 3.697765 1_555
Ba5 S23 3.223138 1_455
Ba5 S24 3.256694 1_555
Ba5 S1 3.265326 1_565
Ba5 S5 3.348343 1_565
Ba5 S9 3.446751 1_566
Ba5 S18 3.552341 1_556
Ba5 S2 3.595094 1_565
Ba5 S10 3.635276 1_455
Ba5 S2 3.697765 1_465
Ba6 S6 3.140643 1_555
Ba6 S16 3.188472 1_555
Ba6 S9 3.194915 1_565
Ba6 S18 3.249352 1_555
Ba6 S21 3.252363 1_455
Ba6 S3 3.302420 1_555
Ba6 S11 3.591415 1_555
Ba6 S21 3.840131 1_555
Ba7 S24 3.098398 1_555
Ba7 S1 3.237812 1_555
Ba7 S10 3.253485 1_455
Ba7 S22 3.255564 1_455
Ba7 S18 3.319208 1_556
Ba7 S4 3.374104 1_555
Ba7 S12 3.416357 1_555
Ba7 S27 3.868916 1_556
Ba8 S24 3.140643 1_555
Ba8 S23 3.188472 1_455
Ba8 S7 3.194915 1_565
Ba8 S14 3.249352 1_555
Ba8 S25 3.252363 1_555
Ba8 S22 3.302420 1_455
Ba8 S12 3.591415 1_555
Ba8 S25 3.840131 1_455
Ba9 S26 3.223138 1_655
Ba9 S13 3.256694 1_555
Ba9 S21 3.265326 1_545
Ba9 S16 3.348343 1_545
Ba9 S2 3.446751 1_554
Ba9 S4 3.552341 1_554
Ba9 S9 3.595094 1_555
Ba9 S27 3.635276 1_655
Ba9 S9 3.697765 1_655
Ba10 S20 3.140643 1_555
Ba10 S5 3.188472 1_555
Ba10 S2 3.194915 1_555
Ba10 S4 3.249352 1_555
Ba10 S1 3.252363 1_655
Ba10 S12 3.302420 1_555
Ba10 S22 3.591415 1_555
Ba10 S1 3.840131 1_555
Ba11 S13 3.098398 1_555
Ba11 S21 3.237812 1_555
Ba11 S27 3.253485 1_655
Ba11 S11 3.255564 1_655
Ba11 S4 3.319208 1_554
Ba11 S18 3.374104 1_555
Ba11 S3 3.416357 1_555
Ba11 S10 3.868916 1_554
S0 Sn1 2.454166 1_555
S0 Sn3 2.516398 1_555
S1 Sn7 2.379692 1_556
S2 Sn4 2.341312 1_545
S3 Sn3 2.396297 1_555
S4 Sn7 2.393049 1_556
S5 Sn0 2.363459 1_555
S6 Sn3 2.362447 1_455
S7 Sn5 2.341312 1_555
S8 Sn5 2.454166 1_555
S8 Sn0 2.516398 1_555
S9 Sn7 2.341312 1_555
S10 Sn4 2.454166 1_555
S10 Sn2 2.516398 1_555
S11 Sn6 2.396297 1_555
S12 Sn0 2.396297 1_555
S13 Sn6 2.362447 1_555
S14 Sn1 2.393049 1_455
S15 Sn5 2.379692 1_555
S16 Sn3 2.363459 1_555
S17 Sn5 2.393049 1_655
S18 Sn4 2.393049 1_554
S19 Sn1 2.341312 1_545
S20 Sn0 2.362447 1_655
S21 Sn4 2.379692 1_554
S22 Sn2 2.396297 1_555
S23 Sn2 2.363459 1_555
S24 Sn2 2.362447 1_555
S25 Sn1 2.379692 1_555
S26 Sn6 2.363459 1_555
S27 Sn7 2.454166 1_555
S27 Sn6 2.516398 1_555
