# generated using pymatgen
data_K4Ti3S14
_symmetry_space_group_name_H-M   'P 1'
_cell_length_a   11.29889105
_cell_length_b   11.29889105
_cell_length_c   13.04984529
_cell_angle_alpha   68.98928855
_cell_angle_beta   68.98928855
_cell_angle_gamma   41.47086449
_symmetry_Int_Tables_number   1
_chemical_formula_structural   K4Ti3S14
_chemical_formula_sum   'K8 Ti6 S28'
_cell_volume   1018.99547113
_cell_formula_units_Z   2
loop_
 _symmetry_equiv_pos_site_id
 _symmetry_equiv_pos_as_xyz
  1  'x, y, z'
loop_
 _atom_site_type_symbol
 _atom_site_label
 _atom_site_symmetry_multiplicity
 _atom_site_fract_x
 _atom_site_fract_y
 _atom_site_fract_z
 _atom_site_occupancy
  K  K0  1  0.02231548  0.37955287  0.88860218  1
  K  K1  1  0.62044713  0.97768452  0.61139782  1
  K  K2  1  0.97768452  0.62044713  0.11139782  1
  K  K3  1  0.37955287  0.02231548  0.38860218  1
  K  K4  1  0.18837451  0.66935602  0.64770963  1
  K  K5  1  0.33064398  0.81162549  0.85229037  1
  K  K6  1  0.81162549  0.33064398  0.35229037  1
  K  K7  1  0.66935602  0.18837451  0.14770963  1
  Ti  Ti0  1  0.92125490  0.41379291  0.58464189  1
  Ti  Ti1  1  0.58620709  0.07874510  0.91535811  1
  Ti  Ti2  1  0.07874510  0.58620709  0.41535811  1
  Ti  Ti3  1  0.41379291  0.92125490  0.08464189  1
  Ti  Ti4  1  0.76410479  0.23589521  0.75000000  1
  Ti  Ti5  1  0.23589521  0.76410479  0.25000000  1
  S  S0  1  0.98864802  0.56947501  0.60348135  1
  S  S1  1  0.43052499  0.01135198  0.89651865  1
  S  S2  1  0.01135198  0.43052499  0.39651865  1
  S  S3  1  0.56947501  0.98864802  0.10348135  1
  S  S4  1  0.65466113  0.48468543  0.58014235  1
  S  S5  1  0.51531457  0.34533887  0.91985765  1
  S  S6  1  0.34533887  0.51531457  0.41985765  1
  S  S7  1  0.48468543  0.65466113  0.08014235  1
  S  S8  1  0.75743492  0.43336225  0.79400018  1
  S  S9  1  0.56663775  0.24256508  0.70599982  1
  S  S10  1  0.24256508  0.56663775  0.20599982  1
  S  S11  1  0.43336225  0.75743492  0.29400018  1
  S  S12  1  0.07480729  0.09781980  0.63096231  1
  S  S13  1  0.90218020  0.92519271  0.86903769  1
  S  S14  1  0.92519271  0.90218020  0.36903769  1
  S  S15  1  0.09781980  0.07480729  0.13096231  1
  S  S16  1  0.88678644  0.19096556  0.89793869  1
  S  S17  1  0.80903444  0.11321356  0.60206131  1
  S  S18  1  0.11321356  0.80903444  0.10206131  1
  S  S19  1  0.19096556  0.88678644  0.39793869  1
  S  S20  1  0.84652995  0.80749319  0.83475268  1
  S  S21  1  0.19250681  0.15347005  0.66524732  1
  S  S22  1  0.15347005  0.19250681  0.16524732  1
  S  S23  1  0.80749319  0.84652995  0.33475268  1
  S  S24  1  0.30220419  0.40341087  0.89994488  1
  S  S25  1  0.59658913  0.69779581  0.60005512  1
  S  S26  1  0.69779581  0.59658913  0.10005512  1
  S  S27  1  0.40341087  0.30220419  0.39994488  1
loop_
_geom_bond_atom_site_label_1
_geom_bond_atom_site_label_2
_geom_bond_distance
_geom_bond_site_symmetry_2
K0 S1 3.141637 1_555
K0 S8 3.199271 1_455
K0 S26 3.345870 1_456
K0 S16 3.386761 1_455
K0 S24 3.425985 1_555
K0 S20 3.462768 1_455
K0 S15 3.508638 1_556
K0 S0 3.558085 1_455
K0 S21 3.560554 1_555
K0 S22 3.656185 1_556
K1 S0 3.141637 1_555
K1 S9 3.199271 1_565
K1 S27 3.345870 1_565
K1 S17 3.386761 1_565
K1 S25 3.425985 1_555
K1 S21 3.462768 1_565
K1 S14 3.508638 1_555
K1 S1 3.558085 1_565
K1 S20 3.560554 1_555
K1 S23 3.656185 1_555
K2 S3 3.141637 1_555
K2 S10 3.199271 1_655
K2 S24 3.345870 1_654
K2 S18 3.386761 1_655
K2 S26 3.425985 1_555
K2 S22 3.462768 1_655
K2 S13 3.508638 1_554
K2 S2 3.558085 1_655
K2 S23 3.560554 1_555
K2 S20 3.656185 1_554
K3 S2 3.141637 1_555
K3 S11 3.199271 1_545
K3 S25 3.345870 1_545
K3 S19 3.386761 1_545
K3 S27 3.425985 1_555
K3 S23 3.462768 1_545
K3 S12 3.508638 1_555
K3 S3 3.558085 1_545
K3 S22 3.560554 1_555
K3 S21 3.656185 1_555
K4 S20 3.201518 1_455
K4 S6 3.212437 1_555
K4 S9 3.303698 1_555
K4 S19 3.310244 1_555
K4 S17 3.369413 1_465
K4 S24 3.416117 1_555
K4 S0 3.452104 1_455
K4 S13 3.526538 1_455
K4 S4 3.795063 1_555
K5 S21 3.201518 1_565
K5 S7 3.212437 1_556
K5 S8 3.303698 1_555
K5 S18 3.310244 1_556
K5 S16 3.369413 1_465
K5 S25 3.416117 1_555
K5 S1 3.452104 1_565
K5 S12 3.526538 1_565
K5 S5 3.795063 1_555
K6 S22 3.201518 1_655
K6 S4 3.212437 1_555
K6 S11 3.303698 1_555
K6 S17 3.310244 1_555
K6 S19 3.369413 1_645
K6 S26 3.416117 1_555
K6 S2 3.452104 1_655
K6 S15 3.526538 1_655
K6 S6 3.795063 1_555
K7 S23 3.201518 1_545
K7 S5 3.212437 1_554
K7 S10 3.303698 1_555
K7 S16 3.310244 1_554
K7 S18 3.369413 1_645
K7 S27 3.416117 1_555
K7 S3 3.452104 1_545
K7 S14 3.526538 1_545
K7 S7 3.795063 1_555
S0 Ti2 2.294007 1_655
S0 Ti0 2.487190 1_555
S1 Ti3 2.294007 1_546
S1 Ti1 2.487190 1_555
S2 Ti0 2.294007 1_455
S2 Ti2 2.487190 1_555
S3 Ti1 2.294007 1_564
S3 Ti3 2.487190 1_555
S4 Ti0 2.489138 1_555
S4 Ti4 2.575400 1_555
S5 Ti1 2.489138 1_555
S5 Ti4 2.575400 1_555
S6 Ti2 2.489138 1_555
S6 Ti5 2.575400 1_555
S7 Ti3 2.489138 1_555
S7 Ti5 2.575400 1_555
S8 Ti4 2.439080 1_555
S8 Ti0 2.670745 1_555
S9 Ti4 2.439080 1_555
S9 Ti1 2.670745 1_555
S10 S18 2.058149 1_555
S10 Ti5 2.439080 1_555
S10 Ti2 2.670745 1_555
S11 S19 2.058149 1_555
S11 Ti5 2.439080 1_555
S11 Ti3 2.670745 1_555
S12 S21 2.060497 1_555
S12 Ti0 2.458372 1_455
S12 Ti4 2.605957 1_455
S13 S20 2.060497 1_555
S13 Ti1 2.458372 1_565
S13 Ti4 2.605957 1_565
S14 S23 2.060497 1_555
S14 Ti2 2.458372 1_655
S14 Ti5 2.605957 1_655
S15 S22 2.060497 1_555
S15 Ti3 2.458372 1_545
S15 Ti5 2.605957 1_545
S16 S8 2.058149 1_555
S16 Ti4 2.463322 1_555
S17 S9 2.058149 1_555
S17 Ti4 2.463322 1_555
S18 Ti5 2.463322 1_555
S19 Ti5 2.463322 1_555
S20 Ti1 2.394791 1_565
S21 Ti0 2.394791 1_455
S22 Ti3 2.394791 1_545
S23 Ti2 2.394791 1_655
S24 S5 2.062724 1_555
S24 Ti1 2.467321 1_555
S25 S4 2.062724 1_555
S25 Ti0 2.467321 1_555
S26 S7 2.062724 1_555
S26 Ti3 2.467321 1_555
S27 S6 2.062724 1_555
S27 Ti2 2.467321 1_555
