# generated using pymatgen
data_NdSn2P10Cl37O12
_symmetry_space_group_name_H-M   'P 1'
_cell_length_a   12.64373927
_cell_length_b   12.70963271
_cell_length_c   22.41956277
_cell_angle_alpha   91.35385223
_cell_angle_beta   95.67444910
_cell_angle_gamma   92.20506732
_symmetry_Int_Tables_number   1
_chemical_formula_structural   NdSn2P10Cl37O12
_chemical_formula_sum   'Nd2 Sn4 P20 Cl74 O24'
_cell_volume   3581.09025496
_cell_formula_units_Z   2
loop_
 _symmetry_equiv_pos_site_id
 _symmetry_equiv_pos_as_xyz
  1  'x, y, z'
loop_
 _atom_site_type_symbol
 _atom_site_label
 _atom_site_symmetry_multiplicity
 _atom_site_fract_x
 _atom_site_fract_y
 _atom_site_fract_z
 _atom_site_occupancy
  Nd  Nd0  1  0.11615132  0.77963472  0.72519221  1
  Nd  Nd1  1  0.88384868  0.22036528  0.27480779  1
  Sn  Sn0  1  0.63584490  0.72807852  0.00297239  1
  Sn  Sn1  1  0.22990499  0.26740049  0.41821298  1
  Sn  Sn2  1  0.36415510  0.27192148  0.99702761  1
  Sn  Sn3  1  0.77009501  0.73259951  0.58178702  1
  P  P0  1  0.90870083  0.07282248  0.11344996  1
  P  P1  1  0.18162108  0.23722513  0.26212207  1
  P  P2  1  0.23150452  0.71540203  0.14765124  1
  P  P3  1  0.03641160  0.44418343  0.36485088  1
  P  P4  1  0.87123147  0.42056363  0.14221248  1
  P  P5  1  0.45693772  0.78174381  0.35394912  1
  P  P6  1  0.08373150  0.08511773  0.69240839  1
  P  P7  1  0.76849548  0.28459797  0.85234876  1
  P  P8  1  0.09129917  0.92717752  0.88655004  1
  P  P9  1  0.96358840  0.55581657  0.63514912  1
  P  P10  1  0.54306228  0.21825619  0.64605088  1
  P  P11  1  0.12876853  0.57943637  0.85778752  1
  P  P12  1  0.64884141  0.42649537  0.29715132  1
  P  P13  1  0.22372449  0.81882066  0.56717443  1
  P  P14  1  0.81837892  0.76277487  0.73787793  1
  P  P15  1  0.91626850  0.91488227  0.30759161  1
  P  P16  1  0.77627551  0.18117934  0.43282557  1
  P  P17  1  0.60083212  0.10011041  0.21447159  1
  P  P18  1  0.35115859  0.57350463  0.70284868  1
  P  P19  1  0.39916788  0.89988959  0.78552841  1
  Cl  Cl0  1  0.62270621  0.20638375  0.43717686  1
  Cl  Cl1  1  0.17961466  0.32658967  0.99550365  1
  Cl  Cl2  1  0.79413897  0.12732864  0.05596298  1
  Cl  Cl3  1  0.75751954  0.68238755  0.80407914  1
  Cl  Cl4  1  0.03271332  0.44952103  0.58450737  1
  Cl  Cl5  1  0.82043564  0.36372671  0.92887138  1
  Cl  Cl6  1  0.46783545  0.79120693  0.83666925  1
  Cl  Cl7  1  0.65353718  0.87956825  0.58190018  1
  Cl  Cl8  1  0.77353731  0.84054558  0.29872739  1
  Cl  Cl9  1  0.37687769  0.66338896  0.16949533  1
  Cl  Cl10  1  0.09835339  0.43140262  0.82904013  1
  Cl  Cl11  1  0.31737345  0.10969744  0.04104084  1
  Cl  Cl12  1  0.79800724  0.73319794  0.47671035  1
  Cl  Cl13  1  0.54648083  0.21952365  0.99288440  1
  Cl  Cl14  1  0.68262655  0.89030256  0.95895916  1
  Cl  Cl15  1  0.37278967  0.39747928  0.43292847  1
  Cl  Cl16  1  0.97840422  0.88406660  0.39002832  1
  Cl  Cl17  1  0.49823398  0.37701482  0.29962770  1
  Cl  Cl18  1  0.01576080  0.60871959  0.91124823  1
  Cl  Cl19  1  0.68140536  0.14876879  0.66834538  1
  Cl  Cl20  1  0.57991625  0.96613074  0.16650262  1
  Cl  Cl21  1  0.31281283  0.49500972  0.62534403  1
  Cl  Cl22  1  0.96728668  0.55047897  0.41549263  1
  Cl  Cl23  1  0.74235848  0.13590311  0.87785188  1
  Cl  Cl24  1  0.07092143  0.15359705  0.39240708  1
  Cl  Cl25  1  0.34646282  0.12043175  0.41809982  1
  Cl  Cl26  1  0.22646269  0.15945442  0.70127261  1
  Cl  Cl27  1  0.22268854  0.08752337  0.24570615  1
  Cl  Cl28  1  0.99475750  0.16325338  0.74557529  1
  Cl  Cl29  1  0.53216455  0.20879307  0.16333075  1
  Cl  Cl30  1  0.50176602  0.62298518  0.70037230  1
  Cl  Cl31  1  0.45351917  0.78047635  0.00711560  1
  Cl  Cl32  1  0.11175436  0.08353633  0.89458735  1
  Cl  Cl33  1  0.88824564  0.91646367  0.10541265  1
  Cl  Cl34  1  0.77731146  0.91247663  0.75429385  1
  Cl  Cl35  1  0.52377294  0.86605406  0.42567137  1
  Cl  Cl36  1  0.65256167  0.71573122  0.11035743  1
  Cl  Cl37  1  0.51295939  0.08234121  0.28287468  1
  Cl  Cl38  1  0.80018721  0.04473796  0.47279709  1
  Cl  Cl39  1  0.04499152  0.10558988  0.07860565  1
  Cl  Cl40  1  0.82038534  0.67341033  0.00449635  1
  Cl  Cl41  1  0.14502104  0.70982335  0.51292441  1
  Cl  Cl42  1  0.42263295  0.41319406  0.06581796  1
  Cl  Cl43  1  0.20586103  0.87267136  0.94403702  1
  Cl  Cl44  1  0.00524250  0.83674662  0.25442471  1
  Cl  Cl45  1  0.62312231  0.33661104  0.83050467  1
  Cl  Cl46  1  0.95500848  0.89441012  0.92139435  1
  Cl  Cl47  1  0.62721033  0.60252072  0.56707153  1
  Cl  Cl48  1  0.24248046  0.31761245  0.19592086  1
  Cl  Cl49  1  0.37729379  0.79361625  0.56282314  1
  Cl  Cl50  1  0.20199276  0.26680206  0.52328965  1
  Cl  Cl51  1  0.35732794  0.46319342  0.76513583  1
  Cl  Cl52  1  0.34743833  0.28426878  0.88964257  1
  Cl  Cl53  1  0.26441577  0.58118530  0.91065334  1
  Cl  Cl54  1  0.19981279  0.95526204  0.52720291  1
  Cl  Cl55  1  0.90164661  0.56859738  0.17095987  1
  Cl  Cl56  1  0.57736705  0.58680594  0.93418204  1
  Cl  Cl57  1  0.68718717  0.50499028  0.37465597  1
  Cl  Cl58  1  0.41166216  0.64409923  0.38737120  1
  Cl  Cl59  1  0.25764152  0.86409689  0.12214812  1
  Cl  Cl60  1  0.89808024  0.46480059  0.69574374  1
  Cl  Cl61  1  0.48704061  0.91765879  0.71712532  1
  Cl  Cl62  1  0.42008375  0.03386926  0.83349738  1
  Cl  Cl63  1  0.02159578  0.11593340  0.60997168  1
  Cl  Cl64  1  0.64267206  0.53680658  0.23486417  1
  Cl  Cl65  1  0.73558423  0.41881470  0.08934666  1
  Cl  Cl66  1  0.58833784  0.35590077  0.61262880  1
  Cl  Cl67  1  0.98423920  0.39128041  0.08875177  1
  Cl  Cl68  1  0.85497896  0.29017665  0.48707559  1
  Cl  Cl69  1  0.47622706  0.13394594  0.57432863  1
  Cl  Cl70  1  0.92907857  0.84640295  0.60759292  1
  Cl  Cl71  1  0.17956436  0.63627329  0.07112862  1
  Cl  Cl72  1  0.10191976  0.53519941  0.30425626  1
  Cl  Cl73  1  0.31859464  0.85123121  0.33165462  1
  O  O0  1  0.27896631  0.65891274  0.71461263  1
  O  O1  1  0.08890335  0.97134697  0.70471647  1
  O  O2  1  0.28577104  0.87306879  0.76561734  1
  O  O3  1  0.72103369  0.34108726  0.28538737  1
  O  O4  1  0.93730816  0.75996835  0.74662952  1
  O  O5  1  0.47483494  0.22686147  0.69533854  1
  O  O6  1  0.84111713  0.29381102  0.80511294  1
  O  O7  1  0.80655681  0.18185449  0.37059639  1
  O  O8  1  0.75875601  0.72075831  0.67979035  1
  O  O9  1  0.71422896  0.12693121  0.23438266  1
  O  O10  1  0.06269184  0.24003165  0.25337048  1
  O  O11  1  0.90631031  0.11504766  0.17526681  1
  O  O12  1  0.12446430  0.39908743  0.40563456  1
  O  O13  1  0.52516506  0.77313853  0.30466146  1
  O  O14  1  0.09368969  0.88495234  0.82473319  1
  O  O15  1  0.24124399  0.27924169  0.32020965  1
  O  O16  1  0.86768067  0.34518448  0.19161232  1
  O  O17  1  0.95047393  0.37254949  0.33301554  1
  O  O18  1  0.15888287  0.70618898  0.19488706  1
  O  O19  1  0.19344319  0.81814551  0.62940361  1
  O  O20  1  0.91109665  0.02865303  0.29528353  1
  O  O21  1  0.87553570  0.60091257  0.59436544  1
  O  O22  1  0.13231933  0.65481552  0.80838768  1
  O  O23  1  0.04952607  0.62745051  0.66698446  1
loop_
_geom_bond_atom_site_label_1
_geom_bond_atom_site_label_2
_geom_bond_distance
_geom_bond_site_symmetry_2
Nd0 O4 2.363006 1_455
Nd0 O23 2.385735 1_555
Nd0 O22 2.475246 1_555
Nd0 O2 2.489942 1_555
Nd0 O19 2.496880 1_555
Nd0 O1 2.520433 1_555
Nd0 O14 2.620329 1_555
Nd0 O0 2.640198 1_555
Nd1 O10 2.363006 1_655
Nd1 O17 2.385735 1_555
Nd1 O16 2.475246 1_555
Nd1 O9 2.489942 1_555
Nd1 O7 2.496880 1_555
Nd1 O20 2.520433 1_555
Nd1 O11 2.620329 1_555
Nd1 O3 2.640198 1_555
Cl0 P16 1.991517 1_555
Cl1 Sn2 2.457284 1_555
Cl2 P0 1.997337 1_555
Cl3 P14 2.018869 1_555
Cl4 P9 2.023037 1_455
Cl5 P7 2.007697 1_555
Cl6 P19 1.986629 1_555
Cl7 Sn3 2.423499 1_555
Cl8 P15 1.994470 1_555
Cl9 P2 1.996524 1_555
Cl10 P11 1.985234 1_555
Cl11 Sn2 2.385858 1_554
Cl12 Sn3 2.416469 1_555
Cl13 Sn2 2.433927 1_555
Cl14 Sn0 2.385858 1_556
Cl15 Sn1 2.394244 1_555
Cl16 P15 1.989266 1_555
Cl17 P12 1.988746 1_555
Cl18 P11 1.993782 1_555
Cl19 P10 2.014014 1_555
Cl20 P17 1.987139 1_565
Cl21 P18 1.990965 1_555
Cl22 P3 2.023037 1_655
Cl23 P7 2.011978 1_555
Cl24 Sn1 2.444223 1_555
Cl25 Sn1 2.423499 1_555
Cl26 P6 1.994470 1_555
Cl27 P1 2.026299 1_555
Cl28 P6 1.991924 1_655
Cl29 P17 1.986629 1_555
Cl30 P18 1.988746 1_555
Cl31 Sn0 2.433927 1_555
Cl32 P8 1.995717 1_545
Cl33 P0 1.995717 1_565
Cl34 P14 2.026299 1_555
Cl35 P5 2.007018 1_555
Cl36 Sn0 2.405256 1_555
Cl37 P17 1.992797 1_555
Cl38 P16 1.990440 1_555
Cl39 P0 1.994884 1_455
Cl40 Sn0 2.457284 1_555
Cl41 P13 1.990876 1_555
Cl42 Sn2 2.385499 1_554
Cl43 P8 1.997337 1_555
Cl44 P15 1.991924 1_455
Cl45 P7 1.996524 1_555
Cl46 P8 1.994884 1_655
Cl47 Sn3 2.394244 1_555
Cl48 P1 2.018869 1_555
Cl49 P13 1.991517 1_555
Cl50 Sn1 2.416469 1_555
Cl51 P18 2.000299 1_555
Cl52 Sn2 2.405256 1_555
Cl53 P11 1.985101 1_555
Cl54 P13 1.990440 1_555
Cl55 P4 1.985234 1_555
Cl56 Sn0 2.385499 1_556
Cl57 P12 1.990965 1_555
Cl58 P5 2.004822 1_555
Cl59 P2 2.011978 1_555
Cl60 P9 2.023053 1_555
Cl61 P19 1.992797 1_555
Cl62 P19 1.987139 1_545
Cl63 P6 1.989266 1_555
Cl64 P12 2.000299 1_555
Cl65 P4 1.985101 1_555
Cl66 P10 2.004822 1_555
Cl67 P4 1.993782 1_555
Cl68 P16 1.990876 1_555
Cl69 P10 2.007018 1_555
Cl70 Sn3 2.444223 1_555
Cl71 P2 2.007697 1_555
Cl72 P3 2.023053 1_555
Cl73 P5 2.014014 1_555
O0 P18 1.480330 1_555
O1 P6 1.481166 1_565
O2 P19 1.483163 1_555
O3 P12 1.480330 1_555
O4 P14 1.499009 1_555
O5 P10 1.472148 1_555
O6 P7 1.472478 1_555
O7 P16 1.482920 1_555
O8 P14 1.513760 1_555
O8 Sn3 2.224211 1_555
O9 P17 1.483163 1_555
O10 P1 1.499009 1_555
O11 P0 1.477852 1_555
O12 P3 1.508834 1_555
O12 Sn1 2.185809 1_555
O13 P5 1.472148 1_555
O14 P8 1.477852 1_555
O15 P1 1.513760 1_555
O15 Sn1 2.224211 1_555
O16 P4 1.484294 1_555
O17 P3 1.502920 1_655
O18 P2 1.472478 1_555
O19 P13 1.482920 1_555
O20 P15 1.481166 1_545
O21 P9 1.508834 1_555
O21 Sn3 2.185809 1_555
O22 P11 1.484294 1_555
O23 P9 1.502920 1_455
