# generated using pymatgen
data_CsAsF4
_symmetry_space_group_name_H-M   'P 1'
_cell_length_a   4.75925138
_cell_length_b   6.59627834
_cell_length_c   8.43724757
_cell_angle_alpha   111.50635376
_cell_angle_beta   90.00000000
_cell_angle_gamma   90.00000000
_symmetry_Int_Tables_number   1
_chemical_formula_structural   CsAsF4
_chemical_formula_sum   'Cs2 As2 F8'
_cell_volume   246.43213421
_cell_formula_units_Z   2
loop_
 _symmetry_equiv_pos_site_id
 _symmetry_equiv_pos_as_xyz
  1  'x, y, z'
loop_
 _atom_site_type_symbol
 _atom_site_label
 _atom_site_symmetry_multiplicity
 _atom_site_fract_x
 _atom_site_fract_y
 _atom_site_fract_z
 _atom_site_occupancy
  Cs  Cs0  1  0.69831141  0.09966688  0.78339295  1
  Cs  Cs1  1  0.19831141  0.90033312  0.21660705  1
  As  As0  1  0.19095344  0.54142968  0.68917934  1
  As  As1  1  0.69095344  0.45857032  0.31082066  1
  F  F0  1  0.20378583  0.84316656  0.83634576  1
  F  F1  1  0.70378583  0.15683344  0.16365424  1
  F  F2  1  0.56157115  0.54543195  0.71630349  1
  F  F3  1  0.06157115  0.45456805  0.28369651  1
  F  F4  1  0.72380419  0.76938796  0.41479086  1
  F  F5  1  0.22380419  0.23061204  0.58520914  1
  F  F6  1  0.61877399  0.50883603  0.12331128  1
  F  F7  1  0.11877399  0.49116397  0.87668872  1
loop_
_geom_bond_atom_site_label_1
_geom_bond_atom_site_label_2
_geom_bond_distance
_geom_bond_site_symmetry_2
Cs0 F0 3.025862 1_545
Cs0 F0 3.066568 1_645
Cs0 F4 3.076567 1_545
Cs0 F1 3.090207 1_556
Cs0 F5 3.114636 1_555
Cs0 F7 3.130883 1_655
Cs0 F6 3.158739 1_556
Cs0 F2 3.257328 1_555
Cs0 F5 3.294815 1_655
Cs1 F1 3.025862 1_465
Cs1 F1 3.066568 1_565
Cs1 F5 3.076567 1_565
Cs1 F0 3.090207 1_554
Cs1 F4 3.114636 1_455
Cs1 F6 3.130883 1_555
Cs1 F7 3.158739 1_554
Cs1 F3 3.257328 1_555
Cs1 F4 3.294815 1_555
As0 F7 1.765072 1_555
As0 F2 1.777598 1_555
As0 F5 1.918009 1_555
As0 F0 1.922219 1_555
As1 F6 1.765072 1_555
As1 F3 1.777598 1_655
As1 F4 1.918009 1_555
As1 F1 1.922219 1_555
