# generated using pymatgen
data_Hg3AsBrO4
_symmetry_space_group_name_H-M   'P 1'
_cell_length_a   8.70107000
_cell_length_b   8.70107000
_cell_length_c   8.70107000
_cell_angle_alpha   90.00000000
_cell_angle_beta   90.00000000
_cell_angle_gamma   90.00000000
_symmetry_Int_Tables_number   1
_chemical_formula_structural   Hg3AsBrO4
_chemical_formula_sum   'Hg12 As4 Br4 O16'
_cell_volume   658.74599478
_cell_formula_units_Z   4
loop_
 _symmetry_equiv_pos_site_id
 _symmetry_equiv_pos_as_xyz
  1  'x, y, z'
loop_
 _atom_site_type_symbol
 _atom_site_label
 _atom_site_symmetry_multiplicity
 _atom_site_fract_x
 _atom_site_fract_y
 _atom_site_fract_z
 _atom_site_occupancy
  Hg  Hg0  1  0.89366600  0.85752100  0.55273200  1
  Hg  Hg1  1  0.14247900  0.05273200  0.60633400  1
  Hg  Hg2  1  0.39366600  0.64247900  0.44726800  1
  Hg  Hg3  1  0.35752100  0.94726800  0.10633400  1
  Hg  Hg4  1  0.05273200  0.60633400  0.14247900  1
  Hg  Hg5  1  0.60633400  0.14247900  0.05273200  1
  Hg  Hg6  1  0.94726800  0.10633400  0.35752100  1
  Hg  Hg7  1  0.55273200  0.89366600  0.85752100  1
  Hg  Hg8  1  0.64247900  0.44726800  0.39366600  1
  Hg  Hg9  1  0.44726800  0.39366600  0.64247900  1
  Hg  Hg10  1  0.85752100  0.55273200  0.89366600  1
  Hg  Hg11  1  0.10633400  0.35752100  0.94726800  1
  As  As0  1  0.51708100  0.01708100  0.48291900  1
  As  As1  1  0.48291900  0.51708100  0.01708100  1
  As  As2  1  0.98291900  0.98291900  0.98291900  1
  As  As3  1  0.01708100  0.48291900  0.51708100  1
  Br  Br0  1  0.26373000  0.76373000  0.73627000  1
  Br  Br1  1  0.23627000  0.23627000  0.23627000  1
  Br  Br2  1  0.76373000  0.73627000  0.26373000  1
  Br  Br3  1  0.73627000  0.26373000  0.76373000  1
  O  O0  1  0.60209400  0.39570400  0.12437500  1
  O  O1  1  0.89570400  0.37562500  0.39790600  1
  O  O2  1  0.60429600  0.62437500  0.89790600  1
  O  O3  1  0.10429600  0.87562500  0.10209400  1
  O  O4  1  0.10209400  0.10429600  0.87562500  1
  O  O5  1  0.63043500  0.13043500  0.36956500  1
  O  O6  1  0.39790600  0.89570400  0.37562500  1
  O  O7  1  0.89790600  0.60429600  0.62437500  1
  O  O8  1  0.86956500  0.86956500  0.86956500  1
  O  O9  1  0.13043500  0.36956500  0.63043500  1
  O  O10  1  0.36956500  0.63043500  0.13043500  1
  O  O11  1  0.37562500  0.39790600  0.89570400  1
  O  O12  1  0.12437500  0.60209400  0.39570400  1
  O  O13  1  0.87562500  0.10209400  0.10429600  1
  O  O14  1  0.62437500  0.89790600  0.60429600  1
  O  O15  1  0.39570400  0.12437500  0.60209400  1
loop_
_geom_bond_atom_site_label_1
_geom_bond_atom_site_label_2
_geom_bond_distance
_geom_bond_site_symmetry_2
Hg0 O7 2.290111 1_555
Hg0 O14 2.411428 1_555
Hg1 O15 2.290111 1_555
Hg1 O4 2.411428 1_555
Hg2 O6 2.290111 1_555
Hg2 O12 2.411428 1_555
Hg3 O3 2.290111 1_555
Hg3 O6 2.411428 1_555
Hg4 O12 2.290111 1_555
Hg4 O3 2.411428 1_555
Hg5 O0 2.290111 1_555
Hg5 O13 2.411428 1_555
Hg6 O13 2.290111 1_555
Hg6 O1 2.411428 1_555
Hg7 O14 2.290111 1_555
Hg7 O2 2.411428 1_555
Hg8 O1 2.290111 1_555
Hg8 O0 2.411428 1_555
Hg9 O11 2.290111 1_555
Hg9 O15 2.411428 1_555
Hg10 O2 2.290111 1_555
Hg10 O7 2.411428 1_555
Hg11 O4 2.290111 1_555
Hg11 O11 2.411428 1_555
As0 O5 1.708324 1_555
As0 O15 1.749912 1_555
As0 O14 1.749912 1_545
As0 O6 1.749912 1_545
As1 O10 1.708324 1_555
As1 O0 1.749912 1_555
As1 O2 1.749912 1_554
As1 O11 1.749912 1_554
As2 O8 1.708324 1_555
As2 O4 1.749912 1_665
As2 O3 1.749912 1_656
As2 O13 1.749912 1_566
As3 O9 1.708324 1_555
As3 O12 1.749912 1_555
As3 O1 1.749912 1_455
As3 O7 1.749912 1_455
Br0 Hg7 2.952053 1_555
Br0 Hg2 2.952053 1_555
Br0 Hg1 2.952053 1_565
Br1 Hg11 2.952053 1_554
Br1 Hg6 2.952053 1_455
Br1 Hg3 2.952053 1_545
Br2 Hg0 2.952053 1_555
Br2 Hg8 2.952053 1_555
Br2 Hg4 2.952053 1_655
Br3 Hg10 2.952053 1_555
Br3 Hg5 2.952053 1_556
Br3 Hg9 2.952053 1_555
