# generated using pymatgen
data_Fe10Bi5O24
_symmetry_space_group_name_H-M   'P 1'
_cell_length_a   10.86709327
_cell_length_b   10.86709327
_cell_length_c   10.86709327
_cell_angle_alpha   108.96737174
_cell_angle_beta   108.96737174
_cell_angle_gamma   110.48368728
_symmetry_Int_Tables_number   1
_chemical_formula_structural   Fe10Bi5O24
_chemical_formula_sum   'Fe20 Bi10 O48'
_cell_volume   987.68024070
_cell_formula_units_Z   2
loop_
 _symmetry_equiv_pos_site_id
 _symmetry_equiv_pos_as_xyz
  1  'x, y, z'
loop_
 _atom_site_type_symbol
 _atom_site_label
 _atom_site_symmetry_multiplicity
 _atom_site_fract_x
 _atom_site_fract_y
 _atom_site_fract_z
 _atom_site_occupancy
  Fe  Fe0  1  0.76208400  0.76208400  0.00000000  1
  Fe  Fe1  1  0.37653200  0.62424700  0.74862100  1
  Fe  Fe2  1  0.12500000  0.74760200  0.12260200  1
  Fe  Fe3  1  0.87424700  0.62562600  0.74771600  1
  Fe  Fe4  1  0.37575300  0.62346800  0.25137900  1
  Fe  Fe5  1  0.75115500  0.87500000  0.37615500  1
  Fe  Fe6  1  0.62500000  0.00239800  0.87739800  1
  Fe  Fe7  1  0.25239800  0.87500000  0.87739800  1
  Fe  Fe8  1  0.87562600  0.62791100  0.25137900  1
  Fe  Fe9  1  0.48791600  0.98791600  0.50000000  1
  Fe  Fe10  1  0.37208900  0.12437400  0.74862100  1
  Fe  Fe11  1  0.23791600  0.23791600  0.00000000  1
  Fe  Fe12  1  0.87346800  0.12208900  0.74771500  1
  Fe  Fe13  1  0.37437400  0.12575300  0.25228500  1
  Fe  Fe14  1  0.99760200  0.37500000  0.12260200  1
  Fe  Fe15  1  0.12500000  0.24884500  0.62384500  1
  Fe  Fe16  1  0.49884500  0.37500000  0.62384500  1
  Fe  Fe17  1  0.87791100  0.12653200  0.25228500  1
  Fe  Fe18  1  0.62500000  0.50115500  0.37615500  1
  Fe  Fe19  1  0.01208400  0.51208400  0.50000000  1
  Bi  Bi0  1  0.62500000  0.75523000  0.63023000  1
  Bi  Bi1  1  0.50176600  0.87500000  0.12676600  1
  Bi  Bi2  1  0.00523000  0.87500000  0.63023000  1
  Bi  Bi3  1  0.62500000  0.25176600  0.12676600  1
  Bi  Bi4  1  0.12500000  0.99477000  0.36977000  1
  Bi  Bi5  1  0.75000000  0.25000000  0.50000000  1
  Bi  Bi6  1  0.74823400  0.37500000  0.87323400  1
  Bi  Bi7  1  0.50000000  0.50000000  0.00000000  1
  Bi  Bi8  1  0.24477000  0.37500000  0.36977000  1
  Bi  Bi9  1  0.12500000  0.49823400  0.87323400  1
  O  O0  1  0.54966000  0.71829600  0.22642200  1
  O  O1  1  0.55389300  0.70469500  0.94420200  1
  O  O2  1  0.77819900  0.64364800  0.57529700  1
  O  O3  1  0.78929400  0.72547500  0.83340800  1
  O  O4  1  0.27966600  0.69958200  0.13334400  1
  O  O5  1  0.30041800  0.72033400  0.86665600  1
  O  O6  1  0.48460100  0.79865700  0.74459500  1
  O  O7  1  0.76539900  0.00999400  0.81405500  1
  O  O8  1  0.79709800  0.93164900  0.57529700  1
  O  O9  1  0.68376200  0.05041800  0.08008400  1
  O  O10  1  0.97547500  0.64206700  0.43618100  1
  O  O11  1  0.19593900  0.95134300  0.18594500  1
  O  O12  1  0.46070600  0.79411400  0.43618100  1
  O  O13  1  0.39632200  0.02966600  0.08008400  1
  O  O14  1  0.04865700  0.80406100  0.81405500  1
  O  O15  1  0.89206700  0.95588600  0.16659200  1
  O  O16  1  0.25999400  0.94593900  0.74459500  1
  O  O17  1  0.05406100  0.74000600  0.25540500  1
  O  O18  1  0.56623800  0.14632200  0.86665600  1
  O  O19  1  0.75812600  0.03170400  0.33136300  1
  O  O20  1  0.35793300  0.02452500  0.56381900  1
  O  O21  1  0.69610700  0.14030900  0.65080200  1
  O  O22  1  0.27452500  0.21070600  0.16659200  1
  O  O23  1  0.89364800  0.81835100  0.36544900  1
  O  O24  1  0.85367800  0.43376200  0.13334400  1
  O  O25  1  0.48950700  0.04530500  0.34919800  1
  O  O26  1  0.04411400  0.10793300  0.83340800  1
  O  O27  1  0.39030900  0.23950700  0.94420200  1
  O  O28  1  0.99000600  0.23460100  0.18594500  1
  O  O29  1  0.18164900  0.10635200  0.63455100  1
  O  O30  1  0.67676300  0.50812600  0.22642200  1
  O  O31  1  0.49187400  0.32323700  0.77357800  1
  O  O32  1  0.85969100  0.30389300  0.34919800  1
  O  O33  1  0.70034000  0.42676300  0.66863700  1
  O  O34  1  0.35635200  0.22180100  0.42470300  1
  O  O35  1  0.29530500  0.44610700  0.05579800  1
  O  O36  1  0.57323700  0.29966000  0.33136300  1
  O  O37  1  0.76049300  0.60969100  0.05579800  1
  O  O38  1  0.06835100  0.20290200  0.42470300  1
  O  O39  1  0.94958200  0.31623800  0.91991600  1
  O  O40  1  0.96829600  0.24187400  0.66863700  1
  O  O41  1  0.28170400  0.45034000  0.77357800  1
  O  O42  1  0.45290200  0.52819900  0.63455100  1
  O  O43  1  0.47180100  0.54709800  0.36544900  1
  O  O44  1  0.95469500  0.51049300  0.65080200  1
  O  O45  1  0.97033400  0.60367800  0.91991600  1
  O  O46  1  0.20588600  0.53929400  0.56381900  1
  O  O47  1  0.20134300  0.51539900  0.25540500  1
loop_
_geom_bond_atom_site_label_1
_geom_bond_atom_site_label_2
_geom_bond_distance
_geom_bond_site_symmetry_2
Fe0 O15 1.866890 1_555
Fe0 O3 1.866890 1_554
Fe0 O1 1.936515 1_554
Fe0 O37 1.936515 1_555
Fe1 O46 1.870815 1_555
Fe1 O6 1.871592 1_555
Fe1 O42 1.936178 1_555
Fe1 O5 1.960431 1_555
Fe1 O41 1.964413 1_555
Fe1 O1 1.986538 1_555
Fe2 O11 1.854715 1_555
Fe2 O17 1.854725 1_555
Fe2 O4 1.907051 1_555
Fe2 O45 1.907051 1_454
Fe3 O3 1.870810 1_555
Fe3 O14 1.871592 1_655
Fe3 O2 1.936187 1_555
Fe3 O45 1.960423 1_555
Fe3 O33 1.964407 1_555
Fe3 O44 1.986543 1_555
Fe4 O12 1.870815 1_555
Fe4 O47 1.871592 1_555
Fe4 O43 1.936178 1_555
Fe4 O4 1.960431 1_555
Fe4 O0 1.964413 1_555
Fe4 O35 1.986538 1_555
Fe5 O23 1.878308 1_555
Fe5 O8 1.878308 1_555
Fe5 O0 1.901342 1_555
Fe5 O19 1.901348 1_565
Fe6 O6 1.854718 1_545
Fe6 O7 1.854725 1_555
Fe6 O18 1.907051 1_555
Fe6 O9 1.907051 1_556
Fe7 O14 1.854715 1_555
Fe7 O16 1.854725 1_555
Fe7 O13 1.907051 1_566
Fe7 O5 1.907051 1_555
Fe8 O10 1.870815 1_555
Fe8 O17 1.871583 1_655
Fe8 O23 1.936178 1_555
Fe8 O24 1.960431 1_555
Fe8 O30 1.964404 1_555
Fe8 O37 1.986538 1_555
Fe9 O20 1.866890 1_565
Fe9 O12 1.866890 1_555
Fe9 O21 1.936515 1_565
Fe9 O25 1.936515 1_565
Fe10 O20 1.870815 1_555
Fe10 O16 1.871583 1_545
Fe10 O29 1.936178 1_555
Fe10 O18 1.960431 1_555
Fe10 O31 1.964404 1_555
Fe10 O27 1.986538 1_555
Fe11 O26 1.866890 1_554
Fe11 O22 1.866890 1_555
Fe11 O27 1.936515 1_554
Fe11 O35 1.936515 1_555
Fe12 O26 1.870815 1_655
Fe12 O7 1.871583 1_555
Fe12 O8 1.936178 1_545
Fe12 O39 1.960431 1_555
Fe12 O40 1.964404 1_555
Fe12 O21 1.986538 1_555
Fe13 O22 1.870815 1_555
Fe13 O11 1.871589 1_545
Fe13 O34 1.936178 1_555
Fe13 O13 1.960431 1_555
Fe13 O36 1.964409 1_555
Fe13 O25 1.986538 1_555
Fe14 O47 1.854718 1_655
Fe14 O28 1.854725 1_555
Fe14 O39 1.907051 1_554
Fe14 O24 1.907051 1_555
Fe15 O29 1.878308 1_555
Fe15 O38 1.878308 1_555
Fe15 O41 1.901342 1_555
Fe15 O40 1.901348 1_455
Fe16 O34 1.878308 1_555
Fe16 O42 1.878308 1_555
Fe16 O33 1.901337 1_555
Fe16 O31 1.901348 1_555
Fe17 O15 1.870815 1_545
Fe17 O28 1.871583 1_555
Fe17 O38 1.936178 1_655
Fe17 O9 1.960431 1_555
Fe17 O19 1.964404 1_555
Fe17 O32 1.986538 1_555
Fe18 O2 1.878308 1_555
Fe18 O43 1.878308 1_555
Fe18 O36 1.901337 1_555
Fe18 O30 1.901348 1_555
Fe19 O10 1.866890 1_455
Fe19 O46 1.866890 1_555
Fe19 O44 1.936515 1_455
Fe19 O32 1.936515 1_455
Bi0 O7 2.334619 1_565
Bi0 O6 2.334622 1_555
Bi0 O2 2.487311 1_555
Bi0 O43 2.487311 1_555
Bi0 O3 2.544176 1_555
Bi0 O12 2.544176 1_555
Bi0 O8 2.547519 1_555
Bi0 O42 2.547519 1_555
Bi1 O19 2.407567 1_565
Bi1 O0 2.407570 1_555
Bi1 O13 2.433040 1_565
Bi1 O5 2.433040 1_554
Bi1 O4 2.538702 1_555
Bi1 O9 2.538702 1_565
Bi1 O25 2.599911 1_565
Bi1 O1 2.599911 1_554
Bi2 O16 2.334619 1_555
Bi2 O14 2.334620 1_555
Bi2 O8 2.487311 1_455
Bi2 O23 2.487311 1_455
Bi2 O26 2.544176 1_565
Bi2 O10 2.544176 1_455
Bi2 O2 2.547519 1_455
Bi2 O29 2.547519 1_565
Bi3 O36 2.407567 1_555
Bi3 O30 2.407567 1_555
Bi3 O9 2.433040 1_555
Bi3 O18 2.433040 1_554
Bi3 O24 2.538702 1_555
Bi3 O13 2.538702 1_555
Bi3 O32 2.599911 1_555
Bi3 O27 2.599911 1_554
Bi4 O17 2.334619 1_555
Bi4 O11 2.334620 1_555
Bi4 O38 2.487311 1_565
Bi4 O29 2.487311 1_565
Bi4 O15 2.544176 1_455
Bi4 O20 2.544176 1_565
Bi4 O23 2.547519 1_455
Bi4 O34 2.547519 1_565
Bi5 O32 2.419645 1_555
Bi5 O44 2.419645 1_555
Bi5 O21 2.419645 1_555
Bi5 O25 2.419645 1_555
Bi5 O40 2.533675 1_555
Bi5 O19 2.533675 1_555
Bi5 O33 2.533682 1_555
Bi5 O36 2.533682 1_555
Bi6 O33 2.407567 1_555
Bi6 O31 2.407567 1_555
Bi6 O39 2.433040 1_555
Bi6 O24 2.433040 1_556
Bi6 O45 2.538702 1_555
Bi6 O18 2.538702 1_555
Bi6 O21 2.599911 1_555
Bi6 O37 2.599911 1_556
Bi7 O1 2.419645 1_554
Bi7 O35 2.419645 1_555
Bi7 O27 2.419645 1_554
Bi7 O37 2.419645 1_555
Bi7 O0 2.533670 1_555
Bi7 O41 2.533670 1_554
Bi7 O30 2.533675 1_555
Bi7 O31 2.533675 1_554
Bi8 O28 2.334619 1_455
Bi8 O47 2.334622 1_555
Bi8 O42 2.487311 1_555
Bi8 O34 2.487311 1_555
Bi8 O22 2.544176 1_555
Bi8 O46 2.544176 1_555
Bi8 O43 2.547519 1_555
Bi8 O38 2.547519 1_555
Bi9 O40 2.407567 1_455
Bi9 O41 2.407570 1_555
Bi9 O4 2.433040 1_556
Bi9 O45 2.433040 1_455
Bi9 O5 2.538702 1_555
Bi9 O39 2.538702 1_455
Bi9 O35 2.599911 1_556
Bi9 O44 2.599911 1_455
