# generated using pymatgen
data_Ba2U2O7
_symmetry_space_group_name_H-M   'P 1'
_cell_length_a   8.12065678
_cell_length_b   8.12065505
_cell_length_c   8.12066169
_cell_angle_alpha   119.44307984
_cell_angle_beta   118.97431443
_cell_angle_gamma   91.37654900
_symmetry_Int_Tables_number   1
_chemical_formula_structural   Ba2U2O7
_chemical_formula_sum   'Ba4 U4 O14'
_cell_volume   383.06982320
_cell_formula_units_Z   2
loop_
 _symmetry_equiv_pos_site_id
 _symmetry_equiv_pos_as_xyz
  1  'x, y, z'
loop_
 _atom_site_type_symbol
 _atom_site_label
 _atom_site_symmetry_multiplicity
 _atom_site_fract_x
 _atom_site_fract_y
 _atom_site_fract_z
 _atom_site_occupancy
  Ba  Ba0  1  -0.00000029  0.00000003  -0.00000016  1
  Ba  Ba1  1  0.49999999  0.49999988  -0.00000011  1
  Ba  Ba2  1  0.49999997  -0.00000004  -0.00000026  1
  Ba  Ba3  1  0.49999988  0.50000019  0.49999996  1
  U  U0  1  0.00000044  0.00000013  0.50000035  1
  U  U1  1  -0.00000019  0.49999986  0.49999933  1
  U  U2  1  0.00000026  0.49999963  0.00000060  1
  U  U3  1  0.50000098  -0.00000087  0.50000211  1
  O  O0  1  0.91085181  0.74999995  0.16085112  1
  O  O1  1  0.68750833  0.91545030  0.36475880  1
  O  O2  1  0.62083496  0.90680683  0.71402810  1
  O  O3  1  0.68750852  0.32274991  0.77205831  1
  O  O4  1  0.31249121  0.67725022  0.22794104  1
  O  O5  1  0.31249132  0.08454996  0.63524070  1
  O  O6  1  0.69277784  0.40680633  0.28597173  1
  O  O7  1  0.05069064  0.82274931  0.63524077  1
  O  O8  1  0.05069091  0.41544998  0.22794135  1
  O  O9  1  0.08914814  0.25000027  0.83914859  1
  O  O10  1  0.37916447  0.09319362  0.28597082  1
  O  O11  1  0.94930944  0.17725081  0.36475950  1
  O  O12  1  0.94930915  0.58455016  0.77205877  1
  O  O13  1  0.30722223  0.59319353  0.71402858  1
loop_
_geom_bond_atom_site_label_1
_geom_bond_atom_site_label_2
_geom_bond_distance
_geom_bond_site_symmetry_2
Ba0 O10 2.584373 1_555
Ba0 O2 2.584375 1_444
Ba0 O8 2.834326 1_555
Ba0 O12 2.834327 1_444
Ba0 O7 2.834329 1_544
Ba0 O11 2.834329 1_455
Ba0 O0 3.131209 1_445
Ba0 O9 3.131212 1_554
Ba1 O13 2.584374 1_554
Ba1 O6 2.584377 1_555
Ba1 O3 2.834327 1_554
Ba1 O4 2.834327 1_555
Ba1 O5 2.834328 1_554
Ba1 O1 2.834331 1_555
Ba1 O9 3.131215 1_554
Ba1 O0 3.131216 1_555
Ba2 O6 2.728403 1_555
Ba2 O13 2.728403 1_544
Ba2 O10 2.728404 1_555
Ba2 O2 2.728405 1_544
Ba2 O1 3.040368 1_545
Ba2 O5 3.040370 1_554
Ba2 O7 3.040372 1_544
Ba2 O11 3.040374 1_555
Ba3 O6 2.728401 1_555
Ba3 O13 2.728401 1_555
Ba3 O10 2.728403 1_555
Ba3 O2 2.728404 1_555
Ba3 O3 3.040366 1_555
Ba3 O4 3.040368 1_555
Ba3 O8 3.040369 1_555
Ba3 O12 3.040371 1_555
O0 U2 2.175218 1_655
O0 U0 2.175225 1_665
O1 U0 2.142906 1_665
O1 U3 2.219291 1_565
O2 U3 2.057382 1_565
O3 U2 2.142903 1_656
O3 U3 2.219293 1_555
O4 U2 2.142900 1_555
O4 U3 2.219289 1_565
O5 U0 2.142899 1_555
O5 U3 2.219284 1_555
O6 U1 2.057406 1_655
O7 U0 2.142901 1_565
O7 U1 2.219286 1_555
O8 U2 2.142895 1_555
O8 U1 2.219285 1_555
O9 U2 2.175213 1_556
O9 U0 2.175222 1_555
O10 U3 2.057432 1_555
O11 U0 2.142902 1_655
O11 U1 2.219286 1_655
O12 U2 2.142908 1_656
O12 U1 2.219293 1_655
O13 U1 2.057410 1_555
