# generated using pymatgen
data_Ba3GeI2
_symmetry_space_group_name_H-M   'P 1'
_cell_length_a   16.55282765
_cell_length_b   15.79045049
_cell_length_c   8.74193737
_cell_angle_alpha   79.21037123
_cell_angle_beta   69.54798237
_cell_angle_gamma   31.23581861
_symmetry_Int_Tables_number   1
_chemical_formula_structural   Ba3GeI2
_chemical_formula_sum   'Ba12 Ge4 I8'
_cell_volume   1080.52804346
_cell_formula_units_Z   4
loop_
 _symmetry_equiv_pos_site_id
 _symmetry_equiv_pos_as_xyz
  1  'x, y, z'
loop_
 _atom_site_type_symbol
 _atom_site_label
 _atom_site_symmetry_multiplicity
 _atom_site_fract_x
 _atom_site_fract_y
 _atom_site_fract_z
 _atom_site_occupancy
  Ba  Ba0  1  0.04137306  0.45863376  0.45862845  1
  Ba  Ba1  1  0.79138647  0.20861378  0.20863560  1
  Ba  Ba2  1  0.09371947  0.58822912  0.94391411  1
  Ba  Ba3  1  0.87584858  0.30614058  0.66182622  1
  Ba  Ba4  1  0.58819445  0.09380965  0.37417110  1
  Ba  Ba5  1  0.15630090  0.66176315  0.30606213  1
  Ba  Ba6  1  0.30603778  0.87591537  0.15628901  1
  Ba  Ba7  1  0.37416421  0.94383662  0.58815613  1
  Ba  Ba8  1  0.20861390  0.79138219  0.79138231  1
  Ba  Ba9  1  0.45862517  0.04137506  0.04135261  1
  Ba  Ba10  1  0.94394622  0.37409757  0.09372660  1
  Ba  Ba11  1  0.66179407  0.15621576  0.87583564  1
  Ge  Ge0  1  0.33416455  0.33417117  0.16585207  1
  Ge  Ge1  1  0.16585427  0.16582078  0.33411932  1
  Ge  Ge2  1  0.08414024  0.08417463  0.91588504  1
  Ge  Ge3  1  0.91583967  0.91583803  0.08414210  1
  I  I0  1  0.57723843  0.57737482  0.42266426  1
  I  I1  1  0.67276829  0.67255034  0.82730191  1
  I  I2  1  0.25415465  0.25362938  0.74568802  1
  I  I3  1  0.42273617  0.42264757  0.57732687  1
  I  I4  1  0.99583877  0.99636594  0.50431162  1
  I  I5  1  0.74583316  0.74640278  0.25438282  1
  I  I6  1  0.82724828  0.82742966  0.67271191  1
  I  I7  1  0.50417926  0.50358227  0.99563317  1
loop_
_geom_bond_atom_site_label_1
_geom_bond_atom_site_label_2
_geom_bond_distance
_geom_bond_site_symmetry_2
Ba0 Ge0 3.290608 1_555
Ba0 Ge1 3.291408 1_555
Ba0 I2 3.580439 1_555
Ba0 I5 3.580557 1_455
Ba0 I1 3.756857 1_455
Ba0 I6 3.758415 1_455
Ba1 Ge2 3.290283 1_654
Ba1 Ge3 3.291129 1_545
Ba1 I7 3.582668 1_554
Ba1 I4 3.583337 1_545
Ba1 I3 3.756739 1_555
Ba1 I0 3.757521 1_555
Ba2 Ge3 3.276825 1_456
Ba2 Ge0 3.297973 1_556
Ba2 I3 3.654592 1_555
Ba2 I5 3.712826 1_456
Ba2 I2 3.766712 1_555
Ba2 I6 3.848112 1_455
Ba3 Ge1 3.276784 1_655
Ba3 Ge2 3.297929 1_655
Ba3 I1 3.652870 1_555
Ba3 I4 3.709995 1_545
Ba3 I7 3.760904 1_555
Ba3 I0 3.848847 1_555
Ba4 Ge3 3.276276 1_545
Ba4 Ge0 3.297683 1_555
Ba4 I3 3.653929 1_555
Ba4 I5 3.709600 1_545
Ba4 I2 3.761188 1_555
Ba4 I6 3.847827 1_545
Ba5 Ge0 3.276689 1_555
Ba5 Ge3 3.297970 1_455
Ba5 I6 3.654671 1_455
Ba5 I7 3.712563 1_554
Ba5 I4 3.766560 1_455
Ba5 I3 3.848409 1_555
Ba6 Ge1 3.276472 1_565
Ba6 Ge2 3.297488 1_564
Ba6 I1 3.654438 1_554
Ba6 I4 3.713117 1_455
Ba6 I7 3.767339 1_554
Ba6 I0 3.847583 1_555
Ba7 Ge2 3.276935 1_565
Ba7 Ge1 3.297893 1_565
Ba7 I0 3.653696 1_555
Ba7 I2 3.710095 1_565
Ba7 I5 3.760847 1_555
Ba7 I1 3.848612 1_555
Ba8 Ge3 3.290411 1_456
Ba8 Ge2 3.291171 1_565
Ba8 I4 3.580498 1_455
Ba8 I7 3.580787 1_555
Ba8 I0 3.756747 1_555
Ba8 I3 3.757517 1_555
Ba9 Ge1 3.290478 1_555
Ba9 Ge0 3.291363 1_555
Ba9 I5 3.582857 1_545
Ba9 I2 3.583368 1_554
Ba9 I6 3.756745 1_544
Ba9 I1 3.758496 1_544
Ba10 Ge2 3.276651 1_654
Ba10 Ge1 3.297469 1_655
Ba10 I0 3.654585 1_555
Ba10 I2 3.713136 1_654
Ba10 I5 3.767230 1_555
Ba10 I1 3.847639 1_554
Ba11 Ge0 3.276174 1_556
Ba11 Ge3 3.297712 1_546
Ba11 I6 3.653122 1_545
Ba11 I7 3.709294 1_555
Ba11 I4 3.761064 1_545
Ba11 I3 3.847687 1_555
