# generated using pymatgen
data_K3Bi2(PO4)3
_symmetry_space_group_name_H-M   'P 1'
_cell_length_a   9.73002180
_cell_length_b   9.73002180
_cell_length_c   6.93213846
_cell_angle_alpha   72.46929768
_cell_angle_beta   72.46929768
_cell_angle_gamma   88.81495892
_symmetry_Int_Tables_number   1
_chemical_formula_structural   K3Bi2(PO4)3
_chemical_formula_sum   'K6 Bi4 P6 O24'
_cell_volume   594.96897533
_cell_formula_units_Z   2
loop_
 _symmetry_equiv_pos_site_id
 _symmetry_equiv_pos_as_xyz
  1  'x, y, z'
loop_
 _atom_site_type_symbol
 _atom_site_label
 _atom_site_symmetry_multiplicity
 _atom_site_fract_x
 _atom_site_fract_y
 _atom_site_fract_z
 _atom_site_occupancy
  K  K0  1  0.01295300  0.98704700  0.75000000  1
  K  K1  1  0.50000000  0.50000000  0.00000000  1
  K  K2  1  0.98704700  0.01295300  0.25000000  1
  K  K3  1  0.27421900  0.72578100  0.75000000  1
  K  K4  1  0.50000000  0.50000000  0.50000000  1
  K  K5  1  0.72578100  0.27421900  0.25000000  1
  Bi  Bi0  1  0.61403300  0.90961100  0.16960000  1
  Bi  Bi1  1  0.90961100  0.61403300  0.66960000  1
  Bi  Bi2  1  0.09038900  0.38596700  0.33040000  1
  Bi  Bi3  1  0.38596700  0.09038900  0.83040000  1
  P  P0  1  0.34735800  0.13806300  0.36279500  1
  P  P1  1  0.75441600  0.24558400  0.75000000  1
  P  P2  1  0.24558400  0.75441600  0.25000000  1
  P  P3  1  0.86193700  0.65264200  0.13720500  1
  P  P4  1  0.65264200  0.86193700  0.63720500  1
  P  P5  1  0.13806300  0.34735800  0.86279500  1
  O  O0  1  0.38249600  0.75902300  0.31838900  1
  O  O1  1  0.98570300  0.66512200  0.92369200  1
  O  O2  1  0.89016000  0.24034800  0.55888800  1
  O  O3  1  0.75965200  0.10984000  0.94111200  1
  O  O4  1  0.55626000  0.91139100  0.82896200  1
  O  O5  1  0.24034800  0.89016000  0.05888800  1
  O  O6  1  0.15647300  0.19320300  0.83984100  1
  O  O7  1  0.84352700  0.80679700  0.16015900  1
  O  O8  1  0.27824700  0.41520300  0.86702000  1
  O  O9  1  0.66512200  0.98570300  0.42369200  1
  O  O10  1  0.41520300  0.27824700  0.36702000  1
  O  O11  1  0.08860900  0.44374000  0.67103800  1
  O  O12  1  0.19320300  0.15647300  0.33984100  1
  O  O13  1  0.61750400  0.24097700  0.68161100  1
  O  O14  1  0.33487800  0.01429700  0.57630800  1
  O  O15  1  0.01429700  0.33487800  0.07630800  1
  O  O16  1  0.75902300  0.38249600  0.81838900  1
  O  O17  1  0.80679700  0.84352700  0.66015900  1
  O  O18  1  0.44374000  0.08860900  0.17103800  1
  O  O19  1  0.58479700  0.72175300  0.63298000  1
  O  O20  1  0.91139100  0.55626000  0.32896200  1
  O  O21  1  0.72175300  0.58479700  0.13298000  1
  O  O22  1  0.24097700  0.61750400  0.18161100  1
  O  O23  1  0.10984000  0.75965200  0.44111200  1
loop_
_geom_bond_atom_site_label_1
_geom_bond_atom_site_label_2
_geom_bond_distance
_geom_bond_site_symmetry_2
K0 O17 2.784598 1_455
K0 O6 2.784598 1_565
K0 O3 2.849864 1_465
K0 O2 2.849864 1_465
K0 O7 2.858239 1_456
K0 O12 2.858239 1_565
K0 O1 2.983544 1_455
K0 O14 2.983544 1_565
K1 O10 2.703937 1_555
K1 O19 2.703937 1_554
K1 O8 2.813560 1_554
K1 O21 2.813560 1_555
K1 O16 2.842623 1_554
K1 O22 2.842623 1_555
K2 O7 2.784598 1_545
K2 O12 2.784598 1_655
K2 O23 2.849864 1_645
K2 O5 2.849864 1_645
K2 O17 2.858239 1_545
K2 O6 2.858239 1_654
K2 O15 2.983544 1_655
K2 O9 2.983544 1_545
K3 O14 2.698699 1_565
K3 O1 2.698699 1_455
K3 O22 2.774647 1_556
K3 O0 2.774647 1_555
K3 O8 2.886018 1_555
K3 O19 2.886018 1_555
K3 O23 2.977911 1_555
K3 O5 2.977911 1_556
K4 O21 2.703937 1_555
K4 O8 2.703937 1_555
K4 O19 2.813560 1_555
K4 O10 2.813560 1_555
K4 O13 2.842623 1_555
K4 O0 2.842623 1_555
K5 O9 2.698699 1_545
K5 O15 2.698699 1_655
K5 O16 2.774647 1_554
K5 O13 2.774647 1_555
K5 O10 2.886018 1_555
K5 O21 2.886018 1_555
K5 O2 2.977911 1_555
K5 O3 2.977911 1_554
Bi0 O3 2.283661 1_564
Bi0 O9 2.286075 1_555
Bi0 O18 2.379097 1_565
Bi0 O7 2.418731 1_555
Bi0 O0 2.472316 1_555
Bi0 O4 2.582032 1_554
Bi1 O23 2.283661 1_655
Bi1 O1 2.286075 1_555
Bi1 O11 2.379097 1_655
Bi1 O17 2.418731 1_555
Bi1 O16 2.472316 1_555
Bi1 O20 2.582032 1_555
Bi2 O2 2.283661 1_455
Bi2 O15 2.286075 1_555
Bi2 O20 2.379097 1_455
Bi2 O12 2.418731 1_555
Bi2 O22 2.472316 1_555
Bi2 O11 2.582032 1_555
Bi3 O5 2.283661 1_546
Bi3 O14 2.286075 1_555
Bi3 O4 2.379097 1_545
Bi3 O6 2.418731 1_555
Bi3 O13 2.472316 1_555
Bi3 O18 2.582032 1_556
O0 P2 1.548272 1_555
O1 P3 1.574689 1_556
O2 P1 1.576692 1_555
O3 P1 1.576692 1_555
O4 P4 1.579142 1_555
O5 P2 1.576692 1_555
O6 P5 1.556502 1_555
O7 P3 1.556502 1_555
O8 P5 1.539503 1_555
O9 P4 1.574689 1_555
O10 P0 1.539503 1_555
O11 P5 1.579142 1_555
O12 P0 1.556502 1_555
O13 P1 1.548272 1_555
O14 P0 1.574689 1_555
O15 P5 1.574689 1_554
O16 P1 1.548272 1_555
O17 P4 1.556502 1_555
O18 P0 1.579142 1_555
O19 P4 1.539503 1_555
O20 P3 1.579142 1_555
O21 P3 1.539503 1_555
O22 P2 1.548272 1_555
O23 P2 1.576692 1_555
