# generated using pymatgen
data_Yb3(Ga2Ge3)2
_symmetry_space_group_name_H-M   'P 1'
_cell_length_a   12.14685615
_cell_length_b   12.14685615
_cell_length_c   10.85303797
_cell_angle_alpha   88.86455981
_cell_angle_beta   88.86455981
_cell_angle_gamma   20.24511145
_symmetry_Int_Tables_number   1
_chemical_formula_structural   Yb3(Ga2Ge3)2
_chemical_formula_sum   'Yb6 Ga8 Ge12'
_cell_volume   554.00494975
_cell_formula_units_Z   2
loop_
 _symmetry_equiv_pos_site_id
 _symmetry_equiv_pos_as_xyz
  1  'x, y, z'
loop_
 _atom_site_type_symbol
 _atom_site_label
 _atom_site_symmetry_multiplicity
 _atom_site_fract_x
 _atom_site_fract_y
 _atom_site_fract_z
 _atom_site_occupancy
  Yb  Yb0  1  0.64440000  0.64440000  0.89358600  1
  Yb  Yb1  1  0.17621200  0.17621200  0.45320200  1
  Yb  Yb2  1  0.52348300  0.52348300  0.16614800  1
  Yb  Yb3  1  0.82378800  0.82378800  0.54679800  1
  Yb  Yb4  1  0.35560000  0.35560000  0.10641400  1
  Yb  Yb5  1  0.47651700  0.47651700  0.83385200  1
  Ga  Ga0  1  0.42158600  0.42158600  0.58776200  1
  Ga  Ga1  1  0.57841400  0.57841400  0.41223800  1
  Ga  Ga2  1  0.75939200  0.75939200  0.25810300  1
  Ga  Ga3  1  0.93470900  0.93470900  0.26891900  1
  Ga  Ga4  1  0.24060800  0.24060800  0.74189700  1
  Ga  Ga5  1  0.13605100  0.13605100  0.11652500  1
  Ga  Ga6  1  0.86394900  0.86394900  0.88347500  1
  Ga  Ga7  1  0.06529100  0.06529100  0.73108100  1
  Ge  Ge0  1  0.70909300  0.70909300  0.64015000  1
  Ge  Ge1  1  0.02374100  0.02374100  0.39492800  1
  Ge  Ge2  1  0.65216000  0.65216000  0.23696200  1
  Ge  Ge3  1  0.22519400  0.22519400  0.97283900  1
  Ge  Ge4  1  0.94810000  0.94810000  0.03498700  1
  Ge  Ge5  1  0.60474300  0.60474300  0.63492800  1
  Ge  Ge6  1  0.97625900  0.97625900  0.60507200  1
  Ge  Ge7  1  0.05190000  0.05190000  0.96501300  1
  Ge  Ge8  1  0.77480600  0.77480600  0.02716100  1
  Ge  Ge9  1  0.39525700  0.39525700  0.36507200  1
  Ge  Ge10  1  0.34784000  0.34784000  0.76303800  1
  Ge  Ge11  1  0.29090700  0.29090700  0.35985000  1
loop_
_geom_bond_atom_site_label_1
_geom_bond_atom_site_label_2
_geom_bond_distance
_geom_bond_site_symmetry_2
Ga0 Ge9 2.509777 1_555
Ga0 Ge6 2.512462 1_455
Ga0 Ge6 2.512462 1_545
Ga0 Ge10 2.567907 1_555
Ga0 Yb5 3.000063 1_555
Ga0 Yb3 3.204306 1_545
Ga0 Yb3 3.204306 1_455
Ga1 Ge5 2.509777 1_555
Ga1 Ge1 2.512462 1_565
Ga1 Ge1 2.512462 1_655
Ga1 Ge2 2.567907 1_555
Ga1 Yb2 3.000063 1_555
Ga1 Yb1 3.204306 1_565
Ga1 Yb1 3.204306 1_655
Ga2 Ge11 2.525590 1_565
Ga2 Ge11 2.525590 1_655
Ga2 Ge8 2.526034 1_555
Ga2 Ge2 2.579353 1_555
Ga2 Yb4 3.522697 1_655
Ga2 Yb4 3.522697 1_565
Ga3 Ge9 2.548965 1_565
Ga3 Ge9 2.548965 1_655
Ga3 Ge4 2.552588 1_555
Ga3 Ge1 2.553666 1_665
Ga3 Yb2 3.195909 1_655
Ga3 Yb2 3.195909 1_565
Ga3 Yb4 3.373712 1_655
Ga3 Yb4 3.373712 1_565
Ga4 Ge0 2.525590 1_545
Ga4 Ge0 2.525590 1_455
Ga4 Ge3 2.526034 1_555
Ga4 Ge10 2.579353 1_555
Ga4 Yb0 3.522697 1_455
Ga4 Yb0 3.522697 1_545
Ga5 Ge2 2.536703 1_455
Ga5 Ge2 2.536703 1_545
Ga5 Ge3 2.615912 1_554
Ga5 Ge7 2.624385 1_554
Ga5 Yb0 3.229915 1_454
Ga5 Yb0 3.229915 1_544
Ga5 Yb2 3.469418 1_545
Ga5 Yb2 3.469418 1_455
Ga6 Ge10 2.536703 1_655
Ga6 Ge10 2.536703 1_565
Ga6 Ge8 2.615912 1_556
Ga6 Ge4 2.624385 1_556
Ga6 Yb4 3.229915 1_566
Ga6 Yb4 3.229915 1_656
Ga6 Yb5 3.469418 1_565
Ga6 Yb5 3.469418 1_655
Ga7 Ge5 2.548965 1_455
Ga7 Ge5 2.548965 1_545
Ga7 Ge7 2.552588 1_555
Ga7 Ge6 2.553666 1_445
Ga7 Yb5 3.195909 1_455
Ga7 Yb5 3.195909 1_545
Ga7 Yb0 3.373712 1_455
Ga7 Yb0 3.373712 1_545
Ge0 Ge5 2.497372 1_555
Ge0 Yb3 2.904930 1_555
Ge0 Yb1 3.058904 1_565
Ge0 Yb1 3.058904 1_655
Ge0 Yb0 3.128568 1_555
Ge1 Ge6 2.527217 1_445
Ge1 Yb2 3.274656 1_455
Ge1 Yb2 3.274656 1_545
Ge2 Yb2 3.186873 1_555
Ge2 Yb1 3.232741 1_565
Ge2 Yb1 3.232741 1_655
Ge3 Ge8 2.518165 1_546
Ge3 Ge8 2.518165 1_456
Ge3 Yb0 3.016273 1_455
Ge3 Yb0 3.016273 1_545
Ge3 Yb4 3.465562 1_556
Ge4 Ge7 2.581341 1_664
Ge4 Yb5 3.118484 1_654
Ge4 Yb5 3.118484 1_564
Ge4 Yb2 3.152376 1_655
Ge4 Yb2 3.152376 1_565
Ge4 Yb4 3.159638 1_655
Ge4 Yb4 3.159638 1_565
Ge5 Yb0 2.981140 1_555
Ge5 Yb1 3.351603 1_565
Ge5 Yb1 3.351603 1_655
Ge6 Yb5 3.274656 1_565
Ge6 Yb5 3.274656 1_655
Ge7 Yb2 3.118484 1_546
Ge7 Yb2 3.118484 1_456
Ge7 Yb5 3.152376 1_455
Ge7 Yb5 3.152376 1_545
Ge7 Yb0 3.159638 1_455
Ge7 Yb0 3.159638 1_545
Ge8 Yb4 3.016273 1_565
Ge8 Yb4 3.016273 1_655
Ge8 Yb0 3.465562 1_554
Ge9 Yb4 2.981140 1_555
Ge9 Yb3 3.351603 1_455
Ge9 Yb3 3.351603 1_545
Ge10 Yb5 3.186873 1_555
Ge10 Yb3 3.232741 1_545
Ge10 Yb3 3.232741 1_455
Ge11 Ge9 2.497372 1_555
Ge11 Yb1 2.904930 1_555
Ge11 Yb3 3.058904 1_455
Ge11 Yb3 3.058904 1_545
Ge11 Yb4 3.128568 1_555
