# generated using pymatgen
data_CoPO4
_symmetry_space_group_name_H-M   'P 1'
_cell_length_a   4.76741500
_cell_length_b   5.82197700
_cell_length_c   9.95845400
_cell_angle_alpha   90.00000000
_cell_angle_beta   90.00000000
_cell_angle_gamma   90.00000000
_symmetry_Int_Tables_number   1
_chemical_formula_structural   CoPO4
_chemical_formula_sum   'Co4 P4 O16'
_cell_volume   276.40466314
_cell_formula_units_Z   4
loop_
 _symmetry_equiv_pos_site_id
 _symmetry_equiv_pos_as_xyz
  1  'x, y, z'
loop_
 _atom_site_type_symbol
 _atom_site_label
 _atom_site_symmetry_multiplicity
 _atom_site_fract_x
 _atom_site_fract_y
 _atom_site_fract_z
 _atom_site_occupancy
  Co  Co0  1  0.44433900  0.75000000  0.21917500  1
  Co  Co1  1  0.94433900  0.25000000  0.28082500  1
  Co  Co2  1  0.05566100  0.75000000  0.71917500  1
  Co  Co3  1  0.55566100  0.25000000  0.78082500  1
  P  P0  1  0.41279400  0.25000000  0.09536000  1
  P  P1  1  0.91279400  0.75000000  0.40464000  1
  P  P2  1  0.08720600  0.25000000  0.59536000  1
  P  P3  1  0.58720600  0.75000000  0.90464000  1
  O  O0  1  0.66477200  0.75000000  0.05356400  1
  O  O1  1  0.73065200  0.25000000  0.11515300  1
  O  O2  1  0.26520800  0.04353800  0.17135400  1
  O  O3  1  0.26520800  0.45646200  0.17135400  1
  O  O4  1  0.76520800  0.54353800  0.32864600  1
  O  O5  1  0.76520800  0.95646200  0.32864600  1
  O  O6  1  0.23065200  0.75000000  0.38484700  1
  O  O7  1  0.16477200  0.25000000  0.44643600  1
  O  O8  1  0.83522800  0.75000000  0.55356400  1
  O  O9  1  0.76934800  0.25000000  0.61515300  1
  O  O10  1  0.23479200  0.04353800  0.67135400  1
  O  O11  1  0.23479200  0.45646200  0.67135400  1
  O  O12  1  0.73479200  0.54353800  0.82864600  1
  O  O13  1  0.73479200  0.95646200  0.82864600  1
  O  O14  1  0.26934800  0.75000000  0.88484700  1
  O  O15  1  0.33522800  0.25000000  0.94643600  1
loop_
_geom_bond_atom_site_label_1
_geom_bond_atom_site_label_2
_geom_bond_distance
_geom_bond_site_symmetry_2
Co0 O6 1.939016 1_555
Co0 O0 1.955592 1_555
Co0 O3 1.968927 1_555
Co0 O2 1.968927 1_565
Co0 O5 2.230096 1_555
Co0 O4 2.230096 1_555
Co1 O1 1.939016 1_555
Co1 O7 1.955592 1_655
Co1 O4 1.968927 1_555
Co1 O5 1.968927 1_545
Co1 O3 2.230096 1_655
Co1 O2 2.230096 1_655
Co2 O14 1.939016 1_555
Co2 O8 1.955592 1_455
Co2 O11 1.968927 1_555
Co2 O10 1.968927 1_565
Co2 O13 2.230096 1_455
Co2 O12 2.230096 1_455
Co3 O9 1.939016 1_555
Co3 O15 1.955592 1_555
Co3 O12 1.968927 1_555
Co3 O13 1.968927 1_545
Co3 O10 2.230096 1_555
Co3 O11 2.230096 1_555
O0 P3 1.528460 1_554
O1 P0 1.528126 1_555
O2 P0 1.585126 1_555
O3 P0 1.585126 1_555
O4 P1 1.585126 1_555
O5 P1 1.585126 1_555
O6 P1 1.528126 1_455
O7 P2 1.528460 1_555
O8 P1 1.528460 1_555
O9 P2 1.528126 1_655
O10 P2 1.585126 1_555
O11 P2 1.585126 1_555
O12 P3 1.585126 1_555
O13 P3 1.585126 1_555
O14 P3 1.528126 1_555
O15 P0 1.528460 1_556
