# generated using pymatgen
data_Ba2HoB2ClO6
_symmetry_space_group_name_H-M   'P 1'
_cell_length_a   5.34574600
_cell_length_b   6.46303300
_cell_length_c   11.46913954
_cell_angle_alpha   84.10333450
_cell_angle_beta   90.00000000
_cell_angle_gamma   90.00000000
_symmetry_Int_Tables_number   1
_chemical_formula_structural   Ba2HoB2ClO6
_chemical_formula_sum   'Ba4 Ho2 B4 Cl2 O12'
_cell_volume   394.15903745
_cell_formula_units_Z   2
loop_
 _symmetry_equiv_pos_site_id
 _symmetry_equiv_pos_as_xyz
  1  'x, y, z'
loop_
 _atom_site_type_symbol
 _atom_site_label
 _atom_site_symmetry_multiplicity
 _atom_site_fract_x
 _atom_site_fract_y
 _atom_site_fract_z
 _atom_site_occupancy
  Ba  Ba0  1  0.25000000  0.90647800  0.70590300  1
  Ba  Ba1  1  0.25000000  0.65871300  0.07583100  1
  Ba  Ba2  1  0.75000000  0.34128700  0.92416900  1
  Ba  Ba3  1  0.75000000  0.09352200  0.29409700  1
  Ho  Ho0  1  0.25000000  0.65275000  0.41325200  1
  Ho  Ho1  1  0.75000000  0.34725000  0.58674800  1
  B  B0  1  0.75000000  0.79013400  0.57205000  1
  B  B1  1  0.75000000  0.62238900  0.22639600  1
  B  B2  1  0.25000000  0.37761100  0.77360400  1
  B  B3  1  0.25000000  0.20986600  0.42795000  1
  Cl  Cl0  1  0.75000000  0.85039400  0.91534400  1
  Cl  Cl1  1  0.25000000  0.14960600  0.08465600  1
  O  O0  1  0.47282800  0.29372700  0.73590600  1
  O  O1  1  0.53042400  0.67528400  0.56380800  1
  O  O2  1  0.46957600  0.32471600  0.43619200  1
  O  O3  1  0.75000000  0.47586200  0.14654200  1
  O  O4  1  0.96957600  0.67528400  0.56380800  1
  O  O5  1  0.03042400  0.32471600  0.43619200  1
  O  O6  1  0.25000000  0.52413800  0.85345800  1
  O  O7  1  0.75000000  0.99299700  0.59480000  1
  O  O8  1  0.02717200  0.29372700  0.73590600  1
  O  O9  1  0.25000000  0.00700300  0.40520000  1
  O  O10  1  0.97282800  0.70627300  0.26409400  1
  O  O11  1  0.52717200  0.70627300  0.26409400  1
loop_
_geom_bond_atom_site_label_1
_geom_bond_atom_site_label_2
_geom_bond_distance
_geom_bond_site_symmetry_2
Ba0 O4 2.763367 1_455
Ba0 O1 2.763367 1_555
Ba0 O8 2.824589 1_565
Ba0 O0 2.824589 1_565
Ba0 O6 2.847972 1_555
Ba0 O7 2.989022 1_455
Ba0 O7 2.989022 1_555
Ba0 Cl0 3.587040 1_455
Ba0 Cl0 3.587040 1_555
Ba1 O10 2.662418 1_455
Ba1 O11 2.662418 1_555
Ba1 O6 2.777940 1_554
Ba1 O3 3.000271 1_555
Ba1 O3 3.000271 1_455
Ba1 Cl1 3.184648 1_565
Ba1 Cl1 3.281522 1_555
Ba1 Cl0 3.405648 1_454
Ba1 Cl0 3.405648 1_554
Ba2 O8 2.662418 1_655
Ba2 O0 2.662418 1_555
Ba2 O3 2.777940 1_556
Ba2 O6 3.000271 1_655
Ba2 O6 3.000271 1_555
Ba2 Cl0 3.184648 1_545
Ba2 Cl0 3.281522 1_555
Ba2 Cl1 3.405648 1_556
Ba2 Cl1 3.405648 1_656
Ba3 O2 2.763367 1_555
Ba3 O5 2.763367 1_655
Ba3 O11 2.824589 1_545
Ba3 O10 2.824589 1_545
Ba3 O3 2.847972 1_555
Ba3 O9 2.989022 1_555
Ba3 O9 2.989022 1_655
Ba3 Cl1 3.587040 1_555
Ba3 Cl1 3.587040 1_655
Ho0 O10 2.262746 1_455
Ho0 O11 2.262746 1_555
Ho0 O9 2.281911 1_565
Ho0 O4 2.302557 1_455
Ho0 O1 2.302557 1_555
Ho0 O5 2.413962 1_555
Ho0 O2 2.413962 1_555
Ho1 O8 2.262746 1_655
Ho1 O0 2.262746 1_555
Ho1 O7 2.281911 1_545
Ho1 O5 2.302557 1_655
Ho1 O2 2.302557 1_555
Ho1 O4 2.413962 1_555
Ho1 O1 2.413962 1_555
B0 O7 1.362858 1_555
B0 O4 1.397187 1_555
B0 O1 1.397187 1_555
B1 O3 1.383412 1_555
B1 O11 1.395685 1_555
B1 O10 1.395685 1_555
B2 O6 1.383412 1_555
B2 O8 1.395685 1_555
B2 O0 1.395685 1_555
B3 O9 1.362858 1_555
B3 O2 1.397187 1_555
B3 O5 1.397187 1_555
