# generated using pymatgen
data_Y2ReB6
_symmetry_space_group_name_H-M   'P 1'
_cell_length_a   3.68327164
_cell_length_b   9.17935470
_cell_length_c   11.55944136
_cell_angle_alpha   89.99993064
_cell_angle_beta   89.99999905
_cell_angle_gamma   89.99999841
_symmetry_Int_Tables_number   1
_chemical_formula_structural   Y2ReB6
_chemical_formula_sum   'Y8 Re4 B24'
_cell_volume   390.82536942
_cell_formula_units_Z   4
loop_
 _symmetry_equiv_pos_site_id
 _symmetry_equiv_pos_as_xyz
  1  'x, y, z'
loop_
 _atom_site_type_symbol
 _atom_site_label
 _atom_site_symmetry_multiplicity
 _atom_site_fract_x
 _atom_site_fract_y
 _atom_site_fract_z
 _atom_site_occupancy
  Y  Y0  1  -0.00000015  0.82356710  0.08603923  1
  Y  Y1  1  -0.00000036  0.17643471  0.91392243  1
  Y  Y2  1  0.00000016  0.32360163  0.41396850  1
  Y  Y3  1  -0.00000028  0.67640234  0.58606954  1
  Y  Y4  1  -0.00000002  0.44265096  0.13030591  1
  Y  Y5  1  -0.00000002  0.55734763  0.86965813  1
  Y  Y6  1  -0.00000019  0.94263650  0.36968884  1
  Y  Y7  1  0.00000011  0.05736179  0.63034691  1
  Re  Re0  1  -0.00000018  0.13838533  0.17921448  1
  Re  Re1  1  -0.00000001  0.86161266  0.82075820  1
  Re  Re2  1  0.00000042  0.63836424  0.32078058  1
  Re  Re3  1  0.00000085  0.36163320  0.67924545  1
  B  B0  1  0.50000000  0.05326653  0.06739415  1
  B  B1  1  0.49999994  0.94673334  0.93259200  1
  B  B2  1  0.50000022  0.55326504  0.43260622  1
  B  B3  1  0.50000047  0.44673566  0.56740727  1
  B  B4  1  0.49999994  0.24845897  0.08175573  1
  B  B5  1  0.49999988  0.75154191  0.91822981  1
  B  B6  1  0.50000014  0.74844522  0.41824280  1
  B  B7  1  0.50000047  0.25155472  0.58177143  1
  B  B8  1  0.49999991  0.29130299  0.23463871  1
  B  B9  1  0.49999985  0.70869840  0.76535993  1
  B  B10  1  0.50000004  0.79129212  0.26536260  1
  B  B11  1  0.50000045  0.20870909  0.73463913  1
  B  B12  1  0.49999992  0.13072263  0.31390935  1
  B  B13  1  0.49999990  0.86927855  0.68609441  1
  B  B14  1  0.50000003  0.63071612  0.18609285  1
  B  B15  1  0.50000045  0.36928561  0.81390358  1
  B  B16  1  0.50000020  0.48259293  0.28826584  1
  B  B17  1  0.50000056  0.51740537  0.71173589  1
  B  B18  1  0.49999974  0.98259009  0.21173490  1
  B  B19  1  0.49999992  0.01740751  0.78826302  1
  B  B20  1  0.49999999  0.10028932  0.47190823  1
  B  B21  1  0.49999979  0.89970954  0.52810661  1
  B  B22  1  0.49999998  0.60028448  0.02809008  1
  B  B23  1  0.49999990  0.39971576  0.97189529  1
loop_
_geom_bond_atom_site_label_1
_geom_bond_atom_site_label_2
_geom_bond_distance
_geom_bond_site_symmetry_2
Re0 Y6 2.841914 1_545
Re0 Y4 2.849607 1_555
Re0 Y0 3.084017 1_545
Re0 Y1 3.086453 1_554
Re0 Y2 3.202240 1_555
Re1 Y7 2.841351 1_565
Re1 Y5 2.849582 1_555
Re1 Y1 3.084005 1_565
Re1 Y0 3.086323 1_556
Re1 Y3 3.201570 1_555
Re2 Y4 2.841714 1_555
Re2 Y6 2.849667 1_555
Re2 Y2 3.083587 1_555
Re2 Y3 3.086407 1_555
Re2 Y0 3.202046 1_555
Re3 Y5 2.841165 1_555
Re3 Y7 2.849637 1_555
Re3 Y3 3.083595 1_555
Re3 Y2 3.086262 1_555
Re3 Y1 3.201395 1_555
B0 B18 1.790190 1_545
B0 B4 1.799415 1_555
B0 B1 1.839676 1_544
B0 Re0 2.381779 1_655
B0 Re0 2.381780 1_555
B0 Y1 2.795912 1_654
B0 Y1 2.795914 1_554
B0 Y0 2.807813 1_645
B0 Y0 2.807813 1_545
B1 B19 1.790055 1_565
B1 B5 1.799407 1_555
B1 Re1 2.381870 1_555
B1 Re1 2.381870 1_655
B1 Y0 2.795726 1_656
B1 Y0 2.795726 1_556
B1 Y1 2.807847 1_665
B1 Y1 2.807849 1_565
B2 B6 1.799305 1_555
B2 B3 1.839645 1_555
B2 Re2 2.381752 1_555
B2 Re2 2.381754 1_655
B2 Y3 2.795737 1_655
B2 Y3 2.795739 1_555
B2 Y2 2.807558 1_655
B2 Y2 2.807559 1_555
B3 B7 1.799312 1_555
B3 Re3 2.381840 1_555
B3 Re3 2.381843 1_655
B3 Y2 2.795545 1_655
B3 Y2 2.795547 1_555
B3 Y3 2.807601 1_655
B3 Y3 2.807605 1_555
B4 B8 1.810474 1_555
B4 Re0 2.383630 1_655
B4 Re0 2.383631 1_555
B4 Y4 2.623756 1_555
B4 Y4 2.623756 1_655
B4 Y1 2.755459 1_654
B4 Y1 2.755460 1_554
B5 B9 1.810325 1_555
B5 Re1 2.383689 1_555
B5 Re1 2.383690 1_655
B5 Y5 2.623823 1_555
B5 Y5 2.623824 1_655
B5 Y0 2.755267 1_656
B5 Y0 2.755267 1_556
B6 Re2 2.383679 1_555
B6 Re2 2.383680 1_655
B6 Y6 2.623759 1_655
B6 Y6 2.623761 1_555
B6 Y3 2.755445 1_655
B6 Y3 2.755447 1_555
B7 Re3 2.383733 1_555
B7 Re3 2.383735 1_655
B7 Y7 2.623822 1_655
B7 Y7 2.623824 1_555
B7 Y2 2.755260 1_655
B7 Y2 2.755262 1_555
B8 Re0 2.402586 1_655
B8 Re0 2.402586 1_555
B8 Y4 2.603116 1_555
B8 Y4 2.603116 1_655
B8 Y2 2.788665 1_555
B8 Y2 2.788666 1_655
B9 Re1 2.402487 1_555
B9 Re1 2.402488 1_655
B9 Y5 2.602944 1_555
B9 Y5 2.602945 1_655
B9 Y3 2.788324 1_655
B9 Y3 2.788325 1_555
B10 B14 1.735587 1_555
B10 B6 1.810447 1_555
B10 B18 1.862200 1_555
B10 Re2 2.402620 1_555
B10 Re2 2.402622 1_655
B10 Y6 2.603064 1_655
B10 Y6 2.603066 1_555
B10 Y0 2.788586 1_655
B10 Y0 2.788587 1_555
B11 B15 1.735559 1_555
B11 B7 1.810304 1_555
B11 B19 1.862217 1_555
B11 Re3 2.402524 1_555
B11 Re3 2.402527 1_655
B11 Y7 2.602896 1_655
B11 Y7 2.602898 1_555
B11 Y1 2.788240 1_655
B11 Y1 2.788244 1_555
B12 B8 1.735625 1_555
B12 B18 1.801084 1_545
B12 B20 1.847620 1_555
B12 Re0 2.412635 1_655
B12 Re0 2.412636 1_555
B12 Y6 2.605416 1_645
B12 Y6 2.605417 1_545
B12 Y2 2.804300 1_555
B12 Y2 2.804301 1_655
B13 B9 1.735592 1_555
B13 B19 1.801015 1_565
B13 B21 1.847490 1_555
B13 Re1 2.412404 1_555
B13 Re1 2.412405 1_655
B13 Y7 2.605307 1_565
B13 Y7 2.605308 1_665
B13 Y3 2.804121 1_655
B13 Y3 2.804122 1_555
B14 B16 1.801006 1_555
B14 B22 1.847663 1_555
B14 Re2 2.412577 1_555
B14 Re2 2.412580 1_655
B14 Y4 2.605311 1_655
B14 Y4 2.605311 1_555
B14 Y0 2.804110 1_655
B14 Y0 2.804111 1_555
B15 B17 1.800942 1_555
B15 B23 1.847534 1_555
B15 Re3 2.412358 1_555
B15 Re3 2.412360 1_655
B15 Y5 2.605198 1_655
B15 Y5 2.605201 1_555
B15 Y1 2.803942 1_655
B15 Y1 2.803946 1_555
B16 B2 1.790173 1_555
B16 B8 1.862130 1_555
B16 Re2 2.361661 1_555
B16 Re2 2.361662 1_655
B16 Y4 2.619172 1_655
B16 Y4 2.619173 1_555
B16 Y2 2.762777 1_655
B16 Y2 2.762777 1_555
B17 B3 1.790038 1_555
B17 B9 1.862145 1_555
B17 Re3 2.361621 1_555
B17 Re3 2.361623 1_655
B17 Y5 2.618868 1_655
B17 Y5 2.618871 1_555
B17 Y3 2.762582 1_655
B17 Y3 2.762586 1_555
B18 Re0 2.361804 1_565
B18 Re0 2.361805 1_665
B18 Y6 2.619138 1_555
B18 Y6 2.619139 1_655
B18 Y0 2.762890 1_555
B18 Y0 2.762890 1_655
B19 Re1 2.361756 1_545
B19 Re1 2.361756 1_645
B19 Y7 2.618834 1_555
B19 Y7 2.618835 1_655
B19 Y1 2.762689 1_655
B19 Y1 2.762691 1_555
B20 B7 1.881696 1_555
B20 B21 1.952434 1_545
B20 Y6 2.623366 1_645
B20 Y6 2.623367 1_545
B20 Y7 2.627004 1_555
B20 Y7 2.627004 1_655
B20 Y2 2.835863 1_555
B20 Y2 2.835864 1_655
B21 B6 1.881693 1_555
B21 Y7 2.623471 1_565
B21 Y7 2.623473 1_665
B21 Y6 2.626835 1_555
B21 Y6 2.626835 1_655
B21 Y3 2.835893 1_655
B21 Y3 2.835893 1_555
B22 B5 1.881617 1_554
B22 B23 1.952326 1_554
B22 Y4 2.623248 1_655
B22 Y4 2.623248 1_555
B22 Y5 2.626963 1_654
B22 Y5 2.626963 1_554
B22 Y0 2.835693 1_655
B22 Y0 2.835694 1_555
B23 B4 1.881614 1_556
B23 Y5 2.623351 1_555
B23 Y5 2.623351 1_655
B23 Y4 2.626789 1_556
B23 Y4 2.626789 1_656
B23 Y1 2.835747 1_655
B23 Y1 2.835749 1_555
