# generated using pymatgen
data_Yb(PO3)3
_symmetry_space_group_name_H-M   'P 1'
_cell_length_a   13.18993024
_cell_length_b   13.18993024
_cell_length_c   13.18992945
_cell_angle_alpha   110.49006821
_cell_angle_beta   110.49006821
_cell_angle_gamma   110.49006612
_symmetry_Int_Tables_number   1
_chemical_formula_structural   Yb(PO3)3
_chemical_formula_sum   'Yb8 P24 O72'
_cell_volume   1696.56767633
_cell_formula_units_Z   8
loop_
 _symmetry_equiv_pos_site_id
 _symmetry_equiv_pos_as_xyz
  1  'x, y, z'
loop_
 _atom_site_type_symbol
 _atom_site_label
 _atom_site_symmetry_multiplicity
 _atom_site_fract_x
 _atom_site_fract_y
 _atom_site_fract_z
 _atom_site_occupancy
  Yb  Yb0  1  0.53800000  0.01929600  0.73163900  1
  Yb  Yb1  1  0.46200000  0.98070400  0.26836100  1
  Yb  Yb2  1  0.01929600  0.73163900  0.53800000  1
  Yb  Yb3  1  0.98070400  0.26836100  0.46200000  1
  Yb  Yb4  1  0.50000000  0.50000000  0.50000000  1
  Yb  Yb5  1  0.00000000  0.00000000  0.00000000  1
  Yb  Yb6  1  0.26836100  0.46200000  0.98070400  1
  Yb  Yb7  1  0.73163900  0.53800000  0.01929600  1
  P  P0  1  0.98229000  0.70013100  0.79947600  1
  P  P1  1  0.73554800  0.48125400  0.73031800  1
  P  P2  1  0.26968200  0.26445200  0.51874600  1
  P  P3  1  0.76778500  0.28821700  0.07186400  1
  P  P4  1  0.48125400  0.73031800  0.73554800  1
  P  P5  1  0.78945300  0.37697500  0.32664300  1
  P  P6  1  0.28821700  0.07186400  0.76778500  1
  P  P7  1  0.92813600  0.23221500  0.71178300  1
  P  P8  1  0.29986900  0.20052400  0.01771000  1
  P  P9  1  0.32664300  0.78945300  0.37697500  1
  P  P10  1  0.20052400  0.01771000  0.29986900  1
  P  P11  1  0.79947600  0.98229000  0.70013100  1
  P  P12  1  0.26445200  0.51874600  0.26968200  1
  P  P13  1  0.07186400  0.76778500  0.28821700  1
  P  P14  1  0.37697500  0.32664300  0.78945300  1
  P  P15  1  0.70013100  0.79947600  0.98229000  1
  P  P16  1  0.01771000  0.29986900  0.20052400  1
  P  P17  1  0.21054700  0.62302500  0.67335700  1
  P  P18  1  0.67335700  0.21054700  0.62302500  1
  P  P19  1  0.62302500  0.67335700  0.21054700  1
  P  P20  1  0.23221500  0.71178300  0.92813600  1
  P  P21  1  0.71178300  0.92813600  0.23221500  1
  P  P22  1  0.51874600  0.26968200  0.26445200  1
  P  P23  1  0.73031800  0.73554800  0.48125400  1
  O  O0  1  0.69804200  0.00081900  0.71300200  1
  O  O1  1  0.71300200  0.69804200  0.00081900  1
  O  O2  1  0.91070700  0.31967600  0.11873400  1
  O  O3  1  0.31925300  0.40213600  0.82654000  1
  O  O4  1  0.82654000  0.31925300  0.40213600  1
  O  O5  1  0.28038700  0.18113700  0.74411800  1
  O  O6  1  0.25588200  0.71961300  0.81886300  1
  O  O7  1  0.60210400  0.93561600  0.23494800  1
  O  O8  1  0.23494800  0.60210400  0.93561600  1
  O  O9  1  0.04910600  0.32478600  0.84251600  1
  O  O10  1  0.32478600  0.84251600  0.04910600  1
  O  O11  1  0.55876300  0.72940900  0.85990100  1
  O  O12  1  0.11250800  0.48684500  0.62078300  1
  O  O13  1  0.84251600  0.04910600  0.32478600  1
  O  O14  1  0.59786400  0.17346000  0.68074700  1
  O  O15  1  0.17346000  0.68074700  0.59786400  1
  O  O16  1  0.62078300  0.11250800  0.48684500  1
  O  O17  1  0.99918100  0.28699800  0.30195800  1
  O  O18  1  0.08929300  0.68032400  0.88126600  1
  O  O19  1  0.27059100  0.14009900  0.44123700  1
  O  O20  1  0.67208500  0.63628600  0.50806400  1
  O  O21  1  0.19762300  0.10984500  0.02274700  1
  O  O22  1  0.14108200  0.22807300  0.50128700  1
  O  O23  1  0.77192700  0.49871300  0.85891800  1
  O  O24  1  0.50806400  0.67208500  0.63628600  1
  O  O25  1  0.30195800  0.99918100  0.28699800  1
  O  O26  1  0.89015500  0.97725300  0.80237700  1
  O  O27  1  0.49871300  0.85891800  0.77192700  1
  O  O28  1  0.06438400  0.76505200  0.39789600  1
  O  O29  1  0.72940900  0.85990100  0.55876300  1
  O  O30  1  0.40213600  0.82654000  0.31925300  1
  O  O31  1  0.33842000  0.62699400  0.69043300  1
  O  O32  1  0.63628600  0.50806400  0.67208500  1
  O  O33  1  0.02274700  0.19762300  0.10984500  1
  O  O34  1  0.88126600  0.08929300  0.68032400  1
  O  O35  1  0.18113700  0.74411800  0.28038700  1
  O  O36  1  0.88749200  0.51315500  0.37921700  1
  O  O37  1  0.15748400  0.95089400  0.67521400  1
  O  O38  1  0.14009900  0.44123700  0.27059100  1
  O  O39  1  0.71961300  0.81886300  0.25588200  1
  O  O40  1  0.28699800  0.30195800  0.99918100  1
  O  O41  1  0.95089400  0.67521400  0.15748400  1
  O  O42  1  0.30956700  0.66158000  0.37300600  1
  O  O43  1  0.39789600  0.06438400  0.76505200  1
  O  O44  1  0.10984500  0.02274700  0.19762300  1
  O  O45  1  0.31967600  0.11873400  0.91070700  1
  O  O46  1  0.62699400  0.69043300  0.33842000  1
  O  O47  1  0.74411800  0.28038700  0.18113700  1
  O  O48  1  0.76505200  0.39789600  0.06438400  1
  O  O49  1  0.85891800  0.77192700  0.49871300  1
  O  O50  1  0.66158000  0.37300600  0.30956700  1
  O  O51  1  0.37921700  0.88749200  0.51315500  1
  O  O52  1  0.11873400  0.91070700  0.31967600  1
  O  O53  1  0.68032400  0.88126600  0.08929300  1
  O  O54  1  0.80237700  0.89015500  0.97725300  1
  O  O55  1  0.85990100  0.55876300  0.72940900  1
  O  O56  1  0.44123700  0.27059100  0.14009900  1
  O  O57  1  0.50128700  0.14108200  0.22807300  1
  O  O58  1  0.51315500  0.37921700  0.88749200  1
  O  O59  1  0.68074700  0.59786400  0.17346000  1
  O  O60  1  0.22807300  0.50128700  0.14108200  1
  O  O61  1  0.97725300  0.80237700  0.89015500  1
  O  O62  1  0.32791500  0.36371400  0.49193600  1
  O  O63  1  0.00081900  0.71300200  0.69804200  1
  O  O64  1  0.93561600  0.23494800  0.60210400  1
  O  O65  1  0.48684500  0.62078300  0.11250800  1
  O  O66  1  0.67521400  0.15748400  0.95089400  1
  O  O67  1  0.81886300  0.25588200  0.71961300  1
  O  O68  1  0.36371400  0.49193600  0.32791500  1
  O  O69  1  0.49193600  0.32791500  0.36371400  1
  O  O70  1  0.69043300  0.33842000  0.62699400  1
  O  O71  1  0.37300600  0.30956700  0.66158000  1
loop_
_geom_bond_atom_site_label_1
_geom_bond_atom_site_label_2
_geom_bond_distance
_geom_bond_site_symmetry_2
O0 P11 1.495804 1_545
O0 Yb0 2.292905 1_555
O1 P15 1.495804 1_554
O1 Yb7 2.292905 1_555
O2 P3 1.601555 1_555
O2 P16 1.616639 1_655
O3 P14 1.503639 1_555
O3 Yb6 2.326249 1_555
O4 P5 1.503639 1_555
O4 Yb3 2.326249 1_555
O5 P6 1.606891 1_555
O5 P14 1.617239 1_555
O6 P20 1.606891 1_555
O6 P17 1.617239 1_555
O7 P21 1.495926 1_555
O7 Yb1 2.262509 1_555
O8 P20 1.495926 1_555
O8 Yb6 2.262509 1_555
O9 P7 1.498675 1_455
O9 Yb6 2.301558 1_555
O10 P20 1.498675 1_554
O10 Yb1 2.301558 1_555
O11 P15 1.605836 1_555
O11 P4 1.607484 1_555
O12 P17 1.501163 1_555
O12 Yb3 2.330560 1_455
O13 P21 1.498675 1_545
O13 Yb3 2.301558 1_555
O14 P18 1.503639 1_555
O14 Yb0 2.326249 1_555
O15 P17 1.503639 1_555
O15 Yb2 2.326249 1_555
O16 P18 1.501163 1_555
O16 Yb1 2.330560 1_545
O17 P16 1.495804 1_655
O17 Yb3 2.292905 1_555
O18 P20 1.601555 1_555
O18 P0 1.616639 1_455
O19 P10 1.605836 1_555
O19 P2 1.607484 1_555
O20 P23 1.496470 1_555
O20 Yb4 2.288070 1_555
O21 P8 1.497605 1_555
O21 Yb5 2.342626 1_555
O22 P2 1.496603 1_555
O22 Yb3 2.288678 1_455
O23 P1 1.496603 1_555
O23 Yb7 2.288678 1_556
O24 P4 1.496470 1_555
O24 Yb4 2.288070 1_555
O25 P10 1.495804 1_565
O25 Yb1 2.292905 1_555
O26 P11 1.497605 1_555
O26 Yb5 2.342626 1_666
O27 P4 1.496603 1_555
O27 Yb0 2.288678 1_565
O28 P13 1.495926 1_555
O28 Yb2 2.262509 1_555
O29 P11 1.605836 1_555
O29 P23 1.607484 1_555
O30 P9 1.503639 1_555
O30 Yb1 2.326249 1_555
O31 P17 1.600684 1_555
O31 P4 1.615749 1_555
O32 P1 1.496470 1_555
O32 Yb4 2.288070 1_555
O33 P16 1.497605 1_555
O33 Yb5 2.342626 1_555
O34 P7 1.601555 1_555
O34 P11 1.616639 1_545
O35 P13 1.606891 1_555
O35 P9 1.617239 1_555
O36 P5 1.501163 1_555
O36 Yb2 2.330560 1_655
O37 P6 1.498675 1_565
O37 Yb2 2.301558 1_555
O38 P16 1.605836 1_555
O38 P12 1.607484 1_555
O39 P21 1.606891 1_555
O39 P19 1.617239 1_555
O40 P8 1.495804 1_556
O40 Yb6 2.292905 1_555
O41 P13 1.498675 1_655
O41 Yb7 2.301558 1_555
O42 P9 1.600684 1_555
O42 P12 1.615749 1_555
O43 P6 1.495926 1_555
O43 Yb0 2.262509 1_555
O44 P10 1.497605 1_555
O44 Yb5 2.342626 1_555
O45 P6 1.601554 1_555
O45 P8 1.616639 1_556
O46 P19 1.600683 1_555
O46 P23 1.615748 1_555
O47 P3 1.606891 1_555
O47 P5 1.617239 1_555
O48 P3 1.495926 1_555
O48 Yb7 2.262509 1_555
O49 P23 1.496603 1_555
O49 Yb2 2.288678 1_655
O50 P5 1.600684 1_555
O50 P22 1.615749 1_555
O51 P9 1.501163 1_555
O51 Yb0 2.330560 1_565
O52 P13 1.601555 1_555
O52 P10 1.616639 1_565
O53 P21 1.601554 1_555
O53 P15 1.616639 1_554
O54 P15 1.497605 1_555
O54 Yb5 2.342626 1_666
O55 P0 1.605836 1_555
O55 P1 1.607484 1_555
O56 P8 1.605836 1_555
O56 P22 1.607484 1_555
O57 P22 1.496603 1_555
O57 Yb1 2.288678 1_545
O58 P14 1.501163 1_555
O58 Yb7 2.330560 1_556
O59 P19 1.503639 1_555
O59 Yb7 2.326249 1_555
O60 P12 1.496603 1_555
O60 Yb6 2.288678 1_554
O61 P0 1.497605 1_555
O61 Yb5 2.342626 1_666
O62 P2 1.496470 1_555
O62 Yb4 2.288070 1_555
O63 P0 1.495804 1_455
O63 Yb2 2.292905 1_555
O64 P7 1.495926 1_555
O64 Yb3 2.262509 1_555
O65 P19 1.501163 1_555
O65 Yb6 2.330560 1_554
O66 P3 1.498675 1_556
O66 Yb0 2.301558 1_555
O67 P7 1.606891 1_555
O67 P18 1.617239 1_555
O68 P12 1.496470 1_555
O68 Yb4 2.288070 1_555
O69 P22 1.496470 1_555
O69 Yb4 2.288070 1_555
O70 P18 1.600684 1_555
O70 P1 1.615749 1_555
O71 P14 1.600683 1_555
O71 P2 1.615748 1_555
