# generated using pymatgen
data_ErNiGe2
_symmetry_space_group_name_H-M   'P 1'
_cell_length_a   4.09891046
_cell_length_b   8.36062661
_cell_length_c   9.08172303
_cell_angle_alpha   117.41221839
_cell_angle_beta   103.10630976
_cell_angle_gamma   89.99935678
_symmetry_Int_Tables_number   1
_chemical_formula_structural   ErNiGe2
_chemical_formula_sum   'Er4 Ni4 Ge8'
_cell_volume   267.11524325
_cell_formula_units_Z   4
loop_
 _symmetry_equiv_pos_site_id
 _symmetry_equiv_pos_as_xyz
  1  'x, y, z'
loop_
 _atom_site_type_symbol
 _atom_site_label
 _atom_site_symmetry_multiplicity
 _atom_site_fract_x
 _atom_site_fract_y
 _atom_site_fract_z
 _atom_site_occupancy
  Er  Er0  1  0.20519918  0.70483543  0.40948830  1
  Er  Er1  1  0.79480182  0.29516457  0.59051070  1
  Er  Er2  1  0.99990869  0.26244590  0.00012818  1
  Er  Er3  1  0.00009131  0.73755510  0.99987182  1
  Ni  Ni0  1  0.35393772  0.60095886  0.70309196  1
  Ni  Ni1  1  0.35403283  0.10144195  0.70335243  1
  Ni  Ni2  1  0.64596717  0.89855805  0.29664757  1
  Ni  Ni3  1  0.64606228  0.39904014  0.29690804  1
  Ge  Ge0  1  0.80546896  0.96259043  0.60794962  1
  Ge  Ge1  1  0.19419929  0.35486563  0.39189500  1
  Ge  Ge2  1  0.42221632  0.91907412  0.83864175  1
  Ge  Ge3  1  0.57841480  0.57854537  0.15616884  1
  Ge  Ge4  1  0.57778368  0.08092588  0.16135925  1
  Ge  Ge5  1  0.19453104  0.03741057  0.39205038  1
  Ge  Ge6  1  0.80579971  0.64513437  0.60810400  1
  Ge  Ge7  1  0.42158520  0.42145563  0.84383116  1
loop_
_geom_bond_atom_site_label_1
_geom_bond_atom_site_label_2
_geom_bond_distance
_geom_bond_site_symmetry_2
Er0 Ge3 2.844441 1_455
Er0 Ge3 2.847301 1_555
Er0 Ge1 2.855716 1_555
Er0 Ge5 2.856692 1_565
Er0 Ge0 2.887888 1_455
Er0 Ge6 2.889824 1_455
Er0 Ge0 2.891176 1_555
Er0 Ge6 2.894538 1_555
Er0 Ni3 3.046004 1_555
Er0 Ni2 3.050494 1_555
Er0 Ni3 3.060211 1_455
Er0 Ni2 3.064422 1_455
Er0 Ni1 3.098873 1_565
Er0 Ni0 3.103349 1_555
Er1 Ge7 2.844442 1_655
Er1 Ge7 2.847311 1_555
Er1 Ge6 2.855716 1_555
Er1 Ge0 2.856688 1_545
Er1 Ge5 2.887878 1_655
Er1 Ge1 2.889818 1_655
Er1 Ge5 2.891174 1_555
Er1 Ge1 2.894544 1_555
Er1 Ni0 3.046001 1_555
Er1 Ni1 3.050503 1_555
Er1 Ni0 3.060200 1_655
Er1 Ni1 3.064423 1_655
Er1 Ni2 3.098870 1_545
Er1 Ni3 3.103335 1_555
Er2 Ni1 3.083567 1_554
Er2 Ni3 3.084124 1_655
Er2 Ni3 3.100155 1_555
Er2 Ge7 3.100472 1_554
Er2 Ni1 3.101091 1_654
Er2 Ge7 3.101589 1_654
Er2 Ge3 3.104704 1_555
Er2 Ge3 3.105332 1_655
Er2 Ge1 3.173905 1_655
Er2 Ge0 3.177515 1_544
Er2 Ge4 3.245131 1_655
Er2 Ge2 3.247747 1_544
Er2 Ge4 3.261318 1_555
Er2 Ge2 3.265459 1_644
Er3 Ni2 3.083567 1_556
Er3 Ni0 3.084124 1_455
Er3 Ni0 3.100154 1_555
Er3 Ge3 3.100472 1_556
Er3 Ni2 3.101091 1_456
Er3 Ge3 3.101589 1_456
Er3 Ge7 3.104704 1_555
Er3 Ge7 3.105332 1_455
Er3 Ge6 3.173912 1_455
Er3 Ge5 3.177515 1_566
Er3 Ge2 3.245121 1_455
Er3 Ge4 3.247740 1_566
Er3 Ge2 3.261305 1_555
Er3 Ge4 3.265455 1_466
Ge0 Ni1 2.307210 1_565
Ge0 Ni1 2.311830 1_665
Ge0 Ni2 2.544601 1_555
Ge0 Ge6 2.654778 1_555
Ge1 Ni3 2.308459 1_555
Ge1 Ni3 2.311463 1_455
Ge1 Ni0 2.540865 1_555
Ge1 Ge5 2.654773 1_555
Ge2 Ni1 2.341293 1_565
Ge2 Ni0 2.344464 1_555
Ge3 Ni2 2.357856 1_555
Ge3 Ni3 2.359748 1_555
Ge3 Ge7 2.434545 1_554
Ge4 Ni2 2.341286 1_545
Ge4 Ni3 2.344456 1_555
Ge5 Ni2 2.307212 1_545
Ge5 Ni2 2.311833 1_445
Ge5 Ni1 2.544603 1_555
Ge6 Ni0 2.308464 1_555
Ge6 Ni0 2.311471 1_655
Ge6 Ni3 2.540861 1_555
Ge7 Ni1 2.357863 1_555
Ge7 Ni0 2.359733 1_555
