# generated using pymatgen
data_LiCrPO4
_symmetry_space_group_name_H-M   'P 1'
_cell_length_a   5.20418581
_cell_length_b   9.71061000
_cell_length_c   7.06597916
_cell_angle_alpha   90.00290563
_cell_angle_beta   88.19486078
_cell_angle_gamma   90.00058702
_symmetry_Int_Tables_number   1
_chemical_formula_structural   LiCrPO4
_chemical_formula_sum   'Li4 Cr4 P4 O16'
_cell_volume   356.90783437
_cell_formula_units_Z   4
loop_
 _symmetry_equiv_pos_site_id
 _symmetry_equiv_pos_as_xyz
  1  'x, y, z'
loop_
 _atom_site_type_symbol
 _atom_site_label
 _atom_site_symmetry_multiplicity
 _atom_site_fract_x
 _atom_site_fract_y
 _atom_site_fract_z
 _atom_site_occupancy
  Li  Li0  1  0.20278300  0.17964000  0.52568700  1
  Li  Li1  1  0.79720800  0.82036400  0.47433600  1
  Li  Li2  1  0.70281300  0.32037000  0.02566200  1
  Li  Li3  1  0.29722000  0.67963800  0.97431200  1
  Cr  Cr0  1  0.25834500  0.61301400  0.47771200  1
  Cr  Cr1  1  0.24167400  0.11301200  0.02229500  1
  Cr  Cr2  1  0.75842400  0.88698600  0.97765400  1
  Cr  Cr3  1  0.74143100  0.38698800  0.52233600  1
  P  P0  1  0.19000100  0.40560100  0.23279600  1
  P  P1  1  0.31000100  0.90560200  0.26720500  1
  P  P2  1  0.69002700  0.09439500  0.73278100  1
  P  P3  1  0.80997600  0.59439200  0.76721400  1
  O  O0  1  0.33035100  0.31317000  0.08564500  1
  O  O1  1  0.83032100  0.18683200  0.58560700  1
  O  O2  1  0.16966800  0.81317100  0.41436100  1
  O  O3  1  0.66969700  0.68685100  0.91439100  1
  O  O4  1  0.74199000  0.93981300  0.69154400  1
  O  O5  1  0.75801300  0.43980300  0.80844600  1
  O  O6  1  0.24198500  0.56017200  0.19152800  1
  O  O7  1  0.25803700  0.06017000  0.30848200  1
  O  O8  1  0.79377100  0.11259700  0.94113100  1
  O  O9  1  0.20628900  0.88741700  0.05889900  1
  O  O10  1  0.29373500  0.38740900  0.44110500  1
  O  O11  1  0.70622600  0.61258600  0.55886000  1
  O  O12  1  0.10140500  0.63008500  0.75560500  1
  O  O13  1  0.39861200  0.13009100  0.74439100  1
  O  O14  1  0.60140800  0.86991900  0.25561400  1
  O  O15  1  0.89859000  0.36991100  0.24440100  1
loop_
_geom_bond_atom_site_label_1
_geom_bond_atom_site_label_2
_geom_bond_distance
_geom_bond_site_symmetry_2
Li0 O7 1.938068 1_555
Li0 O13 1.938446 1_555
Li0 O1 1.972227 1_455
Li0 O10 2.152691 1_555
Li1 O4 1.937940 1_555
Li1 O14 1.938480 1_555
Li1 O2 1.972289 1_655
Li1 O11 2.152695 1_555
Li2 O5 1.937969 1_554
Li2 O15 1.938434 1_555
Li2 O0 1.972312 1_555
Li2 O8 2.152588 1_554
Li3 O6 1.938184 1_556
Li3 O12 1.938388 1_555
Li3 O3 1.972312 1_555
Li3 O9 2.152721 1_556
Cr0 O2 2.050424 1_555
Cr0 O6 2.090565 1_555
Cr0 O12 2.109302 1_555
Cr0 O10 2.212966 1_555
Cr0 O11 2.417826 1_555
Cr1 O0 2.050379 1_555
Cr1 O7 2.090637 1_555
Cr1 O13 2.109390 1_554
Cr1 O9 2.212887 1_545
Cr1 O8 2.417967 1_454
Cr2 O3 2.050089 1_555
Cr2 O4 2.090101 1_555
Cr2 O14 2.109890 1_556
Cr2 O8 2.212960 1_565
Cr2 O9 2.417929 1_656
Cr3 O1 2.050544 1_555
Cr3 O5 2.090077 1_555
Cr3 O15 2.109987 1_555
Cr3 O11 2.212755 1_555
Cr3 O10 2.417048 1_555
O0 P0 1.540226 1_555
O1 P2 1.540288 1_555
O2 P1 1.540262 1_555
O3 P3 1.540339 1_555
O4 P2 1.551222 1_565
O5 P3 1.551304 1_555
O6 P0 1.551200 1_555
O7 P1 1.551143 1_545
O8 P2 1.593784 1_555
O9 P1 1.593414 1_555
O10 P0 1.593501 1_555
O11 P3 1.593831 1_555
O12 P3 1.555392 1_455
O13 P2 1.555333 1_555
O14 P1 1.555261 1_555
O15 P0 1.555294 1_655
