# generated using pymatgen
data_KNbSi2O7
_symmetry_space_group_name_H-M   'P 1'
_cell_length_a   8.87738900
_cell_length_b   8.87738900
_cell_length_c   8.27438800
_cell_angle_alpha   90.00000000
_cell_angle_beta   90.00000000
_cell_angle_gamma   90.00000000
_symmetry_Int_Tables_number   1
_chemical_formula_structural   KNbSi2O7
_chemical_formula_sum   'K4 Nb4 Si8 O28'
_cell_volume   652.08826289
_cell_formula_units_Z   4
loop_
 _symmetry_equiv_pos_site_id
 _symmetry_equiv_pos_as_xyz
  1  'x, y, z'
loop_
 _atom_site_type_symbol
 _atom_site_label
 _atom_site_symmetry_multiplicity
 _atom_site_fract_x
 _atom_site_fract_y
 _atom_site_fract_z
 _atom_site_occupancy
  K  K0  1  0.17807300  0.67807300  0.99188300  1
  K  K1  1  0.67807300  0.82192700  0.99188300  1
  K  K2  1  0.82192700  0.32192700  0.99188300  1
  K  K3  1  0.32192700  0.17807300  0.99188300  1
  Nb  Nb0  1  0.50000000  0.50000000  0.72047300  1
  Nb  Nb1  1  0.50000000  0.50000000  0.21773800  1
  Nb  Nb2  1  0.00000000  0.00000000  0.72047300  1
  Nb  Nb3  1  0.00000000  0.00000000  0.21773800  1
  Si  Si0  1  0.12385500  0.37614500  0.69303000  1
  Si  Si1  1  0.87650400  0.62349600  0.30281900  1
  Si  Si2  1  0.37650400  0.87650400  0.30281900  1
  Si  Si3  1  0.62349600  0.12349600  0.30281900  1
  Si  Si4  1  0.62385500  0.12385500  0.69303000  1
  Si  Si5  1  0.37614500  0.87614500  0.69303000  1
  Si  Si6  1  0.87614500  0.62385500  0.69303000  1
  Si  Si7  1  0.12349600  0.37650400  0.30281900  1
  O  O0  1  0.42348800  0.71197700  0.76292800  1
  O  O1  1  0.92363200  0.78721200  0.23269500  1
  O  O2  1  0.07651200  0.21197700  0.76292800  1
  O  O3  1  0.28802300  0.42348800  0.76292800  1
  O  O4  1  0.57636800  0.28721200  0.23269500  1
  O  O5  1  0.78802300  0.07651200  0.76292800  1
  O  O6  1  0.28721200  0.42363200  0.23269500  1
  O  O7  1  0.61978100  0.11978100  0.49784700  1
  O  O8  1  0.78721200  0.07636800  0.23269500  1
  O  O9  1  0.11978100  0.38021900  0.49784700  1
  O  O10  1  0.00000000  0.50000000  0.76384400  1
  O  O11  1  0.00000000  0.50000000  0.23156400  1
  O  O12  1  0.38021900  0.88021900  0.49784700  1
  O  O13  1  0.50000000  0.00000000  0.76384400  1
  O  O14  1  0.88021900  0.61978100  0.49784700  1
  O  O15  1  0.92348800  0.78802300  0.76292800  1
  O  O16  1  0.07636800  0.21278800  0.23269500  1
  O  O17  1  0.42363200  0.71278800  0.23269500  1
  O  O18  1  0.21278800  0.92363200  0.23269500  1
  O  O19  1  0.50000000  0.00000000  0.23156400  1
  O  O20  1  0.50000000  0.50000000  0.50263200  1
  O  O21  1  0.50000000  0.50000000  0.99890000  1
  O  O22  1  0.71278800  0.57636800  0.23269500  1
  O  O23  1  0.21197700  0.92348800  0.76292800  1
  O  O24  1  0.00000000  0.00000000  0.50263200  1
  O  O25  1  0.71197700  0.57651200  0.76292800  1
  O  O26  1  0.00000000  0.00000000  0.99890000  1
  O  O27  1  0.57651200  0.28802300  0.76292800  1
loop_
_geom_bond_atom_site_label_1
_geom_bond_atom_site_label_2
_geom_bond_distance
_geom_bond_site_symmetry_2
K0 O23 2.902769 1_555
K0 O0 2.902769 1_555
K0 O10 2.925463 1_555
K0 O18 2.969407 1_556
K0 O17 2.969407 1_556
K0 O11 2.988501 1_556
K0 O15 3.106368 1_455
K0 O3 3.106368 1_555
K0 O6 3.164032 1_556
K0 O1 3.164032 1_456
K0 O26 3.266466 1_565
K0 O21 3.266466 1_555
K1 O25 2.902769 1_555
K1 O15 2.902769 1_555
K1 O13 2.925463 1_565
K1 O22 2.969407 1_556
K1 O1 2.969407 1_556
K1 O19 2.988501 1_566
K1 O0 3.106368 1_555
K1 O5 3.106368 1_565
K1 O17 3.164032 1_556
K1 O8 3.164032 1_566
K1 O21 3.266466 1_555
K1 O26 3.266466 1_665
K2 O5 2.902769 1_555
K2 O27 2.902769 1_555
K2 O10 2.925463 1_655
K2 O4 2.969407 1_556
K2 O8 2.969407 1_556
K2 O11 2.988501 1_656
K2 O2 3.106368 1_655
K2 O25 3.106368 1_555
K2 O16 3.164032 1_656
K2 O22 3.164032 1_556
K2 O26 3.266466 1_655
K2 O21 3.266466 1_555
K3 O2 2.902769 1_555
K3 O3 2.902769 1_555
K3 O13 2.925463 1_555
K3 O16 2.969407 1_556
K3 O6 2.969407 1_556
K3 O19 2.988501 1_556
K3 O23 3.106368 1_545
K3 O27 3.106368 1_555
K3 O18 3.164032 1_546
K3 O4 3.164032 1_556
K3 O26 3.266466 1_555
K3 O21 3.266466 1_555
Nb0 O20 1.802501 1_555
Nb0 O25 2.031239 1_555
Nb0 O0 2.031239 1_555
Nb0 O27 2.031239 1_555
Nb0 O3 2.031239 1_555
Nb0 O21 2.303813 1_555
Nb1 O21 1.810751 1_554
Nb1 O17 2.010786 1_555
Nb1 O22 2.010786 1_555
Nb1 O4 2.010786 1_555
Nb1 O6 2.010786 1_555
Nb1 O20 2.357323 1_555
Nb2 O24 1.802501 1_555
Nb2 O2 2.031239 1_555
Nb2 O23 2.031239 1_545
Nb2 O5 2.031239 1_455
Nb2 O15 2.031239 1_445
Nb2 O26 2.303813 1_555
Nb3 O26 1.810751 1_554
Nb3 O16 2.010786 1_555
Nb3 O18 2.010786 1_545
Nb3 O8 2.010786 1_455
Nb3 O1 2.010786 1_445
Nb3 O24 2.357323 1_555
O0 Si5 1.623301 1_555
O1 Si1 1.619874 1_555
O2 Si0 1.623301 1_555
O3 Si0 1.623301 1_555
O4 Si3 1.619874 1_555
O5 Si4 1.623301 1_555
O6 Si7 1.619874 1_555
O7 Si3 1.614411 1_555
O7 Si4 1.615830 1_555
O8 Si3 1.619874 1_555
O9 Si7 1.614411 1_555
O9 Si0 1.615830 1_555
O10 Si0 1.661676 1_555
O10 Si6 1.661676 1_455
O11 Si1 1.658753 1_455
O11 Si7 1.658753 1_555
O12 Si2 1.614411 1_555
O12 Si5 1.615830 1_555
O13 Si4 1.661676 1_555
O13 Si5 1.661676 1_545
O14 Si1 1.614411 1_555
O14 Si6 1.615830 1_555
O15 Si6 1.623301 1_555
O16 Si7 1.619874 1_555
O17 Si2 1.619874 1_555
O18 Si2 1.619874 1_555
O19 Si3 1.658753 1_555
O19 Si2 1.658753 1_545
O22 Si1 1.619874 1_555
O23 Si5 1.623301 1_555
O25 Si6 1.623301 1_555
O27 Si4 1.623301 1_555
