# generated using pymatgen
data_U5Ge4
_symmetry_space_group_name_H-M   'P 1'
_cell_length_a   8.58089383
_cell_length_b   8.58089383
_cell_length_c   5.81864300
_cell_angle_alpha   90.00000000
_cell_angle_beta   90.00000000
_cell_angle_gamma   119.99999872
_symmetry_Int_Tables_number   1
_chemical_formula_structural   U5Ge4
_chemical_formula_sum   'U10 Ge8'
_cell_volume   371.03715982
_cell_formula_units_Z   2
loop_
 _symmetry_equiv_pos_site_id
 _symmetry_equiv_pos_as_xyz
  1  'x, y, z'
loop_
 _atom_site_type_symbol
 _atom_site_label
 _atom_site_symmetry_multiplicity
 _atom_site_fract_x
 _atom_site_fract_y
 _atom_site_fract_z
 _atom_site_occupancy
  U  U0  1  0.33333300  0.66666700  0.00000000  1
  U  U1  1  0.66666700  0.33333300  0.50000000  1
  U  U2  1  0.66666700  0.33333300  0.00000000  1
  U  U3  1  0.33333300  0.66666700  0.50000000  1
  U  U4  1  0.29278000  0.00000000  0.25000000  1
  U  U5  1  0.29278000  0.29278000  0.75000000  1
  U  U6  1  0.00000000  0.70722000  0.75000000  1
  U  U7  1  0.00000000  0.29278000  0.25000000  1
  U  U8  1  0.70722000  0.70722000  0.25000000  1
  U  U9  1  0.70722000  0.00000000  0.75000000  1
  Ge  Ge0  1  0.63003700  0.00000000  0.25000000  1
  Ge  Ge1  1  0.63003700  0.63003700  0.75000000  1
  Ge  Ge2  1  0.00000000  0.36996300  0.75000000  1
  Ge  Ge3  1  0.00000000  0.63003700  0.25000000  1
  Ge  Ge4  1  0.36996300  0.36996300  0.25000000  1
  Ge  Ge5  1  0.36996300  0.00000000  0.75000000  1
  Ge  Ge6  1  0.00000000  0.00000000  0.00000000  1
  Ge  Ge7  1  0.00000000  0.00000000  0.50000000  1
loop_
_geom_bond_atom_site_label_1
_geom_bond_atom_site_label_2
_geom_bond_distance
_geom_bond_site_symmetry_2
U0 U3 2.909321 1_554
U0 U3 2.909321 1_555
U1 U2 2.909321 1_555
U1 U2 2.909321 1_556
Ge0 U4 2.893967 1_555
Ge0 U8 2.900735 1_545
Ge0 U7 2.900735 1_655
Ge0 U9 2.983755 1_555
Ge0 U9 2.983755 1_554
Ge0 U2 3.081733 1_555
Ge0 U1 3.081733 1_555
Ge0 U0 3.081736 1_545
Ge0 U3 3.081736 1_545
Ge1 U5 2.893967 1_555
Ge1 U9 2.900735 1_565
Ge1 U6 2.900735 1_655
Ge1 U8 2.983755 1_555
Ge1 U8 2.983755 1_556
Ge1 U3 3.081741 1_555
Ge1 U0 3.081741 1_556
Ge1 U2 3.081741 1_556
Ge1 U1 3.081741 1_555
Ge2 U6 2.893967 1_555
Ge2 U5 2.900735 1_555
Ge2 U9 2.900735 1_455
Ge2 U7 2.983755 1_556
Ge2 U7 2.983755 1_555
Ge2 U1 3.081733 1_455
Ge2 U2 3.081733 1_456
Ge2 U3 3.081736 1_555
Ge2 U0 3.081736 1_556
Ge3 U7 2.893967 1_555
Ge3 U8 2.900735 1_455
Ge3 U4 2.900735 1_565
Ge3 U6 2.983755 1_554
Ge3 U6 2.983755 1_555
Ge3 U3 3.081733 1_555
Ge3 U0 3.081733 1_555
Ge3 U1 3.081736 1_455
Ge3 U2 3.081736 1_455
Ge4 U8 2.893967 1_555
Ge4 U7 2.900735 1_555
Ge4 U4 2.900735 1_555
Ge4 U5 2.983755 1_555
Ge4 U5 2.983755 1_554
Ge4 U3 3.081741 1_555
Ge4 U2 3.081741 1_555
Ge4 U0 3.081741 1_555
Ge4 U1 3.081741 1_555
Ge5 U9 2.893967 1_555
Ge5 U5 2.900735 1_555
Ge5 U6 2.900735 1_545
Ge5 U4 2.983755 1_556
Ge5 U4 2.983755 1_555
Ge5 U3 3.081733 1_545
Ge5 U0 3.081733 1_546
Ge5 U1 3.081736 1_555
Ge5 U2 3.081736 1_556
Ge6 U7 2.903060 1_555
Ge6 U4 2.903060 1_555
Ge6 U9 2.903060 1_454
Ge6 U6 2.903060 1_544
Ge6 U5 2.903060 1_554
Ge6 U8 2.903060 1_445
Ge7 U7 2.903060 1_555
Ge7 U4 2.903060 1_555
Ge7 U9 2.903060 1_455
Ge7 U6 2.903060 1_545
Ge7 U5 2.903060 1_555
Ge7 U8 2.903060 1_445
