# generated using pymatgen
data_Ba5Os3ClO15
_symmetry_space_group_name_H-M   'P 1'
_cell_length_a   11.11547635
_cell_length_b   11.11547635
_cell_length_c   7.97483500
_cell_angle_alpha   90.00000000
_cell_angle_beta   90.00000000
_cell_angle_gamma   120.00000211
_symmetry_Int_Tables_number   1
_chemical_formula_structural   Ba5Os3ClO15
_chemical_formula_sum   'Ba10 Os6 Cl2 O30'
_cell_volume   853.31324547
_cell_formula_units_Z   2
loop_
 _symmetry_equiv_pos_site_id
 _symmetry_equiv_pos_as_xyz
  1  'x, y, z'
loop_
 _atom_site_type_symbol
 _atom_site_label
 _atom_site_symmetry_multiplicity
 _atom_site_fract_x
 _atom_site_fract_y
 _atom_site_fract_z
 _atom_site_occupancy
  Ba  Ba0  1  0.00000000  0.26485700  0.76772700  1
  Ba  Ba1  1  0.00000000  0.73514300  0.26772700  1
  Ba  Ba2  1  0.26485700  0.26485700  0.26772700  1
  Ba  Ba3  1  0.73514300  0.00000000  0.26772700  1
  Ba  Ba4  1  0.26485700  0.00000000  0.76772700  1
  Ba  Ba5  1  0.66666700  0.33333300  0.50389800  1
  Ba  Ba6  1  0.73514300  0.73514300  0.76772700  1
  Ba  Ba7  1  0.33333300  0.66666700  0.50389800  1
  Ba  Ba8  1  0.66666700  0.33333300  0.00389800  1
  Ba  Ba9  1  0.33333300  0.66666700  0.00389800  1
  Os  Os0  1  0.38787900  0.00000000  0.21515200  1
  Os  Os1  1  0.00000000  0.61212100  0.71515200  1
  Os  Os2  1  0.61212100  0.61212100  0.21515200  1
  Os  Os3  1  0.38787900  0.38787900  0.71515200  1
  Os  Os4  1  0.00000000  0.38787900  0.21515200  1
  Os  Os5  1  0.61212100  0.00000000  0.71515200  1
  Cl  Cl0  1  0.00000000  0.00000000  0.03915400  1
  Cl  Cl1  1  0.00000000  0.00000000  0.53915400  1
  O  O0  1  0.25727600  0.86875300  0.06851200  1
  O  O1  1  0.55377000  0.42381500  0.24732800  1
  O  O2  1  0.38852400  0.13124700  0.06851200  1
  O  O3  1  0.87004600  0.42381500  0.74732800  1
  O  O4  1  0.44623000  0.57618500  0.74732800  1
  O  O5  1  0.55377000  0.12995400  0.74732800  1
  O  O6  1  0.57618500  0.44623000  0.74732800  1
  O  O7  1  0.29364700  0.00000000  0.39035800  1
  O  O8  1  0.13124700  0.38852400  0.06851200  1
  O  O9  1  0.29364700  0.29364700  0.89035800  1
  O  O10  1  0.00000000  0.70635300  0.89035800  1
  O  O11  1  0.70635300  0.00000000  0.89035800  1
  O  O12  1  0.42381500  0.55377000  0.24732800  1
  O  O13  1  0.70635300  0.70635300  0.39035800  1
  O  O14  1  0.00000000  0.29364700  0.39035800  1
  O  O15  1  0.12995400  0.55377000  0.74732800  1
  O  O16  1  0.61147600  0.86875300  0.56851200  1
  O  O17  1  0.38852400  0.25727600  0.56851200  1
  O  O18  1  0.74272400  0.13124700  0.56851200  1
  O  O19  1  0.86875300  0.25727600  0.06851200  1
  O  O20  1  0.25727600  0.38852400  0.56851200  1
  O  O21  1  0.87004600  0.44623000  0.24732800  1
  O  O22  1  0.61147600  0.74272400  0.06851200  1
  O  O23  1  0.12995400  0.57618500  0.24732800  1
  O  O24  1  0.44623000  0.87004600  0.24732800  1
  O  O25  1  0.74272400  0.61147600  0.06851200  1
  O  O26  1  0.13124700  0.74272400  0.56851200  1
  O  O27  1  0.57618500  0.12995400  0.24732800  1
  O  O28  1  0.42381500  0.87004600  0.74732800  1
  O  O29  1  0.86875300  0.61147600  0.56851200  1
loop_
_geom_bond_atom_site_label_1
_geom_bond_atom_site_label_2
_geom_bond_distance
_geom_bond_site_symmetry_2
Ba0 O19 2.786806 1_456
Ba0 O8 2.786809 1_556
Ba0 O3 2.790563 1_455
Ba0 O15 2.790572 1_555
Ba0 O20 2.942898 1_555
Ba0 O18 2.942898 1_455
Ba0 O14 3.026422 1_555
Ba0 O11 3.266213 1_455
Ba0 O9 3.266213 1_555
Ba0 Cl1 3.462647 1_555
Ba0 Cl0 3.654126 1_556
Ba1 O26 2.786806 1_555
Ba1 O29 2.786809 1_455
Ba1 O23 2.790563 1_555
Ba1 O21 2.790572 1_455
Ba1 O25 2.942898 1_455
Ba1 O0 2.942898 1_555
Ba1 O10 3.026422 1_554
Ba1 O7 3.266213 1_565
Ba1 O13 3.266213 1_455
Ba1 Cl0 3.462647 1_565
Ba1 Cl1 3.654126 1_565
Ba2 O20 2.786812 1_555
Ba2 O17 2.786812 1_555
Ba2 O12 2.790572 1_555
Ba2 O1 2.790572 1_555
Ba2 O2 2.942906 1_555
Ba2 O8 2.942906 1_555
Ba2 O9 3.026422 1_554
Ba2 O7 3.266214 1_555
Ba2 O14 3.266214 1_555
Ba2 Cl0 3.462647 1_555
Ba2 Cl1 3.654126 1_555
Ba3 O18 2.786806 1_555
Ba3 O16 2.786809 1_545
Ba3 O27 2.790563 1_555
Ba3 O24 2.790572 1_545
Ba3 O22 2.942898 1_545
Ba3 O19 2.942898 1_555
Ba3 O11 3.026422 1_554
Ba3 O14 3.266213 1_655
Ba3 O13 3.266213 1_545
Ba3 Cl0 3.462647 1_655
Ba3 Cl1 3.654126 1_655
Ba4 O0 2.786806 1_546
Ba4 O2 2.786809 1_556
Ba4 O28 2.790563 1_545
Ba4 O5 2.790572 1_555
Ba4 O17 2.942898 1_555
Ba4 O26 2.942898 1_545
Ba4 O7 3.026422 1_555
Ba4 O10 3.266213 1_545
Ba4 O9 3.266213 1_555
Ba4 Cl1 3.462647 1_555
Ba4 Cl0 3.654126 1_556
Ba5 O5 2.759916 1_555
Ba5 O3 2.759916 1_555
Ba5 O6 2.759916 1_555
Ba5 O29 2.815146 1_555
Ba5 O17 2.815146 1_555
Ba5 O18 2.815147 1_555
Ba5 O21 2.834604 1_555
Ba5 O27 2.834604 1_555
Ba5 O1 2.834604 1_555
Ba6 O25 2.786812 1_556
Ba6 O22 2.786812 1_556
Ba6 O4 2.790572 1_555
Ba6 O6 2.790572 1_555
Ba6 O16 2.942906 1_555
Ba6 O29 2.942906 1_555
Ba6 O13 3.026422 1_555
Ba6 O10 3.266214 1_655
Ba6 O11 3.266214 1_565
Ba6 Cl1 3.462647 1_665
Ba6 Cl0 3.654126 1_666
Ba7 O15 2.759916 1_555
Ba7 O28 2.759916 1_555
Ba7 O4 2.759916 1_555
Ba7 O16 2.815146 1_555
Ba7 O20 2.815146 1_555
Ba7 O26 2.815147 1_555
Ba7 O24 2.834604 1_555
Ba7 O23 2.834604 1_555
Ba7 O12 2.834604 1_555
Ba8 O21 2.759916 1_555
Ba8 O27 2.759916 1_555
Ba8 O1 2.759916 1_555
Ba8 O2 2.815146 1_555
Ba8 O25 2.815146 1_555
Ba8 O19 2.815147 1_555
Ba8 O5 2.834604 1_554
Ba8 O3 2.834604 1_554
Ba8 O6 2.834604 1_554
Ba9 O24 2.759916 1_555
Ba9 O23 2.759916 1_555
Ba9 O12 2.759916 1_555
Ba9 O8 2.815146 1_555
Ba9 O22 2.815146 1_555
Ba9 O0 2.815147 1_555
Ba9 O15 2.834604 1_554
Ba9 O28 2.834604 1_554
Ba9 O4 2.834604 1_554
O0 Os0 1.866945 1_565
O1 Os2 1.873512 1_555
O2 Os0 1.866941 1_555
O3 Os1 1.873509 1_655
O4 Os3 1.873512 1_555
O5 Os5 1.873501 1_555
O6 Os3 1.873512 1_555
O7 Os0 1.746251 1_555
O8 Os4 1.866941 1_555
O9 Os3 1.746251 1_555
O10 Os1 1.746251 1_555
O11 Os5 1.746251 1_555
O12 Os2 1.873512 1_555
O13 Os2 1.746251 1_555
O14 Os4 1.746251 1_555
O15 Os1 1.873501 1_555
O16 Os5 1.866941 1_565
O17 Os3 1.866950 1_555
O18 Os5 1.866945 1_555
O19 Os4 1.866945 1_655
O20 Os3 1.866950 1_555
O21 Os4 1.873501 1_655
O22 Os2 1.866950 1_555
O23 Os4 1.873509 1_555
O24 Os0 1.873501 1_565
O25 Os2 1.866950 1_555
O26 Os1 1.866945 1_555
O27 Os0 1.873509 1_555
O28 Os5 1.873509 1_565
O29 Os1 1.866941 1_655
