# generated using pymatgen
data_BaTbMn2O6
_symmetry_space_group_name_H-M   'P 1'
_cell_length_a   5.53596400
_cell_length_b   5.58221400
_cell_length_c   7.82362800
_cell_angle_alpha   90.00000000
_cell_angle_beta   90.00000000
_cell_angle_gamma   90.00000000
_symmetry_Int_Tables_number   1
_chemical_formula_structural   BaTbMn2O6
_chemical_formula_sum   'Ba2 Tb2 Mn4 O12'
_cell_volume   241.77307337
_cell_formula_units_Z   2
loop_
 _symmetry_equiv_pos_site_id
 _symmetry_equiv_pos_as_xyz
  1  'x, y, z'
loop_
 _atom_site_type_symbol
 _atom_site_label
 _atom_site_symmetry_multiplicity
 _atom_site_fract_x
 _atom_site_fract_y
 _atom_site_fract_z
 _atom_site_occupancy
  Ba  Ba0  1  0.75000000  0.25943900  0.50000000  1
  Ba  Ba1  1  0.25000000  0.74056100  0.50000000  1
  Tb  Tb0  1  0.75000000  0.25891000  0.00000000  1
  Tb  Tb1  1  0.25000000  0.74109000  0.00000000  1
  Mn  Mn0  1  0.75000000  0.75107100  0.75772000  1
  Mn  Mn1  1  0.25000000  0.24892900  0.24228000  1
  Mn  Mn2  1  0.75000000  0.75107100  0.24228000  1
  Mn  Mn3  1  0.25000000  0.24892900  0.75772000  1
  O  O0  1  0.00000000  0.50000000  0.75432100  1
  O  O1  1  0.50000000  0.50000000  0.24567900  1
  O  O2  1  0.00000000  0.50000000  0.24567900  1
  O  O3  1  0.50000000  0.50000000  0.75432100  1
  O  O4  1  0.75000000  0.78208600  0.50000000  1
  O  O5  1  0.25000000  0.21791400  0.50000000  1
  O  O6  1  0.75000000  0.67851500  0.00000000  1
  O  O7  1  0.25000000  0.32148500  0.00000000  1
  O  O8  1  0.50000000  0.00000000  0.80697900  1
  O  O9  1  0.00000000  0.00000000  0.19302100  1
  O  O10  1  0.50000000  0.00000000  0.19302100  1
  O  O11  1  0.00000000  0.00000000  0.80697900  1
loop_
_geom_bond_atom_site_label_1
_geom_bond_atom_site_label_2
_geom_bond_distance
_geom_bond_site_symmetry_2
Ba0 O4 2.664687 1_545
Ba0 O3 2.770861 1_555
Ba0 O0 2.770861 1_655
Ba0 O2 2.770861 1_655
Ba0 O1 2.770861 1_555
Ba0 O5 2.777671 1_655
Ba0 O5 2.777671 1_555
Ba0 O4 2.917527 1_555
Ba0 O8 3.127452 1_555
Ba0 O10 3.127452 1_555
Ba0 O11 3.127452 1_655
Ba0 O9 3.127452 1_655
Ba1 O5 2.664687 1_565
Ba1 O3 2.770861 1_555
Ba1 O0 2.770861 1_555
Ba1 O1 2.770861 1_555
Ba1 O2 2.770861 1_555
Ba1 O4 2.777671 1_455
Ba1 O4 2.777671 1_555
Ba1 O5 2.917527 1_555
Ba1 O10 3.127452 1_565
Ba1 O11 3.127452 1_565
Ba1 O8 3.127452 1_565
Ba1 O9 3.127452 1_565
Mn0 O6 1.938297 1_556
Mn0 O0 1.969881 1_655
Mn0 O3 1.969881 1_555
Mn0 O8 1.998717 1_565
Mn0 O11 1.998717 1_665
Mn0 O4 2.023725 1_555
Mn1 O7 1.938297 1_555
Mn1 O1 1.969881 1_555
Mn1 O2 1.969881 1_555
Mn1 O10 1.998717 1_555
Mn1 O9 1.998717 1_555
Mn1 O5 2.023725 1_555
Mn2 O6 1.938297 1_555
Mn2 O1 1.969881 1_555
Mn2 O2 1.969881 1_655
Mn2 O9 1.998717 1_665
Mn2 O10 1.998717 1_565
Mn2 O4 2.023725 1_555
Mn3 O7 1.938297 1_556
Mn3 O3 1.969881 1_555
Mn3 O0 1.969881 1_555
Mn3 O8 1.998717 1_555
Mn3 O11 1.998717 1_555
Mn3 O5 2.023725 1_555
O0 Tb1 2.724174 1_556
O0 Tb0 2.724174 1_456
O1 Tb1 2.724174 1_555
O1 Tb0 2.724174 1_555
O2 Tb1 2.724174 1_555
O2 Tb0 2.724174 1_455
O3 Tb1 2.724174 1_556
O3 Tb0 2.724174 1_556
O6 Tb0 2.342325 1_555
O6 Tb1 2.789935 1_655
O6 Tb1 2.789935 1_555
O7 Tb1 2.342325 1_555
O7 Tb0 2.789935 1_555
O7 Tb0 2.789935 1_455
O8 Tb1 2.506945 1_546
O8 Tb0 2.506945 1_556
O9 Tb0 2.506945 1_455
O9 Tb1 2.506945 1_545
O10 Tb0 2.506945 1_555
O10 Tb1 2.506945 1_545
O11 Tb0 2.506945 1_456
O11 Tb1 2.506945 1_546
