# generated using pymatgen
data_CsPbBr3
_symmetry_space_group_name_H-M   'P 1'
_cell_length_a   4.60907397
_cell_length_b   9.84551805
_cell_length_c   16.95083421
_cell_angle_alpha   90.00000000
_cell_angle_beta   90.00000000
_cell_angle_gamma   90.00000000
_symmetry_Int_Tables_number   1
_chemical_formula_structural   CsPbBr3
_chemical_formula_sum   'Cs4 Pb4 Br12'
_cell_volume   769.20717575
_cell_formula_units_Z   4
loop_
 _symmetry_equiv_pos_site_id
 _symmetry_equiv_pos_as_xyz
  1  'x, y, z'
loop_
 _atom_site_type_symbol
 _atom_site_label
 _atom_site_symmetry_multiplicity
 _atom_site_fract_x
 _atom_site_fract_y
 _atom_site_fract_z
 _atom_site_occupancy
  Cs  Cs0  1  0.25000000  0.41235285  0.17164977  1
  Cs  Cs1  1  0.25000000  0.91235285  0.32835023  1
  Cs  Cs2  1  0.75000000  0.08764715  0.67164977  1
  Cs  Cs3  1  0.75000000  0.58764715  0.82835023  1
  Pb  Pb0  1  0.75000000  0.33651297  0.43795630  1
  Pb  Pb1  1  0.25000000  0.66348703  0.56204370  1
  Pb  Pb2  1  0.25000000  0.16348703  0.93795630  1
  Pb  Pb3  1  0.75000000  0.83651297  0.06204370  1
  Br  Br0  1  0.25000000  0.02819821  0.11279670  1
  Br  Br1  1  0.75000000  0.69862158  0.21107615  1
  Br  Br2  1  0.25000000  0.16419133  0.50057309  1
  Br  Br3  1  0.25000000  0.66419133  0.99942691  1
  Br  Br4  1  0.75000000  0.33580867  0.00057309  1
  Br  Br5  1  0.75000000  0.47180179  0.61279670  1
  Br  Br6  1  0.25000000  0.80137842  0.71107615  1
  Br  Br7  1  0.75000000  0.19862158  0.28892385  1
  Br  Br8  1  0.25000000  0.52819821  0.38720330  1
  Br  Br9  1  0.75000000  0.97180179  0.88720330  1
  Br  Br10  1  0.75000000  0.83580867  0.49942691  1
  Br  Br11  1  0.25000000  0.30137842  0.78892385  1
loop_
_geom_bond_atom_site_label_1
_geom_bond_atom_site_label_2
_geom_bond_distance
_geom_bond_site_symmetry_2
Br0 Pb3 3.100434 1_545
Br0 Pb3 3.100434 1_445
Br0 Pb2 3.249255 1_554
Br0 Cs1 3.827691 1_545
Br0 Cs0 3.911556 1_555
Br1 Pb3 2.867912 1_555
Br1 Cs1 3.700090 1_655
Br1 Cs1 3.700090 1_555
Br1 Cs0 3.701522 1_655
Br1 Cs0 3.701522 1_555
Br2 Pb0 3.052198 1_455
Br2 Pb0 3.052198 1_555
Br2 Cs2 3.779974 1_455
Br2 Cs2 3.779974 1_555
Br2 Cs1 3.830177 1_545
Br3 Pb3 3.052198 1_556
Br3 Pb3 3.052198 1_456
Br3 Cs3 3.779974 1_455
Br3 Cs3 3.779974 1_555
Br3 Cs0 3.830177 1_556
Br4 Pb2 3.052198 1_654
Br4 Pb2 3.052198 1_554
Br4 Cs0 3.779974 1_555
Br4 Cs0 3.779974 1_655
Br4 Cs3 3.830177 1_554
Br5 Pb1 3.100434 1_555
Br5 Pb1 3.100434 1_655
Br5 Pb0 3.249255 1_555
Br5 Cs3 3.827691 1_555
Br5 Cs2 3.911556 1_555
Br6 Pb1 2.867912 1_555
Br6 Cs3 3.700090 1_555
Br6 Cs3 3.700090 1_455
Br6 Cs2 3.701522 1_565
Br6 Cs2 3.701522 1_465
Br7 Pb0 2.867912 1_555
Br7 Cs0 3.700090 1_655
Br7 Cs0 3.700090 1_555
Br7 Cs1 3.701522 1_545
Br7 Cs1 3.701522 1_645
Br8 Pb0 3.100434 1_555
Br8 Pb0 3.100434 1_455
Br8 Pb1 3.249255 1_555
Br8 Cs0 3.827691 1_555
Br8 Cs1 3.911556 1_555
Br9 Pb2 3.100434 1_565
Br9 Pb2 3.100434 1_665
Br9 Pb3 3.249255 1_556
Br9 Cs2 3.827691 1_565
Br9 Cs3 3.911556 1_555
Br10 Pb1 3.052198 1_555
Br10 Pb1 3.052198 1_655
Br10 Cs1 3.779974 1_555
Br10 Cs1 3.779974 1_655
Br10 Cs2 3.830177 1_565
Br11 Pb2 2.867912 1_555
Br11 Cs2 3.700090 1_555
Br11 Cs2 3.700090 1_455
Br11 Cs3 3.701522 1_555
Br11 Cs3 3.701522 1_455
