# generated using pymatgen
data_KVSO6
_symmetry_space_group_name_H-M   'P 1'
_cell_length_a   5.55845000
_cell_length_b   8.64061800
_cell_length_c   11.26552100
_cell_angle_alpha   90.00000000
_cell_angle_beta   90.00000000
_cell_angle_gamma   90.00000000
_symmetry_Int_Tables_number   1
_chemical_formula_structural   KVSO6
_chemical_formula_sum   'K4 V4 S4 O24'
_cell_volume   541.06543459
_cell_formula_units_Z   4
loop_
 _symmetry_equiv_pos_site_id
 _symmetry_equiv_pos_as_xyz
  1  'x, y, z'
loop_
 _atom_site_type_symbol
 _atom_site_label
 _atom_site_symmetry_multiplicity
 _atom_site_fract_x
 _atom_site_fract_y
 _atom_site_fract_z
 _atom_site_occupancy
  K  K0  1  0.02710000  0.18952400  0.64025400  1
  K  K1  1  0.52710000  0.31047600  0.35974600  1
  K  K2  1  0.47290000  0.81047600  0.14025400  1
  K  K3  1  0.97290000  0.68952400  0.85974600  1
  V  V0  1  0.03220100  0.65431300  0.43742200  1
  V  V1  1  0.53220100  0.84568700  0.56257800  1
  V  V2  1  0.96779900  0.15431300  0.06257800  1
  V  V3  1  0.46779900  0.34568700  0.93742200  1
  S  S0  1  0.53329800  0.44597900  0.71086100  1
  S  S1  1  0.46670200  0.94597900  0.78913900  1
  S  S2  1  0.96670200  0.55402100  0.21086100  1
  S  S3  1  0.03329800  0.05402100  0.28913900  1
  O  O0  1  0.70857300  0.37030500  0.80000600  1
  O  O1  1  0.67432700  0.21655000  0.00887000  1
  O  O2  1  0.79142700  0.62969500  0.30000600  1
  O  O3  1  0.48896200  0.85350000  0.89638300  1
  O  O4  1  0.17432700  0.28345000  0.99113000  1
  O  O5  1  0.19769400  0.56419400  0.28582900  1
  O  O6  1  0.50718900  0.50929100  0.00604700  1
  O  O7  1  0.30230600  0.43580600  0.78582900  1
  O  O8  1  0.69769400  0.93580600  0.71417100  1
  O  O9  1  0.01103800  0.14650000  0.39638300  1
  O  O10  1  0.98896200  0.64650000  0.10361700  1
  O  O11  1  0.80230600  0.06419400  0.21417100  1
  O  O12  1  0.00718900  0.99070900  0.99395300  1
  O  O13  1  0.99281100  0.49070900  0.50604700  1
  O  O14  1  0.32567300  0.71655000  0.49113000  1
  O  O15  1  0.82567300  0.78345000  0.50887000  1
  O  O16  1  0.89198900  0.39411500  0.19211700  1
  O  O17  1  0.51103800  0.35350000  0.60361700  1
  O  O18  1  0.10801100  0.89411500  0.30788300  1
  O  O19  1  0.49281100  0.00929100  0.49395300  1
  O  O20  1  0.60801100  0.60588500  0.69211700  1
  O  O21  1  0.29142700  0.87030500  0.69999400  1
  O  O22  1  0.39198900  0.10588500  0.80788300  1
  O  O23  1  0.20857300  0.12969500  0.19999400  1
loop_
_geom_bond_atom_site_label_1
_geom_bond_atom_site_label_2
_geom_bond_distance
_geom_bond_site_symmetry_2
K0 O9 2.773809 1_555
K0 O22 2.863933 1_555
K0 O0 2.968778 1_455
K0 O8 2.975234 1_445
K0 O13 3.015761 1_455
K0 O17 3.068164 1_555
K0 O7 3.091614 1_555
K0 O21 3.196805 1_545
K0 O17 3.225856 1_455
K1 O17 2.773809 1_555
K1 O16 2.863933 1_555
K1 O23 2.968778 1_555
K1 O5 2.975234 1_555
K1 O19 3.015761 1_555
K1 O9 3.068164 1_655
K1 O11 3.091614 1_555
K1 O2 3.196805 1_555
K1 O9 3.225856 1_555
K2 O3 2.773809 1_554
K2 O18 2.863933 1_555
K2 O2 2.968778 1_555
K2 O11 2.975234 1_565
K2 O6 3.015761 1_555
K2 O10 3.068164 1_455
K2 O5 3.091614 1_555
K2 O23 3.196805 1_565
K2 O10 3.225856 1_555
K3 O10 2.773809 1_556
K3 O20 2.863933 1_555
K3 O21 2.968778 1_655
K3 O7 2.975234 1_655
K3 O12 3.015761 1_655
K3 O3 3.068164 1_555
K3 O8 3.091614 1_555
K3 O0 3.196805 1_555
K3 O3 3.225856 1_655
O0 S0 1.544432 1_555
O0 V3 2.057395 1_555
O1 V3 1.791863 1_554
O1 V2 1.821058 1_555
O2 S2 1.544432 1_555
O2 V0 2.057395 1_655
O3 S1 1.453782 1_555
O4 V2 1.791863 1_456
O4 V3 1.821058 1_555
O5 S2 1.539332 1_455
O5 V0 2.090222 1_555
O6 V3 1.626036 1_554
O7 S0 1.539332 1_555
O7 V3 2.090222 1_555
O8 S1 1.539332 1_555
O8 V1 2.090222 1_555
O9 S3 1.453782 1_555
O10 S2 1.453782 1_555
O11 S3 1.539332 1_655
O11 V2 2.090222 1_555
O12 V2 1.626036 1_466
O13 V0 1.626036 1_655
O14 V1 1.791863 1_555
O14 V0 1.821058 1_555
O15 V0 1.791863 1_655
O15 V1 1.821058 1_555
O16 S2 1.458119 1_555
O16 V2 2.569150 1_555
O17 S0 1.453782 1_555
O18 S3 1.458119 1_565
O18 V0 2.569150 1_555
O19 V1 1.626036 1_545
O20 S0 1.458119 1_555
O20 V1 2.569150 1_555
O21 S1 1.544432 1_555
O21 V1 2.057395 1_555
O22 S1 1.458119 1_545
O22 V3 2.569150 1_555
O23 S3 1.544432 1_555
O23 V2 2.057395 1_455
