# generated using pymatgen
data_Eu2SiCl2O3
_symmetry_space_group_name_H-M   'P 1'
_cell_length_a   9.28985456
_cell_length_b   9.28985456
_cell_length_c   9.28985456
_cell_angle_alpha   105.63688098
_cell_angle_beta   105.63688098
_cell_angle_gamma   117.44652200
_symmetry_Int_Tables_number   1
_chemical_formula_structural   Eu2SiCl2O3
_chemical_formula_sum   'Eu8 Si4 Cl8 O12'
_cell_volume   608.08562711
_cell_formula_units_Z   4
loop_
 _symmetry_equiv_pos_site_id
 _symmetry_equiv_pos_as_xyz
  1  'x, y, z'
loop_
 _atom_site_type_symbol
 _atom_site_label
 _atom_site_symmetry_multiplicity
 _atom_site_fract_x
 _atom_site_fract_y
 _atom_site_fract_z
 _atom_site_occupancy
  Eu  Eu0  1  0.69178800  0.02330500  0.16908800  1
  Eu  Eu1  1  0.14578300  0.47730000  0.16908800  1
  Eu  Eu2  1  0.85421700  0.52270000  0.83091200  1
  Eu  Eu3  1  0.52270000  0.69178800  0.66848300  1
  Eu  Eu4  1  0.02330500  0.85421700  0.33151700  1
  Eu  Eu5  1  0.30821200  0.97669500  0.83091200  1
  Eu  Eu6  1  0.47730000  0.30821200  0.33151700  1
  Eu  Eu7  1  0.97669500  0.14578300  0.66848300  1
  Si  Si0  1  0.31712700  0.59699000  0.91411700  1
  Si  Si1  1  0.68287300  0.40301000  0.08588300  1
  Si  Si2  1  0.59699000  0.68287300  0.27986300  1
  Si  Si3  1  0.40301000  0.31712700  0.72013700  1
  Cl  Cl0  1  0.79756800  0.79756800  0.00000000  1
  Cl  Cl1  1  0.09579100  0.25195900  0.34774900  1
  Cl  Cl2  1  0.25195900  0.90420900  0.15616800  1
  Cl  Cl3  1  0.90420900  0.74804100  0.65225100  1
  Cl  Cl4  1  0.75000000  0.25000000  0.50000000  1
  Cl  Cl5  1  0.74804100  0.09579100  0.84383200  1
  Cl  Cl6  1  0.25000000  0.75000000  0.50000000  1
  Cl  Cl7  1  0.20243200  0.20243200  0.00000000  1
  O  O0  1  0.55076300  0.33473800  0.88550200  1
  O  O1  1  0.48328400  0.59899100  0.37527700  1
  O  O2  1  0.44923700  0.66526200  0.11449800  1
  O  O3  1  0.10800700  0.48328400  0.88429300  1
  O  O4  1  0.59899100  0.22371400  0.11570700  1
  O  O5  1  0.89199300  0.51671600  0.11570700  1
  O  O6  1  0.22371400  0.10800700  0.62472300  1
  O  O7  1  0.33473800  0.44923700  0.78397500  1
  O  O8  1  0.40100900  0.77628600  0.88429300  1
  O  O9  1  0.77628600  0.89199300  0.37527700  1
  O  O10  1  0.51671600  0.40100900  0.62472300  1
  O  O11  1  0.66526200  0.55076300  0.21602500  1
loop_
_geom_bond_atom_site_label_1
_geom_bond_atom_site_label_2
_geom_bond_distance
_geom_bond_site_symmetry_2
Eu0 O4 2.490393 1_555
Eu0 O8 2.592826 1_544
Eu0 O9 2.665533 1_545
Eu0 O2 2.821965 1_545
Eu1 O5 2.490393 1_455
Eu1 O3 2.592826 1_554
Eu1 O1 2.665533 1_555
Eu1 O2 2.821974 1_555
Eu2 O3 2.490393 1_655
Eu2 O5 2.592826 1_556
Eu2 O10 2.665533 1_555
Eu2 O0 2.821974 1_555
Eu3 O1 2.490393 1_555
Eu3 O10 2.592826 1_555
Eu3 O8 2.665533 1_555
Eu3 O7 2.821968 1_555
Eu4 O6 2.490393 1_565
Eu4 O9 2.592826 1_455
Eu4 O5 2.665533 1_455
Eu4 O11 2.821968 1_455
Eu5 O8 2.490393 1_555
Eu5 O4 2.592826 1_566
Eu5 O6 2.665533 1_565
Eu5 O0 2.821965 1_565
Eu6 O10 2.490393 1_555
Eu6 O1 2.592826 1_555
Eu6 O4 2.665533 1_555
Eu6 O11 2.821968 1_555
Eu7 O9 2.490393 1_545
Eu7 O6 2.592826 1_655
Eu7 O3 2.665533 1_655
Eu7 O7 2.821968 1_655
Cl0 Eu2 2.964253 1_554
Cl0 Eu4 2.964253 1_655
Cl0 Eu0 2.964253 1_565
Cl0 Eu3 2.964253 1_554
Cl1 Eu1 2.957192 1_555
Cl1 Eu0 2.957199 1_455
Cl2 Eu4 2.957200 1_555
Cl2 Eu6 2.957200 1_565
Cl3 Eu2 2.957192 1_555
Cl3 Eu5 2.957199 1_655
Cl4 Eu7 2.956643 1_555
Cl4 Eu6 2.956643 1_555
Cl4 Eu0 2.956643 1_555
Cl4 Eu2 2.956643 1_555
Cl5 Eu7 2.957200 1_555
Cl5 Eu3 2.957200 1_545
Cl6 Eu3 2.956643 1_555
Cl6 Eu1 2.956643 1_555
Cl6 Eu4 2.956643 1_555
Cl6 Eu5 2.956643 1_555
Cl7 Eu1 2.964253 1_555
Cl7 Eu5 2.964253 1_544
Cl7 Eu6 2.964253 1_555
Cl7 Eu7 2.964253 1_454
O0 Si1 1.669764 1_556
O0 Si3 1.670796 1_555
O1 Si2 1.620800 1_555
O2 Si0 1.669764 1_554
O2 Si2 1.670796 1_555
O3 Si0 1.620800 1_555
O4 Si1 1.620800 1_555
O5 Si1 1.620800 1_555
O6 Si3 1.620800 1_555
O7 Si3 1.669771 1_555
O7 Si0 1.670790 1_555
O8 Si0 1.620800 1_555
O9 Si2 1.620800 1_555
O10 Si3 1.620800 1_555
O11 Si2 1.669771 1_555
O11 Si1 1.670790 1_555
