# generated using pymatgen
data_Gd2Ru2O7
_symmetry_space_group_name_H-M   'P 1'
_cell_length_a   7.24191458
_cell_length_b   7.24169231
_cell_length_c   7.23843835
_cell_angle_alpha   60.01544687
_cell_angle_beta   60.01646333
_cell_angle_gamma   59.94547875
_symmetry_Int_Tables_number   1
_chemical_formula_structural   Gd2Ru2O7
_chemical_formula_sum   'Gd4 Ru4 O14'
_cell_volume   268.37909633
_cell_formula_units_Z   2
loop_
 _symmetry_equiv_pos_site_id
 _symmetry_equiv_pos_as_xyz
  1  'x, y, z'
loop_
 _atom_site_type_symbol
 _atom_site_label
 _atom_site_symmetry_multiplicity
 _atom_site_fract_x
 _atom_site_fract_y
 _atom_site_fract_z
 _atom_site_occupancy
  Gd  Gd0  1  0.12500016  0.12500003  0.12499999  1
  Gd  Gd1  1  0.62499995  0.12499991  0.12499991  1
  Gd  Gd2  1  0.12499999  0.62499994  0.12499994  1
  Gd  Gd3  1  0.12500011  0.12499983  0.62499994  1
  Ru  Ru0  1  0.62500075  0.62500045  0.62499855  1
  Ru  Ru1  1  0.12500020  0.62499880  0.62500044  1
  Ru  Ru2  1  0.62500140  0.12499965  0.62499933  1
  Ru  Ru3  1  0.62499972  0.62499936  0.12499963  1
  O  O0  1  0.95822993  0.54191706  0.95784108  1
  O  O1  1  0.70807590  0.29179275  0.29214112  1
  O  O2  1  0.29176465  0.70808426  0.70798783  1
  O  O3  1  0.70807646  0.29178777  0.70799153  1
  O  O4  1  0.28876378  0.28880753  0.71121266  1
  O  O5  1  0.71133612  0.71134537  0.28865919  1
  O  O6  1  0.96123447  0.96119419  0.53878630  1
  O  O7  1  0.54192389  0.95820746  0.95785907  1
  O  O8  1  0.95823516  0.54191586  0.54201234  1
  O  O9  1  0.53866488  0.53865356  0.96134272  1
  O  O10  1  0.29176864  0.70808254  0.29216033  1
  O  O11  1  0.54192386  0.95821368  0.54200814  1
  O  O12  1  0.00003466  0.00003394  0.99996492  1
  O  O13  1  0.24996530  0.24996608  0.25003504  1
loop_
_geom_bond_atom_site_label_1
_geom_bond_atom_site_label_2
_geom_bond_distance
_geom_bond_site_symmetry_2
Gd0 O13 2.216923 1_555
Gd0 O12 2.216926 1_554
Gd0 O6 2.468226 1_445
Gd0 O4 2.468231 1_554
Gd0 O0 2.488960 1_454
Gd0 O10 2.488963 1_545
Gd0 O7 2.489094 1_544
Gd0 O1 2.489097 1_455
Gd1 O13 2.216856 1_555
Gd1 O12 2.216856 1_654
Gd1 O9 2.466766 1_554
Gd1 O5 2.466770 1_545
Gd1 O7 2.490104 1_544
Gd1 O1 2.490108 1_555
Gd1 O11 2.490125 1_545
Gd1 O3 2.490125 1_554
Gd2 O13 2.216760 1_555
Gd2 O12 2.216761 1_564
Gd2 O5 2.466927 1_455
Gd2 O9 2.466932 1_554
Gd2 O10 2.490126 1_555
Gd2 O0 2.490127 1_454
Gd2 O2 2.490155 1_554
Gd2 O8 2.490157 1_455
Gd3 O13 2.216942 1_555
Gd3 O12 2.216942 1_555
Gd3 O4 2.468183 1_555
Gd3 O6 2.468188 1_445
Gd3 O2 2.488948 1_545
Gd3 O8 2.488951 1_455
Gd3 O3 2.489088 1_455
Gd3 O11 2.489089 1_545
O0 Ru1 1.998944 1_655
O0 Ru3 2.001128 1_556
O1 Ru2 1.999048 1_555
O1 Ru3 2.000897 1_555
O2 Ru1 1.998895 1_555
O2 Ru0 2.001161 1_555
O3 Ru2 1.999003 1_555
O3 Ru0 2.000928 1_555
O4 Ru1 2.013015 1_555
O4 Ru2 2.013383 1_555
O5 Ru3 2.014349 1_555
O5 Ru0 2.014354 1_555
O6 Ru1 2.013040 1_655
O6 Ru2 2.013356 1_565
O7 Ru2 1.999056 1_565
O7 Ru3 2.000904 1_556
O8 Ru1 1.998889 1_655
O8 Ru0 2.001152 1_555
O9 Ru3 2.014322 1_556
O9 Ru0 2.014383 1_555
O10 Ru1 1.998939 1_555
O10 Ru3 2.001136 1_555
O11 Ru2 1.998997 1_565
O11 Ru0 2.000933 1_555
