# generated using pymatgen
data_ZnS
_symmetry_space_group_name_H-M   'P 1'
_cell_length_a   15.73961645
_cell_length_b   15.73961645
_cell_length_c   15.73961559
_cell_angle_alpha   13.89299201
_cell_angle_beta   13.89299201
_cell_angle_gamma   13.89299427
_symmetry_Int_Tables_number   1
_chemical_formula_structural   ZnS
_chemical_formula_sum   'Zn5 S5'
_cell_volume   195.63819592
_cell_formula_units_Z   5
loop_
 _symmetry_equiv_pos_site_id
 _symmetry_equiv_pos_as_xyz
  1  'x, y, z'
loop_
 _atom_site_type_symbol
 _atom_site_label
 _atom_site_symmetry_multiplicity
 _atom_site_fract_x
 _atom_site_fract_y
 _atom_site_fract_z
 _atom_site_occupancy
  Zn  Zn0  1  0.60002524  0.60002524  0.60002524  1
  Zn  Zn1  1  0.86669045  0.86669045  0.86669045  1
  Zn  Zn2  1  0.46665422  0.46665422  0.46665422  1
  Zn  Zn3  1  0.00003744  0.00003744  0.00003744  1
  Zn  Zn4  1  0.73335821  0.73335821  0.73335821  1
  S  S0  1  0.05002999  0.05002999  0.05002999  1
  S  S1  1  0.78326864  0.78326864  0.78326864  1
  S  S2  1  0.64998519  0.64998519  0.64998519  1
  S  S3  1  0.51664334  0.51664334  0.51664334  1
  S  S4  1  0.91664828  0.91664828  0.91664828  1
loop_
_geom_bond_atom_site_label_1
_geom_bond_atom_site_label_2
_geom_bond_distance
_geom_bond_site_symmetry_2
S0 Zn4 2.332040 1_445
S0 Zn4 2.332041 1_544
S0 Zn4 2.332041 1_454
S0 Zn3 2.337458 1_555
S1 Zn2 2.332938 1_556
S1 Zn2 2.332938 1_655
S1 Zn2 2.332938 1_565
S1 Zn4 2.333619 1_555
S2 Zn3 2.332938 1_665
S2 Zn3 2.332938 1_656
S2 Zn3 2.332938 1_566
S2 Zn0 2.335934 1_555
S3 Zn1 2.332858 1_554
S3 Zn1 2.332858 1_455
S3 Zn1 2.332858 1_545
S3 Zn2 2.337298 1_555
S4 Zn0 2.332803 1_556
S4 Zn0 2.332803 1_565
S4 Zn0 2.332803 1_655
S4 Zn1 2.335835 1_555
