# generated using pymatgen
data_LiFe(SeO3)2
_symmetry_space_group_name_H-M   'P 1'
_cell_length_a   9.19981554
_cell_length_b   9.19981554
_cell_length_c   9.19981554
_cell_angle_alpha   107.74157546
_cell_angle_beta   107.74157546
_cell_angle_gamma   112.98881853
_symmetry_Int_Tables_number   1
_chemical_formula_structural   LiFe(SeO3)2
_chemical_formula_sum   'Li4 Fe4 Se8 O24'
_cell_volume   597.69269264
_cell_formula_units_Z   4
loop_
 _symmetry_equiv_pos_site_id
 _symmetry_equiv_pos_as_xyz
  1  'x, y, z'
loop_
 _atom_site_type_symbol
 _atom_site_label
 _atom_site_symmetry_multiplicity
 _atom_site_fract_x
 _atom_site_fract_y
 _atom_site_fract_z
 _atom_site_occupancy
  Li  Li0  1  0.12500000  0.43958500  0.81458500  1
  Li  Li1  1  0.56041500  0.37500000  0.68541500  1
  Li  Li2  1  0.62500000  0.31041500  0.18541500  1
  Li  Li3  1  0.68958500  0.87500000  0.31458500  1
  Fe  Fe0  1  0.41244400  0.87500000  0.03744400  1
  Fe  Fe1  1  0.62500000  0.58755600  0.46255600  1
  Fe  Fe2  1  0.12500000  0.16244400  0.53744400  1
  Fe  Fe3  1  0.83755600  0.37500000  0.96255600  1
  Se  Se0  1  0.93272900  0.71305300  0.32898600  1
  Se  Se1  1  0.96305300  0.68272900  0.82898600  1
  Se  Se2  1  0.39625800  0.06727100  0.78032500  1
  Se  Se3  1  0.86593300  0.03694700  0.71967500  1
  Se  Se4  1  0.28694700  0.61593300  0.21967500  1
  Se  Se5  1  0.85374200  0.13406700  0.17101400  1
  Se  Se6  1  0.38406700  0.60374200  0.67101400  1
  Se  Se7  1  0.31727100  0.14625800  0.28032500  1
  O  O0  1  0.82485600  0.46146500  0.77967700  1
  O  O1  1  0.32220300  0.16351500  0.47650300  1
  O  O2  1  0.04108800  0.24947500  0.37236800  1
  O  O3  1  0.53853500  0.31821200  0.36339100  1
  O  O4  1  0.41351500  0.07220300  0.97650300  1
  O  O5  1  0.09570000  0.43701200  0.02349700  1
  O  O6  1  0.56298800  0.58648500  0.65868800  1
  O  O7  1  0.75052500  0.12289200  0.79161200  1
  O  O8  1  0.15430000  0.67779700  0.84131200  1
  O  O9  1  0.83648500  0.31298800  0.15868800  1
  O  O10  1  0.42514400  0.70482100  0.13660900  1
  O  O11  1  0.56821200  0.28853500  0.86339100  1
  O  O12  1  0.33128000  0.95891200  0.20838800  1
  O  O13  1  0.37289200  0.50052500  0.29161200  1
  O  O14  1  0.49947500  0.79108800  0.87236800  1
  O  O15  1  0.92779700  0.90430000  0.34131200  1
  O  O16  1  0.68701200  0.84570000  0.52349700  1
  O  O17  1  0.91872000  0.62710800  0.12763200  1
  O  O18  1  0.87710800  0.66872000  0.62763200  1
  O  O19  1  0.68178800  0.04517900  0.22032300  1
  O  O20  1  0.20891200  0.08128000  0.70838800  1
  O  O21  1  0.71146500  0.57485600  0.27967700  1
  O  O22  1  0.95482100  0.17514400  0.63660900  1
  O  O23  1  0.29517900  0.43178800  0.72032300  1
loop_
_geom_bond_atom_site_label_1
_geom_bond_atom_site_label_2
_geom_bond_distance
_geom_bond_site_symmetry_2
Li0 O23 2.021280 1_555
Li0 O22 2.021280 1_455
Li0 O8 2.026228 1_555
Li0 O5 2.026228 1_556
Li1 O11 2.021280 1_555
Li1 O0 2.021280 1_555
Li1 O6 2.026228 1_555
Li1 O1 2.026228 1_555
Li2 O3 2.021280 1_555
Li2 O21 2.021280 1_555
Li2 O9 2.026228 1_555
Li2 O4 2.026228 1_554
Li3 O19 2.021280 1_565
Li3 O10 2.021280 1_555
Li3 O16 2.026228 1_555
Li3 O15 2.026228 1_555
Fe0 O14 2.013138 1_554
Fe0 O12 2.013146 1_555
Fe0 O8 2.053084 1_554
Fe0 O4 2.053084 1_564
Fe0 O19 2.060460 1_565
Fe0 O10 2.060460 1_555
Fe1 O18 2.013146 1_555
Fe1 O13 2.013148 1_555
Fe1 O16 2.053084 1_555
Fe1 O6 2.053084 1_555
Fe1 O21 2.060460 1_555
Fe1 O3 2.060460 1_555
Fe2 O2 2.013138 1_555
Fe2 O20 2.013146 1_555
Fe2 O1 2.053084 1_555
Fe2 O15 2.053084 1_445
Fe2 O23 2.060460 1_555
Fe2 O22 2.060460 1_455
Fe3 O17 2.013146 1_556
Fe3 O7 2.013148 1_555
Fe3 O9 2.053084 1_556
Fe3 O5 2.053084 1_656
Fe3 O0 2.060460 1_555
Fe3 O11 2.060460 1_555
O0 Se1 1.740704 1_555
O1 Se7 1.747687 1_555
O2 Se5 1.719163 1_455
O3 Se7 1.740703 1_555
O4 Se2 1.747687 1_555
O5 Se4 1.747690 1_555
O6 Se6 1.747690 1_555
O7 Se3 1.719154 1_555
O8 Se1 1.747694 1_455
O9 Se5 1.747690 1_555
O10 Se4 1.740696 1_555
O11 Se2 1.740703 1_555
O12 Se7 1.719167 1_565
O13 Se4 1.719154 1_555
O14 Se6 1.719163 1_555
O15 Se0 1.747694 1_555
O16 Se3 1.747690 1_565
O17 Se0 1.719158 1_555
O18 Se1 1.719158 1_555
O19 Se5 1.740696 1_555
O20 Se2 1.719167 1_555
O21 Se0 1.740704 1_555
O22 Se3 1.740696 1_555
O23 Se6 1.740696 1_555
