# generated using pymatgen
data_ZnAu2(CN)4
_symmetry_space_group_name_H-M   'P 1'
_cell_length_a   8.77613178
_cell_length_b   8.77613178
_cell_length_c   20.26545700
_cell_angle_alpha   90.00000000
_cell_angle_beta   90.00000000
_cell_angle_gamma   119.99999831
_symmetry_Int_Tables_number   1
_chemical_formula_structural   ZnAu2(CN)4
_chemical_formula_sum   'Zn6 Au12 C24 N24'
_cell_volume   1351.74045698
_cell_formula_units_Z   6
loop_
 _symmetry_equiv_pos_site_id
 _symmetry_equiv_pos_as_xyz
  1  'x, y, z'
loop_
 _atom_site_type_symbol
 _atom_site_label
 _atom_site_symmetry_multiplicity
 _atom_site_fract_x
 _atom_site_fract_y
 _atom_site_fract_z
 _atom_site_occupancy
  Zn  Zn0  1  0.50000000  0.50000000  0.04127600  1
  Zn  Zn1  1  0.00000000  0.50000000  0.70794200  1
  Zn  Zn2  1  0.50000000  0.00000000  0.37460900  1
  Zn  Zn3  1  0.00000000  0.50000000  0.95872400  1
  Zn  Zn4  1  0.50000000  0.00000000  0.62539100  1
  Zn  Zn5  1  0.50000000  0.50000000  0.29205800  1
  Au  Au0  1  0.00243000  0.68443800  0.20700400  1
  Au  Au1  1  0.31799300  0.00243000  0.87367000  1
  Au  Au2  1  0.68443800  0.68200700  0.54033700  1
  Au  Au3  1  0.31556200  0.31799300  0.54033700  1
  Au  Au4  1  0.68200700  0.99757000  0.87367000  1
  Au  Au5  1  0.31799300  0.31556200  0.79299600  1
  Au  Au6  1  0.99757000  0.68200700  0.45966300  1
  Au  Au7  1  0.99757000  0.31556200  0.20700400  1
  Au  Au8  1  0.68443800  0.00243000  0.12633000  1
  Au  Au9  1  0.31556200  0.99757000  0.12633000  1
  Au  Au10  1  0.68200700  0.68443800  0.79299600  1
  Au  Au11  1  0.00243000  0.31799300  0.45966300  1
  C  C0  1  0.21523400  0.39989400  0.86182100  1
  C  C1  1  0.81534000  0.21523400  0.52848700  1
  C  C2  1  0.39989400  0.18466000  0.19515400  1
  C  C3  1  0.60010600  0.81534000  0.19515400  1
  C  C4  1  0.18466000  0.78476600  0.52848700  1
  C  C5  1  0.81534000  0.60010600  0.13817900  1
  C  C6  1  0.78476600  0.18466000  0.80484600  1
  C  C7  1  0.78476600  0.60010600  0.86182100  1
  C  C8  1  0.39989400  0.21523400  0.47151300  1
  C  C9  1  0.60010600  0.78476600  0.47151300  1
  C  C10  1  0.18466000  0.39989400  0.13817900  1
  C  C11  1  0.21523400  0.81534000  0.80484600  1
  C  C12  1  0.78637000  0.18495700  0.05585000  1
  C  C13  1  0.60141200  0.78637000  0.72251700  1
  C  C14  1  0.18495700  0.39858800  0.38918300  1
  C  C15  1  0.81504300  0.60141200  0.38918300  1
  C  C16  1  0.39858800  0.21363000  0.72251700  1
  C  C17  1  0.60141200  0.81504300  0.94415000  1
  C  C18  1  0.21363000  0.39858800  0.61081700  1
  C  C19  1  0.21363000  0.81504300  0.05585000  1
  C  C20  1  0.18495700  0.78637000  0.27748300  1
  C  C21  1  0.81504300  0.21363000  0.27748300  1
  C  C22  1  0.39858800  0.18495700  0.94415000  1
  C  C23  1  0.78637000  0.60141200  0.61081700  1
  N  N0  1  0.14719500  0.44278500  0.90138000  1
  N  N1  1  0.70441000  0.14719500  0.56804600  1
  N  N2  1  0.44278500  0.29559000  0.23471300  1
  N  N3  1  0.55721500  0.70441000  0.23471300  1
  N  N4  1  0.29559000  0.85280500  0.56804600  1
  N  N5  1  0.70441000  0.55721500  0.09862000  1
  N  N6  1  0.85280500  0.29559000  0.76528700  1
  N  N7  1  0.85280500  0.55721500  0.90138000  1
  N  N8  1  0.44278500  0.14719500  0.43195400  1
  N  N9  1  0.55721500  0.85280500  0.43195400  1
  N  N10  1  0.29559000  0.44278500  0.09862000  1
  N  N11  1  0.14719500  0.70441000  0.76528700  1
  N  N12  1  0.85540200  0.29557800  0.01624300  1
  N  N13  1  0.55982400  0.85540200  0.68291000  1
  N  N14  1  0.29557800  0.44017600  0.34957600  1
  N  N15  1  0.70442200  0.55982400  0.34957600  1
  N  N16  1  0.44017600  0.14459800  0.68291000  1
  N  N17  1  0.55982400  0.70442200  0.98375700  1
  N  N18  1  0.14459800  0.44017600  0.65042400  1
  N  N19  1  0.14459800  0.70442200  0.01624300  1
  N  N20  1  0.29557800  0.85540200  0.31709000  1
  N  N21  1  0.70442200  0.14459800  0.31709000  1
  N  N22  1  0.44017600  0.29557800  0.98375700  1
  N  N23  1  0.85540200  0.55982400  0.65042400  1
loop_
_geom_bond_atom_site_label_1
_geom_bond_atom_site_label_2
_geom_bond_distance
_geom_bond_site_symmetry_2
Au0 C20 1.993312 1_555
Au0 C5 1.993455 1_455
Au1 C22 1.993327 1_555
Au1 C11 1.993441 1_545
Au2 C23 1.993327 1_555
Au2 C9 1.993446 1_555
Au3 C18 1.993327 1_555
Au3 C8 1.993446 1_555
Au4 C17 1.993327 1_555
Au4 C6 1.993441 1_565
Au5 C16 1.993312 1_555
Au5 C0 1.993461 1_555
Au6 C15 1.993327 1_555
Au6 C4 1.993441 1_655
Au7 C21 1.993312 1_555
Au7 C10 1.993455 1_655
Au8 C12 1.993327 1_555
Au8 C3 1.993441 1_545
Au9 C19 1.993327 1_555
Au9 C2 1.993441 1_565
Au10 C13 1.993312 1_555
Au10 C7 1.993461 1_555
Au11 C14 1.993327 1_555
Au11 C1 1.993441 1_455
C0 N0 1.168632 1_555
C1 N1 1.168632 1_555
C2 N2 1.168632 1_555
C3 N3 1.168632 1_555
C4 N4 1.168632 1_555
C5 N5 1.168632 1_555
C6 N6 1.168632 1_555
C7 N7 1.168632 1_555
C8 N8 1.168632 1_555
C9 N9 1.168632 1_555
C10 N10 1.168632 1_555
C11 N11 1.168632 1_555
C12 N12 1.168602 1_555
C13 N13 1.168597 1_555
C14 N14 1.168603 1_555
C15 N15 1.168603 1_555
C16 N16 1.168597 1_555
C17 N17 1.168603 1_555
C18 N18 1.168597 1_555
C19 N19 1.168602 1_555
C20 N20 1.168602 1_555
C21 N21 1.168602 1_555
C22 N22 1.168603 1_555
C23 N23 1.168597 1_555
N0 Zn3 1.979903 1_555
N1 Zn4 1.979915 1_555
N2 Zn5 1.979915 1_555
N3 Zn5 1.979915 1_555
N4 Zn4 1.979915 1_565
N5 Zn0 1.979903 1_555
N6 Zn1 1.979915 1_655
N7 Zn3 1.979903 1_655
N8 Zn2 1.979915 1_555
N9 Zn2 1.979915 1_565
N10 Zn0 1.979903 1_555
N11 Zn1 1.979915 1_555
N12 Zn3 1.977634 1_654
N13 Zn4 1.977634 1_565
N14 Zn5 1.977622 1_555
N15 Zn5 1.977622 1_555
N16 Zn4 1.977634 1_555
N17 Zn0 1.977634 1_556
N18 Zn1 1.977622 1_555
N19 Zn3 1.977634 1_554
N20 Zn2 1.977634 1_565
N21 Zn2 1.977634 1_555
N22 Zn0 1.977634 1_556
N23 Zn1 1.977622 1_655
