# generated using pymatgen
data_K10In5Sb9
_symmetry_space_group_name_H-M   'P 1'
_cell_length_a   12.53481400
_cell_length_b   17.09083200
_cell_length_c   18.93159287
_cell_angle_alpha   59.44172316
_cell_angle_beta   90.00000000
_cell_angle_gamma   90.00000000
_symmetry_Int_Tables_number   1
_chemical_formula_structural   K10In5Sb9
_chemical_formula_sum   'K40 In20 Sb36'
_cell_volume   3492.43347169
_cell_formula_units_Z   4
loop_
 _symmetry_equiv_pos_site_id
 _symmetry_equiv_pos_as_xyz
  1  'x, y, z'
loop_
 _atom_site_type_symbol
 _atom_site_label
 _atom_site_symmetry_multiplicity
 _atom_site_fract_x
 _atom_site_fract_y
 _atom_site_fract_z
 _atom_site_occupancy
  K  K0  1  0.14884600  0.24013200  0.32740900  1
  K  K1  1  0.59372400  0.24771800  0.32287300  1
  K  K2  1  0.36685500  0.90355800  0.03550000  1
  K  K3  1  0.88992400  0.19983400  0.61027600  1
  K  K4  1  0.85977300  0.36351600  0.96536900  1
  K  K5  1  0.90287400  0.64317100  0.52402700  1
  K  K6  1  0.37959900  0.07982700  0.46685800  1
  K  K7  1  0.90627600  0.24771800  0.82287300  1
  K  K8  1  0.13381100  0.75414100  0.78605800  1
  K  K9  1  0.86618900  0.24585900  0.21394200  1
  K  K10  1  0.14022700  0.63648400  0.03463100  1
  K  K11  1  0.35115400  0.24013200  0.82740900  1
  K  K12  1  0.36618900  0.75414100  0.28605800  1
  K  K13  1  0.13314500  0.90355800  0.53550000  1
  K  K14  1  0.63641500  0.56235500  0.85745900  1
  K  K15  1  0.09372400  0.75228200  0.17712700  1
  K  K16  1  0.64688200  0.79175700  0.39547000  1
  K  K17  1  0.12040100  0.07982700  0.96685800  1
  K  K18  1  0.63381100  0.24585900  0.71394200  1
  K  K19  1  0.14688200  0.20824300  0.10453000  1
  K  K20  1  0.13641500  0.43764500  0.64254100  1
  K  K21  1  0.64884600  0.75986800  0.17259100  1
  K  K22  1  0.63314500  0.09644200  0.96450000  1
  K  K23  1  0.61007600  0.19983400  0.11027600  1
  K  K24  1  0.40287400  0.35682900  0.97597300  1
  K  K25  1  0.09712600  0.35682900  0.47597300  1
  K  K26  1  0.85115400  0.75986800  0.67259100  1
  K  K27  1  0.64022700  0.36351600  0.46536900  1
  K  K28  1  0.62040100  0.92017300  0.53314200  1
  K  K29  1  0.85311800  0.79175700  0.89547000  1
  K  K30  1  0.86358500  0.56235500  0.35745900  1
  K  K31  1  0.59712600  0.64317100  0.02402700  1
  K  K32  1  0.87959900  0.92017300  0.03314200  1
  K  K33  1  0.38992400  0.80016600  0.88972400  1
  K  K34  1  0.35311800  0.20824300  0.60453000  1
  K  K35  1  0.35977300  0.63648400  0.53463100  1
  K  K36  1  0.36358500  0.43764500  0.14254100  1
  K  K37  1  0.86685500  0.09644200  0.46450000  1
  K  K38  1  0.40627600  0.75228200  0.67712700  1
  K  K39  1  0.11007600  0.80016600  0.38972400  1
  In  In0  1  0.02028300  0.47979800  0.22874200  1
  In  In1  1  0.52028300  0.52020200  0.27125800  1
  In  In2  1  0.50099600  0.00796000  0.30681700  1
  In  In3  1  0.27763300  0.53256700  0.77625900  1
  In  In4  1  0.25101800  0.01211100  0.81005000  1
  In  In5  1  0.47971700  0.47979800  0.72874200  1
  In  In6  1  0.75101800  0.98788900  0.68995000  1
  In  In7  1  0.49900400  0.99204000  0.69318300  1
  In  In8  1  0.36927900  0.49174700  0.44773600  1
  In  In9  1  0.77763300  0.46743300  0.72374100  1
  In  In10  1  0.74898200  0.98788900  0.18995000  1
  In  In11  1  0.00099600  0.99204000  0.19318300  1
  In  In12  1  0.24898200  0.01211100  0.31005000  1
  In  In13  1  0.97971700  0.52020200  0.77125800  1
  In  In14  1  0.13072100  0.49174700  0.94773600  1
  In  In15  1  0.22236700  0.53256700  0.27626000  1
  In  In16  1  0.63072100  0.50825300  0.55226400  1
  In  In17  1  0.99900400  0.00796000  0.80681700  1
  In  In18  1  0.72236700  0.46743300  0.22374100  1
  In  In19  1  0.86927900  0.50825300  0.05226400  1
  Sb  Sb0  1  0.12364600  0.65526000  0.64714100  1
  Sb  Sb1  1  0.51800000  0.96207700  0.17460500  1
  Sb  Sb2  1  0.12278500  0.17729700  0.74574800  1
  Sb  Sb3  1  0.48200000  0.03792300  0.82539500  1
  Sb  Sb4  1  0.87450100  0.90085500  0.44425900  1
  Sb  Sb5  1  0.16612300  0.58750100  0.39899900  1
  Sb  Sb6  1  0.23042300  0.96570600  0.17706900  1
  Sb  Sb7  1  0.43183100  0.39815700  0.62082600  1
  Sb  Sb8  1  0.56816900  0.60184300  0.37917400  1
  Sb  Sb9  1  0.62278500  0.82270300  0.75425200  1
  Sb  Sb10  1  0.33387700  0.58750100  0.89899900  1
  Sb  Sb11  1  0.93183100  0.60184300  0.87917400  1
  Sb  Sb12  1  0.62364600  0.34474000  0.85285900  1
  Sb  Sb13  1  0.37450100  0.09914500  0.05574100  1
  Sb  Sb14  1  0.86146300  0.63051900  0.12238700  1
  Sb  Sb15  1  0.66612300  0.41249900  0.10100100  1
  Sb  Sb16  1  0.12549900  0.09914500  0.55574100  1
  Sb  Sb17  1  0.83387700  0.41249900  0.60100100  1
  Sb  Sb18  1  0.62273300  0.12664700  0.55415700  1
  Sb  Sb19  1  0.63853700  0.63051900  0.62238700  1
  Sb  Sb20  1  0.06816900  0.39815700  0.12082600  1
  Sb  Sb21  1  0.73042300  0.03429400  0.32293100  1
  Sb  Sb22  1  0.01800000  0.03792300  0.32539500  1
  Sb  Sb23  1  0.37721500  0.17729700  0.24574800  1
  Sb  Sb24  1  0.37726700  0.87335300  0.44584300  1
  Sb  Sb25  1  0.36146300  0.36948100  0.37761300  1
  Sb  Sb26  1  0.87721500  0.82270300  0.25425200  1
  Sb  Sb27  1  0.87726700  0.12664700  0.05415700  1
  Sb  Sb28  1  0.76957700  0.03429400  0.82293100  1
  Sb  Sb29  1  0.87635400  0.34474000  0.35285900  1
  Sb  Sb30  1  0.98200000  0.96207700  0.67460500  1
  Sb  Sb31  1  0.37635400  0.65526000  0.14714100  1
  Sb  Sb32  1  0.13853700  0.36948100  0.87761300  1
  Sb  Sb33  1  0.26957700  0.96570600  0.67706900  1
  Sb  Sb34  1  0.12273300  0.87335300  0.94584300  1
  Sb  Sb35  1  0.62549900  0.90085500  0.94425900  1
loop_
_geom_bond_atom_site_label_1
_geom_bond_atom_site_label_2
_geom_bond_distance
_geom_bond_site_symmetry_2
K0 Sb20 3.587759 1_555
K0 Sb23 3.664114 1_555
K0 Sb16 3.739814 1_555
K0 Sb22 3.843026 1_555
K0 Sb25 3.876825 1_555
K0 Sb29 3.996370 1_455
K1 Sb23 3.568272 1_555
K1 Sb15 3.790736 1_555
K1 Sb18 3.791188 1_555
K1 Sb25 4.009175 1_555
K1 Sb21 4.029509 1_555
K1 Sb29 4.071835 1_555
K2 Sb13 3.554215 1_565
K2 Sb31 3.656437 1_555
K2 Sb34 3.660902 1_554
K2 Sb35 3.684818 1_554
K2 Sb3 3.726953 1_564
K2 Sb6 3.759057 1_555
K2 Sb1 3.768696 1_555
K3 Sb17 3.617447 1_555
K3 Sb2 3.773773 1_655
K3 Sb30 3.780874 1_545
K3 Sb16 3.814892 1_655
K3 Sb28 3.860849 1_555
K3 Sb18 3.906616 1_555
K3 Sb29 4.199917 1_555
K4 Sb27 3.513241 1_556
K4 Sb11 3.648437 1_555
K4 Sb12 3.754374 1_555
K4 Sb32 3.848131 1_655
K4 Sb15 3.920709 1_556
K5 Sb17 3.545730 1_555
K5 Sb0 3.690917 1_655
K5 Sb19 3.752800 1_555
K5 Sb4 3.878131 1_555
K6 Sb23 3.634242 1_555
K6 Sb16 3.694621 1_555
K6 Sb33 3.694718 1_545
K6 Sb18 3.742273 1_555
K6 Sb24 3.746893 1_545
K7 Sb2 3.568272 1_655
K7 Sb17 3.790736 1_555
K7 Sb27 3.791188 1_556
K7 Sb32 4.009175 1_655
K7 Sb28 4.029509 1_555
K7 Sb12 4.071835 1_555
K8 Sb11 3.409822 1_455
K8 Sb33 3.555480 1_555
K8 Sb10 3.574903 1_555
K8 Sb30 3.616350 1_455
K8 Sb0 3.782582 1_555
K9 Sb20 3.409822 1_655
K9 Sb21 3.555480 1_555
K9 Sb15 3.574903 1_555
K9 Sb22 3.616350 1_655
K9 Sb29 3.782582 1_555
K10 Sb34 3.513241 1_554
K10 Sb20 3.648437 1_555
K10 Sb31 3.754374 1_555
K10 Sb14 3.848131 1_455
K10 Sb10 3.920709 1_554
K11 Sb7 3.587759 1_555
K11 Sb2 3.664114 1_555
K11 Sb13 3.739814 1_556
K11 Sb3 3.843026 1_555
K11 Sb32 3.876825 1_555
K11 Sb12 3.996370 1_555
K12 Sb8 3.409822 1_555
K12 Sb6 3.555480 1_555
K12 Sb5 3.574903 1_555
K12 Sb1 3.616350 1_555
K12 Sb31 3.782582 1_555
K13 Sb16 3.554215 1_565
K13 Sb0 3.656437 1_555
K13 Sb24 3.660902 1_555
K13 Sb4 3.684818 1_455
K13 Sb22 3.726953 1_565
K13 Sb33 3.759057 1_555
K13 Sb30 3.768696 1_455
K14 Sb12 3.767645 1_555
K14 Sb11 3.823438 1_555
K14 Sb9 3.847757 1_555
K14 Sb10 3.940563 1_555
K14 Sb19 3.986377 1_555
K14 Sb15 3.993606 1_556
K15 Sb26 3.568272 1_455
K15 Sb5 3.790736 1_555
K15 Sb34 3.791188 1_554
K15 Sb14 4.009175 1_455
K15 Sb6 4.029509 1_555
K15 Sb31 4.071835 1_555
K16 Sb8 3.552747 1_555
K16 Sb19 3.744614 1_555
K16 Sb4 3.771142 1_555
K16 Sb26 3.784873 1_555
K16 Sb21 3.791642 1_565
K16 Sb24 3.953224 1_555
K16 Sb1 4.023738 1_555
K17 Sb2 3.634242 1_555
K17 Sb13 3.694621 1_556
K17 Sb6 3.694718 1_546
K17 Sb27 3.742273 1_456
K17 Sb34 3.746893 1_545
K18 Sb7 3.409822 1_555
K18 Sb28 3.555480 1_555
K18 Sb17 3.574903 1_555
K18 Sb3 3.616350 1_555
K18 Sb12 3.782582 1_555
K19 Sb20 3.552747 1_555
K19 Sb32 3.744614 1_554
K19 Sb13 3.771142 1_555
K19 Sb23 3.784873 1_555
K19 Sb6 3.791642 1_545
K19 Sb27 3.953224 1_455
K19 Sb22 4.023738 1_555
K20 Sb0 3.767645 1_555
K20 Sb7 3.823438 1_555
K20 Sb2 3.847757 1_555
K20 Sb17 3.940563 1_455
K20 Sb32 3.986377 1_555
K20 Sb5 3.993606 1_555
K21 Sb8 3.587759 1_555
K21 Sb26 3.664114 1_555
K21 Sb35 3.739814 1_554
K21 Sb1 3.843026 1_555
K21 Sb14 3.876825 1_555
K21 Sb31 3.996370 1_555
K22 Sb35 3.554215 1_545
K22 Sb12 3.656437 1_555
K22 Sb27 3.660902 1_556
K22 Sb13 3.684818 1_556
K22 Sb1 3.726953 1_546
K22 Sb28 3.759057 1_555
K22 Sb3 3.768696 1_555
K23 Sb15 3.617447 1_555
K23 Sb23 3.773773 1_555
K23 Sb1 3.780874 1_545
K23 Sb13 3.814892 1_555
K23 Sb21 3.860849 1_555
K23 Sb27 3.906616 1_555
K23 Sb12 4.199917 1_554
K24 Sb10 3.545730 1_555
K24 Sb12 3.690917 1_555
K24 Sb32 3.752800 1_555
K24 Sb13 3.878131 1_556
K25 Sb5 3.545730 1_555
K25 Sb29 3.690917 1_455
K25 Sb25 3.752800 1_555
K25 Sb16 3.878131 1_555
K26 Sb11 3.587759 1_555
K26 Sb9 3.664114 1_555
K26 Sb4 3.739814 1_555
K26 Sb30 3.843026 1_555
K26 Sb19 3.876825 1_555
K26 Sb0 3.996370 1_655
K27 Sb18 3.513241 1_555
K27 Sb8 3.648437 1_555
K27 Sb29 3.754374 1_555
K27 Sb25 3.848131 1_555
K27 Sb17 3.920709 1_555
K28 Sb9 3.634242 1_555
K28 Sb4 3.694621 1_555
K28 Sb21 3.694718 1_565
K28 Sb24 3.742273 1_555
K28 Sb18 3.746893 1_565
K29 Sb11 3.552747 1_555
K29 Sb14 3.744614 1_556
K29 Sb35 3.771142 1_555
K29 Sb9 3.784873 1_555
K29 Sb28 3.791642 1_565
K29 Sb34 3.953224 1_655
K29 Sb30 4.023738 1_555
K30 Sb29 3.767645 1_555
K30 Sb8 3.823438 1_555
K30 Sb26 3.847757 1_555
K30 Sb5 3.940563 1_655
K30 Sb14 3.986377 1_555
K30 Sb17 3.993606 1_555
K31 Sb15 3.545730 1_555
K31 Sb31 3.690917 1_555
K31 Sb14 3.752800 1_555
K31 Sb35 3.878131 1_554
K32 Sb26 3.634242 1_555
K32 Sb35 3.694621 1_554
K32 Sb28 3.694718 1_564
K32 Sb34 3.742273 1_654
K32 Sb27 3.746893 1_565
K33 Sb10 3.617447 1_555
K33 Sb9 3.773773 1_555
K33 Sb3 3.780874 1_565
K33 Sb35 3.814892 1_555
K33 Sb33 3.860849 1_555
K33 Sb34 3.906616 1_555
K33 Sb31 4.199917 1_556
K34 Sb7 3.552747 1_555
K34 Sb25 3.744614 1_555
K34 Sb16 3.771142 1_555
K34 Sb2 3.784873 1_555
K34 Sb33 3.791642 1_545
K34 Sb18 3.953224 1_555
K34 Sb3 4.023738 1_555
K35 Sb24 3.513241 1_555
K35 Sb7 3.648437 1_555
K35 Sb0 3.754374 1_555
K35 Sb19 3.848131 1_555
K35 Sb5 3.920709 1_555
K36 Sb31 3.767645 1_555
K36 Sb20 3.823438 1_555
K36 Sb23 3.847757 1_555
K36 Sb15 3.940563 1_555
K36 Sb25 3.986377 1_555
K36 Sb10 3.993606 1_554
K37 Sb4 3.554215 1_545
K37 Sb29 3.656437 1_555
K37 Sb18 3.660902 1_555
K37 Sb16 3.684818 1_655
K37 Sb30 3.726953 1_545
K37 Sb21 3.759057 1_555
K37 Sb22 3.768696 1_655
K38 Sb9 3.568272 1_555
K38 Sb10 3.790736 1_555
K38 Sb24 3.791188 1_555
K38 Sb19 4.009175 1_555
K38 Sb33 4.029509 1_555
K38 Sb0 4.071835 1_555
K39 Sb5 3.617447 1_555
K39 Sb26 3.773773 1_455
K39 Sb22 3.780874 1_565
K39 Sb4 3.814892 1_455
K39 Sb6 3.860849 1_555
K39 Sb24 3.906616 1_555
K39 Sb0 4.199917 1_555
In0 Sb29 2.930714 1_455
In0 In15 2.977266 1_555
In0 Sb14 3.062497 1_455
In0 Sb20 3.062638 1_555
In0 K10 3.595764 1_555
In0 K0 3.883829 1_555
In0 K30 3.909354 1_455
In1 Sb31 2.930714 1_555
In1 In18 2.977257 1_555
In1 Sb25 3.062497 1_555
In1 Sb8 3.062638 1_555
In1 K27 3.595764 1_555
In1 K21 3.883829 1_555
In1 K36 3.909354 1_555
In2 Sb24 2.910035 1_545
In2 Sb21 2.950526 1_555
In2 Sb23 2.952559 1_555
In2 Sb1 2.986823 1_545
In2 K16 3.675391 1_545
In2 K23 3.749774 1_555
In2 K28 4.038946 1_545
In2 K6 4.097331 1_555
In3 In5 2.977257 1_555
In3 Sb0 2.980922 1_555
In3 Sb10 2.999375 1_555
In3 Sb32 3.008721 1_555
In3 K38 3.613483 1_555
In3 K24 3.772759 1_555
In3 K20 4.043471 1_555
In4 Sb2 2.922542 1_555
In4 Sb34 2.935889 1_545
In4 Sb3 2.965160 1_555
In4 Sb33 3.008556 1_545
In4 K33 3.587794 1_545
In4 K34 3.840695 1_555
In4 K2 3.964271 1_546
In4 K17 4.040573 1_555
In5 Sb12 2.930714 1_555
In5 Sb19 3.062497 1_555
In5 Sb7 3.062638 1_555
In5 K35 3.595764 1_555
In5 K11 3.883829 1_555
In5 K14 3.909354 1_555
In6 Sb9 2.922542 1_555
In6 Sb18 2.935889 1_565
In6 Sb30 2.965160 1_555
In6 Sb28 3.008556 1_565
In6 In7 3.161036 1_555
In6 K3 3.587794 1_565
In6 K29 3.840695 1_555
In6 K37 3.964271 1_565
In6 K28 4.040573 1_555
In7 Sb18 2.910035 1_565
In7 Sb33 2.950526 1_555
In7 Sb9 2.952559 1_555
In7 Sb3 2.986823 1_565
In7 K34 3.675391 1_565
In7 K33 3.749774 1_555
In7 K6 4.038946 1_565
In7 K28 4.097331 1_555
In8 Sb5 2.911856 1_555
In8 Sb7 2.929418 1_555
In8 Sb8 2.992853 1_555
In8 Sb25 2.993201 1_555
In8 K35 3.602405 1_555
In9 Sb12 2.980922 1_555
In9 Sb17 2.999375 1_555
In9 Sb19 3.008721 1_555
In9 K7 3.613483 1_555
In9 K5 3.772759 1_555
In9 K14 4.043471 1_555
In10 Sb26 2.922542 1_555
In10 Sb27 2.935889 1_565
In10 Sb1 2.965160 1_555
In10 Sb21 3.008556 1_565
In10 In11 3.161036 1_655
In10 K23 3.587794 1_565
In10 K16 3.840695 1_555
In10 K22 3.964271 1_564
In10 K32 4.040573 1_555
In11 Sb27 2.910035 1_465
In11 Sb6 2.950526 1_555
In11 Sb26 2.952559 1_455
In11 Sb22 2.986823 1_565
In11 K19 3.675391 1_565
In11 K39 3.749774 1_555
In11 K17 4.038946 1_564
In11 K32 4.097331 1_455
In12 Sb23 2.922542 1_555
In12 Sb24 2.935889 1_545
In12 Sb22 2.965160 1_555
In12 Sb6 3.008556 1_545
In12 In2 3.161036 1_555
In12 K39 3.587794 1_545
In12 K19 3.840695 1_555
In12 K13 3.964271 1_545
In12 K6 4.040573 1_555
In13 Sb0 2.930714 1_655
In13 In9 2.977257 1_555
In13 Sb32 3.062497 1_655
In13 Sb11 3.062638 1_555
In13 K4 3.595764 1_555
In13 K26 3.883829 1_555
In13 K20 3.909354 1_655
In14 Sb10 2.911856 1_555
In14 Sb20 2.929418 1_556
In14 Sb11 2.992853 1_455
In14 Sb32 2.993201 1_555
In14 K10 3.602405 1_556
In15 Sb31 2.980930 1_555
In15 Sb5 2.999357 1_555
In15 Sb25 3.008718 1_555
In15 K15 3.613483 1_555
In15 K25 3.772748 1_555
In15 K36 4.043487 1_555
In16 Sb17 2.911856 1_555
In16 Sb8 2.929418 1_555
In16 Sb7 2.992853 1_555
In16 Sb19 2.993201 1_555
In16 K27 3.602405 1_555
In17 Sb34 2.910035 1_645
In17 Sb28 2.950526 1_555
In17 Sb2 2.952559 1_655
In17 Sb30 2.986823 1_545
In17 In4 3.161036 1_655
In17 K29 3.675391 1_545
In17 K3 3.749774 1_555
In17 K32 4.038946 1_546
In17 K17 4.097331 1_655
In18 Sb29 2.980922 1_555
In18 Sb15 2.999375 1_555
In18 Sb14 3.008721 1_555
In18 K1 3.613483 1_555
In18 K31 3.772759 1_555
In18 K30 4.043471 1_555
In19 Sb15 2.911856 1_555
In19 Sb11 2.929418 1_554
In19 Sb20 2.992853 1_655
In19 Sb14 2.993201 1_555
In19 K4 3.602405 1_554
Sb1 Sb13 2.902892 1_565
Sb3 Sb35 2.902892 1_545
Sb13 Sb6 2.900355 1_545
Sb16 Sb33 2.900355 1_545
Sb16 Sb30 2.902892 1_445
Sb21 Sb4 2.900355 1_545
Sb22 Sb4 2.902892 1_445
Sb28 Sb35 2.900355 1_545
