# generated using pymatgen
data_H24OsC8(NF3)2
_symmetry_space_group_name_H-M   'P 1'
_cell_length_a   8.22289841
_cell_length_b   8.22289841
_cell_length_c   8.22289918
_cell_angle_alpha   59.50304714
_cell_angle_beta   59.50304714
_cell_angle_gamma   59.50305135
_symmetry_Int_Tables_number   1
_chemical_formula_structural   H24OsC8(NF3)2
_chemical_formula_sum   'H24 Os1 C8 N2 F6'
_cell_volume   388.70807324
_cell_formula_units_Z   1
loop_
 _symmetry_equiv_pos_site_id
 _symmetry_equiv_pos_as_xyz
  1  'x, y, z'
loop_
 _atom_site_type_symbol
 _atom_site_label
 _atom_site_symmetry_multiplicity
 _atom_site_fract_x
 _atom_site_fract_y
 _atom_site_fract_z
 _atom_site_occupancy
  H  H0  1  0.28484200  0.97419300  0.25233100  1
  H  H1  1  0.28311700  0.25149600  0.48747800  1
  H  H2  1  0.50761600  0.98791700  0.23053300  1
  H  H3  1  0.49238400  0.01208300  0.76946700  1
  H  H4  1  0.97419400  0.25233100  0.28484200  1
  H  H5  1  0.46578000  0.30701000  0.96022800  1
  H  H6  1  0.25149600  0.48747800  0.28311700  1
  H  H7  1  0.74850400  0.51252200  0.71688300  1
  H  H8  1  0.69299000  0.03977200  0.53422000  1
  H  H9  1  0.96022800  0.46578000  0.30701000  1
  H  H10  1  0.02580700  0.74766900  0.71515800  1
  H  H11  1  0.71515800  0.02580700  0.74766900  1
  H  H12  1  0.98791700  0.23053300  0.50761600  1
  H  H13  1  0.71688300  0.74850400  0.51252200  1
  H  H14  1  0.23053300  0.50761600  0.98791700  1
  H  H15  1  0.01208300  0.76946700  0.49238400  1
  H  H16  1  0.48747800  0.28311700  0.25149600  1
  H  H17  1  0.76946700  0.49238400  0.01208300  1
  H  H18  1  0.30701000  0.96022800  0.46578000  1
  H  H19  1  0.51252200  0.71688300  0.74850400  1
  H  H20  1  0.53422000  0.69299000  0.03977200  1
  H  H21  1  0.74766900  0.71515800  0.02580700  1
  H  H22  1  0.03977200  0.53422000  0.69299000  1
  H  H23  1  0.25233100  0.28484200  0.97419300  1
  Os  Os0  1  0.00000000  0.00000000  0.00000000  1
  C  C0  1  0.97464600  0.69662200  0.65585000  1
  C  C1  1  0.67651100  0.67651100  0.67651100  1
  C  C2  1  0.69662200  0.65585000  0.97464600  1
  C  C3  1  0.34415000  0.02535400  0.30337800  1
  C  C4  1  0.02535400  0.30337800  0.34415000  1
  C  C5  1  0.65585000  0.97464600  0.69662200  1
  C  C6  1  0.30337800  0.34415000  0.02535400  1
  C  C7  1  0.32348900  0.32348900  0.32348900  1
  N  N0  1  0.24922100  0.24922100  0.24922100  1
  N  N1  1  0.75077900  0.75077900  0.75077900  1
  F  F0  1  0.19388000  0.83218900  0.14051400  1
  F  F1  1  0.85948600  0.80612000  0.16781100  1
  F  F2  1  0.16781100  0.85948600  0.80612000  1
  F  F3  1  0.14051400  0.19388000  0.83218900  1
  F  F4  1  0.83218900  0.14051400  0.19388000  1
  F  F5  1  0.80612000  0.16781100  0.85948600  1
loop_
_geom_bond_atom_site_label_1
_geom_bond_atom_site_label_2
_geom_bond_distance
_geom_bond_site_symmetry_2
C0 H10 1.089155 1_655
C0 H22 1.090678 1_655
C0 H15 1.100134 1_655
C0 N1 1.502868 1_555
C1 H19 1.101764 1_555
C1 H7 1.101764 1_555
C1 H13 1.101764 1_555
C1 N1 1.501493 1_555
C2 H21 1.089155 1_556
C2 H20 1.090678 1_556
C2 H17 1.100134 1_556
C2 N1 1.502868 1_555
C3 H0 1.089155 1_545
C3 H18 1.090678 1_545
C3 H2 1.100134 1_545
C3 N0 1.502868 1_555
C4 H4 1.089148 1_455
C4 H9 1.090678 1_455
C4 H12 1.100134 1_455
C4 N0 1.502868 1_555
C5 H11 1.089155 1_565
C5 H8 1.090678 1_565
C5 H3 1.100134 1_565
C5 N1 1.502868 1_555
C6 H23 1.089155 1_554
C6 H5 1.090678 1_554
C6 H14 1.100134 1_554
C6 N0 1.502868 1_555
C7 H16 1.101764 1_555
C7 H6 1.101764 1_555
C7 H1 1.101764 1_555
C7 N0 1.501493 1_555
F0 Os0 1.949181 1_565
F1 Os0 1.949180 1_665
F2 Os0 1.949181 1_566
F3 Os0 1.949180 1_556
F4 Os0 1.949181 1_655
F5 Os0 1.949181 1_656
