# generated using pymatgen
data_KCu(BiS2)2
_symmetry_space_group_name_H-M   'P 1'
_cell_length_a   7.26076113
_cell_length_b   7.26076113
_cell_length_c   14.44453100
_cell_angle_alpha   90.00000000
_cell_angle_beta   90.00000000
_cell_angle_gamma   147.65191071
_symmetry_Int_Tables_number   1
_chemical_formula_structural   KCu(BiS2)2
_chemical_formula_sum   'K2 Cu2 Bi4 S8'
_cell_volume   407.44738068
_cell_formula_units_Z   2
loop_
 _symmetry_equiv_pos_site_id
 _symmetry_equiv_pos_as_xyz
  1  'x, y, z'
loop_
 _atom_site_type_symbol
 _atom_site_label
 _atom_site_symmetry_multiplicity
 _atom_site_fract_x
 _atom_site_fract_y
 _atom_site_fract_z
 _atom_site_occupancy
  K  K0  1  0.88824000  0.11176000  0.99373300  1
  K  K1  1  0.11176000  0.88824000  0.49373300  1
  Cu  Cu0  1  0.85346200  0.14653800  0.52474100  1
  Cu  Cu1  1  0.14653800  0.85346200  0.02474100  1
  Bi  Bi0  1  0.65092600  0.34907400  0.20445000  1
  Bi  Bi1  1  0.34907400  0.65092600  0.70445000  1
  Bi  Bi2  1  0.61765700  0.38234300  0.82114200  1
  Bi  Bi3  1  0.38234300  0.61765700  0.32114200  1
  S  S0  1  0.01714400  0.98285600  0.27429200  1
  S  S1  1  0.98285600  0.01714400  0.77429200  1
  S  S2  1  0.42875700  0.57124300  0.50198800  1
  S  S3  1  0.26790400  0.73209600  0.13851900  1
  S  S4  1  0.74823400  0.25176600  0.36683400  1
  S  S5  1  0.57124300  0.42875700  0.00198800  1
  S  S6  1  0.25176600  0.74823400  0.86683400  1
  S  S7  1  0.73209600  0.26790400  0.63851900  1
loop_
_geom_bond_atom_site_label_1
_geom_bond_atom_site_label_2
_geom_bond_distance
_geom_bond_site_symmetry_2
K0 S5 3.258692 1_546
K0 S5 3.258692 1_656
K0 S6 3.327659 1_655
K0 S6 3.327659 1_545
K0 S3 3.358737 1_656
K0 S3 3.358737 1_546
K0 S1 3.433431 1_555
K1 S2 3.258692 1_565
K1 S2 3.258692 1_455
K1 S4 3.327659 1_455
K1 S4 3.327659 1_565
K1 S7 3.358737 1_565
K1 S7 3.358737 1_455
K1 S0 3.433431 1_555
Cu0 S2 2.302475 1_655
Cu0 S2 2.302475 1_545
Cu0 S7 2.359258 1_555
Cu0 S4 2.712248 1_555
Cu1 S5 2.302475 1_565
Cu1 S5 2.302475 1_455
Cu1 S3 2.359258 1_555
Cu1 S6 2.712248 1_554
Bi0 S4 2.709882 1_555
Bi0 S3 2.767536 1_655
Bi0 S3 2.767536 1_545
Bi0 S0 2.930815 1_545
Bi0 S0 2.930815 1_655
Bi0 S5 3.128506 1_555
Bi1 S6 2.709882 1_555
Bi1 S7 2.767536 1_565
Bi1 S7 2.767536 1_455
Bi1 S1 2.930815 1_565
Bi1 S1 2.930815 1_455
Bi1 S2 3.128506 1_555
Bi2 S5 2.691246 1_556
Bi2 S6 2.832767 1_655
Bi2 S6 2.832767 1_545
Bi2 S1 2.843083 1_455
Bi2 S1 2.843083 1_565
Bi2 S7 3.083167 1_555
Bi3 S2 2.691246 1_555
Bi3 S4 2.832767 1_565
Bi3 S4 2.832767 1_455
Bi3 S0 2.843083 1_545
Bi3 S0 2.843083 1_655
Bi3 S3 3.083167 1_555
