# generated using pymatgen
data_Er(GeRh)2
_symmetry_space_group_name_H-M   'P 1'
_cell_length_a   4.09238461
_cell_length_b   4.09238408
_cell_length_c   5.88405446
_cell_angle_alpha   110.34987383
_cell_angle_beta   110.34987682
_cell_angle_gamma   90.00000495
_symmetry_Int_Tables_number   1
_chemical_formula_structural   Er(GeRh)2
_chemical_formula_sum   'Er1 Ge2 Rh2'
_cell_volume   85.80318389
_cell_formula_units_Z   1
loop_
 _symmetry_equiv_pos_site_id
 _symmetry_equiv_pos_as_xyz
  1  'x, y, z'
loop_
 _atom_site_type_symbol
 _atom_site_label
 _atom_site_symmetry_multiplicity
 _atom_site_fract_x
 _atom_site_fract_y
 _atom_site_fract_z
 _atom_site_occupancy
  Er  Er0  1  -0.00000000  -0.00000000  0.00000000  1
  Ge  Ge0  1  0.37917992  0.37917992  0.75836084  1
  Ge  Ge1  1  0.62082008  0.62082008  0.24163916  1
  Rh  Rh0  1  0.25000000  0.75000000  0.50000000  1
  Rh  Rh1  1  0.75000000  0.25000000  0.50000000  1
loop_
_geom_bond_atom_site_label_1
_geom_bond_atom_site_label_2
_geom_bond_distance
_geom_bond_site_symmetry_2
Er0 Ge0 3.147445 1_554
Er0 Ge1 3.147445 1_445
Er0 Ge1 3.147448 1_545
Er0 Ge0 3.147448 1_454
Er0 Ge1 3.147448 1_455
Er0 Ge0 3.147448 1_544
Er0 Ge1 3.147451 1_555
Er0 Ge0 3.147451 1_444
Er0 Rh0 3.278563 1_545
Er0 Rh1 3.278563 1_454
Er0 Rh0 3.278563 1_544
Er0 Rh1 3.278563 1_455
Er0 Rh1 3.278563 1_444
Er0 Rh0 3.278563 1_555
Er0 Rh0 3.278564 1_444
Er0 Rh1 3.278564 1_555
Ge0 Rh0 2.437002 1_545
Ge0 Rh1 2.437002 1_455
Ge0 Rh0 2.437005 1_555
Ge0 Rh1 2.437005 1_555
Ge0 Ge1 2.475984 1_556
Ge1 Rh1 2.437002 1_565
Ge1 Rh0 2.437002 1_655
Ge1 Rh1 2.437005 1_555
Ge1 Rh0 2.437005 1_555
