# generated using pymatgen
data_ZnS
_symmetry_space_group_name_H-M   'P 1'
_cell_length_a   3.80713769
_cell_length_b   3.80713602
_cell_length_c   56.05799151
_cell_angle_alpha   90.00000000
_cell_angle_beta   90.00000000
_cell_angle_gamma   119.99999674
_symmetry_Int_Tables_number   1
_chemical_formula_structural   ZnS
_chemical_formula_sum   'Zn18 S18'
_cell_volume   703.66371434
_cell_formula_units_Z   18
loop_
 _symmetry_equiv_pos_site_id
 _symmetry_equiv_pos_as_xyz
  1  'x, y, z'
loop_
 _atom_site_type_symbol
 _atom_site_label
 _atom_site_symmetry_multiplicity
 _atom_site_fract_x
 _atom_site_fract_y
 _atom_site_fract_z
 _atom_site_occupancy
  Zn  Zn0  1  0.00000000  -0.00000000  0.16669763  1
  Zn  Zn1  1  0.33333300  0.66666700  0.72222986  1
  Zn  Zn2  1  0.66666700  0.33333300  0.27776713  1
  Zn  Zn3  1  -0.00000000  0.00000000  0.44453989  1
  Zn  Zn4  1  0.33333300  0.66666700  0.55556835  1
  Zn  Zn5  1  0.00000000  0.00000000  0.66669938  1
  Zn  Zn6  1  0.33333300  0.66666700  0.05558375  1
  Zn  Zn7  1  0.66666700  0.33333300  0.61113102  1
  Zn  Zn8  1  0.66666700  0.33333300  0.11110349  1
  Zn  Zn9  1  0.33333300  0.66666700  0.22224444  1
  Zn  Zn10  1  0.66666700  0.33333300  0.77777899  1
  Zn  Zn11  1  0.66666700  0.33333300  0.94448536  1
  Zn  Zn12  1  0.33333300  0.66666700  0.38892099  1
  Zn  Zn13  1  0.00000000  0.00000000  0.33334482  1
  Zn  Zn14  1  0.33333300  0.66666700  0.83342941  1
  Zn  Zn15  1  0.00000000  0.00000000  0.00007689  1
  Zn  Zn16  1  0.66666700  0.33333300  0.49999047  1
  Zn  Zn17  1  -0.00000000  0.00000000  0.88889269  1
  S  S0  1  0.66666700  0.33333300  0.98614869  1
  S  S1  1  0.33333300  0.66666700  0.43059145  1
  S  S2  1  0.00000000  -0.00000000  0.04166785  1
  S  S3  1  0.66666700  0.33333300  0.65274251  1
  S  S4  1  0.66666700  0.33333300  0.15273282  1
  S  S5  1  0.33333300  0.66666700  0.09718490  1
  S  S6  1  0.33333300  0.66666700  0.76380975  1
  S  S7  1  0.00000000  0.00000000  0.70831790  1
  S  S8  1  0.66666700  0.33333300  0.81946575  1
  S  S9  1  0.00000000  0.00000000  0.37494369  1
  S  S10  1  0.66666700  0.33333300  0.31939627  1
  S  S11  1  0.00000000  -0.00000000  0.93048253  1
  S  S12  1  0.00000000  0.00000000  0.48610460  1
  S  S13  1  0.33333300  0.66666700  0.26385164  1
  S  S14  1  0.66666700  0.33333300  0.54158145  1
  S  S15  1  0.00000000  -0.00000000  0.20831815  1
  S  S16  1  0.33333300  0.66666700  0.87500295  1
  S  S17  1  0.33333300  0.66666700  0.59722255  1
loop_
_geom_bond_atom_site_label_1
_geom_bond_atom_site_label_2
_geom_bond_distance
_geom_bond_site_symmetry_2
S0 Zn15 2.332606 1_656
S0 Zn15 2.332608 1_666
S0 Zn15 2.332609 1_556
S0 Zn11 2.335563 1_555
S1 Zn3 2.332986 1_565
S1 Zn3 2.332988 1_555
S1 Zn3 2.332989 1_665
S1 Zn12 2.335962 1_555
S2 Zn15 2.331506 1_555
S2 Zn6 2.332375 1_545
S2 Zn6 2.332378 1_555
S2 Zn6 2.332379 1_445
S3 Zn7 2.332657 1_555
S3 Zn5 2.333144 1_655
S3 Zn5 2.333147 1_665
S3 Zn5 2.333148 1_555
S4 Zn0 2.333293 1_655
S4 Zn0 2.333296 1_665
S4 Zn0 2.333297 1_555
S4 Zn8 2.333657 1_555
S5 Zn6 2.332077 1_555
S5 Zn8 2.332425 1_565
S5 Zn8 2.332426 1_455
S5 Zn8 2.332432 1_555
S6 Zn1 2.330885 1_555
S6 Zn10 2.333376 1_565
S6 Zn10 2.333377 1_455
S6 Zn10 2.333383 1_555
S7 Zn1 2.332301 1_545
S7 Zn1 2.332304 1_555
S7 Zn1 2.332305 1_445
S7 Zn5 2.333051 1_555
S8 Zn14 2.333271 1_545
S8 Zn14 2.333272 1_655
S8 Zn14 2.333278 1_555
S8 Zn10 2.336876 1_555
S9 Zn13 2.331949 1_555
S9 Zn12 2.333528 1_545
S9 Zn12 2.333531 1_555
S9 Zn12 2.333532 1_445
S10 Zn13 2.332988 1_655
S10 Zn13 2.332990 1_665
S10 Zn13 2.332991 1_555
S10 Zn2 2.333646 1_555
S11 Zn17 2.331443 1_555
S11 Zn11 2.334009 1_455
S11 Zn11 2.334012 1_445
S11 Zn11 2.334013 1_555
S12 Zn3 2.330034 1_555
S12 Zn16 2.331812 1_455
S12 Zn16 2.331815 1_445
S12 Zn16 2.331816 1_555
S13 Zn2 2.332367 1_565
S13 Zn2 2.332368 1_455
S13 Zn2 2.332373 1_555
S13 Zn9 2.332416 1_555
S14 Zn16 2.331507 1_555
S14 Zn4 2.333709 1_545
S14 Zn4 2.333710 1_655
S14 Zn4 2.333715 1_555
S15 Zn9 2.332570 1_545
S15 Zn9 2.332572 1_555
S15 Zn9 2.332573 1_445
S15 Zn0 2.333163 1_555
S16 Zn14 2.330529 1_555
S16 Zn17 2.331885 1_565
S16 Zn17 2.331888 1_555
S16 Zn17 2.331888 1_665
S17 Zn7 2.332235 1_565
S17 Zn7 2.332236 1_455
S17 Zn7 2.332242 1_555
S17 Zn4 2.335051 1_555
