# generated using pymatgen
data_VAs2H4O9
_symmetry_space_group_name_H-M   'P 1'
_cell_length_a   9.31698100
_cell_length_b   9.31698100
_cell_length_c   8.25435600
_cell_angle_alpha   90.00000000
_cell_angle_beta   90.00000000
_cell_angle_gamma   90.00000000
_symmetry_Int_Tables_number   1
_chemical_formula_structural   VAs2H4O9
_chemical_formula_sum   'V4 As8 H16 O36'
_cell_volume   716.52874090
_cell_formula_units_Z   4
loop_
 _symmetry_equiv_pos_site_id
 _symmetry_equiv_pos_as_xyz
  1  'x, y, z'
loop_
 _atom_site_type_symbol
 _atom_site_label
 _atom_site_symmetry_multiplicity
 _atom_site_fract_x
 _atom_site_fract_y
 _atom_site_fract_z
 _atom_site_occupancy
  V  V0  1  0.00000000  0.50000000  0.19696400  1
  V  V1  1  0.50000000  0.00000000  0.30303600  1
  V  V2  1  0.50000000  0.00000000  0.80303600  1
  V  V3  1  0.00000000  0.50000000  0.69696400  1
  As  As0  1  0.28494000  0.71506000  0.25000000  1
  As  As1  1  0.21506000  0.21506000  0.25000000  1
  As  As2  1  0.78494000  0.78494000  0.25000000  1
  As  As3  1  0.71506000  0.28494000  0.25000000  1
  As  As4  1  0.21506000  0.78494000  0.75000000  1
  As  As5  1  0.28494000  0.28494000  0.75000000  1
  As  As6  1  0.71506000  0.71506000  0.75000000  1
  As  As7  1  0.78494000  0.21506000  0.75000000  1
  H  H0  1  0.45881500  0.67203000  0.05307800  1
  H  H1  1  0.17203000  0.04118500  0.05307800  1
  H  H2  1  0.82797000  0.95881500  0.05307800  1
  H  H3  1  0.54118500  0.32797000  0.05307800  1
  H  H4  1  0.04118500  0.17203000  0.44692200  1
  H  H5  1  0.95881500  0.82797000  0.44692200  1
  H  H6  1  0.67203000  0.45881500  0.44692200  1
  H  H7  1  0.32797000  0.54118500  0.44692200  1
  H  H8  1  0.04118500  0.82797000  0.94692200  1
  H  H9  1  0.32797000  0.45881500  0.94692200  1
  H  H10  1  0.67203000  0.54118500  0.94692200  1
  H  H11  1  0.95881500  0.17203000  0.94692200  1
  H  H12  1  0.45881500  0.32797000  0.55307800  1
  H  H13  1  0.54118500  0.67203000  0.55307800  1
  H  H14  1  0.82797000  0.04118500  0.55307800  1
  H  H15  1  0.17203000  0.95881500  0.55307800  1
  O  O0  1  0.36177200  0.63399700  0.07695300  1
  O  O1  1  0.13399700  0.13822800  0.07695300  1
  O  O2  1  0.86600300  0.86177200  0.07695300  1
  O  O3  1  0.63822800  0.36600300  0.07695300  1
  O  O4  1  0.13822800  0.13399700  0.42304700  1
  O  O5  1  0.86177200  0.86600300  0.42304700  1
  O  O6  1  0.63399700  0.36177200  0.42304700  1
  O  O7  1  0.36600300  0.63822800  0.42304700  1
  O  O8  1  0.13822800  0.86600300  0.92304700  1
  O  O9  1  0.36600300  0.36177200  0.92304700  1
  O  O10  1  0.63399700  0.63822800  0.92304700  1
  O  O11  1  0.86177200  0.13399700  0.92304700  1
  O  O12  1  0.36177200  0.36600300  0.57695300  1
  O  O13  1  0.63822800  0.63399700  0.57695300  1
  O  O14  1  0.86600300  0.13822800  0.57695300  1
  O  O15  1  0.13399700  0.86177200  0.57695300  1
  O  O16  1  0.10644500  0.68297500  0.24384500  1
  O  O17  1  0.18297500  0.39355500  0.24384500  1
  O  O18  1  0.81702500  0.60644500  0.24384500  1
  O  O19  1  0.89355500  0.31702500  0.24384500  1
  O  O20  1  0.39355500  0.18297500  0.25615500  1
  O  O21  1  0.60644500  0.81702500  0.25615500  1
  O  O22  1  0.68297500  0.10644500  0.25615500  1
  O  O23  1  0.31702500  0.89355500  0.25615500  1
  O  O24  1  0.39355500  0.81702500  0.75615500  1
  O  O25  1  0.31702500  0.10644500  0.75615500  1
  O  O26  1  0.68297500  0.89355500  0.75615500  1
  O  O27  1  0.60644500  0.18297500  0.75615500  1
  O  O28  1  0.10644500  0.31702500  0.74384500  1
  O  O29  1  0.89355500  0.68297500  0.74384500  1
  O  O30  1  0.81702500  0.39355500  0.74384500  1
  O  O31  1  0.18297500  0.60644500  0.74384500  1
  O  O32  1  0.00000000  0.50000000  0.99709200  1
  O  O33  1  0.50000000  0.00000000  0.50290800  1
  O  O34  1  0.50000000  0.00000000  0.00290800  1
  O  O35  1  0.00000000  0.50000000  0.49709200  1
loop_
_geom_bond_atom_site_label_1
_geom_bond_atom_site_label_2
_geom_bond_distance
_geom_bond_site_symmetry_2
As0 O23 1.690452 1_555
As0 O16 1.690452 1_555
As0 O0 1.767245 1_555
As0 O7 1.767245 1_555
As1 O20 1.690452 1_555
As1 O17 1.690452 1_555
As1 O1 1.767245 1_555
As1 O4 1.767245 1_555
As2 O18 1.690452 1_555
As2 O21 1.690452 1_555
As2 O2 1.767245 1_555
As2 O5 1.767245 1_555
As3 O19 1.690452 1_555
As3 O22 1.690452 1_555
As3 O6 1.767245 1_555
As3 O3 1.767245 1_555
As4 O31 1.690452 1_555
As4 O24 1.690452 1_555
As4 O8 1.767245 1_555
As4 O15 1.767245 1_555
As5 O25 1.690452 1_555
As5 O28 1.690452 1_555
As5 O9 1.767245 1_555
As5 O12 1.767245 1_555
As6 O26 1.690452 1_555
As6 O29 1.690452 1_555
As6 O13 1.767245 1_555
As6 O10 1.767245 1_555
As7 O27 1.690452 1_555
As7 O30 1.690452 1_555
As7 O11 1.767245 1_555
As7 O14 1.767245 1_555
H0 O0 0.990902 1_555
H1 O1 0.990902 1_555
H2 O2 0.990902 1_555
H3 O3 0.990902 1_555
H4 O4 0.990902 1_555
H5 O5 0.990902 1_555
H6 O6 0.990902 1_555
H7 O7 0.990902 1_555
H8 O8 0.990902 1_555
H9 O9 0.990902 1_555
H10 O10 0.990902 1_555
H11 O11 0.990902 1_555
H12 O12 0.990902 1_555
H13 O13 0.990902 1_555
H14 O14 0.990902 1_555
H15 O15 0.990902 1_555
O16 V0 2.009867 1_555
O17 V0 2.009867 1_555
O18 V0 2.009867 1_655
O19 V0 2.009867 1_655
O20 V1 2.009867 1_555
O21 V1 2.009867 1_565
O22 V1 2.009867 1_555
O23 V1 2.009867 1_565
O24 V2 2.009867 1_565
O25 V2 2.009867 1_555
O26 V2 2.009867 1_565
O27 V2 2.009867 1_555
O28 V3 2.009867 1_555
O29 V3 2.009867 1_655
O30 V3 2.009867 1_655
O31 V3 2.009867 1_555
O32 V0 1.649815 1_556
O32 V3 2.477363 1_555
O33 V1 1.649815 1_555
O33 V2 2.477363 1_555
O34 V2 1.649815 1_554
O34 V1 2.477363 1_555
O35 V3 1.649815 1_555
O35 V0 2.477363 1_555
