# generated using pymatgen
data_CdI2
_symmetry_space_group_name_H-M   'P 1'
_cell_length_a   4.33549182
_cell_length_b   4.33549182
_cell_length_c   89.31204200
_cell_angle_alpha   90.00000000
_cell_angle_beta   90.00000000
_cell_angle_gamma   119.99999723
_symmetry_Int_Tables_number   1
_chemical_formula_structural   CdI2
_chemical_formula_sum   'Cd12 I24'
_cell_volume   1453.84264878
_cell_formula_units_Z   12
loop_
 _symmetry_equiv_pos_site_id
 _symmetry_equiv_pos_as_xyz
  1  'x, y, z'
loop_
 _atom_site_type_symbol
 _atom_site_label
 _atom_site_symmetry_multiplicity
 _atom_site_fract_x
 _atom_site_fract_y
 _atom_site_fract_z
 _atom_site_occupancy
  Cd  Cd0  1  0.33333300  0.66666700  0.93750200  1
  Cd  Cd1  1  0.66666700  0.33333300  0.02085100  1
  Cd  Cd2  1  0.66666700  0.33333300  0.18749200  1
  Cd  Cd3  1  0.66666700  0.33333300  0.52084700  1
  Cd  Cd4  1  0.66666700  0.33333300  0.35417500  1
  Cd  Cd5  1  0.33333300  0.66666700  0.27082500  1
  Cd  Cd6  1  0.33333300  0.66666700  0.77081600  1
  Cd  Cd7  1  0.00000000  0.00000000  0.85415800  1
  Cd  Cd8  1  0.33333300  0.66666700  0.10415900  1
  Cd  Cd9  1  0.00000000  0.00000000  0.68749300  1
  Cd  Cd10  1  0.33333300  0.66666700  0.60416000  1
  Cd  Cd11  1  0.33333300  0.66666700  0.43749300  1
  I  I0  1  0.00000000  0.00000000  0.16818900  1
  I  I1  1  0.66666700  0.33333300  0.70680500  1
  I  I2  1  0.33333300  0.66666700  0.66818600  1
  I  I3  1  0.66666700  0.33333300  0.45680800  1
  I  I4  1  0.00000000  0.00000000  0.41818900  1
  I  I5  1  0.33333300  0.66666700  0.20680300  1
  I  I6  1  0.00000000  0.00000000  0.91819400  1
  I  I7  1  0.66666700  0.33333300  0.87346900  1
  I  I8  1  0.66666700  0.33333300  0.62346900  1
  I  I9  1  0.00000000  0.00000000  0.58486100  1
  I  I10  1  0.33333300  0.66666700  0.54015000  1
  I  I11  1  0.33333300  0.66666700  0.04015300  1
  I  I12  1  0.00000000  0.00000000  0.00155200  1
  I  I13  1  0.00000000  0.00000000  0.08485800  1
  I  I14  1  0.66666700  0.33333300  0.95682100  1
  I  I15  1  0.00000000  0.00000000  0.33487800  1
  I  I16  1  0.66666700  0.33333300  0.29013500  1
  I  I17  1  0.33333300  0.66666700  0.83485100  1
  I  I18  1  0.00000000  0.00000000  0.75149900  1
  I  I19  1  0.66666700  0.33333300  0.79014000  1
  I  I20  1  0.66666700  0.33333300  0.12346900  1
  I  I21  1  0.00000000  0.00000000  0.50154900  1
  I  I22  1  0.33333300  0.66666700  0.37348000  1
  I  I23  1  0.00000000  0.00000000  0.25152200  1
loop_
_geom_bond_atom_site_label_1
_geom_bond_atom_site_label_2
_geom_bond_distance
_geom_bond_site_symmetry_2
Cd0 I6 3.039600 1_565
Cd0 I6 3.039603 1_665
Cd0 I6 3.039603 1_555
Cd0 I14 3.040157 1_455
Cd0 I14 3.040157 1_565
Cd0 I14 3.040163 1_555
Cd1 I12 3.039144 1_655
Cd1 I12 3.039147 1_555
Cd1 I12 3.039147 1_665
Cd1 I11 3.039296 1_655
Cd1 I11 3.039296 1_545
Cd1 I11 3.039302 1_555
Cd2 I0 3.039346 1_655
Cd2 I0 3.039350 1_665
Cd2 I0 3.039350 1_555
Cd2 I5 3.039752 1_545
Cd2 I5 3.039752 1_655
Cd2 I5 3.039758 1_555
Cd3 I21 3.039093 1_655
Cd3 I21 3.039096 1_665
Cd3 I21 3.039096 1_555
Cd3 I10 3.039346 1_545
Cd3 I10 3.039346 1_655
Cd3 I10 3.039353 1_555
Cd4 I15 3.039042 1_655
Cd4 I15 3.039046 1_555
Cd4 I15 3.039046 1_665
Cd4 I22 3.039448 1_545
Cd4 I22 3.039448 1_655
Cd4 I22 3.039454 1_555
Cd5 I23 3.039346 1_565
Cd5 I23 3.039350 1_555
Cd5 I23 3.039350 1_665
Cd5 I16 3.039701 1_455
Cd5 I16 3.039701 1_565
Cd5 I16 3.039707 1_555
Cd6 I18 3.040056 1_565
Cd6 I18 3.040059 1_665
Cd6 I18 3.040059 1_555
Cd6 I19 3.040411 1_455
Cd6 I19 3.040411 1_565
Cd6 I19 3.040417 1_555
Cd7 I17 3.039549 1_545
Cd7 I17 3.039552 1_445
Cd7 I17 3.039552 1_555
Cd7 I7 3.039752 1_455
Cd7 I7 3.039755 1_555
Cd7 I7 3.039755 1_445
Cd8 I13 3.039245 1_565
Cd8 I13 3.039248 1_555
Cd8 I13 3.039248 1_665
Cd8 I20 3.039701 1_455
Cd8 I20 3.039701 1_565
Cd8 I20 3.039707 1_555
Cd9 I2 3.039549 1_545
Cd9 I2 3.039552 1_445
Cd9 I2 3.039552 1_555
Cd9 I1 3.039802 1_455
Cd9 I1 3.039806 1_555
Cd9 I1 3.039806 1_445
Cd10 I9 3.039144 1_565
Cd10 I9 3.039147 1_665
Cd10 I9 3.039147 1_555
Cd10 I8 3.039650 1_455
Cd10 I8 3.039650 1_565
Cd10 I8 3.039657 1_555
Cd11 I4 3.039397 1_565
Cd11 I4 3.039400 1_555
Cd11 I4 3.039400 1_665
Cd11 I3 3.039955 1_455
Cd11 I3 3.039955 1_565
Cd11 I3 3.039961 1_555
