# generated using pymatgen
data_Eu5Si3O12F
_symmetry_space_group_name_H-M   'P 1'
_cell_length_a   9.70390950
_cell_length_b   9.70390950
_cell_length_c   7.10643700
_cell_angle_alpha   90.00000000
_cell_angle_beta   90.00000000
_cell_angle_gamma   119.99999660
_symmetry_Int_Tables_number   1
_chemical_formula_structural   Eu5Si3O12F
_chemical_formula_sum   'Eu10 Si6 O24 F2'
_cell_volume   579.53014616
_cell_formula_units_Z   2
loop_
 _symmetry_equiv_pos_site_id
 _symmetry_equiv_pos_as_xyz
  1  'x, y, z'
loop_
 _atom_site_type_symbol
 _atom_site_label
 _atom_site_symmetry_multiplicity
 _atom_site_fract_x
 _atom_site_fract_y
 _atom_site_fract_z
 _atom_site_occupancy
  Eu  Eu0  1  0.25359000  0.24945000  0.75000000  1
  Eu  Eu1  1  0.75055000  0.00414000  0.75000000  1
  Eu  Eu2  1  0.66666700  0.33333300  0.50021600  1
  Eu  Eu3  1  0.33333300  0.66666700  0.00021600  1
  Eu  Eu4  1  0.99586000  0.74641000  0.75000000  1
  Eu  Eu5  1  0.66666700  0.33333300  0.99978400  1
  Eu  Eu6  1  0.74641000  0.75055000  0.25000000  1
  Eu  Eu7  1  0.00414000  0.25359000  0.25000000  1
  Eu  Eu8  1  0.33333300  0.66666700  0.49978400  1
  Eu  Eu9  1  0.24945000  0.99586000  0.25000000  1
  Si  Si0  1  0.63187600  0.02819400  0.25000000  1
  Si  Si1  1  0.60368300  0.63187600  0.75000000  1
  Si  Si2  1  0.97180600  0.60368300  0.25000000  1
  Si  Si3  1  0.02819400  0.39631700  0.75000000  1
  Si  Si4  1  0.39631700  0.36812400  0.25000000  1
  Si  Si5  1  0.36812400  0.97180600  0.75000000  1
  O  O0  1  0.12577900  0.59335200  0.75000000  1
  O  O1  1  0.24992400  0.90981300  0.56537300  1
  O  O2  1  0.32209500  0.48672000  0.25000000  1
  O  O3  1  0.75007600  0.09018700  0.06537300  1
  O  O4  1  0.65988900  0.75007600  0.93462700  1
  O  O5  1  0.40664800  0.53242800  0.75000000  1
  O  O6  1  0.09018700  0.34011100  0.56537300  1
  O  O7  1  0.53242800  0.12577900  0.25000000  1
  O  O8  1  0.90981300  0.65988900  0.43462700  1
  O  O9  1  0.59335200  0.46757200  0.25000000  1
  O  O10  1  0.48672000  0.16462500  0.75000000  1
  O  O11  1  0.34011100  0.24992400  0.43462700  1
  O  O12  1  0.46757200  0.87422100  0.75000000  1
  O  O13  1  0.16462500  0.67790500  0.25000000  1
  O  O14  1  0.83537500  0.32209500  0.75000000  1
  O  O15  1  0.24992400  0.90981300  0.93462700  1
  O  O16  1  0.09018700  0.34011100  0.93462700  1
  O  O17  1  0.75007600  0.09018700  0.43462700  1
  O  O18  1  0.67790500  0.51328000  0.75000000  1
  O  O19  1  0.65988900  0.75007600  0.56537300  1
  O  O20  1  0.87422100  0.40664800  0.25000000  1
  O  O21  1  0.34011100  0.24992400  0.06537300  1
  O  O22  1  0.51328000  0.83537500  0.25000000  1
  O  O23  1  0.90981300  0.65988900  0.06537300  1
  F  F0  1  0.00000000  0.00000000  0.25000000  1
  F  F1  1  0.00000000  0.00000000  0.75000000  1
loop_
_geom_bond_atom_site_label_1
_geom_bond_atom_site_label_2
_geom_bond_distance
_geom_bond_site_symmetry_2
Eu0 O5 2.380748 1_555
Eu0 O21 2.392479 1_556
Eu0 O11 2.392479 1_555
Eu0 F1 2.440975 1_555
Eu0 O6 2.530754 1_555
Eu0 O16 2.530754 1_555
Eu0 O10 2.767233 1_555
Eu1 O12 2.380749 1_545
Eu1 O3 2.392479 1_556
Eu1 O17 2.392479 1_555
Eu1 F1 2.440975 1_655
Eu1 O4 2.530754 1_545
Eu1 O19 2.530754 1_545
Eu1 O14 2.767233 1_555
Eu2 O14 2.453874 1_555
Eu2 O10 2.453878 1_555
Eu2 O18 2.453881 1_555
Eu2 O9 2.508302 1_555
Eu2 O20 2.508302 1_555
Eu2 O7 2.508302 1_555
Eu2 O17 2.889497 1_555
Eu2 O8 2.889503 1_555
Eu2 O11 2.889506 1_555
Eu3 O13 2.453874 1_555
Eu3 O22 2.453878 1_555
Eu3 O2 2.453881 1_555
Eu3 O5 2.508302 1_554
Eu3 O0 2.508302 1_554
Eu3 O12 2.508302 1_554
Eu3 O15 2.889497 1_554
Eu3 O16 2.889503 1_554
Eu3 O4 2.889506 1_554
Eu4 O0 2.380740 1_655
Eu4 O23 2.392479 1_556
Eu4 O8 2.392479 1_555
Eu4 F1 2.440975 1_665
Eu4 O1 2.530754 1_655
Eu4 O15 2.530754 1_655
Eu4 O18 2.767233 1_555
Eu5 O14 2.453874 1_555
Eu5 O10 2.453878 1_555
Eu5 O18 2.453881 1_555
Eu5 O9 2.508302 1_556
Eu5 O20 2.508302 1_556
Eu5 O7 2.508302 1_556
Eu5 O3 2.889497 1_556
Eu5 O23 2.889503 1_556
Eu5 O21 2.889506 1_556
Eu6 O9 2.380748 1_555
Eu6 O19 2.392479 1_555
Eu6 O4 2.392479 1_554
Eu6 F0 2.440975 1_665
Eu6 O23 2.530754 1_555
Eu6 O8 2.530754 1_555
Eu6 O22 2.767233 1_555
Eu7 O20 2.380740 1_455
Eu7 O6 2.392479 1_555
Eu7 O16 2.392479 1_554
Eu7 F0 2.440975 1_555
Eu7 O17 2.530754 1_455
Eu7 O3 2.530754 1_455
Eu7 O2 2.767233 1_555
Eu8 O13 2.453874 1_555
Eu8 O22 2.453878 1_555
Eu8 O2 2.453881 1_555
Eu8 O5 2.508302 1_555
Eu8 O0 2.508302 1_555
Eu8 O12 2.508302 1_555
Eu8 O1 2.889497 1_555
Eu8 O6 2.889503 1_555
Eu8 O19 2.889506 1_555
Eu9 O7 2.380749 1_565
Eu9 O1 2.392479 1_555
Eu9 O15 2.392479 1_554
Eu9 F0 2.440975 1_565
Eu9 O11 2.530754 1_565
Eu9 O21 2.530754 1_565
Eu9 O13 2.767233 1_555
O0 Si3 1.655874 1_555
O1 Si5 1.645888 1_555
O2 Si4 1.634651 1_555
O3 Si0 1.645888 1_555
O4 Si1 1.645888 1_555
O5 Si1 1.655874 1_555
O6 Si3 1.645883 1_555
O7 Si0 1.655857 1_555
O8 Si2 1.645883 1_555
O9 Si4 1.655874 1_555
O10 Si5 1.634659 1_545
O11 Si4 1.645888 1_555
O12 Si5 1.655857 1_555
O13 Si2 1.634660 1_455
O14 Si3 1.634660 1_655
O15 Si5 1.645888 1_555
O16 Si3 1.645883 1_555
O17 Si0 1.645888 1_555
O18 Si1 1.634651 1_555
O19 Si1 1.645888 1_555
O20 Si2 1.655874 1_555
O21 Si4 1.645888 1_555
O22 Si0 1.634659 1_565
O23 Si2 1.645883 1_555
