# generated using pymatgen
data_Ba5Fe5O14
_symmetry_space_group_name_H-M   'P 1'
_cell_length_a   5.89832425
_cell_length_b   5.89832425
_cell_length_c   24.71525800
_cell_angle_alpha   90.00000000
_cell_angle_beta   90.00000000
_cell_angle_gamma   120.30347333
_symmetry_Int_Tables_number   1
_chemical_formula_structural   Ba5Fe5O14
_chemical_formula_sum   'Ba10 Fe10 O28'
_cell_volume   742.36392004
_cell_formula_units_Z   2
loop_
 _symmetry_equiv_pos_site_id
 _symmetry_equiv_pos_as_xyz
  1  'x, y, z'
loop_
 _atom_site_type_symbol
 _atom_site_label
 _atom_site_symmetry_multiplicity
 _atom_site_fract_x
 _atom_site_fract_y
 _atom_site_fract_z
 _atom_site_occupancy
  Ba  Ba0  1  0.33294400  0.66705600  0.96109800  1
  Ba  Ba1  1  0.66705600  0.33294400  0.46109800  1
  Ba  Ba2  1  0.66705600  0.33294400  0.03890200  1
  Ba  Ba3  1  0.33294400  0.66705600  0.53890200  1
  Ba  Ba4  1  0.96559900  0.03440100  0.75000000  1
  Ba  Ba5  1  0.03440100  0.96559900  0.25000000  1
  Ba  Ba6  1  0.65494700  0.34505300  0.86093100  1
  Ba  Ba7  1  0.34505300  0.65494700  0.36093100  1
  Ba  Ba8  1  0.34505300  0.65494700  0.13906900  1
  Ba  Ba9  1  0.65494700  0.34505300  0.63906900  1
  Fe  Fe0  1  0.98939700  0.01060300  0.89315600  1
  Fe  Fe1  1  0.01060300  0.98939700  0.39315600  1
  Fe  Fe2  1  0.01060300  0.98939700  0.10684400  1
  Fe  Fe3  1  0.98939700  0.01060300  0.60684400  1
  Fe  Fe4  1  0.00000000  0.00000000  0.00000000  1
  Fe  Fe5  1  0.00000000  0.00000000  0.50000000  1
  Fe  Fe6  1  0.31846100  0.68153900  0.82163700  1
  Fe  Fe7  1  0.68153900  0.31846100  0.32163700  1
  Fe  Fe8  1  0.68153900  0.31846100  0.17836300  1
  Fe  Fe9  1  0.31846100  0.68153900  0.67836300  1
  O  O0  1  0.37689200  0.62310800  0.75000000  1
  O  O1  1  0.62310800  0.37689200  0.25000000  1
  O  O2  1  0.70621600  0.29378400  0.75000000  1
  O  O3  1  0.29378400  0.70621600  0.25000000  1
  O  O4  1  0.84841400  0.15158600  0.95593400  1
  O  O5  1  0.15158600  0.84841400  0.45593400  1
  O  O6  1  0.15158600  0.84841400  0.04406600  1
  O  O7  1  0.84841400  0.15158600  0.54406600  1
  O  O8  1  0.84854600  0.70769800  0.95095400  1
  O  O9  1  0.15145400  0.29230200  0.45095400  1
  O  O10  1  0.70769800  0.84854600  0.04904600  1
  O  O11  1  0.29230200  0.15145400  0.54904600  1
  O  O12  1  0.15145400  0.29230200  0.04904600  1
  O  O13  1  0.84854600  0.70769800  0.54904600  1
  O  O14  1  0.29230200  0.15145400  0.95095400  1
  O  O15  1  0.70769800  0.84854600  0.45095400  1
  O  O16  1  0.65082700  0.85747600  0.85488200  1
  O  O17  1  0.34917300  0.14252400  0.35488200  1
  O  O18  1  0.85747600  0.65082700  0.14511800  1
  O  O19  1  0.14252400  0.34917300  0.64511800  1
  O  O20  1  0.34917300  0.14252400  0.14511800  1
  O  O21  1  0.65082700  0.85747600  0.64511800  1
  O  O22  1  0.14252400  0.34917300  0.85488200  1
  O  O23  1  0.85747600  0.65082700  0.35488200  1
  O  O24  1  0.13945700  0.86054300  0.84056300  1
  O  O25  1  0.86054300  0.13945700  0.34056300  1
  O  O26  1  0.86054300  0.13945700  0.15943700  1
  O  O27  1  0.13945700  0.86054300  0.65943700  1
loop_
_geom_bond_atom_site_label_1
_geom_bond_atom_site_label_2
_geom_bond_distance
_geom_bond_site_symmetry_2
Ba0 O6 2.765532 1_556
Ba0 O12 2.892886 1_556
Ba0 O10 2.892886 1_556
Ba0 O8 2.938271 1_555
Ba0 O14 2.938271 1_555
Ba0 O4 2.942657 1_455
Ba0 O4 2.942657 1_565
Ba0 O14 2.995786 1_565
Ba0 O8 2.995786 1_455
Ba0 O16 3.089220 1_555
Ba0 O22 3.089220 1_555
Ba1 O7 2.765532 1_555
Ba1 O13 2.892886 1_555
Ba1 O11 2.892886 1_555
Ba1 O15 2.938271 1_555
Ba1 O9 2.938271 1_555
Ba1 O5 2.942657 1_545
Ba1 O5 2.942657 1_655
Ba1 O9 2.995786 1_655
Ba1 O15 2.995786 1_545
Ba1 O17 3.089220 1_555
Ba1 O23 3.089220 1_555
Ba2 O4 2.765532 1_554
Ba2 O8 2.892886 1_554
Ba2 O14 2.892886 1_554
Ba2 O12 2.938271 1_555
Ba2 O10 2.938271 1_555
Ba2 O6 2.942657 1_545
Ba2 O6 2.942657 1_655
Ba2 O12 2.995786 1_655
Ba2 O10 2.995786 1_545
Ba2 O20 3.089220 1_555
Ba2 O18 3.089220 1_555
Ba3 O5 2.765532 1_555
Ba3 O15 2.892886 1_555
Ba3 O9 2.892886 1_555
Ba3 O13 2.938271 1_555
Ba3 O11 2.938271 1_555
Ba3 O7 2.942657 1_455
Ba3 O7 2.942657 1_565
Ba3 O11 2.995786 1_565
Ba3 O13 2.995786 1_455
Ba3 O19 3.089220 1_555
Ba3 O21 3.089220 1_555
Ba4 O2 2.653950 1_555
Ba4 O24 2.859080 1_645
Ba4 O27 2.859080 1_645
Ba4 O22 3.049633 1_655
Ba4 O16 3.049633 1_545
Ba4 O19 3.049633 1_655
Ba4 O21 3.049633 1_545
Ba4 O0 3.072732 1_545
Ba4 O0 3.072732 1_655
Ba5 O3 2.653950 1_555
Ba5 O25 2.859080 1_465
Ba5 O26 2.859080 1_465
Ba5 O17 3.049633 1_565
Ba5 O20 3.049633 1_565
Ba5 O23 3.049633 1_455
Ba5 O18 3.049633 1_455
Ba5 O1 3.072732 1_565
Ba5 O1 3.072732 1_455
Ba6 O2 2.791421 1_555
Ba6 O22 2.867602 1_655
Ba6 O16 2.867602 1_545
Ba6 O8 2.892182 1_555
Ba6 O14 2.892182 1_555
Ba6 O24 2.982687 1_545
Ba6 O24 2.982687 1_655
Ba6 O16 3.038452 1_555
Ba6 O22 3.038452 1_555
Ba6 O4 3.071105 1_555
Ba7 O3 2.791421 1_555
Ba7 O17 2.867602 1_565
Ba7 O23 2.867602 1_455
Ba7 O15 2.892182 1_555
Ba7 O9 2.892182 1_555
Ba7 O25 2.982687 1_455
Ba7 O25 2.982687 1_565
Ba7 O23 3.038452 1_555
Ba7 O17 3.038452 1_555
Ba7 O5 3.071105 1_555
Ba8 O3 2.791421 1_555
Ba8 O20 2.867602 1_565
Ba8 O18 2.867602 1_455
Ba8 O10 2.892182 1_555
Ba8 O12 2.892182 1_555
Ba8 O26 2.982687 1_455
Ba8 O26 2.982687 1_565
Ba8 O18 3.038452 1_555
Ba8 O20 3.038452 1_555
Ba8 O6 3.071105 1_555
Ba9 O2 2.791421 1_555
Ba9 O19 2.867602 1_655
Ba9 O21 2.867602 1_545
Ba9 O13 2.892182 1_555
Ba9 O11 2.892182 1_555
Ba9 O27 2.982687 1_655
Ba9 O27 2.982687 1_545
Ba9 O21 3.038452 1_555
Ba9 O19 3.038452 1_555
Ba9 O7 3.071105 1_555
Fe0 O22 1.969360 1_655
Fe0 O16 1.969360 1_545
Fe0 O24 2.011717 1_645
Fe0 O14 2.103555 1_655
Fe0 O8 2.103555 1_545
Fe0 O4 2.118540 1_555
Fe1 O17 1.969360 1_565
Fe1 O23 1.969360 1_455
Fe1 O25 2.011717 1_465
Fe1 O9 2.103555 1_565
Fe1 O15 2.103555 1_455
Fe1 O5 2.118540 1_555
Fe2 O20 1.969360 1_565
Fe2 O18 1.969360 1_455
Fe2 O26 2.011717 1_465
Fe2 O12 2.103555 1_565
Fe2 O10 2.103555 1_455
Fe2 O6 2.118540 1_555
Fe3 O19 1.969360 1_655
Fe3 O21 1.969360 1_545
Fe3 O27 2.011717 1_645
Fe3 O11 2.103555 1_655
Fe3 O13 2.103555 1_545
Fe3 O7 2.118540 1_555
Fe4 O6 1.895186 1_545
Fe4 O4 1.895186 1_454
Fe4 O12 1.919800 1_555
Fe4 O14 1.919800 1_554
Fe4 O10 1.919800 1_445
Fe4 O8 1.919800 1_444
Fe5 O7 1.895186 1_455
Fe5 O5 1.895186 1_545
Fe5 O11 1.919800 1_555
Fe5 O13 1.919800 1_445
Fe5 O9 1.919800 1_555
Fe5 O15 1.919800 1_445
Fe6 O0 1.868741 1_555
Fe6 O16 1.882068 1_555
Fe6 O22 1.882068 1_555
Fe6 O24 1.890318 1_555
Fe7 O1 1.868741 1_555
Fe7 O23 1.882068 1_555
Fe7 O17 1.882068 1_555
Fe7 O25 1.890318 1_555
Fe8 O1 1.868741 1_555
Fe8 O18 1.882068 1_555
Fe8 O20 1.882068 1_555
Fe8 O26 1.890318 1_555
Fe9 O0 1.868741 1_555
Fe9 O21 1.882068 1_555
Fe9 O19 1.882068 1_555
Fe9 O27 1.890318 1_555
