# generated using pymatgen
data_SrZrO3
_symmetry_space_group_name_H-M   'P 1'
_cell_length_a   5.84404202
_cell_length_b   5.84404243
_cell_length_c   5.84404460
_cell_angle_alpha   120.84016562
_cell_angle_beta   120.84016029
_cell_angle_gamma   88.55086966
_symmetry_Int_Tables_number   1
_chemical_formula_structural   SrZrO3
_chemical_formula_sum   'Sr2 Zr2 O6'
_cell_volume   139.29130397
_cell_formula_units_Z   2
loop_
 _symmetry_equiv_pos_site_id
 _symmetry_equiv_pos_as_xyz
  1  'x, y, z'
loop_
 _atom_site_type_symbol
 _atom_site_label
 _atom_site_symmetry_multiplicity
 _atom_site_fract_x
 _atom_site_fract_y
 _atom_site_fract_z
 _atom_site_occupancy
  Sr  Sr0  1  0.24999994  0.74999997  0.50000000  1
  Sr  Sr1  1  0.75000000  0.25000017  0.50000019  1
  Zr  Zr0  1  0.49999988  0.50000010  -0.00000011  1
  Zr  Zr1  1  0.00000019  0.00000001  0.00000015  1
  O  O0  1  0.69176784  0.19176783  0.88353609  1
  O  O1  1  0.19176820  0.30823169  0.49999990  1
  O  O2  1  0.80823182  0.69176825  0.49999999  1
  O  O3  1  0.30823220  0.80823210  0.11646381  1
  O  O4  1  0.75000025  0.74999964  -0.00000002  1
  O  O5  1  0.24999967  0.25000024  -0.00000001  1
loop_
_geom_bond_atom_site_label_1
_geom_bond_atom_site_label_2
_geom_bond_distance
_geom_bond_site_symmetry_2
O0 Zr0 2.094495 1_556
O0 Zr1 2.094495 1_656
O0 Sr0 2.612560 1_545
O0 Sr1 2.612564 1_555
O1 Zr1 2.094493 1_555
O1 Zr0 2.094494 1_556
O1 Sr0 2.612563 1_555
O1 Sr1 2.612563 1_455
O2 Zr1 2.094494 1_666
O2 Zr0 2.094494 1_555
O2 Sr0 2.612562 1_655
O2 Sr1 2.612563 1_555
O3 Zr0 2.094493 1_555
O3 Zr1 2.094493 1_565
O3 Sr1 2.612560 1_565
O3 Sr0 2.612565 1_555
O4 Zr0 2.092143 1_555
O4 Zr1 2.092145 1_665
O4 Sr1 2.884834 1_554
O4 Sr0 2.884835 1_655
O4 Sr0 2.884838 1_554
O4 Sr1 2.884839 1_565
O5 Zr1 2.092144 1_555
O5 Zr0 2.092145 1_555
O5 Sr1 2.884835 1_454
O5 Sr0 2.884835 1_555
O5 Sr0 2.884838 1_544
O5 Sr1 2.884838 1_555
