# generated using pymatgen
data_Li4Ca(BO3)2
_symmetry_space_group_name_H-M   'P 1'
_cell_length_a   3.50884600
_cell_length_b   8.14579600
_cell_length_c   9.32077100
_cell_angle_alpha   90.00000000
_cell_angle_beta   90.00000000
_cell_angle_gamma   90.00000000
_symmetry_Int_Tables_number   1
_chemical_formula_structural   Li4Ca(BO3)2
_chemical_formula_sum   'Li8 Ca2 B4 O12'
_cell_volume   266.40948038
_cell_formula_units_Z   2
loop_
 _symmetry_equiv_pos_site_id
 _symmetry_equiv_pos_as_xyz
  1  'x, y, z'
loop_
 _atom_site_type_symbol
 _atom_site_label
 _atom_site_symmetry_multiplicity
 _atom_site_fract_x
 _atom_site_fract_y
 _atom_site_fract_z
 _atom_site_occupancy
  Li  Li0  1  0.00000000  0.48758800  0.19778300  1
  Li  Li1  1  0.00000000  0.51241200  0.80221700  1
  Li  Li2  1  0.50000000  0.01241200  0.69778300  1
  Li  Li3  1  0.50000000  0.98758800  0.30221700  1
  Li  Li4  1  0.50000000  0.66904800  0.95096800  1
  Li  Li5  1  0.50000000  0.33095200  0.04903200  1
  Li  Li6  1  0.00000000  0.83095200  0.45096800  1
  Li  Li7  1  0.00000000  0.16904800  0.54903200  1
  Ca  Ca0  1  0.50000000  0.50000000  0.50000000  1
  Ca  Ca1  1  0.00000000  0.00000000  0.00000000  1
  B  B0  1  0.50000000  0.72828500  0.20929900  1
  B  B1  1  0.50000000  0.27171500  0.79070100  1
  B  B2  1  0.00000000  0.77171500  0.70929900  1
  B  B3  1  0.00000000  0.22828500  0.29070100  1
  O  O0  1  0.50000000  0.75239300  0.35740800  1
  O  O1  1  0.50000000  0.24760700  0.64259200  1
  O  O2  1  0.00000000  0.74760700  0.85740800  1
  O  O3  1  0.00000000  0.25239300  0.14259200  1
  O  O4  1  0.50000000  0.57298900  0.14908100  1
  O  O5  1  0.50000000  0.42701100  0.85092000  1
  O  O6  1  0.00000000  0.92701100  0.64908000  1
  O  O7  1  0.00000000  0.07298900  0.35091900  1
  O  O8  1  0.00000000  0.36547600  0.38090700  1
  O  O9  1  0.00000000  0.63452400  0.61909300  1
  O  O10  1  0.50000000  0.13452400  0.88090700  1
  O  O11  1  0.50000000  0.86547600  0.11909300  1
loop_
_geom_bond_atom_site_label_1
_geom_bond_atom_site_label_2
_geom_bond_distance
_geom_bond_site_symmetry_2
Li0 O4 1.941135 1_555
Li0 O4 1.941135 1_455
Li0 O8 1.975547 1_555
Li0 O3 1.983712 1_555
Li1 O5 1.941137 1_555
Li1 O5 1.941137 1_455
Li1 O9 1.975547 1_555
Li1 O2 1.983712 1_555
Li2 O6 1.941137 1_645
Li2 O6 1.941137 1_545
Li2 O10 1.975547 1_555
Li2 O1 1.983712 1_555
Li3 O7 1.941135 1_565
Li3 O7 1.941135 1_665
Li3 O11 1.975547 1_555
Li3 O0 1.983712 1_555
Li4 O4 2.005511 1_556
Li4 O2 2.061062 1_555
Li4 O2 2.061062 1_655
Li4 O5 2.180996 1_555
Li4 O11 2.239612 1_556
Li5 O5 2.005503 1_554
Li5 O3 2.061062 1_555
Li5 O3 2.061062 1_655
Li5 O4 2.181000 1_555
Li5 O10 2.239612 1_554
Li6 O6 2.005503 1_555
Li6 O0 2.061062 1_455
Li6 O0 2.061062 1_555
Li6 O7 2.181000 1_565
Li6 O9 2.239612 1_555
Li7 O7 2.005511 1_555
Li7 O1 2.061062 1_555
Li7 O1 2.061062 1_455
Li7 O6 2.180996 1_545
Li7 O8 2.239612 1_555
Ca0 O9 2.347546 1_655
Ca0 O9 2.347546 1_555
Ca0 O8 2.347546 1_555
Ca0 O8 2.347546 1_655
Ca0 O1 2.448125 1_555
Ca0 O0 2.448125 1_555
Ca1 O11 2.347546 1_545
Ca1 O11 2.347546 1_445
Ca1 O10 2.347546 1_454
Ca1 O10 2.347546 1_554
Ca1 O3 2.448125 1_555
Ca1 O2 2.448125 1_544
B0 O4 1.383937 1_555
B0 O0 1.394388 1_555
B0 O11 1.398499 1_555
B1 O5 1.383941 1_555
B1 O1 1.394388 1_555
B1 O10 1.398499 1_555
B2 O6 1.383941 1_555
B2 O2 1.394388 1_555
B2 O9 1.398499 1_555
B3 O7 1.383937 1_555
B3 O3 1.394388 1_555
B3 O8 1.398499 1_555
