# generated using pymatgen
data_Ca3Fe2(SeO3)6
_symmetry_space_group_name_H-M   'P 1'
_cell_length_a   14.18355762
_cell_length_b   14.18355762
_cell_length_c   14.18355764
_cell_angle_alpha   35.49032068
_cell_angle_beta   35.49032068
_cell_angle_gamma   35.49031803
_symmetry_Int_Tables_number   1
_chemical_formula_structural   Ca3Fe2(SeO3)6
_chemical_formula_sum   'Ca6 Fe4 Se12 O36'
_cell_volume   859.44361802
_cell_formula_units_Z   2
loop_
 _symmetry_equiv_pos_site_id
 _symmetry_equiv_pos_as_xyz
  1  'x, y, z'
loop_
 _atom_site_type_symbol
 _atom_site_label
 _atom_site_symmetry_multiplicity
 _atom_site_fract_x
 _atom_site_fract_y
 _atom_site_fract_z
 _atom_site_occupancy
  Ca  Ca0  1  0.75000000  0.15941800  0.34058200  1
  Ca  Ca1  1  0.84058200  0.65941800  0.25000000  1
  Ca  Ca2  1  0.15941800  0.34058200  0.75000000  1
  Ca  Ca3  1  0.34058200  0.75000000  0.15941800  1
  Ca  Ca4  1  0.65941800  0.25000000  0.84058200  1
  Ca  Ca5  1  0.25000000  0.84058200  0.65941800  1
  Fe  Fe0  1  0.50000000  0.50000000  0.50000000  1
  Fe  Fe1  1  0.25000000  0.25000000  0.25000000  1
  Fe  Fe2  1  0.75000000  0.75000000  0.75000000  1
  Fe  Fe3  1  0.00000000  0.00000000  0.00000000  1
  Se  Se0  1  0.50621100  0.08872700  0.81363900  1
  Se  Se1  1  0.91127300  0.18636100  0.49378900  1
  Se  Se2  1  0.31363900  0.58872700  0.00621100  1
  Se  Se3  1  0.18636100  0.49378900  0.91127300  1
  Se  Se4  1  0.81363900  0.50621100  0.08872700  1
  Se  Se5  1  0.41127300  0.99378900  0.68636100  1
  Se  Se6  1  0.08872700  0.81363900  0.50621100  1
  Se  Se7  1  0.68636100  0.41127300  0.99378900  1
  Se  Se8  1  0.99378900  0.68636100  0.41127300  1
  Se  Se9  1  0.00621100  0.31363900  0.58872700  1
  Se  Se10  1  0.49378900  0.91127300  0.18636100  1
  Se  Se11  1  0.58872700  0.00621100  0.31363900  1
  O  O0  1  0.34413600  0.31525800  0.99900000  1
  O  O1  1  0.50100000  0.18474200  0.15586400  1
  O  O2  1  0.32103900  0.59424200  0.67825800  1
  O  O3  1  0.33628000  0.04881700  0.94111600  1
  O  O4  1  0.83628000  0.44111600  0.54881700  1
  O  O5  1  0.90575800  0.17896100  0.82174200  1
  O  O6  1  0.94111600  0.33628000  0.04881700  1
  O  O7  1  0.65586400  0.68474200  0.00100000  1
  O  O8  1  0.55888400  0.45118300  0.16372000  1
  O  O9  1  0.31525800  0.99900000  0.34413600  1
  O  O10  1  0.82104000  0.17825800  0.09424200  1
  O  O11  1  0.18474200  0.15586400  0.50100000  1
  O  O12  1  0.16372000  0.55888400  0.45118300  1
  O  O13  1  0.99900000  0.34413600  0.31525800  1
  O  O14  1  0.00100000  0.65586400  0.68474200  1
  O  O15  1  0.67825800  0.32103900  0.59424200  1
  O  O16  1  0.04881700  0.94111600  0.33628000  1
  O  O17  1  0.15586400  0.50100000  0.18474200  1
  O  O18  1  0.66372000  0.95118300  0.05888400  1
  O  O19  1  0.17825800  0.09424200  0.82104000  1
  O  O20  1  0.59424200  0.67825800  0.32103900  1
  O  O21  1  0.82174200  0.90575800  0.17896100  1
  O  O22  1  0.81525800  0.84413600  0.49900000  1
  O  O23  1  0.40575800  0.32174200  0.67896000  1
  O  O24  1  0.67896100  0.40575800  0.32174200  1
  O  O25  1  0.54881700  0.83628000  0.44111600  1
  O  O26  1  0.84413600  0.49900000  0.81525800  1
  O  O27  1  0.05888400  0.66372000  0.95118300  1
  O  O28  1  0.32174200  0.67896000  0.40575800  1
  O  O29  1  0.45118300  0.16372000  0.55888400  1
  O  O30  1  0.49900000  0.81525800  0.84413600  1
  O  O31  1  0.68474200  0.00100000  0.65586400  1
  O  O32  1  0.95118300  0.05888400  0.66372000  1
  O  O33  1  0.44111600  0.54881700  0.83628000  1
  O  O34  1  0.17896100  0.82174200  0.90575800  1
  O  O35  1  0.09424200  0.82103900  0.17825800  1
loop_
_geom_bond_atom_site_label_1
_geom_bond_atom_site_label_2
_geom_bond_distance
_geom_bond_site_symmetry_2
Ca0 O16 2.463847 1_645
Ca0 O29 2.463847 1_555
Ca0 O22 2.487345 1_545
Ca0 O31 2.487345 1_555
Ca0 O10 2.545521 1_555
Ca0 O24 2.545530 1_555
Ca0 O8 2.582110 1_555
Ca0 O6 2.582110 1_555
Ca1 O4 2.463847 1_555
Ca1 O27 2.463847 1_654
Ca1 O17 2.487345 1_655
Ca1 O13 2.487345 1_555
Ca1 O20 2.545530 1_555
Ca1 O21 2.545530 1_555
Ca1 O25 2.582110 1_555
Ca1 O18 2.582110 1_555
Ca2 O12 2.463847 1_555
Ca2 O6 2.463847 1_456
Ca2 O14 2.487345 1_555
Ca2 O26 2.487345 1_455
Ca2 O23 2.545521 1_555
Ca2 O19 2.545521 1_555
Ca2 O29 2.582110 1_555
Ca2 O3 2.582110 1_555
Ca3 O8 2.463847 1_555
Ca3 O3 2.463847 1_564
Ca3 O7 2.487345 1_555
Ca3 O30 2.487345 1_554
Ca3 O28 2.545521 1_555
Ca3 O35 2.545530 1_555
Ca3 O16 2.582110 1_555
Ca3 O12 2.582110 1_555
Ca4 O33 2.463847 1_555
Ca4 O18 2.463847 1_546
Ca4 O0 2.487345 1_555
Ca4 O1 2.487345 1_556
Ca4 O5 2.545530 1_555
Ca4 O15 2.545530 1_555
Ca4 O32 2.582110 1_555
Ca4 O4 2.582110 1_555
Ca5 O32 2.463847 1_465
Ca5 O25 2.463847 1_555
Ca5 O11 2.487345 1_565
Ca5 O9 2.487345 1_555
Ca5 O2 2.545530 1_555
Ca5 O34 2.545530 1_555
Ca5 O33 2.582110 1_555
Ca5 O27 2.582110 1_555
Fe0 O15 2.037096 1_555
Fe0 O24 2.037096 1_555
Fe0 O2 2.037096 1_555
Fe0 O20 2.037096 1_555
Fe0 O28 2.037100 1_555
Fe0 O23 2.037100 1_555
Fe1 O13 2.054163 1_455
Fe1 O17 2.054163 1_555
Fe1 O1 2.054163 1_555
Fe1 O9 2.054163 1_545
Fe1 O0 2.054163 1_554
Fe1 O11 2.054163 1_555
Fe2 O14 2.054163 1_655
Fe2 O26 2.054163 1_555
Fe2 O31 2.054163 1_565
Fe2 O30 2.054163 1_555
Fe2 O7 2.054163 1_556
Fe2 O22 2.054163 1_555
Fe3 O34 2.037096 1_544
Fe3 O35 2.037096 1_545
Fe3 O5 2.037096 1_454
Fe3 O21 2.037096 1_445
Fe3 O10 2.037100 1_455
Fe3 O19 2.037100 1_554
O0 Se3 1.773118 1_555
O1 Se11 1.773118 1_555
O2 Se3 1.756453 1_555
O3 Se0 1.690367 1_555
O4 Se9 1.690367 1_655
O5 Se9 1.756453 1_655
O6 Se4 1.690367 1_555
O7 Se4 1.773118 1_555
O8 Se7 1.690367 1_554
O9 Se10 1.773118 1_555
O10 Se7 1.756455 1_554
O11 Se9 1.773118 1_555
O12 Se8 1.690367 1_455
O13 Se1 1.773118 1_555
O14 Se6 1.773118 1_555
O15 Se1 1.756452 1_555
O16 Se6 1.690367 1_555
O17 Se2 1.773118 1_555
O18 Se10 1.690367 1_555
O19 Se5 1.756456 1_545
O20 Se10 1.756452 1_555
O21 Se11 1.756452 1_565
O22 Se8 1.773118 1_555
O23 Se0 1.756456 1_555
O24 Se4 1.756453 1_555
O25 Se11 1.690367 1_565
O26 Se7 1.773118 1_555
O27 Se3 1.690367 1_555
O28 Se6 1.756455 1_555
O29 Se5 1.690367 1_545
O30 Se5 1.773118 1_555
O31 Se0 1.773118 1_555
O32 Se1 1.690367 1_555
O33 Se2 1.690367 1_556
O34 Se2 1.756452 1_556
O35 Se8 1.756453 1_455
