# generated using pymatgen
data_Ta3Te14Pd3
_symmetry_space_group_name_H-M   'P 1'
_cell_length_a   3.78977968
_cell_length_b   14.97404839
_cell_length_c   21.25550504
_cell_angle_alpha   72.81045577
_cell_angle_beta   90.00000000
_cell_angle_gamma   90.00000000
_symmetry_Int_Tables_number   1
_chemical_formula_structural   Ta3Te14Pd3
_chemical_formula_sum   'Ta6 Te28 Pd6'
_cell_volume   1152.33589227
_cell_formula_units_Z   2
loop_
 _symmetry_equiv_pos_site_id
 _symmetry_equiv_pos_as_xyz
  1  'x, y, z'
loop_
 _atom_site_type_symbol
 _atom_site_label
 _atom_site_symmetry_multiplicity
 _atom_site_fract_x
 _atom_site_fract_y
 _atom_site_fract_z
 _atom_site_occupancy
  Ta  Ta0  1  0.75000000  0.30051096  0.45751539  1
  Ta  Ta1  1  0.25000000  0.69948904  0.54248461  1
  Ta  Ta2  1  0.75000000  0.94614772  0.80941332  1
  Ta  Ta3  1  0.25000000  0.05385228  0.19058668  1
  Ta  Ta4  1  0.75000000  0.57804375  0.15256399  1
  Ta  Ta5  1  0.25000000  0.42195625  0.84743601  1
  Te  Te0  1  0.25000000  0.31379172  0.55462780  1
  Te  Te1  1  0.75000000  0.68620828  0.44537220  1
  Te  Te2  1  0.75000000  0.13954283  0.72201262  1
  Te  Te3  1  0.25000000  0.86045717  0.27798738  1
  Te  Te4  1  0.75000000  0.61830361  0.00975729  1
  Te  Te5  1  0.25000000  0.38169639  0.99024271  1
  Te  Te6  1  0.25000000  0.72421197  0.11081319  1
  Te  Te7  1  0.75000000  0.27578803  0.88918681  1
  Te  Te8  1  0.25000000  0.44844475  0.41140416  1
  Te  Te9  1  0.75000000  0.55155525  0.58859584  1
  Te  Te10  1  0.25000000  0.18916741  0.41209851  1
  Te  Te11  1  0.75000000  0.81083259  0.58790149  1
  Te  Te12  1  0.75000000  0.88712020  0.95304030  1
  Te  Te13  1  0.25000000  0.11287980  0.04695970  1
  Te  Te14  1  0.25000000  0.79614180  0.84489669  1
  Te  Te15  1  0.75000000  0.20385820  0.15510331  1
  Te  Te16  1  0.75000000  0.34136243  0.31539058  1
  Te  Te17  1  0.25000000  0.65863757  0.68460942  1
  Te  Te18  1  0.25000000  0.94749591  0.70818802  1
  Te  Te19  1  0.75000000  0.05250409  0.29181198  1
  Te  Te20  1  0.75000000  0.61401898  0.26738140  1
  Te  Te21  1  0.25000000  0.38598102  0.73261860  1
  Te  Te22  1  0.25000000  0.05210534  0.85839361  1
  Te  Te23  1  0.75000000  0.94789466  0.14160639  1
  Te  Te24  1  0.25000000  0.44296515  0.15382138  1
  Te  Te25  1  0.75000000  0.55703485  0.84617862  1
  Te  Te26  1  0.75000000  0.11040668  0.54844887  1
  Te  Te27  1  0.25000000  0.88959332  0.45155113  1
  Pd  Pd0  1  0.25000000  0.75228409  0.97985950  1
  Pd  Pd1  1  0.75000000  0.24771591  0.02014050  1
  Pd  Pd2  1  0.25000000  0.12876082  0.63458257  1
  Pd  Pd3  1  0.75000000  0.87123918  0.36541743  1
  Pd  Pd4  1  0.25000000  0.47888754  0.27379167  1
  Pd  Pd5  1  0.75000000  0.52111246  0.72620833  1
loop_
_geom_bond_atom_site_label_1
_geom_bond_atom_site_label_2
_geom_bond_distance
_geom_bond_site_symmetry_2
Ta0 Te0 2.851946 1_555
Ta0 Te0 2.851946 1_655
Ta0 Te8 2.859183 1_655
Ta0 Te8 2.859183 1_555
Ta0 Te10 2.872912 1_655
Ta0 Te10 2.872912 1_555
Ta0 Te16 2.899652 1_555
Ta0 Te26 2.930370 1_555
Ta1 Te1 2.851946 1_455
Ta1 Te1 2.851946 1_555
Ta1 Te9 2.859183 1_455
Ta1 Te9 2.859183 1_555
Ta1 Te11 2.872912 1_555
Ta1 Te11 2.872912 1_455
Ta1 Te17 2.899652 1_555
Ta1 Te27 2.930370 1_555
Ta2 Te22 2.858004 1_565
Ta2 Te22 2.858004 1_665
Ta2 Te18 2.862639 1_655
Ta2 Te18 2.862639 1_555
Ta2 Te14 2.864177 1_555
Ta2 Te14 2.864177 1_655
Ta2 Te12 2.916557 1_555
Ta2 Te2 2.942387 1_565
Ta3 Te23 2.858004 1_445
Ta3 Te23 2.858004 1_545
Ta3 Te19 2.862639 1_555
Ta3 Te19 2.862639 1_455
Ta3 Te15 2.864177 1_455
Ta3 Te15 2.864177 1_555
Ta3 Te13 2.916557 1_555
Ta3 Te3 2.942387 1_545
Ta4 Te20 2.650153 1_555
Ta4 Te24 2.765968 1_555
Ta4 Te24 2.765968 1_655
Ta4 Te6 2.832071 1_555
Ta4 Te6 2.832071 1_655
Ta4 Te4 2.914730 1_555
Ta5 Te21 2.650153 1_555
Ta5 Te25 2.765968 1_455
Ta5 Te25 2.765968 1_555
Ta5 Te7 2.832071 1_555
Ta5 Te7 2.832071 1_455
Ta5 Te5 2.914730 1_555
Pd0 Te6 2.689409 1_556
Pd0 Te4 2.695522 1_556
Pd0 Te4 2.695522 1_456
Pd0 Te12 2.704035 1_455
Pd0 Te12 2.704035 1_555
Pd0 Te14 2.747217 1_555
Pd1 Te7 2.689409 1_554
Pd1 Te5 2.695522 1_654
Pd1 Te5 2.695522 1_554
Pd1 Te13 2.704035 1_555
Pd1 Te13 2.704035 1_655
Pd1 Te15 2.747217 1_555
Pd2 Te2 2.692128 1_455
Pd2 Te2 2.692128 1_555
Pd2 Te18 2.702776 1_545
Pd2 Te26 2.704706 1_455
Pd2 Te26 2.704706 1_555
Pd2 Te0 2.789560 1_555
Pd3 Te3 2.692128 1_655
Pd3 Te3 2.692128 1_555
Pd3 Te19 2.702776 1_565
Pd3 Te27 2.704706 1_555
Pd3 Te27 2.704706 1_655
Pd3 Te1 2.789560 1_555
Pd4 Te16 2.745347 1_555
Pd4 Te16 2.745347 1_455
Pd4 Te20 2.746019 1_555
Pd4 Te20 2.746019 1_455
Pd4 Te24 2.757306 1_555
Pd4 Te8 2.824083 1_555
Pd4 Ta4 3.189586 1_455
Pd4 Ta4 3.189586 1_555
Pd5 Te17 2.745347 1_655
Pd5 Te17 2.745347 1_555
Pd5 Te21 2.746019 1_555
Pd5 Te21 2.746019 1_655
Pd5 Te25 2.757306 1_555
Pd5 Te9 2.824083 1_555
Pd5 Ta5 3.189586 1_655
Pd5 Ta5 3.189586 1_555
