# generated using pymatgen
data_Ti20(Sb3Se)3
_symmetry_space_group_name_H-M   'P 1'
_cell_length_a   6.98629600
_cell_length_b   10.06530400
_cell_length_c   16.67436800
_cell_angle_alpha   90.00000000
_cell_angle_beta   90.00000000
_cell_angle_gamma   90.00000000
_symmetry_Int_Tables_number   1
_chemical_formula_structural   Ti20(Sb3Se)3
_chemical_formula_sum   'Ti40 Sb18 Se6'
_cell_volume   1172.52810278
_cell_formula_units_Z   2
loop_
 _symmetry_equiv_pos_site_id
 _symmetry_equiv_pos_as_xyz
  1  'x, y, z'
loop_
 _atom_site_type_symbol
 _atom_site_label
 _atom_site_symmetry_multiplicity
 _atom_site_fract_x
 _atom_site_fract_y
 _atom_site_fract_z
 _atom_site_occupancy
  Ti  Ti0  1  0.72180100  0.50548200  0.24864300  1
  Ti  Ti1  1  0.72180100  0.50548200  0.75135700  1
  Ti  Ti2  1  0.59070800  0.20989200  0.50000000  1
  Ti  Ti3  1  0.57506000  0.22044900  0.00000000  1
  Ti  Ti4  1  0.56834900  0.22671300  0.24897600  1
  Ti  Ti5  1  0.56834900  0.22671300  0.75102400  1
  Ti  Ti6  1  0.56144900  0.94823600  0.59695700  1
  Ti  Ti7  1  0.56144900  0.94823600  0.40304300  1
  Ti  Ti8  1  0.55253500  0.94988200  0.10473500  1
  Ti  Ti9  1  0.55253500  0.94988200  0.89526500  1
  Ti  Ti10  1  0.44746500  0.44988200  0.39526500  1
  Ti  Ti11  1  0.43855100  0.44823600  0.90304300  1
  Ti  Ti12  1  0.44746500  0.44988200  0.60473500  1
  Ti  Ti13  1  0.43855100  0.44823600  0.09695700  1
  Ti  Ti14  1  0.43165100  0.72671300  0.25102400  1
  Ti  Ti15  1  0.43165100  0.72671300  0.74897600  1
  Ti  Ti16  1  0.42494000  0.72044900  0.50000000  1
  Ti  Ti17  1  0.40929200  0.70989200  0.00000000  1
  Ti  Ti18  1  0.27819900  0.00548200  0.25135700  1
  Ti  Ti19  1  0.27819900  0.00548200  0.74864300  1
  Ti  Ti20  1  0.22224400  0.99525100  0.50000000  1
  Ti  Ti21  1  0.23673800  0.98943600  0.00000000  1
  Ti  Ti22  1  0.09086900  0.29157400  0.24814000  1
  Ti  Ti23  1  0.09086900  0.29157400  0.75186000  1
  Ti  Ti24  1  0.05033000  0.25682200  0.50000000  1
  Ti  Ti25  1  0.06947800  0.27471500  0.00000000  1
  Ti  Ti26  1  0.05858800  0.54985300  0.15154700  1
  Ti  Ti27  1  0.05929700  0.55155400  0.65928200  1
  Ti  Ti28  1  0.05929700  0.55155400  0.34071800  1
  Ti  Ti29  1  0.05858800  0.54985300  0.84845300  1
  Ti  Ti30  1  0.94141200  0.04985300  0.34845300  1
  Ti  Ti31  1  0.94070300  0.05155400  0.15928200  1
  Ti  Ti32  1  0.94070300  0.05155400  0.84071800  1
  Ti  Ti33  1  0.94141200  0.04985300  0.65154700  1
  Ti  Ti34  1  0.93052200  0.77471500  0.50000000  1
  Ti  Ti35  1  0.94967000  0.75682200  0.00000000  1
  Ti  Ti36  1  0.90913100  0.79157400  0.25186000  1
  Ti  Ti37  1  0.90913100  0.79157400  0.74814000  1
  Ti  Ti38  1  0.76326200  0.48943600  0.50000000  1
  Ti  Ti39  1  0.77775600  0.49525100  0.00000000  1
  Sb  Sb0  1  0.68927200  0.67699000  0.62071000  1
  Sb  Sb1  1  0.68927200  0.67699000  0.37929000  1
  Sb  Sb2  1  0.68549500  0.67998000  0.11978500  1
  Sb  Sb3  1  0.68549500  0.67998000  0.88021500  1
  Sb  Sb4  1  0.31450500  0.17998000  0.38021500  1
  Sb  Sb5  1  0.31072800  0.17699000  0.87929000  1
  Sb  Sb6  1  0.31450500  0.17998000  0.61978500  1
  Sb  Sb7  1  0.31072800  0.17699000  0.12071000  1
  Sb  Sb8  1  0.18487800  0.82142200  0.13205100  1
  Sb  Sb9  1  0.18695400  0.82207000  0.62927700  1
  Sb  Sb10  1  0.18695400  0.82207000  0.37072300  1
  Sb  Sb11  1  0.18487800  0.82142200  0.86794900  1
  Sb  Sb12  1  0.16003700  0.52296500  0.50000000  1
  Sb  Sb13  1  0.83996300  0.02296500  0.00000000  1
  Sb  Sb14  1  0.81512200  0.32142200  0.36794900  1
  Sb  Sb15  1  0.81304600  0.32207000  0.12927700  1
  Sb  Sb16  1  0.81304600  0.32207000  0.87072300  1
  Sb  Sb17  1  0.81512200  0.32142200  0.63205100  1
  Se  Se0  1  0.66192500  0.97881200  0.25298800  1
  Se  Se1  1  0.66192500  0.97881200  0.74701200  1
  Se  Se2  1  0.33807500  0.47881200  0.24701200  1
  Se  Se3  1  0.33807500  0.47881200  0.75298800  1
  Se  Se4  1  0.16217500  0.52533400  0.00000000  1
  Se  Se5  1  0.83782500  0.02533400  0.50000000  1
loop_
_geom_bond_atom_site_label_1
_geom_bond_atom_site_label_2
_geom_bond_distance
_geom_bond_site_symmetry_2
Sb0 Ti16 2.766381 1_555
Sb0 Ti1 2.788792 1_555
Sb0 Ti34 2.803474 1_555
Sb0 Ti38 2.807519 1_555
Sb0 Ti15 2.839734 1_555
Sb0 Ti12 2.854855 1_555
Sb0 Ti37 2.864313 1_555
Sb0 Ti6 2.899686 1_555
Sb0 Ti27 2.947959 1_655
Sb1 Ti16 2.766381 1_555
Sb1 Ti0 2.788792 1_555
Sb1 Ti34 2.803474 1_555
Sb1 Ti38 2.807519 1_555
Sb1 Ti14 2.839734 1_555
Sb1 Ti10 2.854855 1_555
Sb1 Ti36 2.864313 1_555
Sb1 Ti7 2.899686 1_555
Sb1 Ti28 2.947959 1_655
Sb2 Ti0 2.786715 1_555
Sb2 Ti17 2.793475 1_555
Sb2 Ti39 2.803929 1_555
Sb2 Ti35 2.827336 1_555
Sb2 Ti14 2.855711 1_555
Sb2 Ti8 2.882012 1_555
Sb2 Ti36 2.924496 1_555
Sb2 Ti13 2.926121 1_555
Sb2 Ti26 2.964797 1_655
Sb3 Ti1 2.786715 1_555
Sb3 Ti17 2.793475 1_556
Sb3 Ti39 2.803929 1_556
Sb3 Ti35 2.827336 1_556
Sb3 Ti15 2.855711 1_555
Sb3 Ti9 2.882012 1_555
Sb3 Ti37 2.924496 1_555
Sb3 Ti11 2.926121 1_555
Sb3 Ti29 2.964797 1_655
Sb4 Ti18 2.786715 1_555
Sb4 Ti2 2.793475 1_555
Sb4 Ti20 2.803929 1_545
Sb4 Ti24 2.827336 1_555
Sb4 Ti4 2.855711 1_555
Sb4 Ti10 2.882012 1_555
Sb4 Ti22 2.924496 1_555
Sb4 Ti7 2.926121 1_545
Sb4 Ti30 2.964797 1_455
Sb5 Ti3 2.766381 1_556
Sb5 Ti19 2.788792 1_555
Sb5 Ti25 2.803474 1_556
Sb5 Ti21 2.807519 1_546
Sb5 Ti5 2.839734 1_555
Sb5 Ti9 2.854855 1_545
Sb5 Ti23 2.864313 1_555
Sb5 Ti11 2.899686 1_555
Sb5 Ti32 2.947959 1_455
Sb6 Ti19 2.786715 1_555
Sb6 Ti2 2.793475 1_555
Sb6 Ti20 2.803929 1_545
Sb6 Ti24 2.827336 1_555
Sb6 Ti5 2.855711 1_555
Sb6 Ti12 2.882012 1_555
Sb6 Ti23 2.924496 1_555
Sb6 Ti6 2.926121 1_545
Sb6 Ti33 2.964797 1_455
Sb7 Ti3 2.766381 1_555
Sb7 Ti18 2.788792 1_555
Sb7 Ti25 2.803474 1_555
Sb7 Ti21 2.807519 1_545
Sb7 Ti4 2.839734 1_555
Sb7 Ti8 2.854855 1_545
Sb7 Ti22 2.864313 1_555
Sb7 Ti13 2.899686 1_555
Sb7 Ti31 2.947959 1_455
Sb8 Ti36 2.791493 1_455
Sb8 Ti18 2.795494 1_565
Sb8 Ti14 2.795795 1_555
Sb8 Ti21 2.799883 1_555
Sb8 Ti35 2.823334 1_455
Sb8 Ti26 2.890630 1_555
Sb8 Ti8 2.911492 1_555
Sb8 Ti31 2.912330 1_465
Sb8 Ti17 2.926855 1_555
Sb9 Ti20 2.783148 1_555
Sb9 Ti19 2.788537 1_565
Sb9 Ti37 2.791005 1_455
Sb9 Ti15 2.797736 1_555
Sb9 Ti34 2.843125 1_455
Sb9 Ti33 2.887401 1_465
Sb9 Ti16 2.908136 1_555
Sb9 Ti27 2.908520 1_555
Sb9 Ti6 2.957748 1_555
Sb10 Ti20 2.783148 1_555
Sb10 Ti18 2.788537 1_565
Sb10 Ti36 2.791005 1_455
Sb10 Ti14 2.797736 1_555
Sb10 Ti34 2.843125 1_455
Sb10 Ti30 2.887401 1_465
Sb10 Ti16 2.908136 1_555
Sb10 Ti28 2.908520 1_555
Sb10 Ti7 2.957748 1_555
Sb11 Ti37 2.791493 1_455
Sb11 Ti19 2.795494 1_565
Sb11 Ti15 2.795795 1_555
Sb11 Ti21 2.799883 1_556
Sb11 Ti35 2.823334 1_456
Sb11 Ti29 2.890630 1_555
Sb11 Ti9 2.911492 1_555
Sb11 Ti32 2.912330 1_465
Sb11 Ti17 2.926855 1_556
Sb12 Ti16 2.715907 1_555
Sb12 Ti12 2.761029 1_555
Sb12 Ti10 2.761029 1_555
Sb12 Ti27 2.762623 1_555
Sb12 Ti28 2.762623 1_555
Sb12 Ti24 2.786299 1_555
Sb12 Ti38 2.792455 1_455
Sb12 Ti34 2.998656 1_455
Sb13 Ti3 2.715907 1_555
Sb13 Ti8 2.761029 1_545
Sb13 Ti9 2.761029 1_544
Sb13 Ti31 2.762623 1_555
Sb13 Ti32 2.762623 1_554
Sb13 Ti35 2.786299 1_545
Sb13 Ti21 2.792455 1_645
Sb13 Ti25 2.998656 1_655
Sb14 Ti22 2.791493 1_655
Sb14 Ti0 2.795494 1_555
Sb14 Ti4 2.795795 1_555
Sb14 Ti38 2.799883 1_555
Sb14 Ti24 2.823334 1_655
Sb14 Ti30 2.890630 1_555
Sb14 Ti10 2.911492 1_555
Sb14 Ti28 2.912330 1_655
Sb14 Ti2 2.926855 1_555
Sb15 Ti39 2.783148 1_555
Sb15 Ti0 2.788537 1_555
Sb15 Ti22 2.791005 1_655
Sb15 Ti4 2.797736 1_555
Sb15 Ti25 2.843125 1_655
Sb15 Ti26 2.887401 1_655
Sb15 Ti3 2.908136 1_555
Sb15 Ti31 2.908520 1_555
Sb15 Ti13 2.957748 1_555
Sb16 Ti39 2.783148 1_556
Sb16 Ti1 2.788537 1_555
Sb16 Ti23 2.791005 1_655
Sb16 Ti5 2.797736 1_555
Sb16 Ti25 2.843125 1_656
Sb16 Ti29 2.887401 1_655
Sb16 Ti3 2.908136 1_556
Sb16 Ti32 2.908520 1_555
Sb16 Ti11 2.957748 1_555
Sb17 Ti23 2.791493 1_655
Sb17 Ti1 2.795494 1_555
Sb17 Ti5 2.795795 1_555
Sb17 Ti38 2.799883 1_555
Sb17 Ti24 2.823334 1_655
Sb17 Ti33 2.890630 1_555
Sb17 Ti12 2.911492 1_555
Sb17 Ti27 2.912330 1_655
Sb17 Ti2 2.926855 1_555
Se0 Ti36 2.556328 1_555
Se0 Ti4 2.580287 1_565
Se0 Ti31 2.602055 1_565
Se0 Ti8 2.603795 1_555
Se0 Ti7 2.616834 1_555
Se0 Ti30 2.618730 1_565
Se0 Ti18 2.694367 1_565
Se0 Ti14 3.004639 1_555
Se1 Ti37 2.556328 1_555
Se1 Ti5 2.580287 1_565
Se1 Ti32 2.602055 1_565
Se1 Ti9 2.603795 1_555
Se1 Ti6 2.616834 1_555
Se1 Ti33 2.618730 1_565
Se1 Ti19 2.694367 1_565
Se1 Ti15 3.004639 1_555
Se2 Ti22 2.556328 1_555
Se2 Ti14 2.580287 1_555
Se2 Ti28 2.602055 1_555
Se2 Ti10 2.603795 1_555
Se2 Ti13 2.616834 1_555
Se2 Ti26 2.618730 1_555
Se2 Ti0 2.694367 1_555
Se2 Ti4 3.004639 1_555
Se3 Ti23 2.556328 1_555
Se3 Ti15 2.580287 1_555
Se3 Ti27 2.602055 1_555
Se3 Ti12 2.603795 1_555
Se3 Ti11 2.616834 1_555
Se3 Ti29 2.618730 1_555
Se3 Ti1 2.694367 1_555
Se3 Ti5 3.004639 1_555
Se4 Ti17 2.536014 1_555
Se4 Ti25 2.604359 1_555
Se4 Ti13 2.635160 1_555
Se4 Ti11 2.635160 1_554
Se4 Ti26 2.640097 1_555
Se4 Ti29 2.640097 1_554
Se4 Ti39 2.702680 1_455
Se4 Ti35 2.762787 1_455
Se5 Ti2 2.536014 1_555
Se5 Ti34 2.604359 1_545
Se5 Ti6 2.635160 1_545
Se5 Ti7 2.635160 1_545
Se5 Ti33 2.640097 1_555
Se5 Ti30 2.640097 1_555
Se5 Ti20 2.702680 1_645
Se5 Ti24 2.762787 1_655
