# generated using pymatgen
data_Cs2MnV2(BrO3)2
_symmetry_space_group_name_H-M   'P 1'
_cell_length_a   5.76260091
_cell_length_b   9.44508309
_cell_length_c   12.06427300
_cell_angle_alpha   89.99996356
_cell_angle_beta   90.00000121
_cell_angle_gamma   72.23737378
_symmetry_Int_Tables_number   1
_chemical_formula_structural   Cs2MnV2(BrO3)2
_chemical_formula_sum   'Cs4 Mn2 V4 Br4 O12'
_cell_volume   625.33438056
_cell_formula_units_Z   2
loop_
 _symmetry_equiv_pos_site_id
 _symmetry_equiv_pos_as_xyz
  1  'x, y, z'
loop_
 _atom_site_type_symbol
 _atom_site_label
 _atom_site_symmetry_multiplicity
 _atom_site_fract_x
 _atom_site_fract_y
 _atom_site_fract_z
 _atom_site_occupancy
  Cs  Cs0  1  0.36659600  0.26681000  0.02783500  1
  Cs  Cs1  1  0.36659400  0.26681500  0.52784100  1
  Cs  Cs2  1  0.63340400  0.73319000  0.02783500  1
  Cs  Cs3  1  0.63340600  0.73318500  0.52784100  1
  Mn  Mn0  1  0.00000200  0.00000000  0.77208600  1
  Mn  Mn1  1  0.99999900  0.00000100  0.27204600  1
  V  V0  1  0.19968600  0.60062200  0.27415800  1
  V  V1  1  0.80031400  0.39937700  0.27415800  1
  V  V2  1  0.19968000  0.60063400  0.77416300  1
  V  V3  1  0.80032100  0.39936500  0.77416400  1
  Br  Br0  1  0.50000000  0.00000000  0.26365600  1
  Br  Br1  1  0.50000000  0.00000000  0.76366100  1
  Br  Br2  1  0.00000000  0.00000000  0.48755400  1
  Br  Br3  1  0.00000000  0.00000000  0.98753400  1
  O  O0  1  0.00000000  0.50000000  0.21991300  1
  O  O1  1  0.99999800  0.49999900  0.71992000  1
  O  O2  1  0.50000000  0.50000000  0.21991300  1
  O  O3  1  0.50000300  0.49999900  0.71992000  1
  O  O4  1  0.11029200  0.77941700  0.22707300  1
  O  O5  1  0.11031300  0.77937500  0.72708500  1
  O  O6  1  0.88970800  0.22058200  0.22707300  1
  O  O7  1  0.88968500  0.22062700  0.72708500  1
  O  O8  1  0.20203100  0.59593600  0.41113600  1
  O  O9  1  0.20203300  0.59593300  0.91109700  1
  O  O10  1  0.79796900  0.40406400  0.41113600  1
  O  O11  1  0.79796700  0.40406700  0.91109300  1
loop_
_geom_bond_atom_site_label_1
_geom_bond_atom_site_label_2
_geom_bond_distance
_geom_bond_site_symmetry_2
Cs0 O9 3.278331 1_554
Cs0 O11 3.436516 1_454
Cs0 O11 3.436546 1_554
Cs0 O0 3.441614 1_555
Cs0 O2 3.441638 1_555
Cs0 O6 3.775218 1_555
Cs0 O6 3.775247 1_455
Cs1 O8 3.278144 1_555
Cs1 O10 3.436307 1_455
Cs1 O10 3.436337 1_555
Cs1 O1 3.441596 1_455
Cs1 O3 3.441618 1_555
Cs1 O7 3.775220 1_555
Cs1 O7 3.775258 1_455
Cs2 O11 3.278354 1_554
Cs2 O9 3.436497 1_654
Cs2 O9 3.436527 1_554
Cs2 O0 3.441612 1_655
Cs2 O2 3.441637 1_555
Cs2 O4 3.775220 1_555
Cs2 O4 3.775244 1_655
Cs3 O10 3.278146 1_555
Cs3 O8 3.436308 1_655
Cs3 O8 3.436338 1_555
Cs3 O1 3.441593 1_555
Cs3 O3 3.441615 1_555
Cs3 O5 3.775227 1_555
Cs3 O5 3.775255 1_655
Mn0 O5 2.057406 1_545
Mn0 O7 2.057422 1_455
Mn1 O6 2.056934 1_555
Mn1 O4 2.056961 1_645
Br0 Mn1 2.883075 1_555
Br0 Mn1 2.883081 1_455
Br0 Cs0 3.722046 1_555
Br0 Cs2 3.722049 1_545
Br0 Cs3 3.989738 1_545
Br0 Cs1 3.989741 1_555
Br1 Mn0 2.883081 1_555
Br1 Mn0 2.883104 1_655
Br1 Cs1 3.722066 1_555
Br1 Cs3 3.722068 1_545
Br1 Cs2 3.989605 1_546
Br1 Cs0 3.989608 1_556
Br2 Mn1 2.599947 1_455
Br2 Cs3 3.781219 1_545
Br2 Cs1 3.781219 1_455
Br2 Cs3 3.781293 1_445
Br2 Cs1 3.781294 1_555
Br3 Mn0 2.599223 1_555
Br3 Cs2 3.781214 1_546
Br3 Cs0 3.781215 1_456
Br3 Cs2 3.781284 1_446
Br3 Cs0 3.781284 1_556
O0 V0 1.822884 1_555
O0 V1 1.822890 1_455
O1 V3 1.822919 1_555
O1 V2 1.822945 1_655
O2 V0 1.822887 1_555
O2 V1 1.822889 1_555
O3 V3 1.822927 1_555
O3 V2 1.822948 1_555
O4 V0 1.705602 1_555
O5 V2 1.705116 1_555
O6 V1 1.705602 1_555
O7 V3 1.705095 1_555
O8 V0 1.653077 1_555
O9 V2 1.652550 1_555
O10 V1 1.653078 1_555
O11 V3 1.652490 1_555
