# generated using pymatgen
data_K2Sb2S(O2F3)2
_symmetry_space_group_name_H-M   'P 1'
_cell_length_a   5.72118700
_cell_length_b   9.41349000
_cell_length_c   19.79859937
_cell_angle_alpha   76.25538879
_cell_angle_beta   90.00000000
_cell_angle_gamma   90.00000000
_symmetry_Int_Tables_number   1
_chemical_formula_structural   K2Sb2S(O2F3)2
_chemical_formula_sum   'K8 Sb8 S4 O16 F24'
_cell_volume   1035.74648530
_cell_formula_units_Z   4
loop_
 _symmetry_equiv_pos_site_id
 _symmetry_equiv_pos_as_xyz
  1  'x, y, z'
loop_
 _atom_site_type_symbol
 _atom_site_label
 _atom_site_symmetry_multiplicity
 _atom_site_fract_x
 _atom_site_fract_y
 _atom_site_fract_z
 _atom_site_occupancy
  K  K0  1  0.74599300  0.86128600  0.82668800  1
  K  K1  1  0.24599300  0.13871400  0.67331200  1
  K  K2  1  0.75400700  0.86128600  0.32668800  1
  K  K3  1  0.75011600  0.51887900  0.57540700  1
  K  K4  1  0.25400700  0.13871400  0.17331200  1
  K  K5  1  0.74988400  0.51887900  0.07540700  1
  K  K6  1  0.24988400  0.48112100  0.42459300  1
  K  K7  1  0.25011600  0.48112100  0.92459300  1
  Sb  Sb0  1  0.77714900  0.18608700  0.50125300  1
  Sb  Sb1  1  0.72285100  0.18608700  0.00125300  1
  Sb  Sb2  1  0.22285100  0.81391300  0.49874700  1
  Sb  Sb3  1  0.25962700  0.67712700  0.72174400  1
  Sb  Sb4  1  0.27714900  0.81391300  0.99874700  1
  Sb  Sb5  1  0.74037300  0.32287300  0.27825600  1
  Sb  Sb6  1  0.24037300  0.67712700  0.22174400  1
  Sb  Sb7  1  0.75962700  0.32287300  0.77825600  1
  S  S0  1  0.73824600  0.86974800  0.62098700  1
  S  S1  1  0.76175400  0.86974800  0.12098700  1
  S  S2  1  0.23824600  0.13025200  0.87901300  1
  S  S3  1  0.26175400  0.13025200  0.37901300  1
  O  O0  1  0.11743900  0.99259600  0.39267200  1
  O  O1  1  0.88256100  0.00740400  0.60732800  1
  O  O2  1  0.39577900  0.25990800  0.85788500  1
  O  O3  1  0.93446700  0.87316900  0.17724700  1
  O  O4  1  0.88226500  0.86264700  0.05507500  1
  O  O5  1  0.38256100  0.99259600  0.89267200  1
  O  O6  1  0.38226500  0.13735300  0.44492500  1
  O  O7  1  0.11773500  0.13735300  0.94492500  1
  O  O8  1  0.60422100  0.74009200  0.14211500  1
  O  O9  1  0.43446700  0.12683100  0.32275300  1
  O  O10  1  0.56553300  0.87316900  0.67724700  1
  O  O11  1  0.06553300  0.12683100  0.82275300  1
  O  O12  1  0.61773500  0.86264700  0.55507500  1
  O  O13  1  0.61743900  0.00740400  0.10732800  1
  O  O14  1  0.89577900  0.74009200  0.64211500  1
  O  O15  1  0.10422100  0.25990800  0.35788500  1
  F  F0  1  0.05141800  0.76099800  0.93390800  1
  F  F1  1  0.02623000  0.56671700  0.79111000  1
  F  F2  1  0.47377000  0.56671700  0.29111000  1
  F  F3  1  0.94858200  0.23900200  0.06609200  1
  F  F4  1  0.15052300  0.85277800  0.75087000  1
  F  F5  1  0.97377000  0.43328300  0.20889000  1
  F  F6  1  0.52623000  0.43328300  0.70889000  1
  F  F7  1  0.55141800  0.23900200  0.56609200  1
  F  F8  1  0.21097700  0.60890100  0.05574300  1
  F  F9  1  0.97277400  0.36095000  0.69596300  1
  F  F10  1  0.78902300  0.39109900  0.94425700  1
  F  F11  1  0.52192100  0.70719500  0.95783400  1
  F  F12  1  0.97807900  0.70719500  0.45783400  1
  F  F13  1  0.44858200  0.76099800  0.43390800  1
  F  F14  1  0.02192100  0.29280500  0.54216600  1
  F  F15  1  0.28902300  0.60890100  0.55574300  1
  F  F16  1  0.71097700  0.39109900  0.44425700  1
  F  F17  1  0.47277400  0.63905000  0.80403700  1
  F  F18  1  0.02722600  0.63905000  0.30403700  1
  F  F19  1  0.65052300  0.14722200  0.74913000  1
  F  F20  1  0.47807900  0.29280500  0.04216600  1
  F  F21  1  0.84947700  0.14722200  0.24913000  1
  F  F22  1  0.34947700  0.85277800  0.25087000  1
  F  F23  1  0.52722600  0.36095000  0.19596300  1
loop_
_geom_bond_atom_site_label_1
_geom_bond_atom_site_label_2
_geom_bond_distance
_geom_bond_site_symmetry_2
K0 O5 2.885349 1_555
K0 O11 3.082885 1_665
K0 O10 3.110502 1_555
K1 O1 2.885349 1_455
K1 O10 3.082885 1_545
K1 O11 3.110502 1_555
K2 O0 2.885349 1_655
K2 O9 3.082885 1_565
K2 O3 3.110502 1_555
K3 O14 2.842893 1_555
K3 O12 3.254031 1_555
K4 O13 2.885349 1_555
K4 O3 3.082885 1_445
K4 O9 3.110502 1_555
K5 O8 2.842893 1_555
K5 O4 3.254031 1_555
K6 O15 2.842893 1_555
K6 O6 3.254031 1_555
K7 O2 2.842893 1_555
K7 O7 3.254031 1_555
O0 S3 1.505813 1_565
O0 Sb2 2.434113 1_555
O1 S0 1.505813 1_545
O1 Sb0 2.434113 1_555
O2 S2 1.494767 1_555
O2 Sb7 2.593453 1_555
O3 S1 1.495050 1_555
O3 Sb6 2.544056 1_655
O4 S1 1.491381 1_555
O4 Sb4 2.607927 1_654
O5 S2 1.505813 1_565
O5 Sb4 2.434113 1_555
O6 S3 1.491381 1_555
O6 Sb0 2.607927 1_555
O7 S2 1.491381 1_555
O7 Sb1 2.607927 1_456
O8 S1 1.494767 1_555
O8 Sb6 2.593453 1_555
O9 S3 1.495050 1_555
O9 Sb5 2.544056 1_555
O10 S0 1.495050 1_555
O10 Sb3 2.544056 1_555
O11 S2 1.495050 1_555
O11 Sb7 2.544056 1_455
O12 S0 1.491381 1_555
O12 Sb2 2.607927 1_555
O13 S1 1.505813 1_545
O13 Sb1 2.434113 1_555
O14 S0 1.494767 1_555
O14 Sb3 2.593453 1_655
O15 S3 1.494767 1_555
O15 Sb5 2.593453 1_455
F0 Sb4 1.966661 1_555
F0 K0 2.738363 1_455
F0 K7 2.915203 1_555
F1 Sb3 2.017695 1_555
F1 K7 2.874424 1_555
F2 Sb6 2.017695 1_555
F2 K6 2.874424 1_555
F3 Sb1 1.966661 1_555
F3 K4 2.738363 1_655
F3 K5 2.915203 1_555
F4 Sb3 1.977189 1_555
F4 K0 2.770058 1_455
F4 K1 2.817304 1_565
F5 Sb5 2.017695 1_555
F5 K5 2.874424 1_555
F6 Sb7 2.017695 1_555
F6 K3 2.874424 1_555
F7 Sb0 1.966661 1_555
F7 K1 2.738363 1_555
F7 K3 2.915203 1_555
F8 Sb4 2.026398 1_554
F8 K5 2.769830 1_455
F8 K7 3.118242 1_554
F8 K5 3.196712 1_555
F9 Sb7 1.998151 1_555
F9 K1 2.732555 1_655
F9 K3 2.800667 1_555
F10 Sb1 2.026398 1_556
F10 K7 2.769830 1_655
F10 K5 3.118242 1_556
F10 K7 3.196712 1_555
F11 Sb4 2.003270 1_555
F11 K7 2.836520 1_555
F11 K5 2.881179 1_556
F11 K0 2.949508 1_555
F12 Sb2 2.003270 1_655
F12 K6 2.836520 1_655
F12 K3 2.881179 1_555
F12 K2 2.949508 1_555
F13 Sb2 1.966661 1_555
F13 K2 2.738363 1_555
F13 K6 2.915203 1_555
F14 Sb0 2.003270 1_455
F14 K3 2.836520 1_455
F14 K6 2.881179 1_555
F14 K1 2.949508 1_555
F15 Sb2 2.026398 1_555
F15 K3 2.769830 1_555
F15 K6 3.118242 1_555
F15 K3 3.196712 1_455
F16 Sb0 2.026398 1_555
F16 K6 2.769830 1_555
F16 K3 3.118242 1_555
F16 K6 3.196712 1_655
F17 Sb3 1.998151 1_555
F17 K0 2.732555 1_555
F17 K7 2.800667 1_555
F18 Sb6 1.998151 1_555
F18 K2 2.732555 1_455
F18 K6 2.800667 1_555
F19 Sb7 1.977189 1_555
F19 K1 2.770058 1_555
F19 K0 2.817304 1_545
F20 Sb1 2.003270 1_555
F20 K5 2.836520 1_555
F20 K7 2.881179 1_554
F20 K4 2.949508 1_555
F21 Sb5 1.977189 1_555
F21 K4 2.770058 1_655
F21 K2 2.817304 1_545
F22 Sb6 1.977189 1_555
F22 K2 2.770058 1_555
F22 K4 2.817304 1_565
F23 Sb5 1.998151 1_555
F23 K4 2.732555 1_555
F23 K5 2.800667 1_555
