# generated using pymatgen
data_AlS2NCl6
_symmetry_space_group_name_H-M   'P 1'
_cell_length_a   13.79691400
_cell_length_b   6.41150000
_cell_length_c   13.38840003
_cell_angle_alpha   84.50596429
_cell_angle_beta   90.00000000
_cell_angle_gamma   90.00000000
_symmetry_Int_Tables_number   1
_chemical_formula_structural   AlS2NCl6
_chemical_formula_sum   'Al4 S8 N4 Cl24'
_cell_volume   1178.88274863
_cell_formula_units_Z   4
loop_
 _symmetry_equiv_pos_site_id
 _symmetry_equiv_pos_as_xyz
  1  'x, y, z'
loop_
 _atom_site_type_symbol
 _atom_site_label
 _atom_site_symmetry_multiplicity
 _atom_site_fract_x
 _atom_site_fract_y
 _atom_site_fract_z
 _atom_site_occupancy
  Al  Al0  1  0.75000000  0.15519200  0.98411000  1
  Al  Al1  1  0.75000000  0.00636700  0.46638400  1
  Al  Al2  1  0.25000000  0.84480800  0.01589000  1
  Al  Al3  1  0.25000000  0.99363300  0.53361600  1
  S  S0  1  0.40686600  0.36726700  0.83590400  1
  S  S1  1  0.47970800  0.74462600  0.34262200  1
  S  S2  1  0.59313400  0.63273300  0.16409600  1
  S  S3  1  0.02029200  0.74462600  0.34262200  1
  S  S4  1  0.90686600  0.63273300  0.16409600  1
  S  S5  1  0.97970800  0.25537400  0.65737800  1
  S  S6  1  0.09313400  0.36726700  0.83590400  1
  S  S7  1  0.52029200  0.25537400  0.65737800  1
  N  N0  1  0.94877400  0.73061300  0.25548100  1
  N  N1  1  0.05122600  0.26938700  0.74451900  1
  N  N2  1  0.55122600  0.73061300  0.25548100  1
  N  N3  1  0.44877400  0.26938700  0.74451900  1
  Cl  Cl0  1  0.75000000  0.70000700  0.41440500  1
  Cl  Cl1  1  0.37894000  0.94616500  0.08786000  1
  Cl  Cl2  1  0.88084000  0.17019900  0.41523200  1
  Cl  Cl3  1  0.25000000  0.02887200  0.37064700  1
  Cl  Cl4  1  0.75000000  0.02402900  0.14025300  1
  Cl  Cl5  1  0.61916000  0.17019900  0.41523200  1
  Cl  Cl6  1  0.75000000  0.97112800  0.62935300  1
  Cl  Cl7  1  0.01627400  0.62485800  0.86367000  1
  Cl  Cl8  1  0.98372600  0.37514200  0.13633000  1
  Cl  Cl9  1  0.25000000  0.97597100  0.85974700  1
  Cl  Cl10  1  0.88586900  0.49881600  0.64790100  1
  Cl  Cl11  1  0.62106000  0.05383500  0.91214000  1
  Cl  Cl12  1  0.75000000  0.49331000  0.98098100  1
  Cl  Cl13  1  0.87894000  0.05383500  0.91214000  1
  Cl  Cl14  1  0.25000000  0.29999300  0.58559500  1
  Cl  Cl15  1  0.61413100  0.49881600  0.64790100  1
  Cl  Cl16  1  0.12106000  0.94616500  0.08786000  1
  Cl  Cl17  1  0.25000000  0.50669000  0.01901900  1
  Cl  Cl18  1  0.51627400  0.37514200  0.13633000  1
  Cl  Cl19  1  0.48372600  0.62485800  0.86367000  1
  Cl  Cl20  1  0.38586900  0.50118400  0.35209900  1
  Cl  Cl21  1  0.38084000  0.82980100  0.58476800  1
  Cl  Cl22  1  0.11916000  0.82980100  0.58476800  1
  Cl  Cl23  1  0.11413100  0.50118400  0.35209900  1
loop_
_geom_bond_atom_site_label_1
_geom_bond_atom_site_label_2
_geom_bond_distance
_geom_bond_site_symmetry_2
Al0 Cl11 2.153000 1_555
Al0 Cl13 2.153000 1_555
Al0 Cl12 2.164234 1_555
Al0 Cl4 2.177333 1_556
Al1 Cl0 2.145748 1_545
Al1 Cl5 2.166409 1_555
Al1 Cl2 2.166409 1_555
Al1 Cl6 2.171938 1_545
Al2 Cl16 2.153000 1_555
Al2 Cl1 2.153000 1_555
Al2 Cl17 2.164234 1_555
Al2 Cl9 2.177333 1_554
Al3 Cl14 2.145748 1_565
Al3 Cl21 2.166409 1_555
Al3 Cl22 2.166409 1_555
Al3 Cl3 2.171938 1_565
N0 S3 1.537177 1_655
N0 S4 1.540169 1_555
N1 S5 1.537177 1_455
N1 S6 1.540169 1_555
N2 S1 1.537177 1_555
N2 S2 1.540169 1_555
N3 S7 1.537177 1_555
N3 S0 1.540169 1_555
Cl7 S6 2.026787 1_555
Cl8 S4 2.026787 1_555
Cl10 S5 2.022519 1_555
Cl15 S7 2.022519 1_555
Cl18 S2 2.026787 1_555
Cl19 S0 2.026787 1_555
Cl20 S1 2.022519 1_555
Cl23 S3 2.022519 1_555
