# generated using pymatgen
data_Sr(Si3N4)2
_symmetry_space_group_name_H-M   'P 1'
_cell_length_a   4.81194240
_cell_length_b   6.54738524
_cell_length_c   6.54738333
_cell_angle_alpha   73.97619708
_cell_angle_beta   68.44030830
_cell_angle_gamma   68.44030152
_symmetry_Int_Tables_number   1
_chemical_formula_structural   Sr(Si3N4)2
_chemical_formula_sum   'Sr1 Si6 N8'
_cell_volume   176.03798115
_cell_formula_units_Z   1
loop_
 _symmetry_equiv_pos_site_id
 _symmetry_equiv_pos_as_xyz
  1  'x, y, z'
loop_
 _atom_site_type_symbol
 _atom_site_label
 _atom_site_symmetry_multiplicity
 _atom_site_fract_x
 _atom_site_fract_y
 _atom_site_fract_z
 _atom_site_occupancy
  Sr  Sr0  1  0.34347384  0.50000000  0.50000000  1
  Si  Si0  1  0.01235939  0.04268758  0.63632757  1
  Si  Si1  1  0.69137554  0.36367243  0.95731242  1
  Si  Si2  1  0.01235939  0.63632757  0.04268758  1
  Si  Si3  1  0.69137554  0.95731242  0.36367243  1
  Si  Si4  1  0.48647556  0.87278133  0.87278133  1
  Si  Si5  1  0.23203722  0.12721867  0.12721867  1
  N  N0  1  0.78598327  0.29072637  0.70927363  1
  N  N1  1  0.40389139  0.98372726  0.62037686  1
  N  N2  1  0.88817151  0.81683157  0.81683157  1
  N  N3  1  0.00799551  0.01627274  0.37962314  1
  N  N4  1  0.78598327  0.70927363  0.29072637  1
  N  N5  1  0.40389139  0.62037686  0.98372726  1
  N  N6  1  0.00799551  0.37962314  0.01627274  1
  N  N7  1  0.52183465  0.18316843  0.18316843  1
loop_
_geom_bond_atom_site_label_1
_geom_bond_atom_site_label_2
_geom_bond_distance
_geom_bond_site_symmetry_2
N0 Si0 1.672662 1_655
N0 Si1 1.672663 1_555
N0 Sr0 2.693034 1_555
N0 Sr0 3.148777 1_655
N1 Si4 1.739079 1_555
N1 Si3 1.744804 1_555
N1 Si0 1.747176 1_565
N1 Sr0 3.179161 1_565
N2 Si4 1.742964 1_555
N2 Si2 1.762429 1_656
N2 Si0 1.762430 1_665
N2 Sr0 3.016912 1_655
N3 Si5 1.739078 1_555
N3 Si0 1.744801 1_555
N3 Si3 1.747171 1_445
N3 Sr0 3.179161 1_545
N4 Si2 1.672662 1_655
N4 Si3 1.672663 1_555
N4 Sr0 2.693034 1_555
N4 Sr0 3.148777 1_655
N5 Si4 1.739080 1_555
N5 Si1 1.744804 1_555
N5 Si2 1.747176 1_556
N5 Sr0 3.179160 1_556
N6 Si5 1.739078 1_555
N6 Si2 1.744802 1_555
N6 Si1 1.747171 1_454
N6 Sr0 3.179160 1_554
N7 Si5 1.742968 1_555
N7 Si3 1.762432 1_545
N7 Si1 1.762432 1_554
N7 Sr0 3.016911 1_555
