# generated using pymatgen
data_CoH3(CN)6
_symmetry_space_group_name_H-M   'P 1'
_cell_length_a   6.48615028
_cell_length_b   6.48615028
_cell_length_c   5.59148700
_cell_angle_alpha   90.00000000
_cell_angle_beta   90.00000000
_cell_angle_gamma   120.00000289
_symmetry_Int_Tables_number   1
_chemical_formula_structural   CoH3(CN)6
_chemical_formula_sum   'Co1 H3 C6 N6'
_cell_volume   203.71919556
_cell_formula_units_Z   1
loop_
 _symmetry_equiv_pos_site_id
 _symmetry_equiv_pos_as_xyz
  1  'x, y, z'
loop_
 _atom_site_type_symbol
 _atom_site_label
 _atom_site_symmetry_multiplicity
 _atom_site_fract_x
 _atom_site_fract_y
 _atom_site_fract_z
 _atom_site_occupancy
  Co  Co0  1  0.00000000  0.00000000  0.00000000  1
  H  H0  1  0.00000000  0.50000000  0.50000000  1
  H  H1  1  0.50000000  0.00000000  0.50000000  1
  H  H2  1  0.50000000  0.50000000  0.50000000  1
  C  C0  1  0.23511200  0.23511200  0.80488600  1
  C  C1  1  0.23511200  0.00000000  0.19511400  1
  C  C2  1  0.00000000  0.76488800  0.80488600  1
  C  C3  1  0.00000000  0.23511200  0.19511400  1
  C  C4  1  0.76488800  0.76488800  0.19511400  1
  C  C5  1  0.76488800  0.00000000  0.80488600  1
  N  N0  1  0.00000000  0.62295000  0.67699400  1
  N  N1  1  0.00000000  0.37705000  0.32300600  1
  N  N2  1  0.37705000  0.00000000  0.32300600  1
  N  N3  1  0.62295000  0.00000000  0.67699400  1
  N  N4  1  0.62295000  0.62295000  0.32300600  1
  N  N5  1  0.37705000  0.37705000  0.67699400  1
loop_
_geom_bond_atom_site_label_1
_geom_bond_atom_site_label_2
_geom_bond_distance
_geom_bond_site_symmetry_2
H0 N0 1.270979 1_555
H0 N1 1.270979 1_555
H1 N3 1.270979 1_555
H1 N2 1.270979 1_555
H2 N5 1.270979 1_555
H2 N4 1.270979 1_555
C0 N5 1.165735 1_555
C0 Co0 1.875039 1_556
C1 N2 1.165735 1_555
C1 Co0 1.875039 1_555
C2 N0 1.165735 1_555
C2 Co0 1.875039 1_566
C3 N1 1.165735 1_555
C3 Co0 1.875039 1_555
C4 N4 1.165735 1_555
C4 Co0 1.875039 1_665
C5 N3 1.165735 1_555
C5 Co0 1.875039 1_656
