# generated using pymatgen
data_Li3V6O13
_symmetry_space_group_name_H-M   'P 1'
_cell_length_a   6.33844698
_cell_length_b   6.33844698
_cell_length_c   10.31149012
_cell_angle_alpha   79.89511320
_cell_angle_beta   79.89511320
_cell_angle_gamma   37.02040398
_symmetry_Int_Tables_number   1
_chemical_formula_structural   Li3V6O13
_chemical_formula_sum   'Li3 V6 O13'
_cell_volume   245.12717268
_cell_formula_units_Z   1
loop_
 _symmetry_equiv_pos_site_id
 _symmetry_equiv_pos_as_xyz
  1  'x, y, z'
loop_
 _atom_site_type_symbol
 _atom_site_label
 _atom_site_symmetry_multiplicity
 _atom_site_fract_x
 _atom_site_fract_y
 _atom_site_fract_z
 _atom_site_occupancy
  Li  Li0  1  0.93066600  0.93066600  0.41284800  1
  Li  Li1  1  0.06944800  0.06944800  0.58717700  1
  Li  Li2  1  0.99934800  0.99934800  0.00054700  1
  V  V0  1  0.66183300  0.66183300  0.00208500  1
  V  V1  1  0.34290400  0.34290400  0.99753500  1
  V  V2  1  0.59780900  0.59780900  0.36601000  1
  V  V3  1  0.40208200  0.40208200  0.63342600  1
  V  V4  1  0.28011100  0.28011100  0.36419400  1
  V  V5  1  0.71952900  0.71952900  0.63644200  1
  O  O0  1  0.82703300  0.82703300  0.99996500  1
  O  O1  1  0.18297000  0.18297000  0.99972500  1
  O  O2  1  0.11083200  0.11083200  0.39111000  1
  O  O3  1  0.88887300  0.88887300  0.60882200  1
  O  O4  1  0.75902300  0.75902300  0.40363300  1
  O  O5  1  0.24069300  0.24069300  0.59636100  1
  O  O6  1  0.49472200  0.49472200  0.99969100  1
  O  O7  1  0.61756500  0.61756500  0.19806000  1
  O  O8  1  0.37997200  0.37997200  0.80091400  1
  O  O9  1  0.31711400  0.31711400  0.19887600  1
  O  O10  1  0.68077900  0.68077900  0.80221700  1
  O  O11  1  0.43059700  0.43059700  0.41870000  1
  O  O12  1  0.56933100  0.56933100  0.58166200  1
loop_
_geom_bond_atom_site_label_1
_geom_bond_atom_site_label_2
_geom_bond_distance
_geom_bond_site_symmetry_2
Li0 O3 1.990047 1_555
Li0 O11 2.013189 1_655
Li0 O11 2.013189 1_565
Li0 O4 2.083010 1_555
Li0 O2 2.135708 1_665
Li1 O2 1.990665 1_555
Li1 O12 2.013100 1_455
Li1 O12 2.013100 1_545
Li1 O5 2.078157 1_555
Li1 O3 2.140678 1_445
Li2 O6 2.013122 1_654
Li2 O6 2.013122 1_564
Li2 O0 2.072532 1_554
Li2 O1 2.205783 1_664
O0 V0 1.981955 1_556
O0 V1 2.021031 1_655
O0 V1 2.021031 1_565
O1 V1 1.918530 1_555
O1 V0 2.027849 1_456
O1 V0 2.027849 1_546
O2 V4 2.002230 1_555
O2 V2 2.038577 1_545
O2 V2 2.038577 1_455
O3 V5 2.002658 1_555
O3 V3 2.038086 1_655
O3 V3 2.038086 1_565
O4 V2 2.045588 1_555
O4 V4 2.059322 1_655
O4 V4 2.059322 1_565
O4 V5 2.359358 1_555
O5 V3 2.045563 1_555
O5 V5 2.060567 1_545
O5 V5 2.060567 1_455
O5 V4 2.352857 1_555
O6 V1 1.829260 1_555
O6 V0 2.013569 1_556
O7 V2 1.703933 1_555
O7 V0 1.992200 1_555
O8 V3 1.698083 1_555
O8 V1 1.993696 1_555
O9 V4 1.680234 1_555
O9 V1 2.041625 1_554
O10 V5 1.686516 1_555
O10 V0 2.031167 1_556
O11 V2 1.982786 1_555
O11 V4 1.991135 1_555
O11 V3 2.176944 1_555
O12 V3 1.982413 1_555
O12 V5 1.989085 1_555
O12 V2 2.186392 1_555
