# generated using pymatgen
data_TiCu2Te3
_symmetry_space_group_name_H-M   'P 1'
_cell_length_a   4.00301668
_cell_length_b   7.17376965
_cell_length_c   10.17867399
_cell_angle_alpha   97.37963031
_cell_angle_beta   101.34041395
_cell_angle_gamma   89.99999093
_symmetry_Int_Tables_number   1
_chemical_formula_structural   TiCu2Te3
_chemical_formula_sum   'Ti2 Cu4 Te6'
_cell_volume   284.12159462
_cell_formula_units_Z   2
loop_
 _symmetry_equiv_pos_site_id
 _symmetry_equiv_pos_as_xyz
  1  'x, y, z'
loop_
 _atom_site_type_symbol
 _atom_site_label
 _atom_site_symmetry_multiplicity
 _atom_site_fract_x
 _atom_site_fract_y
 _atom_site_fract_z
 _atom_site_occupancy
  Ti  Ti0  1  0.64624402  0.56063589  0.29248804  1
  Ti  Ti1  1  0.35375598  0.43936411  0.70751196  1
  Cu  Cu0  1  0.71478901  0.92608293  0.42957802  1
  Cu  Cu1  1  0.28521099  0.07391707  0.57042198  1
  Cu  Cu2  1  0.04554834  0.65247589  0.09109668  1
  Cu  Cu3  1  0.95445166  0.34752411  0.90890332  1
  Te  Te0  1  0.75197860  0.28849139  0.50395721  1
  Te  Te1  1  0.24802140  0.71150861  0.49604279  1
  Te  Te2  1  0.58379720  0.86344583  0.16759340  1
  Te  Te3  1  0.41620280  0.13655417  0.83240660  1
  Te  Te4  1  0.91395465  0.66831429  0.82790930  1
  Te  Te5  1  0.08604535  0.33168571  0.17209070  1
loop_
_geom_bond_atom_site_label_1
_geom_bond_atom_site_label_2
_geom_bond_distance
_geom_bond_site_symmetry_2
Cu0 Cu1 2.591514 1_665
Cu0 Cu1 2.591514 1_565
Cu0 Te2 2.594262 1_555
Cu0 Te0 2.608549 1_565
Cu0 Te1 2.661391 1_655
Cu0 Te1 2.661391 1_555
Cu0 Ti0 2.793752 1_555
Cu1 Te3 2.594262 1_555
Cu1 Te1 2.608549 1_545
Cu1 Te0 2.661391 1_455
Cu1 Te0 2.661391 1_555
Cu1 Ti1 2.793752 1_555
Cu2 Te5 2.537046 1_555
Cu2 Te2 2.564501 1_455
Cu2 Te2 2.564504 1_555
Cu2 Te4 2.643881 1_454
Cu2 Cu3 2.655144 1_454
Cu2 Ti0 2.970966 1_555
Cu2 Ti0 2.970967 1_455
Cu3 Te4 2.537046 1_555
Cu3 Te3 2.564501 1_655
Cu3 Te3 2.564504 1_555
Cu3 Te5 2.643881 1_656
Cu3 Ti1 2.970966 1_555
Cu3 Ti1 2.970967 1_655
Te0 Ti1 2.954362 1_655
Te0 Ti1 2.954362 1_555
Te0 Ti0 3.056958 1_555
Te1 Ti0 2.954362 1_455
Te1 Ti0 2.954362 1_555
Te1 Ti1 3.056958 1_555
Te2 Ti0 2.642321 1_555
Te3 Ti1 2.642321 1_555
Te4 Ti1 2.762303 1_555
Te4 Ti1 2.762304 1_655
Te5 Ti0 2.762303 1_555
Te5 Ti0 2.762304 1_455
