# generated using pymatgen
data_Sr2LaGaCu2O7
_symmetry_space_group_name_H-M   'P 1'
_cell_length_a   12.30561905
_cell_length_b   12.30561905
_cell_length_c   12.30561905
_cell_angle_alpha   154.20277885
_cell_angle_beta   153.56206260
_cell_angle_gamma   37.27318185
_symmetry_Int_Tables_number   1
_chemical_formula_structural   Sr2LaGaCu2O7
_chemical_formula_sum   'Sr4 La2 Ga2 Cu4 O14'
_cell_volume   360.52892457
_cell_formula_units_Z   2
loop_
 _symmetry_equiv_pos_site_id
 _symmetry_equiv_pos_as_xyz
  1  'x, y, z'
loop_
 _atom_site_type_symbol
 _atom_site_label
 _atom_site_symmetry_multiplicity
 _atom_site_fract_x
 _atom_site_fract_y
 _atom_site_fract_z
 _atom_site_occupancy
  Sr  Sr0  1  0.17371100  0.65295900  0.51972600  1
  Sr  Sr1  1  0.82628900  0.34601500  0.47924700  1
  Sr  Sr2  1  0.63323200  0.15295900  0.47924700  1
  Sr  Sr3  1  0.36676800  0.84601500  0.51972600  1
  La  La0  1  0.00000000  0.50203800  0.50203800  1
  La  La1  1  0.50000000  0.00203800  0.50203800  1
  Ga  Ga0  1  0.17973300  0.22060800  0.90034000  1
  Ga  Ga1  1  0.82026700  0.72060800  0.04087500  1
  Cu  Cu0  1  0.07579600  0.08002400  0.00132800  1
  Cu  Cu1  1  0.92420400  0.92553200  0.00422800  1
  Cu  Cu2  1  0.57869500  0.58002400  0.00422800  1
  Cu  Cu3  1  0.42130500  0.42553200  0.00132800  1
  O  O0  1  0.87457400  0.37472900  0.74930400  1
  O  O1  1  0.12542600  0.87472900  0.50015500  1
  O  O2  1  0.81952300  0.32233300  0.00176700  1
  O  O3  1  0.18047700  0.18224400  0.50281000  1
  O  O4  1  0.82056600  0.82233300  0.50281000  1
  O  O5  1  0.17943400  0.68224400  0.00176700  1
  O  O6  1  0.31505000  0.81882500  0.00004600  1
  O  O7  1  0.68495000  0.68499600  0.50377500  1
  O  O8  1  0.31877900  0.31882500  0.50377500  1
  O  O9  1  0.68122100  0.18499600  0.00004600  1
  O  O10  1  0.62670900  0.71419400  0.98466200  1
  O  O11  1  0.37329100  0.35795200  0.08748500  1
  O  O12  1  0.22953300  0.21419400  0.08748500  1
  O  O13  1  0.77046700  0.85795200  0.98466200  1
loop_
_geom_bond_atom_site_label_1
_geom_bond_atom_site_label_2
_geom_bond_distance
_geom_bond_site_symmetry_2
La0 O6 2.503962 1_556
La0 O7 2.503962 1_455
La0 O9 2.516491 1_455
La0 O8 2.516491 1_555
La0 O4 2.555355 1_455
La0 O5 2.555355 1_556
La0 O3 2.557107 1_555
La0 O2 2.557107 1_455
La1 O8 2.503962 1_555
La1 O9 2.503962 1_556
La1 O7 2.516491 1_545
La1 O6 2.516491 1_545
La1 O2 2.555355 1_556
La1 O3 2.555355 1_555
La1 O4 2.557107 1_545
La1 O5 2.557107 1_545
Ga0 O11 1.846119 1_556
Ga0 O12 1.846141 1_556
Ga0 O0 1.914794 1_455
Ga0 O1 1.924637 1_545
Ga1 O13 1.846117 1_554
Ga1 O10 1.846139 1_554
Ga1 O1 1.914797 1_655
Ga1 O0 1.924638 1_554
Cu0 O4 1.967364 1_444
Cu0 O2 1.967782 1_455
Cu0 O6 1.982581 1_545
Cu0 O8 1.990940 1_555
Cu0 O12 2.378261 1_555
Cu1 O5 1.967364 1_655
Cu1 O3 1.967782 1_665
Cu1 O7 1.982581 1_554
Cu1 O9 1.990940 1_565
Cu1 O13 2.378273 1_554
Cu2 O2 1.967367 1_555
Cu2 O4 1.967782 1_555
Cu2 O8 1.982579 1_554
Cu2 O6 1.990934 1_555
Cu2 O10 2.378260 1_554
Cu3 O3 1.967363 1_554
Cu3 O5 1.967785 1_555
Cu3 O9 1.982575 1_555
Cu3 O7 1.990938 1_555
Cu3 O11 2.378273 1_555
O0 Sr2 2.491001 1_555
O0 Sr1 2.491033 1_555
O1 Sr0 2.491008 1_555
O1 Sr3 2.491021 1_555
O2 Sr0 2.819882 1_655
O2 Sr2 2.831687 1_554
O3 Sr1 2.819874 1_455
O3 Sr3 2.831679 1_545
O4 Sr2 2.819885 1_565
O4 Sr0 2.831684 1_655
O5 Sr3 2.819874 1_555
O5 Sr1 2.831679 1_454
O6 Sr2 2.761158 1_565
O6 Sr0 2.764576 1_554
O7 Sr3 2.761149 1_555
O7 Sr1 2.764568 1_555
O8 Sr0 2.761160 1_555
O8 Sr2 2.764573 1_555
O9 Sr1 2.761149 1_555
O9 Sr3 2.764568 1_544
O10 Sr0 2.486443 1_555
O10 Sr2 2.615912 1_566
O10 Sr2 3.008580 1_555
O11 Sr1 2.486443 1_555
O11 Sr3 2.615918 1_555
O11 Sr3 3.008585 1_544
O12 Sr2 2.486437 1_555
O12 Sr0 2.615918 1_555
O12 Sr0 3.008581 1_544
O13 Sr3 2.486448 1_555
O13 Sr1 2.615917 1_566
O13 Sr1 3.008590 1_555
