# generated using pymatgen
data_Ba2CoSe2(ClO3)2
_symmetry_space_group_name_H-M   'P 1'
_cell_length_a   8.65239831
_cell_length_b   8.65239831
_cell_length_c   13.67340265
_cell_angle_alpha   76.24608600
_cell_angle_beta   76.24608600
_cell_angle_gamma   104.39227436
_symmetry_Int_Tables_number   1
_chemical_formula_structural   Ba2CoSe2(ClO3)2
_chemical_formula_sum   'Ba8 Co4 Se8 Cl8 O24'
_cell_volume   913.89585439
_cell_formula_units_Z   4
loop_
 _symmetry_equiv_pos_site_id
 _symmetry_equiv_pos_as_xyz
  1  'x, y, z'
loop_
 _atom_site_type_symbol
 _atom_site_label
 _atom_site_symmetry_multiplicity
 _atom_site_fract_x
 _atom_site_fract_y
 _atom_site_fract_z
 _atom_site_occupancy
  Ba  Ba0  1  0.23946988  0.52875404  0.73177360  1
  Ba  Ba1  1  0.73946988  0.02875404  0.73177360  1
  Ba  Ba2  1  0.26052764  0.97124347  0.26822640  1
  Ba  Ba3  1  0.76052764  0.47124347  0.26822640  1
  Ba  Ba4  1  0.22124347  0.01052764  0.76822640  1
  Ba  Ba5  1  0.72124347  0.51052764  0.76822640  1
  Ba  Ba6  1  0.77875404  0.98946988  0.23177360  1
  Ba  Ba7  1  0.27875404  0.48946988  0.23177360  1
  Co  Co0  1  0.25000638  0.25000638  0.00000000  1
  Co  Co1  1  0.50000638  0.00000638  0.50000000  1
  Co  Co2  1  0.75000638  0.75000638  0.00000000  1
  Co  Co3  1  0.00000638  0.50000638  0.50000000  1
  Se  Se0  1  0.40505656  0.66123633  0.43368988  1
  Se  Se1  1  0.90505656  0.16123633  0.43368988  1
  Se  Se2  1  0.09492622  0.83874644  0.56631012  1
  Se  Se3  1  0.59492622  0.33874644  0.56631012  1
  Se  Se4  1  0.58874644  0.34492622  0.06631012  1
  Se  Se5  1  0.08874644  0.84492622  0.06631012  1
  Se  Se6  1  0.41123633  0.65505656  0.93368988  1
  Se  Se7  1  0.91123633  0.15505656  0.93368988  1
  Cl  Cl0  1  0.96909037  0.63631230  0.89459618  1
  Cl  Cl1  1  0.46909037  0.13631230  0.89459618  1
  Cl  Cl2  1  0.53090848  0.86368655  0.10540382  1
  Cl  Cl3  1  0.03090848  0.36368655  0.10540382  1
  Cl  Cl4  1  0.61368655  0.78090848  0.60540382  1
  Cl  Cl5  1  0.11368655  0.28090848  0.60540382  1
  Cl  Cl6  1  0.38631230  0.21909037  0.39459618  1
  Cl  Cl7  1  0.88631230  0.71909037  0.39459618  1
  O  O0  1  0.38642073  0.78388566  0.82969808  1
  O  O1  1  0.88642073  0.28388566  0.82969808  1
  O  O2  1  0.61358373  0.21611881  0.17030192  1
  O  O3  1  0.11358373  0.71611881  0.17030192  1
  O  O4  1  0.53388566  0.63642073  0.32969808  1
  O  O5  1  0.03388566  0.13642073  0.32969808  1
  O  O6  1  0.96611881  0.86358373  0.67030192  1
  O  O7  1  0.46611881  0.36358373  0.67030192  1
  O  O8  1  0.11581844  0.02622873  0.10336227  1
  O  O9  1  0.61581844  0.52622873  0.10336227  1
  O  O10  1  0.46917971  0.87959100  0.39663773  1
  O  O11  1  0.96917971  0.37959100  0.39663773  1
  O  O12  1  0.22377624  0.63418420  0.39664014  1
  O  O13  1  0.72377624  0.13418420  0.39664014  1
  O  O14  1  0.03082534  0.62041638  0.60335986  1
  O  O15  1  0.53082534  0.12041638  0.60335986  1
  O  O16  1  0.38418420  0.47377624  0.89664014  1
  O  O17  1  0.88418420  0.97377624  0.89664014  1
  O  O18  1  0.37041638  0.28082534  0.10335986  1
  O  O19  1  0.87041638  0.78082534  0.10335986  1
  O  O20  1  0.27622873  0.86581844  0.60336227  1
  O  O21  1  0.77622873  0.36581844  0.60336227  1
  O  O22  1  0.12959100  0.21917971  0.89663773  1
  O  O23  1  0.62959100  0.71917971  0.89663773  1
loop_
_geom_bond_atom_site_label_1
_geom_bond_atom_site_label_2
_geom_bond_distance
_geom_bond_site_symmetry_2
Ba0 O7 2.788409 1_555
Ba0 O22 2.829138 1_555
Ba0 O16 2.829184 1_555
Ba0 O14 2.920254 1_555
Ba0 O20 2.920269 1_555
Ba0 O1 3.016925 1_455
Ba0 O0 3.016989 1_555
Ba0 Cl5 3.203864 1_555
Ba0 Cl4 3.203876 1_555
Ba0 Cl0 3.299472 1_455
Ba1 O6 2.788409 1_545
Ba1 O23 2.829138 1_545
Ba1 O17 2.829184 1_545
Ba1 O15 2.920254 1_555
Ba1 O21 2.920269 1_555
Ba1 O0 3.016925 1_545
Ba1 O1 3.016989 1_555
Ba1 Cl4 3.203864 1_545
Ba1 Cl5 3.203876 1_655
Ba1 Cl1 3.299472 1_555
Ba2 O5 2.788409 1_565
Ba2 O8 2.829132 1_565
Ba2 O18 2.829190 1_565
Ba2 O12 2.920261 1_555
Ba2 O10 2.920261 1_555
Ba2 O3 3.016925 1_555
Ba2 O2 3.016989 1_565
Ba2 Cl7 3.203864 1_455
Ba2 Cl6 3.203876 1_565
Ba2 Cl2 3.299472 1_555
Ba3 O4 2.788409 1_555
Ba3 O9 2.829132 1_555
Ba3 O19 2.829190 1_555
Ba3 O13 2.920261 1_555
Ba3 O11 2.920261 1_555
Ba3 O2 3.016925 1_555
Ba3 O3 3.016989 1_655
Ba3 Cl6 3.203864 1_555
Ba3 Cl7 3.203876 1_555
Ba3 Cl3 3.299472 1_655
Ba4 O0 2.788409 1_545
Ba4 O20 2.829132 1_545
Ba4 O15 2.829190 1_555
Ba4 O17 2.920261 1_445
Ba4 O22 2.920261 1_555
Ba4 O6 3.016925 1_445
Ba4 O7 3.016989 1_555
Ba4 Cl0 3.203864 1_445
Ba4 Cl1 3.203876 1_555
Ba4 Cl5 3.299472 1_555
Ba5 O1 2.788409 1_555
Ba5 O21 2.829132 1_555
Ba5 O14 2.829190 1_655
Ba5 O16 2.920261 1_555
Ba5 O23 2.920261 1_555
Ba5 O7 3.016925 1_555
Ba5 O6 3.016989 1_555
Ba5 Cl1 3.203864 1_555
Ba5 Cl0 3.203876 1_555
Ba5 Cl4 3.299472 1_555
Ba6 O2 2.788409 1_565
Ba6 O10 2.829138 1_555
Ba6 O13 2.829184 1_565
Ba6 O19 2.920254 1_555
Ba6 O8 2.920269 1_665
Ba6 O4 3.016925 1_555
Ba6 O5 3.016989 1_665
Ba6 Cl2 3.203864 1_555
Ba6 Cl3 3.203876 1_665
Ba6 Cl7 3.299472 1_555
Ba7 O3 2.788409 1_555
Ba7 O11 2.829138 1_455
Ba7 O12 2.829184 1_555
Ba7 O18 2.920254 1_555
Ba7 O9 2.920269 1_555
Ba7 O5 3.016925 1_555
Ba7 O4 3.016989 1_555
Ba7 Cl3 3.203864 1_555
Ba7 Cl2 3.203876 1_555
Ba7 Cl6 3.299472 1_555
Co0 O16 1.973604 1_554
Co0 O18 1.973606 1_555
Co0 O8 1.973676 1_555
Co0 O22 1.973677 1_554
Co1 O13 1.973604 1_555
Co1 O15 1.973606 1_555
Co1 O20 1.973676 1_545
Co1 O10 1.973677 1_545
Co2 O17 1.973604 1_554
Co2 O19 1.973606 1_555
Co2 O9 1.973676 1_555
Co2 O23 1.973677 1_554
Co3 O12 1.973604 1_555
Co3 O14 1.973606 1_555
Co3 O21 1.973676 1_455
Co3 O11 1.973677 1_455
Cl0 Co2 2.634436 1_556
Cl1 Co0 2.634436 1_556
Cl2 Co2 2.634436 1_555
Cl3 Co0 2.634436 1_555
Cl4 Co1 2.634436 1_565
Cl5 Co3 2.634436 1_555
Cl6 Co1 2.634436 1_555
Cl7 Co3 2.634436 1_655
O0 Se6 1.679572 1_555
O1 Se7 1.679572 1_555
O2 Se4 1.679572 1_555
O3 Se5 1.679572 1_555
O4 Se0 1.679572 1_555
O5 Se1 1.679572 1_455
O6 Se2 1.679572 1_655
O7 Se3 1.679572 1_555
O8 Se5 1.738975 1_545
O9 Se4 1.738975 1_555
O10 Se0 1.738975 1_555
O11 Se1 1.738975 1_555
O12 Se0 1.738781 1_555
O13 Se1 1.738781 1_555
O14 Se2 1.738781 1_555
O15 Se3 1.738781 1_555
O16 Se6 1.738781 1_555
O17 Se7 1.738781 1_565
O18 Se4 1.738781 1_555
O19 Se5 1.738781 1_655
O20 Se2 1.738975 1_555
O21 Se3 1.738975 1_555
O22 Se7 1.738975 1_455
O23 Se6 1.738975 1_555
