# generated using pymatgen
data_Al5C3N
_symmetry_space_group_name_H-M   'P 1'
_cell_length_a   3.30871007
_cell_length_b   3.30871007
_cell_length_c   21.82761500
_cell_angle_alpha   90.00000000
_cell_angle_beta   90.00000000
_cell_angle_gamma   120.00000149
_symmetry_Int_Tables_number   1
_chemical_formula_structural   Al5C3N
_chemical_formula_sum   'Al10 C6 N2'
_cell_volume   206.94471407
_cell_formula_units_Z   2
loop_
 _symmetry_equiv_pos_site_id
 _symmetry_equiv_pos_as_xyz
  1  'x, y, z'
loop_
 _atom_site_type_symbol
 _atom_site_label
 _atom_site_symmetry_multiplicity
 _atom_site_fract_x
 _atom_site_fract_y
 _atom_site_fract_z
 _atom_site_occupancy
  Al  Al0  1  0.00000000  0.00000000  0.15904300  1
  Al  Al1  1  0.66666700  0.33333300  0.54470400  1
  Al  Al2  1  0.66666700  0.33333300  0.76237000  1
  Al  Al3  1  0.33333300  0.66666700  0.45280900  1
  Al  Al4  1  0.33333300  0.66666700  0.04470400  1
  Al  Al5  1  0.00000000  0.00000000  0.34751800  1
  Al  Al6  1  0.00000000  0.00000000  0.65904300  1
  Al  Al7  1  0.66666700  0.33333300  0.95280900  1
  Al  Al8  1  0.33333300  0.66666700  0.26237000  1
  Al  Al9  1  0.00000000  0.00000000  0.84751800  1
  C  C0  1  0.00000000  0.00000000  0.74885600  1
  C  C1  1  0.66666700  0.33333300  0.86576900  1
  C  C2  1  0.00000000  0.00000000  0.24885600  1
  C  C3  1  0.00000000  0.00000000  0.00227000  1
  C  C4  1  0.33333300  0.66666700  0.36576900  1
  C  C5  1  0.00000000  0.00000000  0.50227000  1
  N  N0  1  0.66666700  0.33333300  0.62966000  1
  N  N1  1  0.33333300  0.66666700  0.12966000  1
loop_
_geom_bond_atom_site_label_1
_geom_bond_atom_site_label_2
_geom_bond_distance
_geom_bond_site_symmetry_2
Al0 C2 1.960404 1_555
Al0 N1 2.015074 1_545
Al0 N1 2.015077 1_555
Al0 N1 2.015077 1_445
Al1 N0 1.854387 1_555
Al1 C5 2.122990 1_655
Al1 C5 2.122993 1_665
Al1 C5 2.122993 1_555
Al2 C0 1.932923 1_655
Al2 C0 1.932926 1_555
Al2 C0 1.932926 1_665
Al2 C1 2.256954 1_555
Al3 C4 1.899876 1_555
Al3 C5 2.194254 1_565
Al3 C5 2.194256 1_555
Al3 C5 2.194256 1_665
Al4 N1 1.854387 1_555
Al4 C3 2.122990 1_565
Al4 C3 2.122993 1_665
Al4 C3 2.122993 1_555
Al5 C4 1.951380 1_545
Al5 C4 1.951383 1_445
Al5 C4 1.951383 1_555
Al5 C2 2.153556 1_555
Al6 C0 1.960404 1_555
Al6 N0 2.015074 1_455
Al6 N0 2.015077 1_445
Al6 N0 2.015077 1_555
Al7 C1 1.899876 1_555
Al7 C3 2.194254 1_656
Al7 C3 2.194256 1_666
Al7 C3 2.194256 1_556
Al8 C2 1.932923 1_565
Al8 C2 1.932926 1_555
Al8 C2 1.932926 1_665
Al8 C4 2.256954 1_555
Al9 C1 1.951380 1_455
Al9 C1 1.951383 1_445
Al9 C1 1.951383 1_555
Al9 C0 2.153556 1_555
