# generated using pymatgen
data_KFeO2
_symmetry_space_group_name_H-M   'P 1'
_cell_length_a   5.58438157
_cell_length_b   11.16743487
_cell_length_c   16.08260022
_cell_angle_alpha   90.00000000
_cell_angle_beta   90.00000000
_cell_angle_gamma   90.00000000
_symmetry_Int_Tables_number   1
_chemical_formula_structural   KFeO2
_chemical_formula_sum   'K16 Fe16 O32'
_cell_volume   1002.96269504
_cell_formula_units_Z   16
loop_
 _symmetry_equiv_pos_site_id
 _symmetry_equiv_pos_as_xyz
  1  'x, y, z'
loop_
 _atom_site_type_symbol
 _atom_site_label
 _atom_site_symmetry_multiplicity
 _atom_site_fract_x
 _atom_site_fract_y
 _atom_site_fract_z
 _atom_site_occupancy
  K  K0  1  0.18773058  0.73248531  0.81655693  1
  K  K1  1  0.75545769  0.48327870  0.56253613  1
  K  K2  1  0.81226942  0.23248531  0.68344307  1
  K  K3  1  0.24454231  0.98327870  0.93746387  1
  K  K4  1  0.25545769  0.48327870  0.93746387  1
  K  K5  1  0.31226942  0.26751469  0.31655693  1
  K  K6  1  0.18773058  0.76751469  0.31655693  1
  K  K7  1  0.25545769  0.01672130  0.43746387  1
  K  K8  1  0.31226942  0.23248531  0.81655693  1
  K  K9  1  0.24454231  0.51672130  0.43746387  1
  K  K10  1  0.75545769  0.01672130  0.06253613  1
  K  K11  1  0.68773058  0.76751469  0.18344307  1
  K  K12  1  0.81226942  0.26751469  0.18344307  1
  K  K13  1  0.68773058  0.73248531  0.68344307  1
  K  K14  1  0.74454231  0.51672130  0.06253613  1
  K  K15  1  0.74454231  0.98327870  0.56253613  1
  Fe  Fe0  1  0.24538800  0.99113055  0.68889311  1
  Fe  Fe1  1  0.20567998  0.73507858  0.56446118  1
  Fe  Fe2  1  0.75461200  0.00886945  0.31110689  1
  Fe  Fe3  1  0.79432002  0.26492142  0.43553882  1
  Fe  Fe4  1  0.75461200  0.49113055  0.81110689  1
  Fe  Fe5  1  0.74538800  0.50886945  0.31110689  1
  Fe  Fe6  1  0.74538800  0.99113055  0.81110689  1
  Fe  Fe7  1  0.70567998  0.73507858  0.93553882  1
  Fe  Fe8  1  0.29432002  0.23507858  0.56446118  1
  Fe  Fe9  1  0.24538800  0.50886945  0.18889311  1
  Fe  Fe10  1  0.20567998  0.76492142  0.06446118  1
  Fe  Fe11  1  0.79432002  0.23507858  0.93553882  1
  Fe  Fe12  1  0.70567998  0.76492142  0.43553882  1
  Fe  Fe13  1  0.29432002  0.26492142  0.06446118  1
  Fe  Fe14  1  0.25461200  0.00886945  0.18889311  1
  Fe  Fe15  1  0.25461200  0.49113055  0.68889311  1
  O  O0  1  0.15691675  0.08723202  0.59734373  1
  O  O1  1  0.34308325  0.91276798  0.09734373  1
  O  O2  1  0.06760013  0.02555468  0.78570413  1
  O  O3  1  0.81281891  0.17028782  0.33919385  1
  O  O4  1  0.89819880  0.79750944  0.02106063  1
  O  O5  1  0.68718109  0.67028782  0.33919385  1
  O  O6  1  0.65691675  0.41276798  0.40265627  1
  O  O7  1  0.43239987  0.52555468  0.78570413  1
  O  O8  1  0.60180120  0.29750944  0.02106063  1
  O  O9  1  0.43239987  0.97444532  0.28570413  1
  O  O10  1  0.56760013  0.47444532  0.21429587  1
  O  O11  1  0.93239987  0.52555468  0.71429587  1
  O  O12  1  0.93239987  0.97444532  0.21429587  1
  O  O13  1  0.31281891  0.17028782  0.16080615  1
  O  O14  1  0.81281891  0.32971218  0.83919385  1
  O  O15  1  0.18718109  0.67028782  0.16080615  1
  O  O16  1  0.06760013  0.47444532  0.28570413  1
  O  O17  1  0.10180120  0.29750944  0.47893937  1
  O  O18  1  0.60180120  0.20249056  0.52106063  1
  O  O19  1  0.34308325  0.58723202  0.59734373  1
  O  O20  1  0.65691675  0.08723202  0.90265627  1
  O  O21  1  0.18718109  0.82971218  0.66080615  1
  O  O22  1  0.84308325  0.58723202  0.90265627  1
  O  O23  1  0.89819880  0.70249056  0.52106063  1
  O  O24  1  0.68718109  0.82971218  0.83919385  1
  O  O25  1  0.84308325  0.91276798  0.40265627  1
  O  O26  1  0.56760013  0.02555468  0.71429587  1
  O  O27  1  0.39819880  0.70249056  0.97893937  1
  O  O28  1  0.31281891  0.32971218  0.66080615  1
  O  O29  1  0.39819880  0.79750944  0.47893937  1
  O  O30  1  0.10180120  0.20249056  0.97893937  1
  O  O31  1  0.15691675  0.41276798  0.09734373  1
loop_
_geom_bond_atom_site_label_1
_geom_bond_atom_site_label_2
_geom_bond_distance
_geom_bond_site_symmetry_2
K0 O7 2.730063 1_555
K0 O21 2.730078 1_555
K0 O22 2.872782 1_455
K0 O27 2.883351 1_555
K0 O24 3.015070 1_555
K0 O24 3.020749 1_455
K0 O11 3.174596 1_455
K1 O19 2.638975 1_555
K1 O23 2.659550 1_555
K1 O11 2.675113 1_555
K1 O6 2.744878 1_555
K2 O26 2.730063 1_555
K2 O14 2.730078 1_555
K2 O0 2.872782 1_655
K2 O18 2.883351 1_555
K2 O28 3.015070 1_555
K2 O28 3.020749 1_655
K2 O2 3.174596 1_655
K3 O20 2.638975 1_565
K3 O30 2.659550 1_565
K3 O2 2.675113 1_565
K3 O1 2.744878 1_556
K4 O22 2.638975 1_455
K4 O27 2.659550 1_555
K4 O7 2.675113 1_555
K4 O31 2.744878 1_556
K5 O16 2.730063 1_555
K5 O13 2.730078 1_555
K5 O6 2.872782 1_555
K5 O17 2.883351 1_555
K5 O3 3.015070 1_455
K5 O3 3.020749 1_555
K5 O10 3.174596 1_555
K6 O9 2.730063 1_555
K6 O15 2.730078 1_555
K6 O25 2.872782 1_455
K6 O29 2.883351 1_555
K6 O5 3.015070 1_555
K6 O5 3.020749 1_455
K6 O12 3.174596 1_455
K7 O25 2.638975 1_445
K7 O29 2.659550 1_545
K7 O9 2.675113 1_545
K7 O0 2.744878 1_555
K8 O2 2.730063 1_555
K8 O28 2.730078 1_555
K8 O20 2.872782 1_555
K8 O30 2.883351 1_555
K8 O14 3.015070 1_455
K8 O14 3.020749 1_555
K8 O26 3.174596 1_555
K9 O6 2.638975 1_555
K9 O17 2.659550 1_555
K9 O16 2.675113 1_555
K9 O19 2.744878 1_555
K10 O1 2.638975 1_545
K10 O4 2.659550 1_545
K10 O12 2.675113 1_545
K10 O20 2.744878 1_554
K11 O12 2.730063 1_555
K11 O5 2.730078 1_555
K11 O1 2.872782 1_555
K11 O4 2.883351 1_555
K11 O15 3.015070 1_655
K11 O15 3.020749 1_555
K11 O9 3.174596 1_555
K12 O10 2.730063 1_555
K12 O3 2.730078 1_555
K12 O31 2.872782 1_655
K12 O8 2.883351 1_555
K12 O13 3.015070 1_555
K12 O13 3.020749 1_655
K12 O16 3.174596 1_655
K13 O11 2.730063 1_555
K13 O24 2.730078 1_555
K13 O19 2.872782 1_555
K13 O23 2.883351 1_555
K13 O21 3.015070 1_655
K13 O21 3.020749 1_555
K13 O7 3.174596 1_555
K14 O31 2.638975 1_655
K14 O8 2.659550 1_555
K14 O10 2.675113 1_555
K14 O22 2.744878 1_554
K15 O0 2.638975 1_665
K15 O18 2.659550 1_565
K15 O26 2.675113 1_565
K15 O25 2.744878 1_555
Fe0 O26 1.884774 1_565
Fe0 O2 1.886179 1_565
Fe0 O21 1.886577 1_555
Fe0 O0 1.887773 1_565
Fe1 O21 1.878406 1_555
Fe1 O29 1.879807 1_555
Fe1 O23 1.888926 1_455
Fe1 O19 1.895906 1_555
Fe2 O9 1.884774 1_545
Fe2 O12 1.886179 1_545
Fe2 O3 1.886577 1_555
Fe2 O25 1.887773 1_545
Fe3 O3 1.878406 1_555
Fe3 O18 1.879807 1_555
Fe3 O17 1.888926 1_655
Fe3 O6 1.895906 1_555
Fe4 O7 1.884774 1_555
Fe4 O11 1.886179 1_555
Fe4 O14 1.886577 1_555
Fe4 O22 1.887773 1_555
Fe5 O16 1.884774 1_655
Fe5 O10 1.886179 1_555
Fe5 O5 1.886577 1_555
Fe5 O6 1.887773 1_555
Fe6 O2 1.884774 1_665
Fe6 O26 1.886179 1_565
Fe6 O24 1.886577 1_555
Fe6 O20 1.887773 1_565
Fe7 O24 1.878406 1_555
Fe7 O4 1.879807 1_556
Fe7 O27 1.888926 1_555
Fe7 O22 1.895906 1_555
Fe8 O28 1.878406 1_555
Fe8 O17 1.879807 1_555
Fe8 O18 1.888926 1_555
Fe8 O0 1.895906 1_555
Fe9 O10 1.884774 1_555
Fe9 O16 1.886179 1_555
Fe9 O15 1.886577 1_555
Fe9 O31 1.887773 1_555
Fe10 O15 1.878406 1_555
Fe10 O27 1.879807 1_554
Fe10 O4 1.888926 1_455
Fe10 O1 1.895906 1_555
Fe11 O14 1.878406 1_555
Fe11 O8 1.879807 1_556
Fe11 O30 1.888926 1_655
Fe11 O20 1.895906 1_555
Fe12 O5 1.878406 1_555
Fe12 O23 1.879807 1_555
Fe12 O29 1.888926 1_555
Fe12 O25 1.895906 1_555
Fe13 O13 1.878406 1_555
Fe13 O30 1.879807 1_554
Fe13 O8 1.888926 1_555
Fe13 O31 1.895906 1_555
Fe14 O12 1.884774 1_445
Fe14 O9 1.886179 1_545
Fe14 O13 1.886577 1_555
Fe14 O1 1.887773 1_545
Fe15 O11 1.884774 1_455
Fe15 O7 1.886179 1_555
Fe15 O28 1.886577 1_555
Fe15 O19 1.887773 1_555
