# generated using pymatgen
data_Sr2VO4
_symmetry_space_group_name_H-M   'P 1'
_cell_length_a   5.96892100
_cell_length_b   10.66544600
_cell_length_c   14.69336100
_cell_angle_alpha   90.00000000
_cell_angle_beta   90.00000000
_cell_angle_gamma   90.00000000
_symmetry_Int_Tables_number   1
_chemical_formula_structural   Sr2VO4
_chemical_formula_sum   'Sr16 V8 O32'
_cell_volume   935.39706094
_cell_formula_units_Z   8
loop_
 _symmetry_equiv_pos_site_id
 _symmetry_equiv_pos_as_xyz
  1  'x, y, z'
loop_
 _atom_site_type_symbol
 _atom_site_label
 _atom_site_symmetry_multiplicity
 _atom_site_fract_x
 _atom_site_fract_y
 _atom_site_fract_z
 _atom_site_occupancy
  Sr  Sr0  1  0.20350500  0.02550900  0.14816300  1
  Sr  Sr1  1  0.79649500  0.52550900  0.85183700  1
  Sr  Sr2  1  0.29649500  0.02550900  0.64816300  1
  Sr  Sr3  1  0.70350500  0.52550900  0.35183700  1
  Sr  Sr4  1  0.18953700  0.67206200  0.20718800  1
  Sr  Sr5  1  0.81046300  0.17206200  0.79281200  1
  Sr  Sr6  1  0.31046300  0.67206200  0.70718800  1
  Sr  Sr7  1  0.68953700  0.17206200  0.29281200  1
  Sr  Sr8  1  0.22977700  0.90926200  0.40422800  1
  Sr  Sr9  1  0.77022300  0.40926200  0.59577200  1
  Sr  Sr10  1  0.27022300  0.90926200  0.90422800  1
  Sr  Sr11  1  0.72977700  0.40926200  0.09577200  1
  Sr  Sr12  1  0.22252400  0.27635200  0.47440500  1
  Sr  Sr13  1  0.77747600  0.77635200  0.52559500  1
  Sr  Sr14  1  0.27747600  0.27635200  0.97440500  1
  Sr  Sr15  1  0.72252400  0.77635200  0.02559500  1
  V  V0  1  0.76194500  0.11391200  0.02793300  1
  V  V1  1  0.23805500  0.61391200  0.97206700  1
  V  V2  1  0.73805500  0.11391200  0.52793300  1
  V  V3  1  0.26194500  0.61391200  0.47206700  1
  V  V4  1  0.77709300  0.87803000  0.27265300  1
  V  V5  1  0.22290700  0.37803000  0.72734700  1
  V  V6  1  0.72290700  0.87803000  0.77265300  1
  V  V7  1  0.27709300  0.37803000  0.22734700  1
  O  O0  1  0.35781400  0.25817800  0.14670100  1
  O  O1  1  0.64218600  0.75817800  0.85329900  1
  O  O2  1  0.14218600  0.25817800  0.64670100  1
  O  O3  1  0.85781400  0.75817800  0.35329900  1
  O  O4  1  0.00500000  0.45473400  0.23411700  1
  O  O5  1  0.99500000  0.95473400  0.76588300  1
  O  O6  1  0.49500000  0.45473400  0.73411700  1
  O  O7  1  0.50500000  0.95473400  0.26588300  1
  O  O8  1  0.85314300  0.18330800  0.13405100  1
  O  O9  1  0.14685700  0.68330800  0.86594900  1
  O  O10  1  0.64685700  0.18330800  0.63405100  1
  O  O11  1  0.35314300  0.68330800  0.36594900  1
  O  O12  1  0.97382100  0.00806500  0.29696300  1
  O  O13  1  0.02617900  0.50806500  0.70303700  1
  O  O14  1  0.52617900  0.00806500  0.79696300  1
  O  O15  1  0.47382100  0.50806500  0.20303700  1
  O  O16  1  0.82261900  0.24619300  0.45323900  1
  O  O17  1  0.17738100  0.74619300  0.54676100  1
  O  O18  1  0.67738100  0.24619300  0.95323900  1
  O  O19  1  0.32261900  0.74619300  0.04676100  1
  O  O20  1  0.40615100  0.32942800  0.33576000  1
  O  O21  1  0.59384900  0.82942800  0.66424000  1
  O  O22  1  0.09384900  0.32942800  0.83576000  1
  O  O23  1  0.90615100  0.82942800  0.16424000  1
  O  O24  1  0.03512400  0.05848900  0.98440100  1
  O  O25  1  0.96487600  0.55848900  0.01559900  1
  O  O26  1  0.46487600  0.05848900  0.48440100  1
  O  O27  1  0.53512400  0.55848900  0.51559900  1
  O  O28  1  0.53947000  0.99947900  0.02587600  1
  O  O29  1  0.46053000  0.49947900  0.97412400  1
  O  O30  1  0.96053000  0.99947900  0.52587600  1
  O  O31  1  0.03947000  0.49947900  0.47412400  1
loop_
_geom_bond_atom_site_label_1
_geom_bond_atom_site_label_2
_geom_bond_distance
_geom_bond_site_symmetry_2
O0 V7 1.808388 1_555
O0 Sr14 2.583904 1_554
O0 Sr0 2.647026 1_555
O0 Sr11 2.843569 1_555
O0 Sr7 3.061553 1_555
O1 V6 1.808388 1_555
O1 Sr15 2.583904 1_556
O1 Sr1 2.647026 1_555
O1 Sr10 2.843569 1_555
O1 Sr6 3.061553 1_555
O2 V5 1.808388 1_555
O2 Sr12 2.583904 1_555
O2 Sr2 2.647026 1_555
O2 Sr9 2.843569 1_455
O2 Sr5 3.061553 1_455
O3 V4 1.808388 1_555
O3 Sr13 2.583904 1_555
O3 Sr3 2.647026 1_555
O3 Sr8 2.843569 1_655
O3 Sr4 3.061553 1_655
O4 V7 1.821225 1_555
O4 Sr4 2.596631 1_555
O4 Sr3 2.607724 1_455
O4 Sr11 2.658201 1_455
O5 V6 1.821225 1_555
O5 Sr5 2.596631 1_565
O5 Sr2 2.607724 1_665
O5 Sr10 2.658201 1_655
O6 V5 1.821225 1_555
O6 Sr6 2.596631 1_555
O6 Sr1 2.607724 1_555
O6 Sr9 2.658201 1_555
O7 V4 1.821225 1_555
O7 Sr7 2.596631 1_565
O7 Sr0 2.607724 1_565
O7 Sr8 2.658201 1_555
O8 V0 1.809786 1_555
O8 Sr7 2.531735 1_555
O8 Sr11 2.581897 1_555
O8 Sr0 2.692385 1_655
O9 V1 1.809786 1_555
O9 Sr6 2.531735 1_555
O9 Sr10 2.581897 1_555
O9 Sr1 2.692385 1_455
O10 V2 1.809786 1_555
O10 Sr5 2.531735 1_555
O10 Sr9 2.581897 1_555
O10 Sr2 2.692385 1_555
O11 V3 1.809786 1_555
O11 Sr4 2.531735 1_555
O11 Sr8 2.581897 1_555
O11 Sr3 2.692385 1_555
O12 V4 1.851999 1_545
O12 Sr8 2.434872 1_645
O12 Sr7 2.437712 1_555
O12 Sr0 2.587351 1_655
O13 V5 1.851999 1_555
O13 Sr9 2.434872 1_455
O13 Sr6 2.437712 1_555
O13 Sr1 2.587351 1_455
O14 V6 1.851999 1_545
O14 Sr10 2.434872 1_545
O14 Sr5 2.437712 1_555
O14 Sr2 2.587351 1_555
O15 V7 1.851999 1_555
O15 Sr11 2.434872 1_555
O15 Sr4 2.437712 1_555
O15 Sr3 2.587351 1_555
O16 V2 1.857352 1_555
O16 Sr12 2.428572 1_655
O16 Sr7 2.610088 1_555
O16 Sr9 2.740198 1_555
O17 V3 1.857352 1_555
O17 Sr13 2.428572 1_455
O17 Sr6 2.610088 1_555
O17 Sr8 2.740198 1_555
O18 V0 1.857352 1_556
O18 Sr14 2.428572 1_555
O18 Sr5 2.610088 1_555
O18 Sr11 2.740198 1_556
O19 V1 1.857352 1_554
O19 Sr15 2.428572 1_555
O19 Sr4 2.610088 1_555
O19 Sr10 2.740198 1_554
O20 V7 1.843804 1_555
O20 Sr12 2.381556 1_555
O20 Sr7 2.465032 1_555
O20 Sr3 2.753091 1_555
O21 V6 1.843804 1_555
O21 Sr13 2.381556 1_555
O21 Sr6 2.465032 1_555
O21 Sr2 2.753091 1_565
O22 V5 1.843804 1_555
O22 Sr14 2.381556 1_555
O22 Sr5 2.465032 1_455
O22 Sr1 2.753091 1_455
O23 V4 1.843804 1_555
O23 Sr15 2.381556 1_555
O23 Sr4 2.465032 1_655
O23 Sr0 2.753091 1_665
O24 V0 1.848606 1_456
O24 Sr10 2.426938 1_545
O24 Sr0 2.631297 1_556
O24 Sr14 2.741042 1_555
O25 V1 1.848606 1_654
O25 Sr11 2.426938 1_555
O25 Sr1 2.631297 1_554
O25 Sr15 2.741042 1_555
O26 V2 1.848606 1_555
O26 Sr8 2.426938 1_545
O26 Sr2 2.631297 1_555
O26 Sr12 2.741042 1_555
O27 V3 1.848606 1_555
O27 Sr9 2.426938 1_555
O27 Sr3 2.631297 1_555
O27 Sr13 2.741042 1_555
O28 V0 1.803856 1_565
O28 Sr10 2.589115 1_554
O28 Sr15 2.618601 1_555
O28 Sr0 2.706845 1_565
O29 V1 1.803856 1_555
O29 Sr11 2.589115 1_556
O29 Sr14 2.618601 1_555
O29 Sr1 2.706845 1_555
O30 V2 1.803856 1_565
O30 Sr8 2.589115 1_655
O30 Sr13 2.618601 1_555
O30 Sr2 2.706845 1_665
O31 V3 1.803856 1_555
O31 Sr9 2.589115 1_455
O31 Sr12 2.618601 1_555
O31 Sr3 2.706845 1_455
