# generated using pymatgen
data_Yb2CdSb2
_symmetry_space_group_name_H-M   'P 1'
_cell_length_a   9.06471197
_cell_length_b   9.06471197
_cell_length_c   7.26054800
_cell_angle_alpha   90.00000000
_cell_angle_beta   90.00000000
_cell_angle_gamma   150.22273097
_symmetry_Int_Tables_number   1
_chemical_formula_structural   Yb2CdSb2
_chemical_formula_sum   'Yb4 Cd2 Sb4'
_cell_volume   296.28527376
_cell_formula_units_Z   2
loop_
 _symmetry_equiv_pos_site_id
 _symmetry_equiv_pos_as_xyz
  1  'x, y, z'
loop_
 _atom_site_type_symbol
 _atom_site_label
 _atom_site_symmetry_multiplicity
 _atom_site_fract_x
 _atom_site_fract_y
 _atom_site_fract_z
 _atom_site_occupancy
  Yb  Yb0  1  0.47901400  0.52098600  0.72104100  1
  Yb  Yb1  1  0.52098600  0.47901400  0.22104100  1
  Yb  Yb2  1  0.69736100  0.30263900  0.53071400  1
  Yb  Yb3  1  0.30263900  0.69736100  0.03071400  1
  Cd  Cd0  1  0.90144200  0.09855800  0.39528000  1
  Cd  Cd1  1  0.09855800  0.90144200  0.89528000  1
  Sb  Sb0  1  0.32069800  0.67930200  0.51194600  1
  Sb  Sb1  1  0.67930200  0.32069800  0.01194600  1
  Sb  Sb2  1  0.06797900  0.93202100  0.49852900  1
  Sb  Sb3  1  0.93202100  0.06797900  0.99852900  1
loop_
_geom_bond_atom_site_label_1
_geom_bond_atom_site_label_2
_geom_bond_distance
_geom_bond_site_symmetry_2
Cd0 Sb0 2.853694 1_655
Cd0 Sb0 2.853694 1_545
Cd0 Sb3 2.930030 1_554
Cd0 Sb2 3.012615 1_645
Cd0 Yb1 3.378171 1_545
Cd0 Yb1 3.378171 1_655
Cd0 Yb0 3.586933 1_545
Cd0 Yb0 3.586933 1_655
Cd0 Yb2 3.708401 1_555
Cd0 Yb3 3.927818 1_655
Cd0 Yb3 3.927818 1_545
Cd1 Sb1 2.853694 1_456
Cd1 Sb1 2.853694 1_566
Cd1 Sb2 2.930030 1_555
Cd1 Sb3 3.012615 1_465
Cd1 Yb0 3.378171 1_455
Cd1 Yb0 3.378171 1_565
Cd1 Yb1 3.586933 1_566
Cd1 Yb1 3.586933 1_456
Cd1 Yb3 3.708401 1_556
Cd1 Yb2 3.927818 1_565
Cd1 Yb2 3.927818 1_455
Sb0 Yb0 3.162092 1_555
Sb0 Yb2 3.180095 1_455
Sb0 Yb2 3.180095 1_565
Sb0 Yb3 3.508305 1_555
Sb0 Yb3 3.779806 1_556
Sb1 Yb1 3.162092 1_555
Sb1 Yb3 3.180095 1_545
Sb1 Yb3 3.180095 1_655
Sb1 Yb2 3.508305 1_554
Sb1 Yb2 3.779806 1_555
Sb2 Yb1 3.187739 1_565
Sb2 Yb1 3.187739 1_455
Sb2 Yb0 3.234869 1_565
Sb2 Yb0 3.234869 1_455
Sb2 Yb2 3.258528 1_565
Sb2 Yb2 3.258528 1_455
Sb3 Yb0 3.187739 1_545
Sb3 Yb0 3.187739 1_655
Sb3 Yb1 3.234869 1_656
Sb3 Yb1 3.234869 1_546
Sb3 Yb3 3.258528 1_656
Sb3 Yb3 3.258528 1_546
