# generated using pymatgen
data_Si
_symmetry_space_group_name_H-M   'P 1'
_cell_length_a   5.75924370
_cell_length_b   5.75924457
_cell_length_c   5.75924622
_cell_angle_alpha   109.84536823
_cell_angle_beta   109.84536609
_cell_angle_gamma   109.84537281
_symmetry_Int_Tables_number   1
_chemical_formula_structural   Si
_chemical_formula_sum   Si8
_cell_volume   144.98047198
_cell_formula_units_Z   8
loop_
 _symmetry_equiv_pos_site_id
 _symmetry_equiv_pos_as_xyz
  1  'x, y, z'
loop_
 _atom_site_type_symbol
 _atom_site_label
 _atom_site_symmetry_multiplicity
 _atom_site_fract_x
 _atom_site_fract_y
 _atom_site_fract_z
 _atom_site_occupancy
  Si  Si0  1  0.01710242  0.71491061  0.51876050  1
  Si  Si1  1  0.98289758  0.28508839  0.48123950  1
  Si  Si2  1  0.71284515  0.71284515  0.71284515  1
  Si  Si3  1  0.28508839  0.48123950  0.98289758  1
  Si  Si4  1  0.48123950  0.98289758  0.28508839  1
  Si  Si5  1  0.71491061  0.51876050  0.01710242  1
  Si  Si6  1  0.28715485  0.28715485  0.28715485  1
  Si  Si7  1  0.51876050  0.01710242  0.71491061  1
loop_
_geom_bond_atom_site_label_1
_geom_bond_atom_site_label_2
_geom_bond_distance
_geom_bond_site_symmetry_2
Si0 Si1 2.343110 1_455
Si0 Si2 2.375890 1_455
Si0 Si7 2.384844 1_565
Si0 Si5 2.384845 1_455
Si1 Si6 2.375890 1_655
Si1 Si4 2.384842 1_545
Si1 Si3 2.384843 1_655
Si2 Si7 2.375890 1_565
Si2 Si5 2.375891 1_556
Si2 Si6 2.406000 1_555
Si3 Si5 2.343110 1_556
Si3 Si6 2.375890 1_556
Si3 Si4 2.384843 1_556
Si4 Si7 2.343111 1_565
Si4 Si6 2.375890 1_565
Si5 Si7 2.384845 1_554
