# generated using pymatgen
data_Rb2SiP4O13
_symmetry_space_group_name_H-M   'P 1'
_cell_length_a   4.85405658
_cell_length_b   7.71066527
_cell_length_c   15.10465640
_cell_angle_alpha   83.76490549
_cell_angle_beta   83.91149613
_cell_angle_gamma   82.03066893
_symmetry_Int_Tables_number   1
_chemical_formula_structural   Rb2SiP4O13
_chemical_formula_sum   'Rb4 Si2 P8 O26'
_cell_volume   554.18236482
_cell_formula_units_Z   2
loop_
 _symmetry_equiv_pos_site_id
 _symmetry_equiv_pos_as_xyz
  1  'x, y, z'
loop_
 _atom_site_type_symbol
 _atom_site_label
 _atom_site_symmetry_multiplicity
 _atom_site_fract_x
 _atom_site_fract_y
 _atom_site_fract_z
 _atom_site_occupancy
  Rb  Rb0  1  0.72720980  0.69103547  0.97018132  1
  Rb  Rb1  1  0.27279020  0.30896453  0.02981868  1
  Rb  Rb2  1  0.32992253  0.25411402  0.51195901  1
  Rb  Rb3  1  0.67007747  0.74588598  0.48804099  1
  Si  Si0  1  0.45410483  0.05825704  0.75918281  1
  Si  Si1  1  0.54589517  0.94174396  0.24081719  1
  P  P0  1  0.68251813  0.32158573  0.21113353  1
  P  P1  1  0.31748187  0.67841427  0.78886647  1
  P  P2  1  0.10366896  0.79090525  0.14874111  1
  P  P3  1  0.32345101  0.59487879  0.30736431  1
  P  P4  1  0.98475686  0.08934801  0.33719254  1
  P  P5  1  0.01524314  0.91065199  0.66280746  1
  P  P6  1  0.89633104  0.20909475  0.85125889  1
  P  P7  1  0.67654899  0.40512121  0.69263569  1
  O  O0  1  0.80398220  0.28141387  0.93740922  1
  O  O1  1  0.29574677  0.01903336  0.32866623  1
  O  O2  1  0.51476041  0.59455470  0.70900897  1
  O  O3  1  0.48523959  0.40544530  0.29099103  1
  O  O4  1  0.46179161  0.27690675  0.71002737  1
  O  O5  1  0.79480183  0.86712345  0.15470318  1
  O  O6  1  0.55366744  0.16174974  0.19289396  1
  O  O7  1  0.19601780  0.71858613  0.06259078  1
  O  O8  1  0.27797133  0.92815501  0.17282078  1
  O  O9  1  0.72202867  0.07184499  0.82717922  1
  O  O10  1  0.73122952  0.44668777  0.13296466  1
  O  O11  1  0.44633256  0.83825026  0.80710604  1
  O  O12  1  0.20519817  0.13287655  0.84529682  1
  O  O13  1  0.70425323  0.98096664  0.67133377  1
  O  O14  1  0.17643880  0.58059108  0.39721493  1
  O  O15  1  0.11570881  0.84677393  0.57532221  1
  O  O16  1  0.87330839  0.36572553  0.77073973  1
  O  O17  1  0.04280993  0.74929567  0.74206653  1
  O  O18  1  0.82356120  0.41940892  0.60278507  1
  O  O19  1  0.53820839  0.72309325  0.28997263  1
  O  O20  1  0.26877048  0.55331223  0.86703534  1
  O  O21  1  0.95719007  0.25070433  0.25793347  1
  O  O22  1  0.88429119  0.15322607  0.42467779  1
  O  O23  1  0.81388244  0.95404834  0.30951076  1
  O  O24  1  0.18611756  0.04595166  0.69048924  1
  O  O25  1  0.12669161  0.63427447  0.22926027  1
loop_
_geom_bond_atom_site_label_1
_geom_bond_atom_site_label_2
_geom_bond_distance
_geom_bond_site_symmetry_2
O0 P6 1.473013 1_555
O0 Rb1 2.791205 1_556
O0 Rb1 2.836216 1_656
O0 Rb0 3.214632 1_555
O1 P4 1.528496 1_455
O1 Si1 1.794326 1_545
O1 Rb2 3.499862 1_555
O1 Rb3 3.506842 1_545
O2 P7 1.590793 1_555
O2 P1 1.594608 1_555
O2 Rb3 3.454566 1_555
O3 P3 1.590793 1_555
O3 P0 1.594608 1_555
O3 Rb2 3.454566 1_555
O4 P7 1.518002 1_555
O4 Si0 1.770509 1_555
O4 Rb2 3.153228 1_555
O5 P2 1.529643 1_655
O5 Si1 1.766107 1_555
O5 Rb0 3.295269 1_554
O6 P0 1.519884 1_555
O6 Si1 1.774363 1_545
O6 Rb1 2.981711 1_555
O7 P2 1.473013 1_555
O7 Rb0 2.791205 1_554
O7 Rb0 2.836216 1_454
O7 Rb1 3.214632 1_555
O8 P2 1.537943 1_555
O8 Si1 1.761161 1_555
O8 Rb1 3.449844 1_565
O9 P6 1.537943 1_555
O9 Si0 1.761159 1_555
O9 Rb0 3.449844 1_545
O10 P0 1.461886 1_555
O10 Rb0 2.930784 1_554
O10 Rb1 3.030175 1_655
O10 Rb1 3.202660 1_555
O11 P1 1.519884 1_555
O11 Si0 1.774370 1_565
O11 Rb0 2.981711 1_555
O12 P6 1.529643 1_455
O12 Si0 1.766104 1_555
O12 Rb1 3.295269 1_556
O13 P5 1.528496 1_655
O13 Si0 1.794328 1_565
O13 Rb3 3.499862 1_555
O13 Rb2 3.506842 1_565
O14 P3 1.465312 1_555
O14 Rb3 2.888547 1_455
O14 Rb2 2.949942 1_555
O14 Rb3 3.342459 1_555
O15 P5 1.471285 1_555
O15 Rb3 2.883851 1_455
O15 Rb3 2.911034 1_555
O15 Rb2 3.450178 1_565
O16 P7 1.573834 1_555
O16 P6 1.619450 1_555
O17 P1 1.577967 1_555
O17 P5 1.631984 1_555
O18 P7 1.465312 1_555
O18 Rb2 2.888547 1_655
O18 Rb3 2.949942 1_555
O18 Rb2 3.342459 1_555
O19 P3 1.518002 1_555
O19 Si1 1.770516 1_555
O19 Rb3 3.153228 1_555
O20 P1 1.461886 1_555
O20 Rb1 2.930784 1_556
O20 Rb0 3.030175 1_455
O20 Rb0 3.202660 1_555
O21 P0 1.577967 1_555
O21 P4 1.631984 1_555
O22 P4 1.471285 1_555
O22 Rb2 2.883851 1_655
O22 Rb2 2.911034 1_555
O22 Rb3 3.450178 1_545
O23 P4 1.536039 1_565
O23 Si1 1.766258 1_555
O23 Rb3 3.050665 1_555
O24 P5 1.536039 1_545
O24 Si0 1.766260 1_555
O24 Rb2 3.050665 1_555
O25 P3 1.573834 1_555
O25 P2 1.619450 1_555
