# generated using pymatgen
data_TmB4
_symmetry_space_group_name_H-M   'P 1'
_cell_length_a   3.97653379
_cell_length_b   7.03959467
_cell_length_c   7.03959467
_cell_angle_alpha   90.00000000
_cell_angle_beta   90.00000000
_cell_angle_gamma   90.00000000
_symmetry_Int_Tables_number   1
_chemical_formula_structural   TmB4
_chemical_formula_sum   'Tm4 B16'
_cell_volume   197.06068348
_cell_formula_units_Z   4
loop_
 _symmetry_equiv_pos_site_id
 _symmetry_equiv_pos_as_xyz
  1  'x, y, z'
loop_
 _atom_site_type_symbol
 _atom_site_label
 _atom_site_symmetry_multiplicity
 _atom_site_fract_x
 _atom_site_fract_y
 _atom_site_fract_z
 _atom_site_occupancy
  Tm  Tm0  1  0.00000000  0.68119388  0.18119388  1
  Tm  Tm1  1  0.00000000  0.31880612  0.81880612  1
  Tm  Tm2  1  0.00000000  0.81880612  0.68119388  1
  Tm  Tm3  1  0.00000000  0.18119388  0.31880612  1
  B  B0  1  0.50000000  0.41319044  0.08680956  1
  B  B1  1  0.79770000  0.50000000  0.50000000  1
  B  B2  1  0.50000000  0.82337817  0.96172914  1
  B  B3  1  0.50000000  0.53827086  0.67662183  1
  B  B4  1  0.20230000  0.50000000  0.50000000  1
  B  B5  1  0.50000000  0.46172914  0.32337817  1
  B  B6  1  0.20230000  -0.00000000  0.00000000  1
  B  B7  1  0.50000000  0.17662183  0.03827086  1
  B  B8  1  0.50000000  0.32337817  0.53827086  1
  B  B9  1  0.50000000  0.03827086  0.82337817  1
  B  B10  1  0.50000000  0.08680956  0.58680956  1
  B  B11  1  0.50000000  0.67662183  0.46172914  1
  B  B12  1  0.50000000  0.91319044  0.41319044  1
  B  B13  1  0.50000000  0.58680956  0.91319044  1
  B  B14  1  0.50000000  0.96172914  0.17662183  1
  B  B15  1  0.79770000  -0.00000000  0.00000000  1
loop_
_geom_bond_atom_site_label_1
_geom_bond_atom_site_label_2
_geom_bond_distance
_geom_bond_site_symmetry_2
B0 B7 1.700040 1_555
B0 B5 1.700040 1_555
B0 B13 1.728463 1_554
B0 Tm0 2.820295 1_555
B0 Tm0 2.820295 1_655
B0 Tm1 2.820295 1_654
B0 Tm1 2.820295 1_554
B0 Tm3 3.047563 1_655
B0 Tm3 3.047563 1_555
B1 B4 1.608906 1_655
B1 B3 1.737788 1_555
B1 B11 1.737788 1_555
B1 B8 1.737788 1_555
B1 B5 1.737788 1_555
B1 Tm1 2.703859 1_655
B1 Tm0 2.703859 1_655
B1 Tm2 2.703859 1_655
B1 Tm3 2.703859 1_655
B2 B6 1.737788 1_566
B2 B9 1.799162 1_565
B2 Tm0 2.709593 1_556
B2 Tm0 2.709593 1_656
B2 Tm2 2.802551 1_655
B2 Tm2 2.802551 1_555
B3 B4 1.737788 1_555
B3 B8 1.799162 1_555
B3 Tm1 2.709593 1_655
B3 Tm1 2.709593 1_555
B3 Tm2 2.802551 1_655
B3 Tm2 2.802551 1_555
B4 B8 1.737788 1_555
B4 B5 1.737788 1_555
B4 Tm3 2.703859 1_555
B4 Tm1 2.703859 1_555
B4 Tm0 2.703859 1_555
B4 Tm2 2.703859 1_555
B5 B8 1.799162 1_555
B5 Tm0 2.709593 1_555
B5 Tm0 2.709593 1_655
B5 Tm3 2.802551 1_555
B5 Tm3 2.802551 1_655
B6 B9 1.737788 1_554
B6 B7 1.737788 1_555
B6 Tm0 2.703859 1_545
B6 Tm2 2.703859 1_544
B6 Tm1 2.703859 1_554
B6 Tm3 2.703859 1_555
B7 B9 1.799162 1_554
B7 Tm1 2.709593 1_654
B7 Tm1 2.709593 1_554
B7 Tm3 2.802551 1_655
B7 Tm3 2.802551 1_555
B8 Tm3 2.709593 1_655
B8 Tm3 2.709593 1_555
B8 Tm1 2.802551 1_655
B8 Tm1 2.802551 1_555
B9 Tm2 2.709593 1_545
B9 Tm2 2.709593 1_645
B9 Tm1 2.802551 1_555
B9 Tm1 2.802551 1_655
B10 B8 1.700040 1_555
B10 B9 1.700040 1_555
B10 B12 1.728463 1_545
B10 Tm3 2.820295 1_655
B10 Tm3 2.820295 1_555
B10 Tm2 2.820295 1_645
B10 Tm2 2.820295 1_545
B10 Tm1 3.047563 1_555
B10 Tm1 3.047563 1_655
B11 B12 1.700040 1_555
B11 B4 1.737788 1_555
B11 B5 1.799162 1_555
B11 B3 1.799162 1_555
B11 Tm2 2.709593 1_555
B11 Tm2 2.709593 1_655
B11 Tm0 2.802551 1_555
B11 Tm0 2.802551 1_655
B12 B14 1.700040 1_555
B12 Tm3 2.820295 1_565
B12 Tm3 2.820295 1_665
B12 Tm2 2.820295 1_555
B12 Tm2 2.820295 1_655
B12 Tm0 3.047563 1_555
B12 Tm0 3.047563 1_655
B13 B3 1.700040 1_555
B13 B2 1.700040 1_555
B13 Tm0 2.820295 1_556
B13 Tm0 2.820295 1_656
B13 Tm1 2.820295 1_555
B13 Tm1 2.820295 1_655
B13 Tm2 3.047563 1_655
B13 Tm2 3.047563 1_555
B14 B6 1.737788 1_565
B14 B15 1.737788 1_565
B14 B7 1.799162 1_565
B14 B2 1.799162 1_554
B14 Tm3 2.709593 1_565
B14 Tm3 2.709593 1_665
B14 Tm0 2.802551 1_555
B14 Tm0 2.802551 1_655
B15 B6 1.608906 1_655
B15 B9 1.737788 1_554
B15 B2 1.737788 1_544
B15 B7 1.737788 1_555
B15 Tm2 2.703859 1_644
B15 Tm0 2.703859 1_645
B15 Tm3 2.703859 1_655
B15 Tm1 2.703859 1_654
