# generated using pymatgen
data_AgBO2
_symmetry_space_group_name_H-M   'P 1'
_cell_length_a   8.64050400
_cell_length_b   8.76595600
_cell_length_c   19.96976500
_cell_angle_alpha   90.00000000
_cell_angle_beta   90.00000000
_cell_angle_gamma   90.00000000
_symmetry_Int_Tables_number   1
_chemical_formula_structural   AgBO2
_chemical_formula_sum   'Ag32 B32 O64'
_cell_volume   1512.55548986
_cell_formula_units_Z   32
loop_
 _symmetry_equiv_pos_site_id
 _symmetry_equiv_pos_as_xyz
  1  'x, y, z'
loop_
 _atom_site_type_symbol
 _atom_site_label
 _atom_site_symmetry_multiplicity
 _atom_site_fract_x
 _atom_site_fract_y
 _atom_site_fract_z
 _atom_site_occupancy
  Ag  Ag0  1  0.69181300  0.23951000  0.73073200  1
  Ag  Ag1  1  0.28228400  0.13293700  0.41395500  1
  Ag  Ag2  1  0.69181300  0.76049000  0.23073200  1
  Ag  Ag3  1  0.50290700  0.79246000  0.38935900  1
  Ag  Ag4  1  0.19181300  0.26049000  0.26926800  1
  Ag  Ag5  1  0.49709300  0.79246000  0.11064100  1
  Ag  Ag6  1  0.00000000  0.46562800  0.75000000  1
  Ag  Ag7  1  0.30818700  0.23951000  0.76926800  1
  Ag  Ag8  1  0.71771600  0.86706300  0.58604500  1
  Ag  Ag9  1  0.00000000  0.00000000  0.00000000  1
  Ag  Ag10  1  0.21771600  0.63293700  0.41395500  1
  Ag  Ag11  1  0.00290700  0.29246000  0.11064100  1
  Ag  Ag12  1  0.99709300  0.70754000  0.88935900  1
  Ag  Ag13  1  0.21771600  0.36706300  0.91395500  1
  Ag  Ag14  1  0.28228400  0.86706300  0.91395500  1
  Ag  Ag15  1  0.19181300  0.73951000  0.76926800  1
  Ag  Ag16  1  0.50290700  0.20754000  0.88935900  1
  Ag  Ag17  1  0.71771600  0.13293700  0.08604500  1
  Ag  Ag18  1  0.49709300  0.20754000  0.61064100  1
  Ag  Ag19  1  0.50000000  0.50000000  0.50000000  1
  Ag  Ag20  1  0.00000000  0.00000000  0.50000000  1
  Ag  Ag21  1  0.78228400  0.63293700  0.08604500  1
  Ag  Ag22  1  0.78228400  0.36706300  0.58604500  1
  Ag  Ag23  1  0.00000000  0.53437200  0.25000000  1
  Ag  Ag24  1  0.50000000  0.96562800  0.75000000  1
  Ag  Ag25  1  0.00290700  0.70754000  0.61064100  1
  Ag  Ag26  1  0.50000000  0.03437200  0.25000000  1
  Ag  Ag27  1  0.99709300  0.29246000  0.38935900  1
  Ag  Ag28  1  0.50000000  0.50000000  0.00000000  1
  Ag  Ag29  1  0.30818700  0.76049000  0.26926800  1
  Ag  Ag30  1  0.80818700  0.73951000  0.73073200  1
  Ag  Ag31  1  0.80818700  0.26049000  0.23073200  1
  B  B0  1  0.88881400  0.26134100  0.86713800  1
  B  B1  1  0.32365400  0.12692900  0.02358500  1
  B  B2  1  0.44341400  0.54722700  0.82647400  1
  B  B3  1  0.28164000  0.50641600  0.13350800  1
  B  B4  1  0.67634600  0.87307100  0.97641500  1
  B  B5  1  0.67634600  0.12692900  0.47641500  1
  B  B6  1  0.32365400  0.87307100  0.52358500  1
  B  B7  1  0.71836000  0.49358400  0.86649200  1
  B  B8  1  0.88881400  0.73865900  0.36713800  1
  B  B9  1  0.17634600  0.62692900  0.02358500  1
  B  B10  1  0.61118600  0.23865900  0.36713800  1
  B  B11  1  0.05658600  0.95277300  0.32647400  1
  B  B12  1  0.38881400  0.76134100  0.63286200  1
  B  B13  1  0.94341400  0.04722700  0.67352600  1
  B  B14  1  0.44341400  0.45277300  0.32647400  1
  B  B15  1  0.78164000  0.00641600  0.36649200  1
  B  B16  1  0.82365400  0.37307100  0.97641500  1
  B  B17  1  0.61118600  0.76134100  0.86713800  1
  B  B18  1  0.38881400  0.23865900  0.13286200  1
  B  B19  1  0.55658600  0.45277300  0.17352600  1
  B  B20  1  0.21836000  0.00641600  0.13350800  1
  B  B21  1  0.05658600  0.04722700  0.82647400  1
  B  B22  1  0.17634600  0.37307100  0.52358500  1
  B  B23  1  0.11118600  0.73865900  0.13286200  1
  B  B24  1  0.21836000  0.99358400  0.63350800  1
  B  B25  1  0.78164000  0.99358400  0.86649200  1
  B  B26  1  0.55658600  0.54722700  0.67352600  1
  B  B27  1  0.11118600  0.26134100  0.63286200  1
  B  B28  1  0.71836000  0.50641600  0.36649200  1
  B  B29  1  0.82365400  0.62692900  0.47641500  1
  B  B30  1  0.28164000  0.49358400  0.63350800  1
  B  B31  1  0.94341400  0.95277300  0.17352600  1
  O  O0  1  0.67752500  0.11605200  0.54458200  1
  O  O1  1  0.67752500  0.88394800  0.04458200  1
  O  O2  1  0.24171400  0.84451300  0.14390200  1
  O  O3  1  0.74171400  0.65548700  0.85609800  1
  O  O4  1  0.28767000  0.54287600  0.05894500  1
  O  O5  1  0.78767000  0.95712400  0.94105500  1
  O  O6  1  0.80300400  0.00375500  0.19462700  1
  O  O7  1  0.92420900  0.28276900  0.94015500  1
  O  O8  1  0.56525700  0.55439600  0.33908700  1
  O  O9  1  0.71233000  0.45712400  0.94105500  1
  O  O10  1  0.34771900  0.09079900  0.16289700  1
  O  O11  1  0.80300400  0.99624500  0.69462700  1
  O  O12  1  0.46918300  0.29697700  0.33549700  1
  O  O13  1  0.84771900  0.59079900  0.33710300  1
  O  O14  1  0.19699600  0.00375500  0.30537300  1
  O  O15  1  0.21233000  0.04287600  0.05894500  1
  O  O16  1  0.15228100  0.40920100  0.66289700  1
  O  O17  1  0.78767000  0.04287600  0.44105500  1
  O  O18  1  0.43474300  0.44560400  0.66091300  1
  O  O19  1  0.30300400  0.49624500  0.80537300  1
  O  O20  1  0.06525700  0.05439600  0.16091300  1
  O  O21  1  0.42420900  0.78276900  0.55984500  1
  O  O22  1  0.34771900  0.90920100  0.66289700  1
  O  O23  1  0.57579100  0.21723100  0.44015500  1
  O  O24  1  0.82247500  0.61605200  0.54458200  1
  O  O25  1  0.28767000  0.45712400  0.55894500  1
  O  O26  1  0.53081700  0.29697700  0.16450300  1
  O  O27  1  0.19699600  0.99624500  0.80537300  1
  O  O28  1  0.07579100  0.71723100  0.05984500  1
  O  O29  1  0.93474300  0.94560400  0.83908700  1
  O  O30  1  0.03081700  0.79697700  0.33549700  1
  O  O31  1  0.24171400  0.15548700  0.64390200  1
  O  O32  1  0.65228100  0.09079900  0.33710300  1
  O  O33  1  0.75828600  0.84451300  0.35609800  1
  O  O34  1  0.53081700  0.70302300  0.66450300  1
  O  O35  1  0.30300400  0.50375500  0.30537300  1
  O  O36  1  0.43474300  0.55439600  0.16091300  1
  O  O37  1  0.56525700  0.44560400  0.83908700  1
  O  O38  1  0.32247500  0.11605200  0.95541800  1
  O  O39  1  0.93474300  0.05439600  0.33908700  1
  O  O40  1  0.03081700  0.20302300  0.83549700  1
  O  O41  1  0.17752500  0.61605200  0.95541800  1
  O  O42  1  0.25828600  0.65548700  0.64390200  1
  O  O43  1  0.69699600  0.50375500  0.19462700  1
  O  O44  1  0.21233000  0.95712400  0.55894500  1
  O  O45  1  0.17752500  0.38394800  0.45541800  1
  O  O46  1  0.57579100  0.78276900  0.94015500  1
  O  O47  1  0.06525700  0.94560400  0.66091300  1
  O  O48  1  0.71233000  0.54287600  0.44105500  1
  O  O49  1  0.65228100  0.90920100  0.83710300  1
  O  O50  1  0.82247500  0.38394800  0.04458200  1
  O  O51  1  0.75828600  0.15548700  0.85609800  1
  O  O52  1  0.74171400  0.34451300  0.35609800  1
  O  O53  1  0.69699600  0.49624500  0.69462700  1
  O  O54  1  0.84771900  0.40920100  0.83710300  1
  O  O55  1  0.25828600  0.34451300  0.14390200  1
  O  O56  1  0.42420900  0.21723100  0.05984500  1
  O  O57  1  0.96918300  0.20302300  0.66450300  1
  O  O58  1  0.46918300  0.70302300  0.83549700  1
  O  O59  1  0.15228100  0.59079900  0.16289700  1
  O  O60  1  0.07579100  0.28276900  0.55984500  1
  O  O61  1  0.32247500  0.88394800  0.45541800  1
  O  O62  1  0.96918300  0.79697700  0.16450300  1
  O  O63  1  0.92420900  0.71723100  0.44015500  1
loop_
_geom_bond_atom_site_label_1
_geom_bond_atom_site_label_2
_geom_bond_distance
_geom_bond_site_symmetry_2
Ag0 O53 2.363627 1_555
Ag0 O11 2.447495 1_545
Ag0 O51 2.672086 1_555
Ag0 O57 2.755954 1_555
Ag1 O61 2.360095 1_545
Ag1 O45 2.519221 1_555
Ag1 O14 2.554834 1_555
Ag1 O12 2.670296 1_555
Ag1 O23 2.692821 1_555
Ag2 O43 2.363627 1_555
Ag2 O6 2.447495 1_565
Ag2 O33 2.672086 1_555
Ag2 O62 2.755954 1_555
Ag3 O61 2.194076 1_555
Ag3 O33 2.349145 1_555
Ag3 O8 2.377619 1_555
Ag4 O14 2.363627 1_555
Ag4 O35 2.447495 1_555
Ag4 O55 2.672086 1_555
Ag4 O12 2.755954 1_555
Ag5 O1 2.194076 1_555
Ag5 O2 2.349145 1_555
Ag5 O36 2.377619 1_555
Ag6 O54 2.236417 1_455
Ag6 O16 2.236417 1_555
Ag7 O19 2.363627 1_555
Ag7 O27 2.447495 1_545
Ag7 O31 2.672086 1_555
Ag7 O40 2.755954 1_555
Ag8 O0 2.360095 1_565
Ag8 O24 2.519221 1_555
Ag8 O11 2.554834 1_555
Ag8 O34 2.670296 1_555
Ag8 O21 2.692821 1_555
Ag9 O5 2.211960 1_444
Ag9 O15 2.211960 1_555
Ag10 O45 2.360095 1_555
Ag10 O61 2.519221 1_555
Ag10 O35 2.554834 1_555
Ag10 O30 2.670296 1_555
Ag10 O63 2.692821 1_455
Ag11 O50 2.194076 1_455
Ag11 O55 2.349145 1_555
Ag11 O20 2.377619 1_555
Ag12 O41 2.194076 1_655
Ag12 O3 2.349145 1_555
Ag12 O29 2.377619 1_555
Ag13 O41 2.360095 1_555
Ag13 O38 2.519221 1_555
Ag13 O19 2.554834 1_555
Ag13 O40 2.670296 1_555
Ag13 O7 2.692821 1_455
Ag14 O38 2.360095 1_565
Ag14 O41 2.519221 1_555
Ag14 O27 2.554834 1_555
Ag14 O58 2.670296 1_555
Ag14 O46 2.692821 1_555
Ag15 O27 2.363627 1_555
Ag15 O19 2.447495 1_555
Ag15 O42 2.672086 1_555
Ag15 O58 2.755954 1_555
Ag16 O38 2.194076 1_555
Ag16 O51 2.349145 1_555
Ag16 O37 2.377619 1_555
Ag17 O1 2.360095 1_545
Ag17 O50 2.519221 1_555
Ag17 O6 2.554834 1_555
Ag17 O26 2.670296 1_555
Ag17 O56 2.692821 1_555
Ag18 O0 2.194076 1_555
Ag18 O31 2.349145 1_555
Ag18 O18 2.377619 1_555
Ag19 O48 2.211960 1_555
Ag19 O25 2.211960 1_555
Ag20 O17 2.211960 1_455
Ag20 O44 2.211960 1_545
Ag21 O50 2.360095 1_555
Ag21 O1 2.519221 1_555
Ag21 O43 2.554834 1_555
Ag21 O62 2.670296 1_555
Ag21 O28 2.692821 1_655
Ag22 O24 2.360095 1_555
Ag22 O0 2.519221 1_555
Ag22 O53 2.554834 1_555
Ag22 O57 2.670296 1_555
Ag22 O60 2.692821 1_655
Ag23 O13 2.236417 1_455
Ag23 O59 2.236417 1_555
Ag24 O49 2.236417 1_555
Ag24 O22 2.236417 1_555
Ag25 O24 2.194076 1_455
Ag25 O42 2.349145 1_555
Ag25 O47 2.377619 1_555
Ag26 O32 2.236417 1_555
Ag26 O10 2.236417 1_555
Ag27 O45 2.194076 1_655
Ag27 O52 2.349145 1_555
Ag27 O39 2.377619 1_555
Ag28 O4 2.211960 1_555
Ag28 O9 2.211960 1_554
Ag29 O35 2.363627 1_555
Ag29 O14 2.447495 1_565
Ag29 O2 2.672086 1_555
Ag29 O30 2.755954 1_555
Ag30 O11 2.363627 1_555
Ag30 O53 2.447495 1_555
Ag30 O3 2.672086 1_555
Ag30 O34 2.755954 1_555
Ag31 O6 2.363627 1_555
Ag31 O43 2.447495 1_555
Ag31 O52 2.672086 1_555
Ag31 O26 2.755954 1_555
B0 O54 1.471665 1_555
B0 O40 1.471755 1_655
B0 O51 1.477031 1_555
B0 O7 1.501654 1_555
B1 O38 1.364652 1_554
B1 O56 1.380516 1_555
B1 O15 1.402407 1_555
B2 O19 1.359843 1_555
B2 O58 1.395415 1_555
B2 O37 1.401914 1_555
B3 O55 1.448458 1_555
B3 O59 1.463184 1_555
B3 O36 1.492124 1_555
B3 O4 1.523811 1_555
B4 O1 1.364652 1_556
B4 O46 1.380516 1_555
B4 O5 1.402407 1_555
B5 O0 1.364652 1_555
B5 O23 1.380516 1_555
B5 O17 1.402407 1_555
B6 O61 1.364652 1_555
B6 O21 1.380516 1_555
B6 O44 1.402407 1_555
B7 O3 1.448458 1_555
B7 O54 1.463184 1_555
B7 O37 1.492124 1_555
B7 O9 1.523811 1_555
B8 O13 1.471665 1_555
B8 O30 1.471755 1_655
B8 O33 1.477031 1_555
B8 O63 1.501654 1_555
B9 O41 1.364652 1_554
B9 O28 1.380516 1_555
B9 O4 1.402407 1_555
B10 O32 1.471665 1_555
B10 O12 1.471755 1_555
B10 O52 1.477031 1_555
B10 O23 1.501654 1_555
B11 O14 1.359843 1_565
B11 O30 1.395415 1_555
B11 O39 1.401914 1_465
B12 O22 1.471665 1_555
B12 O34 1.471755 1_555
B12 O42 1.477031 1_555
B12 O21 1.501654 1_555
B13 O11 1.359843 1_545
B13 O57 1.395415 1_555
B13 O47 1.401914 1_645
B14 O35 1.359843 1_555
B14 O12 1.395415 1_555
B14 O8 1.401914 1_555
B15 O33 1.448458 1_545
B15 O32 1.463184 1_555
B15 O39 1.492124 1_555
B15 O17 1.523811 1_555
B16 O50 1.364652 1_556
B16 O7 1.380516 1_555
B16 O9 1.402407 1_555
B17 O49 1.471665 1_555
B17 O58 1.471755 1_555
B17 O3 1.477031 1_555
B17 O46 1.501654 1_555
B18 O10 1.471665 1_555
B18 O26 1.471755 1_555
B18 O55 1.477031 1_555
B18 O56 1.501654 1_555
B19 O43 1.359843 1_555
B19 O26 1.395415 1_555
B19 O36 1.401914 1_555
B20 O2 1.448458 1_545
B20 O10 1.463184 1_555
B20 O20 1.492124 1_555
B20 O15 1.523811 1_555
B21 O27 1.359843 1_545
B21 O40 1.395415 1_555
B21 O29 1.401914 1_445
B22 O45 1.364652 1_555
B22 O60 1.380516 1_555
B22 O25 1.402407 1_555
B23 O59 1.471665 1_555
B23 O62 1.471755 1_455
B23 O2 1.477031 1_555
B23 O28 1.501654 1_555
B24 O31 1.448458 1_565
B24 O22 1.463184 1_555
B24 O47 1.492124 1_555
B24 O44 1.523811 1_555
B25 O51 1.448458 1_565
B25 O49 1.463184 1_555
B25 O29 1.492124 1_555
B25 O5 1.523811 1_555
B26 O53 1.359843 1_555
B26 O34 1.395415 1_555
B26 O18 1.401914 1_555
B27 O16 1.471665 1_555
B27 O57 1.471755 1_455
B27 O31 1.477031 1_555
B27 O60 1.501654 1_555
B28 O52 1.448458 1_555
B28 O13 1.463184 1_555
B28 O8 1.492124 1_555
B28 O48 1.523811 1_555
B29 O24 1.364652 1_555
B29 O63 1.380516 1_555
B29 O48 1.402407 1_555
B30 O42 1.448458 1_555
B30 O16 1.463184 1_555
B30 O18 1.492124 1_555
B30 O25 1.523811 1_555
B31 O6 1.359843 1_565
B31 O62 1.395415 1_555
B31 O20 1.401914 1_665
