# generated using pymatgen
data_NaPr(Si3O7)2
_symmetry_space_group_name_H-M   'P 1'
_cell_length_a   13.26815816
_cell_length_b   13.26815816
_cell_length_c   13.26815816
_cell_angle_alpha   145.93397625
_cell_angle_beta   107.79438236
_cell_angle_gamma   82.29951365
_symmetry_Int_Tables_number   1
_chemical_formula_structural   NaPr(Si3O7)2
_chemical_formula_sum   'Na4 Pr4 Si24 O56'
_cell_volume   1214.29610669
_cell_formula_units_Z   4
loop_
 _symmetry_equiv_pos_site_id
 _symmetry_equiv_pos_as_xyz
  1  'x, y, z'
loop_
 _atom_site_type_symbol
 _atom_site_label
 _atom_site_symmetry_multiplicity
 _atom_site_fract_x
 _atom_site_fract_y
 _atom_site_fract_z
 _atom_site_occupancy
  Na  Na0  1  0.75000000  0.75000000  0.00000000  1
  Na  Na1  1  0.50000000  0.00000000  0.50000000  1
  Na  Na2  1  0.25000000  0.25000000  0.00000000  1
  Na  Na3  1  0.00000000  0.50000000  0.50000000  1
  Pr  Pr0  1  0.02156300  0.25000000  0.77156300  1
  Pr  Pr1  1  0.52156300  0.75000000  0.77156300  1
  Pr  Pr2  1  0.97843700  0.75000000  0.22843700  1
  Pr  Pr3  1  0.47843700  0.25000000  0.22843700  1
  Si  Si0  1  0.47263900  0.00365400  0.77009100  1
  Si  Si1  1  0.02736100  0.79745100  0.53101500  1
  Si  Si2  1  0.33348700  0.73177300  0.06526000  1
  Si  Si3  1  0.76643600  0.29745100  0.77009100  1
  Si  Si4  1  0.63378600  0.67740100  0.31118700  1
  Si  Si5  1  0.27588400  0.09220500  0.66044100  1
  Si  Si6  1  0.73356400  0.50365400  0.53101500  1
  Si  Si7  1  0.86621400  0.17740100  0.04361500  1
  Si  Si8  1  0.22411600  0.88455700  0.81632100  1
  Si  Si9  1  0.97263900  0.20254900  0.46898500  1
  Si  Si10  1  0.77588400  0.11544300  0.18367900  1
  Si  Si11  1  0.16651300  0.23177300  0.39828600  1
  Si  Si12  1  0.06823600  0.40779500  0.18367900  1
  Si  Si13  1  0.83348700  0.76822700  0.60171400  1
  Si  Si14  1  0.26643600  0.49634600  0.46898500  1
  Si  Si15  1  0.56823600  0.38455700  0.66044100  1
  Si  Si16  1  0.52736100  0.99634600  0.22991000  1
  Si  Si17  1  0.66651300  0.26822700  0.93474000  1
  Si  Si18  1  0.93176400  0.59220500  0.81632100  1
  Si  Si19  1  0.13378600  0.82259900  0.95638500  1
  Si  Si20  1  0.72411600  0.90779500  0.33955900  1
  Si  Si21  1  0.36621400  0.32259900  0.68881300  1
  Si  Si22  1  0.43176400  0.61544300  0.33955900  1
  Si  Si23  1  0.23356400  0.70254900  0.22991000  1
  O  O0  1  0.88370300  0.42623400  0.93366600  1
  O  O1  1  0.38370300  0.45003700  0.45746900  1
  O  O2  1  0.14251500  0.80999300  0.82633500  1
  O  O3  1  0.70222200  0.91507300  0.98131900  1
  O  O4  1  0.85622400  0.12104000  0.31105600  1
  O  O5  1  0.81013600  0.60359400  0.54219400  1
  O  O6  1  0.79777800  0.77909700  0.21285100  1
  O  O7  1  0.06624600  0.27909700  0.98131900  1
  O  O8  1  0.77006900  0.25761100  0.02768000  1
  O  O9  1  0.64251500  0.81618000  0.33252200  1
  O  O10  1  0.31013600  0.76794300  0.20654200  1
  O  O11  1  0.18986400  0.39640600  0.45780600  1
  O  O12  1  0.49256900  0.95003700  0.06633400  1
  O  O13  1  0.99256900  0.92623400  0.54253100  1
  O  O14  1  0.85748500  0.19000700  0.17366500  1
  O  O15  1  0.06140100  0.26794300  0.45780600  1
  O  O16  1  0.13758900  0.03105300  0.16864100  1
  O  O17  1  0.20525600  0.89226100  0.42810800  1
  O  O18  1  0.68986400  0.23205700  0.79345800  1
  O  O19  1  0.36241100  0.53105300  0.89346400  1
  O  O20  1  0.11629700  0.57376600  0.06633400  1
  O  O21  1  0.69001600  0.37896000  0.73518400  1
  O  O22  1  0.61629700  0.54996300  0.54253100  1
  O  O23  1  0.48365800  0.30999300  0.66747800  1
  O  O24  1  0.20222200  0.22090300  0.78714900  1
  O  O25  1  0.93375400  0.72090300  0.01868100  1
  O  O26  1  0.98365800  0.31618000  0.17366500  1
  O  O27  1  0.35622400  0.04516700  0.73518400  1
  O  O28  1  0.56140100  0.10359400  0.79345800  1
  O  O29  1  0.72993100  0.75761100  0.48754200  1
  O  O30  1  0.00743100  0.07376600  0.45746900  1
  O  O31  1  0.80998400  0.54516700  0.68894400  1
  O  O32  1  0.29474400  0.72285100  0.68700400  1
  O  O33  1  0.86241100  0.96894700  0.83135900  1
  O  O34  1  0.22993100  0.74238900  0.97232000  1
  O  O35  1  0.29777800  0.08492700  0.01868100  1
  O  O36  1  0.01634200  0.68382000  0.82633500  1
  O  O37  1  0.56624600  0.58492700  0.78714900  1
  O  O38  1  0.19001600  0.45483300  0.31105600  1
  O  O39  1  0.96415300  0.39226100  0.68700400  1
  O  O40  1  0.03584700  0.60773900  0.31299600  1
  O  O41  1  0.64377600  0.95483300  0.26481600  1
  O  O42  1  0.70525600  0.27714900  0.31299600  1
  O  O43  1  0.43375400  0.41507300  0.21285100  1
  O  O44  1  0.53584700  0.22285100  0.42810800  1
  O  O45  1  0.51634200  0.69000700  0.33252200  1
  O  O46  1  0.27006900  0.24238900  0.51245800  1
  O  O47  1  0.50743100  0.04996300  0.93366600  1
  O  O48  1  0.30998400  0.62104000  0.26481600  1
  O  O49  1  0.46415300  0.77714900  0.57189200  1
  O  O50  1  0.79474400  0.10773900  0.57189200  1
  O  O51  1  0.35748500  0.18382000  0.66747800  1
  O  O52  1  0.14377600  0.87896000  0.68894400  1
  O  O53  1  0.63758900  0.46894700  0.10653600  1
  O  O54  1  0.43859900  0.89640600  0.20654200  1
  O  O55  1  0.93859900  0.73205700  0.54219400  1
loop_
_geom_bond_atom_site_label_1
_geom_bond_atom_site_label_2
_geom_bond_distance
_geom_bond_site_symmetry_2
Na0 O6 2.385716 1_555
Na0 O3 2.385716 1_554
Na0 O37 2.385716 1_554
Na0 O25 2.385716 1_555
Na0 O31 2.810237 1_554
Na0 O41 2.810239 1_555
Na0 O21 2.810241 1_554
Na0 O4 2.810241 1_565
Na1 O9 2.610541 1_545
Na1 O45 2.610541 1_545
Na1 O23 2.610541 1_555
Na1 O51 2.610541 1_555
Na1 O10 2.684758 1_545
Na1 O28 2.684758 1_555
Na1 O18 2.684758 1_555
Na1 O54 2.684758 1_545
Na2 O43 2.385716 1_555
Na2 O24 2.385716 1_554
Na2 O7 2.385716 1_554
Na2 O35 2.385716 1_555
Na2 O38 2.810237 1_555
Na2 O27 2.810239 1_554
Na2 O48 2.810241 1_555
Na2 O52 2.810241 1_544
Na3 O2 2.610541 1_555
Na3 O26 2.610541 1_455
Na3 O14 2.610541 1_455
Na3 O36 2.610541 1_555
Na3 O15 2.684750 1_555
Na3 O55 2.684750 1_455
Na3 O11 2.684759 1_555
Na3 O5 2.684759 1_455
O0 Si3 1.598534 1_555
O0 Pr2 2.436522 1_556
O0 Pr0 2.522973 1_655
O1 Si14 1.598536 1_555
O1 Pr3 2.436522 1_555
O1 Pr1 2.522973 1_555
O2 Si19 1.630219 1_555
O2 Si8 1.661750 1_555
O3 Si10 1.580583 1_566
O3 Pr1 2.349209 1_555
O4 Si9 1.631298 1_555
O4 Si10 1.646286 1_555
O5 Si13 1.632464 1_555
O5 Si6 1.659998 1_555
O6 Si20 1.580583 1_555
O6 Pr2 2.349209 1_555
O7 Si12 1.580583 1_556
O7 Pr0 2.349209 1_555
O8 Si17 1.621319 1_554
O8 Si7 1.627498 1_555
O9 Si4 1.630219 1_555
O9 Si20 1.661750 1_555
O10 Si2 1.632455 1_555
O10 Si23 1.660008 1_555
O11 Si11 1.632464 1_555
O11 Si14 1.659998 1_555
O12 Si16 1.598537 1_555
O12 Pr1 2.436515 1_554
O12 Pr3 2.522975 1_565
O13 Si1 1.598534 1_655
O13 Pr0 2.436522 1_665
O13 Pr2 2.522969 1_555
O14 Si7 1.630219 1_555
O14 Si10 1.661750 1_555
O15 Si11 1.632449 1_555
O15 Si9 1.660018 1_455
O16 Si19 1.621418 1_544
O16 Si11 1.624447 1_555
O17 Si5 1.664400 1_565
O17 Si23 1.666114 1_555
O17 Pr2 2.828899 1_455
O18 Si17 1.632455 1_555
O18 Si3 1.659997 1_555
O19 Si21 1.621422 1_555
O19 Si2 1.624441 1_556
O20 Si23 1.598536 1_555
O20 Pr0 2.436522 1_554
O20 Pr2 2.522973 1_455
O21 Si3 1.631306 1_555
O21 Si15 1.646286 1_555
O22 Si6 1.598536 1_555
O22 Pr1 2.436522 1_555
O22 Pr3 2.522973 1_555
O23 Si21 1.630219 1_555
O23 Si15 1.661750 1_555
O24 Si5 1.580583 1_555
O24 Pr0 2.349209 1_555
O25 Si18 1.580583 1_554
O25 Pr2 2.349209 1_555
O26 Si7 1.630219 1_555
O26 Si12 1.661750 1_655
O27 Si0 1.631296 1_555
O27 Si5 1.646297 1_555
O28 Si17 1.632455 1_555
O28 Si0 1.660017 1_555
O29 Si13 1.621319 1_555
O29 Si4 1.627498 1_555
O30 Si9 1.598534 1_455
O30 Pr2 2.436522 1_445
O30 Pr0 2.522969 1_555
O31 Si6 1.631306 1_555
O31 Si18 1.646282 1_555
O32 Si8 1.664406 1_555
O32 Si14 1.666107 1_555
O32 Pr1 2.828898 1_555
O33 Si7 1.621418 1_566
O33 Si13 1.624447 1_555
O34 Si2 1.621319 1_556
O34 Si19 1.627498 1_555
O35 Si8 1.580583 1_544
O35 Pr3 2.349209 1_555
O36 Si19 1.630219 1_555
O36 Si18 1.661750 1_455
O37 Si15 1.580583 1_555
O37 Pr1 2.349209 1_555
O38 Si14 1.631306 1_555
O38 Si12 1.646282 1_555
O39 Si18 1.664397 1_555
O39 Si9 1.666108 1_555
O39 Pr0 2.828910 1_655
O40 Si12 1.664397 1_555
O40 Si1 1.666108 1_555
O40 Pr2 2.828910 1_455
O41 Si16 1.631292 1_555
O41 Si20 1.646297 1_555
O42 Si10 1.664406 1_555
O42 Si6 1.666107 1_555
O42 Pr3 2.828898 1_555
O43 Si22 1.580583 1_555
O43 Pr3 2.349209 1_555
O44 Si15 1.664397 1_555
O44 Si16 1.666108 1_545
O44 Pr3 2.828910 1_555
O45 Si4 1.630219 1_555
O45 Si22 1.661750 1_555
O46 Si11 1.621319 1_555
O46 Si21 1.627498 1_555
O47 Si0 1.598524 1_555
O47 Pr3 2.436515 1_556
O47 Pr1 2.522975 1_545
O48 Si23 1.631298 1_555
O48 Si22 1.646286 1_555
O49 Si22 1.664397 1_555
O49 Si0 1.666109 1_565
O49 Pr1 2.828910 1_555
O50 Si20 1.664400 1_545
O50 Si3 1.666120 1_555
O50 Pr0 2.828899 1_655
O51 Si21 1.630219 1_555
O51 Si5 1.661750 1_555
O52 Si1 1.631298 1_555
O52 Si8 1.646286 1_555
O53 Si4 1.621422 1_555
O53 Si17 1.624441 1_554
O54 Si2 1.632455 1_555
O54 Si16 1.660008 1_555
O55 Si13 1.632449 1_555
O55 Si1 1.660018 1_655
