# generated using pymatgen
data_Li4CO4
_symmetry_space_group_name_H-M   'P 1'
_cell_length_a   5.16204933
_cell_length_b   5.16204933
_cell_length_c   5.86993400
_cell_angle_alpha   90.00000000
_cell_angle_beta   90.00000000
_cell_angle_gamma   90.55352396
_symmetry_Int_Tables_number   1
_chemical_formula_structural   Li4CO4
_chemical_formula_sum   'Li8 C2 O8'
_cell_volume   156.40738376
_cell_formula_units_Z   2
loop_
 _symmetry_equiv_pos_site_id
 _symmetry_equiv_pos_as_xyz
  1  'x, y, z'
loop_
 _atom_site_type_symbol
 _atom_site_label
 _atom_site_symmetry_multiplicity
 _atom_site_fract_x
 _atom_site_fract_y
 _atom_site_fract_z
 _atom_site_occupancy
  Li  Li0  1  0.89185900  0.43549900  0.53987500  1
  Li  Li1  1  0.56450100  0.10814100  0.03987500  1
  Li  Li2  1  0.10814100  0.56450100  0.03987500  1
  Li  Li3  1  0.58002300  0.58002300  0.90091100  1
  Li  Li4  1  0.95525900  0.95525900  0.74173600  1
  Li  Li5  1  0.41997700  0.41997700  0.40091100  1
  Li  Li6  1  0.43549900  0.89185900  0.53987500  1
  Li  Li7  1  0.04474100  0.04474100  0.24173600  1
  C  C0  1  0.69457500  0.69457500  0.23735500  1
  C  C1  1  0.30542500  0.30542500  0.73735500  1
  O  O0  1  0.42256300  0.73922700  0.21842400  1
  O  O1  1  0.26077300  0.57743700  0.71842400  1
  O  O2  1  0.57743700  0.26077300  0.71842400  1
  O  O3  1  0.73922700  0.42256300  0.21842400  1
  O  O4  1  0.82006400  0.82006400  0.04725900  1
  O  O5  1  0.17993600  0.17993600  0.54725900  1
  O  O6  1  0.21027000  0.21027000  0.94156100  1
  O  O7  1  0.78973000  0.78973000  0.44156100  1
loop_
_geom_bond_atom_site_label_1
_geom_bond_atom_site_label_2
_geom_bond_distance
_geom_bond_site_symmetry_2
Li0 O7 1.993295 1_555
Li0 O5 1.997878 1_655
Li0 O3 2.045629 1_555
Li0 O2 2.125559 1_555
Li0 O1 2.287988 1_655
Li1 O6 1.993295 1_554
Li1 O4 1.997878 1_545
Li1 O2 2.045629 1_554
Li1 O3 2.125559 1_555
Li1 O0 2.287988 1_545
Li2 O6 1.993295 1_554
Li2 O4 1.997878 1_455
Li2 O1 2.045629 1_554
Li2 O0 2.125559 1_555
Li2 O3 2.287988 1_455
Li3 O4 1.943981 1_556
Li3 O2 1.965463 1_555
Li3 O1 1.965463 1_555
Li3 O3 2.196051 1_556
Li3 O0 2.196051 1_556
Li4 O5 1.991841 1_665
Li4 O4 2.044738 1_556
Li4 O7 2.133260 1_555
Li4 O6 2.192729 1_665
Li4 O1 2.523716 1_655
Li4 O2 2.523716 1_565
Li5 O5 1.943981 1_555
Li5 O3 1.965463 1_555
Li5 O0 1.965463 1_555
Li5 O2 2.196051 1_555
Li5 O1 2.196051 1_555
Li6 O7 1.993295 1_555
Li6 O5 1.997878 1_565
Li6 O0 2.045629 1_555
Li6 O1 2.125559 1_555
Li6 O2 2.287988 1_565
Li7 O4 1.991841 1_445
Li7 O5 2.044738 1_555
Li7 O6 2.133260 1_554
Li7 O7 2.192729 1_445
Li7 O3 2.523716 1_455
Li7 O0 2.523716 1_545
C0 O7 1.383729 1_555
C0 O3 1.429454 1_555
C0 O0 1.429454 1_555
C0 O4 1.440921 1_555
C1 O6 1.383729 1_555
C1 O1 1.429454 1_555
C1 O2 1.429454 1_555
C1 O5 1.440921 1_555
