# generated using pymatgen
data_CaCuSn
_symmetry_space_group_name_H-M   'P 1'
_cell_length_a   11.95685420
_cell_length_b   11.95685420
_cell_length_c   11.95685420
_cell_angle_alpha   157.92224322
_cell_angle_beta   141.49584053
_cell_angle_gamma   44.82708343
_symmetry_Int_Tables_number   1
_chemical_formula_structural   CaCuSn
_chemical_formula_sum   'Ca6 Cu6 Sn6'
_cell_volume   399.08090051
_cell_formula_units_Z   6
loop_
 _symmetry_equiv_pos_site_id
 _symmetry_equiv_pos_as_xyz
  1  'x, y, z'
loop_
 _atom_site_type_symbol
 _atom_site_label
 _atom_site_symmetry_multiplicity
 _atom_site_fract_x
 _atom_site_fract_y
 _atom_site_fract_z
 _atom_site_occupancy
  Ca  Ca0  1  0.75842411  0.83512441  0.92330070  1
  Ca  Ca1  1  0.67262839  0.66943479  0.00319361  1
  Ca  Ca2  1  0.42168118  0.50000000  0.92168118  1
  Ca  Ca3  1  0.00652348  0.00000000  0.00652348  1
  Ca  Ca4  1  0.08817629  0.16487559  0.92330070  1
  Ca  Ca5  1  0.33375882  0.33056521  0.00319361  1
  Cu  Cu0  1  0.06600760  0.76942267  0.29658592  1
  Cu  Cu1  1  0.55573634  0.92828474  0.62745160  1
  Cu  Cu2  1  0.52716325  0.23057733  0.29658592  1
  Cu  Cu3  1  0.23318641  0.60399190  0.62919451  1
  Cu  Cu4  1  0.69916785  0.07171526  0.62745160  1
  Cu  Cu5  1  0.02520161  0.39600810  0.62919451  1
  Sn  Sn0  1  0.73073593  0.43231367  0.29842226  1
  Sn  Sn1  1  0.20056813  0.90030086  0.30026727  1
  Sn  Sn2  1  0.89234959  0.26686729  0.62548230  1
  Sn  Sn3  1  0.35861500  0.73313271  0.62548230  1
  Sn  Sn4  1  0.86610859  0.56768633  0.29842226  1
  Sn  Sn5  1  0.39996740  0.09969914  0.30026727  1
loop_
_geom_bond_atom_site_label_1
_geom_bond_atom_site_label_2
_geom_bond_distance
_geom_bond_site_symmetry_2
Ca0 Cu1 3.111809 1_555
Ca0 Cu5 3.112681 1_666
Ca0 Cu5 3.112681 1_655
Ca0 Sn2 3.171741 1_566
Ca0 Sn2 3.171744 1_555
Ca0 Sn3 3.255495 1_555
Ca0 Cu0 3.282211 1_656
Ca0 Sn0 3.290518 1_566
Ca0 Sn0 3.290521 1_555
Ca0 Sn1 3.303193 1_656
Ca0 Cu2 3.403171 1_566
Ca0 Cu2 3.403174 1_555
Ca1 Cu2 3.118097 1_565
Ca1 Cu2 3.118097 1_554
Ca1 Sn5 3.190358 1_565
Ca1 Sn5 3.190361 1_554
Ca1 Cu0 3.199650 1_655
Ca1 Sn4 3.237068 1_555
Ca1 Cu3 3.284735 1_554
Ca1 Sn2 3.287981 1_565
Ca1 Sn2 3.287981 1_554
Ca1 Sn3 3.294366 1_554
Ca1 Cu4 3.296715 1_565
Ca1 Cu4 3.296718 1_554
Ca2 Cu1 3.222974 1_545
Ca2 Cu1 3.222974 1_556
Ca2 Cu4 3.222980 1_566
Ca2 Cu4 3.222983 1_555
Ca2 Cu3 3.256378 1_555
Ca2 Cu5 3.256388 1_555
Ca2 Sn1 3.319027 1_545
Ca2 Sn1 3.319027 1_556
Ca2 Sn5 3.319032 1_566
Ca2 Sn5 3.319035 1_555
Ca2 Sn4 3.326174 1_556
Ca2 Sn0 3.326174 1_556
Ca3 Sn0 3.189522 1_455
Ca3 Sn4 3.189522 1_455
Ca3 Sn0 3.189522 1_444
Ca3 Sn4 3.189522 1_444
Ca3 Sn1 3.197260 1_545
Ca3 Sn5 3.197271 1_555
Ca3 Cu1 3.383408 1_444
Ca3 Cu4 3.383410 1_454
Ca3 Cu3 3.385611 1_544
Ca3 Cu3 3.385611 1_555
Ca3 Cu5 3.385616 1_544
Ca3 Cu5 3.385619 1_555
Ca4 Cu4 3.111794 1_455
Ca4 Cu3 3.112681 1_545
Ca4 Cu3 3.112681 1_556
Ca4 Sn3 3.171746 1_545
Ca4 Sn3 3.171746 1_556
Ca4 Sn2 3.255505 1_455
Ca4 Cu2 3.282211 1_556
Ca4 Sn4 3.290514 1_456
Ca4 Sn4 3.290514 1_445
Ca4 Sn5 3.303183 1_556
Ca4 Cu0 3.403173 1_545
Ca4 Cu0 3.403176 1_556
Ca5 Cu0 3.118102 1_544
Ca5 Cu0 3.118105 1_555
Ca5 Sn1 3.190367 1_555
Ca5 Sn1 3.190367 1_544
Ca5 Cu2 3.199660 1_555
Ca5 Sn0 3.237068 1_555
Ca5 Cu5 3.284734 1_554
Ca5 Sn3 3.287981 1_544
Ca5 Sn3 3.287981 1_555
Ca5 Sn2 3.294366 1_454
Ca5 Cu1 3.296723 1_555
Ca5 Cu1 3.296723 1_544
Cu0 Sn2 2.657985 1_465
Cu0 Sn2 2.657989 1_454
Cu0 Sn3 2.714590 1_555
Cu0 Sn1 2.893503 1_555
Cu1 Sn1 2.652969 1_555
Cu1 Sn0 2.658350 1_566
Cu1 Sn0 2.658350 1_555
Cu1 Cu4 3.170854 1_565
Cu2 Sn3 2.657990 1_544
Cu2 Sn3 2.657990 1_555
Cu2 Sn2 2.714589 1_555
Cu2 Sn5 2.893481 1_555
Cu3 Sn5 2.658959 1_566
Cu3 Sn5 2.658963 1_555
Cu3 Sn4 2.728825 1_455
Cu3 Sn3 2.855088 1_555
Cu4 Sn5 2.652969 1_555
Cu4 Sn4 2.658346 1_545
Cu4 Sn4 2.658350 1_556
Cu5 Sn1 2.658960 1_556
Cu5 Sn1 2.658964 1_545
Cu5 Sn0 2.728824 1_455
Cu5 Sn2 2.855077 1_455
Sn0 Sn4 2.992706 1_555
