# generated using pymatgen
data_Cr3B7ClO13
_symmetry_space_group_name_H-M   'P 1'
_cell_length_a   8.67623415
_cell_length_b   8.67623415
_cell_length_c   8.67623415
_cell_angle_alpha   60.00000000
_cell_angle_beta   60.00000000
_cell_angle_gamma   60.00000000
_symmetry_Int_Tables_number   1
_chemical_formula_structural   Cr3B7ClO13
_chemical_formula_sum   'Cr6 B14 Cl2 O26'
_cell_volume   461.82644068
_cell_formula_units_Z   2
loop_
 _symmetry_equiv_pos_site_id
 _symmetry_equiv_pos_as_xyz
  1  'x, y, z'
loop_
 _atom_site_type_symbol
 _atom_site_label
 _atom_site_symmetry_multiplicity
 _atom_site_fract_x
 _atom_site_fract_y
 _atom_site_fract_z
 _atom_site_occupancy
  Cr  Cr0  1  0.50000000  0.00000000  0.50000000  1
  Cr  Cr1  1  0.50000000  0.50000000  0.00000000  1
  Cr  Cr2  1  0.00000000  0.00000000  0.50000000  1
  Cr  Cr3  1  0.50000000  0.00000000  0.00000000  1
  Cr  Cr4  1  0.00000000  0.50000000  0.00000000  1
  Cr  Cr5  1  0.00000000  0.50000000  0.50000000  1
  B  B0  1  0.92001500  0.92001500  0.92001500  1
  B  B1  1  0.75000000  0.75000000  0.25000000  1
  B  B2  1  0.92001500  0.92001500  0.23995600  1
  B  B3  1  0.75000000  0.25000000  0.75000000  1
  B  B4  1  0.42001500  0.42001500  0.73995600  1
  B  B5  1  0.42001500  0.73995600  0.42001500  1
  B  B6  1  0.73995600  0.42001500  0.42001500  1
  B  B7  1  0.25000000  0.25000000  0.75000000  1
  B  B8  1  0.23995600  0.92001500  0.92001500  1
  B  B9  1  0.25000000  0.75000000  0.75000000  1
  B  B10  1  0.75000000  0.25000000  0.25000000  1
  B  B11  1  0.42001500  0.42001500  0.42001500  1
  B  B12  1  0.92001500  0.23995600  0.92001500  1
  B  B13  1  0.25000000  0.75000000  0.25000000  1
  Cl  Cl0  1  0.75000000  0.75000000  0.75000000  1
  Cl  Cl1  1  0.25000000  0.25000000  0.25000000  1
  O  O0  1  0.24458400  0.39556500  0.56409400  1
  O  O1  1  0.29575700  0.89556500  0.06409400  1
  O  O2  1  0.56409400  0.39556500  0.79575700  1
  O  O3  1  0.50000000  0.50000000  0.50000000  1
  O  O4  1  0.79575700  0.56409400  0.39556500  1
  O  O5  1  0.06409400  0.89556500  0.74458400  1
  O  O6  1  0.74458400  0.29575700  0.06409400  1
  O  O7  1  0.06409400  0.29575700  0.89556500  1
  O  O8  1  0.00000000  0.00000000  0.00000000  1
  O  O9  1  0.24458400  0.79575700  0.39556500  1
  O  O10  1  0.79575700  0.39556500  0.24458400  1
  O  O11  1  0.74458400  0.89556500  0.29575700  1
  O  O12  1  0.89556500  0.74458400  0.06409400  1
  O  O13  1  0.56409400  0.24458400  0.39556500  1
  O  O14  1  0.89556500  0.06409400  0.29575700  1
  O  O15  1  0.29575700  0.06409400  0.74458400  1
  O  O16  1  0.39556500  0.24458400  0.79575700  1
  O  O17  1  0.56409400  0.79575700  0.24458400  1
  O  O18  1  0.79575700  0.24458400  0.56409400  1
  O  O19  1  0.39556500  0.56409400  0.24458400  1
  O  O20  1  0.06409400  0.74458400  0.29575700  1
  O  O21  1  0.74458400  0.06409400  0.89556500  1
  O  O22  1  0.89556500  0.29575700  0.74458400  1
  O  O23  1  0.29575700  0.74458400  0.89556500  1
  O  O24  1  0.39556500  0.79575700  0.56409400  1
  O  O25  1  0.24458400  0.56409400  0.79575700  1
loop_
_geom_bond_atom_site_label_1
_geom_bond_atom_site_label_2
_geom_bond_distance
_geom_bond_site_symmetry_2
Cr0 O15 2.094473 1_555
Cr0 O11 2.094473 1_545
Cr0 O13 2.094473 1_555
Cr0 O24 2.094473 1_545
Cr1 O6 2.094473 1_555
Cr1 O23 2.094473 1_554
Cr1 O19 2.094473 1_555
Cr1 O2 2.094473 1_554
Cr2 O5 2.094473 1_545
Cr2 O18 2.094473 1_455
Cr2 O9 2.094473 1_545
Cr2 O14 2.094473 1_455
Cr3 O21 2.094473 1_554
Cr3 O17 2.094473 1_545
Cr3 O16 2.094473 1_554
Cr3 O1 2.094473 1_545
Cr4 O12 2.094473 1_455
Cr4 O25 2.094473 1_554
Cr4 O10 2.094473 1_455
Cr4 O7 2.094473 1_554
Cr5 O20 2.094473 1_555
Cr5 O22 2.094473 1_455
Cr5 O0 2.094473 1_555
Cr5 O4 2.094473 1_455
B0 O5 1.442011 1_655
B0 O12 1.442011 1_556
B0 O21 1.442011 1_565
B0 O8 1.699869 1_666
B1 O11 1.475894 1_555
B1 O4 1.475894 1_555
B1 O12 1.475894 1_555
B1 O17 1.475894 1_555
B2 O14 1.442005 1_565
B2 O20 1.442009 1_655
B2 O11 1.442013 1_555
B2 O8 1.699876 1_665
B3 O22 1.475894 1_555
B3 O21 1.475894 1_555
B3 O2 1.475894 1_555
B3 O18 1.475894 1_555
B4 O2 1.442005 1_555
B4 O25 1.442009 1_555
B4 O16 1.442013 1_555
B4 O3 1.699876 1_555
B5 O24 1.442005 1_555
B5 O17 1.442009 1_555
B5 O9 1.442013 1_555
B5 O3 1.699876 1_555
B6 O4 1.442005 1_555
B6 O18 1.442009 1_555
B6 O10 1.442013 1_555
B6 O3 1.699876 1_555
B7 O16 1.475894 1_555
B7 O7 1.475894 1_555
B7 O0 1.475894 1_555
B7 O15 1.475894 1_555
B8 O1 1.442005 1_556
B8 O15 1.442009 1_565
B8 O23 1.442013 1_555
B8 O8 1.699876 1_566
B9 O23 1.475894 1_555
B9 O24 1.475894 1_555
B9 O5 1.475894 1_555
B9 O25 1.475894 1_555
B10 O10 1.475894 1_555
B10 O14 1.475894 1_555
B10 O13 1.475894 1_555
B10 O6 1.475894 1_555
B11 O13 1.442011 1_555
B11 O0 1.442011 1_555
B11 O19 1.442011 1_555
B11 O3 1.699869 1_555
B12 O7 1.442005 1_655
B12 O6 1.442009 1_556
B12 O22 1.442013 1_555
B12 O8 1.699876 1_656
B13 O9 1.475894 1_555
B13 O1 1.475894 1_555
B13 O19 1.475894 1_555
B13 O20 1.475894 1_555
Cl0 Cr1 3.067512 1_556
Cl0 Cr2 3.067512 1_665
Cl0 Cr3 3.067512 1_566
Cl0 Cr0 3.067512 1_565
Cl0 Cr4 3.067512 1_656
Cl0 Cr5 3.067512 1_655
Cl1 Cr3 3.067512 1_555
Cl1 Cr4 3.067512 1_555
Cl1 Cr5 3.067512 1_555
Cl1 Cr2 3.067512 1_555
Cl1 Cr0 3.067512 1_555
Cl1 Cr1 3.067512 1_555
