# generated using pymatgen
data_Al2FeO4
_symmetry_space_group_name_H-M   'P 1'
_cell_length_a   5.83802266
_cell_length_b   5.83802221
_cell_length_c   40.76520058
_cell_angle_alpha   60.14573825
_cell_angle_beta   60.14574148
_cell_angle_gamma   59.67477406
_symmetry_Int_Tables_number   1
_chemical_formula_structural   Al2FeO4
_chemical_formula_sum   'Al28 Fe14 O56'
_cell_volume   982.14545976
_cell_formula_units_Z   14
loop_
 _symmetry_equiv_pos_site_id
 _symmetry_equiv_pos_as_xyz
  1  'x, y, z'
loop_
 _atom_site_type_symbol
 _atom_site_label
 _atom_site_symmetry_multiplicity
 _atom_site_fract_x
 _atom_site_fract_y
 _atom_site_fract_z
 _atom_site_occupancy
  Al  Al0  1  0.13622987  0.13622987  0.01493596  1
  Al  Al1  1  0.50786158  0.50786158  0.99745809  1
  Al  Al2  1  0.49954540  0.49954540  0.07139462  1
  Al  Al3  1  0.49492370  0.99857670  0.21526944  1
  Al  Al4  1  0.49131517  0.49131517  0.14535497  1
  Al  Al5  1  0.49408562  0.49408562  0.21527400  1
  Al  Al6  1  0.50016607  0.00011542  0.35719868  1
  Al  Al7  1  0.86292280  0.86292280  0.12786940  1
  Al  Al8  1  0.49788750  0.49788750  0.28602842  1
  Al  Al9  1  0.99857670  0.49492370  0.21526944  1
  Al  Al10  1  0.49948261  0.49948261  0.35738894  1
  Al  Al11  1  0.49958797  0.99966469  0.49992938  1
  Al  Al12  1  0.49972929  0.49972929  0.42859330  1
  Al  Al13  1  0.00011542  0.50016607  0.35719868  1
  Al  Al14  1  0.49872477  0.49872477  0.50030348  1
  Al  Al15  1  0.50358626  0.00273206  0.64303685  1
  Al  Al16  1  0.50112476  0.50112476  0.57147981  1
  Al  Al17  1  0.99966469  0.49958797  0.49992938  1
  Al  Al18  1  0.50442624  0.50442624  0.64243521  1
  Al  Al19  1  0.99875360  0.49850770  0.78556309  1
  Al  Al20  1  0.49850770  0.99875360  0.78556309  1
  Al  Al21  1  0.50041157  0.50041157  0.71425723  1
  Al  Al22  1  0.00273206  0.50358626  0.64303685  1
  Al  Al23  1  0.49832506  0.49832506  0.78577230  1
  Al  Al24  1  0.50428029  0.00069153  0.92754501  1
  Al  Al25  1  0.50128778  0.50128778  0.85680623  1
  Al  Al26  1  0.50507271  0.50507271  0.92756496  1
  Al  Al27  1  0.00069153  0.50428029  0.92754501  1
  Fe  Fe0  1  0.12622324  0.12622324  0.15955264  1
  Fe  Fe1  1  0.49951635  0.99951267  0.07141091  1
  Fe  Fe2  1  0.11961596  0.11961596  0.30507373  1
  Fe  Fe3  1  0.99951267  0.49951635  0.07141091  1
  Fe  Fe4  1  0.12355232  0.12355232  0.44662700  1
  Fe  Fe5  1  0.12781528  0.12781528  0.58925046  1
  Fe  Fe6  1  0.87443484  0.87443484  0.26755263  1
  Fe  Fe7  1  0.12510040  0.12510040  0.73171680  1
  Fe  Fe8  1  0.87440576  0.87440576  0.41100607  1
  Fe  Fe9  1  0.12480112  0.12480112  0.87522344  1
  Fe  Fe10  1  0.87558691  0.87558691  0.55361387  1
  Fe  Fe11  1  0.87662431  0.87662431  0.69656122  1
  Fe  Fe12  1  0.87852103  0.87852103  0.83789276  1
  Fe  Fe13  1  0.87300088  0.87300088  0.98325927  1
  O  O0  1  0.27768674  0.27768674  0.02811349  1
  O  O1  1  0.28125421  0.28125421  0.09990211  1
  O  O2  1  0.28004324  0.74932259  0.03200299  1
  O  O3  1  0.74932259  0.28004324  0.03200299  1
  O  O4  1  0.25885744  0.25885744  0.18269921  1
  O  O5  1  0.24978302  0.71897036  0.11082392  1
  O  O6  1  0.71897036  0.24978302  0.11082392  1
  O  O7  1  0.25357130  0.69989564  0.18296958  1
  O  O8  1  0.26144404  0.26144404  0.24460809  1
  O  O9  1  0.71776594  0.71776594  0.04291913  1
  O  O10  1  0.69989564  0.25357130  0.18296958  1
  O  O11  1  0.72143029  0.72143029  0.11469969  1
  O  O12  1  0.26640694  0.26640694  0.32356635  1
  O  O13  1  0.29872598  0.73421963  0.24730350  1
  O  O14  1  0.73421963  0.29872598  0.24730350  1
  O  O15  1  0.26637035  0.70169137  0.32369112  1
  O  O16  1  0.74003957  0.74003957  0.18252876  1
  O  O17  1  0.26619340  0.26619340  0.38616302  1
  O  O18  1  0.70169137  0.26637035  0.32369112  1
  O  O19  1  0.73057108  0.73057108  0.24807219  1
  O  O20  1  0.26604257  0.26604257  0.46636798  1
  O  O21  1  0.29730812  0.73712406  0.39033748  1
  O  O22  1  0.73712406  0.29730812  0.39033748  1
  O  O23  1  0.73412743  0.73412743  0.32785871  1
  O  O24  1  0.26545493  0.26545493  0.52896425  1
  O  O25  1  0.26567628  0.70265343  0.46650190  1
  O  O26  1  0.73383075  0.73383075  0.39073369  1
  O  O27  1  0.70265343  0.26567628  0.46650190  1
  O  O28  1  0.26743468  0.26743468  0.60972310  1
  O  O29  1  0.29691189  0.73377165  0.53362650  1
  O  O30  1  0.73377165  0.29691189  0.53362650  1
  O  O31  1  0.27091402  0.27091402  0.67176011  1
  O  O32  1  0.26859260  0.70598339  0.60921508  1
  O  O33  1  0.73201069  0.73201069  0.47108311  1
  O  O34  1  0.70598339  0.26859260  0.60921508  1
  O  O35  1  0.73531580  0.73531580  0.53317983  1
  O  O36  1  0.26593906  0.26593906  0.75193535  1
  O  O37  1  0.29942224  0.73946175  0.67605860  1
  O  O38  1  0.73946175  0.29942224  0.67605860  1
  O  O39  1  0.73787974  0.73787974  0.61390753  1
  O  O40  1  0.26455629  0.26455629  0.81498444  1
  O  O41  1  0.26131578  0.70194197  0.75263694  1
  O  O42  1  0.70194197  0.26131578  0.75263694  1
  O  O43  1  0.73418544  0.73418544  0.67707292  1
  O  O44  1  0.26851341  0.26851341  0.89477995  1
  O  O45  1  0.29680233  0.73249762  0.81927052  1
  O  O46  1  0.25911688  0.25911688  0.96030146  1
  O  O47  1  0.73249762  0.29680233  0.81927052  1
  O  O48  1  0.73091009  0.73091009  0.75676984  1
  O  O49  1  0.26509943  0.70051396  0.89553670  1
  O  O50  1  0.70051396  0.26509943  0.89553670  1
  O  O51  1  0.73283834  0.73283834  0.81907405  1
  O  O52  1  0.29927600  0.74557484  0.95986735  1
  O  O53  1  0.74557484  0.29927600  0.95986735  1
  O  O54  1  0.73772218  0.73772218  0.89825834  1
  O  O55  1  0.74030746  0.74030746  0.96013538  1
loop_
_geom_bond_atom_site_label_1
_geom_bond_atom_site_label_2
_geom_bond_distance
_geom_bond_site_symmetry_2
Al0 O0 1.795709 1_555
Al0 O46 1.824258 1_554
Al0 O2 1.841992 1_545
Al0 O3 1.841992 1_455
Al1 O0 1.911230 1_556
Al1 O55 1.935550 1_555
Al1 O52 1.947065 1_555
Al1 O53 1.947065 1_555
Al1 O3 1.989364 1_556
Al1 O2 1.989364 1_556
Al2 O9 1.813232 1_555
Al2 O1 1.813764 1_555
Al2 O2 2.043912 1_555
Al2 O3 2.043912 1_555
Al2 O6 2.044756 1_555
Al2 O5 2.044756 1_555
Al3 O10 1.913236 1_565
Al3 O4 1.915615 1_565
Al3 O13 1.920554 1_555
Al3 O19 1.924492 1_555
Al3 O8 1.932714 1_565
Al3 O16 2.007558 1_555
Al4 O11 1.910719 1_555
Al4 O4 1.935719 1_555
Al4 O10 1.947770 1_555
Al4 O7 1.947770 1_555
Al4 O5 1.989294 1_555
Al4 O6 1.989294 1_555
Al5 O13 1.922536 1_555
Al5 O14 1.922536 1_555
Al5 O10 1.926507 1_555
Al5 O7 1.926507 1_555
Al5 O8 1.935981 1_555
Al5 O16 2.042271 1_555
Al6 O26 1.935401 1_545
Al6 O17 1.936642 1_555
Al6 O12 1.938374 1_555
Al6 O21 1.939885 1_545
Al6 O23 1.946356 1_545
Al6 O18 1.949112 1_555
Al7 O11 1.795818 1_555
Al7 O16 1.825100 1_555
Al7 O6 1.841795 1_565
Al7 O5 1.841796 1_655
Al8 O12 1.928899 1_555
Al8 O18 1.930924 1_555
Al8 O15 1.930924 1_555
Al8 O19 1.939817 1_555
Al8 O13 1.945909 1_555
Al8 O14 1.945909 1_555
Al9 O7 1.913236 1_655
Al9 O4 1.915616 1_655
Al9 O14 1.920555 1_555
Al9 O19 1.924492 1_555
Al9 O8 1.932714 1_655
Al9 O16 2.007558 1_555
Al10 O21 1.935262 1_555
Al10 O22 1.935262 1_555
Al10 O15 1.938332 1_555
Al10 O18 1.938332 1_555
Al10 O17 1.943658 1_555
Al10 O23 1.952838 1_555
Al11 O35 1.934604 1_555
Al11 O20 1.935707 1_565
Al11 O24 1.937273 1_565
Al11 O33 1.940444 1_555
Al11 O29 1.951976 1_555
Al11 O27 1.953963 1_565
Al12 O27 1.935045 1_555
Al12 O25 1.935045 1_555
Al12 O21 1.943824 1_555
Al12 O22 1.943824 1_555
Al12 O20 1.946816 1_555
Al12 O26 1.950340 1_555
Al13 O26 1.935401 1_455
Al13 O17 1.936642 1_555
Al13 O12 1.938374 1_555
Al13 O22 1.939885 1_455
Al13 O23 1.946356 1_455
Al13 O15 1.949112 1_555
Al14 O29 1.935510 1_555
Al14 O30 1.935510 1_555
Al14 O25 1.940280 1_555
Al14 O27 1.940280 1_555
Al14 O33 1.942001 1_555
Al14 O24 1.943927 1_555
Al15 O39 1.935711 1_545
Al15 O28 1.938113 1_555
Al15 O43 1.938575 1_545
Al15 O31 1.939457 1_555
Al15 O37 1.946203 1_545
Al15 O34 1.950803 1_555
Al16 O34 1.937169 1_555
Al16 O32 1.937169 1_555
Al16 O29 1.938307 1_555
Al16 O30 1.938307 1_555
Al16 O28 1.948717 1_555
Al16 O35 1.952789 1_555
Al17 O35 1.934604 1_555
Al17 O20 1.935707 1_655
Al17 O24 1.937273 1_655
Al17 O33 1.940444 1_555
Al17 O30 1.951976 1_555
Al17 O25 1.953963 1_655
Al18 O34 1.935959 1_555
Al18 O32 1.935959 1_555
Al18 O38 1.942884 1_555
Al18 O37 1.942884 1_555
Al18 O31 1.943623 1_555
Al18 O39 1.946080 1_555
Al19 O36 1.934243 1_655
Al19 O51 1.937086 1_555
Al19 O48 1.939856 1_555
Al19 O41 1.940267 1_655
Al19 O40 1.947745 1_655
Al19 O47 1.949850 1_555
Al20 O36 1.934243 1_565
Al20 O51 1.937086 1_555
Al20 O48 1.939856 1_555
Al20 O42 1.940267 1_565
Al20 O40 1.947745 1_565
Al20 O45 1.949850 1_555
Al21 O37 1.936791 1_555
Al21 O38 1.936791 1_555
Al21 O42 1.944344 1_555
Al21 O41 1.944344 1_555
Al21 O43 1.945398 1_555
Al21 O36 1.952533 1_555
Al22 O39 1.935711 1_455
Al22 O28 1.938113 1_555
Al22 O43 1.938575 1_455
Al22 O31 1.939457 1_555
Al22 O38 1.946203 1_455
Al22 O32 1.950803 1_555
Al23 O48 1.936623 1_555
Al23 O45 1.937224 1_555
Al23 O47 1.937224 1_555
Al23 O42 1.937368 1_555
Al23 O41 1.937368 1_555
Al23 O40 1.946260 1_555
Al24 O52 1.913890 1_545
Al24 O55 1.916054 1_545
Al24 O50 1.920939 1_555
Al24 O44 1.923840 1_555
Al24 O54 1.931755 1_545
Al24 O46 2.007527 1_555
Al25 O45 1.929662 1_555
Al25 O47 1.929662 1_555
Al25 O51 1.930211 1_555
Al25 O44 1.940584 1_555
Al25 O50 1.946320 1_555
Al25 O49 1.946320 1_555
Al26 O50 1.921725 1_555
Al26 O49 1.921725 1_555
Al26 O52 1.926399 1_555
Al26 O53 1.926399 1_555
Al26 O54 1.936140 1_555
Al26 O46 2.042304 1_555
Al27 O53 1.913890 1_455
Al27 O55 1.916054 1_455
Al27 O49 1.920939 1_555
Al27 O44 1.923840 1_555
Al27 O54 1.931755 1_455
Al27 O46 2.007527 1_555
Fe0 O1 1.999062 1_555
Fe0 O7 2.032545 1_545
Fe0 O10 2.032545 1_455
Fe0 O4 2.037095 1_555
Fe1 O1 1.997527 1_565
Fe1 O9 1.997572 1_555
Fe1 O0 2.174394 1_565
Fe1 O11 2.174419 1_555
Fe1 O5 2.201995 1_555
Fe1 O3 2.202227 1_565
Fe2 O15 1.988931 1_545
Fe2 O18 1.988932 1_455
Fe2 O12 2.016199 1_555
Fe2 O8 2.018741 1_555
Fe3 O1 1.997527 1_655
Fe3 O9 1.997572 1_555
Fe3 O0 2.174394 1_655
Fe3 O11 2.174419 1_555
Fe3 O6 2.201995 1_555
Fe3 O2 2.202227 1_655
Fe4 O25 2.002792 1_545
Fe4 O27 2.002792 1_455
Fe4 O20 2.015777 1_555
Fe4 O17 2.018793 1_555
Fe5 O32 2.007289 1_545
Fe5 O34 2.007289 1_455
Fe5 O28 2.012641 1_555
Fe5 O24 2.012697 1_555
Fe6 O23 2.013321 1_555
Fe6 O14 2.019061 1_565
Fe6 O13 2.019061 1_655
Fe6 O19 2.020348 1_555
Fe7 O31 2.003006 1_555
Fe7 O41 2.014065 1_545
Fe7 O42 2.014065 1_455
Fe7 O36 2.015810 1_555
Fe8 O33 2.005986 1_555
Fe8 O22 2.012681 1_565
Fe8 O21 2.012682 1_655
Fe8 O26 2.015083 1_555
Fe9 O40 2.011065 1_555
Fe9 O49 2.019039 1_545
Fe9 O50 2.019039 1_455
Fe9 O44 2.021400 1_555
Fe10 O30 2.004833 1_565
Fe10 O29 2.004833 1_655
Fe10 O39 2.012942 1_555
Fe10 O35 2.017564 1_555
Fe11 O43 2.006949 1_555
Fe11 O48 2.011168 1_555
Fe11 O38 2.012162 1_565
Fe11 O37 2.012162 1_655
Fe12 O47 1.990636 1_565
Fe12 O45 1.990636 1_655
Fe12 O54 2.015329 1_555
Fe12 O51 2.016141 1_555
Fe13 O9 1.999534 1_556
Fe13 O53 2.032246 1_565
Fe13 O52 2.032247 1_655
Fe13 O55 2.036872 1_555
