# generated using pymatgen
data_Fe2C
_symmetry_space_group_name_H-M   'P 1'
_cell_length_a   3.69918596
_cell_length_b   3.69918596
_cell_length_c   2.64180400
_cell_angle_alpha   90.00000000
_cell_angle_beta   90.00000000
_cell_angle_gamma   119.99999924
_symmetry_Int_Tables_number   1
_chemical_formula_structural   Fe2C
_chemical_formula_sum   'Fe2 C1'
_cell_volume   31.30715158
_cell_formula_units_Z   1
loop_
 _symmetry_equiv_pos_site_id
 _symmetry_equiv_pos_as_xyz
  1  'x, y, z'
loop_
 _atom_site_type_symbol
 _atom_site_label
 _atom_site_symmetry_multiplicity
 _atom_site_fract_x
 _atom_site_fract_y
 _atom_site_fract_z
 _atom_site_occupancy
  Fe  Fe0  1  0.33333300  0.66666700  0.00000000  1
  Fe  Fe1  1  0.66666700  0.33333300  0.00000000  1
  C  C0  1  0.00000000  0.00000000  0.00000000  1
loop_
_geom_bond_atom_site_label_1
_geom_bond_atom_site_label_2
_geom_bond_distance
_geom_bond_site_symmetry_2
C0 Fe0 2.135724 1_545
C0 Fe1 2.135724 1_455
C0 Fe0 2.135727 1_445
C0 Fe1 2.135727 1_555
C0 Fe0 2.135727 1_555
C0 Fe1 2.135727 1_445
