# generated using pymatgen
data_NaFe2(MoO4)3
_symmetry_space_group_name_H-M   'P 1'
_cell_length_a   7.06529000
_cell_length_b   7.06702335
_cell_length_c   11.35537445
_cell_angle_alpha   80.04710605
_cell_angle_beta   84.03157569
_cell_angle_gamma   80.88676189
_symmetry_Int_Tables_number   1
_chemical_formula_structural   NaFe2(MoO4)3
_chemical_formula_sum   'Na2 Fe4 Mo6 O24'
_cell_volume   549.68492299
_cell_formula_units_Z   2
loop_
 _symmetry_equiv_pos_site_id
 _symmetry_equiv_pos_as_xyz
  1  'x, y, z'
loop_
 _atom_site_type_symbol
 _atom_site_label
 _atom_site_symmetry_multiplicity
 _atom_site_fract_x
 _atom_site_fract_y
 _atom_site_fract_z
 _atom_site_occupancy
  Na  Na0  1  0.14517000  0.40841300  0.17435300  1
  Na  Na1  1  0.85483000  0.59158700  0.82564700  1
  Fe  Fe0  1  0.81373200  0.16923900  0.50950800  1
  Fe  Fe1  1  0.77167800  0.77839800  0.11568700  1
  Fe  Fe2  1  0.22832200  0.22160200  0.88431300  1
  Fe  Fe3  1  0.18626800  0.83076100  0.49049200  1
  Mo  Mo0  1  0.27397900  0.29525700  0.54700200  1
  Mo  Mo1  1  0.72602100  0.70474300  0.45299800  1
  Mo  Mo2  1  0.29554700  0.71408400  0.81140200  1
  Mo  Mo3  1  0.70445300  0.28591600  0.18859800  1
  Mo  Mo4  1  0.24149200  0.90049900  0.14693500  1
  Mo  Mo5  1  0.75850800  0.09950100  0.85306500  1
  O  O0  1  0.20804100  0.53651300  0.47206600  1
  O  O1  1  0.87538000  0.86739900  0.49498500  1
  O  O2  1  0.48447900  0.78904000  0.49501800  1
  O  O3  1  0.81135300  0.85199600  0.93278100  1
  O  O4  1  0.54149800  0.65514500  0.77177200  1
  O  O5  1  0.24852100  0.29203800  0.70798300  1
  O  O6  1  0.16297900  0.76255800  0.68167800  1
  O  O7  1  0.83702100  0.23744200  0.31832200  1
  O  O8  1  0.45850200  0.34485500  0.22822800  1
  O  O9  1  0.12462000  0.13260100  0.50501500  1
  O  O10  1  0.51655800  0.20506500  0.89182500  1
  O  O11  1  0.79900100  0.49476900  0.09405000  1
  O  O12  1  0.79195900  0.46348700  0.52793400  1
  O  O13  1  0.20099900  0.50523100  0.90595000  1
  O  O14  1  0.75147900  0.70796200  0.29201700  1
  O  O15  1  0.77931800  0.08118700  0.69968500  1
  O  O16  1  0.25597300  0.93198500  0.88287600  1
  O  O17  1  0.06758600  0.74695900  0.12590300  1
  O  O18  1  0.93241400  0.25304100  0.87409700  1
  O  O19  1  0.18864700  0.14800400  0.06721900  1
  O  O20  1  0.74402700  0.06801500  0.11712400  1
  O  O21  1  0.48344200  0.79493500  0.10817500  1
  O  O22  1  0.51552100  0.21096000  0.50498200  1
  O  O23  1  0.22068200  0.91881300  0.30031500  1
loop_
_geom_bond_atom_site_label_1
_geom_bond_atom_site_label_2
_geom_bond_distance
_geom_bond_site_symmetry_2
Na0 O8 2.312686 1_555
Na0 O19 2.340563 1_555
Na0 O17 2.349371 1_555
Na0 O11 2.642807 1_455
Na0 O7 2.877995 1_455
Na0 O13 3.004587 1_554
Na1 O4 2.312686 1_555
Na1 O3 2.340563 1_555
Na1 O18 2.349371 1_555
Na1 O13 2.642807 1_655
Na1 O6 2.877995 1_655
Na1 O11 3.004587 1_556
Fe0 O22 2.085497 1_555
Fe0 O12 2.105698 1_555
Fe0 O7 2.135814 1_555
Fe0 O1 2.139958 1_545
Fe0 O15 2.141056 1_555
Fe0 O9 2.166892 1_655
Fe1 O14 1.973795 1_555
Fe1 O20 2.027747 1_565
Fe1 O21 2.031117 1_555
Fe1 O11 2.037917 1_555
Fe1 O3 2.052943 1_554
Fe1 O17 2.080416 1_655
Fe2 O5 1.973795 1_555
Fe2 O16 2.027747 1_545
Fe2 O10 2.031117 1_555
Fe2 O13 2.037917 1_555
Fe2 O19 2.052943 1_556
Fe2 O18 2.080416 1_455
Fe3 O2 2.085497 1_555
Fe3 O0 2.105698 1_555
Fe3 O6 2.135814 1_555
Fe3 O9 2.139958 1_565
Fe3 O23 2.141056 1_555
Fe3 O1 2.166892 1_455
Mo0 O22 1.761193 1_555
Mo0 O0 1.782507 1_555
Mo0 O5 1.814662 1_555
Mo0 O9 1.827722 1_555
Mo1 O2 1.761193 1_555
Mo1 O12 1.782507 1_555
Mo1 O14 1.814662 1_555
Mo1 O1 1.827722 1_555
Mo2 O4 1.751727 1_555
Mo2 O6 1.781966 1_555
Mo2 O16 1.832122 1_555
Mo2 O13 1.841956 1_555
Mo3 O8 1.751727 1_555
Mo3 O7 1.781966 1_555
Mo3 O20 1.832122 1_555
Mo3 O11 1.841956 1_555
Mo4 O23 1.757977 1_555
Mo4 O21 1.795978 1_555
Mo4 O17 1.821275 1_555
Mo4 O19 1.826014 1_565
Mo5 O15 1.757977 1_555
Mo5 O10 1.795978 1_555
Mo5 O18 1.821275 1_555
Mo5 O3 1.826014 1_545
