# generated using pymatgen
data_Fe4Bi2O9
_symmetry_space_group_name_H-M   'P 1'
_cell_length_a   6.04583608
_cell_length_b   8.01523517
_cell_length_c   8.45826100
_cell_angle_alpha   90.00000000
_cell_angle_beta   90.00000000
_cell_angle_gamma   90.00000000
_symmetry_Int_Tables_number   1
_chemical_formula_structural   Fe4Bi2O9
_chemical_formula_sum   'Fe8 Bi4 O18'
_cell_volume   409.87716107
_cell_formula_units_Z   2
loop_
 _symmetry_equiv_pos_site_id
 _symmetry_equiv_pos_as_xyz
  1  'x, y, z'
loop_
 _atom_site_type_symbol
 _atom_site_label
 _atom_site_symmetry_multiplicity
 _atom_site_fract_x
 _atom_site_fract_y
 _atom_site_fract_z
 _atom_site_occupancy
  Fe  Fe0  1  0.25615186  -0.00000000  0.50000000  1
  Fe  Fe1  1  0.74384814  0.50000000  0.00000000  1
  Fe  Fe2  1  0.74384814  -0.00000000  0.50000000  1
  Fe  Fe3  1  0.25615186  0.50000000  0.00000000  1
  Fe  Fe4  1  0.50000000  0.85368910  0.16827004  1
  Fe  Fe5  1  0.50000000  0.14631090  0.83172996  1
  Fe  Fe6  1  0.50000000  0.35368910  0.33172996  1
  Fe  Fe7  1  0.50000000  0.64631090  0.66827004  1
  Bi  Bi0  1  0.00000000  0.67570084  0.32632720  1
  Bi  Bi1  1  0.00000000  0.32429916  0.67367280  1
  Bi  Bi2  1  0.00000000  0.17570084  0.17367280  1
  Bi  Bi3  1  0.00000000  0.82429916  0.82632720  1
  O  O0  1  0.50000000  0.50000000  0.50000000  1
  O  O1  1  0.50000000  -0.00000000  0.00000000  1
  O  O2  1  0.23919507  0.86869558  0.29411687  1
  O  O3  1  0.23919507  0.13130442  0.70588313  1
  O  O4  1  0.76080493  0.36869558  0.20588313  1
  O  O5  1  0.76080493  0.63130442  0.79411687  1
  O  O6  1  0.76080493  0.13130442  0.70588313  1
  O  O7  1  0.76080493  0.86869558  0.29411687  1
  O  O8  1  0.23919507  0.63130442  0.79411687  1
  O  O9  1  0.23919507  0.36869558  0.20588313  1
  O  O10  1  0.50000000  0.63093339  0.09773537  1
  O  O11  1  0.50000000  0.36906661  0.90226463  1
  O  O12  1  0.50000000  0.13093339  0.40226463  1
  O  O13  1  0.50000000  0.86906661  0.59773537  1
  O  O14  1  0.00000000  0.65231682  0.06799255  1
  O  O15  1  0.00000000  0.34768318  0.93200745  1
  O  O16  1  0.00000000  0.15231682  0.43200745  1
  O  O17  1  0.00000000  0.84768318  0.56799255  1
loop_
_geom_bond_atom_site_label_1
_geom_bond_atom_site_label_2
_geom_bond_distance
_geom_bond_site_symmetry_2
Fe0 O12 1.989526 1_555
Fe0 O13 1.989526 1_545
Fe0 O3 2.037315 1_555
Fe0 O2 2.037315 1_545
Fe0 O16 2.054154 1_555
Fe0 O17 2.054154 1_545
Fe1 O11 1.989526 1_554
Fe1 O10 1.989526 1_555
Fe1 O4 2.037315 1_555
Fe1 O5 2.037315 1_554
Fe1 O15 2.054154 1_654
Fe1 O14 2.054154 1_655
Fe2 O12 1.989526 1_555
Fe2 O13 1.989526 1_545
Fe2 O7 2.037315 1_545
Fe2 O6 2.037315 1_555
Fe2 O17 2.054154 1_645
Fe2 O16 2.054154 1_655
Fe3 O11 1.989526 1_554
Fe3 O10 1.989526 1_555
Fe3 O8 2.037315 1_554
Fe3 O9 2.037315 1_555
Fe3 O14 2.054154 1_555
Fe3 O15 2.054154 1_554
Fe4 O1 1.844171 1_565
Fe4 O10 1.882479 1_555
Fe4 O7 1.906242 1_555
Fe4 O2 1.906242 1_555
Fe5 O1 1.844171 1_556
Fe5 O11 1.882479 1_555
Fe5 O6 1.906242 1_555
Fe5 O3 1.906242 1_555
Fe6 O0 1.844171 1_555
Fe6 O12 1.882479 1_555
Fe6 O9 1.906242 1_555
Fe6 O4 1.906242 1_555
Fe7 O0 1.844171 1_555
Fe7 O13 1.882479 1_555
Fe7 O5 1.906242 1_555
Fe7 O8 1.906242 1_555
Bi0 O7 2.135047 1_455
Bi0 O2 2.135047 1_555
Bi0 O14 2.193086 1_555
Bi0 O17 2.465445 1_555
Bi1 O6 2.135047 1_455
Bi1 O3 2.135047 1_555
Bi1 O15 2.193086 1_555
Bi1 O16 2.465445 1_555
Bi2 O4 2.135047 1_455
Bi2 O9 2.135047 1_555
Bi2 O16 2.193086 1_555
Bi2 O15 2.465445 1_554
Bi3 O5 2.135047 1_455
Bi3 O8 2.135047 1_555
Bi3 O17 2.193086 1_555
Bi3 O14 2.465445 1_556
