# generated using pymatgen
data_MnFeAs
_symmetry_space_group_name_H-M   'P 1'
_cell_length_a   3.71527400
_cell_length_b   3.71527400
_cell_length_c   5.92007400
_cell_angle_alpha   90.00000000
_cell_angle_beta   90.00000000
_cell_angle_gamma   90.00000000
_symmetry_Int_Tables_number   1
_chemical_formula_structural   MnFeAs
_chemical_formula_sum   'Mn2 Fe2 As2'
_cell_volume   81.71632594
_cell_formula_units_Z   2
loop_
 _symmetry_equiv_pos_site_id
 _symmetry_equiv_pos_as_xyz
  1  'x, y, z'
loop_
 _atom_site_type_symbol
 _atom_site_label
 _atom_site_symmetry_multiplicity
 _atom_site_fract_x
 _atom_site_fract_y
 _atom_site_fract_z
 _atom_site_occupancy
  Mn  Mn0  1  0.50000000  0.00000000  0.32206900  1
  Mn  Mn1  1  0.00000000  0.50000000  0.67793100  1
  Fe  Fe0  1  0.50000000  0.50000000  0.00000000  1
  Fe  Fe1  1  0.00000000  0.00000000  0.00000000  1
  As  As0  1  0.50000000  0.00000000  0.74867600  1
  As  As1  1  0.00000000  0.50000000  0.25132400  1
loop_
_geom_bond_atom_site_label_1
_geom_bond_atom_site_label_2
_geom_bond_distance
_geom_bond_site_symmetry_2
Fe0 Fe1 2.627095 1_555
Fe0 Fe1 2.627095 1_565
Fe0 Fe1 2.627095 1_655
Fe0 Fe1 2.627095 1_665
Fe0 Mn0 2.661994 1_565
Fe0 Mn0 2.661994 1_555
Fe0 Mn1 2.661994 1_654
Fe0 Mn1 2.661994 1_554
Fe1 Mn0 2.661994 1_555
Fe1 Mn0 2.661994 1_455
Fe1 Mn1 2.661994 1_544
Fe1 Mn1 2.661994 1_554
As0 Fe0 2.380028 1_556
As0 Fe0 2.380028 1_546
As0 Fe1 2.380028 1_556
As0 Fe1 2.380028 1_656
As0 Mn0 2.525545 1_555
As0 Mn1 2.660270 1_545
As0 Mn1 2.660270 1_645
As0 Mn1 2.660270 1_655
As0 Mn1 2.660270 1_555
As1 Fe0 2.380028 1_455
As1 Fe0 2.380028 1_555
As1 Fe1 2.380028 1_555
As1 Fe1 2.380028 1_565
As1 Mn1 2.525545 1_555
As1 Mn0 2.660270 1_555
As1 Mn0 2.660270 1_455
As1 Mn0 2.660270 1_465
As1 Mn0 2.660270 1_565
