# generated using pymatgen
data_Nd6Si4S17
_symmetry_space_group_name_H-M   'P 1'
_cell_length_a   8.96623435
_cell_length_b   9.98136180
_cell_length_c   14.26205730
_cell_angle_alpha   81.99889679
_cell_angle_beta   87.01240611
_cell_angle_gamma   89.28710006
_symmetry_Int_Tables_number   1
_chemical_formula_structural   Nd6Si4S17
_chemical_formula_sum   'Nd12 Si8 S34'
_cell_volume   1262.22567556
_cell_formula_units_Z   2
loop_
 _symmetry_equiv_pos_site_id
 _symmetry_equiv_pos_as_xyz
  1  'x, y, z'
loop_
 _atom_site_type_symbol
 _atom_site_label
 _atom_site_symmetry_multiplicity
 _atom_site_fract_x
 _atom_site_fract_y
 _atom_site_fract_z
 _atom_site_occupancy
  Nd  Nd0  1  0.63167999  0.93586941  0.32400536  1
  Nd  Nd1  1  0.36832001  0.06413059  0.67599464  1
  Nd  Nd2  1  0.55157409  0.26149364  0.99849881  1
  Nd  Nd3  1  0.91544361  0.91937996  0.83413853  1
  Nd  Nd4  1  0.44842591  0.73850636  0.00150119  1
  Nd  Nd5  1  0.98196283  0.23180007  0.53924328  1
  Nd  Nd6  1  0.89355740  0.61517488  0.18397281  1
  Nd  Nd7  1  0.66759507  0.58898960  0.65766813  1
  Nd  Nd8  1  0.01803717  0.76819993  0.46075672  1
  Nd  Nd9  1  0.10644260  0.38482512  0.81602719  1
  Nd  Nd10  1  0.08455639  0.08062004  0.16586147  1
  Nd  Nd11  1  0.33240493  0.41101040  0.34233187  1
  Si  Si0  1  0.27582498  0.05772309  0.39369191  1
  Si  Si1  1  0.76903327  0.56141800  0.90117347  1
  Si  Si2  1  0.72417502  0.94227691  0.60630809  1
  Si  Si3  1  0.24956296  0.50014842  0.58386911  1
  Si  Si4  1  0.75043704  0.49985158  0.41613089  1
  Si  Si5  1  0.25060603  0.05993391  0.92299687  1
  Si  Si6  1  0.23096673  0.43858200  0.09882653  1
  Si  Si7  1  0.74939397  0.94006609  0.07700313  1
  S  S0  1  0.35508098  0.53125008  0.70658848  1
  S  S1  1  0.10765731  0.20090394  0.34496531  1
  S  S2  1  0.30414563  0.91243595  0.30144746  1
  S  S3  1  0.38251427  0.21207562  0.83862782  1
  S  S4  1  0.04150111  0.14895168  0.95216771  1
  S  S5  1  0.64491902  0.46874992  0.29341152  1
  S  S6  1  0.32102702  0.48185220  0.95670114  1
  S  S7  1  0.89234269  0.79909606  0.65503469  1
  S  S8  1  0.29724267  0.30777712  0.54148801  1
  S  S9  1  0.65976591  0.99915536  0.94322817  1
  S  S10  1  0.30654540  0.63333244  0.46092123  1
  S  S11  1  0.99053613  0.62658055  0.88509063  1
  S  S12  1  0.74292693  0.11529072  0.14823708  1
  S  S13  1  0.98472757  0.50701448  0.37707980  1
  S  S14  1  0.75187251  0.38582503  0.83248312  1
  S  S15  1  0.69585437  0.08756405  0.69855254  1
  S  S16  1  0.81506981  0.01992264  0.46863632  1
  S  S17  1  0.70275733  0.69222288  0.45851199  1
  S  S18  1  0.06683482  0.14291494  0.72125705  1
  S  S19  1  0.18493019  0.98007736  0.53136368  1
  S  S20  1  0.61748573  0.78792438  0.16137218  1
  S  S21  1  0.00946387  0.37341945  0.11490937  1
  S  S22  1  0.34023409  0.00084464  0.05677183  1
  S  S23  1  0.25707307  0.88470928  0.85176292  1
  S  S24  1  0.36740771  0.28286288  0.16618751  1
  S  S25  1  0.24812749  0.61417497  0.16751688  1
  S  S26  1  0.95849889  0.85104832  0.04783229  1
  S  S27  1  0.48302002  0.15364877  0.39680249  1
  S  S28  1  0.69345460  0.36666756  0.53907877  1
  S  S29  1  0.51697998  0.84635123  0.60319751  1
  S  S30  1  0.01527243  0.49298552  0.62292020  1
  S  S31  1  0.63259229  0.71713712  0.83381249  1
  S  S32  1  0.67897298  0.51814780  0.04329886  1
  S  S33  1  0.93316518  0.85708506  0.27874295  1
loop_
_geom_bond_atom_site_label_1
_geom_bond_atom_site_label_2
_geom_bond_distance
_geom_bond_site_symmetry_2
Nd0 S27 2.826951 1_565
Nd0 S33 2.872080 1_555
Nd0 S16 2.920987 1_565
Nd0 S20 2.926736 1_555
Nd0 S17 2.964890 1_555
Nd0 S2 2.986510 1_555
Nd0 S12 3.003384 1_565
Nd1 S29 2.826951 1_545
Nd1 S18 2.872080 1_555
Nd1 S19 2.920987 1_545
Nd1 S3 2.926736 1_555
Nd1 S8 2.964890 1_555
Nd1 S15 2.986510 1_555
Nd1 S23 3.003384 1_545
Nd2 S24 2.865917 1_556
Nd2 S3 2.903760 1_555
Nd2 S9 2.974998 1_545
Nd2 S32 2.979972 1_556
Nd2 S12 3.014298 1_556
Nd2 S6 3.019344 1_555
Nd2 S14 3.027500 1_555
Nd2 S22 3.225916 1_556
Nd3 S9 2.870149 1_555
Nd3 S18 2.874055 1_665
Nd3 S7 2.987361 1_555
Nd3 S11 2.988885 1_555
Nd3 S26 3.072489 1_556
Nd3 S23 3.097639 1_655
Nd3 S15 3.137650 1_565
Nd3 S31 3.261611 1_555
Nd3 S4 3.270839 1_665
Nd4 S31 2.865917 1_554
Nd4 S20 2.903760 1_555
Nd4 S22 2.974998 1_565
Nd4 S6 2.979972 1_554
Nd4 S23 3.014298 1_554
Nd4 S32 3.019344 1_555
Nd4 S25 3.027500 1_555
Nd4 S9 3.225916 1_554
Nd5 S18 2.766376 1_655
Nd5 S28 2.901199 1_555
Nd5 S16 2.924797 1_555
Nd5 S8 2.938856 1_655
Nd5 S1 2.991038 1_655
Nd5 S30 3.038491 1_655
Nd5 S19 3.095292 1_645
Nd5 S13 3.335079 1_555
Nd5 S15 3.519881 1_555
Nd6 S26 2.880213 1_555
Nd6 S21 2.892334 1_655
Nd6 S5 2.936925 1_555
Nd6 S33 2.960263 1_555
Nd6 S13 2.967124 1_555
Nd6 S20 3.004411 1_555
Nd6 S32 3.107192 1_555
Nd6 S25 3.175581 1_655
Nd7 S17 2.885975 1_555
Nd7 S0 2.897415 1_555
Nd7 S29 2.914370 1_555
Nd7 S7 2.921571 1_555
Nd7 S28 2.971498 1_555
Nd7 S31 2.974554 1_555
Nd7 S14 3.106469 1_555
Nd7 S30 3.283075 1_655
Nd8 S33 2.766376 1_455
Nd8 S10 2.901199 1_555
Nd8 S19 2.924797 1_555
Nd8 S17 2.938856 1_455
Nd8 S7 2.991038 1_455
Nd8 S13 3.038491 1_455
Nd8 S16 3.095292 1_465
Nd8 S30 3.335079 1_555
Nd8 S2 3.519881 1_555
Nd9 S4 2.880213 1_555
Nd9 S11 2.892334 1_455
Nd9 S0 2.936925 1_555
Nd9 S18 2.960263 1_555
Nd9 S30 2.967124 1_555
Nd9 S3 3.004411 1_555
Nd9 S6 3.107192 1_555
Nd9 S14 3.175581 1_455
Nd10 S22 2.870149 1_555
Nd10 S33 2.874055 1_445
Nd10 S1 2.987361 1_555
Nd10 S21 2.988885 1_555
Nd10 S4 3.072489 1_554
Nd10 S12 3.097639 1_455
Nd10 S2 3.137650 1_545
Nd10 S24 3.261611 1_555
Nd10 S26 3.270839 1_445
Nd11 S8 2.885975 1_555
Nd11 S5 2.897415 1_555
Nd11 S27 2.914370 1_555
Nd11 S1 2.921571 1_555
Nd11 S10 2.971498 1_555
Nd11 S24 2.974554 1_555
Nd11 S25 3.106469 1_555
Nd11 S13 3.283075 1_455
S0 Si3 2.094268 1_555
S1 Si0 2.139640 1_555
S2 Si0 2.094127 1_565
S3 Si5 2.130834 1_555
S4 Si5 2.111370 1_555
S5 Si4 2.094268 1_555
S6 Si6 2.131119 1_556
S7 Si2 2.139640 1_555
S8 Si3 2.123849 1_555
S9 Si7 2.113894 1_556
S10 Si3 2.092260 1_555
S11 Si1 2.088817 1_555
S12 Si7 2.140192 1_545
S13 Si4 2.144517 1_555
S14 Si1 2.134395 1_555
S15 Si2 2.094127 1_545
S16 Si2 2.131993 1_545
S17 Si4 2.123849 1_555
S19 Si0 2.131993 1_565
S20 Si7 2.130834 1_555
S21 Si6 2.088817 1_555
S22 Si5 2.113894 1_554
S23 Si5 2.140192 1_565
S24 Si6 2.120116 1_555
S25 Si6 2.134395 1_555
S26 Si7 2.111370 1_555
S27 Si0 2.105864 1_555
S28 Si4 2.092260 1_555
S29 Si2 2.105864 1_555
S30 Si3 2.144517 1_555
S31 Si1 2.120116 1_555
S32 Si1 2.131119 1_554
