# generated using pymatgen
data_Pr(SiOs)2
_symmetry_space_group_name_H-M   'P 1'
_cell_length_a   4.21834289
_cell_length_b   4.21834348
_cell_length_c   5.77946646
_cell_angle_alpha   111.40402386
_cell_angle_beta   111.40403502
_cell_angle_gamma   89.99999736
_symmetry_Int_Tables_number   1
_chemical_formula_structural   Pr(SiOs)2
_chemical_formula_sum   'Pr1 Si2 Os2'
_cell_volume   88.08691112
_cell_formula_units_Z   1
loop_
 _symmetry_equiv_pos_site_id
 _symmetry_equiv_pos_as_xyz
  1  'x, y, z'
loop_
 _atom_site_type_symbol
 _atom_site_label
 _atom_site_symmetry_multiplicity
 _atom_site_fract_x
 _atom_site_fract_y
 _atom_site_fract_z
 _atom_site_occupancy
  Pr  Pr0  1  0.00000000  -0.00000000  -0.00000000  1
  Si  Si0  1  0.63578619  0.63578619  0.27157337  1
  Si  Si1  1  0.36421381  0.36421381  0.72842663  1
  Os  Os0  1  0.25000000  0.75000000  0.50000000  1
  Os  Os1  1  0.75000000  0.25000000  0.50000000  1
loop_
_geom_bond_atom_site_label_1
_geom_bond_atom_site_label_2
_geom_bond_distance
_geom_bond_site_symmetry_2
Pr0 Si1 3.271772 1_444
Pr0 Si0 3.271772 1_555
Pr0 Si1 3.271774 1_454
Pr0 Si0 3.271774 1_545
Pr0 Si0 3.271774 1_455
Pr0 Si1 3.271774 1_544
Pr0 Si0 3.271777 1_445
Pr0 Si1 3.271777 1_554
Os0 Si1 2.393165 1_555
Os0 Si0 2.393165 1_555
Os0 Si0 2.393168 1_455
Os0 Si1 2.393169 1_565
Os0 Pr0 3.251901 1_666
Os0 Pr0 3.251901 1_565
Os0 Pr0 3.251901 1_566
Os0 Pr0 3.251901 1_555
Os1 Si0 2.393165 1_555
Os1 Si1 2.393165 1_555
Os1 Si1 2.393168 1_655
Os1 Si0 2.393169 1_545
Os1 Pr0 3.251901 1_555
Os1 Pr0 3.251901 1_656
Os1 Pr0 3.251901 1_655
Os1 Pr0 3.251901 1_666
