# generated using pymatgen
data_SiC
_symmetry_space_group_name_H-M   'P 1'
_cell_length_a   3.07622888
_cell_length_b   3.07623076
_cell_length_c   47.82365120
_cell_angle_alpha   90.00000000
_cell_angle_beta   90.00000000
_cell_angle_gamma   120.00000130
_symmetry_Int_Tables_number   1
_chemical_formula_structural   SiC
_chemical_formula_sum   'Si19 C19'
_cell_volume   391.93216952
_cell_formula_units_Z   19
loop_
 _symmetry_equiv_pos_site_id
 _symmetry_equiv_pos_as_xyz
  1  'x, y, z'
loop_
 _atom_site_type_symbol
 _atom_site_label
 _atom_site_symmetry_multiplicity
 _atom_site_fract_x
 _atom_site_fract_y
 _atom_site_fract_z
 _atom_site_occupancy
  Si  Si0  1  0.66666700  0.33333300  0.73686325  1
  Si  Si1  1  0.66666700  0.33333300  0.94736043  1
  Si  Si2  1  0.66666700  0.33333300  0.15790783  1
  Si  Si3  1  0.33333300  0.66666700  0.68421510  1
  Si  Si4  1  -0.00000000  0.00000000  0.78941444  1
  Si  Si5  1  0.33333300  0.66666700  0.36837563  1
  Si  Si6  1  0.00000000  -0.00000000  0.42104092  1
  Si  Si7  1  0.66666700  0.33333300  0.63154685  1
  Si  Si8  1  -0.00000000  -0.00000000  0.21055779  1
  Si  Si9  1  0.66666700  0.33333300  0.52626329  1
  Si  Si10  1  0.33333300  0.66666700  0.47370105  1
  Si  Si11  1  0.00000000  -0.00000000  0.89469717  1
  Si  Si12  1  0.00000000  0.00000000  0.99998726  1
  Si  Si13  1  0.33333300  0.66666700  0.84206485  1
  Si  Si14  1  0.33333300  0.66666700  0.26310917  1
  Si  Si15  1  0.66666700  0.33333300  0.31574754  1
  Si  Si16  1  0.00000000  -0.00000000  0.10525397  1
  Si  Si17  1  0.00000000  0.00000000  0.57891214  1
  Si  Si18  1  0.33333300  0.66666700  0.05262514  1
  C  C0  1  0.00000000  0.00000000  0.61849956  1
  C  C1  1  0.00000000  -0.00000000  0.82887783  1
  C  C2  1  0.33333300  0.66666700  0.72380912  1
  C  C3  1  0.66666700  0.33333300  0.77633195  1
  C  C4  1  0.33333300  0.66666700  0.40783926  1
  C  C5  1  0.66666700  0.33333300  0.35532740  1
  C  C6  1  0.66666700  0.33333300  0.67101600  1
  C  C7  1  0.00000000  0.00000000  0.14470959  1
  C  C8  1  0.66666700  0.33333300  0.98694266  1
  C  C9  1  0.00000000  -0.00000000  0.46064101  1
  C  C10  1  -0.00000000  -0.00000000  0.93416144  1
  C  C11  1  0.66666700  0.33333300  0.19750128  1
  C  C12  1  0.33333300  0.66666700  0.51317750  1
  C  C13  1  0.66666700  0.33333300  0.56573093  1
  C  C14  1  0.33333300  0.66666700  0.30256749  1
  C  C15  1  -0.00000000  -0.00000000  0.25002680  1
  C  C16  1  -0.00000000  -0.00000000  0.03943376  1
  C  C17  1  0.33333300  0.66666700  0.88164826  1
  C  C18  1  0.33333300  0.66666700  0.09220634  1
loop_
_geom_bond_atom_site_label_1
_geom_bond_atom_site_label_2
_geom_bond_distance
_geom_bond_site_symmetry_2
C0 Si7 1.882479 1_455
C0 Si7 1.882481 1_555
C0 Si7 1.882482 1_445
C0 Si17 1.893215 1_555
C1 Si13 1.884705 1_545
C1 Si13 1.884707 1_445
C1 Si13 1.884708 1_555
C1 Si4 1.887283 1_555
C2 Si0 1.882587 1_455
C2 Si0 1.882588 1_565
C2 Si0 1.882593 1_555
C2 Si3 1.893531 1_555
C3 Si4 1.883038 1_655
C3 Si4 1.883040 1_555
C3 Si4 1.883041 1_665
C3 Si0 1.887537 1_555
C4 Si6 1.884939 1_565
C4 Si6 1.884941 1_665
C4 Si6 1.884942 1_555
C4 Si5 1.887295 1_555
C5 Si5 1.882494 1_655
C5 Si5 1.882495 1_545
C5 Si5 1.882499 1_555
C5 Si15 1.892853 1_555
C6 Si3 1.884897 1_655
C6 Si3 1.884899 1_545
C6 Si3 1.884903 1_555
C6 Si7 1.887559 1_555
C7 Si2 1.884884 1_455
C7 Si2 1.884886 1_555
C7 Si2 1.884887 1_445
C7 Si16 1.886912 1_555
C8 Si12 1.882437 1_655
C8 Si12 1.882438 1_555
C8 Si12 1.882440 1_665
C8 Si1 1.892967 1_555
C9 Si10 1.882681 1_545
C9 Si10 1.882683 1_445
C9 Si10 1.882684 1_555
C9 Si6 1.893821 1_555
C10 Si1 1.884896 1_455
C10 Si1 1.884898 1_555
C10 Si1 1.884899 1_445
C10 Si11 1.887325 1_555
C11 Si8 1.882625 1_655
C11 Si8 1.882627 1_555
C11 Si8 1.882628 1_665
C11 Si2 1.893503 1_555
C12 Si9 1.883090 1_455
C12 Si9 1.883091 1_565
C12 Si9 1.883095 1_555
C12 Si10 1.887908 1_555
C13 Si17 1.884612 1_655
C13 Si17 1.884614 1_555
C13 Si17 1.884615 1_665
C13 Si9 1.887487 1_555
C14 Si15 1.884593 1_455
C14 Si15 1.884594 1_565
C14 Si15 1.884598 1_555
C14 Si14 1.887041 1_555
C15 Si14 1.883036 1_545
C15 Si14 1.883038 1_445
C15 Si14 1.883039 1_555
C15 Si8 1.887552 1_555
C16 Si18 1.884774 1_545
C16 Si18 1.884776 1_445
C16 Si18 1.884777 1_555
C16 Si12 1.886476 1_554
C17 Si11 1.882505 1_565
C17 Si11 1.882507 1_665
C17 Si11 1.882508 1_555
C17 Si13 1.893023 1_555
C18 Si16 1.882485 1_565
C18 Si16 1.882487 1_665
C18 Si16 1.882488 1_555
C18 Si18 1.892918 1_555
