# generated using pymatgen
data_Ho3(AgSn)4
_symmetry_space_group_name_H-M   'P 1'
_cell_length_a   8.79485739
_cell_length_b   8.79485739
_cell_length_c   8.79485739
_cell_angle_alpha   149.87073672
_cell_angle_beta   130.24252914
_cell_angle_gamma   59.27489531
_symmetry_Int_Tables_number   1
_chemical_formula_structural   Ho3(AgSn)4
_chemical_formula_sum   'Ho3 Ag4 Sn4'
_cell_volume   258.60931059
_cell_formula_units_Z   1
loop_
 _symmetry_equiv_pos_site_id
 _symmetry_equiv_pos_as_xyz
  1  'x, y, z'
loop_
 _atom_site_type_symbol
 _atom_site_label
 _atom_site_symmetry_multiplicity
 _atom_site_fract_x
 _atom_site_fract_y
 _atom_site_fract_z
 _atom_site_occupancy
  Ho  Ho0  1  0.37340800  0.87340800  0.50000000  1
  Ho  Ho1  1  0.00000000  0.00000000  0.00000000  1
  Ho  Ho2  1  0.62659200  0.12659200  0.50000000  1
  Ag  Ag0  1  0.97367500  0.67192800  0.30174700  1
  Ag  Ag1  1  0.02632500  0.32807200  0.69825300  1
  Ag  Ag2  1  0.37018100  0.67192800  0.69825300  1
  Ag  Ag3  1  0.62981900  0.32807200  0.30174700  1
  Sn  Sn0  1  0.69722800  0.50000000  0.19722800  1
  Sn  Sn1  1  0.30277200  0.50000000  0.80277200  1
  Sn  Sn2  1  0.21514600  0.21514600  0.00000000  1
  Sn  Sn3  1  0.78485400  0.78485400  0.00000000  1
loop_
_geom_bond_atom_site_label_1
_geom_bond_atom_site_label_2
_geom_bond_distance
_geom_bond_site_symmetry_2
Ho0 Sn2 3.328595 1_566
Ho0 Sn2 3.328595 1_555
Ho0 Sn0 3.331818 1_566
Ho0 Sn1 3.331818 1_565
Ho0 Sn0 3.331818 1_555
Ho0 Sn1 3.331818 1_554
Ho1 Sn1 3.200783 1_555
Ho1 Sn1 3.200783 1_544
Ho1 Sn0 3.200783 1_444
Ho1 Sn0 3.200783 1_455
Ho1 Sn2 3.289257 1_555
Ho1 Sn3 3.289257 1_445
Ho2 Sn3 3.328595 1_545
Ho2 Sn3 3.328595 1_556
Ho2 Sn1 3.331818 1_555
Ho2 Sn1 3.331818 1_544
Ho2 Sn0 3.331818 1_545
Ho2 Sn0 3.331818 1_556
Ag0 Sn0 2.739949 1_555
Ag0 Sn2 2.795355 1_666
Ag0 Sn2 2.795355 1_655
Ag0 Sn3 2.822521 1_555
Ag0 Ag2 2.934136 1_655
Ag0 Ho2 3.269786 1_565
Ag0 Ho2 3.269786 1_554
Ag0 Ag1 3.392702 1_654
Ag0 Ag1 3.392702 1_665
Ag0 Ho0 3.411845 1_655
Ag0 Ho1 3.779755 1_655
Ag0 Ho1 3.779755 1_666
Ag1 Sn1 2.739949 1_555
Ag1 Sn3 2.795355 1_456
Ag1 Sn3 2.795355 1_445
Ag1 Sn2 2.822521 1_556
Ag1 Ag3 2.934136 1_455
Ag1 Ho0 3.269786 1_556
Ag1 Ho0 3.269786 1_545
Ag1 Ho2 3.411845 1_455
Ag1 Ho1 3.779755 1_566
Ag1 Ho1 3.779755 1_555
Ag2 Sn1 2.739949 1_555
Ag2 Sn2 2.795355 1_555
Ag2 Sn2 2.795355 1_566
Ag2 Sn3 2.822521 1_556
Ag2 Ho2 3.269786 1_566
Ag2 Ho2 3.269786 1_555
Ag2 Ag3 3.392702 1_566
Ag2 Ag3 3.392702 1_555
Ag2 Ho0 3.411845 1_555
Ag2 Ho1 3.779755 1_555
Ag2 Ho1 3.779755 1_566
Ag3 Sn0 2.739949 1_555
Ag3 Sn3 2.795355 1_545
Ag3 Sn3 2.795355 1_556
Ag3 Sn2 2.822521 1_555
Ag3 Ho0 3.269786 1_544
Ag3 Ho0 3.269786 1_555
Ag3 Ho2 3.411845 1_555
Ag3 Ho1 3.779755 1_655
Ag3 Ho1 3.779755 1_666
Sn0 Sn1 2.918966 1_554
