# generated using pymatgen
data_VAsO5
_symmetry_space_group_name_H-M   'P 1'
_cell_length_a   6.36823680
_cell_length_b   7.34543326
_cell_length_c   7.69564790
_cell_angle_alpha   90.00000000
_cell_angle_beta   90.00000000
_cell_angle_gamma   90.00000000
_symmetry_Int_Tables_number   1
_chemical_formula_structural   VAsO5
_chemical_formula_sum   'V4 As4 O20'
_cell_volume   359.98284949
_cell_formula_units_Z   4
loop_
 _symmetry_equiv_pos_site_id
 _symmetry_equiv_pos_as_xyz
  1  'x, y, z'
loop_
 _atom_site_type_symbol
 _atom_site_label
 _atom_site_symmetry_multiplicity
 _atom_site_fract_x
 _atom_site_fract_y
 _atom_site_fract_z
 _atom_site_occupancy
  V  V0  1  0.25000000  0.73936602  0.16811173  1
  V  V1  1  0.75000000  0.23936602  0.33188827  1
  V  V2  1  0.25000000  0.76063398  0.66811173  1
  V  V3  1  0.75000000  0.26063398  0.83188827  1
  As  As0  1  0.75000000  0.62045811  0.12020400  1
  As  As1  1  0.25000000  0.12045811  0.37979600  1
  As  As2  1  0.75000000  0.87954189  0.62020400  1
  As  As3  1  0.25000000  0.37954189  0.87979600  1
  O  O0  1  0.25000000  0.50249573  0.06558125  1
  O  O1  1  0.75000000  0.17614566  0.13287467  1
  O  O2  1  0.54034076  0.75966234  0.11986766  1
  O  O3  1  0.95965924  0.75966234  0.11986766  1
  O  O4  1  0.25000000  0.99044376  0.19627827  1
  O  O5  1  0.75000000  0.49044376  0.30372173  1
  O  O6  1  0.04034076  0.25966234  0.38013234  1
  O  O7  1  0.45965924  0.25966234  0.38013234  1
  O  O8  1  0.25000000  0.67614566  0.36712533  1
  O  O9  1  0.75000000  0.00249573  0.43441875  1
  O  O10  1  0.25000000  0.99750427  0.56558125  1
  O  O11  1  0.75000000  0.32385434  0.63287467  1
  O  O12  1  0.54034076  0.74033766  0.61986766  1
  O  O13  1  0.95965924  0.74033766  0.61986766  1
  O  O14  1  0.25000000  0.50955624  0.69627827  1
  O  O15  1  0.75000000  0.00955624  0.80372173  1
  O  O16  1  0.04034076  0.24033766  0.88013234  1
  O  O17  1  0.45965924  0.24033766  0.88013234  1
  O  O18  1  0.25000000  0.82385434  0.86712533  1
  O  O19  1  0.75000000  0.49750427  0.93441875  1
loop_
_geom_bond_atom_site_label_1
_geom_bond_atom_site_label_2
_geom_bond_distance
_geom_bond_site_symmetry_2
As0 O3 1.681724 1_555
As0 O2 1.681724 1_555
As0 O19 1.691103 1_554
As0 O5 1.704877 1_555
As1 O7 1.681724 1_555
As1 O6 1.681724 1_555
As1 O10 1.691103 1_545
As1 O4 1.704877 1_545
As2 O13 1.681724 1_555
As2 O12 1.681724 1_555
As2 O9 1.691103 1_565
As2 O15 1.704877 1_565
As3 O17 1.681724 1_555
As3 O16 1.681724 1_555
As3 O0 1.691103 1_556
As3 O14 1.704877 1_555
O0 V0 1.910467 1_555
O1 V1 1.600394 1_555
O1 V3 2.397984 1_554
O2 V0 1.891749 1_555
O3 V0 1.891749 1_655
O4 V0 1.856969 1_555
O5 V1 1.856969 1_555
O6 V1 1.891749 1_455
O7 V1 1.891749 1_555
O8 V0 1.600394 1_555
O8 V2 2.397984 1_555
O9 V1 1.910467 1_555
O10 V2 1.910467 1_555
O11 V3 1.600394 1_555
O11 V1 2.397984 1_555
O12 V2 1.891749 1_555
O13 V2 1.891749 1_655
O14 V2 1.856969 1_555
O15 V3 1.856969 1_555
O16 V3 1.891749 1_455
O17 V3 1.891749 1_555
O18 V2 1.600394 1_555
O18 V0 2.397984 1_556
O19 V3 1.910467 1_555
