# generated using pymatgen
data_Sm2Ti3(BiO6)2
_symmetry_space_group_name_H-M   'P 1'
_cell_length_a   16.76935264
_cell_length_b   16.76935264
_cell_length_c   16.76935264
_cell_angle_alpha   166.90949088
_cell_angle_beta   166.90949088
_cell_angle_gamma   18.55349318
_symmetry_Int_Tables_number   1
_chemical_formula_structural   Sm2Ti3(BiO6)2
_chemical_formula_sum   'Sm2 Ti3 Bi2 O12'
_cell_volume   241.88514574
_cell_formula_units_Z   1
loop_
 _symmetry_equiv_pos_site_id
 _symmetry_equiv_pos_as_xyz
  1  'x, y, z'
loop_
 _atom_site_type_symbol
 _atom_site_label
 _atom_site_symmetry_multiplicity
 _atom_site_fract_x
 _atom_site_fract_y
 _atom_site_fract_z
 _atom_site_occupancy
  Sm  Sm0  1  0.06582400  0.06582400  0.00000000  1
  Sm  Sm1  1  0.93417600  0.93417600  0.00000000  1
  Ti  Ti0  1  0.37299100  0.37299100  0.00000000  1
  Ti  Ti1  1  0.50000000  0.50000000  0.00000000  1
  Ti  Ti2  1  0.62700900  0.62700900  0.00000000  1
  Bi  Bi0  1  0.21096600  0.21096600  0.00000000  1
  Bi  Bi1  1  0.78903400  0.78903400  0.00000000  1
  O  O0  1  0.68115000  0.68115000  0.00000000  1
  O  O1  1  0.61349200  0.11349200  0.50000000  1
  O  O2  1  0.75000000  0.25000000  0.50000000  1
  O  O3  1  0.25000000  0.75000000  0.50000000  1
  O  O4  1  0.50000000  0.00000000  0.50000000  1
  O  O5  1  0.11349200  0.61349200  0.50000000  1
  O  O6  1  0.38650800  0.88650800  0.50000000  1
  O  O7  1  0.88650800  0.38650800  0.50000000  1
  O  O8  1  0.31885000  0.31885000  0.00000000  1
  O  O9  1  0.55863400  0.55863400  0.00000000  1
  O  O10  1  0.44136600  0.44136600  0.00000000  1
  O  O11  1  0.00000000  0.50000000  0.50000000  1
loop_
_geom_bond_atom_site_label_1
_geom_bond_atom_site_label_2
_geom_bond_distance
_geom_bond_site_symmetry_2
Bi0 O2 2.307202 1_454
Bi0 O3 2.307202 1_555
Bi0 O3 2.307202 1_544
Bi0 O2 2.307202 1_555
Bi1 O2 2.307202 1_554
Bi1 O3 2.307202 1_655
Bi1 O2 2.307202 1_565
Bi1 O3 2.307202 1_554
O0 Ti2 1.792070 1_555
O1 Ti2 1.963167 1_545
O1 Ti2 1.963167 1_556
O1 Sm0 2.478577 1_656
O1 Sm0 2.478577 1_555
O4 Ti1 1.911504 1_545
O4 Ti1 1.911504 1_556
O4 Sm1 2.898435 1_445
O4 Sm1 2.898435 1_546
O4 Sm0 2.898435 1_555
O4 Sm0 2.898435 1_656
O5 Ti2 1.963167 1_556
O5 Ti2 1.963167 1_455
O5 Sm0 2.478577 1_566
O5 Sm0 2.478577 1_555
O6 Ti0 1.963167 1_566
O6 Ti0 1.963167 1_555
O6 Sm1 2.478577 1_556
O6 Sm1 2.478577 1_455
O7 Ti0 1.963167 1_555
O7 Ti0 1.963167 1_656
O7 Sm1 2.478577 1_545
O7 Sm1 2.478577 1_556
O8 Ti0 1.792070 1_555
O9 Ti1 1.940789 1_555
O9 Ti2 2.263217 1_555
O9 Sm0 2.713731 1_554
O9 Sm0 2.713731 1_655
O9 Sm0 2.713731 1_666
O9 Sm0 2.713731 1_565
O10 Ti1 1.940789 1_555
O10 Ti0 2.263217 1_555
O10 Sm1 2.713731 1_455
O10 Sm1 2.713731 1_556
O10 Sm1 2.713731 1_444
O10 Sm1 2.713731 1_545
O11 Ti1 1.911504 1_455
O11 Ti1 1.911504 1_556
O11 Sm0 2.898435 1_555
O11 Sm1 2.898435 1_456
O11 Sm1 2.898435 1_445
O11 Sm0 2.898435 1_566
