# generated using pymatgen
data_LaH6Au3C6(N2O)3
_symmetry_space_group_name_H-M   'P 1'
_cell_length_a   6.80452431
_cell_length_b   6.80452431
_cell_length_c   18.79716500
_cell_angle_alpha   90.00000000
_cell_angle_beta   90.00000000
_cell_angle_gamma   120.00000299
_symmetry_Int_Tables_number   1
_chemical_formula_structural   LaH6Au3C6(N2O)3
_chemical_formula_sum   'La2 H12 Au6 C12 N12 O6'
_cell_volume   753.73470416
_cell_formula_units_Z   2
loop_
 _symmetry_equiv_pos_site_id
 _symmetry_equiv_pos_as_xyz
  1  'x, y, z'
loop_
 _atom_site_type_symbol
 _atom_site_label
 _atom_site_symmetry_multiplicity
 _atom_site_fract_x
 _atom_site_fract_y
 _atom_site_fract_z
 _atom_site_occupancy
  La  La0  1  0.00000000  0.00000000  0.25000000  1
  La  La1  1  0.00000000  0.00000000  0.75000000  1
  H  H0  1  0.46021300  0.00000000  0.29161500  1
  H  H1  1  0.46021300  0.46021300  0.79161500  1
  H  H2  1  0.00000000  0.53978700  0.79161500  1
  H  H3  1  0.00000000  0.46021300  0.29161500  1
  H  H4  1  0.53978700  0.53978700  0.29161500  1
  H  H5  1  0.46021300  0.00000000  0.20838500  1
  H  H6  1  0.53978700  0.53978700  0.20838500  1
  H  H7  1  0.53978700  0.00000000  0.79161500  1
  H  H8  1  0.00000000  0.46021300  0.20838500  1
  H  H9  1  0.00000000  0.53978700  0.70838500  1
  H  H10  1  0.53978700  0.00000000  0.70838500  1
  H  H11  1  0.46021300  0.46021300  0.70838500  1
  Au  Au0  1  0.50000000  0.50000000  0.00000000  1
  Au  Au1  1  0.00000000  0.50000000  0.50000000  1
  Au  Au2  1  0.50000000  0.00000000  0.50000000  1
  Au  Au3  1  0.50000000  0.00000000  0.00000000  1
  Au  Au4  1  0.00000000  0.50000000  0.00000000  1
  Au  Au5  1  0.50000000  0.50000000  0.50000000  1
  C  C0  1  0.35946000  0.35946000  0.09311200  1
  C  C1  1  0.00000000  0.35946000  0.59311200  1
  C  C2  1  0.35946000  0.00000000  0.59311200  1
  C  C3  1  0.64054000  0.00000000  0.09311200  1
  C  C4  1  0.00000000  0.64054000  0.09311200  1
  C  C5  1  0.00000000  0.64054000  0.40688800  1
  C  C6  1  0.64054000  0.00000000  0.40688800  1
  C  C7  1  0.64054000  0.64054000  0.59311200  1
  C  C8  1  0.35946000  0.35946000  0.40688800  1
  C  C9  1  0.64054000  0.64054000  0.90688800  1
  C  C10  1  0.00000000  0.35946000  0.90688800  1
  C  C11  1  0.35946000  0.00000000  0.90688800  1
  N  N0  1  0.27551500  0.27551500  0.14767500  1
  N  N1  1  0.00000000  0.27551500  0.64767500  1
  N  N2  1  0.27551500  0.00000000  0.64767500  1
  N  N3  1  0.72448500  0.00000000  0.14767500  1
  N  N4  1  0.00000000  0.72448500  0.14767500  1
  N  N5  1  0.00000000  0.72448500  0.35232500  1
  N  N6  1  0.72448500  0.00000000  0.35232500  1
  N  N7  1  0.72448500  0.72448500  0.64767500  1
  N  N8  1  0.27551500  0.27551500  0.35232500  1
  N  N9  1  0.72448500  0.72448500  0.85232500  1
  N  N10  1  0.00000000  0.27551500  0.85232500  1
  N  N11  1  0.27551500  0.00000000  0.85232500  1
  O  O0  1  0.37351100  0.00000000  0.25000000  1
  O  O1  1  0.37351100  0.37351100  0.75000000  1
  O  O2  1  0.00000000  0.62648900  0.75000000  1
  O  O3  1  0.00000000  0.37351100  0.25000000  1
  O  O4  1  0.62648900  0.62648900  0.25000000  1
  O  O5  1  0.62648900  0.00000000  0.75000000  1
loop_
_geom_bond_atom_site_label_1
_geom_bond_atom_site_label_2
_geom_bond_distance
_geom_bond_site_symmetry_2
La0 O4 2.541565 1_445
La0 O0 2.541565 1_555
La0 O3 2.541565 1_555
La0 N0 2.685931 1_555
La0 N8 2.685931 1_555
La0 N5 2.685931 1_545
La0 N6 2.685931 1_455
La0 N4 2.685931 1_545
La0 N3 2.685931 1_455
La1 O1 2.541565 1_555
La1 O2 2.541565 1_545
La1 O5 2.541565 1_455
La1 N9 2.685931 1_445
La1 N7 2.685931 1_445
La1 N1 2.685931 1_555
La1 N10 2.685931 1_555
La1 N2 2.685931 1_555
La1 N11 2.685931 1_555
H0 O0 0.979778 1_555
H1 O1 0.979778 1_555
H2 O2 0.979778 1_555
H3 O3 0.979778 1_555
H4 O4 0.979778 1_555
H5 O0 0.979778 1_555
H6 O4 0.979778 1_555
H7 O5 0.979778 1_555
H8 O3 0.979778 1_555
H9 O2 0.979778 1_555
H10 O5 0.979778 1_555
H11 O1 0.979778 1_555
Au0 C0 1.994460 1_555
Au0 C9 1.994460 1_554
Au1 C1 1.994460 1_555
Au1 C5 1.994460 1_555
Au2 C2 1.994460 1_555
Au2 C6 1.994460 1_555
Au3 C3 1.994460 1_555
Au3 C11 1.994460 1_554
Au4 C4 1.994460 1_555
Au4 C10 1.994460 1_554
Au5 C7 1.994460 1_555
Au5 C8 1.994460 1_555
C0 N0 1.173964 1_555
C1 N1 1.173964 1_555
C2 N2 1.173964 1_555
C3 N3 1.173964 1_555
C4 N4 1.173964 1_555
C5 N5 1.173964 1_555
C6 N6 1.173964 1_555
C7 N7 1.173964 1_555
C8 N8 1.173964 1_555
C9 N9 1.173964 1_555
C10 N10 1.173964 1_555
C11 N11 1.173964 1_555
