# generated using pymatgen
data_Sm7V(Se2O)4
_symmetry_space_group_name_H-M   'P 1'
_cell_length_a   3.99021800
_cell_length_b   14.33389100
_cell_length_c   15.74942700
_cell_angle_alpha   90.00000000
_cell_angle_beta   90.00000000
_cell_angle_gamma   90.00000000
_symmetry_Int_Tables_number   1
_chemical_formula_structural   Sm7V(Se2O)4
_chemical_formula_sum   'Sm14 V2 Se16 O8'
_cell_volume   900.79398765
_cell_formula_units_Z   2
loop_
 _symmetry_equiv_pos_site_id
 _symmetry_equiv_pos_as_xyz
  1  'x, y, z'
loop_
 _atom_site_type_symbol
 _atom_site_label
 _atom_site_symmetry_multiplicity
 _atom_site_fract_x
 _atom_site_fract_y
 _atom_site_fract_z
 _atom_site_occupancy
  Sm  Sm0  1  0.50000000  0.50748900  0.31031300  1
  Sm  Sm1  1  0.50000000  0.49251100  0.68968700  1
  Sm  Sm2  1  0.50000000  0.00748900  0.18968700  1
  Sm  Sm3  1  0.50000000  0.99251100  0.81031300  1
  Sm  Sm4  1  0.50000000  0.71959700  0.16465700  1
  Sm  Sm5  1  0.50000000  0.28040300  0.83534300  1
  Sm  Sm6  1  0.50000000  0.21959700  0.33534300  1
  Sm  Sm7  1  0.50000000  0.78040300  0.66465700  1
  Sm  Sm8  1  0.00000000  0.70954000  0.38111800  1
  Sm  Sm9  1  0.00000000  0.29046000  0.61888200  1
  Sm  Sm10  1  0.00000000  0.20954000  0.11888200  1
  Sm  Sm11  1  0.00000000  0.79046000  0.88111800  1
  Sm  Sm12  1  0.00000000  0.50000000  0.00000000  1
  Sm  Sm13  1  0.00000000  0.00000000  0.50000000  1
  V  V0  1  0.00000000  0.50000000  0.50000000  1
  V  V1  1  0.00000000  0.00000000  0.00000000  1
  Se  Se0  1  0.50000000  0.85453100  0.47134200  1
  Se  Se1  1  0.50000000  0.14546900  0.52865800  1
  Se  Se2  1  0.50000000  0.35453100  0.02865800  1
  Se  Se3  1  0.50000000  0.64546900  0.97134200  1
  Se  Se4  1  0.50000000  0.88020400  0.03285400  1
  Se  Se5  1  0.50000000  0.11979600  0.96714600  1
  Se  Se6  1  0.50000000  0.38020400  0.46714600  1
  Se  Se7  1  0.50000000  0.61979600  0.53285400  1
  Se  Se8  1  0.00000000  0.56986300  0.17160100  1
  Se  Se9  1  0.00000000  0.43013700  0.82839900  1
  Se  Se10  1  0.00000000  0.06986300  0.32839900  1
  Se  Se11  1  0.00000000  0.93013700  0.67160100  1
  Se  Se12  1  0.00000000  0.84411900  0.23554100  1
  Se  Se13  1  0.00000000  0.15588100  0.76445900  1
  Se  Se14  1  0.00000000  0.34411900  0.26445900  1
  Se  Se15  1  0.00000000  0.65588100  0.73554100  1
  O  O0  1  0.50000000  0.67281600  0.31169700  1
  O  O1  1  0.50000000  0.32718400  0.68830300  1
  O  O2  1  0.50000000  0.17281600  0.18830300  1
  O  O3  1  0.50000000  0.82718400  0.81169700  1
  O  O4  1  0.00000000  0.54567100  0.38038900  1
  O  O5  1  0.00000000  0.45432900  0.61961100  1
  O  O6  1  0.00000000  0.04567100  0.11961100  1
  O  O7  1  0.00000000  0.95432900  0.88038900  1
loop_
_geom_bond_atom_site_label_1
_geom_bond_atom_site_label_2
_geom_bond_distance
_geom_bond_site_symmetry_2
Se0 Sm13 2.920954 1_565
Se0 Sm13 2.920954 1_665
Se0 Sm8 3.212305 1_555
Se0 Sm8 3.212305 1_655
Se0 Sm7 3.224684 1_555
Se1 Sm13 2.920954 1_555
Se1 Sm13 2.920954 1_655
Se1 Sm9 3.212305 1_655
Se1 Sm9 3.212305 1_555
Se1 Sm6 3.224684 1_555
Se2 Sm12 2.920954 1_555
Se2 Sm12 2.920954 1_655
Se2 Sm10 3.212305 1_555
Se2 Sm10 3.212305 1_655
Se2 Sm5 3.224684 1_554
Se3 Sm12 2.920954 1_556
Se3 Sm12 2.920954 1_656
Se3 Sm11 3.212305 1_655
Se3 Sm11 3.212305 1_555
Se3 Sm4 3.224684 1_556
Se4 V1 2.682681 1_565
Se4 V1 2.682681 1_665
Se4 Sm2 3.070799 1_565
Se4 Sm4 3.099808 1_555
Se4 Sm11 3.368407 1_654
Se4 Sm11 3.368407 1_554
Se5 V1 2.682681 1_656
Se5 V1 2.682681 1_556
Se5 Sm3 3.070799 1_545
Se5 Sm5 3.099808 1_555
Se5 Sm10 3.368407 1_556
Se5 Sm10 3.368407 1_656
Se6 V0 2.682681 1_655
Se6 V0 2.682681 1_555
Se6 Sm0 3.070799 1_555
Se6 Sm6 3.099808 1_555
Se6 Sm9 3.368407 1_555
Se6 Sm9 3.368407 1_655
Se7 V0 2.682681 1_655
Se7 V0 2.682681 1_555
Se7 Sm1 3.070799 1_555
Se7 Sm7 3.099808 1_555
Se7 Sm8 3.368407 1_655
Se7 Sm8 3.368407 1_555
Se8 Sm12 2.882180 1_555
Se8 Sm4 2.932388 1_455
Se8 Sm4 2.932388 1_555
Se8 Sm0 3.090701 1_555
Se8 Sm0 3.090701 1_455
Se9 Sm12 2.882180 1_556
Se9 Sm5 2.932388 1_555
Se9 Sm5 2.932388 1_455
Se9 Sm1 3.090701 1_555
Se9 Sm1 3.090701 1_455
Se10 Sm13 2.882180 1_555
Se10 Sm6 2.932388 1_555
Se10 Sm6 2.932388 1_455
Se10 Sm2 3.090701 1_455
Se10 Sm2 3.090701 1_555
Se11 Sm13 2.882180 1_565
Se11 Sm7 2.932388 1_455
Se11 Sm7 2.932388 1_555
Se11 Sm3 3.090701 1_455
Se11 Sm3 3.090701 1_555
Se12 Sm4 2.900445 1_555
Se12 Sm4 2.900445 1_455
Se12 Sm8 2.996318 1_555
Se12 Sm2 3.160013 1_465
Se12 Sm2 3.160013 1_565
Se13 Sm5 2.900445 1_555
Se13 Sm5 2.900445 1_455
Se13 Sm9 2.996318 1_555
Se13 Sm3 3.160013 1_545
Se13 Sm3 3.160013 1_445
Se14 Sm6 2.900445 1_455
Se14 Sm6 2.900445 1_555
Se14 Sm10 2.996318 1_555
Se14 Sm0 3.160013 1_455
Se14 Sm0 3.160013 1_555
Se15 Sm7 2.900445 1_455
Se15 Sm7 2.900445 1_555
Se15 Sm11 2.996318 1_555
Se15 Sm1 3.160013 1_555
Se15 Sm1 3.160013 1_455
O0 Sm8 2.335155 1_555
O0 Sm8 2.335155 1_655
O0 Sm0 2.369879 1_555
O0 Sm4 2.410924 1_555
O1 Sm9 2.335155 1_655
O1 Sm9 2.335155 1_555
O1 Sm1 2.369879 1_555
O1 Sm5 2.410924 1_555
O2 Sm10 2.335155 1_555
O2 Sm10 2.335155 1_655
O2 Sm2 2.369879 1_555
O2 Sm6 2.410924 1_555
O3 Sm11 2.335155 1_655
O3 Sm11 2.335155 1_555
O3 Sm3 2.369879 1_555
O3 Sm7 2.410924 1_555
O4 V0 1.994311 1_555
O4 Sm0 2.344793 1_555
O4 Sm0 2.344793 1_455
O4 Sm8 2.348908 1_555
O5 V0 1.994311 1_555
O5 Sm1 2.344793 1_555
O5 Sm1 2.344793 1_455
O5 Sm9 2.348908 1_555
O6 V1 1.994311 1_555
O6 Sm2 2.344793 1_455
O6 Sm2 2.344793 1_555
O6 Sm10 2.348908 1_555
O7 V1 1.994311 1_566
O7 Sm3 2.344793 1_555
O7 Sm3 2.344793 1_455
O7 Sm11 2.348908 1_555
