# generated using pymatgen
data_KHoCoSi2O7
_symmetry_space_group_name_H-M   'P 1'
_cell_length_a   6.50545634
_cell_length_b   6.50545634
_cell_length_c   8.41453339
_cell_angle_alpha   75.31471687
_cell_angle_beta   75.31471687
_cell_angle_gamma   100.76741777
_symmetry_Int_Tables_number   1
_chemical_formula_structural   KHoCoSi2O7
_chemical_formula_sum   'K2 Ho2 Co2 Si4 O14'
_cell_volume   321.00414326
_cell_formula_units_Z   2
loop_
 _symmetry_equiv_pos_site_id
 _symmetry_equiv_pos_as_xyz
  1  'x, y, z'
loop_
 _atom_site_type_symbol
 _atom_site_label
 _atom_site_symmetry_multiplicity
 _atom_site_fract_x
 _atom_site_fract_y
 _atom_site_fract_z
 _atom_site_occupancy
  K  K0  1  0.20594500  0.36550200  0.21670000  1
  K  K1  1  0.63449800  0.79405500  0.78330000  1
  Ho  Ho0  1  0.71238200  0.73213000  0.28007100  1
  Ho  Ho1  1  0.26787000  0.28761800  0.71992900  1
  Co  Co0  1  0.71733600  0.28266400  0.00000000  1
  Co  Co1  1  0.19483800  0.80516200  0.50000000  1
  Si  Si0  1  0.29620900  0.93186900  0.11656600  1
  Si  Si1  1  0.64820600  0.13307600  0.39049000  1
  Si  Si2  1  0.86692400  0.35179400  0.60951000  1
  Si  Si3  1  0.06813100  0.70379100  0.88343400  1
  O  O0  1  0.47108400  0.78971100  0.14859100  1
  O  O1  1  0.15265900  0.84734100  0.00000000  1
  O  O2  1  0.81208700  0.58613600  0.00884000  1
  O  O3  1  0.09661200  0.89183800  0.29613800  1
  O  O4  1  0.41386400  0.18791300  0.99116000  1
  O  O5  1  0.79243100  0.12696300  0.20084400  1
  O  O6  1  0.51495000  0.86722400  0.47545700  1
  O  O7  1  0.50220700  0.31029400  0.39763800  1
  O  O8  1  0.13277600  0.48505000  0.52454300  1
  O  O9  1  0.68970600  0.49779300  0.60236200  1
  O  O10  1  0.82329500  0.17670500  0.50000000  1
  O  O11  1  0.87303700  0.20756900  0.79915600  1
  O  O12  1  0.10816200  0.90338800  0.70386200  1
  O  O13  1  0.21028900  0.52891600  0.85140900  1
loop_
_geom_bond_atom_site_label_1
_geom_bond_atom_site_label_2
_geom_bond_distance
_geom_bond_site_symmetry_2
K0 O4 2.675814 1_554
K0 O7 2.762382 1_555
K0 O10 2.784293 1_455
K0 O0 2.799590 1_555
K0 O8 2.841819 1_555
K0 O3 2.888503 1_545
K0 O5 2.896496 1_455
K0 O13 2.977730 1_554
K1 O2 2.675814 1_556
K1 O9 2.762382 1_555
K1 O10 2.784293 1_565
K1 O13 2.799590 1_555
K1 O6 2.841819 1_555
K1 O12 2.888503 1_655
K1 O11 2.896496 1_565
K1 O0 2.977730 1_556
Ho0 O0 2.172224 1_555
Ho0 O6 2.282267 1_555
Ho0 O5 2.401908 1_565
Ho0 O3 2.572528 1_655
Ho0 O7 2.629587 1_555
Ho0 O2 2.666497 1_555
Ho0 O9 2.705054 1_555
Ho0 O1 3.033027 1_655
Ho1 O13 2.172224 1_555
Ho1 O8 2.282267 1_555
Ho1 O11 2.401908 1_455
Ho1 O12 2.572528 1_545
Ho1 O9 2.629587 1_555
Ho1 O4 2.666497 1_555
Ho1 O7 2.705054 1_555
Ho1 O1 3.033027 1_546
Co0 O5 1.963755 1_555
Co0 O11 1.963755 1_554
Co0 O4 1.981427 1_554
Co0 O2 1.981427 1_555
Co1 O12 1.966943 1_555
Co1 O3 1.966943 1_555
Co1 O6 1.991953 1_555
Co1 O8 1.991953 1_555
O0 Si0 1.626129 1_555
O1 Si3 1.637848 1_554
O1 Si0 1.637848 1_555
O2 Si3 1.642194 1_654
O3 Si0 1.648143 1_555
O4 Si0 1.642194 1_546
O5 Si1 1.647848 1_555
O6 Si1 1.659041 1_565
O7 Si1 1.627942 1_555
O8 Si2 1.659041 1_455
O9 Si2 1.627942 1_555
O10 Si2 1.664646 1_555
O10 Si1 1.664646 1_555
O11 Si2 1.647848 1_555
O12 Si3 1.648143 1_555
O13 Si3 1.626129 1_555
