# generated using pymatgen
data_Sr11(Ge2N3)2
_symmetry_space_group_name_H-M   'P 1'
_cell_length_a   7.32712000
_cell_length_b   7.32712000
_cell_length_c   18.85333100
_cell_angle_alpha   90.00000000
_cell_angle_beta   90.00000000
_cell_angle_gamma   90.00000000
_symmetry_Int_Tables_number   1
_chemical_formula_structural   Sr11(Ge2N3)2
_chemical_formula_sum   'Sr22 Ge8 N12'
_cell_volume   1012.17288963
_cell_formula_units_Z   2
loop_
 _symmetry_equiv_pos_site_id
 _symmetry_equiv_pos_as_xyz
  1  'x, y, z'
loop_
 _atom_site_type_symbol
 _atom_site_label
 _atom_site_symmetry_multiplicity
 _atom_site_fract_x
 _atom_site_fract_y
 _atom_site_fract_z
 _atom_site_occupancy
  Sr  Sr0  1  0.82792900  0.67207100  0.59904800  1
  Sr  Sr1  1  0.22113100  0.27886900  0.12983700  1
  Sr  Sr2  1  0.00000000  0.00000000  0.72616000  1
  Sr  Sr3  1  0.77886900  0.27886900  0.87016300  1
  Sr  Sr4  1  0.32792900  0.82792900  0.59904800  1
  Sr  Sr5  1  0.67207100  0.82792900  0.40095200  1
  Sr  Sr6  1  0.17207100  0.32792900  0.59904800  1
  Sr  Sr7  1  0.72113100  0.22113100  0.12983700  1
  Sr  Sr8  1  0.77886900  0.72113100  0.12983700  1
  Sr  Sr9  1  0.27886900  0.22113100  0.87016300  1
  Sr  Sr10  1  0.17207100  0.67207100  0.40095200  1
  Sr  Sr11  1  0.27886900  0.77886900  0.12983700  1
  Sr  Sr12  1  0.00000000  0.00000000  0.00000000  1
  Sr  Sr13  1  0.50000000  0.50000000  0.72616000  1
  Sr  Sr14  1  0.67207100  0.17207100  0.59904800  1
  Sr  Sr15  1  0.32792900  0.17207100  0.40095200  1
  Sr  Sr16  1  0.22113100  0.72113100  0.87016300  1
  Sr  Sr17  1  0.82792900  0.32792900  0.40095200  1
  Sr  Sr18  1  0.72113100  0.77886900  0.87016300  1
  Sr  Sr19  1  0.50000000  0.50000000  0.00000000  1
  Sr  Sr20  1  0.00000000  0.00000000  0.27384000  1
  Sr  Sr21  1  0.50000000  0.50000000  0.27384000  1
  Ge  Ge0  1  0.00000000  0.50000000  0.25840200  1
  Ge  Ge1  1  0.50000000  0.00000000  0.74159800  1
  Ge  Ge2  1  0.00000000  0.50000000  0.74159800  1
  Ge  Ge3  1  0.00000000  0.50000000  0.00000000  1
  Ge  Ge4  1  0.50000000  0.50000000  0.50000000  1
  Ge  Ge5  1  0.50000000  0.00000000  0.25840200  1
  Ge  Ge6  1  0.00000000  0.00000000  0.50000000  1
  Ge  Ge7  1  0.50000000  0.00000000  0.00000000  1
  N  N0  1  0.50000000  0.50000000  0.85603500  1
  N  N1  1  0.00000000  0.00000000  0.85603500  1
  N  N2  1  0.64455700  0.85544300  0.68299300  1
  N  N3  1  0.35544300  0.85544300  0.31700700  1
  N  N4  1  0.14455700  0.64455700  0.68299300  1
  N  N5  1  0.50000000  0.50000000  0.14396500  1
  N  N6  1  0.14455700  0.35544300  0.31700700  1
  N  N7  1  0.64455700  0.14455700  0.31700700  1
  N  N8  1  0.85544300  0.35544300  0.68299300  1
  N  N9  1  0.35544300  0.14455700  0.68299300  1
  N  N10  1  0.85544300  0.64455700  0.31700700  1
  N  N11  1  0.00000000  0.00000000  0.14396500  1
loop_
_geom_bond_atom_site_label_1
_geom_bond_atom_site_label_2
_geom_bond_distance
_geom_bond_site_symmetry_2
Ge0 N10 1.861331 1_455
Ge0 N6 1.861331 1_555
Ge1 N2 1.861331 1_545
Ge1 N9 1.861331 1_555
Ge2 N4 1.861331 1_555
Ge2 N8 1.861331 1_455
Ge3 Sr1 3.352978 1_555
Ge3 Sr8 3.352978 1_455
Ge3 Sr16 3.352978 1_554
Ge3 Sr3 3.352978 1_454
Ge3 Sr19 3.663560 1_455
Ge3 Sr12 3.663560 1_555
Ge3 Sr12 3.663560 1_565
Ge3 Sr19 3.663560 1_555
Ge3 Sr11 3.787113 1_555
Ge3 Sr7 3.787113 1_455
Ge3 Sr18 3.787113 1_454
Ge3 Sr9 3.787113 1_554
Ge4 Sr0 3.293939 1_555
Ge4 Sr5 3.293939 1_555
Ge4 Sr4 3.293939 1_555
Ge4 Sr17 3.293939 1_555
Ge4 Sr14 3.293939 1_555
Ge4 Sr10 3.293939 1_555
Ge4 Sr6 3.293939 1_555
Ge4 Sr15 3.293939 1_555
Ge5 N7 1.861331 1_555
Ge5 N3 1.861331 1_545
Ge6 Sr15 3.293939 1_555
Ge6 Sr6 3.293939 1_555
Ge6 Sr4 3.293939 1_545
Ge6 Sr17 3.293939 1_455
Ge6 Sr10 3.293939 1_545
Ge6 Sr14 3.293939 1_455
Ge6 Sr5 3.293939 1_445
Ge6 Sr0 3.293939 1_445
Ge7 Sr7 3.352978 1_555
Ge7 Sr11 3.352978 1_545
Ge7 Sr9 3.352978 1_554
Ge7 Sr18 3.352978 1_544
Ge7 Sr12 3.663560 1_555
Ge7 Sr19 3.663560 1_545
Ge7 Sr19 3.663560 1_555
Ge7 Sr12 3.663560 1_655
Ge7 Sr8 3.787113 1_545
Ge7 Sr1 3.787113 1_555
Ge7 Sr3 3.787113 1_554
Ge7 Sr16 3.787113 1_544
N0 Sr13 2.448576 1_555
N0 Sr18 2.621311 1_555
N0 Sr3 2.621311 1_555
N0 Sr16 2.621311 1_555
N0 Sr9 2.621311 1_555
N0 Sr19 2.714220 1_556
N1 Sr2 2.448576 1_555
N1 Sr9 2.621311 1_555
N1 Sr16 2.621311 1_545
N1 Sr3 2.621311 1_455
N1 Sr18 2.621311 1_445
N1 Sr12 2.714220 1_556
N2 Sr0 2.472897 1_555
N2 Sr4 2.815611 1_555
N2 Sr14 2.815611 1_565
N2 Sr13 2.926940 1_555
N2 Sr2 2.926940 1_665
N3 Sr10 2.472897 1_555
N3 Sr5 2.815611 1_555
N3 Sr15 2.815611 1_565
N3 Sr21 2.926940 1_555
N3 Sr20 2.926940 1_565
N4 Sr4 2.472897 1_555
N4 Sr6 2.815611 1_555
N4 Sr0 2.815611 1_455
N4 Sr13 2.926940 1_555
N4 Sr2 2.926940 1_565
N5 Sr21 2.448576 1_555
N5 Sr8 2.621311 1_555
N5 Sr11 2.621311 1_555
N5 Sr7 2.621311 1_555
N5 Sr1 2.621311 1_555
N5 Sr19 2.714220 1_555
N6 Sr15 2.472897 1_555
N6 Sr10 2.815611 1_555
N6 Sr17 2.815611 1_455
N6 Sr21 2.926940 1_555
N6 Sr20 2.926940 1_555
N7 Sr17 2.472897 1_555
N7 Sr15 2.815611 1_555
N7 Sr5 2.815611 1_545
N7 Sr21 2.926940 1_555
N7 Sr20 2.926940 1_655
N8 Sr14 2.472897 1_555
N8 Sr0 2.815611 1_555
N8 Sr6 2.815611 1_655
N8 Sr13 2.926940 1_555
N8 Sr2 2.926940 1_655
N9 Sr6 2.472897 1_555
N9 Sr14 2.815611 1_555
N9 Sr4 2.815611 1_545
N9 Sr2 2.926940 1_555
N9 Sr13 2.926940 1_555
N10 Sr5 2.472897 1_555
N10 Sr17 2.815611 1_555
N10 Sr10 2.815611 1_655
N10 Sr21 2.926940 1_555
N10 Sr20 2.926940 1_665
N11 Sr20 2.448576 1_555
N11 Sr7 2.621311 1_455
N11 Sr1 2.621311 1_555
N11 Sr8 2.621311 1_445
N11 Sr11 2.621311 1_545
N11 Sr12 2.714220 1_555
