# generated using pymatgen
data_LaMo2O5
_symmetry_space_group_name_H-M   'P 1'
_cell_length_a   8.89433743
_cell_length_b   8.89433743
_cell_length_c   18.96769400
_cell_angle_alpha   90.00000000
_cell_angle_beta   90.00000000
_cell_angle_gamma   119.99999576
_symmetry_Int_Tables_number   1
_chemical_formula_structural   LaMo2O5
_chemical_formula_sum   'La12 Mo24 O60'
_cell_volume   1299.48834291
_cell_formula_units_Z   12
loop_
 _symmetry_equiv_pos_site_id
 _symmetry_equiv_pos_as_xyz
  1  'x, y, z'
loop_
 _atom_site_type_symbol
 _atom_site_label
 _atom_site_symmetry_multiplicity
 _atom_site_fract_x
 _atom_site_fract_y
 _atom_site_fract_z
 _atom_site_occupancy
  La  La0  1  0.33333300  0.66666700  0.99872400  1
  La  La1  1  0.66666700  0.33333300  0.49872400  1
  La  La2  1  0.00902200  0.50451100  0.34860600  1
  La  La3  1  0.50451100  0.00902200  0.84860600  1
  La  La4  1  0.49548900  0.50451100  0.34860600  1
  La  La5  1  0.99097800  0.49548900  0.84860600  1
  La  La6  1  0.00000000  0.00000000  0.27301200  1
  La  La7  1  0.50451100  0.49548900  0.84860600  1
  La  La8  1  0.66666700  0.33333300  0.01229400  1
  La  La9  1  0.33333300  0.66666700  0.51229400  1
  La  La10  1  0.00000000  0.00000000  0.77301100  1
  La  La11  1  0.49548900  0.99097800  0.34860600  1
  Mo  Mo0  1  0.89238200  0.78476300  0.05291200  1
  Mo  Mo1  1  0.78494200  0.21505800  0.68375500  1
  Mo  Mo2  1  0.10619500  0.89380500  0.94000400  1
  Mo  Mo3  1  0.44873400  0.89746800  0.67584700  1
  Mo  Mo4  1  0.55126600  0.44873400  0.17584700  1
  Mo  Mo5  1  0.89380500  0.78760900  0.44000400  1
  Mo  Mo6  1  0.21505800  0.78494200  0.18375500  1
  Mo  Mo7  1  0.78494200  0.56988500  0.68375500  1
  Mo  Mo8  1  0.55126600  0.10253200  0.17584700  1
  Mo  Mo9  1  0.56988500  0.78494200  0.18375500  1
  Mo  Mo10  1  0.21505800  0.43011500  0.18375500  1
  Mo  Mo11  1  0.89746800  0.44873400  0.17584700  1
  Mo  Mo12  1  0.89380500  0.10619500  0.44000400  1
  Mo  Mo13  1  0.10761800  0.21523700  0.55291200  1
  Mo  Mo14  1  0.21523700  0.10761800  0.05291200  1
  Mo  Mo15  1  0.21239100  0.10619500  0.44000400  1
  Mo  Mo16  1  0.43011500  0.21505800  0.68375500  1
  Mo  Mo17  1  0.44873400  0.55126600  0.67584700  1
  Mo  Mo18  1  0.10253200  0.55126600  0.67584700  1
  Mo  Mo19  1  0.10761800  0.89238200  0.55291200  1
  Mo  Mo20  1  0.10619500  0.21239100  0.94000400  1
  Mo  Mo21  1  0.78476300  0.89238200  0.55291200  1
  Mo  Mo22  1  0.78760900  0.89380500  0.94000400  1
  Mo  Mo23  1  0.89238200  0.10761800  0.05291200  1
  O  O0  1  0.10235600  0.89764400  0.36982300  1
  O  O1  1  0.89764400  0.10235600  0.86982300  1
  O  O2  1  0.56573800  0.43426200  0.61688400  1
  O  O3  1  0.00472200  0.66850100  0.24617100  1
  O  O4  1  0.20471300  0.10235600  0.86982300  1
  O  O5  1  0.10506400  0.21012700  0.11760800  1
  O  O6  1  0.67513100  0.66688200  0.99145700  1
  O  O7  1  0.33622100  0.33149900  0.74617100  1
  O  O8  1  0.10506400  0.89493600  0.11760800  1
  O  O9  1  0.22539200  0.45078300  0.60972000  1
  O  O10  1  0.89493600  0.78987300  0.61760800  1
  O  O11  1  0.77460800  0.22539200  0.10972000  1
  O  O12  1  0.45398500  0.22699300  0.39081500  1
  O  O13  1  0.66666700  0.33333300  0.23354000  1
  O  O14  1  0.77300700  0.22699300  0.39081500  1
  O  O15  1  0.78987300  0.89493600  0.11760800  1
  O  O16  1  0.66666700  0.33333300  0.89350500  1
  O  O17  1  0.66688200  0.67513100  0.49145700  1
  O  O18  1  0.22699300  0.77300700  0.89081500  1
  O  O19  1  0.33149900  0.33622100  0.24617100  1
  O  O20  1  0.32486900  0.33311800  0.49145700  1
  O  O21  1  0.22539200  0.77460800  0.60972000  1
  O  O22  1  0.79528700  0.89764400  0.36982300  1
  O  O23  1  0.54921700  0.77460800  0.60972000  1
  O  O24  1  0.67513100  0.00824900  0.99145700  1
  O  O25  1  0.66850100  0.66377900  0.74617100  1
  O  O26  1  0.66688200  0.99175100  0.49145700  1
  O  O27  1  0.33149900  0.99527800  0.24617100  1
  O  O28  1  0.33622100  0.00472200  0.74617100  1
  O  O29  1  0.66666700  0.33333300  0.74123800  1
  O  O30  1  0.21012700  0.10506400  0.61760800  1
  O  O31  1  0.33333300  0.66666700  0.24123800  1
  O  O32  1  0.33333300  0.66666700  0.39350500  1
  O  O33  1  0.89764400  0.79528700  0.86982300  1
  O  O34  1  0.43426200  0.56573800  0.11688400  1
  O  O35  1  0.32486900  0.99175100  0.49145700  1
  O  O36  1  0.13147600  0.56573800  0.11688400  1
  O  O37  1  0.77460800  0.54921700  0.10972000  1
  O  O38  1  0.99175100  0.32486900  0.99145700  1
  O  O39  1  0.33333300  0.66666700  0.73354000  1
  O  O40  1  0.10235600  0.20471300  0.36982300  1
  O  O41  1  0.99527800  0.33149900  0.74617100  1
  O  O42  1  0.86852400  0.43426200  0.61688400  1
  O  O43  1  0.00472200  0.33622100  0.24617100  1
  O  O44  1  0.45078300  0.22539200  0.10972000  1
  O  O45  1  0.33311800  0.32486900  0.99145700  1
  O  O46  1  0.89493600  0.10506400  0.61760800  1
  O  O47  1  0.54601500  0.77300700  0.89081500  1
  O  O48  1  0.66377900  0.66850100  0.24617100  1
  O  O49  1  0.00824900  0.33311800  0.49145700  1
  O  O50  1  0.77300700  0.54601500  0.39081500  1
  O  O51  1  0.33311800  0.00824900  0.99145700  1
  O  O52  1  0.22699300  0.45398500  0.89081500  1
  O  O53  1  0.66850100  0.00472200  0.74617100  1
  O  O54  1  0.66377900  0.99527800  0.24617100  1
  O  O55  1  0.99175100  0.66688200  0.99145700  1
  O  O56  1  0.56573800  0.13147600  0.61688400  1
  O  O57  1  0.00824900  0.67513100  0.49145700  1
  O  O58  1  0.43426200  0.86852400  0.11688400  1
  O  O59  1  0.99527800  0.66377900  0.74617100  1
loop_
_geom_bond_atom_site_label_1
_geom_bond_atom_site_label_2
_geom_bond_distance
_geom_bond_site_symmetry_2
La0 O18 2.621655 1_555
La0 O47 2.621665 1_555
La0 O52 2.621665 1_555
La0 O58 2.727752 1_556
La0 O36 2.727752 1_556
La0 O34 2.727757 1_556
La0 O55 3.042226 1_455
La0 O51 3.042226 1_565
La0 O38 3.042231 1_455
La0 O24 3.042231 1_565
La0 O45 3.042235 1_555
La0 O6 3.042235 1_555
La1 O14 2.621655 1_555
La1 O12 2.621665 1_555
La1 O50 2.621665 1_555
La1 O42 2.727752 1_555
La1 O56 2.727752 1_555
La1 O2 2.727757 1_555
La1 O26 3.042226 1_545
La1 O49 3.042226 1_655
La1 O57 3.042231 1_655
La1 O35 3.042231 1_545
La1 O20 3.042235 1_555
La1 O17 3.042235 1_555
La2 O14 2.441059 1_455
La2 O50 2.441064 1_455
La2 O3 2.441267 1_555
La2 O43 2.441267 1_555
La2 O32 2.639255 1_555
La3 O18 2.441059 1_545
La3 O47 2.441064 1_545
La3 O53 2.441267 1_555
La3 O28 2.441267 1_555
La3 O16 2.639255 1_555
La4 O50 2.441055 1_555
La4 O12 2.441055 1_555
La4 O48 2.441268 1_555
La4 O19 2.441268 1_555
La4 O32 2.639262 1_555
La5 O18 2.441059 1_655
La5 O52 2.441064 1_655
La5 O41 2.441267 1_555
La5 O59 2.441267 1_555
La5 O16 2.639255 1_555
La6 O0 2.420403 1_545
La6 O40 2.420408 1_555
La6 O22 2.420408 1_445
La6 O3 3.013010 1_545
La6 O27 3.013010 1_545
La6 O43 3.013010 1_555
La6 O54 3.013010 1_445
La6 O48 3.013011 1_445
La6 O19 3.013011 1_555
La7 O47 2.441055 1_555
La7 O52 2.441055 1_555
La7 O25 2.441268 1_555
La7 O7 2.441268 1_555
La7 O16 2.639262 1_555
La8 O16 2.253153 1_554
La8 O11 2.485975 1_555
La8 O37 2.485986 1_555
La8 O44 2.485986 1_555
La8 O24 2.956311 1_554
La8 O38 2.956311 1_554
La8 O51 2.956316 1_554
La8 O55 2.956316 1_554
La8 O6 2.956320 1_554
La8 O45 2.956320 1_554
La9 O32 2.253153 1_555
La9 O21 2.485975 1_555
La9 O23 2.485986 1_555
La9 O9 2.485986 1_555
La9 O57 2.956311 1_555
La9 O35 2.956311 1_555
La9 O49 2.956316 1_555
La9 O26 2.956316 1_555
La9 O17 2.956320 1_555
La9 O20 2.956320 1_555
La10 O1 2.420418 1_455
La10 O33 2.420423 1_445
La10 O4 2.420423 1_555
La10 O41 3.013007 1_455
La10 O53 3.013007 1_455
La10 O28 3.013007 1_555
La10 O59 3.013007 1_445
La10 O7 3.013007 1_555
La10 O25 3.013007 1_445
La11 O14 2.441059 1_565
La11 O12 2.441064 1_565
La11 O27 2.441267 1_555
La11 O54 2.441267 1_555
La11 O32 2.639255 1_555
Mo0 O55 2.041044 1_554
Mo0 O6 2.041051 1_554
Mo0 O15 2.047149 1_555
Mo0 O8 2.047149 1_655
Mo0 O37 2.110188 1_555
Mo1 O41 2.009119 1_555
Mo1 O53 2.009119 1_555
Mo1 O46 2.108439 1_555
Mo1 O29 2.123386 1_555
Mo1 O42 2.124451 1_555
Mo1 O56 2.124451 1_555
Mo2 O55 2.001946 1_455
Mo2 O51 2.001946 1_565
Mo2 O18 2.081734 1_555
Mo2 O33 2.086910 1_455
Mo2 O4 2.086910 1_565
Mo3 O39 2.087596 1_555
Mo3 O56 2.121274 1_565
Mo3 O21 2.131358 1_555
Mo3 O23 2.131364 1_555
Mo3 O28 2.155314 1_565
Mo3 O53 2.155314 1_565
Mo4 O13 2.087603 1_555
Mo4 O34 2.121274 1_555
Mo4 O44 2.131358 1_555
Mo4 O37 2.131358 1_555
Mo4 O48 2.155314 1_555
Mo4 O19 2.155314 1_555
Mo5 O57 2.001939 1_655
Mo5 O17 2.001946 1_555
Mo5 O50 2.081720 1_555
Mo5 O0 2.086911 1_655
Mo5 O22 2.086922 1_555
Mo6 O27 2.009119 1_555
Mo6 O3 2.009119 1_555
Mo6 O8 2.108439 1_555
Mo6 O31 2.123386 1_555
Mo6 O58 2.124451 1_555
Mo6 O36 2.124451 1_555
Mo7 O25 2.009113 1_555
Mo7 O59 2.009120 1_555
Mo7 O10 2.108439 1_555
Mo7 O29 2.123400 1_555
Mo7 O2 2.124452 1_555
Mo7 O42 2.124458 1_555
Mo8 O13 2.087596 1_555
Mo8 O58 2.121274 1_545
Mo8 O11 2.131358 1_555
Mo8 O44 2.131364 1_555
Mo8 O54 2.155314 1_545
Mo8 O27 2.155314 1_545
Mo9 O48 2.009113 1_555
Mo9 O54 2.009120 1_555
Mo9 O15 2.108439 1_555
Mo9 O31 2.123400 1_555
Mo9 O34 2.124452 1_555
Mo9 O58 2.124458 1_555
Mo10 O19 2.009113 1_555
Mo10 O43 2.009120 1_555
Mo10 O5 2.108439 1_555
Mo10 O31 2.123400 1_555
Mo10 O34 2.124452 1_555
Mo10 O36 2.124458 1_555
Mo11 O13 2.087596 1_555
Mo11 O36 2.121274 1_655
Mo11 O11 2.131358 1_555
Mo11 O37 2.131364 1_555
Mo11 O43 2.155314 1_655
Mo11 O3 2.155314 1_655
Mo12 O26 2.001946 1_545
Mo12 O49 2.001946 1_655
Mo12 O14 2.081734 1_555
Mo12 O40 2.086910 1_655
Mo12 O22 2.086910 1_545
Mo13 O49 2.041044 1_555
Mo13 O20 2.041051 1_555
Mo13 O30 2.047149 1_555
Mo13 O46 2.047149 1_455
Mo13 O9 2.110188 1_555
Mo14 O51 2.041044 1_554
Mo14 O45 2.041051 1_554
Mo14 O5 2.047149 1_555
Mo14 O8 2.047149 1_545
Mo14 O44 2.110188 1_555
Mo15 O35 2.001939 1_545
Mo15 O20 2.001946 1_555
Mo15 O12 2.081720 1_555
Mo15 O0 2.086911 1_545
Mo15 O40 2.086922 1_555
Mo16 O7 2.009113 1_555
Mo16 O28 2.009120 1_555
Mo16 O30 2.108439 1_555
Mo16 O29 2.123400 1_555
Mo16 O2 2.124452 1_555
Mo16 O56 2.124458 1_555
Mo17 O39 2.087603 1_555
Mo17 O2 2.121274 1_555
Mo17 O23 2.131358 1_555
Mo17 O9 2.131358 1_555
Mo17 O25 2.155314 1_555
Mo17 O7 2.155314 1_555
Mo18 O39 2.087596 1_555
Mo18 O42 2.121274 1_455
Mo18 O21 2.131358 1_555
Mo18 O9 2.131364 1_555
Mo18 O59 2.155314 1_455
Mo18 O41 2.155314 1_455
Mo19 O57 2.041051 1_555
Mo19 O35 2.041051 1_555
Mo19 O30 2.047149 1_565
Mo19 O10 2.047149 1_455
Mo19 O21 2.110201 1_555
Mo20 O38 2.001939 1_455
Mo20 O45 2.001946 1_555
Mo20 O52 2.081720 1_555
Mo20 O1 2.086911 1_455
Mo20 O4 2.086922 1_555
Mo21 O26 2.041044 1_555
Mo21 O17 2.041051 1_555
Mo21 O10 2.047149 1_555
Mo21 O46 2.047149 1_565
Mo21 O23 2.110188 1_555
Mo22 O24 2.001939 1_565
Mo22 O6 2.001946 1_555
Mo22 O47 2.081720 1_555
Mo22 O1 2.086911 1_565
Mo22 O33 2.086922 1_555
Mo23 O24 2.041051 1_554
Mo23 O38 2.041051 1_554
Mo23 O5 2.047149 1_655
Mo23 O15 2.047149 1_545
Mo23 O11 2.110201 1_555
