# generated using pymatgen
data_Na2TeO3
_symmetry_space_group_name_H-M   'P 1'
_cell_length_a   10.18601968
_cell_length_b   4.91811685
_cell_length_c   6.79890354
_cell_angle_alpha   87.96527999
_cell_angle_beta   90.00000000
_cell_angle_gamma   90.00000000
_symmetry_Int_Tables_number   1
_chemical_formula_structural   Na2TeO3
_chemical_formula_sum   'Na8 Te4 O12'
_cell_volume   340.38336147
_cell_formula_units_Z   4
loop_
 _symmetry_equiv_pos_site_id
 _symmetry_equiv_pos_as_xyz
  1  'x, y, z'
loop_
 _atom_site_type_symbol
 _atom_site_label
 _atom_site_symmetry_multiplicity
 _atom_site_fract_x
 _atom_site_fract_y
 _atom_site_fract_z
 _atom_site_occupancy
  Na  Na0  1  0.41223981  0.75447700  0.14050731  1
  Na  Na1  1  0.91223981  0.24552300  0.35949269  1
  Na  Na2  1  0.58776019  0.24552300  0.85949269  1
  Na  Na3  1  0.08776019  0.75447700  0.64050731  1
  Na  Na4  1  0.24546671  0.25590959  0.40478463  1
  Na  Na5  1  0.74546671  0.74409041  0.09521537  1
  Na  Na6  1  0.75453329  0.74409041  0.59521537  1
  Na  Na7  1  0.25453329  0.25590959  0.90478463  1
  Te  Te0  1  0.08186911  0.74031051  0.16518948  1
  Te  Te1  1  0.58186911  0.25968949  0.33481052  1
  Te  Te2  1  0.91813089  0.25968949  0.83481052  1
  Te  Te3  1  0.41813089  0.74031051  0.66518948  1
  O  O0  1  0.21670147  0.77140245  0.35397532  1
  O  O1  1  0.71670147  0.22859755  0.14602468  1
  O  O2  1  0.78329853  0.22859755  0.64602468  1
  O  O3  1  0.28329853  0.77140245  0.85397532  1
  O  O4  1  0.43633404  0.24901322  0.16413224  1
  O  O5  1  0.93633404  0.75098678  0.33586776  1
  O  O6  1  0.56366596  0.75098678  0.83586776  1
  O  O7  1  0.06366596  0.24901322  0.66413224  1
  O  O8  1  0.09452265  0.35983582  0.14868320  1
  O  O9  1  0.59452265  0.64016418  0.35131680  1
  O  O10  1  0.90547735  0.64016418  0.85131680  1
  O  O11  1  0.40547735  0.35983582  0.64868320  1
loop_
_geom_bond_atom_site_label_1
_geom_bond_atom_site_label_2
_geom_bond_distance
_geom_bond_site_symmetry_2
Na0 O3 2.348518 1_554
Na0 O9 2.400124 1_555
Na0 O4 2.455465 1_565
Na0 O0 2.467594 1_555
Na0 O4 2.497504 1_555
Na0 O6 2.582991 1_554
Na1 O2 2.348518 1_555
Na1 O8 2.400124 1_655
Na1 O5 2.455465 1_545
Na1 O1 2.467594 1_555
Na1 O5 2.497504 1_555
Na1 O7 2.582991 1_655
Na2 O1 2.348518 1_556
Na2 O11 2.400124 1_555
Na2 O6 2.455465 1_545
Na2 O2 2.467594 1_555
Na2 O6 2.497504 1_555
Na2 O4 2.582991 1_556
Na3 O0 2.348518 1_555
Na3 O10 2.400124 1_455
Na3 O7 2.455465 1_565
Na3 O3 2.467594 1_555
Na3 O7 2.497504 1_555
Na3 O5 2.582991 1_455
Na4 O8 2.365126 1_555
Na4 O11 2.393257 1_555
Na4 O0 2.437555 1_545
Na4 O4 2.542043 1_555
Na4 O7 2.556427 1_555
Na4 O0 2.563300 1_555
Na5 O9 2.365126 1_555
Na5 O10 2.393257 1_554
Na5 O1 2.437555 1_565
Na5 O5 2.542043 1_555
Na5 O6 2.556427 1_554
Na5 O1 2.563300 1_555
Na6 O10 2.365126 1_555
Na6 O9 2.393257 1_555
Na6 O2 2.437555 1_565
Na6 O6 2.542043 1_555
Na6 O5 2.556427 1_555
Na6 O2 2.563300 1_555
Na7 O11 2.365126 1_555
Na7 O8 2.393257 1_556
Na7 O3 2.437555 1_545
Na7 O7 2.542043 1_555
Na7 O4 2.556427 1_556
Na7 O3 2.563300 1_555
O0 Te0 1.889716 1_555
O1 Te1 1.889716 1_555
O2 Te2 1.889716 1_555
O3 Te3 1.889716 1_555
O4 Te1 1.884476 1_555
O5 Te0 1.884476 1_655
O6 Te3 1.884476 1_555
O7 Te2 1.884476 1_455
O8 Te0 1.882971 1_555
O9 Te1 1.882971 1_555
O10 Te2 1.882971 1_555
O11 Te3 1.882971 1_555
