# generated using pymatgen
data_Li2V6O13
_symmetry_space_group_name_H-M   'P 1'
_cell_length_a   3.70729802
_cell_length_b   6.33581658
_cell_length_c   11.15885046
_cell_angle_alpha   100.62840282
_cell_angle_beta   90.00238219
_cell_angle_gamma   106.99977748
_symmetry_Int_Tables_number   1
_chemical_formula_structural   Li2V6O13
_chemical_formula_sum   'Li2 V6 O13'
_cell_volume   245.94837458
_cell_formula_units_Z   1
loop_
 _symmetry_equiv_pos_site_id
 _symmetry_equiv_pos_as_xyz
  1  'x, y, z'
loop_
 _atom_site_type_symbol
 _atom_site_label
 _atom_site_symmetry_multiplicity
 _atom_site_fract_x
 _atom_site_fract_y
 _atom_site_fract_z
 _atom_site_occupancy
  Li  Li0  1  0.09183500  0.18340800  0.13664100  1
  Li  Li1  1  0.90817000  0.81659400  0.86335900  1
  V  V0  1  0.64577000  0.29139700  0.94926400  1
  V  V1  1  0.35422800  0.70860700  0.05074100  1
  V  V2  1  0.40764200  0.81579600  0.39142800  1
  V  V3  1  0.29468800  0.58939100  0.63549400  1
  V  V4  1  0.59235800  0.18419700  0.60857100  1
  V  V5  1  0.70531100  0.41060600  0.36450400  1
  O  O0  1  0.43340500  0.86671800  0.57152700  1
  O  O1  1  0.81805300  0.63619300  0.99285700  1
  O  O2  1  0.75796600  0.51588800  0.59355100  1
  O  O3  1  0.12350100  0.24680300  0.62089200  1
  O  O4  1  0.39020400  0.78078600  0.20623100  1
  O  O5  1  0.65339400  0.30644100  0.21384000  1
  O  O6  1  0.60979500  0.21922000  0.79377200  1
  O  O7  1  0.18195000  0.36381600  0.00714700  1
  O  O8  1  0.50000000  0.00000300  0.99999900  1
  O  O9  1  0.24203300  0.48410700  0.40644800  1
  O  O10  1  0.56659200  0.13327400  0.42847000  1
  O  O11  1  0.34660700  0.69355700  0.78616000  1
  O  O12  1  0.87649900  0.75319500  0.37910400  1
loop_
_geom_bond_atom_site_label_1
_geom_bond_atom_site_label_2
_geom_bond_distance
_geom_bond_site_symmetry_2
Li0 O7 1.972863 1_555
Li0 O5 2.117798 1_455
Li0 O5 2.118282 1_555
Li0 O8 2.517883 1_554
Li0 O8 2.518853 1_454
Li1 O1 1.972871 1_555
Li1 O11 2.117798 1_655
Li1 O11 2.118295 1_555
Li1 O8 2.517898 1_565
Li1 O8 2.518830 1_665
O0 V4 1.887954 1_565
O0 V3 1.948245 1_555
O0 V2 1.973547 1_555
O1 V1 1.983988 1_656
O1 V1 1.984089 1_556
O1 V0 2.051584 1_555
O2 V3 1.942388 1_655
O2 V3 1.942457 1_555
O2 V4 2.048648 1_555
O2 V5 2.512092 1_555
O3 V4 1.891233 1_455
O3 V4 1.892252 1_555
O3 V3 2.050548 1_555
O4 V1 1.705602 1_555
O4 V2 2.036337 1_555
O5 V5 1.677965 1_555
O6 V0 1.705623 1_555
O6 V4 2.036374 1_555
O7 V0 1.983998 1_454
O7 V0 1.984082 1_554
O7 V1 2.051555 1_555
O8 V0 1.955319 1_555
O8 V1 1.955367 1_546
O9 V5 1.942391 1_455
O9 V5 1.942453 1_555
O9 V2 2.048636 1_555
O9 V3 2.512082 1_555
O10 V2 1.887947 1_545
O10 V5 1.948267 1_555
O10 V4 1.973569 1_555
O11 V3 1.677987 1_555
O12 V2 1.891237 1_655
O12 V2 1.892238 1_555
O12 V5 2.050557 1_555
