# generated using pymatgen
data_Gd2Zr2O7
_symmetry_space_group_name_H-M   'P 1'
_cell_length_a   7.45535489
_cell_length_b   7.45535489
_cell_length_c   7.45535489
_cell_angle_alpha   60.00000000
_cell_angle_beta   60.00000000
_cell_angle_gamma   60.00000000
_symmetry_Int_Tables_number   1
_chemical_formula_structural   Gd2Zr2O7
_chemical_formula_sum   'Gd4 Zr4 O14'
_cell_volume   293.01507684
_cell_formula_units_Z   2
loop_
 _symmetry_equiv_pos_site_id
 _symmetry_equiv_pos_as_xyz
  1  'x, y, z'
loop_
 _atom_site_type_symbol
 _atom_site_label
 _atom_site_symmetry_multiplicity
 _atom_site_fract_x
 _atom_site_fract_y
 _atom_site_fract_z
 _atom_site_occupancy
  Gd  Gd0  1  0.62500000  0.12500000  0.12500000  1
  Gd  Gd1  1  0.12500000  0.62500000  0.12500000  1
  Gd  Gd2  1  0.12500000  0.12500000  0.62500000  1
  Gd  Gd3  1  0.12500000  0.12500000  0.12500000  1
  Zr  Zr0  1  0.12500000  0.62500000  0.62500000  1
  Zr  Zr1  1  0.62500000  0.12500000  0.62500000  1
  Zr  Zr2  1  0.62500000  0.62500000  0.12500000  1
  Zr  Zr3  1  0.62500000  0.62500000  0.62500000  1
  O  O0  1  0.74876900  0.74876900  0.25123100  1
  O  O1  1  0.25123100  0.25123100  0.74876900  1
  O  O2  1  0.74876900  0.25123100  0.74876900  1
  O  O3  1  0.25123100  0.74876900  0.25123100  1
  O  O4  1  0.25123100  0.74876900  0.74876900  1
  O  O5  1  0.74876900  0.25123100  0.25123100  1
  O  O6  1  0.50123100  0.50123100  0.99876900  1
  O  O7  1  0.99876900  0.99876900  0.50123100  1
  O  O8  1  0.50123100  0.99876900  0.50123100  1
  O  O9  1  0.99876900  0.50123100  0.99876900  1
  O  O10  1  0.99876900  0.50123100  0.50123100  1
  O  O11  1  0.50123100  0.99876900  0.99876900  1
  O  O12  1  0.50000000  0.50000000  0.50000000  1
  O  O13  1  0.75000000  0.75000000  0.75000000  1
loop_
_geom_bond_atom_site_label_1
_geom_bond_atom_site_label_2
_geom_bond_distance
_geom_bond_site_symmetry_2
Gd0 O5 2.290245 1_555
Gd0 O11 2.290245 1_544
Gd0 O6 2.290245 1_554
Gd0 O8 2.290245 1_545
Gd0 O2 2.290245 1_554
Gd0 O0 2.290245 1_545
Gd1 O0 2.290245 1_455
Gd1 O3 2.290245 1_555
Gd1 O9 2.290245 1_454
Gd1 O6 2.290245 1_554
Gd1 O4 2.290245 1_554
Gd1 O10 2.290245 1_455
Gd2 O4 2.290245 1_545
Gd2 O8 2.290245 1_545
Gd2 O1 2.290245 1_555
Gd2 O2 2.290245 1_455
Gd2 O7 2.290245 1_445
Gd2 O10 2.290245 1_455
Gd3 O11 2.290245 1_544
Gd3 O9 2.290245 1_454
Gd3 O1 2.290245 1_554
Gd3 O5 2.290245 1_455
Gd3 O3 2.290245 1_545
Gd3 O7 2.290245 1_445
O0 Zr2 2.275258 1_555
O0 Zr3 2.275258 1_555
O1 Zr1 2.275258 1_555
O1 Zr0 2.275258 1_555
O2 Zr1 2.275258 1_555
O2 Zr3 2.275258 1_555
O3 Zr2 2.275258 1_555
O3 Zr0 2.275258 1_555
O4 Zr3 2.275258 1_555
O4 Zr0 2.275258 1_555
O5 Zr1 2.275258 1_555
O5 Zr2 2.275258 1_555
O6 Zr3 2.275258 1_555
O6 Zr2 2.275258 1_556
O7 Zr0 2.275258 1_655
O7 Zr1 2.275258 1_565
O8 Zr1 2.275258 1_565
O8 Zr3 2.275258 1_555
O9 Zr2 2.275258 1_556
O9 Zr0 2.275258 1_655
O10 Zr3 2.275258 1_555
O10 Zr0 2.275258 1_655
O11 Zr1 2.275258 1_565
O11 Zr2 2.275258 1_556
O12 Zr0 2.282727 1_555
O12 Zr1 2.282727 1_555
O12 Zr2 2.282727 1_555
O12 Zr3 2.282727 1_555
O13 Zr2 2.282727 1_556
O13 Zr1 2.282727 1_565
O13 Zr0 2.282727 1_655
O13 Zr3 2.282727 1_555
