# generated using pymatgen
data_CsSbCl6
_symmetry_space_group_name_H-M   'P 1'
_cell_length_a   6.54971428
_cell_length_b   6.99861553
_cell_length_c   12.49613518
_cell_angle_alpha   101.10227184
_cell_angle_beta   90.00000000
_cell_angle_gamma   117.89995605
_symmetry_Int_Tables_number   1
_chemical_formula_structural   CsSbCl6
_chemical_formula_sum   'Cs2 Sb2 Cl12'
_cell_volume   494.06690873
_cell_formula_units_Z   2
loop_
 _symmetry_equiv_pos_site_id
 _symmetry_equiv_pos_as_xyz
  1  'x, y, z'
loop_
 _atom_site_type_symbol
 _atom_site_label
 _atom_site_symmetry_multiplicity
 _atom_site_fract_x
 _atom_site_fract_y
 _atom_site_fract_z
 _atom_site_occupancy
  Cs  Cs0  1  0.12893120  0.49980908  0.00095541  1
  Cs  Cs1  1  0.37087788  0.49980908  0.50095541  1
  Sb  Sb0  1  0.24869004  0.99904314  0.75091014  1
  Sb  Sb1  1  0.75035310  0.99904314  0.25091014  1
  Cl  Cl0  1  0.54553408  0.34242675  0.85871268  1
  Cl  Cl1  1  0.79689267  0.34242675  0.35871268  1
  Cl  Cl2  1  0.61815393  0.07160894  0.09214621  1
  Cl  Cl3  1  0.95189624  0.65543698  0.64320625  1
  Cl  Cl4  1  0.45345501  0.07160894  0.59214621  1
  Cl  Cl5  1  0.88253595  0.92637190  0.40941242  1
  Cl  Cl6  1  0.14223102  0.18701056  0.20911187  1
  Cl  Cl7  1  0.04477854  0.18701056  0.70911187  1
  Cl  Cl8  1  0.35826769  0.81129264  0.29264503  1
  Cl  Cl9  1  0.04383796  0.92637190  0.90941242  1
  Cl  Cl10  1  0.45302495  0.81129264  0.79264503  1
  Cl  Cl11  1  0.70354174  0.65543698  0.14320625  1
loop_
_geom_bond_atom_site_label_1
_geom_bond_atom_site_label_2
_geom_bond_distance
_geom_bond_site_symmetry_2
Cl0 Sb0 2.398061 1_545
Cl0 Cs0 3.725155 1_556
Cl0 Cs0 3.778960 1_656
Cl1 Sb1 2.398061 1_545
Cl1 Cs1 3.725155 1_655
Cl1 Cs1 3.778960 1_555
Cl2 Sb1 2.396501 1_545
Cl2 Cs0 3.661144 1_655
Cl2 Cs0 3.718027 1_545
Cl3 Sb0 2.398297 1_655
Cl3 Cs1 3.732077 1_655
Cl3 Cs1 3.768730 1_555
Cl4 Sb0 2.396501 1_545
Cl4 Cs1 3.661144 1_555
Cl4 Cs1 3.718026 1_545
Cl5 Sb1 2.394011 1_555
Cl5 Cs1 3.661134 1_555
Cl5 Cs1 3.723460 1_665
Cl6 Sb1 2.386622 1_445
Cl6 Cs0 3.733290 1_555
Cl6 Cs1 3.767268 1_555
Cl7 Sb0 2.386627 1_545
Cl7 Cs1 3.733293 1_555
Cl7 Cs0 3.767267 1_556
Cl8 Sb1 2.387340 1_555
Cl8 Cs1 3.726785 1_555
Cl8 Cs0 3.764285 1_555
Cl9 Sb0 2.394005 1_555
Cl9 Cs0 3.661126 1_556
Cl9 Cs0 3.723464 1_566
Cl10 Sb0 2.387340 1_555
Cl10 Cs0 3.726785 1_556
Cl10 Cs1 3.764285 1_555
Cl11 Sb1 2.398299 1_555
Cl11 Cs0 3.732083 1_555
Cl11 Cs0 3.768724 1_655
