# generated using pymatgen
data_Si2P2Pt
_symmetry_space_group_name_H-M   'P 1'
_cell_length_a   9.61417400
_cell_length_b   6.06686500
_cell_length_c   12.12094186
_cell_angle_alpha   77.01730731
_cell_angle_beta   90.00000000
_cell_angle_gamma   90.00000000
_symmetry_Int_Tables_number   1
_chemical_formula_structural   Si2P2Pt
_chemical_formula_sum   'Si16 P16 Pt8'
_cell_volume   688.91695940
_cell_formula_units_Z   8
loop_
 _symmetry_equiv_pos_site_id
 _symmetry_equiv_pos_as_xyz
  1  'x, y, z'
loop_
 _atom_site_type_symbol
 _atom_site_label
 _atom_site_symmetry_multiplicity
 _atom_site_fract_x
 _atom_site_fract_y
 _atom_site_fract_z
 _atom_site_occupancy
  Si  Si0  1  0.55767300  0.96054300  0.17833100  1
  Si  Si1  1  0.05767300  0.03945700  0.82166900  1
  Si  Si2  1  0.20951700  0.55018300  0.82975100  1
  Si  Si3  1  0.70951700  0.44981700  0.17024900  1
  Si  Si4  1  0.68538200  0.74898300  0.43730500  1
  Si  Si5  1  0.18538200  0.25101700  0.56269500  1
  Si  Si6  1  0.91395400  0.74526100  0.91594500  1
  Si  Si7  1  0.41395400  0.25473900  0.08405500  1
  Si  Si8  1  0.43268400  0.75843800  0.57451100  1
  Si  Si9  1  0.93268400  0.24156200  0.42548900  1
  Si  Si10  1  0.36287700  0.03388100  0.66781200  1
  Si  Si11  1  0.86287700  0.96611900  0.33218800  1
  Si  Si12  1  0.23501700  0.55800700  0.63880300  1
  Si  Si13  1  0.73501700  0.44199300  0.36119700  1
  Si  Si14  1  0.57430900  0.45288800  0.83666000  1
  Si  Si15  1  0.07430900  0.54711200  0.16334000  1
  P  P0  1  0.70989200  0.92852800  0.86086700  1
  P  P1  1  0.20989200  0.07147200  0.13913300  1
  P  P2  1  0.24976500  0.76556800  0.06887300  1
  P  P3  1  0.74976500  0.23443200  0.93112700  1
  P  P4  1  0.56376000  0.23861000  0.60977200  1
  P  P5  1  0.06376000  0.76139000  0.39022800  1
  P  P6  1  0.40057100  0.54891500  0.32466500  1
  P  P7  1  0.90057100  0.45108500  0.67533500  1
  P  P8  1  0.72769200  0.95416700  0.67094400  1
  P  P9  1  0.22769200  0.04583300  0.32905600  1
  P  P10  1  0.03642800  0.74843600  0.58080700  1
  P  P11  1  0.53642800  0.25156400  0.41919300  1
  P  P12  1  0.37060200  0.27137600  0.89664900  1
  P  P13  1  0.87060200  0.72862400  0.10335100  1
  P  P14  1  0.02184400  0.26555000  0.07311200  1
  P  P15  1  0.52184400  0.73445000  0.92688800  1
  Pt  Pt0  1  0.95992100  0.09323600  0.62695600  1
  Pt  Pt1  1  0.45992100  0.90676400  0.37304400  1
  Pt  Pt2  1  0.65520600  0.58675000  0.64344400  1
  Pt  Pt3  1  0.15520600  0.41325000  0.35655600  1
  Pt  Pt4  1  0.29751600  0.90984700  0.86348100  1
  Pt  Pt5  1  0.79751600  0.09015300  0.13651900  1
  Pt  Pt6  1  0.48010900  0.60910000  0.12814700  1
  Pt  Pt7  1  0.98010900  0.39090000  0.87185300  1
loop_
_geom_bond_atom_site_label_1
_geom_bond_atom_site_label_2
_geom_bond_distance
_geom_bond_site_symmetry_2
Si0 Si7 2.341853 1_565
Si1 Si6 2.341853 1_445
Si10 Si8 2.317534 1_545
Si10 Si5 2.348751 1_555
Si11 Si9 2.317534 1_565
Si11 Si4 2.348751 1_555
Si12 Si8 2.296013 1_555
Si12 Si5 2.306401 1_555
Si12 Si2 2.317275 1_555
Si13 Si9 2.296013 1_555
Si13 Si4 2.306401 1_555
Si13 Si3 2.317275 1_555
P0 P15 2.207259 1_555
P0 P3 2.242015 1_565
P0 P8 2.278597 1_555
P0 Si6 2.279781 1_555
P1 P14 2.207259 1_555
P1 P2 2.242015 1_545
P1 P9 2.278597 1_555
P1 Si7 2.279781 1_555
P2 Si15 2.287199 1_555
P2 Pt6 2.452584 1_555
P2 Pt4 2.489108 1_554
P3 Si14 2.287199 1_555
P3 Pt7 2.452584 1_555
P3 Pt5 2.489108 1_556
P4 Si10 2.318413 1_555
P4 P8 2.331699 1_545
P4 Pt2 2.405805 1_555
P5 Si11 2.318413 1_455
P5 P9 2.331699 1_565
P5 Pt3 2.405805 1_555
P6 Pt1 2.440246 1_555
P6 Pt6 2.449721 1_555
P6 Pt3 2.499739 1_555
P7 Pt0 2.440246 1_555
P7 Pt7 2.449721 1_555
P7 Pt2 2.499739 1_555
P8 Pt0 2.403936 1_565
P8 Pt2 2.428860 1_555
P9 Pt1 2.403936 1_545
P9 Pt3 2.428860 1_555
P10 Si12 2.260376 1_555
P10 P5 2.308624 1_555
P10 P7 2.311814 1_455
P10 Pt0 2.399070 1_465
P11 Si13 2.260376 1_555
P11 P4 2.308624 1_555
P11 P6 2.311814 1_555
P11 Pt1 2.399070 1_545
P12 Si14 2.284123 1_555
P12 Si7 2.289273 1_556
P12 Si2 2.302353 1_555
P12 Pt4 2.421225 1_545
P13 Si15 2.284123 1_655
P13 Si6 2.289273 1_554
P13 Si3 2.302353 1_555
P13 Pt5 2.421225 1_565
P14 Si15 2.282067 1_555
P14 Pt7 2.420061 1_454
P14 Pt5 2.450922 1_455
P15 Si14 2.282067 1_555
P15 Pt6 2.420061 1_556
P15 Pt4 2.450922 1_555
Pt0 Si9 2.419548 1_555
Pt0 Si5 2.426225 1_655
Pt0 Si1 2.492748 1_655
Pt1 Si8 2.419548 1_555
Pt1 Si4 2.426225 1_555
Pt1 Si0 2.492748 1_555
Pt2 Si14 2.427890 1_555
Pt2 Si8 2.443135 1_555
Pt2 Si4 2.488159 1_555
Pt3 Si15 2.427890 1_555
Pt3 Si9 2.443135 1_455
Pt3 Si5 2.488159 1_555
Pt4 Si10 2.405030 1_565
Pt4 Si1 2.452191 1_565
Pt4 Si2 2.458664 1_555
Pt5 Si11 2.405030 1_545
Pt5 Si0 2.452191 1_545
Pt5 Si3 2.458664 1_555
Pt6 Si7 2.414186 1_555
Pt6 Si3 2.416031 1_555
Pt6 Si0 2.460674 1_555
Pt7 Si6 2.414186 1_555
Pt7 Si2 2.416031 1_655
Pt7 Si1 2.460674 1_655
