# generated using pymatgen
data_PdSe
_symmetry_space_group_name_H-M   'P 1'
_cell_length_a   7.06127026
_cell_length_b   11.68624798
_cell_length_c   11.68609097
_cell_angle_alpha   90.00163668
_cell_angle_beta   90.00000000
_cell_angle_gamma   90.00000000
_symmetry_Int_Tables_number   1
_chemical_formula_structural   PdSe
_chemical_formula_sum   'Pd24 Se24'
_cell_volume   964.33336720
_cell_formula_units_Z   24
loop_
 _symmetry_equiv_pos_site_id
 _symmetry_equiv_pos_as_xyz
  1  'x, y, z'
loop_
 _atom_site_type_symbol
 _atom_site_label
 _atom_site_symmetry_multiplicity
 _atom_site_fract_x
 _atom_site_fract_y
 _atom_site_fract_z
 _atom_site_occupancy
  Pd  Pd0  1  0.50000347  0.14233552  0.26877095  1
  Pd  Pd1  1  -0.00000010  0.76877528  0.64233983  1
  Pd  Pd2  1  0.49999839  0.87007056  0.04502878  1
  Pd  Pd3  1  -0.00000335  0.26876377  0.85766670  1
  Pd  Pd4  1  0.99999779  0.54502186  0.37006538  1
  Pd  Pd5  1  -0.00000335  0.73123623  0.14233330  1
  Pd  Pd6  1  0.49999839  0.12992944  0.95497122  1
  Pd  Pd7  1  0.99999779  0.45497814  0.62993462  1
  Pd  Pd8  1  0.49999631  0.62992741  0.54502866  1
  Pd  Pd9  1  0.75000048  0.88708853  0.38708712  1
  Pd  Pd10  1  0.25000255  0.61291362  0.88708922  1
  Pd  Pd11  1  0.25000255  0.38708638  0.11291078  1
  Pd  Pd12  1  0.50000085  0.35766164  0.76876147  1
  Pd  Pd13  1  0.75000048  0.11291147  0.61291288  1
  Pd  Pd14  1  0.50000085  0.64233836  0.23123853  1
  Pd  Pd15  1  0.49999631  0.37007259  0.45497134  1
  Pd  Pd16  1  0.99999728  0.95496864  0.87007580  1
  Pd  Pd17  1  0.24999930  0.11290912  0.61291324  1
  Pd  Pd18  1  0.24999930  0.88709088  0.38708676  1
  Pd  Pd19  1  0.75000156  0.61291397  0.88708766  1
  Pd  Pd20  1  0.75000156  0.38708603  0.11291234  1
  Pd  Pd21  1  0.50000347  0.85766448  0.73122905  1
  Pd  Pd22  1  -0.00000010  0.23122472  0.35766017  1
  Pd  Pd23  1  0.99999728  0.04503136  0.12992420  1
  Se  Se0  1  0.22408337  0.88980372  0.17694481  1
  Se  Se1  1  0.25000045  0.59646504  0.09646505  1
  Se  Se2  1  0.25000273  0.09649079  0.40350652  1
  Se  Se3  1  0.72407267  0.82303867  0.88981487  1
  Se  Se4  1  0.72408948  0.32304255  0.61018215  1
  Se  Se5  1  0.77593030  0.61018670  0.67696344  1
  Se  Se6  1  0.22408337  0.11019628  0.82305519  1
  Se  Se7  1  0.75000407  0.90351385  0.59649161  1
  Se  Se8  1  0.25000045  0.40353496  0.90353495  1
  Se  Se9  1  0.27592994  0.17696022  0.11018520  1
  Se  Se10  1  0.22408124  0.38981619  0.32303984  1
  Se  Se11  1  0.77593030  0.38981330  0.32303656  1
  Se  Se12  1  0.27590528  0.67695326  0.38980205  1
  Se  Se13  1  0.27592994  0.82303978  0.88981480  1
  Se  Se14  1  0.74999899  0.40353697  0.90353601  1
  Se  Se15  1  0.72408948  0.67695745  0.38981785  1
  Se  Se16  1  0.27590528  0.32304774  0.61019795  1
  Se  Se17  1  0.77590695  0.88980205  0.17694465  1
  Se  Se18  1  0.75000407  0.09648615  0.40350839  1
  Se  Se19  1  0.22408124  0.61018481  0.67696016  1
  Se  Se20  1  0.74999899  0.59646303  0.09646399  1
  Se  Se21  1  0.72407267  0.17696133  0.11018513  1
  Se  Se22  1  0.25000273  0.90350921  0.59649348  1
  Se  Se23  1  0.77590695  0.11019795  0.82305535  1
loop_
_geom_bond_atom_site_label_1
_geom_bond_atom_site_label_2
_geom_bond_distance
_geom_bond_site_symmetry_2
Pd0 Se2 2.425406 1_555
Pd0 Se18 2.425432 1_555
Pd0 Se21 2.470164 1_555
Pd0 Se9 2.470181 1_555
Pd1 Se22 2.425421 1_555
Pd1 Se7 2.425425 1_455
Pd1 Se5 2.470203 1_455
Pd1 Se19 2.470267 1_555
Pd2 Se13 2.468893 1_554
Pd2 Se3 2.468922 1_554
Pd2 Se17 2.495067 1_555
Pd2 Se0 2.495105 1_555
Pd3 Se14 2.425732 1_455
Pd3 Se8 2.425745 1_555
Pd3 Se23 2.470054 1_455
Pd3 Se6 2.470055 1_555
Pd4 Se11 2.468853 1_555
Pd4 Se10 2.468892 1_655
Pd4 Se12 2.495191 1_655
Pd4 Se15 2.495243 1_555
Pd5 Se20 2.425732 1_455
Pd5 Se1 2.425745 1_555
Pd5 Se17 2.470054 1_455
Pd5 Se0 2.470055 1_555
Pd6 Se9 2.468893 1_556
Pd6 Se21 2.468922 1_556
Pd6 Se23 2.495067 1_555
Pd6 Se6 2.495105 1_555
Pd7 Se5 2.468853 1_555
Pd7 Se19 2.468901 1_655
Pd7 Se16 2.495184 1_655
Pd7 Se4 2.495243 1_555
Pd8 Se15 2.468999 1_555
Pd8 Se12 2.469114 1_555
Pd8 Se19 2.495236 1_555
Pd8 Se5 2.495362 1_555
Pd9 Se18 2.454580 1_565
Pd9 Se7 2.454631 1_555
Pd9 Se15 2.462658 1_555
Pd9 Se17 2.462753 1_555
Pd10 Se1 2.454329 1_556
Pd10 Se8 2.454392 1_555
Pd10 Se19 2.462605 1_555
Pd10 Se13 2.462607 1_555
Pd11 Se8 2.454329 1_554
Pd11 Se1 2.454392 1_555
Pd11 Se10 2.462605 1_555
Pd11 Se9 2.462607 1_555
Pd12 Se8 2.425746 1_555
Pd12 Se14 2.425748 1_555
Pd12 Se16 2.470047 1_555
Pd12 Se4 2.470164 1_555
Pd13 Se7 2.454580 1_545
Pd13 Se18 2.454631 1_555
Pd13 Se4 2.462658 1_555
Pd13 Se23 2.462753 1_555
Pd14 Se1 2.425746 1_555
Pd14 Se20 2.425748 1_555
Pd14 Se12 2.470049 1_555
Pd14 Se15 2.470164 1_555
Pd15 Se4 2.468999 1_555
Pd15 Se16 2.469111 1_555
Pd15 Se10 2.495237 1_555
Pd15 Se11 2.495362 1_555
Pd16 Se6 2.469103 1_665
Pd16 Se23 2.469136 1_565
Pd16 Se3 2.495286 1_555
Pd16 Se13 2.495322 1_655
Pd17 Se22 2.454605 1_545
Pd17 Se2 2.454651 1_555
Pd17 Se16 2.462741 1_555
Pd17 Se6 2.462752 1_555
Pd18 Se2 2.454605 1_565
Pd18 Se22 2.454651 1_555
Pd18 Se12 2.462730 1_555
Pd18 Se0 2.462752 1_555
Pd19 Se20 2.454337 1_556
Pd19 Se14 2.454375 1_555
Pd19 Se5 2.462552 1_555
Pd19 Se3 2.462591 1_555
Pd20 Se14 2.454337 1_554
Pd20 Se20 2.454375 1_555
Pd20 Se11 2.462552 1_555
Pd20 Se21 2.462591 1_555
Pd21 Se22 2.425406 1_555
Pd21 Se7 2.425432 1_555
Pd21 Se3 2.470164 1_555
Pd21 Se13 2.470181 1_555
Pd22 Se2 2.425421 1_555
Pd22 Se18 2.425425 1_455
Pd22 Se11 2.470203 1_455
Pd22 Se10 2.470275 1_555
Pd23 Se0 2.469103 1_645
Pd23 Se17 2.469136 1_545
Pd23 Se21 2.495286 1_555
Pd23 Se9 2.495322 1_655
