# generated using pymatgen
data_V6O13
_symmetry_space_group_name_H-M   'P 1'
_cell_length_a   3.76531200
_cell_length_b   11.71056247
_cell_length_c   11.71056245
_cell_angle_alpha   118.23836599
_cell_angle_beta   90.00000000
_cell_angle_gamma   90.00000000
_symmetry_Int_Tables_number   1
_chemical_formula_structural   V6O13
_chemical_formula_sum   'V12 O26'
_cell_volume   454.91042904
_cell_formula_units_Z   2
loop_
 _symmetry_equiv_pos_site_id
 _symmetry_equiv_pos_as_xyz
  1  'x, y, z'
loop_
 _atom_site_type_symbol
 _atom_site_label
 _atom_site_symmetry_multiplicity
 _atom_site_fract_x
 _atom_site_fract_y
 _atom_site_fract_z
 _atom_site_occupancy
  V  V0  1  0.75000000  0.71481100  0.58079700  1
  V  V1  1  0.25000000  0.58079700  0.71481100  1
  V  V2  1  0.25000000  0.39936300  0.89936300  1
  V  V3  1  0.75000000  0.60063700  0.10063700  1
  V  V4  1  0.75000000  0.89936300  0.39936300  1
  V  V5  1  0.25000000  0.21481100  0.08079700  1
  V  V6  1  0.25000000  0.10063700  0.60063700  1
  V  V7  1  0.75000000  0.78518900  0.91920300  1
  V  V8  1  0.25000000  0.28518900  0.41920300  1
  V  V9  1  0.75000000  0.08079700  0.21481100  1
  V  V10  1  0.25000000  0.91920300  0.78518900  1
  V  V11  1  0.75000000  0.41920300  0.28518900  1
  O  O0  1  0.25000000  0.50131100  0.80293200  1
  O  O1  1  0.25000000  0.30293200  0.00131100  1
  O  O2  1  0.75000000  0.00131100  0.30293200  1
  O  O3  1  0.75000000  0.07025300  0.57025300  1
  O  O4  1  0.75000000  0.27469400  0.37024800  1
  O  O5  1  0.75000000  0.42974700  0.92974700  1
  O  O6  1  0.75000000  0.80293200  0.50131100  1
  O  O7  1  0.25000000  0.77469400  0.87024800  1
  O  O8  1  0.25000000  0.12975200  0.22530600  1
  O  O9  1  0.75000000  0.62975200  0.72530600  1
  O  O10  1  0.75000000  0.22530600  0.12975200  1
  O  O11  1  0.25000000  0.44768600  0.55231400  1
  O  O12  1  0.75000000  0.87024800  0.77469400  1
  O  O13  1  0.25000000  0.25000000  0.75000000  1
  O  O14  1  0.25000000  0.72530600  0.62975200  1
  O  O15  1  0.75000000  0.49868900  0.19706800  1
  O  O16  1  0.25000000  0.57025300  0.07025300  1
  O  O17  1  0.25000000  0.92974700  0.42974700  1
  O  O18  1  0.25000000  0.37024800  0.27469400  1
  O  O19  1  0.25000000  0.05231400  0.94768600  1
  O  O20  1  0.75000000  0.75000000  0.25000000  1
  O  O21  1  0.75000000  0.55231400  0.44768600  1
  O  O22  1  0.75000000  0.69706800  0.99868900  1
  O  O23  1  0.75000000  0.94768600  0.05231400  1
  O  O24  1  0.25000000  0.99868900  0.69706800  1
  O  O25  1  0.25000000  0.19706800  0.49868900  1
loop_
_geom_bond_atom_site_label_1
_geom_bond_atom_site_label_2
_geom_bond_distance
_geom_bond_site_symmetry_2
O0 V1 1.685323 1_555
O0 V2 1.994071 1_555
O1 V5 1.685323 1_555
O1 V2 1.994071 1_554
O2 V9 1.685323 1_555
O2 V4 1.994071 1_545
O3 V6 1.917759 1_555
O3 V6 1.917759 1_655
O3 V4 2.054266 1_545
O4 V8 1.954862 1_655
O4 V8 1.954862 1_555
O4 V9 2.134953 1_555
O4 V11 2.334764 1_555
O5 V2 1.917759 1_655
O5 V2 1.917759 1_555
O5 V3 2.054266 1_556
O6 V0 1.685323 1_555
O6 V4 1.994071 1_555
O7 V7 1.954862 1_555
O7 V7 1.954862 1_455
O7 V1 2.134953 1_555
O7 V10 2.334764 1_555
O8 V9 1.954862 1_455
O8 V9 1.954862 1_555
O8 V8 2.134953 1_555
O8 V5 2.334764 1_555
O9 V1 1.954862 1_555
O9 V1 1.954862 1_655
O9 V7 2.134953 1_555
O9 V0 2.334764 1_555
O10 V5 1.954862 1_655
O10 V5 1.954862 1_555
O10 V11 2.134953 1_555
O10 V9 2.334764 1_555
O11 V1 1.801129 1_555
O11 V8 1.801129 1_555
O12 V10 1.954862 1_555
O12 V10 1.954862 1_655
O12 V0 2.134953 1_555
O12 V7 2.334764 1_555
O13 V6 1.795490 1_555
O13 V2 1.795490 1_555
O14 V0 1.954862 1_455
O14 V0 1.954862 1_555
O14 V10 2.134953 1_555
O14 V1 2.334764 1_555
O15 V11 1.685323 1_555
O15 V3 1.994071 1_555
O16 V3 1.917759 1_555
O16 V3 1.917759 1_455
O16 V2 2.054266 1_554
O17 V4 1.917759 1_455
O17 V4 1.917759 1_555
O17 V6 2.054266 1_565
O18 V11 1.954862 1_455
O18 V11 1.954862 1_555
O18 V5 2.134953 1_555
O18 V8 2.334764 1_555
O19 V10 1.801129 1_545
O19 V5 1.801129 1_556
O20 V3 1.795490 1_555
O20 V4 1.795490 1_555
O21 V11 1.801129 1_555
O21 V0 1.801129 1_555
O22 V7 1.685323 1_555
O22 V3 1.994071 1_556
O23 V9 1.801129 1_565
O23 V7 1.801129 1_554
O24 V10 1.685323 1_555
O24 V6 1.994071 1_565
O25 V8 1.685323 1_555
O25 V6 1.994071 1_555
