# generated using pymatgen
data_Ba2CuSi2O7
_symmetry_space_group_name_H-M   'P 1'
_cell_length_a   6.85472211
_cell_length_b   6.85472211
_cell_length_c   8.65954222
_cell_angle_alpha   77.44705554
_cell_angle_beta   77.44705554
_cell_angle_gamma   101.63962737
_symmetry_Int_Tables_number   1
_chemical_formula_structural   Ba2CuSi2O7
_chemical_formula_sum   'Ba4 Cu2 Si4 O14'
_cell_volume   374.19501363
_cell_formula_units_Z   2
loop_
 _symmetry_equiv_pos_site_id
 _symmetry_equiv_pos_as_xyz
  1  'x, y, z'
loop_
 _atom_site_type_symbol
 _atom_site_label
 _atom_site_symmetry_multiplicity
 _atom_site_fract_x
 _atom_site_fract_y
 _atom_site_fract_z
 _atom_site_occupancy
  Ba  Ba0  1  0.73284700  0.81265900  0.97259500  1
  Ba  Ba1  1  0.81265900  0.73284700  0.47259500  1
  Ba  Ba2  1  0.18734100  0.26715300  0.52740500  1
  Ba  Ba3  1  0.26715300  0.18734100  0.02740500  1
  Cu  Cu0  1  0.73685200  0.26314800  0.25000000  1
  Cu  Cu1  1  0.26314800  0.73685200  0.75000000  1
  Si  Si0  1  0.15993500  0.61549000  0.14020600  1
  Si  Si1  1  0.84006500  0.38451000  0.85979400  1
  Si  Si2  1  0.38451000  0.84006500  0.35979400  1
  Si  Si3  1  0.61549000  0.15993500  0.64020600  1
  O  O0  1  0.96525400  0.62698700  0.76472200  1
  O  O1  1  0.03474600  0.37301300  0.23527800  1
  O  O2  1  0.77623000  0.01647700  0.63681800  1
  O  O3  1  0.33055600  0.66944400  0.25000000  1
  O  O4  1  0.62747000  0.31166700  0.46094500  1
  O  O5  1  0.01647700  0.77623000  0.13681800  1
  O  O6  1  0.31166700  0.62747000  0.96094500  1
  O  O7  1  0.22377000  0.98352300  0.36318200  1
  O  O8  1  0.66944400  0.33055600  0.75000000  1
  O  O9  1  0.37253000  0.68833300  0.53905500  1
  O  O10  1  0.37301300  0.03474600  0.73527800  1
  O  O11  1  0.62698700  0.96525400  0.26472200  1
  O  O12  1  0.98352300  0.22377000  0.86318200  1
  O  O13  1  0.68833300  0.37253000  0.03905500  1
loop_
_geom_bond_atom_site_label_1
_geom_bond_atom_site_label_2
_geom_bond_distance
_geom_bond_site_symmetry_2
Ba0 O5 2.666086 1_656
Ba0 O0 2.822330 1_555
Ba0 O12 2.823030 1_565
Ba0 O2 2.861047 1_565
Ba0 O13 2.885108 1_556
Ba0 O6 2.942827 1_555
Ba0 O11 2.945932 1_556
Ba0 O3 3.056421 1_556
Ba1 O2 2.666086 1_565
Ba1 O11 2.822330 1_555
Ba1 O7 2.823030 1_655
Ba1 O5 2.861047 1_655
Ba1 O9 2.885108 1_555
Ba1 O4 2.942827 1_555
Ba1 O0 2.945932 1_555
Ba1 O8 3.056421 1_555
Ba2 O7 2.666086 1_545
Ba2 O10 2.822330 1_555
Ba2 O2 2.823030 1_455
Ba2 O12 2.861047 1_455
Ba2 O4 2.885108 1_555
Ba2 O9 2.942827 1_555
Ba2 O1 2.945932 1_555
Ba2 O3 3.056421 1_555
Ba3 O12 2.666086 1_454
Ba3 O1 2.822330 1_555
Ba3 O5 2.823030 1_545
Ba3 O7 2.861047 1_545
Ba3 O6 2.885108 1_554
Ba3 O13 2.942827 1_555
Ba3 O10 2.945932 1_554
Ba3 O8 3.056421 1_554
Cu0 O4 1.943946 1_555
Cu0 O13 1.943946 1_555
Cu0 O1 1.994411 1_655
Cu0 O11 1.994411 1_545
Cu1 O6 1.943946 1_555
Cu1 O9 1.943946 1_555
Cu1 O10 1.994411 1_565
Cu1 O0 1.994411 1_455
O0 Si1 1.642973 1_555
O1 Si0 1.642973 1_555
O2 Si3 1.617895 1_555
O3 Si0 1.694188 1_555
O3 Si2 1.694188 1_555
O4 Si3 1.645149 1_555
O5 Si0 1.617895 1_555
O6 Si0 1.645149 1_556
O7 Si2 1.617895 1_555
O8 Si3 1.694188 1_555
O8 Si1 1.694188 1_555
O9 Si2 1.645149 1_555
O10 Si3 1.642973 1_555
O11 Si2 1.642973 1_555
O12 Si1 1.617895 1_555
O13 Si1 1.645149 1_554
