# generated using pymatgen
data_HoNiC2
_symmetry_space_group_name_H-M   'P 1'
_cell_length_a   3.55878357
_cell_length_b   3.72828804
_cell_length_c   3.72828776
_cell_angle_alpha   106.24426497
_cell_angle_beta   90.00000000
_cell_angle_gamma   90.00000000
_symmetry_Int_Tables_number   1
_chemical_formula_structural   HoNiC2
_chemical_formula_sum   'Ho1 Ni1 C2'
_cell_volume   47.49270596
_cell_formula_units_Z   1
loop_
 _symmetry_equiv_pos_site_id
 _symmetry_equiv_pos_as_xyz
  1  'x, y, z'
loop_
 _atom_site_type_symbol
 _atom_site_label
 _atom_site_symmetry_multiplicity
 _atom_site_fract_x
 _atom_site_fract_y
 _atom_site_fract_z
 _atom_site_occupancy
  Ho  Ho0  1  -0.00000000  0.00156767  0.99843233  1
  Ni  Ni0  1  0.50000000  0.61138469  0.38861531  1
  C  C0  1  0.50000000  0.14834781  0.54530017  1
  C  C1  1  0.50000000  0.45469983  0.85165219  1
loop_
_geom_bond_atom_site_label_1
_geom_bond_atom_site_label_2
_geom_bond_distance
_geom_bond_site_symmetry_2
C0 C1 1.370856 1_555
C0 Ni0 1.922183 1_545
C0 Ni0 1.971214 1_555
C0 Ho0 2.614772 1_555
C0 Ho0 2.614772 1_655
C0 Ho0 2.645470 1_654
C0 Ho0 2.645470 1_554
C1 Ni0 1.922183 1_556
C1 Ni0 1.971214 1_555
C1 Ho0 2.614772 1_655
C1 Ho0 2.614772 1_555
C1 Ho0 2.645470 1_665
C1 Ho0 2.645470 1_565
