# generated using pymatgen
data_Cs3As7
_symmetry_space_group_name_H-M   'P 1'
_cell_length_a   10.33724530
_cell_length_b   13.27729846
_cell_length_c   22.17107667
_cell_angle_alpha   90.00000000
_cell_angle_beta   90.00000000
_cell_angle_gamma   90.00000000
_symmetry_Int_Tables_number   1
_chemical_formula_structural   Cs3As7
_chemical_formula_sum   'Cs24 As56'
_cell_volume   3042.99559544
_cell_formula_units_Z   8
loop_
 _symmetry_equiv_pos_site_id
 _symmetry_equiv_pos_as_xyz
  1  'x, y, z'
loop_
 _atom_site_type_symbol
 _atom_site_label
 _atom_site_symmetry_multiplicity
 _atom_site_fract_x
 _atom_site_fract_y
 _atom_site_fract_z
 _atom_site_occupancy
  Cs  Cs0  1  0.69808090  0.97302448  0.73179116  1
  Cs  Cs1  1  0.30191910  0.47302448  0.76820884  1
  Cs  Cs2  1  0.40246175  0.22577368  0.62118453  1
  Cs  Cs3  1  0.19808090  0.52697552  0.26820884  1
  Cs  Cs4  1  0.23698960  0.95134034  0.47867260  1
  Cs  Cs5  1  0.26301040  0.45134034  0.47867260  1
  Cs  Cs6  1  0.90246175  0.22577368  0.87881547  1
  Cs  Cs7  1  0.59753825  0.72577368  0.87881547  1
  Cs  Cs8  1  0.30191910  0.02697552  0.26820884  1
  Cs  Cs9  1  0.76301040  0.45134034  0.02132740  1
  Cs  Cs10  1  0.26301040  0.04865966  0.97867260  1
  Cs  Cs11  1  0.69808090  0.52697552  0.23179116  1
  Cs  Cs12  1  0.80191910  0.47302448  0.73179116  1
  Cs  Cs13  1  0.09753825  0.77422632  0.12118453  1
  Cs  Cs14  1  0.40246175  0.27422632  0.12118453  1
  Cs  Cs15  1  0.90246175  0.27422632  0.37881547  1
  Cs  Cs16  1  0.59753825  0.77422632  0.37881547  1
  Cs  Cs17  1  0.19808090  0.97302448  0.76820884  1
  Cs  Cs18  1  0.73698960  0.95134034  0.02132740  1
  Cs  Cs19  1  0.09753825  0.72577368  0.62118453  1
  Cs  Cs20  1  0.80191910  0.02697552  0.23179116  1
  Cs  Cs21  1  0.23698960  0.54865966  0.97867260  1
  Cs  Cs22  1  0.73698960  0.54865966  0.52132740  1
  Cs  Cs23  1  0.76301040  0.04865966  0.52132740  1
  As  As0  1  0.59190418  0.08870523  0.36669708  1
  As  As1  1  0.92070900  0.82173118  0.45720727  1
  As  As2  1  0.03244167  0.83663094  0.94824312  1
  As  As3  1  0.23279624  0.70568256  0.39774767  1
  As  As4  1  0.40809582  0.91129477  0.63330292  1
  As  As5  1  0.57929100  0.17826882  0.95720727  1
  As  As6  1  0.05275256  0.37954945  0.14260634  1
  As  As7  1  0.85463875  0.20371499  0.68393568  1
  As  As8  1  0.44724744  0.87954945  0.14260634  1
  As  As9  1  0.42771446  0.78032695  0.70542160  1
  As  As10  1  0.94724744  0.87954945  0.35739366  1
  As  As11  1  0.64536125  0.79628501  0.18393568  1
  As  As12  1  0.57228554  0.28032695  0.79457840  1
  As  As13  1  0.76720476  0.20568256  0.10225233  1
  As  As14  1  0.07228554  0.21967305  0.20542160  1
  As  As15  1  0.44724744  0.62045055  0.64260634  1
  As  As16  1  0.92771446  0.71967305  0.29457840  1
  As  As17  1  0.90809582  0.91129477  0.86669708  1
  As  As18  1  0.14536125  0.79628501  0.31606432  1
  As  As19  1  0.64536125  0.70371499  0.68393568  1
  As  As20  1  0.14536125  0.70371499  0.81606432  1
  As  As21  1  0.07929100  0.17826882  0.54279273  1
  As  As22  1  0.53244167  0.83663094  0.55175688  1
  As  As23  1  0.73279524  0.70568256  0.10225233  1
  As  As24  1  0.94724744  0.62045055  0.85739366  1
  As  As25  1  0.96755833  0.33663094  0.55175688  1
  As  As26  1  0.05275256  0.12045055  0.64260634  1
  As  As27  1  0.09190418  0.41129477  0.63330292  1
  As  As28  1  0.59190418  0.41129477  0.86669708  1
  As  As29  1  0.73279524  0.79431744  0.60225233  1
  As  As30  1  0.03244167  0.66336906  0.44824312  1
  As  As31  1  0.07929100  0.32173118  0.04279273  1
  As  As32  1  0.42070900  0.82173118  0.04279273  1
  As  As33  1  0.35463875  0.20371499  0.81606432  1
  As  As34  1  0.96755833  0.16336906  0.05175688  1
  As  As35  1  0.40809582  0.58870523  0.13330292  1
  As  As36  1  0.46755833  0.16336906  0.44824312  1
  As  As37  1  0.07228554  0.28032695  0.70542160  1
  As  As38  1  0.55275256  0.37954945  0.35739366  1
  As  As39  1  0.85463875  0.29628501  0.18393568  1
  As  As40  1  0.42771446  0.71967305  0.20542160  1
  As  As41  1  0.76720476  0.29431744  0.60225233  1
  As  As42  1  0.57228554  0.21967305  0.29457840  1
  As  As43  1  0.55275256  0.12045055  0.85739366  1
  As  As44  1  0.09190418  0.08870523  0.13330292  1
  As  As45  1  0.23279624  0.79431744  0.89774767  1
  As  As46  1  0.42070900  0.67826882  0.54279273  1
  As  As47  1  0.26720476  0.29431744  0.89774767  1
  As  As48  1  0.26720476  0.20568256  0.39774767  1
  As  As49  1  0.92771446  0.78032695  0.79457840  1
  As  As50  1  0.90809582  0.58870523  0.36669708  1
  As  As51  1  0.53244167  0.66336906  0.05175688  1
  As  As52  1  0.46755833  0.33663094  0.94824312  1
  As  As53  1  0.92070900  0.67826882  0.95720727  1
  As  As54  1  0.57929100  0.32173118  0.45720727  1
  As  As55  1  0.35463875  0.29628501  0.31606432  1
loop_
_geom_bond_atom_site_label_1
_geom_bond_atom_site_label_2
_geom_bond_distance
_geom_bond_site_symmetry_2
As0 As42 2.370978 1_555
As0 As36 2.429755 1_555
As0 Cs20 3.785634 1_555
As0 Cs8 3.798118 1_555
As0 Cs23 3.894178 1_555
As0 Cs15 4.055333 1_555
As0 Cs16 4.184471 1_545
As1 As10 2.358355 1_555
As1 As30 2.407189 1_655
As1 Cs23 3.708987 1_565
As1 Cs4 3.725222 1_655
As1 Cs16 3.818223 1_555
As2 As53 2.407189 1_455
As2 As45 2.420436 1_555
As2 Cs10 3.749819 1_565
As2 Cs18 3.777973 1_456
As2 Cs13 3.980097 1_556
As3 As30 2.420436 1_555
As3 Cs4 3.722836 1_555
As3 Cs3 3.742617 1_555
As3 Cs5 3.836751 1_555
As3 Cs16 3.901352 1_555
As4 As9 2.370978 1_555
As4 Cs17 3.785634 1_555
As4 Cs0 3.798118 1_555
As4 Cs4 3.894178 1_555
As4 Cs19 4.055333 1_555
As4 Cs2 4.184471 1_565
As5 As52 2.407189 1_555
As5 Cs18 3.708987 1_546
As5 Cs10 3.725222 1_555
As5 Cs6 3.818223 1_555
As6 Cs3 3.720642 1_555
As6 Cs14 3.905068 1_555
As6 Cs9 4.136364 1_455
As7 Cs0 3.623054 1_545
As7 Cs12 3.769401 1_555
As8 Cs8 3.720642 1_565
As8 Cs13 3.905068 1_555
As8 Cs18 4.136364 1_555
As9 Cs17 3.757472 1_555
As9 Cs0 3.833914 1_555
As9 Cs19 3.957525 1_555
As9 Cs7 4.287811 1_555
As10 As18 2.501185 1_655
As10 As16 2.546822 1_555
As10 Cs20 3.720642 1_565
As10 Cs16 3.905068 1_555
As10 Cs4 4.136364 1_655
As11 As23 2.354518 1_555
As11 As8 2.501185 1_555
As11 As40 2.514662 1_555
As11 Cs20 3.623054 1_565
As11 Cs11 3.769401 1_555
As12 As28 2.370978 1_555
As12 As33 2.514662 1_555
As12 As43 2.546822 1_555
As12 Cs12 3.757472 1_555
As12 Cs1 3.833914 1_555
As12 Cs6 3.957525 1_555
As12 Cs2 4.287811 1_555
As13 As39 2.354518 1_555
As13 As34 2.420427 1_555
As13 Cs9 3.722836 1_555
As13 Cs20 3.742616 1_555
As13 Cs18 3.836752 1_545
As13 Cs14 3.901362 1_555
As14 As44 2.370978 1_555
As14 As39 2.514662 1_455
As14 As6 2.546822 1_555
As14 Cs8 3.757472 1_555
As14 Cs20 3.833914 1_455
As14 Cs14 3.957525 1_555
As14 Cs15 4.287811 1_455
As15 As46 2.358355 1_555
As15 As19 2.501185 1_555
As15 As9 2.546822 1_555
As15 Cs1 3.720642 1_555
As15 Cs19 3.905068 1_555
As15 Cs22 4.136364 1_555
As16 As50 2.370978 1_555
As16 As18 2.514662 1_655
As16 Cs11 3.757472 1_555
As16 Cs3 3.833914 1_655
As16 Cs16 3.957525 1_555
As16 Cs13 4.287811 1_655
As17 As49 2.370978 1_555
As17 As2 2.429755 1_655
As17 Cs0 3.785634 1_555
As17 Cs17 3.798118 1_655
As17 Cs18 3.894178 1_556
As17 Cs7 4.055333 1_555
As17 Cs6 4.184471 1_565
As18 As3 2.354522 1_555
As18 Cs8 3.623054 1_565
As18 Cs3 3.769401 1_555
As19 As29 2.354518 1_555
As19 As9 2.514662 1_555
As19 Cs12 3.623054 1_555
As19 Cs0 3.769401 1_555
As20 As45 2.354522 1_555
As20 As24 2.501185 1_455
As20 As49 2.514662 1_455
As20 Cs1 3.623054 1_555
As20 Cs17 3.769401 1_555
As21 As26 2.358355 1_555
As21 As25 2.407189 1_455
As21 Cs4 3.708987 1_545
As21 Cs23 3.725222 1_455
As21 Cs2 3.818223 1_555
As22 As46 2.407189 1_555
As22 As29 2.420427 1_555
As22 As4 2.429755 1_555
As22 Cs23 3.749819 1_565
As22 Cs4 3.777973 1_555
As22 Cs16 3.980097 1_555
As23 As51 2.420427 1_555
As23 Cs18 3.722836 1_555
As23 Cs11 3.742616 1_555
As23 Cs9 3.836752 1_555
As23 Cs13 3.901362 1_655
As24 As53 2.358355 1_555
As24 As49 2.546822 1_555
As24 Cs12 3.720642 1_555
As24 Cs7 3.905068 1_555
As24 Cs21 4.136364 1_655
As25 As41 2.420427 1_555
As25 As27 2.429755 1_655
As25 Cs22 3.749819 1_555
As25 Cs5 3.777973 1_655
As25 Cs15 3.980097 1_555
As26 As7 2.501185 1_455
As26 As37 2.546822 1_555
As26 Cs17 3.720642 1_545
As26 Cs2 3.905068 1_555
As26 Cs23 4.136364 1_455
As27 As37 2.370978 1_555
As27 Cs1 3.785634 1_555
As27 Cs12 3.798118 1_455
As27 Cs5 3.894178 1_555
As27 Cs2 4.055333 1_555
As27 Cs19 4.184471 1_555
As28 As52 2.429755 1_555
As28 Cs12 3.785634 1_555
As28 Cs1 3.798118 1_555
As28 Cs9 3.894178 1_556
As28 Cs6 4.055333 1_555
As28 Cs7 4.184471 1_555
As29 Cs22 3.722836 1_555
As29 Cs0 3.742616 1_555
As29 Cs23 3.836752 1_565
As29 Cs19 3.901362 1_655
As30 As50 2.429755 1_455
As30 Cs5 3.749819 1_555
As30 Cs22 3.777973 1_455
As30 Cs19 3.980097 1_555
As31 As6 2.358355 1_555
As31 As34 2.407189 1_455
As31 Cs21 3.708987 1_554
As31 Cs9 3.725222 1_455
As31 Cs14 3.818223 1_555
As32 As8 2.358355 1_555
As32 As51 2.407189 1_555
As32 Cs10 3.708987 1_564
As32 Cs18 3.725222 1_555
As32 Cs13 3.818223 1_555
As33 As47 2.354518 1_555
As33 As43 2.501185 1_555
As33 Cs17 3.623054 1_545
As33 Cs1 3.769401 1_555
As34 As44 2.429755 1_655
As34 Cs18 3.749819 1_545
As34 Cs10 3.777973 1_654
As34 Cs6 3.980097 1_554
As35 As40 2.370978 1_555
As35 As51 2.429755 1_555
As35 Cs3 3.785634 1_555
As35 Cs11 3.798118 1_555
As35 Cs21 3.894178 1_554
As35 Cs13 4.055333 1_555
As35 Cs14 4.184471 1_555
As36 As54 2.407189 1_555
As36 As48 2.420427 1_555
As36 Cs4 3.749819 1_545
As36 Cs23 3.777973 1_555
As36 Cs2 3.980097 1_555
As37 As7 2.514662 1_455
As37 Cs1 3.757472 1_555
As37 Cs12 3.833914 1_455
As37 Cs2 3.957525 1_555
As37 Cs6 4.287811 1_455
As38 As54 2.358355 1_555
As38 As55 2.501185 1_555
As38 As42 2.546822 1_555
As38 Cs11 3.720642 1_555
As38 Cs15 3.905068 1_555
As38 Cs5 4.136364 1_555
As39 As6 2.501185 1_655
As39 Cs11 3.623054 1_555
As39 Cs20 3.769401 1_555
As40 As8 2.546822 1_555
As40 Cs3 3.757472 1_555
As40 Cs11 3.833914 1_555
As40 Cs13 3.957525 1_555
As40 Cs16 4.287811 1_555
As41 As7 2.354518 1_555
As41 Cs23 3.722836 1_555
As41 Cs12 3.742616 1_555
As41 Cs22 3.836752 1_555
As41 Cs2 3.901362 1_555
As42 As55 2.514662 1_555
As42 Cs20 3.757472 1_555
As42 Cs8 3.833914 1_555
As42 Cs15 3.957525 1_555
As42 Cs14 4.287811 1_555
As43 As5 2.358355 1_555
As43 Cs0 3.720642 1_545
As43 Cs6 3.905068 1_555
As43 Cs10 4.136364 1_555
As44 Cs8 3.785634 1_555
As44 Cs20 3.798118 1_455
As44 Cs10 3.894178 1_554
As44 Cs14 4.055333 1_555
As44 Cs13 4.184471 1_545
As45 Cs21 3.722836 1_555
As45 Cs17 3.742617 1_555
As45 Cs10 3.836751 1_565
As45 Cs7 3.901352 1_555
As46 Cs5 3.708987 1_555
As46 Cs22 3.725222 1_555
As46 Cs19 3.818223 1_555
As47 As52 2.420427 1_555
As47 Cs10 3.722836 1_555
As47 Cs1 3.742616 1_555
As47 Cs21 3.836752 1_555
As47 Cs6 3.901362 1_455
As48 As55 2.354518 1_555
As48 Cs5 3.722836 1_555
As48 Cs8 3.742616 1_555
As48 Cs4 3.836752 1_545
As48 Cs15 3.901362 1_455
As49 Cs0 3.757472 1_555
As49 Cs17 3.833914 1_655
As49 Cs7 3.957525 1_555
As49 Cs19 4.287811 1_655
As50 Cs11 3.785634 1_555
As50 Cs3 3.798118 1_655
As50 Cs22 3.894178 1_555
As50 Cs16 4.055333 1_555
As50 Cs15 4.184471 1_555
As51 Cs9 3.749819 1_555
As51 Cs21 3.777973 1_554
As51 Cs7 3.980097 1_554
As52 Cs21 3.749819 1_555
As52 Cs9 3.777973 1_556
As52 Cs14 3.980097 1_556
As53 Cs9 3.708987 1_556
As53 Cs21 3.725222 1_655
As53 Cs7 3.818223 1_555
As54 Cs22 3.708987 1_555
As54 Cs5 3.725222 1_555
As54 Cs15 3.818223 1_555
As55 Cs3 3.623054 1_555
As55 Cs8 3.769401 1_555
