# generated using pymatgen
data_Tb5CoSb2
_symmetry_space_group_name_H-M   'P 1'
_cell_length_a   7.94456902
_cell_length_b   8.76866664
_cell_length_c   12.21477920
_cell_angle_alpha   90.00000000
_cell_angle_beta   90.00000000
_cell_angle_gamma   90.00000000
_symmetry_Int_Tables_number   1
_chemical_formula_structural   Tb5CoSb2
_chemical_formula_sum   'Tb20 Co4 Sb8'
_cell_volume   850.92155099
_cell_formula_units_Z   4
loop_
 _symmetry_equiv_pos_site_id
 _symmetry_equiv_pos_as_xyz
  1  'x, y, z'
loop_
 _atom_site_type_symbol
 _atom_site_label
 _atom_site_symmetry_multiplicity
 _atom_site_fract_x
 _atom_site_fract_y
 _atom_site_fract_z
 _atom_site_occupancy
  Tb  Tb0  1  0.15381464  0.75000000  0.20230195  1
  Tb  Tb1  1  0.65381464  0.25000000  0.29769805  1
  Tb  Tb2  1  0.84618536  0.25000000  0.79769805  1
  Tb  Tb3  1  0.34618536  0.75000000  0.70230195  1
  Tb  Tb4  1  0.45283503  0.75000000  0.99778748  1
  Tb  Tb5  1  0.95283503  0.25000000  0.50221252  1
  Tb  Tb6  1  0.54716497  0.25000000  0.00221252  1
  Tb  Tb7  1  0.04716497  0.75000000  0.49778748  1
  Tb  Tb8  1  0.62251316  0.75000000  0.30649142  1
  Tb  Tb9  1  0.12251316  0.25000000  0.19350858  1
  Tb  Tb10  1  0.37748684  0.25000000  0.69350858  1
  Tb  Tb11  1  0.87748684  0.75000000  0.80649142  1
  Tb  Tb12  1  0.82189910  0.96414364  0.06468170  1
  Tb  Tb13  1  0.32189910  0.03585636  0.43531830  1
  Tb  Tb14  1  0.17810090  0.46414364  0.93531830  1
  Tb  Tb15  1  0.67810090  0.53585636  0.56468170  1
  Tb  Tb16  1  0.17810090  0.03585636  0.93531830  1
  Tb  Tb17  1  0.67810090  0.96414364  0.56468170  1
  Tb  Tb18  1  0.82189910  0.53585636  0.06468170  1
  Tb  Tb19  1  0.32189910  0.46414364  0.43531830  1
  Co  Co0  1  0.43489833  0.75000000  0.49002808  1
  Co  Co1  1  0.93489833  0.25000000  0.00997192  1
  Co  Co2  1  0.56510167  0.25000000  0.50997192  1
  Co  Co3  1  0.06510167  0.75000000  0.99002808  1
  Sb  Sb0  1  0.92900839  0.99219492  0.32744480  1
  Sb  Sb1  1  0.42900839  0.00780508  0.17255520  1
  Sb  Sb2  1  0.07099161  0.49219492  0.67255520  1
  Sb  Sb3  1  0.57099161  0.50780508  0.82744480  1
  Sb  Sb4  1  0.07099161  0.00780508  0.67255520  1
  Sb  Sb5  1  0.57099161  0.99219492  0.82744480  1
  Sb  Sb6  1  0.92900839  0.50780508  0.32744480  1
  Sb  Sb7  1  0.42900839  0.49219492  0.17255520  1
loop_
_geom_bond_atom_site_label_1
_geom_bond_atom_site_label_2
_geom_bond_distance
_geom_bond_site_symmetry_2
Co0 Tb3 2.686958 1_555
Co0 Tb8 2.692133 1_555
Co0 Tb13 2.745076 1_565
Co0 Tb19 2.745076 1_555
Co0 Tb15 2.844406 1_555
Co0 Tb17 2.844406 1_555
Co0 Tb7 3.081832 1_555
Co1 Tb2 2.686958 1_554
Co1 Tb9 2.692133 1_655
Co1 Tb18 2.745076 1_555
Co1 Tb12 2.745076 1_545
Co1 Tb16 2.844406 1_654
Co1 Tb14 2.844406 1_654
Co1 Tb6 3.081832 1_555
Co2 Tb1 2.686958 1_555
Co2 Tb10 2.692133 1_555
Co2 Tb15 2.745076 1_555
Co2 Tb17 2.745076 1_545
Co2 Tb19 2.844406 1_555
Co2 Tb13 2.844406 1_555
Co2 Tb5 3.081832 1_555
Co3 Tb0 2.686958 1_556
Co3 Tb11 2.692133 1_455
Co3 Tb16 2.745076 1_565
Co3 Tb14 2.745076 1_555
Co3 Tb18 2.844406 1_456
Co3 Tb12 2.844406 1_456
Co3 Tb4 3.081832 1_555
Sb0 Tb5 3.115017 1_565
Sb0 Tb7 3.117801 1_655
Sb0 Tb1 3.165795 1_565
Sb0 Tb0 3.168054 1_655
Sb0 Tb9 3.185933 1_665
Sb0 Tb8 3.241113 1_555
Sb0 Tb12 3.329577 1_555
Sb0 Tb13 3.409632 1_665
Sb0 Tb17 3.525788 1_555
Sb1 Tb4 3.115017 1_544
Sb1 Tb6 3.117801 1_555
Sb1 Tb0 3.165795 1_545
Sb1 Tb1 3.168054 1_555
Sb1 Tb8 3.185933 1_545
Sb1 Tb9 3.241113 1_555
Sb1 Tb13 3.329577 1_555
Sb1 Tb12 3.409632 1_545
Sb1 Tb16 3.525788 1_554
Sb2 Tb7 3.115017 1_555
Sb2 Tb5 3.117801 1_455
Sb2 Tb3 3.165795 1_555
Sb2 Tb2 3.168054 1_455
Sb2 Tb11 3.185933 1_455
Sb2 Tb10 3.241113 1_555
Sb2 Tb14 3.329577 1_555
Sb2 Tb15 3.409632 1_455
Sb2 Tb19 3.525788 1_555
Sb3 Tb6 3.115017 1_556
Sb3 Tb4 3.117801 1_555
Sb3 Tb2 3.165795 1_555
Sb3 Tb3 3.168054 1_555
Sb3 Tb10 3.185933 1_555
Sb3 Tb11 3.241113 1_555
Sb3 Tb15 3.329577 1_555
Sb3 Tb14 3.409632 1_555
Sb3 Tb18 3.525788 1_556
Sb4 Tb7 3.115017 1_545
Sb4 Tb5 3.117801 1_455
Sb4 Tb3 3.165795 1_545
Sb4 Tb2 3.168054 1_455
Sb4 Tb11 3.185933 1_445
Sb4 Tb10 3.241113 1_555
Sb4 Tb16 3.329577 1_555
Sb4 Tb17 3.409632 1_445
Sb4 Tb13 3.525788 1_555
Sb5 Tb6 3.115017 1_566
Sb5 Tb4 3.117801 1_555
Sb5 Tb2 3.165795 1_565
Sb5 Tb3 3.168054 1_555
Sb5 Tb10 3.185933 1_565
Sb5 Tb11 3.241113 1_555
Sb5 Tb17 3.329577 1_555
Sb5 Tb16 3.409632 1_565
Sb5 Tb12 3.525788 1_556
Sb6 Tb5 3.115017 1_555
Sb6 Tb7 3.117801 1_655
Sb6 Tb1 3.165795 1_555
Sb6 Tb0 3.168054 1_655
Sb6 Tb9 3.185933 1_655
Sb6 Tb8 3.241113 1_555
Sb6 Tb18 3.329577 1_555
Sb6 Tb19 3.409632 1_655
Sb6 Tb15 3.525788 1_555
Sb7 Tb4 3.115017 1_554
Sb7 Tb6 3.117801 1_555
Sb7 Tb0 3.165795 1_555
Sb7 Tb1 3.168054 1_555
Sb7 Tb8 3.185933 1_555
Sb7 Tb9 3.241113 1_555
Sb7 Tb19 3.329577 1_555
Sb7 Tb18 3.409632 1_555
Sb7 Tb14 3.525788 1_554
