# generated using pymatgen
data_Gd3(AlNi3)2
_symmetry_space_group_name_H-M   'P 1'
_cell_length_a   7.71559870
_cell_length_b   7.71560592
_cell_length_c   7.71561356
_cell_angle_alpha   109.44377817
_cell_angle_beta   109.44363890
_cell_angle_gamma   109.52528551
_symmetry_Int_Tables_number   1
_chemical_formula_structural   Gd3(AlNi3)2
_chemical_formula_sum   'Gd6 Al4 Ni12'
_cell_volume   353.58445810
_cell_formula_units_Z   2
loop_
 _symmetry_equiv_pos_site_id
 _symmetry_equiv_pos_as_xyz
  1  'x, y, z'
loop_
 _atom_site_type_symbol
 _atom_site_label
 _atom_site_symmetry_multiplicity
 _atom_site_fract_x
 _atom_site_fract_y
 _atom_site_fract_z
 _atom_site_occupancy
  Gd  Gd0  1  0.29467734  0.29467566  -0.00000115  1
  Gd  Gd1  1  0.00000189  0.29261539  0.29261592  1
  Gd  Gd2  1  0.00000219  0.70738686  0.70738626  1
  Gd  Gd3  1  0.70738356  0.00000052  0.70738632  1
  Gd  Gd4  1  0.70532046  0.70532174  0.99999530  1
  Gd  Gd5  1  0.29261432  0.00000066  0.29261695  1
  Al  Al0  1  0.00000005  -0.00000049  0.49999985  1
  Al  Al1  1  0.50000014  0.00000059  -0.00000053  1
  Al  Al2  1  -0.00000049  0.49999979  0.00000022  1
  Al  Al3  1  0.49999997  0.49999977  0.49999997  1
  Ni  Ni0  1  0.33427393  0.66572167  -0.00000437  1
  Ni  Ni1  1  -0.00004283  0.66646859  0.33348805  1
  Ni  Ni2  1  0.33353249  0.00004518  0.66651263  1
  Ni  Ni3  1  0.66646848  -0.00004280  0.33348908  1
  Ni  Ni4  1  0.66647322  0.33298852  0.66652072  1
  Ni  Ni5  1  0.66572362  0.33427525  -0.00000128  1
  Ni  Ni6  1  0.33352471  0.66701161  0.33348164  1
  Ni  Ni7  1  0.00004591  0.33353252  0.66651371  1
  Ni  Ni8  1  0.33427129  0.33427149  0.66854571  1
  Ni  Ni9  1  0.66701079  0.33352505  0.33348046  1
  Ni  Ni10  1  0.66572977  0.66572812  0.33145473  1
  Ni  Ni11  1  0.33298920  0.66647433  0.66651982  1
loop_
_geom_bond_atom_site_label_1
_geom_bond_atom_site_label_2
_geom_bond_distance
_geom_bond_site_symmetry_2
Gd0 Ni5 2.775706 1_555
Gd0 Ni0 2.775721 1_555
Gd0 Ni8 2.775728 1_554
Gd0 Ni10 2.775803 1_555
Gd0 Ni9 2.992145 1_555
Gd0 Ni2 2.992166 1_554
Gd0 Ni6 2.992167 1_555
Gd0 Ni7 2.992177 1_554
Gd1 Ni1 2.795522 1_555
Gd1 Ni7 2.795526 1_555
Gd1 Ni9 2.795549 1_455
Gd1 Ni11 2.795611 1_555
Gd1 Ni6 2.991736 1_555
Gd1 Ni3 2.991783 1_455
Gd1 Ni8 3.002161 1_555
Gd1 Ni5 3.002207 1_455
Gd2 Ni1 2.795524 1_555
Gd2 Ni7 2.795527 1_555
Gd2 Ni11 2.795532 1_555
Gd2 Ni9 2.795632 1_455
Gd2 Ni2 2.991770 1_565
Gd2 Ni4 2.991771 1_455
Gd2 Ni10 3.002171 1_455
Gd2 Ni0 3.002171 1_556
Gd3 Ni2 2.795501 1_555
Gd3 Ni3 2.795528 1_555
Gd3 Ni4 2.795533 1_555
Gd3 Ni6 2.795616 1_545
Gd3 Ni11 2.991736 1_545
Gd3 Ni7 2.991790 1_655
Gd3 Ni5 3.002168 1_556
Gd3 Ni10 3.002187 1_545
Gd4 Ni0 2.775707 1_556
Gd4 Ni5 2.775725 1_556
Gd4 Ni10 2.775760 1_556
Gd4 Ni8 2.775775 1_555
Gd4 Ni11 2.992118 1_555
Gd4 Ni4 2.992122 1_555
Gd4 Ni3 2.992208 1_566
Gd4 Ni1 2.992217 1_656
Gd5 Ni2 2.795507 1_555
Gd5 Ni3 2.795524 1_555
Gd5 Ni6 2.795539 1_545
Gd5 Ni4 2.795612 1_555
Gd5 Ni9 2.991751 1_555
Gd5 Ni1 2.991763 1_545
Gd5 Ni8 3.002154 1_555
Gd5 Ni0 3.002222 1_545
Al0 Ni1 2.463930 1_545
Al0 Ni2 2.463931 1_555
Al0 Ni7 2.463935 1_555
Al0 Ni3 2.463936 1_455
Al0 Ni10 2.466263 1_445
Al0 Ni8 2.466268 1_555
Al0 Gd5 3.172147 1_555
Al0 Gd2 3.172162 1_545
Al0 Gd1 3.172167 1_555
Al0 Gd3 3.172183 1_455
Al0 Gd0 3.175982 1_556
Al0 Gd4 3.176016 1_444
Al1 Ni9 2.463910 1_555
Al1 Ni11 2.463911 1_544
Al1 Ni2 2.463932 1_554
Al1 Ni3 2.463946 1_555
Al1 Ni5 2.466269 1_555
Al1 Ni0 2.466282 1_545
Al1 Gd3 3.172144 1_554
Al1 Gd5 3.172187 1_555
Al1 Gd2 3.172195 1_544
Al1 Gd1 3.172220 1_655
Al1 Gd0 3.175926 1_555
Al1 Gd4 3.175935 1_544
Al2 Ni4 2.463912 1_454
Al2 Ni6 2.463914 1_555
Al2 Ni1 2.463928 1_555
Al2 Ni7 2.463933 1_554
Al2 Ni5 2.466267 1_455
Al2 Ni0 2.466278 1_555
Al2 Gd1 3.172169 1_555
Al2 Gd2 3.172176 1_554
Al2 Gd3 3.172204 1_454
Al2 Gd5 3.172215 1_565
Al2 Gd4 3.175945 1_454
Al2 Gd0 3.175952 1_555
Al3 Ni9 2.463917 1_555
Al3 Ni11 2.463917 1_555
Al3 Ni4 2.463923 1_555
Al3 Ni6 2.463925 1_555
Al3 Ni8 2.466259 1_555
Al3 Ni10 2.466260 1_555
Al3 Gd1 3.172183 1_555
Al3 Gd5 3.172191 1_555
Al3 Gd3 3.172201 1_565
Al3 Gd2 3.172209 1_655
Al3 Gd4 3.175946 1_555
Al3 Gd0 3.175983 1_555
Ni0 Ni11 2.571637 1_554
Ni0 Ni7 2.571685 1_554
Ni0 Ni6 2.571693 1_555
Ni0 Ni3 2.571748 1_565
Ni1 Ni10 2.571665 1_455
Ni1 Ni5 2.571729 1_455
Ni1 Ni6 2.572293 1_555
Ni1 Ni2 2.572363 1_565
Ni2 Ni8 2.571664 1_555
Ni2 Ni5 2.571706 1_556
Ni3 Ni9 2.572305 1_555
Ni3 Ni7 2.572365 1_655
Ni4 Ni5 2.571641 1_556
Ni4 Ni8 2.571679 1_555
Ni4 Ni7 2.572331 1_655
Ni4 Ni9 2.572372 1_555
Ni5 Ni9 2.571670 1_555
Ni7 Ni8 2.571657 1_555
Ni10 Ni3 2.571683 1_565
Ni10 Ni9 2.571687 1_555
Ni10 Ni6 2.571709 1_555
Ni11 Ni8 2.571688 1_555
Ni11 Ni2 2.572322 1_565
Ni11 Ni6 2.572352 1_555
