# generated using pymatgen
data_Dy3ReO7
_symmetry_space_group_name_H-M   'P 1'
_cell_length_a   6.44465934
_cell_length_b   6.44465934
_cell_length_c   7.43879500
_cell_angle_alpha   90.00000000
_cell_angle_beta   90.00000000
_cell_angle_gamma   109.19726933
_symmetry_Int_Tables_number   1
_chemical_formula_structural   Dy3ReO7
_chemical_formula_sum   'Dy6 Re2 O14'
_cell_volume   291.77954418
_cell_formula_units_Z   2
loop_
 _symmetry_equiv_pos_site_id
 _symmetry_equiv_pos_as_xyz
  1  'x, y, z'
loop_
 _atom_site_type_symbol
 _atom_site_label
 _atom_site_symmetry_multiplicity
 _atom_site_fract_x
 _atom_site_fract_y
 _atom_site_fract_z
 _atom_site_occupancy
  Dy  Dy0  1  0.99984500  0.46653800  0.75000000  1
  Dy  Dy1  1  0.50000000  0.50000000  0.00000000  1
  Dy  Dy2  1  0.00015500  0.53346200  0.25000000  1
  Dy  Dy3  1  0.46653800  0.99984500  0.25000000  1
  Dy  Dy4  1  0.53346200  0.00015500  0.75000000  1
  Dy  Dy5  1  0.50000000  0.50000000  0.50000000  1
  Re  Re0  1  0.00000000  0.00000000  0.00000000  1
  Re  Re1  1  0.00000000  0.00000000  0.50000000  1
  O  O0  1  0.07268200  0.32079200  0.47102000  1
  O  O1  1  0.93167700  0.06832300  0.75000000  1
  O  O2  1  0.07268200  0.32079200  0.02898000  1
  O  O3  1  0.92731800  0.67920800  0.52898000  1
  O  O4  1  0.63671800  0.36328200  0.75000000  1
  O  O5  1  0.67920800  0.92731800  0.47102000  1
  O  O6  1  0.32079200  0.07268200  0.52898000  1
  O  O7  1  0.32079200  0.07268200  0.97102000  1
  O  O8  1  0.67920800  0.92731800  0.02898000  1
  O  O9  1  0.92731800  0.67920800  0.97102000  1
  O  O10  1  0.63086600  0.36913400  0.25000000  1
  O  O11  1  0.36328200  0.63671800  0.25000000  1
  O  O12  1  0.36913400  0.63086600  0.75000000  1
  O  O13  1  0.06832300  0.93167700  0.25000000  1
loop_
_geom_bond_atom_site_label_1
_geom_bond_atom_site_label_2
_geom_bond_distance
_geom_bond_site_symmetry_2
Dy0 O4 2.212543 1_555
Dy0 O12 2.264537 1_655
Dy0 O3 2.285043 1_555
Dy0 O9 2.285043 1_555
Dy0 O0 2.387326 1_655
Dy0 O2 2.387326 1_656
Dy0 O1 2.457182 1_555
Dy1 O10 2.312761 1_555
Dy1 O12 2.312761 1_554
Dy1 O4 2.349832 1_554
Dy1 O11 2.349832 1_555
Dy1 O9 2.621587 1_554
Dy1 O8 2.621587 1_555
Dy1 O2 2.621587 1_555
Dy1 O7 2.621587 1_554
Dy2 O11 2.212543 1_555
Dy2 O10 2.264537 1_455
Dy2 O2 2.285043 1_555
Dy2 O0 2.285043 1_555
Dy2 O9 2.387326 1_454
Dy2 O3 2.387326 1_455
Dy2 O13 2.457182 1_555
Dy3 O11 2.212543 1_555
Dy3 O10 2.264537 1_565
Dy3 O8 2.285043 1_555
Dy3 O5 2.285043 1_555
Dy3 O7 2.387326 1_564
Dy3 O6 2.387326 1_565
Dy3 O13 2.457182 1_555
Dy4 O4 2.212543 1_555
Dy4 O12 2.264537 1_545
Dy4 O6 2.285043 1_555
Dy4 O7 2.285043 1_555
Dy4 O5 2.387326 1_545
Dy4 O8 2.387326 1_546
Dy4 O1 2.457182 1_555
Dy5 O10 2.312761 1_555
Dy5 O12 2.312761 1_555
Dy5 O4 2.349832 1_555
Dy5 O11 2.349832 1_555
Dy5 O3 2.621587 1_555
Dy5 O5 2.621587 1_555
Dy5 O6 2.621587 1_555
Dy5 O0 2.621587 1_555
O0 Re1 1.975639 1_555
O1 Re0 1.993425 1_656
O1 Re1 1.993425 1_655
O2 Re0 1.975639 1_555
O3 Re1 1.975639 1_665
O5 Re1 1.975639 1_665
O6 Re1 1.975639 1_555
O7 Re0 1.975639 1_556
O8 Re0 1.975639 1_665
O9 Re0 1.975639 1_666
O13 Re1 1.993425 1_565
O13 Re0 1.993425 1_565
