# generated using pymatgen
data_RbUSO6F
_symmetry_space_group_name_H-M   'P 1'
_cell_length_a   6.80914200
_cell_length_b   12.06641700
_cell_length_c   25.69676800
_cell_angle_alpha   90.00000000
_cell_angle_beta   90.00000000
_cell_angle_gamma   90.00000000
_symmetry_Int_Tables_number   1
_chemical_formula_structural   RbUSO6F
_chemical_formula_sum   'Rb12 U12 S12 O72 F12'
_cell_volume   2111.29648494
_cell_formula_units_Z   12
loop_
 _symmetry_equiv_pos_site_id
 _symmetry_equiv_pos_as_xyz
  1  'x, y, z'
loop_
 _atom_site_type_symbol
 _atom_site_label
 _atom_site_symmetry_multiplicity
 _atom_site_fract_x
 _atom_site_fract_y
 _atom_site_fract_z
 _atom_site_occupancy
  Rb  Rb0  1  0.71185200  0.78639700  0.40979700  1
  Rb  Rb1  1  0.71185200  0.28639700  0.09020300  1
  Rb  Rb2  1  0.68815600  0.29367900  0.73904700  1
  Rb  Rb3  1  0.65040600  0.78801300  0.07690200  1
  Rb  Rb4  1  0.31184400  0.29367900  0.23904700  1
  Rb  Rb5  1  0.28814800  0.78639700  0.90979700  1
  Rb  Rb6  1  0.28814800  0.28639700  0.59020300  1
  Rb  Rb7  1  0.31184400  0.79367900  0.26095300  1
  Rb  Rb8  1  0.68815600  0.79367900  0.76095300  1
  Rb  Rb9  1  0.34959400  0.28801300  0.92309800  1
  Rb  Rb10  1  0.65040600  0.28801300  0.42309800  1
  Rb  Rb11  1  0.34959400  0.78801300  0.57690200  1
  U  U0  1  0.10144500  0.54170400  0.03885900  1
  U  U1  1  0.10061500  0.49183200  0.37048800  1
  U  U2  1  0.09895300  0.55662000  0.70375100  1
  U  U3  1  0.09895300  0.05662000  0.79624900  1
  U  U4  1  0.10144500  0.04170400  0.46114100  1
  U  U5  1  0.89938500  0.49183200  0.87048800  1
  U  U6  1  0.89855500  0.04170400  0.96114100  1
  U  U7  1  0.90104700  0.05662000  0.29624900  1
  U  U8  1  0.90104700  0.55662000  0.20375100  1
  U  U9  1  0.10061500  0.99183200  0.12951200  1
  U  U10  1  0.89855500  0.54170400  0.53885900  1
  U  U11  1  0.89938500  0.99183200  0.62951200  1
  S  S0  1  0.40409700  0.02800900  0.68147700  1
  S  S1  1  0.40409700  0.52800900  0.81852300  1
  S  S2  1  0.59590300  0.02800900  0.18147700  1
  S  S3  1  0.40784900  0.55018700  0.15304000  1
  S  S4  1  0.59543800  0.04479500  0.51398500  1
  S  S5  1  0.40456200  0.54479500  0.48601500  1
  S  S6  1  0.40784900  0.05018700  0.34696000  1
  S  S7  1  0.59590300  0.52800900  0.31852300  1
  S  S8  1  0.40456200  0.04479500  0.01398500  1
  S  S9  1  0.59543800  0.54479500  0.98601500  1
  S  S10  1  0.59215100  0.05018700  0.84696000  1
  S  S11  1  0.59215100  0.55018700  0.65304000  1
  O  O0  1  0.09211800  0.69660400  0.72842500  1
  O  O1  1  0.09397400  0.91500100  0.81908200  1
  O  O2  1  0.24741400  0.07748800  0.30876400  1
  O  O3  1  0.10413600  0.14144600  0.13007900  1
  O  O4  1  0.56063100  0.66304200  0.97917300  1
  O  O5  1  0.10834400  0.68254900  0.01493700  1
  O  O6  1  0.24694700  0.48997800  0.85552400  1
  O  O7  1  0.43936900  0.66304200  0.47917300  1
  O  O8  1  0.10834400  0.18254900  0.48506300  1
  O  O9  1  0.08974900  0.90118600  0.43757700  1
  O  O10  1  0.44209900  0.14621700  0.67581000  1
  O  O11  1  0.58292600  0.45904400  0.82970500  1
  O  O12  1  0.75305300  0.98997800  0.14447600  1
  O  O13  1  0.65414100  0.48853600  0.93633400  1
  O  O14  1  0.56063100  0.16304200  0.52082700  1
  O  O15  1  0.41501200  0.48458000  0.00420200  1
  O  O16  1  0.34585900  0.48853600  0.43633400  1
  O  O17  1  0.75258600  0.07748800  0.80876400  1
  O  O18  1  0.41501200  0.98458000  0.49579800  1
  O  O19  1  0.55177100  0.93167900  0.84793600  1
  O  O20  1  0.08890600  0.84243100  0.12947300  1
  O  O21  1  0.65775000  0.99807300  0.23569400  1
  O  O22  1  0.44822900  0.93167900  0.34793600  1
  O  O23  1  0.75317500  0.02428200  0.47421800  1
  O  O24  1  0.09211800  0.19660400  0.77157500  1
  O  O25  1  0.24741400  0.57748800  0.19123600  1
  O  O26  1  0.75305300  0.48997800  0.35552400  1
  O  O27  1  0.65775000  0.49807300  0.26430600  1
  O  O28  1  0.89586400  0.64144600  0.86992100  1
  O  O29  1  0.90788200  0.19660400  0.27157500  1
  O  O30  1  0.43936900  0.16304200  0.02082700  1
  O  O31  1  0.41707400  0.45904400  0.32970500  1
  O  O32  1  0.41525000  0.11659600  0.83114000  1
  O  O33  1  0.58475000  0.11659600  0.33114000  1
  O  O34  1  0.44209900  0.64621700  0.82419000  1
  O  O35  1  0.08890600  0.34243100  0.37052700  1
  O  O36  1  0.58475000  0.61659600  0.16886000  1
  O  O37  1  0.75258600  0.57748800  0.69123600  1
  O  O38  1  0.65256300  0.59383700  0.60066800  1
  O  O39  1  0.34743700  0.09383700  0.39933200  1
  O  O40  1  0.55790100  0.64621700  0.32419000  1
  O  O41  1  0.89165600  0.18254900  0.98506300  1
  O  O42  1  0.90602600  0.91500100  0.31908200  1
  O  O43  1  0.24682500  0.02428200  0.97421800  1
  O  O44  1  0.58498800  0.98458000  0.99579800  1
  O  O45  1  0.24694700  0.98997800  0.64447600  1
  O  O46  1  0.09397400  0.41500100  0.68091800  1
  O  O47  1  0.41707400  0.95904400  0.17029500  1
  O  O48  1  0.65414100  0.98853600  0.56366600  1
  O  O49  1  0.34743700  0.59383700  0.10066800  1
  O  O50  1  0.75317500  0.52428200  0.02578200  1
  O  O51  1  0.90602600  0.41500100  0.18091800  1
  O  O52  1  0.89586400  0.14144600  0.63007900  1
  O  O53  1  0.65256300  0.09383700  0.89933200  1
  O  O54  1  0.34225000  0.49807300  0.76430600  1
  O  O55  1  0.44822900  0.43167900  0.15206400  1
  O  O56  1  0.89165600  0.68254900  0.51493700  1
  O  O57  1  0.58292600  0.95904400  0.67029500  1
  O  O58  1  0.08974900  0.40118600  0.06242300  1
  O  O59  1  0.34225000  0.99807300  0.73569400  1
  O  O60  1  0.91025100  0.40118600  0.56242300  1
  O  O61  1  0.55177100  0.43167900  0.65206400  1
  O  O62  1  0.90788200  0.69660400  0.22842500  1
  O  O63  1  0.10413600  0.64144600  0.36992100  1
  O  O64  1  0.91109400  0.34243100  0.87052700  1
  O  O65  1  0.34585900  0.98853600  0.06366600  1
  O  O66  1  0.41525000  0.61659600  0.66886000  1
  O  O67  1  0.55790100  0.14621700  0.17581000  1
  O  O68  1  0.91025100  0.90118600  0.93757700  1
  O  O69  1  0.58498800  0.48458000  0.50420200  1
  O  O70  1  0.24682500  0.52428200  0.52578200  1
  O  O71  1  0.91109400  0.84243100  0.62947300  1
  F  F0  1  0.05515800  0.48931200  0.95167900  1
  F  F1  1  0.94395600  0.59996600  0.11535000  1
  F  F2  1  0.94484200  0.98931200  0.04832100  1
  F  F3  1  0.05515800  0.98931200  0.54832100  1
  F  F4  1  0.05749800  0.49862100  0.28031900  1
  F  F5  1  0.94484200  0.48931200  0.45167900  1
  F  F6  1  0.94250200  0.49862100  0.78031900  1
  F  F7  1  0.94250200  0.99862100  0.71968100  1
  F  F8  1  0.94395600  0.09996600  0.38465000  1
  F  F9  1  0.05604400  0.09996600  0.88465000  1
  F  F10  1  0.05749800  0.99862100  0.21968100  1
  F  F11  1  0.05604400  0.59996600  0.61535000  1
loop_
_geom_bond_atom_site_label_1
_geom_bond_atom_site_label_2
_geom_bond_distance
_geom_bond_site_symmetry_2
O0 U2 1.804786 1_555
O0 Rb8 3.104306 1_455
O1 U3 1.807075 1_565
O1 Rb5 3.096788 1_555
O2 S6 1.505085 1_555
O2 U7 2.393569 1_455
O2 Rb4 3.194840 1_555
O3 U9 1.805523 1_545
O3 Rb1 3.353205 1_455
O4 S9 1.457015 1_555
O4 Rb5 2.972552 1_555
O4 Rb3 2.992377 1_556
O5 U0 1.807862 1_555
O5 Rb5 3.220035 1_554
O6 S1 1.503210 1_555
O6 U5 2.397739 1_455
O6 Rb9 3.072890 1_555
O7 S5 1.457015 1_555
O7 Rb0 2.972552 1_555
O7 Rb11 2.992377 1_555
O8 U4 1.807862 1_555
O8 Rb6 3.220035 1_555
O9 U4 1.802188 1_565
O9 Rb0 3.008188 1_455
O10 S0 1.456925 1_555
O10 Rb2 2.934913 1_555
O10 Rb6 2.966340 1_555
O11 S1 1.502592 1_555
O11 U5 2.428587 1_555
O11 Rb2 3.149921 1_555
O12 S2 1.503210 1_565
O12 U9 2.397739 1_655
O12 Rb3 3.072890 1_555
O13 S9 1.500139 1_555
O13 U5 2.377628 1_555
O13 Rb9 3.204741 1_555
O14 S4 1.457015 1_555
O14 Rb6 2.972552 1_555
O14 Rb10 2.992377 1_555
O15 S9 1.501884 1_554
O15 U0 2.413913 1_555
O15 Rb9 3.188676 1_554
O16 S5 1.500139 1_555
O16 U1 2.377628 1_555
O16 Rb10 3.204741 1_555
O17 S10 1.505085 1_555
O17 U3 2.393569 1_655
O17 Rb2 3.194840 1_555
O18 S4 1.501884 1_565
O18 U4 2.413913 1_565
O18 Rb11 3.188676 1_555
O19 S10 1.456377 1_565
O19 Rb8 2.937896 1_555
O19 Rb5 2.970224 1_555
O20 U9 1.804497 1_555
O20 Rb3 3.342329 1_455
O21 S2 1.499612 1_565
O21 U7 2.380103 1_565
O22 S6 1.456377 1_565
O22 Rb7 2.937896 1_555
O22 Rb0 2.970224 1_555
O23 S4 1.503031 1_555
O23 U4 2.404318 1_655
O23 Rb0 3.325488 1_545
O24 U3 1.804786 1_555
O24 Rb2 3.104306 1_455
O25 S3 1.505085 1_555
O25 U8 2.393569 1_455
O25 Rb7 3.194840 1_555
O26 S7 1.503210 1_555
O26 U1 2.397739 1_655
O26 Rb10 3.072890 1_555
O27 S7 1.499612 1_555
O27 U8 2.380103 1_555
O28 U5 1.805523 1_555
O28 Rb5 3.353205 1_655
O29 U7 1.804786 1_555
O29 Rb4 3.104306 1_655
O30 S8 1.457015 1_555
O30 Rb1 2.972552 1_555
O30 Rb9 2.992377 1_554
O31 S7 1.502592 1_555
O31 U1 2.428587 1_555
O31 Rb4 3.149921 1_555
O32 S10 1.502764 1_555
O32 U3 2.442555 1_555
O32 Rb9 3.172062 1_555
O33 S6 1.502764 1_555
O33 U7 2.442555 1_555
O33 Rb10 3.172062 1_555
O34 S1 1.456925 1_555
O34 Rb8 2.934913 1_555
O34 Rb5 2.966340 1_555
O35 U1 1.804497 1_555
O35 Rb10 3.342329 1_455
O36 S3 1.502764 1_555
O36 U8 2.442555 1_555
O36 Rb3 3.172062 1_555
O37 S11 1.505085 1_555
O37 U2 2.393569 1_655
O37 Rb8 3.194840 1_555
O38 S11 1.502590 1_555
O38 U10 2.392486 1_555
O38 Rb11 3.180952 1_555
O39 S6 1.502590 1_555
O39 U4 2.392486 1_555
O39 Rb10 3.180952 1_555
O40 S7 1.456925 1_555
O40 Rb7 2.934913 1_555
O40 Rb0 2.966340 1_555
O41 U6 1.807862 1_555
O41 Rb1 3.220035 1_556
O42 U7 1.807075 1_565
O42 Rb0 3.096788 1_555
O43 S8 1.503031 1_556
O43 U6 2.404318 1_455
O43 Rb5 3.325488 1_545
O44 S8 1.501884 1_566
O44 U6 2.413913 1_565
O44 Rb3 3.188676 1_556
O45 S0 1.503210 1_565
O45 U11 2.397739 1_455
O45 Rb11 3.072890 1_555
O46 U2 1.807075 1_555
O46 Rb6 3.096788 1_555
O47 S2 1.502592 1_565
O47 U9 2.428587 1_555
O47 Rb7 3.149921 1_555
O48 S4 1.500139 1_565
O48 U11 2.377628 1_555
O48 Rb11 3.204741 1_555
O49 S3 1.502590 1_555
O49 U0 2.392486 1_555
O49 Rb3 3.180952 1_555
O50 S9 1.503031 1_554
O50 U0 2.404318 1_655
O50 Rb1 3.325488 1_555
O51 U8 1.807075 1_555
O51 Rb1 3.096788 1_555
O52 U11 1.805523 1_545
O52 Rb6 3.353205 1_655
O53 S10 1.502590 1_555
O53 U6 2.392486 1_555
O53 Rb9 3.180952 1_555
O54 S1 1.499612 1_555
O54 U2 2.380103 1_555
O55 S3 1.456377 1_555
O55 Rb4 2.937896 1_555
O55 Rb1 2.970224 1_555
O56 U10 1.807862 1_555
O56 Rb0 3.220035 1_555
O57 S0 1.502592 1_565
O57 U11 2.428587 1_555
O57 Rb8 3.149921 1_555
O58 U0 1.802188 1_555
O58 Rb1 3.008188 1_455
O59 S0 1.499612 1_565
O59 U3 2.380103 1_565
O60 U10 1.802188 1_555
O60 Rb6 3.008188 1_655
O61 S11 1.456377 1_555
O61 Rb2 2.937896 1_555
O61 Rb6 2.970224 1_555
O62 U8 1.804786 1_555
O62 Rb7 3.104306 1_655
O63 U1 1.805523 1_555
O63 Rb0 3.353205 1_455
O64 U5 1.804497 1_555
O64 Rb9 3.342329 1_655
O65 S8 1.500139 1_565
O65 U9 2.377628 1_555
O65 Rb3 3.204741 1_555
O66 S11 1.502764 1_555
O66 U2 2.442555 1_555
O66 Rb11 3.172062 1_555
O67 S2 1.456925 1_555
O67 Rb4 2.934913 1_555
O67 Rb1 2.966340 1_555
O68 U6 1.802188 1_565
O68 Rb5 3.008188 1_655
O69 S5 1.501884 1_555
O69 U10 2.413913 1_555
O69 Rb10 3.188676 1_555
O70 S5 1.503031 1_555
O70 U10 2.404318 1_455
O70 Rb6 3.325488 1_555
O71 U11 1.804497 1_555
O71 Rb11 3.342329 1_655
F0 U5 2.340685 1_455
F0 U0 2.348975 1_556
F0 Rb9 3.233989 1_555
F1 U0 2.346842 1_655
F1 U8 2.349294 1_555
F1 Rb3 3.181198 1_555
F2 U9 2.340685 1_655
F2 U6 2.348975 1_564
F2 Rb3 3.233989 1_555
F3 U11 2.340685 1_455
F3 U4 2.348975 1_565
F3 Rb11 3.233989 1_555
F4 U1 2.337014 1_555
F4 U8 2.344331 1_455
F4 Rb4 3.199921 1_555
F5 U1 2.340685 1_655
F5 U10 2.348975 1_555
F5 Rb10 3.233989 1_555
F6 U5 2.337014 1_555
F6 U2 2.344331 1_655
F6 Rb2 3.199921 1_555
F7 U11 2.337014 1_555
F7 U3 2.344331 1_665
F7 Rb8 3.199921 1_555
F8 U4 2.346842 1_655
F8 U7 2.349294 1_555
F8 Rb10 3.181198 1_555
F9 U6 2.346842 1_455
F9 U3 2.349294 1_555
F9 Rb9 3.181198 1_555
F10 U9 2.337014 1_555
F10 U7 2.344331 1_465
F10 Rb7 3.199921 1_555
F11 U10 2.346842 1_455
F11 U2 2.349294 1_555
F11 Rb11 3.181198 1_555
