# generated using pymatgen
data_Ce10Si8O3
_symmetry_space_group_name_H-M   'P 1'
_cell_length_a   10.80529404
_cell_length_b   10.80543521
_cell_length_c   4.54456668
_cell_angle_alpha   90.00000000
_cell_angle_beta   90.00000000
_cell_angle_gamma   120.00248244
_symmetry_Int_Tables_number   1
_chemical_formula_structural   Ce10Si8O3
_chemical_formula_sum   'Ce10 Si8 O3'
_cell_volume   459.50590932
_cell_formula_units_Z   1
loop_
 _symmetry_equiv_pos_site_id
 _symmetry_equiv_pos_as_xyz
  1  'x, y, z'
loop_
 _atom_site_type_symbol
 _atom_site_label
 _atom_site_symmetry_multiplicity
 _atom_site_fract_x
 _atom_site_fract_y
 _atom_site_fract_z
 _atom_site_occupancy
  Ce  Ce0  1  0.21054362  0.78937980  -0.00000000  1
  Ce  Ce1  1  0.21060875  0.42117481  -0.00000000  1
  Ce  Ce2  1  0.50001362  0.00001497  0.50000000  1
  Ce  Ce3  1  0.78940168  0.57883853  0.00000000  1
  Ce  Ce4  1  0.42116459  0.21063397  -0.00000000  1
  Ce  Ce5  1  -0.00001507  -0.00000866  -0.00000000  1
  Ce  Ce6  1  0.57884007  0.78936155  0.00000000  1
  Ce  Ce7  1  0.99999529  0.50000220  0.50000000  1
  Ce  Ce8  1  0.78946391  0.21061420  -0.00000000  1
  Ce  Ce9  1  0.50001025  0.50001975  0.50000000  1
  Si  Si0  1  0.66666599  0.33335181  0.50000000  1
  Si  Si1  1  -0.00001099  0.78022354  0.50000000  1
  Si  Si2  1  0.33334691  0.66665243  0.50000000  1
  Si  Si3  1  0.21977621  0.21978645  0.50000000  1
  Si  Si4  1  0.78021112  0.78021578  0.50000000  1
  Si  Si5  1  0.78022511  0.99998388  0.50000000  1
  Si  Si6  1  0.21976780  0.00000692  0.50000000  1
  Si  Si7  1  0.00000943  0.21977823  0.50000000  1
  O  O0  1  0.50001314  0.49996199  -0.00000000  1
  O  O1  1  0.50001382  0.00003356  -0.00000000  1
  O  O2  1  0.99995478  0.49997330  -0.00000000  1
loop_
_geom_bond_atom_site_label_1
_geom_bond_atom_site_label_2
_geom_bond_distance
_geom_bond_site_symmetry_2
Ce0 O2 2.800111 1_455
Ce0 O1 2.800756 1_565
Ce0 Si1 3.181831 1_554
Ce0 Si1 3.181831 1_555
Ce0 Si6 3.182161 1_565
Ce0 Si6 3.182161 1_564
Ce0 Si2 3.231471 1_555
Ce0 Si2 3.231471 1_554
Ce1 O0 2.800200 1_555
Ce1 O2 2.800743 1_455
Ce1 Si3 3.181827 1_555
Ce1 Si3 3.181827 1_554
Ce1 Si7 3.181959 1_555
Ce1 Si7 3.181959 1_554
Ce1 Si2 3.231067 1_555
Ce1 Si2 3.231067 1_554
Ce2 O1 2.272283 1_556
Ce2 O1 2.272283 1_555
Ce2 Si5 3.027936 1_545
Ce2 Si6 3.028095 1_555
Ce2 Si0 3.119215 1_555
Ce2 Si2 3.119456 1_545
Ce3 O0 2.799790 1_555
Ce3 O2 2.800204 1_555
Ce3 Si4 3.181836 1_554
Ce3 Si4 3.181836 1_555
Ce3 Si1 3.181870 1_655
Ce3 Si1 3.181870 1_654
Ce3 Si0 3.231128 1_555
Ce3 Si0 3.231128 1_554
Ce4 O0 2.799278 1_555
Ce4 O1 2.800595 1_555
Ce4 Si3 3.181747 1_554
Ce4 Si3 3.181747 1_555
Ce4 Si6 3.182074 1_554
Ce4 Si6 3.182074 1_555
Ce4 Si0 3.231204 1_555
Ce4 Si0 3.231204 1_554
Ce5 Si5 3.286588 1_444
Ce5 Si5 3.286588 1_445
Ce5 Si4 3.286680 1_444
Ce5 Si4 3.286680 1_445
Ce5 Si1 3.286718 1_544
Ce5 Si1 3.286718 1_545
Ce5 Si6 3.286736 1_554
Ce5 Si6 3.286736 1_555
Ce5 Si7 3.286755 1_555
Ce5 Si7 3.286755 1_554
Ce5 Si3 3.286824 1_554
Ce5 Si3 3.286824 1_555
Ce6 O0 2.800083 1_555
Ce6 O1 2.801164 1_565
Ce6 Si4 3.181589 1_555
Ce6 Si4 3.181589 1_554
Ce6 Si5 3.182013 1_554
Ce6 Si5 3.182013 1_555
Ce6 Si2 3.231149 1_555
Ce6 Si2 3.231149 1_554
Ce7 O2 2.272283 1_556
Ce7 O2 2.272283 1_555
Ce7 Si1 3.027947 1_655
Ce7 Si7 3.028018 1_655
Ce7 Si0 3.119104 1_555
Ce7 Si2 3.119313 1_655
Ce8 O2 2.799478 1_555
Ce8 O1 2.800401 1_555
Ce8 Si7 3.181735 1_655
Ce8 Si7 3.181735 1_654
Ce8 Si5 3.182134 1_544
Ce8 Si5 3.182134 1_545
Ce8 Si0 3.231503 1_554
Ce8 Si0 3.231503 1_555
Ce9 O0 2.272283 1_556
Ce9 O0 2.272283 1_555
Ce9 Si4 3.027533 1_555
Ce9 Si3 3.027913 1_555
Ce9 Si2 3.118930 1_555
Ce9 Si0 3.119189 1_555
Si1 Si4 2.374723 1_455
Si1 Si6 2.374726 1_565
Si3 Si7 2.374600 1_555
Si3 Si6 2.374768 1_555
Si4 Si5 2.374614 1_555
Si5 Si7 2.374815 1_665
