# generated using pymatgen
data_ZrPbO3
_symmetry_space_group_name_H-M   'P 1'
_cell_length_a   5.97892400
_cell_length_b   8.31703500
_cell_length_c   11.94582300
_cell_angle_alpha   90.00000000
_cell_angle_beta   90.00000000
_cell_angle_gamma   90.00000000
_symmetry_Int_Tables_number   1
_chemical_formula_structural   ZrPbO3
_chemical_formula_sum   'Zr8 Pb8 O24'
_cell_volume   594.02898669
_cell_formula_units_Z   8
loop_
 _symmetry_equiv_pos_site_id
 _symmetry_equiv_pos_as_xyz
  1  'x, y, z'
loop_
 _atom_site_type_symbol
 _atom_site_label
 _atom_site_symmetry_multiplicity
 _atom_site_fract_x
 _atom_site_fract_y
 _atom_site_fract_z
 _atom_site_occupancy
  Zr  Zr0  1  0.75817800  0.24981100  0.87578600  1
  Zr  Zr1  1  0.25817800  0.75018900  0.62421400  1
  Zr  Zr2  1  0.24182200  0.24981100  0.12421400  1
  Zr  Zr3  1  0.74182200  0.75018900  0.37578600  1
  Zr  Zr4  1  0.24182200  0.75018900  0.12421400  1
  Zr  Zr5  1  0.74182200  0.24981100  0.37578600  1
  Zr  Zr6  1  0.75817800  0.75018900  0.87578600  1
  Zr  Zr7  1  0.25817800  0.24981100  0.62421400  1
  Pb  Pb0  1  0.30439500  0.00000000  0.87641800  1
  Pb  Pb1  1  0.80439500  0.00000000  0.62358200  1
  Pb  Pb2  1  0.69560500  0.00000000  0.12358200  1
  Pb  Pb3  1  0.19560500  0.00000000  0.37641800  1
  Pb  Pb4  1  0.29246000  0.50000000  0.87180800  1
  Pb  Pb5  1  0.79246000  0.50000000  0.62819200  1
  Pb  Pb6  1  0.70754000  0.50000000  0.12819200  1
  Pb  Pb7  1  0.20754000  0.50000000  0.37180800  1
  O  O0  1  0.72439600  0.00000000  0.84274300  1
  O  O1  1  0.22439600  0.00000000  0.65725700  1
  O  O2  1  0.27560400  0.00000000  0.15725700  1
  O  O3  1  0.77560400  0.00000000  0.34274300  1
  O  O4  1  0.69725100  0.50000000  0.90574800  1
  O  O5  1  0.19725100  0.50000000  0.59425200  1
  O  O6  1  0.30274900  0.50000000  0.09425200  1
  O  O7  1  0.80274900  0.50000000  0.40574800  1
  O  O8  1  0.96418500  0.28137400  0.73760000  1
  O  O9  1  0.46418500  0.71862600  0.76240000  1
  O  O10  1  0.03581500  0.28137400  0.26240000  1
  O  O11  1  0.53581500  0.71862600  0.23760000  1
  O  O12  1  0.03581500  0.71862600  0.26240000  1
  O  O13  1  0.53581500  0.28137400  0.23760000  1
  O  O14  1  0.96418500  0.71862600  0.73760000  1
  O  O15  1  0.46418500  0.28137400  0.76240000  1
  O  O16  1  0.00000000  0.20085300  0.50000000  1
  O  O17  1  0.50000000  0.79914700  0.00000000  1
  O  O18  1  0.00000000  0.79914700  0.50000000  1
  O  O19  1  0.50000000  0.20085300  0.00000000  1
  O  O20  1  0.00000000  0.23200300  0.00000000  1
  O  O21  1  0.50000000  0.76799700  0.50000000  1
  O  O22  1  0.00000000  0.76799700  0.00000000  1
  O  O23  1  0.50000000  0.23200300  0.50000000  1
loop_
_geom_bond_atom_site_label_1
_geom_bond_atom_site_label_2
_geom_bond_distance
_geom_bond_site_symmetry_2
O0 Zr6 2.124473 1_545
O0 Zr0 2.124473 1_555
O0 Pb0 2.543171 1_555
O0 Pb1 2.661392 1_555
O1 Zr7 2.124473 1_555
O1 Zr1 2.124473 1_545
O1 Pb1 2.543171 1_455
O1 Pb0 2.661392 1_555
O2 Zr2 2.124473 1_555
O2 Zr4 2.124473 1_545
O2 Pb2 2.543171 1_555
O2 Pb3 2.661392 1_555
O3 Zr5 2.124473 1_555
O3 Zr3 2.124473 1_545
O3 Pb3 2.543171 1_655
O3 Pb2 2.661392 1_555
O4 Zr0 2.142583 1_555
O4 Zr6 2.142583 1_555
O4 Pb4 2.453940 1_555
O4 Pb6 2.657989 1_556
O5 Zr7 2.142583 1_555
O5 Zr1 2.142583 1_555
O5 Pb5 2.453940 1_455
O5 Pb7 2.657989 1_555
O6 Zr2 2.142583 1_555
O6 Zr4 2.142583 1_555
O6 Pb6 2.453940 1_555
O6 Pb4 2.657989 1_554
O7 Zr3 2.142583 1_555
O7 Zr5 2.142583 1_555
O7 Pb7 2.453940 1_655
O7 Pb5 2.657989 1_555
O8 Zr0 2.076285 1_555
O8 Zr7 2.234565 1_655
O8 Pb5 2.463459 1_555
O9 Zr1 2.076285 1_555
O9 Zr6 2.234565 1_555
O9 Pb4 2.463459 1_555
O10 Zr2 2.076285 1_555
O10 Zr5 2.234565 1_455
O10 Pb7 2.463459 1_555
O11 Zr3 2.076285 1_555
O11 Zr4 2.234565 1_555
O11 Pb6 2.463459 1_555
O12 Zr4 2.076285 1_555
O12 Zr3 2.234565 1_455
O12 Pb7 2.463459 1_555
O13 Zr5 2.076285 1_555
O13 Zr2 2.234565 1_555
O13 Pb6 2.463459 1_555
O14 Zr6 2.076285 1_555
O14 Zr1 2.234565 1_655
O14 Pb5 2.463459 1_555
O15 Zr7 2.076285 1_555
O15 Zr0 2.234565 1_555
O15 Pb4 2.463459 1_555
O16 Zr5 2.179532 1_455
O16 Zr7 2.179532 1_555
O16 Pb1 2.517489 1_455
O16 Pb3 2.517489 1_555
O17 Zr4 2.179532 1_555
O17 Zr6 2.179532 1_554
O17 Pb0 2.517489 1_564
O17 Pb2 2.517489 1_565
O18 Zr3 2.179532 1_455
O18 Zr1 2.179532 1_555
O18 Pb1 2.517489 1_465
O18 Pb3 2.517489 1_565
O19 Zr2 2.179532 1_555
O19 Zr0 2.179532 1_554
O19 Pb0 2.517489 1_554
O19 Pb2 2.517489 1_555
O20 Zr2 2.077054 1_555
O20 Zr0 2.077054 1_454
O21 Zr3 2.077054 1_555
O21 Zr1 2.077054 1_555
O22 Zr4 2.077054 1_555
O22 Zr6 2.077054 1_454
O23 Zr5 2.077054 1_555
O23 Zr7 2.077054 1_555
