# generated using pymatgen
data_CrH9(CN2)3
_symmetry_space_group_name_H-M   'P 1'
_cell_length_a   7.43676136
_cell_length_b   7.43676136
_cell_length_c   7.43676170
_cell_angle_alpha   97.87808556
_cell_angle_beta   97.87808558
_cell_angle_gamma   97.87808194
_symmetry_Int_Tables_number   1
_chemical_formula_structural   CrH9(CN2)3
_chemical_formula_sum   'Cr2 H18 C6 N12'
_cell_volume   398.44293251
_cell_formula_units_Z   2
loop_
 _symmetry_equiv_pos_site_id
 _symmetry_equiv_pos_as_xyz
  1  'x, y, z'
loop_
 _atom_site_type_symbol
 _atom_site_label
 _atom_site_symmetry_multiplicity
 _atom_site_fract_x
 _atom_site_fract_y
 _atom_site_fract_z
 _atom_site_occupancy
  Cr  Cr0  1  0.00000000  0.00000000  -0.00000000  1
  Cr  Cr1  1  0.50000000  0.50000000  0.50000000  1
  H  H0  1  0.39813811  0.73498397  0.75583142  1
  H  H1  1  0.75583142  0.39813811  0.73498397  1
  H  H2  1  0.73498397  0.75583142  0.39813811  1
  H  H3  1  0.60186189  0.26501603  0.24416858  1
  H  H4  1  0.24416858  0.60186189  0.26501603  1
  H  H5  1  0.26501603  0.24416858  0.60186189  1
  H  H6  1  0.67130495  0.56413242  0.84505140  1
  H  H7  1  0.84505140  0.67130495  0.56413242  1
  H  H8  1  0.56413242  0.84505140  0.67130495  1
  H  H9  1  0.32869505  0.43586758  0.15494860  1
  H  H10  1  0.15494860  0.32869505  0.43586758  1
  H  H11  1  0.43586758  0.15494860  0.32869505  1
  H  H12  1  0.55755617  0.35511037  0.80671953  1
  H  H13  1  0.80671953  0.55755617  0.35511037  1
  H  H14  1  0.35511037  0.80671953  0.55755617  1
  H  H15  1  0.44244383  0.64488963  0.19328047  1
  H  H16  1  0.19328047  0.44244383  0.64488963  1
  H  H17  1  0.64488963  0.19328047  0.44244383  1
  C  C0  1  0.05149408  0.75615848  0.86930292  1
  C  C1  1  0.86930292  0.05149408  0.75615848  1
  C  C2  1  0.75615848  0.86930292  0.05149408  1
  C  C3  1  0.94850592  0.24384152  0.13069708  1
  C  C4  1  0.13069708  0.94850592  0.24384152  1
  C  C5  1  0.24384152  0.13069708  0.94850592  1
  N  N0  1  0.07752292  0.61804898  0.78934988  1
  N  N1  1  0.78934988  0.07752292  0.61804898  1
  N  N2  1  0.61804898  0.78934988  0.07752292  1
  N  N3  1  0.92247708  0.38195102  0.21065012  1
  N  N4  1  0.21065012  0.92247708  0.38195102  1
  N  N5  1  0.38195102  0.21065012  0.92247708  1
  N  N6  1  0.63672552  0.44858378  0.74810075  1
  N  N7  1  0.74810075  0.63672552  0.44858378  1
  N  N8  1  0.44858378  0.74810075  0.63672552  1
  N  N9  1  0.36327448  0.55141622  0.25189925  1
  N  N10  1  0.25189925  0.36327448  0.55141622  1
  N  N11  1  0.55141622  0.25189925  0.36327448  1
loop_
_geom_bond_atom_site_label_1
_geom_bond_atom_site_label_2
_geom_bond_distance
_geom_bond_site_symmetry_2
Cr1 N11 2.090465 1_555
Cr1 N8 2.090465 1_555
Cr1 N9 2.090465 1_555
Cr1 N6 2.090465 1_555
Cr1 N10 2.090465 1_555
Cr1 N7 2.090465 1_555
H0 N8 1.019596 1_555
H1 N6 1.019596 1_555
H2 N7 1.019596 1_555
H3 N11 1.019596 1_555
H4 N9 1.019596 1_555
H5 N10 1.019596 1_555
H6 N6 1.021340 1_555
H7 N7 1.021340 1_555
H8 N8 1.021340 1_555
H9 N9 1.021340 1_555
H10 N10 1.021340 1_555
H11 N11 1.021340 1_555
H12 N6 1.030114 1_555
H13 N7 1.030114 1_555
H14 N8 1.030114 1_555
H15 N9 1.030114 1_555
H16 N10 1.030114 1_555
H17 N11 1.030114 1_555
C0 N0 1.168143 1_555
C0 Cr0 2.046700 1_566
C1 N1 1.168143 1_555
C1 Cr0 2.046700 1_656
C2 N2 1.168143 1_555
C2 Cr0 2.046700 1_665
C3 N3 1.168143 1_555
C3 Cr0 2.046700 1_655
C4 N4 1.168143 1_555
C4 Cr0 2.046700 1_565
C5 N5 1.168143 1_555
C5 Cr0 2.046700 1_556
