# generated using pymatgen
data_Na8Nb2Cu4S21
_symmetry_space_group_name_H-M   'P 1'
_cell_length_a   6.82454000
_cell_length_b   7.86123500
_cell_length_c   30.12153500
_cell_angle_alpha   90.00000000
_cell_angle_beta   90.00000000
_cell_angle_gamma   90.00000000
_symmetry_Int_Tables_number   1
_chemical_formula_structural   Na8Nb2Cu4S21
_chemical_formula_sum   'Na16 Nb4 Cu8 S42'
_cell_volume   1615.99965043
_cell_formula_units_Z   2
loop_
 _symmetry_equiv_pos_site_id
 _symmetry_equiv_pos_as_xyz
  1  'x, y, z'
loop_
 _atom_site_type_symbol
 _atom_site_label
 _atom_site_symmetry_multiplicity
 _atom_site_fract_x
 _atom_site_fract_y
 _atom_site_fract_z
 _atom_site_occupancy
  Na  Na0  1  0.44249800  0.23931400  0.75906400  1
  Na  Na1  1  0.85738400  0.24834800  0.85276900  1
  Na  Na2  1  0.83650600  0.23501700  0.14239100  1
  Na  Na3  1  0.24028300  0.00000000  0.50000000  1
  Na  Na4  1  0.14261600  0.74834800  0.64723100  1
  Na  Na5  1  0.16349400  0.26498300  0.64239100  1
  Na  Na6  1  0.55750200  0.26068600  0.25906400  1
  Na  Na7  1  0.16349400  0.73501700  0.35760900  1
  Na  Na8  1  0.14261600  0.25165200  0.35276900  1
  Na  Na9  1  0.75971700  0.50000000  0.00000000  1
  Na  Na10  1  0.54002700  0.50000000  0.50000000  1
  Na  Na11  1  0.83650600  0.76498300  0.85760900  1
  Na  Na12  1  0.55750200  0.73931400  0.74093600  1
  Na  Na13  1  0.45997300  0.00000000  0.00000000  1
  Na  Na14  1  0.44249800  0.76068600  0.24093600  1
  Na  Na15  1  0.85738400  0.75165200  0.14723100  1
  Nb  Nb0  1  0.46001100  0.50057400  0.10726100  1
  Nb  Nb1  1  0.46001100  0.49942600  0.89273900  1
  Nb  Nb2  1  0.53998900  0.99942600  0.60726100  1
  Nb  Nb3  1  0.53998900  0.00057400  0.39273900  1
  Cu  Cu0  1  0.22567800  0.75134200  0.06893700  1
  Cu  Cu1  1  0.22376100  0.25174500  0.06731100  1
  Cu  Cu2  1  0.77432200  0.74865800  0.56893700  1
  Cu  Cu3  1  0.22567800  0.24865800  0.93106300  1
  Cu  Cu4  1  0.77432200  0.25134200  0.43106300  1
  Cu  Cu5  1  0.22376100  0.74825500  0.93268900  1
  Cu  Cu6  1  0.77623900  0.75174500  0.43268900  1
  Cu  Cu7  1  0.77623900  0.24825500  0.56731100  1
  S  S0  1  0.41394300  0.99622000  0.32179200  1
  S  S1  1  0.19569800  0.84854900  0.79157100  1
  S  S2  1  0.00473000  0.01229800  0.24761100  1
  S  S3  1  0.07856000  0.21912000  0.99925000  1
  S  S4  1  0.68634900  0.49152200  0.33917500  1
  S  S5  1  0.88141700  0.99980200  0.39595400  1
  S  S6  1  0.92144000  0.28088000  0.49925000  1
  S  S7  1  0.43770800  0.23374100  0.56738100  1
  S  S8  1  0.87617900  0.49945200  0.60620800  1
  S  S9  1  0.19569800  0.15145100  0.20842900  1
  S  S10  1  0.56542700  0.25985700  0.92987400  1
  S  S11  1  0.25392800  0.49958000  0.71093500  1
  S  S12  1  0.92144000  0.71912000  0.50075000  1
  S  S13  1  0.43457300  0.75985700  0.57012600  1
  S  S14  1  0.58605700  0.49622000  0.17820800  1
  S  S15  1  0.09402600  0.50000000  0.50000000  1
  S  S16  1  0.31365100  0.00847800  0.83917500  1
  S  S17  1  0.41394300  0.00378000  0.67820800  1
  S  S18  1  0.90597400  0.00000000  0.00000000  1
  S  S19  1  0.07856000  0.78088000  0.00075000  1
  S  S20  1  0.11858300  0.49980200  0.10404600  1
  S  S21  1  0.43457300  0.24014300  0.42987400  1
  S  S22  1  0.74607200  0.99958000  0.78906500  1
  S  S23  1  0.12382100  0.00054800  0.10620800  1
  S  S24  1  0.11858300  0.50019800  0.89595400  1
  S  S25  1  0.99527000  0.48770200  0.74761100  1
  S  S26  1  0.87617900  0.50054800  0.39379200  1
  S  S27  1  0.80430200  0.34854900  0.70842900  1
  S  S28  1  0.99527000  0.51229800  0.25238900  1
  S  S29  1  0.56542700  0.74014300  0.07012600  1
  S  S30  1  0.80430200  0.65145100  0.29157100  1
  S  S31  1  0.68634900  0.50847800  0.66082500  1
  S  S32  1  0.43770800  0.76625900  0.43261900  1
  S  S33  1  0.25392800  0.50042000  0.28906500  1
  S  S34  1  0.00473000  0.98770200  0.75238900  1
  S  S35  1  0.88141700  0.00019800  0.60404600  1
  S  S36  1  0.56229200  0.26625900  0.06738100  1
  S  S37  1  0.12382100  0.99945200  0.89379200  1
  S  S38  1  0.58605700  0.50378000  0.82179200  1
  S  S39  1  0.56229200  0.73374100  0.93261900  1
  S  S40  1  0.31365100  0.99152200  0.16082500  1
  S  S41  1  0.74607200  0.00042000  0.21093500  1
loop_
_geom_bond_atom_site_label_1
_geom_bond_atom_site_label_2
_geom_bond_distance
_geom_bond_site_symmetry_2
Na0 S11 2.818505 1_555
Na0 S22 2.942877 1_545
Na0 S38 2.975281 1_555
Na0 S27 3.026604 1_555
Na0 S17 3.065624 1_555
Na0 S16 3.144689 1_555
Na1 S22 2.843162 1_545
Na1 S38 2.886427 1_555
Na1 S37 2.943051 1_645
Na1 S24 2.964696 1_655
Na1 S10 3.061411 1_555
Na2 S41 2.836342 1_555
Na2 S14 2.881262 1_555
Na2 S23 2.903448 1_655
Na2 S36 2.944038 1_555
Na2 S20 3.061478 1_655
Na2 S9 3.224486 1_655
Na3 S32 3.051401 1_545
Na3 S7 3.051401 1_555
Na3 S6 3.100136 1_455
Na3 S12 3.100136 1_445
Na3 S21 3.127908 1_555
Na3 S13 3.127908 1_545
Na4 S11 2.843162 1_555
Na4 S17 2.886427 1_565
Na4 S8 2.943051 1_455
Na4 S35 2.964696 1_465
Na4 S13 3.061411 1_555
Na5 S11 2.836342 1_555
Na5 S17 2.881262 1_555
Na5 S8 2.903448 1_455
Na5 S7 2.944038 1_555
Na5 S35 3.061478 1_455
Na5 S27 3.224486 1_455
Na6 S41 2.818505 1_555
Na6 S33 2.942877 1_555
Na6 S0 2.975281 1_545
Na6 S9 3.026604 1_555
Na6 S14 3.065624 1_555
Na6 S4 3.144689 1_555
Na7 S33 2.836342 1_555
Na7 S0 2.881262 1_555
Na7 S26 2.903448 1_455
Na7 S32 2.944038 1_555
Na7 S5 3.061478 1_455
Na7 S30 3.224486 1_455
Na8 S33 2.843162 1_555
Na8 S0 2.886427 1_545
Na8 S26 2.943051 1_455
Na8 S5 2.964696 1_445
Na8 S21 3.061411 1_555
Na9 S36 3.051401 1_555
Na9 S39 3.051401 1_554
Na9 S19 3.100136 1_655
Na9 S3 3.100136 1_654
Na9 S29 3.127908 1_555
Na9 S10 3.127908 1_554
Na10 S7 2.998019 1_555
Na10 S32 2.998019 1_555
Na10 S13 3.025355 1_555
Na10 S21 3.025355 1_555
Na10 S15 3.043752 1_555
Na10 S12 3.121401 1_555
Na10 S6 3.121401 1_555
Na11 S22 2.836342 1_555
Na11 S38 2.881262 1_555
Na11 S37 2.903448 1_655
Na11 S39 2.944038 1_555
Na11 S24 3.061478 1_655
Na11 S1 3.224486 1_655
Na12 S22 2.818505 1_555
Na12 S11 2.942877 1_555
Na12 S17 2.975281 1_565
Na12 S1 3.026604 1_555
Na12 S38 3.065624 1_555
Na12 S31 3.144689 1_555
Na13 S36 2.998019 1_555
Na13 S39 2.998019 1_544
Na13 S29 3.025355 1_545
Na13 S10 3.025355 1_554
Na13 S18 3.043752 1_555
Na13 S19 3.121401 1_545
Na13 S3 3.121401 1_554
Na14 S33 2.818505 1_555
Na14 S41 2.942877 1_565
Na14 S14 2.975281 1_555
Na14 S30 3.026604 1_555
Na14 S0 3.065624 1_555
Na14 S40 3.144689 1_555
Na15 S41 2.843162 1_565
Na15 S14 2.886427 1_555
Na15 S23 2.943051 1_665
Na15 S20 2.964696 1_655
Na15 S29 3.061411 1_555
Nb0 S14 2.303917 1_555
Nb0 S29 2.305557 1_555
Nb0 S36 2.307208 1_555
Nb0 S20 2.332108 1_555
Nb1 S38 2.303917 1_555
Nb1 S10 2.305557 1_555
Nb1 S39 2.307208 1_555
Nb1 S24 2.332108 1_555
Nb2 S17 2.303917 1_565
Nb2 S13 2.305557 1_555
Nb2 S7 2.307208 1_565
Nb2 S35 2.332108 1_565
Nb3 S0 2.303917 1_545
Nb3 S21 2.305557 1_555
Nb3 S32 2.307208 1_545
Nb3 S5 2.332108 1_545
Cu0 S19 2.297924 1_555
Cu0 S29 2.320578 1_555
Cu0 S20 2.358544 1_555
Cu0 S23 2.362522 1_565
Cu0 Na13 3.269487 1_565
Cu1 S3 2.291427 1_554
Cu1 S36 2.313135 1_555
Cu1 S20 2.354195 1_555
Cu1 S23 2.395294 1_555
Cu1 Na13 3.259757 1_555
Cu2 S12 2.297924 1_555
Cu2 S13 2.320578 1_555
Cu2 S35 2.358544 1_565
Cu2 S8 2.362522 1_555
Cu2 Na10 3.269487 1_555
Cu3 S3 2.297924 1_555
Cu3 S10 2.320578 1_555
Cu3 S24 2.358544 1_555
Cu3 S37 2.362522 1_545
Cu3 Na13 3.269487 1_556
Cu4 S6 2.297924 1_555
Cu4 S21 2.320578 1_555
Cu4 S5 2.358544 1_545
Cu4 S26 2.362522 1_555
Cu4 Na10 3.269487 1_555
Cu5 S19 2.291427 1_556
Cu5 S39 2.313135 1_555
Cu5 S24 2.354195 1_555
Cu5 S37 2.395294 1_555
Cu5 Na13 3.259757 1_566
Cu6 S12 2.291427 1_555
Cu6 S32 2.313135 1_555
Cu6 S5 2.354195 1_555
Cu6 S26 2.395294 1_555
Cu6 Na10 3.259757 1_555
Cu7 S6 2.291427 1_555
Cu7 S7 2.313135 1_555
Cu7 S35 2.354195 1_555
Cu7 S8 2.395294 1_555
Cu7 Na10 3.259757 1_555
S1 S16 2.069957 1_565
S1 S34 2.070768 1_555
S2 S9 2.070768 1_555
S2 S41 2.084508 1_455
S11 S25 2.084508 1_455
S12 S15 2.086855 1_655
S15 S6 2.086855 1_455
S16 S37 2.095202 1_545
S18 S19 2.086855 1_645
S18 S3 2.086855 1_654
S22 S34 2.084508 1_655
S23 S40 2.095202 1_545
S25 S27 2.070768 1_555
S26 S4 2.095202 1_555
S27 S31 2.069957 1_555
S28 S30 2.070768 1_555
S28 S33 2.084508 1_655
S30 S4 2.069957 1_555
S31 S8 2.095202 1_555
S40 S9 2.069957 1_565
