# generated using pymatgen
data_MgGaMo4O7
_symmetry_space_group_name_H-M   'P 1'
_cell_length_a   9.45350162
_cell_length_b   9.45350162
_cell_length_c   9.45350162
_cell_angle_alpha   144.08107258
_cell_angle_beta   142.07525901
_cell_angle_gamma   53.22553721
_symmetry_Int_Tables_number   1
_chemical_formula_structural   MgGaMo4O7
_chemical_formula_sum   'Mg2 Ga2 Mo8 O14'
_cell_volume   302.72640950
_cell_formula_units_Z   2
loop_
 _symmetry_equiv_pos_site_id
 _symmetry_equiv_pos_as_xyz
  1  'x, y, z'
loop_
 _atom_site_type_symbol
 _atom_site_label
 _atom_site_symmetry_multiplicity
 _atom_site_fract_x
 _atom_site_fract_y
 _atom_site_fract_z
 _atom_site_occupancy
  Mg  Mg0  1  0.00000000  0.50000000  0.50000000  1
  Mg  Mg1  1  0.50000000  0.50000000  0.00000000  1
  Ga  Ga0  1  0.69489400  0.94489400  0.75000000  1
  Ga  Ga1  1  0.30510600  0.05510600  0.25000000  1
  Mo  Mo0  1  0.11285400  0.63488500  0.02203100  1
  Mo  Mo1  1  0.22680200  0.74638000  0.48042200  1
  Mo  Mo2  1  0.77319800  0.25362000  0.51957800  1
  Mo  Mo3  1  0.88714600  0.36511500  0.97796900  1
  Mo  Mo4  1  0.23404200  0.25362000  0.98042200  1
  Mo  Mo5  1  0.11285400  0.09082300  0.47796900  1
  Mo  Mo6  1  0.88714600  0.90917700  0.52203100  1
  Mo  Mo7  1  0.76595800  0.74638000  0.01957800  1
  O  O0  1  0.24214000  0.24966400  0.50752400  1
  O  O1  1  0.24214000  0.73461700  0.99247600  1
  O  O2  1  0.61027200  0.12710400  0.48316900  1
  O  O3  1  0.09928700  0.62406200  0.47522400  1
  O  O4  1  0.90071300  0.37593800  0.52477600  1
  O  O5  1  0.85606500  0.87289600  0.98316900  1
  O  O6  1  0.38972800  0.87289600  0.51683100  1
  O  O7  1  0.14393500  0.12710400  0.01683100  1
  O  O8  1  0.50000000  0.00000000  0.00000000  1
  O  O9  1  0.64883800  0.62406200  0.02477600  1
  O  O10  1  0.35116200  0.37593800  0.97522400  1
  O  O11  1  0.75786000  0.75033600  0.49247600  1
  O  O12  1  0.75786000  0.26538300  0.00752400  1
  O  O13  1  0.50000000  0.50000000  0.50000000  1
loop_
_geom_bond_atom_site_label_1
_geom_bond_atom_site_label_2
_geom_bond_distance
_geom_bond_site_symmetry_2
Mg0 O1 2.091660 1_555
Mg0 O12 2.091660 1_455
Mg0 O0 2.091661 1_555
Mg0 O11 2.091661 1_455
Mg0 O3 2.102656 1_555
Mg0 O4 2.102656 1_455
Mg1 O11 2.091661 1_555
Mg1 O0 2.091661 1_554
Mg1 O1 2.091665 1_554
Mg1 O12 2.091665 1_555
Mg1 O9 2.102647 1_555
Mg1 O10 2.102647 1_554
Ga0 O12 1.840339 1_566
Ga0 O11 1.840346 1_555
Ga0 O6 1.879717 1_555
Ga0 O5 1.879725 1_555
Ga1 O1 1.840339 1_544
Ga1 O0 1.840346 1_555
Ga1 O2 1.879717 1_555
Ga1 O7 1.879725 1_555
Mo0 O4 2.116293 1_454
Mo0 O10 2.116295 1_554
Mo0 O5 2.117215 1_454
Mo0 O6 2.117216 1_555
Mo0 O1 2.192226 1_554
Mo1 O3 2.067888 1_555
Mo1 O6 2.150288 1_555
Mo1 O13 2.207043 1_555
Mo1 O8 2.207043 1_566
Mo2 O4 2.067888 1_555
Mo2 O2 2.150288 1_555
Mo2 O13 2.207043 1_555
Mo2 O8 2.207043 1_555
Mo3 O3 2.116293 1_656
Mo3 O9 2.116295 1_556
Mo3 O7 2.117215 1_656
Mo3 O2 2.117216 1_555
Mo3 O12 2.192226 1_556
Mo4 O10 2.067897 1_555
Mo4 O7 2.150279 1_556
Mo4 O8 2.207043 1_556
Mo4 O13 2.207043 1_556
Mo5 O10 2.116295 1_555
Mo5 O4 2.116298 1_455
Mo5 O5 2.117215 1_444
Mo5 O6 2.117219 1_545
Mo5 O0 2.192218 1_555
Mo6 O9 2.116295 1_555
Mo6 O3 2.116298 1_655
Mo6 O7 2.117215 1_666
Mo6 O2 2.117219 1_565
Mo6 O11 2.192218 1_555
Mo7 O9 2.067897 1_555
Mo7 O5 2.150279 1_554
Mo7 O13 2.207043 1_554
Mo7 O8 2.207043 1_565
