# generated using pymatgen
data_SmP4HO12
_symmetry_space_group_name_H-M   'P 1'
_cell_length_a   7.13619103
_cell_length_b   8.58230557
_cell_length_c   8.85916882
_cell_angle_alpha   99.10792329
_cell_angle_beta   112.20885944
_cell_angle_gamma   106.66363558
_symmetry_Int_Tables_number   1
_chemical_formula_structural   SmP4HO12
_chemical_formula_sum   'Sm2 P8 H2 O24'
_cell_volume   458.96248609
_cell_formula_units_Z   2
loop_
 _symmetry_equiv_pos_site_id
 _symmetry_equiv_pos_as_xyz
  1  'x, y, z'
loop_
 _atom_site_type_symbol
 _atom_site_label
 _atom_site_symmetry_multiplicity
 _atom_site_fract_x
 _atom_site_fract_y
 _atom_site_fract_z
 _atom_site_occupancy
  Sm  Sm0  1  0.09244447  0.26399740  0.25882804  1
  Sm  Sm1  1  0.90755553  0.73600260  0.74117196  1
  P  P0  1  0.61474824  0.28613522  0.58009359  1
  P  P1  1  0.38525176  0.71386478  0.41990641  1
  P  P2  1  0.07537950  0.38202755  0.65773871  1
  P  P3  1  0.92462050  0.61797245  0.34226129  1
  P  P4  1  0.21089108  0.18924157  0.89398446  1
  P  P5  1  0.78910892  0.81075843  0.10601554  1
  P  P6  1  0.57565753  0.12790056  0.84697312  1
  P  P7  1  0.42434247  0.87209944  0.15302688  1
  H  H0  1  0.48776657  0.85793345  0.74642659  1
  H  H1  1  0.51223343  0.14206655  0.25357341  1
  O  O0  1  0.67858673  0.45787672  0.69367302  1
  O  O1  1  0.32141327  0.54212328  0.30632698  1
  O  O2  1  0.44154182  0.22929770  0.40033426  1
  O  O3  1  0.55845818  0.77070230  0.59966574  1
  O  O4  1  0.54136963  0.14363723  0.66485697  1
  O  O5  1  0.45863037  0.85636277  0.33514303  1
  O  O6  1  0.82191554  0.25918469  0.57105748  1
  O  O7  1  0.17808446  0.74081531  0.42894252  1
  O  O8  1  0.10095172  0.56366241  0.69724726  1
  O  O9  1  0.89904828  0.43633759  0.30275274  1
  O  O10  1  0.17056367  0.31695485  0.55117838  1
  O  O11  1  0.82943633  0.68304515  0.44882162  1
  O  O12  1  0.16589805  0.34604206  0.83781012  1
  O  O13  1  0.83410195  0.65395794  0.16218988  1
  O  O14  1  0.05441080  0.02410841  0.76198089  1
  O  O15  1  0.94558920  0.97589159  0.23801911  1
  O  O16  1  0.23864806  0.21374194  0.07088105  1
  O  O17  1  0.76135194  0.78625806  0.92911895  1
  O  O18  1  0.44966830  0.22677905  0.90290143  1
  O  O19  1  0.55033170  0.77322095  0.09709857  1
  O  O20  1  0.80724195  0.19627309  0.97311452  1
  O  O21  1  0.19275805  0.80372691  0.02688548  1
  O  O22  1  0.44442795  0.93717586  0.81005690  1
  O  O23  1  0.55557205  0.06282414  0.18994310  1
loop_
_geom_bond_atom_site_label_1
_geom_bond_atom_site_label_2
_geom_bond_distance
_geom_bond_site_symmetry_2
H0 O22 1.003486 1_555
H0 O3 1.705784 1_555
H1 O23 1.003486 1_555
H1 O2 1.705784 1_555
O0 P0 1.480320 1_555
O0 Sm1 2.338788 1_555
O1 P1 1.480320 1_555
O1 Sm0 2.338788 1_555
O2 P0 1.490660 1_555
O2 Sm0 2.459514 1_555
O3 P1 1.490660 1_555
O3 Sm1 2.459514 1_555
O4 P6 1.571835 1_555
O4 P0 1.598272 1_555
O5 P7 1.571835 1_555
O5 P1 1.598272 1_555
O6 P0 1.589102 1_555
O6 P2 1.604012 1_655
O7 P1 1.589102 1_555
O7 P3 1.604012 1_455
O8 P2 1.483794 1_555
O8 Sm1 2.374504 1_455
O9 P3 1.483794 1_555
O9 Sm0 2.374504 1_655
O10 P2 1.483199 1_555
O10 Sm0 2.369782 1_555
O11 P3 1.483199 1_555
O11 Sm1 2.369782 1_555
O12 P4 1.581365 1_555
O12 P2 1.596542 1_555
O13 P5 1.581365 1_555
O13 P3 1.596542 1_555
O14 P4 1.484436 1_555
O14 Sm1 2.338719 1_445
O15 P5 1.484436 1_555
O15 Sm0 2.338719 1_665
O16 P4 1.475313 1_554
O16 Sm0 2.321848 1_555
O17 P5 1.475313 1_556
O17 Sm1 2.321848 1_555
O18 P6 1.554090 1_555
O18 P4 1.608996 1_555
O19 P7 1.554090 1_555
O19 P5 1.608996 1_555
O20 P6 1.471202 1_555
O20 Sm0 2.418336 1_656
O21 P7 1.471202 1_555
O21 Sm1 2.418336 1_454
O22 P6 1.543738 1_565
O23 P7 1.543738 1_545
