# generated using pymatgen
data_Gd2S2O
_symmetry_space_group_name_H-M   'P 1'
_cell_length_a   6.92776857
_cell_length_b   6.99944177
_cell_length_c   8.35495094
_cell_angle_alpha   90.00000000
_cell_angle_beta   99.22311822
_cell_angle_gamma   90.00000000
_symmetry_Int_Tables_number   1
_chemical_formula_structural   Gd2S2O
_chemical_formula_sum   'Gd8 S8 O4'
_cell_volume   399.89812623
_cell_formula_units_Z   4
loop_
 _symmetry_equiv_pos_site_id
 _symmetry_equiv_pos_as_xyz
  1  'x, y, z'
loop_
 _atom_site_type_symbol
 _atom_site_label
 _atom_site_symmetry_multiplicity
 _atom_site_fract_x
 _atom_site_fract_y
 _atom_site_fract_z
 _atom_site_occupancy
  Gd  Gd0  1  0.24923541  0.44554040  0.86236218  1
  Gd  Gd1  1  0.75076459  0.55445960  0.13763782  1
  Gd  Gd2  1  0.18273472  0.35982617  0.42240541  1
  Gd  Gd3  1  0.68273472  0.14017383  0.42240541  1
  Gd  Gd4  1  0.74923541  0.05445960  0.86236218  1
  Gd  Gd5  1  0.25076459  0.94554040  0.13763782  1
  Gd  Gd6  1  0.81726528  0.64017383  0.57759459  1
  Gd  Gd7  1  0.31726528  0.85982617  0.57759459  1
  S  S0  1  0.57014766  0.36116882  0.67861081  1
  S  S1  1  0.92985234  0.86116882  0.32138919  1
  S  S2  1  0.52973807  0.22357958  0.07760080  1
  S  S3  1  0.47026193  0.77642042  0.92239920  1
  S  S4  1  0.07014766  0.13883118  0.67861081  1
  S  S5  1  0.02973807  0.27642042  0.07760080  1
  S  S6  1  0.97026193  0.72357958  0.92239920  1
  S  S7  1  0.42985234  0.63883118  0.32138919  1
  O  O0  1  0.64908733  0.91296473  0.61711256  1
  O  O1  1  0.85091267  0.41296473  0.38288744  1
  O  O2  1  0.14908733  0.58703527  0.61711256  1
  O  O3  1  0.35091267  0.08703527  0.38288744  1
loop_
_geom_bond_atom_site_label_1
_geom_bond_atom_site_label_2
_geom_bond_distance
_geom_bond_site_symmetry_2
Gd0 O2 2.281470 1_555
Gd0 S3 2.777369 1_555
Gd0 S5 2.797152 1_556
Gd0 S4 2.809692 1_555
Gd0 S6 2.843403 1_455
Gd0 S2 2.881601 1_556
Gd0 S0 2.956764 1_555
Gd1 O1 2.281470 1_555
Gd1 S2 2.777369 1_555
Gd1 S6 2.797152 1_554
Gd1 S1 2.809692 1_555
Gd1 S5 2.843403 1_655
Gd1 S3 2.881601 1_554
Gd1 S7 2.956764 1_555
Gd2 O3 2.288127 1_555
Gd2 O1 2.299667 1_455
Gd2 O2 2.313318 1_555
Gd2 S7 2.814262 1_555
Gd2 S4 2.849279 1_555
Gd2 S5 2.963882 1_555
Gd2 S0 3.153394 1_555
Gd3 O1 2.288127 1_555
Gd3 O3 2.299667 1_555
Gd3 O0 2.313318 1_545
Gd3 S1 2.814262 1_545
Gd3 S0 2.849279 1_555
Gd3 S2 2.963882 1_555
Gd3 S4 3.153394 1_655
Gd4 O0 2.281470 1_545
Gd4 S6 2.777369 1_545
Gd4 S2 2.797152 1_556
Gd4 S0 2.809692 1_555
Gd4 S3 2.843403 1_545
Gd4 S5 2.881601 1_656
Gd4 S4 2.956764 1_655
Gd5 O3 2.281470 1_565
Gd5 S5 2.777369 1_565
Gd5 S3 2.797152 1_554
Gd5 S7 2.809692 1_555
Gd5 S2 2.843403 1_565
Gd5 S6 2.881601 1_454
Gd5 S1 2.956764 1_455
Gd6 O0 2.288127 1_555
Gd6 O2 2.299667 1_655
Gd6 O1 2.313318 1_555
Gd6 S0 2.814262 1_555
Gd6 S1 2.849279 1_555
Gd6 S6 2.963882 1_555
Gd6 S7 3.153394 1_555
Gd7 O2 2.288127 1_555
Gd7 O0 2.299667 1_555
Gd7 O3 2.313318 1_565
Gd7 S4 2.814262 1_565
Gd7 S7 2.849279 1_555
Gd7 S3 2.963882 1_555
Gd7 S1 3.153394 1_455
