# generated using pymatgen
data_RbPSe3
_symmetry_space_group_name_H-M   'P 1'
_cell_length_a   7.47413548
_cell_length_b   7.47387480
_cell_length_c   19.36625941
_cell_angle_alpha   89.99932197
_cell_angle_beta   90.00194187
_cell_angle_gamma   119.99734518
_symmetry_Int_Tables_number   1
_chemical_formula_structural   RbPSe3
_chemical_formula_sum   'Rb6 P6 Se18'
_cell_volume   936.90331963
_cell_formula_units_Z   6
loop_
 _symmetry_equiv_pos_site_id
 _symmetry_equiv_pos_as_xyz
  1  'x, y, z'
loop_
 _atom_site_type_symbol
 _atom_site_label
 _atom_site_symmetry_multiplicity
 _atom_site_fract_x
 _atom_site_fract_y
 _atom_site_fract_z
 _atom_site_occupancy
  Rb  Rb0  1  0.58151806  0.26738883  0.24828353  1
  Rb  Rb1  1  0.31413840  0.73258659  0.41842272  1
  Rb  Rb2  1  0.41848000  0.68585911  0.08504604  1
  Rb  Rb3  1  0.73260151  0.31413718  0.58161538  1
  Rb  Rb4  1  0.68584807  0.41844825  0.91491325  1
  Rb  Rb5  1  0.26738801  0.58152113  0.75172191  1
  P  P0  1  0.92432652  0.89650187  0.71937104  1
  P  P1  1  0.10346070  0.02778744  0.05268825  1
  P  P2  1  0.02783097  0.10353784  0.94727636  1
  P  P3  1  0.07569519  0.97220905  0.61396292  1
  P  P4  1  0.89651532  0.92432120  0.28064106  1
  P  P5  1  0.97215934  0.07569346  0.38605244  1
  Se  Se0  1  0.30002392  0.25675670  0.39308730  1
  Se  Se1  1  0.69996353  0.95676868  0.94025697  1
  Se  Se2  1  0.84064685  0.75845687  0.44659038  1
  Se  Se3  1  0.15936208  0.91782083  0.88674353  1
  Se  Se4  1  0.22001593  0.79449783  0.59175392  1
  Se  Se5  1  0.08218140  0.24160335  0.22007869  1
  Se  Se6  1  0.95670197  0.69994133  0.05971830  1
  Se  Se7  1  0.24162595  0.08218051  0.77991079  1
  Se  Se8  1  0.79437342  0.21993064  0.40827342  1
  Se  Se9  1  0.78003371  0.57445270  0.74157602  1
  Se  Se10  1  0.04327740  0.74323409  0.27362124  1
  Se  Se11  1  0.42548883  0.20546560  0.07489440  1
  Se  Se12  1  0.20562383  0.42556838  0.92506013  1
  Se  Se13  1  0.25678848  0.30005647  0.60695521  1
  Se  Se14  1  0.57450341  0.78001630  0.25842838  1
  Se  Se15  1  0.91782749  0.15945695  0.11324731  1
  Se  Se16  1  0.75841864  0.84058437  0.55342023  1
  Se  Se17  1  0.74318005  0.04321645  0.72638989  1
loop_
_geom_bond_atom_site_label_1
_geom_bond_atom_site_label_2
_geom_bond_distance
_geom_bond_site_symmetry_2
Rb0 Se0 3.482841 1_555
Rb0 Se11 3.508526 1_555
Rb0 Se10 3.539324 1_655
Rb0 Se8 3.580615 1_555
Rb0 Se14 3.621964 1_545
Rb0 Se5 3.680329 1_555
Rb0 Se14 3.862795 1_555
Rb0 Se5 3.880656 1_655
Rb0 Se15 3.979447 1_555
Rb0 Se10 4.001595 1_545
Rb1 Se10 3.482718 1_555
Rb1 Se4 3.507511 1_555
Rb1 Se0 3.538925 1_555
Rb1 Se14 3.581041 1_555
Rb1 Se8 3.621623 1_565
Rb1 Se2 3.680135 1_455
Rb1 Se8 3.863589 1_455
Rb1 Se2 3.880691 1_555
Rb1 Se16 3.979000 1_555
Rb1 Se0 4.001564 1_565
Rb2 Se1 3.482694 1_554
Rb2 Se14 3.508408 1_555
Rb2 Se6 3.539334 1_455
Rb2 Se12 3.580542 1_554
Rb2 Se11 3.622218 1_555
Rb2 Se15 3.680603 1_565
Rb2 Se11 3.862555 1_565
Rb2 Se15 3.880507 1_455
Rb2 Se5 3.979467 1_555
Rb2 Se6 4.001364 1_555
Rb3 Se17 3.482395 1_555
Rb3 Se8 3.507628 1_555
Rb3 Se13 3.539067 1_555
Rb3 Se9 3.580210 1_555
Rb3 Se4 3.622334 1_655
Rb3 Se16 3.680325 1_545
Rb3 Se4 3.862848 1_545
Rb3 Se16 3.880369 1_555
Rb3 Se2 3.979459 1_555
Rb3 Se13 4.001692 1_655
Rb4 Se6 3.482773 1_556
Rb4 Se9 3.507577 1_555
Rb4 Se1 3.538670 1_545
Rb4 Se11 3.580869 1_556
Rb4 Se12 3.621502 1_555
Rb4 Se3 3.680338 1_655
Rb4 Se12 3.863538 1_655
Rb4 Se3 3.880658 1_545
Rb4 Se7 3.978860 1_555
Rb4 Se1 4.001862 1_555
Rb5 Se13 3.482117 1_555
Rb5 Se12 3.507494 1_555
Rb5 Se17 3.538905 1_565
Rb5 Se4 3.580490 1_555
Rb5 Se9 3.621757 1_455
Rb5 Se7 3.680273 1_555
Rb5 Se9 3.863273 1_555
Rb5 Se7 3.880354 1_565
Rb5 Se3 3.979498 1_555
Rb5 Se17 4.001989 1_455
P0 Se17 2.130358 1_565
P0 Se9 2.132098 1_555
P0 P3 2.264354 1_655
P0 Se7 2.373529 1_665
P1 Se6 2.130283 1_445
P1 Se11 2.132007 1_555
P1 P2 2.264376 1_554
P1 Se15 2.373664 1_455
P2 Se1 2.130481 1_445
P2 Se12 2.132062 1_555
P2 Se3 2.373160 1_545
P3 Se13 2.130284 1_565
P3 Se4 2.131955 1_555
P3 Se16 2.373408 1_455
P4 Se10 2.130248 1_655
P4 Se14 2.131939 1_555
P4 P5 2.264373 1_565
P4 Se5 2.373633 1_665
P5 Se0 2.130474 1_655
P5 Se8 2.131991 1_555
P5 Se2 2.373166 1_545
