# generated using pymatgen
data_K2Cd(AuS)4
_symmetry_space_group_name_H-M   'P 1'
_cell_length_a   9.87541968
_cell_length_b   9.87541968
_cell_length_c   9.87541968
_cell_angle_alpha   137.68232384
_cell_angle_beta   113.56446310
_cell_angle_gamma   81.99821076
_symmetry_Int_Tables_number   1
_chemical_formula_structural   K2Cd(AuS)4
_chemical_formula_sum   'K4 Cd2 Au8 S8'
_cell_volume   574.91697709
_cell_formula_units_Z   2
loop_
 _symmetry_equiv_pos_site_id
 _symmetry_equiv_pos_as_xyz
  1  'x, y, z'
loop_
 _atom_site_type_symbol
 _atom_site_label
 _atom_site_symmetry_multiplicity
 _atom_site_fract_x
 _atom_site_fract_y
 _atom_site_fract_z
 _atom_site_occupancy
  K  K0  1  0.15172800  0.16138500  0.31311300  1
  K  K1  1  0.34827200  0.66138500  0.00965600  1
  K  K2  1  0.65172800  0.33861500  0.99034400  1
  K  K3  1  0.84827200  0.83861500  0.68688700  1
  Cd  Cd0  1  0.75000000  0.75000000  0.00000000  1
  Cd  Cd1  1  0.25000000  0.25000000  0.00000000  1
  Au  Au0  1  0.13737900  0.63737900  0.50000000  1
  Au  Au1  1  0.86262100  0.36262100  0.50000000  1
  Au  Au2  1  0.50000000  0.00000000  0.00000000  1
  Au  Au3  1  0.63737900  0.13737900  0.50000000  1
  Au  Au4  1  0.36262100  0.86262100  0.50000000  1
  Au  Au5  1  0.00000000  0.50000000  0.00000000  1
  Au  Au6  1  0.00000000  0.00000000  0.50000000  1
  Au  Au7  1  0.50000000  0.50000000  0.50000000  1
  S  S0  1  0.01908400  0.35019200  0.10811900  1
  S  S1  1  0.74207400  0.85019200  0.33110800  1
  S  S2  1  0.75792600  0.08903400  0.10811900  1
  S  S3  1  0.98091600  0.64980800  0.89188100  1
  S  S4  1  0.25792600  0.14980800  0.66889200  1
  S  S5  1  0.51908400  0.41096600  0.66889200  1
  S  S6  1  0.48091600  0.58903400  0.33110800  1
  S  S7  1  0.24207400  0.91096600  0.89188100  1
loop_
_geom_bond_atom_site_label_1
_geom_bond_atom_site_label_2
_geom_bond_distance
_geom_bond_site_symmetry_2
K0 S4 3.327442 1_555
K0 S5 3.327442 1_555
K0 S3 3.369852 1_444
K0 S7 3.369861 1_544
K0 S0 3.474538 1_555
K0 S2 3.474546 1_455
K1 S3 3.327442 1_454
K1 S7 3.327442 1_554
K1 S5 3.369847 1_554
K1 S4 3.369855 1_554
K1 S1 3.474547 1_555
K1 S6 3.474555 1_555
K2 S2 3.327442 1_556
K2 S0 3.327442 1_656
K2 S6 3.369847 1_556
K2 S1 3.369855 1_556
K2 S4 3.474547 1_555
K2 S5 3.474555 1_555
K3 S6 3.327442 1_555
K3 S1 3.327442 1_555
K3 S0 3.369852 1_666
K3 S2 3.369861 1_566
K3 S3 3.474538 1_555
K3 S7 3.474546 1_655
Cd0 S2 2.659971 1_565
Cd0 S1 2.659977 1_555
Cd0 S5 2.659977 1_554
Cd0 S3 2.659981 1_554
Cd1 S7 2.659971 1_544
Cd1 S6 2.659977 1_555
Cd1 S4 2.659977 1_554
Cd1 S0 2.659981 1_555
Au0 S7 2.336936 1_555
Au0 S0 2.336937 1_555
Au0 K0 3.565992 1_555
Au0 K3 3.565992 1_455
Au1 S2 2.336936 1_555
Au1 S3 2.336937 1_555
Au1 K0 3.565992 1_655
Au1 K3 3.565992 1_555
Au2 S2 2.337016 1_555
Au2 S7 2.337016 1_544
Au2 Cd0 3.239371 1_545
Au2 Cd1 3.239371 1_555
Au3 S5 2.336942 1_555
Au3 S1 2.336942 1_545
Au3 K1 3.565993 1_545
Au3 K2 3.566001 1_555
Au4 S4 2.336942 1_565
Au4 S6 2.336942 1_555
Au4 K2 3.565993 1_565
Au4 K1 3.566001 1_555
Au5 S0 2.337027 1_555
Au5 S3 2.337027 1_454
Au5 Cd1 3.239371 1_555
Au5 Cd0 3.239371 1_455
Au6 S1 2.337018 1_445
Au6 S4 2.337018 1_555
Au6 Cd0 3.239371 1_445
Au6 Cd1 3.239371 1_556
Au7 S5 2.337018 1_555
Au7 S6 2.337018 1_555
Au7 Cd1 3.239371 1_555
Au7 Cd0 3.239371 1_556
