# generated using pymatgen
data_CsCuF4
_symmetry_space_group_name_H-M   'P 1'
_cell_length_a   6.15641286
_cell_length_b   6.15383444
_cell_length_c   7.51845874
_cell_angle_alpha   114.12507087
_cell_angle_beta   114.12902842
_cell_angle_gamma   90.08690379
_symmetry_Int_Tables_number   1
_chemical_formula_structural   CsCuF4
_chemical_formula_sum   'Cs2 Cu2 F8'
_cell_volume   232.33646128
_cell_formula_units_Z   2
loop_
 _symmetry_equiv_pos_site_id
 _symmetry_equiv_pos_as_xyz
  1  'x, y, z'
loop_
 _atom_site_type_symbol
 _atom_site_label
 _atom_site_symmetry_multiplicity
 _atom_site_fract_x
 _atom_site_fract_y
 _atom_site_fract_z
 _atom_site_occupancy
  Cs  Cs0  1  0.24991925  0.25007144  0.50000710  1
  Cs  Cs1  1  0.75008075  0.74992856  0.49999290  1
  Cu  Cu0  1  -0.00000000  0.50000000  -0.00000000  1
  Cu  Cu1  1  0.50000000  0.00000000  -0.00000000  1
  F  F0  1  0.24406557  0.74394819  0.20139017  1
  F  F1  1  0.45761855  0.24361062  0.20152643  1
  F  F2  1  0.74368535  0.95772980  0.20152454  1
  F  F3  1  0.54238145  0.75638938  0.79847357  1
  F  F4  1  0.25631465  0.04227020  0.79847546  1
  F  F5  1  0.04235452  0.54230459  0.79836816  1
  F  F6  1  0.75593543  0.25605181  0.79860983  1
  F  F7  1  0.95764548  0.45769541  0.20163184  1
loop_
_geom_bond_atom_site_label_1
_geom_bond_atom_site_label_2
_geom_bond_distance
_geom_bond_site_symmetry_2
Cs0 F1 2.990978 1_555
Cs0 F4 2.991011 1_555
Cs0 F3 2.991601 1_555
Cs0 F2 2.991688 1_445
Cs0 F5 2.991969 1_555
Cs0 F7 2.992067 1_455
Cs0 F0 2.993314 1_545
Cs0 F6 2.993382 1_555
Cs1 F3 2.990978 1_555
Cs1 F2 2.991011 1_555
Cs1 F1 2.991601 1_555
Cs1 F4 2.991688 1_665
Cs1 F7 2.991969 1_555
Cs1 F5 2.992067 1_655
Cs1 F6 2.993312 1_565
Cs1 F0 2.993377 1_555
Cu0 F6 1.754684 1_454
Cu0 F0 1.754687 1_555
Cu0 F7 1.754850 1_455
Cu0 F5 1.754850 1_554
Cu1 F1 1.754657 1_555
Cu1 F3 1.754657 1_544
Cu1 F4 1.754700 1_554
Cu1 F2 1.754700 1_545
