# generated using pymatgen
data_GdMg(BO2)5
_symmetry_space_group_name_H-M   'P 1'
_cell_length_a   7.65121600
_cell_length_b   8.72523500
_cell_length_c   12.52205126
_cell_angle_alpha   48.82002345
_cell_angle_beta   90.00000000
_cell_angle_gamma   90.00000000
_symmetry_Int_Tables_number   1
_chemical_formula_structural   GdMg(BO2)5
_chemical_formula_sum   'Gd4 Mg4 B20 O40'
_cell_volume   629.17765027
_cell_formula_units_Z   4
loop_
 _symmetry_equiv_pos_site_id
 _symmetry_equiv_pos_as_xyz
  1  'x, y, z'
loop_
 _atom_site_type_symbol
 _atom_site_label
 _atom_site_symmetry_multiplicity
 _atom_site_fract_x
 _atom_site_fract_y
 _atom_site_fract_z
 _atom_site_occupancy
  Gd  Gd0  1  0.68948900  0.94918700  0.23815600  1
  Gd  Gd1  1  0.31051100  0.05081300  0.76184400  1
  Gd  Gd2  1  0.81051100  0.94918700  0.73815600  1
  Gd  Gd3  1  0.18948900  0.05081300  0.26184400  1
  Mg  Mg0  1  0.08978300  0.52187000  0.87369600  1
  Mg  Mg1  1  0.41021700  0.52187000  0.37369600  1
  Mg  Mg2  1  0.91021700  0.47813000  0.12630400  1
  Mg  Mg3  1  0.58978300  0.47813000  0.62630400  1
  B  B0  1  0.09791500  0.84617800  0.99902100  1
  B  B1  1  0.42154200  0.65330400  0.76163900  1
  B  B2  1  0.68796200  0.52001600  0.91259900  1
  B  B3  1  0.17202400  0.90862300  0.60656400  1
  B  B4  1  0.53103300  0.72523100  0.05366200  1
  B  B5  1  0.96896700  0.72523100  0.55366200  1
  B  B6  1  0.07845800  0.65330400  0.26163900  1
  B  B7  1  0.40208500  0.84617800  0.49902100  1
  B  B8  1  0.18796200  0.47998400  0.58740100  1
  B  B9  1  0.82797600  0.09137700  0.39343600  1
  B  B10  1  0.31203800  0.47998400  0.08740100  1
  B  B11  1  0.81203800  0.52001600  0.41259900  1
  B  B12  1  0.67202400  0.09137700  0.89343600  1
  B  B13  1  0.03103300  0.27476900  0.44633800  1
  B  B14  1  0.57845800  0.34669600  0.23836100  1
  B  B15  1  0.46896700  0.27476900  0.94633800  1
  B  B16  1  0.92154200  0.34669600  0.73836100  1
  B  B17  1  0.90208500  0.15382200  0.00097900  1
  B  B18  1  0.59791500  0.15382200  0.50097900  1
  B  B19  1  0.32797600  0.90862300  0.10656400  1
  O  O0  1  0.41419900  0.31674300  0.19302500  1
  O  O1  1  0.84874500  0.55242800  0.63070200  1
  O  O2  1  0.46561400  0.68510700  0.63134200  1
  O  O3  1  0.91419900  0.68325700  0.30697500  1
  O  O4  1  0.03438600  0.68510700  0.13134200  1
  O  O5  1  0.10480500  0.08773500  0.58427200  1
  O  O6  1  0.54460100  0.11613400  0.61966600  1
  O  O7  1  0.96561400  0.31489300  0.86865800  1
  O  O8  1  0.77333100  0.02646000  0.01714900  1
  O  O9  1  0.02767500  0.76461800  0.64744200  1
  O  O10  1  0.37216700  0.67598700  0.00878800  1
  O  O11  1  0.22666900  0.97354000  0.98285100  1
  O  O12  1  0.47232500  0.76461800  0.14744200  1
  O  O13  1  0.45539900  0.88386600  0.38033400  1
  O  O14  1  0.15125500  0.44757200  0.36929800  1
  O  O15  1  0.53438600  0.31489300  0.36865800  1
  O  O16  1  0.04460100  0.88386600  0.88033400  1
  O  O17  1  0.65125500  0.55242800  0.13070200  1
  O  O18  1  0.78578100  0.20315500  0.76530400  1
  O  O19  1  0.39519500  0.08773500  0.08427200  1
  O  O20  1  0.97232500  0.23538200  0.35255800  1
  O  O21  1  0.62783300  0.32401300  0.99121200  1
  O  O22  1  0.15076800  0.42596500  0.07240200  1
  O  O23  1  0.65076800  0.57403500  0.42759800  1
  O  O24  1  0.08580100  0.31674300  0.69302500  1
  O  O25  1  0.12783300  0.67598700  0.50878800  1
  O  O26  1  0.34874500  0.44757200  0.86929800  1
  O  O27  1  0.89519500  0.91226500  0.41572800  1
  O  O28  1  0.95539900  0.11613400  0.11966600  1
  O  O29  1  0.84923200  0.57403500  0.92759800  1
  O  O30  1  0.27333100  0.97354000  0.48285100  1
  O  O31  1  0.58580100  0.68325700  0.80697500  1
  O  O32  1  0.28578100  0.79684500  0.73469600  1
  O  O33  1  0.87216700  0.32401300  0.49121200  1
  O  O34  1  0.72666900  0.02646000  0.51714900  1
  O  O35  1  0.21421900  0.79684500  0.23469600  1
  O  O36  1  0.60480500  0.91226500  0.91572800  1
  O  O37  1  0.52767500  0.23538200  0.85255800  1
  O  O38  1  0.71421900  0.20315500  0.26530400  1
  O  O39  1  0.34923200  0.42596500  0.57240200  1
loop_
_geom_bond_atom_site_label_1
_geom_bond_atom_site_label_2
_geom_bond_distance
_geom_bond_site_symmetry_2
Gd0 O13 2.316516 1_555
Gd0 O28 2.369925 1_565
Gd0 O38 2.460428 1_565
Gd0 O8 2.463296 1_565
Gd0 O23 2.490843 1_555
Gd0 O3 2.539555 1_555
Gd0 O27 2.565520 1_555
Gd0 O21 2.676374 1_564
Gd0 O19 2.679021 1_565
Gd0 O12 3.008899 1_555
Gd1 O6 2.316516 1_555
Gd1 O16 2.369925 1_545
Gd1 O32 2.460428 1_545
Gd1 O11 2.463296 1_545
Gd1 O39 2.490843 1_555
Gd1 O24 2.539555 1_555
Gd1 O5 2.565520 1_555
Gd1 O10 2.676374 1_546
Gd1 O36 2.679021 1_545
Gd1 O37 3.008899 1_555
Gd2 O16 2.316516 1_655
Gd2 O6 2.369925 1_565
Gd2 O18 2.460428 1_565
Gd2 O34 2.463296 1_565
Gd2 O29 2.490843 1_555
Gd2 O31 2.539555 1_555
Gd2 O36 2.565520 1_555
Gd2 O33 2.676374 1_565
Gd2 O5 2.679021 1_665
Gd2 O9 3.008899 1_655
Gd3 O28 2.316516 1_455
Gd3 O13 2.369925 1_545
Gd3 O35 2.460428 1_545
Gd3 O30 2.463296 1_545
Gd3 O22 2.490843 1_555
Gd3 O0 2.539555 1_555
Gd3 O19 2.565520 1_555
Gd3 O25 2.676374 1_545
Gd3 O27 2.679021 1_445
Gd3 O20 3.008899 1_455
Mg0 O7 2.077967 1_455
Mg0 O22 2.089804 1_556
Mg0 O26 2.096698 1_555
Mg0 O29 2.110630 1_455
Mg0 O9 2.199230 1_555
Mg0 O32 2.352769 1_555
Mg1 O15 2.077967 1_555
Mg1 O39 2.089804 1_555
Mg1 O14 2.096698 1_555
Mg1 O23 2.110630 1_555
Mg1 O12 2.199230 1_555
Mg1 O35 2.352769 1_555
Mg2 O4 2.077967 1_655
Mg2 O29 2.089804 1_554
Mg2 O17 2.096698 1_555
Mg2 O22 2.110630 1_655
Mg2 O20 2.199230 1_555
Mg2 O38 2.352769 1_555
Mg3 O2 2.077967 1_555
Mg3 O23 2.089804 1_555
Mg3 O1 2.096698 1_555
Mg3 O39 2.110630 1_555
Mg3 O37 2.199230 1_555
Mg3 O18 2.352769 1_555
B0 O16 1.356379 1_555
B0 O4 1.374894 1_556
B0 O11 1.396449 1_555
B1 O26 1.470772 1_555
B1 O31 1.471551 1_555
B1 O32 1.484906 1_555
B1 O2 1.502191 1_555
B2 O21 1.374218 1_555
B2 O29 1.377148 1_555
B2 O31 1.381400 1_555
B3 O30 1.471732 1_555
B3 O5 1.486705 1_565
B3 O9 1.487819 1_555
B3 O32 1.490786 1_555
B4 O17 1.461050 1_555
B4 O12 1.493430 1_555
B4 O36 1.501082 1_554
B4 O10 1.515183 1_555
B5 O1 1.461050 1_555
B5 O9 1.493430 1_655
B5 O27 1.501082 1_555
B5 O25 1.515183 1_655
B6 O14 1.470772 1_555
B6 O3 1.471551 1_455
B6 O35 1.484906 1_555
B6 O4 1.502191 1_555
B7 O13 1.356379 1_555
B7 O2 1.374894 1_555
B7 O30 1.396449 1_555
B8 O25 1.374218 1_555
B8 O39 1.377148 1_555
B8 O24 1.381400 1_555
B9 O34 1.471732 1_555
B9 O27 1.486705 1_545
B9 O20 1.487819 1_555
B9 O38 1.490786 1_555
B10 O10 1.374218 1_555
B10 O22 1.377148 1_555
B10 O0 1.381400 1_555
B11 O33 1.374218 1_555
B11 O23 1.377148 1_555
B11 O3 1.381400 1_555
B12 O8 1.471732 1_556
B12 O36 1.486705 1_545
B12 O37 1.487819 1_555
B12 O18 1.490786 1_555
B13 O14 1.461050 1_555
B13 O20 1.493430 1_455
B13 O5 1.501082 1_555
B13 O33 1.515183 1_455
B14 O17 1.470772 1_555
B14 O0 1.471551 1_555
B14 O38 1.484906 1_555
B14 O15 1.502191 1_555
B15 O26 1.461050 1_555
B15 O37 1.493430 1_555
B15 O19 1.501082 1_556
B15 O21 1.515183 1_555
B16 O1 1.470772 1_555
B16 O24 1.471551 1_655
B16 O18 1.484906 1_555
B16 O7 1.502191 1_555
B17 O28 1.356379 1_555
B17 O7 1.374894 1_554
B17 O8 1.396449 1_555
B18 O6 1.356379 1_555
B18 O15 1.374894 1_555
B18 O34 1.396449 1_555
B19 O11 1.471732 1_554
B19 O19 1.486705 1_565
B19 O12 1.487819 1_555
B19 O35 1.490786 1_555
