# generated using pymatgen
data_ZnS
_symmetry_space_group_name_H-M   'P 1'
_cell_length_a   31.57174406
_cell_length_b   31.57174406
_cell_length_c   31.57174423
_cell_angle_alpha   7.01534624
_cell_angle_beta   7.01534624
_cell_angle_gamma   7.01534592
_symmetry_Int_Tables_number   1
_chemical_formula_structural   ZnS
_chemical_formula_sum   'Zn10 S10'
_cell_volume   407.05225053
_cell_formula_units_Z   10
loop_
 _symmetry_equiv_pos_site_id
 _symmetry_equiv_pos_as_xyz
  1  'x, y, z'
loop_
 _atom_site_type_symbol
 _atom_site_label
 _atom_site_symmetry_multiplicity
 _atom_site_fract_x
 _atom_site_fract_y
 _atom_site_fract_z
 _atom_site_occupancy
  Zn  Zn0  1  0.89998000  0.89998000  0.89998000  1
  Zn  Zn1  1  0.19999400  0.19999400  0.19999400  1
  Zn  Zn2  1  0.10000400  0.10000400  0.10000400  1
  Zn  Zn3  1  0.63330100  0.63330100  0.63330100  1
  Zn  Zn4  1  0.70000800  0.70000800  0.70000800  1
  Zn  Zn5  1  0.79998900  0.79998900  0.79998900  1
  Zn  Zn6  1  0.50001000  0.50001000  0.50001000  1
  Zn  Zn7  1  0.99999300  0.99999300  0.99999300  1
  Zn  Zn8  1  0.40000700  0.40000700  0.40000700  1
  Zn  Zn9  1  0.26665100  0.26665100  0.26665100  1
  S  S0  1  0.22496400  0.22496400  0.22496400  1
  S  S1  1  0.72499400  0.72499400  0.72499400  1
  S  S2  1  0.52500200  0.52500200  0.52500200  1
  S  S3  1  0.42500400  0.42500400  0.42500400  1
  S  S4  1  0.82499000  0.82499000  0.82499000  1
  S  S5  1  0.92499200  0.92499200  0.92499200  1
  S  S6  1  0.65828600  0.65828600  0.65828600  1
  S  S7  1  0.29162800  0.29162800  0.29162800  1
  S  S8  1  0.12499200  0.12499200  0.12499200  1
  S  S9  1  0.02501100  0.02501100  0.02501100  1
loop_
_geom_bond_atom_site_label_1
_geom_bond_atom_site_label_2
_geom_bond_distance
_geom_bond_site_symmetry_2
S0 Zn1 2.359130 1_555
S0 Zn0 2.365836 1_454
S0 Zn0 2.365836 1_544
S0 Zn0 2.365836 1_445
S1 Zn4 2.360642 1_555
S1 Zn8 2.365741 1_655
S1 Zn8 2.365741 1_565
S1 Zn8 2.365741 1_556
S2 Zn6 2.361209 1_555
S2 Zn1 2.365081 1_655
S2 Zn1 2.365081 1_565
S2 Zn1 2.365081 1_556
S3 Zn8 2.361681 1_555
S3 Zn2 2.365332 1_655
S3 Zn2 2.365332 1_565
S3 Zn2 2.365332 1_556
S4 Zn5 2.362059 1_555
S4 Zn6 2.365962 1_655
S4 Zn6 2.365962 1_565
S4 Zn6 2.365962 1_556
S5 Zn0 2.363098 1_555
S5 Zn9 2.365091 1_656
S5 Zn9 2.365091 1_566
S5 Zn9 2.365091 1_665
S6 Zn3 2.360547 1_555
S6 Zn7 2.366603 1_455
S6 Zn7 2.366603 1_545
S6 Zn7 2.366603 1_554
S7 Zn9 2.359791 1_555
S7 Zn3 2.365531 1_455
S7 Zn3 2.365531 1_545
S7 Zn3 2.365531 1_554
S8 Zn2 2.360831 1_555
S8 Zn5 2.365238 1_454
S8 Zn5 2.365238 1_544
S8 Zn5 2.365238 1_445
S9 Zn7 2.363665 1_444
S9 Zn4 2.365238 1_454
S9 Zn4 2.365238 1_544
S9 Zn4 2.365238 1_445
