# generated using pymatgen
data_Mn13Si2SbO24
_symmetry_space_group_name_H-M   'P 1'
_cell_length_a   11.82491320
_cell_length_b   11.82491320
_cell_length_c   11.15958200
_cell_angle_alpha   90.00000000
_cell_angle_beta   90.00000000
_cell_angle_gamma   119.99999553
_symmetry_Int_Tables_number   1
_chemical_formula_structural   Mn13Si2SbO24
_chemical_formula_sum   'Mn39 Si6 Sb3 O72'
_cell_volume   1351.37071138
_cell_formula_units_Z   3
loop_
 _symmetry_equiv_pos_site_id
 _symmetry_equiv_pos_as_xyz
  1  'x, y, z'
loop_
 _atom_site_type_symbol
 _atom_site_label
 _atom_site_symmetry_multiplicity
 _atom_site_fract_x
 _atom_site_fract_y
 _atom_site_fract_z
 _atom_site_occupancy
  Mn  Mn0  1  0.00000000  0.52245600  0.25720400  1
  Mn  Mn1  1  0.00000000  0.16193700  0.72959600  1
  Mn  Mn2  1  0.33608600  0.82893500  0.72204700  1
  Mn  Mn3  1  0.66177600  0.66177600  0.49028200  1
  Mn  Mn4  1  0.83159200  0.50432100  0.48910500  1
  Mn  Mn5  1  0.33822400  0.00000000  0.49028200  1
  Mn  Mn6  1  0.83401100  0.00000000  0.50104700  1
  Mn  Mn7  1  0.83084900  0.50112100  0.99051300  1
  Mn  Mn8  1  0.00000000  0.83281300  0.99106500  1
  Mn  Mn9  1  0.67027200  0.16915100  0.99051300  1
  Mn  Mn10  1  0.82893500  0.33608600  0.72204700  1
  Mn  Mn11  1  0.15845100  0.33021000  0.25885000  1
  Mn  Mn12  1  0.49887900  0.32972800  0.99051300  1
  Mn  Mn13  1  0.16718700  0.16718700  0.99106500  1
  Mn  Mn14  1  0.16915100  0.67027200  0.99051300  1
  Mn  Mn15  1  0.32972800  0.49887900  0.99051300  1
  Mn  Mn16  1  0.83281300  0.00000000  0.99106500  1
  Mn  Mn17  1  0.16840800  0.67272900  0.48910500  1
  Mn  Mn18  1  0.50432100  0.83159200  0.48910500  1
  Mn  Mn19  1  0.32727100  0.49567900  0.48910500  1
  Mn  Mn20  1  0.00000000  0.83401100  0.50104700  1
  Mn  Mn21  1  0.83806300  0.83806300  0.72959600  1
  Mn  Mn22  1  0.49284800  0.66391400  0.72204700  1
  Mn  Mn23  1  0.00000000  0.33822400  0.49028200  1
  Mn  Mn24  1  0.16598900  0.16598900  0.50104700  1
  Mn  Mn25  1  0.67272900  0.16840800  0.48910500  1
  Mn  Mn26  1  0.17176000  0.84154900  0.25885000  1
  Mn  Mn27  1  0.52245600  0.00000000  0.25720400  1
  Mn  Mn28  1  0.16193700  0.00000000  0.72959600  1
  Mn  Mn29  1  0.84154900  0.17176000  0.25885000  1
  Mn  Mn30  1  0.17106500  0.50715200  0.72204700  1
  Mn  Mn31  1  0.66979000  0.82824000  0.25885000  1
  Mn  Mn32  1  0.82824000  0.66979000  0.25885000  1
  Mn  Mn33  1  0.49567900  0.32727100  0.48910500  1
  Mn  Mn34  1  0.50112100  0.83084900  0.99051300  1
  Mn  Mn35  1  0.33021000  0.15845100  0.25885000  1
  Mn  Mn36  1  0.66391400  0.49284800  0.72204700  1
  Mn  Mn37  1  0.47754400  0.47754400  0.25720400  1
  Mn  Mn38  1  0.50715200  0.17106500  0.72204700  1
  Si  Si0  1  0.33333300  0.66666700  0.23334700  1
  Si  Si1  1  0.00000000  0.00000000  0.22597500  1
  Si  Si2  1  0.66744700  0.00000000  0.74855000  1
  Si  Si3  1  0.33255300  0.33255300  0.74855000  1
  Si  Si4  1  0.66666700  0.33333300  0.23334700  1
  Si  Si5  1  0.00000000  0.66744700  0.74855000  1
  Sb  Sb0  1  0.65953900  0.65953900  0.99163800  1
  Sb  Sb1  1  0.00000000  0.34046100  0.99163800  1
  Sb  Sb2  1  0.34046100  0.00000000  0.99163800  1
  O  O0  1  0.66115800  0.51312800  0.89774500  1
  O  O1  1  0.47312600  0.66265000  0.54384300  1
  O  O2  1  0.45977300  0.33063900  0.69542500  1
  O  O3  1  0.53341100  0.32570500  0.28460100  1
  O  O4  1  0.85168000  0.19362300  0.08297200  1
  O  O5  1  0.81047500  0.33735000  0.54384300  1
  O  O6  1  0.66265000  0.47312600  0.54384300  1
  O  O7  1  0.00000000  0.33535200  0.69249800  1
  O  O8  1  0.81630900  0.14293900  0.43547400  1
  O  O9  1  0.20378900  0.20378900  0.69708500  1
  O  O10  1  0.33057900  0.33057900  0.89792800  1
  O  O11  1  0.66936100  0.12913400  0.69542500  1
  O  O12  1  0.14832000  0.34194300  0.08297200  1
  O  O13  1  0.13921600  0.00000000  0.55541300  1
  O  O14  1  0.00000000  0.00000000  0.77379800  1
  O  O15  1  0.35473600  0.00000000  0.29034800  1
  O  O16  1  0.51312800  0.66115800  0.89774500  1
  O  O17  1  0.13009000  0.00000000  0.27402400  1
  O  O18  1  0.46178100  0.46178100  0.43433900  1
  O  O19  1  0.00000000  0.69225200  0.22443900  1
  O  O20  1  0.50726600  0.50726600  0.08203300  1
  O  O21  1  0.18952500  0.52687400  0.54384300  1
  O  O22  1  0.32663000  0.18369100  0.43547400  1
  O  O23  1  0.66666700  0.33333300  0.08379000  1
  O  O24  1  0.64526400  0.64526400  0.29034800  1
  O  O25  1  0.65805700  0.80637700  0.08297200  1
  O  O26  1  0.00000000  0.53821900  0.43433900  1
  O  O27  1  0.66666700  0.33333300  0.75877000  1
  O  O28  1  0.52687400  0.18952500  0.54384300  1
  O  O29  1  0.80637700  0.65805700  0.08297200  1
  O  O30  1  0.00000000  0.13009000  0.27402400  1
  O  O31  1  0.33884200  0.85197000  0.89774500  1
  O  O32  1  0.66942100  0.00000000  0.89792800  1
  O  O33  1  0.33063900  0.45977300  0.69542500  1
  O  O34  1  0.00000000  0.18998600  0.90177400  1
  O  O35  1  0.69225200  0.00000000  0.22443900  1
  O  O36  1  0.33735000  0.81047500  0.54384300  1
  O  O37  1  0.00000000  0.35473600  0.29034800  1
  O  O38  1  0.32570500  0.53341100  0.28460100  1
  O  O39  1  0.30774800  0.30774800  0.22443900  1
  O  O40  1  0.33333300  0.66666700  0.08379000  1
  O  O41  1  0.00000000  0.00000000  0.07517300  1
  O  O42  1  0.19362300  0.85168000  0.08297200  1
  O  O43  1  0.18998600  0.00000000  0.90177400  1
  O  O44  1  0.33535200  0.00000000  0.69249800  1
  O  O45  1  0.12913400  0.66936100  0.69542500  1
  O  O46  1  0.20770600  0.67429500  0.28460100  1
  O  O47  1  0.46658900  0.79229400  0.28460100  1
  O  O48  1  0.79229400  0.46658900  0.28460100  1
  O  O49  1  0.67429500  0.20770600  0.28460100  1
  O  O50  1  0.49273400  0.00000000  0.08203300  1
  O  O51  1  0.81001400  0.81001400  0.90177400  1
  O  O52  1  0.00000000  0.79621100  0.69708500  1
  O  O53  1  0.00000000  0.66942100  0.89792800  1
  O  O54  1  0.14293900  0.81630900  0.43547400  1
  O  O55  1  0.00000000  0.49273400  0.08203300  1
  O  O56  1  0.48687200  0.14803000  0.89774500  1
  O  O57  1  0.85197000  0.33884200  0.89774500  1
  O  O58  1  0.67337000  0.85706100  0.43547400  1
  O  O59  1  0.66464800  0.66464800  0.69249800  1
  O  O60  1  0.79621100  0.00000000  0.69708500  1
  O  O61  1  0.86078400  0.86078400  0.55541300  1
  O  O62  1  0.14803000  0.48687200  0.89774500  1
  O  O63  1  0.86991000  0.86991000  0.27402400  1
  O  O64  1  0.34194300  0.14832000  0.08297200  1
  O  O65  1  0.53821900  0.00000000  0.43433900  1
  O  O66  1  0.85706100  0.67337000  0.43547400  1
  O  O67  1  0.00000000  0.13921600  0.55541300  1
  O  O68  1  0.33333300  0.66666700  0.75877000  1
  O  O69  1  0.18369100  0.32663000  0.43547400  1
  O  O70  1  0.54022700  0.87086600  0.69542500  1
  O  O71  1  0.87086600  0.54022700  0.69542500  1
loop_
_geom_bond_atom_site_label_1
_geom_bond_atom_site_label_2
_geom_bond_distance
_geom_bond_site_symmetry_2
Mn0 O26 1.985521 1_555
Mn0 O55 1.986178 1_555
Mn0 O37 2.017470 1_555
Mn0 O19 2.040845 1_555
Mn0 O48 2.222565 1_455
Mn0 O46 2.222565 1_555
Mn1 O34 1.949851 1_555
Mn1 O67 1.962290 1_555
Mn1 O14 1.977404 1_555
Mn1 O7 2.091991 1_555
Mn1 O9 2.234062 1_555
Mn1 O60 2.234062 1_455
Mn2 O68 1.946370 1_555
Mn2 O31 1.977571 1_555
Mn2 O36 2.001498 1_555
Mn2 O44 2.053827 1_565
Mn2 O70 2.228083 1_555
Mn2 O45 2.240503 1_555
Mn3 O24 2.239707 1_555
Mn3 O59 2.256902 1_555
Mn3 O6 2.314468 1_555
Mn3 O1 2.314468 1_555
Mn3 O58 2.325691 1_555
Mn3 O66 2.325691 1_555
Mn3 O18 2.445938 1_555
Mn3 O61 2.462943 1_555
Mn4 O26 1.923973 1_655
Mn4 O6 1.939897 1_555
Mn4 O5 1.959795 1_555
Mn4 O66 1.960314 1_555
Mn4 O48 2.327235 1_555
Mn4 O71 2.345212 1_555
Mn5 O15 2.239707 1_555
Mn5 O44 2.256902 1_555
Mn5 O28 2.314474 1_555
Mn5 O36 2.314480 1_545
Mn5 O22 2.325691 1_555
Mn5 O54 2.325691 1_545
Mn5 O65 2.445938 1_555
Mn5 O13 2.462942 1_555
Mn6 O61 1.923413 1_545
Mn6 O67 1.923414 1_655
Mn6 O8 1.946799 1_555
Mn6 O58 1.946799 1_545
Mn6 O60 2.232898 1_555
Mn7 O23 2.222009 1_556
Mn7 O53 2.246838 1_655
Mn7 O29 2.264774 1_556
Mn7 O55 2.291745 1_656
Mn7 O57 2.301238 1_555
Mn7 O0 2.324472 1_555
Mn8 O41 2.188471 1_566
Mn8 O53 2.193920 1_555
Mn8 O51 2.346699 1_455
Mn8 O43 2.346699 1_565
Mn8 O42 2.415174 1_556
Mn8 O29 2.415175 1_456
Mn9 O23 2.222004 1_556
Mn9 O32 2.246838 1_555
Mn9 O4 2.264774 1_556
Mn9 O50 2.291745 1_556
Mn9 O56 2.301238 1_555
Mn9 O57 2.324473 1_555
Mn10 O27 1.946370 1_555
Mn10 O57 1.977571 1_555
Mn10 O5 2.001498 1_555
Mn10 O7 2.053827 1_655
Mn10 O71 2.228083 1_555
Mn10 O11 2.240503 1_555
Mn11 O39 1.950296 1_555
Mn11 O12 1.975477 1_555
Mn11 O69 1.997134 1_555
Mn11 O37 2.064389 1_555
Mn11 O30 2.169174 1_555
Mn11 O38 2.239533 1_555
Mn12 O23 2.222014 1_556
Mn12 O10 2.246838 1_555
Mn12 O64 2.264774 1_556
Mn12 O20 2.291745 1_556
Mn12 O0 2.301238 1_555
Mn12 O56 2.324472 1_555
Mn13 O41 2.188471 1_556
Mn13 O10 2.193920 1_555
Mn13 O43 2.346699 1_555
Mn13 O34 2.346699 1_555
Mn13 O64 2.415174 1_556
Mn13 O12 2.415174 1_556
Mn14 O40 2.222004 1_556
Mn14 O53 2.246838 1_555
Mn14 O42 2.264774 1_556
Mn14 O55 2.291745 1_556
Mn14 O62 2.301238 1_555
Mn14 O31 2.324473 1_555
Mn15 O40 2.222014 1_556
Mn15 O10 2.246838 1_555
Mn15 O12 2.264774 1_556
Mn15 O20 2.291745 1_556
Mn15 O16 2.301238 1_555
Mn15 O62 2.324472 1_555
Mn16 O41 2.188471 1_656
Mn16 O32 2.193920 1_555
Mn16 O51 2.346699 1_545
Mn16 O34 2.346699 1_655
Mn16 O4 2.415174 1_556
Mn16 O25 2.415175 1_546
Mn17 O26 1.923973 1_555
Mn17 O36 1.939893 1_555
Mn17 O21 1.959806 1_555
Mn17 O54 1.960314 1_555
Mn17 O46 2.327235 1_555
Mn17 O45 2.345212 1_555
Mn18 O65 1.923973 1_565
Mn18 O1 1.939897 1_555
Mn18 O36 1.959795 1_555
Mn18 O58 1.960314 1_555
Mn18 O47 2.327235 1_555
Mn18 O70 2.345212 1_555
Mn19 O18 1.923973 1_555
Mn19 O21 1.939886 1_555
Mn19 O1 1.959799 1_555
Mn19 O69 1.960314 1_555
Mn19 O38 2.327235 1_555
Mn19 O33 2.345212 1_555
Mn20 O61 1.923413 1_455
Mn20 O13 1.923414 1_565
Mn20 O54 1.946799 1_555
Mn20 O66 1.946799 1_455
Mn20 O52 2.232898 1_555
Mn21 O51 1.949851 1_555
Mn21 O61 1.962290 1_555
Mn21 O14 1.977405 1_665
Mn21 O59 2.091991 1_555
Mn21 O60 2.234062 1_565
Mn21 O52 2.234062 1_655
Mn22 O68 1.946370 1_555
Mn22 O16 1.977573 1_555
Mn22 O1 2.001495 1_555
Mn22 O59 2.053839 1_555
Mn22 O33 2.228079 1_555
Mn22 O70 2.240499 1_555
Mn23 O37 2.239707 1_555
Mn23 O7 2.256902 1_555
Mn23 O21 2.314474 1_555
Mn23 O5 2.314480 1_455
Mn23 O69 2.325691 1_555
Mn23 O8 2.325691 1_455
Mn23 O26 2.445938 1_555
Mn23 O67 2.462942 1_555
Mn24 O13 1.923413 1_555
Mn24 O67 1.923413 1_555
Mn24 O69 1.946799 1_555
Mn24 O22 1.946799 1_555
Mn24 O9 2.232898 1_555
Mn25 O65 1.923973 1_555
Mn25 O5 1.939893 1_555
Mn25 O28 1.959806 1_555
Mn25 O8 1.960314 1_555
Mn25 O49 2.327235 1_555
Mn25 O11 2.345212 1_555
Mn26 O19 1.950303 1_555
Mn26 O42 1.975476 1_555
Mn26 O54 1.997135 1_555
Mn26 O15 2.064382 1_565
Mn26 O17 2.169181 1_565
Mn26 O46 2.239525 1_555
Mn27 O65 1.985521 1_555
Mn27 O50 1.986178 1_555
Mn27 O15 2.017470 1_555
Mn27 O35 2.040845 1_555
Mn27 O47 2.222565 1_545
Mn27 O49 2.222565 1_555
Mn28 O43 1.949851 1_555
Mn28 O13 1.962290 1_555
Mn28 O14 1.977404 1_555
Mn28 O44 2.091991 1_555
Mn28 O9 2.234062 1_555
Mn28 O52 2.234062 1_545
Mn29 O35 1.950303 1_555
Mn29 O4 1.975476 1_555
Mn29 O8 1.997135 1_555
Mn29 O37 2.064382 1_655
Mn29 O30 2.169181 1_655
Mn29 O49 2.239525 1_555
Mn30 O68 1.946370 1_555
Mn30 O62 1.977572 1_555
Mn30 O21 2.001496 1_555
Mn30 O7 2.053833 1_555
Mn30 O45 2.228071 1_555
Mn30 O33 2.240511 1_555
Mn31 O35 1.950307 1_565
Mn31 O25 1.975476 1_555
Mn31 O58 1.997136 1_555
Mn31 O24 2.064377 1_555
Mn31 O63 2.169170 1_555
Mn31 O47 2.239537 1_555
Mn32 O19 1.950307 1_655
Mn32 O29 1.975476 1_555
Mn32 O66 1.997136 1_555
Mn32 O24 2.064377 1_555
Mn32 O63 2.169170 1_555
Mn32 O48 2.239537 1_555
Mn33 O18 1.923973 1_555
Mn33 O28 1.939886 1_555
Mn33 O6 1.959799 1_555
Mn33 O22 1.960314 1_555
Mn33 O3 2.327235 1_555
Mn33 O2 2.345212 1_555
Mn34 O40 2.222009 1_556
Mn34 O32 2.246838 1_565
Mn34 O25 2.264774 1_556
Mn34 O50 2.291745 1_566
Mn34 O31 2.301238 1_555
Mn34 O16 2.324472 1_555
Mn35 O39 1.950296 1_555
Mn35 O64 1.975477 1_555
Mn35 O22 1.997134 1_555
Mn35 O15 2.064389 1_555
Mn35 O17 2.169174 1_555
Mn35 O3 2.239533 1_555
Mn36 O27 1.946370 1_555
Mn36 O0 1.977573 1_555
Mn36 O6 2.001495 1_555
Mn36 O59 2.053839 1_555
Mn36 O2 2.228079 1_555
Mn36 O71 2.240499 1_555
Mn37 O18 1.985521 1_555
Mn37 O20 1.986178 1_555
Mn37 O24 2.017470 1_555
Mn37 O39 2.040845 1_555
Mn37 O38 2.222565 1_555
Mn37 O3 2.222565 1_555
Mn38 O27 1.946370 1_555
Mn38 O56 1.977572 1_555
Mn38 O28 2.001496 1_555
Mn38 O44 2.053833 1_555
Mn38 O11 2.228071 1_555
Mn38 O2 2.240511 1_555
O0 Sb0 2.031945 1_555
O2 Si3 1.627621 1_555
O3 Si4 1.635884 1_555
O4 Sb1 2.021016 1_654
O9 Si3 1.627340 1_555
O10 Si3 1.667159 1_555
O11 Si2 1.627621 1_555
O12 Sb1 2.021016 1_554
O16 Sb0 2.031945 1_555
O17 Si1 1.629078 1_555
O20 Sb0 2.063936 1_554
O23 Si4 1.668994 1_555
O25 Sb0 2.021016 1_554
O29 Sb0 2.021016 1_554
O30 Si1 1.629078 1_555
O31 Sb2 2.031945 1_565
O32 Si2 1.667159 1_555
O33 Si3 1.627621 1_555
O34 Sb1 2.042498 1_555
O38 Si0 1.635884 1_555
O40 Si0 1.668994 1_555
O41 Si1 1.682887 1_555
O42 Sb2 2.021016 1_564
O43 Sb2 2.042498 1_555
O45 Si5 1.627621 1_555
O46 Si0 1.635873 1_555
O47 Si0 1.635879 1_555
O48 Si4 1.635879 1_555
O49 Si4 1.635873 1_555
O50 Sb2 2.063936 1_554
O51 Sb0 2.042498 1_555
O52 Si5 1.627339 1_555
O53 Si5 1.667159 1_555
O55 Sb1 2.063936 1_554
O56 Sb2 2.031945 1_555
O57 Sb1 2.031945 1_655
O60 Si2 1.627339 1_555
O62 Sb1 2.031945 1_555
O63 Si1 1.629078 1_665
O64 Sb2 2.021016 1_554
O70 Si2 1.627621 1_565
O71 Si5 1.627621 1_655
