# generated using pymatgen
data_Pr3U(ClO2)3
_symmetry_space_group_name_H-M   'P 1'
_cell_length_a   9.51488687
_cell_length_b   9.51488687
_cell_length_c   5.61087500
_cell_angle_alpha   90.00000000
_cell_angle_beta   90.00000000
_cell_angle_gamma   120.00000608
_symmetry_Int_Tables_number   1
_chemical_formula_structural   Pr3U(ClO2)3
_chemical_formula_sum   'Pr6 U2 Cl6 O12'
_cell_volume   439.91468235
_cell_formula_units_Z   2
loop_
 _symmetry_equiv_pos_site_id
 _symmetry_equiv_pos_as_xyz
  1  'x, y, z'
loop_
 _atom_site_type_symbol
 _atom_site_label
 _atom_site_symmetry_multiplicity
 _atom_site_fract_x
 _atom_site_fract_y
 _atom_site_fract_z
 _atom_site_occupancy
  Pr  Pr0  1  0.09082700  0.68609800  0.75000000  1
  Pr  Pr1  1  0.90917300  0.31390200  0.25000000  1
  Pr  Pr2  1  0.40472900  0.09082700  0.25000000  1
  Pr  Pr3  1  0.31390200  0.40472900  0.75000000  1
  Pr  Pr4  1  0.68609800  0.59527100  0.25000000  1
  Pr  Pr5  1  0.59527100  0.90917300  0.75000000  1
  U  U0  1  0.33333300  0.66666700  0.25000000  1
  U  U1  1  0.66666700  0.33333300  0.75000000  1
  Cl  Cl0  1  0.81142000  0.75244300  0.75000000  1
  Cl  Cl1  1  0.75244300  0.94102300  0.25000000  1
  Cl  Cl2  1  0.18858000  0.24755700  0.25000000  1
  Cl  Cl3  1  0.24755700  0.05897700  0.75000000  1
  Cl  Cl4  1  0.94102300  0.18858000  0.75000000  1
  Cl  Cl5  1  0.05897700  0.81142000  0.25000000  1
  O  O0  1  0.48309700  0.63475800  0.00686100  1
  O  O1  1  0.51690300  0.36524200  0.99313900  1
  O  O2  1  0.84833800  0.48309700  0.50686100  1
  O  O3  1  0.48309700  0.63475800  0.49313900  1
  O  O4  1  0.63475800  0.15166200  0.99313900  1
  O  O5  1  0.63475800  0.15166200  0.50686100  1
  O  O6  1  0.15166200  0.51690300  0.49313900  1
  O  O7  1  0.36524200  0.84833800  0.00686100  1
  O  O8  1  0.84833800  0.48309700  0.99313900  1
  O  O9  1  0.51690300  0.36524200  0.50686100  1
  O  O10  1  0.15166200  0.51690300  0.00686100  1
  O  O11  1  0.36524200  0.84833800  0.49313900  1
loop_
_geom_bond_atom_site_label_1
_geom_bond_atom_site_label_2
_geom_bond_distance
_geom_bond_site_symmetry_2
Cl0 Pr0 3.023986 1_655
Cl0 Pr5 3.085549 1_555
Cl0 Pr4 3.121788 1_555
Cl0 Pr4 3.121788 1_556
Cl1 Pr4 3.023986 1_555
Cl1 Pr1 3.085549 1_565
Cl1 Pr5 3.121788 1_555
Cl1 Pr5 3.121788 1_554
Cl2 Pr1 3.023986 1_455
Cl2 Pr2 3.085549 1_555
Cl2 Pr3 3.121788 1_554
Cl2 Pr3 3.121788 1_555
Cl3 Pr3 3.023986 1_555
Cl3 Pr0 3.085549 1_545
Cl3 Pr2 3.121788 1_555
Cl3 Pr2 3.121788 1_556
Cl4 Pr5 3.023986 1_545
Cl4 Pr3 3.085549 1_655
Cl4 Pr1 3.121788 1_556
Cl4 Pr1 3.121788 1_555
Cl5 Pr2 3.023986 1_565
Cl5 Pr4 3.085549 1_455
Cl5 Pr0 3.121788 1_555
Cl5 Pr0 3.121788 1_554
O0 U0 2.101550 1_555
O0 Pr3 2.436323 1_554
O0 Pr4 2.541414 1_555
O0 Pr5 2.692013 1_554
O1 U1 2.101550 1_555
O1 Pr4 2.436323 1_556
O1 Pr3 2.541414 1_555
O1 Pr2 2.692013 1_556
O2 U1 2.101541 1_555
O2 Pr1 2.436328 1_555
O2 Pr0 2.541418 1_655
O2 Pr4 2.692006 1_555
O3 U0 2.101550 1_555
O3 Pr3 2.436323 1_555
O3 Pr4 2.541414 1_555
O3 Pr5 2.692013 1_555
O4 U1 2.101536 1_555
O4 Pr2 2.436321 1_556
O4 Pr5 2.541421 1_545
O4 Pr1 2.692012 1_556
O5 U1 2.101536 1_555
O5 Pr2 2.436321 1_555
O5 Pr5 2.541421 1_545
O5 Pr1 2.692012 1_555
O6 U0 2.101541 1_555
O6 Pr0 2.436328 1_555
O6 Pr1 2.541418 1_455
O6 Pr3 2.692006 1_555
O7 U0 2.101536 1_555
O7 Pr5 2.436321 1_554
O7 Pr2 2.541421 1_565
O7 Pr0 2.692012 1_554
O8 U1 2.101541 1_555
O8 Pr1 2.436328 1_556
O8 Pr0 2.541418 1_655
O8 Pr4 2.692006 1_556
O9 U1 2.101550 1_555
O9 Pr4 2.436323 1_555
O9 Pr3 2.541414 1_555
O9 Pr2 2.692013 1_555
O10 U0 2.101541 1_555
O10 Pr0 2.436328 1_554
O10 Pr1 2.541418 1_455
O10 Pr3 2.692006 1_554
O11 U0 2.101536 1_555
O11 Pr5 2.436321 1_555
O11 Pr2 2.541421 1_565
O11 Pr0 2.692012 1_555
