# generated using pymatgen
data_NaAlCdF6
_symmetry_space_group_name_H-M   'P 1'
_cell_length_a   3.69908600
_cell_length_b   10.11562100
_cell_length_c   12.69617700
_cell_angle_alpha   90.00000000
_cell_angle_beta   90.00000000
_cell_angle_gamma   90.00000000
_symmetry_Int_Tables_number   1
_chemical_formula_structural   NaAlCdF6
_chemical_formula_sum   'Na4 Al4 Cd4 F24'
_cell_volume   475.07255956
_cell_formula_units_Z   4
loop_
 _symmetry_equiv_pos_site_id
 _symmetry_equiv_pos_as_xyz
  1  'x, y, z'
loop_
 _atom_site_type_symbol
 _atom_site_label
 _atom_site_symmetry_multiplicity
 _atom_site_fract_x
 _atom_site_fract_y
 _atom_site_fract_z
 _atom_site_occupancy
  Na  Na0  1  0.25000000  0.17429100  0.91483400  1
  Na  Na1  1  0.25000000  0.32570900  0.41483400  1
  Na  Na2  1  0.75000000  0.82570900  0.08516600  1
  Na  Na3  1  0.75000000  0.67429100  0.58516600  1
  Al  Al0  1  0.25000000  0.82003300  0.83565700  1
  Al  Al1  1  0.75000000  0.17996700  0.16434300  1
  Al  Al2  1  0.25000000  0.67996700  0.33565700  1
  Al  Al3  1  0.75000000  0.32003300  0.66434300  1
  Cd  Cd0  1  0.75000000  0.00006900  0.37967100  1
  Cd  Cd1  1  0.75000000  0.49993100  0.87967100  1
  Cd  Cd2  1  0.25000000  0.99993100  0.62032900  1
  Cd  Cd3  1  0.25000000  0.50006900  0.12032900  1
  F  F0  1  0.75000000  0.13967200  0.64359900  1
  F  F1  1  0.25000000  0.09813200  0.45754700  1
  F  F2  1  0.75000000  0.36032800  0.14359900  1
  F  F3  1  0.75000000  0.14489800  0.02688900  1
  F  F4  1  0.75000000  0.00468300  0.19921000  1
  F  F5  1  0.75000000  0.28663200  0.80724300  1
  F  F6  1  0.25000000  0.86032800  0.35640100  1
  F  F7  1  0.75000000  0.90186800  0.54245300  1
  F  F8  1  0.25000000  0.63967200  0.85640100  1
  F  F9  1  0.75000000  0.81361100  0.83385300  1
  F  F10  1  0.75000000  0.35510200  0.52688900  1
  F  F11  1  0.75000000  0.68638900  0.33385300  1
  F  F12  1  0.25000000  0.18638900  0.16614700  1
  F  F13  1  0.25000000  0.78663200  0.69275700  1
  F  F14  1  0.25000000  0.64489800  0.47311100  1
  F  F15  1  0.75000000  0.59813200  0.04245300  1
  F  F16  1  0.25000000  0.40186800  0.95754700  1
  F  F17  1  0.25000000  0.99531700  0.80079000  1
  F  F18  1  0.25000000  0.71336800  0.19275700  1
  F  F19  1  0.75000000  0.49531700  0.69921000  1
  F  F20  1  0.25000000  0.31361100  0.66614700  1
  F  F21  1  0.25000000  0.50468300  0.30079000  1
  F  F22  1  0.25000000  0.85510200  0.97311100  1
  F  F23  1  0.75000000  0.21336800  0.30724300  1
loop_
_geom_bond_atom_site_label_1
_geom_bond_atom_site_label_2
_geom_bond_distance
_geom_bond_site_symmetry_2
Al0 F22 1.780831 1_555
Al0 F17 1.827531 1_555
Al0 F8 1.843375 1_555
Al0 F13 1.845476 1_555
Al0 F9 1.850825 1_555
Al0 F9 1.850825 1_455
Al1 F3 1.780831 1_555
Al1 F4 1.827531 1_555
Al1 F2 1.843375 1_555
Al1 F23 1.845476 1_555
Al1 F12 1.850825 1_555
Al1 F12 1.850825 1_655
Al2 F14 1.780831 1_555
Al2 F21 1.827531 1_555
Al2 F6 1.843375 1_555
Al2 F18 1.845476 1_555
Al2 F11 1.850825 1_455
Al2 F11 1.850825 1_555
Al3 F10 1.780831 1_555
Al3 F19 1.827531 1_555
Al3 F0 1.843375 1_555
Al3 F5 1.845476 1_555
Al3 F20 1.850825 1_555
Al3 F20 1.850825 1_655
Cd0 F4 2.291640 1_555
Cd0 F7 2.293046 1_545
Cd0 F1 2.319998 1_655
Cd0 F1 2.319998 1_555
Cd0 F23 2.345432 1_555
Cd0 F6 2.346543 1_545
Cd0 F6 2.346543 1_645
Cd1 F19 2.291640 1_555
Cd1 F15 2.293046 1_556
Cd1 F16 2.319998 1_555
Cd1 F16 2.319998 1_655
Cd1 F5 2.345432 1_555
Cd1 F8 2.346543 1_555
Cd1 F8 2.346543 1_655
Cd2 F17 2.291640 1_555
Cd2 F1 2.293046 1_565
Cd2 F7 2.319998 1_455
Cd2 F7 2.319998 1_555
Cd2 F13 2.345432 1_555
Cd2 F0 2.346543 1_565
Cd2 F0 2.346543 1_465
Cd3 F21 2.291640 1_555
Cd3 F16 2.293046 1_554
Cd3 F15 2.319998 1_455
Cd3 F15 2.319998 1_555
Cd3 F18 2.345432 1_555
Cd3 F2 2.346543 1_555
Cd3 F2 2.346543 1_455
F1 Na1 2.365093 1_555
F3 Na0 2.352276 1_654
F3 Na0 2.352276 1_554
F4 Na2 2.318221 1_545
F5 Na0 2.564791 1_555
F5 Na0 2.564791 1_655
F7 Na3 2.365093 1_555
F10 Na1 2.352276 1_655
F10 Na1 2.352276 1_555
F13 Na3 2.564791 1_555
F13 Na3 2.564791 1_455
F14 Na3 2.352276 1_555
F14 Na3 2.352276 1_455
F15 Na2 2.365093 1_555
F16 Na0 2.365093 1_555
F17 Na0 2.318221 1_565
F18 Na2 2.564791 1_455
F18 Na2 2.564791 1_555
F19 Na3 2.318221 1_555
F21 Na1 2.318221 1_555
F22 Na2 2.352276 1_456
F22 Na2 2.352276 1_556
F23 Na1 2.564791 1_555
F23 Na1 2.564791 1_655
