# generated using pymatgen
data_LiCaGaN2
_symmetry_space_group_name_H-M   'P 1'
_cell_length_a   6.97422700
_cell_length_b   5.82076600
_cell_length_c   5.93660770
_cell_angle_alpha   89.92791468
_cell_angle_beta   90.00000000
_cell_angle_gamma   90.00000000
_symmetry_Int_Tables_number   1
_chemical_formula_structural   LiCaGaN2
_chemical_formula_sum   'Li4 Ca4 Ga4 N8'
_cell_volume   240.99843740
_cell_formula_units_Z   4
loop_
 _symmetry_equiv_pos_site_id
 _symmetry_equiv_pos_as_xyz
  1  'x, y, z'
loop_
 _atom_site_type_symbol
 _atom_site_label
 _atom_site_symmetry_multiplicity
 _atom_site_fract_x
 _atom_site_fract_y
 _atom_site_fract_z
 _atom_site_occupancy
  Li  Li0  1  0.10567000  0.63245000  0.40945800  1
  Li  Li1  1  0.89433000  0.36755000  0.59054200  1
  Li  Li2  1  0.39433000  0.63245000  0.90945800  1
  Li  Li3  1  0.60567000  0.36755000  0.09054200  1
  Ca  Ca0  1  0.62674800  0.02247000  0.75746700  1
  Ca  Ca1  1  0.37325200  0.97753000  0.24253300  1
  Ca  Ca2  1  0.87325200  0.02247000  0.25746700  1
  Ca  Ca3  1  0.12674800  0.97753000  0.74253300  1
  Ga  Ga0  1  0.35958400  0.37585700  0.57828900  1
  Ga  Ga1  1  0.14041600  0.37585700  0.07828900  1
  Ga  Ga2  1  0.64041600  0.62414300  0.42171100  1
  Ga  Ga3  1  0.85958400  0.62414300  0.92171100  1
  N  N0  1  0.13768100  0.25946600  0.40223800  1
  N  N1  1  0.63768100  0.74053400  0.09776200  1
  N  N2  1  0.11148400  0.72182400  0.06930600  1
  N  N3  1  0.86231900  0.74053400  0.59776200  1
  N  N4  1  0.38851600  0.72182400  0.56930600  1
  N  N5  1  0.88851600  0.27817600  0.93069400  1
  N  N6  1  0.61148400  0.27817600  0.43069400  1
  N  N7  1  0.36231900  0.25946600  0.90223800  1
loop_
_geom_bond_atom_site_label_1
_geom_bond_atom_site_label_2
_geom_bond_distance
_geom_bond_site_symmetry_2
Li0 N2 2.085043 1_555
Li0 N3 2.127836 1_455
Li0 N0 2.182976 1_555
Li0 N4 2.250260 1_555
Li1 N5 2.085043 1_555
Li1 N0 2.127836 1_655
Li1 N3 2.182976 1_555
Li1 N6 2.250260 1_555
Li2 N4 2.085043 1_555
Li2 N1 2.127836 1_556
Li2 N7 2.182976 1_555
Li2 N2 2.250260 1_556
Li3 N6 2.085043 1_555
Li3 N7 2.127836 1_554
Li3 N1 2.182976 1_555
Li3 N5 2.250260 1_554
Ca0 N6 2.445959 1_555
Ca0 N7 2.458796 1_555
Ca0 N3 2.509020 1_545
Ca0 N5 2.570932 1_555
Ca0 N1 2.602273 1_546
Ca0 N4 2.660016 1_545
Ca1 N4 2.445959 1_555
Ca1 N1 2.458796 1_555
Ca1 N0 2.509020 1_565
Ca1 N2 2.570932 1_555
Ca1 N7 2.602273 1_564
Ca1 N6 2.660016 1_565
Ca2 N5 2.445959 1_554
Ca2 N0 2.458796 1_655
Ca2 N1 2.509020 1_545
Ca2 N6 2.570932 1_555
Ca2 N3 2.602273 1_545
Ca2 N2 2.660016 1_645
Ca3 N2 2.445959 1_556
Ca3 N3 2.458796 1_455
Ca3 N7 2.509020 1_565
Ca3 N4 2.570932 1_555
Ca3 N0 2.602273 1_565
Ca3 N5 2.660016 1_465
Ga0 N0 1.987000 1_555
Ga0 N4 2.024512 1_555
Ga0 N7 2.038286 1_555
Ga0 N6 2.044177 1_555
Ga1 N7 1.987000 1_554
Ga1 N2 2.024512 1_555
Ga1 N0 2.038286 1_555
Ga1 N5 2.044177 1_454
Ga2 N3 1.987000 1_555
Ga2 N6 2.024512 1_555
Ga2 N1 2.038286 1_555
Ga2 N4 2.044177 1_555
Ga3 N1 1.987000 1_556
Ga3 N5 2.024512 1_555
Ga3 N3 2.038286 1_555
Ga3 N2 2.044177 1_656
