# generated using pymatgen
data_PrNiSnH
_symmetry_space_group_name_H-M   'P 1'
_cell_length_a   4.40968300
_cell_length_b   7.28813300
_cell_length_c   8.54189600
_cell_angle_alpha   90.00000000
_cell_angle_beta   90.00000000
_cell_angle_gamma   90.00000000
_symmetry_Int_Tables_number   1
_chemical_formula_structural   PrNiSnH
_chemical_formula_sum   'Pr4 Ni4 Sn4 H4'
_cell_volume   274.52249620
_cell_formula_units_Z   4
loop_
 _symmetry_equiv_pos_site_id
 _symmetry_equiv_pos_as_xyz
  1  'x, y, z'
loop_
 _atom_site_type_symbol
 _atom_site_label
 _atom_site_symmetry_multiplicity
 _atom_site_fract_x
 _atom_site_fract_y
 _atom_site_fract_z
 _atom_site_occupancy
  Pr  Pr0  1  0.75000000  0.01323300  0.68900200  1
  Pr  Pr1  1  0.25000000  0.98676700  0.31099800  1
  Pr  Pr2  1  0.25000000  0.48676700  0.18900200  1
  Pr  Pr3  1  0.75000000  0.51323300  0.81099800  1
  Ni  Ni0  1  0.75000000  0.78098000  0.09890400  1
  Ni  Ni1  1  0.25000000  0.21902000  0.90109600  1
  Ni  Ni2  1  0.25000000  0.71902000  0.59890400  1
  Ni  Ni3  1  0.75000000  0.28098000  0.40109600  1
  Sn  Sn0  1  0.75000000  0.65784200  0.43153600  1
  Sn  Sn1  1  0.25000000  0.34215800  0.56846400  1
  Sn  Sn2  1  0.25000000  0.84215800  0.93153600  1
  Sn  Sn3  1  0.75000000  0.15784200  0.06846400  1
  H  H0  1  0.25000000  0.43817300  0.91927900  1
  H  H1  1  0.75000000  0.56182700  0.08072100  1
  H  H2  1  0.75000000  0.06182700  0.41927900  1
  H  H3  1  0.25000000  0.93817300  0.58072100  1
loop_
_geom_bond_atom_site_label_1
_geom_bond_atom_site_label_2
_geom_bond_distance
_geom_bond_site_symmetry_2
Pr0 Sn2 3.272281 1_645
Pr0 Sn2 3.272281 1_545
Pr0 Sn0 3.397867 1_545
Pr0 Sn3 3.408365 1_556
Pr0 Sn1 3.415882 1_655
Pr0 Sn1 3.415882 1_555
Pr1 Sn3 3.272281 1_565
Pr1 Sn3 3.272281 1_465
Pr1 Sn1 3.397867 1_565
Pr1 Sn2 3.408365 1_554
Pr1 Sn0 3.415882 1_555
Pr1 Sn0 3.415882 1_455
Pr2 Sn0 3.272281 1_555
Pr2 Sn0 3.272281 1_455
Pr2 Sn2 3.397867 1_554
Pr2 Sn1 3.408365 1_555
Pr2 Sn3 3.415882 1_455
Pr2 Sn3 3.415882 1_555
Pr3 Sn1 3.272281 1_655
Pr3 Sn1 3.272281 1_555
Pr3 Sn3 3.397867 1_556
Pr3 Sn0 3.408365 1_555
Pr3 Sn2 3.415882 1_555
Pr3 Sn2 3.415882 1_655
Ni0 Sn2 2.665333 1_654
Ni0 Sn2 2.665333 1_554
Ni0 Sn3 2.758900 1_565
Ni0 Sn0 2.979671 1_555
Ni1 Sn3 2.665333 1_456
Ni1 Sn3 2.665333 1_556
Ni1 Sn2 2.758900 1_545
Ni1 Sn1 2.979671 1_555
Ni2 Sn0 2.665333 1_455
Ni2 Sn0 2.665333 1_555
Ni2 Sn1 2.758900 1_555
Ni2 Sn2 2.979671 1_555
Ni3 Sn1 2.665333 1_655
Ni3 Sn1 2.665333 1_555
Ni3 Sn0 2.758900 1_555
Ni3 Sn3 2.979671 1_555
H0 Ni1 1.604750 1_555
H0 Pr2 2.331007 1_556
H0 Pr3 2.452768 1_455
H0 Pr3 2.452768 1_555
H1 Ni0 1.604750 1_555
H1 Pr3 2.331007 1_554
H1 Pr2 2.452768 1_655
H1 Pr2 2.452768 1_555
H2 Ni3 1.604750 1_555
H2 Pr0 2.331007 1_555
H2 Pr1 2.452768 1_645
H2 Pr1 2.452768 1_545
H3 Ni2 1.604750 1_555
H3 Pr1 2.331007 1_555
H3 Pr0 2.452768 1_565
H3 Pr0 2.452768 1_465
