# generated using pymatgen
data_Rb3Ta2S11
_symmetry_space_group_name_H-M   'P 1'
_cell_length_a   8.05863168
_cell_length_b   11.88325399
_cell_length_c   19.45142368
_cell_angle_alpha   76.08681709
_cell_angle_beta   90.00000000
_cell_angle_gamma   90.00000000
_symmetry_Int_Tables_number   1
_chemical_formula_structural   Rb3Ta2S11
_chemical_formula_sum   'Rb12 Ta8 S44'
_cell_volume   1808.07208989
_cell_formula_units_Z   4
loop_
 _symmetry_equiv_pos_site_id
 _symmetry_equiv_pos_as_xyz
  1  'x, y, z'
loop_
 _atom_site_type_symbol
 _atom_site_label
 _atom_site_symmetry_multiplicity
 _atom_site_fract_x
 _atom_site_fract_y
 _atom_site_fract_z
 _atom_site_occupancy
  Rb  Rb0  1  0.82963262  0.49784770  0.66008138  1
  Rb  Rb1  1  0.32963262  0.50215230  0.83991862  1
  Rb  Rb2  1  0.17036738  0.50215230  0.33991862  1
  Rb  Rb3  1  0.67036738  0.49784770  0.16008138  1
  Rb  Rb4  1  0.81209193  0.73242768  0.88570602  1
  Rb  Rb5  1  0.31209193  0.26757232  0.61429398  1
  Rb  Rb6  1  0.18790807  0.26757232  0.11429398  1
  Rb  Rb7  1  0.68790807  0.73242768  0.38570602  1
  Rb  Rb8  1  0.84357318  0.95847075  0.64287218  1
  Rb  Rb9  1  0.34357318  0.04152925  0.85712782  1
  Rb  Rb10  1  0.15642682  0.04152925  0.35712782  1
  Rb  Rb11  1  0.65642682  0.95847075  0.14287218  1
  Ta  Ta0  1  0.35996130  0.78882211  0.66273301  1
  Ta  Ta1  1  0.85996130  0.21117789  0.83726699  1
  Ta  Ta2  1  0.64003870  0.21117789  0.33726699  1
  Ta  Ta3  1  0.14003870  0.78882211  0.16273301  1
  Ta  Ta4  1  0.22878564  0.69584421  0.50760458  1
  Ta  Ta5  1  0.72878564  0.30415579  0.99239542  1
  Ta  Ta6  1  0.77121436  0.30415579  0.49239542  1
  Ta  Ta7  1  0.27121436  0.69584421  0.00760458  1
  S  S0  1  0.57244335  0.73207182  0.73604083  1
  S  S1  1  0.07244335  0.26792818  0.76395917  1
  S  S2  1  0.42755665  0.26792818  0.26395917  1
  S  S3  1  0.92755665  0.73207182  0.23604083  1
  S  S4  1  0.27852915  0.97564887  0.68547171  1
  S  S5  1  0.77852915  0.02435113  0.81452829  1
  S  S6  1  0.72147085  0.02435113  0.31452829  1
  S  S7  1  0.22147085  0.97564887  0.18547171  1
  S  S8  1  0.42972187  0.98608712  0.59744524  1
  S  S9  1  0.92972187  0.01391288  0.90255476  1
  S  S10  1  0.57027813  0.01391288  0.40255476  1
  S  S11  1  0.07027813  0.98608712  0.09744524  1
  S  S12  1  0.10760555  0.70185712  0.72127031  1
  S  S13  1  0.60760555  0.29814288  0.77872969  1
  S  S14  1  0.89239445  0.29814288  0.27872969  1
  S  S15  1  0.39239445  0.70185712  0.22127031  1
  S  S16  1  0.22758546  0.60400741  0.66058401  1
  S  S17  1  0.72758546  0.39599259  0.83941599  1
  S  S18  1  0.77241454  0.39599259  0.33941599  1
  S  S19  1  0.27241454  0.60400741  0.16058401  1
  S  S20  1  0.49877838  0.75484300  0.55144163  1
  S  S21  1  -0.00122162  0.24515700  0.94855837  1
  S  S22  1  0.50122162  0.24515700  0.44855837  1
  S  S23  1  0.00122162  0.75484300  0.05144163  1
  S  S24  1  0.48449348  0.58199757  0.54776863  1
  S  S25  1  0.98449348  0.41800243  0.95223137  1
  S  S26  1  0.51550652  0.41800243  0.45223137  1
  S  S27  1  0.01550652  0.58199757  0.04776863  1
  S  S28  1  0.12932869  0.86864089  0.54196713  1
  S  S29  1  0.62932869  0.13135911  0.95803287  1
  S  S30  1  0.87067131  0.13135911  0.45803287  1
  S  S31  1  0.37067131  0.86864089  0.04196713  1
  S  S32  1  0.94605596  0.74973372  0.53163885  1
  S  S33  1  0.44605596  0.25026628  0.96836115  1
  S  S34  1  0.05394404  0.25026628  0.46836115  1
  S  S35  1  0.55394404  0.74973372  0.03163885  1
  S  S36  1  0.26369011  0.75861822  0.39130457  1
  S  S37  1  0.76369011  0.24138178  0.10869543  1
  S  S38  1  0.73630989  0.24138178  0.60869543  1
  S  S39  1  0.23630989  0.75861822  0.89130457  1
  S  S40  1  0.12502603  0.49684199  0.51370566  1
  S  S41  1  0.62502603  0.50315801  0.98629434  1
  S  S42  1  0.87497397  0.50315801  0.48629434  1
  S  S43  1  0.37497397  0.49684199  0.01370566  1
loop_
_geom_bond_atom_site_label_1
_geom_bond_atom_site_label_2
_geom_bond_distance
_geom_bond_site_symmetry_2
Rb0 S42 3.385565 1_555
Rb0 S13 3.394938 1_555
Rb0 S16 3.447032 1_655
Rb0 S17 3.504163 1_555
Rb0 S38 3.509665 1_555
Rb0 S24 3.529581 1_555
Rb0 S32 3.533453 1_555
Rb0 S1 3.566718 1_655
Rb0 S12 3.701268 1_655
Rb0 S40 3.713458 1_655
Rb0 S0 4.025345 1_555
Rb1 S43 3.385565 1_556
Rb1 S12 3.394938 1_555
Rb1 S17 3.447032 1_555
Rb1 S16 3.504163 1_555
Rb1 S39 3.509665 1_555
Rb1 S25 3.529581 1_455
Rb1 S33 3.533453 1_555
Rb1 S0 3.566718 1_555
Rb1 S13 3.701268 1_555
Rb1 S41 3.713458 1_555
Rb1 S1 4.025345 1_555
Rb2 S40 3.385565 1_555
Rb2 S15 3.394938 1_555
Rb2 S18 3.447032 1_455
Rb2 S19 3.504163 1_555
Rb2 S36 3.509665 1_555
Rb2 S26 3.529581 1_555
Rb2 S34 3.533453 1_555
Rb2 S3 3.566718 1_455
Rb2 S14 3.701268 1_455
Rb2 S42 3.713458 1_455
Rb2 S2 4.025345 1_555
Rb3 S41 3.385565 1_554
Rb3 S14 3.394938 1_555
Rb3 S19 3.447032 1_555
Rb3 S18 3.504163 1_555
Rb3 S37 3.509665 1_555
Rb3 S27 3.529581 1_655
Rb3 S35 3.533453 1_555
Rb3 S2 3.566718 1_555
Rb3 S15 3.701268 1_555
Rb3 S43 3.713458 1_555
Rb3 S3 4.025345 1_555
Rb4 S41 3.310586 1_555
Rb4 S5 3.422612 1_565
Rb4 S39 3.436853 1_655
Rb4 S0 3.494384 1_555
Rb4 S35 3.564886 1_556
Rb4 S9 3.566783 1_565
Rb4 S27 3.620770 1_656
Rb4 S23 3.633141 1_656
Rb4 S25 3.903869 1_555
Rb5 S40 3.310586 1_555
Rb5 S4 3.422612 1_545
Rb5 S38 3.436853 1_555
Rb5 S1 3.494384 1_555
Rb5 S34 3.564886 1_555
Rb5 S8 3.566783 1_545
Rb5 S26 3.620770 1_555
Rb5 S22 3.633141 1_555
Rb5 S24 3.903869 1_555
Rb6 S43 3.310586 1_555
Rb6 S7 3.422612 1_545
Rb6 S37 3.436853 1_455
Rb6 S2 3.494384 1_555
Rb6 S33 3.564886 1_554
Rb6 S11 3.566783 1_545
Rb6 S25 3.620770 1_454
Rb6 S21 3.633141 1_554
Rb6 S27 3.903869 1_555
Rb7 S42 3.310586 1_555
Rb7 S6 3.422612 1_565
Rb7 S36 3.436853 1_555
Rb7 S3 3.494384 1_555
Rb7 S32 3.564886 1_555
Rb7 S10 3.566783 1_565
Rb7 S24 3.620770 1_555
Rb7 S20 3.633141 1_555
Rb7 S26 3.903869 1_555
Rb8 S28 3.361893 1_655
Rb8 S38 3.378864 1_565
Rb8 S8 3.445541 1_555
Rb8 S0 3.598826 1_555
Rb8 S4 3.618799 1_655
Rb8 S5 3.646003 1_565
Rb8 S30 3.693659 1_565
Rb8 S12 3.730327 1_655
Rb8 S32 3.754614 1_555
Rb9 S29 3.361893 1_555
Rb9 S39 3.378864 1_545
Rb9 S9 3.445541 1_455
Rb9 S1 3.598826 1_555
Rb9 S5 3.618799 1_555
Rb9 S4 3.646003 1_545
Rb9 S31 3.693659 1_546
Rb9 S13 3.730327 1_555
Rb9 S33 3.754614 1_555
Rb10 S30 3.361893 1_455
Rb10 S36 3.378864 1_545
Rb10 S10 3.445541 1_555
Rb10 S2 3.598826 1_555
Rb10 S6 3.618799 1_455
Rb10 S7 3.646003 1_545
Rb10 S28 3.693659 1_545
Rb10 S14 3.730327 1_455
Rb10 S34 3.754614 1_555
Rb11 S31 3.361893 1_555
Rb11 S37 3.378864 1_565
Rb11 S11 3.445541 1_655
Rb11 S3 3.598826 1_555
Rb11 S7 3.618799 1_555
Rb11 S6 3.646003 1_565
Rb11 S29 3.693659 1_564
Rb11 S15 3.730327 1_555
Rb11 S35 3.754614 1_555
S0 Ta0 2.226582 1_555
S1 Ta1 2.226582 1_455
S2 Ta2 2.226582 1_555
S3 Ta3 2.226582 1_655
S4 S8 2.080752 1_555
S4 Ta0 2.455073 1_555
S5 S9 2.080752 1_555
S5 Ta1 2.455073 1_555
S6 Ta2 2.455073 1_555
S7 Ta3 2.455073 1_555
S8 Ta0 2.447900 1_555
S9 Ta1 2.447900 1_555
S10 S6 2.080752 1_555
S10 Ta2 2.447900 1_555
S11 S7 2.080752 1_555
S11 Ta3 2.447900 1_555
S12 S16 2.083360 1_555
S12 Ta0 2.436038 1_555
S13 S17 2.083360 1_555
S13 Ta1 2.436038 1_555
S14 S18 2.083360 1_555
S14 Ta2 2.436038 1_555
S15 S19 2.083360 1_555
S15 Ta3 2.436038 1_555
S16 Ta0 2.450956 1_555
S16 Ta4 2.912728 1_555
S17 Ta1 2.450956 1_555
S17 Ta5 2.912728 1_555
S18 Ta2 2.450956 1_555
S18 Ta6 2.912728 1_555
S19 Ta3 2.450956 1_555
S19 Ta7 2.912728 1_555
S20 S24 2.075501 1_555
S20 Ta4 2.498019 1_555
S20 Ta0 2.553642 1_555
S21 S25 2.075501 1_455
S21 Ta5 2.498019 1_455
S21 Ta1 2.553642 1_455
S22 S26 2.075501 1_555
S22 Ta6 2.498019 1_555
S22 Ta2 2.553642 1_555
S23 S27 2.075501 1_555
S23 Ta7 2.498019 1_555
S23 Ta3 2.553642 1_555
S24 Ta4 2.485684 1_555
S25 Ta5 2.485684 1_555
S26 Ta6 2.485684 1_555
S27 Ta7 2.485684 1_555
S28 S32 2.086809 1_455
S28 Ta4 2.442452 1_555
S28 Ta0 2.966583 1_555
S29 S33 2.086809 1_555
S29 Ta5 2.442452 1_555
S29 Ta1 2.966583 1_555
S30 S34 2.086809 1_655
S30 Ta6 2.442452 1_555
S30 Ta2 2.966583 1_555
S31 S35 2.086809 1_555
S31 Ta7 2.442452 1_555
S31 Ta3 2.966583 1_555
S32 Ta4 2.442088 1_655
S33 Ta5 2.442088 1_555
S34 Ta6 2.442088 1_455
S35 Ta7 2.442088 1_555
S36 Ta4 2.222971 1_555
S37 Ta5 2.222971 1_554
S38 Ta6 2.222971 1_555
S39 Ta7 2.222971 1_556
S40 Ta4 2.484057 1_555
S41 Ta5 2.484057 1_555
S42 Ta6 2.484057 1_555
S43 Ta7 2.484057 1_555
