# generated using pymatgen
data_Fe(PO3)4
_symmetry_space_group_name_H-M   'P 1'
_cell_length_a   13.60463100
_cell_length_b   5.26552700
_cell_length_c   7.48159066
_cell_angle_alpha   81.34229474
_cell_angle_beta   90.00000000
_cell_angle_gamma   90.00000000
_symmetry_Int_Tables_number   1
_chemical_formula_structural   Fe(PO3)4
_chemical_formula_sum   'Fe2 P8 O24'
_cell_volume   529.84089761
_cell_formula_units_Z   2
loop_
 _symmetry_equiv_pos_site_id
 _symmetry_equiv_pos_as_xyz
  1  'x, y, z'
loop_
 _atom_site_type_symbol
 _atom_site_label
 _atom_site_symmetry_multiplicity
 _atom_site_fract_x
 _atom_site_fract_y
 _atom_site_fract_z
 _atom_site_occupancy
  Fe  Fe0  1  0.23419300  0.49292200  0.51332500  1
  Fe  Fe1  1  0.73419300  0.50707800  0.48667500  1
  P  P0  1  0.17479400  0.13834900  0.89810100  1
  P  P1  1  0.59714800  0.01969600  0.43795500  1
  P  P2  1  0.87264300  0.98705200  0.55247900  1
  P  P3  1  0.09714800  0.98030400  0.56204500  1
  P  P4  1  0.67479400  0.86165100  0.10189900  1
  P  P5  1  0.37264300  0.01294800  0.44752100  1
  P  P6  1  0.81899500  0.20821600  0.87426500  1
  P  P7  1  0.31899500  0.79178400  0.12573500  1
  O  O0  1  0.61230700  0.28536800  0.48430400  1
  O  O1  1  0.35223900  0.02145900  0.23302800  1
  O  O2  1  0.85223900  0.97854100  0.76697200  1
  O  O3  1  0.26694100  0.94246000  0.95290800  1
  O  O4  1  0.11041500  0.96939900  0.77660100  1
  O  O5  1  0.48534000  0.93636800  0.46863200  1
  O  O6  1  0.61843100  0.82736600  0.93684200  1
  O  O7  1  0.65616100  0.80372500  0.53951900  1
  O  O8  1  0.31687900  0.79369300  0.55402900  1
  O  O9  1  0.85761600  0.72130400  0.50808000  1
  O  O10  1  0.11230700  0.71463200  0.51569600  1
  O  O11  1  0.71868200  0.63322400  0.22221900  1
  O  O12  1  0.24705200  0.61496200  0.23867200  1
  O  O13  1  0.40658400  0.64683700  0.06886200  1
  O  O14  1  0.90658400  0.35316300  0.93113800  1
  O  O15  1  0.61041500  0.03060100  0.22339900  1
  O  O16  1  0.21868200  0.36677600  0.77778100  1
  O  O17  1  0.74705200  0.38503800  0.76132800  1
  O  O18  1  0.35761600  0.27869600  0.49192000  1
  O  O19  1  0.81687900  0.20630700  0.44597100  1
  O  O20  1  0.15616100  0.19627500  0.46048100  1
  O  O21  1  0.11843100  0.17263400  0.06315800  1
  O  O22  1  0.98534000  0.06363200  0.53136800  1
  O  O23  1  0.76694100  0.05754000  0.04709200  1
loop_
_geom_bond_atom_site_label_1
_geom_bond_atom_site_label_2
_geom_bond_distance
_geom_bond_site_symmetry_2
Fe0 O20 1.977136 1_555
Fe0 O16 2.001183 1_555
Fe0 O8 2.002880 1_555
Fe0 O10 2.029555 1_555
Fe0 O18 2.042524 1_555
Fe0 O12 2.066006 1_555
Fe1 O7 1.977136 1_555
Fe1 O11 2.001183 1_555
Fe1 O19 2.002880 1_555
Fe1 O0 2.029555 1_555
Fe1 O9 2.042524 1_555
Fe1 O17 2.066006 1_555
O0 P1 1.505241 1_555
O1 P7 1.613608 1_545
O1 P5 1.622539 1_555
O2 P6 1.613608 1_565
O2 P2 1.622539 1_555
O3 P7 1.579250 1_556
O3 P0 1.635937 1_565
O4 P3 1.607749 1_555
O4 P0 1.621200 1_565
O5 P5 1.587160 1_565
O5 P1 1.590170 1_565
O6 P4 1.487493 1_556
O7 P1 1.501676 1_565
O8 P5 1.505459 1_565
O9 P2 1.500041 1_555
O10 P3 1.505241 1_555
O11 P4 1.512471 1_555
O12 P7 1.517213 1_555
O13 P7 1.510390 1_555
O14 P6 1.510390 1_555
O15 P1 1.607749 1_555
O15 P4 1.621200 1_545
O16 P0 1.512471 1_555
O17 P6 1.517213 1_555
O18 P5 1.500041 1_555
O19 P2 1.505459 1_545
O20 P3 1.501676 1_545
O21 P0 1.487493 1_554
O22 P2 1.587160 1_545
O22 P3 1.590170 1_645
O23 P6 1.579250 1_554
O23 P4 1.635937 1_545
