# generated using pymatgen
data_Li21Mo11O32
_symmetry_space_group_name_H-M   'P 1'
_cell_length_a   11.87888376
_cell_length_b   11.87888376
_cell_length_c   5.25932172
_cell_angle_alpha   82.17496091
_cell_angle_beta   82.17496091
_cell_angle_gamma   61.91050099
_symmetry_Int_Tables_number   1
_chemical_formula_structural   Li21Mo11O32
_chemical_formula_sum   'Li21 Mo11 O32'
_cell_volume   646.41463394
_cell_formula_units_Z   1
loop_
 _symmetry_equiv_pos_site_id
 _symmetry_equiv_pos_as_xyz
  1  'x, y, z'
loop_
 _atom_site_type_symbol
 _atom_site_label
 _atom_site_symmetry_multiplicity
 _atom_site_fract_x
 _atom_site_fract_y
 _atom_site_fract_z
 _atom_site_occupancy
  Li  Li0  1  0.37184500  0.37184500  0.74502000  1
  Li  Li1  1  0.35715200  0.64284800  0.50000000  1
  Li  Li2  1  0.87260300  0.63433000  0.99046900  1
  Li  Li3  1  0.36567000  0.12739700  0.00953100  1
  Li  Li4  1  0.62815500  0.62815500  0.25498000  1
  Li  Li5  1  0.36381000  0.87776500  0.25279500  1
  Li  Li6  1  0.75292700  0.75292700  0.50032800  1
  Li  Li7  1  0.63433000  0.87260300  0.99046900  1
  Li  Li8  1  0.12739700  0.36567000  0.00953100  1
  Li  Li9  1  0.63619000  0.12223500  0.74720500  1
  Li  Li10  1  0.88119400  0.88119400  0.74522900  1
  Li  Li11  1  0.12223500  0.63619000  0.74720500  1
  Li  Li12  1  0.00000000  0.00000000  0.00000000  1
  Li  Li13  1  0.76279900  0.23720100  0.00000000  1
  Li  Li14  1  0.23720100  0.76279900  0.00000000  1
  Li  Li15  1  0.11354700  0.88645300  0.50000000  1
  Li  Li16  1  0.88645300  0.11354700  0.50000000  1
  Li  Li17  1  0.64284800  0.35715200  0.50000000  1
  Li  Li18  1  0.11880600  0.11880600  0.25477100  1
  Li  Li19  1  0.87776500  0.36381000  0.25279500  1
  Li  Li20  1  0.24707300  0.24707300  0.49967200  1
  Mo  Mo0  1  0.50000000  0.50000000  0.00000000  1
  Mo  Mo1  1  0.75318300  0.49715000  0.75525900  1
  Mo  Mo2  1  0.49715000  0.75318300  0.75525900  1
  Mo  Mo3  1  0.50000000  0.00000000  0.50000000  1
  Mo  Mo4  1  0.00000000  0.50000000  0.50000000  1
  Mo  Mo5  1  0.75128400  0.00413200  0.23888500  1
  Mo  Mo6  1  0.00413200  0.75128400  0.23888500  1
  Mo  Mo7  1  0.50285000  0.24681700  0.24474100  1
  Mo  Mo8  1  0.24681700  0.50285000  0.24474100  1
  Mo  Mo9  1  0.24871600  0.99586800  0.76111500  1
  Mo  Mo10  1  0.99586800  0.24871600  0.76111500  1
  O  O0  1  0.43580500  0.43580500  0.36472400  1
  O  O1  1  0.68070200  0.44229100  0.10572700  1
  O  O2  1  0.44229100  0.68070200  0.10572700  1
  O  O3  1  0.56419500  0.56419500  0.63527600  1
  O  O4  1  0.44100100  0.93849000  0.87521400  1
  O  O5  1  0.93849000  0.44100100  0.87521400  1
  O  O6  1  0.68062700  0.68062700  0.87142400  1
  O  O7  1  0.55683400  0.81786500  0.40272900  1
  O  O8  1  0.81786500  0.55683400  0.40272900  1
  O  O9  1  0.68102000  0.94268500  0.60418400  1
  O  O10  1  0.18213500  0.44316600  0.59727100  1
  O  O11  1  0.44316600  0.18213500  0.59727100  1
  O  O12  1  0.94268500  0.68102000  0.60418400  1
  O  O13  1  0.55899900  0.06151000  0.12478600  1
  O  O14  1  0.06151000  0.55899900  0.12478600  1
  O  O15  1  0.81741400  0.81741400  0.14244000  1
  O  O16  1  0.68368800  0.18340000  0.37403700  1
  O  O17  1  0.93451200  0.93451200  0.37111100  1
  O  O18  1  0.18340000  0.68368800  0.37403700  1
  O  O19  1  0.80571200  0.05926300  0.89971500  1
  O  O20  1  0.55770900  0.31929800  0.89427300  1
  O  O21  1  0.31929800  0.55770900  0.89427300  1
  O  O22  1  0.05926300  0.80571200  0.89971500  1
  O  O23  1  0.19428800  0.94073700  0.10028500  1
  O  O24  1  0.94073700  0.19428800  0.10028500  1
  O  O25  1  0.06548800  0.06548800  0.62888900  1
  O  O26  1  0.31631200  0.81660000  0.62596300  1
  O  O27  1  0.81660000  0.31631200  0.62596300  1
  O  O28  1  0.18258600  0.18258600  0.85756000  1
  O  O29  1  0.31898000  0.05731500  0.39581600  1
  O  O30  1  0.05731500  0.31898000  0.39581600  1
  O  O31  1  0.31937300  0.31937300  0.12857600  1
loop_
_geom_bond_atom_site_label_1
_geom_bond_atom_site_label_2
_geom_bond_distance
_geom_bond_site_symmetry_2
Li0 O31 2.127772 1_556
Li0 O0 2.207019 1_555
Li0 O11 2.213524 1_555
Li0 O10 2.213524 1_555
Li0 O21 2.218363 1_555
Li0 O20 2.218363 1_555
Li1 O18 2.067880 1_555
Li1 O26 2.067880 1_555
Li1 O21 2.264553 1_555
Li1 O2 2.264553 1_555
Li1 O3 2.357860 1_555
Li1 O0 2.357860 1_555
Li2 O14 2.168842 1_656
Li2 O15 2.187807 1_556
Li2 O12 2.189862 1_555
Li2 O5 2.193469 1_555
Li2 O6 2.238065 1_555
Li2 O8 2.368048 1_556
Li3 O4 2.168842 1_544
Li3 O28 2.187807 1_554
Li3 O29 2.189862 1_555
Li3 O13 2.193469 1_555
Li3 O31 2.238065 1_555
Li3 O11 2.368048 1_554
Li4 O6 2.127772 1_554
Li4 O3 2.207019 1_555
Li4 O7 2.213524 1_555
Li4 O8 2.213524 1_555
Li4 O2 2.218363 1_555
Li4 O1 2.218363 1_555
Li5 O23 2.028781 1_555
Li5 O26 2.096265 1_555
Li5 O29 2.157924 1_565
Li5 O4 2.245351 1_554
Li5 O7 2.277872 1_555
Li5 O2 2.277877 1_555
Li6 O15 2.117508 1_555
Li6 O9 2.122274 1_555
Li6 O12 2.122274 1_555
Li6 O7 2.193202 1_555
Li6 O8 2.193202 1_555
Li6 O6 2.250813 1_555
Li7 O13 2.168842 1_566
Li7 O15 2.187807 1_556
Li7 O9 2.189862 1_555
Li7 O4 2.193469 1_555
Li7 O6 2.238065 1_555
Li7 O7 2.368048 1_556
Li8 O5 2.168842 1_454
Li8 O28 2.187807 1_554
Li8 O30 2.189862 1_555
Li8 O14 2.193469 1_555
Li8 O31 2.238065 1_555
Li8 O10 2.368048 1_554
Li9 O19 2.028781 1_555
Li9 O16 2.096265 1_555
Li9 O9 2.157924 1_545
Li9 O13 2.245351 1_556
Li9 O11 2.277872 1_555
Li9 O20 2.277877 1_555
Li10 O17 2.091135 1_555
Li10 O19 2.102852 1_565
Li10 O22 2.102852 1_655
Li10 O15 2.278330 1_556
Li10 O9 2.331329 1_555
Li10 O12 2.331329 1_555
Li11 O22 2.028781 1_555
Li11 O18 2.096265 1_555
Li11 O12 2.157924 1_455
Li11 O14 2.245351 1_556
Li11 O10 2.277872 1_555
Li11 O21 2.277877 1_555
Li12 O17 2.182390 1_445
Li12 O25 2.182390 1_554
Li12 O24 2.191035 1_455
Li12 O23 2.191035 1_545
Li12 O19 2.191035 1_454
Li12 O22 2.191035 1_544
Li13 O19 2.054624 1_554
Li13 O24 2.054624 1_555
Li13 O27 2.209351 1_554
Li13 O16 2.209351 1_555
Li13 O1 2.275823 1_555
Li13 O20 2.275823 1_554
Li14 O22 2.054624 1_554
Li14 O23 2.054624 1_555
Li14 O26 2.209351 1_554
Li14 O18 2.209351 1_555
Li14 O21 2.275823 1_554
Li14 O2 2.275823 1_555
Li15 O25 2.110038 1_565
Li15 O17 2.110038 1_455
Li15 O26 2.309021 1_555
Li15 O18 2.309021 1_555
Li15 O23 2.327948 1_555
Li15 O22 2.327948 1_555
Li16 O25 2.110038 1_655
Li16 O17 2.110038 1_545
Li16 O27 2.309021 1_555
Li16 O16 2.309021 1_555
Li16 O24 2.327948 1_555
Li16 O19 2.327948 1_555
Li17 O27 2.067880 1_555
Li17 O16 2.067880 1_555
Li17 O20 2.264553 1_555
Li17 O1 2.264553 1_555
Li17 O3 2.357860 1_555
Li17 O0 2.357860 1_555
Li18 O25 2.091135 1_555
Li18 O23 2.102852 1_545
Li18 O24 2.102852 1_455
Li18 O28 2.278330 1_554
Li18 O29 2.331329 1_555
Li18 O30 2.331329 1_555
Li19 O24 2.028781 1_555
Li19 O27 2.096265 1_555
Li19 O30 2.157924 1_655
Li19 O5 2.245351 1_554
Li19 O8 2.277872 1_555
Li19 O1 2.277877 1_555
Li20 O28 2.117508 1_555
Li20 O29 2.122274 1_555
Li20 O30 2.122274 1_555
Li20 O10 2.193202 1_555
Li20 O11 2.193202 1_555
Li20 O31 2.250813 1_555
Mo0 O20 2.054815 1_554
Mo0 O21 2.054815 1_554
Mo0 O1 2.054815 1_555
Mo0 O2 2.054815 1_555
Mo0 O0 2.143246 1_555
Mo0 O3 2.143246 1_554
Mo1 O8 2.073097 1_555
Mo1 O6 2.077635 1_555
Mo1 O1 2.081492 1_556
Mo1 O27 2.092567 1_555
Mo1 O5 2.137593 1_555
Mo1 O3 2.153499 1_555
Mo2 O7 2.073097 1_555
Mo2 O6 2.077635 1_555
Mo2 O2 2.081492 1_556
Mo2 O26 2.092567 1_555
Mo2 O4 2.137593 1_555
Mo2 O3 2.153499 1_555
Mo3 O9 2.056263 1_545
Mo3 O29 2.056263 1_555
Mo3 O11 2.056776 1_555
Mo3 O7 2.056776 1_545
Mo3 O13 2.152271 1_555
Mo3 O4 2.152271 1_545
Mo4 O12 2.056263 1_455
Mo4 O30 2.056263 1_555
Mo4 O10 2.056776 1_555
Mo4 O8 2.056776 1_455
Mo4 O5 2.152271 1_455
Mo4 O14 2.152271 1_555
Mo5 O19 1.948193 1_554
Mo5 O16 2.081180 1_555
Mo5 O15 2.085901 1_545
Mo5 O17 2.113141 1_545
Mo5 O9 2.162351 1_545
Mo5 O13 2.199478 1_555
Mo6 O22 1.948193 1_554
Mo6 O18 2.081180 1_555
Mo6 O15 2.085901 1_455
Mo6 O17 2.113141 1_455
Mo6 O12 2.162351 1_455
Mo6 O14 2.199478 1_555
Mo7 O11 2.073097 1_555
Mo7 O31 2.077635 1_555
Mo7 O20 2.081492 1_554
Mo7 O16 2.092567 1_555
Mo7 O13 2.137593 1_555
Mo7 O0 2.153499 1_555
Mo8 O10 2.073097 1_555
Mo8 O31 2.077635 1_555
Mo8 O21 2.081492 1_554
Mo8 O18 2.092567 1_555
Mo8 O14 2.137593 1_555
Mo8 O0 2.153499 1_555
Mo9 O23 1.948193 1_556
Mo9 O26 2.081180 1_555
Mo9 O28 2.085901 1_565
Mo9 O25 2.113141 1_565
Mo9 O29 2.162351 1_565
Mo9 O4 2.199478 1_555
Mo10 O24 1.948193 1_556
Mo10 O27 2.081180 1_555
Mo10 O28 2.085901 1_655
Mo10 O25 2.113141 1_655
Mo10 O30 2.162351 1_655
Mo10 O5 2.199478 1_555
