# generated using pymatgen
data_KMn(SeO4)2
_symmetry_space_group_name_H-M   'P 1'
_cell_length_a   5.60284722
_cell_length_b   8.14971814
_cell_length_c   8.35441417
_cell_angle_alpha   83.29314334
_cell_angle_beta   87.83728658
_cell_angle_gamma   87.68217090
_symmetry_Int_Tables_number   1
_chemical_formula_structural   KMn(SeO4)2
_chemical_formula_sum   'K2 Mn2 Se4 O16'
_cell_volume   378.34604895
_cell_formula_units_Z   2
loop_
 _symmetry_equiv_pos_site_id
 _symmetry_equiv_pos_as_xyz
  1  'x, y, z'
loop_
 _atom_site_type_symbol
 _atom_site_label
 _atom_site_symmetry_multiplicity
 _atom_site_fract_x
 _atom_site_fract_y
 _atom_site_fract_z
 _atom_site_occupancy
  K  K0  1  0.00000000  0.50000000  0.00000000  1
  K  K1  1  0.50000000  0.50000000  0.50000000  1
  Mn  Mn0  1  0.50000000  0.00000000  0.50000000  1
  Mn  Mn1  1  0.00000000  0.00000000  0.00000000  1
  Se  Se0  1  0.00594800  0.20330900  0.62390100  1
  Se  Se1  1  0.50594800  0.20330900  0.12390100  1
  Se  Se2  1  0.99405200  0.79669100  0.37609900  1
  Se  Se3  1  0.49405200  0.79669100  0.87609900  1
  O  O0  1  0.26621700  0.18649300  0.51144900  1
  O  O1  1  0.76621700  0.18649300  0.01144900  1
  O  O2  1  0.73378300  0.81350700  0.48855100  1
  O  O3  1  0.23378300  0.81350700  0.98855100  1
  O  O4  1  0.99833600  0.96404600  0.23539700  1
  O  O5  1  0.49833600  0.96404600  0.73539700  1
  O  O6  1  0.00166400  0.03595400  0.76460300  1
  O  O7  1  0.50166400  0.03595400  0.26460300  1
  O  O8  1  0.00390100  0.38519900  0.68992700  1
  O  O9  1  0.50390100  0.38519900  0.18992700  1
  O  O10  1  0.99609900  0.61480100  0.31007300  1
  O  O11  1  0.49609900  0.61480100  0.81007300  1
  O  O12  1  0.77941100  0.18848900  0.50341800  1
  O  O13  1  0.27941100  0.18848900  0.00341800  1
  O  O14  1  0.22058900  0.81151100  0.49658200  1
  O  O15  1  0.72058900  0.81151100  0.99658200  1
loop_
_geom_bond_atom_site_label_1
_geom_bond_atom_site_label_2
_geom_bond_distance
_geom_bond_site_symmetry_2
K0 O10 2.854221 1_455
K0 O8 2.854221 1_554
K0 O3 2.908093 1_554
K0 O1 2.908093 1_455
K0 O13 2.926039 1_555
K0 O15 2.926039 1_454
K0 O11 3.263396 1_554
K0 O9 3.263396 1_455
K0 O9 3.337912 1_555
K0 O11 3.337912 1_454
K1 O11 2.854221 1_555
K1 O9 2.854221 1_555
K1 O2 2.908093 1_555
K1 O0 2.908093 1_555
K1 O12 2.926039 1_555
K1 O14 2.926039 1_555
K1 O10 3.263396 1_555
K1 O8 3.263396 1_555
K1 O10 3.337912 1_455
K1 O8 3.337912 1_655
Mn0 O5 1.953897 1_545
Mn0 O7 1.953897 1_555
Mn0 O0 1.974417 1_555
Mn0 O2 1.974417 1_545
Mn0 O12 2.240409 1_555
Mn0 O14 2.240409 1_545
Mn1 O4 1.953897 1_445
Mn1 O6 1.953897 1_554
Mn1 O3 1.974417 1_544
Mn1 O1 1.974417 1_455
Mn1 O13 2.240409 1_555
Mn1 O15 2.240409 1_444
O0 Se0 1.714171 1_555
O1 Se1 1.714171 1_555
O2 Se2 1.714171 1_555
O3 Se3 1.714171 1_555
O4 Se2 1.693690 1_555
O5 Se3 1.693690 1_555
O6 Se0 1.693690 1_555
O7 Se1 1.693690 1_555
O8 Se0 1.640400 1_555
O9 Se1 1.640400 1_555
O10 Se2 1.640400 1_555
O11 Se3 1.640400 1_555
O12 Se0 1.666128 1_655
O13 Se1 1.666128 1_555
O14 Se2 1.666128 1_455
O15 Se3 1.666128 1_555
