# generated using pymatgen
data_KSrVO4
_symmetry_space_group_name_H-M   'P 1'
_cell_length_a   5.93148100
_cell_length_b   7.55570300
_cell_length_c   10.09797900
_cell_angle_alpha   90.00000000
_cell_angle_beta   90.00000000
_cell_angle_gamma   90.00000000
_symmetry_Int_Tables_number   1
_chemical_formula_structural   KSrVO4
_chemical_formula_sum   'K4 Sr4 V4 O16'
_cell_volume   452.55616458
_cell_formula_units_Z   4
loop_
 _symmetry_equiv_pos_site_id
 _symmetry_equiv_pos_as_xyz
  1  'x, y, z'
loop_
 _atom_site_type_symbol
 _atom_site_label
 _atom_site_symmetry_multiplicity
 _atom_site_fract_x
 _atom_site_fract_y
 _atom_site_fract_z
 _atom_site_occupancy
  K  K0  1  0.48445600  0.09088600  0.57722800  1
  K  K1  1  0.51554400  0.59088600  0.92277200  1
  K  K2  1  0.01554400  0.90911400  0.07722800  1
  K  K3  1  0.98445600  0.40911400  0.42277200  1
  Sr  Sr0  1  0.98082700  0.24986300  0.80081900  1
  Sr  Sr1  1  0.48082700  0.25013700  0.19918100  1
  Sr  Sr2  1  0.51917300  0.75013700  0.30081900  1
  Sr  Sr3  1  0.01917300  0.74986300  0.69918100  1
  V  V0  1  0.48532400  0.52525700  0.58373000  1
  V  V1  1  0.01467600  0.47474300  0.08373000  1
  V  V2  1  0.98532400  0.97474300  0.41627000  1
  V  V3  1  0.51467600  0.02525700  0.91627000  1
  O  O0  1  0.50621700  0.92990900  0.07416100  1
  O  O1  1  0.24479600  0.55554100  0.17261200  1
  O  O2  1  0.25520400  0.44445900  0.67261200  1
  O  O3  1  0.06464600  0.25122800  0.06214200  1
  O  O4  1  0.74479600  0.94445900  0.82738800  1
  O  O5  1  0.56464600  0.24877200  0.93785800  1
  O  O6  1  0.76234800  0.51668800  0.16883800  1
  O  O7  1  0.26234800  0.98331200  0.83116200  1
  O  O8  1  0.99378300  0.07009100  0.57416100  1
  O  O9  1  0.75520400  0.05554100  0.32738800  1
  O  O10  1  0.00621700  0.57009100  0.92583900  1
  O  O11  1  0.49378300  0.42990900  0.42583900  1
  O  O12  1  0.23765200  0.01668800  0.33116200  1
  O  O13  1  0.43535400  0.74877200  0.56214200  1
  O  O14  1  0.73765200  0.48331200  0.66883800  1
  O  O15  1  0.93535400  0.75122800  0.43785800  1
loop_
_geom_bond_atom_site_label_1
_geom_bond_atom_site_label_2
_geom_bond_distance
_geom_bond_site_symmetry_2
K0 O13 2.605725 1_545
K0 O8 2.914820 1_455
K0 O12 2.937927 1_555
K0 O11 2.983560 1_555
K0 O7 2.995244 1_545
K0 O9 3.002544 1_555
K0 O8 3.025305 1_555
K0 O2 3.148597 1_555
K0 O4 3.160668 1_545
K1 O5 2.605725 1_555
K1 O10 2.914820 1_655
K1 O6 2.937927 1_556
K1 O0 2.983560 1_556
K1 O14 2.995244 1_555
K1 O1 3.002544 1_556
K1 O10 3.025305 1_555
K1 O4 3.148597 1_555
K1 O2 3.160668 1_555
K2 O3 2.605725 1_565
K2 O0 2.914820 1_555
K2 O7 2.937927 1_554
K2 O10 2.983560 1_554
K2 O12 2.995244 1_565
K2 O4 3.002544 1_454
K2 O0 3.025305 1_455
K2 O1 3.148597 1_555
K2 O9 3.160668 1_465
K3 O15 2.605725 1_555
K3 O11 2.914820 1_555
K3 O14 2.937927 1_555
K3 O8 2.983560 1_555
K3 O6 2.995244 1_555
K3 O2 3.002544 1_655
K3 O11 3.025305 1_655
K3 O9 3.148597 1_555
K3 O1 3.160668 1_655
O0 V3 1.750306 1_564
O0 Sr2 2.662601 1_555
O0 Sr1 2.733253 1_565
O1 V1 1.743945 1_555
O1 Sr2 2.546863 1_555
O1 Sr1 2.712336 1_555
O2 V0 1.743945 1_555
O2 Sr0 2.546863 1_455
O2 Sr3 2.712336 1_555
O3 V1 1.728428 1_555
O3 Sr0 2.685280 1_454
O3 Sr1 2.829992 1_555
O4 V3 1.743945 1_565
O4 Sr3 2.546863 1_655
O4 Sr0 2.712336 1_565
O5 V3 1.728428 1_555
O5 Sr1 2.685280 1_556
O5 Sr0 2.829992 1_555
O6 V1 1.754733 1_655
O6 Sr1 2.634075 1_555
O6 Sr2 2.639683 1_555
O7 V3 1.754733 1_565
O7 Sr0 2.634075 1_465
O7 Sr3 2.639683 1_555
O8 V2 1.750306 1_545
O8 Sr0 2.662601 1_555
O8 Sr3 2.733253 1_645
O9 V2 1.743945 1_545
O9 Sr1 2.546863 1_555
O9 Sr2 2.712336 1_545
O10 V1 1.750306 1_556
O10 Sr3 2.662601 1_555
O10 Sr0 2.733253 1_455
O11 V0 1.750306 1_555
O11 Sr1 2.662601 1_555
O11 Sr2 2.733253 1_555
O12 V2 1.754733 1_445
O12 Sr2 2.634075 1_545
O12 Sr1 2.639683 1_555
O13 V0 1.728428 1_555
O13 Sr2 2.685280 1_555
O13 Sr3 2.829992 1_555
O14 V0 1.754733 1_555
O14 Sr3 2.634075 1_655
O14 Sr0 2.639683 1_555
O15 V2 1.728428 1_555
O15 Sr3 2.685280 1_655
O15 Sr2 2.829992 1_555
