# generated using pymatgen
data_KSb(PO4)2
_symmetry_space_group_name_H-M   'P 1'
_cell_length_a   9.05986546
_cell_length_b   9.05986546
_cell_length_c   9.05986599
_cell_angle_alpha   31.07678406
_cell_angle_beta   31.07678406
_cell_angle_gamma   31.07678250
_symmetry_Int_Tables_number   1
_chemical_formula_structural   KSb(PO4)2
_chemical_formula_sum   'K1 Sb1 P2 O8'
_cell_volume   175.79638916
_cell_formula_units_Z   1
loop_
 _symmetry_equiv_pos_site_id
 _symmetry_equiv_pos_as_xyz
  1  'x, y, z'
loop_
 _atom_site_type_symbol
 _atom_site_label
 _atom_site_symmetry_multiplicity
 _atom_site_fract_x
 _atom_site_fract_y
 _atom_site_fract_z
 _atom_site_occupancy
  K  K0  1  0.50000000  0.50000000  0.50000000  1
  Sb  Sb0  1  0.00000000  0.00000000  0.00000000  1
  P  P0  1  0.73516600  0.73516600  0.73516600  1
  P  P1  1  0.26483400  0.26483400  0.26483400  1
  O  O0  1  0.79282800  0.79282800  0.79282800  1
  O  O1  1  0.39650700  0.99851700  0.74307800  1
  O  O2  1  0.20717200  0.20717200  0.20717200  1
  O  O3  1  0.99851700  0.74307800  0.39650800  1
  O  O4  1  0.00148300  0.25692200  0.60349300  1
  O  O5  1  0.74307800  0.39650800  0.99851700  1
  O  O6  1  0.25692200  0.60349200  0.00148300  1
  O  O7  1  0.60349200  0.00148300  0.25692200  1
loop_
_geom_bond_atom_site_label_1
_geom_bond_atom_site_label_2
_geom_bond_distance
_geom_bond_site_symmetry_2
K0 O2 2.991618 1_655
K0 O2 2.991618 1_565
K0 O0 2.991618 1_545
K0 O0 2.991618 1_455
K0 O2 2.991619 1_556
K0 O0 2.991619 1_554
O0 P0 1.490367 1_555
O1 P0 1.577403 1_555
O1 Sb0 1.992624 1_566
O2 P1 1.490367 1_555
O3 P0 1.577398 1_555
O3 Sb0 1.992632 1_665
O4 P1 1.577403 1_555
O4 Sb0 1.992625 1_556
O5 P0 1.577398 1_555
O5 Sb0 1.992632 1_656
O6 P1 1.577398 1_555
O6 Sb0 1.992632 1_565
O7 P1 1.577398 1_555
O7 Sb0 1.992632 1_655
