# generated using pymatgen
data_CsRe3(O3F5)2
_symmetry_space_group_name_H-M   'P 1'
_cell_length_a   7.34656600
_cell_length_b   10.10067607
_cell_length_c   10.67801767
_cell_angle_alpha   113.56292618
_cell_angle_beta   91.01045893
_cell_angle_gamma   92.22425186
_symmetry_Int_Tables_number   1
_chemical_formula_structural   CsRe3(O3F5)2
_chemical_formula_sum   'Cs2 Re6 O12 F20'
_cell_volume   725.27647105
_cell_formula_units_Z   2
loop_
 _symmetry_equiv_pos_site_id
 _symmetry_equiv_pos_as_xyz
  1  'x, y, z'
loop_
 _atom_site_type_symbol
 _atom_site_label
 _atom_site_symmetry_multiplicity
 _atom_site_fract_x
 _atom_site_fract_y
 _atom_site_fract_z
 _atom_site_occupancy
  Cs  Cs0  1  0.69547500  0.70407800  0.12115500  1
  Cs  Cs1  1  0.30452500  0.29592200  0.87884500  1
  Re  Re0  1  0.23013200  0.62546000  0.36791000  1
  Re  Re1  1  0.76986800  0.37454000  0.63209000  1
  Re  Re2  1  0.25870100  0.01415800  0.32618800  1
  Re  Re3  1  0.74129900  0.98584200  0.67381200  1
  Re  Re4  1  0.23860700  0.77818500  0.88938200  1
  Re  Re5  1  0.76139300  0.22181500  0.11061800  1
  O  O0  1  0.16695600  0.48026000  0.40310700  1
  O  O1  1  0.83304400  0.51974000  0.59689300  1
  O  O2  1  0.12983000  0.76564500  0.49441300  1
  O  O3  1  0.87017000  0.23435500  0.50558700  1
  O  O4  1  0.27763600  0.07655100  0.50017100  1
  O  O5  1  0.72236400  0.92344900  0.49982900  1
  O  O6  1  0.20283700  0.16476500  0.30209500  1
  O  O7  1  0.79716300  0.83523500  0.69790500  1
  O  O8  1  0.23743300  0.66891800  0.71952600  1
  O  O9  1  0.76256700  0.33108200  0.28047400  1
  O  O10  1  0.18923100  0.94314100  0.88932200  1
  O  O11  1  0.81076900  0.05685900  0.11067800  1
  F  F0  1  0.04274700  0.60254100  0.23500000  1
  F  F1  1  0.95725300  0.39745900  0.76500000  1
  F  F2  1  0.36931300  0.52905100  0.20413200  1
  F  F3  1  0.63068700  0.47094900  0.79586800  1
  F  F4  1  0.46379000  0.66542600  0.45370000  1
  F  F5  1  0.53621000  0.33457400  0.54630000  1
  F  F6  1  0.32655400  0.80531400  0.30574600  1
  F  F7  1  0.67344600  0.19468600  0.69425400  1
  F  F8  1  0.02177000  0.92831200  0.30457900  1
  F  F9  1  0.97823000  0.07168800  0.69542100  1
  F  F10  1  0.50936300  0.02243800  0.29428900  1
  F  F11  1  0.49063700  0.97756200  0.70571100  1
  F  F12  1  0.25017600  0.89665400  0.11400100  1
  F  F13  1  0.74982400  0.10334600  0.88599900  1
  F  F14  1  0.29905000  0.63060000  0.95781100  1
  F  F15  1  0.70095000  0.36940000  0.04218900  1
  F  F16  1  0.99835100  0.73244100  0.92507900  1
  F  F17  1  0.00164900  0.26755900  0.07492100  1
  F  F18  1  0.49267200  0.82191300  0.91745900  1
  F  F19  1  0.50732800  0.17808700  0.08254100  1
loop_
_geom_bond_atom_site_label_1
_geom_bond_atom_site_label_2
_geom_bond_distance
_geom_bond_site_symmetry_2
Cs0 F15 3.142136 1_555
Cs0 F16 3.164035 1_554
Cs0 F0 3.182614 1_655
Cs0 F18 3.234266 1_554
Cs0 F8 3.252471 1_655
Cs0 F2 3.263517 1_555
Cs0 F14 3.270012 1_554
Cs0 F6 3.326945 1_555
Cs0 F3 3.339389 1_554
Cs0 F10 3.362308 1_565
Cs0 O11 3.676280 1_565
Cs0 O5 3.751420 1_555
Cs1 F14 3.142136 1_555
Cs1 F17 3.164035 1_556
Cs1 F1 3.182614 1_455
Cs1 F19 3.234266 1_556
Cs1 F9 3.252471 1_455
Cs1 F3 3.263517 1_555
Cs1 F15 3.270012 1_556
Cs1 F7 3.326945 1_555
Cs1 F2 3.339389 1_556
Cs1 F11 3.362308 1_545
Cs1 O10 3.676280 1_545
Cs1 O4 3.751420 1_555
O0 Re0 1.703421 1_555
O1 Re1 1.703421 1_555
O2 Re0 1.720315 1_555
O3 Re1 1.720315 1_555
O4 Re2 1.707608 1_555
O5 Re3 1.707608 1_555
O6 Re2 1.704818 1_555
O7 Re3 1.704818 1_555
O8 Re4 1.704713 1_555
O9 Re5 1.704713 1_555
O10 Re4 1.719144 1_555
O11 Re5 1.719144 1_555
F0 Re0 1.899097 1_555
F1 Re1 1.899097 1_555
F2 Re0 1.957285 1_555
F3 Re1 1.957285 1_555
F4 Re0 1.882522 1_555
F5 Re1 1.882522 1_555
F6 Re2 2.112653 1_565
F6 Re0 2.263496 1_555
F7 Re3 2.112653 1_545
F7 Re1 2.263496 1_555
F8 Re2 1.882449 1_565
F9 Re3 1.882449 1_545
F10 Re2 1.883375 1_555
F11 Re3 1.883375 1_555
F12 Re2 2.094129 1_565
F12 Re4 2.209550 1_554
F13 Re3 2.094129 1_545
F13 Re5 2.209550 1_556
F14 Re4 1.965729 1_555
F15 Re5 1.965729 1_555
F16 Re4 1.890883 1_655
F17 Re5 1.890883 1_455
F18 Re4 1.891880 1_555
F19 Re5 1.891880 1_555
