# generated using pymatgen
data_KLaCr2O8
_symmetry_space_group_name_H-M   'P 1'
_cell_length_a   7.47950005
_cell_length_b   8.68040714
_cell_length_c   11.04350584
_cell_angle_alpha   87.46347003
_cell_angle_beta   90.00000000
_cell_angle_gamma   90.00000000
_symmetry_Int_Tables_number   1
_chemical_formula_structural   KLaCr2O8
_chemical_formula_sum   'K4 La4 Cr8 O32'
_cell_volume   716.29827208
_cell_formula_units_Z   4
loop_
 _symmetry_equiv_pos_site_id
 _symmetry_equiv_pos_as_xyz
  1  'x, y, z'
loop_
 _atom_site_type_symbol
 _atom_site_label
 _atom_site_symmetry_multiplicity
 _atom_site_fract_x
 _atom_site_fract_y
 _atom_site_fract_z
 _atom_site_occupancy
  K  K0  1  0.15322819  0.43113305  0.83701354  1
  K  K1  1  0.65322819  0.56886695  0.66298646  1
  K  K2  1  0.84677181  0.56886695  0.16298646  1
  K  K3  1  0.34677181  0.43113305  0.33701354  1
  La  La0  1  0.83735245  0.05997846  0.65544230  1
  La  La1  1  0.33735245  0.94002154  0.84455770  1
  La  La2  1  0.16264755  0.94002154  0.34455770  1
  La  La3  1  0.66264755  0.05997846  0.15544230  1
  Cr  Cr0  1  0.66584851  0.28508379  0.91126240  1
  Cr  Cr1  1  0.16584851  0.71491621  0.58873760  1
  Cr  Cr2  1  0.33415149  0.71491621  0.08873760  1
  Cr  Cr3  1  0.83415149  0.28508379  0.41126240  1
  Cr  Cr4  1  0.83768982  0.80522161  0.89381266  1
  Cr  Cr5  1  0.33768982  0.19477839  0.60618734  1
  Cr  Cr6  1  0.16231018  0.19477839  0.10618734  1
  Cr  Cr7  1  0.66231018  0.80522161  0.39381266  1
  O  O0  1  0.82152739  0.26416099  0.80616469  1
  O  O1  1  0.32152739  0.73583901  0.69383531  1
  O  O2  1  0.17847261  0.73583901  0.19383531  1
  O  O3  1  0.67847261  0.26416099  0.30616469  1
  O  O4  1  0.56161175  0.11678629  0.93766585  1
  O  O5  1  0.06161175  0.88321371  0.56233415  1
  O  O6  1  0.43838825  0.88321371  0.06233415  1
  O  O7  1  0.93838825  0.11678629  0.43766585  1
  O  O8  1  0.75430905  0.31134687  0.04543031  1
  O  O9  1  0.25430905  0.68865313  0.45456969  1
  O  O10  1  0.24569095  0.68865313  0.95456969  1
  O  O11  1  0.74569095  0.31134687  0.54543031  1
  O  O12  1  0.52534647  0.41800577  0.86993784  1
  O  O13  1  0.02534647  0.58199423  0.63006216  1
  O  O14  1  0.47465353  0.58199423  0.13006216  1
  O  O15  1  0.97465353  0.41800577  0.36993784  1
  O  O16  1  0.66020214  0.85273513  0.80881246  1
  O  O17  1  0.16020214  0.14726487  0.69118754  1
  O  O18  1  0.33979786  0.14726487  0.19118754  1
  O  O19  1  0.83979786  0.85273513  0.30881246  1
  O  O20  1  0.00322463  0.90293023  0.82262519  1
  O  O21  1  0.50322463  0.09706977  0.67737481  1
  O  O22  1  0.99677537  0.09706977  0.17737481  1
  O  O23  1  0.49677537  0.90293023  0.32262519  1
  O  O24  1  0.86788409  0.62159783  0.89494228  1
  O  O25  1  0.36788409  0.37840217  0.60505772  1
  O  O26  1  0.13211591  0.37840217  0.10505772  1
  O  O27  1  0.63211591  0.62159783  0.39494228  1
  O  O28  1  0.81370720  0.85950558  0.03324150  1
  O  O29  1  0.31370720  0.14049442  0.46675850  1
  O  O30  1  0.18629280  0.14049442  0.96675850  1
  O  O31  1  0.68629280  0.85950558  0.53324150  1
loop_
_geom_bond_atom_site_label_1
_geom_bond_atom_site_label_2
_geom_bond_distance
_geom_bond_site_symmetry_2
K0 O10 2.723503 1_555
K0 O13 2.754672 1_555
K0 O24 2.791284 1_455
K0 O12 2.808567 1_555
K0 O30 2.856407 1_555
K0 O0 2.900970 1_455
K0 O26 2.979428 1_556
K0 O17 3.003197 1_555
K0 O25 3.074542 1_555
K0 O1 3.272678 1_555
K1 O11 2.723503 1_555
K1 O12 2.754672 1_555
K1 O25 2.791284 1_555
K1 O13 2.808567 1_655
K1 O31 2.856407 1_555
K1 O1 2.900970 1_555
K1 O27 2.979428 1_555
K1 O16 3.003197 1_555
K1 O24 3.074542 1_555
K1 O0 3.272678 1_555
K2 O8 2.723503 1_555
K2 O15 2.754672 1_555
K2 O26 2.791284 1_655
K2 O14 2.808567 1_555
K2 O28 2.856407 1_555
K2 O2 2.900970 1_655
K2 O24 2.979428 1_554
K2 O19 3.003197 1_555
K2 O27 3.074542 1_555
K2 O3 3.272678 1_555
K3 O9 2.723503 1_555
K3 O14 2.754672 1_555
K3 O27 2.791284 1_555
K3 O15 2.808567 1_455
K3 O29 2.856407 1_555
K3 O3 2.900970 1_555
K3 O25 2.979428 1_555
K3 O18 3.003197 1_555
K3 O26 3.074542 1_555
K3 O2 3.272678 1_555
La0 O0 2.487381 1_555
La0 O31 2.516723 1_545
La0 O5 2.522850 1_645
La0 O21 2.532741 1_555
La0 O11 2.544100 1_555
La0 O7 2.548209 1_555
La0 O20 2.565854 1_645
La0 O17 2.566598 1_655
La0 O16 2.755165 1_545
La1 O1 2.487381 1_555
La1 O30 2.516723 1_565
La1 O4 2.522850 1_565
La1 O20 2.532741 1_555
La1 O10 2.544100 1_555
La1 O6 2.548209 1_556
La1 O21 2.565854 1_565
La1 O16 2.566598 1_555
La1 O17 2.755165 1_565
La2 O2 2.487381 1_555
La2 O29 2.516723 1_565
La2 O7 2.522850 1_465
La2 O23 2.532741 1_555
La2 O9 2.544100 1_555
La2 O5 2.548209 1_555
La2 O22 2.565854 1_465
La2 O19 2.566598 1_455
La2 O18 2.755165 1_565
La3 O3 2.487381 1_555
La3 O28 2.516723 1_545
La3 O6 2.522850 1_545
La3 O22 2.532741 1_555
La3 O8 2.544100 1_555
La3 O4 2.548209 1_554
La3 O23 2.565854 1_545
La3 O18 2.566598 1_555
La3 O19 2.755165 1_545
Cr0 O12 1.611619 1_555
Cr0 O8 1.647734 1_556
Cr0 O0 1.659691 1_555
Cr0 O4 1.670137 1_555
Cr1 O13 1.611619 1_555
Cr1 O9 1.647734 1_555
Cr1 O1 1.659691 1_555
Cr1 O5 1.670137 1_555
Cr2 O14 1.611619 1_555
Cr2 O10 1.647734 1_554
Cr2 O2 1.659691 1_555
Cr2 O6 1.670137 1_555
Cr3 O15 1.611619 1_555
Cr3 O11 1.647734 1_555
Cr3 O3 1.659691 1_555
Cr3 O7 1.670137 1_555
Cr4 O24 1.609350 1_555
Cr4 O28 1.639929 1_556
Cr4 O16 1.667124 1_555
Cr4 O20 1.676700 1_655
Cr5 O25 1.609350 1_555
Cr5 O29 1.639929 1_555
Cr5 O17 1.667124 1_555
Cr5 O21 1.676700 1_555
Cr6 O26 1.609350 1_555
Cr6 O30 1.639929 1_554
Cr6 O18 1.667124 1_555
Cr6 O22 1.676700 1_455
Cr7 O27 1.609350 1_555
Cr7 O31 1.639929 1_555
Cr7 O19 1.667124 1_555
Cr7 O23 1.676700 1_555
