# generated using pymatgen
data_NaV6O11
_symmetry_space_group_name_H-M   'P 1'
_cell_length_a   5.87462793
_cell_length_b   5.87462793
_cell_length_c   13.69435100
_cell_angle_alpha   90.00000000
_cell_angle_beta   90.00000000
_cell_angle_gamma   119.99999916
_symmetry_Int_Tables_number   1
_chemical_formula_structural   NaV6O11
_chemical_formula_sum   'Na2 V12 O22'
_cell_volume   409.29159028
_cell_formula_units_Z   2
loop_
 _symmetry_equiv_pos_site_id
 _symmetry_equiv_pos_as_xyz
  1  'x, y, z'
loop_
 _atom_site_type_symbol
 _atom_site_label
 _atom_site_symmetry_multiplicity
 _atom_site_fract_x
 _atom_site_fract_y
 _atom_site_fract_z
 _atom_site_occupancy
  Na  Na0  1  0.66666700  0.33333300  0.75000000  1
  Na  Na1  1  0.33333300  0.66666700  0.25000000  1
  V  V0  1  0.50000000  0.00000000  0.00000000  1
  V  V1  1  0.00000000  0.00000000  0.15017300  1
  V  V2  1  0.00000000  0.00000000  0.65017300  1
  V  V3  1  0.50000000  0.50000000  0.00000000  1
  V  V4  1  0.50000000  0.50000000  0.50000000  1
  V  V5  1  0.00000000  0.00000000  0.34982700  1
  V  V6  1  0.00000000  0.00000000  0.84982700  1
  V  V7  1  0.00000000  0.50000000  0.00000000  1
  V  V8  1  0.66666700  0.33333300  0.25000000  1
  V  V9  1  0.00000000  0.50000000  0.50000000  1
  V  V10  1  0.33333300  0.66666700  0.75000000  1
  V  V11  1  0.50000000  0.00000000  0.50000000  1
  O  O0  1  0.66103800  0.83051900  0.42728800  1
  O  O1  1  0.16948100  0.83051900  0.07271200  1
  O  O2  1  0.73365400  0.86682700  0.25000000  1
  O  O3  1  0.26634600  0.13317300  0.75000000  1
  O  O4  1  0.13317300  0.86682700  0.25000000  1
  O  O5  1  0.13317300  0.26634600  0.25000000  1
  O  O6  1  0.33896200  0.16948100  0.92728800  1
  O  O7  1  0.16948100  0.33896200  0.07271200  1
  O  O8  1  0.83051900  0.66103800  0.57271200  1
  O  O9  1  0.83051900  0.16948100  0.92728800  1
  O  O10  1  0.86682700  0.13317300  0.75000000  1
  O  O11  1  0.33333300  0.66666700  0.58657500  1
  O  O12  1  0.16948100  0.33896200  0.42728800  1
  O  O13  1  0.16948100  0.83051900  0.42728800  1
  O  O14  1  0.83051900  0.16948100  0.57271200  1
  O  O15  1  0.66666700  0.33333300  0.08657500  1
  O  O16  1  0.66103800  0.83051900  0.07271200  1
  O  O17  1  0.83051900  0.66103800  0.92728800  1
  O  O18  1  0.33896200  0.16948100  0.57271200  1
  O  O19  1  0.33333300  0.66666700  0.91342500  1
  O  O20  1  0.66666700  0.33333300  0.41342500  1
  O  O21  1  0.86682700  0.73365400  0.75000000  1
loop_
_geom_bond_atom_site_label_1
_geom_bond_atom_site_label_2
_geom_bond_distance
_geom_bond_site_symmetry_2
Na0 O10 2.036659 1_555
Na0 O3 2.036664 1_555
Na0 O21 2.036664 1_555
Na1 O4 2.036659 1_555
Na1 O5 2.036664 1_555
Na1 O2 2.036664 1_555
O0 V11 1.954405 1_565
O0 V4 1.954405 1_555
O0 V5 2.024632 1_665
O1 V0 1.954405 1_565
O1 V7 1.954405 1_555
O1 V1 2.024632 1_565
O2 V5 1.924850 1_665
O2 V1 1.924850 1_665
O3 V6 1.924850 1_555
O3 V2 1.924850 1_555
O4 V1 1.924849 1_565
O4 V5 1.924849 1_565
O5 V1 1.924850 1_555
O5 V5 1.924850 1_555
O6 V0 1.954405 1_556
O6 V3 1.954405 1_556
O6 V6 2.024632 1_555
O7 V7 1.954405 1_555
O7 V3 1.954405 1_555
O7 V1 2.024632 1_555
O8 V9 1.954405 1_655
O8 V4 1.954405 1_555
O8 V2 2.024632 1_665
O9 V0 1.954405 1_556
O9 V7 1.954405 1_656
O9 V6 2.024632 1_655
O10 V2 1.924849 1_655
O10 V6 1.924849 1_655
O11 V9 2.069191 1_555
O11 V11 2.069191 1_565
O11 V4 2.069195 1_555
O11 V10 2.237999 1_555
O12 V9 1.954405 1_555
O12 V4 1.954405 1_555
O12 V5 2.024632 1_555
O13 V9 1.954405 1_555
O13 V11 1.954405 1_565
O13 V5 2.024632 1_565
O14 V9 1.954405 1_655
O14 V11 1.954405 1_555
O14 V2 2.024632 1_655
O15 V7 2.069191 1_655
O15 V0 2.069191 1_555
O15 V3 2.069195 1_555
O15 V8 2.237999 1_555
O16 V0 1.954405 1_565
O16 V3 1.954405 1_555
O16 V1 2.024632 1_665
O17 V7 1.954405 1_656
O17 V3 1.954405 1_556
O17 V6 2.024632 1_665
O18 V11 1.954405 1_555
O18 V4 1.954405 1_555
O18 V2 2.024632 1_555
O19 V0 2.069191 1_566
O19 V7 2.069191 1_556
O19 V3 2.069195 1_556
O19 V10 2.237999 1_555
O20 V11 2.069191 1_555
O20 V9 2.069191 1_655
O20 V4 2.069195 1_555
O20 V8 2.237999 1_555
O21 V6 1.924850 1_665
O21 V2 1.924850 1_665
