# generated using pymatgen
data_Cs2MoCl6
_symmetry_space_group_name_H-M   'P 1'
_cell_length_a   7.31830442
_cell_length_b   7.31830442
_cell_length_c   7.31832089
_cell_angle_alpha   59.99992553
_cell_angle_beta   59.99992553
_cell_angle_gamma   60.00014894
_symmetry_Int_Tables_number   1
_chemical_formula_structural   Cs2MoCl6
_chemical_formula_sum   'Cs2 Mo1 Cl6'
_cell_volume   277.15160123
_cell_formula_units_Z   1
loop_
 _symmetry_equiv_pos_site_id
 _symmetry_equiv_pos_as_xyz
  1  'x, y, z'
loop_
 _atom_site_type_symbol
 _atom_site_label
 _atom_site_symmetry_multiplicity
 _atom_site_fract_x
 _atom_site_fract_y
 _atom_site_fract_z
 _atom_site_occupancy
  Cs  Cs0  1  0.25000000  0.25000000  0.25000000  1
  Cs  Cs1  1  0.75000000  0.75000000  0.75000000  1
  Mo  Mo0  1  0.00000000  -0.00000000  -0.00000000  1
  Cl  Cl0  1  0.76873793  0.23126207  0.76873793  1
  Cl  Cl1  1  0.23126307  0.76873693  0.76873693  1
  Cl  Cl2  1  0.76873693  0.76873693  0.23126307  1
  Cl  Cl3  1  0.23126207  0.76873793  0.23126207  1
  Cl  Cl4  1  0.76873693  0.23126307  0.23126307  1
  Cl  Cl5  1  0.23126307  0.23126307  0.76873693  1
loop_
_geom_bond_atom_site_label_1
_geom_bond_atom_site_label_2
_geom_bond_distance
_geom_bond_site_symmetry_2
Cl0 Mo0 2.393486 1_656
Cl0 Cs0 3.664288 1_655
Cl0 Cs0 3.664288 1_556
Cl0 Cs1 3.664288 1_555
Cl0 Cs1 3.664288 1_545
Cl1 Mo0 2.393496 1_566
Cl1 Cs0 3.664287 1_565
Cl1 Cs1 3.664287 1_555
Cl1 Cs0 3.664287 1_556
Cl1 Cs1 3.664287 1_455
Cl2 Mo0 2.393485 1_665
Cl2 Cs0 3.664295 1_655
Cl2 Cs1 3.664295 1_554
Cl2 Cs0 3.664295 1_565
Cl2 Cs1 3.664295 1_555
Cl3 Mo0 2.393486 1_565
Cl3 Cs1 3.664288 1_554
Cl3 Cs1 3.664288 1_455
Cl3 Cs0 3.664288 1_565
Cl3 Cs0 3.664288 1_555
Cl4 Mo0 2.393496 1_655
Cl4 Cs0 3.664287 1_555
Cl4 Cs1 3.664287 1_545
Cl4 Cs1 3.664287 1_554
Cl4 Cs0 3.664287 1_655
Cl5 Mo0 2.393485 1_556
Cl5 Cs0 3.664295 1_555
Cl5 Cs0 3.664295 1_556
Cl5 Cs1 3.664295 1_455
Cl5 Cs1 3.664295 1_545
