# generated using pymatgen
data_Nd2Al
_symmetry_space_group_name_H-M   'P 1'
_cell_length_a   6.36081299
_cell_length_b   6.36081299
_cell_length_c   6.36081299
_cell_angle_alpha   60.00000000
_cell_angle_beta   60.00000000
_cell_angle_gamma   60.00000000
_symmetry_Int_Tables_number   1
_chemical_formula_structural   Nd2Al
_chemical_formula_sum   'Nd4 Al2'
_cell_volume   181.97967476
_cell_formula_units_Z   2
loop_
 _symmetry_equiv_pos_site_id
 _symmetry_equiv_pos_as_xyz
  1  'x, y, z'
loop_
 _atom_site_type_symbol
 _atom_site_label
 _atom_site_symmetry_multiplicity
 _atom_site_fract_x
 _atom_site_fract_y
 _atom_site_fract_z
 _atom_site_occupancy
  Nd  Nd0  1  0.62500000  0.12500000  0.12500000  1
  Nd  Nd1  1  0.12500000  0.12500000  0.62500000  1
  Nd  Nd2  1  0.12500000  0.12500000  0.12500000  1
  Nd  Nd3  1  0.12500000  0.62500000  0.12500000  1
  Al  Al0  1  0.75000000  0.75000000  0.75000000  1
  Al  Al1  1  0.50000000  0.50000000  0.50000000  1
loop_
_geom_bond_atom_site_label_1
_geom_bond_atom_site_label_2
_geom_bond_distance
_geom_bond_site_symmetry_2
Nd0 Nd2 3.180406 1_555
Nd0 Nd3 3.180406 1_645
Nd0 Nd3 3.180406 1_555
Nd0 Nd2 3.180406 1_655
Nd0 Nd1 3.180406 1_555
Nd0 Nd1 3.180406 1_654
Nd1 Nd2 3.180406 1_555
Nd1 Nd2 3.180406 1_556
Nd1 Nd3 3.180406 1_555
Nd1 Nd3 3.180406 1_546
Nd2 Nd3 3.180406 1_545
Nd2 Nd3 3.180406 1_555
Al0 Nd0 3.729357 1_556
Al0 Nd3 3.729357 1_656
Al0 Nd2 3.729357 1_566
Al0 Nd2 3.729357 1_665
Al0 Nd0 3.729357 1_565
Al0 Nd0 3.729357 1_566
Al0 Nd2 3.729357 1_656
Al0 Nd3 3.729357 1_655
Al0 Nd1 3.729357 1_665
Al0 Nd1 3.729357 1_655
Al0 Nd1 3.729357 1_565
Al0 Nd3 3.729357 1_556
Al1 Nd3 3.729357 1_555
Al1 Nd0 3.729357 1_556
Al1 Nd1 3.729357 1_555
Al1 Nd0 3.729357 1_565
Al1 Nd3 3.729357 1_655
Al1 Nd2 3.729357 1_565
Al1 Nd2 3.729357 1_655
Al1 Nd1 3.729357 1_655
Al1 Nd2 3.729357 1_556
Al1 Nd1 3.729357 1_565
Al1 Nd0 3.729357 1_555
Al1 Nd3 3.729357 1_556
