# generated using pymatgen
data_FeS4N4Cl5
_symmetry_space_group_name_H-M   'P 1'
_cell_length_a   7.37062500
_cell_length_b   9.46344701
_cell_length_c   10.40090686
_cell_angle_alpha   76.77696127
_cell_angle_beta   83.66228035
_cell_angle_gamma   79.74802693
_symmetry_Int_Tables_number   1
_chemical_formula_structural   FeS4N4Cl5
_chemical_formula_sum   'Fe2 S8 N8 Cl10'
_cell_volume   693.12808857
_cell_formula_units_Z   2
loop_
 _symmetry_equiv_pos_site_id
 _symmetry_equiv_pos_as_xyz
  1  'x, y, z'
loop_
 _atom_site_type_symbol
 _atom_site_label
 _atom_site_symmetry_multiplicity
 _atom_site_fract_x
 _atom_site_fract_y
 _atom_site_fract_z
 _atom_site_occupancy
  Fe  Fe0  1  0.95074300  0.18960800  0.21660800  1
  Fe  Fe1  1  0.04925700  0.81039200  0.78339200  1
  S  S0  1  0.37820900  0.33525600  0.86643300  1
  S  S1  1  0.33173200  0.19862000  0.53108700  1
  S  S2  1  0.53040200  0.95958900  0.20169700  1
  S  S3  1  0.92342600  0.60155200  0.31568000  1
  S  S4  1  0.07657400  0.39844800  0.68432000  1
  S  S5  1  0.66826800  0.80138000  0.46891300  1
  S  S6  1  0.46959800  0.04041100  0.79830300  1
  S  S7  1  0.62179100  0.66474400  0.13356700  1
  N  N0  1  0.43338400  0.08629600  0.64900000  1
  N  N1  1  0.17833000  0.38938900  0.81241800  1
  N  N2  1  0.82167000  0.61061100  0.18758200  1
  N  N3  1  0.17731100  0.32376200  0.57155900  1
  N  N4  1  0.56516300  0.83930400  0.11432500  1
  N  N5  1  0.43483700  0.16069600  0.88567500  1
  N  N6  1  0.56661600  0.91370400  0.35100000  1
  N  N7  1  0.82268900  0.67623800  0.42844100  1
  Cl  Cl0  1  0.18352100  0.79739000  0.58531400  1
  Cl  Cl1  1  0.24327500  0.69742500  0.93496800  1
  Cl  Cl2  1  0.75672500  0.30257500  0.06503200  1
  Cl  Cl3  1  0.79762800  0.70651000  0.80752700  1
  Cl  Cl4  1  0.43993000  0.58444800  0.30670100  1
  Cl  Cl5  1  0.20237200  0.29349000  0.19247300  1
  Cl  Cl6  1  0.81647900  0.20261000  0.41468600  1
  Cl  Cl7  1  0.96637900  0.04243100  0.80091800  1
  Cl  Cl8  1  0.03362100  0.95756900  0.19908200  1
  Cl  Cl9  1  0.56007000  0.41555200  0.69329900  1
loop_
_geom_bond_atom_site_label_1
_geom_bond_atom_site_label_2
_geom_bond_distance
_geom_bond_site_symmetry_2
N0 S6 1.553392 1_555
N0 S1 1.586920 1_555
N1 S4 1.578115 1_555
N1 S0 1.590879 1_555
N2 S3 1.578115 1_555
N2 S7 1.590879 1_555
N3 S4 1.557727 1_555
N3 S1 1.586708 1_555
N4 S2 1.582795 1_555
N4 S7 1.601540 1_555
N5 S6 1.582795 1_555
N5 S0 1.601540 1_555
N6 S2 1.553392 1_555
N6 S5 1.586920 1_555
N7 S3 1.557727 1_555
N7 S5 1.586708 1_555
Cl0 Fe1 2.204850 1_555
Cl1 Fe1 2.203596 1_555
Cl2 Fe0 2.203596 1_555
Cl3 Fe1 2.214173 1_655
Cl4 S7 2.195569 1_555
Cl5 Fe0 2.214173 1_455
Cl6 Fe0 2.204850 1_555
Cl7 Fe1 2.215711 1_645
Cl8 Fe0 2.215711 1_465
Cl9 S0 2.195569 1_555
