# generated using pymatgen
data_Sc2V3Si4
_symmetry_space_group_name_H-M   'P 1'
_cell_length_a   6.60925219
_cell_length_b   6.60924979
_cell_length_c   12.23829402
_cell_angle_alpha   89.99978340
_cell_angle_beta   90.00021826
_cell_angle_gamma   89.99993836
_symmetry_Int_Tables_number   1
_chemical_formula_structural   Sc2V3Si4
_chemical_formula_sum   'Sc8 V12 Si16'
_cell_volume   534.59559050
_cell_formula_units_Z   4
loop_
 _symmetry_equiv_pos_site_id
 _symmetry_equiv_pos_as_xyz
  1  'x, y, z'
loop_
 _atom_site_type_symbol
 _atom_site_label
 _atom_site_symmetry_multiplicity
 _atom_site_fract_x
 _atom_site_fract_y
 _atom_site_fract_z
 _atom_site_occupancy
  Sc  Sc0  1  0.00182445  0.66260944  0.03022650  1
  Sc  Sc1  1  0.83741120  0.50183087  0.28025216  1
  Sc  Sc2  1  0.16258506  0.49818020  0.78019103  1
  Sc  Sc3  1  0.50183164  0.83741219  0.71974888  1
  Sc  Sc4  1  0.49818110  0.16258548  0.21980802  1
  Sc  Sc5  1  0.99816843  0.33739668  0.53022086  1
  Sc  Sc6  1  0.66260968  0.00182530  0.96976711  1
  Sc  Sc7  1  0.33739706  0.99816925  0.46978551  1
  V  V0  1  0.33129946  0.33129919  0.99999750  1
  V  V1  1  0.16867032  0.83132404  0.25002598  1
  V  V2  1  0.83132373  0.16867038  0.74997387  1
  V  V3  1  0.66870152  0.66870108  0.50000251  1
  V  V4  1  0.00845472  0.15664640  0.12659646  1
  V  V5  1  0.34333901  0.50846485  0.37659724  1
  V  V6  1  0.65667104  0.49153702  0.87655530  1
  V  V7  1  0.50846622  0.34333853  0.62340651  1
  V  V8  1  0.49153849  0.65667058  0.12344101  1
  V  V9  1  0.99153241  0.84334859  0.62656317  1
  V  V10  1  0.15664587  0.00845448  0.87339989  1
  V  V11  1  0.84334757  0.99153204  0.37344052  1
  Si  Si0  1  0.29390533  0.95933403  0.06409435  1
  Si  Si1  1  0.54067301  0.79391588  0.31410547  1
  Si  Si2  1  0.45933241  0.20608338  0.81407698  1
  Si  Si3  1  0.79391518  0.54067072  0.68589637  1
  Si  Si4  1  0.20608315  0.45933242  0.18592193  1
  Si  Si5  1  0.70609829  0.04066505  0.56408602  1
  Si  Si6  1  0.95933338  0.29390451  0.93590282  1
  Si  Si7  1  0.04066453  0.70609748  0.43591675  1
  Si  Si8  1  0.70375981  0.37018862  0.06963398  1
  Si  Si9  1  0.12979976  0.20374795  0.31964028  1
  Si  Si10  1  0.87019874  0.79625240  0.81961376  1
  Si  Si11  1  0.20374821  0.12979946  0.68036099  1
  Si  Si12  1  0.79625247  0.87019836  0.18038504  1
  Si  Si13  1  0.29624207  0.62980903  0.56962582  1
  Si  Si14  1  0.37018908  0.70375998  0.93036322  1
  Si  Si15  1  0.62980958  0.29624213  0.43037719  1
loop_
_geom_bond_atom_site_label_1
_geom_bond_atom_site_label_2
_geom_bond_distance
_geom_bond_site_symmetry_2
Sc0 Si12 2.665619 1_455
Sc0 Si4 2.694103 1_555
Sc0 Si6 2.711040 1_454
Sc0 Si14 2.737701 1_554
Sc0 Si0 2.782878 1_555
Sc0 Si8 2.801553 1_455
Sc0 Si10 2.860187 1_454
Sc1 Si15 2.665430 1_555
Sc1 Si7 2.693793 1_655
Sc1 Si4 2.710885 1_655
Sc1 Si12 2.737735 1_555
Sc1 Si1 2.782933 1_555
Sc1 Si9 2.801445 1_655
Sc1 Si8 2.860304 1_555
Sc2 Si14 2.665806 1_555
Sc2 Si6 2.694226 1_455
Sc2 Si3 2.710673 1_455
Sc2 Si11 2.737622 1_555
Sc2 Si2 2.783085 1_555
Sc2 Si10 2.801463 1_455
Sc2 Si13 2.859705 1_555
Sc3 Si13 2.665422 1_555
Sc3 Si5 2.693777 1_565
Sc3 Si2 2.710869 1_565
Sc3 Si10 2.737721 1_555
Sc3 Si3 2.782940 1_555
Sc3 Si11 2.801441 1_565
Sc3 Si14 2.860264 1_555
Sc4 Si8 2.665815 1_555
Sc4 Si0 2.694242 1_545
Sc4 Si1 2.710686 1_545
Sc4 Si9 2.737638 1_555
Sc4 Si4 2.783088 1_555
Sc4 Si12 2.801463 1_545
Sc4 Si15 2.859747 1_555
Sc5 Si11 2.665504 1_655
Sc5 Si3 2.693917 1_555
Sc5 Si7 2.710910 1_655
Sc5 Si15 2.737555 1_555
Sc5 Si5 2.782856 1_555
Sc5 Si13 2.801551 1_655
Sc5 Si9 2.859868 1_655
Sc6 Si10 2.665579 1_545
Sc6 Si2 2.694056 1_555
Sc6 Si0 2.711056 1_546
Sc6 Si8 2.737712 1_556
Sc6 Si6 2.782859 1_555
Sc6 Si14 2.801548 1_545
Sc6 Si12 2.860247 1_546
Sc7 Si9 2.665544 1_565
Sc7 Si1 2.693963 1_555
Sc7 Si5 2.710894 1_565
Sc7 Si13 2.737544 1_555
Sc7 Si7 2.782875 1_555
Sc7 Si15 2.801556 1_565
Sc7 Si11 2.859809 1_565
Si0 Si14 2.405421 1_554
Si0 V4 2.417659 1_565
Si0 V8 2.497035 1_555
Si0 V10 2.524848 1_564
Si0 V1 2.564906 1_555
Si0 V0 2.592333 1_564
Si1 Si12 2.405354 1_555
Si1 V5 2.417695 1_555
Si1 V11 2.496999 1_555
Si1 V8 2.524494 1_555
Si1 V3 2.564521 1_555
Si1 V1 2.592513 1_555
Si2 V6 2.417675 1_555
Si2 V10 2.497065 1_555
Si2 V7 2.524581 1_555
Si2 V0 2.564799 1_555
Si2 V2 2.592539 1_555
Si3 V7 2.417671 1_555
Si3 V9 2.497013 1_555
Si3 V6 2.524428 1_555
Si3 V3 2.564488 1_555
Si3 V2 2.592490 1_555
Si4 Si9 2.405355 1_555
Si4 V8 2.417692 1_555
Si4 V4 2.497069 1_555
Si4 V5 2.524636 1_555
Si4 V0 2.564843 1_554
Si4 V1 2.592543 1_555
Si5 V9 2.417484 1_545
Si5 V7 2.496998 1_555
Si5 V11 2.524290 1_545
Si5 V2 2.564400 1_555
Si5 V3 2.592283 1_545
Si6 Si8 2.405420 1_556
Si6 V10 2.417659 1_655
Si6 V6 2.497030 1_555
Si6 V4 2.524837 1_656
Si6 V2 2.564874 1_555
Si6 V0 2.592332 1_655
Si7 V11 2.417484 1_455
Si7 V5 2.497002 1_555
Si7 V9 2.524304 1_455
Si7 V1 2.564435 1_555
Si7 V3 2.592286 1_455
Si8 V8 2.446646 1_555
Si8 V6 2.514682 1_554
Si8 V4 2.556030 1_655
Si8 V0 2.617678 1_554
Si9 V11 2.446451 1_445
Si9 V4 2.514287 1_555
Si9 V5 2.556122 1_555
Si9 V1 2.617356 1_545
Si10 Si3 2.405340 1_555
Si10 V10 2.446325 1_665
Si10 V9 2.514340 1_555
Si10 V6 2.556019 1_555
Si10 V2 2.617417 1_565
Si11 Si2 2.405335 1_555
Si11 V9 2.446435 1_445
Si11 V10 2.514231 1_555
Si11 V7 2.556119 1_555
Si11 V2 2.617355 1_455
Si12 V4 2.446338 1_665
Si12 V11 2.514396 1_555
Si12 V8 2.556020 1_555
Si12 V1 2.617421 1_655
Si13 Si7 2.405249 1_555
Si13 V7 2.446505 1_555
Si13 V5 2.514112 1_555
Si13 V9 2.556020 1_455
Si13 V3 2.617628 1_555
Si14 V6 2.446655 1_555
Si14 V8 2.514675 1_556
Si14 V10 2.556034 1_565
Si14 V0 2.617672 1_555
Si15 Si5 2.405245 1_555
Si15 V5 2.446497 1_555
Si15 V7 2.514118 1_555
Si15 V11 2.556014 1_545
Si15 V3 2.617632 1_555
