# generated using pymatgen
data_Sr11(MgSi5)2
_symmetry_space_group_name_H-M   'P 1'
_cell_length_a   10.15212962
_cell_length_b   10.15212962
_cell_length_c   14.90264833
_cell_angle_alpha   68.45549185
_cell_angle_beta   68.45549185
_cell_angle_gamma   27.12304405
_symmetry_Int_Tables_number   1
_chemical_formula_structural   Sr11(MgSi5)2
_chemical_formula_sum   'Sr11 Mg2 Si10'
_cell_volume   648.36057413
_cell_formula_units_Z   1
loop_
 _symmetry_equiv_pos_site_id
 _symmetry_equiv_pos_as_xyz
  1  'x, y, z'
loop_
 _atom_site_type_symbol
 _atom_site_label
 _atom_site_symmetry_multiplicity
 _atom_site_fract_x
 _atom_site_fract_y
 _atom_site_fract_z
 _atom_site_occupancy
  Sr  Sr0  1  0.20635300  0.20635300  0.62177500  1
  Sr  Sr1  1  0.98287500  0.98287500  0.80382300  1
  Sr  Sr2  1  0.35617100  0.35617100  0.71733400  1
  Sr  Sr3  1  0.42864000  0.42864000  0.44146300  1
  Sr  Sr4  1  0.15741600  0.15741600  0.89568400  1
  Sr  Sr5  1  0.79364700  0.79364700  0.37822500  1
  Sr  Sr6  1  0.50000000  0.50000000  0.00000000  1
  Sr  Sr7  1  0.01712500  0.01712500  0.19617700  1
  Sr  Sr8  1  0.84258400  0.84258400  0.10431600  1
  Sr  Sr9  1  0.57136000  0.57136000  0.55853700  1
  Sr  Sr10  1  0.64382900  0.64382900  0.28266600  1
  Mg  Mg0  1  0.21954800  0.21954800  0.08273600  1
  Mg  Mg1  1  0.78045200  0.78045200  0.91726400  1
  Si  Si0  1  0.83088600  0.83088600  0.57927600  1
  Si  Si1  1  0.38862200  0.38862200  0.23646200  1
  Si  Si2  1  0.25989200  0.25989200  0.25325500  1
  Si  Si3  1  0.04555300  0.04555300  0.41603600  1
  Si  Si4  1  0.61137800  0.61137800  0.76353800  1
  Si  Si5  1  0.64258900  0.64258900  0.06978100  1
  Si  Si6  1  0.16911400  0.16911400  0.42072400  1
  Si  Si7  1  0.35741100  0.35741100  0.93021900  1
  Si  Si8  1  0.74010800  0.74010800  0.74674500  1
  Si  Si9  1  0.95444700  0.95444700  0.58396400  1
loop_
_geom_bond_atom_site_label_1
_geom_bond_atom_site_label_2
_geom_bond_distance
_geom_bond_site_symmetry_2
Mg0 Si7 2.810341 1_554
Mg0 Si5 2.869387 1_545
Mg0 Si5 2.869387 1_455
Mg0 Si2 2.936083 1_555
Mg0 Sr4 3.443446 1_554
Mg0 Sr8 3.501172 1_545
Mg0 Sr8 3.501172 1_455
Mg1 Si5 2.810341 1_556
Mg1 Si7 2.869387 1_565
Mg1 Si7 2.869387 1_655
Mg1 Si8 2.936083 1_555
Mg1 Sr8 3.443446 1_556
Mg1 Sr4 3.501172 1_565
Mg1 Sr4 3.501172 1_655
Si0 Si8 2.461842 1_555
Si0 Si9 2.466105 1_555
Si0 Sr3 3.257931 1_565
Si0 Sr3 3.257931 1_655
Si0 Sr2 3.305294 1_655
Si0 Sr2 3.305294 1_565
Si0 Sr0 3.306668 1_565
Si0 Sr0 3.306668 1_655
Si0 Sr5 3.343844 1_555
Si1 Si2 2.457304 1_555
Si1 Sr5 3.263809 1_545
Si1 Sr5 3.263809 1_455
Si1 Sr7 3.363101 1_565
Si1 Sr7 3.363101 1_655
Si1 Sr6 3.376088 1_555
Si1 Sr8 3.423901 1_545
Si1 Sr8 3.423901 1_455
Si1 Sr3 3.432265 1_555
Si2 Si6 2.461842 1_555
Si2 Sr10 3.216936 1_455
Si2 Sr10 3.216936 1_545
Si2 Sr5 3.242983 1_455
Si2 Sr5 3.242983 1_545
Si2 Sr8 3.243553 1_455
Si2 Sr8 3.243553 1_545
Si3 Si6 2.466105 1_555
Si3 Si9 2.469129 1_445
Si3 Sr10 3.235343 1_455
Si3 Sr10 3.235343 1_545
Si3 Sr3 3.236552 1_455
Si3 Sr3 3.236552 1_545
Si3 Sr9 3.354653 1_545
Si3 Sr9 3.354653 1_455
Si3 Sr7 3.526922 1_555
Si4 Si8 2.457304 1_555
Si4 Sr0 3.263809 1_565
Si4 Sr0 3.263809 1_655
Si4 Sr1 3.363101 1_455
Si4 Sr1 3.363101 1_545
Si4 Sr6 3.376088 1_556
Si4 Sr4 3.423901 1_565
Si4 Sr4 3.423901 1_655
Si4 Sr9 3.432265 1_555
Si5 Sr10 3.181877 1_555
Si5 Sr6 3.348695 1_555
Si5 Sr7 3.438552 1_565
Si5 Sr7 3.438552 1_655
Si5 Sr4 3.451166 1_654
Si5 Sr4 3.451166 1_564
Si6 Sr9 3.257931 1_455
Si6 Sr9 3.257931 1_545
Si6 Sr10 3.305294 1_545
Si6 Sr10 3.305294 1_455
Si6 Sr5 3.306668 1_545
Si6 Sr5 3.306668 1_455
Si6 Sr0 3.343844 1_555
Si7 Sr2 3.181877 1_555
Si7 Sr6 3.348695 1_556
Si7 Sr1 3.438552 1_545
Si7 Sr1 3.438552 1_455
Si7 Sr8 3.451166 1_456
Si7 Sr8 3.451166 1_546
Si8 Sr2 3.216936 1_565
Si8 Sr2 3.216936 1_655
Si8 Sr0 3.242983 1_565
Si8 Sr0 3.242983 1_655
Si8 Sr4 3.243553 1_655
Si8 Sr4 3.243553 1_565
Si9 Sr2 3.235343 1_655
Si9 Sr2 3.235343 1_565
Si9 Sr9 3.236552 1_655
Si9 Sr9 3.236552 1_565
Si9 Sr3 3.354653 1_565
Si9 Sr3 3.354653 1_655
Si9 Sr1 3.526922 1_555
