# generated using pymatgen
data_Li5Nb6O18
_symmetry_space_group_name_H-M   'P 1'
_cell_length_a   7.68553200
_cell_length_b   9.07608304
_cell_length_c   11.21764744
_cell_angle_alpha   105.77052043
_cell_angle_beta   95.18177097
_cell_angle_gamma   113.26479351
_symmetry_Int_Tables_number   1
_chemical_formula_structural   Li5Nb6O18
_chemical_formula_sum   'Li10 Nb12 O36'
_cell_volume   674.28634913
_cell_formula_units_Z   2
loop_
 _symmetry_equiv_pos_site_id
 _symmetry_equiv_pos_as_xyz
  1  'x, y, z'
loop_
 _atom_site_type_symbol
 _atom_site_label
 _atom_site_symmetry_multiplicity
 _atom_site_fract_x
 _atom_site_fract_y
 _atom_site_fract_z
 _atom_site_occupancy
  Li  Li0  1  0.69914600  0.99820000  0.79467000  1
  Li  Li1  1  0.37364300  0.33782300  0.13223800  1
  Li  Li2  1  0.87065300  0.33050300  0.12597000  1
  Li  Li3  1  0.20094200  0.00151700  0.29605500  1
  Li  Li4  1  0.03744800  0.66963800  0.46233100  1
  Li  Li5  1  0.53917200  0.66298500  0.46339100  1
  Li  Li6  1  0.37502700  0.33373800  0.62926000  1
  Li  Li7  1  0.87241400  0.33762200  0.63302000  1
  Li  Li8  1  0.03842700  0.66237100  0.96298200  1
  Li  Li9  1  0.53756100  0.66590900  0.96268800  1
  Nb  Nb0  1  0.98343400  0.00133200  0.01607100  1
  Nb  Nb1  1  0.65241900  0.32248100  0.34587600  1
  Nb  Nb2  1  0.97494000  0.00071000  0.50745800  1
  Nb  Nb3  1  0.48179800  0.99927300  0.51580900  1
  Nb  Nb4  1  0.65551000  0.33383900  0.84455500  1
  Nb  Nb5  1  0.14944800  0.32523200  0.84810800  1
  Nb  Nb6  1  0.47382300  0.99785200  0.00659700  1
  Nb  Nb7  1  0.32376000  0.67304300  0.18571000  1
  Nb  Nb8  1  0.82225500  0.66742400  0.17817700  1
  Nb  Nb9  1  0.15391600  0.33515400  0.34792200  1
  Nb  Nb10  1  0.31917900  0.66470700  0.67981100  1
  Nb  Nb11  1  0.82660000  0.67361600  0.68456900  1
  O  O0  1  0.66827000  0.20509100  0.45861600  1
  O  O1  1  0.63415600  0.12984200  0.68568300  1
  O  O2  1  0.33416100  0.53717500  0.78636400  1
  O  O3  1  0.38458700  0.27162200  0.80546300  1
  O  O4  1  0.66732100  0.20336900  0.94935300  1
  O  O5  1  0.29239500  0.45862200  0.01729200  1
  O  O6  1  0.00591500  0.87172900  0.12127500  1
  O  O7  1  0.28970400  0.08592500  0.01884700  1
  O  O8  1  0.04498200  0.58275100  0.13794200  1
  O  O9  1  0.05408200  0.21490600  0.14653500  1
  O  O10  1  0.63685200  0.14751400  0.17644900  1
  O  O11  1  0.33960200  0.53833000  0.28742800  1
  O  O12  1  0.96724100  0.79945800  0.34784300  1
  O  O13  1  0.37942200  0.25141600  0.30570500  1
  O  O14  1  0.96055900  0.41611000  0.35069200  1
  O  O15  1  0.70326500  0.91368300  0.47528900  1
  O  O16  1  0.02428300  0.12563600  0.37587700  1
  O  O17  1  0.71580100  0.54090900  0.47456200  1
  O  O18  1  0.30601900  0.46616400  0.51867400  1
  O  O19  1  0.98637800  0.85074700  0.60146400  1
  O  O20  1  0.29128600  0.08176400  0.51915200  1
  O  O21  1  0.04528700  0.58642400  0.64033600  1
  O  O22  1  0.62800000  0.74891500  0.68007100  1
  O  O23  1  0.04660600  0.20691100  0.64337100  1
  O  O24  1  0.67840300  0.45494800  0.69985100  1
  O  O25  1  0.40092400  0.87668100  0.81365100  1
  O  O26  1  0.96132300  0.79343900  0.85599900  1
  O  O27  1  0.96060500  0.41521700  0.84322300  1
  O  O28  1  0.71030400  0.91953400  0.97931400  1
  O  O29  1  0.99427100  0.12048700  0.87441400  1
  O  O30  1  0.72867200  0.54816200  0.97545300  1
  O  O31  1  0.33988200  0.79224200  0.04076600  1
  O  O32  1  0.61262100  0.72816900  0.16873100  1
  O  O33  1  0.67649200  0.45706000  0.20603600  1
  O  O34  1  0.37363000  0.87759800  0.31377500  1
  O  O35  1  0.33838500  0.78648200  0.53803400  1
loop_
_geom_bond_atom_site_label_1
_geom_bond_atom_site_label_2
_geom_bond_distance
_geom_bond_site_symmetry_2
Li0 O29 2.069273 1_565
Li0 O1 2.080108 1_565
Li0 O22 2.094124 1_555
Li0 O25 2.175746 1_555
Li0 O4 2.284364 1_565
Li0 O28 2.372219 1_555
Li1 O7 2.089729 1_555
Li1 O5 2.102003 1_555
Li1 O33 2.109299 1_555
Li1 O11 2.268725 1_555
Li1 O13 2.290177 1_555
Li1 O9 2.303515 1_555
Li2 O9 2.093463 1_655
Li2 O8 2.105192 1_655
Li2 O4 2.114810 1_554
Li2 O10 2.155291 1_555
Li2 O33 2.321238 1_555
Li2 O14 2.373275 1_555
Li3 O6 2.072988 1_545
Li3 O34 2.078212 1_545
Li3 O13 2.102287 1_555
Li3 O16 2.189461 1_555
Li3 O12 2.256604 1_445
Li3 O20 2.360412 1_555
Li4 O35 2.100767 1_555
Li4 O14 2.106679 1_455
Li4 O19 2.125494 1_455
Li4 O12 2.128009 1_455
Li4 O17 2.315519 1_455
Li4 O21 2.322760 1_555
Li5 O17 2.078213 1_555
Li5 O15 2.079237 1_555
Li5 O11 2.096950 1_555
Li5 O18 2.249629 1_555
Li5 O22 2.287261 1_555
Li5 O35 2.329892 1_555
Li6 O20 2.080423 1_555
Li6 O24 2.107221 1_555
Li6 O18 2.111853 1_555
Li6 O3 2.200529 1_555
Li6 O2 2.324441 1_555
Li6 O23 2.365821 1_555
Li7 O21 2.093014 1_655
Li7 O0 2.100366 1_555
Li7 O23 2.124760 1_655
Li7 O24 2.222958 1_555
Li7 O27 2.224192 1_555
Li7 O1 2.308998 1_555
Li8 O27 2.085983 1_455
Li8 O26 2.100219 1_455
Li8 O31 2.106408 1_556
Li8 O30 2.225097 1_455
Li8 O8 2.271240 1_556
Li8 O6 2.333926 1_556
Li9 O28 2.098554 1_555
Li9 O2 2.112711 1_555
Li9 O30 2.145949 1_555
Li9 O32 2.187691 1_556
Li9 O31 2.336792 1_556
Li9 O5 2.345111 1_556
Nb0 O28 1.890444 1_544
Nb0 O9 1.917574 1_655
Nb0 O6 1.919514 1_645
Nb0 O29 2.142074 1_554
Nb0 O26 2.159469 1_544
Nb0 O7 2.162677 1_655
Nb1 O0 1.885881 1_555
Nb1 O13 1.903525 1_555
Nb1 O17 1.950857 1_555
Nb1 O10 2.077631 1_555
Nb1 O14 2.166950 1_555
Nb1 O33 2.214121 1_555
Nb2 O15 1.876130 1_545
Nb2 O23 1.900891 1_655
Nb2 O19 1.957099 1_545
Nb2 O16 2.068626 1_655
Nb2 O12 2.159523 1_545
Nb2 O20 2.224089 1_655
Nb3 O20 1.888499 1_565
Nb3 O35 1.907024 1_555
Nb3 O1 1.918334 1_565
Nb3 O34 2.149646 1_555
Nb3 O0 2.158171 1_565
Nb3 O15 2.167832 1_555
Nb4 O4 1.901263 1_555
Nb4 O3 1.902188 1_555
Nb4 O30 1.921030 1_555
Nb4 O1 2.131811 1_555
Nb4 O27 2.165209 1_555
Nb4 O24 2.177790 1_555
Nb5 O29 1.890382 1_455
Nb5 O5 1.896903 1_556
Nb5 O27 1.929456 1_455
Nb5 O3 2.110855 1_555
Nb5 O23 2.171080 1_555
Nb5 O2 2.222595 1_555
Nb6 O7 1.878616 1_565
Nb6 O31 1.905676 1_555
Nb6 O10 1.965404 1_565
Nb6 O25 2.051425 1_554
Nb6 O4 2.176118 1_564
Nb6 O28 2.214713 1_554
Nb7 O34 1.883124 1_555
Nb7 O11 1.913777 1_555
Nb7 O8 1.927732 1_555
Nb7 O32 2.113280 1_555
Nb7 O31 2.171653 1_555
Nb7 O5 2.227851 1_555
Nb8 O32 1.900949 1_555
Nb8 O12 1.903256 1_555
Nb8 O33 1.922482 1_555
Nb8 O6 2.139326 1_655
Nb8 O30 2.147547 1_554
Nb8 O8 2.171332 1_655
Nb9 O16 1.894990 1_555
Nb9 O14 1.899389 1_455
Nb9 O18 1.925818 1_555
Nb9 O9 2.137409 1_555
Nb9 O11 2.161907 1_555
Nb9 O13 2.190616 1_555
Nb10 O21 1.900284 1_555
Nb10 O2 1.901102 1_555
Nb10 O25 1.911777 1_555
Nb10 O18 2.139441 1_555
Nb10 O35 2.154468 1_555
Nb10 O22 2.186773 1_555
Nb11 O26 1.888622 1_555
Nb11 O22 1.904787 1_555
Nb11 O24 1.923539 1_555
Nb11 O19 2.103210 1_555
Nb11 O21 2.164531 1_655
Nb11 O17 2.238446 1_555
