# generated using pymatgen
data_Fe7Se8
_symmetry_space_group_name_H-M   'P 1'
_cell_length_a   7.26311106
_cell_length_b   7.26311106
_cell_length_c   16.02479400
_cell_angle_alpha   90.00000000
_cell_angle_beta   90.00000000
_cell_angle_gamma   120.00000970
_symmetry_Int_Tables_number   1
_chemical_formula_structural   Fe7Se8
_chemical_formula_sum   'Fe21 Se24'
_cell_volume   732.09664255
_cell_formula_units_Z   3
loop_
 _symmetry_equiv_pos_site_id
 _symmetry_equiv_pos_as_xyz
  1  'x, y, z'
loop_
 _atom_site_type_symbol
 _atom_site_label
 _atom_site_symmetry_multiplicity
 _atom_site_fract_x
 _atom_site_fract_y
 _atom_site_fract_z
 _atom_site_occupancy
  Fe  Fe0  1  0.98668300  0.98668300  0.00000000  1
  Fe  Fe1  1  0.01331700  0.00000000  0.33333300  1
  Fe  Fe2  1  0.00000000  0.01331700  0.66666700  1
  Fe  Fe3  1  0.51285200  0.99612900  0.00463100  1
  Fe  Fe4  1  0.00387100  0.51672300  0.33796400  1
  Fe  Fe5  1  0.48327700  0.48714800  0.67129700  1
  Fe  Fe6  1  0.99612900  0.51285200  0.99536900  1
  Fe  Fe7  1  0.48714800  0.48327700  0.32870300  1
  Fe  Fe8  1  0.51672300  0.00387100  0.66203600  1
  Fe  Fe9  1  0.00000000  0.02956800  0.16666700  1
  Fe  Fe10  1  0.97043200  0.97043200  0.50000000  1
  Fe  Fe11  1  0.02956800  0.00000000  0.83333300  1
  Fe  Fe12  1  0.52781800  0.52781800  0.50000000  1
  Fe  Fe13  1  0.47218200  0.00000000  0.83333300  1
  Fe  Fe14  1  0.00000000  0.47218200  0.16666700  1
  Fe  Fe15  1  0.51943700  0.00642100  0.17054600  1
  Fe  Fe16  1  0.99357900  0.51301600  0.50387900  1
  Fe  Fe17  1  0.48698400  0.48056300  0.83721200  1
  Fe  Fe18  1  0.51301600  0.99357900  0.49612100  1
  Fe  Fe19  1  0.00642100  0.51943700  0.82945400  1
  Fe  Fe20  1  0.48056300  0.48698400  0.16278800  1
  Se  Se0  1  0.16650700  0.34238000  0.07629300  1
  Se  Se1  1  0.65762000  0.82412700  0.40962700  1
  Se  Se2  1  0.17587300  0.83349300  0.74296000  1
  Se  Se3  1  0.17109700  0.33956200  0.42556500  1
  Se  Se4  1  0.66043800  0.83153400  0.75889900  1
  Se  Se5  1  0.16846600  0.82890300  0.09223200  1
  Se  Se6  1  0.16203900  0.33751800  0.75558000  1
  Se  Se7  1  0.66248200  0.82452200  0.08891300  1
  Se  Se8  1  0.17547800  0.83796100  0.42224600  1
  Se  Se9  1  0.33751800  0.16203900  0.24442000  1
  Se  Se10  1  0.83796100  0.17547800  0.57775400  1
  Se  Se11  1  0.82452200  0.66248200  0.91108700  1
  Se  Se12  1  0.33956200  0.17109700  0.57443500  1
  Se  Se13  1  0.82890300  0.16846600  0.90776800  1
  Se  Se14  1  0.83153400  0.66043800  0.24110100  1
  Se  Se15  1  0.34238000  0.16650700  0.92370700  1
  Se  Se16  1  0.83349300  0.17587300  0.25704000  1
  Se  Se17  1  0.82412700  0.65762000  0.59037300  1
  Se  Se18  1  0.67334000  0.33588400  0.08737700  1
  Se  Se19  1  0.66411600  0.33745700  0.42071100  1
  Se  Se20  1  0.66254300  0.32666000  0.75404400  1
  Se  Se21  1  0.32666000  0.66254300  0.24595600  1
  Se  Se22  1  0.33745700  0.66411600  0.57928900  1
  Se  Se23  1  0.33588400  0.67334000  0.91262300  1
loop_
_geom_bond_atom_site_label_1
_geom_bond_atom_site_label_2
_geom_bond_distance
_geom_bond_site_symmetry_2
Fe0 Se7 2.487685 1_555
Fe0 Se11 2.487685 1_554
Fe0 Se15 2.549634 1_664
Fe0 Se0 2.549634 1_665
Fe0 Se5 2.598845 1_655
Fe0 Se13 2.598845 1_564
Fe1 Se8 2.487680 1_545
Fe1 Se9 2.487685 1_555
Fe1 Se16 2.549634 1_455
Fe1 Se1 2.549641 1_445
Fe1 Se3 2.598840 1_555
Fe1 Se14 2.598840 1_445
Fe2 Se10 2.487680 1_455
Fe2 Se6 2.487685 1_555
Fe2 Se2 2.549634 1_545
Fe2 Se17 2.549641 1_445
Fe2 Se12 2.598840 1_555
Fe2 Se4 2.598840 1_445
Fe3 Se7 2.431726 1_555
Fe3 Se15 2.505639 1_564
Fe3 Se23 2.511776 1_554
Fe3 Se18 2.515943 1_565
Fe3 Se13 2.524321 1_564
Fe3 Se5 2.581540 1_555
Fe4 Se8 2.431731 1_555
Fe4 Se16 2.505639 1_455
Fe4 Se21 2.511776 1_555
Fe4 Se19 2.515951 1_455
Fe4 Se14 2.524326 1_455
Fe4 Se3 2.581546 1_555
Fe5 Se6 2.431740 1_555
Fe5 Se17 2.505639 1_555
Fe5 Se22 2.511771 1_555
Fe5 Se20 2.515946 1_555
Fe5 Se12 2.524311 1_555
Fe5 Se4 2.581549 1_555
Fe6 Se11 2.431726 1_555
Fe6 Se0 2.505639 1_656
Fe6 Se18 2.511776 1_556
Fe6 Se23 2.515943 1_655
Fe6 Se5 2.524321 1_656
Fe6 Se13 2.581540 1_555
Fe7 Se9 2.431740 1_555
Fe7 Se1 2.505639 1_555
Fe7 Se19 2.511771 1_555
Fe7 Se21 2.515946 1_555
Fe7 Se3 2.524311 1_555
Fe7 Se14 2.581549 1_555
Fe8 Se10 2.431731 1_555
Fe8 Se2 2.505639 1_545
Fe8 Se20 2.511776 1_555
Fe8 Se22 2.515951 1_545
Fe8 Se4 2.524326 1_545
Fe8 Se12 2.581546 1_555
Fe9 Se16 2.444205 1_455
Fe9 Se0 2.444215 1_555
Fe9 Se9 2.475693 1_555
Fe9 Se7 2.475700 1_445
Fe9 Se14 2.612923 1_445
Fe9 Se5 2.612937 1_545
Fe10 Se17 2.444205 1_555
Fe10 Se1 2.444205 1_555
Fe10 Se10 2.475695 1_565
Fe10 Se8 2.475695 1_655
Fe10 Se12 2.612931 1_665
Fe10 Se3 2.612931 1_665
Fe11 Se2 2.444205 1_545
Fe11 Se15 2.444215 1_555
Fe11 Se6 2.475693 1_555
Fe11 Se11 2.475700 1_445
Fe11 Se4 2.612923 1_445
Fe11 Se13 2.612937 1_455
Fe12 Se17 2.364066 1_555
Fe12 Se1 2.364066 1_555
Fe12 Se22 2.423784 1_555
Fe12 Se19 2.423784 1_555
Fe12 Se12 2.542152 1_555
Fe12 Se3 2.542152 1_555
Fe13 Se2 2.364066 1_545
Fe13 Se15 2.364076 1_555
Fe13 Se20 2.423789 1_555
Fe13 Se23 2.423798 1_545
Fe13 Se4 2.542151 1_545
Fe13 Se13 2.542152 1_555
Fe14 Se16 2.364066 1_455
Fe14 Se0 2.364076 1_555
Fe14 Se21 2.423789 1_555
Fe14 Se18 2.423798 1_455
Fe14 Se14 2.542151 1_455
Fe14 Se5 2.542152 1_555
Fe15 Se16 2.414865 1_555
Fe15 Se7 2.430790 1_545
Fe15 Se9 2.432732 1_555
Fe15 Se18 2.465162 1_555
Fe15 Se21 2.482298 1_545
Fe15 Se5 2.539438 1_545
Fe16 Se17 2.414865 1_555
Fe16 Se8 2.430795 1_655
Fe16 Se10 2.432745 1_555
Fe16 Se19 2.465153 1_555
Fe16 Se22 2.482298 1_655
Fe16 Se3 2.539444 1_655
Fe17 Se15 2.414874 1_555
Fe17 Se6 2.430787 1_555
Fe17 Se11 2.432745 1_555
Fe17 Se20 2.465148 1_555
Fe17 Se23 2.482301 1_555
Fe17 Se4 2.539430 1_555
Fe18 Se1 2.414865 1_555
Fe18 Se10 2.430795 1_565
Fe18 Se8 2.432745 1_555
Fe18 Se22 2.465153 1_555
Fe18 Se19 2.482298 1_565
Fe18 Se12 2.539444 1_565
Fe19 Se2 2.414865 1_555
Fe19 Se11 2.430790 1_455
Fe19 Se6 2.432732 1_555
Fe19 Se23 2.465162 1_555
Fe19 Se20 2.482298 1_455
Fe19 Se13 2.539438 1_455
Fe20 Se0 2.414874 1_555
Fe20 Se9 2.430787 1_555
Fe20 Se7 2.432745 1_555
Fe20 Se21 2.465148 1_555
Fe20 Se18 2.482301 1_555
Fe20 Se14 2.539430 1_555
