# generated using pymatgen
data_BaLa4Cu5O12
_symmetry_space_group_name_H-M   'P 1'
_cell_length_a   8.72316900
_cell_length_b   8.72316900
_cell_length_c   3.88443300
_cell_angle_alpha   90.00000000
_cell_angle_beta   90.00000000
_cell_angle_gamma   90.00000000
_symmetry_Int_Tables_number   1
_chemical_formula_structural   BaLa4Cu5O12
_chemical_formula_sum   'Ba1 La4 Cu5 O12'
_cell_volume   295.58079159
_cell_formula_units_Z   1
loop_
 _symmetry_equiv_pos_site_id
 _symmetry_equiv_pos_as_xyz
  1  'x, y, z'
loop_
 _atom_site_type_symbol
 _atom_site_label
 _atom_site_symmetry_multiplicity
 _atom_site_fract_x
 _atom_site_fract_y
 _atom_site_fract_z
 _atom_site_occupancy
  Ba  Ba0  1  0.50000000  0.50000000  0.50000000  1
  La  La0  1  0.12608100  0.70137900  0.50000000  1
  La  La1  1  0.87391900  0.29862100  0.50000000  1
  La  La2  1  0.70137900  0.87391900  0.50000000  1
  La  La3  1  0.29862100  0.12608100  0.50000000  1
  Cu  Cu0  1  0.83437400  0.59396100  0.00000000  1
  Cu  Cu1  1  0.00000000  0.00000000  0.00000000  1
  Cu  Cu2  1  0.59396100  0.16562600  0.00000000  1
  Cu  Cu3  1  0.40603900  0.83437400  0.00000000  1
  Cu  Cu4  1  0.16562600  0.40603900  0.00000000  1
  O  O0  1  0.58976700  0.15181600  0.50000000  1
  O  O1  1  0.26599600  0.60496900  0.00000000  1
  O  O2  1  0.78711200  0.05489200  0.00000000  1
  O  O3  1  0.21288800  0.94510800  0.00000000  1
  O  O4  1  0.60496900  0.73400400  0.00000000  1
  O  O5  1  0.05489200  0.21288800  0.00000000  1
  O  O6  1  0.73400400  0.39503100  0.00000000  1
  O  O7  1  0.84818400  0.58976700  0.50000000  1
  O  O8  1  0.41023300  0.84818400  0.50000000  1
  O  O9  1  0.15181600  0.41023300  0.50000000  1
  O  O10  1  0.39503100  0.26599600  0.00000000  1
  O  O11  1  0.94510800  0.78711200  0.00000000  1
loop_
_geom_bond_atom_site_label_1
_geom_bond_atom_site_label_2
_geom_bond_distance
_geom_bond_site_symmetry_2
Ba0 O6 2.962663 1_555
Ba0 O6 2.962663 1_556
Ba0 O1 2.962663 1_555
Ba0 O1 2.962663 1_556
Ba0 O10 2.962663 1_555
Ba0 O10 2.962663 1_556
Ba0 O4 2.962663 1_556
Ba0 O4 2.962663 1_555
Ba0 O9 3.136585 1_555
Ba0 O0 3.136585 1_555
Ba0 O8 3.136585 1_555
Ba0 O7 3.136585 1_555
La0 O1 2.443177 1_555
La0 O1 2.443177 1_556
La0 O9 2.549618 1_555
La0 O11 2.612215 1_455
La0 O11 2.612215 1_456
La0 O7 2.612352 1_455
La0 O8 2.789970 1_555
La0 O3 2.977560 1_555
La0 O3 2.977560 1_556
La1 O6 2.443177 1_555
La1 O6 2.443177 1_556
La1 O7 2.549618 1_555
La1 O5 2.612215 1_655
La1 O5 2.612215 1_656
La1 O9 2.612352 1_655
La1 O0 2.789970 1_555
La1 O2 2.977560 1_555
La1 O2 2.977560 1_556
La2 O4 2.443177 1_556
La2 O4 2.443177 1_555
La2 O8 2.549618 1_555
La2 O2 2.612215 1_565
La2 O2 2.612215 1_566
La2 O0 2.612352 1_565
La2 O7 2.789970 1_555
La2 O11 2.977560 1_555
La2 O11 2.977560 1_556
La3 O10 2.443177 1_556
La3 O10 2.443177 1_555
La3 O0 2.549618 1_555
La3 O3 2.612215 1_546
La3 O3 2.612215 1_545
La3 O8 2.612352 1_545
La3 O9 2.789970 1_555
La3 O5 2.977560 1_555
La3 O5 2.977560 1_556
Cu0 O11 1.942141 1_555
Cu0 O6 1.943668 1_555
Cu0 O7 1.946293 1_555
Cu0 O7 1.946293 1_554
Cu0 O4 2.344549 1_555
Cu1 O2 1.917797 1_455
Cu1 O11 1.917797 1_445
Cu1 O5 1.917797 1_555
Cu1 O3 1.917797 1_545
Cu2 O2 1.942141 1_555
Cu2 O10 1.943668 1_555
Cu2 O0 1.946293 1_555
Cu2 O0 1.946293 1_554
Cu2 O6 2.344549 1_555
Cu3 O3 1.942141 1_555
Cu3 O4 1.943668 1_555
Cu3 O8 1.946293 1_554
Cu3 O8 1.946293 1_555
Cu3 O1 2.344549 1_555
Cu4 O5 1.942141 1_555
Cu4 O1 1.943668 1_555
Cu4 O9 1.946293 1_555
Cu4 O9 1.946293 1_554
Cu4 O10 2.344549 1_555
