# generated using pymatgen
data_MnBiS2Br
_symmetry_space_group_name_H-M   'P 1'
_cell_length_a   3.94346200
_cell_length_b   6.68177586
_cell_length_c   9.52838945
_cell_angle_alpha   91.42820007
_cell_angle_beta   90.00000000
_cell_angle_gamma   107.16298596
_symmetry_Int_Tables_number   1
_chemical_formula_structural   MnBiS2Br
_chemical_formula_sum   'Mn2 Bi2 S4 Br2'
_cell_volume   239.80483748
_cell_formula_units_Z   2
loop_
 _symmetry_equiv_pos_site_id
 _symmetry_equiv_pos_as_xyz
  1  'x, y, z'
loop_
 _atom_site_type_symbol
 _atom_site_label
 _atom_site_symmetry_multiplicity
 _atom_site_fract_x
 _atom_site_fract_y
 _atom_site_fract_z
 _atom_site_occupancy
  Mn  Mn0  1  0.50000000  0.00000000  0.00000000  1
  Mn  Mn1  1  0.50000000  0.00000000  0.50000000  1
  Bi  Bi0  1  0.21453000  0.42906000  0.80314800  1
  Bi  Bi1  1  0.78547000  0.57094000  0.19685200  1
  S  S0  1  0.13604400  0.27208800  0.05352500  1
  S  S1  1  0.57131900  0.14263800  0.75466500  1
  S  S2  1  0.86395600  0.72791200  0.94647500  1
  S  S3  1  0.42868100  0.85736200  0.24533500  1
  Br  Br0  1  0.13426200  0.26852400  0.43395600  1
  Br  Br1  1  0.86573800  0.73147600  0.56604400  1
loop_
_geom_bond_atom_site_label_1
_geom_bond_atom_site_label_2
_geom_bond_distance
_geom_bond_site_symmetry_2
Mn0 S3 2.530792 1_545
Mn0 S1 2.530792 1_554
Mn0 S0 2.668151 1_555
Mn0 S0 2.668151 1_655
Mn0 S2 2.668151 1_544
Mn0 S2 2.668151 1_444
Mn1 S1 2.569456 1_555
Mn1 S3 2.569456 1_545
Bi0 S0 2.611617 1_556
Bi0 S1 2.720438 1_455
Bi0 S1 2.720438 1_555
Bi0 S2 3.042546 1_555
Bi0 S2 3.042546 1_455
Bi1 S2 2.611617 1_554
Bi1 S3 2.720438 1_655
Bi1 S3 2.720438 1_555
Bi1 S0 3.042546 1_555
Bi1 S0 3.042546 1_655
Br0 Mn1 2.697945 1_455
Br0 Mn1 2.697945 1_555
Br1 Mn1 2.697945 1_665
Br1 Mn1 2.697945 1_565
