# generated using pymatgen
data_CsCeCuS3
_symmetry_space_group_name_H-M   'P 1'
_cell_length_a   7.91629594
_cell_length_b   7.91629594
_cell_length_c   10.47196600
_cell_angle_alpha   90.00000000
_cell_angle_beta   90.00000000
_cell_angle_gamma   150.21041461
_symmetry_Int_Tables_number   1
_chemical_formula_structural   CsCeCuS3
_chemical_formula_sum   'Cs2 Ce2 Cu2 S6'
_cell_volume   326.03785867
_cell_formula_units_Z   2
loop_
 _symmetry_equiv_pos_site_id
 _symmetry_equiv_pos_as_xyz
  1  'x, y, z'
loop_
 _atom_site_type_symbol
 _atom_site_label
 _atom_site_symmetry_multiplicity
 _atom_site_fract_x
 _atom_site_fract_y
 _atom_site_fract_z
 _atom_site_occupancy
  Cs  Cs0  1  0.74024300  0.25975700  0.75000000  1
  Cs  Cs1  1  0.25975700  0.74024300  0.25000000  1
  Ce  Ce0  1  0.00000000  0.00000000  0.50000000  1
  Ce  Ce1  1  0.00000000  0.00000000  0.00000000  1
  Cu  Cu0  1  0.53449100  0.46550900  0.25000000  1
  Cu  Cu1  1  0.46550900  0.53449100  0.75000000  1
  S  S0  1  0.05133100  0.94866900  0.75000000  1
  S  S1  1  0.61289100  0.38710900  0.06190700  1
  S  S2  1  0.94866900  0.05133100  0.25000000  1
  S  S3  1  0.38710900  0.61289100  0.93809300  1
  S  S4  1  0.61289100  0.38710900  0.43809300  1
  S  S5  1  0.38710900  0.61289100  0.56190700  1
loop_
_geom_bond_atom_site_label_1
_geom_bond_atom_site_label_2
_geom_bond_distance
_geom_bond_site_symmetry_2
Cs0 S0 3.534883 1_655
Cs0 S0 3.534883 1_545
Cs0 S3 3.615239 1_655
Cs0 S3 3.615239 1_545
Cs0 S5 3.615239 1_655
Cs0 S5 3.615239 1_545
Cs0 S1 3.803351 1_556
Cs0 S4 3.803351 1_555
Cs1 S2 3.534883 1_565
Cs1 S2 3.534883 1_455
Cs1 S4 3.615239 1_565
Cs1 S4 3.615239 1_455
Cs1 S1 3.615239 1_565
Cs1 S1 3.615239 1_455
Cs1 S5 3.803351 1_555
Cs1 S3 3.803351 1_554
Ce0 S0 2.733263 1_545
Ce0 S2 2.733263 1_455
Ce0 S5 2.746714 1_555
Ce0 S5 2.746714 1_445
Ce0 S4 2.746714 1_555
Ce0 S4 2.746714 1_445
Ce1 S2 2.733263 1_455
Ce1 S0 2.733263 1_544
Ce1 S1 2.746714 1_555
Ce1 S3 2.746714 1_554
Ce1 S3 2.746714 1_444
Ce1 S1 2.746714 1_445
Cu0 S4 2.306229 1_555
Cu0 S1 2.306229 1_555
Cu0 S2 2.421755 1_455
Cu0 S2 2.421755 1_565
Cu1 S3 2.306229 1_555
Cu1 S5 2.306229 1_555
Cu1 S0 2.421755 1_655
Cu1 S0 2.421755 1_545
