# generated using pymatgen
data_Fe3(TeO3)4
_symmetry_space_group_name_H-M   'P 1'
_cell_length_a   7.46834600
_cell_length_b   9.30962200
_cell_length_c   16.13440003
_cell_angle_alpha   71.51212202
_cell_angle_beta   90.00000000
_cell_angle_gamma   90.00000000
_symmetry_Int_Tables_number   1
_chemical_formula_structural   Fe3(TeO3)4
_chemical_formula_sum   'Fe12 Te16 O48'
_cell_volume   1063.88972600
_cell_formula_units_Z   4
loop_
 _symmetry_equiv_pos_site_id
 _symmetry_equiv_pos_as_xyz
  1  'x, y, z'
loop_
 _atom_site_type_symbol
 _atom_site_label
 _atom_site_symmetry_multiplicity
 _atom_site_fract_x
 _atom_site_fract_y
 _atom_site_fract_z
 _atom_site_occupancy
  Fe  Fe0  1  0.86817400  0.32616900  0.30273600  1
  Fe  Fe1  1  0.13182600  0.67383100  0.69726400  1
  Fe  Fe2  1  0.37805000  0.42287600  0.59484400  1
  Fe  Fe3  1  0.63019100  0.68303900  0.69307700  1
  Fe  Fe4  1  0.36980900  0.31696100  0.30692300  1
  Fe  Fe5  1  0.86980900  0.68303900  0.19307700  1
  Fe  Fe6  1  0.87805000  0.57712400  0.90515600  1
  Fe  Fe7  1  0.63182600  0.32616900  0.80273600  1
  Fe  Fe8  1  0.62195000  0.57712400  0.40515600  1
  Fe  Fe9  1  0.36817400  0.67383100  0.19726400  1
  Fe  Fe10  1  0.12195000  0.42287600  0.09484400  1
  Fe  Fe11  1  0.13019100  0.31696100  0.80692300  1
  Te  Te0  1  0.38767100  0.01657800  0.75486700  1
  Te  Te1  1  0.62037000  0.44920900  0.13622500  1
  Te  Te2  1  0.61232900  0.98342200  0.24513300  1
  Te  Te3  1  0.35885600  0.16786600  0.03405700  1
  Te  Te4  1  0.64114400  0.83213400  0.96594300  1
  Te  Te5  1  0.85885600  0.83213400  0.46594300  1
  Te  Te6  1  0.37215400  0.82102900  0.49016300  1
  Te  Te7  1  0.62784600  0.17897100  0.50983700  1
  Te  Te8  1  0.37963000  0.55079100  0.86377500  1
  Te  Te9  1  0.11232900  0.01657800  0.25486700  1
  Te  Te10  1  0.14114400  0.16786600  0.53405700  1
  Te  Te11  1  0.12037000  0.55079100  0.36377500  1
  Te  Te12  1  0.87215400  0.17897100  0.00983700  1
  Te  Te13  1  0.87963000  0.44920900  0.63622500  1
  Te  Te14  1  0.88767100  0.98342200  0.74513300  1
  Te  Te15  1  0.12784600  0.82102900  0.99016300  1
  O  O0  1  0.61104900  0.38083400  0.51121900  1
  O  O1  1  0.88165500  0.32235500  0.76332000  1
  O  O2  1  0.36673500  0.37951600  0.00559400  1
  O  O3  1  0.44213500  0.86876200  0.88254400  1
  O  O4  1  0.16638300  0.17587700  0.11539000  1
  O  O5  1  0.86673500  0.62048400  0.49440600  1
  O  O6  1  0.19839800  0.11866400  0.79110700  1
  O  O7  1  0.07617500  0.85029200  0.73995000  1
  O  O8  1  0.80160200  0.88133600  0.20889300  1
  O  O9  1  0.55786500  0.13123800  0.11745600  1
  O  O10  1  0.69839800  0.88133600  0.70889300  1
  O  O11  1  0.88895100  0.38083400  0.01121900  1
  O  O12  1  0.42382500  0.85029200  0.23995000  1
  O  O13  1  0.38895100  0.61916600  0.48878100  1
  O  O14  1  0.39404800  0.52828000  0.32915100  1
  O  O15  1  0.38165500  0.67764500  0.73668000  1
  O  O16  1  0.81812800  0.19744800  0.42731800  1
  O  O17  1  0.61834500  0.32235500  0.26332000  1
  O  O18  1  0.63326500  0.62048400  0.99440600  1
  O  O19  1  0.66638300  0.82412300  0.38461000  1
  O  O20  1  0.83361700  0.82412300  0.88461000  1
  O  O21  1  0.94213500  0.13123800  0.61745600  1
  O  O22  1  0.15678300  0.46125500  0.67332300  1
  O  O23  1  0.18187200  0.80255200  0.57268200  1
  O  O24  1  0.31812800  0.80255200  0.07268200  1
  O  O25  1  0.33361700  0.17587700  0.61539000  1
  O  O26  1  0.11834500  0.67764500  0.23668000  1
  O  O27  1  0.38210300  0.35833800  0.83739200  1
  O  O28  1  0.11789700  0.35833800  0.33739200  1
  O  O29  1  0.10595200  0.52828000  0.82915100  1
  O  O30  1  0.88210300  0.64166200  0.66260800  1
  O  O31  1  0.13326500  0.37951600  0.50559400  1
  O  O32  1  0.30160200  0.11866400  0.29110700  1
  O  O33  1  0.05786500  0.86876200  0.38254400  1
  O  O34  1  0.68187200  0.19744800  0.92731800  1
  O  O35  1  0.61789700  0.64166200  0.16260800  1
  O  O36  1  0.11104900  0.61916600  0.98878100  1
  O  O37  1  0.42761600  0.19128800  0.43311400  1
  O  O38  1  0.34321700  0.46125500  0.17332300  1
  O  O39  1  0.89404800  0.47172000  0.17084900  1
  O  O40  1  0.92761600  0.80871200  0.06688600  1
  O  O41  1  0.57617500  0.14970800  0.76005000  1
  O  O42  1  0.84321700  0.53874500  0.32667700  1
  O  O43  1  0.60595200  0.47172000  0.67084900  1
  O  O44  1  0.92382500  0.14970800  0.26005000  1
  O  O45  1  0.65678300  0.53874500  0.82667700  1
  O  O46  1  0.07238400  0.19128800  0.93311400  1
  O  O47  1  0.57238400  0.80871200  0.56688600  1
loop_
_geom_bond_atom_site_label_1
_geom_bond_atom_site_label_2
_geom_bond_distance
_geom_bond_site_symmetry_2
Fe0 O17 1.975162 1_555
Fe0 O28 1.996706 1_655
Fe0 O44 2.015777 1_555
Fe0 O16 2.021981 1_555
Fe0 O39 2.138411 1_555
Fe0 O42 2.141310 1_555
Fe1 O15 1.975162 1_555
Fe1 O30 1.996706 1_455
Fe1 O7 2.015777 1_555
Fe1 O23 2.021981 1_555
Fe1 O29 2.138411 1_555
Fe1 O22 2.141310 1_555
Fe2 O13 2.071505 1_555
Fe2 O22 2.179134 1_555
Fe2 O43 2.227374 1_555
Fe2 O25 2.241456 1_555
Fe2 O0 2.310100 1_555
Fe2 O31 2.438703 1_555
Fe3 O15 1.979986 1_555
Fe3 O10 2.007819 1_555
Fe3 O30 2.012383 1_555
Fe3 O47 2.046910 1_555
Fe3 O43 2.116393 1_555
Fe3 O45 2.157304 1_555
Fe4 O17 1.979986 1_555
Fe4 O32 2.007819 1_555
Fe4 O28 2.012383 1_555
Fe4 O37 2.046910 1_555
Fe4 O14 2.116393 1_555
Fe4 O38 2.157304 1_555
Fe5 O26 1.979986 1_655
Fe5 O8 2.007819 1_555
Fe5 O35 2.012383 1_555
Fe5 O40 2.046910 1_555
Fe5 O39 2.116393 1_555
Fe5 O42 2.157304 1_555
Fe6 O11 2.071505 1_556
Fe6 O45 2.179134 1_555
Fe6 O29 2.227374 1_655
Fe6 O20 2.241456 1_555
Fe6 O36 2.310100 1_655
Fe6 O18 2.438703 1_555
Fe7 O1 1.975162 1_555
Fe7 O27 1.996706 1_555
Fe7 O41 2.015777 1_555
Fe7 O34 2.021981 1_555
Fe7 O43 2.138411 1_555
Fe7 O45 2.141310 1_555
Fe8 O0 2.071505 1_555
Fe8 O42 2.179134 1_555
Fe8 O14 2.227374 1_555
Fe8 O19 2.241456 1_555
Fe8 O13 2.310100 1_555
Fe8 O5 2.438703 1_555
Fe9 O26 1.975162 1_555
Fe9 O35 1.996706 1_555
Fe9 O12 2.015777 1_555
Fe9 O24 2.021981 1_555
Fe9 O14 2.138411 1_555
Fe9 O38 2.141310 1_555
Fe10 O36 2.071505 1_554
Fe10 O38 2.179134 1_555
Fe10 O39 2.227374 1_455
Fe10 O4 2.241456 1_555
Fe10 O11 2.310100 1_455
Fe10 O2 2.438703 1_555
Fe11 O1 1.979986 1_455
Fe11 O6 2.007819 1_555
Fe11 O27 2.012383 1_555
Fe11 O46 2.046910 1_555
Fe11 O29 2.116393 1_555
Fe11 O22 2.157304 1_555
O0 Te7 1.890624 1_555
O1 Te13 2.015941 1_555
O2 Te3 1.876936 1_555
O2 Te8 2.339555 1_554
O3 Te4 1.960839 1_555
O3 Te0 2.122465 1_565
O4 Te3 1.963653 1_555
O4 Te9 2.304328 1_555
O5 Te5 1.876936 1_555
O5 Te13 2.339555 1_555
O6 Te0 1.896228 1_555
O7 Te14 1.894927 1_455
O8 Te2 1.896228 1_555
O9 Te3 1.960839 1_555
O9 Te2 2.122465 1_545
O10 Te14 1.896228 1_555
O11 Te12 1.890624 1_555
O12 Te2 1.894927 1_555
O13 Te6 1.890624 1_555
O14 Te11 2.146593 1_555
O15 Te8 2.015941 1_555
O16 Te7 1.917409 1_555
O17 Te1 2.015941 1_555
O18 Te4 1.876936 1_555
O18 Te1 2.339555 1_556
O19 Te5 1.963653 1_555
O19 Te2 2.304328 1_555
O20 Te4 1.963653 1_555
O20 Te14 2.304328 1_555
O21 Te10 1.960839 1_655
O21 Te14 2.122465 1_545
O22 Te13 2.167440 1_455
O23 Te6 1.917409 1_555
O24 Te15 1.917409 1_554
O25 Te10 1.963653 1_555
O25 Te0 2.304328 1_555
O26 Te11 2.015941 1_555
O27 Te8 1.968576 1_555
O28 Te11 1.968576 1_555
O29 Te8 2.146593 1_555
O30 Te13 1.968576 1_555
O31 Te10 1.876936 1_555
O31 Te11 2.339555 1_555
O32 Te9 1.896228 1_555
O33 Te5 1.960839 1_455
O33 Te9 2.122465 1_565
O34 Te12 1.917409 1_556
O35 Te1 1.968576 1_555
O36 Te15 1.890624 1_555
O37 Te7 1.921368 1_555
O38 Te1 2.167440 1_555
O39 Te1 2.146593 1_555
O40 Te15 1.921368 1_654
O41 Te0 1.894927 1_555
O42 Te11 2.167440 1_655
O43 Te13 2.146593 1_555
O44 Te9 1.894927 1_655
O45 Te8 2.167440 1_555
O46 Te12 1.921368 1_456
O47 Te6 1.921368 1_555
