# generated using pymatgen
data_CuAsS
_symmetry_space_group_name_H-M   'P 1'
_cell_length_a   3.78164031
_cell_length_b   5.39361803
_cell_length_c   11.32774860
_cell_angle_alpha   90.00000000
_cell_angle_beta   90.00000000
_cell_angle_gamma   90.00000000
_symmetry_Int_Tables_number   1
_chemical_formula_structural   CuAsS
_chemical_formula_sum   'Cu4 As4 S4'
_cell_volume   231.04895447
_cell_formula_units_Z   4
loop_
 _symmetry_equiv_pos_site_id
 _symmetry_equiv_pos_as_xyz
  1  'x, y, z'
loop_
 _atom_site_type_symbol
 _atom_site_label
 _atom_site_symmetry_multiplicity
 _atom_site_fract_x
 _atom_site_fract_y
 _atom_site_fract_z
 _atom_site_occupancy
  Cu  Cu0  1  0.25000000  0.43610126  0.32581283  1
  Cu  Cu1  1  0.75000000  0.93610126  0.17418717  1
  Cu  Cu2  1  0.75000000  0.56389874  0.67418717  1
  Cu  Cu3  1  0.25000000  0.06389874  0.82581283  1
  As  As0  1  0.75000000  0.65139576  0.01377671  1
  As  As1  1  0.25000000  0.15139576  0.48622329  1
  As  As2  1  0.75000000  0.84860424  0.51377671  1
  As  As3  1  0.25000000  0.34860424  0.98622329  1
  S  S0  1  0.75000000  0.82621110  0.83178945  1
  S  S1  1  0.75000000  0.67378890  0.33178945  1
  S  S2  1  0.25000000  0.17378890  0.16821055  1
  S  S3  1  0.25000000  0.32621110  0.66821055  1
loop_
_geom_bond_atom_site_label_1
_geom_bond_atom_site_label_2
_geom_bond_distance
_geom_bond_site_symmetry_2
Cu0 S2 2.277919 1_555
Cu0 S1 2.285454 1_455
Cu0 S1 2.285454 1_555
Cu1 S1 2.277919 1_555
Cu1 S2 2.285454 1_665
Cu1 S2 2.285454 1_565
Cu2 S0 2.277919 1_555
Cu2 S3 2.285454 1_655
Cu2 S3 2.285454 1_555
Cu3 S3 2.277919 1_555
Cu3 S0 2.285454 1_445
Cu3 S0 2.285454 1_545
As0 S0 2.266902 1_554
As0 Cu1 2.379046 1_555
As0 As3 2.517890 1_654
As0 As3 2.517890 1_554
As1 S3 2.266902 1_555
As1 Cu0 2.379046 1_555
As1 As2 2.517890 1_545
As1 As2 2.517890 1_445
As2 S1 2.266902 1_555
As2 Cu2 2.379046 1_555
As3 S2 2.266902 1_556
As3 Cu3 2.379046 1_555
