# generated using pymatgen
data_Ti2Bi
_symmetry_space_group_name_H-M   'P 1'
_cell_length_a   4.16185927
_cell_length_b   4.16054831
_cell_length_c   7.70477789
_cell_angle_alpha   105.67430261
_cell_angle_beta   105.67770895
_cell_angle_gamma   90.00526617
_symmetry_Int_Tables_number   1
_chemical_formula_structural   Ti2Bi
_chemical_formula_sum   'Ti4 Bi2'
_cell_volume   123.28784627
_cell_formula_units_Z   2
loop_
 _symmetry_equiv_pos_site_id
 _symmetry_equiv_pos_as_xyz
  1  'x, y, z'
loop_
 _atom_site_type_symbol
 _atom_site_label
 _atom_site_symmetry_multiplicity
 _atom_site_fract_x
 _atom_site_fract_y
 _atom_site_fract_z
 _atom_site_occupancy
  Ti  Ti0  1  0.85346648  0.85345625  0.70729916  1
  Ti  Ti1  1  0.49996457  -0.00003074  -0.00005597  1
  Ti  Ti2  1  -0.00003100  0.49996873  -0.00005613  1
  Ti  Ti3  1  0.14661593  0.14662799  0.29285800  1
  Bi  Bi0  1  0.64839131  0.64842131  0.29642433  1
  Bi  Bi1  1  0.35159271  0.35155646  0.70353060  1
loop_
_geom_bond_atom_site_label_1
_geom_bond_atom_site_label_2
_geom_bond_distance
_geom_bond_site_symmetry_2
Ti0 Ti2 2.944087 1_656
Ti0 Ti1 2.944549 1_566
Ti0 Ti2 2.944581 1_666
Ti0 Ti1 2.945047 1_666
Ti1 Ti2 2.942268 1_545
Ti1 Ti2 2.942292 1_655
Ti1 Ti2 2.942536 1_555
Ti1 Ti2 2.942565 1_645
Ti1 Ti3 2.945850 1_555
Ti1 Ti3 2.946458 1_655
Ti2 Ti3 2.945409 1_555
Ti2 Ti3 2.945974 1_565
Bi0 Ti0 2.925446 1_555
Bi0 Ti3 2.942390 1_555
Bi0 Ti3 2.942390 1_665
Bi0 Ti3 2.942608 1_565
Bi0 Ti3 2.942712 1_655
Bi0 Ti1 2.963418 1_565
Bi0 Ti2 2.963921 1_655
Bi0 Ti1 2.964028 1_555
Bi0 Ti2 2.964447 1_555
Bi1 Ti3 2.924006 1_555
Bi1 Ti0 2.942395 1_445
Bi1 Ti0 2.942410 1_555
Bi1 Ti0 2.942597 1_545
Bi1 Ti0 2.942749 1_455
Bi1 Ti1 2.963096 1_556
Bi1 Ti2 2.963617 1_556
Bi1 Ti1 2.963672 1_566
Bi1 Ti2 2.964070 1_656
