# generated using pymatgen
data_CsPbI3
_symmetry_space_group_name_H-M   'P 1'
_cell_length_a   4.84714164
_cell_length_b   10.65044663
_cell_length_c   18.03119927
_cell_angle_alpha   90.00000000
_cell_angle_beta   90.00000000
_cell_angle_gamma   90.00000000
_symmetry_Int_Tables_number   1
_chemical_formula_structural   CsPbI3
_chemical_formula_sum   'Cs4 Pb4 I12'
_cell_volume   930.84665829
_cell_formula_units_Z   4
loop_
 _symmetry_equiv_pos_site_id
 _symmetry_equiv_pos_as_xyz
  1  'x, y, z'
loop_
 _atom_site_type_symbol
 _atom_site_label
 _atom_site_symmetry_multiplicity
 _atom_site_fract_x
 _atom_site_fract_y
 _atom_site_fract_z
 _atom_site_occupancy
  Cs  Cs0  1  0.75000000  0.58127558  0.17211973  1
  Cs  Cs1  1  0.25000000  0.41872442  0.82788027  1
  Cs  Cs2  1  0.75000000  0.08127558  0.32788027  1
  Cs  Cs3  1  0.25000000  0.91872442  0.67211973  1
  Pb  Pb0  1  0.25000000  0.66184885  0.43921676  1
  Pb  Pb1  1  0.75000000  0.33815115  0.56078324  1
  Pb  Pb2  1  0.25000000  0.16184885  0.06078324  1
  Pb  Pb3  1  0.75000000  0.83815115  0.93921676  1
  I  I0  1  0.75000000  0.83721116  0.50204455  1
  I  I1  1  0.25000000  0.16278884  0.49795545  1
  I  I2  1  0.75000000  0.33721116  0.99795545  1
  I  I3  1  0.25000000  0.66278884  0.00204455  1
  I  I4  1  0.25000000  0.52927197  0.61230824  1
  I  I5  1  0.75000000  0.47072803  0.38769176  1
  I  I6  1  0.25000000  0.02927197  0.88769176  1
  I  I7  1  0.75000000  0.97072803  0.11230824  1
  I  I8  1  0.25000000  0.79631664  0.28730552  1
  I  I9  1  0.75000000  0.20368336  0.71269448  1
  I  I10  1  0.25000000  0.29631664  0.21269448  1
  I  I11  1  0.75000000  0.70368336  0.78730552  1
loop_
_geom_bond_atom_site_label_1
_geom_bond_atom_site_label_2
_geom_bond_distance
_geom_bond_site_symmetry_2
Cs0 I8 3.928456 1_655
Cs0 I8 3.928456 1_555
Cs0 I10 3.952191 1_555
Cs0 I10 3.952191 1_655
Cs0 I3 4.003971 1_555
Cs0 I3 4.003971 1_655
Cs0 I5 4.061424 1_555
Cs0 I2 4.076630 1_554
Cs0 I7 4.285756 1_555
Cs1 I9 3.928456 1_455
Cs1 I9 3.928456 1_555
Cs1 I11 3.952191 1_455
Cs1 I11 3.952191 1_555
Cs1 I2 4.003971 1_455
Cs1 I2 4.003971 1_555
Cs1 I4 4.061424 1_555
Cs1 I3 4.076630 1_556
Cs1 I6 4.285756 1_555
Cs2 I10 3.928456 1_655
Cs2 I10 3.928456 1_555
Cs2 I8 3.952191 1_645
Cs2 I8 3.952191 1_545
Cs2 I1 4.003971 1_655
Cs2 I1 4.003971 1_555
Cs2 I7 4.061424 1_545
Cs2 I0 4.076630 1_545
Cs2 I5 4.285756 1_555
Cs3 I11 3.928456 1_455
Cs3 I11 3.928456 1_555
Cs3 I9 3.952191 1_565
Cs3 I9 3.952191 1_465
Cs3 I0 4.003971 1_455
Cs3 I0 4.003971 1_555
Cs3 I6 4.061424 1_565
Cs3 I1 4.076630 1_565
Cs3 I4 4.285756 1_555
I0 Pb0 3.262717 1_655
I0 Pb0 3.262717 1_555
I1 Pb1 3.262717 1_455
I1 Pb1 3.262717 1_555
I2 Pb2 3.262717 1_556
I2 Pb2 3.262717 1_656
I3 Pb3 3.262717 1_554
I3 Pb3 3.262717 1_454
I4 Pb1 3.298514 1_455
I4 Pb1 3.298514 1_555
I4 Pb0 3.425593 1_555
I5 Pb0 3.298514 1_555
I5 Pb0 3.298514 1_655
I5 Pb1 3.425593 1_555
I6 Pb3 3.298514 1_445
I6 Pb3 3.298514 1_545
I6 Pb2 3.425593 1_556
I7 Pb2 3.298514 1_565
I7 Pb2 3.298514 1_665
I7 Pb3 3.425593 1_554
I8 Pb0 3.090943 1_555
I9 Pb1 3.090943 1_555
I10 Pb2 3.090943 1_555
I11 Pb3 3.090943 1_555
