# generated using pymatgen
data_Cs3GaAs2
_symmetry_space_group_name_H-M   'P 1'
_cell_length_a   8.94368068
_cell_length_b   11.43859545
_cell_length_c   19.56785241
_cell_angle_alpha   80.50015248
_cell_angle_beta   90.00000000
_cell_angle_gamma   90.00000000
_symmetry_Int_Tables_number   1
_chemical_formula_structural   Cs3GaAs2
_chemical_formula_sum   'Cs24 Ga8 As16'
_cell_volume   1974.39951715
_cell_formula_units_Z   8
loop_
 _symmetry_equiv_pos_site_id
 _symmetry_equiv_pos_as_xyz
  1  'x, y, z'
loop_
 _atom_site_type_symbol
 _atom_site_label
 _atom_site_symmetry_multiplicity
 _atom_site_fract_x
 _atom_site_fract_y
 _atom_site_fract_z
 _atom_site_occupancy
  Cs  Cs0  1  0.92392121  0.37570493  0.88987339  1
  Cs  Cs1  1  0.42392121  0.62429507  0.61012661  1
  Cs  Cs2  1  0.07607879  0.62429507  0.11012661  1
  Cs  Cs3  1  0.57607879  0.37570493  0.38987339  1
  Cs  Cs4  1  0.37881101  0.29279540  0.83968458  1
  Cs  Cs5  1  0.87881101  0.70720460  0.66031542  1
  Cs  Cs6  1  0.62118899  0.70720460  0.16031542  1
  Cs  Cs7  1  0.12118899  0.29279540  0.33968458  1
  Cs  Cs8  1  0.52606867  0.15395335  0.03123285  1
  Cs  Cs9  1  0.02606867  0.84604665  0.46876715  1
  Cs  Cs10  1  0.47393133  0.84604665  0.96876715  1
  Cs  Cs11  1  0.97393133  0.15395335  0.53123285  1
  Cs  Cs12  1  0.40858022  0.25882767  0.57607594  1
  Cs  Cs13  1  0.90858022  0.74117233  0.92392406  1
  Cs  Cs14  1  0.59141978  0.74117233  0.42392406  1
  Cs  Cs15  1  0.09141978  0.25882767  0.07607594  1
  Cs  Cs16  1  0.04794427  0.07926870  0.75771259  1
  Cs  Cs17  1  0.54794427  0.92073130  0.74228741  1
  Cs  Cs18  1  0.95205573  0.92073130  0.24228741  1
  Cs  Cs19  1  0.45205573  0.07926870  0.25771259  1
  Cs  Cs20  1  0.74236195  0.35988761  0.70849616  1
  Cs  Cs21  1  0.24236195  0.64011239  0.79150384  1
  Cs  Cs22  1  0.25763805  0.64011239  0.29150384  1
  Cs  Cs23  1  0.75763805  0.35988761  0.20849616  1
  Ga  Ga0  1  0.88110133  0.04643226  0.94396831  1
  Ga  Ga1  1  0.38110133  0.95356774  0.55603169  1
  Ga  Ga2  1  0.11889867  0.95356774  0.05603169  1
  Ga  Ga3  1  0.61889867  0.04643226  0.44396831  1
  Ga  Ga4  1  0.05551519  0.46126125  0.57595632  1
  Ga  Ga5  1  0.55551519  0.53873875  0.92404368  1
  Ga  Ga6  1  0.94448481  0.53873875  0.42404368  1
  Ga  Ga7  1  0.44448481  0.46126125  0.07595632  1
  As  As0  1  0.70117089  0.10461797  0.85893820  1
  As  As1  1  0.20117089  0.89538203  0.64106180  1
  As  As2  1  0.29882911  0.89538203  0.14106180  1
  As  As3  1  0.79882911  0.10461797  0.35893820  1
  As  As4  1  0.84508600  0.95328516  0.06487418  1
  As  As5  1  0.34508600  0.04671484  0.43512582  1
  As  As6  1  0.15491400  0.04671484  0.93512582  1
  As  As7  1  0.65491400  0.95328516  0.56487418  1
  As  As8  1  0.79756235  0.49231476  0.53124016  1
  As  As9  1  0.29756235  0.50768524  0.96875984  1
  As  As10  1  0.20243765  0.50768524  0.46875984  1
  As  As11  1  0.70243765  0.49231476  0.03124016  1
  As  As12  1  0.14255856  0.40034700  0.68989283  1
  As  As13  1  0.64255856  0.59965300  0.81010717  1
  As  As14  1  0.85744144  0.59965300  0.31010717  1
  As  As15  1  0.35744144  0.40034700  0.18989283  1
loop_
_geom_bond_atom_site_label_1
_geom_bond_atom_site_label_2
_geom_bond_distance
_geom_bond_site_symmetry_2
Cs0 Ga0 3.759922 1_555
Cs1 Ga1 3.759922 1_555
Cs2 Ga2 3.759922 1_555
Cs3 Ga3 3.759922 1_555
Cs8 Ga7 3.830163 1_555
Cs8 Ga0 3.899258 1_554
Cs9 Ga6 3.830163 1_455
Cs9 Ga1 3.899258 1_555
Cs10 Ga5 3.830163 1_555
Cs10 Ga2 3.899258 1_556
Cs11 Ga4 3.830163 1_655
Cs11 Ga3 3.899258 1_555
Cs12 Ga1 3.585888 1_545
Cs13 Ga0 3.585888 1_565
Cs14 Ga3 3.585888 1_565
Cs15 Ga2 3.585888 1_545
As0 Ga0 2.331417 1_555
As0 Cs4 3.580450 1_555
As0 Cs17 3.619042 1_545
As0 Cs16 3.716984 1_655
As0 Cs20 3.806630 1_555
As0 Cs0 3.817095 1_555
As0 Cs8 3.842605 1_556
As0 Cs10 3.924148 1_545
As1 Ga1 2.331417 1_555
As1 Cs5 3.580450 1_455
As1 Cs16 3.619042 1_565
As1 Cs17 3.716984 1_555
As1 Cs21 3.806630 1_555
As1 Cs1 3.817095 1_555
As1 Cs9 3.842605 1_555
As1 Cs11 3.924148 1_465
As2 Ga2 2.331417 1_555
As2 Cs6 3.580450 1_555
As2 Cs19 3.619042 1_565
As2 Cs18 3.716984 1_455
As2 Cs22 3.806630 1_555
As2 Cs2 3.817095 1_555
As2 Cs10 3.842605 1_554
As2 Cs8 3.924148 1_565
As3 Ga3 2.331417 1_555
As3 Cs7 3.580450 1_655
As3 Cs18 3.619042 1_545
As3 Cs19 3.716984 1_555
As3 Cs23 3.806630 1_555
As3 Cs3 3.817095 1_555
As3 Cs11 3.842605 1_555
As3 Cs9 3.924148 1_645
As4 Ga0 2.450355 1_564
As4 Ga2 2.454963 1_655
As4 Cs18 3.560787 1_555
As4 Cs8 3.652937 1_565
As4 Cs6 3.699413 1_555
As4 Cs10 4.101446 1_554
As5 Ga1 2.450355 1_545
As5 Ga3 2.454963 1_555
As5 Cs19 3.560787 1_555
As5 Cs9 3.652937 1_545
As5 Cs7 3.699413 1_555
As5 Cs11 4.101446 1_455
As6 Ga2 2.450355 1_546
As6 Ga0 2.454963 1_455
As6 Cs16 3.560787 1_555
As6 Cs10 3.652937 1_545
As6 Cs4 3.699413 1_555
As6 Cs8 4.101446 1_556
As7 Ga3 2.450355 1_565
As7 Ga1 2.454963 1_555
As7 Cs17 3.560787 1_555
As7 Cs11 3.652937 1_565
As7 Cs5 3.699413 1_555
As7 Cs9 4.101446 1_655
As8 Ga6 2.457829 1_555
As8 Ga4 2.472180 1_655
As8 Cs20 3.582543 1_555
As8 Cs14 3.733465 1_555
As8 Cs3 3.817473 1_555
As8 Cs1 4.074101 1_555
As8 Cs11 4.179494 1_555
As9 Ga7 2.457829 1_556
As9 Ga5 2.472180 1_555
As9 Cs21 3.582543 1_555
As9 Cs15 3.733465 1_556
As9 Cs2 3.817473 1_556
As9 Cs0 4.074101 1_455
As9 Cs10 4.179494 1_555
As10 Ga4 2.457829 1_555
As10 Ga6 2.472180 1_455
As10 Cs22 3.582543 1_555
As10 Cs12 3.733465 1_555
As10 Cs1 3.817473 1_555
As10 Cs3 4.074101 1_555
As10 Cs9 4.179494 1_555
As11 Ga5 2.457829 1_554
As11 Ga7 2.472180 1_555
As11 Cs23 3.582543 1_555
As11 Cs13 3.733465 1_554
As11 Cs0 3.817473 1_554
As11 Cs2 4.074101 1_655
As11 Cs8 4.179494 1_555
As12 Ga4 2.355716 1_555
As12 Cs20 3.619666 1_455
As12 Cs4 3.657757 1_555
As12 Cs1 3.743108 1_555
As12 Cs21 3.751250 1_555
As12 Cs16 3.789060 1_555
As12 Cs12 3.798866 1_555
As13 Ga5 2.355716 1_555
As13 Cs21 3.619666 1_555
As13 Cs5 3.657757 1_555
As13 Cs0 3.743108 1_555
As13 Cs20 3.751250 1_555
As13 Cs17 3.789060 1_555
As13 Cs13 3.798866 1_555
As14 Ga6 2.355716 1_555
As14 Cs22 3.619666 1_655
As14 Cs6 3.657757 1_555
As14 Cs3 3.743108 1_555
As14 Cs23 3.751250 1_555
As14 Cs18 3.789060 1_555
As14 Cs14 3.798866 1_555
As15 Ga7 2.355716 1_555
As15 Cs23 3.619666 1_555
As15 Cs7 3.657757 1_555
As15 Cs2 3.743108 1_555
As15 Cs22 3.751250 1_555
As15 Cs19 3.789060 1_555
As15 Cs15 3.798866 1_555
