# generated using pymatgen
data_ZnS
_symmetry_space_group_name_H-M   'P 1'
_cell_length_a   3.81002135
_cell_length_b   3.81002083
_cell_length_c   80.95288325
_cell_angle_alpha   90.00001587
_cell_angle_beta   89.99998581
_cell_angle_gamma   119.99895044
_symmetry_Int_Tables_number   1
_chemical_formula_structural   ZnS
_chemical_formula_sum   'Zn26 S26'
_cell_volume   1017.70592963
_cell_formula_units_Z   26
loop_
 _symmetry_equiv_pos_site_id
 _symmetry_equiv_pos_as_xyz
  1  'x, y, z'
loop_
 _atom_site_type_symbol
 _atom_site_label
 _atom_site_symmetry_multiplicity
 _atom_site_fract_x
 _atom_site_fract_y
 _atom_site_fract_z
 _atom_site_occupancy
  Zn  Zn0  1  0.33332983  0.66667017  0.15380316  1
  Zn  Zn1  1  0.00000193  0.99999807  0.11537378  1
  Zn  Zn2  1  0.66666511  0.33333489  0.65384545  1
  Zn  Zn3  1  0.00000106  0.99999894  0.23074836  1
  Zn  Zn4  1  1.00000072  -0.00000072  0.30776380  1
  Zn  Zn5  1  0.66666656  0.33333344  0.19228798  1
  Zn  Zn6  1  0.33334235  0.66665765  0.26928837  1
  Zn  Zn7  1  0.66666345  0.33333655  0.34615045  1
  Zn  Zn8  1  0.33333151  0.66666849  0.38458907  1
  Zn  Zn9  1  0.66666343  0.33333657  0.92302349  1
  Zn  Zn10  1  0.66663033  0.33336967  0.80772351  1
  Zn  Zn11  1  0.66667007  0.33332993  0.57690611  1
  Zn  Zn12  1  0.33333569  0.66666431  0.73079565  1
  Zn  Zn13  1  1.00000180  -0.00000180  0.00004296  1
  Zn  Zn14  1  0.33332912  0.66667088  0.96151893  1
  Zn  Zn15  1  0.33333092  0.66666908  0.61535891  1
  Zn  Zn16  1  0.99999361  0.00000639  0.88456820  1
  Zn  Zn17  1  0.33333195  0.66666805  0.84614549  1
  Zn  Zn18  1  0.33333486  0.66666514  0.03853358  1
  Zn  Zn19  1  0.99999712  0.00000288  0.76931523  1
  Zn  Zn20  1  0.99999727  0.00000273  0.53851340  1
  Zn  Zn21  1  0.66666399  0.33333601  0.42307903  1
  Zn  Zn22  1  0.66666601  0.33333299  0.07693971  1
  Zn  Zn23  1  -0.00000045  1.00000045  0.46150184  1
  Zn  Zn24  1  0.00005848  0.99994152  0.69226705  1
  Zn  Zn25  1  0.33333526  0.66666474  0.50004327  1
  S  S0  1  0.99999340  0.00000660  0.91340244  1
  S  S1  1  0.66667041  0.33332959  0.22112903  1
  S  S2  1  0.66669797  0.33330203  0.68266878  1
  S  S3  1  0.66666757  0.33333243  0.10577230  1
  S  S4  1  0.00000400  0.99999600  0.49034568  1
  S  S5  1  0.33332943  0.66667057  0.99035020  1
  S  S6  1  0.00000549  0.99999451  0.72111086  1
  S  S7  1  0.33333517  0.66666483  0.64422674  1
  S  S8  1  0.33333322  0.66666678  0.52889918  1
  S  S9  1  0.99999589  0.00000411  0.56730708  1
  S  S10  1  0.33334044  0.66665956  0.18265250  1
  S  S11  1  0.66667009  0.33332991  0.45189173  1
  S  S12  1  0.33333143  0.66666757  0.41345874  1
  S  S13  1  0.66666006  0.33333994  0.95186768  1
  S  S14  1  0.00004068  0.99995932  0.25959001  1
  S  S15  1  0.33332278  0.66667722  0.06735592  1
  S  S16  1  0.66666371  0.33333629  0.60571010  1
  S  S17  1  0.99999474  0.00000426  0.33657537  1
  S  S18  1  0.33332950  0.66667050  0.75968046  1
  S  S19  1  0.00000122  0.99999878  0.02891827  1
  S  S20  1  0.33333191  0.66666809  0.29815770  1
  S  S21  1  0.33332694  0.66667306  0.87496960  1
  S  S22  1  0.66665942  0.33334158  0.83654829  1
  S  S23  1  0.66665636  0.33334364  0.37495005  1
  S  S24  1  0.99995833  0.00004167  0.79812506  1
  S  S25  1  0.00000285  0.99999815  0.14420843  1
loop_
_geom_bond_atom_site_label_1
_geom_bond_atom_site_label_2
_geom_bond_distance
_geom_bond_site_symmetry_2
S0 Zn9 2.333498 1_555
S0 Zn9 2.333563 1_545
S0 Zn9 2.333563 1_655
S0 Zn16 2.334215 1_555
S1 Zn3 2.333456 1_645
S1 Zn3 2.333514 1_655
S1 Zn3 2.333514 1_545
S1 Zn5 2.334766 1_555
S2 Zn24 2.332853 1_655
S2 Zn24 2.332853 1_545
S2 Zn24 2.333074 1_645
S2 Zn2 2.333332 1_555
S3 Zn1 2.332998 1_645
S3 Zn1 2.333020 1_655
S3 Zn1 2.333021 1_545
S3 Zn22 2.334081 1_555
S4 Zn23 2.334992 1_555
S4 Zn25 2.335582 1_555
S4 Zn25 2.335634 1_565
S4 Zn25 2.335634 1_455
S5 Zn14 2.333974 1_555
S5 Zn13 2.335428 1_466
S5 Zn13 2.335514 1_456
S5 Zn13 2.335514 1_566
S6 Zn24 2.334990 1_555
S6 Zn12 2.335227 1_555
S6 Zn12 2.335289 1_565
S6 Zn12 2.335289 1_455
S7 Zn2 2.333435 1_555
S7 Zn2 2.333499 1_565
S7 Zn2 2.333500 1_455
S7 Zn15 2.336934 1_555
S8 Zn20 2.333351 1_465
S8 Zn20 2.333360 1_455
S8 Zn20 2.333360 1_565
S8 Zn25 2.335969 1_555
S9 Zn20 2.330931 1_555
S9 Zn11 2.332878 1_555
S9 Zn11 2.332981 1_545
S9 Zn11 2.332981 1_655
S10 Zn5 2.333865 1_555
S10 Zn5 2.333965 1_565
S10 Zn5 2.333965 1_455
S10 Zn0 2.335437 1_555
S11 Zn21 2.332471 1_555
S11 Zn23 2.333200 1_645
S11 Zn23 2.333269 1_655
S11 Zn23 2.333269 1_545
S12 Zn21 2.333491 1_555
S12 Zn21 2.333534 1_455
S12 Zn21 2.333537 1_565
S12 Zn8 2.337083 1_555
S13 Zn14 2.334321 1_555
S13 Zn14 2.334377 1_545
S13 Zn14 2.334377 1_655
S13 Zn9 2.335020 1_555
S14 Zn3 2.334815 1_555
S14 Zn6 2.335419 1_555
S14 Zn6 2.335747 1_565
S14 Zn6 2.335747 1_455
S15 Zn22 2.332513 1_565
S15 Zn22 2.332516 1_455
S15 Zn22 2.332579 1_555
S15 Zn18 2.333252 1_555
S16 Zn11 2.331766 1_555
S16 Zn15 2.334267 1_555
S16 Zn15 2.334305 1_545
S16 Zn15 2.334305 1_655
S17 Zn7 2.332270 1_555
S17 Zn7 2.332316 1_545
S17 Zn7 2.332319 1_655
S17 Zn4 2.332380 1_555
S18 Zn19 2.333884 1_465
S18 Zn19 2.333926 1_455
S18 Zn19 2.333926 1_565
S18 Zn12 2.338309 1_555
S19 Zn18 2.333366 1_555
S19 Zn18 2.333396 1_565
S19 Zn18 2.333396 1_455
S19 Zn13 2.337540 1_465
S20 Zn4 2.333102 1_465
S20 Zn4 2.333155 1_455
S20 Zn4 2.333155 1_565
S20 Zn6 2.337056 1_555
S21 Zn16 2.332913 1_465
S21 Zn16 2.332946 1_455
S21 Zn16 2.332947 1_565
S21 Zn17 2.333395 1_555
S22 Zn17 2.332836 1_555
S22 Zn17 2.332927 1_655
S22 Zn17 2.332930 1_545
S22 Zn10 2.333449 1_555
S23 Zn7 2.331411 1_555
S23 Zn8 2.333952 1_555
S23 Zn8 2.334065 1_545
S23 Zn8 2.334065 1_655
S24 Zn19 2.332239 1_555
S24 Zn10 2.332876 1_555
S24 Zn10 2.332959 1_545
S24 Zn10 2.332959 1_655
S25 Zn0 2.332773 1_555
S25 Zn0 2.332858 1_565
S25 Zn0 2.332862 1_455
S25 Zn1 2.334248 1_555
