# generated using pymatgen
data_AgI
_symmetry_space_group_name_H-M   'P 1'
_cell_length_a   4.50627558
_cell_length_b   4.50627608
_cell_length_c   15.26236861
_cell_angle_alpha   90.00000000
_cell_angle_beta   90.00000000
_cell_angle_gamma   120.00001213
_symmetry_Int_Tables_number   1
_chemical_formula_structural   AgI
_chemical_formula_sum   'Ag4 I4'
_cell_volume   268.40342893
_cell_formula_units_Z   4
loop_
 _symmetry_equiv_pos_site_id
 _symmetry_equiv_pos_as_xyz
  1  'x, y, z'
loop_
 _atom_site_type_symbol
 _atom_site_label
 _atom_site_symmetry_multiplicity
 _atom_site_fract_x
 _atom_site_fract_y
 _atom_site_fract_z
 _atom_site_occupancy
  Ag  Ag0  1  0.00000000  -0.00000000  0.32347407  1
  Ag  Ag1  1  0.66666700  0.33333300  0.42647086  1
  Ag  Ag2  1  0.33333300  0.66666700  0.92647086  1
  Ag  Ag3  1  0.00000000  0.00000000  0.82347407  1
  I  I0  1  0.00000000  0.00000000  0.01163992  1
  I  I1  1  0.66666700  0.33333300  0.23841515  1
  I  I2  1  0.33333300  0.66666700  0.73841515  1
  I  I3  1  0.00000000  0.00000000  0.51163992  1
loop_
_geom_bond_atom_site_label_1
_geom_bond_atom_site_label_2
_geom_bond_distance
_geom_bond_site_symmetry_2
Ag0 I3 2.871857 1_555
Ag0 I1 2.907603 1_455
Ag0 I1 2.907606 1_555
Ag0 I1 2.907606 1_445
Ag1 I1 2.870176 1_555
Ag1 I3 2.908353 1_655
Ag1 I3 2.908356 1_555
Ag1 I3 2.908357 1_665
Ag2 I2 2.870176 1_555
Ag2 I0 2.908353 1_566
Ag2 I0 2.908356 1_666
Ag2 I0 2.908357 1_556
Ag3 I0 2.871857 1_556
Ag3 I2 2.907603 1_545
Ag3 I2 2.907606 1_445
Ag3 I2 2.907606 1_555
