# generated using pymatgen
data_K2ZrFe(PO4)3
_symmetry_space_group_name_H-M   'P 1'
_cell_length_a   10.22476300
_cell_length_b   10.23061500
_cell_length_c   20.43212879
_cell_angle_alpha   89.95328482
_cell_angle_beta   90.00000000
_cell_angle_gamma   90.00000000
_symmetry_Int_Tables_number   1
_chemical_formula_structural   K2ZrFe(PO4)3
_chemical_formula_sum   'K16 Zr8 Fe8 P24 O96'
_cell_volume   2137.31466140
_cell_formula_units_Z   8
loop_
 _symmetry_equiv_pos_site_id
 _symmetry_equiv_pos_as_xyz
  1  'x, y, z'
loop_
 _atom_site_type_symbol
 _atom_site_label
 _atom_site_symmetry_multiplicity
 _atom_site_fract_x
 _atom_site_fract_y
 _atom_site_fract_z
 _atom_site_occupancy
  K  K0  1  0.93701700  0.30780400  0.71270900  1
  K  K1  1  0.93738800  0.31184800  0.21893500  1
  K  K2  1  0.80059000  0.96034000  0.34881600  1
  K  K3  1  0.80009400  0.94986300  0.84900500  1
  K  K4  1  0.70443600  0.55715900  0.60579700  1
  K  K5  1  0.69882800  0.55102100  0.09865200  1
  K  K6  1  0.57648000  0.16790700  0.46744500  1
  K  K7  1  0.56278600  0.18699700  0.96851200  1
  K  K8  1  0.43701700  0.69219600  0.28729100  1
  K  K9  1  0.43738800  0.68815200  0.78106500  1
  K  K10  1  0.30059000  0.03966000  0.65118400  1
  K  K11  1  0.30009400  0.05013700  0.15099500  1
  K  K12  1  0.20443600  0.44284100  0.39420300  1
  K  K13  1  0.19882800  0.44897900  0.90134800  1
  K  K14  1  0.07648000  0.83209300  0.53255500  1
  K  K15  1  0.06278600  0.81300300  0.03148800  1
  Zr  Zr0  1  0.91433900  0.16431800  0.04311400  1
  Zr  Zr1  1  0.85627800  0.60927300  0.42865800  1
  Zr  Zr2  1  0.58511600  0.33291700  0.29365300  1
  Zr  Zr3  1  0.58821300  0.33538100  0.79276900  1
  Zr  Zr4  1  0.41433900  0.83568200  0.95688600  1
  Zr  Zr5  1  0.35627800  0.39072700  0.57134200  1
  Zr  Zr6  1  0.08511600  0.66708300  0.70634700  1
  Zr  Zr7  1  0.08821300  0.66461900  0.20723100  1
  Fe  Fe0  1  0.91472300  0.15902100  0.54248800  1
  Fe  Fe1  1  0.85532000  0.60513500  0.92768900  1
  Fe  Fe2  1  0.64618100  0.89668900  0.67738500  1
  Fe  Fe3  1  0.64272000  0.89563100  0.17762500  1
  Fe  Fe4  1  0.41472300  0.84097900  0.45751200  1
  Fe  Fe5  1  0.35532000  0.39486500  0.07231100  1
  Fe  Fe6  1  0.14618100  0.10331100  0.32261500  1
  Fe  Fe7  1  0.14272000  0.10436900  0.82237500  1
  P  P0  1  0.95711600  0.98525000  0.68666200  1
  P  P1  1  0.95601500  0.98101100  0.19009600  1
  P  P2  1  0.87875300  0.28521900  0.38784200  1
  P  P3  1  0.87991500  0.29322100  0.88414800  1
  P  P4  1  0.76773500  0.62689900  0.26789900  1
  P  P5  1  0.76809600  0.63061100  0.77175500  1
  P  P6  1  0.72496500  0.88008000  0.52235900  1
  P  P7  1  0.73206300  0.87112200  0.02149500  1
  P  P8  1  0.63203200  0.20469700  0.63338000  1
  P  P9  1  0.62019400  0.20659000  0.13471300  1
  P  P10  1  0.53644700  0.52879800  0.43625600  1
  P  P11  1  0.54358000  0.51811600  0.93942800  1
  P  P12  1  0.45601500  0.01898900  0.80990400  1
  P  P13  1  0.45711600  0.01475000  0.31333800  1
  P  P14  1  0.37875300  0.71478100  0.61215800  1
  P  P15  1  0.37991500  0.70677900  0.11585200  1
  P  P16  1  0.26809600  0.36938900  0.22824500  1
  P  P17  1  0.26773500  0.37310100  0.73210100  1
  P  P18  1  0.22496500  0.11992000  0.47764100  1
  P  P19  1  0.23206300  0.12887800  0.97850500  1
  P  P20  1  0.13203200  0.79530300  0.36662000  1
  P  P21  1  0.12019400  0.79341000  0.86528700  1
  P  P22  1  0.03644700  0.47120200  0.56374400  1
  P  P23  1  0.04358000  0.48188400  0.06057200  1
  O  O0  1  0.99619700  0.32965400  0.57493900  1
  O  O1  1  0.99641400  0.34012500  0.07432600  1
  O  O2  1  0.97857800  0.20107500  0.35108600  1
  O  O3  1  0.98126600  0.20512600  0.85065100  1
  O  O4  1  0.97824700  0.05972200  0.62158700  1
  O  O5  1  0.97665200  0.05731000  0.12486500  1
  O  O6  1  0.94923300  0.54301000  0.51297300  1
  O  O7  1  0.95703800  0.54882500  0.00908000  1
  O  O8  1  0.92138200  0.43202600  0.38484400  1
  O  O9  1  0.92187600  0.43789800  0.88281500  1
  O  O10  1  0.91071300  0.60643400  0.74867300  1
  O  O11  1  0.91163200  0.60124200  0.24808900  1
  O  O12  1  0.85406100  0.24336500  0.45893100  1
  O  O13  1  0.85311700  0.24754000  0.95541500  1
  O  O14  1  0.81301700  0.98572100  0.70977500  1
  O  O15  1  0.81108100  0.98254500  0.21116800  1
  O  O16  1  0.80418200  0.00679300  0.51116400  1
  O  O17  1  0.80848900  0.00123300  0.01064700  1
  O  O18  1  0.79407900  0.77372700  0.47893400  1
  O  O19  1  0.79941700  0.76777600  0.97869300  1
  O  O20  1  0.76490300  0.67141000  0.34073400  1
  O  O21  1  0.76477400  0.67179300  0.84424400  1
  O  O22  1  0.75811400  0.22872600  0.59473700  1
  O  O23  1  0.75026200  0.22664500  0.09629500  1
  O  O24  1  0.74613100  0.27096600  0.35009800  1
  O  O25  1  0.74921900  0.27195300  0.84626600  1
  O  O26  1  0.73084700  0.83054100  0.59389400  1
  O  O27  1  0.73346700  0.83019500  0.09412500  1
  O  O28  1  0.69998200  0.73227100  0.72800700  1
  O  O29  1  0.70068200  0.72761500  0.22437300  1
  O  O30  1  0.69410600  0.49526700  0.26024300  1
  O  O31  1  0.69319300  0.49957800  0.76059300  1
  O  O32  1  0.68041800  0.51805700  0.45988700  1
  O  O33  1  0.68840300  0.51653100  0.96064900  1
  O  O34  1  0.65190300  0.25389100  0.70463200  1
  O  O35  1  0.64802500  0.25139100  0.20609900  1
  O  O36  1  0.58392800  0.90210500  0.49831100  1
  O  O37  1  0.59007100  0.89758800  0.99781900  1
  O  O38  1  0.58244000  0.06270100  0.63252700  1
  O  O39  1  0.57691000  0.06200800  0.13375000  1
  O  O40  1  0.54540400  0.94877400  0.26162000  1
  O  O41  1  0.54271800  0.95199100  0.75861000  1
  O  O42  1  0.51813100  0.45082600  0.37166300  1
  O  O43  1  0.52368000  0.44111500  0.87437100  1
  O  O44  1  0.52412500  0.29221400  0.60076300  1
  O  O45  1  0.51786200  0.29398500  0.10155800  1
  O  O46  1  0.50322200  0.15862200  0.32498300  1
  O  O47  1  0.50299000  0.16102000  0.82306200  1
  O  O48  1  0.49619700  0.67034600  0.42506100  1
  O  O49  1  0.49641400  0.65987500  0.92567400  1
  O  O50  1  0.47857800  0.79892500  0.64891400  1
  O  O51  1  0.48126600  0.79487400  0.14934900  1
  O  O52  1  0.47665200  0.94269000  0.87513500  1
  O  O53  1  0.47824700  0.94027800  0.37841300  1
  O  O54  1  0.44923300  0.45699000  0.48702700  1
  O  O55  1  0.45703800  0.45117500  0.99092000  1
  O  O56  1  0.42138200  0.56797400  0.61515600  1
  O  O57  1  0.42187600  0.56210200  0.11718500  1
  O  O58  1  0.41071300  0.39356600  0.25132700  1
  O  O59  1  0.41163200  0.39875800  0.75191100  1
  O  O60  1  0.35406100  0.75663500  0.54106900  1
  O  O61  1  0.35311700  0.75246000  0.04458500  1
  O  O62  1  0.31301700  0.01427900  0.29022500  1
  O  O63  1  0.31108100  0.01745500  0.78883200  1
  O  O64  1  0.30418200  0.99320700  0.48883600  1
  O  O65  1  0.30848900  0.99876700  0.98935300  1
  O  O66  1  0.29407900  0.22627300  0.52106600  1
  O  O67  1  0.29941700  0.23222400  0.02130700  1
  O  O68  1  0.26490300  0.32859000  0.65926600  1
  O  O69  1  0.26477400  0.32820700  0.15575600  1
  O  O70  1  0.25811400  0.77127400  0.40526300  1
  O  O71  1  0.25026200  0.77335500  0.90370500  1
  O  O72  1  0.24613100  0.72903400  0.64990200  1
  O  O73  1  0.24921900  0.72804700  0.15373400  1
  O  O74  1  0.23084700  0.16945900  0.40610600  1
  O  O75  1  0.23346700  0.16980500  0.90587500  1
  O  O76  1  0.19998200  0.26772900  0.27199300  1
  O  O77  1  0.20068200  0.27238500  0.77562700  1
  O  O78  1  0.19410600  0.50473300  0.73975700  1
  O  O79  1  0.19319300  0.50042200  0.23940700  1
  O  O80  1  0.18041800  0.48194300  0.54011300  1
  O  O81  1  0.18840300  0.48346900  0.03935100  1
  O  O82  1  0.15190300  0.74610900  0.29536800  1
  O  O83  1  0.14802500  0.74860900  0.79390100  1
  O  O84  1  0.08392800  0.09789500  0.50168900  1
  O  O85  1  0.09007100  0.10241200  0.00218100  1
  O  O86  1  0.08244000  0.93729900  0.36747300  1
  O  O87  1  0.07691000  0.93799200  0.86625000  1
  O  O88  1  0.04540400  0.05122600  0.73838000  1
  O  O89  1  0.04271800  0.04800900  0.24139000  1
  O  O90  1  0.01813100  0.54917400  0.62833700  1
  O  O91  1  0.02368000  0.55888500  0.12562900  1
  O  O92  1  0.02412500  0.70778600  0.39923700  1
  O  O93  1  0.01786200  0.70601500  0.89844200  1
  O  O94  1  0.00322200  0.84137800  0.67501700  1
  O  O95  1  0.00299000  0.83898000  0.17693800  1
loop_
_geom_bond_atom_site_label_1
_geom_bond_atom_site_label_2
_geom_bond_distance
_geom_bond_site_symmetry_2
K0 O0 2.887723 1_555
K0 O88 2.896793 1_655
K0 O34 2.971554 1_555
K0 O77 3.008508 1_655
K0 O3 3.040886 1_555
K0 O90 3.122579 1_655
K0 O22 3.132719 1_555
K0 O10 3.154364 1_555
K0 O4 3.177009 1_555
K0 O31 3.320379 1_555
K0 O25 3.356586 1_555
K0 O78 3.358005 1_655
K1 O76 2.930392 1_655
K1 O89 2.941807 1_655
K1 O2 2.957597 1_555
K1 O1 3.029293 1_555
K1 O11 3.031943 1_555
K1 O35 3.034027 1_555
K1 O30 3.228592 1_555
K1 O5 3.262644 1_555
K1 O23 3.271573 1_555
K1 O79 3.277084 1_655
K1 O91 3.285207 1_655
K1 O24 3.343558 1_555
K2 O15 2.823455 1_555
K2 O86 2.916469 1_655
K2 O20 2.983076 1_555
K2 O2 3.062684 1_565
K2 O40 3.161717 1_555
K2 O24 3.226437 1_565
K2 O18 3.272485 1_555
K2 O16 3.351571 1_565
K2 O53 3.357149 1_555
K3 O87 2.854798 1_655
K3 O21 2.869386 1_555
K3 O14 2.871067 1_555
K3 O3 3.201988 1_565
K3 O41 3.215127 1_555
K3 O19 3.237855 1_555
K3 O25 3.336409 1_565
K3 O17 3.345767 1_566
K3 O52 3.350730 1_555
K4 O26 2.820181 1_555
K4 O56 2.902586 1_555
K4 O32 3.018302 1_555
K4 O28 3.074722 1_555
K4 O6 3.143792 1_555
K4 O31 3.218786 1_555
K4 O90 3.241372 1_655
K4 O44 3.279804 1_555
K4 O22 3.412274 1_555
K5 O33 2.843971 1_554
K5 O57 2.859235 1_555
K5 O27 2.879409 1_555
K5 O29 3.141724 1_555
K5 O7 3.212527 1_555
K5 O45 3.215897 1_555
K5 O30 3.350447 1_555
K5 O23 3.360362 1_555
K5 O91 3.367931 1_655
K6 O36 2.792028 1_545
K6 O12 2.946418 1_555
K6 O16 2.988799 1_555
K6 O46 3.007210 1_555
K6 O44 3.054430 1_555
K6 O53 3.122204 1_545
K6 O24 3.140899 1_555
K6 O66 3.145711 1_555
K6 O54 3.256007 1_555
K6 O22 3.256264 1_555
K6 O64 3.337038 1_545
K7 O67 2.937714 1_556
K7 O55 2.947090 1_555
K7 O45 2.967096 1_556
K7 O37 3.033156 1_545
K7 O13 3.044235 1_555
K7 O47 3.045921 1_555
K7 O43 3.257369 1_555
K7 O25 3.259501 1_555
K7 O65 3.263281 1_545
K7 O23 3.264574 1_556
K7 O17 3.265232 1_556
K7 O52 3.266575 1_545
K8 O48 2.887723 1_555
K8 O40 2.896793 1_555
K8 O82 2.971554 1_555
K8 O29 3.008508 1_555
K8 O51 3.040886 1_555
K8 O42 3.122579 1_555
K8 O70 3.132719 1_555
K8 O58 3.154364 1_555
K8 O53 3.177009 1_555
K8 O79 3.320379 1_555
K8 O73 3.356586 1_555
K8 O30 3.358005 1_555
K9 O28 2.930392 1_555
K9 O41 2.941807 1_555
K9 O50 2.957597 1_555
K9 O49 3.029293 1_555
K9 O59 3.031943 1_555
K9 O83 3.034027 1_555
K9 O78 3.228592 1_555
K9 O52 3.262644 1_555
K9 O71 3.271573 1_555
K9 O31 3.277084 1_555
K9 O43 3.285207 1_555
K9 O72 3.343558 1_555
K10 O63 2.823455 1_555
K10 O38 2.916469 1_555
K10 O68 2.983076 1_555
K10 O50 3.062684 1_545
K10 O88 3.161717 1_555
K10 O72 3.226437 1_545
K10 O66 3.272485 1_555
K10 O64 3.351571 1_545
K10 O4 3.357149 1_455
K11 O39 2.854798 1_555
K11 O69 2.869386 1_555
K11 O62 2.871067 1_555
K11 O51 3.201988 1_545
K11 O89 3.215127 1_555
K11 O67 3.237855 1_555
K11 O73 3.336409 1_545
K11 O65 3.345767 1_544
K11 O5 3.350730 1_455
K12 O74 2.820181 1_555
K12 O8 2.902586 1_455
K12 O80 3.018302 1_555
K12 O76 3.074722 1_555
K12 O54 3.143792 1_555
K12 O79 3.218786 1_555
K12 O42 3.241372 1_555
K12 O92 3.279804 1_555
K12 O70 3.412274 1_555
K13 O81 2.843971 1_556
K13 O9 2.859235 1_455
K13 O75 2.879409 1_555
K13 O77 3.141724 1_555
K13 O55 3.212527 1_555
K13 O93 3.215897 1_555
K13 O78 3.350447 1_555
K13 O71 3.360362 1_555
K13 O43 3.367931 1_555
K14 O84 2.792028 1_565
K14 O60 2.946418 1_555
K14 O64 2.988799 1_555
K14 O94 3.007210 1_555
K14 O92 3.054430 1_555
K14 O4 3.122204 1_465
K14 O72 3.140899 1_555
K14 O18 3.145711 1_455
K14 O6 3.256007 1_455
K14 O70 3.256264 1_555
K14 O16 3.337038 1_465
K15 O19 2.937714 1_454
K15 O7 2.947090 1_455
K15 O93 2.967096 1_554
K15 O85 3.033156 1_565
K15 O61 3.044235 1_555
K15 O95 3.045921 1_555
K15 O91 3.257369 1_555
K15 O73 3.259501 1_555
K15 O17 3.263281 1_465
K15 O71 3.264574 1_554
K15 O65 3.265232 1_554
K15 O5 3.266575 1_465
Fe0 O12 2.010370 1_555
Fe0 O4 2.015739 1_555
Fe0 O84 2.019903 1_655
Fe0 O16 2.028343 1_555
Fe0 O0 2.045212 1_555
Fe0 O22 2.052705 1_555
Fe1 O7 2.043903 1_556
Fe1 O93 2.045322 1_655
Fe1 O19 2.045528 1_555
Fe1 O33 2.046217 1_555
Fe1 O21 2.056009 1_555
Fe1 O9 2.057577 1_555
Fe2 O26 2.029621 1_555
Fe2 O38 2.036383 1_565
Fe2 O14 2.044153 1_555
Fe2 O41 2.048175 1_555
Fe2 O28 2.049155 1_555
Fe2 O50 2.067968 1_555
Fe3 O51 2.030406 1_555
Fe3 O39 2.037452 1_565
Fe3 O29 2.053175 1_555
Fe3 O27 2.054673 1_555
Fe3 O15 2.055419 1_555
Fe3 O40 2.057313 1_555
Fe4 O60 2.010370 1_555
Fe4 O53 2.015739 1_555
Fe4 O36 2.019903 1_555
Fe4 O64 2.028343 1_555
Fe4 O48 2.045212 1_555
Fe4 O70 2.052705 1_555
Fe5 O55 2.043903 1_554
Fe5 O45 2.045322 1_555
Fe5 O67 2.045528 1_555
Fe5 O81 2.046217 1_555
Fe5 O69 2.056009 1_555
Fe5 O57 2.057577 1_555
Fe6 O74 2.029621 1_555
Fe6 O86 2.036383 1_545
Fe6 O62 2.044153 1_555
Fe6 O89 2.048175 1_555
Fe6 O76 2.049155 1_555
Fe6 O2 2.067968 1_455
Fe7 O3 2.030406 1_455
Fe7 O87 2.037452 1_545
Fe7 O77 2.053175 1_555
Fe7 O75 2.054673 1_555
Fe7 O63 2.055419 1_555
Fe7 O88 2.057313 1_555
O0 P22 1.522568 1_655
O1 P23 1.553770 1_655
O1 Zr0 2.085145 1_555
O2 P2 1.532291 1_555
O3 P3 1.534799 1_555
O4 P0 1.547063 1_545
O5 P1 1.558371 1_545
O5 Zr0 2.095594 1_555
O6 P22 1.552344 1_655
O6 Zr1 2.080581 1_555
O7 P23 1.535492 1_655
O8 P2 1.565046 1_555
O8 Zr1 2.129647 1_555
O9 P3 1.541282 1_555
O10 P5 1.552485 1_555
O10 Zr6 2.076516 1_655
O11 P4 1.548439 1_555
O11 Zr7 2.091952 1_655
O12 P2 1.534871 1_555
O13 P3 1.553291 1_555
O13 Zr0 2.079685 1_556
O14 P0 1.547219 1_555
O15 P1 1.543276 1_555
O16 P6 1.545453 1_545
O17 P7 1.559218 1_545
O17 Zr0 2.096897 1_555
O18 P6 1.572282 1_555
O18 Zr1 2.072004 1_555
O19 P7 1.535730 1_556
O20 P4 1.556911 1_555
O20 Zr1 2.121902 1_555
O21 P5 1.540568 1_555
O22 P8 1.531486 1_555
O23 P9 1.557778 1_555
O23 Zr0 2.098315 1_555
O24 P2 1.566842 1_555
O24 Zr2 2.107374 1_555
O25 P3 1.559648 1_555
O25 Zr3 2.079623 1_555
O26 P6 1.547766 1_555
O27 P7 1.541662 1_555
O28 P5 1.537600 1_555
O29 P4 1.523534 1_555
O30 P4 1.550844 1_555
O30 Zr2 2.112995 1_555
O31 P5 1.560811 1_555
O31 Zr3 2.098674 1_555
O32 P10 1.553095 1_555
O32 Zr1 2.123743 1_555
O33 P11 1.543037 1_555
O34 P8 1.554095 1_555
O34 Zr3 2.089150 1_555
O35 P9 1.555495 1_555
O35 Zr2 2.076548 1_555
O36 P6 1.539995 1_555
O37 P7 1.554007 1_556
O37 Zr4 2.080868 1_555
O38 P8 1.538771 1_555
O39 P9 1.544093 1_555
O40 P13 1.545412 1_565
O41 P12 1.534699 1_565
O42 P10 1.554000 1_555
O42 Zr2 2.113740 1_555
O43 P11 1.559038 1_555
O43 Zr3 2.094838 1_555
O44 P8 1.569121 1_555
O44 Zr5 2.078812 1_555
O45 P9 1.533665 1_555
O46 P13 1.563940 1_555
O46 Zr2 2.070911 1_555
O47 P12 1.554029 1_555
O47 Zr3 2.079093 1_555
O48 P10 1.522568 1_555
O49 P11 1.553770 1_555
O49 Zr4 2.085145 1_555
O50 P14 1.532291 1_555
O51 P15 1.534799 1_555
O52 P12 1.558371 1_565
O52 Zr4 2.095594 1_555
O53 P13 1.547063 1_565
O54 P10 1.552344 1_555
O54 Zr5 2.080581 1_555
O55 P11 1.535492 1_555
O56 P14 1.565046 1_555
O56 Zr5 2.129647 1_555
O57 P15 1.541282 1_555
O58 P16 1.552485 1_555
O58 Zr2 2.076516 1_555
O59 P17 1.548439 1_555
O59 Zr3 2.091952 1_555
O60 P14 1.534871 1_555
O61 P15 1.553291 1_555
O61 Zr4 2.079685 1_554
O62 P13 1.547219 1_555
O63 P12 1.543276 1_555
O64 P18 1.545453 1_565
O65 P19 1.559218 1_565
O65 Zr4 2.096897 1_555
O66 P18 1.572282 1_555
O66 Zr5 2.072004 1_555
O67 P19 1.535730 1_554
O68 P17 1.556911 1_555
O68 Zr5 2.121902 1_555
O69 P16 1.540568 1_555
O70 P20 1.531486 1_555
O71 P21 1.557778 1_555
O71 Zr4 2.098315 1_555
O72 P14 1.566842 1_555
O72 Zr6 2.107374 1_555
O73 P15 1.559648 1_555
O73 Zr7 2.079623 1_555
O74 P18 1.547766 1_555
O75 P19 1.541662 1_555
O76 P16 1.537600 1_555
O77 P17 1.523534 1_555
O78 P17 1.550844 1_555
O78 Zr6 2.112995 1_555
O79 P16 1.560811 1_555
O79 Zr7 2.098674 1_555
O80 P22 1.553095 1_555
O80 Zr5 2.123743 1_555
O81 P23 1.543037 1_555
O82 P20 1.554095 1_555
O82 Zr7 2.089150 1_555
O83 P21 1.555495 1_555
O83 Zr6 2.076548 1_555
O84 P18 1.539995 1_555
O85 P19 1.554007 1_554
O85 Zr0 2.080868 1_455
O86 P20 1.538771 1_555
O87 P21 1.544093 1_555
O88 P0 1.545412 1_445
O89 P1 1.534699 1_445
O90 P22 1.554000 1_555
O90 Zr6 2.113740 1_555
O91 P23 1.559038 1_555
O91 Zr7 2.094838 1_555
O92 P20 1.569121 1_555
O92 Zr1 2.078812 1_455
O93 P21 1.533665 1_555
O94 P0 1.563940 1_455
O94 Zr6 2.070911 1_555
O95 P1 1.554029 1_455
O95 Zr7 2.079093 1_555
