# generated using pymatgen
data_Bi6PtBr10
_symmetry_space_group_name_H-M   'P 1'
_cell_length_a   10.71303800
_cell_length_b   17.64165200
_cell_length_c   27.59123800
_cell_angle_alpha   90.00000000
_cell_angle_beta   90.00000000
_cell_angle_gamma   90.00000000
_symmetry_Int_Tables_number   1
_chemical_formula_structural   Bi6PtBr10
_chemical_formula_sum   'Bi48 Pt8 Br80'
_cell_volume   5214.62501572
_cell_formula_units_Z   8
loop_
 _symmetry_equiv_pos_site_id
 _symmetry_equiv_pos_as_xyz
  1  'x, y, z'
loop_
 _atom_site_type_symbol
 _atom_site_label
 _atom_site_symmetry_multiplicity
 _atom_site_fract_x
 _atom_site_fract_y
 _atom_site_fract_z
 _atom_site_occupancy
  Bi  Bi0  1  0.32598600  0.44090800  0.43724600  1
  Bi  Bi1  1  0.11020500  0.33530800  0.75000000  1
  Bi  Bi2  1  0.79987200  0.08520200  0.75000000  1
  Bi  Bi3  1  0.67401400  0.55909200  0.56275400  1
  Bi  Bi4  1  0.61386000  0.35461400  0.18097300  1
  Bi  Bi5  1  0.38614000  0.64538600  0.81902700  1
  Bi  Bi6  1  0.12606900  0.92883600  0.92514700  1
  Bi  Bi7  1  0.20012800  0.91479800  0.25000000  1
  Bi  Bi8  1  0.15357800  0.12498000  0.50985300  1
  Bi  Bi9  1  0.70012800  0.58520200  0.75000000  1
  Bi  Bi10  1  0.17401400  0.94090800  0.06275400  1
  Bi  Bi11  1  0.32598600  0.44090800  0.06275400  1
  Bi  Bi12  1  0.18759700  0.72441200  0.31942400  1
  Bi  Bi13  1  0.18759700  0.72441200  0.18057600  1
  Bi  Bi14  1  0.82598600  0.05909200  0.93724600  1
  Bi  Bi15  1  0.15357800  0.12498000  0.99014700  1
  Bi  Bi16  1  0.12606900  0.92883600  0.57485300  1
  Bi  Bi17  1  0.38614000  0.64538600  0.68097300  1
  Bi  Bi18  1  0.67401400  0.55909200  0.93724600  1
  Bi  Bi19  1  0.82598600  0.05909200  0.56275400  1
  Bi  Bi20  1  0.65357800  0.37502000  0.49014700  1
  Bi  Bi21  1  0.84642200  0.87502000  0.00985300  1
  Bi  Bi22  1  0.88614000  0.85461400  0.18097300  1
  Bi  Bi23  1  0.88979500  0.66469200  0.25000000  1
  Bi  Bi24  1  0.87393100  0.07116400  0.07485300  1
  Bi  Bi25  1  0.38979500  0.83530800  0.75000000  1
  Bi  Bi26  1  0.68759700  0.77558800  0.81942400  1
  Bi  Bi27  1  0.37393100  0.42883600  0.57485300  1
  Bi  Bi28  1  0.81240300  0.27558800  0.68057600  1
  Bi  Bi29  1  0.17401400  0.94090800  0.43724600  1
  Bi  Bi30  1  0.31240300  0.22441200  0.31942400  1
  Bi  Bi31  1  0.11386000  0.14538600  0.68097300  1
  Bi  Bi32  1  0.65357800  0.37502000  0.00985300  1
  Bi  Bi33  1  0.87393100  0.07116400  0.42514700  1
  Bi  Bi34  1  0.84642200  0.87502000  0.49014700  1
  Bi  Bi35  1  0.34642200  0.62498000  0.99014700  1
  Bi  Bi36  1  0.88614000  0.85461400  0.31902700  1
  Bi  Bi37  1  0.61386000  0.35461400  0.31902700  1
  Bi  Bi38  1  0.34642200  0.62498000  0.50985300  1
  Bi  Bi39  1  0.61020500  0.16469200  0.25000000  1
  Bi  Bi40  1  0.31240300  0.22441200  0.18057600  1
  Bi  Bi41  1  0.29987200  0.41479800  0.25000000  1
  Bi  Bi42  1  0.62606900  0.57116400  0.07485300  1
  Bi  Bi43  1  0.11386000  0.14538600  0.81902700  1
  Bi  Bi44  1  0.62606900  0.57116400  0.42514700  1
  Bi  Bi45  1  0.81240300  0.27558800  0.81942400  1
  Bi  Bi46  1  0.37393100  0.42883600  0.92514700  1
  Bi  Bi47  1  0.68759700  0.77558800  0.68057600  1
  Pt  Pt0  1  0.45801600  0.29247900  0.25000000  1
  Pt  Pt1  1  0.04198400  0.79247900  0.25000000  1
  Pt  Pt2  1  0.50000000  0.50000000  0.50000000  1
  Pt  Pt3  1  0.50000000  0.50000000  0.00000000  1
  Pt  Pt4  1  0.00000000  0.00000000  0.00000000  1
  Pt  Pt5  1  0.95801600  0.20752100  0.75000000  1
  Pt  Pt6  1  0.54198400  0.70752100  0.75000000  1
  Pt  Pt7  1  0.00000000  0.00000000  0.50000000  1
  Br  Br0  1  0.77893800  0.22904500  0.17444800  1
  Br  Br1  1  0.96453000  0.79542500  0.92911000  1
  Br  Br2  1  0.46915000  0.29518000  0.09051500  1
  Br  Br3  1  0.35812500  0.86062000  0.17670600  1
  Br  Br4  1  0.46453000  0.70457500  0.42911000  1
  Br  Br5  1  0.30059100  0.05562500  0.58825900  1
  Br  Br6  1  0.96067800  0.41169900  0.82279800  1
  Br  Br7  1  0.46067800  0.08830100  0.32279800  1
  Br  Br8  1  0.22106200  0.77095500  0.82555200  1
  Br  Br9  1  0.30317000  0.85603500  0.51200600  1
  Br  Br10  1  0.84007900  0.42943400  0.55414500  1
  Br  Br11  1  0.65992100  0.92943400  0.55414500  1
  Br  Br12  1  0.34007900  0.07056600  0.05414500  1
  Br  Br13  1  0.45222300  0.49885900  0.15670900  1
  Br  Br14  1  0.85812500  0.63938000  0.82329400  1
  Br  Br15  1  0.96915000  0.20482000  0.90948500  1
  Br  Br16  1  0.45222300  0.49885900  0.34329100  1
  Br  Br17  1  0.19940900  0.55562500  0.58825900  1
  Br  Br18  1  0.03085000  0.79518000  0.09051500  1
  Br  Br19  1  0.46067800  0.08830100  0.17720200  1
  Br  Br20  1  0.19683000  0.35603500  0.51200600  1
  Br  Br21  1  0.19683000  0.35603500  0.98799400  1
  Br  Br22  1  0.19940900  0.55562500  0.91174100  1
  Br  Br23  1  0.96915000  0.20482000  0.59051500  1
  Br  Br24  1  0.85812500  0.63938000  0.67670600  1
  Br  Br25  1  0.80059100  0.44437500  0.41174100  1
  Br  Br26  1  0.35812500  0.86062000  0.32329400  1
  Br  Br27  1  0.73711300  0.93946400  0.25000000  1
  Br  Br28  1  0.72106200  0.72904500  0.17444800  1
  Br  Br29  1  0.65992100  0.92943400  0.94585500  1
  Br  Br30  1  0.53932200  0.91169900  0.82279800  1
  Br  Br31  1  0.80317000  0.64396500  0.01200600  1
  Br  Br32  1  0.84007900  0.42943400  0.94585500  1
  Br  Br33  1  0.03932200  0.58830100  0.32279800  1
  Br  Br34  1  0.30317000  0.85603500  0.98799400  1
  Br  Br35  1  0.22106200  0.77095500  0.67444800  1
  Br  Br36  1  0.04777700  0.99885900  0.15670900  1
  Br  Br37  1  0.14187500  0.36062000  0.32329400  1
  Br  Br38  1  0.53932200  0.91169900  0.67720200  1
  Br  Br39  1  0.96067800  0.41169900  0.67720200  1
  Br  Br40  1  0.69940900  0.94437500  0.08825900  1
  Br  Br41  1  0.96453000  0.79542500  0.57089000  1
  Br  Br42  1  0.76288700  0.43946400  0.25000000  1
  Br  Br43  1  0.14187500  0.36062000  0.17670600  1
  Br  Br44  1  0.15992100  0.57056600  0.05414500  1
  Br  Br45  1  0.64339200  0.34179600  0.75000000  1
  Br  Br46  1  0.03932200  0.58830100  0.17720200  1
  Br  Br47  1  0.54777700  0.50114100  0.84329100  1
  Br  Br48  1  0.85660800  0.84179600  0.75000000  1
  Br  Br49  1  0.77893800  0.22904500  0.32555200  1
  Br  Br50  1  0.14339200  0.15820400  0.25000000  1
  Br  Br51  1  0.72106200  0.72904500  0.32555200  1
  Br  Br52  1  0.80059100  0.44437500  0.08825900  1
  Br  Br53  1  0.46915000  0.29518000  0.40948500  1
  Br  Br54  1  0.80317000  0.64396500  0.48799400  1
  Br  Br55  1  0.53547000  0.29542500  0.92911000  1
  Br  Br56  1  0.53085000  0.70482000  0.59051500  1
  Br  Br57  1  0.95222300  0.00114100  0.84329100  1
  Br  Br58  1  0.64187500  0.13938000  0.82329400  1
  Br  Br59  1  0.69683000  0.14396500  0.48799400  1
  Br  Br60  1  0.64187500  0.13938000  0.67670600  1
  Br  Br61  1  0.27893800  0.27095500  0.67444800  1
  Br  Br62  1  0.04777700  0.99885900  0.34329100  1
  Br  Br63  1  0.27893800  0.27095500  0.82555200  1
  Br  Br64  1  0.26288700  0.06053600  0.75000000  1
  Br  Br65  1  0.95222300  0.00114100  0.65670900  1
  Br  Br66  1  0.30059100  0.05562500  0.91174100  1
  Br  Br67  1  0.53085000  0.70482000  0.90948500  1
  Br  Br68  1  0.03547000  0.20457500  0.42911000  1
  Br  Br69  1  0.03085000  0.79518000  0.40948500  1
  Br  Br70  1  0.53547000  0.29542500  0.57089000  1
  Br  Br71  1  0.34007900  0.07056600  0.44585500  1
  Br  Br72  1  0.15992100  0.57056600  0.44585500  1
  Br  Br73  1  0.69683000  0.14396500  0.01200600  1
  Br  Br74  1  0.69940900  0.94437500  0.41174100  1
  Br  Br75  1  0.46453000  0.70457500  0.07089000  1
  Br  Br76  1  0.54777700  0.50114100  0.65670900  1
  Br  Br77  1  0.35660800  0.65820400  0.25000000  1
  Br  Br78  1  0.03547000  0.20457500  0.07089000  1
  Br  Br79  1  0.23711300  0.56053600  0.75000000  1
loop_
_geom_bond_atom_site_label_1
_geom_bond_atom_site_label_2
_geom_bond_distance
_geom_bond_site_symmetry_2
Bi0 Pt2 2.749551 1_555
Bi0 Br20 2.900210 1_555
Bi0 Br72 2.907506 1_555
Bi0 Br53 3.090054 1_555
Bi0 Br16 3.097473 1_555
Bi1 Pt5 2.782162 1_455
Bi1 Br6 2.901149 1_455
Bi1 Br39 2.901149 1_455
Bi1 Br63 2.983607 1_555
Bi1 Br61 2.983607 1_555
Bi2 Pt5 2.743519 1_555
Bi2 Br58 2.805015 1_555
Bi2 Br60 2.805015 1_555
Bi2 Br57 3.389491 1_555
Bi2 Br65 3.389491 1_555
Bi3 Pt2 2.749551 1_555
Bi3 Br54 2.900210 1_555
Bi3 Br10 2.907506 1_555
Bi3 Br56 3.090054 1_555
Bi3 Br76 3.097473 1_555
Bi4 Pt0 2.759763 1_555
Bi4 Br0 2.840293 1_555
Bi4 Br42 2.901186 1_555
Bi4 Br2 3.119618 1_555
Bi4 Br13 3.149971 1_555
Bi5 Pt6 2.759763 1_555
Bi5 Br8 2.840293 1_555
Bi5 Br79 2.901186 1_555
Bi5 Br67 3.119618 1_555
Bi5 Br47 3.149971 1_555
Bi6 Pt4 2.768689 1_566
Bi6 Br34 2.873336 1_555
Bi6 Br1 2.923393 1_455
Bi6 Br66 2.938635 1_565
Bi6 Br57 3.193206 1_465
Bi7 Pt1 2.743519 1_555
Bi7 Br26 2.805015 1_555
Bi7 Br3 2.805015 1_555
Bi7 Br62 3.389491 1_555
Bi7 Br36 3.389491 1_555
Bi8 Pt7 2.764463 1_555
Bi8 Br71 2.833986 1_555
Bi8 Br68 2.921610 1_555
Bi8 Br5 2.942359 1_555
Bi8 Br23 3.292531 1_455
Bi9 Pt6 2.743519 1_555
Bi9 Br14 2.805015 1_555
Bi9 Br24 2.805015 1_555
Bi9 Br76 3.389491 1_555
Bi9 Br47 3.389491 1_555
Bi10 Pt4 2.749551 1_565
Bi10 Br34 2.900210 1_554
Bi10 Br12 2.907506 1_565
Bi10 Br18 3.090054 1_555
Bi10 Br36 3.097473 1_555
Bi11 Pt3 2.749551 1_555
Bi11 Br21 2.900210 1_554
Bi11 Br44 2.907506 1_555
Bi11 Br2 3.090054 1_555
Bi11 Br13 3.097473 1_555
Bi12 Pt1 2.746733 1_555
Bi12 Br33 2.880589 1_555
Bi12 Br77 2.883008 1_555
Bi12 Br26 3.020424 1_555
Bi12 Br69 3.248569 1_555
Bi13 Pt1 2.746733 1_555
Bi13 Br46 2.880589 1_555
Bi13 Br77 2.883008 1_555
Bi13 Br3 3.020424 1_555
Bi13 Br18 3.248569 1_555
Bi14 Pt4 2.749551 1_656
Bi14 Br73 2.900210 1_556
Bi14 Br29 2.907506 1_545
Bi14 Br15 3.090054 1_555
Bi14 Br57 3.097473 1_555
Bi15 Pt4 2.764463 1_556
Bi15 Br12 2.833986 1_556
Bi15 Br78 2.921610 1_556
Bi15 Br66 2.942359 1_555
Bi15 Br15 3.292531 1_455
Bi16 Pt7 2.768689 1_565
Bi16 Br9 2.873336 1_555
Bi16 Br41 2.923393 1_455
Bi16 Br5 2.938635 1_565
Bi16 Br65 3.193206 1_465
Bi17 Pt6 2.759763 1_555
Bi17 Br35 2.840293 1_555
Bi17 Br79 2.901186 1_555
Bi17 Br56 3.119618 1_555
Bi17 Br76 3.149971 1_555
Bi18 Pt3 2.749551 1_556
Bi18 Br31 2.900210 1_556
Bi18 Br32 2.907506 1_555
Bi18 Br67 3.090054 1_555
Bi18 Br47 3.097473 1_555
Bi19 Pt7 2.749551 1_655
Bi19 Br59 2.900210 1_555
Bi19 Br11 2.907506 1_545
Bi19 Br23 3.090054 1_555
Bi19 Br65 3.097473 1_555
Bi20 Pt2 2.764463 1_555
Bi20 Br10 2.833986 1_555
Bi20 Br70 2.921610 1_555
Bi20 Br25 2.942359 1_555
Bi20 Br53 3.292531 1_555
Bi21 Pt4 2.764463 1_665
Bi21 Br29 2.833986 1_554
Bi21 Br1 2.921610 1_554
Bi21 Br40 2.942359 1_555
Bi21 Br18 3.292531 1_655
Bi22 Pt1 2.759763 1_655
Bi22 Br28 2.840293 1_555
Bi22 Br27 2.901186 1_555
Bi22 Br18 3.119618 1_655
Bi22 Br36 3.149971 1_655
Bi23 Pt1 2.782162 1_655
Bi23 Br33 2.901149 1_655
Bi23 Br46 2.901149 1_655
Bi23 Br28 2.983607 1_555
Bi23 Br51 2.983607 1_555
Bi24 Pt4 2.768689 1_655
Bi24 Br73 2.873336 1_555
Bi24 Br78 2.923393 1_655
Bi24 Br40 2.938635 1_545
Bi24 Br36 3.193206 1_645
Bi25 Pt6 2.782162 1_555
Bi25 Br30 2.901149 1_555
Bi25 Br38 2.901149 1_555
Bi25 Br8 2.983607 1_555
Bi25 Br35 2.983607 1_555
Bi26 Pt6 2.746733 1_555
Bi26 Br30 2.880589 1_555
Bi26 Br48 2.883008 1_555
Bi26 Br14 3.020424 1_555
Bi26 Br67 3.248569 1_555
Bi27 Pt2 2.768689 1_555
Bi27 Br20 2.873336 1_555
Bi27 Br70 2.923393 1_555
Bi27 Br17 2.938635 1_555
Bi27 Br76 3.193206 1_555
Bi28 Pt5 2.746733 1_555
Bi28 Br39 2.880589 1_555
Bi28 Br45 2.883008 1_555
Bi28 Br60 3.020424 1_555
Bi28 Br23 3.248569 1_555
Bi29 Pt7 2.749551 1_565
Bi29 Br9 2.900210 1_555
Bi29 Br71 2.907506 1_565
Bi29 Br69 3.090054 1_555
Bi29 Br62 3.097473 1_555
Bi30 Pt0 2.746733 1_555
Bi30 Br7 2.880589 1_555
Bi30 Br50 2.883008 1_555
Bi30 Br37 3.020424 1_555
Bi30 Br53 3.248569 1_555
Bi31 Pt5 2.759763 1_455
Bi31 Br61 2.840293 1_555
Bi31 Br64 2.901186 1_555
Bi31 Br23 3.119618 1_455
Bi31 Br65 3.149971 1_455
Bi32 Pt3 2.764463 1_555
Bi32 Br32 2.833986 1_554
Bi32 Br55 2.921610 1_554
Bi32 Br52 2.942359 1_555
Bi32 Br2 3.292531 1_555
Bi33 Pt7 2.768689 1_655
Bi33 Br59 2.873336 1_555
Bi33 Br68 2.923393 1_655
Bi33 Br74 2.938635 1_545
Bi33 Br62 3.193206 1_645
Bi34 Pt7 2.764463 1_665
Bi34 Br11 2.833986 1_555
Bi34 Br41 2.921610 1_555
Bi34 Br74 2.942359 1_555
Bi34 Br69 3.292531 1_655
Bi35 Pt3 2.764463 1_556
Bi35 Br44 2.833986 1_556
Bi35 Br75 2.921610 1_556
Bi35 Br22 2.942359 1_555
Bi35 Br67 3.292531 1_555
Bi36 Pt1 2.759763 1_655
Bi36 Br51 2.840293 1_555
Bi36 Br27 2.901186 1_555
Bi36 Br69 3.119618 1_655
Bi36 Br62 3.149971 1_655
Bi37 Pt0 2.759763 1_555
Bi37 Br49 2.840293 1_555
Bi37 Br42 2.901186 1_555
Bi37 Br53 3.119618 1_555
Bi37 Br16 3.149971 1_555
Bi38 Pt2 2.764463 1_555
Bi38 Br72 2.833986 1_555
Bi38 Br4 2.921610 1_555
Bi38 Br17 2.942359 1_555
Bi38 Br56 3.292531 1_555
Bi39 Pt0 2.782162 1_555
Bi39 Br7 2.901149 1_555
Bi39 Br19 2.901149 1_555
Bi39 Br49 2.983607 1_555
Bi39 Br0 2.983607 1_555
Bi40 Pt0 2.746733 1_555
Bi40 Br19 2.880589 1_555
Bi40 Br50 2.883008 1_555
Bi40 Br43 3.020424 1_555
Bi40 Br2 3.248569 1_555
Bi41 Pt0 2.743519 1_555
Bi41 Br37 2.805015 1_555
Bi41 Br43 2.805015 1_555
Bi41 Br16 3.389491 1_555
Bi41 Br13 3.389491 1_555
Bi42 Pt3 2.768689 1_555
Bi42 Br31 2.873336 1_555
Bi42 Br75 2.923393 1_555
Bi42 Br52 2.938635 1_555
Bi42 Br13 3.193206 1_555
Bi43 Pt5 2.759763 1_455
Bi43 Br63 2.840293 1_555
Bi43 Br64 2.901186 1_555
Bi43 Br15 3.119618 1_455
Bi43 Br57 3.149971 1_455
Bi44 Pt2 2.768689 1_555
Bi44 Br54 2.873336 1_555
Bi44 Br4 2.923393 1_555
Bi44 Br25 2.938635 1_555
Bi44 Br16 3.193206 1_555
Bi45 Pt5 2.746733 1_555
Bi45 Br6 2.880589 1_555
Bi45 Br45 2.883008 1_555
Bi45 Br58 3.020424 1_555
Bi45 Br15 3.248569 1_555
Bi46 Pt3 2.768689 1_556
Bi46 Br21 2.873336 1_555
Bi46 Br55 2.923393 1_555
Bi46 Br22 2.938635 1_555
Bi46 Br47 3.193206 1_555
Bi47 Pt6 2.746733 1_555
Bi47 Br38 2.880589 1_555
Bi47 Br48 2.883008 1_555
Bi47 Br24 3.020424 1_555
Bi47 Br56 3.248569 1_555
