# generated using pymatgen
data_Ca3(B3Rh4)2
_symmetry_space_group_name_H-M   'P 1'
_cell_length_a   5.50475614
_cell_length_b   5.59252558
_cell_length_c   8.94295833
_cell_angle_alpha   81.28787100
_cell_angle_beta   72.07510097
_cell_angle_gamma   60.51782090
_symmetry_Int_Tables_number   1
_chemical_formula_structural   Ca3(B3Rh4)2
_chemical_formula_sum   'Ca3 B6 Rh8'
_cell_volume   228.02964938
_cell_formula_units_Z   1
loop_
 _symmetry_equiv_pos_site_id
 _symmetry_equiv_pos_as_xyz
  1  'x, y, z'
loop_
 _atom_site_type_symbol
 _atom_site_label
 _atom_site_symmetry_multiplicity
 _atom_site_fract_x
 _atom_site_fract_y
 _atom_site_fract_z
 _atom_site_occupancy
  Ca  Ca0  1  0.68186594  0.00000000  0.63626913  1
  Ca  Ca1  1  0.31813406  -0.00000000  0.36373087  1
  Ca  Ca2  1  0.50000000  0.00000000  0.00000000  1
  B  B0  1  0.33112706  0.68005661  0.65769127  1
  B  B1  1  0.01118367  0.31994339  0.65769127  1
  B  B2  1  0.66887294  0.31994339  0.34230873  1
  B  B3  1  0.98881633  0.68005661  0.34230873  1
  B  B4  1  0.83326503  0.33346894  0.00000000  1
  B  B5  1  0.16673497  0.66653106  -0.00000000  1
  Rh  Rh0  1  0.41518664  0.50000000  0.16962771  1
  Rh  Rh1  1  0.08644227  -0.00000000  0.82711547  1
  Rh  Rh2  1  0.58481336  0.50000000  0.83037229  1
  Rh  Rh3  1  0.91518664  0.50000000  0.16962771  1
  Rh  Rh4  1  0.08481336  0.50000000  0.83037229  1
  Rh  Rh5  1  0.75000000  0.50000000  0.50000000  1
  Rh  Rh6  1  0.91355773  0.00000000  0.17288453  1
  Rh  Rh7  1  0.25000000  0.50000000  0.50000000  1
loop_
_geom_bond_atom_site_label_1
_geom_bond_atom_site_label_2
_geom_bond_distance
_geom_bond_site_symmetry_2
Ca0 Rh5 3.027129 1_555
Ca0 Rh7 3.027130 1_645
Ca0 Rh5 3.027132 1_545
Ca0 Rh7 3.027132 1_555
Ca0 Ca2 3.094940 1_556
Ca0 Rh1 3.195712 1_655
Ca0 Rh1 3.195718 1_555
Ca0 Rh4 3.247591 1_645
Ca0 Rh2 3.247592 1_555
Ca0 Rh2 3.247596 1_545
Ca0 Rh4 3.247597 1_555
Ca1 Rh7 3.027129 1_545
Ca1 Rh5 3.027130 1_455
Ca1 Rh7 3.027132 1_555
Ca1 Rh5 3.027132 1_545
Ca1 Ca2 3.094940 1_555
Ca1 Rh6 3.195712 1_455
Ca1 Rh6 3.195718 1_555
Ca1 Rh3 3.247591 1_455
Ca1 Rh0 3.247592 1_545
Ca1 Rh0 3.247596 1_555
Ca1 Rh3 3.247597 1_545
Ca2 Rh6 3.120830 1_555
Ca2 Rh1 3.120830 1_554
Ca2 Rh6 3.120831 1_455
Ca2 Rh1 3.120831 1_654
Ca2 Rh0 3.146794 1_545
Ca2 Rh2 3.146794 1_554
Ca2 Rh3 3.146794 1_455
Ca2 Rh4 3.146794 1_644
Ca2 Rh4 3.146796 1_554
Ca2 Rh3 3.146796 1_545
Ca2 Rh2 3.146796 1_544
Ca2 Rh0 3.146796 1_555
B0 Rh5 2.112494 1_555
B0 Rh7 2.112501 1_555
B0 Rh1 2.122342 1_565
B0 Rh2 2.195715 1_555
B0 Rh4 2.195726 1_555
B0 Ca1 2.946601 1_565
B0 Ca0 3.167790 1_565
B0 Ca0 3.167795 1_465
B1 Rh7 2.112494 1_555
B1 Rh5 2.112501 1_455
B1 Rh1 2.122342 1_555
B1 Rh4 2.195715 1_555
B1 Rh2 2.195726 1_455
B1 Ca1 2.946602 1_555
B1 Ca0 3.167790 1_555
B1 Ca0 3.167795 1_455
B2 Rh7 2.112494 1_555
B2 Rh5 2.112501 1_555
B2 Rh6 2.122342 1_555
B2 Rh0 2.195715 1_555
B2 Rh3 2.195726 1_555
B2 Ca0 2.946601 1_555
B2 Ca1 3.167790 1_555
B2 Ca1 3.167795 1_655
B3 Rh5 2.112494 1_555
B3 Rh7 2.112501 1_655
B3 Rh6 2.122342 1_565
B3 Rh3 2.195715 1_555
B3 Rh0 2.195726 1_655
B3 Ca0 2.946602 1_565
B3 Ca1 3.167790 1_565
B3 Ca1 3.167795 1_665
B4 Rh0 2.152766 1_555
B4 Rh2 2.152768 1_554
B4 Rh4 2.152769 1_654
B4 Rh3 2.152772 1_555
B4 Rh6 2.190789 1_555
B4 Rh1 2.190789 1_654
B4 Ca2 3.195486 1_555
B4 Ca2 3.195491 1_655
B4 Ca2 3.244902 1_565
B5 Rh2 2.152766 1_554
B5 Rh0 2.152768 1_555
B5 Rh3 2.152769 1_455
B5 Rh4 2.152772 1_554
B5 Rh1 2.190789 1_564
B5 Rh6 2.190789 1_465
B5 Ca2 3.195486 1_565
B5 Ca2 3.195491 1_465
B5 Ca2 3.244902 1_555
