# generated using pymatgen
data_TmNiBi
_symmetry_space_group_name_H-M   'P 1'
_cell_length_a   4.50982211
_cell_length_b   4.50982244
_cell_length_c   4.50982189
_cell_angle_alpha   60.00001142
_cell_angle_beta   60.00000903
_cell_angle_gamma   60.00000414
_symmetry_Int_Tables_number   1
_chemical_formula_structural   TmNiBi
_chemical_formula_sum   'Tm1 Ni1 Bi1'
_cell_volume   64.85796645
_cell_formula_units_Z   1
loop_
 _symmetry_equiv_pos_site_id
 _symmetry_equiv_pos_as_xyz
  1  'x, y, z'
loop_
 _atom_site_type_symbol
 _atom_site_label
 _atom_site_symmetry_multiplicity
 _atom_site_fract_x
 _atom_site_fract_y
 _atom_site_fract_z
 _atom_site_occupancy
  Tm  Tm0  1  0.50000000  0.50000000  0.50000000  1
  Ni  Ni0  1  0.25000000  0.25000000  0.25000000  1
  Bi  Bi0  1  0.00000000  -0.00000000  0.00000000  1
loop_
_geom_bond_atom_site_label_1
_geom_bond_atom_site_label_2
_geom_bond_distance
_geom_bond_site_symmetry_2
Ni0 Tm0 2.761691 1_555
Ni0 Tm0 2.761691 1_455
Ni0 Tm0 2.761691 1_554
Ni0 Tm0 2.761691 1_545
Bi0 Ni0 2.761691 1_555
Bi0 Ni0 2.761691 1_455
Bi0 Ni0 2.761691 1_554
Bi0 Ni0 2.761691 1_545
Bi0 Tm0 3.188926 1_544
Bi0 Tm0 3.188926 1_545
Bi0 Tm0 3.188926 1_454
Bi0 Tm0 3.188926 1_455
Bi0 Tm0 3.188926 1_554
Bi0 Tm0 3.188926 1_445
