# generated using pymatgen
data_Na2SnAs2
_symmetry_space_group_name_H-M   'P 1'
_cell_length_a   14.84043473
_cell_length_b   14.84043473
_cell_length_c   14.84043473
_cell_angle_alpha   122.12235789
_cell_angle_beta   122.12235789
_cell_angle_gamma   86.36166806
_symmetry_Int_Tables_number   1
_chemical_formula_structural   Na2SnAs2
_chemical_formula_sum   'Na32 Sn16 As32'
_cell_volume   2232.09280899
_cell_formula_units_Z   16
loop_
 _symmetry_equiv_pos_site_id
 _symmetry_equiv_pos_as_xyz
  1  'x, y, z'
loop_
 _atom_site_type_symbol
 _atom_site_label
 _atom_site_symmetry_multiplicity
 _atom_site_fract_x
 _atom_site_fract_y
 _atom_site_fract_z
 _atom_site_occupancy
  Na  Na0  1  0.89962900  0.89962900  0.29925800  1
  Na  Na1  1  0.78872000  0.06674600  0.04326000  1
  Na  Na2  1  0.75454000  0.47651500  0.04326000  1
  Na  Na3  1  0.46128000  0.00454000  0.77802500  1
  Na  Na4  1  0.52348500  0.56674600  0.27802500  1
  Na  Na5  1  0.49546000  0.03872000  0.22197500  1
  Na  Na6  1  0.43325400  0.71128000  0.95674000  1
  Na  Na7  1  0.35037100  0.14962900  0.50000000  1
  Na  Na8  1  0.89982000  0.60018000  0.50000000  1
  Na  Na9  1  0.10037100  0.39962900  0.00000000  1
  Na  Na10  1  0.10018000  0.39982000  0.50000000  1
  Na  Na11  1  0.39962900  0.10037100  0.00000000  1
  Na  Na12  1  0.85037100  0.35037100  0.20074200  1
  Na  Na13  1  0.64962900  0.85037100  0.50000000  1
  Na  Na14  1  0.99546000  0.77348500  0.45674000  1
  Na  Na15  1  0.31674600  0.53872000  0.54326000  1
  Na  Na16  1  0.35018000  0.35018000  0.20036000  1
  Na  Na17  1  0.85018000  0.64982000  0.00000000  1
  Na  Na18  1  0.14962900  0.64962900  0.79925800  1
  Na  Na19  1  0.02348500  0.74546000  0.95674000  1
  Na  Na20  1  0.64982000  0.85018000  0.00000000  1
  Na  Na21  1  0.22651500  0.68325400  0.22197500  1
  Na  Na22  1  0.96128000  0.18325400  0.45674000  1
  Na  Na23  1  0.14982000  0.14982000  0.79964000  1
  Na  Na24  1  0.39982000  0.89982000  0.29964000  1
  Na  Na25  1  0.72651500  0.50454000  0.54326000  1
  Na  Na26  1  0.28872000  0.24546000  0.72197500  1
  Na  Na27  1  0.93325400  0.97651500  0.72197500  1
  Na  Na28  1  0.60037100  0.60037100  0.70074200  1
  Na  Na29  1  0.25454000  0.21128000  0.27802500  1
  Na  Na30  1  0.81674600  0.27348500  0.77802500  1
  Na  Na31  1  0.60018000  0.10018000  0.70036000  1
  Sn  Sn0  1  0.65013200  0.68860900  0.20099300  1
  Sn  Sn1  1  0.93860900  0.40013200  0.70099300  1
  Sn  Sn2  1  0.26238400  0.80086100  0.70099300  1
  Sn  Sn3  1  0.19913900  0.90013200  0.46152300  1
  Sn  Sn4  1  0.81139100  0.84986800  0.79900700  1
  Sn  Sn5  1  0.76238400  0.06139100  0.46152300  1
  Sn  Sn6  1  0.59986800  0.30086100  0.53847700  1
  Sn  Sn7  1  0.31139100  0.51238400  0.96152300  1
  Sn  Sn8  1  0.69913900  0.23761600  0.29900700  1
  Sn  Sn9  1  0.43860900  0.73761600  0.53847700  1
  Sn  Sn10  1  0.09986800  0.56139100  0.29900700  1
  Sn  Sn11  1  0.05086100  0.01238400  0.20099300  1
  Sn  Sn12  1  0.48761600  0.44913900  0.79900700  1
  Sn  Sn13  1  0.15013200  0.94913900  0.96152300  1
  Sn  Sn14  1  0.98761600  0.18860900  0.03847700  1
  Sn  Sn15  1  0.55086100  0.34986800  0.03847700  1
  As  As0  1  0.30779000  0.87500000  0.93279000  1
  As  As1  1  0.94221000  0.37500000  0.06721000  1
  As  As2  1  0.79035500  0.03785300  0.82230300  1
  As  As3  1  0.95964500  0.21214700  0.67769700  1
  As  As4  1  0.89807600  0.39807600  0.50000000  1
  As  As5  1  0.12500000  0.05779000  0.43279000  1
  As  As6  1  0.53445000  0.28194800  0.32230300  1
  As  As7  1  0.64807600  0.64807600  0.00000000  1
  As  As8  1  0.80779000  0.87500000  0.43279000  1
  As  As9  1  0.85192400  0.85192400  0.00000000  1
  As  As10  1  0.53194800  0.28445000  0.82230300  1
  As  As11  1  0.78785300  0.46555000  0.74749800  1
  As  As12  1  0.03445000  0.71214700  0.25250200  1
  As  As13  1  0.14807600  0.14807600  0.00000000  1
  As  As14  1  0.03194800  0.20964500  0.24749800  1
  As  As15  1  0.71805200  0.04035500  0.25250200  1
  As  As16  1  0.96214700  0.78445000  0.75250200  1
  As  As17  1  0.28785300  0.54035500  0.32230300  1
  As  As18  1  0.10192400  0.60192400  0.50000000  1
  As  As19  1  0.62500000  0.69221000  0.56721000  1
  As  As20  1  0.44221000  0.37500000  0.56721000  1
  As  As21  1  0.60192400  0.10192400  0.50000000  1
  As  As22  1  0.21805200  0.96555000  0.67769700  1
  As  As23  1  0.12500000  0.55779000  0.93279000  1
  As  As24  1  0.39807600  0.89807600  0.50000000  1
  As  As25  1  0.62500000  0.19221000  0.06721000  1
  As  As26  1  0.71555000  0.53785300  0.24749800  1
  As  As27  1  0.35192400  0.35192400  0.00000000  1
  As  As28  1  0.21555000  0.96805200  0.17769700  1
  As  As29  1  0.45964500  0.78194800  0.74749800  1
  As  As30  1  0.46214700  0.70964500  0.17769700  1
  As  As31  1  0.29035500  0.46805200  0.75250200  1
loop_
_geom_bond_atom_site_label_1
_geom_bond_atom_site_label_2
_geom_bond_distance
_geom_bond_site_symmetry_2
As0 Sn13 2.664955 1_555
As0 Sn2 2.664955 1_555
As0 Na6 3.022733 1_555
As0 Na5 3.022740 1_566
As0 Na11 3.102254 1_566
As0 Na18 3.102254 1_555
As1 Sn10 2.664955 1_655
As1 Sn14 2.664955 1_555
As1 Na2 3.022740 1_555
As1 Na30 3.022742 1_554
As1 Na12 3.102254 1_555
As1 Na9 3.102254 1_655
As2 Sn4 2.641666 1_545
As2 Sn14 2.660473 1_556
As2 Na31 2.848337 1_555
As2 Na27 3.035508 1_545
As2 Na1 3.086255 1_556
As2 Na13 3.307981 1_545
As3 Sn1 2.641666 1_555
As3 Sn5 2.660473 1_555
As3 Na23 2.848337 1_655
As3 Na30 3.035508 1_555
As3 Na22 3.086255 1_555
As3 Na9 3.307981 1_656
As4 Sn1 2.693963 1_555
As4 Sn8 2.693963 1_555
As4 Na10 3.001065 1_655
As4 Na8 3.001065 1_555
As4 Na25 3.088660 1_555
As4 Na22 3.088673 1_555
As5 Sn3 2.664955 1_545
As5 Sn11 2.664955 1_555
As5 Na22 3.022733 1_455
As5 Na26 3.022740 1_555
As5 Na7 3.102254 1_555
As5 Na0 3.102254 1_445
As6 Sn8 2.641666 1_555
As6 Sn6 2.660473 1_555
As6 Na16 2.848337 1_555
As6 Na5 3.035522 1_555
As6 Na25 3.086261 1_555
As6 Na11 3.307981 1_555
As7 Sn0 2.693963 1_555
As7 Sn12 2.693963 1_554
As7 Na20 3.001065 1_555
As7 Na17 3.001065 1_555
As7 Na2 3.088660 1_555
As7 Na6 3.088673 1_554
As8 Sn0 2.664955 1_555
As8 Sn5 2.664955 1_565
As8 Na14 3.022740 1_555
As8 Na27 3.022742 1_555
As8 Na13 3.102254 1_555
As8 Na0 3.102254 1_555
As9 Sn4 2.693963 1_554
As9 Sn11 2.693963 1_665
As9 Na17 3.001065 1_555
As9 Na20 3.001065 1_555
As9 Na19 3.088660 1_654
As9 Na1 3.088673 1_565
As10 Sn12 2.641666 1_555
As10 Sn15 2.660473 1_556
As10 Na31 2.848337 1_555
As10 Na26 3.035522 1_555
As10 Na2 3.086261 1_556
As10 Na7 3.307981 1_555
As11 Sn6 2.641666 1_555
As11 Sn1 2.660473 1_555
As11 Na17 2.848337 1_556
As11 Na25 3.035522 1_555
As11 Na30 3.086261 1_555
As11 Na28 3.307981 1_555
As12 Sn3 2.641666 1_555
As12 Sn10 2.660473 1_555
As12 Na17 2.848337 1_455
As12 Na14 3.035522 1_455
As12 Na21 3.086261 1_555
As12 Na0 3.307981 1_455
As13 Sn14 2.693963 1_455
As13 Sn13 2.693963 1_544
As13 Na23 3.001065 1_554
As13 Na16 3.001065 1_555
As13 Na29 3.088660 1_555
As13 Na27 3.088665 1_444
As14 Sn14 2.641666 1_455
As14 Sn11 2.660473 1_555
As14 Na10 2.848337 1_555
As14 Na1 3.035518 1_455
As14 Na29 3.086261 1_555
As14 Na12 3.307981 1_455
As15 Sn5 2.641666 1_555
As15 Sn8 2.660473 1_555
As15 Na20 2.848337 1_545
As15 Na22 3.035518 1_555
As15 Na5 3.086261 1_555
As15 Na0 3.307981 1_545
As16 Sn13 2.641666 1_655
As16 Sn4 2.660473 1_555
As16 Na8 2.848337 1_555
As16 Na19 3.035522 1_655
As16 Na27 3.086261 1_555
As16 Na18 3.307981 1_655
As17 Sn10 2.641666 1_555
As17 Sn9 2.660473 1_555
As17 Na16 2.848337 1_555
As17 Na21 3.035508 1_555
As17 Na15 3.086255 1_555
As17 Na9 3.307981 1_555
As18 Sn10 2.693963 1_555
As18 Sn2 2.693963 1_555
As18 Na10 3.001065 1_555
As18 Na8 3.001065 1_455
As18 Na14 3.088660 1_455
As18 Na15 3.088673 1_555
As19 Sn9 2.664955 1_555
As19 Sn4 2.664955 1_555
As19 Na25 3.022740 1_555
As19 Na4 3.022742 1_555
As19 Na28 3.102254 1_555
As19 Na13 3.102254 1_555
As20 Sn6 2.664955 1_555
As20 Sn12 2.664955 1_555
As20 Na15 3.022733 1_555
As20 Na29 3.022740 1_555
As20 Na7 3.102254 1_555
As20 Na28 3.102254 1_555
As21 Sn5 2.693963 1_555
As21 Sn6 2.693963 1_555
As21 Na31 3.001065 1_555
As21 Na24 3.001065 1_545
As21 Na5 3.088660 1_555
As21 Na30 3.088665 1_555
As22 Sn2 2.641666 1_555
As22 Sn3 2.660473 1_555
As22 Na23 2.848337 1_565
As22 Na3 3.035522 1_565
As22 Na14 3.086261 1_455
As22 Na11 3.307981 1_566
As23 Sn7 2.664955 1_555
As23 Sn1 2.664955 1_455
As23 Na19 3.022740 1_555
As23 Na21 3.022742 1_556
As23 Na9 3.102254 1_556
As23 Na18 3.102254 1_555
As24 Sn9 2.693963 1_555
As24 Sn3 2.693963 1_555
As24 Na24 3.001065 1_555
As24 Na31 3.001065 1_565
As24 Na3 3.088660 1_565
As24 Na21 3.088665 1_555
As25 Sn15 2.664955 1_555
As25 Sn8 2.664955 1_555
As25 Na1 3.022733 1_555
As25 Na3 3.022740 1_554
As25 Na11 3.102254 1_555
As25 Na12 3.102254 1_555
As26 Sn15 2.641666 1_555
As26 Sn0 2.660473 1_555
As26 Na8 2.848337 1_555
As26 Na2 3.035522 1_555
As26 Na4 3.086261 1_555
As26 Na12 3.307981 1_555
As27 Sn7 2.693963 1_554
As27 Sn15 2.693963 1_555
As27 Na23 3.001065 1_554
As27 Na16 3.001065 1_555
As27 Na26 3.088660 1_554
As27 Na4 3.088665 1_555
As28 Sn11 2.641666 1_565
As28 Sn13 2.660473 1_554
As28 Na24 2.848337 1_555
As28 Na29 3.035522 1_565
As28 Na19 3.086261 1_554
As28 Na7 3.307981 1_565
As29 Sn9 2.641666 1_555
As29 Sn2 2.660473 1_555
As29 Na20 2.848337 1_556
As29 Na15 3.035518 1_555
As29 Na3 3.086261 1_565
As29 Na28 3.307981 1_555
As30 Sn0 2.641666 1_555
As30 Sn7 2.660473 1_554
As30 Na24 2.848337 1_555
As30 Na4 3.035508 1_555
As30 Na6 3.086255 1_554
As30 Na13 3.307981 1_555
As31 Sn7 2.641666 1_555
As31 Sn12 2.660473 1_555
As31 Na10 2.848337 1_555
As31 Na6 3.035518 1_555
As31 Na26 3.086261 1_555
As31 Na18 3.307981 1_555
