# generated using pymatgen
data_MnGaH4O2F5
_symmetry_space_group_name_H-M   'P 1'
_cell_length_a   6.66506346
_cell_length_b   7.47118162
_cell_length_c   7.47096495
_cell_angle_alpha   61.49963691
_cell_angle_beta   116.49787352
_cell_angle_gamma   116.49686268
_symmetry_Int_Tables_number   1
_chemical_formula_structural   MnGaH4O2F5
_chemical_formula_sum   'Mn2 Ga2 H8 O4 F10'
_cell_volume   279.43076482
_cell_formula_units_Z   2
loop_
 _symmetry_equiv_pos_site_id
 _symmetry_equiv_pos_as_xyz
  1  'x, y, z'
loop_
 _atom_site_type_symbol
 _atom_site_label
 _atom_site_symmetry_multiplicity
 _atom_site_fract_x
 _atom_site_fract_y
 _atom_site_fract_z
 _atom_site_occupancy
  Mn  Mn0  1  0.49994000  0.99997700  0.00001500  1
  Mn  Mn1  1  0.99999100  0.50000400  0.49998700  1
  Ga  Ga0  1  0.00000100  0.00000200  0.49999700  1
  Ga  Ga1  1  0.00000900  0.50000500  0.00000300  1
  H  H0  1  0.21481100  0.99426600  0.19978800  1
  H  H1  1  0.52076000  0.50574600  0.30020700  1
  H  H2  1  0.78521200  0.80019400  0.00575100  1
  H  H3  1  0.47925900  0.69980700  0.49424600  1
  H  H4  1  0.78520800  0.00574600  0.80020200  1
  H  H5  1  0.47926000  0.49425900  0.69978200  1
  H  H6  1  0.21479900  0.19981400  0.99424300  1
  H  H7  1  0.52075600  0.30020700  0.50575100  1
  O  O0  1  0.72262800  0.92302500  0.92304200  1
  O  O1  1  0.37652900  0.57695400  0.57693500  1
  O  O2  1  0.27735400  0.07696700  0.07692800  1
  O  O3  1  0.62349000  0.42306000  0.42306900  1
  F  F0  1  0.06488500  0.25003200  0.25004600  1
  F  F1  1  0.93512400  0.74996400  0.74994400  1
  F  F2  1  0.32134900  0.08881900  0.65859200  1
  F  F3  1  0.07383400  0.41134400  0.84131500  1
  F  F4  1  0.67864800  0.34138800  0.91121100  1
  F  F5  1  0.92615500  0.15871000  0.58864300  1
  F  F6  1  0.67862000  0.91119700  0.34139200  1
  F  F7  1  0.92618300  0.58865000  0.15872800  1
  F  F8  1  0.32136300  0.65859600  0.08880200  1
  F  F9  1  0.07383000  0.84126600  0.41138000  1
loop_
_geom_bond_atom_site_label_1
_geom_bond_atom_site_label_2
_geom_bond_distance
_geom_bond_site_symmetry_2
Mn0 O2 2.167836 1_565
Mn0 O0 2.168577 1_554
Mn1 O3 2.167739 1_555
Mn1 O1 2.167932 1_655
H0 O2 0.984079 1_565
H1 O3 0.984098 1_555
H2 O0 0.984065 1_554
H3 O1 0.984104 1_555
H4 O0 0.984093 1_545
H5 O1 0.984098 1_555
H6 O2 0.984057 1_556
H7 O3 0.984093 1_555
F0 Ga0 1.958163 1_555
F0 Ga1 1.958286 1_555
F1 Ga0 1.958159 1_665
F1 Ga1 1.958285 1_656
F2 Ga0 1.910290 1_555
F2 Mn0 2.178011 1_546
F3 Ga1 1.909775 1_556
F3 Mn1 2.177781 1_455
F4 Ga1 1.910386 1_656
F4 Mn0 2.178154 1_546
F5 Ga0 1.909935 1_655
F5 Mn1 2.177641 1_555
F6 Ga0 1.910450 1_665
F6 Mn0 2.177842 1_555
F7 Ga1 1.909938 1_655
F7 Mn1 2.177358 1_555
F8 Ga1 1.910306 1_555
F8 Mn0 2.177841 1_555
F9 Ga0 1.909881 1_565
F9 Mn1 2.177473 1_455
