# generated using pymatgen
data_CrPO4
_symmetry_space_group_name_H-M   'P 1'
_cell_length_a   7.37017271
_cell_length_b   7.37017271
_cell_length_c   9.49766200
_cell_angle_alpha   90.00000000
_cell_angle_beta   90.00000000
_cell_angle_gamma   120.00000636
_symmetry_Int_Tables_number   1
_chemical_formula_structural   CrPO4
_chemical_formula_sum   'Cr6 P6 O24'
_cell_volume   446.78917654
_cell_formula_units_Z   6
loop_
 _symmetry_equiv_pos_site_id
 _symmetry_equiv_pos_as_xyz
  1  'x, y, z'
loop_
 _atom_site_type_symbol
 _atom_site_label
 _atom_site_symmetry_multiplicity
 _atom_site_fract_x
 _atom_site_fract_y
 _atom_site_fract_z
 _atom_site_occupancy
  Cr  Cr0  1  0.45714100  0.06443400  0.02577400  1
  Cr  Cr1  1  0.60729300  0.54285900  0.02577400  1
  Cr  Cr2  1  0.93556600  0.39270700  0.02577400  1
  Cr  Cr3  1  0.06443400  0.45714100  0.52577400  1
  Cr  Cr4  1  0.54285900  0.60729300  0.52577400  1
  Cr  Cr5  1  0.39270700  0.93556600  0.52577400  1
  P  P0  1  0.00000000  0.00000000  0.46803700  1
  P  P1  1  0.00000000  0.00000000  0.96803700  1
  P  P2  1  0.66666700  0.33333300  0.71994700  1
  P  P3  1  0.66666700  0.33333300  0.33058400  1
  P  P4  1  0.33333300  0.66666700  0.83058400  1
  P  P5  1  0.33333300  0.66666700  0.21994700  1
  O  O0  1  0.00000000  0.00000000  0.31274100  1
  O  O1  1  0.23165400  0.11866200  0.03554800  1
  O  O2  1  0.46484100  0.13974200  0.37877800  1
  O  O3  1  0.56953600  0.10657400  0.67200400  1
  O  O4  1  0.53703700  0.43046400  0.67200400  1
  O  O5  1  0.66666700  0.33333300  0.15727100  1
  O  O6  1  0.66666700  0.33333300  0.89022500  1
  O  O7  1  0.88133800  0.11299300  0.03554800  1
  O  O8  1  0.86025800  0.32509900  0.37877800  1
  O  O9  1  0.67490100  0.53515900  0.37877800  1
  O  O10  1  0.11866200  0.23165400  0.53554800  1
  O  O11  1  0.89342600  0.46296300  0.67200400  1
  O  O12  1  0.13974200  0.46484100  0.87877800  1
  O  O13  1  0.88700700  0.76834600  0.03554800  1
  O  O14  1  0.10657400  0.56953600  0.17200400  1
  O  O15  1  0.43046400  0.53703700  0.17200400  1
  O  O16  1  0.33333300  0.66666700  0.65727100  1
  O  O17  1  0.33333300  0.66666700  0.39022500  1
  O  O18  1  0.11299300  0.88133800  0.53554800  1
  O  O19  1  0.32509900  0.86025800  0.87877800  1
  O  O20  1  0.53515900  0.67490100  0.87877800  1
  O  O21  1  0.46296300  0.89342600  0.17200400  1
  O  O22  1  0.76834600  0.88700700  0.53554800  1
  O  O23  1  0.00000000  0.00000000  0.81274100  1
loop_
_geom_bond_atom_site_label_1
_geom_bond_atom_site_label_2
_geom_bond_distance
_geom_bond_site_symmetry_2
Cr0 O21 1.890320 1_545
Cr0 O1 1.895889 1_555
Cr0 O19 1.922558 1_544
Cr0 O5 2.193559 1_555
Cr0 O6 2.215696 1_554
Cr1 O15 1.890315 1_555
Cr1 O13 1.895884 1_555
Cr1 O20 1.922558 1_554
Cr1 O5 2.193563 1_555
Cr1 O6 2.215700 1_554
Cr2 O14 1.890318 1_655
Cr2 O7 1.895882 1_555
Cr2 O12 1.922558 1_654
Cr2 O5 2.193557 1_555
Cr2 O6 2.215694 1_554
Cr3 O11 1.890320 1_455
Cr3 O10 1.895889 1_555
Cr3 O8 1.922558 1_455
Cr3 O16 2.193559 1_555
Cr3 O17 2.215696 1_555
Cr4 O4 1.890315 1_555
Cr4 O22 1.895884 1_555
Cr4 O9 1.922558 1_555
Cr4 O16 2.193563 1_555
Cr4 O17 2.215700 1_555
Cr5 O3 1.890318 1_565
Cr5 O18 1.895882 1_555
Cr5 O2 1.922558 1_565
Cr5 O16 2.193557 1_555
Cr5 O17 2.215694 1_555
O0 P0 1.474949 1_555
O1 P1 1.611770 1_554
O2 P3 1.528252 1_555
O3 P2 1.522004 1_555
O4 P2 1.522017 1_555
O5 P3 1.646068 1_555
O6 P2 1.617243 1_555
O7 P1 1.611776 1_654
O8 P3 1.528248 1_555
O9 P3 1.528255 1_555
O10 P0 1.611770 1_555
O11 P2 1.522005 1_555
O12 P4 1.528252 1_555
O13 P1 1.611769 1_664
O14 P5 1.522004 1_555
O15 P5 1.522017 1_555
O16 P4 1.646068 1_555
O17 P5 1.617243 1_555
O18 P0 1.611776 1_565
O19 P4 1.528248 1_555
O20 P4 1.528255 1_555
O21 P5 1.522005 1_555
O22 P0 1.611769 1_665
O23 P1 1.474949 1_555
