# generated using pymatgen
data_Er4Si9Ir13
_symmetry_space_group_name_H-M   'P 1'
_cell_length_a   3.93162315
_cell_length_b   10.93039419
_cell_length_c   18.88359467
_cell_angle_alpha   90.00002126
_cell_angle_beta   90.00000116
_cell_angle_gamma   89.99998477
_symmetry_Int_Tables_number   1
_chemical_formula_structural   Er4Si9Ir13
_chemical_formula_sum   'Er8 Si18 Ir26'
_cell_volume   811.50720102
_cell_formula_units_Z   2
loop_
 _symmetry_equiv_pos_site_id
 _symmetry_equiv_pos_as_xyz
  1  'x, y, z'
loop_
 _atom_site_type_symbol
 _atom_site_label
 _atom_site_symmetry_multiplicity
 _atom_site_fract_x
 _atom_site_fract_y
 _atom_site_fract_z
 _atom_site_occupancy
  Er  Er0  1  0.49999998  0.69091556  0.20808983  1
  Er  Er1  1  0.00000030  0.80908689  0.79193483  1
  Er  Er2  1  -0.00000067  0.19091297  0.79193444  1
  Er  Er3  1  0.50000019  0.30908454  0.20809001  1
  Er  Er4  1  0.49999963  0.00000052  0.51883320  1
  Er  Er5  1  -0.00000052  0.49999933  0.48108800  1
  Er  Er6  1  0.50000090  0.49999978  0.02245209  1
  Er  Er7  1  -0.00000007  0.00000028  0.97762659  1
  Si  Si0  1  0.00000009  0.00000007  0.39723474  1
  Si  Si1  1  0.49999958  0.49999933  0.60271473  1
  Si  Si2  1  0.49999973  0.31816003  0.41452944  1
  Si  Si3  1  -0.00000025  0.18183989  0.58540893  1
  Si  Si4  1  -0.00000033  0.81815978  0.58540931  1
  Si  Si5  1  0.49999962  0.68183952  0.41452914  1
  Si  Si6  1  0.00000023  0.68828349  0.08042428  1
  Si  Si7  1  0.50000000  0.81171037  0.91964994  1
  Si  Si8  1  0.49999994  0.18829018  0.91965027  1
  Si  Si9  1  0.00000027  0.31171639  0.08042367  1
  Si  Si10  1  0.50000003  0.00000031  0.10228768  1
  Si  Si11  1  0.00000011  0.50000007  0.89775845  1
  Si  Si12  1  0.49999969  0.37383764  0.72923441  1
  Si  Si13  1  -0.00000007  0.12614808  0.27076836  1
  Si  Si14  1  0.00000022  0.87385252  0.27076870  1
  Si  Si15  1  0.49999995  0.62616172  0.72923443  1
  Si  Si16  1  0.49999982  0.00000012  0.73201655  1
  Si  Si17  1  0.00000033  0.49999951  0.26797256  1
  Ir  Ir0  1  0.00000041  0.68428966  0.33524015  1
  Ir  Ir1  1  0.49999965  0.81569989  0.66472028  1
  Ir  Ir2  1  0.49999973  0.18429988  0.66472069  1
  Ir  Ir3  1  0.00000025  0.31571018  0.33524010  1
  Ir  Ir4  1  0.00000010  0.49999977  0.14208927  1
  Ir  Ir5  1  0.50000020  0.00000091  0.85795638  1
  Ir  Ir6  1  0.50000092  0.49999983  0.34307293  1
  Ir  Ir7  1  -0.00000028  0.00000055  0.65687569  1
  Ir  Ir8  1  -0.00000004  0.49999867  0.77273446  1
  Ir  Ir9  1  0.49999984  0.00000183  0.22726545  1
  Ir  Ir10  1  0.49999983  0.68839246  0.53881355  1
  Ir  Ir11  1  0.00000005  0.81159768  0.46112872  1
  Ir  Ir12  1  -0.00000034  0.18840330  0.46112826  1
  Ir  Ir13  1  0.49999966  0.31160532  0.53881423  1
  Ir  Ir14  1  0.00000005  0.70048384  0.95319450  1
  Ir  Ir15  1  0.50000001  0.79949098  0.04687898  1
  Ir  Ir16  1  0.50000022  0.20050989  0.04687901  1
  Ir  Ir17  1  -0.00000007  0.29951594  0.95319421  1
  Ir  Ir18  1  0.00000014  0.87518932  0.14355951  1
  Ir  Ir19  1  0.49999988  0.62480225  0.85649732  1
  Ir  Ir20  1  0.49999996  0.37519642  0.85649687  1
  Ir  Ir21  1  0.00000003  0.12481205  0.14355928  1
  Ir  Ir22  1  0.50000195  0.87233815  0.35554265  1
  Ir  Ir23  1  -0.00000022  0.62764187  0.64439549  1
  Ir  Ir24  1  -0.00000040  0.37235621  0.64439605  1
  Ir  Ir25  1  0.49999974  0.12766225  0.35554239  1
loop_
_geom_bond_atom_site_label_1
_geom_bond_atom_site_label_2
_geom_bond_distance
_geom_bond_site_symmetry_2
Er0 Si14 3.043619 1_555
Er0 Si14 3.043621 1_655
Er0 Ir18 3.066961 1_555
Er0 Ir18 3.066963 1_655
Er0 Si17 3.081851 1_555
Er0 Si17 3.081852 1_655
Er0 Ir0 3.103984 1_555
Er0 Ir0 3.103987 1_655
Er0 Si6 3.110807 1_555
Er0 Si6 3.110808 1_655
Er0 Ir4 3.126087 1_655
Er0 Ir4 3.126087 1_555
Er0 Ir15 3.267389 1_555
Er0 Ir6 3.294222 1_555
Er0 Ir9 3.397785 1_565
Er0 Ir22 3.418401 1_555
Er1 Si15 3.043692 1_555
Er1 Si15 3.043694 1_455
Er1 Ir19 3.067280 1_555
Er1 Ir19 3.067283 1_455
Er1 Si16 3.082077 1_565
Er1 Si16 3.082078 1_465
Er1 Ir1 3.104919 1_555
Er1 Ir1 3.104922 1_455
Er1 Si7 3.111531 1_555
Er1 Si7 3.111533 1_455
Er1 Ir5 3.126232 1_465
Er1 Ir5 3.126232 1_565
Er1 Ir14 3.268358 1_555
Er1 Ir7 3.295319 1_565
Er1 Ir8 3.397856 1_555
Er1 Ir23 3.419875 1_555
Er2 Si12 3.043686 1_455
Er2 Si12 3.043689 1_555
Er2 Ir20 3.067270 1_455
Er2 Ir20 3.067274 1_555
Er2 Si16 3.082070 1_455
Er2 Si16 3.082072 1_555
Er2 Ir2 3.104908 1_455
Er2 Ir2 3.104910 1_555
Er2 Si8 3.111541 1_455
Er2 Si8 3.111544 1_555
Er2 Ir5 3.126219 1_455
Er2 Ir5 3.126223 1_555
Er2 Ir17 3.268358 1_555
Er2 Ir7 3.295304 1_555
Er2 Ir8 3.397828 1_555
Er2 Ir24 3.419850 1_555
Er3 Si13 3.043612 1_655
Er3 Si13 3.043614 1_555
Er3 Ir21 3.066955 1_655
Er3 Ir21 3.066956 1_555
Er3 Si17 3.081841 1_555
Er3 Si17 3.081843 1_655
Er3 Ir3 3.103982 1_555
Er3 Ir3 3.103982 1_655
Er3 Si9 3.110819 1_555
Er3 Si9 3.110820 1_655
Er3 Ir4 3.126084 1_555
Er3 Ir4 3.126085 1_655
Er3 Ir16 3.267388 1_555
Er3 Ir6 3.294215 1_555
Er3 Ir9 3.397746 1_555
Er3 Ir25 3.418394 1_555
Er4 Si0 3.022750 1_555
Er4 Si0 3.022752 1_655
Er4 Ir11 3.048372 1_545
Er4 Ir11 3.048374 1_645
Er4 Ir12 3.048376 1_555
Er4 Ir12 3.048377 1_655
Er4 Si3 3.065190 1_555
Er4 Si3 3.065192 1_655
Er4 Si4 3.065204 1_645
Er4 Si4 3.065205 1_545
Er4 Ir7 3.264889 1_555
Er4 Ir7 3.264889 1_655
Er4 Ir22 3.384551 1_545
Er4 Ir25 3.384554 1_555
Er4 Ir2 3.412833 1_555
Er4 Ir1 3.412836 1_545
Er4 Ir13 3.426799 1_555
Er4 Ir10 3.426833 1_545
Er5 Si1 3.023156 1_455
Er5 Si1 3.023157 1_555
Er5 Ir10 3.048442 1_455
Er5 Ir10 3.048445 1_555
Er5 Ir13 3.048455 1_455
Er5 Ir13 3.048455 1_555
Er5 Si2 3.065057 1_455
Er5 Si2 3.065058 1_555
Er5 Si5 3.065066 1_455
Er5 Si5 3.065068 1_555
Er5 Ir6 3.264472 1_455
Er5 Ir6 3.264479 1_555
Er5 Ir23 3.384753 1_555
Er5 Ir24 3.384767 1_555
Er5 Ir3 3.412164 1_555
Er5 Ir0 3.412172 1_555
Er5 Ir12 3.426659 1_555
Er5 Ir11 3.426684 1_555
Er6 Ir4 2.994711 1_655
Er6 Ir4 2.994716 1_555
Er6 Si9 3.049297 1_655
Er6 Si9 3.049301 1_555
Er6 Si6 3.049303 1_655
Er6 Si6 3.049306 1_555
Er6 Si11 3.067384 1_654
Er6 Si11 3.067388 1_554
Er6 Ir17 3.221324 1_654
Er6 Ir14 3.221325 1_654
Er6 Ir14 3.221328 1_554
Er6 Ir17 3.221329 1_554
Er6 Ir16 3.305881 1_555
Er6 Ir15 3.305895 1_555
Er6 Ir19 3.417854 1_554
Er6 Ir20 3.417865 1_554
Er7 Ir5 2.995183 1_455
Er7 Ir5 2.995185 1_555
Er7 Si8 3.049379 1_455
Er7 Si8 3.049379 1_555
Er7 Si7 3.049381 1_545
Er7 Si7 3.049381 1_445
Er7 Si10 3.066914 1_456
Er7 Si10 3.066915 1_556
Er7 Ir15 3.221474 1_546
Er7 Ir15 3.221474 1_446
Er7 Ir16 3.221475 1_456
Er7 Ir16 3.221477 1_556
Er7 Ir17 3.306174 1_555
Er7 Ir14 3.306182 1_545
Er7 Ir21 3.417511 1_556
Er7 Ir18 3.417513 1_546
Si0 Si14 2.757605 1_545
Si0 Si13 2.757614 1_555
Si1 Si12 2.758560 1_555
Si1 Si15 2.758564 1_555
Si12 Si15 2.758002 1_555
Si13 Si14 2.757690 1_545
Ir0 Si17 2.381429 1_555
Ir0 Si14 2.403199 1_555
Ir0 Si5 2.471216 1_555
Ir0 Si5 2.471222 1_455
Ir1 Si16 2.381811 1_565
Ir1 Si15 2.403375 1_555
Ir1 Si4 2.471472 1_555
Ir1 Si4 2.471472 1_655
Ir2 Si16 2.381804 1_555
Ir2 Si12 2.403366 1_555
Ir2 Si3 2.471481 1_555
Ir2 Si3 2.471481 1_655
Ir3 Si17 2.381422 1_555
Ir3 Si13 2.403193 1_555
Ir3 Si2 2.471221 1_555
Ir3 Si2 2.471225 1_455
Ir4 Si6 2.364612 1_555
Ir4 Si9 2.364613 1_555
Ir4 Si17 2.377129 1_555
Ir5 Si8 2.364932 1_555
Ir5 Si7 2.364942 1_545
Ir5 Si16 2.378197 1_555
Ir6 Si5 2.402336 1_555
Ir6 Si2 2.402341 1_555
Ir6 Si17 2.423963 1_655
Ir6 Si17 2.423967 1_555
Ir7 Si3 2.402445 1_555
Ir7 Si4 2.402453 1_545
Ir7 Si16 2.424412 1_455
Ir7 Si16 2.424413 1_555
Ir8 Si11 2.360902 1_555
Ir8 Si12 2.537869 1_555
Ir8 Si12 2.537872 1_455
Ir8 Si15 2.537882 1_455
Ir8 Si15 2.537883 1_555
Ir9 Si10 2.360030 1_555
Ir9 Si13 2.537800 1_555
Ir9 Si13 2.537801 1_655
Ir9 Si14 2.537820 1_545
Ir9 Si14 2.537822 1_645
Ir10 Si5 2.348029 1_555
Ir10 Si1 2.386721 1_555
Ir10 Si4 2.578858 1_655
Ir10 Si4 2.578859 1_555
Ir11 Si4 2.347960 1_555
Ir11 Si0 2.386740 1_565
Ir11 Si5 2.578827 1_555
Ir11 Si5 2.578830 1_455
Ir12 Si3 2.347962 1_555
Ir12 Si0 2.386743 1_555
Ir12 Si2 2.578814 1_455
Ir12 Si2 2.578815 1_555
Ir13 Si2 2.348037 1_555
Ir13 Si1 2.386722 1_555
Ir13 Si3 2.578841 1_655
Ir13 Si3 2.578841 1_555
Ir14 Si7 2.396604 1_455
Ir14 Si7 2.396604 1_555
Ir14 Si6 2.406254 1_556
Ir14 Si11 2.428568 1_555
Ir15 Si6 2.396502 1_555
Ir15 Si6 2.396503 1_655
Ir15 Si7 2.406251 1_554
Ir15 Si10 2.428598 1_565
Ir16 Si9 2.396493 1_555
Ir16 Si9 2.396494 1_655
Ir16 Si8 2.406246 1_554
Ir16 Si10 2.428601 1_555
Ir17 Si8 2.396596 1_555
Ir17 Si8 2.396597 1_455
Ir17 Si9 2.406248 1_556
Ir17 Si11 2.428570 1_555
Ir18 Si6 2.365386 1_555
Ir18 Si14 2.402211 1_555
Ir18 Si10 2.516536 1_565
Ir18 Si10 2.516536 1_465
Ir19 Si7 2.365573 1_555
Ir19 Si15 2.403227 1_555
Ir19 Si11 2.516420 1_555
Ir19 Si11 2.516421 1_655
Ir20 Si8 2.365563 1_555
Ir20 Si12 2.403219 1_555
Ir20 Si11 2.516431 1_555
Ir20 Si11 2.516433 1_655
Ir21 Si9 2.365376 1_555
Ir21 Si13 2.402209 1_555
Ir21 Si10 2.516538 1_555
Ir21 Si10 2.516539 1_455
Ir22 Si5 2.361437 1_555
Ir22 Si14 2.535220 1_655
Ir22 Si14 2.535231 1_555
Ir22 Si0 2.536011 1_665
Ir22 Si0 2.536021 1_565
Ir23 Si4 2.361620 1_555
Ir23 Si1 2.535832 1_555
Ir23 Si1 2.535834 1_455
Ir23 Si15 2.535998 1_455
Ir23 Si15 2.535999 1_555
Ir24 Si3 2.361612 1_555
Ir24 Si1 2.535840 1_455
Ir24 Si1 2.535840 1_555
Ir24 Si12 2.535991 1_455
Ir24 Si12 2.535992 1_555
Ir25 Si2 2.361433 1_555
Ir25 Si13 2.535226 1_555
Ir25 Si13 2.535227 1_655
Ir25 Si0 2.536019 1_555
Ir25 Si0 2.536020 1_655
