# generated using pymatgen
data_Cr(PO3)3
_symmetry_space_group_name_H-M   'P 1'
_cell_length_a   6.51690540
_cell_length_b   13.29537631
_cell_length_c   8.40114427
_cell_angle_alpha   83.22808304
_cell_angle_beta   112.82234583
_cell_angle_gamma   89.99988924
_symmetry_Int_Tables_number   1
_chemical_formula_structural   Cr(PO3)3
_chemical_formula_sum   'Cr4 P12 O36'
_cell_volume   665.41448289
_cell_formula_units_Z   4
loop_
 _symmetry_equiv_pos_site_id
 _symmetry_equiv_pos_as_xyz
  1  'x, y, z'
loop_
 _atom_site_type_symbol
 _atom_site_label
 _atom_site_symmetry_multiplicity
 _atom_site_fract_x
 _atom_site_fract_y
 _atom_site_fract_z
 _atom_site_occupancy
  Cr  Cr0  1  0.75768500  0.75022400  0.99787600  1
  Cr  Cr1  1  0.49031900  0.50036400  0.49769700  1
  Cr  Cr2  1  0.25749700  0.25038600  0.99779800  1
  Cr  Cr3  1  0.99016300  0.00041800  0.49782500  1
  P  P0  1  0.74802700  0.27480800  0.67292100  1
  P  P1  1  0.24806000  0.77482700  0.67293700  1
  P  P2  1  0.17489100  0.02482600  0.17291700  1
  P  P3  1  0.67486600  0.52480400  0.17289700  1
  P  P4  1  0.31061600  0.47566800  0.82034400  1
  P  P5  1  0.81060700  0.97566800  0.82037800  1
  P  P6  1  0.75975500  0.22567300  0.32037800  1
  P  P7  1  0.25976900  0.72568900  0.32040300  1
  P  P8  1  0.42004100  0.12458000  0.73888700  1
  P  P9  1  0.92004300  0.62458500  0.73886700  1
  P  P10  1  0.06884700  0.37457000  0.23887800  1
  P  P11  1  0.56884600  0.87460100  0.23884800  1
  O  O0  1  0.78569400  0.11238100  0.33371400  1
  O  O1  1  0.28575500  0.61239300  0.33376000  1
  O  O2  1  0.29800900  0.36239300  0.83374200  1
  O  O3  1  0.79799300  0.86237900  0.83374800  1
  O  O4  1  0.40362600  0.15587500  0.89943700  1
  O  O5  1  0.90360500  0.65587500  0.89940100  1
  O  O6  1  0.24581300  0.40586900  0.39942000  1
  O  O7  1  0.74578000  0.90589800  0.39941800  1
  O  O8  1  0.86946200  0.02596000  0.67553600  1
  O  O9  1  0.36949400  0.52594400  0.67554800  1
  O  O10  1  0.55604400  0.27593100  0.17551000  1
  O  O11  1  0.05604100  0.77592800  0.17553000  1
  O  O12  1  0.12994800  0.35426000  0.09084200  1
  O  O13  1  0.62997300  0.85426900  0.09083100  1
  O  O14  1  0.21087000  0.10428400  0.59084500  1
  O  O15  1  0.71087600  0.60427200  0.59087400  1
  O  O16  1  0.63186400  0.47927200  0.32843800  1
  O  O17  1  0.13188000  0.97928200  0.32847200  1
  O  O18  1  0.94656600  0.22926500  0.82845400  1
  O  O19  1  0.44657100  0.72926600  0.82843600  1
  O  O20  1  0.68412200  0.38441400  0.66518400  1
  O  O21  1  0.18412600  0.88440600  0.66518000  1
  O  O22  1  0.23106600  0.13443600  0.16520100  1
  O  O23  1  0.73104900  0.63440500  0.16517400  1
  O  O24  1  0.97401700  0.27356600  0.30075900  1
  O  O25  1  0.47397900  0.77359000  0.30076800  1
  O  O26  1  0.57675900  0.02357500  0.80077600  1
  O  O27  1  0.07676900  0.52358400  0.80076900  1
  O  O28  1  0.53917800  0.20663300  0.65333500  1
  O  O29  1  0.03920000  0.70662000  0.65337400  1
  O  O30  1  0.86414700  0.45661800  0.15335700  1
  O  O31  1  0.36419500  0.95664900  0.15334900  1
  O  O32  1  0.96610600  0.01111700  0.00054200  1
  O  O33  1  0.46614200  0.51109400  0.00055500  1
  O  O34  1  0.78442200  0.26109500  0.50053700  1
  O  O35  1  0.28443100  0.76110800  0.50053400  1
loop_
_geom_bond_atom_site_label_1
_geom_bond_atom_site_label_2
_geom_bond_distance
_geom_bond_site_symmetry_2
Cr0 O13 1.993761 1_556
Cr0 O3 1.997463 1_555
Cr0 O11 1.998491 1_656
Cr0 O5 2.004320 1_555
Cr0 O23 2.013842 1_556
Cr0 O19 2.017265 1_555
Cr1 O15 1.992356 1_555
Cr1 O1 1.996111 1_555
Cr1 O9 2.000168 1_555
Cr1 O6 2.005779 1_555
Cr1 O20 2.015287 1_555
Cr1 O16 2.015712 1_555
Cr2 O12 1.991949 1_556
Cr2 O2 1.996291 1_555
Cr2 O10 1.998985 1_556
Cr2 O4 2.005996 1_555
Cr2 O22 2.015120 1_556
Cr2 O18 2.016606 1_455
Cr3 O14 1.992243 1_655
Cr3 O0 1.995782 1_555
Cr3 O8 1.998404 1_555
Cr3 O7 2.005688 1_545
Cr3 O21 2.015817 1_645
Cr3 O17 2.017372 1_645
O0 P6 1.501817 1_555
O1 P7 1.501880 1_555
O2 P4 1.501584 1_555
O3 P5 1.501778 1_555
O4 P8 1.499373 1_555
O5 P9 1.499282 1_555
O6 P10 1.499335 1_555
O7 P11 1.499387 1_555
O8 P5 1.498359 1_545
O9 P4 1.498038 1_555
O10 P6 1.498318 1_555
O11 P7 1.498311 1_555
O12 P10 1.497182 1_555
O13 P11 1.497211 1_555
O14 P8 1.497262 1_555
O15 P9 1.497104 1_555
O16 P3 1.500015 1_555
O17 P2 1.500200 1_565
O18 P0 1.499989 1_555
O19 P1 1.499825 1_555
O20 P0 1.502635 1_555
O21 P1 1.502308 1_555
O22 P2 1.502696 1_555
O23 P3 1.502596 1_555
O24 P6 1.592525 1_555
O24 P10 1.593777 1_655
O25 P7 1.592309 1_555
O25 P11 1.594099 1_555
O26 P5 1.592437 1_545
O26 P8 1.593798 1_555
O27 P4 1.592549 1_555
O27 P9 1.593779 1_455
O28 P8 1.599213 1_555
O28 P0 1.600800 1_555
O29 P9 1.598872 1_455
O29 P1 1.601135 1_555
O30 P10 1.599188 1_655
O30 P3 1.600800 1_555
O31 P11 1.598969 1_555
O31 P2 1.600962 1_565
O32 P2 1.585997 1_655
O32 P5 1.586935 1_544
O33 P3 1.585635 1_555
O33 P4 1.587150 1_554
O34 P0 1.586058 1_555
O34 P6 1.586758 1_555
O35 P1 1.586154 1_555
O35 P7 1.586527 1_555
