# generated using pymatgen
data_Er2WO6
_symmetry_space_group_name_H-M   'P 1'
_cell_length_a   5.55381700
_cell_length_b   10.55265600
_cell_length_c   16.10192000
_cell_angle_alpha   90.00000000
_cell_angle_beta   90.00000000
_cell_angle_gamma   90.00000000
_symmetry_Int_Tables_number   1
_chemical_formula_structural   Er2WO6
_chemical_formula_sum   'Er16 W8 O48'
_cell_volume   943.69360307
_cell_formula_units_Z   8
loop_
 _symmetry_equiv_pos_site_id
 _symmetry_equiv_pos_as_xyz
  1  'x, y, z'
loop_
 _atom_site_type_symbol
 _atom_site_label
 _atom_site_symmetry_multiplicity
 _atom_site_fract_x
 _atom_site_fract_y
 _atom_site_fract_z
 _atom_site_occupancy
  Er  Er0  1  0.45425500  0.14557100  0.27276200  1
  Er  Er1  1  0.10068000  0.85772900  0.56095300  1
  Er  Er2  1  0.45425500  0.64557100  0.22723800  1
  Er  Er3  1  0.89932000  0.14227100  0.43904700  1
  Er  Er4  1  0.95425500  0.35442900  0.27276200  1
  Er  Er5  1  0.89932000  0.64227100  0.06095300  1
  Er  Er6  1  0.95425500  0.85442900  0.22723800  1
  Er  Er7  1  0.60068000  0.64227100  0.56095300  1
  Er  Er8  1  0.54574500  0.85442900  0.72723800  1
  Er  Er9  1  0.04574500  0.14557100  0.77276200  1
  Er  Er10  1  0.39932000  0.35772900  0.43904700  1
  Er  Er11  1  0.54574500  0.35442900  0.77276200  1
  Er  Er12  1  0.60068000  0.14227100  0.93904700  1
  Er  Er13  1  0.39932000  0.85772900  0.06095300  1
  Er  Er14  1  0.10068000  0.35772900  0.93904700  1
  Er  Er15  1  0.04574500  0.64557100  0.72723800  1
  W  W0  1  0.11314900  0.37915800  0.62088400  1
  W  W1  1  0.38685100  0.37915800  0.12088400  1
  W  W2  1  0.38685100  0.87915800  0.37911600  1
  W  W3  1  0.88685100  0.12084200  0.12088400  1
  W  W4  1  0.61314900  0.12084200  0.62088400  1
  W  W5  1  0.88685100  0.62084200  0.37911600  1
  W  W6  1  0.61314900  0.62084200  0.87911600  1
  W  W7  1  0.11314900  0.87915800  0.87911600  1
  O  O0  1  0.67874400  0.27090700  0.35514200  1
  O  O1  1  0.09563200  0.98670100  0.10766600  1
  O  O2  1  0.18785800  0.44508400  0.73144600  1
  O  O3  1  0.31214200  0.94508400  0.26855400  1
  O  O4  1  0.38261300  0.45869200  0.57165800  1
  O  O5  1  0.42056500  0.78508100  0.47807700  1
  O  O6  1  0.81214200  0.55491600  0.26855400  1
  O  O7  1  0.59563200  0.51329900  0.10766600  1
  O  O8  1  0.90436800  0.01329900  0.89233400  1
  O  O9  1  0.67874400  0.77090700  0.14485800  1
  O  O10  1  0.33974200  0.73132700  0.82651800  1
  O  O11  1  0.07943500  0.78508100  0.97807700  1
  O  O12  1  0.83974200  0.26867300  0.67348200  1
  O  O13  1  0.38261300  0.95869200  0.92834200  1
  O  O14  1  0.82125600  0.77090700  0.64485800  1
  O  O15  1  0.61738700  0.04130800  0.07165800  1
  O  O16  1  0.42056500  0.28508100  0.02192300  1
  O  O17  1  0.11738700  0.95869200  0.42834200  1
  O  O18  1  0.33974200  0.23132700  0.67348200  1
  O  O19  1  0.18785800  0.94508400  0.76855400  1
  O  O20  1  0.32125600  0.72909300  0.64485800  1
  O  O21  1  0.88261300  0.04130800  0.57165800  1
  O  O22  1  0.40436800  0.48670100  0.89233400  1
  O  O23  1  0.57943500  0.21491900  0.52192300  1
  O  O24  1  0.66025800  0.76867300  0.32651800  1
  O  O25  1  0.90436800  0.51329900  0.60766600  1
  O  O26  1  0.66025800  0.26867300  0.17348200  1
  O  O27  1  0.17874400  0.22909300  0.35514200  1
  O  O28  1  0.88261300  0.54130800  0.92834200  1
  O  O29  1  0.16025800  0.73132700  0.32651800  1
  O  O30  1  0.17874400  0.72909300  0.14485800  1
  O  O31  1  0.32125600  0.22909300  0.85514200  1
  O  O32  1  0.61738700  0.54130800  0.42834200  1
  O  O33  1  0.83974200  0.76867300  0.82651800  1
  O  O34  1  0.11738700  0.45869200  0.07165800  1
  O  O35  1  0.92056500  0.21491900  0.02192300  1
  O  O36  1  0.68785800  0.05491600  0.73144600  1
  O  O37  1  0.82125600  0.27090700  0.85514200  1
  O  O38  1  0.81214200  0.05491600  0.23144600  1
  O  O39  1  0.09563200  0.48670100  0.39233400  1
  O  O40  1  0.57943500  0.71491900  0.97807700  1
  O  O41  1  0.31214200  0.44508400  0.23144600  1
  O  O42  1  0.59563200  0.01329900  0.39233400  1
  O  O43  1  0.16025800  0.23132700  0.17348200  1
  O  O44  1  0.92056500  0.71491900  0.47807700  1
  O  O45  1  0.07943500  0.28508100  0.52192300  1
  O  O46  1  0.68785800  0.55491600  0.76855400  1
  O  O47  1  0.40436800  0.98670100  0.60766600  1
loop_
_geom_bond_atom_site_label_1
_geom_bond_atom_site_label_2
_geom_bond_distance
_geom_bond_site_symmetry_2
Er0 O27 2.208549 1_555
Er0 O0 2.250182 1_555
Er0 O3 2.259115 1_545
Er0 O38 2.304012 1_555
Er0 O26 2.356274 1_555
Er0 O43 2.457745 1_555
Er0 O42 2.504347 1_555
Er1 O44 2.247791 1_455
Er1 O14 2.252335 1_455
Er1 O20 2.273473 1_555
Er1 O21 2.291159 1_465
Er1 O47 2.294076 1_555
Er1 O5 2.350480 1_555
Er1 O17 2.388141 1_555
Er2 O30 2.208549 1_555
Er2 O9 2.250182 1_555
Er2 O41 2.259115 1_555
Er2 O6 2.304012 1_555
Er2 O24 2.356274 1_555
Er2 O29 2.457745 1_555
Er2 O7 2.504347 1_555
Er3 O45 2.247791 1_655
Er3 O27 2.252335 1_655
Er3 O0 2.273473 1_555
Er3 O17 2.291159 1_645
Er3 O42 2.294076 1_555
Er3 O23 2.350480 1_555
Er3 O21 2.388141 1_555
Er4 O0 2.208549 1_555
Er4 O27 2.250182 1_655
Er4 O6 2.259115 1_555
Er4 O41 2.304012 1_655
Er4 O43 2.356274 1_655
Er4 O26 2.457745 1_555
Er4 O39 2.504347 1_655
Er5 O11 2.247791 1_654
Er5 O30 2.252335 1_655
Er5 O9 2.273473 1_555
Er5 O34 2.291159 1_655
Er5 O7 2.294076 1_555
Er5 O40 2.350480 1_554
Er5 O28 2.388141 1_554
Er6 O9 2.208549 1_555
Er6 O30 2.250182 1_655
Er6 O38 2.259115 1_565
Er6 O3 2.304012 1_655
Er6 O29 2.356274 1_655
Er6 O24 2.457745 1_555
Er6 O1 2.504347 1_655
Er7 O5 2.247791 1_555
Er7 O20 2.252335 1_555
Er7 O14 2.273473 1_555
Er7 O4 2.291159 1_555
Er7 O25 2.294076 1_555
Er7 O44 2.350480 1_555
Er7 O32 2.388141 1_555
Er8 O14 2.208549 1_555
Er8 O20 2.250182 1_555
Er8 O36 2.259115 1_565
Er8 O19 2.304012 1_555
Er8 O10 2.356274 1_555
Er8 O33 2.457745 1_555
Er8 O47 2.504347 1_555
Er9 O31 2.208549 1_555
Er9 O37 2.250182 1_455
Er9 O19 2.259115 1_545
Er9 O36 2.304012 1_455
Er9 O12 2.356274 1_455
Er9 O18 2.457745 1_555
Er9 O8 2.504347 1_455
Er10 O23 2.247791 1_555
Er10 O0 2.252335 1_555
Er10 O27 2.273473 1_555
Er10 O32 2.291159 1_555
Er10 O39 2.294076 1_555
Er10 O45 2.350480 1_555
Er10 O4 2.388141 1_555
Er11 O37 2.208549 1_555
Er11 O31 2.250182 1_555
Er11 O46 2.259115 1_555
Er11 O2 2.304012 1_555
Er11 O18 2.356274 1_555
Er11 O12 2.457745 1_555
Er11 O22 2.504347 1_555
Er12 O16 2.247791 1_556
Er12 O31 2.252335 1_555
Er12 O37 2.273473 1_555
Er12 O13 2.291159 1_545
Er12 O8 2.294076 1_555
Er12 O35 2.350480 1_556
Er12 O15 2.388141 1_556
Er13 O40 2.247791 1_554
Er13 O9 2.252335 1_555
Er13 O30 2.273473 1_555
Er13 O15 2.291159 1_565
Er13 O1 2.294076 1_555
Er13 O11 2.350480 1_554
Er13 O13 2.388141 1_554
Er14 O35 2.247791 1_456
Er14 O37 2.252335 1_455
Er14 O31 2.273473 1_555
Er14 O28 2.291159 1_455
Er14 O22 2.294076 1_555
Er14 O16 2.350480 1_556
Er14 O34 2.388141 1_556
Er15 O20 2.208549 1_555
Er15 O14 2.250182 1_455
Er15 O2 2.259115 1_555
Er15 O46 2.304012 1_455
Er15 O33 2.356274 1_455
Er15 O10 2.457745 1_555
Er15 O25 2.504347 1_455
O1 W3 1.842166 1_465
O2 W0 1.955883 1_555
O3 W2 1.955883 1_555
O4 W0 1.890068 1_555
O5 W2 1.886732 1_555
O6 W5 1.955883 1_555
O7 W1 1.842166 1_555
O8 W7 1.842166 1_645
O10 W6 2.093402 1_555
O10 W7 2.175921 1_555
O11 W7 1.886732 1_555
O12 W0 2.093402 1_655
O12 W4 2.175921 1_555
O13 W7 1.890068 1_555
O15 W3 1.890068 1_555
O16 W1 1.886732 1_555
O17 W2 1.890068 1_555
O18 W4 2.093402 1_555
O18 W0 2.175921 1_555
O19 W7 1.955883 1_555
O21 W4 1.890068 1_555
O22 W6 1.842166 1_555
O23 W4 1.886732 1_555
O24 W2 2.093402 1_555
O24 W5 2.175921 1_555
O25 W0 1.842166 1_655
O26 W1 2.093402 1_555
O26 W3 2.175921 1_555
O28 W6 1.890068 1_555
O29 W5 2.093402 1_455
O29 W2 2.175921 1_555
O32 W5 1.890068 1_555
O33 W7 2.093402 1_655
O33 W6 2.175921 1_555
O34 W1 1.890068 1_555
O35 W3 1.886732 1_555
O36 W4 1.955883 1_555
O38 W3 1.955883 1_555
O39 W5 1.842166 1_455
O40 W6 1.886732 1_555
O41 W1 1.955883 1_555
O42 W2 1.842166 1_545
O43 W3 2.093402 1_455
O43 W1 2.175921 1_555
O44 W5 1.886732 1_555
O45 W0 1.886732 1_555
O46 W6 1.955883 1_555
O47 W4 1.842166 1_565
