# generated using pymatgen
data_Al12Mo
_symmetry_space_group_name_H-M   'P 1'
_cell_length_a   6.51854871
_cell_length_b   6.51854949
_cell_length_c   6.51854829
_cell_angle_alpha   109.47121382
_cell_angle_beta   109.47121625
_cell_angle_gamma   109.47122255
_symmetry_Int_Tables_number   1
_chemical_formula_structural   Al12Mo
_chemical_formula_sum   'Al12 Mo1'
_cell_volume   213.22146787
_cell_formula_units_Z   1
loop_
 _symmetry_equiv_pos_site_id
 _symmetry_equiv_pos_as_xyz
  1  'x, y, z'
loop_
 _atom_site_type_symbol
 _atom_site_label
 _atom_site_symmetry_multiplicity
 _atom_site_fract_x
 _atom_site_fract_y
 _atom_site_fract_z
 _atom_site_occupancy
  Al  Al0  1  0.49432672  0.30777085  0.18655487  1
  Al  Al1  1  0.30777085  0.81344513  0.12121497  1
  Al  Al2  1  0.18655487  0.87878503  0.69222915  1
  Al  Al3  1  0.69222915  0.81344513  0.50567328  1
  Al  Al4  1  0.81344513  0.12121497  0.30777085  1
  Al  Al5  1  0.69222915  0.18655487  0.87878503  1
  Al  Al6  1  0.81344513  0.50567328  0.69222915  1
  Al  Al7  1  0.18655487  0.49432672  0.30777085  1
  Al  Al8  1  0.30777085  0.18655487  0.49432672  1
  Al  Al9  1  0.12121497  0.30777085  0.81344513  1
  Al  Al10  1  0.87878503  0.69222915  0.18655487  1
  Al  Al11  1  0.50567328  0.69222915  0.81344513  1
  Mo  Mo0  1  -0.00000000  -0.00000000  -0.00000000  1
loop_
_geom_bond_atom_site_label_1
_geom_bond_atom_site_label_2
_geom_bond_distance
_geom_bond_site_symmetry_2
Al0 Mo0 2.708937 1_555
Al0 Al5 2.767952 1_554
Al0 Al6 2.767962 1_555
Al0 Al4 2.767962 1_555
Al0 Al3 2.767963 1_555
Al0 Al9 2.808394 1_554
Al0 Al1 2.858453 1_545
Al0 Al2 2.858453 1_544
Al0 Al8 2.858465 1_555
Al0 Al7 2.858465 1_555
Al0 Al10 2.893807 1_555
Al1 Mo0 2.708931 1_565
Al1 Al11 2.767952 1_554
Al1 Al4 2.767960 1_565
Al1 Al9 2.767960 1_554
Al1 Al7 2.767962 1_555
Al1 Al8 2.808394 1_565
Al1 Al2 2.858453 1_554
Al1 Al10 2.858453 1_455
Al1 Al6 2.858453 1_454
Al1 Al3 2.893807 1_555
Al2 Mo0 2.708931 1_566
Al2 Al8 2.767952 1_565
Al2 Al5 2.767960 1_565
Al2 Al6 2.808394 1_455
Al2 Al3 2.858453 1_455
Al2 Al9 2.858453 1_565
Al2 Al7 2.893807 1_555
Al3 Mo0 2.708937 1_666
Al3 Al4 2.767952 1_565
Al3 Al7 2.767962 1_555
Al3 Al5 2.808394 1_565
Al3 Al9 2.858453 1_665
Al3 Al6 2.858465 1_555
Al4 Mo0 2.708931 1_655
Al4 Al9 2.767960 1_655
Al4 Al7 2.808394 1_655
Al4 Al5 2.858453 1_554
Al4 Al8 2.858453 1_655
Al4 Al6 2.893807 1_555
Al5 Mo0 2.708931 1_656
Al5 Al6 2.767962 1_555
Al5 Al9 2.858453 1_655
Al5 Al7 2.858453 1_656
Al5 Al8 2.893807 1_555
Al6 Mo0 2.708938 1_666
Al6 Al9 2.767952 1_655
Al6 Al8 2.767962 1_555
Al7 Mo0 2.708938 1_555
Al7 Al9 2.858453 1_554
Al7 Al8 2.858465 1_555
Al8 Mo0 2.708937 1_555
Al8 Al9 2.767962 1_555
Al9 Mo0 2.708931 1_556
Al10 Mo0 2.708931 1_665
Al10 Al7 2.767952 1_655
Al10 Al2 2.767960 1_655
Al10 Al5 2.767960 1_554
Al10 Al3 2.767962 1_555
Al10 Al11 2.808394 1_554
Al10 Al6 2.858453 1_554
Al10 Al4 2.858453 1_565
Al10 Al8 2.858453 1_665
Al11 Mo0 2.708937 1_666
Al11 Al7 2.767962 1_555
Al11 Al2 2.767962 1_555
Al11 Al8 2.767963 1_555
Al11 Al5 2.858453 1_565
Al11 Al4 2.858453 1_566
Al11 Al3 2.858465 1_555
Al11 Al6 2.858465 1_555
Al11 Al9 2.893807 1_555
