# generated using pymatgen
data_CSCl(OF)3
_symmetry_space_group_name_H-M   'P 1'
_cell_length_a   23.67984400
_cell_length_b   5.28213700
_cell_length_c   5.39716356
_cell_angle_alpha   66.99643415
_cell_angle_beta   90.00000000
_cell_angle_gamma   90.00000000
_symmetry_Int_Tables_number   1
_chemical_formula_structural   CSCl(OF)3
_chemical_formula_sum   'C4 S4 Cl4 O12 F12'
_cell_volume   621.39633369
_cell_formula_units_Z   4
loop_
 _symmetry_equiv_pos_site_id
 _symmetry_equiv_pos_as_xyz
  1  'x, y, z'
loop_
 _atom_site_type_symbol
 _atom_site_label
 _atom_site_symmetry_multiplicity
 _atom_site_fract_x
 _atom_site_fract_y
 _atom_site_fract_z
 _atom_site_occupancy
  C  C0  1  0.57092100  0.71147700  0.17901000  1
  C  C1  1  0.92907900  0.71147700  0.67901000  1
  C  C2  1  0.07092100  0.28852300  0.32099000  1
  C  C3  1  0.42907900  0.28852300  0.82099000  1
  S  S0  1  0.83766200  0.53049800  0.50850400  1
  S  S1  1  0.66233800  0.53049800  0.00850400  1
  S  S2  1  0.16233800  0.46950200  0.49149600  1
  S  S3  1  0.33766200  0.46950200  0.99149600  1
  Cl  Cl0  1  0.31114000  0.11690200  0.28341100  1
  Cl  Cl1  1  0.81114000  0.88309800  0.21658900  1
  Cl  Cl2  1  0.18886000  0.11690200  0.78341100  1
  Cl  Cl3  1  0.68886000  0.88309800  0.71658900  1
  O  O0  1  0.87669100  0.39905200  0.39580200  1
  O  O1  1  0.37107900  0.34830900  0.79319800  1
  O  O2  1  0.62330900  0.39905200  0.89580200  1
  O  O3  1  0.29000500  0.60550000  0.83472600  1
  O  O4  1  0.87107900  0.65169100  0.70680200  1
  O  O5  1  0.79000500  0.39450000  0.66527400  1
  O  O6  1  0.62892100  0.65169100  0.20680200  1
  O  O7  1  0.37669100  0.60094800  0.10419800  1
  O  O8  1  0.12330900  0.60094800  0.60419800  1
  O  O9  1  0.12892100  0.34830900  0.29319800  1
  O  O10  1  0.70999500  0.39450000  0.16527400  1
  O  O11  1  0.20999500  0.60550000  0.33472600  1
  F  F0  1  0.43979600  0.14987700  0.66425600  1
  F  F1  1  0.05644200  0.13279200  0.57722800  1
  F  F2  1  0.56020400  0.85012300  0.33574400  1
  F  F3  1  0.44355800  0.13279200  0.07722800  1
  F  F4  1  0.03988700  0.52070800  0.23536900  1
  F  F5  1  0.93979600  0.85012300  0.83574400  1
  F  F6  1  0.94355800  0.86720800  0.42277200  1
  F  F7  1  0.96011300  0.47929200  0.76463100  1
  F  F8  1  0.53988700  0.47929200  0.26463100  1
  F  F9  1  0.46011300  0.52070800  0.73536900  1
  F  F10  1  0.06020400  0.14987700  0.16425600  1
  F  F11  1  0.55644200  0.86720800  0.92277200  1
loop_
_geom_bond_atom_site_label_1
_geom_bond_atom_site_label_2
_geom_bond_distance
_geom_bond_site_symmetry_2
C0 F2 1.341829 1_555
C0 F8 1.347136 1_555
C0 F11 1.348204 1_554
C0 O6 1.404107 1_555
C1 F5 1.341829 1_555
C1 F7 1.347136 1_555
C1 F6 1.348204 1_555
C1 O4 1.404107 1_555
C2 F10 1.341829 1_555
C2 F4 1.347136 1_555
C2 F1 1.348204 1_555
C2 O9 1.404107 1_555
C3 F0 1.341829 1_555
C3 F9 1.347136 1_555
C3 F3 1.348204 1_556
C3 O1 1.404107 1_555
Cl0 S3 2.012977 1_554
Cl1 S0 2.012977 1_555
Cl2 S2 2.012977 1_555
Cl3 S1 2.012977 1_556
O0 S0 1.426990 1_555
O1 S3 1.648296 1_555
O2 S1 1.426990 1_556
O3 S3 1.424932 1_555
O4 S0 1.648296 1_555
O5 S0 1.424932 1_555
O6 S1 1.648296 1_555
O7 S3 1.426990 1_554
O8 S2 1.426990 1_555
O9 S2 1.648296 1_555
O10 S1 1.424932 1_555
O11 S2 1.424932 1_555
