# generated using pymatgen
data_H8C2NCl
_symmetry_space_group_name_H-M   'P 1'
_cell_length_a   6.04354300
_cell_length_b   4.62436500
_cell_length_c   8.37431596
_cell_angle_alpha   86.26657528
_cell_angle_beta   90.00000000
_cell_angle_gamma   90.00000000
_symmetry_Int_Tables_number   1
_chemical_formula_structural   H8C2NCl
_chemical_formula_sum   'H16 C4 N2 Cl2'
_cell_volume   233.54492061
_cell_formula_units_Z   2
loop_
 _symmetry_equiv_pos_site_id
 _symmetry_equiv_pos_as_xyz
  1  'x, y, z'
loop_
 _atom_site_type_symbol
 _atom_site_label
 _atom_site_symmetry_multiplicity
 _atom_site_fract_x
 _atom_site_fract_y
 _atom_site_fract_z
 _atom_site_occupancy
  H  H0  1  0.75000000  0.01323700  0.02623000  1
  H  H1  1  0.25000000  0.98676300  0.97377000  1
  H  H2  1  0.39761300  0.30599100  0.57036000  1
  H  H3  1  0.75000000  0.95580700  0.53367400  1
  H  H4  1  0.25000000  0.04419300  0.46632600  1
  H  H5  1  0.89206200  0.74169900  0.12544900  1
  H  H6  1  0.60238700  0.69400900  0.42964000  1
  H  H7  1  0.10239800  0.82431700  0.73068600  1
  H  H8  1  0.89761300  0.69400900  0.42964000  1
  H  H9  1  0.60793800  0.74169900  0.12544900  1
  H  H10  1  0.89760200  0.17568300  0.26931400  1
  H  H11  1  0.39206200  0.25830100  0.87455100  1
  H  H12  1  0.60239800  0.17568300  0.26931400  1
  H  H13  1  0.39760200  0.82431700  0.73068600  1
  H  H14  1  0.10238700  0.30599100  0.57036000  1
  H  H15  1  0.10793800  0.25830100  0.87455100  1
  C  C0  1  0.25000000  0.16708400  0.57410500  1
  C  C1  1  0.25000000  0.96329900  0.72383400  1
  C  C2  1  0.75000000  0.83291600  0.42589500  1
  C  C3  1  0.75000000  0.03670100  0.27616600  1
  N  N0  1  0.25000000  0.13025100  0.87095800  1
  N  N1  1  0.75000000  0.86974900  0.12904200  1
  Cl  Cl0  1  0.75000000  0.36933700  0.84990300  1
  Cl  Cl1  1  0.25000000  0.63066300  0.15009700  1
loop_
_geom_bond_atom_site_label_1
_geom_bond_atom_site_label_2
_geom_bond_distance
_geom_bond_site_symmetry_2
H0 N1 1.052223 1_545
H1 N0 1.052223 1_565
H5 N1 1.044504 1_555
H9 N1 1.044504 1_555
H11 N0 1.044504 1_555
H15 N0 1.044504 1_555
C0 H4 1.097450 1_555
C0 H2 1.098560 1_555
C0 H14 1.098560 1_555
C1 H13 1.098768 1_555
C1 H7 1.098768 1_555
C1 N0 1.495965 1_565
C2 H3 1.097450 1_555
C2 H6 1.098560 1_555
C2 H8 1.098560 1_555
C3 H10 1.098768 1_555
C3 H12 1.098768 1_555
C3 N1 1.495965 1_545
