# generated using pymatgen
data_Co5Te4(BrO6)2
_symmetry_space_group_name_H-M   'P 1'
_cell_length_a   10.74064935
_cell_length_b   10.74064935
_cell_length_c   16.55806177
_cell_angle_alpha   56.78258215
_cell_angle_beta   56.78258215
_cell_angle_gamma   28.75380679
_symmetry_Int_Tables_number   1
_chemical_formula_structural   Co5Te4(BrO6)2
_chemical_formula_sum   'Co10 Te8 Br4 O24'
_cell_volume   757.82583856
_cell_formula_units_Z   2
loop_
 _symmetry_equiv_pos_site_id
 _symmetry_equiv_pos_as_xyz
  1  'x, y, z'
loop_
 _atom_site_type_symbol
 _atom_site_label
 _atom_site_symmetry_multiplicity
 _atom_site_fract_x
 _atom_site_fract_y
 _atom_site_fract_z
 _atom_site_occupancy
  Co  Co0  1  0.23627300  0.76372700  0.75000000  1
  Co  Co1  1  0.69700900  0.13047900  0.47314900  1
  Co  Co2  1  0.77336200  0.20947300  0.61885000  1
  Co  Co3  1  0.30299100  0.86952100  0.52685100  1
  Co  Co4  1  0.20947300  0.77336200  0.11885000  1
  Co  Co5  1  0.86952100  0.30299100  0.02685100  1
  Co  Co6  1  0.13047900  0.69700900  0.97314900  1
  Co  Co7  1  0.76372700  0.23627300  0.25000000  1
  Co  Co8  1  0.22663800  0.79052700  0.38115000  1
  Co  Co9  1  0.79052700  0.22663800  0.88115000  1
  Te  Te0  1  0.14878800  0.56851200  0.37666400  1
  Te  Te1  1  0.56268400  0.19390900  0.13773800  1
  Te  Te2  1  0.80609100  0.43731600  0.36226200  1
  Te  Te3  1  0.43148800  0.85121200  0.12333600  1
  Te  Te4  1  0.43731500  0.80609100  0.86226200  1
  Te  Te5  1  0.19390900  0.56268400  0.63773800  1
  Te  Te6  1  0.85121200  0.43148800  0.62333600  1
  Te  Te7  1  0.56851200  0.14878800  0.87666400  1
  Br  Br0  1  0.56494800  0.90623800  0.40148200  1
  Br  Br1  1  0.43505200  0.09376200  0.59851800  1
  Br  Br2  1  0.90623800  0.56494800  0.90148200  1
  Br  Br3  1  0.09376200  0.43505200  0.09851800  1
  O  O0  1  0.56839100  0.55453500  0.13283600  1
  O  O1  1  0.23681400  0.94948200  0.97992200  1
  O  O2  1  0.68273800  0.45366500  0.93141800  1
  O  O3  1  0.79780100  0.12284900  0.14234800  1
  O  O4  1  0.12284900  0.79780100  0.64234800  1
  O  O5  1  0.55453500  0.56839100  0.63283600  1
  O  O6  1  0.54886900  0.22995300  0.74798800  1
  O  O7  1  0.93330500  0.91529700  0.35524900  1
  O  O8  1  0.20219900  0.87715100  0.85765200  1
  O  O9  1  0.31726200  0.54633500  0.06858200  1
  O  O10  1  0.22995300  0.54886900  0.24798800  1
  O  O11  1  0.06669500  0.08470300  0.64475100  1
  O  O12  1  0.08470300  0.06669500  0.14475100  1
  O  O13  1  0.76318600  0.05051800  0.02007800  1
  O  O14  1  0.05051800  0.76318600  0.52007800  1
  O  O15  1  0.45113100  0.77004700  0.25201200  1
  O  O16  1  0.45366500  0.68273800  0.43141800  1
  O  O17  1  0.91529700  0.93330500  0.85524900  1
  O  O18  1  0.94948200  0.23681400  0.47992200  1
  O  O19  1  0.87715100  0.20219900  0.35765200  1
  O  O20  1  0.54633500  0.31726200  0.56858200  1
  O  O21  1  0.43160900  0.44546500  0.86716400  1
  O  O22  1  0.44546500  0.43160900  0.36716400  1
  O  O23  1  0.77004700  0.45113100  0.75201200  1
loop_
_geom_bond_atom_site_label_1
_geom_bond_atom_site_label_2
_geom_bond_distance
_geom_bond_site_symmetry_2
Co0 O17 2.030998 1_455
Co0 O11 2.030998 1_565
Co0 O5 2.114028 1_555
Co0 O21 2.114028 1_555
Co0 O8 2.382880 1_555
Co0 O4 2.382880 1_555
Co1 O20 2.029660 1_555
Co1 O14 2.047826 1_645
Co1 O22 2.119973 1_555
Co1 O7 2.196360 1_545
Co1 O19 2.222502 1_555
Co2 O20 2.048675 1_555
Co2 O6 2.090686 1_555
Co2 O4 2.099020 1_645
Co2 O18 2.102978 1_555
Co2 O5 2.221232 1_555
Co2 O11 2.313805 1_655
Co3 O16 2.029660 1_555
Co3 O18 2.047826 1_465
Co3 O5 2.119973 1_555
Co3 O11 2.196360 1_565
Co3 O4 2.222502 1_555
Co4 O9 2.048675 1_555
Co4 O10 2.090686 1_555
Co4 O3 2.099020 1_465
Co4 O1 2.102978 1_554
Co4 O0 2.221232 1_555
Co4 O12 2.313805 1_565
Co5 O2 2.029660 1_554
Co5 O1 2.047826 1_644
Co5 O0 2.119973 1_555
Co5 O12 2.196360 1_655
Co5 O3 2.222502 1_555
Co6 O9 2.029660 1_556
Co6 O13 2.047826 1_466
Co6 O21 2.119973 1_555
Co6 O17 2.196360 1_455
Co6 O8 2.222502 1_555
Co7 O7 2.030998 1_545
Co7 O12 2.030998 1_655
Co7 O22 2.114028 1_555
Co7 O0 2.114028 1_555
Co7 O19 2.382880 1_555
Co7 O3 2.382880 1_555
Co8 O16 2.048675 1_555
Co8 O15 2.090686 1_555
Co8 O19 2.099020 1_465
Co8 O14 2.102978 1_555
Co8 O22 2.221232 1_555
Co8 O7 2.313805 1_455
Co9 O2 2.048675 1_555
Co9 O23 2.090686 1_555
Co9 O8 2.099020 1_645
Co9 O13 2.102978 1_556
Co9 O21 2.221232 1_555
Co9 O17 2.313805 1_545
Br0 Co3 2.651491 1_555
Br1 Co1 2.651491 1_555
Br2 Co5 2.651491 1_556
Br3 Co6 2.651491 1_554
O0 Te3 1.956886 1_555
O1 Te4 1.918442 1_555
O2 Te4 1.910726 1_555
O3 Te1 1.932209 1_555
O4 Te5 1.932209 1_555
O5 Te6 1.956886 1_555
O6 Te7 1.865215 1_555
O7 Te0 1.921618 1_655
O8 Te4 1.932198 1_555
O9 Te1 1.910726 1_555
O10 Te0 1.865215 1_555
O11 Te6 1.921618 1_455
O12 Te3 1.921618 1_545
O13 Te1 1.918441 1_555
O14 Te5 1.918441 1_555
O15 Te3 1.865215 1_555
O16 Te2 1.910726 1_555
O17 Te7 1.921618 1_565
O18 Te2 1.918441 1_555
O19 Te2 1.932209 1_555
O20 Te5 1.910726 1_555
O21 Te7 1.956886 1_555
O22 Te0 1.956886 1_555
O23 Te6 1.865215 1_555
