# generated using pymatgen
data_In2Ag3(PO4)3
_symmetry_space_group_name_H-M   'P 1'
_cell_length_a   9.18246952
_cell_length_b   9.18246952
_cell_length_c   6.72207491
_cell_angle_alpha   73.29227987
_cell_angle_beta   73.29227987
_cell_angle_gamma   91.08764127
_symmetry_Int_Tables_number   1
_chemical_formula_structural   In2Ag3(PO4)3
_chemical_formula_sum   'In4 Ag6 P6 O24'
_cell_volume   516.74406021
_cell_formula_units_Z   2
loop_
 _symmetry_equiv_pos_site_id
 _symmetry_equiv_pos_as_xyz
  1  'x, y, z'
loop_
 _atom_site_type_symbol
 _atom_site_label
 _atom_site_symmetry_multiplicity
 _atom_site_fract_x
 _atom_site_fract_y
 _atom_site_fract_z
 _atom_site_occupancy
  In  In0  1  0.38561200  0.07259900  0.84632100  1
  In  In1  1  0.07259900  0.38561200  0.34632100  1
  In  In2  1  0.92740100  0.61438800  0.65367900  1
  In  In3  1  0.61438800  0.92740100  0.15367900  1
  Ag  Ag0  1  0.00090100  0.99909900  0.75000000  1
  Ag  Ag1  1  0.27691000  0.72309000  0.75000000  1
  Ag  Ag2  1  0.99909900  0.00090100  0.25000000  1
  Ag  Ag3  1  0.72309000  0.27691000  0.25000000  1
  Ag  Ag4  1  0.50000000  0.50000000  0.50000000  1
  Ag  Ag5  1  0.50000000  0.50000000  0.00000000  1
  P  P0  1  0.73171200  0.26828800  0.75000000  1
  P  P1  1  0.65623900  0.85868700  0.63898600  1
  P  P2  1  0.14131300  0.34376100  0.86101400  1
  P  P3  1  0.85868700  0.65623900  0.13898600  1
  P  P4  1  0.34376100  0.14131300  0.36101400  1
  P  P5  1  0.26828800  0.73171200  0.25000000  1
  O  O0  1  0.01868400  0.33911500  0.07908200  1
  O  O1  1  0.42894700  0.74922600  0.28095700  1
  O  O2  1  0.25077400  0.57105300  0.21904300  1
  O  O3  1  0.82668200  0.82968000  0.62880400  1
  O  O4  1  0.93021800  0.58903800  0.32867600  1
  O  O5  1  0.58903800  0.93021800  0.82867600  1
  O  O6  1  0.25162900  0.85491600  0.04482400  1
  O  O7  1  0.57105300  0.25077400  0.71904300  1
  O  O8  1  0.85491600  0.25162900  0.54482400  1
  O  O9  1  0.41096200  0.06978200  0.17132400  1
  O  O10  1  0.98131600  0.66088500  0.92091800  1
  O  O11  1  0.82968000  0.82668200  0.12880400  1
  O  O12  1  0.74837100  0.14508400  0.95517600  1
  O  O13  1  0.71026000  0.56070400  0.17423800  1
  O  O14  1  0.74922600  0.42894700  0.78095700  1
  O  O15  1  0.33911500  0.01868400  0.57908200  1
  O  O16  1  0.66088500  0.98131600  0.42091800  1
  O  O17  1  0.28974000  0.43929600  0.82576200  1
  O  O18  1  0.06978200  0.41096200  0.67132400  1
  O  O19  1  0.14508400  0.74837100  0.45517600  1
  O  O20  1  0.17331800  0.17032000  0.37119600  1
  O  O21  1  0.43929600  0.28974000  0.32576200  1
  O  O22  1  0.17032000  0.17331800  0.87119600  1
  O  O23  1  0.56070400  0.71026000  0.67423800  1
loop_
_geom_bond_atom_site_label_1
_geom_bond_atom_site_label_2
_geom_bond_distance
_geom_bond_site_symmetry_2
In0 O7 2.135426 1_555
In0 O15 2.144476 1_555
In0 O6 2.172266 1_546
In0 O22 2.181685 1_555
In0 O9 2.255633 1_556
In0 O5 2.295021 1_545
In1 O2 2.135426 1_555
In1 O0 2.144476 1_555
In1 O8 2.172266 1_455
In1 O20 2.181685 1_555
In1 O18 2.255633 1_555
In1 O4 2.295021 1_455
In2 O14 2.135426 1_555
In2 O10 2.144476 1_555
In2 O19 2.172266 1_655
In2 O3 2.181685 1_555
In2 O4 2.255633 1_555
In2 O18 2.295021 1_655
In3 O1 2.135426 1_555
In3 O16 2.144476 1_555
In3 O12 2.172266 1_564
In3 O11 2.181685 1_555
In3 O5 2.255633 1_554
In3 O9 2.295021 1_565
Ag0 O11 2.597690 1_456
Ag0 O20 2.597690 1_565
Ag0 O22 2.650798 1_565
Ag0 O3 2.650798 1_455
Ag1 O23 2.519362 1_555
Ag1 O17 2.519362 1_555
Ag1 O6 2.563654 1_556
Ag1 O19 2.563654 1_555
Ag1 O15 2.604679 1_565
Ag1 O10 2.604679 1_455
Ag2 O3 2.597690 1_545
Ag2 O22 2.597690 1_654
Ag2 O20 2.650798 1_655
Ag2 O11 2.650798 1_545
Ag3 O13 2.519362 1_555
Ag3 O21 2.519362 1_555
Ag3 O8 2.563654 1_555
Ag3 O12 2.563654 1_554
Ag3 O0 2.604679 1_655
Ag3 O16 2.604679 1_545
Ag4 O17 2.379060 1_555
Ag4 O13 2.379060 1_555
Ag4 O7 2.550011 1_555
Ag4 O1 2.550011 1_555
Ag4 O23 2.654219 1_555
Ag4 O21 2.654219 1_555
Ag5 O23 2.379060 1_554
Ag5 O21 2.379060 1_555
Ag5 O2 2.550011 1_555
Ag5 O14 2.550011 1_554
Ag5 O13 2.654219 1_555
Ag5 O17 2.654219 1_554
O0 P2 1.559390 1_554
O1 P5 1.559573 1_555
O2 P5 1.559573 1_555
O3 P1 1.577924 1_555
O4 P3 1.575642 1_555
O5 P1 1.575642 1_555
O6 P5 1.560839 1_555
O7 P0 1.559573 1_555
O8 P0 1.560839 1_555
O9 P4 1.575642 1_555
O10 P3 1.559390 1_556
O11 P3 1.577924 1_555
O12 P0 1.560839 1_555
O13 P3 1.527308 1_555
O14 P0 1.559573 1_555
O15 P4 1.559390 1_555
O16 P1 1.559390 1_555
O17 P2 1.527308 1_555
O18 P2 1.575642 1_555
O19 P5 1.560839 1_555
O20 P4 1.577924 1_555
O21 P4 1.527308 1_555
O22 P2 1.577924 1_555
O23 P1 1.527308 1_555
