# generated using pymatgen
data_MgH12S2O9
_symmetry_space_group_name_H-M   'P 1'
_cell_length_a   6.89925700
_cell_length_b   9.50011700
_cell_length_c   14.51067200
_cell_angle_alpha   90.00000000
_cell_angle_beta   90.00000000
_cell_angle_gamma   90.00000000
_symmetry_Int_Tables_number   1
_chemical_formula_structural   MgH12S2O9
_chemical_formula_sum   'Mg4 H48 S8 O36'
_cell_volume   951.08383923
_cell_formula_units_Z   4
loop_
 _symmetry_equiv_pos_site_id
 _symmetry_equiv_pos_as_xyz
  1  'x, y, z'
loop_
 _atom_site_type_symbol
 _atom_site_label
 _atom_site_symmetry_multiplicity
 _atom_site_fract_x
 _atom_site_fract_y
 _atom_site_fract_z
 _atom_site_occupancy
  Mg  Mg0  1  0.00000000  0.00000000  0.00000000  1
  Mg  Mg1  1  0.50000000  0.50000000  0.00000000  1
  Mg  Mg2  1  0.50000000  0.50000000  0.50000000  1
  Mg  Mg3  1  0.00000000  0.00000000  0.50000000  1
  H  H0  1  0.26788500  0.87734000  0.11150900  1
  H  H1  1  0.76788500  0.62266000  0.88849100  1
  H  H2  1  0.23211500  0.37734000  0.38849100  1
  H  H3  1  0.73211500  0.12266000  0.61150900  1
  H  H4  1  0.73211500  0.12266000  0.88849100  1
  H  H5  1  0.23211500  0.37734000  0.11150900  1
  H  H6  1  0.76788500  0.62266000  0.61150900  1
  H  H7  1  0.26788500  0.87734000  0.38849100  1
  H  H8  1  0.06455600  0.80575500  0.13186400  1
  H  H9  1  0.56455600  0.69424500  0.86813600  1
  H  H10  1  0.43544400  0.30575500  0.36813600  1
  H  H11  1  0.93544400  0.19424500  0.63186400  1
  H  H12  1  0.93544400  0.19424500  0.86813600  1
  H  H13  1  0.43544400  0.30575500  0.13186400  1
  H  H14  1  0.56455600  0.69424500  0.63186400  1
  H  H15  1  0.06455600  0.80575500  0.36813600  1
  H  H16  1  0.07251000  0.11718600  0.16254800  1
  H  H17  1  0.57251000  0.38281400  0.83745200  1
  H  H18  1  0.42749000  0.61718600  0.33745200  1
  H  H19  1  0.92749000  0.88281400  0.66254800  1
  H  H20  1  0.92749000  0.88281400  0.83745200  1
  H  H21  1  0.42749000  0.61718600  0.16254800  1
  H  H22  1  0.57251000  0.38281400  0.66254800  1
  H  H23  1  0.07251000  0.11718600  0.33745200  1
  H  H24  1  0.84966300  0.14943400  0.14927000  1
  H  H25  1  0.34966300  0.35056600  0.85073000  1
  H  H26  1  0.65033700  0.64943400  0.35073000  1
  H  H27  1  0.15033700  0.85056600  0.64927000  1
  H  H28  1  0.15033700  0.85056600  0.85073000  1
  H  H29  1  0.65033700  0.64943400  0.14927000  1
  H  H30  1  0.34966300  0.35056600  0.64927000  1
  H  H31  1  0.84966300  0.14943400  0.35073000  1
  H  H32  1  0.64887800  0.91512200  0.07570200  1
  H  H33  1  0.14887800  0.58487800  0.92429800  1
  H  H34  1  0.85112200  0.41512200  0.42429800  1
  H  H35  1  0.35112200  0.08487800  0.57570200  1
  H  H36  1  0.35112200  0.08487800  0.92429800  1
  H  H37  1  0.85112200  0.41512200  0.07570200  1
  H  H38  1  0.14887800  0.58487800  0.57570200  1
  H  H39  1  0.64887800  0.91512200  0.42429800  1
  H  H40  1  0.69920100  0.81296300  0.99101400  1
  H  H41  1  0.19920100  0.68703700  0.00898600  1
  H  H42  1  0.80079900  0.31296300  0.50898600  1
  H  H43  1  0.30079900  0.18703700  0.49101400  1
  H  H44  1  0.30079900  0.18703700  0.00898600  1
  H  H45  1  0.80079900  0.31296300  0.99101400  1
  H  H46  1  0.19920100  0.68703700  0.49101400  1
  H  H47  1  0.69920100  0.81296300  0.50898600  1
  S  S0  1  0.43559100  0.03743000  0.25000000  1
  S  S1  1  0.93559100  0.46257000  0.75000000  1
  S  S2  1  0.06440900  0.53743000  0.25000000  1
  S  S3  1  0.56440900  0.96257000  0.75000000  1
  S  S4  1  0.61043200  0.21025100  0.25000000  1
  S  S5  1  0.11043200  0.28974900  0.75000000  1
  S  S6  1  0.88956800  0.71025100  0.25000000  1
  S  S7  1  0.38956800  0.78974900  0.75000000  1
  O  O0  1  0.47161100  0.95397300  0.16532300  1
  O  O1  1  0.97161100  0.54602700  0.83467700  1
  O  O2  1  0.02838900  0.45397300  0.33467700  1
  O  O3  1  0.52838900  0.04602700  0.66532300  1
  O  O4  1  0.52838900  0.04602700  0.83467700  1
  O  O5  1  0.02838900  0.45397300  0.16532300  1
  O  O6  1  0.97161100  0.54602700  0.66532300  1
  O  O7  1  0.47161100  0.95397300  0.33467700  1
  O  O8  1  0.23146500  0.08998100  0.25000000  1
  O  O9  1  0.73146500  0.41001900  0.75000000  1
  O  O10  1  0.26853500  0.58998100  0.25000000  1
  O  O11  1  0.76853500  0.91001900  0.75000000  1
  O  O12  1  0.14750300  0.84221400  0.08105800  1
  O  O13  1  0.64750300  0.65778600  0.91894200  1
  O  O14  1  0.35249700  0.34221400  0.41894200  1
  O  O15  1  0.85249700  0.15778600  0.58105800  1
  O  O16  1  0.85249700  0.15778600  0.91894200  1
  O  O17  1  0.35249700  0.34221400  0.08105800  1
  O  O18  1  0.64750300  0.65778600  0.58105800  1
  O  O19  1  0.14750300  0.84221400  0.41894200  1
  O  O20  1  0.96916200  0.12557800  0.11505800  1
  O  O21  1  0.46916200  0.37442200  0.88494200  1
  O  O22  1  0.53083800  0.62557800  0.38494200  1
  O  O23  1  0.03083800  0.87442200  0.61505800  1
  O  O24  1  0.03083800  0.87442200  0.88494200  1
  O  O25  1  0.53083800  0.62557800  0.11505800  1
  O  O26  1  0.46916200  0.37442200  0.61505800  1
  O  O27  1  0.96916200  0.12557800  0.38494200  1
  O  O28  1  0.74027700  0.89850700  0.02465000  1
  O  O29  1  0.24027700  0.60149300  0.97535000  1
  O  O30  1  0.75972300  0.39850700  0.47535000  1
  O  O31  1  0.25972300  0.10149300  0.52465000  1
  O  O32  1  0.25972300  0.10149300  0.97535000  1
  O  O33  1  0.75972300  0.39850700  0.02465000  1
  O  O34  1  0.24027700  0.60149300  0.52465000  1
  O  O35  1  0.74027700  0.89850700  0.47535000  1
loop_
_geom_bond_atom_site_label_1
_geom_bond_atom_site_label_2
_geom_bond_distance
_geom_bond_site_symmetry_2
Mg0 O24 2.063005 1_544
Mg0 O20 2.063005 1_455
Mg0 O32 2.066036 1_554
Mg0 O28 2.066036 1_445
Mg0 O12 2.160105 1_545
Mg0 O16 2.160105 1_454
Mg1 O21 2.063005 1_554
Mg1 O25 2.063005 1_555
Mg1 O33 2.066036 1_555
Mg1 O29 2.066036 1_554
Mg1 O17 2.160105 1_555
Mg1 O13 2.160105 1_554
Mg2 O22 2.063005 1_555
Mg2 O26 2.063005 1_555
Mg2 O30 2.066036 1_555
Mg2 O34 2.066036 1_555
Mg2 O14 2.160105 1_555
Mg2 O18 2.160105 1_555
Mg3 O23 2.063005 1_545
Mg3 O27 2.063005 1_455
Mg3 O31 2.066036 1_555
Mg3 O35 2.066036 1_445
Mg3 O19 2.160105 1_545
Mg3 O15 2.160105 1_455
H0 O12 0.998202 1_555
H1 O13 0.998202 1_555
H2 O14 0.998202 1_555
H3 O15 0.998202 1_555
H4 O16 0.998202 1_555
H5 O17 0.998202 1_555
H6 O18 0.998202 1_555
H7 O19 0.998202 1_555
H8 O12 0.995475 1_555
H9 O13 0.995475 1_555
H10 O14 0.995475 1_555
H11 O15 0.995475 1_555
H12 O16 0.995475 1_555
H13 O17 0.995475 1_555
H14 O18 0.995475 1_555
H15 O19 0.995475 1_555
H16 O20 0.994804 1_455
H16 O8 1.697001 1_555
H17 O21 0.994804 1_555
H17 O9 1.697001 1_555
H18 O22 0.994804 1_555
H18 O10 1.697001 1_555
H19 O23 0.994804 1_655
H19 O11 1.697001 1_555
H20 O24 0.994804 1_655
H20 O11 1.697001 1_555
H21 O25 0.994804 1_555
H21 O10 1.697001 1_555
H22 O26 0.994804 1_555
H22 O9 1.697001 1_555
H23 O27 0.994804 1_455
H23 O8 1.697001 1_555
H24 O20 0.988706 1_555
H25 O21 0.988706 1_555
H26 O22 0.988706 1_555
H27 O23 0.988706 1_555
H28 O24 0.988706 1_555
H29 O25 0.988706 1_555
H30 O26 0.988706 1_555
H31 O27 0.988706 1_555
H32 O28 0.985564 1_555
H33 O29 0.985564 1_555
H34 O30 0.985564 1_555
H35 O31 0.985564 1_555
H36 O32 0.985564 1_555
H37 O33 0.985564 1_555
H38 O34 0.985564 1_555
H39 O35 0.985564 1_555
H40 O28 0.989435 1_556
H41 O29 0.989435 1_554
H42 O30 0.989435 1_555
H43 O31 0.989435 1_555
H44 O32 0.989435 1_554
H45 O33 0.989435 1_556
H46 O34 0.989435 1_555
H47 O35 0.989435 1_555
S0 S4 2.037318 1_555
S1 S5 2.037318 1_655
S2 S6 2.037318 1_455
S3 S7 2.037318 1_555
O0 S0 1.483282 1_565
O1 S1 1.483282 1_555
O2 S2 1.483282 1_555
O3 S3 1.483282 1_545
O4 S3 1.483282 1_545
O5 S2 1.483282 1_555
O6 S1 1.483282 1_555
O7 S0 1.483282 1_565
O8 S0 1.494189 1_555
O9 S1 1.494189 1_555
O10 S2 1.494189 1_555
O11 S3 1.494189 1_555
