# generated using pymatgen
data_Er5CoSb2
_symmetry_space_group_name_H-M   'P 1'
_cell_length_a   7.83324475
_cell_length_b   8.62949545
_cell_length_c   12.07430515
_cell_angle_alpha   90.00101566
_cell_angle_beta   89.99251120
_cell_angle_gamma   90.00021897
_symmetry_Int_Tables_number   1
_chemical_formula_structural   Er5CoSb2
_chemical_formula_sum   'Er20 Co4 Sb8'
_cell_volume   816.18619299
_cell_formula_units_Z   4
loop_
 _symmetry_equiv_pos_site_id
 _symmetry_equiv_pos_as_xyz
  1  'x, y, z'
loop_
 _atom_site_type_symbol
 _atom_site_label
 _atom_site_symmetry_multiplicity
 _atom_site_fract_x
 _atom_site_fract_y
 _atom_site_fract_z
 _atom_site_occupancy
  Er  Er0  1  0.15602711  0.75001437  0.20229894  1
  Er  Er1  1  0.65602982  0.24999833  0.29776596  1
  Er  Er2  1  0.84398777  0.25000768  0.79773222  1
  Er  Er3  1  0.34396840  0.75002001  0.70222738  1
  Er  Er4  1  0.45012218  0.74999001  0.99811845  1
  Er  Er5  1  0.95012979  0.25000605  0.50189889  1
  Er  Er6  1  0.54990647  0.25000661  0.00192405  1
  Er  Er7  1  0.04983863  0.75000725  0.49806779  1
  Er  Er8  1  0.62351854  0.75000334  0.30937775  1
  Er  Er9  1  0.12344398  0.24998954  0.19065945  1
  Er  Er10  1  0.37655632  0.24999030  0.69058704  1
  Er  Er11  1  0.87652264  0.75000100  0.80933330  1
  Er  Er12  1  0.82451312  0.96454053  0.06547551  1
  Er  Er13  1  0.32446230  0.03553522  0.43453974  1
  Er  Er14  1  0.17545017  0.46447416  0.93456555  1
  Er  Er15  1  0.67555248  0.53546681  0.56541920  1
  Er  Er16  1  0.17545766  0.03552331  0.93455976  1
  Er  Er17  1  0.67555182  0.96453485  0.56541869  1
  Er  Er18  1  0.82451629  0.53546280  0.06548010  1
  Er  Er19  1  0.32446025  0.46446834  0.43455172  1
  Co  Co0  1  0.43640654  0.75000876  0.49131468  1
  Co  Co1  1  0.93639289  0.24999380  0.00867110  1
  Co  Co2  1  0.56360809  0.24999113  0.50862083  1
  Co  Co3  1  0.06356362  0.75000798  0.99136249  1
  Sb  Sb0  1  0.93295360  0.99244024  0.32747128  1
  Sb  Sb1  1  0.43300538  0.00770140  0.17257941  1
  Sb  Sb2  1  0.06709046  0.49228174  0.67250365  1
  Sb  Sb3  1  0.56698988  0.50759232  0.82746416  1
  Sb  Sb4  1  0.06703016  0.00771739  0.67251645  1
  Sb  Sb5  1  0.56700354  0.99241314  0.82745719  1
  Sb  Sb6  1  0.93295404  0.50756336  0.32747229  1
  Sb  Sb7  1  0.43298409  0.49224722  0.17256698  1
loop_
_geom_bond_atom_site_label_1
_geom_bond_atom_site_label_2
_geom_bond_distance
_geom_bond_site_symmetry_2
Er0 Sb0 3.116625 1_455
Er0 Sb6 3.116801 1_455
Er0 Sb1 3.127422 1_565
Er0 Sb7 3.127818 1_555
Er1 Sb7 3.115891 1_555
Er1 Sb1 3.115958 1_555
Er1 Sb0 3.126392 1_545
Er1 Sb6 3.126418 1_555
Er2 Sb4 3.115957 1_655
Er2 Sb2 3.116230 1_655
Er2 Sb5 3.126895 1_545
Er2 Sb3 3.126921 1_555
Er3 Sb5 3.116816 1_555
Er3 Sb3 3.117042 1_555
Er3 Sb2 3.127253 1_555
Er3 Sb4 3.127333 1_565
Er4 Sb1 3.066085 1_566
Er4 Sb7 3.066239 1_556
Er4 Sb3 3.075503 1_555
Er4 Sb5 3.075785 1_555
Er5 Sb6 3.064934 1_555
Er5 Sb0 3.064941 1_545
Er5 Sb2 3.074759 1_655
Er5 Sb4 3.074852 1_655
Er6 Sb3 3.065332 1_554
Er6 Sb5 3.065389 1_544
Er6 Sb7 3.074616 1_555
Er6 Sb1 3.075091 1_555
Er7 Sb4 3.066024 1_565
Er7 Sb2 3.066090 1_555
Er7 Sb0 3.075493 1_455
Er7 Sb6 3.075493 1_455
Er8 Sb1 3.146654 1_565
Er8 Sb7 3.147117 1_555
Er8 Sb0 3.209350 1_555
Er8 Sb6 3.209387 1_555
Er9 Sb0 3.145535 1_445
Er9 Sb6 3.145656 1_455
Er9 Sb7 3.208924 1_555
Er9 Sb1 3.209218 1_555
Er10 Sb5 3.146128 1_545
Er10 Sb3 3.146223 1_555
Er10 Sb2 3.208722 1_555
Er10 Sb4 3.208948 1_555
Er11 Sb4 3.146650 1_665
Er11 Sb2 3.146939 1_655
Er11 Sb5 3.209701 1_555
Er11 Sb3 3.209761 1_555
Er12 Sb0 3.284417 1_555
Er12 Sb1 3.348906 1_565
Er12 Sb5 3.519598 1_554
Er13 Sb1 3.283958 1_555
Er13 Sb0 3.348992 1_445
Er13 Sb4 3.518376 1_555
Er14 Sb2 3.284973 1_555
Er14 Sb3 3.349085 1_555
Er14 Sb7 3.519474 1_556
Er15 Sb3 3.285015 1_555
Er15 Sb2 3.349370 1_655
Er15 Sb6 3.517989 1_555
Er16 Sb4 3.284884 1_555
Er16 Sb5 3.349125 1_545
Er16 Sb1 3.519752 1_556
Er17 Sb5 3.284905 1_555
Er17 Sb4 3.348994 1_665
Er17 Sb0 3.518002 1_555
Er18 Sb6 3.284378 1_555
Er18 Sb7 3.349057 1_555
Er18 Sb3 3.519640 1_554
Er19 Sb7 3.284176 1_555
Er19 Sb6 3.349033 1_455
Er19 Sb2 3.517843 1_555
Co0 Er8 2.640678 1_555
Co0 Er3 2.647474 1_555
Co0 Er13 2.703728 1_565
Co0 Er19 2.703778 1_555
Co0 Er17 2.781594 1_555
Co0 Er15 2.781721 1_555
Co0 Er7 3.029168 1_555
Co1 Er9 2.641249 1_655
Co1 Er2 2.647890 1_554
Co1 Er12 2.703015 1_545
Co1 Er18 2.703128 1_555
Co1 Er16 2.780730 1_654
Co1 Er14 2.780736 1_654
Co1 Er6 3.028549 1_555
Co2 Er10 2.640710 1_555
Co2 Er1 2.646768 1_555
Co2 Er17 2.703245 1_545
Co2 Er15 2.703372 1_555
Co2 Er13 2.781104 1_555
Co2 Er19 2.781222 1_555
Co2 Er5 3.028796 1_555
Co3 Er11 2.641615 1_455
Co3 Er0 2.647987 1_556
Co3 Er16 2.703534 1_565
Co3 Er14 2.703626 1_555
Co3 Er12 2.781018 1_456
Co3 Er18 2.781103 1_456
Co3 Er4 3.029117 1_555
