# generated using pymatgen
data_La4Ti9(Si2O15)2
_symmetry_space_group_name_H-M   'P 1'
_cell_length_a   7.43998600
_cell_length_b   7.43998600
_cell_length_c   14.34919203
_cell_angle_alpha   84.96051335
_cell_angle_beta   84.96051335
_cell_angle_gamma   45.75768956
_symmetry_Int_Tables_number   1
_chemical_formula_structural   La4Ti9(Si2O15)2
_chemical_formula_sum   'La4 Ti9 Si4 O30'
_cell_volume   566.42397665
_cell_formula_units_Z   1
loop_
 _symmetry_equiv_pos_site_id
 _symmetry_equiv_pos_as_xyz
  1  'x, y, z'
loop_
 _atom_site_type_symbol
 _atom_site_label
 _atom_site_symmetry_multiplicity
 _atom_site_fract_x
 _atom_site_fract_y
 _atom_site_fract_z
 _atom_site_occupancy
  La  La0  1  0.98326600  0.98326600  0.30857500  1
  La  La1  1  0.70087000  0.70087000  0.31365300  1
  La  La2  1  0.29913000  0.29913000  0.68634700  1
  La  La3  1  0.01673400  0.01673400  0.69142500  1
  Ti  Ti0  1  0.90019000  0.37206700  0.89047500  1
  Ti  Ti1  1  0.13124400  0.13124400  0.11810600  1
  Ti  Ti2  1  0.59640000  0.59640000  0.11788800  1
  Ti  Ti3  1  0.37206700  0.90019000  0.89047500  1
  Ti  Ti4  1  0.40360000  0.40360000  0.88211200  1
  Ti  Ti5  1  0.62793300  0.09981000  0.10952500  1
  Ti  Ti6  1  0.86875600  0.86875600  0.88189400  1
  Ti  Ti7  1  0.50000000  0.50000000  0.50000000  1
  Ti  Ti8  1  0.09981000  0.62793300  0.10952500  1
  Si  Si0  1  0.34740100  0.34740100  0.32215200  1
  Si  Si1  1  0.65259900  0.65259900  0.67784800  1
  Si  Si2  1  0.85289100  0.85289100  0.53446800  1
  Si  Si3  1  0.14710900  0.14710900  0.46553200  1
  O  O0  1  0.75328200  0.75328200  0.60764500  1
  O  O1  1  0.16644000  0.16644000  0.57427700  1
  O  O2  1  0.14495800  0.67792000  0.56671400  1
  O  O3  1  0.76105300  0.76105300  0.13308200  1
  O  O4  1  0.24671800  0.24671800  0.39235500  1
  O  O5  1  0.85504200  0.32208000  0.43328600  1
  O  O6  1  0.73417100  0.73417100  0.88313100  1
  O  O7  1  0.64606000  0.14502300  0.78377600  1
  O  O8  1  0.41433200  0.89134100  0.73919100  1
  O  O9  1  0.32208000  0.85504200  0.43328600  1
  O  O10  1  0.10865900  0.58566800  0.26080900  1
  O  O11  1  0.23894700  0.23894700  0.86691800  1
  O  O12  1  0.96182600  0.96182600  0.13485300  1
  O  O13  1  0.87356100  0.36966900  0.02472000  1
  O  O14  1  0.83356000  0.83356000  0.42572300  1
  O  O15  1  0.55761600  0.55761600  0.61810500  1
  O  O16  1  0.36966900  0.87356100  0.02472000  1
  O  O17  1  0.85497700  0.35394000  0.21622400  1
  O  O18  1  0.58566800  0.10865900  0.26080900  1
  O  O19  1  0.67792000  0.14495800  0.56671400  1
  O  O20  1  0.63033100  0.12643900  0.97528000  1
  O  O21  1  0.14502300  0.64606000  0.78377600  1
  O  O22  1  0.35394000  0.85497700  0.21622400  1
  O  O23  1  0.46121700  0.46121700  0.11922700  1
  O  O24  1  0.26582900  0.26582900  0.11686900  1
  O  O25  1  0.03817400  0.03817400  0.86514700  1
  O  O26  1  0.44238400  0.44238400  0.38189500  1
  O  O27  1  0.53878300  0.53878300  0.88077300  1
  O  O28  1  0.89134100  0.41433200  0.73919100  1
  O  O29  1  0.12643900  0.63033100  0.97528000  1
loop_
_geom_bond_atom_site_label_1
_geom_bond_atom_site_label_2
_geom_bond_distance
_geom_bond_site_symmetry_2
La0 O17 2.485908 1_565
La0 O22 2.485908 1_655
La0 O14 2.525877 1_555
La0 O12 2.537718 1_555
La0 O10 2.546297 1_655
La0 O18 2.546297 1_565
La0 O9 2.757476 1_655
La0 O5 2.757476 1_565
La1 O22 2.480770 1_555
La1 O17 2.480770 1_555
La1 O14 2.540265 1_555
La1 O18 2.568240 1_565
La1 O10 2.568240 1_655
La1 O3 2.643222 1_555
La1 O9 2.681427 1_555
La1 O5 2.681427 1_555
La2 O7 2.480770 1_555
La2 O21 2.480770 1_555
La2 O1 2.540265 1_555
La2 O28 2.568240 1_455
La2 O8 2.568240 1_545
La2 O11 2.643222 1_555
La2 O2 2.681427 1_555
La2 O19 2.681427 1_555
La3 O7 2.485908 1_455
La3 O21 2.485908 1_545
La3 O1 2.525877 1_555
La3 O25 2.537718 1_555
La3 O8 2.546297 1_545
La3 O28 2.546297 1_455
La3 O19 2.757476 1_455
La3 O2 2.757476 1_545
O0 Si1 1.629371 1_555
O0 Si2 1.641321 1_555
O1 Si3 1.607465 1_555
O2 Si2 1.659572 1_455
O2 Ti7 2.132003 1_555
O3 Ti5 1.968077 1_565
O3 Ti8 1.968077 1_655
O3 Ti2 2.288387 1_555
O4 Si0 1.629371 1_555
O4 Si3 1.641321 1_555
O5 Si3 1.659572 1_655
O5 Ti7 2.132003 1_555
O6 Ti6 1.843465 1_555
O6 Ti3 2.030842 1_555
O6 Ti0 2.030842 1_555
O7 Ti6 2.025221 1_545
O7 Ti4 2.033067 1_555
O8 Si1 1.636800 1_555
O8 Ti3 2.166079 1_555
O9 Si3 1.659572 1_565
O9 Ti7 2.132003 1_555
O10 Si0 1.636800 1_555
O10 Ti8 2.166079 1_555
O11 Ti0 1.968077 1_455
O11 Ti3 1.968077 1_545
O11 Ti4 2.288387 1_555
O12 Ti5 1.972697 1_565
O12 Ti8 1.972697 1_655
O12 Ti1 2.312107 1_665
O13 Ti0 1.918874 1_554
O13 Ti1 1.976376 1_655
O13 Ti2 1.985707 1_555
O14 Si2 1.607465 1_555
O15 Si1 1.625844 1_555
O15 Ti7 1.936804 1_555
O16 Ti3 1.918874 1_554
O16 Ti1 1.976376 1_565
O16 Ti2 1.985707 1_555
O17 Ti1 2.025221 1_655
O17 Ti2 2.033067 1_555
O18 Si0 1.636800 1_555
O18 Ti5 2.166079 1_555
O19 Si2 1.659572 1_545
O19 Ti7 2.132003 1_555
O20 Ti5 1.918874 1_556
O20 Ti6 1.976376 1_545
O20 Ti4 1.985707 1_555
O21 Ti6 2.025221 1_455
O21 Ti4 2.033067 1_555
O22 Ti1 2.025221 1_565
O22 Ti2 2.033067 1_555
O23 Ti2 1.851538 1_555
O23 Ti5 2.041920 1_555
O23 Ti8 2.041920 1_555
O24 Ti1 1.843465 1_555
O24 Ti5 2.030842 1_555
O24 Ti8 2.030842 1_555
O25 Ti0 1.972697 1_455
O25 Ti3 1.972697 1_545
O25 Ti6 2.312107 1_445
O26 Si0 1.625844 1_555
O26 Ti7 1.936804 1_555
O27 Ti4 1.851538 1_555
O27 Ti3 2.041920 1_555
O27 Ti0 2.041920 1_555
O28 Si1 1.636800 1_555
O28 Ti0 2.166079 1_555
O29 Ti8 1.918874 1_556
O29 Ti6 1.976376 1_455
O29 Ti4 1.985707 1_555
