# generated using pymatgen
data_YInPt2
_symmetry_space_group_name_H-M   'P 1'
_cell_length_a   4.55310855
_cell_length_b   4.55310812
_cell_length_c   9.01673895
_cell_angle_alpha   90.00000000
_cell_angle_beta   90.00000000
_cell_angle_gamma   120.00000320
_symmetry_Int_Tables_number   1
_chemical_formula_structural   YInPt2
_chemical_formula_sum   'Y2 In2 Pt4'
_cell_volume   161.88107570
_cell_formula_units_Z   2
loop_
 _symmetry_equiv_pos_site_id
 _symmetry_equiv_pos_as_xyz
  1  'x, y, z'
loop_
 _atom_site_type_symbol
 _atom_site_label
 _atom_site_symmetry_multiplicity
 _atom_site_fract_x
 _atom_site_fract_y
 _atom_site_fract_z
 _atom_site_occupancy
  Y  Y0  1  0.66666700  0.33333300  0.75000000  1
  Y  Y1  1  0.33333300  0.66666700  0.25000000  1
  In  In0  1  -0.00000000  -0.00000000  0.00000000  1
  In  In1  1  -0.00000000  -0.00000000  0.50000000  1
  Pt  Pt0  1  0.66666700  0.33333300  0.09103665  1
  Pt  Pt1  1  0.33333300  0.66666700  0.90896335  1
  Pt  Pt2  1  0.33333300  0.66666700  0.59103665  1
  Pt  Pt3  1  0.66666700  0.33333300  0.40896335  1
loop_
_geom_bond_atom_site_label_1
_geom_bond_atom_site_label_2
_geom_bond_distance
_geom_bond_site_symmetry_2
In0 Pt0 2.753916 1_455
In0 Pt1 2.753916 1_544
In0 Pt0 2.753919 1_445
In0 Pt1 2.753919 1_554
In0 Pt0 2.753920 1_555
In0 Pt1 2.753920 1_444
In1 Pt3 2.753916 1_455
In1 Pt2 2.753916 1_545
In1 Pt3 2.753919 1_445
In1 Pt2 2.753919 1_555
In1 Pt3 2.753920 1_555
In1 Pt2 2.753920 1_445
Pt0 Y1 2.994109 1_545
Pt0 Y1 2.994109 1_655
Pt0 Y1 2.994116 1_555
Pt0 Y0 3.075038 1_554
Pt1 Y0 2.994109 1_565
Pt1 Y0 2.994109 1_455
Pt1 Y0 2.994116 1_555
Pt1 Y1 3.075038 1_556
Pt2 Y0 2.994109 1_565
Pt2 Y0 2.994109 1_455
Pt2 Y0 2.994116 1_555
Pt2 Y1 3.075038 1_555
Pt3 Y1 2.994109 1_545
Pt3 Y1 2.994109 1_655
Pt3 Y1 2.994116 1_555
Pt3 Y0 3.075038 1_555
