# generated using pymatgen
data_Ca(CO2)2
_symmetry_space_group_name_H-M   'P 1'
_cell_length_a   7.48657000
_cell_length_b   6.23667400
_cell_length_c   9.66805064
_cell_angle_alpha   89.11755665
_cell_angle_beta   90.00000000
_cell_angle_gamma   90.00000000
_symmetry_Int_Tables_number   1
_chemical_formula_structural   Ca(CO2)2
_chemical_formula_sum   'Ca4 C8 O16'
_cell_volume   451.36028059
_cell_formula_units_Z   4
loop_
 _symmetry_equiv_pos_site_id
 _symmetry_equiv_pos_as_xyz
  1  'x, y, z'
loop_
 _atom_site_type_symbol
 _atom_site_label
 _atom_site_symmetry_multiplicity
 _atom_site_fract_x
 _atom_site_fract_y
 _atom_site_fract_z
 _atom_site_occupancy
  Ca  Ca0  1  0.50000000  0.40482900  0.18081800  1
  Ca  Ca1  1  0.50000000  0.59517100  0.81918200  1
  Ca  Ca2  1  0.00000000  0.58628700  0.67954400  1
  Ca  Ca3  1  0.00000000  0.41371300  0.32045600  1
  C  C0  1  0.89536100  0.50000000  0.00000000  1
  C  C1  1  0.39549000  0.50000000  0.50000000  1
  C  C2  1  0.50000000  0.93111500  0.06842000  1
  C  C3  1  0.10463900  0.50000000  0.00000000  1
  C  C4  1  0.60451000  0.50000000  0.50000000  1
  C  C5  1  0.00000000  0.06473600  0.56869700  1
  C  C6  1  0.50000000  0.06888500  0.93158000  1
  C  C7  1  0.00000000  0.93526400  0.43130300  1
  O  O0  1  0.18040100  0.54815600  0.88647700  1
  O  O1  1  0.18040100  0.45184400  0.11352300  1
  O  O2  1  0.81959900  0.45184400  0.11352300  1
  O  O3  1  0.68023500  0.54841000  0.61254500  1
  O  O4  1  0.50000000  0.72857200  0.05211400  1
  O  O5  1  0.31976500  0.54841000  0.61254500  1
  O  O6  1  0.50000000  0.02669100  0.18190400  1
  O  O7  1  0.00000000  0.03741700  0.31829200  1
  O  O8  1  0.31976500  0.45159000  0.38745500  1
  O  O9  1  0.68023500  0.45159000  0.38745500  1
  O  O10  1  0.00000000  0.96258300  0.68170800  1
  O  O11  1  0.50000000  0.97330900  0.81809600  1
  O  O12  1  0.50000000  0.27142800  0.94788600  1
  O  O13  1  0.00000000  0.73183300  0.44666400  1
  O  O14  1  0.00000000  0.26816700  0.55333600  1
  O  O15  1  0.81959900  0.54815600  0.88647700  1
loop_
_geom_bond_atom_site_label_1
_geom_bond_atom_site_label_2
_geom_bond_distance
_geom_bond_site_symmetry_2
Ca0 O4 2.355339 1_555
Ca0 O6 2.358185 1_555
Ca0 O12 2.412757 1_554
Ca0 O9 2.432043 1_555
Ca0 O8 2.432043 1_555
Ca0 O1 2.495678 1_555
Ca0 O2 2.495678 1_555
Ca1 O12 2.355339 1_555
Ca1 O11 2.358185 1_555
Ca1 O4 2.412757 1_556
Ca1 O5 2.432043 1_555
Ca1 O3 2.432043 1_555
Ca1 O15 2.495678 1_555
Ca1 O0 2.495678 1_555
Ca2 O14 2.345148 1_555
Ca2 O10 2.347251 1_555
Ca2 O13 2.414590 1_555
Ca2 O0 2.422506 1_555
Ca2 O15 2.422506 1_455
Ca2 O3 2.492200 1_455
Ca2 O5 2.492200 1_555
Ca3 O13 2.345148 1_555
Ca3 O7 2.347251 1_555
Ca3 O14 2.414590 1_555
Ca3 O1 2.422506 1_555
Ca3 O2 2.422506 1_455
Ca3 O9 2.492200 1_455
Ca3 O8 2.492200 1_555
C0 O2 1.267425 1_555
C0 O15 1.267425 1_554
C1 O5 1.267523 1_555
C1 O8 1.267523 1_555
C2 O6 1.256675 1_565
C2 O4 1.275401 1_555
C3 O1 1.267425 1_555
C3 O0 1.267425 1_554
C4 O3 1.267523 1_555
C4 O9 1.267523 1_555
C5 O10 1.256270 1_545
C5 O14 1.275121 1_555
C6 O11 1.256675 1_545
C6 O12 1.275401 1_555
C7 O7 1.256270 1_565
C7 O13 1.275121 1_555
