# generated using pymatgen
data_Pr2Co2I
_symmetry_space_group_name_H-M   'P 1'
_cell_length_a   4.07432043
_cell_length_b   4.07432033
_cell_length_c   17.77282597
_cell_angle_alpha   90.00000000
_cell_angle_beta   90.00000000
_cell_angle_gamma   120.00000087
_symmetry_Int_Tables_number   1
_chemical_formula_structural   Pr2Co2I
_chemical_formula_sum   'Pr4 Co4 I2'
_cell_volume   255.50386206
_cell_formula_units_Z   2
loop_
 _symmetry_equiv_pos_site_id
 _symmetry_equiv_pos_as_xyz
  1  'x, y, z'
loop_
 _atom_site_type_symbol
 _atom_site_label
 _atom_site_symmetry_multiplicity
 _atom_site_fract_x
 _atom_site_fract_y
 _atom_site_fract_z
 _atom_site_occupancy
  Pr  Pr0  1  0.00000000  -0.00000000  0.10649728  1
  Pr  Pr1  1  0.00000000  -0.00000000  0.39350272  1
  Pr  Pr2  1  -0.00000000  0.00000000  0.89350272  1
  Pr  Pr3  1  -0.00000000  0.00000000  0.60649728  1
  Co  Co0  1  0.33333300  0.66666700  0.00222027  1
  Co  Co1  1  0.66666700  0.33333300  -0.00222027  1
  Co  Co2  1  0.33333300  0.66666700  0.49777973  1
  Co  Co3  1  0.66666700  0.33333300  0.50222027  1
  I  I0  1  0.33333300  0.66666700  0.75000000  1
  I  I1  1  0.66666700  0.33333300  0.25000000  1
loop_
_geom_bond_atom_site_label_1
_geom_bond_atom_site_label_2
_geom_bond_distance
_geom_bond_site_symmetry_2
Co0 Co1 2.353631 1_565
Co0 Co1 2.353631 1_455
Co0 Co1 2.353638 1_555
Co0 Pr0 2.994672 1_565
Co0 Pr0 2.994675 1_555
Co0 Pr0 2.994675 1_665
Co0 Pr2 3.044145 1_564
Co0 Pr2 3.044148 1_554
Co0 Pr2 3.044148 1_664
Co1 Pr2 2.994672 1_654
Co1 Pr2 2.994675 1_664
Co1 Pr2 2.994675 1_554
Co1 Pr0 3.044145 1_655
Co1 Pr0 3.044148 1_665
Co1 Pr0 3.044148 1_555
Co2 Co3 2.353631 1_565
Co2 Co3 2.353631 1_455
Co2 Co3 2.353638 1_555
Co2 Pr1 2.994672 1_565
Co2 Pr1 2.994675 1_555
Co2 Pr1 2.994675 1_665
Co2 Pr3 3.044145 1_565
Co2 Pr3 3.044148 1_555
Co2 Pr3 3.044148 1_665
Co3 Pr3 2.994672 1_655
Co3 Pr3 2.994675 1_665
Co3 Pr3 2.994675 1_555
Co3 Pr1 3.044145 1_655
Co3 Pr1 3.044148 1_665
Co3 Pr1 3.044148 1_555
I0 Pr2 3.469602 1_565
I0 Pr3 3.469602 1_565
I0 Pr3 3.469605 1_555
I0 Pr2 3.469605 1_555
I0 Pr2 3.469605 1_665
I0 Pr3 3.469605 1_665
I1 Pr0 3.469602 1_655
I1 Pr1 3.469602 1_655
I1 Pr0 3.469605 1_665
I1 Pr1 3.469605 1_665
I1 Pr1 3.469605 1_555
I1 Pr0 3.469605 1_555
