# generated using pymatgen
data_Mn2Ni6Te3PbO18
_symmetry_space_group_name_H-M   'P 1'
_cell_length_a   9.26935414
_cell_length_b   9.26935414
_cell_length_c   8.81969937
_cell_angle_alpha   90.00000000
_cell_angle_beta   90.00000000
_cell_angle_gamma   119.99999550
_symmetry_Int_Tables_number   1
_chemical_formula_structural   Mn2Ni6Te3PbO18
_chemical_formula_sum   'Mn4 Ni12 Te6 Pb2 O36'
_cell_volume   656.27125620
_cell_formula_units_Z   2
loop_
 _symmetry_equiv_pos_site_id
 _symmetry_equiv_pos_as_xyz
  1  'x, y, z'
loop_
 _atom_site_type_symbol
 _atom_site_label
 _atom_site_symmetry_multiplicity
 _atom_site_fract_x
 _atom_site_fract_y
 _atom_site_fract_z
 _atom_site_occupancy
  Mn  Mn0  1  0.66666700  0.33333300  0.56066184  1
  Mn  Mn1  1  0.33333300  0.66666700  0.43933816  1
  Mn  Mn2  1  0.33333300  0.66666700  0.06066184  1
  Mn  Mn3  1  0.66666700  0.33333300  0.93933816  1
  Ni  Ni0  1  0.98741450  0.34821750  0.58862170  1
  Ni  Ni1  1  0.65178250  0.63919700  0.91137830  1
  Ni  Ni2  1  0.36080300  0.01258550  0.58862170  1
  Ni  Ni3  1  0.34821750  0.36080300  0.41137830  1
  Ni  Ni4  1  0.34821750  0.36080300  0.08862170  1
  Ni  Ni5  1  0.63919700  0.98741450  0.41137830  1
  Ni  Ni6  1  0.01258550  0.65178250  0.08862170  1
  Ni  Ni7  1  0.36080300  0.01258550  0.91137830  1
  Ni  Ni8  1  0.65178250  0.63919700  0.58862170  1
  Ni  Ni9  1  0.63919700  0.98741450  0.08862170  1
  Ni  Ni10  1  0.98741450  0.34821750  0.91137830  1
  Ni  Ni11  1  0.01258550  0.65178250  0.41137830  1
  Te  Te0  1  0.36272114  0.02581852  0.25000000  1
  Te  Te1  1  0.97418148  0.33690261  0.25000000  1
  Te  Te2  1  0.33690261  0.36272114  0.75000000  1
  Te  Te3  1  0.02581852  0.66309739  0.75000000  1
  Te  Te4  1  0.63727886  0.97418148  0.75000000  1
  Te  Te5  1  0.66309739  0.63727886  0.25000000  1
  Pb  Pb0  1  0.00000000  -0.00000000  -0.00000000  1
  Pb  Pb1  1  0.00000000  -0.00000000  0.50000000  1
  O  O0  1  0.44809746  0.86621887  0.25000000  1
  O  O1  1  0.39454570  0.52445714  0.58671274  1
  O  O2  1  0.47554286  0.87008856  0.58671274  1
  O  O3  1  0.87008856  0.39454570  0.41328726  1
  O  O4  1  0.20542445  0.90015492  0.40886463  1
  O  O5  1  0.20542445  0.90015492  0.09113537  1
  O  O6  1  0.90015492  0.69473047  0.90886463  1
  O  O7  1  0.18819036  0.89431191  0.75000000  1
  O  O8  1  0.70612155  0.81180964  0.75000000  1
  O  O9  1  0.79457555  0.09984508  0.59113537  1
  O  O10  1  0.52445714  0.12991144  0.41328726  1
  O  O11  1  0.90015492  0.69473047  0.59113537  1
  O  O12  1  0.09984508  0.30526953  0.09113537  1
  O  O13  1  0.30526953  0.20542445  0.59113537  1
  O  O14  1  0.87008856  0.39454570  0.08671274  1
  O  O15  1  0.81180964  0.10568809  0.25000000  1
  O  O16  1  0.60545430  0.47554286  0.41328726  1
  O  O17  1  0.69473047  0.79457555  0.40886463  1
  O  O18  1  0.12991144  0.60545430  0.58671274  1
  O  O19  1  0.41812142  0.55190254  0.25000000  1
  O  O20  1  0.12991144  0.60545430  0.91328726  1
  O  O21  1  0.86621887  0.41812142  0.75000000  1
  O  O22  1  0.13378113  0.58187858  0.25000000  1
  O  O23  1  0.58187858  0.44809746  0.75000000  1
  O  O24  1  0.30526953  0.20542445  0.90886463  1
  O  O25  1  0.79457555  0.09984508  0.90886463  1
  O  O26  1  0.60545430  0.47554286  0.08671274  1
  O  O27  1  0.55190254  0.13378113  0.75000000  1
  O  O28  1  0.52445714  0.12991144  0.08671274  1
  O  O29  1  0.29387845  0.18819036  0.25000000  1
  O  O30  1  0.09984508  0.30526953  0.40886463  1
  O  O31  1  0.10568809  0.29387845  0.75000000  1
  O  O32  1  0.89431191  0.70612155  0.25000000  1
  O  O33  1  0.47554286  0.87008856  0.91328726  1
  O  O34  1  0.39454570  0.52445714  0.91328726  1
  O  O35  1  0.69473047  0.79457555  0.09113537  1
loop_
_geom_bond_atom_site_label_1
_geom_bond_atom_site_label_2
_geom_bond_distance
_geom_bond_site_symmetry_2
Mn0 O3 2.120607 1_555
Mn0 O10 2.120609 1_555
Mn0 O16 2.120614 1_555
Mn0 O21 2.318183 1_555
Mn0 O27 2.318184 1_555
Mn0 O23 2.318189 1_555
Mn1 O18 2.120607 1_555
Mn1 O2 2.120609 1_555
Mn1 O1 2.120614 1_555
Mn1 O22 2.318183 1_555
Mn1 O0 2.318184 1_555
Mn1 O19 2.318189 1_555
Mn2 O20 2.120607 1_554
Mn2 O33 2.120609 1_554
Mn2 O34 2.120614 1_554
Mn2 O22 2.318183 1_555
Mn2 O0 2.318184 1_555
Mn2 O19 2.318189 1_555
Mn3 O14 2.120607 1_556
Mn3 O28 2.120609 1_556
Mn3 O26 2.120614 1_556
Mn3 O21 2.318183 1_555
Mn3 O27 2.318184 1_555
Mn3 O23 2.318189 1_555
Ni0 O31 2.008389 1_655
Ni0 O30 2.042784 1_655
Ni0 O3 2.055605 1_555
Ni0 O18 2.069039 1_655
Ni0 O9 2.093019 1_555
Ni0 O21 2.106093 1_555
Ni1 O8 2.008389 1_555
Ni1 O35 2.042784 1_556
Ni1 O26 2.055605 1_556
Ni1 O34 2.069039 1_555
Ni1 O6 2.093019 1_555
Ni1 O23 2.106093 1_555
Ni2 O7 2.008389 1_545
Ni2 O4 2.042784 1_545
Ni2 O10 2.055605 1_555
Ni2 O2 2.069039 1_545
Ni2 O13 2.093019 1_555
Ni2 O27 2.106093 1_555
Ni3 O29 2.008389 1_555
Ni3 O13 2.042784 1_555
Ni3 O1 2.055605 1_555
Ni3 O16 2.069039 1_555
Ni3 O30 2.093019 1_555
Ni3 O19 2.106093 1_555
Ni4 O29 2.008389 1_555
Ni4 O24 2.042784 1_554
Ni4 O34 2.055605 1_554
Ni4 O26 2.069039 1_555
Ni4 O12 2.093019 1_555
Ni4 O19 2.106093 1_555
Ni5 O15 2.008389 1_565
Ni5 O9 2.042784 1_565
Ni5 O2 2.055605 1_555
Ni5 O10 2.069039 1_565
Ni5 O17 2.093019 1_555
Ni5 O0 2.106093 1_555
Ni6 O32 2.008389 1_455
Ni6 O6 2.042784 1_454
Ni6 O20 2.055605 1_554
Ni6 O14 2.069039 1_455
Ni6 O5 2.093019 1_555
Ni6 O22 2.106093 1_555
Ni7 O7 2.008389 1_545
Ni7 O5 2.042784 1_546
Ni7 O28 2.055605 1_556
Ni7 O33 2.069039 1_545
Ni7 O24 2.093019 1_555
Ni7 O27 2.106093 1_555
Ni8 O8 2.008389 1_555
Ni8 O17 2.042784 1_555
Ni8 O16 2.055605 1_555
Ni8 O1 2.069039 1_555
Ni8 O11 2.093019 1_555
Ni8 O23 2.106093 1_555
Ni9 O15 2.008389 1_565
Ni9 O25 2.042784 1_564
Ni9 O33 2.055605 1_554
Ni9 O28 2.069039 1_565
Ni9 O35 2.093019 1_555
Ni9 O0 2.106093 1_555
Ni10 O31 2.008389 1_655
Ni10 O12 2.042784 1_656
Ni10 O14 2.055605 1_556
Ni10 O20 2.069039 1_655
Ni10 O25 2.093019 1_555
Ni10 O21 2.106093 1_555
Ni11 O32 2.008389 1_455
Ni11 O11 2.042784 1_455
Ni11 O18 2.055605 1_555
Ni11 O3 2.069039 1_455
Ni11 O4 2.093019 1_555
Ni11 O22 2.106093 1_555
O0 Te0 1.996404 1_565
O1 Te2 1.950906 1_555
O2 Te4 1.950906 1_555
O3 Te1 1.950906 1_555
O4 Te0 1.935851 1_565
O4 Pb1 2.625016 1_565
O5 Te0 1.935851 1_565
O5 Pb0 2.625016 1_565
O6 Te3 1.935851 1_655
O6 Pb0 2.625016 1_666
O7 Te3 1.906020 1_555
O8 Te4 1.906020 1_555
O9 Te4 1.935851 1_545
O9 Pb1 2.625016 1_655
O10 Te0 1.950906 1_555
O11 Te3 1.935851 1_655
O11 Pb1 2.625016 1_665
O12 Te1 1.935851 1_455
O12 Pb0 2.625016 1_555
O13 Te2 1.935851 1_555
O13 Pb1 2.625016 1_555
O14 Te1 1.950906 1_555
O15 Te1 1.906020 1_555
O16 Te5 1.950906 1_555
O17 Te5 1.935851 1_555
O17 Pb1 2.625016 1_665
O18 Te3 1.950906 1_555
O19 Te5 1.996405 1_555
O20 Te3 1.950906 1_555
O21 Te3 1.996405 1_655
O22 Te1 1.996405 1_455
O23 Te2 1.996405 1_555
O24 Te2 1.935851 1_555
O24 Pb0 2.625016 1_556
O25 Te4 1.935851 1_545
O25 Pb0 2.625016 1_656
O26 Te5 1.950906 1_555
O27 Te4 1.996404 1_545
O28 Te0 1.950906 1_555
O29 Te0 1.906020 1_555
O30 Te1 1.935851 1_455
O30 Pb1 2.625016 1_555
O31 Te2 1.906020 1_555
O32 Te5 1.906020 1_555
O33 Te4 1.950906 1_555
O34 Te2 1.950906 1_555
O35 Te5 1.935851 1_555
O35 Pb0 2.625016 1_665
