# generated using pymatgen
data_LiTa3O8
_symmetry_space_group_name_H-M   'P 1'
_cell_length_a   7.62644998
_cell_length_b   8.93237957
_cell_length_c   16.64574727
_cell_angle_alpha   90.00000000
_cell_angle_beta   90.00000000
_cell_angle_gamma   90.00000000
_symmetry_Int_Tables_number   1
_chemical_formula_structural   LiTa3O8
_chemical_formula_sum   'Li8 Ta24 O64'
_cell_volume   1133.94735484
_cell_formula_units_Z   8
loop_
 _symmetry_equiv_pos_site_id
 _symmetry_equiv_pos_as_xyz
  1  'x, y, z'
loop_
 _atom_site_type_symbol
 _atom_site_label
 _atom_site_symmetry_multiplicity
 _atom_site_fract_x
 _atom_site_fract_y
 _atom_site_fract_z
 _atom_site_occupancy
  Li  Li0  1  0.75000000  0.54042203  0.00446692  1
  Li  Li1  1  0.75000000  0.54042203  0.49553308  1
  Li  Li2  1  0.75000000  0.09098445  0.08404083  1
  Li  Li3  1  0.25000000  0.45957797  0.99553308  1
  Li  Li4  1  0.25000000  0.45957797  0.50446692  1
  Li  Li5  1  0.75000000  0.09098445  0.41595917  1
  Li  Li6  1  0.25000000  0.90901555  0.91595917  1
  Li  Li7  1  0.25000000  0.90901555  0.58404083  1
  Ta  Ta0  1  0.99935430  0.81203316  0.06036568  1
  Ta  Ta1  1  0.99739348  0.39261759  0.36747941  1
  Ta  Ta2  1  0.00064570  0.18796684  0.93963432  1
  Ta  Ta3  1  0.00064570  0.18796684  0.56036568  1
  Ta  Ta4  1  0.00211668  0.68746821  0.25000000  1
  Ta  Ta5  1  0.50211668  0.31253179  0.75000000  1
  Ta  Ta6  1  0.49788332  0.68746821  0.25000000  1
  Ta  Ta7  1  0.99935430  0.81203316  0.43963432  1
  Ta  Ta8  1  0.99788332  0.31253179  0.75000000  1
  Ta  Ta9  1  0.50064570  0.81203316  0.43963432  1
  Ta  Ta10  1  0.00260652  0.60738241  0.63252059  1
  Ta  Ta11  1  0.49935430  0.18796684  0.93963432  1
  Ta  Ta12  1  0.50004145  0.05411633  0.25000000  1
  Ta  Ta13  1  0.00004145  0.94588367  0.75000000  1
  Ta  Ta14  1  0.49995855  0.94588367  0.75000000  1
  Ta  Ta15  1  0.49739348  0.60738241  0.86747941  1
  Ta  Ta16  1  -0.00004145  0.05411633  0.25000000  1
  Ta  Ta17  1  0.50260652  0.39261759  0.13252059  1
  Ta  Ta18  1  0.49739348  0.60738241  0.63252059  1
  Ta  Ta19  1  0.50260652  0.39261759  0.36747941  1
  Ta  Ta20  1  0.99739348  0.39261759  0.13252059  1
  Ta  Ta21  1  0.50064570  0.81203316  0.06036568  1
  Ta  Ta22  1  0.49935430  0.18796684  0.56036568  1
  Ta  Ta23  1  0.00260652  0.60738241  0.86747941  1
  O  O0  1  0.25000000  0.39790816  0.14024828  1
  O  O1  1  0.00095283  0.61951181  0.36838634  1
  O  O2  1  0.99904717  0.38048819  0.86838634  1
  O  O3  1  0.75000000  0.41733244  0.39980615  1
  O  O4  1  0.96827447  0.12435185  0.67507155  1
  O  O5  1  0.03172553  0.87564815  0.32492845  1
  O  O6  1  0.45456477  0.33968717  0.01963336  1
  O  O7  1  0.25000000  0.58266756  0.60019385  1
  O  O8  1  0.50095283  0.38048819  0.63161366  1
  O  O9  1  0.47173917  0.55020007  0.75000000  1
  O  O10  1  0.45532262  0.81272222  0.83950782  1
  O  O11  1  0.46827447  0.87564815  0.17507155  1
  O  O12  1  0.25000000  0.14755304  0.92466050  1
  O  O13  1  0.75000000  0.01385164  0.25000000  1
  O  O14  1  0.49904717  0.61951181  0.36838634  1
  O  O15  1  0.00095283  0.61951181  0.13161366  1
  O  O16  1  0.25000000  0.66151902  0.25000000  1
  O  O17  1  0.52826083  0.44979993  0.25000000  1
  O  O18  1  0.04543523  0.33968717  0.01963336  1
  O  O19  1  0.54467738  0.18727778  0.16049218  1
  O  O20  1  0.95532262  0.18727778  0.33950782  1
  O  O21  1  0.75000000  0.41733244  0.10019385  1
  O  O22  1  0.45532262  0.81272222  0.66049218  1
  O  O23  1  0.50095283  0.38048819  0.86838634  1
  O  O24  1  0.02826083  0.55020007  0.75000000  1
  O  O25  1  0.49904717  0.61951181  0.13161366  1
  O  O26  1  0.75000000  0.60209184  0.64024828  1
  O  O27  1  0.75000000  0.60209184  0.85975172  1
  O  O28  1  0.25000000  0.80499276  0.03691983  1
  O  O29  1  0.25000000  0.58266756  0.89980615  1
  O  O30  1  0.99904717  0.38048819  0.63161366  1
  O  O31  1  0.50000000  -0.00000000  -0.00000000  1
  O  O32  1  0.45456477  0.33968717  0.48036664  1
  O  O33  1  0.54543523  0.66031283  0.51963336  1
  O  O34  1  0.96827447  0.12435185  0.82492845  1
  O  O35  1  0.95532262  0.18727778  0.16049218  1
  O  O36  1  0.97173917  0.44979993  0.25000000  1
  O  O37  1  0.04467738  0.81272222  0.66049218  1
  O  O38  1  0.25000000  0.80499276  0.46308017  1
  O  O39  1  0.75000000  0.19500724  0.96308017  1
  O  O40  1  0.75000000  0.90500660  0.75000000  1
  O  O41  1  0.75000000  0.85244696  0.07533950  1
  O  O42  1  0.53172553  0.12435185  0.82492845  1
  O  O43  1  0.75000000  0.70211013  0.25000000  1
  O  O44  1  0.54467738  0.18727778  0.33950782  1
  O  O45  1  0.03172553  0.87564815  0.17507155  1
  O  O46  1  0.95456477  0.66031283  0.98036664  1
  O  O47  1  0.50000000  -0.00000000  0.50000000  1
  O  O48  1  0.46827447  0.87564815  0.32492845  1
  O  O49  1  0.00000000  -0.00000000  0.50000000  1
  O  O50  1  0.25000000  0.39790816  0.35975172  1
  O  O51  1  0.95456477  0.66031283  0.51963336  1
  O  O52  1  0.25000000  0.09499340  0.25000000  1
  O  O53  1  0.25000000  0.98614836  0.75000000  1
  O  O54  1  0.75000000  0.33848098  0.75000000  1
  O  O55  1  0.53172553  0.12435185  0.67507155  1
  O  O56  1  0.75000000  0.19500724  0.53691983  1
  O  O57  1  0.04543523  0.33968717  0.48036664  1
  O  O58  1  0.25000000  0.29788987  0.75000000  1
  O  O59  1  0.00000000  -0.00000000  -0.00000000  1
  O  O60  1  0.04467738  0.81272222  0.83950782  1
  O  O61  1  0.25000000  0.14755304  0.57533950  1
  O  O62  1  0.54543523  0.66031283  0.98036664  1
  O  O63  1  0.75000000  0.85244696  0.42466050  1
loop_
_geom_bond_atom_site_label_1
_geom_bond_atom_site_label_2
_geom_bond_distance
_geom_bond_site_symmetry_2
Li0 O62 1.934349 1_554
Li0 O46 1.934349 1_554
Li0 O21 1.935958 1_555
Li0 O27 2.471074 1_554
Li1 O33 1.934349 1_555
Li1 O51 1.934349 1_555
Li1 O3 1.935958 1_555
Li1 O26 2.471074 1_555
Li2 O41 2.135625 1_545
Li2 O35 2.193466 1_555
Li2 O19 2.193466 1_555
Li2 O39 2.217535 1_554
Li2 O31 2.500530 1_555
Li2 O59 2.500530 1_655
Li3 O6 1.934349 1_556
Li3 O18 1.934349 1_556
Li3 O29 1.935958 1_555
Li3 O0 2.471074 1_556
Li4 O32 1.934349 1_555
Li4 O57 1.934349 1_555
Li4 O7 1.935958 1_555
Li4 O50 2.471074 1_555
Li5 O63 2.135625 1_545
Li5 O20 2.193466 1_555
Li5 O44 2.193466 1_555
Li5 O56 2.217535 1_555
Li5 O47 2.500530 1_555
Li5 O49 2.500530 1_655
Li6 O12 2.135625 1_565
Li6 O60 2.193466 1_555
Li6 O10 2.193466 1_555
Li6 O28 2.217535 1_556
Li6 O31 2.500530 1_566
Li6 O59 2.500530 1_566
Li7 O61 2.135625 1_565
Li7 O22 2.193466 1_555
Li7 O37 2.193466 1_555
Li7 O38 2.217535 1_555
Li7 O49 2.500530 1_565
Li7 O47 2.500530 1_565
O0 Ta20 1.931359 1_455
O0 Ta17 1.931359 1_555
O1 Ta1 2.026943 1_455
O1 Ta4 2.062019 1_555
O1 Ta7 2.089011 1_455
O2 Ta23 2.026943 1_655
O2 Ta8 2.062019 1_555
O2 Ta2 2.089011 1_655
O3 Ta19 1.974349 1_555
O3 Ta1 1.974349 1_555
O4 Ta3 2.007364 1_655
O4 Ta13 2.038529 1_645
O4 Ta8 2.105233 1_555
O5 Ta7 2.007364 1_455
O5 Ta16 2.038529 1_565
O5 Ta4 2.105233 1_555
O6 Ta11 1.930437 1_554
O6 Ta17 1.971995 1_555
O7 Ta18 1.974349 1_555
O7 Ta10 1.974349 1_555
O8 Ta18 2.026943 1_555
O8 Ta5 2.062019 1_555
O8 Ta22 2.089011 1_555
O9 Ta18 2.030586 1_555
O9 Ta15 2.030586 1_555
O9 Ta5 2.135547 1_555
O10 Ta15 1.919356 1_555
O10 Ta14 1.936632 1_555
O11 Ta21 2.007364 1_555
O11 Ta12 2.038529 1_565
O11 Ta6 2.105233 1_555
O12 Ta11 1.951630 1_555
O12 Ta2 1.951630 1_555
O13 Ta16 1.939928 1_655
O13 Ta12 1.939928 1_555
O14 Ta19 2.026943 1_555
O14 Ta6 2.062019 1_555
O14 Ta9 2.089011 1_555
O15 Ta20 2.026943 1_455
O15 Ta4 2.062019 1_555
O15 Ta0 2.089011 1_455
O16 Ta4 1.904626 1_555
O16 Ta6 1.904626 1_555
O17 Ta17 2.030586 1_555
O17 Ta19 2.030586 1_555
O17 Ta6 2.135547 1_555
O18 Ta2 1.930437 1_554
O18 Ta20 1.971995 1_455
O19 Ta17 1.919356 1_555
O19 Ta12 1.936632 1_555
O20 Ta1 1.919356 1_555
O20 Ta16 1.936632 1_655
O21 Ta17 1.974349 1_555
O21 Ta20 1.974349 1_555
O22 Ta18 1.919356 1_555
O22 Ta14 1.936632 1_555
O23 Ta15 2.026943 1_555
O23 Ta5 2.062019 1_555
O23 Ta11 2.089011 1_555
O24 Ta10 2.030586 1_555
O24 Ta23 2.030586 1_555
O24 Ta8 2.135547 1_455
O25 Ta17 2.026943 1_555
O25 Ta6 2.062019 1_555
O25 Ta21 2.089011 1_555
O26 Ta18 1.931359 1_555
O26 Ta10 1.931359 1_655
O27 Ta15 1.931359 1_555
O27 Ta23 1.931359 1_655
O28 Ta21 1.951984 1_555
O28 Ta0 1.951984 1_455
O29 Ta15 1.974349 1_555
O29 Ta23 1.974349 1_555
O30 Ta10 2.026943 1_655
O30 Ta8 2.062019 1_555
O30 Ta3 2.089011 1_655
O31 Ta21 1.956712 1_545
O31 Ta11 1.956712 1_554
O32 Ta22 1.930437 1_555
O32 Ta19 1.971995 1_555
O33 Ta9 1.930437 1_555
O33 Ta18 1.971995 1_555
O34 Ta2 2.007364 1_655
O34 Ta13 2.038529 1_645
O34 Ta8 2.105233 1_555
O35 Ta20 1.919356 1_555
O35 Ta16 1.936632 1_655
O36 Ta1 2.030586 1_555
O36 Ta20 2.030586 1_555
O36 Ta4 2.135547 1_655
O37 Ta10 1.919356 1_555
O37 Ta13 1.936632 1_555
O38 Ta9 1.951984 1_555
O38 Ta7 1.951984 1_455
O39 Ta2 1.951984 1_655
O39 Ta11 1.951984 1_555
O40 Ta14 1.941571 1_555
O40 Ta13 1.941571 1_655
O41 Ta0 1.951630 1_555
O41 Ta21 1.951630 1_555
O42 Ta11 2.007364 1_555
O42 Ta14 2.038529 1_545
O42 Ta5 2.105233 1_555
O43 Ta6 1.927198 1_555
O43 Ta4 1.927198 1_655
O44 Ta19 1.919356 1_555
O44 Ta12 1.936632 1_555
O45 Ta0 2.007364 1_455
O45 Ta16 2.038529 1_565
O45 Ta4 2.105233 1_555
O46 Ta0 1.930437 1_556
O46 Ta23 1.971995 1_655
O47 Ta9 1.956712 1_545
O47 Ta22 1.956712 1_555
O48 Ta9 2.007364 1_555
O48 Ta12 2.038529 1_565
O48 Ta6 2.105233 1_555
O49 Ta7 1.956712 1_445
O49 Ta3 1.956712 1_555
O50 Ta1 1.931359 1_455
O50 Ta19 1.931359 1_555
O51 Ta7 1.930437 1_555
O51 Ta10 1.971995 1_655
O52 Ta16 1.941571 1_555
O52 Ta12 1.941571 1_555
O53 Ta14 1.939928 1_555
O53 Ta13 1.939928 1_555
O54 Ta8 1.904626 1_555
O54 Ta5 1.904626 1_555
O55 Ta22 2.007364 1_555
O55 Ta14 2.038529 1_545
O55 Ta5 2.105233 1_555
O56 Ta3 1.951984 1_655
O56 Ta22 1.951984 1_555
O57 Ta3 1.930437 1_555
O57 Ta1 1.971995 1_455
O58 Ta5 1.927198 1_555
O58 Ta8 1.927198 1_455
O59 Ta2 1.956712 1_554
O59 Ta0 1.956712 1_445
O60 Ta23 1.919356 1_555
O60 Ta13 1.936632 1_555
O61 Ta22 1.951630 1_555
O61 Ta3 1.951630 1_555
O62 Ta21 1.930437 1_556
O62 Ta15 1.971995 1_555
O63 Ta7 1.951630 1_555
O63 Ta9 1.951630 1_555
