# generated using pymatgen
data_NaY(IO3)4
_symmetry_space_group_name_H-M   'P 1'
_cell_length_a   16.12048710
_cell_length_b   16.12048710
_cell_length_c   12.64819269
_cell_angle_alpha   89.18699540
_cell_angle_beta   89.18699540
_cell_angle_gamma   20.19715486
_symmetry_Int_Tables_number   1
_chemical_formula_structural   NaY(IO3)4
_chemical_formula_sum   'Na4 Y4 I16 O48'
_cell_volume   1134.68517041
_cell_formula_units_Z   4
loop_
 _symmetry_equiv_pos_site_id
 _symmetry_equiv_pos_as_xyz
  1  'x, y, z'
loop_
 _atom_site_type_symbol
 _atom_site_label
 _atom_site_symmetry_multiplicity
 _atom_site_fract_x
 _atom_site_fract_y
 _atom_site_fract_z
 _atom_site_occupancy
  Na  Na0  1  0.03439700  0.59353400  0.97068600  1
  Na  Na1  1  0.61594200  0.16188300  0.06507500  1
  Na  Na2  1  0.59353400  0.03439700  0.47068600  1
  Na  Na3  1  0.16188300  0.61594200  0.56507500  1
  Y  Y0  1  0.98407600  0.56213900  0.67620700  1
  Y  Y1  1  0.56213900  0.98407600  0.17620700  1
  Y  Y2  1  0.16727300  0.78775600  0.17048700  1
  Y  Y3  1  0.78775600  0.16727300  0.67048700  1
  I  I0  1  0.71654100  0.11450000  0.37554900  1
  I  I1  1  0.69702800  0.29477400  0.96450800  1
  I  I2  1  0.29477400  0.69702800  0.46450800  1
  I  I3  1  0.32004300  0.78942500  0.76895700  1
  I  I4  1  0.11552700  0.59942400  0.21699400  1
  I  I5  1  0.95588300  0.43801300  0.08431800  1
  I  I6  1  0.44543500  0.06089700  0.88036500  1
  I  I7  1  0.78942500  0.32004300  0.26895700  1
  I  I8  1  0.59942400  0.11552700  0.71699400  1
  I  I9  1  0.47310700  0.84196700  0.31250300  1
  I  I10  1  0.26746800  0.92087900  0.03816900  1
  I  I11  1  0.92087900  0.26746800  0.53816900  1
  I  I12  1  0.06089700  0.44543500  0.38036500  1
  I  I13  1  0.84196700  0.47310700  0.81250300  1
  I  I14  1  0.11450000  0.71654100  0.87554900  1
  I  I15  1  0.43801300  0.95588300  0.58431800  1
  O  O0  1  0.85822300  0.89601500  0.92029400  1
  O  O1  1  0.33148500  0.32592300  0.65095000  1
  O  O2  1  0.36205800  0.19104600  0.33315000  1
  O  O3  1  0.09732800  0.09705500  0.91608500  1
  O  O4  1  0.59597000  0.64406600  0.23056800  1
  O  O5  1  0.81668600  0.02433300  0.23585200  1
  O  O6  1  0.13186800  0.12738000  0.12227700  1
  O  O7  1  0.65398800  0.65923900  0.43227200  1
  O  O8  1  0.29443300  0.63585200  0.34281600  1
  O  O9  1  0.99094800  0.09713200  0.59309000  1
  O  O10  1  0.04572100  0.87615700  0.53450100  1
  O  O11  1  0.09713200  0.99094800  0.09309000  1
  O  O12  1  0.40972700  0.53573500  0.02415500  1
  O  O13  1  0.53573500  0.40972700  0.52415500  1
  O  O14  1  0.10555500  0.46193200  0.50142500  1
  O  O15  1  0.87615700  0.04572100  0.03450100  1
  O  O16  1  0.14300400  0.25720800  0.96393300  1
  O  O17  1  0.64406600  0.59597000  0.73056800  1
  O  O18  1  0.50061600  0.55537600  0.68031300  1
  O  O19  1  0.23082300  0.58277500  0.14210000  1
  O  O20  1  0.89601500  0.85822300  0.42029400  1
  O  O21  1  0.69260800  0.88344900  0.80794800  1
  O  O22  1  0.82061000  0.85138700  0.63370900  1
  O  O23  1  0.64524300  0.76724400  0.25002000  1
  O  O24  1  0.25720800  0.14300400  0.46393300  1
  O  O25  1  0.46193200  0.10555500  0.00142500  1
  O  O26  1  0.63585200  0.29443300  0.84281600  1
  O  O27  1  0.61783700  0.48327200  0.39393300  1
  O  O28  1  0.81653900  0.67134300  0.05666100  1
  O  O29  1  0.88344900  0.69260800  0.30794800  1
  O  O30  1  0.12738000  0.13186800  0.62227700  1
  O  O31  1  0.32592300  0.33148500  0.15095000  1
  O  O32  1  0.67134300  0.81653900  0.55666100  1
  O  O33  1  0.06839700  0.95236100  0.79505100  1
  O  O34  1  0.18740100  0.25610500  0.17778300  1
  O  O35  1  0.02433300  0.81668600  0.73585200  1
  O  O36  1  0.43426500  0.32145400  0.36955000  1
  O  O37  1  0.55537600  0.50061600  0.18031300  1
  O  O38  1  0.95236100  0.06839700  0.29505100  1
  O  O39  1  0.25610500  0.18740100  0.67778300  1
  O  O40  1  0.58277500  0.23082300  0.64210000  1
  O  O41  1  0.32145400  0.43426500  0.86955000  1
  O  O42  1  0.76724400  0.64524300  0.75002000  1
  O  O43  1  0.48327200  0.61783700  0.89393300  1
  O  O44  1  0.19104600  0.36205800  0.83315000  1
  O  O45  1  0.65923900  0.65398800  0.93227200  1
  O  O46  1  0.85138700  0.82061000  0.13370900  1
  O  O47  1  0.09705500  0.09732800  0.41608500  1
loop_
_geom_bond_atom_site_label_1
_geom_bond_atom_site_label_2
_geom_bond_distance
_geom_bond_site_symmetry_2
Na0 O44 2.387376 1_555
Na0 O46 2.475060 1_456
Na0 O0 2.493651 1_455
Na0 O28 2.598383 1_456
Na0 O41 2.695606 1_555
Na0 O25 2.785198 1_556
Na0 O31 2.810065 1_556
Na0 O21 2.855116 1_455
Na1 O0 2.361421 1_544
Na1 O46 2.487954 1_545
Na1 O31 2.541669 1_555
Na1 O19 2.545176 1_555
Na1 O15 2.546117 1_555
Na1 O5 2.578444 1_555
Na1 O41 2.971772 1_554
Na2 O2 2.387376 1_555
Na2 O22 2.475060 1_545
Na2 O20 2.493651 1_545
Na2 O32 2.598383 1_545
Na2 O36 2.695606 1_555
Na2 O14 2.785198 1_555
Na2 O1 2.810065 1_555
Na2 O29 2.855116 1_545
Na3 O20 2.361421 1_455
Na3 O22 2.487954 1_455
Na3 O1 2.541669 1_555
Na3 O40 2.545176 1_555
Na3 O10 2.546117 1_555
Na3 O35 2.578444 1_555
Na3 O36 2.971772 1_555
I0 O20 1.817484 1_545
I0 O36 1.830216 1_555
I0 O5 1.851587 1_555
I1 O12 1.823091 1_556
I1 O26 1.842600 1_555
I1 O15 1.857895 1_556
I1 O43 2.462535 1_555
I2 O13 1.823091 1_555
I2 O8 1.842600 1_555
I2 O10 1.857895 1_555
I2 O27 2.462535 1_555
I3 O18 1.838016 1_555
I3 O43 1.845507 1_555
I3 O33 1.857673 1_555
I3 O17 2.576882 1_555
I4 O31 1.838988 1_555
I4 O19 1.856012 1_555
I4 O46 1.864670 1_455
I4 O29 2.637189 1_455
I4 O36 2.650023 1_555
I5 O16 1.845448 1_654
I5 O34 1.846581 1_655
I5 O28 1.855245 1_555
I5 O6 2.580597 1_655
I6 O25 1.826399 1_556
I6 O44 1.833241 1_555
I6 O21 1.864092 1_545
I6 O16 2.426896 1_555
I7 O37 1.838016 1_555
I7 O27 1.845507 1_555
I7 O38 1.857673 1_555
I7 O4 2.576882 1_555
I8 O1 1.838988 1_555
I8 O40 1.856012 1_555
I8 O22 1.864670 1_545
I8 O21 2.637189 1_545
I8 O41 2.650023 1_555
I9 O4 1.830266 1_555
I9 O7 1.830495 1_555
I9 O23 1.861828 1_555
I10 O3 1.829625 1_564
I10 O6 1.835062 1_565
I10 O11 1.855993 1_555
I11 O47 1.829625 1_655
I11 O30 1.835062 1_655
I11 O9 1.855993 1_555
I12 O14 1.826399 1_555
I12 O2 1.833241 1_555
I12 O29 1.864092 1_455
I12 O24 2.426896 1_555
I13 O17 1.830266 1_555
I13 O45 1.830495 1_555
I13 O42 1.861828 1_555
I14 O0 1.817484 1_455
I14 O41 1.830216 1_555
I14 O35 1.851587 1_555
I15 O24 1.845448 1_565
I15 O39 1.846581 1_565
I15 O32 1.855245 1_555
I15 O30 2.580597 1_565
O1 Y0 2.433404 1_455
O2 Y1 2.298354 1_545
O5 Y2 2.582430 1_645
O8 Y2 2.345769 1_555
O9 Y3 2.440199 1_555
O10 Y3 2.381182 1_465
O11 Y2 2.440199 1_555
O12 Y2 2.325998 1_555
O13 Y3 2.325998 1_555
O14 Y0 2.317801 1_455
O15 Y2 2.381182 1_645
O18 Y3 2.496329 1_555
O19 Y2 2.401368 1_555
O21 Y0 2.454316 1_555
O22 Y0 2.424977 1_555
O23 Y1 2.457170 1_555
O25 Y1 2.317801 1_545
O26 Y3 2.345769 1_555
O28 Y1 2.398646 1_555
O29 Y1 2.454316 1_555
O31 Y1 2.433404 1_545
O32 Y0 2.398646 1_555
O33 Y3 2.362171 1_465
O34 Y1 2.449230 1_545
O35 Y3 2.582430 1_465
O37 Y2 2.496329 1_555
O38 Y2 2.362171 1_645
O39 Y0 2.449230 1_455
O40 Y3 2.401368 1_555
O42 Y0 2.457170 1_555
O44 Y0 2.298354 1_455
O46 Y1 2.424977 1_555
