# generated using pymatgen
data_BaCa(CO3)2
_symmetry_space_group_name_H-M   'P 1'
_cell_length_a   8.78836135
_cell_length_b   8.78836135
_cell_length_c   6.24329000
_cell_angle_alpha   90.00000000
_cell_angle_beta   90.00000000
_cell_angle_gamma   119.99999511
_symmetry_Int_Tables_number   1
_chemical_formula_structural   BaCa(CO3)2
_chemical_formula_sum   'Ba3 Ca3 C6 O18'
_cell_volume   417.59950229
_cell_formula_units_Z   3
loop_
 _symmetry_equiv_pos_site_id
 _symmetry_equiv_pos_as_xyz
  1  'x, y, z'
loop_
 _atom_site_type_symbol
 _atom_site_label
 _atom_site_symmetry_multiplicity
 _atom_site_fract_x
 _atom_site_fract_y
 _atom_site_fract_z
 _atom_site_occupancy
  Ba  Ba0  1  0.00000000  0.68684200  0.00000000  1
  Ba  Ba1  1  0.68684200  0.00000000  0.00000000  1
  Ba  Ba2  1  0.31315800  0.31315800  0.00000000  1
  Ca  Ca0  1  0.35986800  0.00000000  0.50000000  1
  Ca  Ca1  1  0.64013200  0.64013200  0.50000000  1
  Ca  Ca2  1  0.00000000  0.35986800  0.50000000  1
  C  C0  1  0.66666700  0.33333300  0.64552700  1
  C  C1  1  0.00000000  0.00000000  0.26496200  1
  C  C2  1  0.00000000  0.00000000  0.73503800  1
  C  C3  1  0.66666700  0.33333300  0.18381600  1
  C  C4  1  0.33333300  0.66666700  0.81618400  1
  C  C5  1  0.33333300  0.66666700  0.35447300  1
  O  O0  1  0.00224500  0.14890100  0.74158900  1
  O  O1  1  0.99775500  0.14665700  0.25841100  1
  O  O2  1  0.82028200  0.34491200  0.18088800  1
  O  O3  1  0.19018700  0.67599500  0.35828600  1
  O  O4  1  0.85109900  0.85334300  0.74158900  1
  O  O5  1  0.14890100  0.00224500  0.25841100  1
  O  O6  1  0.80981300  0.48580800  0.64171400  1
  O  O7  1  0.47537100  0.65508800  0.81911200  1
  O  O8  1  0.85334300  0.85109900  0.25841100  1
  O  O9  1  0.65508800  0.47537100  0.18088800  1
  O  O10  1  0.32400500  0.51419200  0.35828600  1
  O  O11  1  0.67599500  0.19018700  0.64171400  1
  O  O12  1  0.34491200  0.82028200  0.81911200  1
  O  O13  1  0.17971800  0.52462900  0.81911200  1
  O  O14  1  0.14665700  0.99775500  0.74158900  1
  O  O15  1  0.51419200  0.32400500  0.64171400  1
  O  O16  1  0.52462900  0.17971800  0.18088800  1
  O  O17  1  0.48580800  0.80981300  0.35828600  1
loop_
_geom_bond_atom_site_label_1
_geom_bond_atom_site_label_2
_geom_bond_distance
_geom_bond_site_symmetry_2
Ba0 O3 2.822367 1_555
Ba0 O6 2.822367 1_454
Ba0 O2 2.837932 1_455
Ba0 O13 2.837938 1_554
Ba0 O14 2.865031 1_554
Ba0 O8 2.865037 1_455
Ba0 O9 2.878220 1_455
Ba0 O12 2.878221 1_554
Ba0 O4 2.893314 1_454
Ba0 O5 2.893320 1_565
Ba1 O11 2.822367 1_554
Ba1 O17 2.822367 1_545
Ba1 O12 2.837932 1_544
Ba1 O16 2.837938 1_555
Ba1 O1 2.865031 1_555
Ba1 O4 2.865037 1_544
Ba1 O7 2.878220 1_544
Ba1 O2 2.878221 1_555
Ba1 O8 2.893314 1_545
Ba1 O0 2.893320 1_654
Ba2 O15 2.822367 1_554
Ba2 O10 2.822367 1_555
Ba2 O7 2.837932 1_554
Ba2 O9 2.837932 1_555
Ba2 O5 2.865031 1_555
Ba2 O0 2.865031 1_554
Ba2 O13 2.878213 1_554
Ba2 O16 2.878213 1_555
Ba2 O1 2.893320 1_455
Ba2 O14 2.893320 1_544
Ca0 O14 2.397802 1_545
Ca0 O5 2.397809 1_555
Ca0 O16 2.504706 1_555
Ca0 O12 2.504708 1_545
Ca0 O17 2.579042 1_545
Ca0 O11 2.579043 1_555
Ca0 O15 2.620770 1_555
Ca0 O3 2.620770 1_545
Ca1 O4 2.397805 1_555
Ca1 O8 2.397805 1_555
Ca1 O7 2.504703 1_555
Ca1 O9 2.504703 1_555
Ca1 O10 2.579042 1_555
Ca1 O15 2.579042 1_555
Ca1 O17 2.620770 1_555
Ca1 O6 2.620770 1_555
Ca2 O1 2.397802 1_455
Ca2 O0 2.397809 1_555
Ca2 O13 2.504706 1_555
Ca2 O2 2.504708 1_455
Ca2 O6 2.579042 1_455
Ca2 O3 2.579043 1_555
Ca2 O10 2.620770 1_555
Ca2 O11 2.620770 1_455
C0 O11 1.301164 1_555
C0 O6 1.301169 1_555
C0 O15 1.301173 1_555
C1 O5 1.299487 1_555
C1 O8 1.299491 1_445
C1 O1 1.299496 1_455
C2 O0 1.299487 1_555
C2 O4 1.299491 1_445
C2 O14 1.299496 1_545
C3 O2 1.302258 1_555
C3 O16 1.302266 1_555
C3 O9 1.302275 1_555
C4 O12 1.302258 1_555
C4 O13 1.302266 1_555
C4 O7 1.302275 1_555
C5 O3 1.301164 1_555
C5 O17 1.301169 1_555
C5 O10 1.301173 1_555
