# generated using pymatgen
data_K(MoO2)4
_symmetry_space_group_name_H-M   'P 1'
_cell_length_a   6.54215800
_cell_length_b   10.49764500
_cell_length_c   14.73662968
_cell_angle_alpha   46.34553411
_cell_angle_beta   90.00000000
_cell_angle_gamma   90.00000000
_symmetry_Int_Tables_number   1
_chemical_formula_structural   K(MoO2)4
_chemical_formula_sum   'K4 Mo16 O32'
_cell_volume   732.24970579
_cell_formula_units_Z   4
loop_
 _symmetry_equiv_pos_site_id
 _symmetry_equiv_pos_as_xyz
  1  'x, y, z'
loop_
 _atom_site_type_symbol
 _atom_site_label
 _atom_site_symmetry_multiplicity
 _atom_site_fract_x
 _atom_site_fract_y
 _atom_site_fract_z
 _atom_site_occupancy
  K  K0  1  0.86697800  0.50000000  0.25000000  1
  K  K1  1  0.13302200  0.50000000  0.75000000  1
  K  K2  1  0.36455000  0.50000000  0.25000000  1
  K  K3  1  0.63545000  0.50000000  0.75000000  1
  Mo  Mo0  1  0.87144800  0.68107100  0.40276600  1
  Mo  Mo1  1  0.37144900  0.31949800  0.09743500  1
  Mo  Mo2  1  0.62855100  0.31949800  0.59743500  1
  Mo  Mo3  1  0.62855100  0.68050200  0.90256500  1
  Mo  Mo4  1  0.12855200  0.31892900  0.59723400  1
  Mo  Mo5  1  0.12855200  0.68107100  0.90276600  1
  Mo  Mo6  1  0.37144900  0.68050200  0.40256500  1
  Mo  Mo7  1  0.87144800  0.31892900  0.09723400  1
  Mo  Mo8  1  0.62723100  0.99018700  0.41120300  1
  Mo  Mo9  1  0.62723100  0.00981300  0.08879700  1
  Mo  Mo10  1  0.37276900  0.00981300  0.58879700  1
  Mo  Mo11  1  0.37276900  0.99018700  0.91120300  1
  Mo  Mo12  1  0.12558600  0.98842500  0.41144800  1
  Mo  Mo13  1  0.12558600  0.01157500  0.08855200  1
  Mo  Mo14  1  0.87441400  0.01157500  0.58855200  1
  Mo  Mo15  1  0.87441400  0.98842500  0.91144800  1
  O  O0  1  0.12341800  0.79995500  0.41181000  1
  O  O1  1  0.12341800  0.20004500  0.08819000  1
  O  O2  1  0.87658200  0.20004500  0.58819000  1
  O  O3  1  0.87658200  0.79995500  0.91181000  1
  O  O4  1  0.39211400  0.20346700  0.58799500  1
  O  O5  1  0.39211400  0.79653300  0.91200500  1
  O  O6  1  0.60788600  0.79653300  0.41200500  1
  O  O7  1  0.60788600  0.20346700  0.08799500  1
  O  O8  1  0.13004500  0.55399700  0.39848700  1
  O  O9  1  0.13004500  0.44600300  0.10151300  1
  O  O10  1  0.86995500  0.44600300  0.60151300  1
  O  O11  1  0.86995500  0.55399700  0.89848700  1
  O  O12  1  0.37990100  0.45929800  0.59356000  1
  O  O13  1  0.37990100  0.54070200  0.90644000  1
  O  O14  1  0.62009900  0.54070200  0.40644000  1
  O  O15  1  0.62009900  0.45929800  0.09356000  1
  O  O16  1  0.13562900  0.11447300  0.79521200  1
  O  O17  1  0.13562900  0.88552700  0.70478800  1
  O  O18  1  0.86437100  0.88552700  0.20478800  1
  O  O19  1  0.86437100  0.11447300  0.29521200  1
  O  O20  1  0.62242600  0.86381600  0.04185500  1
  O  O21  1  0.62242600  0.13618400  0.45814500  1
  O  O22  1  0.37757400  0.13618400  0.95814500  1
  O  O23  1  0.37757400  0.86381600  0.54185500  1
  O  O24  1  0.12185600  0.86240600  0.04354200  1
  O  O25  1  0.12185600  0.13759400  0.45645800  1
  O  O26  1  0.36704600  0.12724300  0.28848300  1
  O  O27  1  0.87814400  0.86240600  0.54354200  1
  O  O28  1  0.63295400  0.12724300  0.78848300  1
  O  O29  1  0.63295400  0.87275700  0.71151700  1
  O  O30  1  0.36704600  0.87275700  0.21151700  1
  O  O31  1  0.87814400  0.13759400  0.95645800  1
loop_
_geom_bond_atom_site_label_1
_geom_bond_atom_site_label_2
_geom_bond_distance
_geom_bond_site_symmetry_2
K0 O14 3.076687 1_555
K0 O15 3.076687 1_555
K0 O8 3.127924 1_655
K0 O9 3.127924 1_655
K0 O20 3.221952 1_555
K0 O21 3.221952 1_555
K0 O24 3.245031 1_655
K0 O25 3.245031 1_655
K1 O13 3.076687 1_555
K1 O12 3.076687 1_555
K1 O11 3.127924 1_455
K1 O10 3.127924 1_455
K1 O22 3.221952 1_555
K1 O23 3.221952 1_555
K1 O27 3.245031 1_455
K1 O31 3.245031 1_455
K2 O9 3.029134 1_555
K2 O8 3.029134 1_555
K2 O14 3.106838 1_555
K2 O15 3.106838 1_555
K2 O25 3.204802 1_555
K2 O24 3.204802 1_555
K2 O20 3.266113 1_555
K2 O21 3.266113 1_555
K3 O11 3.029134 1_555
K3 O10 3.029134 1_555
K3 O12 3.106838 1_555
K3 O13 3.106838 1_555
K3 O27 3.204802 1_555
K3 O31 3.204802 1_555
K3 O22 3.266113 1_555
K3 O23 3.266113 1_555
Mo0 O18 2.115528 1_555
Mo0 O0 2.126552 1_655
Mo0 O6 2.165317 1_555
Mo0 O10 2.165494 1_555
Mo0 O8 2.182140 1_655
Mo0 O14 2.183587 1_555
Mo1 O7 2.032132 1_555
Mo1 O26 2.038563 1_555
Mo1 O13 2.072160 1_554
Mo1 O9 2.090835 1_555
Mo1 O1 2.111848 1_555
Mo1 O15 2.165064 1_555
Mo2 O4 2.032132 1_555
Mo2 O28 2.038563 1_555
Mo2 O14 2.072160 1_555
Mo2 O10 2.090835 1_555
Mo2 O2 2.111848 1_555
Mo2 O12 2.165064 1_555
Mo3 O5 2.032132 1_555
Mo3 O29 2.038563 1_555
Mo3 O15 2.072160 1_556
Mo3 O11 2.090835 1_555
Mo3 O3 2.111848 1_555
Mo3 O13 2.165064 1_555
Mo4 O16 2.115528 1_555
Mo4 O2 2.126552 1_455
Mo4 O4 2.165317 1_555
Mo4 O8 2.165494 1_555
Mo4 O10 2.182140 1_455
Mo4 O12 2.183587 1_555
Mo5 O17 2.115528 1_555
Mo5 O3 2.126552 1_455
Mo5 O5 2.165317 1_555
Mo5 O9 2.165494 1_556
Mo5 O11 2.182140 1_455
Mo5 O13 2.183587 1_555
Mo6 O6 2.032132 1_555
Mo6 O30 2.038563 1_555
Mo6 O12 2.072160 1_555
Mo6 O8 2.090835 1_555
Mo6 O0 2.111848 1_555
Mo6 O14 2.165064 1_555
Mo7 O19 2.115528 1_555
Mo7 O1 2.126552 1_655
Mo7 O7 2.165317 1_555
Mo7 O11 2.165494 1_554
Mo7 O9 2.182140 1_655
Mo7 O15 2.183587 1_555
Mo8 O19 1.987939 1_565
Mo8 O6 2.028722 1_555
Mo8 O21 2.071768 1_565
Mo8 O23 2.146674 1_555
Mo8 O26 2.155389 1_565
Mo8 O27 2.164618 1_555
Mo9 O18 1.987939 1_545
Mo9 O7 2.028722 1_555
Mo9 O20 2.071768 1_545
Mo9 O22 2.146674 1_554
Mo9 O30 2.155389 1_545
Mo9 O31 2.164618 1_554
Mo10 O17 1.987939 1_545
Mo10 O4 2.028722 1_555
Mo10 O23 2.071768 1_545
Mo10 O21 2.146674 1_555
Mo10 O29 2.155389 1_545
Mo10 O25 2.164618 1_555
Mo11 O16 1.987939 1_565
Mo11 O5 2.028722 1_555
Mo11 O22 2.071768 1_565
Mo11 O20 2.146674 1_556
Mo11 O28 2.155389 1_565
Mo11 O24 2.164618 1_556
Mo12 O0 1.974863 1_555
Mo12 O26 2.063216 1_565
Mo12 O25 2.080066 1_565
Mo12 O19 2.115685 1_465
Mo12 O27 2.145830 1_455
Mo12 O23 2.156692 1_555
Mo13 O1 1.974863 1_555
Mo13 O30 2.063216 1_545
Mo13 O24 2.080066 1_545
Mo13 O18 2.115685 1_445
Mo13 O31 2.145830 1_454
Mo13 O22 2.156692 1_554
Mo14 O2 1.974863 1_555
Mo14 O29 2.063216 1_545
Mo14 O27 2.080066 1_545
Mo14 O17 2.115685 1_645
Mo14 O25 2.145830 1_655
Mo14 O21 2.156692 1_555
Mo15 O3 1.974863 1_555
Mo15 O28 2.063216 1_565
Mo15 O31 2.080066 1_565
Mo15 O16 2.115685 1_665
Mo15 O24 2.145830 1_656
Mo15 O20 2.156692 1_556
