# generated using pymatgen
data_Na3AsS3
_symmetry_space_group_name_H-M   'P 1'
_cell_length_a   8.51532417
_cell_length_b   8.51532417
_cell_length_c   8.51532417
_cell_angle_alpha   90.00000000
_cell_angle_beta   90.00000000
_cell_angle_gamma   90.00000000
_symmetry_Int_Tables_number   1
_chemical_formula_structural   Na3AsS3
_chemical_formula_sum   'Na12 As4 S12'
_cell_volume   617.45250562
_cell_formula_units_Z   4
loop_
 _symmetry_equiv_pos_site_id
 _symmetry_equiv_pos_as_xyz
  1  'x, y, z'
loop_
 _atom_site_type_symbol
 _atom_site_label
 _atom_site_symmetry_multiplicity
 _atom_site_fract_x
 _atom_site_fract_y
 _atom_site_fract_z
 _atom_site_occupancy
  Na  Na0  1  0.58078131  0.58078131  0.58078131  1
  Na  Na1  1  0.91921869  0.41921869  0.08078131  1
  Na  Na2  1  0.08078131  0.91921869  0.41921869  1
  Na  Na3  1  0.41921869  0.08078131  0.91921869  1
  Na  Na4  1  0.31743040  0.31743040  0.31743040  1
  Na  Na5  1  0.18256960  0.68256960  0.81743040  1
  Na  Na6  1  0.81743040  0.18256960  0.68256960  1
  Na  Na7  1  0.68256960  0.81743040  0.18256960  1
  Na  Na8  1  0.81059393  0.81059393  0.81059393  1
  Na  Na9  1  0.68940607  0.18940607  0.31059393  1
  Na  Na10  1  0.31059393  0.68940607  0.18940607  1
  Na  Na11  1  0.18940607  0.31059393  0.68940607  1
  As  As0  1  0.97227843  0.52772157  0.47227843  1
  As  As1  1  0.47227843  0.97227843  0.52772157  1
  As  As2  1  0.02772157  0.02772157  0.02772157  1
  As  As3  1  0.52772157  0.47227843  0.97227843  1
  S  S0  1  0.77494080  0.10502267  0.00123722  1
  S  S1  1  0.72505920  0.89497733  0.50123722  1
  S  S2  1  0.27494080  0.39497733  0.99876278  1
  S  S3  1  0.10502267  0.00123722  0.77494080  1
  S  S4  1  0.22505920  0.60502267  0.49876278  1
  S  S5  1  0.49876278  0.22505920  0.60502267  1
  S  S6  1  0.60502267  0.49876278  0.22505920  1
  S  S7  1  0.89497733  0.50123722  0.72505920  1
  S  S8  1  0.99876278  0.27494080  0.39497733  1
  S  S9  1  0.39497733  0.99876278  0.27494080  1
  S  S10  1  0.00123722  0.77494080  0.10502267  1
  S  S11  1  0.50123722  0.72505920  0.89497733  1
loop_
_geom_bond_atom_site_label_1
_geom_bond_atom_site_label_2
_geom_bond_distance
_geom_bond_site_symmetry_2
Na0 S7 3.020991 1_555
Na0 S11 3.020991 1_555
Na0 S1 3.020991 1_555
Na0 S4 3.115409 1_555
Na0 S5 3.115409 1_555
Na0 S6 3.115409 1_555
Na1 S8 3.020991 1_555
Na1 S0 3.020991 1_555
Na1 S6 3.020991 1_555
Na1 S10 3.115409 1_655
Na1 S7 3.115409 1_554
Na1 S2 3.115409 1_654
Na2 S10 3.020991 1_555
Na2 S4 3.020991 1_555
Na2 S9 3.020991 1_555
Na2 S8 3.115409 1_465
Na2 S1 3.115409 1_455
Na2 S3 3.115409 1_565
Na3 S5 3.020991 1_555
Na3 S2 3.020991 1_555
Na3 S3 3.020991 1_555
Na3 S9 3.115409 1_546
Na3 S11 3.115409 1_545
Na3 S0 3.115409 1_556
Na4 S9 2.816088 1_545
Na4 S2 2.816088 1_554
Na4 S8 2.816088 1_455
Na4 S6 3.000044 1_555
Na4 S4 3.000044 1_555
Na4 S5 3.000044 1_555
Na5 S3 2.816088 1_565
Na5 S4 2.816088 1_555
Na5 S11 2.816088 1_555
Na5 S7 3.000044 1_455
Na5 S2 3.000044 1_555
Na5 S10 3.000044 1_556
Na6 S0 2.816088 1_556
Na6 S5 2.816088 1_555
Na6 S7 2.816088 1_555
Na6 S1 3.000044 1_545
Na6 S8 3.000044 1_555
Na6 S3 3.000044 1_655
Na7 S6 2.816088 1_555
Na7 S10 2.816088 1_655
Na7 S1 2.816088 1_555
Na7 S11 3.000044 1_554
Na7 S9 3.000044 1_555
Na7 S0 3.000044 1_565
Na8 S7 2.825989 1_555
Na8 S11 2.825989 1_555
Na8 S1 2.825989 1_555
Na8 S10 3.002232 1_656
Na8 S0 3.002232 1_566
Na8 S3 3.002232 1_665
Na9 S6 2.825989 1_555
Na9 S8 2.825989 1_555
Na9 S0 2.825989 1_555
Na9 S9 3.002232 1_545
Na9 S5 3.002232 1_555
Na9 S1 3.002232 1_545
Na10 S4 2.825989 1_555
Na10 S9 2.825989 1_555
Na10 S10 2.825989 1_555
Na10 S6 3.002232 1_555
Na10 S2 3.002232 1_554
Na10 S11 3.002232 1_554
Na11 S5 2.825989 1_555
Na11 S2 2.825989 1_555
Na11 S3 2.825989 1_555
Na11 S4 3.002232 1_555
Na11 S8 3.002232 1_455
Na11 S7 3.002232 1_455
As0 S4 2.262177 1_655
As0 S7 2.262177 1_555
As0 S8 2.262177 1_555
As1 S1 2.262177 1_555
As1 S9 2.262177 1_555
As1 S5 2.262177 1_565
As2 S3 2.262177 1_554
As2 S10 2.262177 1_545
As2 S0 2.262177 1_455
As3 S6 2.262177 1_556
As3 S2 2.262177 1_555
As3 S11 2.262177 1_555
