# generated using pymatgen
data_Nb2Bi2PbO9
_symmetry_space_group_name_H-M   'P 1'
_cell_length_a   12.99545127
_cell_length_b   12.99545127
_cell_length_c   5.70047600
_cell_angle_alpha   90.00000000
_cell_angle_beta   90.00000000
_cell_angle_gamma   154.85516609
_symmetry_Int_Tables_number   1
_chemical_formula_structural   Nb2Bi2PbO9
_chemical_formula_sum   'Nb4 Bi4 Pb2 O18'
_cell_volume   409.06154757
_cell_formula_units_Z   2
loop_
 _symmetry_equiv_pos_site_id
 _symmetry_equiv_pos_as_xyz
  1  'x, y, z'
loop_
 _atom_site_type_symbol
 _atom_site_label
 _atom_site_symmetry_multiplicity
 _atom_site_fract_x
 _atom_site_fract_y
 _atom_site_fract_z
 _atom_site_occupancy
  Nb  Nb0  1  0.83641600  0.66644900  0.23194900  1
  Nb  Nb1  1  0.66644900  0.83641600  0.23194900  1
  Nb  Nb2  1  0.33355100  0.16358400  0.73194900  1
  Nb  Nb3  1  0.16358400  0.33355100  0.73194900  1
  Bi  Bi0  1  0.08386300  0.48526700  0.31089900  1
  Bi  Bi1  1  0.51473300  0.91613700  0.81089900  1
  Bi  Bi2  1  0.91613700  0.51473300  0.81089900  1
  Bi  Bi3  1  0.48526700  0.08386300  0.31089900  1
  Pb  Pb0  1  0.75441000  0.75441000  0.75448300  1
  Pb  Pb1  1  0.24559000  0.24559000  0.25448300  1
  O  O0  1  0.83636800  0.52111400  0.19189100  1
  O  O1  1  0.45448000  0.59425500  0.47193200  1
  O  O2  1  0.88078300  0.05654400  0.92144100  1
  O  O3  1  0.16363200  0.47888600  0.69189100  1
  O  O4  1  0.76908600  0.26604100  0.52047000  1
  O  O5  1  0.20056900  0.20056900  0.68435100  1
  O  O6  1  0.47888600  0.16363200  0.69189100  1
  O  O7  1  0.94345600  0.11921700  0.42144100  1
  O  O8  1  0.59425500  0.45448000  0.47193200  1
  O  O9  1  0.23091400  0.73395900  0.02047000  1
  O  O10  1  0.05654400  0.88078300  0.92144100  1
  O  O11  1  0.73395900  0.23091400  0.02047000  1
  O  O12  1  0.52111400  0.83636800  0.19189100  1
  O  O13  1  0.26604100  0.76908600  0.52047000  1
  O  O14  1  0.11921700  0.94345600  0.42144100  1
  O  O15  1  0.54552000  0.40574500  0.97193200  1
  O  O16  1  0.79943100  0.79943100  0.18435100  1
  O  O17  1  0.40574500  0.54552000  0.97193200  1
loop_
_geom_bond_atom_site_label_1
_geom_bond_atom_site_label_2
_geom_bond_distance
_geom_bond_site_symmetry_2
Nb0 O0 1.901887 1_555
Nb0 O8 1.915304 1_555
Nb0 O14 1.918306 1_655
Nb0 O10 2.156124 1_654
Nb0 O15 2.185934 1_554
Nb0 O16 2.189745 1_555
Nb1 O12 1.901887 1_555
Nb1 O1 1.915304 1_555
Nb1 O7 1.918306 1_565
Nb1 O2 2.156124 1_564
Nb1 O17 2.185934 1_554
Nb1 O16 2.189745 1_555
Nb2 O6 1.901887 1_555
Nb2 O15 1.915304 1_555
Nb2 O10 1.918306 1_545
Nb2 O14 2.156124 1_545
Nb2 O8 2.185934 1_555
Nb2 O5 2.189745 1_555
Nb3 O3 1.901887 1_555
Nb3 O17 1.915304 1_555
Nb3 O2 1.918306 1_455
Nb3 O7 2.156124 1_455
Nb3 O1 2.185934 1_555
Nb3 O5 2.189745 1_555
Bi0 O13 2.197014 1_555
Bi0 O4 2.275489 1_455
Bi0 O9 2.378274 1_555
Bi0 O3 2.440080 1_555
Bi0 O12 2.574379 1_555
Bi0 O11 2.670486 1_455
Bi1 O9 2.197014 1_556
Bi1 O11 2.275489 1_566
Bi1 O13 2.378274 1_555
Bi1 O12 2.440080 1_556
Bi1 O3 2.574379 1_555
Bi1 O4 2.670486 1_565
Bi2 O11 2.197014 1_556
Bi2 O9 2.275489 1_656
Bi2 O4 2.378274 1_555
Bi2 O0 2.440080 1_556
Bi2 O6 2.574379 1_555
Bi2 O13 2.670486 1_655
Bi3 O4 2.197014 1_555
Bi3 O13 2.275489 1_545
Bi3 O11 2.378274 1_555
Bi3 O6 2.440080 1_555
Bi3 O0 2.574379 1_555
Bi3 O9 2.670486 1_545
O1 Pb1 2.677156 1_555
O1 Pb0 2.726027 1_555
O2 Pb0 2.710165 1_545
O5 Pb1 2.463654 1_555
O5 Pb0 2.555621 1_445
O7 Pb1 2.710165 1_655
O8 Pb1 2.677156 1_555
O8 Pb0 2.726027 1_555
O10 Pb0 2.710165 1_455
O14 Pb1 2.710165 1_565
O15 Pb0 2.677156 1_555
O15 Pb1 2.726027 1_556
O16 Pb0 2.463654 1_554
O16 Pb1 2.555621 1_665
O17 Pb0 2.677156 1_555
O17 Pb1 2.726027 1_556
