# generated using pymatgen
data_Co2Sn
_symmetry_space_group_name_H-M   'P 1'
_cell_length_a   4.27269079
_cell_length_b   4.27269079
_cell_length_c   5.23385200
_cell_angle_alpha   90.00000000
_cell_angle_beta   90.00000000
_cell_angle_gamma   120.00001230
_symmetry_Int_Tables_number   1
_chemical_formula_structural   Co2Sn
_chemical_formula_sum   'Co4 Sn2'
_cell_volume   82.74751220
_cell_formula_units_Z   2
loop_
 _symmetry_equiv_pos_site_id
 _symmetry_equiv_pos_as_xyz
  1  'x, y, z'
loop_
 _atom_site_type_symbol
 _atom_site_label
 _atom_site_symmetry_multiplicity
 _atom_site_fract_x
 _atom_site_fract_y
 _atom_site_fract_z
 _atom_site_occupancy
  Co  Co0  1  0.33333300  0.66666700  0.75000000  1
  Co  Co1  1  0.00000000  0.00000000  0.00000000  1
  Co  Co2  1  0.00000000  0.00000000  0.50000000  1
  Co  Co3  1  0.66666700  0.33333300  0.25000000  1
  Sn  Sn0  1  0.66666700  0.33333300  0.75000000  1
  Sn  Sn1  1  0.33333300  0.66666700  0.25000000  1
loop_
_geom_bond_atom_site_label_1
_geom_bond_atom_site_label_2
_geom_bond_distance
_geom_bond_site_symmetry_2
Co0 Sn0 2.466836 1_565
Co0 Sn0 2.466836 1_455
Co0 Sn0 2.466844 1_555
Co0 Sn1 2.616926 1_555
Co0 Sn1 2.616926 1_556
Co0 Co1 2.792375 1_566
Co0 Co2 2.792375 1_565
Co0 Co1 2.792378 1_666
Co0 Co2 2.792378 1_555
Co0 Co2 2.792378 1_665
Co0 Co1 2.792378 1_556
Co1 Co2 2.616926 1_555
Co1 Co2 2.616926 1_554
Co1 Sn0 2.792375 1_454
Co1 Co3 2.792375 1_455
Co1 Sn1 2.792375 1_545
Co1 Sn1 2.792378 1_555
Co1 Sn1 2.792378 1_445
Co1 Co3 2.792378 1_555
Co1 Sn0 2.792378 1_444
Co1 Sn0 2.792378 1_554
Co1 Co3 2.792378 1_445
Co2 Sn0 2.792375 1_455
Co2 Co3 2.792375 1_455
Co2 Sn1 2.792375 1_545
Co2 Sn1 2.792378 1_555
Co2 Sn1 2.792378 1_445
Co2 Co3 2.792378 1_555
Co2 Sn0 2.792378 1_445
Co2 Co3 2.792378 1_445
Co2 Sn0 2.792378 1_555
Co3 Sn1 2.466836 1_545
Co3 Sn1 2.466836 1_655
Co3 Sn1 2.466844 1_555
Co3 Sn0 2.616926 1_554
Co3 Sn0 2.616926 1_555
