# generated using pymatgen
data_K2PaF7
_symmetry_space_group_name_H-M   'P 1'
_cell_length_a   6.68736840
_cell_length_b   7.61766741
_cell_length_c   7.71947264
_cell_angle_alpha   63.91096194
_cell_angle_beta   64.33239738
_cell_angle_gamma   63.96385049
_symmetry_Int_Tables_number   1
_chemical_formula_structural   K2PaF7
_chemical_formula_sum   'K4 Pa2 F14'
_cell_volume   302.96365459
_cell_formula_units_Z   2
loop_
 _symmetry_equiv_pos_site_id
 _symmetry_equiv_pos_as_xyz
  1  'x, y, z'
loop_
 _atom_site_type_symbol
 _atom_site_label
 _atom_site_symmetry_multiplicity
 _atom_site_fract_x
 _atom_site_fract_y
 _atom_site_fract_z
 _atom_site_occupancy
  K  K0  1  0.66776249  0.39482670  0.25411885  1
  K  K1  1  0.31670804  0.10517330  0.24588115  1
  K  K2  1  0.33223751  0.60517330  0.74588115  1
  K  K3  1  0.68329196  0.89482670  0.75411885  1
  Pa  Pa0  1  0.97674341  0.75000000  0.25000000  1
  Pa  Pa1  1  0.02325659  0.25000000  0.75000000  1
  F  F0  1  0.06166871  0.49814721  0.14433891  1
  F  F1  1  0.70415483  0.00185279  0.35566109  1
  F  F2  1  0.93833129  0.50185279  0.85566109  1
  F  F3  1  0.29584517  0.99814721  0.64433891  1
  F  F4  1  0.78818239  0.58420637  0.56913379  1
  F  F5  1  0.94152355  0.91579363  0.93086621  1
  F  F6  1  0.21181761  0.41579363  0.43086621  1
  F  F7  1  0.05847645  0.08420637  0.06913379  1
  F  F8  1  0.33975417  0.70648244  0.06425574  1
  F  F9  1  0.11049135  0.79351756  0.43574426  1
  F  F10  1  0.66024583  0.29351856  0.93574426  1
  F  F11  1  0.88950865  0.20648144  0.56425574  1
  F  F12  1  0.64817641  0.75000000  0.25000000  1
  F  F13  1  0.35182359  0.25000000  0.75000000  1
loop_
_geom_bond_atom_site_label_1
_geom_bond_atom_site_label_2
_geom_bond_distance
_geom_bond_site_symmetry_2
F0 Pa0 2.164972 1_455
F0 K1 2.663988 1_555
F0 K0 2.752487 1_455
F0 K2 2.769056 1_554
F1 Pa0 2.164972 1_545
F1 K0 2.663988 1_555
F1 K1 2.752487 1_555
F1 K3 2.769057 1_545
F2 Pa1 2.164972 1_655
F2 K3 2.663988 1_555
F2 K2 2.752487 1_655
F2 K0 2.769056 1_556
F3 Pa1 2.164972 1_565
F3 K2 2.663988 1_555
F3 K3 2.752487 1_555
F3 K1 2.769057 1_565
F4 Pa0 2.285733 1_555
F4 Pa1 2.482688 1_655
F4 K2 2.710008 1_555
F4 K3 2.962628 1_555
F5 Pa0 2.285731 1_556
F5 Pa1 2.482685 1_665
F5 K3 2.710015 1_555
F5 K2 2.962625 1_655
F6 Pa1 2.285733 1_555
F6 Pa0 2.482688 1_455
F6 K0 2.710008 1_555
F6 K1 2.962628 1_555
F7 Pa1 2.285731 1_554
F7 Pa0 2.482685 1_445
F7 K1 2.710015 1_555
F7 K0 2.962625 1_455
F8 Pa0 2.180637 1_455
F8 K0 2.783694 1_555
F8 K3 2.859334 1_554
F8 K2 2.906476 1_554
F9 Pa0 2.180632 1_455
F9 K1 2.783698 1_565
F9 K2 2.859339 1_555
F9 K3 2.906472 1_455
F10 Pa1 2.180637 1_655
F10 K2 2.783692 1_555
F10 K1 2.859337 1_556
F10 K0 2.906471 1_556
F11 Pa1 2.180637 1_655
F11 K3 2.783692 1_545
F11 K0 2.859338 1_555
F11 K1 2.906470 1_655
F12 Pa0 2.197249 1_555
F12 K1 2.637279 1_565
F12 K0 2.637279 1_555
F13 Pa1 2.197249 1_555
F13 K3 2.637279 1_545
F13 K2 2.637279 1_555
