# generated using pymatgen
data_TaTl(GeO3)3
_symmetry_space_group_name_H-M   'P 1'
_cell_length_a   7.03700893
_cell_length_b   7.03700893
_cell_length_c   10.22177859
_cell_angle_alpha   90.00000000
_cell_angle_beta   90.00000000
_cell_angle_gamma   120.00000365
_symmetry_Int_Tables_number   1
_chemical_formula_structural   TaTl(GeO3)3
_chemical_formula_sum   'Ta2 Tl2 Ge6 O18'
_cell_volume   438.36239334
_cell_formula_units_Z   2
loop_
 _symmetry_equiv_pos_site_id
 _symmetry_equiv_pos_as_xyz
  1  'x, y, z'
loop_
 _atom_site_type_symbol
 _atom_site_label
 _atom_site_symmetry_multiplicity
 _atom_site_fract_x
 _atom_site_fract_y
 _atom_site_fract_z
 _atom_site_occupancy
  Ta  Ta0  1  0.33333300  0.66666700  -0.00000000  1
  Ta  Ta1  1  0.33333300  0.66666700  0.50000000  1
  Tl  Tl0  1  0.66666700  0.33333300  -0.00000000  1
  Tl  Tl1  1  0.66666700  0.33333300  0.50000000  1
  Ge  Ge0  1  0.07192189  0.28929419  0.25000000  1
  Ge  Ge1  1  0.21737231  0.92807811  0.25000000  1
  Ge  Ge2  1  0.71070581  0.78262769  0.25000000  1
  Ge  Ge3  1  0.71070581  0.92807811  0.75000000  1
  Ge  Ge4  1  0.21737231  0.28929419  0.75000000  1
  Ge  Ge5  1  0.07192189  0.78262769  0.75000000  1
  O  O0  1  0.26391246  0.19830479  0.25000000  1
  O  O1  1  0.93439132  0.73608754  0.25000000  1
  O  O2  1  0.80169521  0.06560868  0.25000000  1
  O  O3  1  0.80169521  0.73608754  0.75000000  1
  O  O4  1  0.93439132  0.19830479  0.75000000  1
  O  O5  1  0.26391246  0.06560868  0.75000000  1
  O  O6  1  0.09845343  0.43991821  0.11007711  1
  O  O7  1  0.34146477  0.90154657  0.38992289  1
  O  O8  1  0.56008179  0.65853523  0.38992289  1
  O  O9  1  0.56008179  0.65853523  0.11007711  1
  O  O10  1  0.34146477  0.90154657  0.11007711  1
  O  O11  1  0.56008179  0.90154657  0.88992289  1
  O  O12  1  0.34146477  0.43991821  0.88992289  1
  O  O13  1  0.09845343  0.65853523  0.88992289  1
  O  O14  1  0.34146477  0.43991821  0.61007711  1
  O  O15  1  0.09845343  0.65853523  0.61007711  1
  O  O16  1  0.09845343  0.43991821  0.38992289  1
  O  O17  1  0.56008179  0.90154657  0.61007711  1
loop_
_geom_bond_atom_site_label_1
_geom_bond_atom_site_label_2
_geom_bond_distance
_geom_bond_site_symmetry_2
Ge0 O6 1.733807 1_555
Ge0 O16 1.733807 1_555
Ge0 O0 1.760779 1_555
Ge0 O2 1.760826 1_455
Ge1 O7 1.733807 1_555
Ge1 O10 1.733807 1_555
Ge1 O1 1.760785 1_455
Ge1 O0 1.760829 1_565
Ge2 O9 1.733807 1_555
Ge2 O8 1.733807 1_555
Ge2 O2 1.760786 1_565
Ge2 O1 1.760822 1_555
Ge3 O11 1.733807 1_555
Ge3 O17 1.733807 1_555
Ge3 O3 1.760779 1_555
Ge3 O4 1.760826 1_565
Ge4 O12 1.733807 1_555
Ge4 O14 1.733807 1_555
Ge4 O4 1.760786 1_455
Ge4 O5 1.760822 1_555
Ge5 O15 1.733807 1_555
Ge5 O13 1.733807 1_555
Ge5 O5 1.760785 1_565
Ge5 O3 1.760829 1_455
O6 Ta0 1.976526 1_555
O7 Ta1 1.976523 1_555
O8 Ta1 1.976529 1_555
O9 Ta0 1.976529 1_555
O10 Ta0 1.976523 1_555
O11 Ta0 1.976526 1_556
O12 Ta0 1.976529 1_556
O13 Ta0 1.976523 1_556
O14 Ta1 1.976529 1_555
O15 Ta1 1.976523 1_555
O16 Ta1 1.976526 1_555
O17 Ta1 1.976526 1_555
