# generated using pymatgen
data_NiBiPO5
_symmetry_space_group_name_H-M   'P 1'
_cell_length_a   5.15822101
_cell_length_b   7.18319873
_cell_length_c   11.18791870
_cell_angle_alpha   89.99998252
_cell_angle_beta   89.99997453
_cell_angle_gamma   107.13564296
_symmetry_Int_Tables_number   1
_chemical_formula_structural   NiBiPO5
_chemical_formula_sum   'Ni4 Bi4 P4 O20'
_cell_volume   396.13915846
_cell_formula_units_Z   4
loop_
 _symmetry_equiv_pos_site_id
 _symmetry_equiv_pos_as_xyz
  1  'x, y, z'
loop_
 _atom_site_type_symbol
 _atom_site_label
 _atom_site_symmetry_multiplicity
 _atom_site_fract_x
 _atom_site_fract_y
 _atom_site_fract_z
 _atom_site_occupancy
  Ni  Ni0  1  0.86940509  0.31560409  0.42170274  1
  Ni  Ni1  1  0.63059491  0.18439591  0.92170274  1
  Ni  Ni2  1  0.13059755  0.68439419  0.57829710  1
  Ni  Ni3  1  0.36940545  0.81560581  0.07829710  1
  Bi  Bi0  1  0.11019822  0.19235839  0.10176728  1
  Bi  Bi1  1  0.38980078  0.30764161  0.60176728  1
  Bi  Bi2  1  0.88979870  0.80764118  0.89823261  1
  Bi  Bi3  1  0.61020130  0.69235982  0.39823261  1
  P  P0  1  0.28210812  0.47669989  0.84775430  1
  P  P1  1  0.78211225  0.97669867  0.65224601  1
  P  P2  1  0.71788875  0.52330133  0.15224601  1
  P  P3  1  0.21789088  0.02330011  0.34775430  1
  O  O0  1  0.24242762  0.48274764  0.47461915  1
  O  O1  1  0.25757238  0.01725236  0.97461915  1
  O  O2  1  0.75757509  0.51725207  0.52538006  1
  O  O3  1  0.74242491  0.98274893  0.02538006  1
  O  O4  1  0.19044596  0.51335734  0.72105616  1
  O  O5  1  0.30955304  0.98664266  0.22105616  1
  O  O6  1  0.80954914  0.48663913  0.27894287  1
  O  O7  1  0.69045086  0.01336087  0.77894387  1
  O  O8  1  0.48577970  0.61499740  0.17228412  1
  O  O9  1  0.98577975  0.11499550  0.32771714  1
  O  O10  1  0.51421925  0.38500450  0.82771714  1
  O  O11  1  0.01421930  0.88500260  0.67228412  1
  O  O12  1  0.45387256  0.16062013  0.41783280  1
  O  O13  1  0.95386826  0.66061883  0.08216914  1
  O  O14  1  0.54613074  0.83938017  0.58216814  1
  O  O15  1  0.04612744  0.33937987  0.91783280  1
  O  O16  1  0.39122807  0.66845751  0.91750762  1
  O  O17  1  0.10877293  0.83154249  0.41750762  1
  O  O18  1  0.89123602  0.16845808  0.58249089  1
  O  O19  1  0.60876398  0.33154192  0.08249089  1
loop_
_geom_bond_atom_site_label_1
_geom_bond_atom_site_label_2
_geom_bond_distance
_geom_bond_site_symmetry_2
Ni0 O9 2.013019 1_555
Ni0 O0 2.032972 1_655
Ni0 O2 2.066070 1_555
Ni0 O6 2.092668 1_555
Ni0 O12 2.104601 1_555
Ni0 O18 2.106183 1_555
Ni1 O10 2.013022 1_555
Ni1 O1 2.032971 1_555
Ni1 O3 2.066064 1_546
Ni1 O7 2.092660 1_555
Ni1 O15 2.104601 1_655
Ni1 O19 2.106184 1_556
Ni2 O11 2.013036 1_555
Ni2 O2 2.032970 1_455
Ni2 O0 2.066066 1_555
Ni2 O4 2.092657 1_555
Ni2 O14 2.104607 1_555
Ni2 O17 2.106198 1_555
Ni3 O8 2.013025 1_555
Ni3 O3 2.032960 1_555
Ni3 O1 2.066073 1_564
Ni3 O5 2.092664 1_555
Ni3 O13 2.104627 1_455
Ni3 O16 2.106196 1_554
Bi0 O1 2.178766 1_554
Bi0 O3 2.216544 1_445
Bi0 O15 2.380112 1_554
Bi0 O5 2.432608 1_545
Bi0 O19 2.478846 1_555
Bi0 O9 2.626948 1_455
Bi1 O0 2.178763 1_555
Bi1 O2 2.216550 1_555
Bi1 O12 2.380113 1_555
Bi1 O4 2.432608 1_555
Bi1 O18 2.478841 1_455
Bi1 O10 2.626949 1_555
Bi2 O3 2.178769 1_556
Bi2 O1 2.216548 1_665
Bi2 O13 2.380133 1_556
Bi2 O7 2.432607 1_565
Bi2 O16 2.478868 1_555
Bi2 O11 2.626934 1_655
Bi3 O2 2.178768 1_555
Bi3 O0 2.216550 1_555
Bi3 O14 2.380118 1_555
Bi3 O6 2.432618 1_555
Bi3 O17 2.478872 1_655
Bi3 O8 2.626937 1_555
O4 P0 1.541275 1_555
O5 P3 1.541274 1_565
O6 P2 1.541267 1_555
O7 P1 1.541279 1_545
O8 P2 1.543458 1_555
O9 P3 1.543463 1_655
O10 P0 1.543463 1_555
O11 P1 1.543449 1_455
O12 P3 1.536830 1_555
O13 P2 1.536805 1_555
O14 P1 1.536821 1_555
O15 P0 1.536826 1_555
O16 P0 1.538275 1_555
O17 P3 1.538273 1_565
O18 P1 1.538296 1_545
O19 P2 1.538298 1_555
