# generated using pymatgen
data_SiO2
_symmetry_space_group_name_H-M   'P 1'
_cell_length_a   11.00515127
_cell_length_b   11.00515127
_cell_length_c   11.00515191
_cell_angle_alpha   114.35565716
_cell_angle_beta   114.35565716
_cell_angle_gamma   114.35565699
_symmetry_Int_Tables_number   1
_chemical_formula_structural   SiO2
_chemical_formula_sum   'Si12 O24'
_cell_volume   787.97768220
_cell_formula_units_Z   12
loop_
 _symmetry_equiv_pos_site_id
 _symmetry_equiv_pos_as_xyz
  1  'x, y, z'
loop_
 _atom_site_type_symbol
 _atom_site_label
 _atom_site_symmetry_multiplicity
 _atom_site_fract_x
 _atom_site_fract_y
 _atom_site_fract_z
 _atom_site_occupancy
  Si  Si0  1  0.63874000  0.47169900  0.04286000  1
  Si  Si1  1  0.04286000  0.63874000  0.47169900  1
  Si  Si2  1  0.95714000  0.36126000  0.52830100  1
  Si  Si3  1  0.86126000  0.45714000  0.02830100  1
  Si  Si4  1  0.45714000  0.02830100  0.86126000  1
  Si  Si5  1  0.02830100  0.86126000  0.45714000  1
  Si  Si6  1  0.97169900  0.13874000  0.54286000  1
  Si  Si7  1  0.54286000  0.97169900  0.13874000  1
  Si  Si8  1  0.47169900  0.04286000  0.63874000  1
  Si  Si9  1  0.52830100  0.95714000  0.36126000  1
  Si  Si10  1  0.13874000  0.54286000  0.97169900  1
  Si  Si11  1  0.36126000  0.52830100  0.95714000  1
  O  O0  1  0.50000000  0.50000000  0.00000000  1
  O  O1  1  0.67987500  0.25000000  0.82012500  1
  O  O2  1  0.00000000  0.50000000  0.00000000  1
  O  O3  1  0.82012500  0.67987500  0.25000000  1
  O  O4  1  0.52069100  0.97930900  0.75000000  1
  O  O5  1  0.03321400  0.46678600  0.75000000  1
  O  O6  1  0.75000000  0.03321400  0.46678600  1
  O  O7  1  0.53321400  0.25000000  0.96678600  1
  O  O8  1  0.96678600  0.53321400  0.25000000  1
  O  O9  1  0.32012500  0.75000000  0.17987500  1
  O  O10  1  0.47930900  0.02069100  0.25000000  1
  O  O11  1  0.75000000  0.52069100  0.97930900  1
  O  O12  1  0.25000000  0.47930900  0.02069100  1
  O  O13  1  0.25000000  0.82012500  0.67987500  1
  O  O14  1  0.25000000  0.96678600  0.53321400  1
  O  O15  1  0.50000000  0.00000000  0.00000000  1
  O  O16  1  0.00000000  0.50000000  0.50000000  1
  O  O17  1  0.50000000  0.00000000  0.50000000  1
  O  O18  1  0.46678600  0.75000000  0.03321400  1
  O  O19  1  0.97930900  0.75000000  0.52069100  1
  O  O20  1  0.17987500  0.32012500  0.75000000  1
  O  O21  1  0.75000000  0.17987500  0.32012500  1
  O  O22  1  0.02069100  0.25000000  0.47930900  1
  O  O23  1  0.00000000  0.00000000  0.50000000  1
loop_
_geom_bond_atom_site_label_1
_geom_bond_atom_site_label_2
_geom_bond_distance
_geom_bond_site_symmetry_2
O0 Si11 1.603173 1_554
O0 Si0 1.603173 1_555
O1 Si8 1.611579 1_555
O1 Si3 1.611579 1_556
O2 Si3 1.603174 1_455
O2 Si10 1.603174 1_554
O3 Si5 1.611579 1_655
O3 Si0 1.611579 1_555
O4 Si8 1.658888 1_565
O4 Si4 1.658888 1_565
O5 Si10 1.782878 1_555
O5 Si2 1.782878 1_455
O6 Si6 1.782878 1_555
O6 Si9 1.782878 1_545
O7 Si0 1.782878 1_556
O7 Si4 1.782878 1_555
O8 Si1 1.782878 1_655
O8 Si3 1.782878 1_555
O9 Si9 1.611579 1_555
O9 Si10 1.611579 1_554
O10 Si9 1.658888 1_545
O10 Si7 1.658888 1_545
O11 Si3 1.658888 1_556
O11 Si0 1.658888 1_556
O12 Si10 1.658888 1_554
O12 Si11 1.658888 1_554
O13 Si4 1.611579 1_565
O13 Si1 1.611579 1_555
O14 Si5 1.782878 1_555
O14 Si8 1.782878 1_565
O15 Si4 1.603174 1_554
O15 Si7 1.603174 1_545
O16 Si2 1.603174 1_455
O16 Si1 1.603174 1_555
O17 Si9 1.603174 1_545
O17 Si8 1.603174 1_555
O18 Si11 1.782878 1_554
O18 Si7 1.782878 1_555
O19 Si1 1.658888 1_655
O19 Si5 1.658888 1_655
O20 Si6 1.611579 1_455
O20 Si11 1.611579 1_555
O21 Si7 1.611579 1_545
O21 Si2 1.611579 1_555
O22 Si2 1.658888 1_455
O22 Si6 1.658888 1_455
O23 Si5 1.603173 1_545
O23 Si6 1.603173 1_455
