# generated using pymatgen
data_CeNi5Sn
_symmetry_space_group_name_H-M   'P 1'
_cell_length_a   4.88077736
_cell_length_b   4.88077736
_cell_length_c   19.67020100
_cell_angle_alpha   90.00000000
_cell_angle_beta   90.00000000
_cell_angle_gamma   119.99999133
_symmetry_Int_Tables_number   1
_chemical_formula_structural   CeNi5Sn
_chemical_formula_sum   'Ce4 Ni20 Sn4'
_cell_volume   405.80506420
_cell_formula_units_Z   4
loop_
 _symmetry_equiv_pos_site_id
 _symmetry_equiv_pos_as_xyz
  1  'x, y, z'
loop_
 _atom_site_type_symbol
 _atom_site_label
 _atom_site_symmetry_multiplicity
 _atom_site_fract_x
 _atom_site_fract_y
 _atom_site_fract_z
 _atom_site_occupancy
  Ce  Ce0  1  0.66666700  0.33333300  0.75000000  1
  Ce  Ce1  1  0.00000000  0.00000000  0.00000000  1
  Ce  Ce2  1  0.33333300  0.66666700  0.25000000  1
  Ce  Ce3  1  0.00000000  0.00000000  0.50000000  1
  Ni  Ni0  1  0.83394400  0.66788800  0.14569800  1
  Ni  Ni1  1  0.83394400  0.16605600  0.35430200  1
  Ni  Ni2  1  0.33211200  0.16605600  0.35430200  1
  Ni  Ni3  1  0.33333300  0.66666700  0.54230300  1
  Ni  Ni4  1  0.16605600  0.83394400  0.64569800  1
  Ni  Ni5  1  0.16605600  0.33211200  0.64569800  1
  Ni  Ni6  1  0.83394400  0.66788800  0.35430200  1
  Ni  Ni7  1  0.83394400  0.16605600  0.14569800  1
  Ni  Ni8  1  0.66788800  0.83394400  0.64569800  1
  Ni  Ni9  1  0.16605600  0.83394400  0.85430200  1
  Ni  Ni10  1  0.66666700  0.33333300  0.45769700  1
  Ni  Ni11  1  0.66788800  0.83394400  0.85430200  1
  Ni  Ni12  1  0.16605600  0.33211200  0.85430200  1
  Ni  Ni13  1  0.33211200  0.16605600  0.14569800  1
  Ni  Ni14  1  0.66666700  0.33333300  0.04230300  1
  Ni  Ni15  1  0.33333300  0.66666700  0.95769700  1
  Ni  Ni16  1  0.66666700  0.33333300  0.25000000  1
  Ni  Ni17  1  0.00000000  0.00000000  0.75000000  1
  Ni  Ni18  1  0.33333300  0.66666700  0.75000000  1
  Ni  Ni19  1  0.00000000  0.00000000  0.25000000  1
  Sn  Sn0  1  0.66666700  0.33333300  0.58779600  1
  Sn  Sn1  1  0.33333300  0.66666700  0.08779600  1
  Sn  Sn2  1  0.33333300  0.66666700  0.41220400  1
  Sn  Sn3  1  0.66666700  0.33333300  0.91220400  1
loop_
_geom_bond_atom_site_label_1
_geom_bond_atom_site_label_2
_geom_bond_distance
_geom_bond_site_symmetry_2
Ce0 Ni17 2.817915 1_655
Ce0 Ni18 2.817916 1_545
Ce0 Ni18 2.817916 1_655
Ce0 Ni17 2.817920 1_555
Ce0 Ni17 2.817920 1_665
Ce0 Ni18 2.817924 1_555
Ce0 Ni8 3.188220 1_545
Ce0 Ni5 3.188220 1_655
Ce0 Ni12 3.188220 1_655
Ce0 Ni11 3.188220 1_545
Ce0 Ni9 3.188222 1_545
Ce0 Ni9 3.188222 1_655
Ce0 Ni4 3.188222 1_545
Ce0 Ni4 3.188222 1_655
Ce0 Ni8 3.188223 1_555
Ce0 Ni5 3.188223 1_555
Ce0 Ni11 3.188223 1_555
Ce0 Ni12 3.188223 1_555
Ce0 Sn3 3.190585 1_555
Ce0 Sn0 3.190585 1_555
Ce1 Ni14 2.938205 1_455
Ce1 Ni15 2.938205 1_544
Ce1 Ni15 2.938210 1_444
Ce1 Ni15 2.938210 1_554
Ce1 Ni14 2.938210 1_445
Ce1 Ni14 2.938210 1_555
Ce1 Ni9 3.191250 1_544
Ce1 Ni7 3.191250 1_455
Ce1 Ni0 3.191250 1_445
Ce1 Ni11 3.191250 1_444
Ce1 Ni13 3.191250 1_555
Ce1 Ni12 3.191250 1_554
Ce1 Sn3 3.305004 1_454
Ce1 Sn1 3.305004 1_545
Ce1 Sn1 3.305008 1_445
Ce1 Sn3 3.305008 1_554
Ce1 Sn3 3.305008 1_444
Ce1 Sn1 3.305008 1_555
Ce2 Ni19 2.817915 1_565
Ce2 Ni16 2.817916 1_455
Ce2 Ni16 2.817916 1_565
Ce2 Ni19 2.817920 1_665
Ce2 Ni19 2.817920 1_555
Ce2 Ni16 2.817924 1_555
Ce2 Ni2 3.188220 1_565
Ce2 Ni13 3.188220 1_565
Ce2 Ni6 3.188220 1_455
Ce2 Ni0 3.188220 1_455
Ce2 Ni7 3.188222 1_565
Ce2 Ni1 3.188222 1_565
Ce2 Ni1 3.188222 1_455
Ce2 Ni7 3.188222 1_455
Ce2 Ni6 3.188223 1_555
Ce2 Ni13 3.188223 1_555
Ce2 Ni2 3.188223 1_555
Ce2 Ni0 3.188223 1_555
Ce2 Sn2 3.190585 1_555
Ce2 Sn1 3.190585 1_555
Ce3 Ni10 2.938205 1_455
Ce3 Ni3 2.938205 1_545
Ce3 Ni3 2.938210 1_555
Ce3 Ni3 2.938210 1_445
Ce3 Ni10 2.938210 1_445
Ce3 Ni10 2.938210 1_555
Ce3 Ni4 3.191250 1_545
Ce3 Ni1 3.191250 1_455
Ce3 Ni6 3.191250 1_445
Ce3 Ni8 3.191250 1_445
Ce3 Ni2 3.191250 1_555
Ce3 Ni5 3.191250 1_555
Ce3 Sn0 3.305004 1_455
Ce3 Sn2 3.305004 1_545
Ce3 Sn0 3.305008 1_555
Ce3 Sn2 3.305008 1_445
Ce3 Sn2 3.305008 1_555
Ce3 Sn0 3.305008 1_445
Ni0 Ni7 2.431447 1_565
Ni0 Ni13 2.431447 1_665
Ni0 Ni7 2.449330 1_555
Ni0 Ni13 2.449331 1_555
Ni0 Ni14 2.477113 1_555
Ni0 Ni19 2.485936 1_665
Ni0 Ni16 2.491782 1_555
Ni0 Sn1 2.693085 1_655
Ni0 Sn1 2.693089 1_555
Ni1 Ni6 2.431447 1_545
Ni1 Ni2 2.431447 1_655
Ni1 Ni2 2.449330 1_555
Ni1 Ni6 2.449330 1_555
Ni1 Ni10 2.477110 1_555
Ni1 Ni19 2.485936 1_655
Ni1 Ni16 2.491779 1_555
Ni1 Sn2 2.693087 1_545
Ni1 Sn2 2.693087 1_655
Ni2 Ni6 2.431447 1_445
Ni2 Ni6 2.449331 1_555
Ni2 Sn2 2.693085 1_545
Ni2 Sn2 2.693089 1_555
Ni3 Ni4 2.477110 1_555
Ni3 Ni8 2.477113 1_555
Ni3 Ni5 2.477113 1_555
Ni3 Sn2 2.559073 1_555
Ni3 Sn0 2.956589 1_455
Ni3 Sn0 2.956589 1_565
Ni3 Sn0 2.956596 1_555
Ni4 Ni8 2.431447 1_455
Ni4 Ni5 2.431447 1_565
Ni4 Ni8 2.449330 1_555
Ni4 Ni5 2.449330 1_555
Ni4 Sn0 2.693087 1_455
Ni4 Sn0 2.693087 1_565
Ni5 Ni8 2.431447 1_445
Ni5 Ni8 2.449331 1_555
Ni5 Sn0 2.693085 1_455
Ni5 Sn0 2.693089 1_555
Ni6 Sn2 2.693085 1_655
Ni6 Sn2 2.693089 1_555
Ni7 Sn1 2.693087 1_545
Ni7 Sn1 2.693087 1_655
Ni8 Sn0 2.693085 1_565
Ni8 Sn0 2.693089 1_555
Ni9 Sn3 2.693087 1_455
Ni9 Sn3 2.693087 1_565
Ni10 Ni6 2.477113 1_555
Ni10 Ni2 2.477113 1_555
Ni10 Sn0 2.559073 1_555
Ni10 Sn2 2.956589 1_545
Ni10 Sn2 2.956589 1_655
Ni10 Sn2 2.956596 1_555
Ni11 Ni9 2.431447 1_655
Ni11 Ni12 2.431447 1_665
Ni11 Ni9 2.449330 1_555
Ni11 Ni12 2.449331 1_555
Ni11 Ni15 2.477113 1_555
Ni11 Ni17 2.485936 1_665
Ni11 Ni18 2.491782 1_555
Ni11 Sn3 2.693085 1_565
Ni11 Sn3 2.693089 1_555
Ni12 Ni9 2.431447 1_545
Ni12 Ni9 2.449330 1_555
Ni12 Ni15 2.477113 1_555
Ni12 Ni17 2.485936 1_555
Ni12 Ni18 2.491782 1_555
Ni12 Sn3 2.693085 1_455
Ni12 Sn3 2.693089 1_555
Ni13 Ni7 2.431447 1_455
Ni13 Ni7 2.449330 1_555
Ni13 Ni14 2.477113 1_555
Ni13 Ni19 2.485936 1_555
Ni13 Ni16 2.491782 1_555
Ni13 Sn1 2.693085 1_545
Ni13 Sn1 2.693089 1_555
Ni14 Ni7 2.477110 1_555
Ni14 Sn3 2.559073 1_554
Ni14 Sn1 2.956589 1_545
Ni14 Sn1 2.956589 1_655
Ni14 Sn1 2.956596 1_555
Ni15 Ni9 2.477110 1_555
Ni15 Sn1 2.559073 1_556
Ni15 Sn3 2.956589 1_455
Ni15 Sn3 2.956589 1_565
Ni15 Sn3 2.956596 1_555
Ni16 Ni7 2.491779 1_555
Ni16 Ni2 2.491782 1_555
Ni16 Ni6 2.491782 1_555
Ni16 Ni19 2.817915 1_655
Ni16 Ni19 2.817920 1_555
Ni16 Ni19 2.817920 1_665
Ni17 Ni9 2.485936 1_545
Ni17 Ni4 2.485936 1_545
Ni17 Ni8 2.485936 1_445
Ni17 Ni5 2.485936 1_555
Ni17 Ni18 2.817915 1_545
Ni17 Ni18 2.817920 1_445
Ni17 Ni18 2.817920 1_555
Ni18 Ni4 2.491779 1_555
Ni18 Ni9 2.491779 1_555
Ni18 Ni8 2.491782 1_555
Ni18 Ni5 2.491782 1_555
Ni19 Ni7 2.485936 1_455
Ni19 Ni2 2.485936 1_555
Ni19 Ni6 2.485936 1_445
