# generated using pymatgen
data_KTa(BO3)2
_symmetry_space_group_name_H-M   'P 1'
_cell_length_a   3.95555300
_cell_length_b   7.49629400
_cell_length_c   9.47237300
_cell_angle_alpha   90.00000000
_cell_angle_beta   90.00000000
_cell_angle_gamma   90.00000000
_symmetry_Int_Tables_number   1
_chemical_formula_structural   KTa(BO3)2
_chemical_formula_sum   'K2 Ta2 B4 O12'
_cell_volume   280.87469262
_cell_formula_units_Z   2
loop_
 _symmetry_equiv_pos_site_id
 _symmetry_equiv_pos_as_xyz
  1  'x, y, z'
loop_
 _atom_site_type_symbol
 _atom_site_label
 _atom_site_symmetry_multiplicity
 _atom_site_fract_x
 _atom_site_fract_y
 _atom_site_fract_z
 _atom_site_occupancy
  K  K0  1  0.52376200  0.50000000  0.85659200  1
  K  K1  1  0.47623800  0.00000000  0.35659200  1
  Ta  Ta0  1  0.17543500  0.00000000  0.75650800  1
  Ta  Ta1  1  0.82456500  0.50000000  0.25650800  1
  B  B0  1  0.01889300  0.66643500  0.54377300  1
  B  B1  1  0.98110700  0.16643500  0.04377300  1
  B  B2  1  0.01889300  0.33356500  0.54377300  1
  B  B3  1  0.98110700  0.83356500  0.04377300  1
  O  O0  1  0.14826200  0.80925500  0.61420200  1
  O  O1  1  0.14826200  0.19074500  0.61420200  1
  O  O2  1  0.85173800  0.30925500  0.11420200  1
  O  O3  1  0.64514100  0.00000000  0.75835100  1
  O  O4  1  0.35485900  0.50000000  0.25835100  1
  O  O5  1  0.12310300  0.18408100  0.91344800  1
  O  O6  1  0.12310300  0.81591900  0.91344800  1
  O  O7  1  0.85173800  0.69074500  0.11420200  1
  O  O8  1  0.87689700  0.31591900  0.41344800  1
  O  O9  1  0.95260100  0.00000000  0.11250100  1
  O  O10  1  0.87689700  0.68408100  0.41344800  1
  O  O11  1  0.04739900  0.50000000  0.61250100  1
loop_
_geom_bond_atom_site_label_1
_geom_bond_atom_site_label_2
_geom_bond_distance
_geom_bond_site_symmetry_2
K0 O6 2.900035 1_555
K0 O5 2.900035 1_555
K0 O11 2.982685 1_555
K0 O11 3.104203 1_655
K0 O2 3.111605 1_556
K0 O7 3.111605 1_556
K1 O10 2.900035 1_545
K1 O8 2.900035 1_555
K1 O9 2.982685 1_555
K1 O9 3.104203 1_455
K1 O1 3.111605 1_555
K1 O0 3.111605 1_545
B0 O0 1.361306 1_555
B0 O10 1.362693 1_455
B0 O11 1.411792 1_555
B1 O2 1.361306 1_555
B1 O5 1.362693 1_654
B1 O9 1.411792 1_555
B2 O1 1.361306 1_555
B2 O8 1.362693 1_455
B2 O11 1.411792 1_555
B3 O7 1.361306 1_555
B3 O6 1.362693 1_654
B3 O9 1.411792 1_565
O0 Ta0 1.968032 1_565
O1 Ta0 1.968032 1_555
O2 Ta1 1.968032 1_555
O3 Ta0 1.858029 1_555
O3 Ta0 2.097679 1_655
O4 Ta1 1.858029 1_555
O4 Ta1 2.097679 1_455
O5 Ta0 2.038874 1_555
O6 Ta0 2.038874 1_565
O7 Ta1 1.968032 1_555
O8 Ta1 2.038874 1_555
O10 Ta1 2.038874 1_555
