# generated using pymatgen
data_K2Ag6Sn3S10
_symmetry_space_group_name_H-M   'P 1'
_cell_length_a   6.37279246
_cell_length_b   13.27846333
_cell_length_c   24.54836912
_cell_angle_alpha   90.00000000
_cell_angle_beta   90.00000000
_cell_angle_gamma   90.00000000
_symmetry_Int_Tables_number   1
_chemical_formula_structural   K2Ag6Sn3S10
_chemical_formula_sum   'K8 Ag24 Sn12 S40'
_cell_volume   2077.30486728
_cell_formula_units_Z   4
loop_
 _symmetry_equiv_pos_site_id
 _symmetry_equiv_pos_as_xyz
  1  'x, y, z'
loop_
 _atom_site_type_symbol
 _atom_site_label
 _atom_site_symmetry_multiplicity
 _atom_site_fract_x
 _atom_site_fract_y
 _atom_site_fract_z
 _atom_site_occupancy
  K  K0  1  0.07694755  0.21710719  0.82115602  1
  K  K1  1  0.92305245  0.71710719  0.82115602  1
  K  K2  1  0.42305245  0.78289281  0.32115602  1
  K  K3  1  0.07694755  0.28289281  0.17884398  1
  K  K4  1  0.42305245  0.71710719  0.67884398  1
  K  K5  1  0.57694755  0.21710719  0.67884398  1
  K  K6  1  0.92305245  0.78289281  0.17884398  1
  K  K7  1  0.57694755  0.28289281  0.32115602  1
  Ag  Ag0  1  0.41402386  0.58120351  0.04055623  1
  Ag  Ag1  1  0.55921294  0.28638223  0.09907911  1
  Ag  Ag2  1  0.49948316  0.52925605  0.40858936  1
  Ag  Ag3  1  0.05921294  0.28638223  0.40092089  1
  Ag  Ag4  1  0.94078706  0.78638223  0.40092089  1
  Ag  Ag5  1  0.49948316  0.97074395  0.59141064  1
  Ag  Ag6  1  0.99948316  0.52925605  0.09141064  1
  Ag  Ag7  1  0.58597614  0.41879649  0.95944377  1
  Ag  Ag8  1  0.55921294  0.21361777  0.90092089  1
  Ag  Ag9  1  0.58597614  0.08120351  0.04055623  1
  Ag  Ag10  1  0.44078706  0.78638223  0.09907911  1
  Ag  Ag11  1  0.91402386  0.58120351  0.45944377  1
  Ag  Ag12  1  0.91402386  0.91879649  0.54055623  1
  Ag  Ag13  1  0.08597614  0.08120351  0.45944377  1
  Ag  Ag14  1  0.50051684  0.47074395  0.59141064  1
  Ag  Ag15  1  0.00051684  0.47074395  0.90858936  1
  Ag  Ag16  1  0.99948316  0.97074395  0.90858936  1
  Ag  Ag17  1  0.41402386  0.91879649  0.95944377  1
  Ag  Ag18  1  0.00051684  0.02925605  0.09141064  1
  Ag  Ag19  1  0.94078706  0.71361777  0.59907911  1
  Ag  Ag20  1  0.50051684  0.02925605  0.40858936  1
  Ag  Ag21  1  0.08597614  0.41879649  0.54055623  1
  Ag  Ag22  1  0.44078706  0.71361777  0.90092089  1
  Ag  Ag23  1  0.05921294  0.21361777  0.59907911  1
  Sn  Sn0  1  0.54373696  0.44372840  0.79900687  1
  Sn  Sn1  1  0.46881599  0.75000000  0.50000000  1
  Sn  Sn2  1  0.04373696  0.05627160  0.29900687  1
  Sn  Sn3  1  0.04373696  0.44372840  0.70099313  1
  Sn  Sn4  1  0.03118401  0.25000000  0.00000000  1
  Sn  Sn5  1  0.95626304  0.94372840  0.70099313  1
  Sn  Sn6  1  0.45626304  0.94372840  0.79900687  1
  Sn  Sn7  1  0.54373696  0.05627160  0.20099313  1
  Sn  Sn8  1  0.45626304  0.55627160  0.20099313  1
  Sn  Sn9  1  0.96881599  0.75000000  0.00000000  1
  Sn  Sn10  1  0.53118401  0.25000000  0.50000000  1
  Sn  Sn11  1  0.95626304  0.55627160  0.29900687  1
  S  S0  1  0.30737043  0.12209199  0.54004003  1
  S  S1  1  0.65893564  0.96366873  0.12211613  1
  S  S2  1  0.19262957  0.62209199  0.95995997  1
  S  S3  1  0.65893564  0.53633127  0.87788387  1
  S  S4  1  0.40960835  0.76899796  0.80405053  1
  S  S5  1  0.34106436  0.46366873  0.12211613  1
  S  S6  1  0.25785971  0.66964302  0.43144549  1
  S  S7  1  0.32025046  0.00198982  0.71062306  1
  S  S8  1  0.59039165  0.23100204  0.19594947  1
  S  S9  1  0.74214029  0.33035698  0.56855451  1
  S  S10  1  0.80737043  0.12209199  0.95995997  1
  S  S11  1  0.90960835  0.73100204  0.30405053  1
  S  S12  1  0.19262957  0.87790801  0.04004003  1
  S  S13  1  0.84106436  0.46366873  0.37788387  1
  S  S14  1  0.59039165  0.26899796  0.80405053  1
  S  S15  1  0.24214029  0.16964302  0.06855451  1
  S  S16  1  0.30737043  0.37790801  0.45995997  1
  S  S17  1  0.09039165  0.26899796  0.69594947  1
  S  S18  1  0.34106436  0.03633127  0.87788387  1
  S  S19  1  0.84106436  0.03633127  0.62211613  1
  S  S20  1  0.75785971  0.66964302  0.06855451  1
  S  S21  1  0.69262957  0.87790801  0.45995997  1
  S  S22  1  0.15893564  0.53633127  0.62211613  1
  S  S23  1  0.74214029  0.16964302  0.43144549  1
  S  S24  1  0.90960835  0.76899796  0.69594947  1
  S  S25  1  0.25785971  0.83035698  0.56855451  1
  S  S26  1  0.67974954  0.50198982  0.71062306  1
  S  S27  1  0.17974954  0.99801018  0.21062306  1
  S  S28  1  0.15893564  0.96366873  0.37788387  1
  S  S29  1  0.09039165  0.23100204  0.30405053  1
  S  S30  1  0.82025046  0.00198982  0.78937694  1
  S  S31  1  0.32025046  0.49801018  0.28937694  1
  S  S32  1  0.80737043  0.37790801  0.04004003  1
  S  S33  1  0.67974954  0.99801018  0.28937694  1
  S  S34  1  0.40960835  0.73100204  0.19594947  1
  S  S35  1  0.24214029  0.33035698  0.93144549  1
  S  S36  1  0.69262957  0.62209199  0.54004003  1
  S  S37  1  0.82025046  0.49801018  0.21062306  1
  S  S38  1  0.17974954  0.50198982  0.78937694  1
  S  S39  1  0.75785971  0.83035698  0.93144549  1
loop_
_geom_bond_atom_site_label_1
_geom_bond_atom_site_label_2
_geom_bond_distance
_geom_bond_site_symmetry_2
K0 S17 3.151067 1_555
K0 S14 3.203990 1_455
K0 S18 3.245666 1_555
K0 S35 3.271052 1_555
K0 S14 3.370096 1_555
K0 S30 3.382879 1_455
K1 S24 3.151067 1_555
K1 S4 3.203990 1_655
K1 S3 3.245666 1_555
K1 S39 3.271052 1_555
K1 S4 3.370096 1_555
K1 S38 3.382879 1_655
K2 S34 3.151067 1_555
K2 S11 3.203990 1_555
K2 S28 3.245666 1_555
K2 S6 3.271052 1_555
K2 S11 3.370096 1_455
K2 S33 3.382879 1_555
K3 S29 3.151067 1_555
K3 S8 3.203990 1_455
K3 S5 3.245666 1_555
K3 S15 3.271052 1_555
K3 S8 3.370096 1_555
K3 S37 3.382879 1_455
K4 S4 3.151067 1_555
K4 S24 3.203990 1_555
K4 S22 3.245666 1_555
K4 S25 3.271052 1_555
K4 S24 3.370096 1_455
K4 S26 3.382879 1_555
K5 S14 3.151067 1_555
K5 S17 3.203990 1_555
K5 S19 3.245666 1_555
K5 S9 3.271052 1_555
K5 S17 3.370096 1_655
K5 S7 3.382879 1_555
K6 S11 3.151067 1_555
K6 S34 3.203990 1_655
K6 S1 3.245666 1_555
K6 S20 3.271052 1_555
K6 S34 3.370096 1_555
K6 S27 3.382879 1_655
K7 S8 3.151067 1_555
K7 S29 3.203990 1_555
K7 S13 3.245666 1_555
K7 S23 3.271052 1_555
K7 S29 3.370096 1_655
K7 S31 3.382879 1_555
Ag0 S2 2.489961 1_554
Ag0 S20 2.579304 1_555
Ag0 S5 2.580807 1_555
Ag1 S32 2.465465 1_555
Ag1 S8 2.497032 1_555
Ag1 S15 2.654682 1_555
Ag1 S5 2.791821 1_555
Ag2 S13 2.462764 1_555
Ag2 S6 2.482096 1_555
Ag2 S16 2.669823 1_555
Ag2 S31 3.168757 1_555
Ag3 S16 2.465465 1_555
Ag3 S29 2.497032 1_555
Ag3 S23 2.654682 1_455
Ag3 S13 2.791821 1_455
Ag4 S21 2.465465 1_555
Ag4 S11 2.497032 1_555
Ag4 S6 2.654682 1_655
Ag4 S28 2.791821 1_655
Ag5 S19 2.462764 1_565
Ag5 S25 2.482096 1_555
Ag5 S0 2.669823 1_565
Ag5 S7 3.168757 1_565
Ag6 S5 2.462764 1_655
Ag6 S20 2.482096 1_555
Ag6 S32 2.669823 1_555
Ag6 S37 3.168757 1_555
Ag7 S32 2.489961 1_556
Ag7 S35 2.579304 1_555
Ag7 S3 2.580807 1_555
Ag8 S10 2.465465 1_555
Ag8 S14 2.497032 1_555
Ag8 S35 2.654682 1_555
Ag8 S18 2.791821 1_555
Ag9 S10 2.489961 1_554
Ag9 S15 2.579304 1_555
Ag9 S1 2.580807 1_545
Ag10 S12 2.465465 1_555
Ag10 S34 2.497032 1_555
Ag10 S20 2.654682 1_555
Ag10 S1 2.791821 1_555
Ag11 S36 2.489961 1_555
Ag11 S6 2.579304 1_655
Ag11 S13 2.580807 1_555
Ag12 S21 2.489961 1_555
Ag12 S25 2.579304 1_655
Ag12 S19 2.580807 1_565
Ag13 S0 2.489961 1_555
Ag13 S23 2.579304 1_455
Ag13 S28 2.580807 1_545
Ag14 S22 2.462764 1_555
Ag14 S9 2.482096 1_555
Ag14 S36 2.669823 1_555
Ag14 S26 3.168757 1_555
Ag15 S3 2.462764 1_455
Ag15 S35 2.482096 1_555
Ag15 S2 2.669823 1_555
Ag15 S38 3.168757 1_555
Ag16 S18 2.462764 1_665
Ag16 S39 2.482096 1_555
Ag16 S10 2.669823 1_565
Ag16 S30 3.168757 1_565
Ag17 S12 2.489961 1_556
Ag17 S39 2.579304 1_555
Ag17 S18 2.580807 1_565
Ag18 S1 2.462764 1_445
Ag18 S15 2.482096 1_555
Ag18 S12 2.669823 1_545
Ag18 S27 3.168757 1_545
Ag19 S36 2.465465 1_555
Ag19 S24 2.497032 1_555
Ag19 S25 2.654682 1_655
Ag19 S22 2.791821 1_655
Ag20 S28 2.462764 1_545
Ag20 S23 2.482096 1_555
Ag20 S21 2.669823 1_545
Ag20 S33 3.168757 1_545
Ag21 S16 2.489961 1_555
Ag21 S9 2.579304 1_455
Ag21 S22 2.580807 1_555
Ag22 S2 2.465465 1_555
Ag22 S4 2.497032 1_555
Ag22 S39 2.654682 1_555
Ag22 S3 2.791821 1_555
Ag23 S0 2.465465 1_555
Ag23 S17 2.497032 1_555
Ag23 S9 2.654682 1_455
Ag23 S19 2.791821 1_455
S0 Sn10 2.425932 1_555
S1 Sn7 2.408360 1_565
S2 Sn9 2.425932 1_456
S3 Sn0 2.408360 1_555
S4 Sn6 2.342399 1_555
S5 Sn8 2.408360 1_555
S6 Sn1 2.403756 1_555
S7 Sn5 2.456623 1_445
S7 Sn6 2.461159 1_545
S8 Sn7 2.342399 1_555
S9 Sn10 2.403756 1_555
S10 Sn4 2.425932 1_656
S11 Sn11 2.342399 1_555
S12 Sn9 2.425932 1_455
S13 Sn11 2.408360 1_555
S14 Sn0 2.342399 1_555
S15 Sn4 2.403756 1_555
S16 Sn10 2.425932 1_555
S17 Sn3 2.342399 1_555
S18 Sn6 2.408360 1_545
S19 Sn5 2.408360 1_545
S20 Sn9 2.403756 1_555
S21 Sn1 2.425932 1_555
S22 Sn3 2.408360 1_555
S23 Sn10 2.403756 1_555
S24 Sn5 2.342399 1_555
S25 Sn1 2.403756 1_555
S26 Sn3 2.456623 1_655
S26 Sn0 2.461159 1_555
S27 Sn7 2.456623 1_565
S27 Sn2 2.461159 1_565
S28 Sn2 2.408360 1_565
S29 Sn2 2.342399 1_555
S30 Sn6 2.456623 1_545
S30 Sn5 2.461159 1_545
S31 Sn11 2.456623 1_455
S31 Sn8 2.461159 1_555
S32 Sn4 2.425932 1_655
S33 Sn2 2.456623 1_665
S33 Sn7 2.461159 1_565
S34 Sn8 2.342399 1_555
S35 Sn4 2.403756 1_556
S36 Sn1 2.425932 1_555
S37 Sn8 2.456623 1_555
S37 Sn11 2.461159 1_555
S38 Sn0 2.456623 1_555
S38 Sn3 2.461159 1_555
S39 Sn9 2.403756 1_556
