# generated using pymatgen
data_K3WS3ClO
_symmetry_space_group_name_H-M   'P 1'
_cell_length_a   6.43546600
_cell_length_b   12.58444600
_cell_length_c   12.73337000
_cell_angle_alpha   90.00000000
_cell_angle_beta   90.00000000
_cell_angle_gamma   90.00000000
_symmetry_Int_Tables_number   1
_chemical_formula_structural   K3WS3ClO
_chemical_formula_sum   'K12 W4 S12 Cl4 O4'
_cell_volume   1031.23456306
_cell_formula_units_Z   4
loop_
 _symmetry_equiv_pos_site_id
 _symmetry_equiv_pos_as_xyz
  1  'x, y, z'
loop_
 _atom_site_type_symbol
 _atom_site_label
 _atom_site_symmetry_multiplicity
 _atom_site_fract_x
 _atom_site_fract_y
 _atom_site_fract_z
 _atom_site_occupancy
  K  K0  1  0.60268100  0.75991500  0.73547400  1
  K  K1  1  0.03857100  0.00173300  0.70362400  1
  K  K2  1  0.03857100  0.50173300  0.79637600  1
  K  K3  1  0.39731900  0.25991500  0.26452600  1
  K  K4  1  0.96142900  0.50173300  0.29637600  1
  K  K5  1  0.96142900  0.00173300  0.20362400  1
  K  K6  1  0.58468300  0.99901800  0.48041800  1
  K  K7  1  0.58468300  0.49901800  0.01958200  1
  K  K8  1  0.39731900  0.75991500  0.23547400  1
  K  K9  1  0.41531700  0.49901800  0.51958200  1
  K  K10  1  0.41531700  0.99901800  0.98041800  1
  K  K11  1  0.60268100  0.25991500  0.76452600  1
  W  W0  1  0.99722200  0.75044400  0.49436400  1
  W  W1  1  0.00277800  0.75044400  0.99436400  1
  W  W2  1  0.99722200  0.25044400  0.00563600  1
  W  W3  1  0.00277800  0.25044400  0.50563600  1
  S  S0  1  0.65742700  0.76903500  0.00509100  1
  S  S1  1  0.10097300  0.27023600  0.67335700  1
  S  S2  1  0.91341900  0.08666700  0.95124900  1
  S  S3  1  0.34257300  0.26903500  0.99490900  1
  S  S4  1  0.34257300  0.76903500  0.50509100  1
  S  S5  1  0.89902700  0.77023600  0.32664300  1
  S  S6  1  0.08658100  0.08666700  0.45124900  1
  S  S7  1  0.10097300  0.77023600  0.82664300  1
  S  S8  1  0.89902700  0.27023600  0.17335700  1
  S  S9  1  0.08658100  0.58666700  0.04875100  1
  S  S10  1  0.91341900  0.58666700  0.54875100  1
  S  S11  1  0.65742700  0.26903500  0.49490900  1
  Cl  Cl0  1  0.47465600  0.01207800  0.23203800  1
  Cl  Cl1  1  0.52534400  0.01207800  0.73203800  1
  Cl  Cl2  1  0.47465600  0.51207800  0.26796200  1
  Cl  Cl3  1  0.52534400  0.51207800  0.76796200  1
  O  O0  1  0.86772100  0.34677400  0.92519300  1
  O  O1  1  0.86772100  0.84677400  0.57480700  1
  O  O2  1  0.13227900  0.84677400  0.07480700  1
  O  O3  1  0.13227900  0.34677400  0.42519300  1
loop_
_geom_bond_atom_site_label_1
_geom_bond_atom_site_label_2
_geom_bond_distance
_geom_bond_site_symmetry_2
K0 O1 2.879149 1_555
K0 S4 3.379481 1_555
K0 S7 3.412876 1_655
K0 S7 3.433540 1_555
K0 S0 3.453071 1_556
K1 O1 2.775281 1_445
K1 S7 3.331984 1_545
K1 S6 3.400738 1_555
K1 S1 3.424498 1_555
K1 S2 3.425371 1_455
K2 O0 2.775281 1_455
K2 S1 3.331984 1_555
K2 S9 3.400738 1_556
K2 S7 3.424498 1_555
K2 S10 3.425371 1_455
K3 O3 2.879149 1_555
K3 S11 3.379481 1_555
K3 S8 3.412876 1_455
K3 S8 3.433540 1_555
K3 S3 3.453071 1_554
K4 O3 2.775281 1_655
K4 S8 3.331984 1_555
K4 S10 3.400738 1_555
K4 S5 3.424498 1_555
K4 S9 3.425371 1_655
K5 O2 2.775281 1_645
K5 S5 3.331984 1_545
K5 S2 3.400738 1_554
K5 S8 3.424498 1_555
K5 S6 3.425371 1_655
K6 O1 2.903968 1_555
K6 S4 3.301938 1_555
K6 S6 3.410270 1_565
K6 S6 3.433242 1_665
K6 S11 3.435070 1_565
K7 O0 2.903968 1_554
K7 S3 3.301938 1_554
K7 S9 3.410270 1_555
K7 S9 3.433242 1_655
K7 S0 3.435070 1_555
K8 O2 2.879149 1_555
K8 S0 3.379481 1_555
K8 S5 3.412876 1_455
K8 S5 3.433540 1_555
K8 S4 3.453071 1_555
K9 O3 2.903968 1_555
K9 S11 3.301938 1_555
K9 S10 3.410270 1_555
K9 S10 3.433242 1_455
K9 S4 3.435070 1_555
K10 O2 2.903968 1_556
K10 S0 3.301938 1_556
K10 S2 3.410270 1_565
K10 S2 3.433242 1_465
K10 S3 3.435070 1_565
K11 O0 2.879149 1_555
K11 S3 3.379481 1_555
K11 S1 3.412876 1_655
K11 S1 3.433540 1_555
K11 S11 3.453071 1_555
S0 W1 2.238945 1_654
S1 W3 2.241069 1_555
S2 W2 2.240168 1_556
S3 W2 2.238945 1_456
S4 W0 2.238945 1_455
S5 W0 2.241069 1_555
S6 W3 2.240168 1_555
S7 W1 2.241069 1_555
S8 W2 2.241069 1_555
S9 W1 2.240168 1_554
S10 W0 2.240168 1_555
S11 W3 2.238945 1_655
Cl0 K5 3.156122 1_555
Cl0 K3 3.185329 1_555
Cl0 K8 3.212422 1_545
Cl0 K10 3.230831 1_544
Cl0 K6 3.245173 1_545
Cl0 K5 3.325162 1_455
Cl1 K1 3.156122 1_555
Cl1 K11 3.185329 1_555
Cl1 K0 3.212422 1_545
Cl1 K6 3.230831 1_545
Cl1 K10 3.245173 1_545
Cl1 K1 3.325162 1_655
Cl2 K4 3.156122 1_555
Cl2 K8 3.185329 1_555
Cl2 K3 3.212422 1_555
Cl2 K9 3.230831 1_555
Cl2 K7 3.245173 1_555
Cl2 K4 3.325162 1_455
Cl3 K2 3.156122 1_555
Cl3 K0 3.185329 1_555
Cl3 K11 3.212422 1_555
Cl3 K7 3.230831 1_556
Cl3 K9 3.245173 1_555
Cl3 K2 3.325162 1_655
O0 W2 1.792579 1_556
O1 W0 1.792579 1_555
O2 W1 1.792579 1_554
O3 W3 1.792579 1_555
