# generated using pymatgen
data_CuMoO4
_symmetry_space_group_name_H-M   'P 1'
_cell_length_a   8.34805208
_cell_length_b   8.84748401
_cell_length_c   9.56229500
_cell_angle_alpha   90.00000000
_cell_angle_beta   90.00000000
_cell_angle_gamma   106.50515193
_symmetry_Int_Tables_number   1
_chemical_formula_structural   CuMoO4
_chemical_formula_sum   'Cu8 Mo8 O32'
_cell_volume   677.16182820
_cell_formula_units_Z   8
loop_
 _symmetry_equiv_pos_site_id
 _symmetry_equiv_pos_as_xyz
  1  'x, y, z'
loop_
 _atom_site_type_symbol
 _atom_site_label
 _atom_site_symmetry_multiplicity
 _atom_site_fract_x
 _atom_site_fract_y
 _atom_site_fract_z
 _atom_site_occupancy
  Cu  Cu0  1  0.67761700  0.26300100  0.99260700  1
  Cu  Cu1  1  0.16206900  0.17858900  0.50172400  1
  Cu  Cu2  1  0.82238300  0.23699900  0.49260700  1
  Cu  Cu3  1  0.32238300  0.73699900  0.00739300  1
  Cu  Cu4  1  0.17761700  0.76300100  0.50739300  1
  Cu  Cu5  1  0.66206900  0.67858900  0.99827600  1
  Cu  Cu6  1  0.83793100  0.82141100  0.49827600  1
  Cu  Cu7  1  0.33793100  0.32141100  0.00172400  1
  Mo  Mo0  1  0.54627900  0.90793300  0.72852500  1
  Mo  Mo1  1  0.04627900  0.40793300  0.77147500  1
  Mo  Mo2  1  0.95372100  0.59206700  0.22852500  1
  Mo  Mo3  1  0.53747900  0.38001600  0.68946000  1
  Mo  Mo4  1  0.45372100  0.09206700  0.27147500  1
  Mo  Mo5  1  0.96252100  0.11998400  0.18946000  1
  Mo  Mo6  1  0.03747900  0.88001600  0.81054000  1
  Mo  Mo7  1  0.46252100  0.61998400  0.31054000  1
  O  O0  1  0.14732300  0.25727700  0.11984900  1
  O  O1  1  0.35267700  0.24272300  0.61984900  1
  O  O2  1  0.87852800  0.35169100  0.89298400  1
  O  O3  1  0.85267700  0.74272300  0.88015100  1
  O  O4  1  0.93536500  0.39821200  0.28277000  1
  O  O5  1  0.54843500  0.38370700  0.89018200  1
  O  O6  1  0.97477700  0.71521400  0.39248100  1
  O  O7  1  0.95156500  0.11629300  0.39018200  1
  O  O8  1  0.73024400  0.36757400  0.60906300  1
  O  O9  1  0.45156500  0.61629300  0.10981800  1
  O  O10  1  0.02522300  0.28478600  0.60751900  1
  O  O11  1  0.64732300  0.75727700  0.38015100  1
  O  O12  1  0.12147200  0.64830900  0.10701600  1
  O  O13  1  0.02838000  0.06863500  0.85122500  1
  O  O14  1  0.43536500  0.89821200  0.21723000  1
  O  O15  1  0.76050800  0.57949300  0.13943800  1
  O  O16  1  0.73949200  0.92050700  0.63943800  1
  O  O17  1  0.97162000  0.93136500  0.14877500  1
  O  O18  1  0.23949200  0.42050700  0.86056200  1
  O  O19  1  0.37852800  0.85169100  0.60701600  1
  O  O20  1  0.06463500  0.60178800  0.71723000  1
  O  O21  1  0.47477700  0.21521400  0.10751900  1
  O  O22  1  0.47162000  0.43136500  0.35122500  1
  O  O23  1  0.23024400  0.86757400  0.89093700  1
  O  O24  1  0.26975600  0.63242600  0.39093700  1
  O  O25  1  0.62147200  0.14830900  0.39298400  1
  O  O26  1  0.52838000  0.56863500  0.64877500  1
  O  O27  1  0.56463500  0.10178800  0.78277000  1
  O  O28  1  0.26050800  0.07949300  0.36056200  1
  O  O29  1  0.04843500  0.88370700  0.60981800  1
  O  O30  1  0.52522300  0.78478600  0.89248100  1
  O  O31  1  0.76975600  0.13242600  0.10906300  1
loop_
_geom_bond_atom_site_label_1
_geom_bond_atom_site_label_2
_geom_bond_distance
_geom_bond_site_symmetry_2
Cu0 O2 1.894326 1_555
Cu0 O31 1.916050 1_556
Cu0 O21 1.961301 1_556
Cu0 O5 1.979178 1_555
Cu0 O27 2.487116 1_555
Cu1 O1 1.901777 1_555
Cu1 O28 1.917143 1_555
Cu1 O10 1.954786 1_555
Cu1 O7 1.994786 1_455
Cu2 O25 1.894326 1_555
Cu2 O8 1.916050 1_555
Cu2 O10 1.961301 1_655
Cu2 O7 1.979178 1_555
Cu2 O4 2.487116 1_555
Cu3 O12 1.894326 1_555
Cu3 O23 1.916050 1_554
Cu3 O30 1.961301 1_554
Cu3 O9 1.979178 1_555
Cu3 O14 2.487116 1_555
Cu4 O19 1.894326 1_555
Cu4 O24 1.916050 1_555
Cu4 O6 1.961301 1_455
Cu4 O29 1.979178 1_555
Cu4 O20 2.487116 1_555
Cu5 O3 1.901777 1_555
Cu5 O15 1.917143 1_556
Cu5 O30 1.954786 1_555
Cu5 O9 1.994786 1_556
Cu6 O11 1.901777 1_555
Cu6 O16 1.917143 1_555
Cu6 O6 1.954786 1_555
Cu6 O29 1.994786 1_655
Cu7 O0 1.901777 1_555
Cu7 O18 1.917143 1_554
Cu7 O21 1.954786 1_555
Cu7 O5 1.994786 1_554
Mo0 O27 1.756380 1_565
Mo0 O19 1.778423 1_555
Mo0 O16 1.799368 1_555
Mo0 O30 1.888693 1_555
Mo1 O20 1.756380 1_555
Mo1 O2 1.778423 1_455
Mo1 O18 1.799368 1_555
Mo1 O10 1.888693 1_555
Mo2 O4 1.756380 1_555
Mo2 O12 1.778423 1_655
Mo2 O15 1.799368 1_555
Mo2 O6 1.888693 1_555
Mo3 O26 1.736103 1_555
Mo3 O1 1.798281 1_555
Mo3 O8 1.814761 1_555
Mo3 O5 1.921377 1_555
Mo4 O14 1.756380 1_545
Mo4 O25 1.778423 1_555
Mo4 O28 1.799368 1_555
Mo4 O21 1.888693 1_555
Mo5 O17 1.736103 1_545
Mo5 O0 1.798281 1_655
Mo5 O31 1.814761 1_555
Mo5 O7 1.921377 1_555
Mo6 O13 1.736103 1_565
Mo6 O3 1.798281 1_455
Mo6 O23 1.814761 1_555
Mo6 O29 1.921377 1_555
Mo7 O22 1.736103 1_555
Mo7 O11 1.798281 1_555
Mo7 O24 1.814761 1_555
Mo7 O9 1.921377 1_555
