# generated using pymatgen
data_Ba6Eu(ClF6)2
_symmetry_space_group_name_H-M   'P 1'
_cell_length_a   10.68737367
_cell_length_b   10.68737367
_cell_length_c   4.21618700
_cell_angle_alpha   90.00000000
_cell_angle_beta   90.00000000
_cell_angle_gamma   119.99999794
_symmetry_Int_Tables_number   1
_chemical_formula_structural   Ba6Eu(ClF6)2
_chemical_formula_sum   'Ba6 Eu1 Cl2 F12'
_cell_volume   417.05419478
_cell_formula_units_Z   1
loop_
 _symmetry_equiv_pos_site_id
 _symmetry_equiv_pos_as_xyz
  1  'x, y, z'
loop_
 _atom_site_type_symbol
 _atom_site_label
 _atom_site_symmetry_multiplicity
 _atom_site_fract_x
 _atom_site_fract_y
 _atom_site_fract_z
 _atom_site_occupancy
  Ba  Ba0  1  0.10875700  0.40669500  0.00000000  1
  Ba  Ba1  1  0.29793900  0.89124300  0.00000000  1
  Ba  Ba2  1  0.59330500  0.70206100  0.00000000  1
  Ba  Ba3  1  0.71497300  0.11149700  0.50000000  1
  Ba  Ba4  1  0.88850300  0.60347500  0.50000000  1
  Ba  Ba5  1  0.39652500  0.28502700  0.50000000  1
  Eu  Eu0  1  0.00000000  0.00000000  0.00000000  1
  Cl  Cl0  1  0.33333300  0.66666700  0.50000000  1
  Cl  Cl1  1  0.66666700  0.33333300  0.00000000  1
  F  F0  1  0.88440000  0.14515500  0.00000000  1
  F  F1  1  0.09536600  0.88696300  0.50000000  1
  F  F2  1  0.79159700  0.90463400  0.50000000  1
  F  F3  1  0.06272900  0.63184800  0.00000000  1
  F  F4  1  0.36815200  0.43088100  0.00000000  1
  F  F5  1  0.61420800  0.56301300  0.50000000  1
  F  F6  1  0.56911900  0.93727100  0.00000000  1
  F  F7  1  0.43698700  0.05119500  0.50000000  1
  F  F8  1  0.26075500  0.11560000  0.00000000  1
  F  F9  1  0.94880500  0.38579200  0.50000000  1
  F  F10  1  0.11303700  0.20840300  0.50000000  1
  F  F11  1  0.85484500  0.73924500  0.00000000  1
loop_
_geom_bond_atom_site_label_1
_geom_bond_atom_site_label_2
_geom_bond_distance
_geom_bond_site_symmetry_2
Ba0 F0 2.619190 1_455
Ba0 F9 2.652235 1_455
Ba0 F9 2.652235 1_454
Ba0 F4 2.652472 1_555
Ba0 F3 2.686249 1_555
Ba0 F10 3.005692 1_554
Ba0 F10 3.005692 1_555
Ba0 Cl0 3.354955 1_554
Ba0 Cl0 3.354955 1_555
Ba1 F8 2.619196 1_565
Ba1 F7 2.652232 1_564
Ba1 F7 2.652232 1_565
Ba1 F3 2.652476 1_555
Ba1 F6 2.686239 1_555
Ba1 F1 3.005700 1_554
Ba1 F1 3.005700 1_555
Ba1 Cl0 3.354944 1_554
Ba1 Cl0 3.354944 1_555
Ba2 F11 2.619185 1_555
Ba2 F5 2.652228 1_554
Ba2 F5 2.652228 1_555
Ba2 F6 2.652482 1_555
Ba2 F4 2.686243 1_555
Ba2 F2 3.005696 1_554
Ba2 F2 3.005696 1_555
Ba2 Cl0 3.354961 1_554
Ba2 Cl0 3.354961 1_555
Ba3 F0 2.683440 1_555
Ba3 F0 2.683440 1_556
Ba3 F7 2.706870 1_555
Ba3 F2 2.714555 1_545
Ba3 F6 2.727363 1_546
Ba3 F6 2.727363 1_545
Ba3 F9 2.740977 1_555
Ba3 Cl1 3.399334 1_555
Ba3 Cl1 3.399334 1_556
Ba4 F11 2.683446 1_556
Ba4 F11 2.683446 1_555
Ba4 F9 2.706860 1_555
Ba4 F1 2.714563 1_655
Ba4 F3 2.727361 1_656
Ba4 F3 2.727361 1_655
Ba4 F5 2.740981 1_555
Ba4 Cl1 3.399334 1_555
Ba4 Cl1 3.399334 1_556
Ba5 F8 2.683442 1_556
Ba5 F8 2.683442 1_555
Ba5 F5 2.706867 1_555
Ba5 F10 2.714566 1_555
Ba5 F4 2.727367 1_556
Ba5 F4 2.727367 1_555
Ba5 F7 2.740970 1_555
Ba5 Cl1 3.399334 1_555
Ba5 Cl1 3.399334 1_556
Eu0 F0 2.418590 1_455
Eu0 F8 2.418590 1_555
Eu0 F11 2.418590 1_445
Eu0 F1 2.858944 1_545
Eu0 F1 2.858944 1_544
Eu0 F2 2.858944 1_444
Eu0 F2 2.858944 1_445
Eu0 F10 2.858944 1_555
Eu0 F10 2.858944 1_554
