# generated using pymatgen
data_Cs7Ni4F15
_symmetry_space_group_name_H-M   'P 1'
_cell_length_a   10.84930163
_cell_length_b   7.85524804
_cell_length_c   11.43301189
_cell_angle_alpha   87.18509327
_cell_angle_beta   90.00000000
_cell_angle_gamma   90.00000000
_symmetry_Int_Tables_number   1
_chemical_formula_structural   Cs7Ni4F15
_chemical_formula_sum   'Cs14 Ni8 F30'
_cell_volume   973.19081820
_cell_formula_units_Z   2
loop_
 _symmetry_equiv_pos_site_id
 _symmetry_equiv_pos_as_xyz
  1  'x, y, z'
loop_
 _atom_site_type_symbol
 _atom_site_label
 _atom_site_symmetry_multiplicity
 _atom_site_fract_x
 _atom_site_fract_y
 _atom_site_fract_z
 _atom_site_occupancy
  Cs  Cs0  1  0.68036979  0.50351354  0.52783450  1
  Cs  Cs1  1  0.31963021  0.49648646  0.47216550  1
  Cs  Cs2  1  0.81963021  0.50351354  0.02783450  1
  Cs  Cs3  1  0.34570797  0.16265503  0.19619438  1
  Cs  Cs4  1  0.99520744  0.66920058  0.66772863  1
  Cs  Cs5  1  0.65429203  0.83734497  0.80380562  1
  Cs  Cs6  1  0.00479256  0.33079942  0.33227137  1
  Cs  Cs7  1  0.00000000  0.00000000  0.00000000  1
  Cs  Cs8  1  0.15429203  0.16265503  0.69619438  1
  Cs  Cs9  1  0.49520744  0.33079942  0.83227137  1
  Cs  Cs10  1  0.18036979  0.49648646  0.97216550  1
  Cs  Cs11  1  0.50000000  0.00000000  0.50000000  1
  Cs  Cs12  1  0.84570797  0.83734497  0.30380562  1
  Cs  Cs13  1  0.50479256  0.66920058  0.16772863  1
  Ni  Ni0  1  0.17311578  0.74220744  0.22961092  1
  Ni  Ni1  1  0.33767156  0.92289894  0.92881298  1
  Ni  Ni2  1  0.83767156  0.07710106  0.57118702  1
  Ni  Ni3  1  0.82688422  0.25779256  0.77038908  1
  Ni  Ni4  1  0.16232844  0.92289894  0.42881298  1
  Ni  Ni5  1  0.66232844  0.07710106  0.07118702  1
  Ni  Ni6  1  0.32688422  0.74220744  0.72961092  1
  Ni  Ni7  1  0.67311578  0.25779256  0.27038908  1
  F  F0  1  0.52732026  0.33118684  0.35624396  1
  F  F1  1  0.19062331  0.82977508  0.83674018  1
  F  F2  1  0.97267974  0.33118684  0.85624396  1
  F  F3  1  0.59276658  0.31028144  0.10658284  1
  F  F4  1  0.76405707  0.85273304  0.55542232  1
  F  F5  1  0.40723342  0.68971856  0.89341716  1
  F  F6  1  0.69062331  0.17022492  0.66325982  1
  F  F7  1  0.60232154  0.02135744  0.23918071  1
  F  F8  1  0.25181935  0.51503660  0.72220194  1
  F  F9  1  0.89767846  0.02135744  0.73918071  1
  F  F10  1  0.80937669  0.17022492  0.16325982  1
  F  F11  1  0.09276658  0.68971856  0.39341716  1
  F  F12  1  0.26471180  0.83185036  0.08287855  1
  F  F13  1  0.39767846  0.97864256  0.76081929  1
  F  F14  1  0.75181935  0.48496340  0.77779806  1
  F  F15  1  0.76471180  0.16814964  0.41712145  1
  F  F16  1  0.10232154  0.97864256  0.26081929  1
  F  F17  1  0.73528820  0.16814964  0.91712145  1
  F  F18  1  0.02732026  0.66881316  0.14375604  1
  F  F19  1  0.90723342  0.31028144  0.60658284  1
  F  F20  1  0.73594293  0.85273304  0.05542232  1
  F  F21  1  0.23594293  0.14726696  0.44457768  1
  F  F22  1  0.30937669  0.82977508  0.33674018  1
  F  F23  1  0.26405707  0.14726696  0.94457768  1
  F  F24  1  0.74818065  0.48496340  0.27779806  1
  F  F25  1  0.47267974  0.66881316  0.64375604  1
  F  F26  1  0.24818065  0.51503660  0.22220194  1
  F  F27  1  0.23528820  0.83185036  0.58287855  1
  F  F28  1  0.00000000  0.00000000  0.50000000  1
  F  F29  1  0.50000000  0.00000000  0.00000000  1
loop_
_geom_bond_atom_site_label_1
_geom_bond_atom_site_label_2
_geom_bond_distance
_geom_bond_site_symmetry_2
Cs0 F4 2.921304 1_555
Cs0 F25 2.947691 1_555
Cs0 F0 2.949423 1_555
Cs0 F14 2.957780 1_555
Cs0 F24 2.962329 1_555
Cs0 F6 2.977548 1_555
Cs0 F19 3.006394 1_555
Cs0 F15 3.115595 1_555
Cs1 F21 2.921304 1_555
Cs1 F0 2.947691 1_555
Cs1 F25 2.949423 1_555
Cs1 F26 2.957780 1_555
Cs1 F8 2.962329 1_555
Cs1 F22 2.977548 1_555
Cs1 F11 3.006394 1_555
Cs1 F27 3.115595 1_555
Cs2 F20 2.921304 1_555
Cs2 F18 2.947691 1_655
Cs2 F2 2.949423 1_554
Cs2 F24 2.957780 1_555
Cs2 F14 2.962329 1_554
Cs2 F10 2.977548 1_555
Cs2 F3 3.006394 1_555
Cs2 F17 3.115595 1_554
Cs3 F26 2.991807 1_555
Cs3 F23 3.018132 1_554
Cs3 F22 3.026904 1_545
Cs3 F7 3.028364 1_555
Cs3 F0 3.036647 1_555
Cs3 F3 3.076094 1_555
Cs3 F21 3.076259 1_555
Cs3 F16 3.082694 1_545
Cs3 F12 3.087680 1_545
Cs3 F29 3.122116 1_555
Cs4 F27 3.039120 1_655
Cs4 F8 3.087280 1_655
Cs4 F19 3.089061 1_555
Cs4 F9 3.108251 1_565
Cs4 F4 3.135997 1_555
Cs4 F28 3.153235 1_665
Cs4 F1 3.171618 1_655
Cs4 F14 3.236038 1_555
Cs4 F11 3.306423 1_655
Cs4 F2 3.345588 1_555
Cs5 F14 2.991807 1_555
Cs5 F20 3.018132 1_556
Cs5 F6 3.026904 1_565
Cs5 F13 3.028364 1_555
Cs5 F25 3.036647 1_555
Cs5 F5 3.076094 1_555
Cs5 F4 3.076259 1_555
Cs5 F9 3.082694 1_565
Cs5 F17 3.087680 1_565
Cs5 F29 3.122116 1_566
Cs6 F15 3.039120 1_455
Cs6 F24 3.087280 1_455
Cs6 F11 3.089061 1_555
Cs6 F16 3.108251 1_545
Cs6 F21 3.135997 1_555
Cs6 F28 3.153235 1_555
Cs6 F10 3.171618 1_455
Cs6 F26 3.236038 1_555
Cs6 F19 3.306423 1_455
Cs6 F18 3.345588 1_555
Cs7 F18 3.022793 1_545
Cs7 F2 3.022793 1_454
Cs7 F10 3.129587 1_455
Cs7 F1 3.129587 1_544
Cs7 F20 3.142454 1_445
Cs7 F23 3.142454 1_554
Cs7 F16 3.178584 1_545
Cs7 F9 3.178584 1_454
Cs7 F12 3.281405 1_545
Cs7 F17 3.281405 1_454
Cs8 F8 2.991807 1_555
Cs8 F21 3.018132 1_555
Cs8 F1 3.026904 1_545
Cs8 F9 3.028364 1_455
Cs8 F2 3.036647 1_455
Cs8 F19 3.076094 1_455
Cs8 F23 3.076259 1_555
Cs8 F13 3.082694 1_545
Cs8 F27 3.087680 1_545
Cs8 F28 3.122116 1_555
Cs9 F17 3.039120 1_555
Cs9 F14 3.087280 1_555
Cs9 F5 3.089061 1_555
Cs9 F13 3.108251 1_545
Cs9 F23 3.135997 1_555
Cs9 F29 3.153235 1_556
Cs9 F6 3.171618 1_555
Cs9 F8 3.236038 1_555
Cs9 F3 3.306423 1_556
Cs9 F25 3.345588 1_555
Cs10 F23 2.921304 1_555
Cs10 F2 2.947691 1_455
Cs10 F18 2.949423 1_556
Cs10 F8 2.957780 1_555
Cs10 F26 2.962329 1_556
Cs10 F1 2.977548 1_555
Cs10 F5 3.006394 1_555
Cs10 F12 3.115595 1_556
Cs11 F0 3.022793 1_555
Cs11 F25 3.022793 1_545
Cs11 F22 3.129587 1_545
Cs11 F6 3.129587 1_555
Cs11 F4 3.142454 1_545
Cs11 F21 3.142454 1_555
Cs11 F13 3.178584 1_545
Cs11 F7 3.178584 1_555
Cs11 F27 3.281405 1_545
Cs11 F15 3.281405 1_555
Cs12 F24 2.991807 1_555
Cs12 F4 3.018132 1_555
Cs12 F10 3.026904 1_565
Cs12 F16 3.028364 1_655
Cs12 F18 3.036647 1_655
Cs12 F11 3.076094 1_655
Cs12 F20 3.076259 1_555
Cs12 F7 3.082694 1_565
Cs12 F15 3.087680 1_565
Cs12 F28 3.122116 1_665
Cs13 F12 3.039120 1_555
Cs13 F26 3.087280 1_555
Cs13 F3 3.089061 1_555
Cs13 F7 3.108251 1_565
Cs13 F20 3.135997 1_555
Cs13 F29 3.153235 1_565
Cs13 F22 3.171618 1_555
Cs13 F24 3.236038 1_555
Cs13 F5 3.306423 1_554
Cs13 F0 3.345588 1_555
F0 Ni7 1.963032 1_555
F1 Ni6 2.059501 1_555
F1 Ni1 2.064961 1_555
F2 Ni3 1.963032 1_555
F3 Ni5 2.039909 1_555
F3 Ni7 2.088409 1_555
F4 Ni2 1.951369 1_565
F5 Ni1 2.039909 1_555
F5 Ni6 2.088409 1_555
F6 Ni3 2.059501 1_555
F6 Ni2 2.064961 1_555
F7 Ni5 2.054742 1_555
F7 Ni7 2.057117 1_555
F8 Ni6 1.967143 1_555
F9 Ni2 2.054742 1_555
F9 Ni3 2.057117 1_555
F10 Ni7 2.059501 1_555
F10 Ni5 2.064961 1_555
F11 Ni4 2.039909 1_555
F11 Ni0 2.088409 1_555
F12 Ni1 2.029041 1_554
F12 Ni0 2.044917 1_555
F13 Ni1 2.054742 1_555
F13 Ni6 2.057117 1_555
F14 Ni3 1.967143 1_555
F15 Ni2 2.029041 1_555
F15 Ni7 2.044917 1_555
F16 Ni4 2.054742 1_555
F16 Ni0 2.057117 1_555
F17 Ni5 2.029041 1_556
F17 Ni3 2.044917 1_555
F18 Ni0 1.963032 1_555
F19 Ni2 2.039909 1_555
F19 Ni3 2.088409 1_555
F20 Ni5 1.951369 1_565
F21 Ni4 1.951369 1_545
F22 Ni0 2.059501 1_555
F22 Ni4 2.064961 1_555
F23 Ni1 1.951369 1_545
F24 Ni7 1.967143 1_555
F25 Ni6 1.963032 1_555
F26 Ni0 1.967143 1_555
F27 Ni4 2.029041 1_555
F27 Ni6 2.044917 1_555
F28 Ni4 2.044328 1_545
F28 Ni2 2.044328 1_455
F29 Ni1 2.044328 1_544
F29 Ni5 2.044328 1_555
