# generated using pymatgen
data_KV(IO4)2
_symmetry_space_group_name_H-M   'P 1'
_cell_length_a   5.19883116
_cell_length_b   9.41370545
_cell_length_c   16.10714716
_cell_angle_alpha   70.35113276
_cell_angle_beta   90.00000000
_cell_angle_gamma   90.00000000
_symmetry_Int_Tables_number   1
_chemical_formula_structural   KV(IO4)2
_chemical_formula_sum   'K4 V4 I8 O32'
_cell_volume   742.38683297
_cell_formula_units_Z   4
loop_
 _symmetry_equiv_pos_site_id
 _symmetry_equiv_pos_as_xyz
  1  'x, y, z'
loop_
 _atom_site_type_symbol
 _atom_site_label
 _atom_site_symmetry_multiplicity
 _atom_site_fract_x
 _atom_site_fract_y
 _atom_site_fract_z
 _atom_site_occupancy
  K  K0  1  0.22233903  0.91616820  0.90728483  1
  K  K1  1  0.77766097  0.08383180  0.09271517  1
  K  K2  1  0.72233903  0.08383180  0.59271517  1
  K  K3  1  0.27766097  0.91616820  0.40728483  1
  V  V0  1  0.22007635  0.29778291  0.68658849  1
  V  V1  1  0.77992365  0.70221709  0.31341151  1
  V  V2  1  0.72007635  0.70221709  0.81341151  1
  V  V3  1  0.27992365  0.29778291  0.18658849  1
  I  I0  1  0.31808970  0.43756311  0.42864270  1
  I  I1  1  0.18191030  0.43756311  0.92864270  1
  I  I2  1  0.22340550  0.77474799  0.67823713  1
  I  I3  1  0.77659450  0.22525201  0.32176287  1
  I  I4  1  0.81808970  0.56243689  0.07135730  1
  I  I5  1  0.68191030  0.56243689  0.57135730  1
  I  I6  1  0.27659450  0.77474799  0.17823713  1
  I  I7  1  0.72340550  0.22525201  0.82176287  1
  O  O0  1  0.76530149  0.07070059  0.42221561  1
  O  O1  1  0.67784956  0.73927083  0.90514667  1
  O  O2  1  0.05013731  0.15285971  0.27469976  1
  O  O3  1  0.26530149  0.92929941  0.07778439  1
  O  O4  1  0.31394664  0.29733349  0.37461099  1
  O  O5  1  0.94041595  0.54648944  0.32096552  1
  O  O6  1  0.46365571  0.84260430  0.74088873  1
  O  O7  1  0.03634429  0.84260430  0.24088873  1
  O  O8  1  0.55822070  0.39643518  0.66337713  1
  O  O9  1  0.44041595  0.45351056  0.17903448  1
  O  O10  1  0.44177930  0.60356482  0.33662287  1
  O  O11  1  0.53634429  0.15739570  0.25911127  1
  O  O12  1  0.82215044  0.73927083  0.40514667  1
  O  O13  1  0.55958405  0.54648944  0.82096552  1
  O  O14  1  0.12516651  0.61861892  0.01655440  1
  O  O15  1  0.18605336  0.29733349  0.87461099  1
  O  O16  1  0.62516651  0.38138108  0.48344560  1
  O  O17  1  0.94177930  0.39643518  0.16337713  1
  O  O18  1  0.96365571  0.15739570  0.75911127  1
  O  O19  1  0.87483349  0.38138108  0.98344560  1
  O  O20  1  0.23469851  0.92929941  0.57778439  1
  O  O21  1  0.68605336  0.70266651  0.62538901  1
  O  O22  1  0.05822070  0.60356482  0.83662287  1
  O  O23  1  0.94986269  0.84714029  0.72530024  1
  O  O24  1  0.32215044  0.26072917  0.09485333  1
  O  O25  1  0.37483349  0.61861892  0.51655440  1
  O  O26  1  0.81394664  0.70266651  0.12538901  1
  O  O27  1  0.73469851  0.07070059  0.92221561  1
  O  O28  1  0.44986269  0.15285971  0.77469976  1
  O  O29  1  0.05958405  0.45351056  0.67903448  1
  O  O30  1  0.55013731  0.84714029  0.22530024  1
  O  O31  1  0.17784956  0.26072917  0.59485333  1
loop_
_geom_bond_atom_site_label_1
_geom_bond_atom_site_label_2
_geom_bond_distance
_geom_bond_site_symmetry_2
K0 O28 2.779278 1_565
K0 O3 2.799182 1_556
K0 O14 2.807724 1_556
K0 O1 2.901870 1_555
K0 O27 2.972603 1_465
K0 O18 3.002775 1_465
K0 O27 3.082932 1_565
K0 O6 3.238055 1_555
K0 O1 3.290252 1_455
K1 O30 2.779278 1_545
K1 O27 2.799182 1_554
K1 O19 2.807724 1_554
K1 O24 2.901870 1_555
K1 O3 2.972603 1_645
K1 O7 3.002775 1_645
K1 O3 3.082932 1_545
K1 O11 3.238055 1_555
K1 O24 3.290252 1_655
K2 O23 2.779278 1_545
K2 O0 2.799182 1_555
K2 O16 2.807724 1_555
K2 O31 2.901870 1_655
K2 O20 2.972603 1_545
K2 O6 3.002775 1_545
K2 O20 3.082932 1_645
K2 O18 3.238055 1_555
K2 O31 3.290252 1_555
K3 O2 2.779278 1_565
K3 O20 2.799182 1_555
K3 O25 2.807724 1_555
K3 O12 2.901870 1_455
K3 O0 2.972603 1_565
K3 O11 3.002775 1_565
K3 O0 3.082932 1_465
K3 O7 3.238055 1_555
K3 O12 3.290252 1_555
I0 O4 1.809175 1_555
I0 O16 1.814818 1_555
I0 O10 1.869411 1_555
I0 O25 2.572969 1_555
I1 O15 1.809175 1_555
I1 O19 1.814818 1_455
I1 O22 1.869411 1_555
I1 O14 2.572969 1_556
I2 O20 1.776237 1_555
I2 O23 1.846308 1_455
I2 O6 1.849314 1_555
I3 O0 1.776237 1_555
I3 O2 1.846308 1_655
I3 O11 1.849314 1_555
I4 O26 1.809175 1_555
I4 O14 1.814818 1_655
I4 O17 1.869411 1_555
I4 O19 2.572969 1_554
I5 O21 1.809175 1_555
I5 O25 1.814818 1_555
I5 O8 1.869411 1_555
I5 O16 2.572969 1_555
I6 O3 1.776237 1_555
I6 O30 1.846308 1_555
I6 O7 1.849314 1_555
I7 O27 1.776237 1_555
I7 O28 1.846308 1_555
I7 O18 1.849314 1_555
O1 V2 1.643093 1_555
O2 V3 2.000104 1_555
O5 V1 1.655327 1_555
O6 V2 1.962141 1_555
O7 V1 1.962141 1_455
O8 V0 1.964469 1_555
O9 V3 1.655327 1_555
O10 V1 1.964469 1_555
O11 V3 1.962141 1_555
O12 V1 1.643093 1_555
O13 V2 1.655327 1_555
O17 V3 1.964469 1_655
O18 V0 1.962141 1_655
O22 V2 1.964469 1_455
O23 V2 2.000104 1_555
O24 V3 1.643093 1_555
O28 V0 2.000104 1_555
O29 V0 1.655327 1_555
O30 V1 2.000104 1_555
O31 V0 1.643093 1_555
