# generated using pymatgen
data_TaBiO4
_symmetry_space_group_name_H-M   'P 1'
_cell_length_a   5.57416565
_cell_length_b   7.69221717
_cell_length_c   7.77065761
_cell_angle_alpha   102.43895761
_cell_angle_beta   90.03753839
_cell_angle_gamma   93.36128748
_symmetry_Int_Tables_number   1
_chemical_formula_structural   TaBiO4
_chemical_formula_sum   'Ta4 Bi4 O16'
_cell_volume   324.77673488
_cell_formula_units_Z   4
loop_
 _symmetry_equiv_pos_site_id
 _symmetry_equiv_pos_as_xyz
  1  'x, y, z'
loop_
 _atom_site_type_symbol
 _atom_site_label
 _atom_site_symmetry_multiplicity
 _atom_site_fract_x
 _atom_site_fract_y
 _atom_site_fract_z
 _atom_site_occupancy
  Ta  Ta0  1  0.74271855  0.82485540  0.19232816  1
  Ta  Ta1  1  0.27591493  0.15689738  0.30652184  1
  Ta  Ta2  1  0.72408507  0.84310262  0.69347816  1
  Ta  Ta3  1  0.25728145  0.17514460  0.80767184  1
  Bi  Bi0  1  0.26632644  0.61946991  0.38250898  1
  Bi  Bi1  1  0.21073980  0.66834742  0.88706608  1
  Bi  Bi2  1  0.73367356  0.38053009  0.61749102  1
  Bi  Bi3  1  0.78926020  0.33165258  0.11293392  1
  O  O0  1  0.57827697  0.04989777  0.22405894  1
  O  O1  1  0.48907025  0.60631473  0.67760649  1
  O  O2  1  0.04302189  0.34701478  0.35958622  1
  O  O3  1  0.65382403  0.81858366  0.44660091  1
  O  O4  1  0.34617597  0.18141634  0.55339909  1
  O  O5  1  0.80150387  0.82876681  0.94936811  1
  O  O6  1  0.05886612  0.39226209  0.82677739  1
  O  O7  1  0.54211512  0.33283966  0.86582734  1
  O  O8  1  0.42172303  0.95010223  0.77594106  1
  O  O9  1  0.93933546  0.04607129  0.71616838  1
  O  O10  1  0.51092975  0.39368527  0.32239351  1
  O  O11  1  0.19849613  0.17123319  0.05063189  1
  O  O12  1  0.94113388  0.60773791  0.17322261  1
  O  O13  1  0.06066454  0.95392871  0.28383162  1
  O  O14  1  0.95697811  0.65298522  0.64041378  1
  O  O15  1  0.45788488  0.66716034  0.13417266  1
loop_
_geom_bond_atom_site_label_1
_geom_bond_atom_site_label_2
_geom_bond_distance
_geom_bond_site_symmetry_2
Bi0 O10 2.241130 1_555
Bi0 O15 2.293544 1_555
Bi0 O2 2.346570 1_555
Bi0 O12 2.419194 1_455
Bi0 O3 2.557626 1_555
Bi0 O14 2.624944 1_455
Bi0 O1 2.630802 1_555
Bi1 O6 2.192336 1_555
Bi1 O1 2.244875 1_555
Bi1 O14 2.359582 1_455
Bi1 O15 2.364444 1_556
Bi1 O5 2.652339 1_455
Bi1 O8 2.708269 1_555
Bi1 O12 2.790912 1_456
Bi2 O1 2.241130 1_555
Bi2 O7 2.293544 1_555
Bi2 O14 2.346570 1_555
Bi2 O6 2.419194 1_655
Bi2 O4 2.557626 1_555
Bi2 O2 2.624944 1_655
Bi2 O10 2.630802 1_555
Bi3 O12 2.192336 1_555
Bi3 O10 2.244875 1_555
Bi3 O2 2.359582 1_655
Bi3 O7 2.364444 1_554
Bi3 O11 2.652339 1_655
Bi3 O0 2.708269 1_555
Bi3 O6 2.790912 1_654
O0 Ta1 1.966100 1_555
O0 Ta0 1.974868 1_545
O1 Ta2 2.161513 1_555
O2 Ta1 1.989357 1_555
O3 Ta2 1.924498 1_555
O3 Ta0 2.047304 1_555
O4 Ta1 1.924498 1_555
O4 Ta3 2.047304 1_555
O5 Ta0 1.922705 1_556
O5 Ta2 2.061838 1_555
O6 Ta3 2.035820 1_555
O7 Ta3 1.932236 1_555
O8 Ta2 1.966100 1_555
O8 Ta3 1.974868 1_565
O9 Ta2 1.889382 1_545
O9 Ta3 2.029832 1_655
O10 Ta1 2.161513 1_555
O11 Ta3 1.922705 1_554
O11 Ta1 2.061838 1_555
O12 Ta0 2.035820 1_555
O13 Ta1 1.889382 1_565
O13 Ta0 2.029832 1_455
O14 Ta2 1.989357 1_555
O15 Ta0 1.932236 1_555
