# generated using pymatgen
data_K3In3(PO4)4
_symmetry_space_group_name_H-M   'P 1'
_cell_length_a   9.98510400
_cell_length_b   9.84603800
_cell_length_c   18.79062809
_cell_angle_alpha   58.76547924
_cell_angle_beta   90.00000000
_cell_angle_gamma   90.00000000
_symmetry_Int_Tables_number   1
_chemical_formula_structural   K3In3(PO4)4
_chemical_formula_sum   'K12 In12 P16 O64'
_cell_volume   1579.60289419
_cell_formula_units_Z   4
loop_
 _symmetry_equiv_pos_site_id
 _symmetry_equiv_pos_as_xyz
  1  'x, y, z'
loop_
 _atom_site_type_symbol
 _atom_site_label
 _atom_site_symmetry_multiplicity
 _atom_site_fract_x
 _atom_site_fract_y
 _atom_site_fract_z
 _atom_site_occupancy
  K  K0  1  0.27120300  0.76114800  0.21398900  1
  K  K1  1  0.22879700  0.76114800  0.71398900  1
  K  K2  1  0.11004700  0.95895500  0.36774100  1
  K  K3  1  0.61004700  0.04104500  0.13225900  1
  K  K4  1  0.52631600  0.43091700  0.89828500  1
  K  K5  1  0.97368400  0.43091700  0.39828500  1
  K  K6  1  0.47368400  0.56908300  0.10171500  1
  K  K7  1  0.72879700  0.23885200  0.78601100  1
  K  K8  1  0.88995300  0.04104500  0.63225900  1
  K  K9  1  0.02631600  0.56908300  0.60171500  1
  K  K10  1  0.38995300  0.95895500  0.86774100  1
  K  K11  1  0.77120300  0.23885200  0.28601100  1
  In  In0  1  0.42495200  0.76536800  0.49059000  1
  In  In1  1  0.72857500  0.81106200  0.36495200  1
  In  In2  1  0.07504800  0.76536800  0.99059000  1
  In  In3  1  0.92495200  0.23463200  0.00941000  1
  In  In4  1  0.86043900  0.65014200  0.16113100  1
  In  In5  1  0.27142500  0.18893800  0.63504800  1
  In  In6  1  0.13956100  0.34985800  0.83886900  1
  In  In7  1  0.63956100  0.65014200  0.66113100  1
  In  In8  1  0.77142500  0.81106200  0.86495200  1
  In  In9  1  0.57504800  0.23463200  0.50941000  1
  In  In10  1  0.22857500  0.18893800  0.13504800  1
  In  In11  1  0.36043900  0.34985800  0.33886900  1
  P  P0  1  0.73259900  0.93819100  0.50484200  1
  P  P1  1  0.89737400  0.56772200  0.79525800  1
  P  P2  1  0.96851100  0.92222700  0.21200800  1
  P  P3  1  0.46851100  0.07777300  0.28799200  1
  P  P4  1  0.10262600  0.43227800  0.20474200  1
  P  P5  1  0.23259900  0.06180900  0.99515800  1
  P  P6  1  0.22244600  0.47270900  0.97431800  1
  P  P7  1  0.53148900  0.92222700  0.71200800  1
  P  P8  1  0.60262600  0.56772200  0.29525800  1
  P  P9  1  0.76740100  0.93819100  0.00484200  1
  P  P10  1  0.72244600  0.52729100  0.52568200  1
  P  P11  1  0.03148900  0.07777300  0.78799200  1
  P  P12  1  0.77755400  0.52729100  0.02568200  1
  P  P13  1  0.39737400  0.43227800  0.70474200  1
  P  P14  1  0.26740100  0.06180900  0.49515800  1
  P  P15  1  0.27755400  0.47270900  0.47431800  1
  O  O0  1  0.21136800  0.64288500  0.95777500  1
  O  O1  1  0.10101100  0.36029100  0.02675700  1
  O  O2  1  0.90205600  0.90263900  0.29166500  1
  O  O3  1  0.39218500  0.95158300  0.36531800  1
  O  O4  1  0.19019200  0.16662700  0.41228300  1
  O  O5  1  0.11500700  0.97545000  0.21297700  1
  O  O6  1  0.23598000  0.47542000  0.23067800  1
  O  O7  1  0.12237400  0.28001000  0.20150700  1
  O  O8  1  0.84483800  0.60844600  0.46628800  1
  O  O9  1  0.15516200  0.39155400  0.53371200  1
  O  O10  1  0.05931800  0.58294900  0.11923300  1
  O  O11  1  0.69019200  0.83337300  0.08771700  1
  O  O12  1  0.08731300  0.13837400  0.97143100  1
  O  O13  1  0.91268700  0.86162600  0.02856900  1
  O  O14  1  0.52678800  0.75983400  0.71676600  1
  O  O15  1  0.61500700  0.02455000  0.28702300  1
  O  O16  1  0.71136800  0.35711500  0.54222500  1
  O  O17  1  0.70764300  0.93315800  0.93020500  1
  O  O18  1  0.10781500  0.95158300  0.86531800  1
  O  O19  1  0.26402000  0.47542000  0.73067800  1
  O  O20  1  0.60781500  0.04841700  0.63468200  1
  O  O21  1  0.47321200  0.24016600  0.28323400  1
  O  O22  1  0.29235700  0.06684200  0.06979500  1
  O  O23  1  0.26957700  0.88391100  0.52050400  1
  O  O24  1  0.79235700  0.93315800  0.43020500  1
  O  O25  1  0.87762600  0.71999000  0.79849300  1
  O  O26  1  0.73598000  0.52458000  0.26932200  1
  O  O27  1  0.65516200  0.60844600  0.96628800  1
  O  O28  1  0.89218500  0.04841700  0.13468200  1
  O  O29  1  0.89898900  0.63970900  0.97324300  1
  O  O30  1  0.98291000  0.41508800  0.26063300  1
  O  O31  1  0.30980800  0.16662700  0.91228300  1
  O  O32  1  0.37762600  0.28001000  0.70150700  1
  O  O33  1  0.60101100  0.63970900  0.47324300  1
  O  O34  1  0.26140500  0.48220900  0.38982700  1
  O  O35  1  0.59794400  0.90263900  0.79166500  1
  O  O36  1  0.23859500  0.48220900  0.88982700  1
  O  O37  1  0.23042300  0.88391100  0.02050400  1
  O  O38  1  0.48291000  0.58491200  0.23936700  1
  O  O39  1  0.40205600  0.09736100  0.20833500  1
  O  O40  1  0.38499300  0.97545000  0.71297700  1
  O  O41  1  0.20764300  0.06684200  0.56979500  1
  O  O42  1  0.44068200  0.58294900  0.61923300  1
  O  O43  1  0.02678800  0.24016600  0.78323400  1
  O  O44  1  0.76402000  0.52458000  0.76932200  1
  O  O45  1  0.39898900  0.36029100  0.52675700  1
  O  O46  1  0.94068200  0.41705100  0.88076700  1
  O  O47  1  0.09794400  0.09736100  0.70833500  1
  O  O48  1  0.28863200  0.64288500  0.45777500  1
  O  O49  1  0.76140500  0.51779100  0.11017300  1
  O  O50  1  0.88499300  0.02455000  0.78702300  1
  O  O51  1  0.62237400  0.71999000  0.29849300  1
  O  O52  1  0.76957700  0.11608900  0.97949600  1
  O  O53  1  0.41268700  0.13837400  0.47143100  1
  O  O54  1  0.78863200  0.35711500  0.04222500  1
  O  O55  1  0.51709000  0.41508800  0.76063300  1
  O  O56  1  0.73859500  0.51779100  0.61017300  1
  O  O57  1  0.73042300  0.11608900  0.47949600  1
  O  O58  1  0.97321200  0.75983400  0.21676600  1
  O  O59  1  0.55931800  0.41705100  0.38076700  1
  O  O60  1  0.58731300  0.86162600  0.52856900  1
  O  O61  1  0.01709000  0.58491200  0.73936700  1
  O  O62  1  0.34483800  0.39155400  0.03371200  1
  O  O63  1  0.80980800  0.83337300  0.58771700  1
loop_
_geom_bond_atom_site_label_1
_geom_bond_atom_site_label_2
_geom_bond_distance
_geom_bond_site_symmetry_2
K0 O5 2.615992 1_555
K0 O38 2.617039 1_555
K0 O6 2.687318 1_555
K0 O22 2.826244 1_565
K0 O58 2.975839 1_455
K0 O34 3.009747 1_555
K0 O37 3.207433 1_555
K1 O40 2.615992 1_555
K1 O61 2.617039 1_555
K1 O19 2.687318 1_555
K1 O41 2.826244 1_565
K1 O14 2.975839 1_555
K1 O36 3.009747 1_555
K1 O23 3.207433 1_555
K2 O4 2.701256 1_565
K2 O2 2.736086 1_455
K2 O3 2.819088 1_555
K2 O5 2.827742 1_555
K2 O23 3.020524 1_555
K2 O7 3.086192 1_565
K2 O48 3.204143 1_555
K2 O24 3.345989 1_455
K3 O11 2.701256 1_545
K3 O39 2.736086 1_555
K3 O28 2.819088 1_555
K3 O15 2.827742 1_555
K3 O52 3.020524 1_554
K3 O51 3.086192 1_545
K3 O54 3.204143 1_555
K3 O22 3.345989 1_555
K4 O55 2.672299 1_555
K4 O36 2.907019 1_555
K4 O27 2.942748 1_555
K4 O62 2.981070 1_556
K4 O44 3.168386 1_555
K4 O14 3.265920 1_555
K4 O31 3.287012 1_555
K5 O30 2.672299 1_555
K5 O34 2.907019 1_655
K5 O8 2.942748 1_555
K5 O9 2.981070 1_655
K5 O26 3.168386 1_555
K5 O58 3.265920 1_555
K5 O4 3.287012 1_655
K6 O38 2.672299 1_555
K6 O49 2.907019 1_555
K6 O62 2.942748 1_555
K6 O27 2.981070 1_554
K6 O6 3.168386 1_555
K6 O21 3.265920 1_555
K6 O11 3.287012 1_555
K7 O50 2.615992 1_555
K7 O55 2.617039 1_555
K7 O44 2.687318 1_555
K7 O17 2.826244 1_545
K7 O43 2.975839 1_655
K7 O56 3.009747 1_555
K7 O52 3.207433 1_555
K8 O63 2.701256 1_545
K8 O47 2.736086 1_655
K8 O20 2.819088 1_555
K8 O50 2.827742 1_555
K8 O57 3.020524 1_555
K8 O25 3.086192 1_545
K8 O16 3.204143 1_555
K8 O41 3.345989 1_655
K9 O61 2.672299 1_555
K9 O56 2.907019 1_455
K9 O9 2.942748 1_555
K9 O8 2.981070 1_455
K9 O19 3.168386 1_555
K9 O43 3.265920 1_555
K9 O63 3.287012 1_455
K10 O31 2.701256 1_565
K10 O35 2.736086 1_555
K10 O18 2.819088 1_555
K10 O40 2.827742 1_555
K10 O37 3.020524 1_556
K10 O32 3.086192 1_565
K10 O0 3.204143 1_555
K10 O17 3.345989 1_555
K11 O15 2.615992 1_555
K11 O30 2.617039 1_555
K11 O26 2.687318 1_555
K11 O24 2.826244 1_545
K11 O21 2.975839 1_555
K11 O49 3.009747 1_555
K11 O57 3.207433 1_555
In0 O48 2.111531 1_555
In0 O3 2.129266 1_555
In0 O42 2.142712 1_555
In0 O60 2.176524 1_555
In0 O23 2.183031 1_555
In0 O33 2.268418 1_555
In1 O2 2.102926 1_555
In1 O51 2.156252 1_555
In1 O15 2.157883 1_565
In1 O24 2.209732 1_555
In1 O8 2.239152 1_555
In1 O33 2.247021 1_555
In2 O0 2.111531 1_555
In2 O18 2.129266 1_555
In2 O10 2.142712 1_556
In2 O13 2.176524 1_456
In2 O37 2.183031 1_556
In2 O29 2.268418 1_455
In3 O54 2.111531 1_555
In3 O28 2.129266 1_555
In3 O46 2.142712 1_554
In3 O12 2.176524 1_654
In3 O52 2.183031 1_554
In3 O1 2.268418 1_655
In4 O26 2.144585 1_555
In4 O58 2.167558 1_555
In4 O49 2.210643 1_555
In4 O13 2.331011 1_555
In4 O11 2.338058 1_555
In4 O10 2.353976 1_655
In4 O30 2.420711 1_555
In5 O47 2.102926 1_555
In5 O32 2.156252 1_555
In5 O40 2.157883 1_545
In5 O41 2.209732 1_555
In5 O9 2.239152 1_555
In5 O45 2.247021 1_555
In6 O19 2.144585 1_555
In6 O43 2.167558 1_555
In6 O36 2.210643 1_555
In6 O12 2.331011 1_555
In6 O31 2.338058 1_555
In6 O46 2.353976 1_455
In6 O61 2.420711 1_555
In7 O44 2.144585 1_555
In7 O14 2.167558 1_555
In7 O56 2.210643 1_555
In7 O60 2.331011 1_555
In7 O63 2.338058 1_555
In7 O42 2.353976 1_555
In7 O55 2.420711 1_555
In8 O35 2.102926 1_555
In8 O25 2.156252 1_555
In8 O50 2.157883 1_565
In8 O17 2.209732 1_555
In8 O27 2.239152 1_555
In8 O29 2.247021 1_555
In9 O16 2.111531 1_555
In9 O20 2.129266 1_555
In9 O59 2.142712 1_555
In9 O53 2.176524 1_555
In9 O57 2.183031 1_555
In9 O45 2.268418 1_555
In10 O39 2.102926 1_555
In10 O7 2.156252 1_555
In10 O5 2.157883 1_545
In10 O22 2.209732 1_555
In10 O62 2.239152 1_555
In10 O1 2.247021 1_555
In11 O6 2.144585 1_555
In11 O21 2.167558 1_555
In11 O34 2.210643 1_555
In11 O53 2.331011 1_555
In11 O4 2.338058 1_555
In11 O59 2.353976 1_555
In11 O38 2.420711 1_555
O0 P6 1.541491 1_555
O1 P6 1.592245 1_554
O2 P2 1.555168 1_555
O3 P3 1.537375 1_565
O4 P14 1.554923 1_555
O5 P2 1.557100 1_455
O6 P4 1.551025 1_555
O7 P4 1.544281 1_555
O8 P10 1.566117 1_555
O9 P15 1.566117 1_555
O10 P4 1.580334 1_555
O11 P9 1.554923 1_555
O12 P5 1.588406 1_555
O13 P9 1.588406 1_555
O14 P7 1.555156 1_555
O15 P3 1.557100 1_555
O16 P10 1.541491 1_555
O17 P9 1.548390 1_556
O18 P11 1.537375 1_565
O19 P13 1.551025 1_555
O20 P7 1.537375 1_545
O21 P3 1.555156 1_555
O22 P5 1.548390 1_554
O23 P14 1.558913 1_565
O24 P0 1.548390 1_555
O25 P1 1.544281 1_555
O26 P8 1.551025 1_555
O27 P12 1.566117 1_556
O28 P2 1.537375 1_545
O29 P12 1.592245 1_556
O30 P4 1.541494 1_655
O31 P5 1.554923 1_555
O32 P13 1.544281 1_555
O33 P10 1.592245 1_555
O34 P15 1.549625 1_555
O35 P7 1.555168 1_555
O36 P6 1.549625 1_555
O37 P5 1.558913 1_564
O38 P8 1.541494 1_555
O39 P3 1.555168 1_555
O40 P7 1.557100 1_555
O41 P14 1.548390 1_555
O42 P13 1.580334 1_555
O43 P11 1.555156 1_555
O44 P1 1.551025 1_555
O45 P15 1.592245 1_555
O46 P1 1.580334 1_555
O47 P11 1.555168 1_555
O48 P15 1.541491 1_555
O49 P12 1.549625 1_555
O50 P11 1.557100 1_655
O51 P8 1.544281 1_555
O52 P9 1.558913 1_546
O53 P14 1.588406 1_555
O54 P12 1.541491 1_555
O55 P13 1.541494 1_555
O56 P10 1.549625 1_555
O57 P0 1.558913 1_545
O58 P2 1.555156 1_555
O59 P8 1.580334 1_555
O60 P0 1.588406 1_555
O61 P1 1.541494 1_455
O62 P6 1.566117 1_554
O63 P0 1.554923 1_555
