# generated using pymatgen
data_Ba2NiWO6
_symmetry_space_group_name_H-M   'P 1'
_cell_length_a   5.80295176
_cell_length_b   5.80295190
_cell_length_c   10.05105228
_cell_angle_alpha   106.77828115
_cell_angle_beta   73.22171365
_cell_angle_gamma   119.99938281
_symmetry_Int_Tables_number   1
_chemical_formula_structural   Ba2NiWO6
_chemical_formula_sum   'Ba4 Ni2 W2 O12'
_cell_volume   276.35513096
_cell_formula_units_Z   2
loop_
 _symmetry_equiv_pos_site_id
 _symmetry_equiv_pos_as_xyz
  1  'x, y, z'
loop_
 _atom_site_type_symbol
 _atom_site_label
 _atom_site_symmetry_multiplicity
 _atom_site_fract_x
 _atom_site_fract_y
 _atom_site_fract_z
 _atom_site_occupancy
  Ba  Ba0  1  0.62500000  0.37500000  0.12500000  1
  Ba  Ba1  1  0.12500000  0.87500000  0.62500000  1
  Ba  Ba2  1  0.87500000  0.12500000  0.37500000  1
  Ba  Ba3  1  0.37500000  0.62500000  0.87500000  1
  Ni  Ni0  1  0.75000000  0.25000000  0.74999900  1
  Ni  Ni1  1  0.25000000  0.75000000  0.25000100  1
  W  W0  1  0.50000000  0.50000000  0.50000000  1
  W  W1  1  0.00000000  0.00000000  0.99999900  1
  O  O0  1  0.38033300  0.14099600  0.38033100  1
  O  O1  1  0.88033400  0.64100000  0.88033300  1
  O  O2  1  0.11966700  0.88033300  0.11966700  1
  O  O3  1  0.61966700  0.38033300  0.61966800  1
  O  O4  1  0.38033200  0.61966700  0.38033200  1
  O  O5  1  0.88033400  0.11966600  0.88033300  1
  O  O6  1  0.85900400  0.61966800  0.38033100  1
  O  O7  1  0.35900000  0.11966700  0.88033300  1
  O  O8  1  0.11966700  0.35900100  0.11966700  1
  O  O9  1  0.61966700  0.85900300  0.61966800  1
  O  O10  1  0.64099900  0.88033300  0.11966800  1
  O  O11  1  0.14099700  0.38033300  0.61966800  1
loop_
_geom_bond_atom_site_label_1
_geom_bond_atom_site_label_2
_geom_bond_distance
_geom_bond_site_symmetry_2
Ba0 O10 2.902794 1_555
Ba0 O8 2.902795 1_655
Ba0 O8 2.902797 1_555
Ba0 O10 2.902798 1_545
Ba0 O0 2.902803 1_555
Ba0 O6 2.902803 1_555
Ba0 O4 2.902809 1_555
Ba0 O1 2.902815 1_554
Ba0 O7 2.902815 1_554
Ba0 O5 2.902817 1_554
Ba0 O2 2.902823 1_655
Ba0 O2 2.902823 1_545
Ba1 O9 2.902792 1_555
Ba1 O11 2.902792 1_555
Ba1 O9 2.902799 1_455
Ba1 O11 2.902799 1_565
Ba1 O5 2.902806 1_465
Ba1 O1 2.902810 1_455
Ba1 O7 2.902810 1_565
Ba1 O4 2.902813 1_555
Ba1 O0 2.902820 1_565
Ba1 O6 2.902821 1_455
Ba1 O3 2.902823 1_565
Ba1 O3 2.902823 1_455
Ba2 O0 2.902792 1_555
Ba2 O6 2.902793 1_545
Ba2 O6 2.902798 1_555
Ba2 O0 2.902799 1_655
Ba2 O10 2.902804 1_545
Ba2 O2 2.902812 1_645
Ba2 O8 2.902812 1_655
Ba2 O9 2.902815 1_545
Ba2 O11 2.902815 1_655
Ba2 O3 2.902816 1_555
Ba2 O4 2.902820 1_655
Ba2 O4 2.902826 1_545
Ba3 O1 2.902793 1_455
Ba3 O7 2.902794 1_555
Ba3 O7 2.902798 1_565
Ba3 O1 2.902800 1_555
Ba3 O3 2.902806 1_555
Ba3 O9 2.902809 1_555
Ba3 O11 2.902809 1_555
Ba3 O2 2.902811 1_556
Ba3 O8 2.902812 1_556
Ba3 O10 2.902821 1_556
Ba3 O5 2.902823 1_455
Ba3 O5 2.902823 1_565
Ni0 O3 2.139165 1_555
Ni0 O11 2.139184 1_655
Ni0 O9 2.139184 1_545
Ni0 O5 2.139198 1_555
Ni0 O7 2.139209 1_555
Ni0 O1 2.139209 1_555
Ni1 O4 2.139161 1_555
Ni1 O6 2.139176 1_455
Ni1 O0 2.139176 1_565
Ni1 O2 2.139190 1_555
Ni1 O10 2.139201 1_555
Ni1 O8 2.139205 1_555
O0 W0 1.964157 1_555
O1 W1 1.964128 1_665
O2 W1 1.964127 1_564
O3 W0 1.964127 1_555
O4 W0 1.964131 1_555
O5 W1 1.964102 1_655
O6 W0 1.964156 1_555
O7 W1 1.964128 1_555
O8 W1 1.964140 1_554
O9 W0 1.964148 1_555
O10 W1 1.964144 1_664
O11 W0 1.964148 1_555
