# generated using pymatgen
data_La2PI2
_symmetry_space_group_name_H-M   'P 1'
_cell_length_a   4.34058359
_cell_length_b   4.34058603
_cell_length_c   11.07183342
_cell_angle_alpha   90.00000000
_cell_angle_beta   90.00000000
_cell_angle_gamma   120.00000523
_symmetry_Int_Tables_number   1
_chemical_formula_structural   La2PI2
_chemical_formula_sum   'La2 P1 I2'
_cell_volume   180.65360988
_cell_formula_units_Z   1
loop_
 _symmetry_equiv_pos_site_id
 _symmetry_equiv_pos_as_xyz
  1  'x, y, z'
loop_
 _atom_site_type_symbol
 _atom_site_label
 _atom_site_symmetry_multiplicity
 _atom_site_fract_x
 _atom_site_fract_y
 _atom_site_fract_z
 _atom_site_occupancy
  La  La0  1  0.33333300  0.66666700  0.85458902  1
  La  La1  1  0.66666700  0.33333300  0.14541098  1
  P  P0  1  -0.00000000  -0.00000000  -0.00000000  1
  I  I0  1  0.66666700  0.33333300  0.66165013  1
  I  I1  1  0.33333300  0.66666700  0.33834987  1
loop_
_geom_bond_atom_site_label_1
_geom_bond_atom_site_label_2
_geom_bond_distance
_geom_bond_site_symmetry_2
La0 P0 2.978625 1_566
La0 P0 2.978627 1_666
La0 P0 2.978628 1_556
La1 P0 2.978625 1_655
La1 P0 2.978627 1_555
La1 P0 2.978628 1_665
I0 La0 3.292948 1_655
I0 La0 3.292949 1_545
I0 La0 3.292954 1_555
I1 La1 3.292948 1_455
I1 La1 3.292949 1_565
I1 La1 3.292954 1_555
