# generated using pymatgen
data_Ba2CoSi2O7
_symmetry_space_group_name_H-M   'P 1'
_cell_length_a   5.48559900
_cell_length_b   8.31916200
_cell_length_c   8.31916200
_cell_angle_alpha   90.00000000
_cell_angle_beta   90.00000000
_cell_angle_gamma   90.00000000
_symmetry_Int_Tables_number   1
_chemical_formula_structural   Ba2CoSi2O7
_chemical_formula_sum   'Ba4 Co2 Si4 O14'
_cell_volume   379.64983912
_cell_formula_units_Z   2
loop_
 _symmetry_equiv_pos_site_id
 _symmetry_equiv_pos_as_xyz
  1  'x, y, z'
loop_
 _atom_site_type_symbol
 _atom_site_label
 _atom_site_symmetry_multiplicity
 _atom_site_fract_x
 _atom_site_fract_y
 _atom_site_fract_z
 _atom_site_occupancy
  Ba  Ba0  1  0.00933700  0.33417800  0.16582200  1
  Ba  Ba1  1  0.99066300  0.16582200  0.66582200  1
  Ba  Ba2  1  0.99066300  0.83417800  0.33417800  1
  Ba  Ba3  1  0.00933700  0.66582200  0.83417800  1
  Co  Co0  1  0.50000000  0.50000000  0.50000000  1
  Co  Co1  1  0.50000000  0.00000000  0.00000000  1
  Si  Si0  1  0.54139900  0.63628000  0.13628000  1
  Si  Si1  1  0.45860100  0.13628000  0.36372000  1
  Si  Si2  1  0.45860100  0.86372000  0.63628000  1
  Si  Si3  1  0.54139900  0.36372000  0.86372000  1
  O  O0  1  0.63894500  0.50000000  0.00000000  1
  O  O1  1  0.36105500  0.00000000  0.50000000  1
  O  O2  1  0.24641900  0.63907400  0.13907400  1
  O  O3  1  0.75358200  0.13907400  0.36092600  1
  O  O4  1  0.75358200  0.86092600  0.63907400  1
  O  O5  1  0.24641900  0.36092600  0.86092600  1
  O  O6  1  0.67681400  0.80421700  0.07813000  1
  O  O7  1  0.32318600  0.07813000  0.19578300  1
  O  O8  1  0.32318600  0.92187000  0.80421700  1
  O  O9  1  0.67681400  0.19578300  0.92187000  1
  O  O10  1  0.32318600  0.30421700  0.42187000  1
  O  O11  1  0.32318600  0.69578300  0.57813000  1
  O  O12  1  0.67681400  0.42187000  0.69578300  1
  O  O13  1  0.67681400  0.57813000  0.30421700  1
loop_
_geom_bond_atom_site_label_1
_geom_bond_atom_site_label_2
_geom_bond_distance
_geom_bond_site_symmetry_2
Ba0 O3 2.690212 1_455
Ba0 O7 2.750191 1_555
Ba0 O10 2.750191 1_555
Ba0 O0 2.816796 1_455
Ba0 O2 2.859132 1_555
Ba0 O5 2.859132 1_554
Ba0 O9 2.961694 1_454
Ba0 O13 2.961694 1_455
Ba1 O5 2.690215 1_655
Ba1 O9 2.750191 1_555
Ba1 O12 2.750191 1_555
Ba1 O1 2.816796 1_655
Ba1 O3 2.859130 1_555
Ba1 O4 2.859130 1_545
Ba1 O8 2.961694 1_645
Ba1 O10 2.961694 1_655
Ba2 O2 2.690215 1_655
Ba2 O13 2.750191 1_555
Ba2 O6 2.750191 1_555
Ba2 O1 2.816796 1_665
Ba2 O3 2.859130 1_565
Ba2 O4 2.859130 1_555
Ba2 O7 2.961694 1_665
Ba2 O11 2.961694 1_655
Ba3 O4 2.690212 1_455
Ba3 O8 2.750191 1_555
Ba3 O11 2.750191 1_555
Ba3 O0 2.816796 1_456
Ba3 O2 2.859132 1_556
Ba3 O5 2.859132 1_555
Ba3 O12 2.961694 1_455
Ba3 O6 2.961694 1_456
Co0 O13 2.004012 1_555
Co0 O10 2.004012 1_555
Co0 O12 2.004012 1_555
Co0 O11 2.004012 1_555
Co1 O9 2.004012 1_554
Co1 O7 2.004012 1_555
Co1 O8 2.004012 1_544
Co1 O6 2.004012 1_545
O0 Si3 1.690279 1_554
O0 Si0 1.690279 1_555
O1 Si2 1.690279 1_545
O1 Si1 1.690279 1_555
O2 Si0 1.618476 1_555
O3 Si1 1.618481 1_555
O4 Si2 1.618481 1_555
O5 Si3 1.618476 1_555
O6 Si0 1.654599 1_555
O7 Si1 1.654599 1_555
O8 Si2 1.654599 1_555
O9 Si3 1.654599 1_555
O10 Si1 1.654599 1_555
O11 Si2 1.654599 1_555
O12 Si3 1.654599 1_555
O13 Si0 1.654599 1_555
