# generated using pymatgen
data_Ba3Ta2CdO9
_symmetry_space_group_name_H-M   'P 1'
_cell_length_a   5.95205849
_cell_length_b   5.95205849
_cell_length_c   7.36479100
_cell_angle_alpha   90.00000000
_cell_angle_beta   90.00000000
_cell_angle_gamma   120.00000546
_symmetry_Int_Tables_number   1
_chemical_formula_structural   Ba3Ta2CdO9
_chemical_formula_sum   'Ba3 Ta2 Cd1 O9'
_cell_volume   225.95679989
_cell_formula_units_Z   1
loop_
 _symmetry_equiv_pos_site_id
 _symmetry_equiv_pos_as_xyz
  1  'x, y, z'
loop_
 _atom_site_type_symbol
 _atom_site_label
 _atom_site_symmetry_multiplicity
 _atom_site_fract_x
 _atom_site_fract_y
 _atom_site_fract_z
 _atom_site_occupancy
  Ba  Ba0  1  0.66666700  0.33333300  0.33502700  1
  Ba  Ba1  1  0.00000000  0.00000000  0.00000000  1
  Ba  Ba2  1  0.33333300  0.66666700  0.66497300  1
  Ta  Ta0  1  0.33333300  0.66666700  0.16767200  1
  Ta  Ta1  1  0.66666700  0.33333300  0.83232800  1
  Cd  Cd0  1  0.00000000  0.00000000  0.50000000  1
  O  O0  1  0.35377300  0.17688700  0.68756900  1
  O  O1  1  0.82311300  0.64622700  0.68756900  1
  O  O2  1  0.17688700  0.35377300  0.31243100  1
  O  O3  1  0.00000000  0.50000000  0.00000000  1
  O  O4  1  0.17688700  0.82311300  0.31243100  1
  O  O5  1  0.64622700  0.82311300  0.31243100  1
  O  O6  1  0.82311300  0.17688700  0.68756900  1
  O  O7  1  0.50000000  0.00000000  0.00000000  1
  O  O8  1  0.50000000  0.50000000  0.00000000  1
loop_
_geom_bond_atom_site_label_1
_geom_bond_atom_site_label_2
_geom_bond_distance
_geom_bond_site_symmetry_2
Ba0 O4 2.982540 1_655
Ba0 O4 2.982540 1_545
Ba0 O2 2.982540 1_655
Ba0 O5 2.982540 1_545
Ba0 O5 2.982540 1_555
Ba0 O2 2.982540 1_555
Ba0 O3 3.006713 1_655
Ba0 O7 3.006713 1_555
Ba0 O8 3.006716 1_555
Ba0 O6 3.056558 1_555
Ba0 O1 3.056564 1_555
Ba0 O0 3.056564 1_555
Ba1 O0 2.935977 1_554
Ba1 O2 2.935977 1_555
Ba1 O1 2.935977 1_444
Ba1 O5 2.935977 1_445
Ba1 O6 2.935980 1_454
Ba1 O4 2.935980 1_545
Ba1 O8 2.976029 1_555
Ba1 O8 2.976029 1_445
Ba1 O3 2.976029 1_545
Ba1 O3 2.976029 1_555
Ba1 O7 2.976029 1_455
Ba1 O7 2.976029 1_555
Ba2 O6 2.982540 1_455
Ba2 O6 2.982540 1_565
Ba2 O0 2.982540 1_565
Ba2 O1 2.982540 1_455
Ba2 O1 2.982540 1_555
Ba2 O0 2.982540 1_555
Ba2 O3 3.006713 1_556
Ba2 O7 3.006713 1_566
Ba2 O8 3.006716 1_556
Ba2 O4 3.056558 1_555
Ba2 O5 3.056564 1_555
Ba2 O2 3.056564 1_555
Cd0 O2 2.287726 1_555
Cd0 O5 2.287726 1_445
Cd0 O0 2.287726 1_555
Cd0 O1 2.287726 1_445
Cd0 O6 2.287731 1_455
Cd0 O4 2.287731 1_545
O0 Ta1 1.933367 1_555
O1 Ta1 1.933367 1_555
O2 Ta0 1.933367 1_555
O3 Ta0 2.115927 1_555
O3 Ta1 2.115927 1_454
O4 Ta0 1.933359 1_555
O5 Ta0 1.933367 1_555
O6 Ta1 1.933359 1_555
O7 Ta0 2.115927 1_545
O7 Ta1 2.115927 1_554
O8 Ta0 2.115931 1_555
O8 Ta1 2.115931 1_554
