# generated using pymatgen
data_Pr2O3
_symmetry_space_group_name_H-M   'P 1'
_cell_length_a   3.73237181
_cell_length_b   7.50315769
_cell_length_c   9.09482720
_cell_angle_alpha   99.50322948
_cell_angle_beta   90.00000000
_cell_angle_gamma   104.40178549
_symmetry_Int_Tables_number   1
_chemical_formula_structural   Pr2O3
_chemical_formula_sum   'Pr6 O9'
_cell_volume   243.08257777
_cell_formula_units_Z   3
loop_
 _symmetry_equiv_pos_site_id
 _symmetry_equiv_pos_as_xyz
  1  'x, y, z'
loop_
 _atom_site_type_symbol
 _atom_site_label
 _atom_site_symmetry_multiplicity
 _atom_site_fract_x
 _atom_site_fract_y
 _atom_site_fract_z
 _atom_site_occupancy
  Pr  Pr0  1  0.96595755  0.93191309  0.18854824  1
  Pr  Pr1  1  0.03404245  0.06808691  0.81145176  1
  Pr  Pr2  1  0.30970680  0.61941561  0.86168787  1
  Pr  Pr3  1  0.63472095  0.26943990  0.48908034  1
  Pr  Pr4  1  0.36527905  0.73056010  0.51091966  1
  Pr  Pr5  1  0.69029320  0.38058439  0.13831213  1
  O  O0  1  0.12948086  0.25895973  0.28656096  1
  O  O1  1  0.17552313  0.35104427  0.97406247  1
  O  O2  1  0.47421666  0.94843532  0.34425228  1
  O  O3  1  0.79842249  0.59684497  0.37252512  1
  O  O4  1  0.87051914  0.74104027  0.71343904  1
  O  O5  1  0.50000000  -0.00000000  -0.00000000  1
  O  O6  1  0.52578334  0.05156468  0.65574772  1
  O  O7  1  0.82447687  0.64895573  0.02593753  1
  O  O8  1  0.20157751  0.40315503  0.62747488  1
loop_
_geom_bond_atom_site_label_1
_geom_bond_atom_site_label_2
_geom_bond_distance
_geom_bond_site_symmetry_2
O0 Pr0 2.391934 1_445
O0 Pr5 2.547177 1_455
O0 Pr5 2.547177 1_555
O0 Pr3 2.614028 1_455
O0 Pr3 2.614028 1_555
O1 Pr1 2.319267 1_555
O1 Pr2 2.351167 1_555
O1 Pr5 2.377165 1_456
O1 Pr5 2.377165 1_556
O2 Pr0 2.333327 1_455
O2 Pr0 2.333339 1_555
O2 Pr4 2.371291 1_555
O2 Pr3 2.475810 1_565
O3 Pr4 2.365211 1_655
O3 Pr4 2.365217 1_555
O3 Pr5 2.422020 1_555
O3 Pr3 2.764962 1_555
O3 Pr0 3.180932 1_555
O4 Pr1 2.391934 1_665
O4 Pr2 2.547177 1_655
O4 Pr2 2.547177 1_555
O4 Pr4 2.614028 1_655
O4 Pr4 2.614028 1_555
O5 Pr0 2.637676 1_445
O5 Pr1 2.637676 1_654
O5 Pr0 2.637682 1_545
O5 Pr1 2.637682 1_554
O5 Pr2 2.836575 1_544
O5 Pr5 2.836575 1_555
O6 Pr1 2.333327 1_655
O6 Pr1 2.333339 1_555
O6 Pr3 2.371291 1_555
O6 Pr4 2.475810 1_545
O7 Pr0 2.319267 1_555
O7 Pr5 2.351167 1_555
O7 Pr2 2.377165 1_654
O7 Pr2 2.377165 1_554
O8 Pr3 2.365211 1_455
O8 Pr3 2.365217 1_555
O8 Pr2 2.422020 1_555
O8 Pr4 2.764962 1_555
O8 Pr1 3.180932 1_555
