# generated using pymatgen
data_H6NO2F
_symmetry_space_group_name_H-M   'P 1'
_cell_length_a   4.52588300
_cell_length_b   8.24473500
_cell_length_c   9.05309700
_cell_angle_alpha   90.00000000
_cell_angle_beta   90.00000000
_cell_angle_gamma   90.00000000
_symmetry_Int_Tables_number   1
_chemical_formula_structural   H6NO2F
_chemical_formula_sum   'H24 N4 O8 F4'
_cell_volume   337.81365273
_cell_formula_units_Z   4
loop_
 _symmetry_equiv_pos_site_id
 _symmetry_equiv_pos_as_xyz
  1  'x, y, z'
loop_
 _atom_site_type_symbol
 _atom_site_label
 _atom_site_symmetry_multiplicity
 _atom_site_fract_x
 _atom_site_fract_y
 _atom_site_fract_z
 _atom_site_occupancy
  H  H0  1  0.28093000  0.03319200  0.09652200  1
  H  H1  1  0.08714700  0.78368700  0.75000000  1
  H  H2  1  0.58714700  0.71631300  0.25000000  1
  H  H3  1  0.28093000  0.03319200  0.40347700  1
  H  H4  1  0.46446500  0.77029900  0.75000000  1
  H  H5  1  0.75619200  0.86896100  0.15619700  1
  H  H6  1  0.71907000  0.96680800  0.59652200  1
  H  H7  1  0.78093000  0.46680800  0.90347800  1
  H  H8  1  0.21907000  0.53319200  0.40347700  1
  H  H9  1  0.41285300  0.28368700  0.75000000  1
  H  H10  1  0.25619200  0.63103900  0.65619700  1
  H  H11  1  0.53553500  0.22970100  0.25000000  1
  H  H12  1  0.24380800  0.13103900  0.84380300  1
  H  H13  1  0.24380800  0.13103900  0.65619700  1
  H  H14  1  0.74380800  0.36896100  0.34380300  1
  H  H15  1  0.74380800  0.36896100  0.15619700  1
  H  H16  1  0.25619200  0.63103900  0.84380300  1
  H  H17  1  0.78093000  0.46680800  0.59652200  1
  H  H18  1  0.03553500  0.27029900  0.75000000  1
  H  H19  1  0.91285300  0.21631300  0.25000000  1
  H  H20  1  0.21907000  0.53319200  0.09652200  1
  H  H21  1  0.71907000  0.96680800  0.90347800  1
  H  H22  1  0.96446500  0.72970100  0.25000000  1
  H  H23  1  0.75619200  0.86896100  0.34380300  1
  N  N0  1  0.76805700  0.79588100  0.25000000  1
  N  N1  1  0.23194300  0.20411900  0.75000000  1
  N  N2  1  0.73194300  0.29588100  0.25000000  1
  N  N3  1  0.26805700  0.70411900  0.75000000  1
  O  O0  1  0.16188200  0.48806000  0.99578300  1
  O  O1  1  0.83811800  0.51194000  0.49578300  1
  O  O2  1  0.33811800  0.98806000  0.50421700  1
  O  O3  1  0.66188200  0.01194000  0.00421700  1
  O  O4  1  0.33811800  0.98806000  0.99578300  1
  O  O5  1  0.83811800  0.51194000  0.00421700  1
  O  O6  1  0.66188200  0.01194000  0.49578300  1
  O  O7  1  0.16188200  0.48806000  0.50421700  1
  F  F0  1  0.27858800  0.60374100  0.25000000  1
  F  F1  1  0.77858800  0.89625900  0.75000000  1
  F  F2  1  0.72141200  0.39625900  0.75000000  1
  F  F3  1  0.22141200  0.10374100  0.25000000  1
loop_
_geom_bond_atom_site_label_1
_geom_bond_atom_site_label_2
_geom_bond_distance
_geom_bond_site_symmetry_2
H0 O4 1.018427 1_544
H1 N3 1.049169 1_555
H2 N0 1.049169 1_555
H3 O2 1.018435 1_545
H4 N3 1.043023 1_555
H5 N0 1.042628 1_555
H6 O6 1.018427 1_565
H7 O5 1.018427 1_556
H8 O7 1.018435 1_555
H9 N1 1.049169 1_555
H10 N3 1.042628 1_555
H11 N2 1.043023 1_555
H12 N1 1.042628 1_555
H13 N1 1.042628 1_555
H14 N2 1.042628 1_555
H15 N2 1.042628 1_555
H16 N3 1.042628 1_555
H17 O1 1.018427 1_555
H18 N1 1.043023 1_555
H19 N2 1.049169 1_555
H20 O0 1.018427 1_554
H21 O3 1.018427 1_566
H22 N0 1.043023 1_555
H23 N0 1.042628 1_555
F0 H8 1.530175 1_555
F0 H20 1.530183 1_555
F1 H6 1.530183 1_555
F1 H21 1.530183 1_555
F2 H17 1.530183 1_555
F2 H7 1.530183 1_555
F3 H3 1.530175 1_555
F3 H0 1.530183 1_555
