# generated using pymatgen
data_Na4Zr2(SiO4)3
_symmetry_space_group_name_H-M   'P 1'
_cell_length_a   9.21699308
_cell_length_b   9.21699308
_cell_length_c   9.21699252
_cell_angle_alpha   60.74072555
_cell_angle_beta   60.74072555
_cell_angle_gamma   60.74072674
_symmetry_Int_Tables_number   1
_chemical_formula_structural   Na4Zr2(SiO4)3
_chemical_formula_sum   'Na8 Zr4 Si6 O24'
_cell_volume   562.92621900
_cell_formula_units_Z   2
loop_
 _symmetry_equiv_pos_site_id
 _symmetry_equiv_pos_as_xyz
  1  'x, y, z'
loop_
 _atom_site_type_symbol
 _atom_site_label
 _atom_site_symmetry_multiplicity
 _atom_site_fract_x
 _atom_site_fract_y
 _atom_site_fract_z
 _atom_site_occupancy
  Na  Na0  1  0.74906500  0.38849100  0.11914100  1
  Na  Na1  1  0.24906500  0.61914100  0.88849100  1
  Na  Na2  1  0.38849100  0.11914100  0.74906500  1
  Na  Na3  1  0.61914100  0.88849100  0.24906500  1
  Na  Na4  1  0.11914100  0.74906500  0.38849100  1
  Na  Na5  1  0.49873800  0.49873800  0.49873800  1
  Na  Na6  1  0.88849100  0.24906500  0.61914100  1
  Na  Na7  1  0.99873800  0.99873800  0.99873800  1
  Zr  Zr0  1  0.64455000  0.64455000  0.64455000  1
  Zr  Zr1  1  0.85117000  0.85117000  0.85117000  1
  Zr  Zr2  1  0.14455000  0.14455000  0.14455000  1
  Zr  Zr3  1  0.35117000  0.35117000  0.35117000  1
  Si  Si0  1  0.95022500  0.54427000  0.24837400  1
  Si  Si1  1  0.45022500  0.74837400  0.04427000  1
  Si  Si2  1  0.74837400  0.04427000  0.45022500  1
  Si  Si3  1  0.04427000  0.45022500  0.74837400  1
  Si  Si4  1  0.54427000  0.24837400  0.95022500  1
  Si  Si5  1  0.24837400  0.95022500  0.54427000  1
  O  O0  1  0.26746800  0.91644300  0.06230700  1
  O  O1  1  0.43164200  0.58113700  0.22825100  1
  O  O2  1  0.00636800  0.62152300  0.79089000  1
  O  O3  1  0.76746800  0.56230700  0.41644300  1
  O  O4  1  0.06230700  0.26746800  0.91644300  1
  O  O5  1  0.41644300  0.76746800  0.56230700  1
  O  O6  1  0.20434100  0.98558400  0.37472400  1
  O  O7  1  0.70434100  0.87472400  0.48558400  1
  O  O8  1  0.62152300  0.79089000  0.00636800  1
  O  O9  1  0.56230700  0.41644300  0.76746800  1
  O  O10  1  0.98558400  0.37472400  0.20434100  1
  O  O11  1  0.93164200  0.72825100  0.08113700  1
  O  O12  1  0.29089000  0.12152300  0.50636800  1
  O  O13  1  0.72825100  0.08113700  0.93164200  1
  O  O14  1  0.87472400  0.48558400  0.70434100  1
  O  O15  1  0.12152300  0.50636800  0.29089000  1
  O  O16  1  0.08113700  0.93164200  0.72825100  1
  O  O17  1  0.48558400  0.70434100  0.87472400  1
  O  O18  1  0.37472400  0.20434100  0.98558400  1
  O  O19  1  0.58113700  0.22825100  0.43164200  1
  O  O20  1  0.50636800  0.29089000  0.12152300  1
  O  O21  1  0.22825100  0.43164200  0.58113700  1
  O  O22  1  0.91644300  0.06230700  0.26746800  1
  O  O23  1  0.79089000  0.00636800  0.62152300  1
loop_
_geom_bond_atom_site_label_1
_geom_bond_atom_site_label_2
_geom_bond_distance
_geom_bond_site_symmetry_2
Na0 O1 2.552466 1_555
Na0 O19 2.567385 1_555
Na0 O4 2.585845 1_654
Na0 O10 2.586656 1_555
Na0 O22 2.607245 1_555
Na0 O20 2.777302 1_555
Na1 O11 2.552466 1_456
Na1 O16 2.567385 1_555
Na1 O9 2.585846 1_555
Na1 O17 2.586656 1_555
Na1 O5 2.607244 1_555
Na1 O2 2.777302 1_555
Na2 O19 2.552466 1_555
Na2 O21 2.567385 1_555
Na2 O0 2.585845 1_546
Na2 O18 2.586656 1_555
Na2 O4 2.607245 1_555
Na2 O12 2.777302 1_555
Na3 O13 2.552466 1_564
Na3 O11 2.567385 1_555
Na3 O5 2.585845 1_555
Na3 O7 2.586656 1_555
Na3 O3 2.607245 1_555
Na3 O8 2.777302 1_555
Na4 O21 2.552466 1_555
Na4 O1 2.567385 1_555
Na4 O22 2.585846 1_465
Na4 O6 2.586656 1_555
Na4 O0 2.607244 1_555
Na4 O15 2.777302 1_555
Na5 O9 2.490232 1_555
Na5 O5 2.490232 1_555
Na5 O3 2.490232 1_555
Na5 O1 2.524246 1_555
Na5 O19 2.524246 1_555
Na5 O21 2.524246 1_555
Na6 O16 2.552466 1_645
Na6 O13 2.567385 1_555
Na6 O3 2.585845 1_555
Na6 O14 2.586656 1_555
Na6 O9 2.607245 1_555
Na6 O23 2.777302 1_555
Na7 O22 2.490232 1_566
Na7 O0 2.490232 1_656
Na7 O4 2.490232 1_665
Na7 O16 2.524246 1_655
Na7 O13 2.524246 1_565
Na7 O11 2.524246 1_556
O0 Si1 1.640734 1_555
O0 Zr2 2.160670 1_565
O1 Si1 1.643147 1_555
O1 Zr3 2.166648 1_555
O2 Si3 1.643226 1_555
O2 Zr1 2.061086 1_455
O3 Si0 1.640734 1_555
O3 Zr0 2.160670 1_555
O4 Si3 1.640734 1_555
O4 Zr2 2.160670 1_556
O5 Si5 1.640734 1_555
O5 Zr0 2.160670 1_555
O6 Si5 1.644933 1_555
O6 Zr2 2.065504 1_565
O7 Si2 1.644933 1_565
O7 Zr0 2.065504 1_555
O8 Si1 1.643226 1_555
O8 Zr1 2.061086 1_554
O9 Si4 1.640734 1_555
O9 Zr0 2.160670 1_555
O10 Si0 1.644933 1_555
O10 Zr2 2.065504 1_655
O11 Si0 1.643147 1_555
O11 Zr1 2.166648 1_554
O12 Si5 1.643226 1_545
O12 Zr3 2.061086 1_555
O13 Si4 1.643147 1_555
O13 Zr1 2.166648 1_545
O14 Si3 1.644933 1_655
O14 Zr0 2.065504 1_555
O15 Si0 1.643226 1_455
O15 Zr3 2.061086 1_555
O16 Si5 1.643147 1_555
O16 Zr1 2.166648 1_455
O17 Si1 1.644933 1_556
O17 Zr0 2.065504 1_555
O18 Si4 1.644933 1_555
O18 Zr2 2.065504 1_556
O19 Si2 1.643147 1_555
O19 Zr3 2.166648 1_555
O20 Si4 1.643226 1_554
O20 Zr3 2.061086 1_555
O21 Si3 1.643147 1_555
O21 Zr3 2.166648 1_555
O22 Si2 1.640734 1_555
O22 Zr2 2.160670 1_655
O23 Si2 1.643226 1_555
O23 Zr1 2.061086 1_545
