# generated using pymatgen
data_SiO2
_symmetry_space_group_name_H-M   'P 1'
_cell_length_a   15.31061119
_cell_length_b   15.31061119
_cell_length_c   15.31061119
_cell_angle_alpha   60.00000000
_cell_angle_beta   60.00000000
_cell_angle_gamma   60.00000000
_symmetry_Int_Tables_number   1
_chemical_formula_structural   SiO2
_chemical_formula_sum   'Si48 O96'
_cell_volume   2537.83034524
_cell_formula_units_Z   48
loop_
 _symmetry_equiv_pos_site_id
 _symmetry_equiv_pos_as_xyz
  1  'x, y, z'
loop_
 _atom_site_type_symbol
 _atom_site_label
 _atom_site_symmetry_multiplicity
 _atom_site_fract_x
 _atom_site_fract_y
 _atom_site_fract_z
 _atom_site_occupancy
  Si  Si0  1  0.01731000  0.34027500  0.80107400  1
  Si  Si1  1  0.84027500  0.30107400  0.34134100  1
  Si  Si2  1  0.84134100  0.01731000  0.80107400  1
  Si  Si3  1  0.84134100  0.34027500  0.01731000  1
  Si  Si4  1  0.34027500  0.80107400  0.01731000  1
  Si  Si5  1  0.80107400  0.01731000  0.34027500  1
  Si  Si6  1  0.80107400  0.34027500  0.84134100  1
  Si  Si7  1  0.84134100  0.80107400  0.34027500  1
  Si  Si8  1  0.34134100  0.84027500  0.30107400  1
  Si  Si9  1  0.01731000  0.84134100  0.34027500  1
  Si  Si10  1  0.84027500  0.51731000  0.30107400  1
  Si  Si11  1  0.51731000  0.30107400  0.84027500  1
  Si  Si12  1  0.30107400  0.84027500  0.51731000  1
  Si  Si13  1  0.69892600  0.48269000  0.65865900  1
  Si  Si14  1  0.34134100  0.30107400  0.51731000  1
  Si  Si15  1  0.65972500  0.98269000  0.15865900  1
  Si  Si16  1  0.01731000  0.80107400  0.84134100  1
  Si  Si17  1  0.15972500  0.69892600  0.65865900  1
  Si  Si18  1  0.80107400  0.84134100  0.01731000  1
  Si  Si19  1  0.34027500  0.01731000  0.84134100  1
  Si  Si20  1  0.65972500  0.19892600  0.98269000  1
  Si  Si21  1  0.30107400  0.51731000  0.34134100  1
  Si  Si22  1  0.15972500  0.48269000  0.69892600  1
  Si  Si23  1  0.84027500  0.34134100  0.51731000  1
  Si  Si24  1  0.51731000  0.34134100  0.30107400  1
  Si  Si25  1  0.34027500  0.84134100  0.80107400  1
  Si  Si26  1  0.34134100  0.51731000  0.84027500  1
  Si  Si27  1  0.48269000  0.65865900  0.69892600  1
  Si  Si28  1  0.65865900  0.69892600  0.48269000  1
  Si  Si29  1  0.30107400  0.34134100  0.84027500  1
  Si  Si30  1  0.65972500  0.15865900  0.19892600  1
  Si  Si31  1  0.98269000  0.15865900  0.65972500  1
  Si  Si32  1  0.15865900  0.98269000  0.19892600  1
  Si  Si33  1  0.19892600  0.65972500  0.15865900  1
  Si  Si34  1  0.19892600  0.98269000  0.65972500  1
  Si  Si35  1  0.15865900  0.19892600  0.65972500  1
  Si  Si36  1  0.69892600  0.65865900  0.15972500  1
  Si  Si37  1  0.48269000  0.69892600  0.15972500  1
  Si  Si38  1  0.65865900  0.15972500  0.69892600  1
  Si  Si39  1  0.51731000  0.84027500  0.34134100  1
  Si  Si40  1  0.15972500  0.65865900  0.48269000  1
  Si  Si41  1  0.19892600  0.15865900  0.98269000  1
  Si  Si42  1  0.65865900  0.48269000  0.15972500  1
  Si  Si43  1  0.69892600  0.15972500  0.48269000  1
  Si  Si44  1  0.48269000  0.15972500  0.65865900  1
  Si  Si45  1  0.15865900  0.65972500  0.98269000  1
  Si  Si46  1  0.98269000  0.19892600  0.15865900  1
  Si  Si47  1  0.98269000  0.65972500  0.19892600  1
  O  O0  1  0.72374900  0.54242200  0.15804700  1
  O  O1  1  0.37897400  0.25759900  0.62102600  1
  O  O2  1  0.22374900  0.07578200  0.65804700  1
  O  O3  1  0.95757800  0.34195300  0.92421800  1
  O  O4  1  0.62102600  0.74240100  0.37897400  1
  O  O5  1  0.54242200  0.57578200  0.15804700  1
  O  O6  1  0.12102600  0.75759900  0.87897400  1
  O  O7  1  0.62102600  0.25759900  0.74240100  1
  O  O8  1  0.22374900  0.04242200  0.07578200  1
  O  O9  1  0.57578200  0.15804700  0.54242200  1
  O  O10  1  0.42421800  0.27625100  0.84195300  1
  O  O11  1  0.54242200  0.72374900  0.57578200  1
  O  O12  1  0.25000000  0.55947800  0.25000000  1
  O  O13  1  0.75000000  0.44052200  0.75000000  1
  O  O14  1  0.25759900  0.37897400  0.74240100  1
  O  O15  1  0.34195300  0.95757800  0.77625100  1
  O  O16  1  0.15804700  0.72374900  0.54242200  1
  O  O17  1  0.55947800  0.25000000  0.94052200  1
  O  O18  1  0.25000000  0.25000000  0.94052200  1
  O  O19  1  0.04242200  0.07578200  0.22374900  1
  O  O20  1  0.57578200  0.54242200  0.72374900  1
  O  O21  1  0.42421800  0.45757800  0.27625100  1
  O  O22  1  0.74240100  0.62102600  0.25759900  1
  O  O23  1  0.87897400  0.75759900  0.24240100  1
  O  O24  1  0.04242200  0.22374900  0.65804700  1
  O  O25  1  0.72374900  0.15804700  0.57578200  1
  O  O26  1  0.77625100  0.34195300  0.95757800  1
  O  O27  1  0.75000000  0.05947800  0.44052200  1
  O  O28  1  0.15804700  0.57578200  0.72374900  1
  O  O29  1  0.77625100  0.95757800  0.92421800  1
  O  O30  1  0.25759900  0.62102600  0.37897400  1
  O  O31  1  0.94052200  0.25000000  0.25000000  1
  O  O32  1  0.95757800  0.92421800  0.77625100  1
  O  O33  1  0.05947800  0.75000000  0.75000000  1
  O  O34  1  0.75000000  0.44052200  0.05947800  1
  O  O35  1  0.25000000  0.25000000  0.55947800  1
  O  O36  1  0.92421800  0.95757800  0.34195300  1
  O  O37  1  0.25759900  0.74240100  0.62102600  1
  O  O38  1  0.55947800  0.25000000  0.25000000  1
  O  O39  1  0.72374900  0.57578200  0.54242200  1
  O  O40  1  0.27625100  0.45757800  0.84195300  1
  O  O41  1  0.45757800  0.84195300  0.27625100  1
  O  O42  1  0.87897400  0.12102600  0.75759900  1
  O  O43  1  0.24240100  0.12102600  0.87897400  1
  O  O44  1  0.75000000  0.75000000  0.05947800  1
  O  O45  1  0.84195300  0.45757800  0.42421800  1
  O  O46  1  0.34195300  0.92421800  0.95757800  1
  O  O47  1  0.92421800  0.77625100  0.95757800  1
  O  O48  1  0.65804700  0.22374900  0.07578200  1
  O  O49  1  0.87897400  0.24240100  0.12102600  1
  O  O50  1  0.05947800  0.44052200  0.75000000  1
  O  O51  1  0.37897400  0.62102600  0.74240100  1
  O  O52  1  0.94052200  0.25000000  0.55947800  1
  O  O53  1  0.54242200  0.15804700  0.72374900  1
  O  O54  1  0.65804700  0.07578200  0.04242200  1
  O  O55  1  0.92421800  0.34195300  0.77625100  1
  O  O56  1  0.07578200  0.22374900  0.04242200  1
  O  O57  1  0.24240100  0.75759900  0.12102600  1
  O  O58  1  0.55947800  0.94052200  0.25000000  1
  O  O59  1  0.45757800  0.42421800  0.84195300  1
  O  O60  1  0.45757800  0.27625100  0.42421800  1
  O  O61  1  0.25000000  0.94052200  0.55947800  1
  O  O62  1  0.34195300  0.77625100  0.92421800  1
  O  O63  1  0.05947800  0.75000000  0.44052200  1
  O  O64  1  0.62102600  0.37897400  0.25759900  1
  O  O65  1  0.27625100  0.42421800  0.45757800  1
  O  O66  1  0.07578200  0.65804700  0.22374900  1
  O  O67  1  0.95757800  0.77625100  0.34195300  1
  O  O68  1  0.75000000  0.75000000  0.44052200  1
  O  O69  1  0.25000000  0.94052200  0.25000000  1
  O  O70  1  0.07578200  0.04242200  0.65804700  1
  O  O71  1  0.57578200  0.72374900  0.15804700  1
  O  O72  1  0.44052200  0.75000000  0.05947800  1
  O  O73  1  0.12102600  0.24240100  0.75759900  1
  O  O74  1  0.12102600  0.87897400  0.24240100  1
  O  O75  1  0.65804700  0.04242200  0.22374900  1
  O  O76  1  0.27625100  0.84195300  0.42421800  1
  O  O77  1  0.15804700  0.54242200  0.57578200  1
  O  O78  1  0.75759900  0.87897400  0.12102600  1
  O  O79  1  0.94052200  0.55947800  0.25000000  1
  O  O80  1  0.74240100  0.25759900  0.37897400  1
  O  O81  1  0.84195300  0.42421800  0.27625100  1
  O  O82  1  0.84195300  0.27625100  0.45757800  1
  O  O83  1  0.77625100  0.92421800  0.34195300  1
  O  O84  1  0.75759900  0.24240100  0.87897400  1
  O  O85  1  0.75000000  0.05947800  0.75000000  1
  O  O86  1  0.25000000  0.55947800  0.94052200  1
  O  O87  1  0.37897400  0.74240100  0.25759900  1
  O  O88  1  0.42421800  0.84195300  0.45757800  1
  O  O89  1  0.74240100  0.37897400  0.62102600  1
  O  O90  1  0.44052200  0.75000000  0.75000000  1
  O  O91  1  0.44052200  0.05947800  0.75000000  1
  O  O92  1  0.24240100  0.87897400  0.75759900  1
  O  O93  1  0.04242200  0.65804700  0.07578200  1
  O  O94  1  0.22374900  0.65804700  0.04242200  1
  O  O95  1  0.75759900  0.12102600  0.24240100  1
loop_
_geom_bond_atom_site_label_1
_geom_bond_atom_site_label_2
_geom_bond_distance
_geom_bond_site_symmetry_2
O0 Si36 1.634588 1_555
O0 Si42 1.640876 1_555
O1 Si14 1.664660 1_555
O1 Si44 1.664660 1_555
O2 Si34 1.634588 1_545
O2 Si35 1.640876 1_555
O3 Si3 1.634588 1_556
O3 Si0 1.640876 1_655
O4 Si28 1.664660 1_555
O4 Si39 1.664660 1_555
O5 Si42 1.634588 1_555
O5 Si37 1.640876 1_555
O6 Si16 1.664660 1_555
O6 Si45 1.664660 1_555
O7 Si38 1.664660 1_555
O7 Si11 1.664660 1_555
O8 Si41 1.634588 1_554
O8 Si32 1.640876 1_545
O9 Si44 1.634588 1_555
O9 Si43 1.640876 1_555
O10 Si11 1.634588 1_555
O10 Si29 1.640876 1_555
O11 Si28 1.634588 1_555
O11 Si27 1.640876 1_555
O12 Si33 1.633985 1_555
O12 Si21 1.633985 1_555
O13 Si6 1.633985 1_555
O13 Si13 1.633985 1_555
O14 Si22 1.664660 1_555
O14 Si29 1.664660 1_555
O15 Si25 1.634588 1_555
O15 Si19 1.640876 1_565
O16 Si17 1.634588 1_555
O16 Si40 1.640876 1_555
O17 Si11 1.633985 1_555
O17 Si20 1.633985 1_555
O18 Si29 1.633985 1_555
O18 Si41 1.633985 1_555
O19 Si32 1.634588 1_545
O19 Si46 1.640876 1_455
O20 Si27 1.634588 1_555
O20 Si13 1.640876 1_555
O21 Si24 1.634588 1_555
O21 Si21 1.640876 1_555
O22 Si36 1.664660 1_555
O22 Si10 1.664660 1_555
O23 Si47 1.664660 1_555
O23 Si7 1.664660 1_555
O24 Si35 1.634588 1_555
O24 Si31 1.640876 1_455
O25 Si43 1.634588 1_555
O25 Si38 1.640876 1_555
O26 Si6 1.634588 1_555
O26 Si3 1.640876 1_556
O27 Si5 1.633985 1_555
O27 Si43 1.633985 1_555
O28 Si22 1.634588 1_555
O28 Si17 1.640876 1_555
O29 Si18 1.634588 1_556
O29 Si2 1.640876 1_565
O30 Si21 1.664660 1_555
O30 Si40 1.664660 1_555
O31 Si46 1.633985 1_555
O31 Si1 1.633985 1_555
O32 Si2 1.634588 1_565
O32 Si16 1.640876 1_655
O33 Si16 1.633985 1_555
O33 Si17 1.633985 1_555
O34 Si3 1.633985 1_555
O34 Si42 1.633985 1_555
O35 Si35 1.633985 1_555
O35 Si14 1.633985 1_555
O36 Si9 1.634588 1_655
O36 Si5 1.640876 1_565
O37 Si17 1.664660 1_555
O37 Si12 1.664660 1_555
O38 Si24 1.633985 1_555
O38 Si30 1.633985 1_555
O39 Si13 1.634588 1_555
O39 Si28 1.640876 1_555
O40 Si29 1.634588 1_555
O40 Si26 1.640876 1_555
O41 Si8 1.634588 1_555
O41 Si39 1.640876 1_555
O42 Si2 1.664660 1_555
O42 Si31 1.664660 1_555
O43 Si19 1.664660 1_555
O43 Si41 1.664660 1_555
O44 Si18 1.633985 1_555
O44 Si36 1.633985 1_555
O45 Si23 1.634588 1_555
O45 Si10 1.640876 1_555
O46 Si19 1.634588 1_565
O46 Si4 1.640876 1_556
O47 Si16 1.634588 1_655
O47 Si18 1.640876 1_556
O48 Si20 1.634588 1_554
O48 Si30 1.640876 1_555
O49 Si3 1.664660 1_555
O49 Si46 1.664660 1_555
O50 Si0 1.633985 1_555
O50 Si22 1.633985 1_555
O51 Si27 1.664660 1_555
O51 Si26 1.664660 1_555
O52 Si23 1.633985 1_555
O52 Si31 1.633985 1_555
O53 Si38 1.634588 1_555
O53 Si44 1.640876 1_555
O54 Si15 1.634588 1_545
O54 Si20 1.640876 1_554
O55 Si0 1.634588 1_655
O55 Si6 1.640876 1_555
O56 Si46 1.634588 1_455
O56 Si41 1.640876 1_554
O57 Si33 1.664660 1_555
O57 Si4 1.664660 1_555
O58 Si39 1.633985 1_555
O58 Si15 1.633985 1_555
O59 Si26 1.634588 1_555
O59 Si11 1.640876 1_555
O60 Si14 1.634588 1_555
O60 Si24 1.640876 1_555
O61 Si12 1.633985 1_555
O61 Si34 1.633985 1_555
O62 Si4 1.634588 1_556
O62 Si25 1.640876 1_555
O63 Si9 1.633985 1_555
O63 Si40 1.633985 1_555
O64 Si24 1.664660 1_555
O64 Si42 1.664660 1_555
O65 Si21 1.634588 1_555
O65 Si14 1.640876 1_555
O66 Si47 1.634588 1_455
O66 Si33 1.640876 1_555
O67 Si7 1.634588 1_555
O67 Si9 1.640876 1_655
O68 Si7 1.633985 1_555
O68 Si28 1.633985 1_555
O69 Si32 1.633985 1_555
O69 Si8 1.633985 1_555
O70 Si31 1.634588 1_455
O70 Si34 1.640876 1_545
O71 Si37 1.634588 1_555
O71 Si36 1.640876 1_555
O72 Si4 1.633985 1_555
O72 Si37 1.633985 1_555
O73 Si35 1.664660 1_555
O73 Si0 1.664660 1_555
O74 Si9 1.664660 1_555
O74 Si32 1.664660 1_555
O75 Si30 1.634588 1_555
O75 Si15 1.640876 1_545
O76 Si12 1.634588 1_555
O76 Si8 1.640876 1_555
O77 Si40 1.634588 1_555
O77 Si22 1.640876 1_555
O78 Si18 1.664660 1_555
O78 Si15 1.664660 1_555
O79 Si10 1.633985 1_555
O79 Si47 1.633985 1_555
O80 Si43 1.664660 1_555
O80 Si1 1.664660 1_555
O81 Si10 1.634588 1_555
O81 Si1 1.640876 1_555
O82 Si1 1.634588 1_555
O82 Si23 1.640876 1_555
O83 Si5 1.634588 1_565
O83 Si7 1.640876 1_555
O84 Si20 1.664660 1_555
O84 Si6 1.664660 1_555
O85 Si2 1.633985 1_555
O85 Si38 1.633985 1_555
O86 Si26 1.633985 1_555
O86 Si45 1.633985 1_555
O87 Si37 1.664660 1_555
O87 Si8 1.664660 1_555
O88 Si39 1.634588 1_555
O88 Si12 1.640876 1_555
O89 Si13 1.664660 1_555
O89 Si23 1.664660 1_555
O90 Si25 1.633985 1_555
O90 Si27 1.633985 1_555
O91 Si19 1.633985 1_555
O91 Si44 1.633985 1_555
O92 Si34 1.664660 1_555
O92 Si25 1.664660 1_555
O93 Si45 1.634588 1_554
O93 Si47 1.640876 1_455
O94 Si33 1.634588 1_555
O94 Si45 1.640876 1_554
O95 Si30 1.664660 1_555
O95 Si5 1.664660 1_555
