# generated using pymatgen
data_Mg2B4Ru5
_symmetry_space_group_name_H-M   'P 1'
_cell_length_a   5.89975414
_cell_length_b   16.71890334
_cell_length_c   20.00577736
_cell_angle_alpha   89.99896966
_cell_angle_beta   90.00000073
_cell_angle_gamma   90.00000120
_symmetry_Int_Tables_number   1
_chemical_formula_structural   Mg2B4Ru5
_chemical_formula_sum   'Mg32 B64 Ru80'
_cell_volume   1973.31824765
_cell_formula_units_Z   16
loop_
 _symmetry_equiv_pos_site_id
 _symmetry_equiv_pos_as_xyz
  1  'x, y, z'
loop_
 _atom_site_type_symbol
 _atom_site_label
 _atom_site_symmetry_multiplicity
 _atom_site_fract_x
 _atom_site_fract_y
 _atom_site_fract_z
 _atom_site_occupancy
  Mg  Mg0_0  1  0.25000005  0.32345163  0.40743611  1
  Mg  Mg0_1  1  0.25000005  0.32345163  0.90743611  1
  Mg  Mg0_2  1  0.25000005  0.82345163  0.40743611  1
  Mg  Mg0_3  1  0.25000005  0.82345163  0.90743611  1
  Mg  Mg0_4  1  0.75000005  0.32345163  0.40743611  1
  Mg  Mg0_5  1  0.75000005  0.32345163  0.90743611  1
  Mg  Mg0_6  1  0.75000005  0.82345163  0.40743611  1
  Mg  Mg0_7  1  0.75000005  0.82345163  0.90743611  1
  Mg  Mg1_0  1  0.24999998  0.17654549  0.09256111  1
  Mg  Mg1_1  1  0.24999998  0.17654550  0.59256111  1
  Mg  Mg1_2  1  0.24999998  0.67654550  0.09256111  1
  Mg  Mg1_3  1  0.24999998  0.67654550  0.59256111  1
  Mg  Mg1_4  1  0.74999998  0.17654549  0.09256111  1
  Mg  Mg1_5  1  0.74999998  0.17654549  0.59256111  1
  Mg  Mg1_6  1  0.74999998  0.67654549  0.09256111  1
  Mg  Mg1_7  1  0.74999998  0.67654549  0.59256111  1
  Mg  Mg2_0  1  0.25000000  0.07344970  0.34254364  1
  Mg  Mg2_1  1  0.25000000  0.07344970  0.84254364  1
  Mg  Mg2_2  1  0.25000000  0.57344970  0.34254364  1
  Mg  Mg2_3  1  0.25000000  0.57344970  0.84254364  1
  Mg  Mg2_4  1  0.74999999  0.07344970  0.34254364  1
  Mg  Mg2_5  1  0.75000000  0.07344970  0.84254364  1
  Mg  Mg2_6  1  0.75000000  0.57344970  0.34254364  1
  Mg  Mg2_7  1  0.74999999  0.57344970  0.84254363  1
  Mg  Mg3_0  1  0.24999991  0.42655132  0.15745936  1
  Mg  Mg3_1  1  0.24999991  0.42655132  0.65745937  1
  Mg  Mg3_2  1  0.24999991  0.92655133  0.15745937  1
  Mg  Mg3_3  1  0.24999991  0.92655133  0.65745937  1
  Mg  Mg3_4  1  0.74999991  0.42655133  0.15745937  1
  Mg  Mg3_5  1  0.74999991  0.42655132  0.65745937  1
  Mg  Mg3_6  1  0.74999991  0.92655133  0.15745937  1
  Mg  Mg3_7  1  0.74999991  0.92655133  0.65745937  1
  B  B0_0  1  0.24999995  0.42611353  0.30132658  1
  B  B0_1  1  0.24999995  0.42611353  0.80132658  1
  B  B0_2  1  0.24999995  0.92611353  0.30132658  1
  B  B0_3  1  0.24999995  0.92611353  0.80132658  1
  B  B0_4  1  0.74999995  0.42611353  0.30132658  1
  B  B0_5  1  0.74999995  0.42611353  0.80132658  1
  B  B0_6  1  0.74999995  0.92611353  0.30132658  1
  B  B0_7  1  0.74999995  0.92611353  0.80132658  1
  B  B1_0  1  0.24999990  0.07389174  0.19866644  1
  B  B1_1  1  0.24999990  0.07389174  0.69866644  1
  B  B1_2  1  0.24999990  0.57389174  0.19866644  1
  B  B1_3  1  0.24999990  0.57389174  0.69866644  1
  B  B1_4  1  0.74999990  0.07389174  0.19866644  1
  B  B1_5  1  0.74999991  0.07389174  0.69866644  1
  B  B1_6  1  0.74999990  0.57389174  0.19866644  1
  B  B1_7  1  0.74999990  0.57389174  0.69866644  1
  B  B2_0  1  0.25000010  0.17611307  0.44867143  1
  B  B2_1  1  0.25000010  0.17611307  0.94867143  1
  B  B2_2  1  0.25000010  0.67611307  0.44867143  1
  B  B2_3  1  0.25000010  0.67611307  0.94867143  1
  B  B2_4  1  0.75000010  0.17611307  0.44867143  1
  B  B2_5  1  0.75000010  0.17611307  0.94867143  1
  B  B2_6  1  0.75000010  0.67611307  0.44867143  1
  B  B2_7  1  0.75000010  0.67611307  0.94867143  1
  B  B3_0  1  0.25000008  0.32388208  0.05133069  1
  B  B3_1  1  0.25000008  0.32388209  0.55133069  1
  B  B3_2  1  0.25000008  0.82388209  0.05133069  1
  B  B3_3  1  0.25000008  0.82388209  0.55133068  1
  B  B3_4  1  0.75000008  0.32388209  0.05133069  1
  B  B3_5  1  0.75000008  0.32388209  0.55133069  1
  B  B3_6  1  0.75000008  0.82388209  0.05133069  1
  B  B3_7  1  0.75000008  0.82388209  0.55133069  1
  B  B4_0  1  0.25000000  0.48008379  0.45540661  1
  B  B4_1  1  0.25000000  0.48008379  0.95540661  1
  B  B4_2  1  0.25000000  0.98008379  0.45540661  1
  B  B4_3  1  0.25000000  0.98008379  0.95540661  1
  B  B4_4  1  0.75000000  0.48008379  0.45540661  1
  B  B4_5  1  0.75000000  0.48008379  0.95540661  1
  B  B4_6  1  0.75000000  0.98008379  0.45540661  1
  B  B4_7  1  0.75000000  0.98008379  0.95540660  1
  B  B5_0  1  0.24999993  0.01992375  0.04459576  1
  B  B5_1  1  0.24999993  0.01992375  0.54459576  1
  B  B5_2  1  0.24999993  0.51992375  0.04459576  1
  B  B5_3  1  0.24999993  0.51992375  0.54459576  1
  B  B5_4  1  0.74999993  0.01992375  0.04459576  1
  B  B5_5  1  0.74999993  0.01992375  0.54459576  1
  B  B5_6  1  0.74999993  0.51992375  0.04459576  1
  B  B5_7  1  0.74999993  0.51992375  0.54459576  1
  B  B6_0  1  0.25000007  0.23007547  0.29459148  1
  B  B6_1  1  0.25000007  0.23007547  0.79459148  1
  B  B6_2  1  0.25000007  0.73007547  0.29459148  1
  B  B6_3  1  0.25000007  0.73007547  0.79459148  1
  B  B6_4  1  0.75000007  0.23007547  0.29459148  1
  B  B6_5  1  0.75000007  0.23007547  0.79459148  1
  B  B6_6  1  0.75000007  0.73007547  0.29459148  1
  B  B6_7  1  0.75000007  0.73007547  0.79459148  1
  B  B7_0  1  0.25000004  0.26991412  0.20540739  1
  B  B7_1  1  0.25000004  0.26991413  0.70540739  1
  B  B7_2  1  0.25000004  0.76991413  0.20540739  1
  B  B7_3  1  0.25000004  0.76991413  0.70540739  1
  B  B7_4  1  0.75000004  0.26991413  0.20540739  1
  B  B7_5  1  0.75000004  0.26991412  0.70540740  1
  B  B7_6  1  0.75000004  0.76991413  0.20540739  1
  B  B7_7  1  0.75000004  0.76991413  0.70540740  1
  Ru  Ru0_0  1  0.00000002  0.19715081  0.36871074  1
  Ru  Ru0_1  1  0.00000002  0.19715081  0.86871074  1
  Ru  Ru0_2  1  0.00000002  0.69715081  0.36871074  1
  Ru  Ru0_3  1  0.00000003  0.69715081  0.86871074  1
  Ru  Ru0_4  1  0.50000002  0.19715081  0.36871074  1
  Ru  Ru0_5  1  0.50000002  0.19715081  0.86871074  1
  Ru  Ru0_6  1  0.50000002  0.69715081  0.36871074  1
  Ru  Ru0_7  1  0.50000002  0.69715081  0.86871074  1
  Ru  Ru1_0  1  0.00000001  0.30283752  0.13128658  1
  Ru  Ru1_1  1  0.00000002  0.30283752  0.63128658  1
  Ru  Ru1_2  1  0.00000002  0.80283752  0.13128658  1
  Ru  Ru1_3  1  0.00000002  0.80283752  0.63128658  1
  Ru  Ru1_4  1  0.50000002  0.30283752  0.13128658  1
  Ru  Ru1_5  1  0.50000001  0.30283752  0.63128658  1
  Ru  Ru1_6  1  0.50000001  0.80283752  0.13128658  1
  Ru  Ru1_7  1  0.50000001  0.80283752  0.63128658  1
  Ru  Ru2_0  1  1.00000000  0.44714006  0.38125134  1
  Ru  Ru2_1  1  1.00000000  0.44714006  0.88125134  1
  Ru  Ru2_2  1  1.00000000  0.94714006  0.38125134  1
  Ru  Ru2_3  1  1.00000000  0.94714007  0.88125134  1
  Ru  Ru2_4  1  0.49999999  0.44714006  0.38125134  1
  Ru  Ru2_5  1  0.49999999  0.44714006  0.88125134  1
  Ru  Ru2_6  1  0.49999999  0.94714007  0.38125134  1
  Ru  Ru2_7  1  0.49999999  0.94714007  0.88125134  1
  Ru  Ru3_0  1  0.99999994  0.05286456  0.11874942  1
  Ru  Ru3_1  1  0.99999994  0.05286456  0.61874942  1
  Ru  Ru3_2  1  0.99999994  0.55286456  0.11874942  1
  Ru  Ru3_3  1  0.99999994  0.55286456  0.61874942  1
  Ru  Ru3_4  1  0.49999994  0.05286456  0.11874942  1
  Ru  Ru3_5  1  0.49999994  0.05286456  0.61874942  1
  Ru  Ru3_6  1  0.49999994  0.55286455  0.11874942  1
  Ru  Ru3_7  1  0.49999994  0.55286456  0.61874942  1
  Ru  Ru4_0  1  0.99999996  0.00000817  0.24999437  1
  Ru  Ru4_1  1  0.99999996  0.00000817  0.74999437  1
  Ru  Ru4_2  1  0.99999996  0.50000817  0.24999437  1
  Ru  Ru4_3  1  0.99999996  0.50000817  0.74999437  1
  Ru  Ru4_4  1  0.49999995  0.00000816  0.24999437  1
  Ru  Ru4_5  1  0.49999995  0.00000816  0.74999437  1
  Ru  Ru4_6  1  0.49999995  0.50000817  0.24999437  1
  Ru  Ru4_7  1  0.49999995  0.50000817  0.74999437  1
  Ru  Ru5_0  1  0.00000002  0.24999889  0.00000819  1
  Ru  Ru5_1  1  0.00000002  0.24999888  0.50000819  1
  Ru  Ru5_2  1  0.00000002  0.74999889  0.00000819  1
  Ru  Ru5_3  1  0.00000002  0.74999889  0.50000819  1
  Ru  Ru5_4  1  0.50000002  0.24999889  0.00000819  1
  Ru  Ru5_5  1  0.50000002  0.24999889  0.50000819  1
  Ru  Ru5_6  1  0.50000002  0.74999889  0.00000819  1
  Ru  Ru5_7  1  0.50000002  0.74999889  0.50000819  1
  Ru  Ru6_0  1  0.00000001  0.32773091  0.27393523  1
  Ru  Ru6_1  1  0.00000001  0.32773091  0.77393523  1
  Ru  Ru6_2  1  0.00000001  0.82773091  0.27393523  1
  Ru  Ru6_3  1  0.00000001  0.82773091  0.77393523  1
  Ru  Ru6_4  1  0.50000000  0.32773091  0.27393523  1
  Ru  Ru6_5  1  0.50000000  0.32773091  0.77393523  1
  Ru  Ru6_6  1  0.50000000  0.82773091  0.27393523  1
  Ru  Ru6_7  1  0.50000000  0.82773091  0.77393523  1
  Ru  Ru7_0  1  0.00000001  0.17226707  0.22605125  1
  Ru  Ru7_1  1  0.00000001  0.17226707  0.72605125  1
  Ru  Ru7_2  1  0.00000001  0.67226707  0.22605125  1
  Ru  Ru7_3  1  0.00000001  0.67226707  0.72605125  1
  Ru  Ru7_4  1  0.50000001  0.17226707  0.22605125  1
  Ru  Ru7_5  1  0.50000001  0.17226707  0.72605125  1
  Ru  Ru7_6  1  0.50000001  0.67226707  0.22605125  1
  Ru  Ru7_7  1  0.50000001  0.67226707  0.72605124  1
  Ru  Ru8_0  1  0.00000002  0.07773669  0.47606091  1
  Ru  Ru8_1  1  0.00000002  0.07773669  0.97606091  1
  Ru  Ru8_2  1  0.00000003  0.57773670  0.47606091  1
  Ru  Ru8_3  1  0.00000003  0.57773670  0.97606091  1
  Ru  Ru8_4  1  0.50000003  0.07773669  0.47606091  1
  Ru  Ru8_5  1  0.50000002  0.07773669  0.97606091  1
  Ru  Ru8_6  1  0.50000002  0.57773670  0.47606091  1
  Ru  Ru8_7  1  0.50000002  0.57773670  0.97606091  1
  Ru  Ru9_0  1  0.99999998  0.42227014  0.02395490  1
  Ru  Ru9_1  1  0.99999998  0.42227014  0.52395490  1
  Ru  Ru9_2  1  0.99999998  0.92227014  0.02395490  1
  Ru  Ru9_3  1  0.99999998  0.92227014  0.52395490  1
  Ru  Ru9_4  1  0.49999998  0.42227014  0.02395490  1
  Ru  Ru9_5  1  0.49999998  0.42227014  0.52395490  1
  Ru  Ru9_6  1  0.49999998  0.92227014  0.02395490  1
  Ru  Ru9_7  1  0.49999998  0.92227014  0.52395490  1
loop_
_geom_bond_atom_site_label_1
_geom_bond_atom_site_label_2
_geom_bond_distance
_geom_bond_site_symmetry_2
Mg0_0 Ru2_4 2.593487 1_555
Mg0_0 Ru2_0 2.593487 1_455
Mg0_0 Ru5_5 2.667074 1_555
Mg0_0 Ru5_1 2.667074 1_555
Mg0_0 Ru0_4 2.689723 1_555
Mg0_0 Ru0_0 2.689724 1_555
Mg0_0 Mg0_4 2.949877 1_555
Mg0_0 Mg0_4 2.949877 1_455
Mg0_0 Ru6_4 3.051830 1_555
Mg0_0 Ru6_0 3.051831 1_555
Mg0_0 Ru9_5 3.215420 1_555
Mg0_0 Ru9_1 3.215421 1_455
Mg0_1 Ru2_5 2.593487 1_555
Mg0_1 Ru2_1 2.593487 1_455
Mg0_1 Ru5_4 2.667074 1_556
Mg0_1 Ru5_0 2.667074 1_556
Mg0_1 Ru0_5 2.689723 1_555
Mg0_1 Ru0_1 2.689724 1_555
Mg0_1 Mg0_5 2.949877 1_555
Mg0_1 Mg0_5 2.949877 1_455
Mg0_1 Ru6_5 3.051830 1_555
Mg0_1 Ru6_1 3.051831 1_555
Mg0_1 Ru9_4 3.215420 1_556
Mg0_1 Ru9_0 3.215421 1_456
Mg0_2 Ru2_6 2.593487 1_555
Mg0_2 Ru2_2 2.593487 1_455
Mg0_2 Ru5_7 2.667074 1_555
Mg0_2 Ru5_3 2.667074 1_555
Mg0_2 Ru0_6 2.689723 1_555
Mg0_2 Ru0_2 2.689724 1_555
Mg0_2 Mg0_6 2.949877 1_455
Mg0_2 Mg0_6 2.949877 1_555
Mg0_2 Ru6_6 3.051830 1_555
Mg0_2 Ru6_2 3.051831 1_555
Mg0_2 Ru9_7 3.215420 1_555
Mg0_2 Ru9_3 3.215421 1_455
Mg0_3 Ru2_7 2.593487 1_555
Mg0_3 Ru2_3 2.593487 1_455
Mg0_3 Ru5_6 2.667074 1_556
Mg0_3 Ru5_2 2.667074 1_556
Mg0_3 Ru0_7 2.689723 1_555
Mg0_3 Ru0_3 2.689724 1_555
Mg0_3 Mg0_7 2.949877 1_555
Mg0_3 Mg0_7 2.949877 1_455
Mg0_3 Ru6_7 3.051830 1_555
Mg0_3 Ru6_3 3.051831 1_555
Mg0_3 Ru9_6 3.215420 1_556
Mg0_3 Ru9_2 3.215421 1_456
Mg0_4 Ru2_0 2.593487 1_555
Mg0_4 Ru2_4 2.593487 1_555
Mg0_4 Ru5_1 2.667074 1_655
Mg0_4 Ru5_5 2.667074 1_555
Mg0_4 Ru0_0 2.689723 1_655
Mg0_4 Ru0_4 2.689724 1_555
Mg0_4 Ru6_0 3.051830 1_655
Mg0_4 Ru6_4 3.051831 1_555
Mg0_4 Ru9_1 3.215420 1_555
Mg0_4 Ru9_5 3.215421 1_555
Mg0_5 Ru2_1 2.593487 1_555
Mg0_5 Ru2_5 2.593487 1_555
Mg0_5 Ru5_0 2.667074 1_656
Mg0_5 Ru5_4 2.667074 1_556
Mg0_5 Ru0_1 2.689723 1_655
Mg0_5 Ru0_5 2.689724 1_555
Mg0_5 Ru6_1 3.051830 1_655
Mg0_5 Ru6_5 3.051831 1_555
Mg0_5 Ru9_0 3.215420 1_556
Mg0_5 Ru9_4 3.215421 1_556
Mg0_6 Ru2_2 2.593487 1_555
Mg0_6 Ru2_6 2.593487 1_555
Mg0_6 Ru5_3 2.667074 1_655
Mg0_6 Ru5_7 2.667074 1_555
Mg0_6 Ru0_2 2.689723 1_655
Mg0_6 Ru0_6 2.689724 1_555
Mg0_6 Ru6_2 3.051830 1_655
Mg0_6 Ru6_6 3.051831 1_555
Mg0_6 Ru9_3 3.215420 1_555
Mg0_6 Ru9_7 3.215421 1_555
Mg0_7 Ru2_3 2.593487 1_555
Mg0_7 Ru2_7 2.593487 1_555
Mg0_7 Ru5_2 2.667074 1_656
Mg0_7 Ru5_6 2.667074 1_556
Mg0_7 Ru0_3 2.689723 1_655
Mg0_7 Ru0_7 2.689724 1_555
Mg0_7 Ru6_3 3.051830 1_655
Mg0_7 Ru6_7 3.051831 1_555
Mg0_7 Ru9_2 3.215420 1_556
Mg0_7 Ru9_6 3.215421 1_556
Mg1_0 Ru3_4 2.593401 1_555
Mg1_0 Ru3_0 2.593402 1_455
Mg1_0 Ru5_0 2.666813 1_555
Mg1_0 Ru5_4 2.666813 1_555
Mg1_0 Ru1_0 2.689609 1_555
Mg1_0 Ru1_4 2.689609 1_555
Mg1_0 Mg1_4 2.949877 1_455
Mg1_0 Mg1_4 2.949877 1_555
Mg1_0 Ru7_0 3.051642 1_555
Mg1_0 Ru7_4 3.051642 1_555
Mg1_0 Ru8_1 3.215067 1_554
Mg1_0 Ru8_5 3.215067 1_554
Mg1_1 Ru3_5 2.593401 1_555
Mg1_1 Ru3_1 2.593402 1_455
Mg1_1 Ru5_1 2.666813 1_555
Mg1_1 Ru5_5 2.666813 1_555
Mg1_1 Ru1_1 2.689609 1_555
Mg1_1 Ru1_5 2.689609 1_555
Mg1_1 Mg1_5 2.949877 1_555
Mg1_1 Mg1_5 2.949877 1_455
Mg1_1 Ru7_1 3.051642 1_555
Mg1_1 Ru7_5 3.051642 1_555
Mg1_1 Ru8_0 3.215067 1_555
Mg1_1 Ru8_4 3.215067 1_555
Mg1_2 Ru3_6 2.593401 1_555
Mg1_2 Ru3_2 2.593402 1_455
Mg1_2 Ru5_2 2.666813 1_555
Mg1_2 Ru5_6 2.666813 1_555
Mg1_2 Ru1_2 2.689609 1_555
Mg1_2 Ru1_6 2.689609 1_555
Mg1_2 Mg1_6 2.949877 1_555
Mg1_2 Mg1_6 2.949877 1_455
Mg1_2 Ru7_2 3.051642 1_555
Mg1_2 Ru7_6 3.051642 1_555
Mg1_2 Ru8_3 3.215067 1_554
Mg1_2 Ru8_7 3.215067 1_554
Mg1_3 Ru3_7 2.593401 1_555
Mg1_3 Ru3_3 2.593402 1_455
Mg1_3 Ru5_3 2.666813 1_555
Mg1_3 Ru5_7 2.666813 1_555
Mg1_3 Ru1_3 2.689609 1_555
Mg1_3 Ru1_7 2.689609 1_555
Mg1_3 Mg1_7 2.949877 1_555
Mg1_3 Mg1_7 2.949877 1_455
Mg1_3 Ru7_3 3.051642 1_555
Mg1_3 Ru7_7 3.051642 1_555
Mg1_3 Ru8_2 3.215067 1_555
Mg1_3 Ru8_6 3.215067 1_555
Mg1_4 Ru3_0 2.593401 1_555
Mg1_4 Ru3_4 2.593402 1_555
Mg1_4 Ru5_4 2.666813 1_555
Mg1_4 Ru5_0 2.666813 1_655
Mg1_4 Ru1_4 2.689609 1_555
Mg1_4 Ru1_0 2.689609 1_655
Mg1_4 Ru7_4 3.051642 1_555
Mg1_4 Ru7_0 3.051642 1_655
Mg1_4 Ru8_5 3.215067 1_554
Mg1_4 Ru8_1 3.215067 1_654
Mg1_5 Ru3_1 2.593401 1_555
Mg1_5 Ru3_5 2.593402 1_555
Mg1_5 Ru5_5 2.666813 1_555
Mg1_5 Ru5_1 2.666813 1_655
Mg1_5 Ru1_5 2.689609 1_555
Mg1_5 Ru1_1 2.689609 1_655
Mg1_5 Ru7_5 3.051642 1_555
Mg1_5 Ru7_1 3.051642 1_655
Mg1_5 Ru8_4 3.215067 1_555
Mg1_5 Ru8_0 3.215067 1_655
Mg1_6 Ru3_2 2.593401 1_555
Mg1_6 Ru3_6 2.593402 1_555
Mg1_6 Ru5_6 2.666813 1_555
Mg1_6 Ru5_2 2.666813 1_655
Mg1_6 Ru1_6 2.689609 1_555
Mg1_6 Ru1_2 2.689609 1_655
Mg1_6 Ru7_6 3.051642 1_555
Mg1_6 Ru7_2 3.051642 1_655
Mg1_6 Ru8_7 3.215067 1_554
Mg1_6 Ru8_3 3.215067 1_654
Mg1_7 Ru3_3 2.593401 1_555
Mg1_7 Ru3_7 2.593402 1_555
Mg1_7 Ru5_7 2.666813 1_555
Mg1_7 Ru5_3 2.666813 1_655
Mg1_7 Ru1_7 2.689609 1_555
Mg1_7 Ru1_3 2.689609 1_655
Mg1_7 Ru7_7 3.051642 1_555
Mg1_7 Ru7_3 3.051642 1_655
Mg1_7 Ru8_6 3.215067 1_555
Mg1_7 Ru8_2 3.215067 1_655
Mg2_0 Ru0_0 2.593600 1_555
Mg2_0 Ru0_4 2.593600 1_555
Mg2_0 Ru4_4 2.666701 1_555
Mg2_0 Ru4_0 2.666702 1_455
Mg2_0 Ru2_2 2.689716 1_445
Mg2_0 Ru2_6 2.689716 1_545
Mg2_0 Mg2_4 2.949877 1_555
Mg2_0 Mg2_4 2.949877 1_455
Mg2_0 Ru8_0 3.052123 1_555
Mg2_0 Ru8_4 3.052123 1_555
Mg2_0 Ru7_0 3.214985 1_555
Mg2_0 Ru7_4 3.214985 1_555
Mg2_1 Ru0_1 2.593600 1_555
Mg2_1 Ru0_5 2.593600 1_555
Mg2_1 Ru4_5 2.666701 1_555
Mg2_1 Ru4_1 2.666702 1_455
Mg2_1 Ru2_3 2.689716 1_445
Mg2_1 Ru2_7 2.689716 1_545
Mg2_1 Mg2_5 2.949877 1_455
Mg2_1 Mg2_5 2.949877 1_555
Mg2_1 Ru8_1 3.052123 1_555
Mg2_1 Ru8_5 3.052123 1_555
Mg2_1 Ru7_1 3.214985 1_555
Mg2_1 Ru7_5 3.214985 1_555
Mg2_2 Ru0_2 2.593600 1_555
Mg2_2 Ru0_6 2.593600 1_555
Mg2_2 Ru4_6 2.666701 1_555
Mg2_2 Ru4_2 2.666702 1_455
Mg2_2 Ru2_0 2.689716 1_455
Mg2_2 Ru2_4 2.689716 1_555
Mg2_2 Mg2_6 2.949877 1_555
Mg2_2 Mg2_6 2.949877 1_455
Mg2_2 Ru8_2 3.052123 1_555
Mg2_2 Ru8_6 3.052123 1_555
Mg2_2 Ru7_2 3.214985 1_555
Mg2_2 Ru7_6 3.214985 1_555
Mg2_3 Ru0_3 2.593600 1_555
Mg2_3 Ru0_7 2.593600 1_555
Mg2_3 Ru4_7 2.666701 1_555
Mg2_3 Ru4_3 2.666702 1_455
Mg2_3 Ru2_1 2.689716 1_455
Mg2_3 Ru2_5 2.689716 1_555
Mg2_3 Mg2_7 2.949877 1_555
Mg2_3 Mg2_7 2.949877 1_455
Mg2_3 Ru8_3 3.052123 1_555
Mg2_3 Ru8_7 3.052123 1_555
Mg2_3 Ru7_3 3.214985 1_555
Mg2_3 Ru7_7 3.214985 1_555
Mg2_4 Ru0_4 2.593600 1_555
Mg2_4 Ru0_0 2.593600 1_655
Mg2_4 Ru4_0 2.666701 1_555
Mg2_4 Ru4_4 2.666702 1_555
Mg2_4 Ru2_6 2.689716 1_545
Mg2_4 Ru2_2 2.689716 1_545
Mg2_4 Ru8_4 3.052123 1_555
Mg2_4 Ru8_0 3.052123 1_655
Mg2_4 Ru7_4 3.214985 1_555
Mg2_4 Ru7_0 3.214985 1_655
Mg2_5 Ru0_5 2.593600 1_555
Mg2_5 Ru0_1 2.593600 1_655
Mg2_5 Ru4_1 2.666701 1_555
Mg2_5 Ru4_5 2.666702 1_555
Mg2_5 Ru2_7 2.689716 1_545
Mg2_5 Ru2_3 2.689716 1_545
Mg2_5 Ru8_5 3.052123 1_555
Mg2_5 Ru8_1 3.052123 1_655
Mg2_5 Ru7_5 3.214985 1_555
Mg2_5 Ru7_1 3.214985 1_655
Mg2_6 Ru0_6 2.593600 1_555
Mg2_6 Ru0_2 2.593600 1_655
Mg2_6 Ru4_2 2.666701 1_555
Mg2_6 Ru4_6 2.666702 1_555
Mg2_6 Ru2_4 2.689716 1_555
Mg2_6 Ru2_0 2.689716 1_555
Mg2_6 Ru8_6 3.052123 1_555
Mg2_6 Ru8_2 3.052123 1_655
Mg2_6 Ru7_6 3.214985 1_555
Mg2_6 Ru7_2 3.214985 1_655
Mg2_7 Ru0_7 2.593600 1_555
Mg2_7 Ru0_3 2.593600 1_655
Mg2_7 Ru4_3 2.666701 1_555
Mg2_7 Ru4_7 2.666702 1_555
Mg2_7 Ru2_5 2.689716 1_555
Mg2_7 Ru2_1 2.689716 1_555
Mg2_7 Ru8_7 3.052123 1_555
Mg2_7 Ru8_3 3.052123 1_655
Mg2_7 Ru7_7 3.214985 1_555
Mg2_7 Ru7_3 3.214985 1_655
Mg3_0 Ru1_0 2.593792 1_555
Mg3_0 Ru1_4 2.593792 1_555
Mg3_0 Ru4_2 2.666621 1_455
Mg3_0 Ru4_6 2.666621 1_555
Mg3_0 Ru3_2 2.689776 1_455
Mg3_0 Ru3_6 2.689776 1_555
Mg3_0 Mg3_4 2.949877 1_555
Mg3_0 Mg3_4 2.949877 1_455
Mg3_0 Ru9_0 3.051896 1_455
Mg3_0 Ru9_4 3.051896 1_555
Mg3_0 Ru6_0 3.214771 1_555
Mg3_0 Ru6_4 3.214771 1_555
Mg3_1 Ru1_1 2.593792 1_555
Mg3_1 Ru1_5 2.593792 1_555
Mg3_1 Ru4_3 2.666621 1_455
Mg3_1 Ru4_7 2.666621 1_555
Mg3_1 Ru3_3 2.689776 1_455
Mg3_1 Ru3_7 2.689776 1_555
Mg3_1 Mg3_5 2.949877 1_555
Mg3_1 Mg3_5 2.949877 1_455
Mg3_1 Ru9_1 3.051896 1_455
Mg3_1 Ru9_5 3.051896 1_555
Mg3_1 Ru6_1 3.214771 1_555
Mg3_1 Ru6_5 3.214771 1_555
Mg3_2 Ru1_2 2.593792 1_555
Mg3_2 Ru1_6 2.593792 1_555
Mg3_2 Ru4_0 2.666621 1_465
Mg3_2 Ru4_4 2.666621 1_565
Mg3_2 Ru3_0 2.689776 1_465
Mg3_2 Ru3_4 2.689776 1_565
Mg3_2 Mg3_6 2.949877 1_555
Mg3_2 Mg3_6 2.949877 1_455
Mg3_2 Ru9_2 3.051896 1_455
Mg3_2 Ru9_6 3.051896 1_555
Mg3_2 Ru6_2 3.214771 1_555
Mg3_2 Ru6_6 3.214771 1_555
Mg3_3 Ru1_3 2.593792 1_555
Mg3_3 Ru1_7 2.593792 1_555
Mg3_3 Ru4_1 2.666621 1_465
Mg3_3 Ru4_5 2.666621 1_565
Mg3_3 Ru3_1 2.689776 1_465
Mg3_3 Ru3_5 2.689776 1_565
Mg3_3 Mg3_7 2.949877 1_555
Mg3_3 Mg3_7 2.949877 1_455
Mg3_3 Ru9_3 3.051896 1_455
Mg3_3 Ru9_7 3.051896 1_555
Mg3_3 Ru6_3 3.214771 1_555
Mg3_3 Ru6_7 3.214771 1_555
Mg3_4 Ru1_4 2.593792 1_555
Mg3_4 Ru1_0 2.593792 1_655
Mg3_4 Ru4_6 2.666621 1_555
Mg3_4 Ru4_2 2.666621 1_555
Mg3_4 Ru3_6 2.689776 1_555
Mg3_4 Ru3_2 2.689776 1_555
Mg3_4 Ru9_4 3.051896 1_555
Mg3_4 Ru9_0 3.051896 1_555
Mg3_4 Ru6_4 3.214771 1_555
Mg3_4 Ru6_0 3.214771 1_655
Mg3_5 Ru1_5 2.593792 1_555
Mg3_5 Ru1_1 2.593792 1_655
Mg3_5 Ru4_7 2.666621 1_555
Mg3_5 Ru4_3 2.666621 1_555
Mg3_5 Ru3_7 2.689776 1_555
Mg3_5 Ru3_3 2.689776 1_555
Mg3_5 Ru9_5 3.051896 1_555
Mg3_5 Ru9_1 3.051896 1_555
Mg3_5 Ru6_5 3.214771 1_555
Mg3_5 Ru6_1 3.214771 1_655
Mg3_6 Ru1_6 2.593792 1_555
Mg3_6 Ru1_2 2.593792 1_655
Mg3_6 Ru4_4 2.666621 1_565
Mg3_6 Ru4_0 2.666621 1_565
Mg3_6 Ru3_4 2.689776 1_565
Mg3_6 Ru3_0 2.689776 1_565
Mg3_6 Ru9_6 3.051896 1_555
Mg3_6 Ru9_2 3.051896 1_555
Mg3_6 Ru6_6 3.214771 1_555
Mg3_6 Ru6_2 3.214771 1_655
Mg3_7 Ru1_7 2.593792 1_555
Mg3_7 Ru1_3 2.593792 1_655
Mg3_7 Ru4_5 2.666621 1_565
Mg3_7 Ru4_1 2.666621 1_565
Mg3_7 Ru3_5 2.689776 1_565
Mg3_7 Ru3_1 2.689776 1_565
Mg3_7 Ru9_7 3.051896 1_555
Mg3_7 Ru9_3 3.051896 1_555
Mg3_7 Ru6_7 3.214771 1_555
Mg3_7 Ru6_3 3.214771 1_655
B0_0 Ru4_6 2.180897 1_555
B0_0 Ru4_2 2.180897 1_455
B0_0 Ru2_0 2.203567 1_455
B0_0 Ru2_4 2.203567 1_555
B0_0 Ru6_0 2.276245 1_555
B0_0 Ru6_4 2.276246 1_555
B0_0 Mg2_2 2.597662 1_555
B0_0 Mg0_0 2.729867 1_555
B0_0 Mg3_0 2.878185 1_555
B0_1 Ru4_7 2.180897 1_555
B0_1 Ru4_3 2.180897 1_455
B0_1 Ru2_1 2.203567 1_455
B0_1 Ru2_5 2.203567 1_555
B0_1 Ru6_1 2.276245 1_555
B0_1 Ru6_5 2.276246 1_555
B0_1 Mg2_3 2.597662 1_555
B0_1 Mg0_1 2.729867 1_555
B0_1 Mg3_1 2.878185 1_555
B0_2 Ru4_4 2.180897 1_565
B0_2 Ru4_0 2.180897 1_465
B0_2 Ru2_2 2.203567 1_455
B0_2 Ru2_6 2.203567 1_555
B0_2 Ru6_2 2.276245 1_555
B0_2 Ru6_6 2.276246 1_555
B0_2 Mg2_0 2.597662 1_565
B0_2 Mg0_2 2.729867 1_555
B0_2 Mg3_2 2.878185 1_555
B0_3 Ru4_5 2.180897 1_565
B0_3 Ru4_1 2.180897 1_465
B0_3 Ru2_3 2.203567 1_455
B0_3 Ru2_7 2.203567 1_555
B0_3 Ru6_3 2.276245 1_555
B0_3 Ru6_7 2.276246 1_555
B0_3 Mg2_1 2.597662 1_565
B0_3 Mg0_3 2.729867 1_555
B0_3 Mg3_3 2.878185 1_555
B0_4 Ru4_2 2.180897 1_555
B0_4 Ru4_6 2.180897 1_555
B0_4 Ru2_4 2.203567 1_555
B0_4 Ru2_0 2.203567 1_555
B0_4 Ru6_4 2.276245 1_555
B0_4 Ru6_0 2.276246 1_655
B0_4 Mg2_6 2.597662 1_555
B0_4 Mg0_4 2.729867 1_555
B0_4 Mg3_4 2.878185 1_555
B0_5 Ru4_3 2.180897 1_555
B0_5 Ru4_7 2.180897 1_555
B0_5 Ru2_5 2.203567 1_555
B0_5 Ru2_1 2.203567 1_555
B0_5 Ru6_5 2.276245 1_555
B0_5 Ru6_1 2.276246 1_655
B0_5 Mg2_7 2.597662 1_555
B0_5 Mg0_5 2.729867 1_555
B0_5 Mg3_5 2.878185 1_555
B0_6 Ru4_0 2.180897 1_565
B0_6 Ru4_4 2.180897 1_565
B0_6 Ru2_6 2.203567 1_555
B0_6 Ru2_2 2.203567 1_555
B0_6 Ru6_6 2.276245 1_555
B0_6 Ru6_2 2.276246 1_655
B0_6 Mg2_4 2.597662 1_565
B0_6 Mg0_6 2.729867 1_555
B0_6 Mg3_6 2.878185 1_555
B0_7 Ru4_1 2.180897 1_565
B0_7 Ru4_5 2.180897 1_565
B0_7 Ru2_7 2.203567 1_555
B0_7 Ru2_3 2.203567 1_555
B0_7 Ru6_7 2.276245 1_555
B0_7 Ru6_3 2.276246 1_655
B0_7 Mg2_5 2.597662 1_565
B0_7 Mg0_7 2.729867 1_555
B0_7 Mg3_7 2.878185 1_555
B1_0 Ru4_0 2.180751 1_455
B1_0 Ru4_4 2.180752 1_555
B1_0 Ru3_0 2.203456 1_455
B1_0 Ru3_4 2.203457 1_555
B1_0 Ru7_0 2.276126 1_555
B1_0 Ru7_4 2.276126 1_555
B1_0 Mg3_2 2.597666 1_545
B1_0 Mg1_0 2.729716 1_555
B1_0 Mg2_0 2.878384 1_555
B1_1 Ru4_1 2.180751 1_455
B1_1 Ru4_5 2.180752 1_555
B1_1 Ru3_1 2.203456 1_455
B1_1 Ru3_5 2.203457 1_555
B1_1 Ru7_1 2.276126 1_555
B1_1 Ru7_5 2.276126 1_555
B1_1 Mg3_3 2.597666 1_545
B1_1 Mg1_1 2.729716 1_555
B1_1 Mg2_1 2.878384 1_555
B1_2 Ru4_2 2.180751 1_455
B1_2 Ru4_6 2.180752 1_555
B1_2 Ru3_2 2.203456 1_455
B1_2 Ru3_6 2.203457 1_555
B1_2 Ru7_2 2.276126 1_555
B1_2 Ru7_6 2.276126 1_555
B1_2 Mg3_0 2.597666 1_555
B1_2 Mg1_2 2.729716 1_555
B1_2 Mg2_2 2.878384 1_555
B1_3 Ru4_3 2.180751 1_455
B1_3 Ru4_7 2.180752 1_555
B1_3 Ru3_3 2.203456 1_455
B1_3 Ru3_7 2.203457 1_555
B1_3 Ru7_3 2.276126 1_555
B1_3 Ru7_7 2.276126 1_555
B1_3 Mg3_1 2.597666 1_555
B1_3 Mg1_3 2.729716 1_555
B1_3 Mg2_3 2.878384 1_555
B1_4 Ru4_4 2.180751 1_555
B1_4 Ru4_0 2.180752 1_555
B1_4 Ru3_4 2.203456 1_555
B1_4 Ru3_0 2.203457 1_555
B1_4 Ru7_4 2.276126 1_555
B1_4 Ru7_0 2.276126 1_655
B1_4 Mg3_6 2.597666 1_545
B1_4 Mg1_4 2.729716 1_555
B1_4 Mg2_4 2.878384 1_555
B1_5 Ru4_5 2.180751 1_555
B1_5 Ru4_1 2.180752 1_555
B1_5 Ru3_5 2.203456 1_555
B1_5 Ru3_1 2.203457 1_555
B1_5 Ru7_5 2.276126 1_555
B1_5 Ru7_1 2.276126 1_655
B1_5 Mg3_7 2.597666 1_545
B1_5 Mg1_5 2.729716 1_555
B1_5 Mg2_5 2.878384 1_555
B1_6 Ru4_6 2.180751 1_555
B1_6 Ru4_2 2.180752 1_555
B1_6 Ru3_6 2.203456 1_555
B1_6 Ru3_2 2.203457 1_555
B1_6 Ru7_6 2.276126 1_555
B1_6 Ru7_2 2.276126 1_655
B1_6 Mg3_4 2.597666 1_555
B1_6 Mg1_6 2.729716 1_555
B1_6 Mg2_6 2.878384 1_555
B1_7 Ru4_7 2.180751 1_555
B1_7 Ru4_3 2.180752 1_555
B1_7 Ru3_7 2.203456 1_555
B1_7 Ru3_3 2.203457 1_555
B1_7 Ru7_7 2.276126 1_555
B1_7 Ru7_3 2.276126 1_655
B1_7 Mg3_5 2.597666 1_555
B1_7 Mg1_7 2.729716 1_555
B1_7 Mg2_7 2.878384 1_555
B2_0 Ru5_5 2.180877 1_555
B2_0 Ru5_1 2.180877 1_555
B2_0 Ru0_4 2.204109 1_555
B2_0 Ru0_0 2.204110 1_555
B2_0 Ru8_4 2.276147 1_555
B2_0 Ru8_0 2.276147 1_555
B2_0 Mg0_0 2.597787 1_555
B2_0 Mg2_0 2.730215 1_555
B2_0 Mg1_1 2.878634 1_555
B2_1 Ru5_4 2.180877 1_556
B2_1 Ru5_0 2.180877 1_556
B2_1 Ru0_5 2.204109 1_555
B2_1 Ru0_1 2.204110 1_555
B2_1 Ru8_5 2.276147 1_555
B2_1 Ru8_1 2.276147 1_555
B2_1 Mg0_1 2.597787 1_555
B2_1 Mg2_1 2.730215 1_555
B2_1 Mg1_0 2.878634 1_556
B2_2 Ru5_7 2.180877 1_555
B2_2 Ru5_3 2.180877 1_555
B2_2 Ru0_6 2.204109 1_555
B2_2 Ru0_2 2.204110 1_555
B2_2 Ru8_6 2.276147 1_555
B2_2 Ru8_2 2.276147 1_555
B2_2 Mg0_2 2.597787 1_555
B2_2 Mg2_2 2.730215 1_555
B2_2 Mg1_3 2.878634 1_555
B2_3 Ru5_6 2.180877 1_556
B2_3 Ru5_2 2.180877 1_556
B2_3 Ru0_7 2.204109 1_555
B2_3 Ru0_3 2.204110 1_555
B2_3 Ru8_7 2.276147 1_555
B2_3 Ru8_3 2.276147 1_555
B2_3 Mg0_3 2.597787 1_555
B2_3 Mg2_3 2.730215 1_555
B2_3 Mg1_2 2.878634 1_556
B2_4 Ru5_1 2.180877 1_655
B2_4 Ru5_5 2.180877 1_555
B2_4 Ru0_0 2.204109 1_655
B2_4 Ru0_4 2.204110 1_555
B2_4 Ru8_0 2.276147 1_655
B2_4 Ru8_4 2.276147 1_555
B2_4 Mg0_4 2.597787 1_555
B2_4 Mg2_4 2.730215 1_555
B2_4 Mg1_5 2.878634 1_555
B2_5 Ru5_0 2.180877 1_656
B2_5 Ru5_4 2.180877 1_556
B2_5 Ru0_1 2.204109 1_655
B2_5 Ru0_5 2.204110 1_555
B2_5 Ru8_1 2.276147 1_655
B2_5 Ru8_5 2.276147 1_555
B2_5 Mg0_5 2.597787 1_555
B2_5 Mg2_5 2.730215 1_555
B2_5 Mg1_4 2.878634 1_556
B2_6 Ru5_3 2.180877 1_655
B2_6 Ru5_7 2.180877 1_555
B2_6 Ru0_2 2.204109 1_655
B2_6 Ru0_6 2.204110 1_555
B2_6 Ru8_2 2.276147 1_655
B2_6 Ru8_6 2.276147 1_555
B2_6 Mg0_6 2.597787 1_555
B2_6 Mg2_6 2.730215 1_555
B2_6 Mg1_7 2.878634 1_555
B2_7 Ru5_2 2.180877 1_656
B2_7 Ru5_6 2.180877 1_556
B2_7 Ru0_3 2.204109 1_655
B2_7 Ru0_7 2.204110 1_555
B2_7 Ru8_3 2.276147 1_655
B2_7 Ru8_7 2.276147 1_555
B2_7 Mg0_7 2.597787 1_555
B2_7 Mg2_7 2.730215 1_555
B2_7 Mg1_6 2.878634 1_556
B3_0 Ru5_4 2.180718 1_555
B3_0 Ru5_0 2.180718 1_555
B3_0 Ru1_4 2.204058 1_555
B3_0 Ru1_0 2.204058 1_555
B3_0 Ru9_4 2.276222 1_555
B3_0 Ru9_0 2.276222 1_455
B3_0 Mg1_0 2.597725 1_555
B3_0 Mg3_0 2.730290 1_555
B3_0 Mg0_1 2.878732 1_554
B3_1 Ru5_5 2.180718 1_555
B3_1 Ru5_1 2.180718 1_555
B3_1 Ru1_5 2.204058 1_555
B3_1 Ru1_1 2.204058 1_555
B3_1 Ru9_5 2.276222 1_555
B3_1 Ru9_1 2.276222 1_455
B3_1 Mg1_1 2.597725 1_555
B3_1 Mg3_1 2.730290 1_555
B3_1 Mg0_0 2.878732 1_555
B3_2 Ru5_6 2.180718 1_555
B3_2 Ru5_2 2.180718 1_555
B3_2 Ru1_6 2.204058 1_555
B3_2 Ru1_2 2.204058 1_555
B3_2 Ru9_6 2.276222 1_555
B3_2 Ru9_2 2.276222 1_455
B3_2 Mg1_2 2.597725 1_555
B3_2 Mg3_2 2.730290 1_555
B3_2 Mg0_3 2.878732 1_554
B3_3 Ru5_7 2.180718 1_555
B3_3 Ru5_3 2.180718 1_555
B3_3 Ru1_7 2.204058 1_555
B3_3 Ru1_3 2.204058 1_555
B3_3 Ru9_7 2.276222 1_555
B3_3 Ru9_3 2.276222 1_455
B3_3 Mg1_3 2.597725 1_555
B3_3 Mg3_3 2.730290 1_555
B3_3 Mg0_2 2.878732 1_555
B3_4 Ru5_0 2.180718 1_655
B3_4 Ru5_4 2.180718 1_555
B3_4 Ru1_0 2.204058 1_655
B3_4 Ru1_4 2.204058 1_555
B3_4 Ru9_0 2.276222 1_555
B3_4 Ru9_4 2.276222 1_555
B3_4 Mg1_4 2.597725 1_555
B3_4 Mg3_4 2.730290 1_555
B3_4 Mg0_5 2.878732 1_554
B3_5 Ru5_1 2.180718 1_655
B3_5 Ru5_5 2.180718 1_555
B3_5 Ru1_1 2.204058 1_655
B3_5 Ru1_5 2.204058 1_555
B3_5 Ru9_1 2.276222 1_555
B3_5 Ru9_5 2.276222 1_555
B3_5 Mg1_5 2.597725 1_555
B3_5 Mg3_5 2.730290 1_555
B3_5 Mg0_4 2.878732 1_555
B3_6 Ru5_2 2.180718 1_655
B3_6 Ru5_6 2.180718 1_555
B3_6 Ru1_2 2.204058 1_655
B3_6 Ru1_6 2.204058 1_555
B3_6 Ru9_2 2.276222 1_555
B3_6 Ru9_6 2.276222 1_555
B3_6 Mg1_6 2.597725 1_555
B3_6 Mg3_6 2.730290 1_555
B3_6 Mg0_7 2.878732 1_554
B3_7 Ru5_3 2.180718 1_655
B3_7 Ru5_7 2.180718 1_555
B3_7 Ru1_3 2.204058 1_655
B3_7 Ru1_7 2.204058 1_555
B3_7 Ru9_3 2.276222 1_555
B3_7 Ru9_7 2.276222 1_555
B3_7 Mg1_7 2.597725 1_555
B3_7 Mg3_7 2.730290 1_555
B3_7 Mg0_6 2.878732 1_555
B4_0 B5_3 1.904580 1_555
B4_0 Ru2_0 2.163263 1_455
B4_0 Ru2_4 2.163263 1_555
B4_0 Ru9_5 2.233900 1_555
B4_0 Ru9_1 2.233900 1_455
B4_0 Ru8_2 2.238694 1_555
B4_0 Ru8_6 2.238694 1_555
B4_0 Mg2_2 2.744938 1_555
B4_0 Mg0_0 2.789045 1_555
B4_1 B5_2 1.904580 1_556
B4_1 Ru2_1 2.163263 1_455
B4_1 Ru2_5 2.163263 1_555
B4_1 Ru9_4 2.233900 1_556
B4_1 Ru9_0 2.233900 1_456
B4_1 Ru8_3 2.238694 1_555
B4_1 Ru8_7 2.238694 1_555
B4_1 Mg2_3 2.744938 1_555
B4_1 Mg0_1 2.789045 1_555
B4_2 B5_1 1.904580 1_565
B4_2 Ru2_2 2.163263 1_455
B4_2 Ru2_6 2.163263 1_555
B4_2 Ru9_7 2.233900 1_555
B4_2 Ru9_3 2.233900 1_455
B4_2 Ru8_0 2.238694 1_565
B4_2 Ru8_4 2.238694 1_565
B4_2 Mg2_0 2.744938 1_565
B4_2 Mg0_2 2.789045 1_555
B4_3 B5_0 1.904580 1_566
B4_3 Ru2_3 2.163263 1_455
B4_3 Ru2_7 2.163263 1_555
B4_3 Ru9_6 2.233900 1_556
B4_3 Ru9_2 2.233900 1_456
B4_3 Ru8_1 2.238694 1_565
B4_3 Ru8_5 2.238694 1_565
B4_3 Mg2_1 2.744938 1_565
B4_3 Mg0_3 2.789045 1_555
B4_4 B5_7 1.904580 1_555
B4_4 Ru2_4 2.163263 1_555
B4_4 Ru2_0 2.163263 1_555
B4_4 Ru9_1 2.233900 1_555
B4_4 Ru9_5 2.233900 1_555
B4_4 Ru8_6 2.238694 1_555
B4_4 Ru8_2 2.238694 1_655
B4_4 Mg2_6 2.744938 1_555
B4_4 Mg0_4 2.789045 1_555
B4_5 B5_6 1.904580 1_556
B4_5 Ru2_5 2.163263 1_555
B4_5 Ru2_1 2.163263 1_555
B4_5 Ru9_0 2.233900 1_556
B4_5 Ru9_4 2.233900 1_556
B4_5 Ru8_7 2.238694 1_555
B4_5 Ru8_3 2.238694 1_655
B4_5 Mg2_7 2.744938 1_555
B4_5 Mg0_5 2.789045 1_555
B4_6 B5_5 1.904580 1_565
B4_6 Ru2_6 2.163263 1_555
B4_6 Ru2_2 2.163263 1_555
B4_6 Ru9_3 2.233900 1_555
B4_6 Ru9_7 2.233900 1_555
B4_6 Ru8_4 2.238694 1_565
B4_6 Ru8_0 2.238694 1_665
B4_6 Mg2_4 2.744938 1_565
B4_6 Mg0_6 2.789045 1_555
B4_7 B5_4 1.904580 1_566
B4_7 Ru2_7 2.163263 1_555
B4_7 Ru2_3 2.163263 1_555
B4_7 Ru9_2 2.233900 1_556
B4_7 Ru9_6 2.233900 1_556
B4_7 Ru8_5 2.238694 1_565
B4_7 Ru8_1 2.238694 1_665
B4_7 Mg2_5 2.744938 1_565
B4_7 Mg0_7 2.789045 1_555
B5_0 Ru3_0 2.163229 1_455
B5_0 Ru3_4 2.163229 1_555
B5_0 Ru8_1 2.233729 1_554
B5_0 Ru8_5 2.233730 1_554
B5_0 Ru9_2 2.238653 1_445
B5_0 Ru9_6 2.238653 1_545
B5_0 Mg3_2 2.745010 1_545
B5_0 Mg1_0 2.788846 1_555
B5_1 Ru3_1 2.163229 1_455
B5_1 Ru3_5 2.163229 1_555
B5_1 Ru8_0 2.233729 1_555
B5_1 Ru8_4 2.233730 1_555
B5_1 Ru9_3 2.238653 1_445
B5_1 Ru9_7 2.238653 1_545
B5_1 Mg3_3 2.745010 1_545
B5_1 Mg1_1 2.788846 1_555
B5_2 Ru3_2 2.163229 1_455
B5_2 Ru3_6 2.163229 1_555
B5_2 Ru8_3 2.233729 1_554
B5_2 Ru8_7 2.233730 1_554
B5_2 Ru9_0 2.238653 1_455
B5_2 Ru9_4 2.238653 1_555
B5_2 Mg3_0 2.745010 1_555
B5_2 Mg1_2 2.788846 1_555
B5_3 Ru3_3 2.163229 1_455
B5_3 Ru3_7 2.163229 1_555
B5_3 Ru8_2 2.233729 1_555
B5_3 Ru8_6 2.233730 1_555
B5_3 Ru9_1 2.238653 1_455
B5_3 Ru9_5 2.238653 1_555
B5_3 Mg3_1 2.745010 1_555
B5_3 Mg1_3 2.788846 1_555
B5_4 Ru3_4 2.163229 1_555
B5_4 Ru3_0 2.163229 1_555
B5_4 Ru8_5 2.233729 1_554
B5_4 Ru8_1 2.233730 1_654
B5_4 Ru9_6 2.238653 1_545
B5_4 Ru9_2 2.238653 1_545
B5_4 Mg3_6 2.745010 1_545
B5_4 Mg1_4 2.788846 1_555
B5_5 Ru3_5 2.163229 1_555
B5_5 Ru3_1 2.163229 1_555
B5_5 Ru8_4 2.233729 1_555
B5_5 Ru8_0 2.233730 1_655
B5_5 Ru9_7 2.238653 1_545
B5_5 Ru9_3 2.238653 1_545
B5_5 Mg3_7 2.745010 1_545
B5_5 Mg1_5 2.788846 1_555
B5_6 Ru3_6 2.163229 1_555
B5_6 Ru3_2 2.163229 1_555
B5_6 Ru8_7 2.233729 1_554
B5_6 Ru8_3 2.233730 1_654
B5_6 Ru9_4 2.238653 1_555
B5_6 Ru9_0 2.238653 1_555
B5_6 Mg3_4 2.745010 1_555
B5_6 Mg1_6 2.788846 1_555
B5_7 Ru3_7 2.163229 1_555
B5_7 Ru3_3 2.163229 1_555
B5_7 Ru8_6 2.233729 1_555
B5_7 Ru8_2 2.233730 1_655
B5_7 Ru9_5 2.238653 1_555
B5_7 Ru9_1 2.238653 1_555
B5_7 Mg3_5 2.745010 1_555
B5_7 Mg1_7 2.788846 1_555
B6_0 B7_0 1.904455 1_555
B6_0 Ru0_4 2.162674 1_555
B6_0 Ru0_0 2.162675 1_555
B6_0 Ru7_4 2.233784 1_555
B6_0 Ru7_0 2.233784 1_555
B6_0 Ru6_4 2.238721 1_555
B6_0 Ru6_0 2.238722 1_555
B6_0 Mg0_0 2.744779 1_555
B6_0 Mg2_0 2.788786 1_555
B6_1 B7_1 1.904455 1_555
B6_1 Ru0_5 2.162674 1_555
B6_1 Ru0_1 2.162675 1_555
B6_1 Ru7_5 2.233784 1_555
B6_1 Ru7_1 2.233784 1_555
B6_1 Ru6_5 2.238721 1_555
B6_1 Ru6_1 2.238722 1_555
B6_1 Mg0_1 2.744779 1_555
B6_1 Mg2_1 2.788786 1_555
B6_2 B7_2 1.904455 1_555
B6_2 Ru0_6 2.162674 1_555
B6_2 Ru0_2 2.162675 1_555
B6_2 Ru7_6 2.233784 1_555
B6_2 Ru7_2 2.233784 1_555
B6_2 Ru6_6 2.238721 1_555
B6_2 Ru6_2 2.238722 1_555
B6_2 Mg0_2 2.744779 1_555
B6_2 Mg2_2 2.788786 1_555
B6_3 B7_3 1.904455 1_555
B6_3 Ru0_7 2.162674 1_555
B6_3 Ru0_3 2.162675 1_555
B6_3 Ru7_7 2.233784 1_555
B6_3 Ru7_3 2.233784 1_555
B6_3 Ru6_7 2.238721 1_555
B6_3 Ru6_3 2.238722 1_555
B6_3 Mg0_3 2.744779 1_555
B6_3 Mg2_3 2.788786 1_555
B6_4 B7_4 1.904455 1_555
B6_4 Ru0_0 2.162674 1_655
B6_4 Ru0_4 2.162675 1_555
B6_4 Ru7_0 2.233784 1_655
B6_4 Ru7_4 2.233784 1_555
B6_4 Ru6_0 2.238721 1_655
B6_4 Ru6_4 2.238722 1_555
B6_4 Mg0_4 2.744779 1_555
B6_4 Mg2_4 2.788786 1_555
B6_5 B7_5 1.904455 1_555
B6_5 Ru0_1 2.162674 1_655
B6_5 Ru0_5 2.162675 1_555
B6_5 Ru7_1 2.233784 1_655
B6_5 Ru7_5 2.233784 1_555
B6_5 Ru6_1 2.238721 1_655
B6_5 Ru6_5 2.238722 1_555
B6_5 Mg0_5 2.744779 1_555
B6_5 Mg2_5 2.788786 1_555
B6_6 B7_6 1.904455 1_555
B6_6 Ru0_2 2.162674 1_655
B6_6 Ru0_6 2.162675 1_555
B6_6 Ru7_2 2.233784 1_655
B6_6 Ru7_6 2.233784 1_555
B6_6 Ru6_2 2.238721 1_655
B6_6 Ru6_6 2.238722 1_555
B6_6 Mg0_6 2.744779 1_555
B6_6 Mg2_6 2.788786 1_555
B6_7 B7_7 1.904455 1_555
B6_7 Ru0_3 2.162674 1_655
B6_7 Ru0_7 2.162675 1_555
B6_7 Ru7_3 2.233784 1_655
B6_7 Ru7_7 2.233784 1_555
B6_7 Ru6_3 2.238721 1_655
B6_7 Ru6_7 2.238722 1_555
B6_7 Mg0_7 2.744779 1_555
B6_7 Mg2_7 2.788786 1_555
B7_0 Ru1_4 2.162690 1_555
B7_0 Ru1_0 2.162691 1_555
B7_0 Ru6_4 2.233692 1_555
B7_0 Ru6_0 2.233693 1_555
B7_0 Ru7_4 2.238573 1_555
B7_0 Ru7_0 2.238573 1_555
B7_0 Mg1_0 2.744735 1_555
B7_0 Mg3_0 2.788937 1_555
B7_1 Ru1_5 2.162690 1_555
B7_1 Ru1_1 2.162691 1_555
B7_1 Ru6_5 2.233692 1_555
B7_1 Ru6_1 2.233693 1_555
B7_1 Ru7_5 2.238573 1_555
B7_1 Ru7_1 2.238573 1_555
B7_1 Mg1_1 2.744735 1_555
B7_1 Mg3_1 2.788937 1_555
B7_2 Ru1_6 2.162690 1_555
B7_2 Ru1_2 2.162691 1_555
B7_2 Ru6_6 2.233692 1_555
B7_2 Ru6_2 2.233693 1_555
B7_2 Ru7_6 2.238573 1_555
B7_2 Ru7_2 2.238573 1_555
B7_2 Mg1_2 2.744735 1_555
B7_2 Mg3_2 2.788937 1_555
B7_3 Ru1_7 2.162690 1_555
B7_3 Ru1_3 2.162691 1_555
B7_3 Ru6_7 2.233692 1_555
B7_3 Ru6_3 2.233693 1_555
B7_3 Ru7_7 2.238573 1_555
B7_3 Ru7_3 2.238573 1_555
B7_3 Mg1_3 2.744735 1_555
B7_3 Mg3_3 2.788937 1_555
B7_4 Ru1_0 2.162690 1_655
B7_4 Ru1_4 2.162691 1_555
B7_4 Ru6_0 2.233692 1_655
B7_4 Ru6_4 2.233693 1_555
B7_4 Ru7_0 2.238573 1_655
B7_4 Ru7_4 2.238573 1_555
B7_4 Mg1_4 2.744735 1_555
B7_4 Mg3_4 2.788937 1_555
B7_5 Ru1_1 2.162690 1_655
B7_5 Ru1_5 2.162691 1_555
B7_5 Ru6_1 2.233692 1_655
B7_5 Ru6_5 2.233693 1_555
B7_5 Ru7_1 2.238573 1_655
B7_5 Ru7_5 2.238573 1_555
B7_5 Mg1_5 2.744735 1_555
B7_5 Mg3_5 2.788937 1_555
B7_6 Ru1_2 2.162690 1_655
B7_6 Ru1_6 2.162691 1_555
B7_6 Ru6_2 2.233692 1_655
B7_6 Ru6_6 2.233693 1_555
B7_6 Ru7_2 2.238573 1_655
B7_6 Ru7_6 2.238573 1_555
B7_6 Mg1_6 2.744735 1_555
B7_6 Mg3_6 2.788937 1_555
B7_7 Ru1_3 2.162690 1_655
B7_7 Ru1_7 2.162691 1_555
B7_7 Ru6_3 2.233692 1_655
B7_7 Ru6_7 2.233693 1_555
B7_7 Ru7_3 2.238573 1_655
B7_7 Ru7_7 2.238573 1_555
B7_7 Mg1_7 2.744735 1_555
B7_7 Mg3_7 2.788937 1_555
