# generated using pymatgen
data_Zr9(NiP2)2
_symmetry_space_group_name_H-M   'P 1'
_cell_length_a   12.04279716
_cell_length_b   12.04265071
_cell_length_c   3.69268898
_cell_angle_alpha   90.00000689
_cell_angle_beta   90.00000342
_cell_angle_gamma   90.00064743
_symmetry_Int_Tables_number   1
_chemical_formula_structural   Zr9(NiP2)2
_chemical_formula_sum   'Zr18 Ni4 P8'
_cell_volume   535.54034237
_cell_formula_units_Z   2
loop_
 _symmetry_equiv_pos_site_id
 _symmetry_equiv_pos_as_xyz
  1  'x, y, z'
loop_
 _atom_site_type_symbol
 _atom_site_label
 _atom_site_symmetry_multiplicity
 _atom_site_fract_x
 _atom_site_fract_y
 _atom_site_fract_z
 _atom_site_occupancy
  Zr  Zr0  1  0.00000906  -0.00001161  -0.00000007  1
  Zr  Zr1  1  0.49998978  0.50000779  0.00000005  1
  Zr  Zr2  1  0.10326233  0.18169566  0.50000069  1
  Zr  Zr3  1  0.18169939  0.89674160  0.50000034  1
  Zr  Zr4  1  0.81830516  0.10324533  0.50000021  1
  Zr  Zr5  1  0.89675028  0.81829799  0.49999928  1
  Zr  Zr6  1  0.39673901  0.68170296  0.50000048  1
  Zr  Zr7  1  0.60324774  0.31830104  0.49999952  1
  Zr  Zr8  1  0.68169970  0.60326394  0.50000013  1
  Zr  Zr9  1  0.31829512  0.39674572  0.50000041  1
  Zr  Zr10  1  0.09606441  0.40394755  0.00000010  1
  Zr  Zr11  1  0.40394635  0.90395067  -0.00000039  1
  Zr  Zr12  1  0.59604768  0.09604464  -0.00000014  1
  Zr  Zr13  1  0.90394712  0.59606507  -0.00000040  1
  Zr  Zr14  1  0.38047200  0.11951896  0.49999999  1
  Zr  Zr15  1  0.11952018  0.61952298  0.50000014  1
  Zr  Zr16  1  0.88049007  0.38048756  0.49999996  1
  Zr  Zr17  1  0.61951754  0.88047658  0.49999994  1
  Ni  Ni0  1  0.25371345  0.24628775  -0.00000013  1
  Ni  Ni1  1  0.24628345  0.74628346  0.00000051  1
  Ni  Ni2  1  0.75371684  0.25371648  -0.00000043  1
  Ni  Ni3  1  0.74628705  0.75371391  0.00000001  1
  P  P0  1  0.22436808  0.05686338  0.00000007  1
  P  P1  1  0.05686310  0.77563276  -0.00000008  1
  P  P2  1  0.94313901  0.22436616  0.00000001  1
  P  P3  1  0.77563167  0.94313171  -0.00000010  1
  P  P4  1  0.27563323  0.55686180  0.00000001  1
  P  P5  1  0.72436560  0.44313852  -0.00000005  1
  P  P6  1  0.55686348  0.72436663  -0.00000004  1
  P  P7  1  0.44313213  0.27563300  -0.00000002  1
loop_
_geom_bond_atom_site_label_1
_geom_bond_atom_site_label_2
_geom_bond_distance
_geom_bond_site_symmetry_2
Ni0 P7 2.308339 1_555
Ni0 P0 2.308380 1_555
Ni0 Zr10 2.685025 1_555
Ni0 Zr2 2.701263 1_554
Ni0 Zr2 2.701267 1_555
Ni0 Zr9 2.701271 1_554
Ni0 Zr9 2.701273 1_555
Ni0 Zr14 2.840762 1_554
Ni0 Zr14 2.840763 1_555
Ni1 P4 2.308364 1_555
Ni1 P1 2.308374 1_555
Ni1 Zr11 2.685176 1_555
Ni1 Zr6 2.701272 1_555
Ni1 Zr6 2.701272 1_554
Ni1 Zr3 2.701293 1_555
Ni1 Zr3 2.701294 1_554
Ni1 Zr15 2.840720 1_555
Ni1 Zr15 2.840722 1_554
Ni2 P5 2.308371 1_555
Ni2 P2 2.308397 1_555
Ni2 Zr12 2.685269 1_555
Ni2 Zr7 2.701396 1_555
Ni2 Zr7 2.701396 1_554
Ni2 Zr4 2.701411 1_554
Ni2 Zr4 2.701415 1_555
Ni2 Zr16 2.840853 1_554
Ni2 Zr16 2.840855 1_555
Ni3 P3 2.308300 1_555
Ni3 P6 2.308401 1_555
Ni3 Zr13 2.685026 1_555
Ni3 Zr8 2.701226 1_554
Ni3 Zr8 2.701227 1_555
Ni3 Zr5 2.701333 1_555
Ni3 Zr5 2.701337 1_554
Ni3 Zr17 2.840794 1_555
Ni3 Zr17 2.840794 1_554
P0 Zr3 2.718696 1_544
P0 Zr3 2.718698 1_545
P0 Zr14 2.740878 1_555
P0 Zr14 2.740879 1_554
P0 Zr0 2.787364 1_555
P0 Zr2 2.792142 1_554
P0 Zr2 2.792145 1_555
P0 Zr11 2.840434 1_545
P1 Zr5 2.718635 1_455
P1 Zr5 2.718638 1_454
P1 Zr15 2.740930 1_554
P1 Zr15 2.740931 1_555
P1 Zr0 2.787248 1_565
P1 Zr3 2.792171 1_554
P1 Zr3 2.792173 1_555
P1 Zr13 2.840325 1_455
P2 Zr2 2.718736 1_654
P2 Zr2 2.718740 1_655
P2 Zr16 2.740999 1_555
P2 Zr16 2.741000 1_554
P2 Zr0 2.787554 1_655
P2 Zr4 2.792231 1_554
P2 Zr4 2.792232 1_555
P2 Zr10 2.840524 1_655
P3 Zr4 2.718638 1_564
P3 Zr4 2.718639 1_565
P3 Zr17 2.740961 1_554
P3 Zr17 2.740961 1_555
P3 Zr0 2.787525 1_665
P3 Zr5 2.792232 1_555
P3 Zr5 2.792235 1_554
P3 Zr12 2.840488 1_565
P4 Zr9 2.718640 1_554
P4 Zr9 2.718642 1_555
P4 Zr15 2.740984 1_554
P4 Zr15 2.740984 1_555
P4 Zr1 2.787288 1_555
P4 Zr6 2.792183 1_554
P4 Zr6 2.792184 1_555
P4 Zr10 2.840327 1_555
P5 Zr8 2.718730 1_554
P5 Zr8 2.718730 1_555
P5 Zr16 2.741044 1_554
P5 Zr16 2.741044 1_555
P5 Zr1 2.787559 1_555
P5 Zr7 2.792235 1_555
P5 Zr7 2.792237 1_554
P5 Zr13 2.840540 1_555
P6 Zr6 2.718722 1_554
P6 Zr6 2.718725 1_555
P6 Zr17 2.740910 1_555
P6 Zr17 2.740910 1_554
P6 Zr1 2.787329 1_555
P6 Zr8 2.792150 1_554
P6 Zr8 2.792151 1_555
P6 Zr11 2.840516 1_555
P7 Zr7 2.718657 1_555
P7 Zr7 2.718659 1_554
P7 Zr14 2.740964 1_554
P7 Zr14 2.740964 1_555
P7 Zr1 2.787467 1_555
P7 Zr9 2.792218 1_554
P7 Zr9 2.792220 1_555
P7 Zr12 2.840543 1_555
