# generated using pymatgen
data_KGd(WO4)2
_symmetry_space_group_name_H-M   'P 1'
_cell_length_a   6.68929339
_cell_length_b   6.68929339
_cell_length_c   7.60030348
_cell_angle_alpha   89.87214203
_cell_angle_beta   89.87214203
_cell_angle_gamma   100.70474633
_symmetry_Int_Tables_number   1
_chemical_formula_structural   KGd(WO4)2
_chemical_formula_sum   'K2 Gd2 W4 O16'
_cell_volume   334.16763315
_cell_formula_units_Z   2
loop_
 _symmetry_equiv_pos_site_id
 _symmetry_equiv_pos_as_xyz
  1  'x, y, z'
loop_
 _atom_site_type_symbol
 _atom_site_label
 _atom_site_symmetry_multiplicity
 _atom_site_fract_x
 _atom_site_fract_y
 _atom_site_fract_z
 _atom_site_occupancy
  K  K0  1  0.68165300  0.31834700  0.75000000  1
  K  K1  1  0.31834700  0.68165300  0.25000000  1
  Gd  Gd0  1  0.74586600  0.25413400  0.25000000  1
  Gd  Gd1  1  0.25413400  0.74586600  0.75000000  1
  W  W0  1  0.80689200  0.80870300  0.99771300  1
  W  W1  1  0.80870300  0.80689200  0.49771300  1
  W  W2  1  0.19310800  0.19129700  0.00228700  1
  W  W3  1  0.19129700  0.19310800  0.50228700  1
  O  O0  1  0.75550200  0.88454100  0.24872600  1
  O  O1  1  0.45561100  0.20807700  0.43364700  1
  O  O2  1  0.88193900  0.12228400  0.97754900  1
  O  O3  1  0.88454100  0.75550200  0.74872600  1
  O  O4  1  0.54438900  0.79192300  0.56635300  1
  O  O5  1  0.11806100  0.87771600  0.02245100  1
  O  O6  1  0.87771600  0.11806100  0.52245100  1
  O  O7  1  0.11545900  0.24449800  0.25127400  1
  O  O8  1  0.54587400  0.80836700  0.92737700  1
  O  O9  1  0.20807700  0.45561100  0.93364700  1
  O  O10  1  0.19163300  0.45412600  0.57262300  1
  O  O11  1  0.45412600  0.19163300  0.07262300  1
  O  O12  1  0.24449800  0.11545900  0.75127400  1
  O  O13  1  0.79192300  0.54438900  0.06635300  1
  O  O14  1  0.12228400  0.88193900  0.47754900  1
  O  O15  1  0.80836700  0.54587400  0.42737700  1
loop_
_geom_bond_atom_site_label_1
_geom_bond_atom_site_label_2
_geom_bond_distance
_geom_bond_site_symmetry_2
K0 O6 2.675638 1_555
K0 O2 2.675638 1_555
K0 O13 2.867274 1_556
K0 O1 2.867274 1_555
K0 O15 2.922706 1_555
K0 O11 2.922706 1_556
K0 O3 2.986428 1_555
K0 O12 2.986428 1_555
K1 O5 2.675638 1_555
K1 O14 2.675638 1_555
K1 O4 2.867274 1_555
K1 O9 2.867274 1_554
K1 O8 2.922706 1_554
K1 O10 2.922706 1_555
K1 O0 2.986428 1_555
K1 O7 2.986428 1_555
Gd0 O11 2.347735 1_555
Gd0 O15 2.347735 1_555
Gd0 O1 2.361499 1_555
Gd0 O13 2.361499 1_555
Gd0 O7 2.485136 1_655
Gd0 O0 2.485136 1_545
Gd0 O6 2.488421 1_555
Gd0 O2 2.488421 1_554
Gd1 O10 2.347735 1_555
Gd1 O8 2.347735 1_555
Gd1 O9 2.361499 1_555
Gd1 O4 2.361499 1_555
Gd1 O12 2.485136 1_565
Gd1 O3 2.485136 1_455
Gd1 O5 2.488421 1_556
Gd1 O14 2.488421 1_555
O0 W1 2.011174 1_555
O0 W0 2.020226 1_554
O1 W3 1.827060 1_555
O2 W2 2.055789 1_656
O2 W0 2.069444 1_545
O3 W0 2.011174 1_555
O3 W1 2.020226 1_555
O4 W1 1.827060 1_555
O5 W0 2.055789 1_454
O5 W2 2.069444 1_565
O6 W1 2.055789 1_545
O6 W3 2.069444 1_655
O7 W2 2.011174 1_555
O7 W3 2.020226 1_555
O8 W0 1.826772 1_555
O9 W2 1.827060 1_556
O10 W3 1.826772 1_555
O11 W2 1.826772 1_555
O12 W3 2.011174 1_555
O12 W2 2.020226 1_556
O13 W0 1.827060 1_554
O14 W3 2.055789 1_565
O14 W1 2.069444 1_455
O15 W1 1.826772 1_555
