# generated using pymatgen
data_Pr(SiPt)2
_symmetry_space_group_name_H-M   'P 1'
_cell_length_a   4.26153554
_cell_length_b   4.26153503
_cell_length_c   5.79356921
_cell_angle_alpha   111.57885153
_cell_angle_beta   111.57884682
_cell_angle_gamma   90.00001176
_symmetry_Int_Tables_number   1
_chemical_formula_structural   Pr(SiPt)2
_chemical_formula_sum   'Pr1 Si2 Pt2'
_cell_volume   89.86347698
_cell_formula_units_Z   1
loop_
 _symmetry_equiv_pos_site_id
 _symmetry_equiv_pos_as_xyz
  1  'x, y, z'
loop_
 _atom_site_type_symbol
 _atom_site_label
 _atom_site_symmetry_multiplicity
 _atom_site_fract_x
 _atom_site_fract_y
 _atom_site_fract_z
 _atom_site_occupancy
  Pr  Pr0  1  -0.00000000  -0.00000000  0.00000000  1
  Si  Si0  1  0.37747540  0.37747540  0.75495279  1
  Si  Si1  1  0.62252460  0.62252460  0.24504721  1
  Pt  Pt0  1  0.75000000  0.25000000  0.50000000  1
  Pt  Pt1  1  0.25000000  0.75000000  0.50000000  1
loop_
_geom_bond_atom_site_label_1
_geom_bond_atom_site_label_2
_geom_bond_distance
_geom_bond_site_symmetry_2
Pr0 Si1 3.248167 1_445
Pr0 Si0 3.248167 1_554
Pr0 Si1 3.248173 1_455
Pr0 Si0 3.248173 1_544
Pr0 Si1 3.248173 1_545
Pr0 Si0 3.248173 1_454
Pr0 Si0 3.248178 1_444
Pr0 Si1 3.248178 1_555
Pr0 Pt1 3.265187 1_544
Pr0 Pt0 3.265187 1_455
Pr0 Pt0 3.265187 1_454
Pr0 Pt1 3.265187 1_545
Pr0 Pt1 3.265187 1_555
Pr0 Pt0 3.265187 1_444
Pr0 Pt0 3.265188 1_555
Pr0 Pt1 3.265188 1_444
Si0 Si1 2.425106 1_556
Pt0 Si1 2.476228 1_545
Pt0 Si0 2.476229 1_655
Pt0 Si1 2.476236 1_555
Pt0 Si0 2.476236 1_555
Pt1 Si0 2.476228 1_565
Pt1 Si1 2.476229 1_455
Pt1 Si0 2.476236 1_555
Pt1 Si1 2.476236 1_555
