# generated using pymatgen
data_Lu(CuSi)2
_symmetry_space_group_name_H-M   'P 1'
_cell_length_a   3.88330302
_cell_length_b   3.88330297
_cell_length_c   5.68382194
_cell_angle_alpha   109.97501640
_cell_angle_beta   109.97501087
_cell_angle_gamma   89.99999865
_symmetry_Int_Tables_number   1
_chemical_formula_structural   Lu(CuSi)2
_chemical_formula_sum   'Lu1 Cu2 Si2'
_cell_volume   75.04621341
_cell_formula_units_Z   1
loop_
 _symmetry_equiv_pos_site_id
 _symmetry_equiv_pos_as_xyz
  1  'x, y, z'
loop_
 _atom_site_type_symbol
 _atom_site_label
 _atom_site_symmetry_multiplicity
 _atom_site_fract_x
 _atom_site_fract_y
 _atom_site_fract_z
 _atom_site_occupancy
  Lu  Lu0  1  -0.00000000  -0.00000000  -0.00000000  1
  Cu  Cu0  1  0.25000000  0.75000000  0.50000000  1
  Cu  Cu1  1  0.75000000  0.25000000  0.50000000  1
  Si  Si0  1  0.61593872  0.61593872  0.23187745  1
  Si  Si1  1  0.38406128  0.38406128  0.76812255  1
loop_
_geom_bond_atom_site_label_1
_geom_bond_atom_site_label_2
_geom_bond_distance
_geom_bond_site_symmetry_2
Lu0 Si1 2.978524 1_444
Lu0 Si0 2.978524 1_555
Lu0 Si0 2.978524 1_455
Lu0 Si1 2.978524 1_544
Lu0 Si0 2.978525 1_545
Lu0 Si1 2.978525 1_454
Lu0 Si0 2.978525 1_445
Lu0 Si1 2.978525 1_554
Cu0 Si1 2.355932 1_565
Cu0 Si0 2.355932 1_455
Cu0 Si0 2.355932 1_555
Cu0 Si1 2.355932 1_555
Cu0 Cu1 2.745910 1_555
Cu0 Cu1 2.745910 1_465
Cu0 Cu1 2.745910 1_565
Cu0 Cu1 2.745910 1_455
Cu0 Lu0 3.156178 1_555
Cu0 Lu0 3.156178 1_666
Cu0 Lu0 3.156178 1_566
Cu0 Lu0 3.156179 1_565
Cu1 Si0 2.355932 1_545
Cu1 Si1 2.355932 1_655
Cu1 Si1 2.355932 1_555
Cu1 Si0 2.355932 1_555
Cu1 Lu0 3.156178 1_666
Cu1 Lu0 3.156178 1_555
Cu1 Lu0 3.156178 1_655
Cu1 Lu0 3.156179 1_656
Si0 Si1 2.307888 1_554
