# generated using pymatgen
data_VP2O7
_symmetry_space_group_name_H-M   'P 1'
_cell_length_a   8.24463193
_cell_length_b   8.24463193
_cell_length_c   8.24463193
_cell_angle_alpha   93.05827603
_cell_angle_beta   93.05827603
_cell_angle_gamma   153.29047916
_symmetry_Int_Tables_number   1
_chemical_formula_structural   VP2O7
_chemical_formula_sum   'V2 P4 O14'
_cell_volume   245.07916878
_cell_formula_units_Z   2
loop_
 _symmetry_equiv_pos_site_id
 _symmetry_equiv_pos_as_xyz
  1  'x, y, z'
loop_
 _atom_site_type_symbol
 _atom_site_label
 _atom_site_symmetry_multiplicity
 _atom_site_fract_x
 _atom_site_fract_y
 _atom_site_fract_z
 _atom_site_occupancy
  V  V0  1  0.00000000  0.00000000  0.00000000  1
  V  V1  1  0.25000000  0.75000000  0.50000000  1
  P  P0  1  0.96865600  0.37500000  0.09365600  1
  P  P1  1  0.12500000  0.03134400  0.40634400  1
  P  P2  1  0.62500000  0.71865600  0.59365600  1
  P  P3  1  0.28134400  0.87500000  0.90634400  1
  O  O0  1  0.21291400  0.64643000  0.25803000  1
  O  O1  1  0.35357000  0.61160100  0.56648400  1
  O  O2  1  0.38839900  0.95488400  0.74197000  1
  O  O3  1  0.03708600  0.79511600  0.93351600  1
  O  O4  1  0.20488400  0.13839900  0.24197000  1
  O  O5  1  0.80950700  0.87500000  0.43450700  1
  O  O6  1  0.89643000  0.96291400  0.75803000  1
  O  O7  1  0.75000000  0.25000000  0.50000000  1
  O  O8  1  0.04511600  0.78708600  0.43351600  1
  O  O9  1  0.44049300  0.37500000  0.56549300  1
  O  O10  1  0.86160100  0.10357000  0.06648400  1
  O  O11  1  0.62500000  0.19049300  0.06549300  1
  O  O12  1  0.50000000  0.50000000  0.00000000  1
  O  O13  1  0.12500000  0.55950700  0.93450700  1
loop_
_geom_bond_atom_site_label_1
_geom_bond_atom_site_label_2
_geom_bond_distance
_geom_bond_site_symmetry_2
O0 P0 1.494554 1_455
O0 V1 2.022166 1_555
O1 P2 1.494560 1_555
O1 V1 2.022159 1_555
O2 P3 1.494552 1_555
O2 V1 2.022168 1_555
O3 P3 1.494554 1_555
O3 V0 2.022166 1_566
O4 P1 1.494552 1_555
O4 V0 2.022168 1_555
O5 P2 1.608566 1_555
O5 P1 1.608566 1_665
O6 P2 1.494554 1_555
O6 V0 2.022166 1_666
O7 V1 1.904343 1_655
O7 V1 1.904343 1_545
O8 P1 1.494554 1_565
O8 V1 2.022166 1_555
O9 P2 1.608566 1_555
O9 P1 1.608566 1_555
O10 P0 1.494560 1_555
O10 V0 2.022159 1_655
O11 P0 1.608566 1_555
O11 P3 1.608566 1_544
O12 V0 1.904343 1_555
O12 V0 1.904343 1_665
O13 P0 1.608566 1_456
O13 P3 1.608566 1_555
