# generated using pymatgen
data_La5Mn6O18
_symmetry_space_group_name_H-M   'P 1'
_cell_length_a   7.83740800
_cell_length_b   9.48684652
_cell_length_c   11.05691518
_cell_angle_alpha   106.99518896
_cell_angle_beta   89.98636125
_cell_angle_gamma   113.70190048
_symmetry_Int_Tables_number   1
_chemical_formula_structural   La5Mn6O18
_chemical_formula_sum   'La10 Mn12 O36'
_cell_volume   713.40466123
_cell_formula_units_Z   2
loop_
 _symmetry_equiv_pos_site_id
 _symmetry_equiv_pos_as_xyz
  1  'x, y, z'
loop_
 _atom_site_type_symbol
 _atom_site_label
 _atom_site_symmetry_multiplicity
 _atom_site_fract_x
 _atom_site_fract_y
 _atom_site_fract_z
 _atom_site_occupancy
  La  La0  1  0.58425800  0.67345600  0.92282800  1
  La  La1  1  0.74973900  0.00019600  0.75317100  1
  La  La2  1  0.08316100  0.67141300  0.91261400  1
  La  La3  1  0.90868600  0.32381400  0.57745100  1
  La  La4  1  0.09131400  0.67618600  0.42254900  1
  La  La5  1  0.40928200  0.32592500  0.58340600  1
  La  La6  1  0.25026100  0.99980400  0.24682900  1
  La  La7  1  0.41574200  0.32654400  0.07717200  1
  La  La8  1  0.59071800  0.67407500  0.41659400  1
  La  La9  1  0.91683900  0.32858700  0.08738600  1
  Mn  Mn0  1  0.00000000  0.00000000  0.00000000  1
  Mn  Mn1  1  0.33275100  0.66941800  0.66790500  1
  Mn  Mn2  1  0.66234300  0.33071700  0.83124800  1
  Mn  Mn3  1  0.66724900  0.33058200  0.33209500  1
  Mn  Mn4  1  0.83628700  0.66939000  0.66616400  1
  Mn  Mn5  1  0.00000000  0.00000000  0.50000000  1
  Mn  Mn6  1  0.16618500  0.33094100  0.83322000  1
  Mn  Mn7  1  0.16371300  0.33061000  0.33383600  1
  Mn  Mn8  1  0.33765700  0.66928300  0.16875200  1
  Mn  Mn9  1  0.50000000  0.00000000  0.50000000  1
  Mn  Mn10  1  0.50000000  0.00000000  0.00000000  1
  Mn  Mn11  1  0.83381500  0.66905900  0.16678000  1
  O  O0  1  0.28678600  0.52133000  0.77130900  1
  O  O1  1  0.42642500  0.35336600  0.86319200  1
  O  O2  1  0.24951900  0.99896500  0.98928300  1
  O  O3  1  0.62359600  0.19001800  0.93814800  1
  O  O4  1  0.57414400  0.15878500  0.67274700  1
  O  O5  1  0.46018000  0.84160800  0.82824800  1
  O  O6  1  0.60359600  0.19361200  0.44208100  1
  O  O7  1  0.87725300  0.81068400  0.84277400  1
  O  O8  1  0.74992800  0.99959200  0.52598200  1
  O  O9  1  0.79068800  0.51883400  0.99172600  1
  O  O10  1  0.58040300  0.66103800  0.64024000  1
  O  O11  1  0.71205400  0.48265600  0.73293900  1
  O  O12  1  0.92566400  0.84244600  0.59427800  1
  O  O13  1  0.07138200  0.64506100  0.68403300  1
  O  O14  1  0.89494800  0.80516600  0.34641600  1
  O  O15  1  0.91853500  0.33882800  0.80763000  1
  O  O16  1  0.78291600  0.52000900  0.48907600  1
  O  O17  1  0.03993700  0.15977400  0.90756800  1
  O  O18  1  0.96006300  0.84022600  0.09243200  1
  O  O19  1  0.21708400  0.47999100  0.51092400  1
  O  O20  1  0.08146500  0.66117200  0.19237000  1
  O  O21  1  0.10505200  0.19483400  0.65358400  1
  O  O22  1  0.92861800  0.35493900  0.31596700  1
  O  O23  1  0.07433600  0.15755400  0.40572200  1
  O  O24  1  0.28794600  0.51734400  0.26706100  1
  O  O25  1  0.41959700  0.33896200  0.35976000  1
  O  O26  1  0.20931200  0.48116600  0.00827400  1
  O  O27  1  0.25007200  0.00040800  0.47401800  1
  O  O28  1  0.12274700  0.18931600  0.15722600  1
  O  O29  1  0.39640400  0.80638800  0.55791900  1
  O  O30  1  0.53982000  0.15839200  0.17175200  1
  O  O31  1  0.42585600  0.84121500  0.32725300  1
  O  O32  1  0.37640400  0.80998200  0.06185200  1
  O  O33  1  0.75048100  0.00103500  0.01071700  1
  O  O34  1  0.57357500  0.64663400  0.13680800  1
  O  O35  1  0.71321400  0.47867000  0.22869100  1
loop_
_geom_bond_atom_site_label_1
_geom_bond_atom_site_label_2
_geom_bond_distance
_geom_bond_site_symmetry_2
La0 O34 2.450354 1_556
La0 O7 2.453707 1_555
La0 O0 2.491667 1_555
La0 O5 2.609006 1_555
La0 O1 2.645016 1_555
La0 O32 2.688018 1_556
La0 O33 2.698069 1_566
La0 O9 2.812719 1_555
La0 O11 2.814737 1_555
La0 O18 3.035905 1_556
La0 O26 3.090668 1_556
La0 O10 3.091863 1_555
La1 O5 2.467186 1_545
La1 O17 2.470220 1_655
La1 O8 2.510342 1_545
La1 O12 2.710733 1_545
La1 O4 2.719474 1_555
La1 O3 2.771411 1_555
La1 O7 2.774689 1_545
La1 O15 2.808193 1_555
La1 O10 2.809304 1_545
La1 O33 2.845349 1_556
La1 O29 3.049422 1_545
La1 O21 3.070824 1_655
La2 O32 2.457190 1_556
La2 O13 2.463933 1_555
La2 O9 2.487253 1_455
La2 O18 2.613143 1_456
La2 O7 2.693980 1_455
La2 O2 2.697790 1_555
La2 O0 2.745973 1_555
La2 O15 2.748482 1_455
La2 O26 2.811547 1_556
La2 O5 3.041681 1_555
La2 O11 3.057569 1_455
La2 O20 3.122877 1_556
La3 O6 2.455588 1_555
La3 O15 2.506584 1_555
La3 O19 2.517055 1_655
La3 O21 2.586715 1_655
La3 O13 2.660760 1_655
La3 O8 2.689437 1_545
La3 O23 2.770029 1_655
La3 O16 2.815929 1_555
La3 O11 2.820052 1_555
La3 O4 2.845839 1_555
La3 O22 2.988717 1_555
La3 O0 3.174565 1_655
La4 O29 2.455588 1_555
La4 O20 2.506584 1_555
La4 O16 2.517055 1_455
La4 O14 2.586715 1_455
La4 O22 2.660760 1_455
La4 O27 2.689437 1_565
La4 O12 2.770029 1_455
La4 O19 2.815929 1_555
La4 O24 2.820052 1_555
La4 O31 2.845839 1_555
La4 O13 2.988717 1_555
La4 O35 3.174565 1_455
La5 O21 2.452194 1_555
La5 O11 2.510676 1_555
La5 O25 2.511454 1_555
La5 O6 2.593407 1_555
La5 O27 2.697359 1_555
La5 O19 2.739156 1_555
La5 O10 2.775847 1_555
La5 O4 2.779018 1_555
La5 O0 2.802338 1_555
La5 O23 2.845921 1_555
La5 O1 3.026101 1_555
La5 O16 3.136806 1_555
La6 O30 2.467186 1_565
La6 O18 2.470220 1_455
La6 O27 2.510342 1_565
La6 O23 2.710733 1_565
La6 O31 2.719474 1_555
La6 O32 2.771411 1_555
La6 O28 2.774689 1_565
La6 O20 2.808193 1_555
La6 O25 2.809304 1_565
La6 O2 2.845349 1_554
La6 O6 3.049422 1_565
La6 O14 3.070824 1_455
La7 O1 2.450354 1_554
La7 O28 2.453707 1_555
La7 O35 2.491667 1_555
La7 O30 2.609006 1_555
La7 O34 2.645016 1_555
La7 O3 2.688018 1_554
La7 O2 2.698069 1_544
La7 O26 2.812719 1_555
La7 O24 2.814737 1_555
La7 O17 3.035905 1_554
La7 O9 3.090668 1_554
La7 O25 3.091863 1_555
La8 O14 2.452194 1_555
La8 O24 2.510676 1_555
La8 O10 2.511454 1_555
La8 O29 2.593407 1_555
La8 O8 2.697359 1_555
La8 O16 2.739156 1_555
La8 O25 2.775847 1_555
La8 O31 2.779018 1_555
La8 O35 2.802338 1_555
La8 O12 2.845921 1_555
La8 O34 3.026101 1_555
La8 O19 3.136806 1_555
La9 O3 2.457190 1_554
La9 O22 2.463933 1_555
La9 O26 2.487253 1_655
La9 O17 2.613143 1_654
La9 O28 2.693980 1_655
La9 O33 2.697790 1_555
La9 O35 2.745973 1_555
La9 O20 2.748482 1_655
La9 O9 2.811547 1_554
La9 O30 3.041681 1_555
La9 O24 3.057569 1_655
La9 O15 3.122877 1_554
Mn0 O33 1.962928 1_455
Mn0 O2 1.962928 1_544
Mn0 O28 1.989925 1_555
Mn0 O7 1.989925 1_444
Mn0 O18 1.990978 1_445
Mn0 O17 1.990978 1_554
Mn1 O5 1.950712 1_555
Mn1 O29 1.954121 1_555
Mn1 O13 1.981094 1_555
Mn1 O19 1.982820 1_555
Mn1 O0 1.985596 1_555
Mn1 O10 1.994174 1_555
Mn2 O4 1.905971 1_555
Mn2 O1 1.965806 1_555
Mn2 O3 1.966524 1_555
Mn2 O11 1.968575 1_555
Mn2 O15 1.998246 1_555
Mn2 O9 2.012877 1_555
Mn3 O30 1.950712 1_555
Mn3 O6 1.954121 1_555
Mn3 O22 1.981094 1_555
Mn3 O16 1.982820 1_555
Mn3 O35 1.985596 1_555
Mn3 O25 1.994174 1_555
Mn4 O12 1.912018 1_555
Mn4 O7 1.958891 1_555
Mn4 O13 1.963663 1_655
Mn4 O16 1.979628 1_555
Mn4 O10 1.992382 1_555
Mn4 O11 2.002241 1_555
Mn5 O12 1.967392 1_445
Mn5 O23 1.967392 1_555
Mn5 O27 1.979419 1_555
Mn5 O8 1.979419 1_445
Mn5 O21 1.979992 1_555
Mn5 O14 1.979992 1_445
Mn6 O17 1.944193 1_555
Mn6 O21 1.961050 1_555
Mn6 O26 1.972863 1_556
Mn6 O1 1.981248 1_555
Mn6 O0 1.993562 1_555
Mn6 O15 1.995564 1_455
Mn7 O23 1.912018 1_555
Mn7 O28 1.958891 1_555
Mn7 O22 1.963663 1_455
Mn7 O19 1.979628 1_555
Mn7 O25 1.992382 1_555
Mn7 O24 2.002241 1_555
Mn8 O31 1.905971 1_555
Mn8 O34 1.965806 1_555
Mn8 O32 1.966524 1_555
Mn8 O24 1.968575 1_555
Mn8 O20 1.998246 1_555
Mn8 O26 2.012877 1_555
Mn9 O4 1.967209 1_555
Mn9 O31 1.967209 1_545
Mn9 O8 1.981517 1_545
Mn9 O27 1.981517 1_555
Mn9 O6 1.982797 1_555
Mn9 O29 1.982797 1_545
Mn10 O33 1.962631 1_555
Mn10 O2 1.962631 1_544
Mn10 O30 1.979094 1_555
Mn10 O5 1.979094 1_544
Mn10 O3 1.993030 1_554
Mn10 O32 1.993030 1_545
Mn11 O18 1.944193 1_555
Mn11 O14 1.961050 1_555
Mn11 O9 1.972863 1_554
Mn11 O34 1.981248 1_555
Mn11 O35 1.993562 1_555
Mn11 O20 1.995564 1_655
