# generated using pymatgen
data_CaZrAl9BO18
_symmetry_space_group_name_H-M   'P 1'
_cell_length_a   8.80807997
_cell_length_b   8.80807997
_cell_length_c   8.56269000
_cell_angle_alpha   90.00000000
_cell_angle_beta   90.00000000
_cell_angle_gamma   119.99999975
_symmetry_Int_Tables_number   1
_chemical_formula_structural   CaZrAl9BO18
_chemical_formula_sum   'Ca2 Zr2 Al18 B2 O36'
_cell_volume   575.31189274
_cell_formula_units_Z   2
loop_
 _symmetry_equiv_pos_site_id
 _symmetry_equiv_pos_as_xyz
  1  'x, y, z'
loop_
 _atom_site_type_symbol
 _atom_site_label
 _atom_site_symmetry_multiplicity
 _atom_site_fract_x
 _atom_site_fract_y
 _atom_site_fract_z
 _atom_site_occupancy
  Ca  Ca0  1  0.00000000  0.00000000  0.00000000  1
  Ca  Ca1  1  0.00000000  0.00000000  0.50000000  1
  Zr  Zr0  1  0.66666700  0.33333300  0.25000000  1
  Zr  Zr1  1  0.33333300  0.66666700  0.75000000  1
  Al  Al0  1  0.36057700  0.01764500  0.57768900  1
  Al  Al1  1  0.01764500  0.65706800  0.07768900  1
  Al  Al2  1  0.33678900  0.00428100  0.25000000  1
  Al  Al3  1  0.65706800  0.63942300  0.92231100  1
  Al  Al4  1  0.63942300  0.98235500  0.42231100  1
  Al  Al5  1  0.63942300  0.98235500  0.07768900  1
  Al  Al6  1  0.36057700  0.01764500  0.92231100  1
  Al  Al7  1  0.98235500  0.34293200  0.92231100  1
  Al  Al8  1  0.34293200  0.36057700  0.07768900  1
  Al  Al9  1  0.65706800  0.63942300  0.57768900  1
  Al  Al10  1  0.66749200  0.66321100  0.25000000  1
  Al  Al11  1  0.01764500  0.65706800  0.42231100  1
  Al  Al12  1  0.66321100  0.99571900  0.75000000  1
  Al  Al13  1  0.99571900  0.33250800  0.25000000  1
  Al  Al14  1  0.34293200  0.36057700  0.42231100  1
  Al  Al15  1  0.98235500  0.34293200  0.57768900  1
  Al  Al16  1  0.33250800  0.33678900  0.75000000  1
  Al  Al17  1  0.00428100  0.66749200  0.75000000  1
  B  B0  1  0.33333300  0.66666700  0.25000000  1
  B  B1  1  0.66666700  0.33333300  0.75000000  1
  O  O0  1  0.88981900  0.67041200  0.25000000  1
  O  O1  1  0.19236000  0.89276800  0.41715000  1
  O  O2  1  0.40525200  0.52243700  0.59226100  1
  O  O3  1  0.59474800  0.47756300  0.40773900  1
  O  O4  1  0.67041200  0.78059300  0.75000000  1
  O  O5  1  0.70040800  0.80764000  0.41715000  1
  O  O6  1  0.47756300  0.88281400  0.90773900  1
  O  O7  1  0.89276800  0.70040800  0.91715000  1
  O  O8  1  0.89276800  0.70040800  0.58285000  1
  O  O9  1  0.44685700  0.84572500  0.25000000  1
  O  O10  1  0.88281400  0.40525200  0.40773900  1
  O  O11  1  0.11718600  0.59474800  0.90773900  1
  O  O12  1  0.21940700  0.88981900  0.75000000  1
  O  O13  1  0.10723200  0.29959200  0.41715000  1
  O  O14  1  0.29959200  0.19236000  0.91715000  1
  O  O15  1  0.11018100  0.32958800  0.75000000  1
  O  O16  1  0.10723200  0.29959200  0.08285000  1
  O  O17  1  0.11718600  0.59474800  0.59226100  1
  O  O18  1  0.88281400  0.40525200  0.09226100  1
  O  O19  1  0.19236000  0.89276800  0.08285000  1
  O  O20  1  0.55314300  0.15427500  0.75000000  1
  O  O21  1  0.84572500  0.39886800  0.75000000  1
  O  O22  1  0.15427500  0.60113200  0.25000000  1
  O  O23  1  0.39886800  0.55314300  0.25000000  1
  O  O24  1  0.70040800  0.80764000  0.08285000  1
  O  O25  1  0.40525200  0.52243700  0.90773900  1
  O  O26  1  0.80764000  0.10723200  0.91715000  1
  O  O27  1  0.60113200  0.44685700  0.75000000  1
  O  O28  1  0.52243700  0.11718600  0.40773900  1
  O  O29  1  0.47756300  0.88281400  0.59226100  1
  O  O30  1  0.78059300  0.11018100  0.25000000  1
  O  O31  1  0.59474800  0.47756300  0.09226100  1
  O  O32  1  0.32958800  0.21940700  0.25000000  1
  O  O33  1  0.52243700  0.11718600  0.09226100  1
  O  O34  1  0.80764000  0.10723200  0.58285000  1
  O  O35  1  0.29959200  0.19236000  0.58285000  1
loop_
_geom_bond_atom_site_label_1
_geom_bond_atom_site_label_2
_geom_bond_distance
_geom_bond_site_symmetry_2
Ca0 O26 2.422065 1_454
Ca0 O19 2.422065 1_545
Ca0 O16 2.422065 1_555
Ca0 O7 2.422065 1_444
Ca0 O14 2.422065 1_554
Ca0 O24 2.422065 1_445
Ca1 O1 2.422065 1_545
Ca1 O34 2.422065 1_455
Ca1 O13 2.422065 1_555
Ca1 O8 2.422065 1_445
Ca1 O35 2.422065 1_555
Ca1 O5 2.422065 1_445
Al0 O35 1.866911 1_555
Al0 O12 1.894925 1_545
Al0 O1 1.914446 1_545
Al0 O28 1.915458 1_555
Al0 O29 1.926517 1_545
Al0 O20 2.112083 1_555
Al1 O19 1.866911 1_555
Al1 O0 1.894925 1_455
Al1 O7 1.914446 1_454
Al1 O11 1.915462 1_554
Al1 O18 1.926510 1_455
Al1 O22 2.112083 1_555
Al2 O19 1.839038 1_545
Al2 O1 1.839038 1_545
Al2 O32 1.927343 1_555
Al2 O28 1.964945 1_555
Al2 O33 1.964945 1_555
Al2 O9 2.060167 1_545
Al3 O7 1.866911 1_555
Al3 O4 1.894925 1_555
Al3 O24 1.914446 1_556
Al3 O31 1.915457 1_556
Al3 O25 1.926510 1_555
Al3 O27 2.112083 1_555
Al4 O5 1.866911 1_555
Al4 O30 1.894925 1_565
Al4 O34 1.914446 1_565
Al4 O29 1.915458 1_555
Al4 O28 1.926517 1_565
Al4 O9 2.112083 1_555
Al5 O24 1.866911 1_555
Al5 O30 1.894925 1_565
Al5 O26 1.914446 1_564
Al5 O6 1.915458 1_554
Al5 O33 1.926517 1_565
Al5 O9 2.112083 1_555
Al6 O14 1.866911 1_555
Al6 O12 1.894925 1_545
Al6 O19 1.914446 1_546
Al6 O33 1.915458 1_556
Al6 O6 1.926517 1_545
Al6 O20 2.112083 1_555
Al7 O26 1.866911 1_555
Al7 O15 1.894925 1_655
Al7 O16 1.914446 1_656
Al7 O18 1.915462 1_556
Al7 O11 1.926510 1_655
Al7 O21 2.112083 1_555
Al8 O16 1.866911 1_555
Al8 O32 1.894925 1_555
Al8 O14 1.914446 1_554
Al8 O25 1.915457 1_554
Al8 O31 1.926510 1_555
Al8 O23 2.112083 1_555
Al9 O8 1.866911 1_555
Al9 O4 1.894925 1_555
Al9 O5 1.914446 1_555
Al9 O3 1.915457 1_555
Al9 O2 1.926510 1_555
Al9 O27 2.112083 1_555
Al10 O24 1.839038 1_555
Al10 O5 1.839038 1_555
Al10 O0 1.927343 1_555
Al10 O3 1.964944 1_555
Al10 O31 1.964944 1_555
Al10 O23 2.060167 1_555
Al11 O1 1.866911 1_555
Al11 O0 1.894925 1_455
Al11 O8 1.914446 1_455
Al11 O17 1.915462 1_555
Al11 O10 1.926510 1_455
Al11 O22 2.112083 1_555
Al12 O34 1.839038 1_565
Al12 O26 1.839038 1_565
Al12 O4 1.927343 1_555
Al12 O6 1.964945 1_555
Al12 O29 1.964945 1_555
Al12 O20 2.060167 1_565
Al13 O13 1.839038 1_655
Al13 O16 1.839038 1_655
Al13 O30 1.927343 1_555
Al13 O10 1.964950 1_555
Al13 O18 1.964950 1_555
Al13 O22 2.060167 1_655
Al14 O13 1.866911 1_555
Al14 O32 1.894925 1_555
Al14 O35 1.914446 1_555
Al14 O2 1.915457 1_555
Al14 O3 1.926510 1_555
Al14 O23 2.112083 1_555
Al15 O34 1.866911 1_555
Al15 O15 1.894925 1_655
Al15 O13 1.914446 1_655
Al15 O10 1.915462 1_555
Al15 O17 1.926510 1_655
Al15 O21 2.112083 1_555
Al16 O35 1.839038 1_555
Al16 O14 1.839038 1_555
Al16 O15 1.927343 1_555
Al16 O25 1.964944 1_555
Al16 O2 1.964944 1_555
Al16 O27 2.060167 1_555
Al17 O8 1.839038 1_455
Al17 O7 1.839038 1_455
Al17 O12 1.927343 1_555
Al17 O11 1.964950 1_555
Al17 O17 1.964950 1_555
Al17 O21 2.060167 1_455
B0 O22 1.382112 1_555
B0 O9 1.382113 1_555
B0 O23 1.382120 1_555
B1 O21 1.382112 1_555
B1 O20 1.382113 1_555
B1 O27 1.382120 1_555
O2 Zr1 2.155048 1_555
O3 Zr0 2.155048 1_555
O6 Zr1 2.155038 1_555
O10 Zr0 2.155035 1_555
O11 Zr1 2.155035 1_555
O17 Zr1 2.155035 1_555
O18 Zr0 2.155035 1_555
O25 Zr1 2.155048 1_555
O28 Zr0 2.155038 1_555
O29 Zr1 2.155038 1_555
O31 Zr0 2.155048 1_555
O33 Zr0 2.155038 1_555
