# generated using pymatgen
data_Sr11InSb9
_symmetry_space_group_name_H-M   'P 1'
_cell_length_a   12.68983991
_cell_length_b   12.68981836
_cell_length_c   12.68982944
_cell_angle_alpha   120.91692518
_cell_angle_beta   117.06487200
_cell_angle_gamma   91.78913905
_symmetry_Int_Tables_number   1
_chemical_formula_structural   Sr11InSb9
_chemical_formula_sum   'Sr22 In2 Sb18'
_cell_volume   1464.20910749
_cell_formula_units_Z   2
loop_
 _symmetry_equiv_pos_site_id
 _symmetry_equiv_pos_as_xyz
  1  'x, y, z'
loop_
 _atom_site_type_symbol
 _atom_site_label
 _atom_site_symmetry_multiplicity
 _atom_site_fract_x
 _atom_site_fract_y
 _atom_site_fract_z
 _atom_site_occupancy
  Sr  Sr0  1  0.32008689  0.32008202  -0.00000300  1
  Sr  Sr1  1  0.82669490  0.84155829  0.66821857  1
  Sr  Sr2  1  0.43114062  0.06815610  0.18246906  1
  Sr  Sr3  1  0.82008987  0.82009028  0.00000545  1
  Sr  Sr4  1  0.68727724  0.94505160  0.37178423  1
  Sr  Sr5  1  0.42576475  0.68864143  0.37045455  1
  Sr  Sr6  1  0.32669992  0.65847453  0.98514118  1
  Sr  Sr7  1  0.81817722  0.18863616  0.26286941  1
  Sr  Sr8  1  0.62052753  0.41673459  0.35196091  1
  Sr  Sr9  1  0.88567912  0.24866524  0.81752746  1
  Sr  Sr10  1  0.12054115  0.76856409  0.20380109  1
  Sr  Sr11  1  0.18726635  0.81550312  0.74224481  1
  Sr  Sr12  1  0.92577163  0.55531781  0.73713575  1
  Sr  Sr13  1  0.38567538  0.56815044  0.63700821  1
  Sr  Sr14  1  0.06477051  0.26856514  0.64803293  1
  Sr  Sr15  1  0.56476715  0.91673071  0.79620376  1
  Sr  Sr16  1  0.93113791  0.74866016  0.36298859  1
  Sr  Sr17  1  0.67333197  0.34155527  0.01485346  1
  Sr  Sr18  1  0.57326834  0.31550232  0.62822499  1
  Sr  Sr19  1  0.17333667  0.15847223  0.33177910  1
  Sr  Sr20  1  0.07325737  0.44502708  0.25775622  1
  Sr  Sr21  1  0.31818430  0.05531169  0.62954216  1
  In  In0  1  0.60628303  0.60627860  0.99999003  1
  In  In1  1  0.10626899  0.10626195  -0.00000380  1
  Sb  Sb0  1  0.63940533  0.64192506  0.64552578  1
  Sb  Sb1  1  0.39975138  0.96979801  0.36281396  1
  Sb  Sb2  1  0.99640196  0.99387619  0.35448349  1
  Sb  Sb3  1  0.61369841  0.62693021  0.24540533  1
  Sb  Sb4  1  0.05037008  0.04308493  0.71632766  1
  Sb  Sb5  1  0.24944703  0.74944679  0.50002163  1
  Sb  Sb6  1  0.55037937  0.83403954  0.00725853  1
  Sb  Sb7  1  0.74945784  0.24947112  0.50001848  1
  Sb  Sb8  1  0.88151782  0.12692655  0.01322226  1
  Sb  Sb9  1  0.49640159  0.14191649  0.00251861  1
  Sb  Sb10  1  0.13941077  0.49387333  0.99749991  1
  Sb  Sb11  1  0.38149815  0.36829678  0.75456758  1
  Sb  Sb12  1  0.32674631  0.33403757  0.28366335  1
  Sb  Sb13  1  0.89974599  0.53692425  0.42994517  1
  Sb  Sb14  1  0.10697059  0.46978046  0.57002607  1
  Sb  Sb15  1  0.82677678  0.54310390  0.99271388  1
  Sb  Sb16  1  0.60696566  0.03692350  0.63717571  1
  Sb  Sb17  1  0.11373912  0.86833647  0.98682748  1
loop_
_geom_bond_atom_site_label_1
_geom_bond_atom_site_label_2
_geom_bond_distance
_geom_bond_site_symmetry_2
In0 Sb11 2.944364 1_555
In0 Sb3 2.944382 1_556
In0 Sb6 2.962924 1_556
In0 Sb15 2.962986 1_555
In0 Sr17 3.567614 1_556
In0 Sr6 3.567661 1_555
In0 Sr3 3.776538 1_556
In1 Sb17 2.943891 1_544
In1 Sb8 2.944186 1_455
In1 Sb12 2.962875 1_555
In1 Sb4 2.962958 1_554
In1 Sr1 3.567427 1_444
In1 Sr19 3.567527 1_555
In1 Sr0 3.776839 1_555
Sb0 Sr8 3.210477 1_555
Sb0 Sr1 3.225021 1_555
Sb0 Sr3 3.231614 1_556
Sb0 Sr13 3.262866 1_555
Sb0 Sr15 3.422918 1_555
Sb0 Sr12 3.671896 1_555
Sb0 Sr5 3.674351 1_555
Sb1 Sb16 2.871094 1_565
Sb1 Sr2 3.269207 1_565
Sb1 Sr10 3.283368 1_555
Sb1 Sr18 3.591990 1_565
Sb1 Sr4 3.626927 1_555
Sb1 Sr21 3.631714 1_565
Sb1 Sr5 3.639731 1_555
Sb1 Sr19 3.809379 1_565
Sb1 Sr6 3.963345 1_554
Sb2 Sr14 3.210404 1_665
Sb2 Sr19 3.225078 1_665
Sb2 Sr3 3.231606 1_555
Sb2 Sr16 3.262828 1_555
Sb2 Sr10 3.423023 1_655
Sb2 Sr7 3.672006 1_565
Sb2 Sr21 3.674216 1_665
Sb3 Sr5 3.332014 1_555
Sb3 Sr4 3.389634 1_555
Sb3 Sr8 3.544661 1_555
Sb3 Sr16 3.551442 1_555
Sb3 Sr17 3.680358 1_555
Sb3 Sr0 3.849282 1_555
Sb3 Sr6 3.851727 1_554
Sb3 Sr1 3.852060 1_555
Sb4 Sr1 3.366713 1_445
Sb4 Sr14 3.410448 1_555
Sb4 Sr0 3.473166 1_556
Sb4 Sr9 3.487508 1_455
Sb4 Sr11 3.497964 1_545
Sb4 Sr16 3.551317 1_445
Sb5 Sr11 3.220884 1_555
Sb5 Sr20 3.221053 1_555
Sb5 Sr21 3.233552 1_565
Sb5 Sr5 3.233679 1_555
Sb5 Sr15 3.496980 1_555
Sb5 Sr10 3.497285 1_555
Sb5 Sr13 3.595332 1_555
Sb5 Sr16 3.595502 1_455
Sb6 Sr6 3.367005 1_554
Sb6 Sr15 3.410043 1_554
Sb6 Sr3 3.472986 1_555
Sb6 Sr13 3.487287 1_554
Sb6 Sr4 3.498347 1_555
Sb6 Sr2 3.551576 1_565
Sb7 Sr18 3.220886 1_555
Sb7 Sr4 3.221056 1_545
Sb7 Sr12 3.233277 1_555
Sb7 Sr7 3.233517 1_555
Sb7 Sr8 3.497067 1_555
Sb7 Sr14 3.497069 1_655
Sb7 Sr9 3.595498 1_555
Sb7 Sr2 3.595633 1_555
Sb8 Sr7 3.332062 1_555
Sb8 Sr20 3.389417 1_655
Sb8 Sr15 3.544624 1_544
Sb8 Sr9 3.551438 1_554
Sb8 Sr1 3.680270 1_544
Sb8 Sr3 3.849296 1_545
Sb8 Sr19 3.851870 1_655
Sb8 Sr17 3.852128 1_555
Sb9 Sr15 3.210401 1_544
Sb9 Sr17 3.225067 1_555
Sb9 Sr0 3.231668 1_555
Sb9 Sr2 3.262727 1_555
Sb9 Sr8 3.422926 1_555
Sb9 Sr21 3.671911 1_554
Sb9 Sr7 3.674192 1_555
Sb10 Sr10 3.210422 1_556
Sb10 Sr6 3.225196 1_555
Sb10 Sr0 3.231539 1_556
Sb10 Sr9 3.262763 1_455
Sb10 Sr14 3.423085 1_555
Sb10 Sr5 3.671661 1_556
Sb10 Sr12 3.674531 1_455
Sb11 Sr21 3.332091 1_555
Sb11 Sr18 3.389674 1_555
Sb11 Sr14 3.544452 1_555
Sb11 Sr13 3.551263 1_555
Sb11 Sr6 3.680216 1_555
Sb11 Sr0 3.849479 1_556
Sb11 Sr19 3.851819 1_555
Sb11 Sr17 3.852090 1_556
Sb12 Sr19 3.366720 1_555
Sb12 Sr8 3.410504 1_555
Sb12 Sr0 3.473235 1_555
Sb12 Sr2 3.487507 1_555
Sb12 Sr20 3.497930 1_555
Sb12 Sr13 3.551327 1_555
Sb13 Sb14 2.871136 1_655
Sb13 Sr16 3.269117 1_555
Sb13 Sr8 3.283412 1_555
Sb13 Sr20 3.591997 1_655
Sb13 Sr11 3.626992 1_655
Sb13 Sr7 3.631613 1_555
Sb13 Sr12 3.639799 1_555
Sb13 Sr17 3.809359 1_555
Sb13 Sr1 3.963471 1_555
Sb14 Sr13 3.269174 1_555
Sb14 Sr14 3.283408 1_555
Sb14 Sr11 3.592160 1_555
Sb14 Sr20 3.626862 1_555
Sb14 Sr12 3.631810 1_455
Sb14 Sr7 3.639571 1_455
Sb14 Sr6 3.809562 1_555
Sb14 Sr19 3.963268 1_555
Sb15 Sr17 3.367062 1_556
Sb15 Sr10 3.410196 1_656
Sb15 Sr3 3.473024 1_556
Sb15 Sr16 3.487553 1_556
Sb15 Sr18 3.498035 1_555
Sb15 Sr9 3.551388 1_555
Sb16 Sr9 3.269289 1_555
Sb16 Sr15 3.283414 1_545
Sb16 Sr4 3.592024 1_545
Sb16 Sr18 3.627064 1_555
Sb16 Sr5 3.631512 1_545
Sb16 Sr21 3.639593 1_555
Sb16 Sr1 3.809434 1_545
Sb16 Sr17 3.963352 1_556
Sb17 Sr12 3.332381 1_455
Sb17 Sr11 3.389567 1_555
Sb17 Sr10 3.544596 1_556
Sb17 Sr2 3.551052 1_566
Sb17 Sr19 3.679842 1_566
Sb17 Sr3 3.849465 1_456
Sb17 Sr6 3.852174 1_555
Sb17 Sr1 3.852201 1_455
