# generated using pymatgen
data_CdI2
_symmetry_space_group_name_H-M   'P 1'
_cell_length_a   4.28418223
_cell_length_b   4.28418307
_cell_length_c   50.11229148
_cell_angle_alpha   90.00000000
_cell_angle_beta   90.00000000
_cell_angle_gamma   119.99999361
_symmetry_Int_Tables_number   1
_chemical_formula_structural   CdI2
_chemical_formula_sum   'Cd7 I14'
_cell_volume   796.54603053
_cell_formula_units_Z   7
loop_
 _symmetry_equiv_pos_site_id
 _symmetry_equiv_pos_as_xyz
  1  'x, y, z'
loop_
 _atom_site_type_symbol
 _atom_site_label
 _atom_site_symmetry_multiplicity
 _atom_site_fract_x
 _atom_site_fract_y
 _atom_site_fract_z
 _atom_site_occupancy
  Cd  Cd0  1  0.00000000  -0.00000000  0.89248707  1
  Cd  Cd1  1  0.66666700  0.33333300  0.46437150  1
  Cd  Cd2  1  0.00000000  -0.00000000  0.60742232  1
  Cd  Cd3  1  0.66666700  0.33333300  0.32146682  1
  Cd  Cd4  1  0.33333300  0.66666700  0.75004590  1
  Cd  Cd5  1  0.00000000  -0.00000000  0.17865601  1
  Cd  Cd6  1  0.66666700  0.33333300  0.03573347  1
  I  I0  1  0.66666700  0.33333300  0.57294411  1
  I  I1  1  0.66666700  0.33333300  0.14424304  1
  I  I2  1  0.33333300  0.66666700  0.07010029  1
  I  I3  1  0.00000000  0.00000000  0.78438599  1
  I  I4  1  0.33333300  0.66666700  0.21295751  1
  I  I5  1  0.33333300  0.66666700  0.35581465  1
  I  I6  1  -0.00000000  -0.00000000  0.42995746  1
  I  I7  1  0.33333300  0.66666700  0.64180441  1
  I  I8  1  -0.00000000  -0.00000000  0.00133098  1
  I  I9  1  0.33333300  0.66666700  0.92672674  1
  I  I10  1  0.66666700  0.33333300  0.85819554  1
  I  I11  1  0.33333300  0.66666700  0.49867172  1
  I  I12  1  0.66666700  0.33333300  0.71563709  1
  I  I13  1  -0.00000000  -0.00000000  0.28704538  1
loop_
_geom_bond_atom_site_label_1
_geom_bond_atom_site_label_2
_geom_bond_distance
_geom_bond_site_symmetry_2
Cd0 I9 3.010337 1_545
Cd0 I9 3.010340 1_445
Cd0 I9 3.010340 1_555
Cd0 I10 3.011819 1_455
Cd0 I10 3.011822 1_555
Cd0 I10 3.011822 1_445
Cd1 I11 3.012067 1_655
Cd1 I11 3.012068 1_545
Cd1 I11 3.012073 1_555
Cd1 I6 3.015326 1_655
Cd1 I6 3.015329 1_555
Cd1 I6 3.015329 1_665
Cd2 I7 3.014410 1_545
Cd2 I7 3.014414 1_445
Cd2 I7 3.014414 1_555
Cd2 I0 3.017166 1_455
Cd2 I0 3.017169 1_555
Cd2 I0 3.017170 1_445
Cd3 I5 3.013429 1_655
Cd3 I5 3.013430 1_545
Cd3 I5 3.013436 1_555
Cd3 I13 3.015538 1_655
Cd3 I13 3.015541 1_555
Cd3 I13 3.015541 1_665
Cd4 I3 3.013208 1_565
Cd4 I3 3.013211 1_665
Cd4 I3 3.013211 1_555
Cd4 I12 3.015176 1_455
Cd4 I12 3.015176 1_565
Cd4 I12 3.015182 1_555
Cd5 I4 3.012104 1_545
Cd5 I4 3.012107 1_445
Cd5 I4 3.012107 1_555
Cd5 I1 3.015295 1_455
Cd5 I1 3.015298 1_555
Cd5 I1 3.015299 1_445
Cd6 I2 3.013973 1_655
Cd6 I2 3.013974 1_545
Cd6 I2 3.013979 1_555
Cd6 I8 3.014995 1_655
Cd6 I8 3.014998 1_555
Cd6 I8 3.014998 1_665
