# generated using pymatgen
data_Yb4Mn2Sn5
_symmetry_space_group_name_H-M   'P 1'
_cell_length_a   8.67355109
_cell_length_b   8.67355109
_cell_length_c   7.69440776
_cell_angle_alpha   73.21039628
_cell_angle_beta   73.21039628
_cell_angle_gamma   30.90067150
_symmetry_Int_Tables_number   1
_chemical_formula_structural   Yb4Mn2Sn5
_chemical_formula_sum   'Yb4 Mn2 Sn5'
_cell_volume   283.60782877
_cell_formula_units_Z   1
loop_
 _symmetry_equiv_pos_site_id
 _symmetry_equiv_pos_as_xyz
  1  'x, y, z'
loop_
 _atom_site_type_symbol
 _atom_site_label
 _atom_site_symmetry_multiplicity
 _atom_site_fract_x
 _atom_site_fract_y
 _atom_site_fract_z
 _atom_site_occupancy
  Yb  Yb0  1  0.07949400  0.07949400  0.13679400  1
  Yb  Yb1  1  0.15026300  0.15026300  0.56242200  1
  Yb  Yb2  1  0.92050600  0.92050600  0.86320600  1
  Yb  Yb3  1  0.84973700  0.84973700  0.43757800  1
  Mn  Mn0  1  0.72399200  0.72399200  0.88863900  1
  Mn  Mn1  1  0.27600800  0.27600800  0.11136100  1
  Sn  Sn0  1  0.57075600  0.57075600  0.83864600  1
  Sn  Sn1  1  0.69593900  0.69593900  0.25589900  1
  Sn  Sn2  1  0.50000000  0.50000000  0.50000000  1
  Sn  Sn3  1  0.42924400  0.42924400  0.16135400  1
  Sn  Sn4  1  0.30406100  0.30406100  0.74410100  1
loop_
_geom_bond_atom_site_label_1
_geom_bond_atom_site_label_2
_geom_bond_distance
_geom_bond_site_symmetry_2
Mn0 Sn0 2.702452 1_555
Mn0 Sn1 2.722310 1_556
Mn0 Sn4 2.734208 1_655
Mn0 Sn4 2.734208 1_565
Mn0 Yb2 3.232504 1_555
Mn0 Yb0 3.472344 1_656
Mn0 Yb0 3.472344 1_566
Mn0 Yb3 3.477382 1_555
Mn1 Sn3 2.702452 1_555
Mn1 Sn4 2.722310 1_554
Mn1 Sn1 2.734208 1_455
Mn1 Sn1 2.734208 1_545
Mn1 Yb0 3.232504 1_555
Mn1 Yb2 3.472344 1_454
Mn1 Yb2 3.472344 1_544
Mn1 Yb1 3.477382 1_555
Sn0 Sn3 2.870987 1_556
Sn0 Yb1 3.151211 1_565
Sn0 Yb1 3.151211 1_655
Sn0 Sn2 3.168101 1_555
Sn0 Yb0 3.290008 1_566
Sn0 Yb0 3.290008 1_656
Sn0 Yb2 3.376613 1_545
Sn0 Yb2 3.376613 1_455
Sn1 Yb1 3.225737 1_565
Sn1 Yb1 3.225737 1_655
Sn1 Sn2 3.251560 1_555
Sn1 Yb3 3.274382 1_555
Sn1 Yb0 3.322534 1_655
Sn1 Yb0 3.322534 1_565
Sn2 Sn3 3.168101 1_555
Sn2 Sn4 3.251560 1_555
Sn2 Yb1 3.550411 1_565
Sn2 Yb1 3.550411 1_655
Sn2 Yb3 3.550411 1_455
Sn2 Yb3 3.550411 1_545
Sn2 Yb0 3.562232 1_655
Sn2 Yb2 3.562232 1_545
Sn2 Yb2 3.562232 1_455
Sn2 Yb0 3.562232 1_565
Sn3 Yb3 3.151211 1_545
Sn3 Yb3 3.151211 1_455
Sn3 Yb2 3.290008 1_544
Sn3 Yb2 3.290008 1_454
Sn3 Yb0 3.376613 1_655
Sn3 Yb0 3.376613 1_565
Sn4 Yb3 3.225737 1_455
Sn4 Yb3 3.225737 1_545
Sn4 Yb1 3.274382 1_555
Sn4 Yb2 3.322534 1_545
Sn4 Yb2 3.322534 1_455
