# generated using pymatgen
data_ZnS
_symmetry_space_group_name_H-M   'P 1'
_cell_length_a   3.80773449
_cell_length_b   3.80773400
_cell_length_c   43.59854157
_cell_angle_alpha   90.00000000
_cell_angle_beta   90.00000000
_cell_angle_gamma   120.00000435
_symmetry_Int_Tables_number   1
_chemical_formula_structural   ZnS
_chemical_formula_sum   'Zn14 S14'
_cell_volume   547.43912659
_cell_formula_units_Z   14
loop_
 _symmetry_equiv_pos_site_id
 _symmetry_equiv_pos_as_xyz
  1  'x, y, z'
loop_
 _atom_site_type_symbol
 _atom_site_label
 _atom_site_symmetry_multiplicity
 _atom_site_fract_x
 _atom_site_fract_y
 _atom_site_fract_z
 _atom_site_occupancy
  Zn  Zn0  1  0.66666700  0.33333300  0.14305987  1
  Zn  Zn1  1  0.00000000  -0.00000000  0.64287399  1
  Zn  Zn2  1  0.00000000  -0.00000000  0.21432741  1
  Zn  Zn3  1  0.33333300  0.66666700  0.07153850  1
  Zn  Zn4  1  0.66666700  0.33333300  0.85709671  1
  Zn  Zn5  1  0.66666700  0.33333300  0.57160866  1
  Zn  Zn6  1  0.00000000  -0.00000000  0.78575242  1
  Zn  Zn7  1  -0.00000000  -0.00000000  0.35716699  1
  Zn  Zn8  1  0.00000000  -0.00000000  0.00002295  1
  Zn  Zn9  1  0.66666700  0.33333300  0.42846799  1
  Zn  Zn10  1  0.33333300  0.66666700  0.92849752  1
  Zn  Zn11  1  0.33333300  0.66666700  0.28569301  1
  Zn  Zn12  1  0.33333300  0.66666700  0.49992624  1
  Zn  Zn13  1  0.33333300  0.66666700  0.71425390  1
  S  S0  1  0.66666700  0.33333300  0.19654329  1
  S  S1  1  0.33333300  0.66666700  0.33928971  1
  S  S2  1  0.66666700  0.33333300  0.91061707  1
  S  S3  1  0.00000000  -0.00000000  0.83924787  1
  S  S4  1  0.00000000  -0.00000000  0.41064208  1
  S  S5  1  0.33333300  0.66666700  0.55359839  1
  S  S6  1  0.00000000  -0.00000000  0.26778828  1
  S  S7  1  0.33333300  0.66666700  0.76785448  1
  S  S8  1  0.33333300  0.66666700  0.98202088  1
  S  S9  1  0.00000000  -0.00000000  0.69633817  1
  S  S10  1  0.00000000  -0.00000000  0.05364288  1
  S  S11  1  0.66666700  0.33333300  0.48195301  1
  S  S12  1  0.66666700  0.33333300  0.62507876  1
  S  S13  1  0.33333300  0.66666700  0.12509898  1
loop_
_geom_bond_atom_site_label_1
_geom_bond_atom_site_label_2
_geom_bond_distance
_geom_bond_site_symmetry_2
S0 Zn2 2.331121 1_655
S0 Zn2 2.331123 1_665
S0 Zn2 2.331124 1_555
S0 Zn0 2.331799 1_555
S1 Zn7 2.332475 1_565
S1 Zn7 2.332477 1_555
S1 Zn7 2.332478 1_665
S1 Zn11 2.336738 1_555
S2 Zn10 2.332521 1_545
S2 Zn10 2.332521 1_655
S2 Zn10 2.332527 1_555
S2 Zn4 2.333410 1_555
S3 Zn4 2.332061 1_455
S3 Zn4 2.332063 1_445
S3 Zn4 2.332064 1_555
S3 Zn6 2.332324 1_555
S4 Zn7 2.331436 1_555
S4 Zn9 2.331727 1_455
S4 Zn9 2.331730 1_445
S4 Zn9 2.331730 1_555
S5 Zn5 2.334418 1_565
S5 Zn5 2.334419 1_455
S5 Zn5 2.334425 1_555
S5 Zn12 2.340027 1_555
S6 Zn2 2.330816 1_555
S6 Zn11 2.332875 1_545
S6 Zn11 2.332878 1_555
S6 Zn11 2.332878 1_445
S7 Zn6 2.332776 1_565
S7 Zn6 2.332779 1_555
S7 Zn6 2.332779 1_665
S7 Zn13 2.336907 1_555
S8 Zn10 2.333540 1_555
S8 Zn8 2.334298 1_566
S8 Zn8 2.334301 1_556
S8 Zn8 2.334301 1_666
S9 Zn1 2.330960 1_555
S9 Zn13 2.333035 1_545
S9 Zn13 2.333038 1_555
S9 Zn13 2.333038 1_445
S10 Zn3 2.332742 1_545
S10 Zn3 2.332745 1_555
S10 Zn3 2.332745 1_445
S10 Zn8 2.337751 1_555
S11 Zn9 2.331869 1_555
S11 Zn12 2.333876 1_545
S11 Zn12 2.333876 1_655
S11 Zn12 2.333882 1_555
S12 Zn5 2.331218 1_555
S12 Zn1 2.331282 1_655
S12 Zn1 2.331285 1_665
S12 Zn1 2.331285 1_555
S13 Zn0 2.333695 1_565
S13 Zn0 2.333695 1_455
S13 Zn0 2.333701 1_555
S13 Zn3 2.335159 1_555
