# generated using pymatgen
data_K2MnH8(SO6)2
_symmetry_space_group_name_H-M   'P 1'
_cell_length_a   9.69709200
_cell_length_b   10.10172400
_cell_length_c   12.09148420
_cell_angle_alpha   84.48378764
_cell_angle_beta   90.00000000
_cell_angle_gamma   90.00000000
_symmetry_Int_Tables_number   1
_chemical_formula_structural   K2MnH8(SO6)2
_chemical_formula_sum   'K8 Mn4 H32 S8 O48'
_cell_volume   1178.96457213
_cell_formula_units_Z   4
loop_
 _symmetry_equiv_pos_site_id
 _symmetry_equiv_pos_as_xyz
  1  'x, y, z'
loop_
 _atom_site_type_symbol
 _atom_site_label
 _atom_site_symmetry_multiplicity
 _atom_site_fract_x
 _atom_site_fract_y
 _atom_site_fract_z
 _atom_site_occupancy
  K  K0  1  0.26810200  0.76000300  0.17016100  1
  K  K1  1  0.76810200  0.23999700  0.32983900  1
  K  K2  1  0.73189800  0.23999700  0.82983900  1
  K  K3  1  0.23189800  0.76000300  0.67016100  1
  K  K4  1  0.74142400  0.74106900  0.16898300  1
  K  K5  1  0.24142400  0.25893100  0.33101700  1
  K  K6  1  0.25857600  0.25893100  0.83101700  1
  K  K7  1  0.75857600  0.74106900  0.66898300  1
  Mn  Mn0  1  0.00000000  0.00000000  0.00000000  1
  Mn  Mn1  1  0.50000000  0.00000000  0.50000000  1
  Mn  Mn2  1  0.50000000  0.50000000  0.00000000  1
  Mn  Mn3  1  0.00000000  0.50000000  0.50000000  1
  H  H0  1  0.25791100  0.60869200  0.92161900  1
  H  H1  1  0.75791100  0.39130800  0.57838100  1
  H  H2  1  0.74208900  0.39130800  0.07838100  1
  H  H3  1  0.24208900  0.60869200  0.42161900  1
  H  H4  1  0.35890700  0.73158600  0.92155300  1
  H  H5  1  0.85890700  0.26841400  0.57844700  1
  H  H6  1  0.64109300  0.26841400  0.07844700  1
  H  H7  1  0.14109300  0.73158600  0.42155300  1
  H  H8  1  0.24878500  0.38297800  0.07901200  1
  H  H9  1  0.74878500  0.61702200  0.42098800  1
  H  H10  1  0.75121500  0.61702200  0.92098800  1
  H  H11  1  0.25121500  0.38297800  0.57901200  1
  H  H12  1  0.35900700  0.26605300  0.08847800  1
  H  H13  1  0.85900700  0.73394700  0.41152200  1
  H  H14  1  0.64099300  0.73394700  0.91152200  1
  H  H15  1  0.14099300  0.26605300  0.58847800  1
  H  H16  1  0.28579900  0.96917100  0.94239000  1
  H  H17  1  0.78579900  0.03082900  0.55761000  1
  H  H18  1  0.71420100  0.03082900  0.05761000  1
  H  H19  1  0.21420100  0.96917100  0.44239000  1
  H  H20  1  0.28535300  0.04773900  0.05345800  1
  H  H21  1  0.78535300  0.95226100  0.44654200  1
  H  H22  1  0.71464700  0.95226100  0.94654200  1
  H  H23  1  0.21464700  0.04773900  0.55345800  1
  H  H24  1  0.01642500  0.27151200  0.07321000  1
  H  H25  1  0.51642500  0.72848800  0.42679000  1
  H  H26  1  0.98357500  0.72848800  0.92679000  1
  H  H27  1  0.48357500  0.27151200  0.57321000  1
  H  H28  1  0.98447000  0.27977600  0.94518300  1
  H  H29  1  0.48447000  0.72022400  0.55481700  1
  H  H30  1  0.01553000  0.72022400  0.05481700  1
  H  H31  1  0.51553000  0.27977600  0.44518300  1
  S  S0  1  0.50501400  0.04733100  0.20354100  1
  S  S1  1  0.00501400  0.95266900  0.29645900  1
  S  S2  1  0.49498600  0.95266900  0.79645900  1
  S  S3  1  0.99498600  0.04733100  0.70354100  1
  S  S4  1  0.99264400  0.47733600  0.20743200  1
  S  S5  1  0.49264400  0.52266400  0.29256800  1
  S  S6  1  0.00735600  0.52266400  0.79256800  1
  S  S7  1  0.50735600  0.47733600  0.70743200  1
  O  O0  1  0.37321400  0.88373000  0.85434500  1
  O  O1  1  0.87321400  0.11627000  0.64565500  1
  O  O2  1  0.62678600  0.11627000  0.14565500  1
  O  O3  1  0.12678600  0.88373000  0.35434500  1
  O  O4  1  0.37415200  0.11283600  0.15853000  1
  O  O5  1  0.87415200  0.88716400  0.34147000  1
  O  O6  1  0.62584800  0.88716400  0.84147000  1
  O  O7  1  0.12584800  0.11283600  0.65853000  1
  O  O8  1  0.08843200  0.39325100  0.14611500  1
  O  O9  1  0.58843200  0.60674900  0.35388500  1
  O  O10  1  0.91156800  0.60674900  0.85388500  1
  O  O11  1  0.41156800  0.39325100  0.64611500  1
  O  O12  1  0.84713800  0.45190000  0.17648000  1
  O  O13  1  0.34713800  0.54810000  0.32352000  1
  O  O14  1  0.15286200  0.54810000  0.82352000  1
  O  O15  1  0.65286200  0.45190000  0.67648000  1
  O  O16  1  0.01522100  0.93281200  0.17630800  1
  O  O17  1  0.51522100  0.06718800  0.32369200  1
  O  O18  1  0.98477900  0.06718800  0.82369200  1
  O  O19  1  0.48477900  0.93281200  0.67630800  1
  O  O20  1  0.50504800  0.90551700  0.18490100  1
  O  O21  1  0.00504800  0.09448300  0.31509900  1
  O  O22  1  0.49495200  0.09448300  0.81509900  1
  O  O23  1  0.99495200  0.90551700  0.68490100  1
  O  O24  1  0.51089700  0.56349700  0.17073100  1
  O  O25  1  0.01089700  0.43650300  0.32926900  1
  O  O26  1  0.48910300  0.43650300  0.82926900  1
  O  O27  1  0.98910300  0.56349700  0.67073100  1
  O  O28  1  0.02495800  0.62080300  0.18222800  1
  O  O29  1  0.52495800  0.37919700  0.31777200  1
  O  O30  1  0.97504200  0.37919700  0.81777200  1
  O  O31  1  0.47504200  0.62080300  0.68222800  1
  O  O32  1  0.33396200  0.64554000  0.96497400  1
  O  O33  1  0.83396200  0.35446000  0.53502600  1
  O  O34  1  0.66603800  0.35446000  0.03502600  1
  O  O35  1  0.16603800  0.64554000  0.46497400  1
  O  O36  1  0.33442500  0.35176100  0.04464400  1
  O  O37  1  0.83442500  0.64823900  0.45535600  1
  O  O38  1  0.66557500  0.64823900  0.95535600  1
  O  O39  1  0.16557500  0.35176100  0.54464400  1
  O  O40  1  0.22685900  0.01826700  0.99270500  1
  O  O41  1  0.72685900  0.98173300  0.50729500  1
  O  O42  1  0.77314100  0.98173300  0.00729500  1
  O  O43  1  0.27314100  0.01826700  0.49270500  1
  O  O44  1  0.98524800  0.21701800  0.01360300  1
  O  O45  1  0.48524800  0.78298200  0.48639700  1
  O  O46  1  0.01475200  0.78298200  0.98639700  1
  O  O47  1  0.51475200  0.21701800  0.51360300  1
loop_
_geom_bond_atom_site_label_1
_geom_bond_atom_site_label_2
_geom_bond_distance
_geom_bond_site_symmetry_2
K0 O28 2.741952 1_555
K0 O20 2.742668 1_555
K0 O13 2.800883 1_555
K0 O32 2.907199 1_554
K0 O3 2.989137 1_555
K0 O16 3.015156 1_555
K0 O24 3.079134 1_555
K1 O29 2.741952 1_555
K1 O21 2.742668 1_655
K1 O12 2.800883 1_555
K1 O33 2.907199 1_555
K1 O2 2.989137 1_555
K1 O17 3.015156 1_555
K1 O25 3.079134 1_655
K2 O30 2.741952 1_555
K2 O22 2.742668 1_555
K2 O15 2.800883 1_555
K2 O34 2.907199 1_556
K2 O1 2.989137 1_555
K2 O18 3.015156 1_555
K2 O26 3.079134 1_555
K3 O31 2.741952 1_555
K3 O23 2.742668 1_455
K3 O14 2.800883 1_555
K3 O35 2.907199 1_555
K3 O0 2.989137 1_555
K3 O19 3.015156 1_555
K3 O27 3.079134 1_455
K4 O20 2.848179 1_555
K4 O24 2.864963 1_555
K4 O9 2.908159 1_555
K4 O38 2.925452 1_554
K4 O5 2.962460 1_555
K4 O42 2.985528 1_555
K4 O28 3.003950 1_655
K4 O12 3.088856 1_555
K4 O16 3.292682 1_655
K5 O21 2.848179 1_555
K5 O25 2.864963 1_555
K5 O8 2.908159 1_555
K5 O39 2.925452 1_555
K5 O4 2.962460 1_555
K5 O43 2.985528 1_555
K5 O29 3.003950 1_555
K5 O13 3.088856 1_555
K5 O17 3.292682 1_555
K6 O22 2.848179 1_555
K6 O26 2.864963 1_555
K6 O11 2.908159 1_555
K6 O36 2.925452 1_556
K6 O7 2.962460 1_555
K6 O40 2.985528 1_555
K6 O30 3.003950 1_455
K6 O14 3.088856 1_555
K6 O18 3.292682 1_455
K7 O23 2.848179 1_555
K7 O27 2.864963 1_555
K7 O10 2.908159 1_555
K7 O37 2.925452 1_555
K7 O6 2.962460 1_555
K7 O41 2.985528 1_555
K7 O31 3.003950 1_555
K7 O15 3.088856 1_555
K7 O19 3.292682 1_555
Mn0 O16 2.179207 1_545
Mn0 O18 2.179207 1_454
Mn0 O40 2.208651 1_554
Mn0 O42 2.208651 1_445
Mn0 O44 2.218745 1_455
Mn0 O46 2.218745 1_544
Mn1 O17 2.179207 1_555
Mn1 O19 2.179207 1_545
Mn1 O41 2.208651 1_545
Mn1 O43 2.208651 1_555
Mn1 O47 2.218745 1_555
Mn1 O45 2.218745 1_545
Mn2 O34 2.193977 1_555
Mn2 O32 2.193977 1_554
Mn2 O24 2.222360 1_555
Mn2 O26 2.222360 1_554
Mn2 O38 2.226284 1_554
Mn2 O36 2.226284 1_555
Mn3 O33 2.193977 1_455
Mn3 O35 2.193977 1_555
Mn3 O27 2.222360 1_455
Mn3 O25 2.222360 1_555
Mn3 O39 2.226284 1_555
Mn3 O37 2.226284 1_455
H0 O32 0.997371 1_555
H1 O33 0.997371 1_555
H2 O34 0.997371 1_555
H3 O35 0.997371 1_555
H4 O32 1.000978 1_555
H4 O0 1.673808 1_555
H5 O33 1.000978 1_555
H5 O1 1.673808 1_555
H6 O34 1.000978 1_555
H6 O2 1.673808 1_555
H7 O35 1.000978 1_555
H7 O3 1.673808 1_555
H8 O36 0.993473 1_555
H9 O37 0.993473 1_555
H10 O38 0.993473 1_555
H11 O39 0.993473 1_555
H12 O36 0.999562 1_555
H12 O4 1.697803 1_555
H13 O37 0.999562 1_555
H13 O5 1.697803 1_555
H14 O38 0.999562 1_555
H14 O6 1.697803 1_555
H15 O39 0.999562 1_555
H15 O7 1.697803 1_555
H16 O40 1.000387 1_565
H16 O0 1.665385 1_555
H17 O41 1.000387 1_545
H17 O1 1.665385 1_555
H18 O42 1.000387 1_545
H18 O2 1.665385 1_555
H19 O43 1.000387 1_565
H19 O3 1.665385 1_555
H20 O40 0.996018 1_554
H20 O4 1.717160 1_555
H21 O41 0.996018 1_555
H21 O5 1.717160 1_555
H22 O42 0.996018 1_556
H22 O6 1.717160 1_555
H23 O43 0.996018 1_555
H23 O7 1.717160 1_555
H24 O44 0.995074 1_455
H25 O45 0.995074 1_555
H26 O46 0.995074 1_655
H27 O47 0.995074 1_555
H28 O44 0.992753 1_556
H28 K2 2.865833 1_555
H28 K6 3.011803 1_655
H29 O45 0.992753 1_555
H29 K3 2.865833 1_555
H29 K7 3.011803 1_555
H30 O46 0.992753 1_554
H30 K0 2.865833 1_555
H30 K4 3.011803 1_455
H31 O47 0.992753 1_555
H31 K1 2.865833 1_555
H31 K5 3.011803 1_555
O0 S2 1.508487 1_555
O1 S3 1.508487 1_555
O2 S0 1.508487 1_555
O3 S1 1.508487 1_555
O4 S0 1.508359 1_555
O5 S1 1.508359 1_655
O6 S2 1.508359 1_555
O7 S3 1.508359 1_455
O8 S4 1.501681 1_455
O9 S5 1.501681 1_555
O10 S6 1.501681 1_655
O11 S7 1.501681 1_555
O12 S4 1.488441 1_555
O13 S5 1.488441 1_555
O14 S6 1.488441 1_555
O15 S7 1.488441 1_555
O16 S1 1.488858 1_555
O17 S0 1.488858 1_555
O18 S3 1.488858 1_555
O19 S2 1.488858 1_555
O20 S0 1.471434 1_565
O21 S1 1.471434 1_545
O22 S2 1.471434 1_545
O23 S3 1.471434 1_565
O24 S5 1.501644 1_555
O25 S4 1.501644 1_455
O26 S7 1.501644 1_555
O27 S6 1.501644 1_655
O28 S4 1.485435 1_455
O29 S5 1.485435 1_555
O30 S6 1.485435 1_655
O31 S7 1.485435 1_555
