# generated using pymatgen
data_Ce3(SiNi3)2
_symmetry_space_group_name_H-M   'P 1'
_cell_length_a   7.58849740
_cell_length_b   7.58848300
_cell_length_c   7.58851441
_cell_angle_alpha   109.47006771
_cell_angle_beta   109.46939343
_cell_angle_gamma   109.46975873
_symmetry_Int_Tables_number   1
_chemical_formula_structural   Ce3(SiNi3)2
_chemical_formula_sum   'Ce6 Si4 Ni12'
_cell_volume   336.41041551
_cell_formula_units_Z   2
loop_
 _symmetry_equiv_pos_site_id
 _symmetry_equiv_pos_as_xyz
  1  'x, y, z'
loop_
 _atom_site_type_symbol
 _atom_site_label
 _atom_site_symmetry_multiplicity
 _atom_site_fract_x
 _atom_site_fract_y
 _atom_site_fract_z
 _atom_site_occupancy
  Ce  Ce0  1  0.71883657  0.71887523  -0.00000189  1
  Ce  Ce1  1  0.28108411  0.28111450  -0.00001390  1
  Ce  Ce2  1  0.00000588  0.28111959  0.28110375  1
  Ce  Ce3  1  0.00001764  0.71891023  0.71888722  1
  Ce  Ce4  1  0.28103604  -0.00004988  0.28106698  1
  Ce  Ce5  1  0.71886137  -0.00004578  0.71889200  1
  Si  Si0  1  -0.00004853  0.49997814  -0.00001922  1
  Si  Si1  1  0.50003852  0.00003856  0.00003130  1
  Si  Si2  1  0.50000601  0.49997992  0.50003974  1
  Si  Si3  1  -0.00005496  -0.00001917  0.49995833  1
  Ni  Ni0  1  0.33703974  0.66298209  -0.00006013  1
  Ni  Ni1  1  -0.00007551  0.66293247  0.33700252  1
  Ni  Ni2  1  0.33706175  0.00003759  0.66303891  1
  Ni  Ni3  1  0.66303071  0.00002143  0.33708064  1
  Ni  Ni4  1  0.66302413  0.32592110  0.66301073  1
  Ni  Ni5  1  0.66299265  0.33703169  -0.00004569  1
  Ni  Ni6  1  0.32596812  0.66300018  0.66299963  1
  Ni  Ni7  1  0.33701997  0.33705109  0.67406218  1
  Ni  Ni8  1  -0.00004663  0.33696563  0.66294703  1
  Ni  Ni9  1  0.67408324  0.33702835  0.33699597  1
  Ni  Ni10  1  0.33706504  0.67405404  0.33703502  1
  Ni  Ni11  1  0.66305412  0.66307200  0.32598986  1
loop_
_geom_bond_atom_site_label_1
_geom_bond_atom_site_label_2
_geom_bond_distance
_geom_bond_site_symmetry_2
Ce0 Ni0 2.784579 1_555
Ce0 Ni11 2.784788 1_555
Ce0 Ni5 2.785041 1_555
Ce0 Ni7 2.785131 1_554
Ce0 Ni6 2.993314 1_554
Ce0 Ni3 2.993418 1_565
Ce0 Ni1 2.993530 1_655
Ce0 Ni4 2.993903 1_554
Ce0 Si1 3.109735 1_565
Ce0 Si2 3.109837 1_554
Ce0 Si3 3.109898 1_665
Ce0 Si0 3.110011 1_655
Ce1 Ni7 2.785144 1_554
Ce1 Ni0 2.785328 1_555
Ce1 Ni5 2.785654 1_555
Ce1 Ni11 2.786097 1_555
Ce1 Ni2 2.993352 1_554
Ce1 Ni8 2.993397 1_554
Ce1 Ni10 2.993444 1_555
Ce1 Ni9 2.993874 1_555
Ce1 Si0 3.109925 1_555
Ce1 Si1 3.110097 1_555
Ce1 Si3 3.110311 1_554
Ce1 Si2 3.110438 1_555
Ce2 Ni9 2.784912 1_455
Ce2 Ni1 2.785105 1_555
Ce2 Ni8 2.785336 1_555
Ce2 Ni6 2.785579 1_555
Ce2 Ni3 2.993574 1_455
Ce2 Ni7 2.993622 1_555
Ce2 Ni5 2.993640 1_455
Ce2 Ni10 2.993642 1_555
Ce2 Si0 3.109824 1_555
Ce2 Si3 3.109899 1_555
Ce2 Si1 3.109915 1_455
Ce2 Si2 3.110082 1_555
Ce3 Ni1 2.785013 1_555
Ce3 Ni6 2.785111 1_555
Ce3 Ni9 2.785528 1_455
Ce3 Ni8 2.785593 1_555
Ce3 Ni2 2.993378 1_565
Ce3 Ni0 2.993416 1_556
Ce3 Ni11 2.993468 1_455
Ce3 Ni4 2.993878 1_455
Ce3 Si3 3.109934 1_565
Ce3 Si0 3.110103 1_556
Ce3 Si2 3.110165 1_455
Ce3 Si1 3.110271 1_566
Ce4 Ni10 2.785304 1_545
Ce4 Ni2 2.785619 1_555
Ce4 Ni3 2.785850 1_555
Ce4 Ni4 2.786067 1_555
Ce4 Ni1 2.993627 1_545
Ce4 Ni0 2.993767 1_545
Ce4 Ni7 2.993905 1_555
Ce4 Ni9 2.994289 1_555
Ce4 Si3 3.109825 1_555
Ce4 Si0 3.109931 1_545
Ce4 Si1 3.110129 1_555
Ce4 Si2 3.110202 1_555
Ce5 Ni4 2.784996 1_555
Ce5 Ni2 2.785089 1_555
Ce5 Ni10 2.785122 1_545
Ce5 Ni3 2.785168 1_555
Ce5 Ni6 2.993198 1_545
Ce5 Ni11 2.993284 1_545
Ce5 Ni5 2.993405 1_556
Ce5 Ni8 2.993572 1_655
Ce5 Si1 3.109702 1_556
Ce5 Si2 3.109928 1_545
Ce5 Si3 3.110000 1_655
Ce5 Si0 3.110235 1_656
Ni0 Si1 2.441574 1_565
Ni0 Si0 2.442316 1_555
Ni0 Ni6 2.530161 1_554
Ni0 Ni8 2.531156 1_554
Ni0 Ni10 2.531220 1_555
Ni0 Ni3 2.531363 1_565
Ni0 Ni7 2.855672 1_554
Ni0 Ni11 2.856512 1_555
Ni1 Si3 2.441741 1_565
Ni1 Si0 2.441757 1_555
Ni1 Ni11 2.530082 1_455
Ni1 Ni5 2.530628 1_455
Ni1 Ni10 2.531425 1_555
Ni1 Ni2 2.531632 1_565
Ni1 Ni9 2.855461 1_455
Ni1 Ni6 2.856506 1_555
Ni2 Si1 2.441493 1_556
Ni2 Si3 2.442222 1_555
Ni2 Ni5 2.530510 1_556
Ni2 Ni6 2.530685 1_545
Ni2 Ni7 2.530879 1_555
Ni2 Ni4 2.856053 1_555
Ni3 Si3 2.441013 1_655
Ni3 Si1 2.441962 1_555
Ni3 Ni8 2.530248 1_655
Ni3 Ni9 2.530875 1_555
Ni3 Ni4 2.855880 1_555
Ni4 Si0 2.441203 1_656
Ni4 Si2 2.441870 1_555
Ni4 Ni5 2.530131 1_556
Ni4 Ni8 2.530254 1_655
Ni4 Ni7 2.531229 1_555
Ni4 Ni9 2.531276 1_555
Ni5 Si0 2.441120 1_655
Ni5 Si1 2.441760 1_555
Ni5 Ni9 2.530847 1_555
Ni5 Ni7 2.856116 1_554
Ni6 Si2 2.441682 1_555
Ni6 Si1 2.441849 1_566
Ni6 Ni7 2.530631 1_555
Ni6 Ni8 2.856591 1_555
Ni7 Si2 2.441330 1_555
Ni7 Si3 2.442107 1_555
Ni7 Ni8 2.530740 1_555
Ni8 Si3 2.441405 1_555
Ni8 Si0 2.441808 1_556
Ni8 Ni9 2.856115 1_455
Ni9 Si1 2.441425 1_555
Ni9 Si2 2.442004 1_555
Ni10 Si2 2.441801 1_555
Ni10 Si0 2.442244 1_555
Ni10 Ni11 2.530708 1_555
Ni10 Ni6 2.530854 1_555
Ni10 Ni3 2.856112 1_565
Ni10 Ni2 2.856557 1_565
Ni11 Si3 2.440911 1_665
Ni11 Si2 2.442399 1_555
Ni11 Ni3 2.530189 1_565
Ni11 Ni9 2.531139 1_555
Ni11 Ni5 2.856660 1_555
