# generated using pymatgen
data_Na2Ti3Cl8
_symmetry_space_group_name_H-M   'P 1'
_cell_length_a   7.86815409
_cell_length_b   7.86815332
_cell_length_c   7.86815241
_cell_angle_alpha   52.00156963
_cell_angle_beta   52.00157573
_cell_angle_gamma   52.00156925
_symmetry_Int_Tables_number   1
_chemical_formula_structural   Na2Ti3Cl8
_chemical_formula_sum   'Na2 Ti3 Cl8'
_cell_volume   279.66221009
_cell_formula_units_Z   1
loop_
 _symmetry_equiv_pos_site_id
 _symmetry_equiv_pos_as_xyz
  1  'x, y, z'
loop_
 _atom_site_type_symbol
 _atom_site_label
 _atom_site_symmetry_multiplicity
 _atom_site_fract_x
 _atom_site_fract_y
 _atom_site_fract_z
 _atom_site_occupancy
  Na  Na0  1  0.82723838  0.82723838  0.82723838  1
  Na  Na1  1  0.15840878  0.15840878  0.15840878  1
  Ti  Ti0  1  0.06289513  0.47006482  0.47006482  1
  Ti  Ti1  1  0.47006482  0.47006482  0.06289513  1
  Ti  Ti2  1  0.47006482  0.06289513  0.47006482  1
  Cl  Cl0  1  0.90056816  0.90056816  0.40264323  1
  Cl  Cl1  1  0.90056816  0.40264323  0.90056816  1
  Cl  Cl2  1  0.58662524  0.09155661  0.09155661  1
  Cl  Cl3  1  0.40264323  0.90056816  0.90056816  1
  Cl  Cl4  1  0.42111482  0.42111482  0.42111482  1
  Cl  Cl5  1  0.09155661  0.58662524  0.09155661  1
  Cl  Cl6  1  0.60613024  0.60613024  0.60613024  1
  Cl  Cl7  1  0.09155661  0.09155661  0.58662524  1
loop_
_geom_bond_atom_site_label_1
_geom_bond_atom_site_label_2
_geom_bond_distance
_geom_bond_site_symmetry_2
Cl0 Ti0 2.584800 1_655
Cl0 Ti2 2.584800 1_565
Cl0 Na1 2.718736 1_665
Cl0 Na0 2.736755 1_555
Cl1 Ti0 2.584800 1_655
Cl1 Ti1 2.584800 1_556
Cl1 Na1 2.718735 1_656
Cl1 Na0 2.736755 1_555
Cl2 Ti2 2.413730 1_555
Cl2 Ti1 2.413730 1_555
Cl2 Na0 2.804313 1_544
Cl2 Na1 2.807448 1_555
Cl3 Ti2 2.584800 1_565
Cl3 Ti1 2.584800 1_556
Cl3 Na1 2.718735 1_566
Cl3 Na0 2.736755 1_555
Cl4 Ti1 2.397957 1_555
Cl4 Ti2 2.397957 1_555
Cl4 Ti0 2.397957 1_555
Cl5 Ti0 2.413730 1_555
Cl5 Ti1 2.413730 1_555
Cl5 Na0 2.804313 1_454
Cl5 Na1 2.807447 1_555
Cl6 Ti1 2.672968 1_556
Cl6 Ti2 2.672968 1_565
Cl6 Ti0 2.672968 1_655
Cl7 Ti0 2.413730 1_555
Cl7 Ti2 2.413730 1_555
Cl7 Na0 2.804313 1_445
Cl7 Na1 2.807447 1_555
