# generated using pymatgen
data_Eu2(MoO4)3
_symmetry_space_group_name_H-M   'P 1'
_cell_length_a   6.82386190
_cell_length_b   6.82386190
_cell_length_c   11.66678392
_cell_angle_alpha   79.69946803
_cell_angle_beta   79.69946803
_cell_angle_gamma   112.99011071
_symmetry_Int_Tables_number   1
_chemical_formula_structural   Eu2(MoO4)3
_chemical_formula_sum   'Eu4 Mo6 O24'
_cell_volume   473.14919821
_cell_formula_units_Z   2
loop_
 _symmetry_equiv_pos_site_id
 _symmetry_equiv_pos_as_xyz
  1  'x, y, z'
loop_
 _atom_site_type_symbol
 _atom_site_label
 _atom_site_symmetry_multiplicity
 _atom_site_fract_x
 _atom_site_fract_y
 _atom_site_fract_z
 _atom_site_occupancy
  Eu  Eu0  1  0.45187035  0.19954212  0.09009684  1
  Eu  Eu1  1  0.80045788  0.54812965  0.40990316  1
  Eu  Eu2  1  0.54812965  0.80045788  0.90990316  1
  Eu  Eu3  1  0.19954212  0.45187035  0.59009684  1
  Mo  Mo0  1  0.62111188  0.37888812  0.75000000  1
  Mo  Mo1  1  0.37888812  0.62111188  0.25000000  1
  Mo  Mo2  1  0.97016933  0.70037008  0.06752508  1
  Mo  Mo3  1  0.29962992  0.02983067  0.43247492  1
  Mo  Mo4  1  0.02983067  0.29962992  0.93247492  1
  Mo  Mo5  1  0.70037008  0.97016933  0.56752508  1
  O  O0  1  0.55414094  0.47285221  0.61389060  1
  O  O1  1  0.52714779  0.44585906  0.88610940  1
  O  O2  1  0.44585906  0.52714779  0.38610940  1
  O  O3  1  0.47285221  0.55414094  0.11389060  1
  O  O4  1  0.88541179  0.82130020  0.95336076  1
  O  O5  1  0.17869980  0.11458821  0.54663924  1
  O  O6  1  0.11458821  0.17869980  0.04663924  1
  O  O7  1  0.82130020  0.88541179  0.45336076  1
  O  O8  1  0.26626912  0.15048399  0.29556659  1
  O  O9  1  0.84951601  0.73373088  0.20443341  1
  O  O10  1  0.73373088  0.84951601  0.70443341  1
  O  O11  1  0.15048399  0.26626912  0.79556659  1
  O  O12  1  0.16904507  0.59351265  0.90701236  1
  O  O13  1  0.40648735  0.83095493  0.59298764  1
  O  O14  1  0.83095493  0.40648735  0.09298764  1
  O  O15  1  0.59351265  0.16904507  0.40701236  1
  O  O16  1  0.48760607  0.90817351  0.22052457  1
  O  O17  1  0.09182649  0.51239393  0.27947543  1
  O  O18  1  0.51239393  0.09182649  0.77947543  1
  O  O19  1  0.90817351  0.48760607  0.72052457  1
  O  O20  1  0.85087272  0.26963434  0.54614285  1
  O  O21  1  0.73036566  0.14912728  0.95385715  1
  O  O22  1  0.14912728  0.73036566  0.45385715  1
  O  O23  1  0.26963434  0.85087272  0.04614285  1
loop_
_geom_bond_atom_site_label_1
_geom_bond_atom_site_label_2
_geom_bond_distance
_geom_bond_site_symmetry_2
Eu0 O16 2.399497 1_545
Eu0 O8 2.399712 1_555
Eu0 O6 2.400396 1_555
Eu0 O23 2.413193 1_545
Eu0 O14 2.425219 1_555
Eu0 O21 2.425359 1_554
Eu0 O3 2.436488 1_555
Eu0 O1 2.492125 1_554
Eu1 O17 2.399497 1_655
Eu1 O9 2.399712 1_555
Eu1 O7 2.400396 1_555
Eu1 O22 2.413193 1_655
Eu1 O15 2.425219 1_555
Eu1 O20 2.425359 1_555
Eu1 O2 2.436488 1_555
Eu1 O0 2.492125 1_555
Eu2 O18 2.399497 1_565
Eu2 O10 2.399712 1_555
Eu2 O4 2.400396 1_555
Eu2 O21 2.413193 1_565
Eu2 O12 2.425219 1_555
Eu2 O23 2.425359 1_556
Eu2 O1 2.436488 1_555
Eu2 O3 2.492125 1_556
Eu3 O19 2.399497 1_455
Eu3 O11 2.399712 1_555
Eu3 O5 2.400396 1_555
Eu3 O20 2.413193 1_455
Eu3 O13 2.425219 1_555
Eu3 O22 2.425359 1_555
Eu3 O0 2.436488 1_555
Eu3 O2 2.492125 1_555
Mo0 O19 1.743122 1_555
Mo0 O18 1.743122 1_555
Mo0 O1 1.807178 1_555
Mo0 O0 1.807178 1_555
Mo1 O16 1.743122 1_555
Mo1 O17 1.743122 1_555
Mo1 O3 1.807178 1_555
Mo1 O2 1.807178 1_555
Mo2 O4 1.744929 1_554
Mo2 O9 1.757024 1_555
Mo2 O14 1.791721 1_555
Mo2 O23 1.838364 1_655
Mo2 O12 2.496554 1_654
Mo3 O5 1.744929 1_555
Mo3 O8 1.757024 1_555
Mo3 O15 1.791721 1_555
Mo3 O22 1.838364 1_545
Mo3 O13 2.496554 1_545
Mo4 O6 1.744929 1_556
Mo4 O11 1.757024 1_555
Mo4 O12 1.791721 1_555
Mo4 O21 1.838364 1_455
Mo4 O14 2.496554 1_456
Mo5 O7 1.744929 1_555
Mo5 O10 1.757024 1_555
Mo5 O13 1.791721 1_555
Mo5 O20 1.838364 1_565
Mo5 O15 2.496554 1_565
