# generated using pymatgen
data_BaP4(W2O7)8
_symmetry_space_group_name_H-M   'P 1'
_cell_length_a   7.70569800
_cell_length_b   9.50265942
_cell_length_c   17.06504335
_cell_angle_alpha   87.80195037
_cell_angle_beta   103.04586283
_cell_angle_gamma   113.89273578
_symmetry_Int_Tables_number   1
_chemical_formula_structural   BaP4(W2O7)8
_chemical_formula_sum   'Ba1 P4 W16 O56'
_cell_volume   1111.03306388
_cell_formula_units_Z   1
loop_
 _symmetry_equiv_pos_site_id
 _symmetry_equiv_pos_as_xyz
  1  'x, y, z'
loop_
 _atom_site_type_symbol
 _atom_site_label
 _atom_site_symmetry_multiplicity
 _atom_site_fract_x
 _atom_site_fract_y
 _atom_site_fract_z
 _atom_site_occupancy
  Ba  Ba0  1  0.50000000  0.50000000  0.50000000  1
  P  P0  1  0.30708500  0.77715100  0.43542800  1
  P  P1  1  0.69291500  0.22284900  0.56457200  1
  P  P2  1  0.09356900  0.22512100  0.56396100  1
  P  P3  1  0.90643100  0.77487900  0.43603900  1
  W  W0  1  0.43051700  0.30908500  0.05252900  1
  W  W1  1  0.35043500  0.46033400  0.74167400  1
  W  W2  1  0.64956500  0.53966600  0.25832600  1
  W  W3  1  0.06797600  0.68977900  0.94671800  1
  W  W4  1  0.00119800  0.14644700  0.35872300  1
  W  W5  1  0.78589300  0.92043000  0.15095300  1
  W  W6  1  0.93202400  0.31022100  0.05328200  1
  W  W7  1  0.21410700  0.07957000  0.84904700  1
  W  W8  1  0.71648500  0.08240000  0.84884200  1
  W  W9  1  0.85413300  0.46487500  0.73995100  1
  W  W10  1  0.56948300  0.69091500  0.94747100  1
  W  W11  1  0.14586700  0.53512500  0.26004900  1
  W  W12  1  0.49358100  0.84884200  0.64244700  1
  W  W13  1  0.99880200  0.85355300  0.64127700  1
  W  W14  1  0.50641900  0.15115800  0.35755300  1
  W  W15  1  0.28351500  0.91760000  0.15115800  1
  O  O0  1  0.72914700  0.83266100  0.63773800  1
  O  O1  1  0.58986400  0.24834700  0.48015000  1
  O  O2  1  0.11290000  0.95687800  0.73935600  1
  O  O3  1  0.86499600  0.75048100  0.52110400  1
  O  O4  1  0.00000000  0.50000000  0.00000000  1
  O  O5  1  0.60442300  0.05856700  0.58766100  1
  O  O6  1  0.02910800  0.42526800  0.16329900  1
  O  O7  1  0.58371900  0.95572400  0.73934100  1
  O  O8  1  0.04085800  0.91866000  0.16559800  1
  O  O9  1  0.13500400  0.24951900  0.47889600  1
  O  O10  1  0.95914200  0.08134000  0.83440200  1
  O  O11  1  0.41628100  0.04427600  0.26065900  1
  O  O12  1  0.69925100  0.34588000  0.62161400  1
  O  O13  1  0.55981200  0.42545800  0.16259700  1
  O  O14  1  0.30074900  0.65412000  0.37838600  1
  O  O15  1  0.91412500  0.26913700  0.56105000  1
  O  O16  1  0.60463000  0.35111800  0.32235100  1
  O  O17  1  0.46372400  0.08113400  0.84827500  1
  O  O18  1  0.64787900  0.88941300  0.89514100  1
  O  O19  1  0.53627600  0.91886600  0.15172500  1
  O  O20  1  0.80625000  0.68356000  0.93975700  1
  O  O21  1  0.73247100  0.65093300  0.37935000  1
  O  O22  1  0.76649200  0.26837800  0.78474000  1
  O  O23  1  0.60274400  0.47529800  0.73467400  1
  O  O24  1  0.83344900  0.19564200  0.94578500  1
  O  O25  1  0.19375000  0.31644000  0.06024300  1
  O  O26  1  0.86415300  0.11265500  0.10405000  1
  O  O27  1  0.71299300  0.73242100  0.21468600  1
  O  O28  1  0.41013600  0.75165300  0.51985000  1
  O  O29  1  0.07509100  0.35664800  0.32328700  1
  O  O30  1  0.26752900  0.34906700  0.62065000  1
  O  O31  1  0.35212100  0.11058700  0.10485900  1
  O  O32  1  0.39537000  0.64888200  0.67764900  1
  O  O33  1  0.44018800  0.57454200  0.83740300  1
  O  O34  1  0.39557700  0.94143300  0.41233900  1
  O  O35  1  0.16655100  0.80435800  0.05421500  1
  O  O36  1  0.27085300  0.16733900  0.36226200  1
  O  O37  1  0.75320000  0.14020400  0.38193700  1
  O  O38  1  0.69157400  0.80457800  0.05313000  1
  O  O39  1  0.24680000  0.85979600  0.61806300  1
  O  O40  1  0.92490900  0.64335200  0.67671300  1
  O  O41  1  0.30842600  0.19542200  0.94687000  1
  O  O42  1  0.28700700  0.26757900  0.78531400  1
  O  O43  1  0.97089200  0.57473200  0.83670100  1
  O  O44  1  0.67053500  0.30067900  0.05083600  1
  O  O45  1  0.88710000  0.04312200  0.26064400  1
  O  O46  1  0.91654700  0.56248700  0.27391200  1
  O  O47  1  0.23350800  0.73162200  0.21526000  1
  O  O48  1  0.04480800  0.06139500  0.58662200  1
  O  O49  1  0.13584700  0.88734500  0.89595000  1
  O  O50  1  0.39725600  0.52470200  0.26532600  1
  O  O51  1  0.08587500  0.73086300  0.43895000  1
  O  O52  1  0.08345300  0.43751300  0.72608800  1
  O  O53  1  0.95519200  0.93860500  0.41337800  1
  O  O54  1  0.50000000  0.50000000  0.00000000  1
  O  O55  1  0.32946500  0.69932100  0.94916400  1
loop_
_geom_bond_atom_site_label_1
_geom_bond_atom_site_label_2
_geom_bond_distance
_geom_bond_site_symmetry_2
Ba0 O28 2.796846 1_555
Ba0 O1 2.796846 1_555
Ba0 O3 2.809129 1_555
Ba0 O9 2.809129 1_555
Ba0 O21 2.976985 1_555
Ba0 O30 2.976985 1_555
Ba0 O12 2.993181 1_555
Ba0 O14 2.993181 1_555
O0 W12 1.902090 1_555
O0 W13 1.992674 1_555
O1 P1 1.541880 1_555
O1 W14 2.168692 1_555
O2 W13 1.816819 1_455
O2 W7 2.059921 1_565
O3 P3 1.544802 1_555
O3 W13 2.146965 1_555
O4 W3 1.917663 1_554
O4 W6 1.917663 1_455
O5 P1 1.506357 1_555
O5 W12 2.100985 1_545
O6 W11 1.823724 1_555
O6 W6 2.034822 1_455
O7 W12 1.812993 1_555
O7 W8 2.073494 1_565
O8 W5 1.930673 1_455
O8 W15 1.944376 1_555
O9 P2 1.544802 1_555
O9 W4 2.146965 1_555
O10 W7 1.930673 1_655
O10 W8 1.944376 1_555
O11 W14 1.812993 1_555
O11 W15 2.073494 1_545
O12 P1 1.528524 1_555
O12 W9 2.185173 1_555
O13 W2 1.828326 1_555
O13 W0 2.040979 1_555
O14 P0 1.528524 1_555
O14 W11 2.185173 1_555
O15 P2 1.589115 1_655
O15 P1 1.593594 1_555
O16 W14 1.870025 1_555
O16 W2 2.010459 1_555
O17 W7 1.920524 1_555
O17 W8 1.940694 1_555
O18 W8 1.886521 1_565
O18 W10 1.977796 1_555
O19 W5 1.920524 1_555
O19 W15 1.940694 1_555
O20 W10 1.887665 1_555
O20 W3 1.969986 1_655
O21 P3 1.530693 1_555
O21 W2 2.194570 1_555
O22 W9 1.904979 1_555
O22 W8 1.989665 1_555
O23 W1 1.921996 1_555
O23 W9 1.961215 1_555
O24 W8 1.839811 1_555
O24 W6 1.995453 1_556
O25 W0 1.887665 1_555
O25 W6 1.969986 1_455
O26 W5 1.885311 1_545
O26 W6 1.957847 1_555
O27 W2 1.866294 1_555
O27 W5 2.001033 1_555
O28 P0 1.541880 1_555
O28 W12 2.168692 1_555
O29 W11 1.927305 1_555
O29 W4 1.954803 1_555
O30 P2 1.530693 1_555
O30 W1 2.194570 1_555
O31 W15 1.886521 1_545
O31 W0 1.977796 1_555
O32 W12 1.870025 1_555
O32 W1 2.010459 1_555
O33 W1 1.828326 1_555
O33 W10 2.040979 1_555
O34 P0 1.506357 1_555
O34 W14 2.100985 1_565
O35 W15 1.839811 1_555
O35 W3 1.995453 1_554
O36 W14 1.902090 1_555
O36 W4 1.992674 1_555
O37 W14 1.897348 1_555
O37 W4 2.015068 1_655
O38 W5 1.863340 1_555
O38 W10 1.965508 1_554
O39 W12 1.897348 1_555
O39 W13 2.015068 1_455
O40 W9 1.927305 1_555
O40 W13 1.954803 1_555
O41 W7 1.863340 1_555
O41 W0 1.965508 1_556
O42 W1 1.866294 1_555
O42 W7 2.001033 1_555
O43 W9 1.823724 1_555
O43 W3 2.034822 1_655
O44 W0 1.889938 1_555
O44 W6 1.970870 1_555
O45 W4 1.816819 1_655
O45 W5 2.059921 1_545
O46 W2 1.935504 1_555
O46 W11 1.952369 1_655
O47 W11 1.904979 1_555
O47 W15 1.989665 1_555
O48 P2 1.502412 1_555
O48 W13 2.082597 1_445
O49 W7 1.885311 1_565
O49 W3 1.957847 1_555
O50 W2 1.921996 1_555
O50 W11 1.961215 1_555
O51 P3 1.589115 1_455
O51 P0 1.593594 1_555
O52 W1 1.935504 1_555
O52 W9 1.952369 1_455
O53 P3 1.502412 1_555
O53 W4 2.082597 1_665
O54 W10 1.920060 1_554
O54 W0 1.920060 1_555
O55 W10 1.889938 1_555
O55 W3 1.970870 1_555
