# generated using pymatgen
data_CuSeO3
_symmetry_space_group_name_H-M   'P 1'
_cell_length_a   8.27492805
_cell_length_b   7.70471690
_cell_length_c   10.61491645
_cell_angle_alpha   52.53399415
_cell_angle_beta   90.00000000
_cell_angle_gamma   90.00000000
_symmetry_Int_Tables_number   1
_chemical_formula_structural   CuSeO3
_chemical_formula_sum   'Cu8 Se8 O24'
_cell_volume   537.15762296
_cell_formula_units_Z   8
loop_
 _symmetry_equiv_pos_site_id
 _symmetry_equiv_pos_as_xyz
  1  'x, y, z'
loop_
 _atom_site_type_symbol
 _atom_site_label
 _atom_site_symmetry_multiplicity
 _atom_site_fract_x
 _atom_site_fract_y
 _atom_site_fract_z
 _atom_site_occupancy
  Cu  Cu0  1  0.79648058  0.55696119  0.97111034  1
  Cu  Cu1  1  0.40136556  0.20186201  0.38477879  1
  Cu  Cu2  1  0.59863444  0.79813799  0.61522121  1
  Cu  Cu3  1  0.90136556  0.79813799  0.11522121  1
  Cu  Cu4  1  0.20351942  0.44303881  0.02888966  1
  Cu  Cu5  1  0.09863444  0.20186201  0.88477879  1
  Cu  Cu6  1  0.29648058  0.44303881  0.52888966  1
  Cu  Cu7  1  0.70351942  0.55696119  0.47111034  1
  Se  Se0  1  0.36366563  0.90346249  0.79292720  1
  Se  Se1  1  0.53167958  0.64896161  0.16962514  1
  Se  Se2  1  0.13633437  0.90346249  0.29292720  1
  Se  Se3  1  0.46832042  0.35103839  0.83037486  1
  Se  Se4  1  0.63633437  0.09653751  0.20707280  1
  Se  Se5  1  0.03167958  0.35103839  0.33037486  1
  Se  Se6  1  0.96832042  0.64896161  0.66962514  1
  Se  Se7  1  0.86366563  0.09653751  0.70707280  1
  O  O0  1  0.19660369  0.74924297  0.83936323  1
  O  O1  1  0.43744686  0.46188331  0.15814579  1
  O  O2  1  0.56762856  0.47061212  0.36946655  1
  O  O3  1  0.28008628  0.33534319  0.91253178  1
  O  O4  1  0.30339631  0.74924297  0.33936323  1
  O  O5  1  0.69660369  0.25075703  0.66063677  1
  O  O6  1  0.71991372  0.66465681  0.08746822  1
  O  O7  1  0.06762856  0.52938788  0.13053345  1
  O  O8  1  0.06255314  0.46188331  0.65814579  1
  O  O9  1  0.27986279  0.14648823  0.73240458  1
  O  O10  1  0.80339631  0.25075703  0.16063677  1
  O  O11  1  0.91753145  0.04035082  0.88712276  1
  O  O12  1  0.93237144  0.47061212  0.86946655  1
  O  O13  1  0.72013721  0.85351177  0.26759542  1
  O  O14  1  0.43237144  0.52938788  0.63053345  1
  O  O15  1  0.56255314  0.53811669  0.84185421  1
  O  O16  1  0.22013721  0.14648823  0.23240458  1
  O  O17  1  0.93744686  0.53811669  0.34185421  1
  O  O18  1  0.78008628  0.66465681  0.58746822  1
  O  O19  1  0.58246855  0.04035082  0.38712276  1
  O  O20  1  0.77986279  0.85351177  0.76759542  1
  O  O21  1  0.41753145  0.95964918  0.61287724  1
  O  O22  1  0.21991372  0.33534319  0.41253178  1
  O  O23  1  0.08246855  0.95964918  0.11287724  1
loop_
_geom_bond_atom_site_label_1
_geom_bond_atom_site_label_2
_geom_bond_distance
_geom_bond_site_symmetry_2
Cu0 O12 1.935066 1_555
Cu0 O10 1.960178 1_556
Cu0 O6 1.965278 1_556
Cu0 O20 1.975175 1_555
Cu0 O15 2.427550 1_555
Cu1 O19 1.938381 1_555
Cu1 O22 1.941020 1_555
Cu1 O21 1.966178 1_545
Cu1 O1 2.006665 1_555
Cu1 O2 2.407779 1_555
Cu1 O16 2.426233 1_555
Cu2 O21 1.938381 1_555
Cu2 O18 1.941020 1_555
Cu2 O19 1.966178 1_565
Cu2 O15 2.006665 1_555
Cu2 O14 2.407779 1_555
Cu2 O20 2.426233 1_555
Cu3 O23 1.938381 1_655
Cu3 O6 1.941020 1_555
Cu3 O11 1.966178 1_564
Cu3 O17 2.006665 1_555
Cu3 O7 2.407779 1_655
Cu3 O13 2.426233 1_555
Cu4 O7 1.935066 1_555
Cu4 O0 1.960178 1_554
Cu4 O3 1.965278 1_554
Cu4 O16 1.975175 1_555
Cu4 O1 2.427550 1_555
Cu5 O11 1.938381 1_455
Cu5 O3 1.941020 1_555
Cu5 O23 1.966178 1_546
Cu5 O8 2.006665 1_555
Cu5 O12 2.407779 1_455
Cu5 O9 2.426233 1_555
Cu6 O14 1.935066 1_555
Cu6 O4 1.960178 1_555
Cu6 O22 1.965278 1_555
Cu6 O9 1.975175 1_555
Cu6 O8 2.427550 1_555
Cu7 O2 1.935066 1_555
Cu7 O5 1.960178 1_555
Cu7 O18 1.965278 1_555
Cu7 O13 1.975175 1_555
Cu7 O17 2.427550 1_555
O0 Se0 1.689197 1_555
O1 Se1 1.707090 1_555
O2 Se1 1.711834 1_555
O3 Se3 1.753013 1_555
O4 Se2 1.689197 1_555
O5 Se7 1.689197 1_555
O6 Se1 1.753013 1_555
O7 Se5 1.711834 1_555
O8 Se6 1.707090 1_455
O9 Se0 1.713534 1_545
O10 Se4 1.689197 1_555
O11 Se7 1.741340 1_555
O12 Se6 1.711834 1_555
O13 Se4 1.713534 1_565
O14 Se3 1.711834 1_555
O15 Se3 1.707090 1_555
O16 Se2 1.713534 1_545
O17 Se5 1.707090 1_655
O18 Se6 1.753013 1_555
O19 Se4 1.741340 1_555
O20 Se7 1.713534 1_565
O21 Se0 1.741340 1_555
O22 Se5 1.753013 1_555
O23 Se2 1.741340 1_555
