# generated using pymatgen
data_Bi2MoO6
_symmetry_space_group_name_H-M   'P 1'
_cell_length_a   8.87768058
_cell_length_b   8.87768058
_cell_length_c   5.46401800
_cell_angle_alpha   90.00000000
_cell_angle_beta   90.00000000
_cell_angle_gamma   144.27204520
_symmetry_Int_Tables_number   1
_chemical_formula_structural   Bi2MoO6
_chemical_formula_sum   'Bi4 Mo2 O12'
_cell_volume   251.46492268
_cell_formula_units_Z   2
loop_
 _symmetry_equiv_pos_site_id
 _symmetry_equiv_pos_as_xyz
  1  'x, y, z'
loop_
 _atom_site_type_symbol
 _atom_site_label
 _atom_site_symmetry_multiplicity
 _atom_site_fract_x
 _atom_site_fract_y
 _atom_site_fract_z
 _atom_site_occupancy
  Bi  Bi0  1  0.17338200  0.82661800  0.52465500  1
  Bi  Bi1  1  0.82661800  0.17338200  0.47534500  1
  Bi  Bi2  1  0.32661800  0.67338200  0.02465500  1
  Bi  Bi3  1  0.67338200  0.32661800  0.97534500  1
  Mo  Mo0  1  0.00000000  0.00000000  0.00000000  1
  Mo  Mo1  1  0.50000000  0.50000000  0.50000000  1
  O  O0  1  0.89028100  0.10971900  0.08087600  1
  O  O1  1  0.60971900  0.39028100  0.58087600  1
  O  O2  1  0.99886400  0.50113600  0.25000000  1
  O  O3  1  0.77024300  0.72975700  0.25000000  1
  O  O4  1  0.00113600  0.49886400  0.75000000  1
  O  O5  1  0.72975700  0.77024300  0.75000000  1
  O  O6  1  0.39028100  0.60971900  0.41912400  1
  O  O7  1  0.22975700  0.27024300  0.75000000  1
  O  O8  1  0.27024300  0.22975700  0.25000000  1
  O  O9  1  0.10971900  0.89028100  0.91912400  1
  O  O10  1  0.50113600  0.99886400  0.75000000  1
  O  O11  1  0.49886400  0.00113600  0.25000000  1
loop_
_geom_bond_atom_site_label_1
_geom_bond_atom_site_label_2
_geom_bond_distance
_geom_bond_site_symmetry_2
Bi0 O10 2.257595 1_555
Bi0 O4 2.257595 1_555
Bi0 O2 2.394451 1_455
Bi0 O11 2.394451 1_565
Bi0 O9 2.408976 1_555
Bi1 O2 2.257595 1_555
Bi1 O11 2.257595 1_555
Bi1 O10 2.394451 1_545
Bi1 O4 2.394451 1_655
Bi1 O0 2.408976 1_555
Bi2 O2 2.257595 1_455
Bi2 O11 2.257595 1_565
Bi2 O10 2.394451 1_554
Bi2 O4 2.394451 1_554
Bi2 O6 2.408976 1_555
Bi3 O4 2.257595 1_655
Bi3 O10 2.257595 1_545
Bi3 O2 2.394451 1_556
Bi3 O11 2.394451 1_556
Bi3 O1 2.408976 1_555
Mo0 O0 1.906110 1_455
Mo0 O9 1.906110 1_544
Mo0 O5 1.958849 1_444
Mo0 O8 1.958849 1_555
Mo0 O7 1.958849 1_554
Mo0 O3 1.958849 1_445
Mo1 O6 1.906110 1_555
Mo1 O1 1.906110 1_555
Mo1 O5 1.958849 1_555
Mo1 O8 1.958849 1_555
Mo1 O3 1.958849 1_555
Mo1 O7 1.958849 1_555
