# generated using pymatgen
data_Gd2Au5F21
_symmetry_space_group_name_H-M   'P 1'
_cell_length_a   8.33837814
_cell_length_b   8.33837814
_cell_length_c   26.18279430
_cell_angle_alpha   90.00000000
_cell_angle_beta   90.00000000
_cell_angle_gamma   90.00000000
_symmetry_Int_Tables_number   1
_chemical_formula_structural   Gd2Au5F21
_chemical_formula_sum   'Gd8 Au20 F84'
_cell_volume   1820.45172277
_cell_formula_units_Z   4
loop_
 _symmetry_equiv_pos_site_id
 _symmetry_equiv_pos_as_xyz
  1  'x, y, z'
loop_
 _atom_site_type_symbol
 _atom_site_label
 _atom_site_symmetry_multiplicity
 _atom_site_fract_x
 _atom_site_fract_y
 _atom_site_fract_z
 _atom_site_occupancy
  Gd  Gd0  1  0.43145323  0.94253588  0.74855460  1
  Gd  Gd1  1  0.56854677  0.05746412  0.24855460  1
  Gd  Gd2  1  0.55746412  0.93145323  0.99855460  1
  Gd  Gd3  1  0.05746412  0.56854677  0.75144540  1
  Gd  Gd4  1  0.93145323  0.55746412  0.00144540  1
  Gd  Gd5  1  0.44253588  0.06854677  0.49855460  1
  Gd  Gd6  1  0.06854677  0.44253588  0.50144540  1
  Gd  Gd7  1  0.94253588  0.43145323  0.25144540  1
  Au  Au0  1  0.67530174  0.71409054  0.13973230  1
  Au  Au1  1  0.09283999  0.85573941  0.40829235  1
  Au  Au2  1  0.90716001  0.14426059  0.90829235  1
  Au  Au3  1  0.40716001  0.35573941  0.84170765  1
  Au  Au4  1  0.82469826  0.21409054  0.11026770  1
  Au  Au5  1  0.94116047  0.05883953  0.75000000  1
  Au  Au6  1  0.17530174  0.78590946  0.61026770  1
  Au  Au7  1  0.35573941  0.40716001  0.15829235  1
  Au  Au8  1  0.64426059  0.59283999  0.65829235  1
  Au  Au9  1  0.28590946  0.32469826  0.36026770  1
  Au  Au10  1  0.44116047  0.44116047  0.00000000  1
  Au  Au11  1  0.71409054  0.67530174  0.86026770  1
  Au  Au12  1  0.05883953  0.94116047  0.25000000  1
  Au  Au13  1  0.78590946  0.17530174  0.38973230  1
  Au  Au14  1  0.21409054  0.82469826  0.88973230  1
  Au  Au15  1  0.14426059  0.90716001  0.09170765  1
  Au  Au16  1  0.59283999  0.64426059  0.34170765  1
  Au  Au17  1  0.85573941  0.09283999  0.59170765  1
  Au  Au18  1  0.55883953  0.55883953  0.50000000  1
  Au  Au19  1  0.32469826  0.28590946  0.63973230  1
  F  F0  1  0.66509087  0.04388122  0.43943661  1
  F  F1  1  0.96182221  0.31198700  0.95863177  1
  F  F2  1  0.41048629  0.20922078  0.19713229  1
  F  F3  1  0.43691921  0.67763949  0.99931645  1
  F  F4  1  0.17763949  0.06308079  0.74931645  1
  F  F5  1  0.58951371  0.79077922  0.69713229  1
  F  F6  1  0.81091353  0.89665723  0.62826669  1
  F  F7  1  0.68908647  0.39665723  0.62173331  1
  F  F8  1  0.20922078  0.41048629  0.80286771  1
  F  F9  1  0.93352789  0.32991807  0.16560721  1
  F  F10  1  0.05898865  0.70622185  0.25153927  1
  F  F11  1  0.47835792  0.63821623  0.60808374  1
  F  F12  1  0.58802603  0.79849322  0.91009680  1
  F  F13  1  0.97835792  0.86178377  0.14191626  1
  F  F14  1  0.32236051  0.56308079  0.50068355  1
  F  F15  1  0.79849322  0.58802603  0.08990320  1
  F  F16  1  0.08802603  0.70150678  0.83990320  1
  F  F17  1  0.93691921  0.82236051  0.75068355  1
  F  F18  1  0.20622185  0.44101135  0.00153927  1
  F  F19  1  0.70150678  0.08802603  0.16009680  1
  F  F20  1  0.02164208  0.13821623  0.64191626  1
  F  F21  1  0.17008193  0.43352789  0.41560721  1
  F  F22  1  0.31198700  0.96182221  0.04136823  1
  F  F23  1  0.13821623  0.02164208  0.35808374  1
  F  F24  1  0.77418534  0.59547934  0.19708563  1
  F  F25  1  0.28004436  0.71995564  0.75000000  1
  F  F26  1  0.91048629  0.29077922  0.55286771  1
  F  F27  1  0.16509087  0.45611878  0.31056339  1
  F  F28  1  0.08951371  0.70922078  0.05286771  1
  F  F29  1  0.82991807  0.56647211  0.91560721  1
  F  F30  1  0.72581466  0.09547934  0.05291437  1
  F  F31  1  0.78004436  0.78004436  0.00000000  1
  F  F32  1  0.46182221  0.18801300  0.79136823  1
  F  F33  1  0.32991807  0.93352789  0.83439279  1
  F  F34  1  0.41197397  0.20150678  0.41009680  1
  F  F35  1  0.39665723  0.68908647  0.37826669  1
  F  F36  1  0.33490913  0.95611878  0.93943661  1
  F  F37  1  0.82236051  0.93691921  0.24931645  1
  F  F38  1  0.79377815  0.55898865  0.50153927  1
  F  F39  1  0.86178377  0.97835792  0.85808374  1
  F  F40  1  0.70622185  0.05898865  0.74846073  1
  F  F41  1  0.67763949  0.43691921  0.00068355  1
  F  F42  1  0.09547934  0.72581466  0.94708563  1
  F  F43  1  0.31091353  0.60334277  0.12173331  1
  F  F44  1  0.18908647  0.10334277  0.12826669  1
  F  F45  1  0.68801300  0.03817779  0.54136823  1
  F  F46  1  0.52164208  0.36178377  0.10808374  1
  F  F47  1  0.90452066  0.27418534  0.44708563  1
  F  F48  1  0.22581466  0.40452066  0.69708563  1
  F  F49  1  0.29849322  0.91197397  0.66009680  1
  F  F50  1  0.27418534  0.90452066  0.55291437  1
  F  F51  1  0.79077922  0.58951371  0.30286771  1
  F  F52  1  0.18801300  0.46182221  0.20863177  1
  F  F53  1  0.89665723  0.81091353  0.37173331  1
  F  F54  1  0.60334277  0.31091353  0.87826669  1
  F  F55  1  0.45611878  0.16509087  0.68943661  1
  F  F56  1  0.06647211  0.67008193  0.66560721  1
  F  F57  1  0.36178377  0.52164208  0.89191626  1
  F  F58  1  0.95611878  0.33490913  0.06056339  1
  F  F59  1  0.56647211  0.82991807  0.08439279  1
  F  F60  1  0.40452066  0.22581466  0.30291437  1
  F  F61  1  0.10334277  0.18908647  0.87173331  1
  F  F62  1  0.53817779  0.81198700  0.29136823  1
  F  F63  1  0.43352789  0.17008193  0.58439279  1
  F  F64  1  0.55898865  0.79377815  0.49846073  1
  F  F65  1  0.71995564  0.28004436  0.25000000  1
  F  F66  1  0.44101135  0.20622185  0.99846073  1
  F  F67  1  0.83490913  0.54388122  0.81056339  1
  F  F68  1  0.03817779  0.68801300  0.45863177  1
  F  F69  1  0.91197397  0.29849322  0.33990320  1
  F  F70  1  0.29377815  0.94101135  0.24846073  1
  F  F71  1  0.59547934  0.77418534  0.80291437  1
  F  F72  1  0.54388122  0.83490913  0.18943661  1
  F  F73  1  0.04388122  0.66509087  0.56056339  1
  F  F74  1  0.70922078  0.08951371  0.94713229  1
  F  F75  1  0.63821623  0.47835792  0.39191626  1
  F  F76  1  0.06308079  0.17763949  0.25068355  1
  F  F77  1  0.20150678  0.41197397  0.58990320  1
  F  F78  1  0.94101135  0.29377815  0.75153927  1
  F  F79  1  0.21995564  0.21995564  0.50000000  1
  F  F80  1  0.56308079  0.32236051  0.49931645  1
  F  F81  1  0.81198700  0.53817779  0.70863177  1
  F  F82  1  0.29077922  0.91048629  0.44713229  1
  F  F83  1  0.67008193  0.06647211  0.33439279  1
loop_
_geom_bond_atom_site_label_1
_geom_bond_atom_site_label_2
_geom_bond_distance
_geom_bond_site_symmetry_2
Au0 F59 1.963599 1_555
Au0 F15 1.965271 1_555
Au0 F72 1.977222 1_555
Au0 F24 1.978139 1_555
Au1 F53 1.931830 1_455
Au1 F23 1.945513 1_565
Au1 F68 1.975077 1_555
Au1 F82 1.991653 1_555
Au2 F61 1.931830 1_655
Au2 F39 1.945513 1_545
Au2 F1 1.975077 1_555
Au2 F74 1.991653 1_555
Au3 F54 1.931830 1_555
Au3 F57 1.945513 1_555
Au3 F32 1.975077 1_555
Au3 F8 1.991653 1_555
Au4 F9 1.963599 1_555
Au4 F19 1.965271 1_555
Au4 F58 1.977222 1_555
Au4 F30 1.978139 1_555
Au5 F40 1.959422 1_555
Au5 F78 1.959422 1_555
Au5 F4 1.972250 1_655
Au5 F17 1.972250 1_545
Au6 F56 1.963599 1_555
Au6 F49 1.965271 1_555
Au6 F73 1.977222 1_555
Au6 F50 1.978139 1_555
Au7 F43 1.931830 1_555
Au7 F46 1.945513 1_555
Au7 F52 1.975077 1_555
Au7 F2 1.991653 1_555
Au8 F7 1.931830 1_555
Au8 F11 1.945513 1_555
Au8 F81 1.975077 1_555
Au8 F5 1.991653 1_555
Au9 F21 1.963599 1_555
Au9 F34 1.965271 1_555
Au9 F27 1.977222 1_555
Au9 F60 1.978139 1_555
Au10 F66 1.959422 1_554
Au10 F18 1.959422 1_555
Au10 F41 1.972250 1_555
Au10 F3 1.972250 1_554
Au11 F29 1.963599 1_555
Au11 F12 1.965271 1_555
Au11 F67 1.977222 1_555
Au11 F71 1.978139 1_555
Au12 F10 1.959422 1_555
Au12 F70 1.959422 1_555
Au12 F76 1.972250 1_565
Au12 F37 1.972250 1_455
Au13 F83 1.963599 1_555
Au13 F69 1.965271 1_555
Au13 F0 1.977222 1_555
Au13 F47 1.978139 1_555
Au14 F33 1.963599 1_555
Au14 F16 1.965271 1_555
Au14 F36 1.977222 1_555
Au14 F42 1.978139 1_555
Au15 F44 1.931830 1_565
Au15 F13 1.945513 1_455
Au15 F22 1.975077 1_555
Au15 F28 1.991653 1_555
Au16 F35 1.931830 1_555
Au16 F75 1.945513 1_555
Au16 F62 1.975077 1_555
Au16 F51 1.991653 1_555
Au17 F6 1.931830 1_545
Au17 F20 1.945513 1_655
Au17 F45 1.975077 1_555
Au17 F26 1.991653 1_555
Au18 F38 1.959422 1_555
Au18 F64 1.959422 1_555
Au18 F80 1.972250 1_555
Au18 F14 1.972250 1_555
Au19 F63 1.963599 1_555
Au19 F77 1.965271 1_555
Au19 F55 1.977222 1_555
Au19 F48 1.978139 1_555
F0 Gd5 2.425286 1_555
F1 Gd4 2.347433 1_556
F2 Gd1 2.269587 1_555
F3 Gd2 2.343043 1_555
F4 Gd0 2.343043 1_545
F5 Gd0 2.269587 1_555
F8 Gd3 2.269587 1_555
F9 Gd7 2.402836 1_555
F10 Gd7 2.488404 1_455
F12 Gd2 2.580365 1_555
F14 Gd6 2.343043 1_555
F15 Gd4 2.580365 1_555
F16 Gd3 2.580365 1_555
F17 Gd3 2.343043 1_655
F18 Gd4 2.488404 1_455
F19 Gd1 2.580365 1_555
F21 Gd6 2.402836 1_555
F22 Gd2 2.347433 1_554
F24 Gd7 2.422182 1_555
F25 Gd3 2.244979 1_555
F25 Gd0 2.244979 1_555
F26 Gd6 2.269587 1_655
F27 Gd7 2.425286 1_455
F28 Gd4 2.269587 1_455
F29 Gd4 2.402836 1_556
F30 Gd2 2.422182 1_544
F31 Gd4 2.244979 1_555
F31 Gd2 2.244979 1_554
F32 Gd0 2.347433 1_545
F33 Gd0 2.402836 1_555
F34 Gd5 2.580365 1_555
F36 Gd2 2.425286 1_555
F37 Gd1 2.343043 1_565
F38 Gd6 2.488404 1_655
F40 Gd0 2.488404 1_545
F41 Gd4 2.343043 1_555
F42 Gd4 2.422182 1_456
F45 Gd5 2.347433 1_555
F47 Gd6 2.422182 1_655
F48 Gd3 2.422182 1_555
F49 Gd0 2.580365 1_555
F50 Gd5 2.422182 1_565
F51 Gd7 2.269587 1_555
F52 Gd7 2.347433 1_455
F55 Gd0 2.425286 1_545
F56 Gd3 2.402836 1_555
F58 Gd4 2.425286 1_555
F59 Gd2 2.402836 1_554
F60 Gd1 2.422182 1_555
F62 Gd1 2.347433 1_565
F63 Gd5 2.402836 1_555
F64 Gd5 2.488404 1_565
F65 Gd1 2.244979 1_555
F65 Gd7 2.244979 1_555
F66 Gd2 2.488404 1_545
F67 Gd3 2.425286 1_655
F68 Gd6 2.347433 1_555
F69 Gd7 2.580365 1_555
F70 Gd1 2.488404 1_565
F71 Gd0 2.422182 1_555
F72 Gd1 2.425286 1_565
F73 Gd6 2.425286 1_555
F74 Gd2 2.269587 1_545
F76 Gd7 2.343043 1_455
F77 Gd6 2.580365 1_555
F78 Gd3 2.488404 1_655
F79 Gd6 2.244979 1_555
F79 Gd5 2.244979 1_555
F80 Gd5 2.343043 1_555
F81 Gd3 2.347433 1_655
F82 Gd5 2.269587 1_565
F83 Gd1 2.402836 1_555
