# generated using pymatgen
data_Rb2(ReSe2)3
_symmetry_space_group_name_H-M   'P 1'
_cell_length_a   10.25817991
_cell_length_b   10.25817991
_cell_length_c   12.55656746
_cell_angle_alpha   88.85386304
_cell_angle_beta   88.85386304
_cell_angle_gamma   59.83148276
_symmetry_Int_Tables_number   1
_chemical_formula_structural   Rb2(ReSe2)3
_chemical_formula_sum   'Rb8 Re12 Se24'
_cell_volume   1142.05372445
_cell_formula_units_Z   4
loop_
 _symmetry_equiv_pos_site_id
 _symmetry_equiv_pos_as_xyz
  1  'x, y, z'
loop_
 _atom_site_type_symbol
 _atom_site_label
 _atom_site_symmetry_multiplicity
 _atom_site_fract_x
 _atom_site_fract_y
 _atom_site_fract_z
 _atom_site_occupancy
  Rb  Rb0  1  0.61819635  0.38180365  0.25000000  1
  Rb  Rb1  1  0.38180365  0.61819635  0.75000000  1
  Rb  Rb2  1  0.22064274  0.77935726  0.25000000  1
  Rb  Rb3  1  0.77935726  0.22064274  0.75000000  1
  Rb  Rb4  1  0.36305138  0.85969938  0.98116800  1
  Rb  Rb5  1  0.14030062  0.63694862  0.51883200  1
  Rb  Rb6  1  0.63694862  0.14030062  0.01883200  1
  Rb  Rb7  1  0.85969938  0.36305138  0.48116800  1
  Re  Re0  1  0.68186689  0.99682654  0.47759737  1
  Re  Re1  1  0.00317346  0.31813311  0.02240263  1
  Re  Re2  1  0.31813311  0.00317346  0.52240263  1
  Re  Re3  1  0.99682654  0.68186689  0.97759737  1
  Re  Re4  1  0.53653713  0.88420858  0.37732990  1
  Re  Re5  1  0.11579142  0.46346287  0.12267010  1
  Re  Re6  1  0.46346287  0.11579142  0.62267010  1
  Re  Re7  1  0.88420858  0.53653713  0.87732990  1
  Re  Re8  1  0.40084384  0.17649423  0.41657064  1
  Re  Re9  1  0.82350577  0.59915616  0.08342936  1
  Re  Re10  1  0.59915616  0.82350577  0.58342936  1
  Re  Re11  1  0.17649423  0.40084384  0.91657064  1
  Se  Se0  1  0.73662438  0.93476956  0.67267382  1
  Se  Se1  1  0.06523044  0.26337562  0.82732618  1
  Se  Se2  1  0.26337562  0.06523044  0.32732618  1
  Se  Se3  1  0.93476956  0.73662438  0.17267382  1
  Se  Se4  1  0.28274824  0.19738343  0.06137372  1
  Se  Se5  1  0.80261657  0.71725176  0.43862628  1
  Se  Se6  1  0.71725176  0.80261657  0.93862628  1
  Se  Se7  1  0.19738343  0.28274824  0.56137372  1
  Se  Se8  1  0.38377544  0.94892368  0.71763596  1
  Se  Se9  1  0.05107632  0.61622456  0.78236404  1
  Se  Se10  1  0.61622456  0.05107632  0.28236404  1
  Se  Se11  1  0.94892368  0.38377544  0.21763596  1
  Se  Se12  1  0.45672090  0.71934603  0.48247556  1
  Se  Se13  1  0.28065397  0.54327910  0.01752444  1
  Se  Se14  1  0.54327910  0.28065397  0.51752444  1
  Se  Se15  1  0.71934603  0.45672090  0.98247556  1
  Se  Se16  1  0.00395350  0.92750113  0.92244681  1
  Se  Se17  1  0.07249887  0.99604650  0.57755319  1
  Se  Se18  1  0.99604650  0.07249887  0.07755319  1
  Se  Se19  1  0.92750113  0.00395350  0.42244681  1
  Se  Se20  1  0.57429690  0.72911892  0.20183015  1
  Se  Se21  1  0.27088108  0.42570310  0.29816985  1
  Se  Se22  1  0.42570310  0.27088108  0.79816985  1
  Se  Se23  1  0.72911892  0.57429690  0.70183015  1
loop_
_geom_bond_atom_site_label_1
_geom_bond_atom_site_label_2
_geom_bond_distance
_geom_bond_site_symmetry_2
Rb0 Se21 3.402120 1_555
Rb0 Se20 3.402120 1_555
Rb0 Se10 3.418945 1_555
Rb0 Se11 3.418945 1_555
Rb0 Se14 3.675618 1_555
Rb0 Se15 3.675618 1_554
Rb1 Se22 3.402120 1_555
Rb1 Se23 3.402120 1_555
Rb1 Se9 3.418945 1_555
Rb1 Se8 3.418945 1_555
Rb1 Se12 3.675618 1_555
Rb1 Se13 3.675618 1_556
Rb2 Se3 3.340311 1_455
Rb2 Se2 3.340311 1_565
Rb2 Se20 3.440677 1_555
Rb2 Se21 3.440677 1_555
Rb2 Se19 3.466287 1_465
Rb2 Se18 3.466287 1_465
Rb2 Se12 3.671154 1_555
Rb2 Se13 3.671154 1_555
Rb3 Se1 3.340311 1_655
Rb3 Se0 3.340311 1_545
Rb3 Se23 3.440677 1_555
Rb3 Se22 3.440677 1_555
Rb3 Se17 3.466287 1_645
Rb3 Se16 3.466287 1_645
Rb3 Se15 3.671154 1_555
Rb3 Se14 3.671154 1_555
Rb4 Se4 3.306150 1_566
Rb4 Se20 3.367714 1_556
Rb4 Se6 3.409782 1_555
Rb4 Se8 3.446601 1_555
Rb4 Se18 3.473751 1_466
Rb4 Se16 3.479943 1_555
Rb4 Se13 3.760522 1_556
Rb4 Se15 3.906565 1_555
Rb5 Se5 3.306150 1_455
Rb5 Se21 3.367714 1_555
Rb5 Se7 3.409782 1_555
Rb5 Se9 3.446601 1_555
Rb5 Se19 3.473751 1_465
Rb5 Se17 3.479943 1_555
Rb5 Se12 3.760522 1_555
Rb5 Se14 3.906565 1_555
Rb6 Se6 3.306150 1_544
Rb6 Se22 3.367714 1_554
Rb6 Se4 3.409782 1_555
Rb6 Se10 3.446601 1_555
Rb6 Se16 3.473751 1_644
Rb6 Se18 3.479943 1_555
Rb6 Se15 3.760522 1_554
Rb6 Se13 3.906565 1_555
Rb7 Se7 3.306150 1_655
Rb7 Se23 3.367714 1_555
Rb7 Se5 3.409782 1_555
Rb7 Se11 3.446601 1_555
Rb7 Se17 3.473751 1_645
Rb7 Se19 3.479943 1_555
Rb7 Se14 3.760522 1_555
Rb7 Se12 3.906565 1_555
Re0 Se0 2.520721 1_555
Re0 Se10 2.531325 1_565
Re0 Se5 2.541686 1_555
Re0 Se14 2.572777 1_565
Re0 Se19 2.635796 1_565
Re1 Se1 2.520721 1_554
Re1 Se11 2.531325 1_455
Re1 Se4 2.541686 1_555
Re1 Se15 2.572777 1_454
Re1 Se18 2.635796 1_455
Re2 Se2 2.520721 1_555
Re2 Se8 2.531325 1_545
Re2 Se7 2.541686 1_555
Re2 Se12 2.572777 1_545
Re2 Se17 2.635796 1_545
Re3 Se3 2.520721 1_556
Re3 Se9 2.531325 1_655
Re3 Se6 2.541686 1_555
Re3 Se13 2.572777 1_656
Re3 Se16 2.635796 1_655
Re4 Se10 2.511177 1_565
Re4 Se5 2.511683 1_555
Re4 Se2 2.547215 1_565
Re4 Se12 2.555932 1_555
Re4 Se20 2.650288 1_555
Re5 Se11 2.511177 1_455
Re5 Se4 2.511683 1_555
Re5 Se3 2.547215 1_455
Re5 Se13 2.555932 1_555
Re5 Se21 2.650288 1_555
Re6 Se8 2.511177 1_545
Re6 Se7 2.511683 1_555
Re6 Se0 2.547215 1_545
Re6 Se14 2.555932 1_555
Re6 Se22 2.650288 1_555
Re7 Se9 2.511177 1_655
Re7 Se6 2.511683 1_555
Re7 Se1 2.547215 1_655
Re7 Se15 2.555932 1_555
Re7 Se23 2.650288 1_555
Re8 Se2 2.505824 1_555
Re8 Se10 2.541128 1_555
Re8 Se7 2.547763 1_555
Re8 Se14 2.565323 1_555
Re8 Se21 2.650418 1_555
Re9 Se3 2.505824 1_555
Re9 Se11 2.541128 1_555
Re9 Se6 2.547763 1_554
Re9 Se15 2.565323 1_554
Re9 Se20 2.650418 1_555
Re10 Se0 2.505824 1_555
Re10 Se8 2.541128 1_555
Re10 Se5 2.547763 1_555
Re10 Se12 2.565323 1_555
Re10 Se23 2.650418 1_555
Re11 Se1 2.505824 1_555
Re11 Se9 2.541128 1_555
Re11 Se4 2.547763 1_556
Re11 Se13 2.565323 1_556
Re11 Se22 2.650418 1_555
Se16 Se18 2.449581 1_466
Se17 Se19 2.449581 1_465
