# generated using pymatgen
data_Dy5C2Br9
_symmetry_space_group_name_H-M   'P 1'
_cell_length_a   16.40206965
_cell_length_b   9.98956207
_cell_length_c   13.36665831
_cell_angle_alpha   58.44736334
_cell_angle_beta   90.00000000
_cell_angle_gamma   90.00000000
_symmetry_Int_Tables_number   1
_chemical_formula_structural   Dy5C2Br9
_chemical_formula_sum   'Dy20 C8 Br36'
_cell_volume   1866.33236626
_cell_formula_units_Z   4
loop_
 _symmetry_equiv_pos_site_id
 _symmetry_equiv_pos_as_xyz
  1  'x, y, z'
loop_
 _atom_site_type_symbol
 _atom_site_label
 _atom_site_symmetry_multiplicity
 _atom_site_fract_x
 _atom_site_fract_y
 _atom_site_fract_z
 _atom_site_occupancy
  Dy  Dy0  1  0.54070264  0.66244284  0.96457000  1
  Dy  Dy1  1  0.44177420  0.86005768  0.68732105  1
  Dy  Dy2  1  0.18663048  0.71456862  0.44494699  1
  Dy  Dy3  1  0.55611023  0.50696552  0.73688811  1
  Dy  Dy4  1  0.83793602  0.48876735  0.72129425  1
  Dy  Dy5  1  0.31336952  0.71456862  0.94494699  1
  Dy  Dy6  1  0.95929736  0.66244284  0.46457000  1
  Dy  Dy7  1  0.94388977  0.50696552  0.23688811  1
  Dy  Dy8  1  0.66206398  0.48876735  0.22129425  1
  Dy  Dy9  1  0.05822580  0.86005768  0.18732105  1
  Dy  Dy10  1  0.44388977  0.49303448  0.26311189  1
  Dy  Dy11  1  0.45929736  0.33755716  0.03543000  1
  Dy  Dy12  1  0.04070264  0.33755716  0.53543000  1
  Dy  Dy13  1  0.94177420  0.13994232  0.81267895  1
  Dy  Dy14  1  0.81336952  0.28543138  0.55505301  1
  Dy  Dy15  1  0.55822580  0.13994232  0.31267895  1
  Dy  Dy16  1  0.16206398  0.51123265  0.27870575  1
  Dy  Dy17  1  0.33793602  0.51123265  0.77870575  1
  Dy  Dy18  1  0.68663048  0.28543138  0.05505301  1
  Dy  Dy19  1  0.05611023  0.49303448  0.76311189  1
  C  C0  1  0.03002854  0.57335004  0.33013988  1
  C  C1  1  0.46997146  0.57335004  0.83013988  1
  C  C2  1  0.96997146  0.42664996  0.66986012  1
  C  C3  1  0.53002854  0.42664996  0.16986012  1
  C  C4  1  0.91109986  0.37188989  0.61948483  1
  C  C5  1  0.41109986  0.62811011  0.88051517  1
  C  C6  1  0.58890014  0.37188989  0.11948483  1
  C  C7  1  0.08890014  0.62811011  0.38051517  1
  Br  Br0  1  0.06886687  0.80196018  0.55804237  1
  Br  Br1  1  0.19188266  0.59798451  0.85876778  1
  Br  Br2  1  0.18123698  0.00746330  0.24667023  1
  Br  Br3  1  0.93235538  0.59042932  0.84789942  1
  Br  Br4  1  0.56764462  0.59042932  0.34789942  1
  Br  Br5  1  0.56886687  0.19803982  0.94195763  1
  Br  Br6  1  0.32613027  0.21569423  0.96829952  1
  Br  Br7  1  0.81759632  0.19594963  0.93912545  1
  Br  Br8  1  0.19957337  0.41633936  0.67087359  1
  Br  Br9  1  0.06396362  0.03095722  0.73733716  1
  Br  Br10  1  0.05868490  0.18072628  0.95984797  1
  Br  Br11  1  0.55868490  0.81927372  0.54015203  1
  Br  Br12  1  0.31759632  0.80405037  0.56087455  1
  Br  Br13  1  0.69957337  0.58366064  0.82912641  1
  Br  Br14  1  0.81876302  0.99253670  0.75332977  1
  Br  Br15  1  0.17386973  0.21569423  0.46829952  1
  Br  Br16  1  0.68123698  0.99253670  0.25332977  1
  Br  Br17  1  0.82613027  0.78430577  0.53170048  1
  Br  Br18  1  0.93113313  0.19803982  0.44195763  1
  Br  Br19  1  0.56396362  0.96904278  0.76266284  1
  Br  Br20  1  0.06764462  0.40957068  0.15210058  1
  Br  Br21  1  0.30811734  0.59798451  0.35876778  1
  Br  Br22  1  0.30042663  0.41633936  0.17087359  1
  Br  Br23  1  0.80042663  0.58366064  0.32912641  1
  Br  Br24  1  0.43113313  0.80196018  0.05804237  1
  Br  Br25  1  0.93603638  0.96904278  0.26266284  1
  Br  Br26  1  0.43603638  0.03095722  0.23733716  1
  Br  Br27  1  0.80811734  0.40201549  0.14123222  1
  Br  Br28  1  0.31876302  0.00746330  0.74667023  1
  Br  Br29  1  0.44131510  0.18072628  0.45984797  1
  Br  Br30  1  0.18240368  0.80405037  0.06087455  1
  Br  Br31  1  0.68240368  0.19594963  0.43912545  1
  Br  Br32  1  0.69188266  0.40201549  0.64123222  1
  Br  Br33  1  0.94131510  0.81927372  0.04015203  1
  Br  Br34  1  0.67386973  0.78430577  0.03170048  1
  Br  Br35  1  0.43235538  0.40957068  0.65210058  1
loop_
_geom_bond_atom_site_label_1
_geom_bond_atom_site_label_2
_geom_bond_distance
_geom_bond_site_symmetry_2
C0 C7 1.438940 1_555
C0 Dy7 2.203335 1_455
C0 Dy16 2.448315 1_555
C0 Dy9 2.517746 1_555
C0 Dy12 2.518767 1_555
C0 Dy6 2.653391 1_455
C1 C5 1.438940 1_555
C1 Dy3 2.203335 1_555
C1 Dy17 2.448315 1_555
C1 Dy1 2.517746 1_555
C1 Dy11 2.518767 1_556
C1 Dy0 2.653391 1_555
C2 C4 1.438940 1_555
C2 Dy19 2.203335 1_655
C2 Dy4 2.448315 1_555
C2 Dy13 2.517746 1_555
C2 Dy6 2.518767 1_555
C2 Dy12 2.653391 1_655
C3 C6 1.438940 1_555
C3 Dy10 2.203335 1_555
C3 Dy8 2.448315 1_555
C3 Dy15 2.517746 1_555
C3 Dy0 2.518767 1_554
C3 Dy11 2.653391 1_555
C4 Dy14 2.199021 1_555
C4 Dy13 2.455276 1_555
C4 Dy12 2.510391 1_655
C4 Dy4 2.513572 1_555
C4 Dy6 2.654652 1_555
C5 Dy5 2.199021 1_555
C5 Dy1 2.455276 1_555
C5 Dy0 2.510391 1_555
C5 Dy17 2.513572 1_555
C5 Dy11 2.654652 1_556
C6 Dy18 2.199021 1_555
C6 Dy15 2.455276 1_555
C6 Dy11 2.510391 1_555
C6 Dy8 2.513572 1_555
C6 Dy0 2.654652 1_554
C7 Dy2 2.199021 1_555
C7 Dy9 2.455276 1_555
C7 Dy6 2.510391 1_455
C7 Dy16 2.513572 1_555
C7 Dy12 2.654652 1_555
Br0 Dy2 2.856488 1_555
Br0 Dy19 2.868446 1_555
Br0 Dy6 2.925013 1_455
Br1 Dy5 2.838647 1_555
Br1 Dy17 2.933540 1_555
Br1 Dy19 3.015987 1_555
Br2 Dy2 2.734443 1_545
Br2 Dy9 2.844475 1_545
Br3 Dy19 2.739571 1_655
Br3 Dy4 2.844684 1_555
Br4 Dy10 2.739571 1_555
Br4 Dy8 2.844684 1_555
Br5 Dy18 2.856488 1_556
Br5 Dy3 2.868446 1_555
Br5 Dy11 2.925013 1_556
Br6 Dy17 2.710298 1_555
Br6 Dy11 2.863762 1_556
Br7 Dy4 2.869129 1_555
Br7 Dy13 2.882326 1_555
Br7 Dy18 3.043712 1_556
Br8 Dy2 2.936764 1_555
Br8 Dy19 2.938146 1_555
Br8 Dy17 3.091338 1_555
Br8 Dy12 3.489758 1_555
Br9 Dy13 2.713595 1_455
Br9 Dy12 2.856415 1_555
Br10 Dy19 2.839752 1_555
Br10 Dy13 2.924306 1_455
Br10 Dy9 3.051714 1_546
Br11 Dy3 2.839752 1_555
Br11 Dy1 2.924306 1_555
Br11 Dy15 3.051714 1_565
Br12 Dy17 2.869129 1_555
Br12 Dy1 2.882326 1_555
Br12 Dy2 3.043712 1_555
Br13 Dy18 2.936764 1_556
Br13 Dy3 2.938146 1_555
Br13 Dy4 3.091338 1_555
Br13 Dy0 3.489758 1_555
Br14 Dy14 2.734443 1_565
Br14 Dy13 2.844475 1_565
Br15 Dy16 2.710298 1_555
Br15 Dy12 2.863762 1_555
Br16 Dy18 2.734443 1_565
Br16 Dy15 2.844475 1_565
Br17 Dy4 2.710298 1_555
Br17 Dy6 2.863762 1_555
Br18 Dy14 2.856488 1_555
Br18 Dy7 2.868446 1_555
Br18 Dy12 2.925013 1_655
Br19 Dy1 2.713595 1_555
Br19 Dy0 2.856415 1_555
Br20 Dy7 2.739571 1_455
Br20 Dy16 2.844684 1_555
Br21 Dy2 2.838647 1_555
Br21 Dy16 2.933540 1_555
Br21 Dy10 3.015987 1_555
Br22 Dy5 2.936764 1_554
Br22 Dy10 2.938146 1_555
Br22 Dy16 3.091338 1_555
Br22 Dy11 3.489758 1_555
Br23 Dy14 2.936764 1_555
Br23 Dy7 2.938146 1_555
Br23 Dy8 3.091338 1_555
Br23 Dy6 3.489758 1_555
Br24 Dy5 2.856488 1_554
Br24 Dy10 2.868446 1_555
Br24 Dy0 2.925013 1_554
Br25 Dy9 2.713595 1_655
Br25 Dy6 2.856415 1_555
Br26 Dy15 2.713595 1_555
Br26 Dy11 2.856415 1_555
Br27 Dy18 2.838647 1_555
Br27 Dy8 2.933540 1_555
Br27 Dy7 3.015987 1_555
Br28 Dy5 2.734443 1_545
Br28 Dy1 2.844475 1_545
Br29 Dy10 2.839752 1_555
Br29 Dy15 2.924306 1_555
Br29 Dy1 3.051714 1_545
Br30 Dy16 2.869129 1_555
Br30 Dy9 2.882326 1_555
Br30 Dy5 3.043712 1_554
Br31 Dy8 2.869129 1_555
Br31 Dy15 2.882326 1_555
Br31 Dy14 3.043712 1_555
Br32 Dy14 2.838647 1_555
Br32 Dy4 2.933540 1_555
Br32 Dy3 3.015987 1_555
Br33 Dy7 2.839752 1_555
Br33 Dy9 2.924306 1_655
Br33 Dy13 3.051714 1_564
Br34 Dy8 2.710298 1_555
Br34 Dy0 2.863762 1_554
Br35 Dy3 2.739571 1_555
Br35 Dy17 2.844684 1_555
