# generated using pymatgen
data_LiTm2Cl5
_symmetry_space_group_name_H-M   'P 1'
_cell_length_a   8.24683576
_cell_length_b   8.24683576
_cell_length_c   7.27911237
_cell_angle_alpha   88.20250102
_cell_angle_beta   88.20250102
_cell_angle_gamma   45.15854656
_symmetry_Int_Tables_number   1
_chemical_formula_structural   LiTm2Cl5
_chemical_formula_sum   'Li2 Tm4 Cl10'
_cell_volume   350.82119262
_cell_formula_units_Z   2
loop_
 _symmetry_equiv_pos_site_id
 _symmetry_equiv_pos_as_xyz
  1  'x, y, z'
loop_
 _atom_site_type_symbol
 _atom_site_label
 _atom_site_symmetry_multiplicity
 _atom_site_fract_x
 _atom_site_fract_y
 _atom_site_fract_z
 _atom_site_occupancy
  Li  Li0  1  0.50000000  0.00000000  0.00000000  1
  Li  Li1  1  0.00000000  0.50000000  0.50000000  1
  Tm  Tm0  1  0.11695500  0.73550700  0.06464800  1
  Tm  Tm1  1  0.88304500  0.26449300  0.93535200  1
  Tm  Tm2  1  0.26449300  0.88304500  0.43535200  1
  Tm  Tm3  1  0.73550700  0.11695500  0.56464800  1
  Cl  Cl0  1  0.11851700  0.88148300  0.75000000  1
  Cl  Cl1  1  0.85889600  0.73344000  0.83335700  1
  Cl  Cl2  1  0.68558300  0.49220600  0.60203200  1
  Cl  Cl3  1  0.14110400  0.26656000  0.16664300  1
  Cl  Cl4  1  0.31441700  0.50779400  0.39796800  1
  Cl  Cl5  1  0.88148300  0.11851700  0.25000000  1
  Cl  Cl6  1  0.73344000  0.85889600  0.33335700  1
  Cl  Cl7  1  0.49220600  0.68558300  0.10203200  1
  Cl  Cl8  1  0.26656000  0.14110400  0.66664300  1
  Cl  Cl9  1  0.50779400  0.31441700  0.89796800  1
loop_
_geom_bond_atom_site_label_1
_geom_bond_atom_site_label_2
_geom_bond_distance
_geom_bond_site_symmetry_2
Cl0 Tm2 2.557769 1_555
Cl0 Tm0 2.557769 1_556
Cl0 Tm1 2.649683 1_465
Cl0 Tm3 2.649683 1_465
Cl1 Li0 2.414569 1_566
Cl1 Tm0 2.764348 1_656
Cl1 Li1 2.811574 1_655
Cl1 Tm3 3.172127 1_565
Cl2 Li1 2.718518 1_655
Cl2 Tm1 2.777485 1_555
Cl2 Tm3 2.840643 1_555
Cl2 Tm2 2.855498 1_555
Cl3 Li0 2.414569 1_555
Cl3 Tm1 2.764348 1_454
Cl3 Li1 2.811574 1_555
Cl3 Tm2 3.172127 1_545
Cl4 Li1 2.718518 1_555
Cl4 Tm0 2.777485 1_555
Cl4 Tm2 2.840643 1_555
Cl4 Tm3 2.855498 1_555
Cl5 Tm1 2.557769 1_554
Cl5 Tm3 2.557769 1_555
Cl5 Tm2 2.649683 1_645
Cl5 Tm0 2.649683 1_645
Cl6 Li1 2.414569 1_655
Cl6 Tm3 2.764348 1_565
Cl6 Li0 2.811574 1_565
Cl6 Tm0 3.172127 1_655
Cl7 Li0 2.718518 1_565
Cl7 Tm2 2.777485 1_555
Cl7 Tm0 2.840643 1_555
Cl7 Tm1 2.855498 1_554
Cl8 Li1 2.414569 1_555
Cl8 Tm2 2.764348 1_545
Cl8 Li0 2.811574 1_556
Cl8 Tm1 3.172127 1_455
Cl9 Li0 2.718518 1_556
Cl9 Tm3 2.777485 1_555
Cl9 Tm1 2.840643 1_555
Cl9 Tm0 2.855498 1_556
