# generated using pymatgen
data_U3Si
_symmetry_space_group_name_H-M   'P 1'
_cell_length_a   4.24041411
_cell_length_b   4.24054387
_cell_length_c   4.23951684
_cell_angle_alpha   90.00000000
_cell_angle_beta   90.00000000
_cell_angle_gamma   90.00000000
_symmetry_Int_Tables_number   1
_chemical_formula_structural   U3Si
_chemical_formula_sum   'U3 Si1'
_cell_volume   76.23355912
_cell_formula_units_Z   1
loop_
 _symmetry_equiv_pos_site_id
 _symmetry_equiv_pos_as_xyz
  1  'x, y, z'
loop_
 _atom_site_type_symbol
 _atom_site_label
 _atom_site_symmetry_multiplicity
 _atom_site_fract_x
 _atom_site_fract_y
 _atom_site_fract_z
 _atom_site_occupancy
  U  U0  1  0.50000000  0.50000000  -0.00000000  1
  U  U1  1  0.50000000  0.00000000  0.50000000  1
  U  U2  1  -0.00000000  0.50000000  0.50000000  1
  Si  Si0  1  -0.00000000  0.00000000  -0.00000000  1
loop_
_geom_bond_atom_site_label_1
_geom_bond_atom_site_label_2
_geom_bond_distance
_geom_bond_site_symmetry_2
U0 U2 2.998108 1_554
U0 U2 2.998108 1_655
U0 U2 2.998108 1_654
U0 U2 2.998108 1_555
U0 U1 2.998154 1_565
U0 U1 2.998154 1_564
U0 U1 2.998154 1_555
U0 U1 2.998154 1_554
U1 U2 2.998471 1_645
U1 U2 2.998471 1_555
U1 U2 2.998471 1_655
U1 U2 2.998471 1_545
Si0 U1 2.998108 1_554
Si0 U1 2.998108 1_555
Si0 U1 2.998108 1_455
Si0 U1 2.998108 1_454
Si0 U2 2.998154 1_555
Si0 U2 2.998154 1_554
Si0 U2 2.998154 1_544
Si0 U2 2.998154 1_545
Si0 U0 2.998471 1_445
Si0 U0 2.998471 1_455
Si0 U0 2.998471 1_545
Si0 U0 2.998471 1_555
