# generated using pymatgen
data_CsCu2F5
_symmetry_space_group_name_H-M   'P 1'
_cell_length_a   7.35650340
_cell_length_b   7.11505772
_cell_length_c   11.04577205
_cell_angle_alpha   57.89490029
_cell_angle_beta   90.02090545
_cell_angle_gamma   89.98623495
_symmetry_Int_Tables_number   1
_chemical_formula_structural   CsCu2F5
_chemical_formula_sum   'Cs4 Cu8 F20'
_cell_volume   489.74220026
_cell_formula_units_Z   4
loop_
 _symmetry_equiv_pos_site_id
 _symmetry_equiv_pos_as_xyz
  1  'x, y, z'
loop_
 _atom_site_type_symbol
 _atom_site_label
 _atom_site_symmetry_multiplicity
 _atom_site_fract_x
 _atom_site_fract_y
 _atom_site_fract_z
 _atom_site_occupancy
  Cs  Cs0  1  0.47362859  0.37674593  0.88084114  1
  Cs  Cs1  1  0.02632910  0.37671491  0.38088681  1
  Cs  Cs2  1  0.52637141  0.62325407  0.11915886  1
  Cs  Cs3  1  0.97367090  0.62328509  0.61911319  1
  Cu  Cu0  1  0.22999499  0.00261516  0.76300350  1
  Cu  Cu1  1  0.77000501  0.99738484  0.23699650  1
  Cu  Cu2  1  0.50000000  0.50000000  0.50000000  1
  Cu  Cu3  1  0.27015656  0.00253303  0.26299723  1
  Cu  Cu4  1  0.72984344  0.99746697  0.73700277  1
  Cu  Cu5  1  0.00000000  -0.00000000  -0.00000000  1
  Cu  Cu6  1  0.50000000  -0.00000000  0.50000000  1
  Cu  Cu7  1  0.00000000  0.50000000  -0.00000000  1
  F  F0  1  0.27950750  0.30560835  0.65253279  1
  F  F1  1  0.47444019  0.92313154  0.74233932  1
  F  F2  1  0.72049250  0.69439165  0.34746721  1
  F  F3  1  0.82448139  0.30454353  0.14471103  1
  F  F4  1  0.25063575  0.97897989  0.47140144  1
  F  F5  1  0.52555981  0.07686846  0.25766068  1
  F  F6  1  0.75068857  0.02093831  0.02848971  1
  F  F7  1  0.02803540  0.31142274  0.92597730  1
  F  F8  1  0.47179751  0.31151633  0.42604552  1
  F  F9  1  0.97451184  0.07712079  0.75737471  1
  F  F10  1  0.67527440  0.30450185  0.64489110  1
  F  F11  1  0.02548816  0.92287921  0.24262529  1
  F  F12  1  0.97196460  0.68857726  0.07402270  1
  F  F13  1  0.24931143  0.97906169  0.97151029  1
  F  F14  1  0.52820249  0.68848367  0.57395448  1
  F  F15  1  0.77940218  0.69468114  0.84746602  1
  F  F16  1  0.22059782  0.30531886  0.15253398  1
  F  F17  1  0.74936425  0.02102011  0.52859856  1
  F  F18  1  0.32472560  0.69549815  0.35510890  1
  F  F19  1  0.17551861  0.69545647  0.85528897  1
loop_
_geom_bond_atom_site_label_1
_geom_bond_atom_site_label_2
_geom_bond_distance
_geom_bond_site_symmetry_2
Cs0 F14 2.929341 1_555
Cs0 F13 2.953596 1_545
Cs0 F6 2.971438 1_556
Cs0 F19 3.057477 1_555
Cs0 F15 3.070773 1_555
Cs0 F0 3.163811 1_555
Cs0 F10 3.268594 1_555
Cs0 F7 3.311425 1_555
Cs0 F16 3.333598 1_556
Cs0 F1 3.336447 1_555
Cs0 F5 3.547034 1_556
Cs1 F12 2.928585 1_455
Cs1 F4 2.952957 1_545
Cs1 F17 2.972226 1_455
Cs1 F18 3.059526 1_555
Cs1 F2 3.068749 1_455
Cs1 F16 3.166529 1_555
Cs1 F3 3.270413 1_455
Cs1 F8 3.309901 1_555
Cs1 F0 3.333165 1_555
Cs1 F11 3.335418 1_555
Cs1 F9 3.544298 1_455
Cs2 F8 2.929341 1_555
Cs2 F6 2.953596 1_565
Cs2 F13 2.971438 1_554
Cs2 F3 3.057477 1_555
Cs2 F16 3.070773 1_555
Cs2 F2 3.163811 1_555
Cs2 F18 3.268594 1_555
Cs2 F12 3.311425 1_555
Cs2 F15 3.333598 1_554
Cs2 F5 3.336447 1_555
Cs2 F1 3.547034 1_554
Cs3 F7 2.928585 1_655
Cs3 F17 2.952957 1_565
Cs3 F4 2.972226 1_655
Cs3 F10 3.059526 1_555
Cs3 F0 3.068749 1_655
Cs3 F15 3.166529 1_555
Cs3 F19 3.270413 1_655
Cs3 F14 3.309901 1_555
Cs3 F2 3.333165 1_555
Cs3 F9 3.335418 1_555
Cs3 F11 3.544298 1_655
Cu0 F0 1.863783 1_555
Cu0 F19 1.899637 1_545
Cu0 F1 1.934603 1_545
Cu0 F9 1.944651 1_455
Cu0 F13 2.223088 1_545
Cu1 F2 1.863783 1_555
Cu1 F3 1.899637 1_565
Cu1 F5 1.934603 1_565
Cu1 F11 1.944651 1_655
Cu1 F6 2.223088 1_565
Cu2 F8 1.916583 1_555
Cu2 F14 1.916583 1_555
Cu2 F10 1.946821 1_555
Cu2 F18 1.946821 1_555
Cu2 F2 2.215582 1_555
Cu2 F0 2.215582 1_555
Cu3 F16 1.862277 1_555
Cu3 F18 1.898785 1_545
Cu3 F11 1.935779 1_545
Cu3 F5 1.944428 1_555
Cu3 F4 2.222170 1_545
Cu4 F15 1.862277 1_555
Cu4 F10 1.898785 1_565
Cu4 F9 1.935779 1_565
Cu4 F1 1.944428 1_555
Cu4 F17 2.222170 1_565
Cu5 F6 1.880193 1_455
Cu5 F13 1.880193 1_544
Cu5 F12 1.922337 1_445
Cu5 F7 1.922337 1_554
Cu5 F9 2.440291 1_454
Cu5 F11 2.440291 1_545
Cu6 F4 1.880768 1_545
Cu6 F17 1.880768 1_555
Cu6 F14 1.923049 1_545
Cu6 F8 1.923049 1_555
Cu6 F5 2.438055 1_555
Cu6 F1 2.438055 1_545
Cu7 F12 1.917663 1_455
Cu7 F7 1.917663 1_554
Cu7 F19 1.948267 1_554
Cu7 F3 1.948267 1_455
Cu7 F15 2.215222 1_454
Cu7 F16 2.215222 1_555
