# generated using pymatgen
data_Gd2Ni17
_symmetry_space_group_name_H-M   'P 1'
_cell_length_a   8.29000308
_cell_length_b   8.29000308
_cell_length_c   8.01101300
_cell_angle_alpha   90.00000000
_cell_angle_beta   90.00000000
_cell_angle_gamma   119.99999266
_symmetry_Int_Tables_number   1
_chemical_formula_structural   Gd2Ni17
_chemical_formula_sum   'Gd4 Ni34'
_cell_volume   476.79037993
_cell_formula_units_Z   2
loop_
 _symmetry_equiv_pos_site_id
 _symmetry_equiv_pos_as_xyz
  1  'x, y, z'
loop_
 _atom_site_type_symbol
 _atom_site_label
 _atom_site_symmetry_multiplicity
 _atom_site_fract_x
 _atom_site_fract_y
 _atom_site_fract_z
 _atom_site_occupancy
  Gd  Gd0  1  0.00000000  0.00000000  0.25000000  1
  Gd  Gd1  1  0.00000000  0.00000000  0.75000000  1
  Gd  Gd2  1  0.66666700  0.33333300  0.25000000  1
  Gd  Gd3  1  0.33333300  0.66666700  0.75000000  1
  Ni  Ni0  1  0.04388900  0.67204000  0.25000000  1
  Ni  Ni1  1  0.33173400  0.16586700  0.02052400  1
  Ni  Ni2  1  0.83413300  0.66826600  0.02052400  1
  Ni  Ni3  1  0.50000000  0.00000000  0.00000000  1
  Ni  Ni4  1  0.66666700  0.33333300  0.60228500  1
  Ni  Ni5  1  0.16586700  0.83413300  0.52052400  1
  Ni  Ni6  1  0.67204000  0.04388900  0.75000000  1
  Ni  Ni7  1  0.37184900  0.32796000  0.75000000  1
  Ni  Ni8  1  0.95611100  0.62815100  0.75000000  1
  Ni  Ni9  1  0.16586700  0.33173400  0.97947600  1
  Ni  Ni10  1  0.33333300  0.66666700  0.39771500  1
  Ni  Ni11  1  0.66826600  0.83413300  0.52052400  1
  Ni  Ni12  1  0.16586700  0.83413300  0.97947600  1
  Ni  Ni13  1  0.32796000  0.95611100  0.25000000  1
  Ni  Ni14  1  0.00000000  0.50000000  0.50000000  1
  Ni  Ni15  1  0.83413300  0.66826600  0.47947600  1
  Ni  Ni16  1  0.37184900  0.04388900  0.75000000  1
  Ni  Ni17  1  0.33333300  0.66666700  0.10228500  1
  Ni  Ni18  1  0.95611100  0.32796000  0.75000000  1
  Ni  Ni19  1  0.66826600  0.83413300  0.97947600  1
  Ni  Ni20  1  0.62815100  0.67204000  0.25000000  1
  Ni  Ni21  1  0.16586700  0.33173400  0.52052400  1
  Ni  Ni22  1  0.00000000  0.50000000  0.00000000  1
  Ni  Ni23  1  0.83413300  0.16586700  0.47947600  1
  Ni  Ni24  1  0.67204000  0.62815100  0.75000000  1
  Ni  Ni25  1  0.62815100  0.95611100  0.25000000  1
  Ni  Ni26  1  0.83413300  0.16586700  0.02052400  1
  Ni  Ni27  1  0.33173400  0.16586700  0.47947600  1
  Ni  Ni28  1  0.66666700  0.33333300  0.89771500  1
  Ni  Ni29  1  0.04388900  0.37184900  0.25000000  1
  Ni  Ni30  1  0.32796000  0.37184900  0.25000000  1
  Ni  Ni31  1  0.50000000  0.50000000  0.00000000  1
  Ni  Ni32  1  0.50000000  0.00000000  0.50000000  1
  Ni  Ni33  1  0.50000000  0.50000000  0.50000000  1
loop_
_geom_bond_atom_site_label_1
_geom_bond_atom_site_label_2
_geom_bond_distance
_geom_bond_site_symmetry_2
Gd0 Ni0 2.917773 1_545
Gd0 Ni13 2.917773 1_545
Gd0 Ni25 2.917773 1_445
Gd0 Ni29 2.917773 1_555
Gd0 Ni20 2.917773 1_445
Gd0 Ni30 2.917773 1_555
Gd0 Ni23 3.008598 1_455
Gd0 Ni26 3.008598 1_455
Gd0 Ni27 3.008599 1_555
Gd0 Ni1 3.008599 1_555
Gd0 Ni15 3.008599 1_445
Gd0 Ni2 3.008599 1_445
Gd0 Ni5 3.220065 1_545
Gd0 Ni12 3.220065 1_544
Gd0 Ni21 3.220065 1_555
Gd0 Ni9 3.220065 1_554
Gd0 Ni11 3.220065 1_445
Gd0 Ni19 3.220065 1_444
Gd1 Ni6 2.917773 1_455
Gd1 Ni18 2.917773 1_455
Gd1 Ni8 2.917773 1_445
Gd1 Ni16 2.917773 1_555
Gd1 Ni24 2.917773 1_445
Gd1 Ni7 2.917773 1_555
Gd1 Ni12 3.008598 1_545
Gd1 Ni5 3.008598 1_545
Gd1 Ni9 3.008599 1_555
Gd1 Ni21 3.008599 1_555
Gd1 Ni19 3.008599 1_445
Gd1 Ni11 3.008599 1_445
Gd1 Ni26 3.220065 1_456
Gd1 Ni23 3.220065 1_455
Gd1 Ni1 3.220065 1_556
Gd1 Ni2 3.220065 1_446
Gd1 Ni27 3.220065 1_555
Gd1 Ni15 3.220065 1_445
Gd2 Ni4 2.822160 1_555
Gd2 Ni28 2.822160 1_554
Gd2 Ni29 2.980378 1_655
Gd2 Ni25 2.980378 1_545
Gd2 Ni0 2.980382 1_655
Gd2 Ni13 2.980382 1_545
Gd2 Ni30 2.980386 1_555
Gd2 Ni20 2.980386 1_555
Gd2 Ni23 3.026806 1_555
Gd2 Ni26 3.026806 1_555
Gd2 Ni15 3.026812 1_555
Gd2 Ni2 3.026812 1_555
Gd2 Ni27 3.026812 1_555
Gd2 Ni1 3.026812 1_555
Gd2 Ni22 3.120580 1_655
Gd2 Ni14 3.120580 1_655
Gd2 Ni3 3.120580 1_555
Gd2 Ni32 3.120580 1_555
Gd2 Ni31 3.120586 1_555
Gd2 Ni33 3.120586 1_555
Gd3 Ni17 2.822160 1_556
Gd3 Ni10 2.822160 1_555
Gd3 Ni16 2.980378 1_565
Gd3 Ni8 2.980378 1_455
Gd3 Ni6 2.980382 1_565
Gd3 Ni18 2.980382 1_455
Gd3 Ni7 2.980386 1_555
Gd3 Ni24 2.980386 1_555
Gd3 Ni12 3.026806 1_555
Gd3 Ni5 3.026806 1_555
Gd3 Ni19 3.026812 1_555
Gd3 Ni11 3.026812 1_555
Gd3 Ni9 3.026812 1_555
Gd3 Ni21 3.026812 1_555
Gd3 Ni22 3.120580 1_556
Gd3 Ni14 3.120580 1_555
Gd3 Ni3 3.120580 1_566
Gd3 Ni32 3.120580 1_565
Gd3 Ni33 3.120586 1_555
Gd3 Ni31 3.120586 1_556
Ni0 Ni13 2.354950 1_555
Ni0 Ni14 2.378775 1_555
Ni0 Ni22 2.378775 1_555
Ni0 Ni5 2.483148 1_555
Ni0 Ni12 2.483148 1_554
Ni0 Ni29 2.488584 1_555
Ni0 Ni15 2.519871 1_455
Ni0 Ni2 2.519871 1_455
Ni0 Ni17 2.695688 1_555
Ni0 Ni10 2.695688 1_555
Ni1 Ni9 2.404230 1_554
Ni1 Ni12 2.404230 1_544
Ni1 Ni3 2.404507 1_555
Ni1 Ni31 2.404508 1_555
Ni1 Ni16 2.483148 1_554
Ni1 Ni7 2.483148 1_554
Ni1 Ni30 2.519871 1_555
Ni1 Ni13 2.519871 1_545
Ni1 Ni28 2.598081 1_554
Ni2 Ni22 2.404507 1_655
Ni2 Ni31 2.404508 1_555
Ni2 Ni8 2.483148 1_554
Ni2 Ni24 2.483148 1_554
Ni2 Ni20 2.519871 1_555
Ni2 Ni28 2.598081 1_554
Ni3 Ni6 2.378775 1_554
Ni4 Ni6 2.695688 1_555
Ni4 Ni8 2.695692 1_555
Ni4 Ni7 2.695695 1_555
Ni5 Ni8 2.519871 1_455
Ni7 Ni9 2.519871 1_555
Ni10 Ni17 2.366694 1_555
Ni10 Ni32 2.529512 1_565
Ni10 Ni14 2.529512 1_555
Ni10 Ni33 2.529518 1_555
Ni10 Ni5 2.598074 1_555
Ni10 Ni11 2.598081 1_555
Ni10 Ni21 2.598081 1_555
Ni10 Ni13 2.695688 1_555
Ni10 Ni25 2.695692 1_555
Ni10 Ni29 2.695692 1_555
Ni10 Ni30 2.695695 1_555
Ni10 Ni20 2.695695 1_555
Ni11 Ni15 2.404230 1_555
Ni11 Ni23 2.404230 1_565
Ni11 Ni32 2.404507 1_565
Ni11 Ni33 2.404508 1_555
Ni11 Ni25 2.483148 1_555
Ni11 Ni20 2.483148 1_555
Ni11 Ni24 2.519871 1_555
Ni11 Ni6 2.519871 1_565
Ni12 Ni2 2.404230 1_456
Ni12 Ni3 2.404508 1_566
Ni12 Ni22 2.404508 1_556
Ni12 Ni13 2.483148 1_556
Ni12 Ni16 2.519871 1_565
Ni12 Ni8 2.519871 1_455
Ni12 Ni17 2.598074 1_556
Ni13 Ni3 2.378775 1_565
Ni13 Ni32 2.378775 1_565
Ni13 Ni5 2.483148 1_555
Ni13 Ni25 2.488584 1_555
Ni13 Ni27 2.519871 1_565
Ni13 Ni17 2.695688 1_555
Ni14 Ni29 2.378774 1_555
Ni14 Ni8 2.378774 1_455
Ni14 Ni18 2.378775 1_455
Ni14 Ni15 2.404507 1_455
Ni14 Ni21 2.404507 1_555
Ni14 Ni5 2.404508 1_555
Ni14 Ni23 2.404508 1_455
Ni14 Ni4 2.529512 1_455
Ni15 Ni5 2.404230 1_655
Ni15 Ni33 2.404508 1_555
Ni15 Ni8 2.483148 1_555
Ni15 Ni24 2.483148 1_555
Ni15 Ni20 2.519871 1_555
Ni15 Ni4 2.598081 1_555
Ni16 Ni7 2.354949 1_555
Ni16 Ni3 2.378774 1_556
Ni16 Ni32 2.378774 1_555
Ni16 Ni27 2.483148 1_555
Ni16 Ni6 2.488584 1_555
Ni16 Ni5 2.519871 1_545
Ni16 Ni28 2.695692 1_555
Ni16 Ni4 2.695692 1_555
Ni17 Ni3 2.529512 1_565
Ni17 Ni22 2.529512 1_555
Ni17 Ni31 2.529518 1_555
Ni17 Ni19 2.598081 1_554
Ni17 Ni9 2.598081 1_554
Ni17 Ni25 2.695692 1_555
Ni17 Ni29 2.695692 1_555
Ni17 Ni30 2.695695 1_555
Ni17 Ni20 2.695695 1_555
Ni18 Ni6 2.354950 1_555
Ni18 Ni22 2.378775 1_656
Ni18 Ni26 2.483148 1_556
Ni18 Ni23 2.483148 1_555
Ni18 Ni8 2.488584 1_555
Ni18 Ni9 2.519871 1_655
Ni18 Ni21 2.519871 1_655
Ni18 Ni28 2.695688 1_555
Ni18 Ni4 2.695688 1_555
Ni19 Ni2 2.404230 1_556
Ni19 Ni26 2.404230 1_566
Ni19 Ni3 2.404507 1_566
Ni19 Ni31 2.404508 1_556
Ni19 Ni25 2.483148 1_556
Ni19 Ni20 2.483148 1_556
Ni19 Ni24 2.519871 1_555
Ni19 Ni6 2.519871 1_565
Ni20 Ni25 2.354949 1_555
Ni20 Ni31 2.378775 1_555
Ni20 Ni33 2.378775 1_555
Ni20 Ni30 2.488585 1_555
Ni21 Ni27 2.404230 1_555
Ni21 Ni23 2.404230 1_455
Ni21 Ni33 2.404508 1_555
Ni21 Ni29 2.483148 1_555
Ni21 Ni30 2.483148 1_555
Ni21 Ni7 2.519871 1_555
Ni22 Ni29 2.378774 1_555
Ni22 Ni8 2.378774 1_454
Ni22 Ni9 2.404507 1_554
Ni22 Ni26 2.404508 1_455
Ni22 Ni28 2.529512 1_454
Ni23 Ni32 2.404508 1_555
Ni23 Ni6 2.483148 1_555
Ni23 Ni29 2.519871 1_655
Ni23 Ni25 2.519871 1_545
Ni23 Ni4 2.598074 1_555
Ni24 Ni8 2.354949 1_555
Ni24 Ni31 2.378775 1_556
Ni24 Ni33 2.378775 1_555
Ni24 Ni7 2.488585 1_555
Ni24 Ni28 2.695695 1_555
Ni24 Ni4 2.695695 1_555
Ni25 Ni3 2.378774 1_565
Ni25 Ni32 2.378774 1_565
Ni25 Ni26 2.519871 1_565
Ni26 Ni9 2.404230 1_654
Ni26 Ni3 2.404508 1_555
Ni26 Ni6 2.483148 1_554
Ni26 Ni29 2.519871 1_655
Ni26 Ni28 2.598074 1_554
Ni27 Ni5 2.404230 1_545
Ni27 Ni32 2.404507 1_555
Ni27 Ni33 2.404508 1_555
Ni27 Ni7 2.483148 1_555
Ni27 Ni30 2.519871 1_555
Ni27 Ni4 2.598081 1_555
Ni28 Ni4 2.366694 1_555
Ni28 Ni3 2.529512 1_556
Ni28 Ni31 2.529518 1_556
Ni28 Ni6 2.695688 1_555
Ni28 Ni8 2.695692 1_555
Ni28 Ni7 2.695695 1_555
Ni29 Ni30 2.354949 1_555
Ni29 Ni9 2.483148 1_554
Ni30 Ni33 2.378775 1_555
Ni30 Ni31 2.378775 1_555
Ni30 Ni9 2.483148 1_554
Ni31 Ni7 2.378775 1_554
Ni31 Ni9 2.404508 1_554
Ni32 Ni6 2.378775 1_555
Ni32 Ni5 2.404508 1_545
Ni32 Ni4 2.529512 1_555
Ni33 Ni7 2.378775 1_555
Ni33 Ni4 2.529518 1_555
