# generated using pymatgen
data_LiMo2AsO9
_symmetry_space_group_name_H-M   'P 1'
_cell_length_a   5.54373800
_cell_length_b   7.72934100
_cell_length_c   9.10571900
_cell_angle_alpha   90.00000000
_cell_angle_beta   90.00000000
_cell_angle_gamma   90.00000000
_symmetry_Int_Tables_number   1
_chemical_formula_structural   LiMo2AsO9
_chemical_formula_sum   'Li2 Mo4 As2 O18'
_cell_volume   390.17497285
_cell_formula_units_Z   2
loop_
 _symmetry_equiv_pos_site_id
 _symmetry_equiv_pos_as_xyz
  1  'x, y, z'
loop_
 _atom_site_type_symbol
 _atom_site_label
 _atom_site_symmetry_multiplicity
 _atom_site_fract_x
 _atom_site_fract_y
 _atom_site_fract_z
 _atom_site_occupancy
  Li  Li0  1  0.00000000  0.50000000  0.39380300  1
  Li  Li1  1  0.50000000  0.00000000  0.60619700  1
  Mo  Mo0  1  0.50000000  0.20971700  0.25922500  1
  Mo  Mo1  1  0.50000000  0.79028300  0.25922500  1
  Mo  Mo2  1  0.00000000  0.70971700  0.74077500  1
  Mo  Mo3  1  0.00000000  0.29028300  0.74077500  1
  As  As0  1  0.00000000  0.00000000  0.04250200  1
  As  As1  1  0.50000000  0.50000000  0.95749800  1
  O  O0  1  0.00000000  0.81141800  0.94138900  1
  O  O1  1  0.25564500  0.31783900  0.33344300  1
  O  O2  1  0.75564500  0.18216100  0.66655700  1
  O  O3  1  0.24435500  0.81783900  0.66655700  1
  O  O4  1  0.00000000  0.18858200  0.94138900  1
  O  O5  1  0.75564500  0.81783900  0.66655700  1
  O  O6  1  0.74435500  0.68216100  0.33344300  1
  O  O7  1  0.24435500  0.18216100  0.66655700  1
  O  O8  1  0.24202000  0.50000000  0.85492400  1
  O  O9  1  0.25798000  0.00000000  0.14507600  1
  O  O10  1  0.50000000  0.00000000  0.38065200  1
  O  O11  1  0.74435500  0.31783900  0.33344300  1
  O  O12  1  0.50000000  0.68858200  0.05861100  1
  O  O13  1  0.50000000  0.31141800  0.05861100  1
  O  O14  1  0.75798000  0.50000000  0.85492400  1
  O  O15  1  0.00000000  0.50000000  0.61934800  1
  O  O16  1  0.25564500  0.68216100  0.33344300  1
  O  O17  1  0.74202000  0.00000000  0.14507600  1
loop_
_geom_bond_atom_site_label_1
_geom_bond_atom_site_label_2
_geom_bond_distance
_geom_bond_site_symmetry_2
Li0 O15 2.053749 1_555
Li0 O16 2.071966 1_555
Li0 O1 2.071966 1_555
Li0 O11 2.071966 1_455
Li0 O6 2.071966 1_455
Li1 O10 2.053749 1_555
Li1 O5 2.071966 1_545
Li1 O7 2.071966 1_555
Li1 O3 2.071966 1_545
Li1 O2 2.071966 1_555
Mo0 O1 1.729214 1_555
Mo0 O11 1.729214 1_555
Mo0 O10 1.962164 1_555
Mo0 O13 1.988689 1_555
Mo0 O9 2.346929 1_555
Mo0 O17 2.346929 1_555
Mo1 O6 1.729214 1_555
Mo1 O16 1.729214 1_555
Mo1 O10 1.962164 1_565
Mo1 O12 1.988689 1_555
Mo1 O17 2.346929 1_565
Mo1 O9 2.346929 1_565
Mo2 O3 1.729214 1_555
Mo2 O5 1.729214 1_455
Mo2 O15 1.962164 1_555
Mo2 O0 1.988689 1_555
Mo2 O14 2.346929 1_455
Mo2 O8 2.346929 1_555
Mo3 O7 1.729214 1_555
Mo3 O2 1.729214 1_455
Mo3 O15 1.962164 1_555
Mo3 O4 1.988689 1_555
Mo3 O14 2.346929 1_455
Mo3 O8 2.346929 1_555
As0 O17 1.708148 1_455
As0 O9 1.708148 1_555
As0 O4 1.724048 1_554
As0 O0 1.724048 1_544
As1 O8 1.708148 1_555
As1 O14 1.708148 1_555
As1 O12 1.724048 1_556
As1 O13 1.724048 1_556
