# generated using pymatgen
data_Zn53Ni16
_symmetry_space_group_name_H-M   'P 1'
_cell_length_a   7.67902797
_cell_length_b   7.67902797
_cell_length_c   33.32697800
_cell_angle_alpha   90.00000000
_cell_angle_beta   90.00000000
_cell_angle_gamma   109.26496491
_symmetry_Int_Tables_number   1
_chemical_formula_structural   Zn53Ni16
_chemical_formula_sum   'Zn106 Ni32'
_cell_volume   1855.16162243
_cell_formula_units_Z   2
loop_
 _symmetry_equiv_pos_site_id
 _symmetry_equiv_pos_as_xyz
  1  'x, y, z'
loop_
 _atom_site_type_symbol
 _atom_site_label
 _atom_site_symmetry_multiplicity
 _atom_site_fract_x
 _atom_site_fract_y
 _atom_site_fract_z
 _atom_site_occupancy
  Zn  Zn0  1  0.26502600  0.91357200  0.22284200  1
  Zn  Zn1  1  0.91966000  0.27526800  0.60155300  1
  Zn  Zn2  1  0.53445300  0.53445300  0.07639600  1
  Zn  Zn3  1  0.97469000  0.97469000  0.11369600  1
  Zn  Zn4  1  0.28849600  0.93078500  0.70818400  1
  Zn  Zn5  1  0.95189200  0.95189200  0.34638800  1
  Zn  Zn6  1  0.96058100  0.96058100  0.72815800  1
  Zn  Zn7  1  0.56637700  0.19473800  0.47656300  1
  Zn  Zn8  1  0.40113800  0.16058700  0.28028200  1
  Zn  Zn9  1  0.18838700  0.41210200  0.65401100  1
  Zn  Zn10  1  0.08370200  0.72755800  0.91421600  1
  Zn  Zn11  1  0.69473800  0.06637700  0.02343700  1
  Zn  Zn12  1  0.00000000  0.00000000  0.50000000  1
  Zn  Zn13  1  0.44214200  0.81287300  0.15734400  1
  Zn  Zn14  1  0.56921500  0.21150400  0.20818400  1
  Zn  Zn15  1  0.63491500  0.88544200  0.09173700  1
  Zn  Zn16  1  0.03445300  0.03445300  0.42360400  1
  Zn  Zn17  1  0.58034000  0.22473200  0.10155300  1
  Zn  Zn18  1  0.08642800  0.73497400  0.77715800  1
  Zn  Zn19  1  0.27244200  0.91629800  0.08578400  1
  Zn  Zn20  1  0.93362300  0.30526200  0.97656300  1
  Zn  Zn21  1  0.44968100  0.44968100  0.53599200  1
  Zn  Zn22  1  0.04810800  0.04810800  0.65361200  1
  Zn  Zn23  1  0.77244200  0.41629800  0.41421600  1
  Zn  Zn24  1  0.53941900  0.53941900  0.22815800  1
  Zn  Zn25  1  0.77526800  0.41966000  0.89844700  1
  Zn  Zn26  1  0.93078500  0.28849600  0.70818400  1
  Zn  Zn27  1  0.94968100  0.94968100  0.96400800  1
  Zn  Zn28  1  0.66058700  0.90113800  0.21971800  1
  Zn  Zn29  1  0.18712700  0.55785800  0.84265600  1
  Zn  Zn30  1  0.55031900  0.55031900  0.46400800  1
  Zn  Zn31  1  0.11455800  0.36508500  0.90826300  1
  Zn  Zn32  1  0.55785800  0.18712700  0.84265600  1
  Zn  Zn33  1  0.08497300  0.31843500  0.53185000  1
  Zn  Zn34  1  0.58497300  0.81843500  0.96815000  1
  Zn  Zn35  1  0.78849600  0.43078500  0.79181600  1
  Zn  Zn36  1  0.41210200  0.18838700  0.65401100  1
  Zn  Zn37  1  0.36508500  0.11455800  0.90826300  1
  Zn  Zn38  1  0.48695200  0.48695200  0.30942100  1
  Zn  Zn39  1  0.59886200  0.83941300  0.71971800  1
  Zn  Zn40  1  0.18156500  0.41502700  0.03185000  1
  Zn  Zn41  1  0.68712700  0.05785800  0.65734400  1
  Zn  Zn42  1  0.73497400  0.08642800  0.77715800  1
  Zn  Zn43  1  0.91502700  0.68156500  0.46815000  1
  Zn  Zn44  1  0.58370200  0.22755800  0.58578400  1
  Zn  Zn45  1  0.43362300  0.80526200  0.52343700  1
  Zn  Zn46  1  0.16058700  0.40113800  0.28028200  1
  Zn  Zn47  1  0.45189200  0.45189200  0.15361200  1
  Zn  Zn48  1  0.46058100  0.46058100  0.77184200  1
  Zn  Zn49  1  0.58642800  0.23497400  0.72284200  1
  Zn  Zn50  1  0.68838700  0.91210200  0.84598900  1
  Zn  Zn51  1  0.41966000  0.77526800  0.89844700  1
  Zn  Zn52  1  0.01304800  0.01304800  0.80942100  1
  Zn  Zn53  1  0.22755800  0.58370200  0.58578400  1
  Zn  Zn54  1  0.05785800  0.68712700  0.65734400  1
  Zn  Zn55  1  0.98695200  0.98695200  0.19057900  1
  Zn  Zn56  1  0.91210200  0.68838700  0.84598900  1
  Zn  Zn57  1  0.58789800  0.81161300  0.34598900  1
  Zn  Zn58  1  0.08789800  0.31161300  0.15401100  1
  Zn  Zn59  1  0.03941900  0.03941900  0.27184200  1
  Zn  Zn60  1  0.23497400  0.58642800  0.72284200  1
  Zn  Zn61  1  0.09886200  0.33941300  0.78028200  1
  Zn  Zn62  1  0.31287300  0.94214200  0.34265600  1
  Zn  Zn63  1  0.94214200  0.31287300  0.34265600  1
  Zn  Zn64  1  0.96554700  0.96554700  0.57639600  1
  Zn  Zn65  1  0.02531000  0.02531000  0.88630400  1
  Zn  Zn66  1  0.21150400  0.56921500  0.20818400  1
  Zn  Zn67  1  0.51304800  0.51304800  0.69057900  1
  Zn  Zn68  1  0.43078500  0.78849600  0.79181600  1
  Zn  Zn69  1  0.91357200  0.26502600  0.22284200  1
  Zn  Zn70  1  0.05031900  0.05031900  0.03599200  1
  Zn  Zn71  1  0.76502600  0.41357200  0.27715800  1
  Zn  Zn72  1  0.38544200  0.13491500  0.40826300  1
  Zn  Zn73  1  0.54810800  0.54810800  0.84638800  1
  Zn  Zn74  1  0.71150400  0.06921500  0.29181600  1
  Zn  Zn75  1  0.13491500  0.38544200  0.40826300  1
  Zn  Zn76  1  0.31843500  0.08497300  0.53185000  1
  Zn  Zn77  1  0.27526800  0.91966000  0.60155300  1
  Zn  Zn78  1  0.06637700  0.69473800  0.02343700  1
  Zn  Zn79  1  0.08034000  0.72473200  0.39844700  1
  Zn  Zn80  1  0.22473200  0.58034000  0.10155300  1
  Zn  Zn81  1  0.68156500  0.91502700  0.46815000  1
  Zn  Zn82  1  0.46554700  0.46554700  0.92360400  1
  Zn  Zn83  1  0.06921500  0.71150400  0.29181600  1
  Zn  Zn84  1  0.80526200  0.43362300  0.52343700  1
  Zn  Zn85  1  0.61455800  0.86508500  0.59173700  1
  Zn  Zn86  1  0.31161300  0.08789800  0.15401100  1
  Zn  Zn87  1  0.86508500  0.61455800  0.59173700  1
  Zn  Zn88  1  0.41502700  0.18156500  0.03185000  1
  Zn  Zn89  1  0.52531000  0.52531000  0.61369600  1
  Zn  Zn90  1  0.50000000  0.50000000  0.00000000  1
  Zn  Zn91  1  0.90113800  0.66058700  0.21971800  1
  Zn  Zn92  1  0.33941300  0.09886200  0.78028200  1
  Zn  Zn93  1  0.91629800  0.27244200  0.08578400  1
  Zn  Zn94  1  0.88544200  0.63491500  0.09173700  1
  Zn  Zn95  1  0.41357200  0.76502600  0.27715800  1
  Zn  Zn96  1  0.47469000  0.47469000  0.38630400  1
  Zn  Zn97  1  0.81287300  0.44214200  0.15734400  1
  Zn  Zn98  1  0.81843500  0.58497300  0.96815000  1
  Zn  Zn99  1  0.72755800  0.08370200  0.91421600  1
  Zn  Zn100  1  0.83941300  0.59886200  0.71971800  1
  Zn  Zn101  1  0.41629800  0.77244200  0.41421600  1
  Zn  Zn102  1  0.19473800  0.56637700  0.47656300  1
  Zn  Zn103  1  0.30526200  0.93362300  0.97656300  1
  Zn  Zn104  1  0.72473200  0.08034000  0.39844700  1
  Zn  Zn105  1  0.81161300  0.58789800  0.34598900  1
  Ni  Ni0  1  0.74418300  0.74418300  0.78142300  1
  Ni  Ni1  1  0.73347200  0.73347200  0.15619100  1
  Ni  Ni2  1  0.59146800  0.24100000  0.96523200  1
  Ni  Ni3  1  0.76833400  0.76833400  0.03034100  1
  Ni  Ni4  1  0.24100000  0.59146800  0.96523200  1
  Ni  Ni5  1  0.25900000  0.90853200  0.46523200  1
  Ni  Ni6  1  0.25391700  0.25391700  0.09238400  1
  Ni  Ni7  1  0.26652800  0.26652800  0.84380900  1
  Ni  Ni8  1  0.26833400  0.26833400  0.46965900  1
  Ni  Ni9  1  0.25581700  0.25581700  0.21857700  1
  Ni  Ni10  1  0.23166600  0.23166600  0.96965900  1
  Ni  Ni11  1  0.09496000  0.74135500  0.15468300  1
  Ni  Ni12  1  0.76652800  0.76652800  0.65619100  1
  Ni  Ni13  1  0.25864500  0.90504000  0.84531700  1
  Ni  Ni14  1  0.24418300  0.24418300  0.71857700  1
  Ni  Ni15  1  0.74135500  0.09496000  0.15468300  1
  Ni  Ni16  1  0.40504000  0.75864500  0.65468300  1
  Ni  Ni17  1  0.73166600  0.73166600  0.53034100  1
  Ni  Ni18  1  0.90853200  0.25900000  0.46523200  1
  Ni  Ni19  1  0.75864500  0.40504000  0.65468300  1
  Ni  Ni20  1  0.74608300  0.74608300  0.90761600  1
  Ni  Ni21  1  0.74100000  0.09146800  0.53476800  1
  Ni  Ni22  1  0.90504000  0.25864500  0.84531700  1
  Ni  Ni23  1  0.24608300  0.24608300  0.59238400  1
  Ni  Ni24  1  0.24135500  0.59496000  0.34531700  1
  Ni  Ni25  1  0.75900000  0.40853200  0.03476800  1
  Ni  Ni26  1  0.75581700  0.75581700  0.28142300  1
  Ni  Ni27  1  0.09146800  0.74100000  0.53476800  1
  Ni  Ni28  1  0.23347200  0.23347200  0.34380900  1
  Ni  Ni29  1  0.59496000  0.24135500  0.34531700  1
  Ni  Ni30  1  0.75391700  0.75391700  0.40761600  1
  Ni  Ni31  1  0.40853200  0.75900000  0.03476800  1
loop_
_geom_bond_atom_site_label_1
_geom_bond_atom_site_label_2
_geom_bond_distance
_geom_bond_site_symmetry_2
Zn0 Zn66 2.585124 1_555
Zn0 Zn95 2.595714 1_555
Zn0 Zn55 2.612908 1_455
Zn0 Zn86 2.620320 1_565
Zn0 Zn8 2.654569 1_565
Zn0 Zn14 2.720788 1_565
Zn0 Zn59 2.776108 1_565
Zn0 Zn13 2.811866 1_555
Zn0 Zn91 2.830353 1_455
Zn0 Zn83 2.900526 1_555
Zn0 Zn28 3.072115 1_555
Zn1 Zn44 2.538158 1_555
Zn1 Zn33 2.615335 1_655
Zn1 Zn9 2.643483 1_655
Zn1 Zn64 2.652674 1_545
Zn1 Zn41 2.732343 1_555
Zn1 Zn53 2.789408 1_655
Zn1 Zn87 2.791300 1_555
Zn1 Zn22 2.856780 1_655
Zn2 Zn90 2.564403 1_555
Zn2 Zn94 2.597861 1_555
Zn2 Zn80 2.652674 1_555
Zn2 Zn47 2.675989 1_555
Zn3 Zn55 2.564596 1_555
Zn3 Zn94 2.575447 1_555
Zn3 Zn93 2.640214 1_565
Zn3 Zn70 2.675487 1_665
Zn3 Zn86 2.787577 1_665
Zn3 Zn58 2.787577 1_665
Zn4 Zn60 2.585124 1_555
Zn4 Zn6 2.686322 1_455
Zn4 Zn49 2.720788 1_565
Zn5 Zn59 2.603384 1_665
Zn5 Zn57 2.643183 1_555
Zn5 Zn63 2.800342 1_565
Zn5 Zn62 2.800342 1_655
Zn5 Zn79 2.856780 1_655
Zn5 Zn74 2.936723 1_565
Zn5 Zn83 2.936723 1_655
Zn7 Zn76 2.582926 1_555
Zn7 Zn81 2.593880 1_545
Zn7 Zn72 2.627078 1_555
Zn7 Zn84 2.636275 1_555
Zn8 Zn95 3.072115 1_545
Zn10 Zn51 2.538158 1_555
Zn10 Zn56 2.595281 1_455
Zn10 Zn65 2.640214 1_565
Zn10 Zn98 2.665950 1_455
Zn10 Zn25 2.789408 1_455
Zn10 Zn27 2.807230 1_455
Zn10 Zn103 2.817704 1_555
Zn11 Zn34 2.582926 1_544
Zn11 Zn88 2.593880 1_555
Zn11 Zn15 2.627078 1_545
Zn11 Zn20 2.636275 1_554
Zn11 Zn70 2.805028 1_655
Zn11 Zn93 2.817704 1_555
Zn12 Zn76 2.545379 1_555
Zn12 Zn33 2.545379 1_555
Zn12 Zn81 2.545379 1_445
Zn12 Zn43 2.545379 1_445
Zn12 Zn16 2.564403 1_555
Zn12 Zn64 2.564403 1_445
Zn13 Zn86 2.621851 1_565
Zn13 Zn80 2.732343 1_555
Zn13 Zn47 2.800342 1_555
Zn14 Zn69 2.585124 1_555
Zn14 Zn86 2.614291 1_555
Zn14 Zn24 2.686322 1_555
Zn14 Zn71 2.900526 1_555
Zn14 Zn47 2.936723 1_555
Zn15 Zn3 2.575447 1_555
Zn15 Zn2 2.597861 1_555
Zn15 Zn17 2.791300 1_565
Zn16 Zn75 2.597861 1_555
Zn16 Zn72 2.597861 1_555
Zn16 Zn79 2.652674 1_545
Zn16 Zn5 2.675989 1_445
Zn17 Zn93 2.538158 1_555
Zn17 Zn88 2.615335 1_555
Zn17 Zn86 2.643483 1_555
Zn17 Zn2 2.652674 1_555
Zn17 Zn97 2.732343 1_555
Zn17 Zn19 2.789408 1_545
Zn17 Zn47 2.856780 1_555
Zn18 Zn68 2.585124 1_555
Zn18 Zn60 2.595714 1_555
Zn18 Zn52 2.612908 1_565
Zn18 Zn56 2.620320 1_455
Zn18 Zn35 2.720788 1_455
Zn18 Zn6 2.776108 1_455
Zn18 Zn29 2.811866 1_555
Zn18 Zn92 2.830353 1_565
Zn18 Zn4 2.900526 1_555
Zn18 Zn61 3.072115 1_555
Zn19 Zn80 2.538158 1_555
Zn19 Zn86 2.595281 1_565
Zn19 Zn3 2.640214 1_455
Zn19 Zn88 2.665950 1_565
Zn19 Zn70 2.807230 1_565
Zn19 Zn78 2.817704 1_555
Zn20 Zn40 2.582926 1_656
Zn20 Zn98 2.593880 1_555
Zn20 Zn31 2.627078 1_655
Zn20 Zn27 2.805028 1_545
Zn20 Zn99 2.817704 1_555
Zn21 Zn30 2.560390 1_555
Zn21 Zn76 2.648705 1_555
Zn21 Zn33 2.648705 1_555
Zn21 Zn89 2.675487 1_555
Zn21 Zn45 2.805028 1_555
Zn21 Zn84 2.805028 1_555
Zn21 Zn53 2.807230 1_555
Zn21 Zn44 2.807230 1_555
Zn22 Zn6 2.603384 1_445
Zn22 Zn36 2.643183 1_555
Zn22 Zn9 2.643183 1_555
Zn22 Zn64 2.675989 1_445
Zn22 Zn41 2.800342 1_455
Zn22 Zn54 2.800342 1_545
Zn22 Zn77 2.856780 1_545
Zn22 Zn26 2.936723 1_455
Zn22 Zn4 2.936723 1_545
Zn23 Zn96 2.640214 1_555
Zn23 Zn43 2.665950 1_555
Zn23 Zn79 2.789408 1_655
Zn23 Zn30 2.807230 1_555
Zn23 Zn7 2.817704 1_555
Zn24 Zn47 2.603384 1_555
Zn24 Zn91 2.637191 1_555
Zn24 Zn28 2.637191 1_555
Zn24 Zn66 2.686322 1_555
Zn24 Zn38 2.748118 1_555
Zn24 Zn71 2.776108 1_555
Zn24 Zn95 2.776108 1_555
Zn25 Zn99 2.538158 1_555
Zn25 Zn98 2.615335 1_555
Zn25 Zn56 2.643483 1_555
Zn25 Zn82 2.652674 1_555
Zn25 Zn32 2.732343 1_555
Zn25 Zn31 2.791300 1_655
Zn25 Zn73 2.856780 1_555
Zn26 Zn49 2.585124 1_555
Zn26 Zn9 2.614291 1_655
Zn26 Zn6 2.686322 1_545
Zn26 Zn60 2.720788 1_655
Zn26 Zn42 2.900526 1_555
Zn27 Zn70 2.560390 1_666
Zn27 Zn34 2.648705 1_555
Zn27 Zn98 2.648705 1_555
Zn27 Zn65 2.675487 1_665
Zn27 Zn99 2.807230 1_565
Zn28 Zn55 2.562889 1_555
Zn28 Zn95 2.654569 1_555
Zn28 Zn69 2.830353 1_565
Zn29 Zn56 2.621851 1_455
Zn29 Zn51 2.732343 1_555
Zn29 Zn73 2.800342 1_555
Zn30 Zn81 2.648705 1_555
Zn30 Zn43 2.648705 1_555
Zn30 Zn96 2.675487 1_555
Zn30 Zn7 2.805028 1_555
Zn31 Zn65 2.575447 1_555
Zn31 Zn82 2.597861 1_555
Zn32 Zn50 2.621851 1_545
Zn32 Zn73 2.800342 1_555
Zn32 Zn42 2.811866 1_555
Zn33 Zn84 2.593880 1_455
Zn33 Zn53 2.665950 1_555
Zn34 Zn90 2.545379 1_556
Zn34 Zn51 2.615335 1_555
Zn34 Zn99 2.665950 1_565
Zn35 Zn42 2.585124 1_555
Zn35 Zn56 2.614291 1_555
Zn35 Zn48 2.686322 1_555
Zn35 Zn49 2.900526 1_555
Zn35 Zn73 2.936723 1_555
Zn36 Zn44 2.595281 1_555
Zn36 Zn4 2.614291 1_545
Zn36 Zn49 2.620320 1_555
Zn36 Zn41 2.621851 1_555
Zn36 Zn77 2.643483 1_545
Zn36 Zn67 2.650722 1_555
Zn36 Zn89 2.787577 1_555
Zn36 Zn9 2.801766 1_555
Zn37 Zn65 2.575447 1_555
Zn37 Zn82 2.597861 1_555
Zn37 Zn51 2.791300 1_545
Zn38 Zn46 2.562889 1_555
Zn38 Zn8 2.562889 1_555
Zn38 Zn96 2.564596 1_555
Zn38 Zn95 2.612908 1_555
Zn38 Zn71 2.612908 1_555
Zn38 Zn57 2.650722 1_555
Zn39 Zn67 2.562889 1_555
Zn39 Zn6 2.637191 1_555
Zn39 Zn42 2.654569 1_565
Zn39 Zn60 2.830353 1_555
Zn39 Zn49 3.072115 1_565
Zn40 Zn90 2.545379 1_555
Zn40 Zn78 2.593880 1_555
Zn40 Zn80 2.615335 1_555
Zn40 Zn70 2.648705 1_555
Zn40 Zn93 2.665950 1_455
Zn41 Zn49 2.811866 1_555
Zn42 Zn49 2.595714 1_555
Zn42 Zn52 2.612908 1_655
Zn42 Zn50 2.620320 1_545
Zn42 Zn68 2.720788 1_545
Zn42 Zn6 2.776108 1_545
Zn42 Zn61 2.830353 1_655
Zn42 Zn92 3.072115 1_555
Zn43 Zn84 2.582926 1_555
Zn43 Zn79 2.615335 1_655
Zn44 Zn89 2.640214 1_555
Zn44 Zn76 2.665950 1_555
Zn44 Zn77 2.789408 1_545
Zn44 Zn84 2.817704 1_555
Zn45 Zn81 2.582926 1_555
Zn45 Zn76 2.593880 1_565
Zn45 Zn85 2.627078 1_555
Zn45 Zn53 2.817704 1_555
Zn46 Zn59 2.637191 1_555
Zn46 Zn69 2.654569 1_455
Zn46 Zn95 2.830353 1_555
Zn46 Zn71 3.072115 1_455
Zn47 Zn86 2.643183 1_555
Zn47 Zn58 2.643183 1_555
Zn47 Zn97 2.800342 1_555
Zn47 Zn80 2.856780 1_555
Zn47 Zn66 2.936723 1_555
Zn48 Zn73 2.603384 1_555
Zn48 Zn92 2.637191 1_555
Zn48 Zn61 2.637191 1_555
Zn48 Zn68 2.686322 1_555
Zn48 Zn67 2.748118 1_555
Zn48 Zn49 2.776108 1_555
Zn48 Zn60 2.776108 1_555
Zn49 Zn67 2.612908 1_555
Zn49 Zn92 2.654569 1_555
Zn50 Zn99 2.595281 1_565
Zn50 Zn68 2.614291 1_555
Zn50 Zn73 2.643183 1_555
Zn50 Zn51 2.643483 1_555
Zn50 Zn52 2.650722 1_665
Zn50 Zn65 2.787577 1_665
Zn50 Zn56 2.801766 1_555
Zn51 Zn82 2.652674 1_555
Zn51 Zn99 2.789408 1_565
Zn51 Zn73 2.856780 1_555
Zn52 Zn92 2.562889 1_555
Zn52 Zn61 2.562889 1_555
Zn52 Zn65 2.564596 1_555
Zn52 Zn56 2.650722 1_445
Zn52 Zn6 2.748118 1_445
Zn53 Zn77 2.538158 1_555
Zn53 Zn9 2.595281 1_555
Zn53 Zn89 2.640214 1_555
Zn54 Zn9 2.621851 1_555
Zn54 Zn77 2.732343 1_555
Zn54 Zn60 2.811866 1_555
Zn55 Zn91 2.562889 1_555
Zn55 Zn69 2.612908 1_565
Zn55 Zn86 2.650722 1_665
Zn55 Zn58 2.650722 1_665
Zn55 Zn59 2.748118 1_665
Zn56 Zn73 2.643183 1_555
Zn56 Zn65 2.787577 1_665
Zn57 Zn74 2.614291 1_565
Zn57 Zn95 2.620320 1_555
Zn57 Zn62 2.621851 1_555
Zn57 Zn96 2.787577 1_555
Zn58 Zn93 2.595281 1_455
Zn58 Zn66 2.614291 1_555
Zn58 Zn69 2.620320 1_455
Zn58 Zn97 2.621851 1_455
Zn58 Zn80 2.643483 1_555
Zn58 Zn86 2.801766 1_555
Zn59 Zn8 2.637191 1_555
Zn59 Zn83 2.686322 1_545
Zn59 Zn74 2.686322 1_455
Zn59 Zn69 2.776108 1_455
Zn60 Zn67 2.612908 1_555
Zn60 Zn9 2.620320 1_555
Zn60 Zn61 2.654569 1_555
Zn60 Zn68 2.900526 1_555
Zn62 Zn79 2.732343 1_555
Zn62 Zn95 2.811866 1_555
Zn63 Zn71 2.811866 1_555
Zn64 Zn85 2.597861 1_555
Zn64 Zn87 2.597861 1_555
Zn64 Zn77 2.652674 1_655
Zn65 Zn99 2.640214 1_455
Zn66 Zn69 2.720788 1_455
Zn66 Zn95 2.900526 1_555
Zn67 Zn89 2.564596 1_555
Zn67 Zn9 2.650722 1_555
Zn68 Zn73 2.936723 1_555
Zn69 Zn71 2.595714 1_555
Zn69 Zn97 2.811866 1_555
Zn69 Zn74 2.900526 1_555
Zn69 Zn91 3.072115 1_555
Zn70 Zn88 2.648705 1_555
Zn70 Zn78 2.805028 1_545
Zn70 Zn93 2.807230 1_455
Zn71 Zn74 2.585124 1_555
Zn71 Zn91 2.654569 1_555
Zn71 Zn83 2.720788 1_655
Zn71 Zn8 2.830353 1_555
Zn72 Zn96 2.575447 1_555
Zn73 Zn82 2.675989 1_555
Zn74 Zn95 2.720788 1_545
Zn75 Zn96 2.575447 1_555
Zn75 Zn79 2.791300 1_555
Zn76 Zn77 2.615335 1_545
Zn77 Zn85 2.791300 1_555
Zn78 Zn98 2.582926 1_454
Zn78 Zn94 2.627078 1_455
Zn80 Zn93 2.789408 1_455
Zn80 Zn94 2.791300 1_455
Zn82 Zn90 2.564403 1_556
Zn83 Zn95 2.585124 1_555
Zn84 Zn87 2.627078 1_555
Zn85 Zn89 2.575447 1_555
Zn87 Zn89 2.575447 1_555
Zn88 Zn90 2.545379 1_555
Zn89 Zn9 2.787577 1_555
Zn90 Zn98 2.545379 1_554
Zn100 Zn67 2.562889 1_555
Zn100 Zn6 2.637191 1_555
Zn100 Zn18 2.654569 1_655
Zn100 Zn49 2.830353 1_555
Zn100 Zn60 3.072115 1_655
Zn101 Zn79 2.538158 1_555
Zn101 Zn57 2.595281 1_555
Zn101 Zn96 2.640214 1_555
Zn101 Zn81 2.665950 1_555
Zn101 Zn104 2.789408 1_565
Zn101 Zn30 2.807230 1_555
Zn101 Zn102 2.817704 1_555
Zn102 Zn33 2.582926 1_555
Zn102 Zn43 2.593880 1_455
Zn102 Zn75 2.627078 1_555
Zn102 Zn45 2.636275 1_555
Zn102 Zn30 2.805028 1_555
Zn103 Zn88 2.582926 1_566
Zn103 Zn34 2.593880 1_555
Zn103 Zn37 2.627078 1_565
Zn103 Zn78 2.636275 1_556
Zn103 Zn27 2.805028 1_455
Zn104 Zn23 2.538158 1_555
Zn104 Zn81 2.615335 1_545
Zn104 Zn57 2.643483 1_545
Zn104 Zn16 2.652674 1_655
Zn104 Zn63 2.732343 1_555
Zn104 Zn72 2.791300 1_555
Zn104 Zn5 2.856780 1_545
Zn105 Zn23 2.595281 1_555
Zn105 Zn83 2.614291 1_655
Zn105 Zn71 2.620320 1_555
Zn105 Zn63 2.621851 1_555
Zn105 Zn5 2.643183 1_555
Zn105 Zn79 2.643483 1_655
Zn105 Zn38 2.650722 1_555
Zn105 Zn96 2.787577 1_555
Zn105 Zn57 2.801766 1_555
Ni0 Zn48 2.541230 1_555
Ni0 Zn100 2.558806 1_555
Ni0 Zn39 2.558806 1_555
Ni0 Zn68 2.562778 1_555
Ni0 Zn35 2.562778 1_555
Ni0 Zn52 2.565767 1_665
Ni0 Zn50 2.615537 1_555
Ni0 Zn56 2.615537 1_555
Ni0 Zn6 2.617582 1_555
Ni0 Zn42 2.656087 1_565
Ni0 Zn18 2.656087 1_655
Ni0 Zn73 2.779515 1_555
Ni1 Zn47 2.504590 1_555
Ni1 Zn13 2.505610 1_555
Ni1 Zn97 2.505610 1_555
Ni1 Zn55 2.528018 1_555
Ni1 Zn3 2.569785 1_555
Ni1 Zn91 2.632265 1_555
Ni1 Zn28 2.632265 1_555
Ni1 Zn94 2.670501 1_555
Ni1 Zn15 2.670501 1_555
Ni1 Ni11 2.756955 1_655
Ni1 Ni15 2.756955 1_565
Ni1 Zn24 2.954368 1_555
Ni2 Zn99 2.504953 1_555
Ni2 Zn20 2.536509 1_555
Ni2 Zn37 2.540803 1_555
Ni2 Zn88 2.562260 1_556
Ni2 Zn90 2.591017 1_556
Ni2 Zn11 2.625164 1_556
Ni2 Zn82 2.633084 1_555
Ni2 Zn98 2.643138 1_555
Ni2 Zn103 2.668521 1_545
Ni2 Zn25 2.747808 1_555
Ni3 Zn70 2.513780 1_665
Ni3 Zn78 2.542419 1_655
Ni3 Zn11 2.542419 1_565
Ni3 Zn94 2.579345 1_555
Ni3 Zn15 2.579345 1_555
Ni3 Zn2 2.584273 1_555
Ni3 Zn90 2.590837 1_555
Ni3 Zn34 2.604585 1_554
Ni3 Zn98 2.604585 1_554
Ni3 Zn27 2.736044 1_554
Ni4 Zn10 2.504953 1_555
Ni4 Zn103 2.536509 1_555
Ni4 Zn31 2.540803 1_555
Ni4 Zn40 2.562260 1_556
Ni4 Zn90 2.591017 1_556
Ni4 Zn78 2.625164 1_556
Ni4 Zn82 2.633084 1_555
Ni4 Zn34 2.643138 1_555
Ni4 Zn20 2.668521 1_455
Ni4 Zn51 2.747808 1_555
Ni5 Zn101 2.504953 1_555
Ni5 Zn102 2.536509 1_555
Ni5 Zn72 2.540803 1_565
Ni5 Zn76 2.562260 1_565
Ni5 Zn12 2.591017 1_565
Ni5 Zn45 2.625164 1_555
Ni5 Zn16 2.633084 1_565
Ni5 Zn43 2.643138 1_455
Ni5 Zn7 2.668521 1_565
Ni5 Zn79 2.747808 1_555
Ni6 Zn88 2.522460 1_555
Ni6 Zn40 2.522460 1_555
Ni6 Zn58 2.532302 1_555
Ni6 Zn86 2.532302 1_555
Ni6 Zn2 2.550121 1_555
Ni6 Zn3 2.581818 1_445
Ni6 Zn17 2.607182 1_555
Ni6 Zn80 2.607182 1_555
Ni6 Zn70 2.609168 1_555
Ni6 Zn93 2.652072 1_455
Ni6 Zn19 2.652072 1_545
Ni6 Zn47 2.694641 1_555
Ni7 Zn73 2.504590 1_555
Ni7 Zn32 2.505610 1_555
Ni7 Zn29 2.505610 1_555
Ni7 Zn52 2.528018 1_555
Ni7 Zn65 2.569785 1_555
Ni7 Zn92 2.632265 1_555
Ni7 Zn61 2.632265 1_555
Ni7 Zn37 2.670501 1_555
Ni7 Zn31 2.670501 1_555
Ni7 Zn48 2.954368 1_555
Ni8 Zn30 2.513780 1_555
Ni8 Zn7 2.542419 1_555
Ni8 Zn102 2.542419 1_555
Ni8 Zn75 2.579345 1_555
Ni8 Zn72 2.579345 1_555
Ni8 Zn16 2.584273 1_555
Ni8 Zn12 2.590837 1_555
Ni8 Zn76 2.604585 1_555
Ni8 Zn33 2.604585 1_555
Ni8 Zn21 2.736044 1_555
Ni9 Zn24 2.541230 1_555
Ni9 Zn8 2.558806 1_555
Ni9 Zn46 2.558806 1_555
Ni9 Zn14 2.562778 1_555
Ni9 Zn66 2.562778 1_555
Ni9 Zn55 2.565767 1_445
Ni9 Zn58 2.615537 1_555
Ni9 Zn86 2.615537 1_555
Ni9 Zn59 2.617582 1_555
Ni9 Zn69 2.656087 1_455
Ni9 Zn0 2.656087 1_545
Ni9 Zn47 2.779515 1_555
Ni10 Zn27 2.513780 1_445
Ni10 Zn20 2.542419 1_455
Ni10 Zn103 2.542419 1_545
Ni10 Zn31 2.579345 1_555
Ni10 Zn37 2.579345 1_555
Ni10 Zn82 2.584273 1_555
Ni10 Zn90 2.590837 1_556
Ni10 Zn40 2.604585 1_556
Ni10 Zn88 2.604585 1_556
Ni10 Zn70 2.736044 1_556
Ni11 Zn13 2.539879 1_555
Ni11 Zn80 2.543647 1_555
Ni11 Zn66 2.551093 1_555
Ni11 Zn91 2.586208 1_455
Ni11 Zn97 2.587488 1_455
Ni11 Zn55 2.589983 1_455
Ni11 Zn94 2.605689 1_455
Ni11 Zn86 2.632193 1_565
Ni11 Zn3 2.649775 1_455
Ni11 Zn0 2.733973 1_555
Ni11 Zn19 2.779662 1_555
Ni12 Zn22 2.504590 1_665
Ni12 Zn54 2.505610 1_655
Ni12 Zn41 2.505610 1_565
Ni12 Zn67 2.528018 1_555
Ni12 Zn89 2.569785 1_555
Ni12 Zn100 2.632265 1_555
Ni12 Zn39 2.632265 1_555
Ni12 Zn85 2.670501 1_555
Ni12 Zn87 2.670501 1_555
Ni12 Ni19 2.756955 1_555
Ni12 Ni16 2.756955 1_555
Ni12 Zn6 2.954368 1_555
Ni13 Zn29 2.539879 1_555
Ni13 Zn51 2.543647 1_555
Ni13 Zn68 2.551093 1_555
Ni13 Zn92 2.586208 1_565
Ni13 Zn32 2.587488 1_565
Ni13 Zn52 2.589983 1_565
Ni13 Zn37 2.605689 1_565
Ni13 Zn56 2.632193 1_455
Ni13 Zn65 2.649775 1_565
Ni13 Zn18 2.733973 1_555
Ni13 Ni7 2.756955 1_565
Ni13 Zn10 2.779662 1_555
Ni14 Zn6 2.541230 1_445
Ni14 Zn61 2.558806 1_555
Ni14 Zn92 2.558806 1_555
Ni14 Zn4 2.562778 1_545
Ni14 Zn26 2.562778 1_455
Ni14 Zn67 2.565767 1_555
Ni14 Zn9 2.615537 1_555
Ni14 Zn36 2.615537 1_555
Ni14 Zn48 2.617582 1_555
Ni14 Zn49 2.656087 1_555
Ni14 Zn60 2.656087 1_555
Ni14 Zn22 2.779515 1_555
Ni15 Zn97 2.539879 1_555
Ni15 Zn17 2.543647 1_555
Ni15 Zn14 2.551093 1_555
Ni15 Zn28 2.586208 1_545
Ni15 Zn13 2.587488 1_545
Ni15 Zn55 2.589983 1_545
Ni15 Zn15 2.605689 1_545
Ni15 Zn58 2.632193 1_655
Ni15 Zn3 2.649775 1_545
Ni15 Zn69 2.733973 1_555
Ni15 Zn93 2.779662 1_555
Ni16 Zn54 2.539879 1_555
Ni16 Zn77 2.543647 1_555
Ni16 Zn4 2.551093 1_555
Ni16 Zn39 2.586208 1_555
Ni16 Zn41 2.587488 1_565
Ni16 Zn67 2.589983 1_555
Ni16 Zn85 2.605689 1_555
Ni16 Zn9 2.632193 1_555
Ni16 Zn89 2.649775 1_555
Ni16 Zn60 2.733973 1_555
Ni16 Zn53 2.779662 1_555
Ni17 Zn21 2.513780 1_555
Ni17 Zn84 2.542419 1_555
Ni17 Zn45 2.542419 1_555
Ni17 Zn87 2.579345 1_555
Ni17 Zn85 2.579345 1_555
Ni17 Zn64 2.584273 1_555
Ni17 Zn12 2.590837 1_665
Ni17 Zn43 2.604585 1_555
Ni17 Zn81 2.604585 1_555
Ni17 Zn30 2.736044 1_555
Ni18 Zn23 2.504953 1_555
Ni18 Zn7 2.536509 1_555
Ni18 Zn75 2.540803 1_655
Ni18 Zn33 2.562260 1_655
Ni18 Zn12 2.591017 1_655
Ni18 Zn84 2.625164 1_555
Ni18 Zn16 2.633084 1_655
Ni18 Zn81 2.643138 1_545
Ni18 Zn102 2.668521 1_655
Ni18 Zn104 2.747808 1_555
Ni19 Zn41 2.539879 1_555
Ni19 Zn1 2.543647 1_555
Ni19 Zn26 2.551093 1_555
Ni19 Zn100 2.586208 1_555
Ni19 Zn54 2.587488 1_655
Ni19 Zn67 2.589983 1_555
Ni19 Zn87 2.605689 1_555
Ni19 Zn36 2.632193 1_555
Ni19 Zn89 2.649775 1_555
Ni19 Zn49 2.733973 1_555
Ni19 Zn44 2.779662 1_555
Ni20 Zn98 2.522460 1_555
Ni20 Zn34 2.522460 1_555
Ni20 Zn56 2.532302 1_555
Ni20 Zn50 2.532302 1_555
Ni20 Zn82 2.550121 1_555
Ni20 Zn65 2.581818 1_665
Ni20 Zn51 2.607182 1_555
Ni20 Zn25 2.607182 1_555
Ni20 Zn27 2.609168 1_555
Ni20 Zn99 2.652072 1_565
Ni20 Zn10 2.652072 1_655
Ni20 Zn73 2.694641 1_555
Ni21 Zn44 2.504953 1_555
Ni21 Zn84 2.536509 1_555
Ni21 Zn85 2.540803 1_545
Ni21 Zn81 2.562260 1_545
Ni21 Zn12 2.591017 1_655
Ni21 Zn7 2.625164 1_555
Ni21 Zn64 2.633084 1_545
Ni21 Zn33 2.643138 1_655
Ni21 Zn45 2.668521 1_545
Ni21 Zn1 2.747808 1_555
Ni22 Zn32 2.539879 1_555
Ni22 Zn25 2.543647 1_555
Ni22 Zn35 2.551093 1_555
Ni22 Zn61 2.586208 1_655
Ni22 Zn29 2.587488 1_655
Ni22 Zn52 2.589983 1_655
Ni22 Zn31 2.605689 1_655
Ni22 Zn50 2.632193 1_545
Ni22 Zn65 2.649775 1_655
Ni22 Zn42 2.733973 1_555
Ni22 Ni7 2.756955 1_655
Ni22 Zn99 2.779662 1_555
Ni23 Zn76 2.522460 1_555
Ni23 Zn33 2.522460 1_555
Ni23 Zn9 2.532302 1_555
Ni23 Zn36 2.532302 1_555
Ni23 Zn64 2.550121 1_445
Ni23 Zn89 2.581818 1_555
Ni23 Zn77 2.607182 1_545
Ni23 Zn1 2.607182 1_455
Ni23 Zn21 2.609168 1_555
Ni23 Zn53 2.652072 1_555
Ni23 Zn44 2.652072 1_555
Ni23 Zn22 2.694641 1_555
Ni24 Zn62 2.539879 1_555
Ni24 Zn79 2.543647 1_555
Ni24 Zn83 2.551093 1_555
Ni24 Zn46 2.586208 1_555
Ni24 Zn63 2.587488 1_455
Ni24 Zn38 2.589983 1_555
Ni24 Zn75 2.605689 1_555
Ni24 Zn57 2.632193 1_555
Ni24 Zn96 2.649775 1_555
Ni24 Zn95 2.733973 1_555
Ni24 Ni28 2.756955 1_555
Ni24 Zn101 2.779662 1_555
Ni25 Zn93 2.504953 1_555
Ni25 Zn11 2.536509 1_555
Ni25 Zn94 2.540803 1_555
Ni25 Zn98 2.562260 1_554
Ni25 Zn90 2.591017 1_555
Ni25 Zn20 2.625164 1_554
Ni25 Zn2 2.633084 1_555
Ni25 Zn88 2.643138 1_555
Ni25 Zn78 2.668521 1_655
Ni25 Zn17 2.747808 1_555
Ni26 Zn59 2.541230 1_665
Ni26 Zn91 2.558806 1_555
Ni26 Zn28 2.558806 1_555
Ni26 Zn74 2.562778 1_565
Ni26 Zn83 2.562778 1_655
Ni26 Zn38 2.565767 1_555
Ni26 Zn57 2.615537 1_555
Ni26 Zn105 2.615537 1_555
Ni26 Zn24 2.617582 1_555
Ni26 Zn95 2.656087 1_555
Ni26 Zn71 2.656087 1_555
Ni26 Zn5 2.779515 1_555
Ni27 Zn53 2.504953 1_555
Ni27 Zn45 2.536509 1_555
Ni27 Zn87 2.540803 1_455
Ni27 Zn43 2.562260 1_455
Ni27 Zn12 2.591017 1_565
Ni27 Zn102 2.625164 1_555
Ni27 Zn64 2.633084 1_455
Ni27 Zn76 2.643138 1_565
Ni27 Zn84 2.668521 1_455
Ni27 Zn77 2.747808 1_555
Ni28 Zn5 2.504590 1_445
Ni28 Zn63 2.505610 1_455
Ni28 Zn62 2.505610 1_545
Ni28 Zn38 2.528018 1_555
Ni28 Zn96 2.569785 1_555
Ni28 Zn8 2.632265 1_555
Ni28 Zn46 2.632265 1_555
Ni28 Zn75 2.670501 1_555
Ni28 Zn72 2.670501 1_555
Ni28 Ni29 2.756955 1_555
Ni28 Zn59 2.954368 1_555
Ni29 Zn63 2.539879 1_555
Ni29 Zn104 2.543647 1_555
Ni29 Zn74 2.551093 1_555
Ni29 Zn8 2.586208 1_555
Ni29 Zn62 2.587488 1_545
Ni29 Zn38 2.589983 1_555
Ni29 Zn72 2.605689 1_555
Ni29 Zn105 2.632193 1_555
Ni29 Zn96 2.649775 1_555
Ni29 Zn71 2.733973 1_555
Ni29 Zn23 2.779662 1_555
Ni30 Zn43 2.522460 1_555
Ni30 Zn81 2.522460 1_555
Ni30 Zn105 2.532302 1_555
Ni30 Zn57 2.532302 1_555
Ni30 Zn16 2.550121 1_665
Ni30 Zn96 2.581818 1_555
Ni30 Zn104 2.607182 1_565
Ni30 Zn79 2.607182 1_655
Ni30 Zn30 2.609168 1_555
Ni30 Zn101 2.652072 1_555
Ni30 Zn23 2.652072 1_555
Ni30 Zn5 2.694641 1_555
Ni31 Zn19 2.504953 1_555
Ni31 Zn78 2.536509 1_555
Ni31 Zn15 2.540803 1_555
Ni31 Zn34 2.562260 1_554
Ni31 Zn90 2.591017 1_555
Ni31 Zn103 2.625164 1_554
Ni31 Zn2 2.633084 1_555
Ni31 Zn40 2.643138 1_555
Ni31 Zn11 2.668521 1_565
Ni31 Zn80 2.747808 1_555
