# generated using pymatgen
data_YbPt
_symmetry_space_group_name_H-M   'P 1'
_cell_length_a   4.40595500
_cell_length_b   5.57450900
_cell_length_c   7.14066300
_cell_angle_alpha   90.00000000
_cell_angle_beta   90.00000000
_cell_angle_gamma   90.00000000
_symmetry_Int_Tables_number   1
_chemical_formula_structural   YbPt
_chemical_formula_sum   'Yb4 Pt4'
_cell_volume   175.38207959
_cell_formula_units_Z   4
loop_
 _symmetry_equiv_pos_site_id
 _symmetry_equiv_pos_as_xyz
  1  'x, y, z'
loop_
 _atom_site_type_symbol
 _atom_site_label
 _atom_site_symmetry_multiplicity
 _atom_site_fract_x
 _atom_site_fract_y
 _atom_site_fract_z
 _atom_site_occupancy
  Yb  Yb0  1  0.25000000  0.13910100  0.18402400  1
  Yb  Yb1  1  0.75000000  0.63910100  0.31597600  1
  Yb  Yb2  1  0.75000000  0.86089900  0.81597600  1
  Yb  Yb3  1  0.25000000  0.36089900  0.68402400  1
  Pt  Pt0  1  0.75000000  0.14887300  0.46076900  1
  Pt  Pt1  1  0.25000000  0.85112700  0.53923100  1
  Pt  Pt2  1  0.25000000  0.64887300  0.03923100  1
  Pt  Pt3  1  0.75000000  0.35112700  0.96076900  1
loop_
_geom_bond_atom_site_label_1
_geom_bond_atom_site_label_2
_geom_bond_distance
_geom_bond_site_symmetry_2
Pt0 Yb1 2.921827 1_555
Pt0 Yb0 2.959935 1_655
Pt0 Yb0 2.959935 1_555
Pt0 Yb3 2.965052 1_555
Pt0 Yb3 2.965052 1_655
Pt0 Yb2 3.001737 1_545
Pt0 Yb1 3.023972 1_545
Pt1 Yb3 2.921827 1_555
Pt1 Yb2 2.959935 1_455
Pt1 Yb2 2.959935 1_555
Pt1 Yb1 2.965052 1_555
Pt1 Yb1 2.965052 1_455
Pt1 Yb0 3.001737 1_565
Pt1 Yb3 3.023972 1_565
Pt2 Yb0 2.921827 1_565
Pt2 Yb1 2.959935 1_455
Pt2 Yb1 2.959935 1_555
Pt2 Yb2 2.965052 1_454
Pt2 Yb2 2.965052 1_554
Pt2 Yb3 3.001737 1_554
Pt2 Yb0 3.023972 1_555
Pt3 Yb2 2.921827 1_545
Pt3 Yb3 2.959935 1_555
Pt3 Yb3 2.959935 1_655
Pt3 Yb0 2.965052 1_656
Pt3 Yb0 2.965052 1_556
Pt3 Yb1 3.001737 1_556
Pt3 Yb2 3.023972 1_555
