# generated using pymatgen
data_ZnS
_symmetry_space_group_name_H-M   'P 1'
_cell_length_a   3.80878100
_cell_length_b   3.80878076
_cell_length_c   87.15293589
_cell_angle_alpha   90.00000000
_cell_angle_beta   90.00000000
_cell_angle_gamma   119.99999323
_symmetry_Int_Tables_number   1
_chemical_formula_structural   ZnS
_chemical_formula_sum   'Zn28 S28'
_cell_volume   1094.92572494
_cell_formula_units_Z   28
loop_
 _symmetry_equiv_pos_site_id
 _symmetry_equiv_pos_as_xyz
  1  'x, y, z'
loop_
 _atom_site_type_symbol
 _atom_site_label
 _atom_site_symmetry_multiplicity
 _atom_site_fract_x
 _atom_site_fract_y
 _atom_site_fract_z
 _atom_site_occupancy
  Zn  Zn0  1  0.66666700  0.33333300  0.07149407  1
  Zn  Zn1  1  0.00000000  -0.00000000  0.32147252  1
  Zn  Zn2  1  0.00000000  0.00000000  0.21426189  1
  Zn  Zn3  1  0.33333300  0.66666700  0.14286980  1
  Zn  Zn4  1  0.33333300  0.66666700  0.35718697  1
  Zn  Zn5  1  0.66666700  0.33333300  0.39285759  1
  Zn  Zn6  1  0.33333300  0.66666700  0.46426920  1
  Zn  Zn7  1  -0.00000000  0.00000000  0.64283101  1
  Zn  Zn8  1  0.66666700  0.33333300  0.78582002  1
  Zn  Zn9  1  0.33333300  0.66666700  0.57136430  1
  Zn  Zn10  1  -0.00000000  -0.00000000  0.53570258  1
  Zn  Zn11  1  0.33333300  0.66666700  0.89283856  1
  Zn  Zn12  1  0.33333300  0.66666700  0.82147401  1
  Zn  Zn13  1  0.33333300  0.66666700  0.96424158  1
  Zn  Zn14  1  0.66666700  0.33333300  0.28574383  1
  Zn  Zn15  1  0.66666700  0.33333300  0.60710828  1
  Zn  Zn16  1  0.33333300  0.66666700  0.67854745  1
  Zn  Zn17  1  0.66666700  0.33333300  0.71423236  1
  Zn  Zn18  1  0.00000000  -0.00000000  0.10718430  1
  Zn  Zn19  1  0.66666700  0.33333300  0.92849551  1
  Zn  Zn20  1  0.33333300  0.66666700  0.03582188  1
  Zn  Zn21  1  0.66666700  0.33333300  0.17859247  1
  Zn  Zn22  1  -0.00000000  0.00000000  0.00001779  1
  Zn  Zn23  1  0.66666700  0.33333300  0.50003102  1
  Zn  Zn24  1  0.00000000  -0.00000000  0.85716985  1
  Zn  Zn25  1  -0.00000000  -0.00000000  0.42855464  1
  Zn  Zn26  1  0.33333300  0.66666700  0.24997185  1
  Zn  Zn27  1  -0.00000000  -0.00000000  0.75001734  1
  S  S0  1  0.66666700  0.33333300  0.20535542  1
  S  S1  1  0.33333300  0.66666700  0.84821275  1
  S  S2  1  -0.00000000  0.00000000  0.77685062  1
  S  S3  1  0.33333300  0.66666700  0.99100783  1
  S  S4  1  0.33333300  0.66666700  0.70531009  1
  S  S5  1  -0.00000000  0.00000000  0.45532767  1
  S  S6  1  0.66666700  0.33333300  0.63388774  1
  S  S7  1  -0.00000000  -0.00000000  0.02684758  1
  S  S8  1  -0.00000000  0.00000000  0.34824481  1
  S  S9  1  -0.00000000  -0.00000000  0.88395239  1
  S  S10  1  0.66666700  0.33333300  0.41962151  1
  S  S11  1  0.66666700  0.33333300  0.09825777  1
  S  S12  1  -0.00000000  0.00000000  0.13394865  1
  S  S13  1  0.66666700  0.33333300  0.31252970  1
  S  S14  1  0.66666700  0.33333300  0.52678825  1
  S  S15  1  0.33333300  0.66666700  0.16964530  1
  S  S16  1  0.00000000  0.00000000  0.66960645  1
  S  S17  1  0.33333300  0.66666700  0.59814900  1
  S  S18  1  0.00000000  -0.00000000  0.24103511  1
  S  S19  1  0.66666700  0.33333300  0.74100751  1
  S  S20  1  0.66666700  0.33333300  0.81256723  1
  S  S21  1  0.33333300  0.66666700  0.91956157  1
  S  S22  1  0.66666700  0.33333300  0.95530444  1
  S  S23  1  0.33333300  0.66666700  0.38394549  1
  S  S24  1  0.33333300  0.66666700  0.27677308  1
  S  S25  1  0.33333300  0.66666700  0.06257684  1
  S  S26  1  0.33333300  0.66666700  0.49105486  1
  S  S27  1  -0.00000000  -0.00000000  0.56245364  1
loop_
_geom_bond_atom_site_label_1
_geom_bond_atom_site_label_2
_geom_bond_distance
_geom_bond_site_symmetry_2
S0 Zn2 2.331978 1_655
S0 Zn2 2.331981 1_665
S0 Zn2 2.331981 1_555
S0 Zn21 2.332470 1_555
S1 Zn12 2.330360 1_555
S1 Zn24 2.333450 1_565
S1 Zn24 2.333453 1_555
S1 Zn24 2.333453 1_665
S2 Zn8 2.333809 1_455
S2 Zn8 2.333812 1_445
S2 Zn8 2.333812 1_555
S2 Zn27 2.338599 1_555
S3 Zn13 2.332757 1_555
S3 Zn22 2.334995 1_566
S3 Zn22 2.334998 1_556
S3 Zn22 2.334999 1_666
S4 Zn17 2.332436 1_565
S4 Zn17 2.332437 1_455
S4 Zn17 2.332442 1_555
S4 Zn16 2.332443 1_555
S5 Zn6 2.332996 1_545
S5 Zn6 2.333000 1_555
S5 Zn6 2.333000 1_445
S5 Zn25 2.333348 1_555
S6 Zn7 2.333047 1_655
S6 Zn7 2.333050 1_665
S6 Zn7 2.333050 1_555
S6 Zn15 2.333909 1_555
S7 Zn20 2.333952 1_545
S7 Zn20 2.333955 1_555
S7 Zn20 2.333955 1_445
S7 Zn22 2.338295 1_555
S8 Zn4 2.333015 1_545
S8 Zn4 2.333018 1_555
S8 Zn4 2.333018 1_445
S8 Zn1 2.333284 1_555
S9 Zn11 2.331389 1_545
S9 Zn11 2.331392 1_555
S9 Zn11 2.331393 1_445
S9 Zn24 2.334177 1_555
S10 Zn5 2.332554 1_555
S10 Zn25 2.332752 1_655
S10 Zn25 2.332755 1_665
S10 Zn25 2.332755 1_555
S11 Zn0 2.332535 1_555
S11 Zn18 2.332560 1_655
S11 Zn18 2.332563 1_665
S11 Zn18 2.332563 1_555
S12 Zn3 2.332404 1_545
S12 Zn3 2.332407 1_555
S12 Zn3 2.332407 1_445
S12 Zn18 2.332592 1_555
S13 Zn1 2.333034 1_655
S13 Zn1 2.333037 1_665
S13 Zn1 2.333037 1_555
S13 Zn14 2.334467 1_555
S14 Zn23 2.331971 1_555
S14 Zn10 2.332206 1_655
S14 Zn10 2.332209 1_665
S14 Zn10 2.332209 1_555
S15 Zn21 2.333161 1_565
S15 Zn21 2.333161 1_455
S15 Zn21 2.333167 1_555
S15 Zn3 2.333563 1_555
S16 Zn16 2.332981 1_545
S16 Zn16 2.332984 1_555
S16 Zn16 2.332984 1_445
S16 Zn7 2.333558 1_555
S17 Zn15 2.333514 1_565
S17 Zn15 2.333514 1_455
S17 Zn15 2.333520 1_555
S17 Zn9 2.334365 1_555
S18 Zn26 2.332857 1_545
S18 Zn26 2.332860 1_555
S18 Zn26 2.332860 1_445
S18 Zn2 2.333365 1_555
S19 Zn17 2.333533 1_555
S19 Zn27 2.334991 1_655
S19 Zn27 2.334995 1_665
S19 Zn27 2.334995 1_555
S20 Zn8 2.331098 1_555
S20 Zn12 2.331987 1_545
S20 Zn12 2.331987 1_655
S20 Zn12 2.331993 1_555
S21 Zn11 2.328989 1_555
S21 Zn19 2.332776 1_565
S21 Zn19 2.332776 1_455
S21 Zn19 2.332782 1_555
S22 Zn13 2.332869 1_545
S22 Zn13 2.332869 1_655
S22 Zn13 2.332875 1_555
S22 Zn19 2.336477 1_555
S23 Zn4 2.332084 1_555
S23 Zn5 2.332141 1_565
S23 Zn5 2.332141 1_455
S23 Zn5 2.332147 1_555
S24 Zn14 2.333848 1_565
S24 Zn14 2.333849 1_455
S24 Zn14 2.333854 1_555
S24 Zn26 2.335806 1_555
S25 Zn20 2.331773 1_555
S25 Zn0 2.332290 1_565
S25 Zn0 2.332290 1_455
S25 Zn0 2.332296 1_555
S26 Zn23 2.334006 1_565
S26 Zn23 2.334007 1_455
S26 Zn23 2.334012 1_555
S26 Zn6 2.334449 1_555
S27 Zn10 2.331433 1_555
S27 Zn9 2.332099 1_545
S27 Zn9 2.332102 1_555
S27 Zn9 2.332102 1_445
