# generated using pymatgen
data_K4W2Cl10O
_symmetry_space_group_name_H-M   'P 1'
_cell_length_a   10.40973712
_cell_length_b   10.40973712
_cell_length_c   10.40973712
_cell_angle_alpha   138.65388232
_cell_angle_beta   138.65388232
_cell_angle_gamma   59.90300891
_symmetry_Int_Tables_number   1
_chemical_formula_structural   K4W2Cl10O
_chemical_formula_sum   'K4 W2 Cl10 O1'
_cell_volume   487.25614990
_cell_formula_units_Z   1
loop_
 _symmetry_equiv_pos_site_id
 _symmetry_equiv_pos_as_xyz
  1  'x, y, z'
loop_
 _atom_site_type_symbol
 _atom_site_label
 _atom_site_symmetry_multiplicity
 _atom_site_fract_x
 _atom_site_fract_y
 _atom_site_fract_z
 _atom_site_occupancy
  K  K0  1  0.25000000  0.75000000  0.50000000  1
  K  K1  1  0.50000000  0.00000000  0.50000000  1
  K  K2  1  0.75000000  0.25000000  0.50000000  1
  K  K3  1  0.00000000  0.50000000  0.50000000  1
  W  W0  1  0.10658800  0.10658800  0.00000000  1
  W  W1  1  0.89341200  0.89341200  0.00000000  1
  Cl  Cl0  1  0.65054500  0.12560100  0.00000000  1
  Cl  Cl1  1  0.34945500  0.34945500  0.47505600  1
  Cl  Cl2  1  0.75793800  0.75793800  0.00000000  1
  Cl  Cl3  1  0.24206200  0.24206200  0.00000000  1
  Cl  Cl4  1  0.12560100  0.65054500  0.00000000  1
  Cl  Cl5  1  0.87439900  0.34945500  0.00000000  1
  Cl  Cl6  1  0.65054500  0.65054500  0.52494400  1
  Cl  Cl7  1  0.87439900  0.87439900  0.52494400  1
  Cl  Cl8  1  0.12560100  0.12560100  0.47505600  1
  Cl  Cl9  1  0.34945500  0.87439900  0.00000000  1
  O  O0  1  0.00000000  0.00000000  0.00000000  1
loop_
_geom_bond_atom_site_label_1
_geom_bond_atom_site_label_2
_geom_bond_distance
_geom_bond_site_symmetry_2
Cl0 W1 2.470856 1_545
Cl0 K1 3.293355 1_554
Cl0 K3 3.293355 1_655
Cl0 K2 3.601833 1_555
Cl0 K0 3.601833 1_544
Cl1 W0 2.470856 1_555
Cl1 K1 3.293355 1_555
Cl1 K3 3.293355 1_555
Cl1 K2 3.601833 1_555
Cl1 K0 3.601833 1_555
Cl2 W1 2.443815 1_555
Cl2 K2 3.677790 1_565
Cl2 K0 3.677790 1_554
Cl2 K0 3.677790 1_655
Cl2 K2 3.677790 1_554
Cl3 W0 2.443815 1_555
Cl3 K0 3.677790 1_555
Cl3 K2 3.677790 1_454
Cl3 K0 3.677790 1_544
Cl3 K2 3.677790 1_555
Cl4 W1 2.470856 1_455
Cl4 K3 3.293355 1_554
Cl4 K1 3.293355 1_565
Cl4 K0 3.601833 1_555
Cl4 K2 3.601833 1_454
Cl5 W0 2.470856 1_655
Cl5 K1 3.293355 1_554
Cl5 K3 3.293355 1_655
Cl5 K0 3.601833 1_655
Cl5 K2 3.601833 1_554
Cl6 W1 2.470856 1_556
Cl6 K1 3.293355 1_565
Cl6 K3 3.293355 1_655
Cl6 K0 3.601833 1_555
Cl6 K2 3.601833 1_555
Cl7 W0 2.470856 1_666
Cl7 K3 3.293355 1_655
Cl7 K1 3.293355 1_565
Cl7 K0 3.601833 1_655
Cl7 K2 3.601833 1_565
Cl8 W1 2.470856 1_445
Cl8 K3 3.293355 1_555
Cl8 K1 3.293355 1_555
Cl8 K2 3.601833 1_455
Cl8 K0 3.601833 1_545
Cl9 W0 2.470856 1_565
Cl9 K1 3.293355 1_565
Cl9 K3 3.293355 1_554
Cl9 K2 3.601833 1_565
Cl9 K0 3.601833 1_554
O0 W0 1.922741 1_555
O0 W1 1.922741 1_445
