# generated using pymatgen
data_Na4Ge2Se5
_symmetry_space_group_name_H-M   'P 1'
_cell_length_a   12.20872200
_cell_length_b   13.30411900
_cell_length_c   14.34935035
_cell_angle_alpha   87.26122089
_cell_angle_beta   90.00000000
_cell_angle_gamma   90.00000000
_symmetry_Int_Tables_number   1
_chemical_formula_structural   Na4Ge2Se5
_chemical_formula_sum   'Na32 Ge16 Se40'
_cell_volume   2328.04952219
_cell_formula_units_Z   8
loop_
 _symmetry_equiv_pos_site_id
 _symmetry_equiv_pos_as_xyz
  1  'x, y, z'
loop_
 _atom_site_type_symbol
 _atom_site_label
 _atom_site_symmetry_multiplicity
 _atom_site_fract_x
 _atom_site_fract_y
 _atom_site_fract_z
 _atom_site_occupancy
  Na  Na0  1  0.11922800  0.90519200  0.44108400  1
  Na  Na1  1  0.40980000  0.48597000  0.76889100  1
  Na  Na2  1  0.59020000  0.51403000  0.23110900  1
  Na  Na3  1  0.91059400  0.19685600  0.85483400  1
  Na  Na4  1  0.86553300  0.38736600  0.46306900  1
  Na  Na5  1  0.90980000  0.51403000  0.73110900  1
  Na  Na6  1  0.12101200  0.08897500  0.05096400  1
  Na  Na7  1  0.16090000  0.01249900  0.76846300  1
  Na  Na8  1  0.87898800  0.91102500  0.94903600  1
  Na  Na9  1  0.41059400  0.80314400  0.64516600  1
  Na  Na10  1  0.37898800  0.08897500  0.55096400  1
  Na  Na11  1  0.33910000  0.01249900  0.26846300  1
  Na  Na12  1  0.14289100  0.29323300  0.65701200  1
  Na  Na13  1  0.88077200  0.09480800  0.55891600  1
  Na  Na14  1  0.63446700  0.38736600  0.96306900  1
  Na  Na15  1  0.09020000  0.48597000  0.26889100  1
  Na  Na16  1  0.36553300  0.61263400  0.03693100  1
  Na  Na17  1  0.35710900  0.29323300  0.15701200  1
  Na  Na18  1  0.08940600  0.80314400  0.14516600  1
  Na  Na19  1  0.83910000  0.98750100  0.23153700  1
  Na  Na20  1  0.58940600  0.19685600  0.35483400  1
  Na  Na21  1  0.13421300  0.42351400  0.92825600  1
  Na  Na22  1  0.66090000  0.98750100  0.73153700  1
  Na  Na23  1  0.13446700  0.61263400  0.53693100  1
  Na  Na24  1  0.86578700  0.57648600  0.07174400  1
  Na  Na25  1  0.62101200  0.91102500  0.44903600  1
  Na  Na26  1  0.63421300  0.57648600  0.57174400  1
  Na  Na27  1  0.38077200  0.90519200  0.94108400  1
  Na  Na28  1  0.85710900  0.70676700  0.34298800  1
  Na  Na29  1  0.36578700  0.42351400  0.42825600  1
  Na  Na30  1  0.64289100  0.70676700  0.84298800  1
  Na  Na31  1  0.61922800  0.09480800  0.05891600  1
  Ge  Ge0  1  0.16525400  0.22285500  0.42165500  1
  Ge  Ge1  1  0.29778600  0.67691900  0.28581300  1
  Ge  Ge2  1  0.33474600  0.22285500  0.92165500  1
  Ge  Ge3  1  0.79778600  0.32308100  0.21418700  1
  Ge  Ge4  1  0.05193700  0.17276600  0.28783700  1
  Ge  Ge5  1  0.83474600  0.77714500  0.57834500  1
  Ge  Ge6  1  0.44806300  0.17276600  0.78783700  1
  Ge  Ge7  1  0.70221400  0.32308100  0.71418700  1
  Ge  Ge8  1  0.40878500  0.72254500  0.41971100  1
  Ge  Ge9  1  0.55193700  0.82723400  0.21216300  1
  Ge  Ge10  1  0.20221400  0.67691900  0.78581300  1
  Ge  Ge11  1  0.09121500  0.72254500  0.91971100  1
  Ge  Ge12  1  0.90878500  0.27745500  0.08028900  1
  Ge  Ge13  1  0.66525400  0.77714500  0.07834500  1
  Ge  Ge14  1  0.94806300  0.82723400  0.71216300  1
  Ge  Ge15  1  0.59121500  0.27745500  0.58028900  1
  Se  Se0  1  0.61401500  0.39309600  0.45380500  1
  Se  Se1  1  0.36878500  0.10381200  0.04633100  1
  Se  Se2  1  0.86878500  0.89618800  0.45366900  1
  Se  Se3  1  0.64268400  0.19194600  0.83270400  1
  Se  Se4  1  0.11416300  0.70134300  0.33197600  1
  Se  Se5  1  0.13121500  0.10381200  0.54633100  1
  Se  Se6  1  0.90773900  0.71073400  0.84619000  1
  Se  Se7  1  0.38598500  0.60690400  0.54619500  1
  Se  Se8  1  0.58942200  0.99459400  0.24857800  1
  Se  Se9  1  0.40773900  0.28926600  0.65381000  1
  Se  Se10  1  0.87062300  0.10965900  0.04475500  1
  Se  Se11  1  0.61416300  0.29865700  0.16802400  1
  Se  Se12  1  0.11401500  0.60690400  0.04619500  1
  Se  Se13  1  0.41057800  0.00540600  0.75142200  1
  Se  Se14  1  0.15472700  0.21206300  0.85855700  1
  Se  Se15  1  0.88583700  0.29865700  0.66802400  1
  Se  Se16  1  0.83881600  0.48425700  0.26570300  1
  Se  Se17  1  0.09226100  0.28926600  0.15381000  1
  Se  Se18  1  0.11895500  0.38787900  0.46300100  1
  Se  Se19  1  0.66118400  0.48425700  0.76570300  1
  Se  Se20  1  0.65472700  0.78793700  0.64144300  1
  Se  Se21  1  0.14268400  0.80805400  0.66729600  1
  Se  Se22  1  0.33881600  0.51574300  0.23429700  1
  Se  Se23  1  0.91057800  0.99459400  0.74857800  1
  Se  Se24  1  0.62937700  0.10965900  0.54475500  1
  Se  Se25  1  0.84527300  0.78793700  0.14144300  1
  Se  Se26  1  0.61895500  0.61212100  0.03699900  1
  Se  Se27  1  0.35731600  0.80805400  0.16729600  1
  Se  Se28  1  0.38583700  0.70134300  0.83197600  1
  Se  Se29  1  0.12937700  0.89034100  0.95524500  1
  Se  Se30  1  0.85731600  0.19194600  0.33270400  1
  Se  Se31  1  0.38104500  0.38787900  0.96300100  1
  Se  Se32  1  0.08942200  0.00540600  0.25142200  1
  Se  Se33  1  0.88104500  0.61212100  0.53699900  1
  Se  Se34  1  0.88598500  0.39309600  0.95380500  1
  Se  Se35  1  0.59226100  0.71073400  0.34619000  1
  Se  Se36  1  0.16118400  0.51574300  0.73429700  1
  Se  Se37  1  0.63121500  0.89618800  0.95366900  1
  Se  Se38  1  0.34527300  0.21206300  0.35855700  1
  Se  Se39  1  0.37062300  0.89034100  0.45524500  1
loop_
_geom_bond_atom_site_label_1
_geom_bond_atom_site_label_2
_geom_bond_distance
_geom_bond_site_symmetry_2
Na0 Se32 2.994987 1_565
Na0 Se2 3.064922 1_455
Na0 Se39 3.081648 1_555
Na0 Se5 3.109050 1_565
Na0 Se4 3.196233 1_555
Na0 Se21 3.447860 1_555
Na1 Se31 3.039264 1_555
Na1 Se28 3.059922 1_555
Na1 Se19 3.069519 1_555
Na1 Se36 3.097978 1_555
Na1 Se9 3.160551 1_555
Na1 Se7 3.520415 1_555
Na2 Se26 3.039264 1_555
Na2 Se11 3.059922 1_555
Na2 Se22 3.069519 1_555
Na2 Se16 3.097978 1_555
Na2 Se35 3.160551 1_555
Na2 Se0 3.520415 1_555
Na3 Se10 2.951058 1_556
Na3 Se15 2.960466 1_555
Na3 Se14 2.988061 1_655
Na3 Se34 3.045942 1_555
Na3 Se23 3.155606 1_545
Na3 Se3 3.287168 1_555
Na4 Se16 3.072427 1_555
Na4 Se0 3.074377 1_555
Na4 Se18 3.093966 1_655
Na4 Se15 3.126007 1_555
Na4 Se33 3.225757 1_555
Na4 Se30 3.276220 1_555
Na5 Se33 3.039264 1_555
Na5 Se15 3.059922 1_555
Na5 Se36 3.069519 1_655
Na5 Se19 3.097978 1_555
Na5 Se6 3.160551 1_555
Na5 Se34 3.520415 1_555
Na6 Se1 3.031947 1_555
Na6 Se29 3.037667 1_544
Na6 Se32 3.058295 1_555
Na6 Se10 3.070202 1_455
Na6 Se17 3.126904 1_555
Na6 Se14 3.168860 1_554
Na7 Se14 3.009012 1_555
Na7 Se13 3.059857 1_555
Na7 Se23 3.079688 1_445
Na7 Se29 3.091376 1_545
Na7 Se21 3.151565 1_545
Na7 Se5 3.375939 1_555
Na8 Se37 3.031947 1_555
Na8 Se10 3.037667 1_566
Na8 Se23 3.058295 1_555
Na8 Se29 3.070202 1_655
Na8 Se6 3.126904 1_555
Na8 Se25 3.168860 1_556
Na9 Se39 2.951058 1_555
Na9 Se28 2.960466 1_555
Na9 Se20 2.988061 1_555
Na9 Se7 3.045942 1_555
Na9 Se13 3.155606 1_565
Na9 Se21 3.287168 1_555
Na10 Se5 3.031947 1_555
Na10 Se39 3.037667 1_545
Na10 Se13 3.058295 1_555
Na10 Se24 3.070202 1_555
Na10 Se9 3.126904 1_555
Na10 Se38 3.168860 1_555
Na11 Se38 3.009012 1_555
Na11 Se32 3.059857 1_555
Na11 Se8 3.079688 1_545
Na11 Se39 3.091376 1_545
Na11 Se27 3.151565 1_545
Na11 Se1 3.375939 1_555
Na12 Se18 3.014334 1_555
Na12 Se14 3.041791 1_555
Na12 Se5 3.045651 1_555
Na12 Se15 3.143278 1_455
Na12 Se36 3.218205 1_555
Na12 Se9 3.234249 1_555
Na13 Se23 2.994987 1_545
Na13 Se5 3.064922 1_655
Na13 Se24 3.081648 1_555
Na13 Se2 3.109050 1_545
Na13 Se15 3.196233 1_555
Na13 Se30 3.447860 1_555
Na14 Se19 3.072427 1_555
Na14 Se34 3.074377 1_555
Na14 Se31 3.093966 1_555
Na14 Se11 3.126007 1_556
Na14 Se26 3.225757 1_556
Na14 Se3 3.276220 1_555
Na15 Se18 3.039264 1_555
Na15 Se4 3.059922 1_555
Na15 Se16 3.069519 1_455
Na15 Se22 3.097978 1_555
Na15 Se17 3.160551 1_555
Na15 Se12 3.520415 1_555
Na16 Se22 3.072427 1_555
Na16 Se12 3.074377 1_555
Na16 Se26 3.093966 1_555
Na16 Se28 3.126007 1_554
Na16 Se31 3.225757 1_554
Na16 Se27 3.276220 1_555
Na17 Se31 3.014334 1_554
Na17 Se38 3.041791 1_555
Na17 Se1 3.045651 1_555
Na17 Se11 3.143278 1_555
Na17 Se22 3.218205 1_555
Na17 Se17 3.234249 1_555
Na18 Se29 2.951058 1_554
Na18 Se4 2.960466 1_555
Na18 Se25 2.988061 1_455
Na18 Se12 3.045942 1_555
Na18 Se32 3.155606 1_565
Na18 Se27 3.287168 1_555
Na19 Se25 3.009012 1_555
Na19 Se8 3.059857 1_555
Na19 Se32 3.079688 1_665
Na19 Se10 3.091376 1_565
Na19 Se30 3.151565 1_565
Na19 Se2 3.375939 1_555
Na20 Se24 2.951058 1_555
Na20 Se11 2.960466 1_555
Na20 Se38 2.988061 1_555
Na20 Se0 3.045942 1_555
Na20 Se8 3.155606 1_545
Na20 Se30 3.287168 1_555
Na21 Se36 3.005625 1_555
Na21 Se14 3.040690 1_555
Na21 Se12 3.045041 1_556
Na21 Se34 3.077045 1_455
Na21 Se31 3.087385 1_555
Na22 Se20 3.009012 1_555
Na22 Se23 3.059857 1_555
Na22 Se13 3.079688 1_565
Na22 Se24 3.091376 1_565
Na22 Se3 3.151565 1_565
Na22 Se37 3.375939 1_555
Na23 Se36 3.072427 1_555
Na23 Se7 3.074377 1_555
Na23 Se33 3.093966 1_455
Na23 Se4 3.126007 1_555
Na23 Se18 3.225757 1_555
Na23 Se21 3.276220 1_555
Na24 Se16 3.005625 1_555
Na24 Se25 3.040690 1_555
Na24 Se34 3.045041 1_554
Na24 Se12 3.077045 1_655
Na24 Se26 3.087385 1_555
Na25 Se2 3.031947 1_555
Na25 Se24 3.037667 1_565
Na25 Se8 3.058295 1_555
Na25 Se39 3.070202 1_555
Na25 Se35 3.126904 1_555
Na25 Se20 3.168860 1_555
Na26 Se19 3.005625 1_555
Na26 Se20 3.040690 1_555
Na26 Se0 3.045041 1_555
Na26 Se7 3.077045 1_555
Na26 Se33 3.087385 1_555
Na27 Se13 2.994987 1_565
Na27 Se37 3.064922 1_555
Na27 Se29 3.081648 1_555
Na27 Se1 3.109050 1_566
Na27 Se28 3.196233 1_555
Na27 Se27 3.447860 1_556
Na28 Se33 3.014334 1_555
Na28 Se25 3.041791 1_555
Na28 Se2 3.045651 1_555
Na28 Se4 3.143278 1_655
Na28 Se16 3.218205 1_555
Na28 Se35 3.234249 1_555
Na29 Se22 3.005625 1_555
Na29 Se38 3.040690 1_555
Na29 Se7 3.045041 1_555
Na29 Se0 3.077045 1_555
Na29 Se18 3.087385 1_555
Na30 Se26 3.014334 1_556
Na30 Se20 3.041791 1_555
Na30 Se37 3.045651 1_555
Na30 Se28 3.143278 1_555
Na30 Se19 3.218205 1_555
Na30 Se6 3.234249 1_555
Na31 Se8 2.994987 1_545
Na31 Se1 3.064922 1_555
Na31 Se10 3.081648 1_555
Na31 Se37 3.109050 1_544
Na31 Se11 3.196233 1_555
Na31 Se3 3.447860 1_554
Ge0 Se5 2.368717 1_555
Ge0 Se18 2.369851 1_555
Ge0 Se38 2.383935 1_555
Ge0 Ge4 2.483442 1_555
Ge1 Se22 2.355185 1_555
Ge1 Se4 2.364449 1_555
Ge1 Se27 2.486084 1_555
Ge2 Se1 2.368717 1_556
Ge2 Se31 2.369851 1_555
Ge2 Se14 2.383935 1_555
Ge2 Ge6 2.483442 1_555
Ge3 Se16 2.355185 1_555
Ge3 Se11 2.364449 1_555
Ge3 Se30 2.486084 1_555
Ge4 Se32 2.356122 1_555
Ge4 Se17 2.461399 1_555
Ge4 Se30 2.478111 1_455
Ge5 Se2 2.368717 1_555
Ge5 Se33 2.369851 1_555
Ge5 Se20 2.383935 1_555
Ge6 Se13 2.356122 1_555
Ge6 Se9 2.461399 1_555
Ge6 Se3 2.478111 1_555
Ge7 Se19 2.355185 1_555
Ge7 Se15 2.364449 1_555
Ge7 Se3 2.486084 1_555
Ge8 Se7 2.339169 1_555
Ge8 Se39 2.359947 1_555
Ge8 Se35 2.484179 1_555
Ge9 Se8 2.356122 1_555
Ge9 Se35 2.461399 1_555
Ge9 Se27 2.478111 1_555
Ge10 Se36 2.355185 1_555
Ge10 Se28 2.364449 1_555
Ge10 Se21 2.486084 1_555
Ge11 Se12 2.339169 1_556
Ge11 Se29 2.359947 1_555
Ge11 Se6 2.484179 1_455
Ge12 Se34 2.339169 1_554
Ge12 Se10 2.359947 1_555
Ge12 Se17 2.484179 1_655
Ge13 Se37 2.368717 1_554
Ge13 Se26 2.369851 1_555
Ge13 Se25 2.383935 1_555
Ge13 Ge9 2.483442 1_555
Ge14 Se23 2.356122 1_555
Ge14 Se6 2.461399 1_555
Ge14 Se21 2.478111 1_655
Ge14 Ge5 2.483442 1_555
Ge15 Se0 2.339169 1_555
Ge15 Se24 2.359947 1_555
Ge15 Se9 2.484179 1_555
