# generated using pymatgen
data_Pr6Cd4Pd13
_symmetry_space_group_name_H-M   'P 1'
_cell_length_a   8.52548328
_cell_length_b   8.52548338
_cell_length_c   8.52548234
_cell_angle_alpha   109.47122363
_cell_angle_beta   109.47123712
_cell_angle_gamma   109.47125655
_symmetry_Int_Tables_number   1
_chemical_formula_structural   Pr6Cd4Pd13
_chemical_formula_sum   'Pr6 Cd4 Pd13'
_cell_volume   477.01802615
_cell_formula_units_Z   1
loop_
 _symmetry_equiv_pos_site_id
 _symmetry_equiv_pos_as_xyz
  1  'x, y, z'
loop_
 _atom_site_type_symbol
 _atom_site_label
 _atom_site_symmetry_multiplicity
 _atom_site_fract_x
 _atom_site_fract_y
 _atom_site_fract_z
 _atom_site_occupancy
  Pr  Pr0  1  0.00000739  0.30267926  0.30268113  1
  Pr  Pr1  1  0.00000768  0.69732638  0.69732844  1
  Pr  Pr2  1  0.30267297  -0.00000531  0.30267377  1
  Pr  Pr3  1  0.69731920  0.69732644  -0.00000232  1
  Pr  Pr4  1  0.69732113  -0.00000516  0.69732193  1
  Pr  Pr5  1  0.30267112  0.30267849  -0.00000274  1
  Cd  Cd0  1  0.00000675  0.00001074  0.50000618  1
  Cd  Cd1  1  0.49998725  -0.00002315  -0.00001289  1
  Cd  Cd2  1  0.00001781  0.50000641  0.00000138  1
  Cd  Cd3  1  0.49998789  0.50000616  0.50000596  1
  Pd  Pd0  1  0.34017256  0.65982385  -0.00000413  1
  Pd  Pd1  1  0.00001035  0.34018105  0.65982925  1
  Pd  Pd2  1  0.65982201  -0.00000564  0.34017219  1
  Pd  Pd3  1  0.31965039  0.65982337  0.65982664  1
  Pd  Pd4  1  0.65982206  0.31964537  0.65982300  1
  Pd  Pd5  1  0.68035395  0.34017641  0.34017937  1
  Pd  Pd6  1  0.34017368  0.68034797  0.34017476  1
  Pd  Pd7  1  0.34017224  0.34018121  0.68035282  1
  Pd  Pd8  1  0.00000991  0.65983095  0.34017988  1
  Pd  Pd9  1  0.65981925  0.65982949  0.31964965  1
  Pd  Pd10  1  0.34017184  -0.00000609  0.65982179  1
  Pd  Pd11  1  -0.00000012  0.00000001  -0.00000007  1
  Pd  Pd12  1  0.65982165  0.34017479  -0.00000400  1
loop_
_geom_bond_atom_site_label_1
_geom_bond_atom_site_label_2
_geom_bond_distance
_geom_bond_site_symmetry_2
Cd0 Pd7 2.762742 1_555
Cd0 Pd1 2.762748 1_555
Cd0 Pd10 2.762789 1_555
Cd0 Pd2 2.762814 1_455
Cd0 Pd8 2.762853 1_545
Cd0 Pd9 2.762873 1_445
Cd1 Pd3 2.762658 1_544
Cd1 Pd0 2.762660 1_545
Cd1 Pd10 2.762791 1_554
Cd1 Pd2 2.762812 1_555
Cd1 Pd12 2.762946 1_555
Cd1 Pd5 2.762963 1_555
Cd2 Pd0 2.762663 1_555
Cd2 Pd6 2.762719 1_555
Cd2 Pd1 2.762747 1_554
Cd2 Pd8 2.762862 1_555
Cd2 Pd4 2.762892 1_454
Cd2 Pd12 2.762945 1_455
Cd3 Pd3 2.762655 1_555
Cd3 Pd6 2.762720 1_555
Cd3 Pd7 2.762736 1_555
Cd3 Pd9 2.762869 1_555
Cd3 Pd4 2.762888 1_555
Cd3 Pd5 2.762951 1_555
Pd0 Pd1 2.846528 1_554
Pd0 Pd3 2.846568 1_554
Pd0 Pd2 2.846599 1_565
Pd0 Pd6 2.846644 1_555
Pd0 Pr3 2.953688 1_555
Pd0 Pr5 2.953690 1_555
Pd0 Pd7 3.146684 1_554
Pd0 Pd9 3.146730 1_555
Pd0 Pr1 3.369024 1_554
Pd0 Pr2 3.369086 1_565
Pd1 Pd7 2.846504 1_555
Pd1 Pd4 2.846681 1_455
Pd1 Pd2 2.846703 1_455
Pd1 Pr0 2.953698 1_555
Pd1 Pr1 2.953698 1_555
Pd1 Pd3 3.146681 1_555
Pd1 Pd5 3.146763 1_455
Pd1 Pr5 3.369012 1_556
Pd1 Pr4 3.369180 1_455
Pd2 Pd9 2.846524 1_545
Pd2 Pd5 2.846634 1_555
Pd2 Pr2 2.953724 1_555
Pd2 Pr4 2.953725 1_555
Pd2 Pd6 3.146741 1_545
Pd2 Pd4 3.146765 1_555
Pd2 Pr3 3.369050 1_545
Pd2 Pr0 3.369148 1_655
Pd3 Pd7 2.846540 1_555
Pd3 Pd6 2.846622 1_555
Pd3 Pr0 2.953677 1_555
Pd3 Pr1 2.953682 1_555
Pd3 Pd8 3.146730 1_555
Pd3 Pr3 3.369033 1_556
Pd3 Pr4 3.369079 1_565
Pd4 Pd5 2.846598 1_555
Pd4 Pd7 2.846659 1_555
Pd4 Pr2 2.953721 1_555
Pd4 Pr4 2.953726 1_555
Pd4 Pr3 3.369142 1_556
Pd4 Pr1 3.369152 1_655
Pd5 Pd9 2.846683 1_555
Pd5 Pr1 2.953729 1_655
Pd5 Pr0 2.953742 1_655
Pd5 Pd8 3.146804 1_655
Pd5 Pr2 3.369134 1_555
Pd5 Pr5 3.369180 1_555
Pd6 Pd8 2.846551 1_555
Pd6 Pd9 2.846555 1_555
Pd6 Pr4 2.953701 1_565
Pd6 Pr2 2.953706 1_565
Pd6 Pr0 3.369052 1_555
Pd6 Pr5 3.369068 1_555
Pd7 Pr3 2.953689 1_556
Pd7 Pr5 2.953693 1_556
Pd7 Pr0 3.369027 1_555
Pd7 Pr2 3.369173 1_555
Pd8 Pd9 2.846729 1_455
Pd8 Pr1 2.953732 1_555
Pd8 Pr0 2.953736 1_555
Pd8 Pr2 3.369017 1_565
Pd8 Pr3 3.369181 1_455
Pd9 Pr5 2.953727 1_555
Pd9 Pr3 2.953734 1_555
Pd9 Pr4 3.369033 1_565
Pd9 Pr1 3.369190 1_655
Pd10 Pd8 2.846514 1_545
Pd10 Pd3 2.846598 1_545
Pd10 Pd12 2.846625 1_556
Pd10 Pd7 2.846702 1_555
Pd10 Pr2 2.953715 1_555
Pd10 Pr4 2.953718 1_555
Pd10 Pd6 3.146730 1_545
Pd10 Pd4 3.146757 1_555
Pd10 Pr1 3.369042 1_545
Pd10 Pr5 3.369147 1_556
Pd11 Pr4 2.979655 1_454
Pd11 Pr3 2.979656 1_445
Pd11 Pr2 2.979658 1_555
Pd11 Pr5 2.979658 1_555
Pd11 Pr1 2.979662 1_544
Pd11 Pr0 2.979662 1_555
Pd12 Pd4 2.846586 1_554
Pd12 Pd5 2.846661 1_555
Pd12 Pd8 2.846692 1_655
Pd12 Pr3 2.953741 1_555
Pd12 Pr5 2.953744 1_555
Pd12 Pd7 3.146750 1_554
Pd12 Pd9 3.146809 1_555
Pd12 Pr4 3.369118 1_554
Pd12 Pr0 3.369176 1_655
