# generated using pymatgen
data_Ca4Nb2O9
_symmetry_space_group_name_H-M   'P 1'
_cell_length_a   8.13717300
_cell_length_b   9.84552602
_cell_length_c   11.41193018
_cell_angle_alpha   107.58997573
_cell_angle_beta   88.55074842
_cell_angle_gamma   113.03971150
_symmetry_Int_Tables_number   1
_chemical_formula_structural   Ca4Nb2O9
_chemical_formula_sum   'Ca16 Nb8 O36'
_cell_volume   797.48055485
_cell_formula_units_Z   4
loop_
 _symmetry_equiv_pos_site_id
 _symmetry_equiv_pos_as_xyz
  1  'x, y, z'
loop_
 _atom_site_type_symbol
 _atom_site_label
 _atom_site_symmetry_multiplicity
 _atom_site_fract_x
 _atom_site_fract_y
 _atom_site_fract_z
 _atom_site_occupancy
  Ca  Ca0  1  0.33529300  0.66809700  0.16535300  1
  Ca  Ca1  1  0.45633900  0.37163000  0.10201000  1
  Ca  Ca2  1  0.69374100  0.98710400  0.24376100  1
  Ca  Ca3  1  0.66470700  0.33190300  0.83464700  1
  Ca  Ca4  1  0.96370700  0.36469200  0.08779300  1
  Ca  Ca5  1  0.76904100  0.01115900  0.76929600  1
  Ca  Ca6  1  0.00000000  0.00000000  0.00000000  1
  Ca  Ca7  1  0.23095900  0.98884100  0.23070400  1
  Ca  Ca8  1  0.03629300  0.63530800  0.91220700  1
  Ca  Ca9  1  0.00000000  0.00000000  0.50000000  1
  Ca  Ca10  1  0.30625900  0.01289600  0.75623900  1
  Ca  Ca11  1  0.11704600  0.68876000  0.43643600  1
  Ca  Ca12  1  0.54366100  0.62837000  0.89799000  1
  Ca  Ca13  1  0.37093700  0.31031700  0.56901900  1
  Ca  Ca14  1  0.62906300  0.68968300  0.43098100  1
  Ca  Ca15  1  0.88295400  0.31124000  0.56356400  1
  Nb  Nb0  1  0.65986800  0.34181600  0.33549500  1
  Nb  Nb1  1  0.83732000  0.68578500  0.17335800  1
  Nb  Nb2  1  0.14697100  0.32451900  0.32635300  1
  Nb  Nb3  1  0.16268000  0.31421500  0.82664200  1
  Nb  Nb4  1  0.50000000  0.00000000  0.00000000  1
  Nb  Nb5  1  0.34013200  0.65818400  0.66450500  1
  Nb  Nb6  1  0.50000000  0.00000000  0.50000000  1
  Nb  Nb7  1  0.85302900  0.67548100  0.67364700  1
  O  O0  1  0.59250800  0.64941200  0.22293700  1
  O  O1  1  0.75471400  0.43404300  0.20869700  1
  O  O2  1  0.38263400  0.88694500  0.32700700  1
  O  O3  1  0.52903100  0.13031600  0.19038600  1
  O  O4  1  0.88821200  0.26079700  0.32701000  1
  O  O5  1  0.18749000  0.51327400  0.28584100  1
  O  O6  1  0.51062400  0.82842700  0.05367500  1
  O  O7  1  0.76787400  0.08660700  0.99809500  1
  O  O8  1  0.94659800  0.35197400  0.88324300  1
  O  O9  1  0.16558400  0.22022600  0.15974100  1
  O  O10  1  0.28118900  0.44849300  0.00002800  1
  O  O11  1  0.90846500  0.88794200  0.15657900  1
  O  O12  1  0.09153500  0.11205800  0.84342100  1
  O  O13  1  0.71881100  0.55150700  0.99997200  1
  O  O14  1  0.83441600  0.77977400  0.84025900  1
  O  O15  1  0.05340200  0.64802600  0.11675700  1
  O  O16  1  0.23212600  0.91339300  0.00190500  1
  O  O17  1  0.48937600  0.17157300  0.94632500  1
  O  O18  1  0.81251000  0.48672600  0.71415900  1
  O  O19  1  0.11178800  0.73920300  0.67299000  1
  O  O20  1  0.27303000  0.01209800  0.55732500  1
  O  O21  1  0.47096900  0.86968400  0.80961400  1
  O  O22  1  0.61736600  0.11305500  0.67299300  1
  O  O23  1  0.24528600  0.56595700  0.79130300  1
  O  O24  1  0.42107100  0.78945400  0.54142600  1
  O  O25  1  0.06529600  0.23455300  0.65162400  1
  O  O26  1  0.18892800  0.47676300  0.52228100  1
  O  O27  1  0.40749200  0.35058800  0.77706300  1
  O  O28  1  0.53899900  0.59877700  0.64784600  1
  O  O29  1  0.83514400  0.83318400  0.60838800  1
  O  O30  1  0.16485600  0.16681600  0.39161200  1
  O  O31  1  0.46100100  0.40122300  0.35215400  1
  O  O32  1  0.81107200  0.52323700  0.47771900  1
  O  O33  1  0.93470400  0.76544700  0.34837600  1
  O  O34  1  0.57892900  0.21054600  0.45857400  1
  O  O35  1  0.72697000  0.98790200  0.44267500  1
loop_
_geom_bond_atom_site_label_1
_geom_bond_atom_site_label_2
_geom_bond_distance
_geom_bond_site_symmetry_2
Ca0 O2 2.275530 1_555
Ca0 O15 2.291596 1_555
Ca0 O10 2.293374 1_555
Ca0 O0 2.300079 1_555
Ca0 O5 2.325683 1_555
Ca0 O6 2.347903 1_555
Ca1 O17 2.320262 1_554
Ca1 O10 2.327841 1_555
Ca1 O9 2.451097 1_555
Ca1 O0 2.456849 1_555
Ca1 O1 2.506851 1_555
Ca1 O13 2.685861 1_554
Ca1 O31 2.780170 1_555
Ca2 O35 2.290119 1_555
Ca2 O11 2.378256 1_555
Ca2 O6 2.379005 1_555
Ca2 O4 2.420516 1_565
Ca2 O3 2.488983 1_565
Ca2 O2 2.602714 1_555
Ca3 O22 2.275530 1_555
Ca3 O8 2.291596 1_555
Ca3 O13 2.293374 1_555
Ca3 O27 2.300079 1_555
Ca3 O18 2.325683 1_555
Ca3 O17 2.347903 1_555
Ca4 O8 2.304386 1_554
Ca4 O1 2.341538 1_555
Ca4 O7 2.461056 1_554
Ca4 O15 2.506974 1_655
Ca4 O5 2.586265 1_655
Ca4 O10 2.656698 1_655
Ca4 O9 2.828186 1_655
Ca5 O22 2.332742 1_555
Ca5 O29 2.339800 1_545
Ca5 O21 2.391906 1_545
Ca5 O12 2.480457 1_655
Ca5 O7 2.490260 1_555
Ca5 O14 2.866008 1_545
Ca5 O8 2.949718 1_555
Ca6 O9 2.299653 1_555
Ca6 O14 2.299653 1_444
Ca6 O11 2.333639 1_445
Ca6 O12 2.333639 1_554
Ca6 O16 2.359930 1_545
Ca6 O7 2.359930 1_454
Ca7 O2 2.332742 1_555
Ca7 O30 2.339800 1_565
Ca7 O3 2.391906 1_565
Ca7 O11 2.480457 1_455
Ca7 O16 2.490260 1_555
Ca7 O9 2.866008 1_565
Ca7 O15 2.949718 1_555
Ca8 O15 2.304386 1_556
Ca8 O23 2.341538 1_555
Ca8 O16 2.461056 1_556
Ca8 O8 2.506974 1_455
Ca8 O18 2.586265 1_455
Ca8 O13 2.656698 1_455
Ca8 O14 2.828186 1_455
Ca9 O20 2.279771 1_555
Ca9 O35 2.279771 1_445
Ca9 O33 2.297862 1_445
Ca9 O25 2.297862 1_555
Ca9 O30 2.333735 1_555
Ca9 O29 2.333735 1_445
Ca10 O20 2.290119 1_555
Ca10 O12 2.378256 1_555
Ca10 O17 2.379005 1_555
Ca10 O19 2.420516 1_545
Ca10 O21 2.488983 1_545
Ca10 O22 2.602714 1_555
Ca11 O33 2.278674 1_455
Ca11 O5 2.279899 1_555
Ca11 O24 2.459848 1_555
Ca11 O32 2.511064 1_455
Ca11 O19 2.595467 1_555
Ca11 O26 2.806922 1_555
Ca11 O20 2.814234 1_565
Ca11 O2 2.841275 1_555
Ca12 O6 2.320262 1_556
Ca12 O13 2.327841 1_555
Ca12 O14 2.451097 1_555
Ca12 O27 2.456849 1_555
Ca12 O23 2.506851 1_555
Ca12 O10 2.685861 1_556
Ca12 O28 2.780170 1_555
Ca13 O27 2.292790 1_555
Ca13 O30 2.344232 1_555
Ca13 O34 2.421372 1_555
Ca13 O28 2.494645 1_555
Ca13 O25 2.546527 1_555
Ca13 O20 2.685318 1_555
Ca13 O26 2.762507 1_555
Ca13 O31 2.862977 1_555
Ca14 O0 2.292790 1_555
Ca14 O29 2.344232 1_555
Ca14 O24 2.421372 1_555
Ca14 O31 2.494645 1_555
Ca14 O33 2.546527 1_555
Ca14 O35 2.685318 1_555
Ca14 O32 2.762507 1_555
Ca14 O28 2.862977 1_555
Ca15 O25 2.278674 1_655
Ca15 O18 2.279899 1_555
Ca15 O34 2.459848 1_555
Ca15 O26 2.511064 1_655
Ca15 O4 2.595467 1_555
Ca15 O32 2.806922 1_555
Ca15 O35 2.814234 1_545
Ca15 O22 2.841275 1_555
Nb0 O31 1.911790 1_555
Nb0 O1 1.924344 1_555
Nb0 O32 1.991774 1_555
Nb0 O34 2.112120 1_555
Nb0 O3 2.116965 1_555
Nb0 O4 2.280887 1_555
Nb1 O11 1.912094 1_555
Nb1 O33 1.969529 1_555
Nb1 O0 1.980857 1_555
Nb1 O15 1.988993 1_655
Nb1 O13 2.027415 1_554
Nb1 O1 2.458446 1_555
Nb2 O9 1.902533 1_555
Nb2 O4 1.948109 1_455
Nb2 O5 1.951420 1_555
Nb2 O30 1.966679 1_555
Nb2 O26 2.230483 1_555
Nb2 O31 2.362165 1_555
Nb3 O12 1.912094 1_555
Nb3 O25 1.969529 1_555
Nb3 O27 1.980857 1_555
Nb3 O8 1.988993 1_455
Nb3 O10 2.027415 1_556
Nb3 O23 2.458446 1_555
Nb4 O6 1.994625 1_545
Nb4 O17 1.994625 1_554
Nb4 O7 2.008180 1_554
Nb4 O16 2.008180 1_545
Nb4 O3 2.127522 1_555
Nb4 O21 2.127522 1_544
Nb5 O28 1.911790 1_555
Nb5 O23 1.924344 1_555
Nb5 O26 1.991774 1_555
Nb5 O24 2.112120 1_555
Nb5 O21 2.116965 1_555
Nb5 O19 2.280887 1_555
Nb6 O20 1.979179 1_555
Nb6 O35 1.979179 1_545
Nb6 O22 1.995894 1_555
Nb6 O2 1.995894 1_545
Nb6 O24 2.113740 1_545
Nb6 O34 2.113740 1_555
Nb7 O14 1.902533 1_555
Nb7 O19 1.948109 1_655
Nb7 O18 1.951420 1_555
Nb7 O29 1.966679 1_555
Nb7 O32 2.230483 1_555
Nb7 O28 2.362165 1_555
