# generated using pymatgen
data_Yb2MoO6
_symmetry_space_group_name_H-M   'P 1'
_cell_length_a   9.75011980
_cell_length_b   9.75011980
_cell_length_c   5.46551929
_cell_angle_alpha   76.06701902
_cell_angle_beta   76.06701902
_cell_angle_gamma   72.20493009
_symmetry_Int_Tables_number   1
_chemical_formula_structural   Yb2MoO6
_chemical_formula_sum   'Yb8 Mo4 O24'
_cell_volume   472.24009820
_cell_formula_units_Z   4
loop_
 _symmetry_equiv_pos_site_id
 _symmetry_equiv_pos_as_xyz
  1  'x, y, z'
loop_
 _atom_site_type_symbol
 _atom_site_label
 _atom_site_symmetry_multiplicity
 _atom_site_fract_x
 _atom_site_fract_y
 _atom_site_fract_z
 _atom_site_occupancy
  Yb  Yb0  1  0.12590900  0.87409100  0.25000000  1
  Yb  Yb1  1  0.78787800  0.55663000  0.60278400  1
  Yb  Yb2  1  0.63531600  0.36468400  0.25000000  1
  Yb  Yb3  1  0.21212200  0.44337000  0.39721600  1
  Yb  Yb4  1  0.44337000  0.21212200  0.89721600  1
  Yb  Yb5  1  0.36468400  0.63531600  0.75000000  1
  Yb  Yb6  1  0.87409100  0.12590900  0.75000000  1
  Yb  Yb7  1  0.55663000  0.78787800  0.10278400  1
  Mo  Mo0  1  0.70498900  0.98835000  0.42122500  1
  Mo  Mo1  1  0.01165000  0.29501100  0.07877500  1
  Mo  Mo2  1  0.98835000  0.70498900  0.92122500  1
  Mo  Mo3  1  0.29501100  0.01165000  0.57877500  1
  O  O0  1  0.16962900  0.65618800  0.09873600  1
  O  O1  1  0.95253800  0.88714200  0.97311400  1
  O  O2  1  0.32044100  0.87763200  0.87515700  1
  O  O3  1  0.67955900  0.12236800  0.12484300  1
  O  O4  1  0.57997000  0.56811600  0.44098500  1
  O  O5  1  0.88714200  0.95253800  0.47311400  1
  O  O6  1  0.56811600  0.57997000  0.94098500  1
  O  O7  1  0.97946700  0.56701700  0.23768800  1
  O  O8  1  0.43298300  0.02053300  0.26231200  1
  O  O9  1  0.30116000  0.18833600  0.62613700  1
  O  O10  1  0.69884000  0.81166400  0.37386300  1
  O  O11  1  0.11285800  0.04746200  0.52688600  1
  O  O12  1  0.42003000  0.43188400  0.55901500  1
  O  O13  1  0.65618800  0.16962900  0.59873600  1
  O  O14  1  0.83037100  0.34381200  0.90126400  1
  O  O15  1  0.34381200  0.83037100  0.40126400  1
  O  O16  1  0.56701700  0.97946700  0.73768800  1
  O  O17  1  0.87763200  0.32044100  0.37515700  1
  O  O18  1  0.18833600  0.30116000  0.12613700  1
  O  O19  1  0.81166400  0.69884000  0.87386300  1
  O  O20  1  0.02053300  0.43298300  0.76231200  1
  O  O21  1  0.12236800  0.67955900  0.62484300  1
  O  O22  1  0.43188400  0.42003000  0.05901500  1
  O  O23  1  0.04746200  0.11285800  0.02688600  1
loop_
_geom_bond_atom_site_label_1
_geom_bond_atom_site_label_2
_geom_bond_distance
_geom_bond_site_symmetry_2
Mo0 O5 1.781124 1_555
Mo0 O10 1.823098 1_555
Mo0 O3 1.835480 1_565
Mo0 O16 1.920254 1_555
Mo0 O13 2.093119 1_565
Mo1 O23 1.781124 1_555
Mo1 O18 1.823098 1_555
Mo1 O17 1.835480 1_455
Mo1 O20 1.920254 1_554
Mo1 O14 2.093119 1_454
Mo2 O1 1.781124 1_555
Mo2 O19 1.823098 1_555
Mo2 O21 1.835480 1_655
Mo2 O7 1.920254 1_556
Mo2 O0 2.093119 1_656
Mo3 O11 1.781124 1_555
Mo3 O9 1.823098 1_555
Mo3 O2 1.835480 1_545
Mo3 O8 1.920254 1_555
Mo3 O15 2.093119 1_545
O0 Yb3 2.304007 1_555
O0 Yb5 2.344312 1_554
O0 Yb0 2.345557 1_555
O1 Yb6 2.342082 1_565
O1 Yb0 2.484243 1_656
O2 Yb0 2.435278 1_556
O2 Yb5 2.499835 1_555
O2 Yb7 2.690807 1_556
O3 Yb6 2.435278 1_554
O3 Yb2 2.499835 1_555
O3 Yb4 2.690807 1_554
O4 Yb2 2.320900 1_555
O4 Yb1 2.362336 1_555
O4 Yb5 2.381777 1_555
O4 Yb7 2.461076 1_555
O5 Yb0 2.342082 1_655
O5 Yb6 2.484243 1_565
O6 Yb5 2.320900 1_555
O6 Yb7 2.362336 1_556
O6 Yb2 2.381777 1_556
O6 Yb1 2.461076 1_555
O7 Yb1 2.388464 1_555
O7 Yb3 2.476702 1_655
O8 Yb4 2.388464 1_554
O8 Yb7 2.476702 1_545
O9 Yb4 2.350058 1_555
O9 Yb3 2.491521 1_555
O10 Yb7 2.350058 1_555
O10 Yb1 2.491521 1_555
O11 Yb6 2.342082 1_455
O11 Yb0 2.484243 1_545
O12 Yb5 2.320900 1_555
O12 Yb3 2.362336 1_555
O12 Yb2 2.381777 1_555
O12 Yb4 2.461076 1_555
O13 Yb4 2.304007 1_555
O13 Yb2 2.344312 1_555
O13 Yb6 2.345557 1_555
O14 Yb1 2.304007 1_555
O14 Yb2 2.344312 1_556
O14 Yb6 2.345557 1_555
O15 Yb7 2.304007 1_555
O15 Yb5 2.344312 1_555
O15 Yb0 2.345557 1_555
O16 Yb7 2.388464 1_556
O16 Yb4 2.476702 1_565
O17 Yb6 2.435278 1_555
O17 Yb2 2.499835 1_555
O17 Yb1 2.690807 1_555
O18 Yb3 2.350058 1_555
O18 Yb4 2.491521 1_554
O19 Yb1 2.350058 1_555
O19 Yb7 2.491521 1_556
O20 Yb3 2.388464 1_555
O20 Yb1 2.476702 1_455
O21 Yb0 2.435278 1_555
O21 Yb5 2.499835 1_555
O21 Yb3 2.690807 1_555
O22 Yb2 2.320900 1_555
O22 Yb4 2.362336 1_554
O22 Yb5 2.381777 1_554
O22 Yb3 2.461076 1_555
O23 Yb0 2.342082 1_545
O23 Yb6 2.484243 1_454
