# generated using pymatgen
data_Tm(CoGe)2
_symmetry_space_group_name_H-M   'P 1'
_cell_length_a   3.89502222
_cell_length_b   3.89502225
_cell_length_c   5.70235248
_cell_angle_alpha   109.96997195
_cell_angle_beta   109.96996982
_cell_angle_gamma   89.99999774
_symmetry_Int_Tables_number   1
_chemical_formula_structural   Tm(CoGe)2
_chemical_formula_sum   'Tm1 Co2 Ge2'
_cell_volume   75.75158384
_cell_formula_units_Z   1
loop_
 _symmetry_equiv_pos_site_id
 _symmetry_equiv_pos_as_xyz
  1  'x, y, z'
loop_
 _atom_site_type_symbol
 _atom_site_label
 _atom_site_symmetry_multiplicity
 _atom_site_fract_x
 _atom_site_fract_y
 _atom_site_fract_z
 _atom_site_occupancy
  Tm  Tm0  1  -0.00000000  -0.00000000  -0.00000000  1
  Co  Co0  1  0.25000000  0.75000000  0.50000000  1
  Co  Co1  1  0.75000000  0.25000000  0.50000000  1
  Ge  Ge0  1  0.62680674  0.62680674  0.25361348  1
  Ge  Ge1  1  0.37319326  0.37319326  0.74638652  1
loop_
_geom_bond_atom_site_label_1
_geom_bond_atom_site_label_2
_geom_bond_distance
_geom_bond_site_symmetry_2
Co0 Ge0 2.303537 1_555
Co0 Ge1 2.303537 1_555
Co0 Ge1 2.303537 1_565
Co0 Ge0 2.303537 1_455
Co0 Tm0 3.166324 1_566
Co0 Tm0 3.166324 1_565
Co0 Tm0 3.166324 1_555
Co0 Tm0 3.166324 1_666
Co1 Ge1 2.303537 1_555
Co1 Ge0 2.303537 1_555
Co1 Ge0 2.303537 1_545
Co1 Ge1 2.303537 1_655
Co1 Tm0 3.166324 1_655
Co1 Tm0 3.166324 1_656
Co1 Tm0 3.166324 1_666
Co1 Tm0 3.166324 1_555
Ge0 Ge1 2.532644 1_554
Ge0 Tm0 3.031364 1_665
Ge0 Tm0 3.031364 1_655
Ge0 Tm0 3.031364 1_565
Ge0 Tm0 3.031365 1_555
Ge1 Tm0 3.031364 1_556
Ge1 Tm0 3.031364 1_566
Ge1 Tm0 3.031364 1_656
Ge1 Tm0 3.031365 1_666
