# generated using pymatgen
data_YbZr6(PO4)9
_symmetry_space_group_name_H-M   'P 1'
_cell_length_a   8.99054803
_cell_length_b   8.99054803
_cell_length_c   22.81548100
_cell_angle_alpha   90.00000000
_cell_angle_beta   90.00000000
_cell_angle_gamma   120.00000024
_symmetry_Int_Tables_number   1
_chemical_formula_structural   YbZr6(PO4)9
_chemical_formula_sum   'Yb2 Zr12 P18 O72'
_cell_volume   1597.10177001
_cell_formula_units_Z   2
loop_
 _symmetry_equiv_pos_site_id
 _symmetry_equiv_pos_as_xyz
  1  'x, y, z'
loop_
 _atom_site_type_symbol
 _atom_site_label
 _atom_site_symmetry_multiplicity
 _atom_site_fract_x
 _atom_site_fract_y
 _atom_site_fract_z
 _atom_site_occupancy
  Yb  Yb0  1  0.00000000  0.00000000  0.50000000  1
  Yb  Yb1  1  0.00000000  0.00000000  0.00000000  1
  Zr  Zr0  1  0.33333300  0.66666700  0.81086900  1
  Zr  Zr1  1  0.66666700  0.33333300  0.97023400  1
  Zr  Zr2  1  0.33333300  0.66666700  0.02976600  1
  Zr  Zr3  1  0.66666700  0.33333300  0.18913100  1
  Zr  Zr4  1  0.66666700  0.33333300  0.47023400  1
  Zr  Zr5  1  0.00000000  0.00000000  0.64692900  1
  Zr  Zr6  1  0.33333300  0.66666700  0.31086900  1
  Zr  Zr7  1  0.00000000  0.00000000  0.35307100  1
  Zr  Zr8  1  0.66666700  0.33333300  0.68913100  1
  Zr  Zr9  1  0.33333300  0.66666700  0.52976600  1
  Zr  Zr10  1  0.00000000  0.00000000  0.14692900  1
  Zr  Zr11  1  0.00000000  0.00000000  0.85307100  1
  P  P0  1  0.94645000  0.32071400  0.57976700  1
  P  P1  1  0.32071400  0.37426400  0.42023300  1
  P  P2  1  0.32071400  0.94645000  0.92023300  1
  P  P3  1  0.37426400  0.05355000  0.57976700  1
  P  P4  1  0.00000000  0.71056700  0.75000000  1
  P  P5  1  0.05355000  0.37426400  0.92023300  1
  P  P6  1  0.62573600  0.94645000  0.42023300  1
  P  P7  1  0.28943300  0.00000000  0.25000000  1
  P  P8  1  0.28943300  0.28943300  0.75000000  1
  P  P9  1  0.71056700  0.00000000  0.75000000  1
  P  P10  1  0.67928600  0.62573600  0.57976700  1
  P  P11  1  0.37426400  0.32071400  0.07976700  1
  P  P12  1  0.71056700  0.71056700  0.25000000  1
  P  P13  1  0.67928600  0.05355000  0.07976700  1
  P  P14  1  0.05355000  0.67928600  0.42023300  1
  P  P15  1  0.00000000  0.28943300  0.25000000  1
  P  P16  1  0.94645000  0.62573600  0.07976700  1
  P  P17  1  0.62573600  0.67928600  0.92023300  1
  O  O0  1  0.32464100  0.85290700  0.86469700  1
  O  O1  1  0.15960200  0.97100600  0.92005000  1
  O  O2  1  0.97100600  0.15960200  0.57995000  1
  O  O3  1  0.12548600  0.64219800  0.07762500  1
  O  O4  1  0.18859500  0.15960200  0.07995000  1
  O  O5  1  0.85290700  0.32464100  0.63530300  1
  O  O6  1  0.48328700  0.12548600  0.92237500  1
  O  O7  1  0.30686900  0.84246100  0.97549300  1
  O  O8  1  0.79778800  0.82501500  0.19548400  1
  O  O9  1  0.84039800  0.02899400  0.07995000  1
  O  O10  1  0.18859500  0.02899400  0.57995000  1
  O  O11  1  0.84139600  0.53343100  0.74150700  1
  O  O12  1  0.12548600  0.48328700  0.57762500  1
  O  O13  1  0.85290700  0.52826500  0.13530300  1
  O  O14  1  0.20221200  0.17498500  0.80451600  1
  O  O15  1  0.15753900  0.46440800  0.97549300  1
  O  O16  1  0.15860400  0.69203500  0.75849300  1
  O  O17  1  0.32464100  0.47173500  0.36469700  1
  O  O18  1  0.15860400  0.46656900  0.25849300  1
  O  O19  1  0.53343100  0.69203500  0.25849300  1
  O  O20  1  0.52826500  0.85290700  0.36469700  1
  O  O21  1  0.84246100  0.53559200  0.02450700  1
  O  O22  1  0.97277200  0.79778800  0.80451600  1
  O  O23  1  0.52826500  0.67535900  0.86469700  1
  O  O24  1  0.64219800  0.51671300  0.92237500  1
  O  O25  1  0.14709300  0.67535900  0.36469700  1
  O  O26  1  0.53343100  0.84139600  0.75849300  1
  O  O27  1  0.20221200  0.02722800  0.30451600  1
  O  O28  1  0.51671300  0.87451400  0.07762500  1
  O  O29  1  0.82501500  0.79778800  0.30451600  1
  O  O30  1  0.81140500  0.97100600  0.42005000  1
  O  O31  1  0.87451400  0.35780200  0.92237500  1
  O  O32  1  0.69203500  0.15860400  0.74150700  1
  O  O33  1  0.46440800  0.15753900  0.52450700  1
  O  O34  1  0.87451400  0.51671300  0.42237500  1
  O  O35  1  0.30686900  0.46440800  0.47549300  1
  O  O36  1  0.79778800  0.97277200  0.69548400  1
  O  O37  1  0.47173500  0.14709300  0.63530300  1
  O  O38  1  0.15960200  0.18859500  0.42005000  1
  O  O39  1  0.51671300  0.64219800  0.57762500  1
  O  O40  1  0.35780200  0.48328700  0.07762500  1
  O  O41  1  0.02899400  0.84039800  0.42005000  1
  O  O42  1  0.47173500  0.32464100  0.13530300  1
  O  O43  1  0.46656900  0.30796500  0.74150700  1
  O  O44  1  0.53559200  0.84246100  0.47549300  1
  O  O45  1  0.35780200  0.87451400  0.57762500  1
  O  O46  1  0.17498500  0.97277200  0.19548400  1
  O  O47  1  0.84039800  0.81140500  0.57995000  1
  O  O48  1  0.81140500  0.84039800  0.92005000  1
  O  O49  1  0.02722800  0.20221200  0.19548400  1
  O  O50  1  0.14709300  0.47173500  0.86469700  1
  O  O51  1  0.64219800  0.12548600  0.42237500  1
  O  O52  1  0.97277200  0.17498500  0.30451600  1
  O  O53  1  0.69313100  0.15753900  0.02450700  1
  O  O54  1  0.84246100  0.30686900  0.52450700  1
  O  O55  1  0.67535900  0.14709300  0.13530300  1
  O  O56  1  0.02899400  0.18859500  0.92005000  1
  O  O57  1  0.17498500  0.20221200  0.69548400  1
  O  O58  1  0.30796500  0.84139600  0.25849300  1
  O  O59  1  0.69313100  0.53559200  0.52450700  1
  O  O60  1  0.53559200  0.69313100  0.97549300  1
  O  O61  1  0.46440800  0.30686900  0.02450700  1
  O  O62  1  0.82501500  0.02722800  0.80451600  1
  O  O63  1  0.69203500  0.53343100  0.24150700  1
  O  O64  1  0.02722800  0.82501500  0.69548400  1
  O  O65  1  0.30796500  0.46656900  0.75849300  1
  O  O66  1  0.67535900  0.52826500  0.63530300  1
  O  O67  1  0.97100600  0.81140500  0.07995000  1
  O  O68  1  0.48328700  0.35780200  0.42237500  1
  O  O69  1  0.15753900  0.69313100  0.47549300  1
  O  O70  1  0.46656900  0.15860400  0.24150700  1
  O  O71  1  0.84139600  0.30796500  0.24150700  1
loop_
_geom_bond_atom_site_label_1
_geom_bond_atom_site_label_2
_geom_bond_distance
_geom_bond_site_symmetry_2
O0 P2 1.530921 1_555
O0 Zr0 2.109224 1_555
O1 P2 1.570558 1_555
O1 Zr11 2.199141 1_565
O1 Yb1 2.414185 1_566
O2 P0 1.570558 1_555
O2 Zr5 2.199141 1_655
O2 Yb0 2.414185 1_655
O3 P16 1.541745 1_455
O3 Zr2 2.078821 1_555
O4 P11 1.570563 1_555
O4 Zr10 2.199137 1_555
O4 Yb1 2.414181 1_555
O5 P0 1.530921 1_555
O5 Zr8 2.109224 1_555
O6 P2 1.541741 1_545
O6 Zr1 2.078827 1_555
O7 P2 1.537130 1_555
O7 Zr2 2.112789 1_556
O8 P12 1.553656 1_555
O8 Zr10 2.036479 1_665
O9 P13 1.570558 1_555
O9 Zr10 2.199141 1_655
O9 Yb1 2.414185 1_655
O10 P3 1.570567 1_555
O10 Zr5 2.199135 1_555
O10 Yb0 2.414179 1_555
O11 P4 1.528458 1_655
O11 Zr8 2.075104 1_555
O12 P0 1.541741 1_455
O12 Zr9 2.078827 1_555
O13 P16 1.530923 1_555
O13 Zr3 2.109224 1_555
O14 P8 1.553656 1_555
O14 Zr11 2.036479 1_555
O15 P5 1.537130 1_555
O15 Zr2 2.112793 1_556
O16 P4 1.528458 1_555
O16 Zr0 2.075100 1_555
O17 P1 1.530926 1_555
O17 Zr6 2.109224 1_555
O18 P15 1.528458 1_555
O18 Zr6 2.075104 1_555
O19 P12 1.528458 1_555
O19 Zr6 2.075107 1_555
O20 P6 1.530923 1_555
O20 Zr6 2.109224 1_555
O21 P16 1.537130 1_555
O21 Zr1 2.112793 1_554
O22 P4 1.553660 1_655
O22 Zr11 2.036476 1_665
O23 P17 1.530926 1_555
O23 Zr0 2.109224 1_555
O24 P17 1.541736 1_555
O24 Zr1 2.078836 1_555
O25 P14 1.530921 1_555
O25 Zr6 2.109224 1_555
O26 P9 1.528458 1_565
O26 Zr0 2.075104 1_555
O27 P7 1.553660 1_555
O27 Zr7 2.036476 1_555
O28 P13 1.541741 1_565
O28 Zr2 2.078827 1_555
O29 P12 1.553656 1_555
O29 Zr7 2.036479 1_665
O30 P6 1.570567 1_555
O30 Zr7 2.199135 1_665
O30 Yb0 2.414179 1_665
O31 P5 1.541745 1_655
O31 Zr1 2.078821 1_555
O32 P9 1.528458 1_555
O32 Zr8 2.075100 1_555
O33 P3 1.537130 1_555
O33 Zr4 2.112793 1_555
O34 P14 1.541741 1_655
O34 Zr4 2.078827 1_555
O35 P1 1.537130 1_555
O35 Zr9 2.112796 1_555
O36 P9 1.553660 1_565
O36 Zr5 2.036476 1_665
O37 P3 1.530923 1_555
O37 Zr8 2.109224 1_555
O38 P1 1.570563 1_555
O38 Zr7 2.199137 1_555
O38 Yb0 2.414181 1_555
O39 P10 1.541736 1_555
O39 Zr9 2.078836 1_555
O40 P11 1.541736 1_555
O40 Zr2 2.078836 1_555
O41 P14 1.570558 1_555
O41 Zr7 2.199141 1_565
O41 Yb0 2.414185 1_565
O42 P11 1.530926 1_555
O42 Zr3 2.109224 1_555
O43 P8 1.528458 1_555
O43 Zr8 2.075107 1_555
O44 P6 1.537130 1_555
O44 Zr9 2.112793 1_555
O45 P3 1.541745 1_565
O45 Zr9 2.078821 1_555
O46 P7 1.553654 1_565
O46 Zr10 2.036483 1_565
O47 P10 1.570563 1_555
O47 Zr5 2.199137 1_665
O47 Yb0 2.414181 1_665
O48 P17 1.570563 1_555
O48 Zr11 2.199137 1_665
O48 Yb1 2.414181 1_666
O49 P15 1.553660 1_555
O49 Zr10 2.036476 1_555
O50 P5 1.530923 1_555
O50 Zr0 2.109224 1_555
O51 P6 1.541745 1_545
O51 Zr4 2.078821 1_555
O52 P15 1.553654 1_655
O52 Zr7 2.036483 1_655
O53 P13 1.537130 1_555
O53 Zr1 2.112789 1_554
O54 P0 1.537130 1_555
O54 Zr4 2.112789 1_555
O55 P13 1.530921 1_555
O55 Zr3 2.109224 1_555
O56 P5 1.570567 1_555
O56 Zr11 2.199135 1_555
O56 Yb1 2.414179 1_556
O57 P8 1.553656 1_555
O57 Zr5 2.036479 1_555
O58 P7 1.528458 1_565
O58 Zr6 2.075100 1_555
O59 P10 1.537130 1_555
O59 Zr4 2.112796 1_555
O60 P17 1.537130 1_555
O60 Zr2 2.112796 1_556
O61 P11 1.537130 1_555
O61 Zr1 2.112796 1_554
O62 P9 1.553654 1_555
O62 Zr11 2.036483 1_655
O63 P12 1.528458 1_555
O63 Zr3 2.075107 1_555
O64 P4 1.553654 1_555
O64 Zr5 2.036483 1_565
O65 P8 1.528458 1_555
O65 Zr0 2.075107 1_555
O66 P10 1.530926 1_555
O66 Zr8 2.109224 1_555
O67 P16 1.570567 1_555
O67 Zr10 2.199135 1_665
O67 Yb1 2.414179 1_665
O68 P1 1.541736 1_555
O68 Zr4 2.078836 1_555
O69 P14 1.537130 1_555
O69 Zr9 2.112789 1_555
O70 P7 1.528458 1_555
O70 Zr3 2.075104 1_555
O71 P15 1.528458 1_655
O71 Zr3 2.075100 1_555
