# generated using pymatgen
data_Zn5(BRh2)4
_symmetry_space_group_name_H-M   'P 1'
_cell_length_a   9.57790097
_cell_length_b   9.57790097
_cell_length_c   2.86837300
_cell_angle_alpha   90.00000000
_cell_angle_beta   90.00000000
_cell_angle_gamma   127.19016509
_symmetry_Int_Tables_number   1
_chemical_formula_structural   Zn5(BRh2)4
_chemical_formula_sum   'Zn5 B4 Rh8'
_cell_volume   209.62109127
_cell_formula_units_Z   1
loop_
 _symmetry_equiv_pos_site_id
 _symmetry_equiv_pos_as_xyz
  1  'x, y, z'
loop_
 _atom_site_type_symbol
 _atom_site_label
 _atom_site_symmetry_multiplicity
 _atom_site_fract_x
 _atom_site_fract_y
 _atom_site_fract_z
 _atom_site_occupancy
  Zn  Zn0  1  0.19843100  0.80156900  0.50000000  1
  Zn  Zn1  1  0.80156900  0.19843100  0.50000000  1
  Zn  Zn2  1  0.35358500  0.35358500  0.50000000  1
  Zn  Zn3  1  0.00000000  0.00000000  0.50000000  1
  Zn  Zn4  1  0.64641500  0.64641500  0.50000000  1
  B  B0  1  0.46634500  0.15608300  0.50000000  1
  B  B1  1  0.15608300  0.46634500  0.50000000  1
  B  B2  1  0.53365500  0.84391700  0.50000000  1
  B  B3  1  0.84391700  0.53365500  0.50000000  1
  Rh  Rh0  1  0.62361000  0.37639000  0.00000000  1
  Rh  Rh1  1  0.37639000  0.62361000  0.00000000  1
  Rh  Rh2  1  0.91932600  0.73281600  0.00000000  1
  Rh  Rh3  1  0.08067400  0.26718400  0.00000000  1
  Rh  Rh4  1  0.50000000  0.00000000  0.00000000  1
  Rh  Rh5  1  0.26718400  0.08067400  0.00000000  1
  Rh  Rh6  1  0.73281600  0.91932600  0.00000000  1
  Rh  Rh7  1  0.00000000  0.50000000  0.00000000  1
loop_
_geom_bond_atom_site_label_1
_geom_bond_atom_site_label_2
_geom_bond_distance
_geom_bond_site_symmetry_2
Zn2 Zn4 2.494565 1_555
B0 Rh5 2.133469 1_556
B0 Rh5 2.133469 1_555
B0 Rh0 2.221663 1_556
B0 Rh0 2.221663 1_555
B0 Rh4 2.231195 1_556
B0 Rh4 2.231195 1_555
B0 Zn2 2.685999 1_555
B1 Rh3 2.133469 1_556
B1 Rh3 2.133469 1_555
B1 Rh1 2.221663 1_555
B1 Rh1 2.221663 1_556
B1 Rh7 2.231195 1_556
B1 Rh7 2.231195 1_555
B1 Zn2 2.685999 1_555
B2 Rh6 2.133469 1_555
B2 Rh6 2.133469 1_556
B2 Rh1 2.221663 1_555
B2 Rh1 2.221663 1_556
B2 Rh4 2.231195 1_566
B2 Rh4 2.231195 1_565
B2 Zn4 2.685999 1_555
B3 Rh2 2.133469 1_556
B3 Rh2 2.133469 1_555
B3 Rh0 2.221663 1_556
B3 Rh0 2.221663 1_555
B3 Rh7 2.231195 1_655
B3 Rh7 2.231195 1_656
B3 Zn4 2.685999 1_555
Rh0 Zn4 2.847890 1_555
Rh0 Zn4 2.847890 1_554
Rh0 Zn2 2.847890 1_555
Rh0 Zn2 2.847890 1_554
Rh1 Zn4 2.847890 1_555
Rh1 Zn4 2.847890 1_554
Rh1 Zn2 2.847890 1_555
Rh1 Zn2 2.847890 1_554
Rh2 Zn3 2.610031 1_665
Rh2 Zn3 2.610031 1_664
Rh2 Zn4 2.638032 1_555
Rh2 Zn4 2.638032 1_554
Rh2 Zn0 2.740183 1_655
Rh2 Zn0 2.740183 1_654
Rh3 Zn3 2.610031 1_554
Rh3 Zn3 2.610031 1_555
Rh3 Zn2 2.638032 1_555
Rh3 Zn2 2.638032 1_554
Rh3 Zn1 2.740183 1_455
Rh3 Zn1 2.740183 1_454
Rh4 Zn0 2.715765 1_545
Rh4 Zn0 2.715765 1_544
Rh4 Zn1 2.715765 1_554
Rh4 Zn1 2.715765 1_555
Rh5 Zn3 2.610031 1_554
Rh5 Zn3 2.610031 1_555
Rh5 Zn2 2.638032 1_555
Rh5 Zn2 2.638032 1_554
Rh5 Zn0 2.740183 1_544
Rh5 Zn0 2.740183 1_545
Rh6 Zn3 2.610031 1_664
Rh6 Zn3 2.610031 1_665
Rh6 Zn4 2.638032 1_555
Rh6 Zn4 2.638032 1_554
Rh6 Zn1 2.740183 1_565
Rh6 Zn1 2.740183 1_564
Rh7 Zn0 2.715765 1_554
Rh7 Zn0 2.715765 1_555
Rh7 Zn1 2.715765 1_455
Rh7 Zn1 2.715765 1_454
