# generated using pymatgen
data_Be12W
_symmetry_space_group_name_H-M   'P 1'
_cell_length_a   4.20075072
_cell_length_b   5.51028302
_cell_length_c   5.51028509
_cell_angle_alpha   81.64097295
_cell_angle_beta   67.58121627
_cell_angle_gamma   67.58122082
_symmetry_Int_Tables_number   1
_chemical_formula_structural   Be12W
_chemical_formula_sum   'Be12 W1'
_cell_volume   108.99700268
_cell_formula_units_Z   1
loop_
 _symmetry_equiv_pos_site_id
 _symmetry_equiv_pos_as_xyz
  1  'x, y, z'
loop_
 _atom_site_type_symbol
 _atom_site_label
 _atom_site_symmetry_multiplicity
 _atom_site_fract_x
 _atom_site_fract_y
 _atom_site_fract_z
 _atom_site_occupancy
  Be  Be0  1  0.00000000  0.64973569  0.35026431  1
  Be  Be1  1  -0.00000000  0.50000000  -0.00000000  1
  Be  Be2  1  0.65132144  0.35057151  0.35057151  1
  Be  Be3  1  0.50000000  0.21222882  0.78777118  1
  Be  Be4  1  -0.00000000  0.35026431  0.64973569  1
  Be  Be5  1  0.50000000  0.00000000  0.50000000  1
  Be  Be6  1  0.34867856  0.64942849  0.64942849  1
  Be  Be7  1  0.29170652  0.20855023  0.20855023  1
  Be  Be8  1  0.50000000  0.78777118  0.21222882  1
  Be  Be9  1  -0.00000000  0.00000000  0.50000000  1
  Be  Be10  1  0.70829348  0.79144977  0.79144977  1
  Be  Be11  1  0.50000000  0.50000000  -0.00000000  1
  W  W0  1  -0.00000000  0.00000000  -0.00000000  1
loop_
_geom_bond_atom_site_label_1
_geom_bond_atom_site_label_2
_geom_bond_distance
_geom_bond_site_symmetry_2
Be0 Be4 2.157406 1_555
Be0 Be5 2.206033 1_465
Be0 Be11 2.206033 1_555
Be0 Be9 2.206557 1_565
Be0 Be1 2.206557 1_555
Be0 Be8 2.323884 1_555
Be0 Be8 2.323884 1_455
Be0 Be7 2.360354 1_555
Be0 Be10 2.360355 1_455
Be0 W0 2.523321 1_565
Be1 Be11 2.100375 1_555
Be1 Be11 2.100375 1_455
Be1 Be8 2.102116 1_455
Be1 Be3 2.102116 1_554
Be1 Be10 2.106600 1_454
Be1 Be7 2.106600 1_555
Be1 Be2 2.203244 1_455
Be1 Be6 2.203244 1_554
Be1 Be4 2.206557 1_554
Be1 W0 2.755142 1_565
Be1 W0 2.755142 1_555
Be2 Be6 2.152858 1_555
Be2 Be9 2.203244 1_655
Be2 Be5 2.211022 1_555
Be2 Be7 2.329820 1_655
Be2 Be8 2.335918 1_555
Be2 Be3 2.335919 1_555
Be2 Be7 2.342741 1_555
Be2 W0 2.525342 1_655
Be3 Be9 2.102116 1_655
Be3 Be5 2.102666 1_555
Be3 Be7 2.143458 1_556
Be3 Be4 2.323884 1_655
Be3 Be4 2.323884 1_555
Be3 Be6 2.335918 1_555
Be3 W0 2.597909 1_556
Be3 W0 2.597909 1_656
Be4 Be5 2.206033 1_555
Be4 Be9 2.206557 1_555
Be4 Be7 2.360355 1_555
Be4 W0 2.523321 1_556
Be5 Be9 2.100375 1_655
Be5 Be9 2.100375 1_555
Be5 Be8 2.102666 1_545
Be5 Be7 2.105616 1_555
Be5 Be6 2.211022 1_545
Be5 W0 2.754723 1_655
Be5 W0 2.754723 1_556
Be6 Be9 2.203244 1_565
Be6 Be8 2.335919 1_555
Be6 W0 2.525342 1_566
Be7 Be9 2.106600 1_555
Be7 Be8 2.143457 1_545
Be7 W0 2.581080 1_655
Be7 W0 2.583581 1_555
Be8 Be9 2.102116 1_565
Be8 W0 2.597909 1_665
Be8 W0 2.597909 1_565
Be9 W0 2.755143 1_555
Be9 W0 2.755143 1_556
Be10 Be11 2.105615 1_556
Be10 Be5 2.105616 1_565
Be10 Be9 2.106600 1_665
Be10 Be3 2.143457 1_565
Be10 Be8 2.143458 1_556
Be10 Be6 2.329820 1_655
Be10 Be6 2.342741 1_555
Be10 Be4 2.360354 1_655
Be10 W0 2.581080 1_566
Be10 W0 2.583581 1_666
Be11 Be3 2.102666 1_554
Be11 Be8 2.102666 1_555
Be11 Be7 2.105615 1_555
Be11 Be4 2.206033 1_654
Be11 Be6 2.211022 1_554
Be11 Be2 2.211022 1_555
Be11 W0 2.754722 1_655
Be11 W0 2.754722 1_565
