# generated using pymatgen
data_Y6Ni20P13
_symmetry_space_group_name_H-M   'P 1'
_cell_length_a   12.64763594
_cell_length_b   12.64763594
_cell_length_c   3.75471300
_cell_angle_alpha   90.00000000
_cell_angle_beta   90.00000000
_cell_angle_gamma   119.99999967
_symmetry_Int_Tables_number   1
_chemical_formula_structural   Y6Ni20P13
_chemical_formula_sum   'Y6 Ni20 P13'
_cell_volume   520.14699191
_cell_formula_units_Z   1
loop_
 _symmetry_equiv_pos_site_id
 _symmetry_equiv_pos_as_xyz
  1  'x, y, z'
loop_
 _atom_site_type_symbol
 _atom_site_label
 _atom_site_symmetry_multiplicity
 _atom_site_fract_x
 _atom_site_fract_y
 _atom_site_fract_z
 _atom_site_occupancy
  Y  Y0  1  0.47032500  0.18812900  0.00000000  1
  Y  Y1  1  0.71780400  0.52967500  0.00000000  1
  Y  Y2  1  0.81187100  0.28219600  0.00000000  1
  Y  Y3  1  0.53065300  0.81216600  0.50000000  1
  Y  Y4  1  0.28151400  0.46934700  0.50000000  1
  Y  Y5  1  0.18783400  0.71848600  0.50000000  1
  Ni  Ni0  1  0.33333300  0.66666700  0.00000000  1
  Ni  Ni1  1  0.66666700  0.33333300  0.50000000  1
  Ni  Ni2  1  0.19556600  0.09051600  0.00000000  1
  Ni  Ni3  1  0.89495000  0.80443400  0.00000000  1
  Ni  Ni4  1  0.90948400  0.10505000  0.00000000  1
  Ni  Ni5  1  0.84814800  0.92751000  0.50000000  1
  Ni  Ni6  1  0.07936200  0.15185200  0.50000000  1
  Ni  Ni7  1  0.07249000  0.92063800  0.50000000  1
  Ni  Ni8  1  0.43779300  0.41630600  0.00000000  1
  Ni  Ni9  1  0.97851300  0.56220700  0.00000000  1
  Ni  Ni10  1  0.58369400  0.02148700  0.00000000  1
  Ni  Ni11  1  0.56483100  0.58680200  0.50000000  1
  Ni  Ni12  1  0.02197100  0.43516900  0.50000000  1
  Ni  Ni13  1  0.41319800  0.97802900  0.50000000  1
  Ni  Ni14  1  0.07802200  0.32019900  0.00000000  1
  Ni  Ni15  1  0.24217600  0.92197800  0.00000000  1
  Ni  Ni16  1  0.67980100  0.75782400  0.00000000  1
  Ni  Ni17  1  0.92911700  0.68303600  0.50000000  1
  Ni  Ni18  1  0.75391900  0.07088300  0.50000000  1
  Ni  Ni19  1  0.31696400  0.24608100  0.50000000  1
  P  P0  1  0.23429600  0.28194200  0.00000000  1
  P  P1  1  0.04764600  0.76570400  0.00000000  1
  P  P2  1  0.71805800  0.95235400  0.00000000  1
  P  P3  1  0.76741600  0.72149700  0.50000000  1
  P  P4  1  0.95408100  0.23258400  0.50000000  1
  P  P5  1  0.27850300  0.04591900  0.50000000  1
  P  P6  1  0.47675600  0.61425700  0.00000000  1
  P  P7  1  0.13750100  0.52324400  0.00000000  1
  P  P8  1  0.38574300  0.86249900  0.00000000  1
  P  P9  1  0.52347200  0.38651600  0.50000000  1
  P  P10  1  0.86304400  0.47652800  0.50000000  1
  P  P11  1  0.61348400  0.13695600  0.50000000  1
  P  P12  1  0.00000000  0.00000000  0.00000000  1
loop_
_geom_bond_atom_site_label_1
_geom_bond_atom_site_label_2
_geom_bond_distance
_geom_bond_site_symmetry_2
Ni0 P8 2.220855 1_555
Ni0 P7 2.220858 1_555
Ni0 P6 2.220867 1_555
Ni0 Y5 2.923433 1_555
Ni0 Y5 2.923433 1_554
Ni0 Y3 2.923447 1_554
Ni0 Y3 2.923447 1_555
Ni0 Y4 2.923452 1_554
Ni0 Y4 2.923452 1_555
Ni1 P11 2.224993 1_555
Ni1 P10 2.224997 1_555
Ni1 P9 2.225006 1_555
Ni1 Y2 2.916029 1_555
Ni1 Y2 2.916029 1_556
Ni1 Y0 2.916036 1_556
Ni1 Y0 2.916036 1_555
Ni1 Y1 2.916038 1_555
Ni1 Y1 2.916038 1_556
Ni2 P12 2.144039 1_555
Ni2 P0 2.217127 1_555
Ni2 P5 2.352570 1_554
Ni2 P5 2.352570 1_555
Ni2 Y0 3.051221 1_555
Ni3 P12 2.144039 1_665
Ni3 P1 2.217127 1_655
Ni3 P3 2.352570 1_554
Ni3 P3 2.352570 1_555
Ni3 Y1 3.051221 1_555
Ni4 P12 2.144039 1_655
Ni4 P2 2.217127 1_545
Ni4 P4 2.352570 1_555
Ni4 P4 2.352570 1_554
Ni4 Y2 3.051221 1_555
Ni5 P3 2.274014 1_555
Ni5 P12 2.508544 1_665
Ni5 P12 2.508544 1_666
Ni5 P2 2.616736 1_556
Ni5 P2 2.616736 1_555
Ni6 P4 2.274014 1_455
Ni6 P12 2.508544 1_555
Ni6 P12 2.508544 1_556
Ni6 P0 2.616736 1_555
Ni6 P0 2.616736 1_556
Ni7 P5 2.274014 1_565
Ni7 P12 2.508544 1_565
Ni7 P12 2.508544 1_566
Ni7 P1 2.616736 1_556
Ni7 P1 2.616736 1_555
Ni8 P0 2.266788 1_555
Ni8 P9 2.291065 1_555
Ni8 P9 2.291065 1_554
Ni8 P6 2.297207 1_555
Ni8 Y4 3.034345 1_554
Ni8 Y4 3.034345 1_555
Ni8 Y1 3.085456 1_555
Ni8 Y0 3.112093 1_555
Ni9 P1 2.266788 1_655
Ni9 P10 2.291065 1_554
Ni9 P10 2.291065 1_555
Ni9 P7 2.297207 1_655
Ni9 Y5 3.034352 1_655
Ni9 Y5 3.034352 1_654
Ni9 Y2 3.085456 1_555
Ni9 Y1 3.112093 1_555
Ni10 P2 2.266788 1_545
Ni10 P11 2.291065 1_554
Ni10 P11 2.291065 1_555
Ni10 P8 2.297207 1_545
Ni10 Y3 3.034355 1_544
Ni10 Y3 3.034355 1_545
Ni10 Y0 3.085456 1_555
Ni10 Y2 3.112093 1_555
Ni11 P3 2.258807 1_555
Ni11 P6 2.296239 1_555
Ni11 P6 2.296239 1_556
Ni11 P9 2.316328 1_555
Ni11 Y1 3.031113 1_556
Ni11 Y1 3.031113 1_555
Ni11 Y3 3.089224 1_555
Ni11 Y4 3.118282 1_555
Ni12 P4 2.258807 1_455
Ni12 P7 2.296239 1_556
Ni12 P7 2.296239 1_555
Ni12 P10 2.316328 1_455
Ni12 Y2 3.031113 1_455
Ni12 Y2 3.031113 1_456
Ni12 Y4 3.089236 1_555
Ni12 Y5 3.118284 1_555
Ni13 P5 2.258807 1_565
Ni13 P8 2.296239 1_556
Ni13 P8 2.296239 1_555
Ni13 P11 2.316328 1_565
Ni13 Y0 3.031113 1_565
Ni13 Y0 3.031113 1_566
Ni13 Y5 3.089231 1_555
Ni13 Y3 3.118294 1_555
Ni14 P0 2.257656 1_555
Ni14 P7 2.286674 1_555
Ni14 P4 2.339359 1_454
Ni14 P4 2.339359 1_455
Ni14 Y4 2.975200 1_554
Ni14 Y4 2.975200 1_555
Ni14 Y2 3.153450 1_455
Ni15 P1 2.257647 1_555
Ni15 P8 2.286686 1_555
Ni15 P5 2.339357 1_564
Ni15 P5 2.339357 1_565
Ni15 Y5 2.975205 1_555
Ni15 Y5 2.975205 1_554
Ni15 Y0 3.153455 1_565
Ni16 P2 2.257643 1_555
Ni16 P6 2.286677 1_555
Ni16 P3 2.339364 1_554
Ni16 P3 2.339364 1_555
Ni16 Y3 2.975186 1_554
Ni16 Y3 2.975186 1_555
Ni16 Y1 3.153463 1_555
Ni17 P1 2.301648 1_655
Ni17 P1 2.301648 1_656
Ni17 P10 2.310284 1_555
Ni17 P3 2.326809 1_555
Ni17 Y1 3.040663 1_556
Ni17 Y1 3.040663 1_555
Ni17 Y5 3.072612 1_655
Ni18 P2 2.301648 1_545
Ni18 P2 2.301648 1_546
Ni18 P11 2.310284 1_555
Ni18 P4 2.326809 1_555
Ni18 Y2 3.040663 1_556
Ni18 Y2 3.040663 1_555
Ni18 Y3 3.072607 1_545
Ni19 P0 2.301648 1_555
Ni19 P0 2.301648 1_556
Ni19 P9 2.310284 1_555
Ni19 P5 2.326809 1_555
Ni19 Y0 3.040663 1_556
Ni19 Y0 3.040663 1_555
Ni19 Y4 3.072600 1_555
P0 Y4 2.843169 1_554
P0 Y4 2.843169 1_555
P1 Y5 2.843178 1_555
P1 Y5 2.843178 1_554
P2 Y3 2.843172 1_554
P2 Y3 2.843172 1_555
P3 Y1 2.877814 1_555
P3 Y1 2.877814 1_556
P4 Y2 2.877814 1_556
P4 Y2 2.877814 1_555
P5 Y0 2.877814 1_556
P5 Y0 2.877814 1_555
P6 Y4 2.907826 1_555
P6 Y4 2.907826 1_554
P6 Y3 2.923744 1_555
P6 Y3 2.923744 1_554
P7 Y5 2.907823 1_555
P7 Y5 2.907823 1_554
P7 Y4 2.923754 1_555
P7 Y4 2.923754 1_554
P8 Y3 2.907832 1_555
P8 Y3 2.907832 1_554
P8 Y5 2.923747 1_555
P8 Y5 2.923747 1_554
P9 Y1 2.897168 1_555
P9 Y1 2.897168 1_556
P9 Y0 2.930089 1_555
P9 Y0 2.930089 1_556
P10 Y2 2.897168 1_556
P10 Y2 2.897168 1_555
P10 Y1 2.930089 1_555
P10 Y1 2.930089 1_556
P11 Y0 2.897168 1_556
P11 Y0 2.897168 1_555
P11 Y2 2.930089 1_556
P11 Y2 2.930089 1_555
