# generated using pymatgen
data_MgAl2O4
_symmetry_space_group_name_H-M   'P 1'
_cell_length_a   23.84208970
_cell_length_b   23.84208970
_cell_length_c   23.84208979
_cell_angle_alpha   13.90222470
_cell_angle_beta   13.90222470
_cell_angle_gamma   13.90222410
_symmetry_Int_Tables_number   1
_chemical_formula_structural   MgAl2O4
_chemical_formula_sum   'Mg10 Al20 O40'
_cell_volume   680.88320622
_cell_formula_units_Z   10
loop_
 _symmetry_equiv_pos_site_id
 _symmetry_equiv_pos_as_xyz
  1  'x, y, z'
loop_
 _atom_site_type_symbol
 _atom_site_label
 _atom_site_symmetry_multiplicity
 _atom_site_fract_x
 _atom_site_fract_y
 _atom_site_fract_z
 _atom_site_occupancy
  Mg  Mg0  1  0.82418000  0.82418000  0.82418000  1
  Mg  Mg1  1  0.42401500  0.42401500  0.42401500  1
  Mg  Mg2  1  0.49968000  0.49968000  0.49968000  1
  Mg  Mg3  1  0.02481800  0.02481800  0.02481800  1
  Mg  Mg4  1  0.09932000  0.09932000  0.09932000  1
  Mg  Mg5  1  0.62518300  0.62518300  0.62518300  1
  Mg  Mg6  1  0.22504400  0.22504400  0.22504400  1
  Mg  Mg7  1  0.37579800  0.37579800  0.37579800  1
  Mg  Mg8  1  0.97511500  0.97511500  0.97511500  1
  Mg  Mg9  1  0.57479400  0.57479400  0.57479400  1
  Al  Al0  1  0.30476000  0.79060800  0.30476000  1
  Al  Al1  1  0.79060800  0.30476000  0.30476000  1
  Al  Al2  1  0.30476000  0.30476000  0.79060800  1
  Al  Al3  1  0.90272100  0.39420200  0.90272100  1
  Al  Al4  1  0.99995900  0.50027400  0.50027400  1
  Al  Al5  1  0.77603400  0.77603400  0.77603400  1
  Al  Al6  1  0.70018100  0.70018100  0.70018100  1
  Al  Al7  1  0.39420200  0.90272100  0.90272100  1
  Al  Al8  1  0.90272100  0.90272100  0.39420200  1
  Al  Al9  1  0.50027400  0.99995900  0.50027400  1
  Al  Al10  1  0.59937300  0.10049300  0.10049300  1
  Al  Al11  1  0.30019900  0.30019900  0.30019900  1
  Al  Al12  1  0.50027400  0.50027400  0.99995900  1
  Al  Al13  1  0.10049300  0.59937300  0.10049300  1
  Al  Al14  1  0.19488300  0.70282200  0.70282200  1
  Al  Al15  1  0.90039000  0.90039000  0.90039000  1
  Al  Al16  1  0.70282200  0.19488300  0.70282200  1
  Al  Al17  1  0.10049300  0.10049300  0.59937300  1
  Al  Al18  1  0.70282200  0.70282200  0.19488300  1
  Al  Al19  1  0.17529600  0.17529600  0.17529600  1
  O  O0  1  0.63403800  0.17594100  0.63403800  1
  O  O1  1  0.45202200  0.45202200  0.45202200  1
  O  O2  1  0.17594100  0.63403800  0.63403800  1
  O  O3  1  0.63403800  0.63403800  0.17594100  1
  O  O4  1  0.95844300  0.95844300  0.43830700  1
  O  O5  1  0.23461400  0.77321500  0.23461400  1
  O  O6  1  0.14909300  0.14909300  0.14909300  1
  O  O7  1  0.05204400  0.05204400  0.05204400  1
  O  O8  1  0.43830700  0.95844300  0.95844300  1
  O  O9  1  0.77321500  0.23461400  0.23461400  1
  O  O10  1  0.95844300  0.43830700  0.95844300  1
  O  O11  1  0.23461400  0.23461400  0.77321500  1
  O  O12  1  0.57194600  0.57194600  0.00931700  1
  O  O13  1  0.83078400  0.38536000  0.83078400  1
  O  O14  1  0.00931700  0.57194600  0.57194600  1
  O  O15  1  0.75006400  0.75006400  0.75006400  1
  O  O16  1  0.65269300  0.65269300  0.65269300  1
  O  O17  1  0.38536000  0.83078400  0.83078400  1
  O  O18  1  0.57194600  0.00931700  0.57194600  1
  O  O19  1  0.83078400  0.83078400  0.38536000  1
  O  O20  1  0.16920500  0.16920500  0.61414800  1
  O  O21  1  0.43097600  0.98504700  0.43097600  1
  O  O22  1  0.61414800  0.16920500  0.16920500  1
  O  O23  1  0.98504700  0.43097600  0.43097600  1
  O  O24  1  0.34750900  0.34750900  0.34750900  1
  O  O25  1  0.25265200  0.25265200  0.25265200  1
  O  O26  1  0.16920500  0.61414800  0.16920500  1
  O  O27  1  0.43097600  0.43097600  0.98504700  1
  O  O28  1  0.76860900  0.76860900  0.21526600  1
  O  O29  1  0.03025600  0.58749200  0.03025600  1
  O  O30  1  0.21526600  0.76860900  0.76860900  1
  O  O31  1  0.85256400  0.85256400  0.85256400  1
  O  O32  1  0.94719500  0.94719500  0.94719500  1
  O  O33  1  0.58749200  0.03025600  0.03025600  1
  O  O34  1  0.76860900  0.21526600  0.76860900  1
  O  O35  1  0.03025600  0.03025600  0.58749200  1
  O  O36  1  0.35448700  0.35448700  0.84577500  1
  O  O37  1  0.54636800  0.54636800  0.54636800  1
  O  O38  1  0.84577500  0.35448700  0.35448700  1
  O  O39  1  0.35448700  0.84577500  0.35448700  1
loop_
_geom_bond_atom_site_label_1
_geom_bond_atom_site_label_2
_geom_bond_distance
_geom_bond_site_symmetry_2
Mg0 O0 1.926997 1_565
Mg0 O2 1.926997 1_655
Mg0 O3 1.926997 1_556
Mg0 O31 2.010280 1_555
Mg1 O9 1.925790 1_555
Mg1 O5 1.925790 1_555
Mg1 O11 1.925790 1_555
Mg1 O1 1.983580 1_555
Mg2 O0 2.004230 1_555
Mg2 O2 2.004230 1_555
Mg2 O3 2.004230 1_555
Mg2 O38 2.099780 1_555
Mg2 O39 2.099780 1_555
Mg2 O36 2.099780 1_555
Mg3 O7 1.928266 1_555
Mg3 O13 1.958680 1_454
Mg3 O17 1.958680 1_544
Mg3 O19 1.958680 1_445
Mg4 O5 2.020167 1_545
Mg4 O9 2.020167 1_455
Mg4 O11 2.020167 1_554
Mg4 O8 2.093287 1_544
Mg4 O10 2.093287 1_454
Mg4 O4 2.093287 1_445
Mg5 O16 1.948380 1_555
Mg5 O21 1.965252 1_555
Mg5 O23 1.965252 1_555
Mg5 O27 1.965252 1_555
Mg6 O25 1.955321 1_555
Mg6 O29 1.963959 1_555
Mg6 O33 1.963959 1_555
Mg6 O35 1.963959 1_555
Mg7 O14 1.971150 1_555
Mg7 O18 1.971150 1_555
Mg7 O12 1.971150 1_555
Mg7 O24 2.003552 1_555
Mg8 O22 1.957755 1_566
Mg8 O26 1.957755 1_656
Mg8 O20 1.957755 1_665
Mg8 O32 1.977418 1_555
Mg9 O30 1.959367 1_555
Mg9 O34 1.959367 1_555
Mg9 O28 1.959368 1_555
Mg9 O37 2.013255 1_555
Al0 O3 1.884890 1_555
Al0 O2 1.884891 1_555
Al0 O1 1.924166 1_555
Al0 O4 1.969078 1_455
Al0 O8 1.969078 1_554
Al0 O6 2.042951 1_565
Al1 O3 1.884890 1_555
Al1 O0 1.884891 1_555
Al1 O1 1.924166 1_555
Al1 O4 1.969078 1_545
Al1 O10 1.969078 1_554
Al1 O6 2.042951 1_655
Al2 O0 1.884890 1_555
Al2 O2 1.884890 1_555
Al2 O1 1.924166 1_555
Al2 O10 1.969078 1_455
Al2 O8 1.969078 1_545
Al2 O6 2.042951 1_556
Al3 O11 1.883695 1_655
Al3 O9 1.883695 1_556
Al3 O12 1.930522 1_556
Al3 O14 1.930522 1_655
Al3 O7 1.933050 1_656
Al3 O15 2.072360 1_555
Al4 O19 1.924698 1_555
Al4 O13 1.924698 1_555
Al4 O24 1.939799 1_655
Al4 O16 1.942943 1_555
Al4 O20 1.945925 1_655
Al4 O26 1.945925 1_655
Al5 O15 1.839310 1_555
Al5 O8 1.847243 1_555
Al5 O10 1.847243 1_555
Al5 O4 1.847243 1_555
Al6 O14 1.915579 1_655
Al6 O18 1.915579 1_565
Al6 O12 1.915579 1_556
Al6 O17 1.950532 1_555
Al6 O13 1.950532 1_555
Al6 O19 1.950532 1_555
Al7 O11 1.883695 1_565
Al7 O5 1.883695 1_556
Al7 O12 1.930522 1_556
Al7 O18 1.930522 1_565
Al7 O7 1.933050 1_566
Al7 O15 2.072360 1_555
Al8 O9 1.883695 1_565
Al8 O5 1.883695 1_655
Al8 O18 1.930522 1_565
Al8 O14 1.930522 1_655
Al8 O7 1.933050 1_665
Al8 O15 2.072360 1_555
Al9 O19 1.924698 1_555
Al9 O17 1.924698 1_555
Al9 O24 1.939799 1_565
Al9 O16 1.942943 1_555
Al9 O20 1.945925 1_565
Al9 O22 1.945925 1_565
Al10 O27 1.926935 1_554
Al10 O21 1.926935 1_545
Al10 O32 1.932597 1_544
Al10 O25 1.940341 1_555
Al10 O28 1.948095 1_545
Al10 O34 1.948095 1_554
Al11 O26 1.924187 1_555
Al11 O22 1.924187 1_555
Al11 O20 1.924187 1_555
Al11 O21 1.951552 1_545
Al11 O23 1.951552 1_455
Al11 O27 1.951552 1_554
Al12 O17 1.924698 1_555
Al12 O13 1.924698 1_555
Al12 O24 1.939799 1_556
Al12 O16 1.942944 1_555
Al12 O22 1.945925 1_556
Al12 O26 1.945925 1_556
Al13 O27 1.926935 1_554
Al13 O23 1.926935 1_455
Al13 O32 1.932597 1_454
Al13 O25 1.940341 1_555
Al13 O28 1.948095 1_455
Al13 O30 1.948095 1_554
Al14 O37 1.921846 1_555
Al14 O35 1.924004 1_565
Al14 O29 1.924004 1_556
Al14 O31 1.926249 1_455
Al14 O36 1.985254 1_555
Al14 O39 1.985254 1_555
Al15 O34 1.918911 1_565
Al15 O30 1.918911 1_655
Al15 O28 1.918911 1_556
Al15 O33 1.936912 1_566
Al15 O29 1.936912 1_656
Al15 O35 1.936912 1_665
Al16 O37 1.921846 1_555
Al16 O35 1.924004 1_655
Al16 O33 1.924004 1_556
Al16 O31 1.926249 1_545
Al16 O36 1.985254 1_555
Al16 O38 1.985254 1_555
Al17 O21 1.926935 1_545
Al17 O23 1.926935 1_455
Al17 O32 1.932597 1_445
Al17 O25 1.940341 1_555
Al17 O30 1.948095 1_545
Al17 O34 1.948095 1_455
Al18 O37 1.921846 1_555
Al18 O29 1.924004 1_655
Al18 O33 1.924004 1_565
Al18 O31 1.926249 1_554
Al18 O38 1.985254 1_555
Al18 O39 1.985254 1_555
Al19 O39 1.826753 1_545
Al19 O38 1.826753 1_455
Al19 O36 1.826753 1_554
Al19 O6 1.855812 1_555
