# generated using pymatgen
data_Rb2Cr5F17
_symmetry_space_group_name_H-M   'P 1'
_cell_length_a   13.63594069
_cell_length_b   13.63594069
_cell_length_c   14.93540100
_cell_angle_alpha   90.00000000
_cell_angle_beta   90.00000000
_cell_angle_gamma   147.78444077
_symmetry_Int_Tables_number   1
_chemical_formula_structural   Rb2Cr5F17
_chemical_formula_sum   'Rb8 Cr20 F68'
_cell_volume   1480.47372703
_cell_formula_units_Z   4
loop_
 _symmetry_equiv_pos_site_id
 _symmetry_equiv_pos_as_xyz
  1  'x, y, z'
loop_
 _atom_site_type_symbol
 _atom_site_label
 _atom_site_symmetry_multiplicity
 _atom_site_fract_x
 _atom_site_fract_y
 _atom_site_fract_z
 _atom_site_occupancy
  Rb  Rb0  1  0.00000000  0.00000000  0.00000000  1
  Rb  Rb1  1  0.75026200  0.24973800  0.96781700  1
  Rb  Rb2  1  0.75026200  0.24973800  0.53218300  1
  Rb  Rb3  1  0.24973800  0.75026200  0.46781700  1
  Rb  Rb4  1  0.24973800  0.75026200  0.03218300  1
  Rb  Rb5  1  0.74750800  0.25249200  0.25000000  1
  Rb  Rb6  1  0.00000000  0.00000000  0.50000000  1
  Rb  Rb7  1  0.25249200  0.74750800  0.75000000  1
  Cr  Cr0  1  0.37499400  0.13098200  0.12419600  1
  Cr  Cr1  1  0.62500600  0.86901800  0.62419600  1
  Cr  Cr2  1  0.12526300  0.37299000  0.12533000  1
  Cr  Cr3  1  0.62701000  0.87473700  0.37467000  1
  Cr  Cr4  1  0.25064400  0.25200600  0.25000000  1
  Cr  Cr5  1  0.12526300  0.37299000  0.37467000  1
  Cr  Cr6  1  0.37499400  0.13098200  0.37580400  1
  Cr  Cr7  1  0.87473700  0.62701000  0.62533000  1
  Cr  Cr8  1  0.74799400  0.74935600  0.25000000  1
  Cr  Cr9  1  0.86901800  0.62500600  0.37580400  1
  Cr  Cr10  1  0.13098200  0.37499400  0.87580400  1
  Cr  Cr11  1  0.37299000  0.12526300  0.62533000  1
  Cr  Cr12  1  0.62500600  0.86901800  0.87580400  1
  Cr  Cr13  1  0.62701000  0.87473700  0.12533000  1
  Cr  Cr14  1  0.13098200  0.37499400  0.62419600  1
  Cr  Cr15  1  0.25200600  0.25064400  0.75000000  1
  Cr  Cr16  1  0.74935600  0.74799400  0.75000000  1
  Cr  Cr17  1  0.86901800  0.62500600  0.12419600  1
  Cr  Cr18  1  0.87473700  0.62701000  0.87467000  1
  Cr  Cr19  1  0.37299000  0.12526300  0.87467000  1
  F  F0  1  0.43773500  0.15461900  0.75000000  1
  F  F1  1  0.56157600  0.83677500  0.75000000  1
  F  F2  1  0.25114900  0.15319900  0.34454700  1
  F  F3  1  0.10227200  0.30606800  0.49919000  1
  F  F4  1  0.10503500  0.48595100  0.90252900  1
  F  F5  1  0.01811600  0.98188400  0.75000000  1
  F  F6  1  0.88935500  0.11064500  0.34850100  1
  F  F7  1  0.51869000  0.48131000  0.25000000  1
  F  F8  1  0.84680100  0.74885100  0.15545300  1
  F  F9  1  0.43842400  0.16322500  0.25000000  1
  F  F10  1  0.39773500  0.01219500  0.89747300  1
  F  F11  1  0.74885100  0.84680100  0.84454700  1
  F  F12  1  0.10227200  0.30606800  0.00081000  1
  F  F13  1  0.89772800  0.69393200  0.99919000  1
  F  F14  1  0.15461900  0.43773500  0.25000000  1
  F  F15  1  0.86239900  0.13760100  0.64106500  1
  F  F16  1  0.34184500  0.24163400  0.84542800  1
  F  F17  1  0.39744100  0.60255900  0.60701900  1
  F  F18  1  0.39773500  0.01219500  0.60252700  1
  F  F19  1  0.89772800  0.69393200  0.50081000  1
  F  F20  1  0.86239900  0.13760100  0.85893500  1
  F  F21  1  0.84680100  0.74885100  0.34454700  1
  F  F22  1  0.75836600  0.65815500  0.84542800  1
  F  F23  1  0.69393200  0.89772800  0.49919000  1
  F  F24  1  0.39744100  0.60255900  0.89298100  1
  F  F25  1  0.75836600  0.65815500  0.65457200  1
  F  F26  1  0.10503500  0.48595100  0.59747100  1
  F  F27  1  0.15319900  0.25114900  0.65545300  1
  F  F28  1  0.60226500  0.98780500  0.39747300  1
  F  F29  1  0.25114900  0.15319900  0.15545300  1
  F  F30  1  0.98780500  0.60226500  0.89747300  1
  F  F31  1  0.69393200  0.89772800  0.00081000  1
  F  F32  1  0.60255900  0.39744100  0.10701900  1
  F  F33  1  0.89496500  0.51404900  0.40252900  1
  F  F34  1  0.30606800  0.10227200  0.50081000  1
  F  F35  1  0.84538100  0.56226500  0.75000000  1
  F  F36  1  0.34184500  0.24163400  0.65457200  1
  F  F37  1  0.60226500  0.98780500  0.10252700  1
  F  F38  1  0.11064500  0.88935500  0.84850100  1
  F  F39  1  0.11064500  0.88935500  0.65149900  1
  F  F40  1  0.63340900  0.36659100  0.59601300  1
  F  F41  1  0.56226500  0.84538100  0.25000000  1
  F  F42  1  0.48131000  0.51869000  0.75000000  1
  F  F43  1  0.01219500  0.39773500  0.10252700  1
  F  F44  1  0.51404900  0.89496500  0.59747100  1
  F  F45  1  0.13760100  0.86239900  0.35893500  1
  F  F46  1  0.63340900  0.36659100  0.90398700  1
  F  F47  1  0.98188400  0.01811600  0.25000000  1
  F  F48  1  0.24163400  0.34184500  0.15457200  1
  F  F49  1  0.48595100  0.10503500  0.09747100  1
  F  F50  1  0.36659100  0.63340900  0.40398700  1
  F  F51  1  0.65815500  0.75836600  0.15457200  1
  F  F52  1  0.15319900  0.25114900  0.84454700  1
  F  F53  1  0.65815500  0.75836600  0.34542800  1
  F  F54  1  0.36659100  0.63340900  0.09601300  1
  F  F55  1  0.48595100  0.10503500  0.40252900  1
  F  F56  1  0.98780500  0.60226500  0.60252700  1
  F  F57  1  0.24163400  0.34184500  0.34542800  1
  F  F58  1  0.13760100  0.86239900  0.14106500  1
  F  F59  1  0.16322500  0.43842400  0.75000000  1
  F  F60  1  0.01219500  0.39773500  0.39747300  1
  F  F61  1  0.51404900  0.89496500  0.90252900  1
  F  F62  1  0.83677500  0.56157600  0.25000000  1
  F  F63  1  0.88935500  0.11064500  0.15149900  1
  F  F64  1  0.30606800  0.10227200  0.99919000  1
  F  F65  1  0.89496500  0.51404900  0.09747100  1
  F  F66  1  0.74885100  0.84680100  0.65545300  1
  F  F67  1  0.60255900  0.39744100  0.39298100  1
loop_
_geom_bond_atom_site_label_1
_geom_bond_atom_site_label_2
_geom_bond_distance
_geom_bond_site_symmetry_2
Cr0 F49 1.865339 1_555
Cr0 F32 1.954128 1_555
Cr0 F9 1.956611 1_555
Cr0 F58 1.973494 1_545
Cr0 F64 1.974781 1_554
Cr0 F29 2.006801 1_555
Cr1 F44 1.865339 1_555
Cr1 F17 1.954128 1_555
Cr1 F1 1.956611 1_555
Cr1 F15 1.973494 1_565
Cr1 F23 1.974781 1_555
Cr1 F66 2.006801 1_555
Cr2 F43 1.867415 1_555
Cr2 F14 1.951592 1_555
Cr2 F63 1.956003 1_455
Cr2 F54 1.964057 1_555
Cr2 F12 1.976266 1_555
Cr2 F48 2.007350 1_555
Cr3 F28 1.867415 1_555
Cr3 F41 1.951592 1_555
Cr3 F6 1.956003 1_565
Cr3 F50 1.964057 1_555
Cr3 F23 1.976266 1_555
Cr3 F53 2.007350 1_555
Cr4 F7 1.948838 1_555
Cr4 F57 1.949832 1_555
Cr4 F48 1.949832 1_555
Cr4 F47 1.955738 1_455
Cr4 F2 1.955774 1_555
Cr4 F29 1.955774 1_555
Cr5 F60 1.867415 1_555
Cr5 F14 1.951592 1_555
Cr5 F6 1.956003 1_455
Cr5 F50 1.964057 1_555
Cr5 F3 1.976266 1_555
Cr5 F57 2.007350 1_555
Cr6 F55 1.865339 1_555
Cr6 F67 1.954128 1_555
Cr6 F9 1.956611 1_555
Cr6 F45 1.973494 1_545
Cr6 F34 1.974781 1_555
Cr6 F2 2.006801 1_555
Cr7 F56 1.867415 1_555
Cr7 F35 1.951592 1_555
Cr7 F39 1.956003 1_655
Cr7 F40 1.964057 1_555
Cr7 F19 1.976266 1_555
Cr7 F25 2.007350 1_555
Cr8 F7 1.948838 1_555
Cr8 F53 1.949832 1_555
Cr8 F51 1.949832 1_555
Cr8 F47 1.955738 1_565
Cr8 F21 1.955774 1_555
Cr8 F8 1.955774 1_555
Cr9 F33 1.865339 1_555
Cr9 F67 1.954128 1_555
Cr9 F62 1.956611 1_555
Cr9 F45 1.973494 1_655
Cr9 F19 1.974781 1_555
Cr9 F21 2.006801 1_555
Cr10 F4 1.865339 1_555
Cr10 F24 1.954128 1_555
Cr10 F59 1.956611 1_555
Cr10 F20 1.973494 1_455
Cr10 F12 1.974781 1_556
Cr10 F52 2.006801 1_555
Cr11 F18 1.867415 1_555
Cr11 F0 1.951592 1_555
Cr11 F39 1.956003 1_545
Cr11 F40 1.964057 1_555
Cr11 F34 1.976266 1_555
Cr11 F36 2.007350 1_555
Cr12 F61 1.865339 1_555
Cr12 F24 1.954128 1_555
Cr12 F1 1.956611 1_555
Cr12 F20 1.973494 1_565
Cr12 F31 1.974781 1_556
Cr12 F11 2.006801 1_555
Cr13 F37 1.867415 1_555
Cr13 F41 1.951592 1_555
Cr13 F63 1.956003 1_565
Cr13 F54 1.964057 1_555
Cr13 F31 1.976266 1_555
Cr13 F51 2.007350 1_555
Cr14 F26 1.865339 1_555
Cr14 F17 1.954128 1_555
Cr14 F59 1.956611 1_555
Cr14 F15 1.973494 1_455
Cr14 F3 1.974781 1_555
Cr14 F27 2.006801 1_555
Cr15 F42 1.948838 1_555
Cr15 F16 1.949832 1_555
Cr15 F36 1.949832 1_555
Cr15 F5 1.955738 1_545
Cr15 F52 1.955774 1_555
Cr15 F27 1.955774 1_555
Cr16 F42 1.948838 1_555
Cr16 F22 1.949832 1_555
Cr16 F25 1.949832 1_555
Cr16 F5 1.955738 1_655
Cr16 F11 1.955774 1_555
Cr16 F66 1.955774 1_555
Cr17 F65 1.865339 1_555
Cr17 F32 1.954128 1_555
Cr17 F62 1.956611 1_555
Cr17 F58 1.973494 1_655
Cr17 F13 1.974781 1_554
Cr17 F8 2.006801 1_555
Cr18 F30 1.867415 1_555
Cr18 F35 1.951592 1_555
Cr18 F38 1.956003 1_655
Cr18 F46 1.964057 1_555
Cr18 F13 1.976266 1_555
Cr18 F22 2.007350 1_555
Cr19 F10 1.867415 1_555
Cr19 F0 1.951592 1_555
Cr19 F38 1.956003 1_545
Cr19 F46 1.964057 1_555
Cr19 F64 1.976266 1_555
Cr19 F16 2.007350 1_555
F1 Rb7 3.250245 1_555
F2 Rb6 3.062230 1_555
F3 Rb6 3.084606 1_555
F4 Rb1 2.891752 1_455
F4 Rb4 2.932490 1_556
F4 Rb7 3.133440 1_555
F8 Rb0 3.062230 1_665
F9 Rb5 3.250245 1_555
F10 Rb1 2.890741 1_555
F10 Rb4 2.946361 1_546
F10 Rb7 3.115290 1_545
F11 Rb0 3.062230 1_666
F12 Rb0 3.084606 1_555
F13 Rb0 3.084606 1_666
F15 Rb2 3.358140 1_555
F18 Rb2 2.890741 1_555
F18 Rb3 2.946361 1_545
F18 Rb7 3.115290 1_545
F19 Rb6 3.084606 1_665
F20 Rb1 3.358140 1_555
F21 Rb6 3.062230 1_665
F23 Rb6 3.084606 1_665
F26 Rb2 2.891752 1_455
F26 Rb3 2.932490 1_555
F26 Rb7 3.133440 1_555
F27 Rb6 3.062230 1_555
F28 Rb3 2.890741 1_555
F28 Rb2 2.946361 1_565
F28 Rb5 3.115290 1_565
F29 Rb0 3.062230 1_555
F30 Rb1 2.890741 1_555
F30 Rb4 2.946361 1_656
F30 Rb7 3.115290 1_655
F31 Rb0 3.084606 1_665
F33 Rb3 2.891752 1_655
F33 Rb2 2.932490 1_555
F33 Rb5 3.133440 1_555
F34 Rb6 3.084606 1_555
F37 Rb4 2.890741 1_555
F37 Rb1 2.946361 1_564
F37 Rb5 3.115290 1_565
F40 Rb2 3.206679 1_555
F43 Rb4 2.890741 1_555
F43 Rb1 2.946361 1_454
F43 Rb5 3.115290 1_455
F44 Rb2 2.891752 1_565
F44 Rb3 2.932490 1_555
F44 Rb7 3.133440 1_555
F45 Rb3 3.358140 1_555
F46 Rb1 3.206679 1_555
F49 Rb4 2.891752 1_545
F49 Rb1 2.932490 1_554
F49 Rb5 3.133440 1_555
F50 Rb3 3.206679 1_555
F52 Rb0 3.062230 1_556
F54 Rb4 3.206679 1_555
F55 Rb3 2.891752 1_545
F55 Rb2 2.932490 1_555
F55 Rb5 3.133440 1_555
F56 Rb2 2.890741 1_555
F56 Rb3 2.946361 1_655
F56 Rb7 3.115290 1_655
F58 Rb4 3.358140 1_555
F59 Rb7 3.250245 1_555
F60 Rb3 2.890741 1_555
F60 Rb2 2.946361 1_455
F60 Rb5 3.115290 1_455
F61 Rb1 2.891752 1_565
F61 Rb4 2.932490 1_556
F61 Rb7 3.133440 1_555
F62 Rb5 3.250245 1_555
F64 Rb0 3.084606 1_556
F65 Rb4 2.891752 1_655
F65 Rb1 2.932490 1_554
F65 Rb5 3.133440 1_555
F66 Rb6 3.062230 1_665
