# generated using pymatgen
data_Np(NiGe)2
_symmetry_space_group_name_H-M   'P 1'
_cell_length_a   5.69549879
_cell_length_b   5.69549879
_cell_length_c   5.69549879
_cell_angle_alpha   138.51322276
_cell_angle_beta   138.51322276
_cell_angle_gamma   60.11787644
_symmetry_Int_Tables_number   1
_chemical_formula_structural   Np(NiGe)2
_chemical_formula_sum   'Np1 Ni2 Ge2'
_cell_volume   80.23861518
_cell_formula_units_Z   1
loop_
 _symmetry_equiv_pos_site_id
 _symmetry_equiv_pos_as_xyz
  1  'x, y, z'
loop_
 _atom_site_type_symbol
 _atom_site_label
 _atom_site_symmetry_multiplicity
 _atom_site_fract_x
 _atom_site_fract_y
 _atom_site_fract_z
 _atom_site_occupancy
  Np  Np0  1  -0.00000000  -0.00000000  0.00000000  1
  Ni  Ni0  1  0.25000000  0.75000000  0.50000000  1
  Ni  Ni1  1  0.75000000  0.25000000  0.50000000  1
  Ge  Ge0  1  0.37143103  0.37143103  -0.00000000  1
  Ge  Ge1  1  0.62856897  0.62856897  0.00000000  1
loop_
_geom_bond_atom_site_label_1
_geom_bond_atom_site_label_2
_geom_bond_distance
_geom_bond_site_symmetry_2
Ni0 Np0 3.185016 1_666
Ni0 Np0 3.185016 1_565
Ni0 Np0 3.185016 1_555
Ni0 Np0 3.185016 1_566
Ni1 Np0 3.185016 1_555
Ni1 Np0 3.185016 1_656
Ni1 Np0 3.185016 1_655
Ni1 Np0 3.185016 1_666
Ge0 Ni1 2.345755 1_555
Ge0 Ni0 2.345755 1_544
Ge0 Ni0 2.345755 1_555
Ge0 Ni1 2.345755 1_454
Ge0 Ge1 2.535130 1_555
Ge0 Np0 3.121748 1_666
Ge0 Np0 3.121748 1_655
Ge0 Np0 3.121748 1_554
Ge0 Np0 3.121748 1_565
Ge1 Ni1 2.345755 1_565
Ge1 Ni0 2.345755 1_554
Ge1 Ni1 2.345755 1_554
Ge1 Ni0 2.345755 1_655
Ge1 Np0 3.121748 1_554
Ge1 Np0 3.121748 1_565
Ge1 Np0 3.121748 1_666
Ge1 Np0 3.121748 1_655
