# generated using pymatgen
data_Ba21Si2O5
_symmetry_space_group_name_H-M   'P 1'
_cell_length_a   15.06270521
_cell_length_b   15.06270521
_cell_length_c   15.06270521
_cell_angle_alpha   60.00000000
_cell_angle_beta   60.00000000
_cell_angle_gamma   60.00000000
_symmetry_Int_Tables_number   1
_chemical_formula_structural   Ba21Si2O5
_chemical_formula_sum   'Ba42 Si4 O10'
_cell_volume   2416.53969002
_cell_formula_units_Z   2
loop_
 _symmetry_equiv_pos_site_id
 _symmetry_equiv_pos_as_xyz
  1  'x, y, z'
loop_
 _atom_site_type_symbol
 _atom_site_label
 _atom_site_symmetry_multiplicity
 _atom_site_fract_x
 _atom_site_fract_y
 _atom_site_fract_z
 _atom_site_occupancy
  Ba  Ba0  1  0.00000000  0.00000000  0.00000000  1
  Ba  Ba1  1  0.79415600  0.79415600  0.05697500  1
  Ba  Ba2  1  0.79415600  0.79415600  0.35471200  1
  Ba  Ba3  1  0.19302500  0.45584400  0.89528800  1
  Ba  Ba4  1  0.12500000  0.12500000  0.62500000  1
  Ba  Ba5  1  0.62586700  0.62586700  0.37413300  1
  Ba  Ba6  1  0.62586700  0.37413300  0.37413300  1
  Ba  Ba7  1  0.87586700  0.62413300  0.87586700  1
  Ba  Ba8  1  0.79415600  0.35471200  0.79415600  1
  Ba  Ba9  1  0.45584400  0.19302500  0.45584400  1
  Ba  Ba10  1  0.19302500  0.89528800  0.45584400  1
  Ba  Ba11  1  0.62413300  0.62413300  0.87586700  1
  Ba  Ba12  1  0.62413300  0.87586700  0.62413300  1
  Ba  Ba13  1  0.25000000  0.25000000  0.25000000  1
  Ba  Ba14  1  0.87586700  0.62413300  0.62413300  1
  Ba  Ba15  1  0.05697500  0.79415600  0.79415600  1
  Ba  Ba16  1  0.79415600  0.35471200  0.05697500  1
  Ba  Ba17  1  0.89528800  0.45584400  0.19302500  1
  Ba  Ba18  1  0.45584400  0.45584400  0.19302500  1
  Ba  Ba19  1  0.45584400  0.89528800  0.45584400  1
  Ba  Ba20  1  0.37413300  0.62586700  0.62586700  1
  Ba  Ba21  1  0.89528800  0.19302500  0.45584400  1
  Ba  Ba22  1  0.37413300  0.37413300  0.62586700  1
  Ba  Ba23  1  0.45584400  0.19302500  0.89528800  1
  Ba  Ba24  1  0.19302500  0.45584400  0.45584400  1
  Ba  Ba25  1  0.79415600  0.05697500  0.35471200  1
  Ba  Ba26  1  0.05697500  0.79415600  0.35471200  1
  Ba  Ba27  1  0.12500000  0.12500000  0.12500000  1
  Ba  Ba28  1  0.62413300  0.87586700  0.87586700  1
  Ba  Ba29  1  0.62586700  0.37413300  0.62586700  1
  Ba  Ba30  1  0.35471200  0.79415600  0.79415600  1
  Ba  Ba31  1  0.45584400  0.89528800  0.19302500  1
  Ba  Ba32  1  0.89528800  0.45584400  0.45584400  1
  Ba  Ba33  1  0.05697500  0.35471200  0.79415600  1
  Ba  Ba34  1  0.62500000  0.12500000  0.12500000  1
  Ba  Ba35  1  0.45584400  0.45584400  0.89528800  1
  Ba  Ba36  1  0.37413300  0.62586700  0.37413300  1
  Ba  Ba37  1  0.35471200  0.79415600  0.05697500  1
  Ba  Ba38  1  0.79415600  0.05697500  0.79415600  1
  Ba  Ba39  1  0.35471200  0.05697500  0.79415600  1
  Ba  Ba40  1  0.12500000  0.62500000  0.12500000  1
  Ba  Ba41  1  0.87586700  0.87586700  0.62413300  1
  Si  Si0  1  0.62500000  0.12500000  0.62500000  1
  Si  Si1  1  0.62500000  0.62500000  0.12500000  1
  Si  Si2  1  0.12500000  0.62500000  0.62500000  1
  Si  Si3  1  0.62500000  0.62500000  0.62500000  1
  O  O0  1  0.84176100  0.84176100  0.84176100  1
  O  O1  1  0.50000000  0.50000000  0.50000000  1
  O  O2  1  0.40823900  0.40823900  0.77528400  1
  O  O3  1  0.40823900  0.77528400  0.40823900  1
  O  O4  1  0.47471600  0.84176100  0.84176100  1
  O  O5  1  0.75000000  0.75000000  0.75000000  1
  O  O6  1  0.84176100  0.47471600  0.84176100  1
  O  O7  1  0.77528400  0.40823900  0.40823900  1
  O  O8  1  0.84176100  0.84176100  0.47471600  1
  O  O9  1  0.40823900  0.40823900  0.40823900  1
loop_
_geom_bond_atom_site_label_1
_geom_bond_atom_site_label_2
_geom_bond_distance
_geom_bond_site_symmetry_2
Ba0 Ba4 4.611993 1_554
Ba0 Ba27 4.611993 1_555
Ba0 Ba34 4.611993 1_455
Ba0 Ba40 4.611993 1_545
Ba0 Ba26 4.924950 1_545
Ba0 Ba33 4.924950 1_554
Ba0 Ba25 4.924950 1_455
Ba0 Ba37 4.924950 1_545
Ba0 Ba39 4.924950 1_554
Ba0 Ba16 4.924950 1_455
Ba0 Ba2 4.924956 1_445
Ba0 Ba30 4.924956 1_544
Ba0 Ba8 4.924956 1_454
Ba0 Ba38 4.924963 1_454
Ba0 Ba1 4.924963 1_445
Ba0 Ba15 4.924963 1_544
Ba1 O0 2.720695 1_554
Ba1 Si1 3.912100 1_555
Ba1 Ba40 4.708956 1_655
Ba1 Ba34 4.708956 1_565
Ba2 O8 2.720695 1_555
Ba2 Si3 3.912106 1_555
Ba2 Ba34 4.708949 1_565
Ba2 Ba40 4.708949 1_655
Ba3 O2 2.720695 1_555
Ba3 Si2 3.912113 1_555
Ba3 Ba40 4.708943 1_556
Ba4 Ba8 4.708949 1_455
Ba4 Ba9 4.708956 1_555
Ba5 O1 2.681204 1_555
Ba5 O7 2.858220 1_555
Ba5 O3 2.858220 1_555
Ba5 Si1 3.765722 1_555
Ba5 Si3 3.765722 1_555
Ba6 O1 2.681204 1_555
Ba6 O9 2.858216 1_555
Ba6 O7 2.858230 1_555
Ba6 Si1 3.765722 1_555
Ba6 Si0 3.765722 1_555
Ba7 O5 2.681204 1_555
Ba7 O0 2.858216 1_555
Ba7 O6 2.858230 1_555
Ba7 Si1 3.765722 1_556
Ba7 Si2 3.765722 1_655
Ba8 O6 2.720695 1_555
Ba8 Si3 3.912106 1_555
Ba9 O9 2.720695 1_555
Ba9 Si0 3.912100 1_555
Ba10 O3 2.720695 1_555
Ba10 Si2 3.912113 1_555
Ba10 Ba4 4.708943 1_565
Ba10 Ba27 4.708955 1_565
Ba10 Ba13 4.924950 1_565
Ba11 O5 2.681204 1_555
Ba11 O4 2.858220 1_555
Ba11 O6 2.858220 1_555
Ba11 Si1 3.765722 1_556
Ba11 Si3 3.765722 1_555
Ba12 O5 2.681204 1_555
Ba12 O4 2.858220 1_555
Ba12 O8 2.858220 1_555
Ba12 Si3 3.765722 1_555
Ba12 Si0 3.765722 1_565
Ba13 Ba27 4.611993 1_555
Ba13 Ba34 4.611993 1_555
Ba13 Ba4 4.611993 1_555
Ba13 Ba40 4.611993 1_555
Ba13 Ba3 4.924950 1_554
Ba13 Ba23 4.924950 1_554
Ba13 Ba17 4.924950 1_455
Ba13 Ba21 4.924950 1_455
Ba13 Ba31 4.924950 1_545
Ba13 Ba19 4.924956 1_545
Ba13 Ba32 4.924956 1_455
Ba13 Ba35 4.924956 1_554
Ba13 Ba18 4.924963 1_555
Ba13 Ba24 4.924963 1_555
Ba13 Ba9 4.924963 1_555
Ba14 O5 2.681204 1_555
Ba14 O8 2.858220 1_555
Ba14 O6 2.858220 1_555
Ba14 Si3 3.765722 1_555
Ba14 Si2 3.765722 1_655
Ba15 O0 2.720695 1_455
Ba15 Si2 3.912100 1_555
Ba15 Ba4 4.708956 1_565
Ba15 Ba40 4.708956 1_556
Ba16 O6 2.720695 1_554
Ba16 Si1 3.912113 1_555
Ba16 Ba34 4.708943 1_555
Ba16 Ba27 4.708955 1_655
Ba17 O7 2.720695 1_555
Ba17 Si1 3.912113 1_555
Ba17 Ba40 4.708943 1_655
Ba17 Ba27 4.708955 1_655
Ba18 O9 2.720695 1_555
Ba18 Si1 3.912100 1_555
Ba18 Ba40 4.708956 1_555
Ba18 Ba34 4.708956 1_555
Ba19 O3 2.720695 1_555
Ba19 Si3 3.912106 1_555
Ba19 Ba34 4.708949 1_565
Ba19 Ba4 4.708949 1_565
Ba20 O1 2.681204 1_555
Ba20 O2 2.858220 1_555
Ba20 O3 2.858220 1_555
Ba20 Si2 3.765722 1_555
Ba20 Si3 3.765722 1_555
Ba21 O7 2.720695 1_555
Ba21 Si0 3.912113 1_555
Ba21 Ba4 4.708943 1_655
Ba21 Ba27 4.708955 1_655
Ba22 O1 2.681204 1_555
Ba22 O9 2.858216 1_555
Ba22 O2 2.858230 1_555
Ba22 Si2 3.765722 1_555
Ba22 Si0 3.765722 1_555
Ba23 O2 2.720695 1_555
Ba23 Si0 3.912113 1_555
Ba23 Ba34 4.708943 1_556
Ba23 Ba27 4.708955 1_556
Ba24 O9 2.720695 1_555
Ba24 Si2 3.912100 1_555
Ba24 Ba4 4.708956 1_555
Ba24 Ba40 4.708956 1_555
Ba25 O8 2.720695 1_545
Ba25 Si0 3.912113 1_555
Ba25 Ba34 4.708943 1_555
Ba25 Ba27 4.708955 1_655
Ba26 O8 2.720695 1_455
Ba26 Si2 3.912113 1_555
Ba26 Ba40 4.708943 1_555
Ba26 Ba27 4.708955 1_565
Ba27 Ba37 4.708955 1_545
Ba27 Ba33 4.708955 1_554
Ba27 Ba39 4.708955 1_554
Ba27 Ba31 4.708955 1_545
Ba27 Ba3 4.708955 1_554
Ba28 O5 2.681204 1_555
Ba28 O0 2.858216 1_555
Ba28 O4 2.858230 1_555
Ba28 Si0 3.765722 1_565
Ba28 Si1 3.765722 1_556
Ba29 O1 2.681204 1_555
Ba29 O2 2.858220 1_555
Ba29 O7 2.858220 1_555
Ba29 Si0 3.765722 1_555
Ba29 Si3 3.765722 1_555
Ba30 O4 2.720695 1_555
Ba30 Si3 3.912106 1_555
Ba30 Ba4 4.708949 1_565
Ba30 Ba40 4.708949 1_556
Ba31 O3 2.720695 1_555
Ba31 Si1 3.912113 1_555
Ba31 Ba34 4.708943 1_565
Ba32 O7 2.720695 1_555
Ba32 Si3 3.912106 1_555
Ba32 Ba4 4.708949 1_655
Ba32 Ba40 4.708949 1_655
Ba33 O6 2.720695 1_455
Ba33 Si2 3.912113 1_555
Ba33 Ba4 4.708943 1_555
Ba34 Ba8 4.708949 1_554
Ba34 Ba35 4.708949 1_554
Ba34 Ba9 4.708956 1_555
Ba34 Ba38 4.708956 1_554
Ba35 O2 2.720695 1_555
Ba35 Si3 3.912106 1_555
Ba35 Ba40 4.708949 1_556
Ba36 O1 2.681204 1_555
Ba36 O9 2.858216 1_555
Ba36 O3 2.858230 1_555
Ba36 Si1 3.765722 1_555
Ba36 Si2 3.765722 1_555
Ba37 O4 2.720695 1_554
Ba37 Si1 3.912113 1_555
Ba37 Ba40 4.708943 1_555
Ba38 O0 2.720695 1_545
Ba38 Si0 3.912100 1_555
Ba38 Ba4 4.708956 1_655
Ba39 O4 2.720695 1_545
Ba39 Si0 3.912113 1_555
Ba39 Ba4 4.708943 1_555
Ba41 O5 2.681204 1_555
Ba41 O0 2.858216 1_555
Ba41 O8 2.858230 1_555
Ba41 Si0 3.765722 1_565
Ba41 Si2 3.765722 1_655
