# generated using pymatgen
data_SrCd11
_symmetry_space_group_name_H-M   'P 1'
_cell_length_a   7.70533859
_cell_length_b   9.32760415
_cell_length_c   9.32760353
_cell_angle_alpha   80.17720922
_cell_angle_beta   65.60409668
_cell_angle_gamma   65.60408877
_symmetry_Int_Tables_number   1
_chemical_formula_structural   SrCd11
_chemical_formula_sum   'Sr2 Cd22'
_cell_volume   556.02605682
_cell_formula_units_Z   2
loop_
 _symmetry_equiv_pos_site_id
 _symmetry_equiv_pos_as_xyz
  1  'x, y, z'
loop_
 _atom_site_type_symbol
 _atom_site_label
 _atom_site_symmetry_multiplicity
 _atom_site_fract_x
 _atom_site_fract_y
 _atom_site_fract_z
 _atom_site_occupancy
  Sr  Sr0  1  0.37500000  0.25000000  0.75000000  1
  Sr  Sr1  1  0.62500000  0.75000000  0.25000000  1
  Cd  Cd0  1  0.72044945  0.83375084  0.57507111  1
  Cd  Cd1  1  -0.00000000  0.00000000  0.00000000  1
  Cd  Cd2  1  0.20448044  0.07507111  0.16624916  1
  Cd  Cd3  1  0.12927240  0.42492889  0.16624916  1
  Cd  Cd4  1  0.20448044  0.66624916  0.57507111  1
  Cd  Cd5  1  0.87072760  0.57507111  0.83375084  1
  Cd  Cd6  1  0.12927240  0.66624916  0.92492889  1
  Cd  Cd7  1  0.12500000  0.75000000  0.25000000  1
  Cd  Cd8  1  0.87072760  0.33375084  0.07507111  1
  Cd  Cd9  1  0.87500000  0.25000000  0.75000000  1
  Cd  Cd10  1  0.55420128  0.57507111  0.66624916  1
  Cd  Cd11  1  0.50000000  0.50000000  0.00000000  1
  Cd  Cd12  1  0.27955055  0.16624916  0.42492889  1
  Cd  Cd13  1  0.79551956  0.33375084  0.42492889  1
  Cd  Cd14  1  0.72044945  0.07507111  0.33375084  1
  Cd  Cd15  1  0.44579872  0.42492889  0.33375084  1
  Cd  Cd16  1  0.55420128  0.16624916  0.07507111  1
  Cd  Cd17  1  0.27955055  0.92492889  0.66624916  1
  Cd  Cd18  1  0.79551956  0.92492889  0.83375084  1
  Cd  Cd19  1  0.44579872  0.83375084  0.92492889  1
  Cd  Cd20  1  -0.00000000  0.00000000  0.50000000  1
  Cd  Cd21  1  -0.00000000  0.50000000  0.50000000  1
loop_
_geom_bond_atom_site_label_1
_geom_bond_atom_site_label_2
_geom_bond_distance
_geom_bond_site_symmetry_2
Cd0 Cd14 2.899082 1_565
Cd0 Cd17 2.908835 1_555
Cd0 Cd20 2.945794 1_665
Cd0 Cd21 2.963088 1_655
Cd0 Cd18 3.023130 1_555
Cd0 Cd10 3.023131 1_555
Cd0 Cd19 3.069688 1_555
Cd0 Cd7 3.241869 1_655
Cd0 Cd5 3.316352 1_555
Cd0 Cd4 3.396687 1_655
Cd0 Sr1 3.670155 1_555
Cd0 Sr0 3.854689 1_565
Cd1 Cd19 2.945788 1_544
Cd1 Cd16 2.945788 1_455
Cd1 Cd18 2.945800 1_444
Cd1 Cd2 2.945800 1_555
Cd1 Cd6 2.963087 1_544
Cd1 Cd8 2.963087 1_455
Cd1 Cd14 2.963088 1_455
Cd1 Cd17 2.963088 1_544
Cd1 Cd9 3.154019 1_454
Cd1 Cd7 3.154019 1_545
Cd2 Cd20 2.963090 1_555
Cd2 Cd8 3.023146 1_455
Cd2 Cd3 3.069686 1_555
Cd2 Cd7 3.241873 1_545
Cd2 Sr1 3.670151 1_545
Cd2 Sr0 3.854688 1_554
Cd3 Cd6 2.899082 1_554
Cd3 Cd8 2.908848 1_455
Cd3 Cd7 3.241865 1_555
Cd3 Sr1 3.670160 1_455
Cd3 Sr0 3.854689 1_554
Cd4 Cd5 3.023146 1_455
Cd4 Cd6 3.069685 1_555
Cd4 Cd7 3.241872 1_555
Cd4 Sr1 3.670151 1_555
Cd4 Sr0 3.854688 1_555
Cd5 Cd8 2.899082 1_556
Cd5 Cd6 2.908848 1_655
Cd5 Cd9 3.241865 1_555
Cd5 Sr0 3.670160 1_655
Cd5 Sr1 3.854689 1_556
Cd6 Cd7 3.241865 1_556
Cd6 Sr1 3.670161 1_456
Cd6 Sr0 3.854689 1_555
Cd7 Sr1 3.852669 1_555
Cd7 Sr1 3.852669 1_455
Cd8 Cd9 3.241865 1_554
Cd8 Sr0 3.670161 1_654
Cd8 Sr1 3.854689 1_555
Cd9 Sr0 3.852669 1_555
Cd9 Sr0 3.852669 1_655
Cd10 Cd13 2.899082 1_555
Cd10 Cd4 2.908834 1_555
Cd10 Cd21 2.945788 1_655
Cd10 Cd11 2.963087 1_556
Cd10 Cd6 3.023136 1_555
Cd10 Cd17 3.069688 1_555
Cd10 Cd9 3.241866 1_555
Cd10 Cd19 3.316349 1_555
Cd10 Cd5 3.396666 1_555
Cd10 Sr0 3.670160 1_555
Cd10 Sr1 3.854690 1_555
Cd11 Cd6 2.945788 1_554
Cd11 Cd8 2.945788 1_555
Cd11 Cd3 2.945788 1_555
Cd11 Cd5 2.945788 1_554
Cd11 Cd15 2.963087 1_555
Cd11 Cd16 2.963087 1_555
Cd11 Cd19 2.963087 1_554
Cd11 Cd7 3.154019 1_555
Cd11 Cd9 3.154019 1_554
Cd12 Cd17 2.899082 1_545
Cd12 Cd14 2.908835 1_555
Cd12 Cd20 2.945794 1_555
Cd12 Cd21 2.963088 1_555
Cd12 Cd2 3.023130 1_555
Cd12 Cd15 3.023131 1_555
Cd12 Cd16 3.069688 1_555
Cd12 Cd9 3.241869 1_455
Cd12 Cd3 3.316352 1_555
Cd12 Cd13 3.396687 1_455
Cd12 Sr0 3.670155 1_555
Cd12 Sr1 3.854689 1_545
Cd13 Cd15 2.908834 1_555
Cd13 Cd21 2.945800 1_655
Cd13 Cd20 2.963090 1_655
Cd13 Cd14 3.023131 1_555
Cd13 Cd3 3.023146 1_655
Cd13 Cd8 3.069685 1_555
Cd13 Cd9 3.241872 1_555
Cd13 Cd2 3.316360 1_655
Cd13 Sr0 3.670151 1_555
Cd13 Sr1 3.854688 1_555
Cd14 Cd20 2.945794 1_655
Cd14 Cd16 3.023131 1_555
Cd14 Cd15 3.069688 1_555
Cd14 Cd7 3.241869 1_645
Cd14 Cd8 3.316352 1_555
Cd14 Cd2 3.396687 1_655
Cd14 Sr1 3.670155 1_545
Cd14 Sr0 3.854689 1_555
Cd15 Cd4 2.899082 1_555
Cd15 Cd21 2.945788 1_555
Cd15 Cd8 3.023136 1_555
Cd15 Cd7 3.241866 1_555
Cd15 Cd16 3.316349 1_555
Cd15 Cd3 3.396666 1_555
Cd15 Sr1 3.670160 1_555
Cd15 Sr0 3.854690 1_555
Cd16 Cd18 2.899082 1_544
Cd16 Cd2 2.908834 1_555
Cd16 Cd3 3.023136 1_555
Cd16 Cd9 3.241866 1_554
Cd16 Cd8 3.396666 1_555
Cd16 Sr0 3.670160 1_554
Cd16 Sr1 3.854690 1_545
Cd17 Cd20 2.945794 1_565
Cd17 Cd4 3.023131 1_555
Cd17 Cd19 3.023131 1_555
Cd17 Cd9 3.241869 1_465
Cd17 Cd6 3.316352 1_555
Cd17 Cd18 3.396687 1_455
Cd17 Sr0 3.670155 1_565
Cd17 Sr1 3.854689 1_555
Cd18 Cd19 2.908834 1_555
Cd18 Cd20 2.963090 1_665
Cd18 Cd6 3.023146 1_655
Cd18 Cd5 3.069686 1_555
Cd18 Cd9 3.241873 1_565
Cd18 Cd4 3.316360 1_655
Cd18 Sr0 3.670151 1_565
Cd18 Sr1 3.854688 1_556
Cd19 Cd2 2.899082 1_566
Cd19 Cd5 3.023136 1_555
Cd19 Cd7 3.241866 1_556
Cd19 Cd6 3.396666 1_555
Cd19 Sr1 3.670160 1_556
Cd19 Sr0 3.854690 1_565
Cd20 Cd4 2.963090 1_545
Cd20 Cd9 3.154018 1_455
Cd20 Cd7 3.154018 1_545
Cd21 Cd4 2.945800 1_555
Cd21 Cd3 2.963087 1_555
Cd21 Cd5 2.963087 1_455
Cd21 Cd7 3.154019 1_555
Cd21 Cd9 3.154019 1_455
