# generated using pymatgen
data_Nb2Cd2O7
_symmetry_space_group_name_H-M   'P 1'
_cell_length_a   7.39938834
_cell_length_b   7.39938834
_cell_length_c   7.39938834
_cell_angle_alpha   60.00000000
_cell_angle_beta   60.00000000
_cell_angle_gamma   60.00000000
_symmetry_Int_Tables_number   1
_chemical_formula_structural   Nb2Cd2O7
_chemical_formula_sum   'Nb4 Cd4 O14'
_cell_volume   286.46559130
_cell_formula_units_Z   2
loop_
 _symmetry_equiv_pos_site_id
 _symmetry_equiv_pos_as_xyz
  1  'x, y, z'
loop_
 _atom_site_type_symbol
 _atom_site_label
 _atom_site_symmetry_multiplicity
 _atom_site_fract_x
 _atom_site_fract_y
 _atom_site_fract_z
 _atom_site_occupancy
  Nb  Nb0  1  0.12500000  0.12500000  0.62500000  1
  Nb  Nb1  1  0.12500000  0.62500000  0.12500000  1
  Nb  Nb2  1  0.62500000  0.12500000  0.12500000  1
  Nb  Nb3  1  0.12500000  0.12500000  0.12500000  1
  Cd  Cd0  1  0.62500000  0.62500000  0.12500000  1
  Cd  Cd1  1  0.62500000  0.12500000  0.62500000  1
  Cd  Cd2  1  0.12500000  0.62500000  0.62500000  1
  Cd  Cd3  1  0.62500000  0.62500000  0.62500000  1
  O  O0  1  0.75000000  0.75000000  0.75000000  1
  O  O1  1  0.50000000  0.50000000  0.50000000  1
  O  O2  1  0.05557649  0.44442351  0.05557649  1
  O  O3  1  0.80557649  0.19442351  0.80557649  1
  O  O4  1  0.05557649  0.05557649  0.44442351  1
  O  O5  1  0.44442351  0.05557649  0.05557649  1
  O  O6  1  0.05557649  0.44442351  0.44442351  1
  O  O7  1  0.44442351  0.44442351  0.05557649  1
  O  O8  1  0.44442351  0.05557649  0.44442351  1
  O  O9  1  0.19442351  0.80557649  0.80557649  1
  O  O10  1  0.80557649  0.19442351  0.19442351  1
  O  O11  1  0.19442351  0.80557649  0.19442351  1
  O  O12  1  0.80557649  0.80557649  0.19442351  1
  O  O13  1  0.19442351  0.19442351  0.80557649  1
loop_
_geom_bond_atom_site_label_1
_geom_bond_atom_site_label_2
_geom_bond_distance
_geom_bond_site_symmetry_2
Nb0 O4 1.987383 1_555
Nb0 O13 1.987383 1_555
Nb0 O6 1.987383 1_555
Nb0 O9 1.987383 1_545
Nb0 O8 1.987383 1_555
Nb0 O3 1.987383 1_455
Nb1 O11 1.987383 1_555
Nb1 O2 1.987383 1_555
Nb1 O6 1.987383 1_555
Nb1 O7 1.987383 1_555
Nb1 O12 1.987383 1_455
Nb1 O9 1.987383 1_554
Nb2 O5 1.987383 1_555
Nb2 O10 1.987383 1_555
Nb2 O3 1.987383 1_554
Nb2 O7 1.987383 1_555
Nb2 O12 1.987383 1_545
Nb2 O8 1.987383 1_555
Nb3 O13 1.987383 1_554
Nb3 O4 1.987383 1_555
Nb3 O2 1.987383 1_555
Nb3 O10 1.987383 1_455
Nb3 O5 1.987383 1_555
Nb3 O11 1.987383 1_545
Cd0 O1 2.265591 1_555
Cd0 O0 2.265591 1_554
Cd0 O12 2.644344 1_555
Cd0 O7 2.644344 1_555
Cd0 O10 2.644344 1_555
Cd0 O5 2.644344 1_565
Cd0 O2 2.644344 1_655
Cd0 O11 2.644344 1_555
Cd1 O1 2.265591 1_555
Cd1 O0 2.265591 1_545
Cd1 O3 2.644344 1_555
Cd1 O8 2.644344 1_555
Cd1 O5 2.644344 1_556
Cd1 O10 2.644344 1_555
Cd1 O13 2.644344 1_555
Cd1 O4 2.644344 1_655
Cd2 O1 2.265591 1_555
Cd2 O0 2.265591 1_455
Cd2 O9 2.644344 1_555
Cd2 O6 2.644344 1_555
Cd2 O4 2.644344 1_565
Cd2 O2 2.644344 1_556
Cd2 O11 2.644344 1_555
Cd2 O13 2.644344 1_555
Cd3 O1 2.265591 1_555
Cd3 O0 2.265591 1_555
Cd3 O7 2.644344 1_556
Cd3 O6 2.644344 1_655
Cd3 O3 2.644344 1_555
Cd3 O8 2.644344 1_565
Cd3 O12 2.644344 1_555
Cd3 O9 2.644344 1_555
