# generated using pymatgen
data_RbSnS4
_symmetry_space_group_name_H-M   'P 1'
_cell_length_a   9.85313117
_cell_length_b   10.02780367
_cell_length_c   14.54790199
_cell_angle_alpha   90.00000000
_cell_angle_beta   106.65046957
_cell_angle_gamma   90.00000000
_symmetry_Int_Tables_number   1
_chemical_formula_structural   RbSnS4
_chemical_formula_sum   'Rb8 Sn8 S32'
_cell_volume   1377.13953003
_cell_formula_units_Z   8
loop_
 _symmetry_equiv_pos_site_id
 _symmetry_equiv_pos_as_xyz
  1  'x, y, z'
loop_
 _atom_site_type_symbol
 _atom_site_label
 _atom_site_symmetry_multiplicity
 _atom_site_fract_x
 _atom_site_fract_y
 _atom_site_fract_z
 _atom_site_occupancy
  Rb  Rb0  1  0.34660212  0.36516631  0.20325239  1
  Rb  Rb1  1  0.15339788  0.86516631  0.29674761  1
  Rb  Rb2  1  0.65339788  0.63483369  0.79674761  1
  Rb  Rb3  1  0.84660212  0.13483369  0.70325239  1
  Rb  Rb4  1  0.02707320  0.27387090  0.40469776  1
  Rb  Rb5  1  0.47292680  0.77387090  0.09530224  1
  Rb  Rb6  1  0.97292680  0.72612910  0.59530224  1
  Rb  Rb7  1  0.52707320  0.22612910  0.90469776  1
  Sn  Sn0  1  0.02366567  0.17506046  0.01316126  1
  Sn  Sn1  1  0.47633433  0.67506046  0.48683874  1
  Sn  Sn2  1  0.97633433  0.82493954  0.98683874  1
  Sn  Sn3  1  0.52366567  0.32493954  0.51316126  1
  Sn  Sn4  1  0.59498918  0.99985377  0.40513288  1
  Sn  Sn5  1  0.90501082  0.49985377  0.09486712  1
  Sn  Sn6  1  0.40501082  0.00014623  0.59486712  1
  Sn  Sn7  1  0.09498918  0.50014623  0.90513288  1
  S  S0  1  0.21233538  0.27508765  0.96095145  1
  S  S1  1  0.28766462  0.77508765  0.53904855  1
  S  S2  1  0.78766462  0.72491235  0.03904855  1
  S  S3  1  0.71233538  0.22491235  0.46095145  1
  S  S4  1  0.83563238  0.03570918  0.91882669  1
  S  S5  1  0.66436762  0.53570918  0.58117331  1
  S  S6  1  0.16436762  0.96429082  0.08117331  1
  S  S7  1  0.33563238  0.46429082  0.41882669  1
  S  S8  1  0.63607203  0.89777668  0.57358146  1
  S  S9  1  0.86392797  0.39777668  0.92641854  1
  S  S10  1  0.36392797  0.10222332  0.42641854  1
  S  S11  1  0.13607203  0.60222332  0.07358146  1
  S  S12  1  0.51269922  0.06697552  0.22470309  1
  S  S13  1  0.98730078  0.56697552  0.27529691  1
  S  S14  1  0.48730078  0.93302448  0.77529691  1
  S  S15  1  0.01269922  0.43302448  0.72470309  1
  S  S16  1  0.00637634  0.27065680  0.16171286  1
  S  S17  1  0.49362366  0.77065680  0.33828714  1
  S  S18  1  0.99362366  0.72934320  0.83828714  1
  S  S19  1  0.50637634  0.22934320  0.66171286  1
  S  S20  1  0.68884697  0.14219472  0.19718451  1
  S  S21  1  0.81115303  0.64219472  0.30281549  1
  S  S22  1  0.31115303  0.85780528  0.80281549  1
  S  S23  1  0.18884697  0.35780528  0.69718451  1
  S  S24  1  0.69146427  0.34389147  0.22732890  1
  S  S25  1  0.80853573  0.84389147  0.27267110  1
  S  S26  1  0.30853573  0.65610853  0.77267110  1
  S  S27  1  0.19146427  0.15610853  0.72732890  1
  S  S28  1  0.64929057  0.44035357  0.09901178  1
  S  S29  1  0.85070943  0.94035357  0.40098822  1
  S  S30  1  0.35070943  0.55964643  0.90098822  1
  S  S31  1  0.14929057  0.05964643  0.59901178  1
loop_
_geom_bond_atom_site_label_1
_geom_bond_atom_site_label_2
_geom_bond_distance
_geom_bond_site_symmetry_2
Rb0 S7 3.321060 1_555
Rb0 S24 3.321500 1_555
Rb0 S11 3.357096 1_555
Rb0 S16 3.367534 1_555
Rb0 S12 3.379997 1_555
Rb0 S0 3.509863 1_554
Rb0 S28 3.788789 1_555
Rb1 S6 3.321060 1_555
Rb1 S25 3.321500 1_455
Rb1 S10 3.357096 1_565
Rb1 S17 3.367534 1_555
Rb1 S13 3.379997 1_455
Rb1 S1 3.509863 1_555
Rb1 S29 3.788789 1_455
Rb2 S5 3.321060 1_555
Rb2 S26 3.321500 1_555
Rb2 S9 3.357096 1_555
Rb2 S18 3.367534 1_555
Rb2 S14 3.379997 1_555
Rb2 S2 3.509863 1_556
Rb2 S30 3.788789 1_555
Rb3 S4 3.321060 1_555
Rb3 S27 3.321500 1_655
Rb3 S8 3.357096 1_545
Rb3 S19 3.367534 1_555
Rb3 S15 3.379997 1_655
Rb3 S3 3.509863 1_555
Rb3 S31 3.788789 1_655
Rb4 S13 3.451598 1_455
Rb4 S3 3.461545 1_455
Rb4 S31 3.479261 1_555
Rb4 S16 3.482123 1_555
Rb4 S7 3.545922 1_555
Rb4 S24 3.632676 1_455
Rb4 S10 3.671208 1_555
Rb4 S29 3.762209 1_445
Rb5 S12 3.451598 1_565
Rb5 S2 3.461545 1_555
Rb5 S30 3.479261 1_554
Rb5 S17 3.482123 1_555
Rb5 S6 3.545922 1_555
Rb5 S25 3.632676 1_555
Rb5 S11 3.671208 1_555
Rb5 S28 3.762209 1_555
Rb6 S15 3.451598 1_655
Rb6 S1 3.461545 1_655
Rb6 S29 3.479261 1_555
Rb6 S18 3.482123 1_555
Rb6 S5 3.545922 1_555
Rb6 S26 3.632676 1_655
Rb6 S8 3.671208 1_555
Rb6 S31 3.762209 1_665
Rb7 S14 3.451598 1_545
Rb7 S0 3.461545 1_555
Rb7 S28 3.479261 1_556
Rb7 S19 3.482123 1_555
Rb7 S4 3.545922 1_555
Rb7 S27 3.632676 1_555
Rb7 S9 3.671208 1_555
Rb7 S30 3.762209 1_555
S0 Sn0 2.418266 1_556
S0 Sn7 2.559602 1_555
S1 Sn1 2.418266 1_555
S1 Sn6 2.559602 1_565
S2 Sn2 2.418266 1_554
S2 Sn5 2.559602 1_555
S3 Sn3 2.418266 1_555
S3 Sn4 2.559602 1_545
S4 Sn0 2.410719 1_656
S4 Sn2 2.565541 1_545
S5 Sn1 2.410719 1_555
S5 Sn3 2.565541 1_555
S6 Sn2 2.410719 1_454
S6 Sn0 2.565541 1_565
S7 Sn3 2.410719 1_555
S7 Sn1 2.565541 1_555
S8 Sn4 2.578464 1_555
S8 Sn6 2.595562 1_565
S8 Sn1 2.814132 1_555
S9 Sn5 2.578464 1_556
S9 Sn7 2.595562 1_655
S9 Sn0 2.814132 1_656
S10 Sn6 2.578464 1_555
S10 Sn4 2.595562 1_545
S10 Sn3 2.814132 1_555
S11 Sn7 2.578464 1_554
S11 Sn5 2.595562 1_455
S11 Sn2 2.814132 1_454
S12 S20 2.034632 1_555
S12 Sn4 2.603994 1_545
S13 S21 2.034632 1_555
S13 Sn5 2.603994 1_555
S14 S22 2.034632 1_555
S14 Sn6 2.603994 1_565
S15 S23 2.034632 1_555
S15 Sn7 2.603994 1_555
S16 Sn0 2.414408 1_555
S16 Sn5 2.582441 1_455
S17 Sn1 2.414408 1_555
S17 Sn4 2.582441 1_555
S18 Sn2 2.414408 1_555
S18 Sn7 2.582441 1_655
S19 Sn3 2.414408 1_555
S19 Sn6 2.582441 1_555
S20 S24 2.068166 1_555
S21 S25 2.068166 1_555
S22 S26 2.068166 1_555
S23 S27 2.068166 1_555
S24 S28 2.036800 1_555
S25 S29 2.036800 1_555
S26 S30 2.036800 1_555
S27 S31 2.036800 1_555
S28 Sn5 2.606781 1_555
S29 Sn4 2.606781 1_555
S30 Sn7 2.606781 1_555
S31 Sn6 2.606781 1_555
