# generated using pymatgen
data_KPuP2S7
_symmetry_space_group_name_H-M   'P 1'
_cell_length_a   12.44692700
_cell_length_b   9.07799600
_cell_length_c   9.78982907
_cell_angle_alpha   89.86036896
_cell_angle_beta   90.00000000
_cell_angle_gamma   90.00000000
_symmetry_Int_Tables_number   1
_chemical_formula_structural   KPuP2S7
_chemical_formula_sum   'K4 Pu4 P8 S28'
_cell_volume   1106.18037431
_cell_formula_units_Z   4
loop_
 _symmetry_equiv_pos_site_id
 _symmetry_equiv_pos_as_xyz
  1  'x, y, z'
loop_
 _atom_site_type_symbol
 _atom_site_label
 _atom_site_symmetry_multiplicity
 _atom_site_fract_x
 _atom_site_fract_y
 _atom_site_fract_z
 _atom_site_occupancy
  K  K0  1  0.30691800  0.13242900  0.39475600  1
  K  K1  1  0.80691800  0.36757100  0.60524400  1
  K  K2  1  0.69308200  0.86757100  0.60524400  1
  K  K3  1  0.19308200  0.63242900  0.39475600  1
  Pu  Pu0  1  0.36007100  0.89272200  0.85912100  1
  Pu  Pu1  1  0.86007100  0.60727800  0.14087900  1
  Pu  Pu2  1  0.63992900  0.10727800  0.14087900  1
  Pu  Pu3  1  0.13992900  0.39272200  0.85912100  1
  P  P0  1  0.46291200  0.80405800  0.18523800  1
  P  P1  1  0.96291200  0.69594200  0.81476200  1
  P  P2  1  0.53708800  0.19594200  0.81476200  1
  P  P3  1  0.03708800  0.30405800  0.18523800  1
  P  P4  1  0.10410200  0.02344000  0.72772500  1
  P  P5  1  0.60410200  0.47656000  0.27227500  1
  P  P6  1  0.89589800  0.97656000  0.27227500  1
  P  P7  1  0.39589800  0.52344000  0.72772500  1
  S  S0  1  0.55644800  0.82650600  0.01546100  1
  S  S1  1  0.05644800  0.67349400  0.98453900  1
  S  S2  1  0.44355200  0.17349400  0.98453900  1
  S  S3  1  0.94355200  0.32650600  0.01546100  1
  S  S4  1  0.47509200  0.06530900  0.66685100  1
  S  S5  1  0.97509200  0.43469100  0.33314900  1
  S  S6  1  0.52490800  0.93469100  0.33314900  1
  S  S7  1  0.02490800  0.56530900  0.66685100  1
  S  S8  1  0.30640600  0.85408200  0.14604000  1
  S  S9  1  0.80640600  0.64591800  0.85396000  1
  S  S10  1  0.69359400  0.14591800  0.85396000  1
  S  S11  1  0.19359400  0.35408200  0.14604000  1
  S  S12  1  0.44311800  0.71313100  0.63682600  1
  S  S13  1  0.94311800  0.78686900  0.36317400  1
  S  S14  1  0.55688200  0.28686900  0.36317400  1
  S  S15  1  0.05688200  0.21313100  0.63682600  1
  S  S16  1  0.17306000  0.07652600  0.91020100  1
  S  S17  1  0.67306000  0.42347400  0.08979900  1
  S  S18  1  0.82694000  0.92347400  0.08979900  1
  S  S19  1  0.32694000  0.57652600  0.91020100  1
  S  S20  1  0.21174800  0.89001200  0.63349800  1
  S  S21  1  0.71174800  0.60998800  0.36650200  1
  S  S22  1  0.78825200  0.10998800  0.36650200  1
  S  S23  1  0.28825200  0.39001200  0.63349800  1
  S  S24  1  0.94883000  0.92175900  0.75208500  1
  S  S25  1  0.44883000  0.57824100  0.24791500  1
  S  S26  1  0.05117000  0.07824100  0.24791500  1
  S  S27  1  0.55117000  0.42175900  0.75208500  1
loop_
_geom_bond_atom_site_label_1
_geom_bond_atom_site_label_2
_geom_bond_distance
_geom_bond_site_symmetry_2
K0 S6 3.309580 1_545
K0 S23 3.318305 1_555
K0 S20 3.418151 1_545
K0 S14 3.426250 1_555
K0 S4 3.441029 1_555
K0 S11 3.455896 1_555
K0 S8 3.513344 1_545
K0 S26 3.527779 1_555
K1 S7 3.309580 1_655
K1 S22 3.318305 1_555
K1 S21 3.418151 1_555
K1 S15 3.426250 1_655
K1 S5 3.441029 1_555
K1 S10 3.455896 1_555
K1 S9 3.513344 1_555
K1 S27 3.527779 1_555
K2 S4 3.309580 1_565
K2 S21 3.318305 1_555
K2 S22 3.418151 1_565
K2 S12 3.426250 1_555
K2 S6 3.441029 1_555
K2 S9 3.455896 1_555
K2 S10 3.513344 1_565
K2 S24 3.527779 1_555
K3 S5 3.309580 1_455
K3 S20 3.318305 1_555
K3 S23 3.418151 1_555
K3 S13 3.426250 1_455
K3 S7 3.441029 1_555
K3 S8 3.455896 1_555
K3 S11 3.513344 1_555
K3 S25 3.527779 1_555
Pu0 S4 2.834250 1_565
Pu0 S20 2.878896 1_555
Pu0 S8 2.907622 1_556
Pu0 S16 2.908008 1_565
Pu0 S12 2.911997 1_555
Pu0 S19 2.941508 1_555
Pu0 S0 2.945159 1_556
Pu0 S2 3.016473 1_565
Pu1 S5 2.834250 1_555
Pu1 S21 2.878896 1_555
Pu1 S9 2.907622 1_554
Pu1 S17 2.908008 1_555
Pu1 S13 2.911997 1_555
Pu1 S18 2.941508 1_555
Pu1 S1 2.945159 1_654
Pu1 S3 3.016473 1_555
Pu2 S6 2.834250 1_545
Pu2 S22 2.878896 1_555
Pu2 S10 2.907622 1_554
Pu2 S18 2.908008 1_545
Pu2 S14 2.911997 1_555
Pu2 S17 2.941508 1_555
Pu2 S2 2.945159 1_554
Pu2 S0 3.016473 1_545
Pu3 S7 2.834250 1_555
Pu3 S23 2.878896 1_555
Pu3 S11 2.907622 1_556
Pu3 S19 2.908008 1_555
Pu3 S15 2.911997 1_555
Pu3 S16 2.941508 1_555
Pu3 S3 2.945159 1_456
Pu3 S1 3.016473 1_555
P0 S6 2.026555 1_555
P0 S8 2.036519 1_555
P0 S0 2.039082 1_555
P0 S25 2.145566 1_555
P1 S7 2.026555 1_655
P1 S9 2.036519 1_555
P1 S1 2.039082 1_655
P1 S24 2.145566 1_555
P2 S4 2.026555 1_555
P2 S10 2.036519 1_555
P2 S2 2.039082 1_555
P2 S27 2.145566 1_555
P3 S5 2.026555 1_455
P3 S11 2.036519 1_555
P3 S3 2.039082 1_455
P3 S26 2.145566 1_555
P4 S15 2.023661 1_555
P4 S20 2.029475 1_545
P4 S16 2.040686 1_555
P4 S24 2.154765 1_445
P5 S14 2.023661 1_555
P5 S21 2.029475 1_555
P5 S17 2.040686 1_555
P5 S25 2.154765 1_555
P6 S13 2.023661 1_555
P6 S22 2.029475 1_565
P6 S18 2.040686 1_555
P6 S26 2.154765 1_665
P7 S12 2.023661 1_555
P7 S23 2.029475 1_555
P7 S19 2.040686 1_555
P7 S27 2.154765 1_555
