# generated using pymatgen
data_NaFe4(MoO4)5
_symmetry_space_group_name_H-M   'P 1'
_cell_length_a   7.04858100
_cell_length_b   7.14259629
_cell_length_c   18.23186567
_cell_angle_alpha   87.54217459
_cell_angle_beta   87.87917287
_cell_angle_gamma   79.41521357
_symmetry_Int_Tables_number   1
_chemical_formula_structural   NaFe4(MoO4)5
_chemical_formula_sum   'Na2 Fe8 Mo10 O40'
_cell_volume   901.04108494
_cell_formula_units_Z   2
loop_
 _symmetry_equiv_pos_site_id
 _symmetry_equiv_pos_as_xyz
  1  'x, y, z'
loop_
 _atom_site_type_symbol
 _atom_site_label
 _atom_site_symmetry_multiplicity
 _atom_site_fract_x
 _atom_site_fract_y
 _atom_site_fract_z
 _atom_site_occupancy
  Na  Na0  1  0.88117800  0.66735800  0.69840400  1
  Na  Na1  1  0.11882200  0.33264200  0.30159600  1
  Fe  Fe0  1  0.17446100  0.08180800  0.11317800  1
  Fe  Fe1  1  0.24986600  0.30099800  0.73354700  1
  Fe  Fe2  1  0.18548500  0.82740700  0.49270300  1
  Fe  Fe3  1  0.22226200  0.57425900  0.87486400  1
  Fe  Fe4  1  0.75013400  0.69900200  0.26645300  1
  Fe  Fe5  1  0.81451500  0.17259300  0.50729700  1
  Fe  Fe6  1  0.77773800  0.42574100  0.12513600  1
  Fe  Fe7  1  0.82553900  0.91819200  0.88682200  1
  Mo  Mo0  1  0.68154600  0.21993700  0.30887100  1
  Mo  Mo1  1  0.72962400  0.69181400  0.47157000  1
  Mo  Mo2  1  0.72811500  0.93901300  0.09585800  1
  Mo  Mo3  1  0.21731800  0.82446100  0.28474800  1
  Mo  Mo4  1  0.27188500  0.06098700  0.90414200  1
  Mo  Mo5  1  0.75140000  0.45574300  0.91314600  1
  Mo  Mo6  1  0.31845400  0.78006300  0.69112900  1
  Mo  Mo7  1  0.24860000  0.54425700  0.08685400  1
  Mo  Mo8  1  0.78268200  0.17553900  0.71525200  1
  Mo  Mo9  1  0.27037600  0.30818600  0.52843000  1
  O  O0  1  0.08711200  0.38491400  0.12510500  1
  O  O1  1  0.79327600  0.88149500  0.00422300  1
  O  O2  1  0.87625900  0.86344300  0.49735800  1
  O  O3  1  0.18213400  0.79845900  0.61021800  1
  O  O4  1  0.20213700  0.52880300  0.47883200  1
  O  O5  1  0.82984700  0.21228300  0.88899400  1
  O  O6  1  0.04739100  0.66483100  0.26881900  1
  O  O7  1  0.76956000  0.71728300  0.15499000  1
  O  O8  1  0.47876600  0.03465800  0.10442500  1
  O  O9  1  0.46285400  0.71392000  0.26398700  1
  O  O10  1  0.52123400  0.96534200  0.89557500  1
  O  O11  1  0.75426700  0.65149800  0.37354400  1
  O  O12  1  0.25168400  0.53422000  0.99006700  1
  O  O13  1  0.16201200  0.04755400  0.23388000  1
  O  O14  1  0.53714600  0.28608000  0.73601300  1
  O  O15  1  0.56341300  0.70706900  0.66884500  1
  O  O16  1  0.43658700  0.29293100  0.33115500  1
  O  O17  1  0.19719900  0.87973200  0.37844800  1
  O  O18  1  0.48565200  0.78745700  0.49284900  1
  O  O19  1  0.80280100  0.12026800  0.62155200  1
  O  O20  1  0.71615600  0.98625000  0.26916100  1
  O  O21  1  0.79786300  0.47119700  0.52116800  1
  O  O22  1  0.23044000  0.28271700  0.84501000  1
  O  O23  1  0.77556600  0.40336400  0.24869100  1
  O  O24  1  0.12374100  0.13655700  0.50264200  1
  O  O25  1  0.83798800  0.95244600  0.76612000  1
  O  O26  1  0.48094000  0.45885700  0.12331000  1
  O  O27  1  0.95260900  0.33516900  0.73118100  1
  O  O28  1  0.74831600  0.46578000  0.00993300  1
  O  O29  1  0.28384400  0.01375000  0.73083900  1
  O  O30  1  0.81786600  0.20154100  0.38978200  1
  O  O31  1  0.86017500  0.12308500  0.11897700  1
  O  O32  1  0.13982500  0.87691500  0.88102300  1
  O  O33  1  0.24573300  0.34850200  0.62645600  1
  O  O34  1  0.51434800  0.21254300  0.50715100  1
  O  O35  1  0.51906000  0.54114300  0.87669000  1
  O  O36  1  0.91288800  0.61508600  0.87489500  1
  O  O37  1  0.22443400  0.59663600  0.75130900  1
  O  O38  1  0.20672400  0.11850500  0.99577700  1
  O  O39  1  0.17015300  0.78771700  0.11100600  1
loop_
_geom_bond_atom_site_label_1
_geom_bond_atom_site_label_2
_geom_bond_distance
_geom_bond_site_symmetry_2
Na0 O15 2.287004 1_555
Na0 O27 2.387898 1_555
Na0 O25 2.392350 1_555
Na0 O37 2.592546 1_655
Na0 O3 2.882711 1_655
Na1 O16 2.287004 1_555
Na1 O6 2.387898 1_555
Na1 O13 2.392350 1_555
Na1 O23 2.592546 1_455
Na1 O30 2.882711 1_455
Fe0 O39 2.108448 1_545
Fe0 O8 2.110321 1_555
Fe0 O38 2.153985 1_554
Fe0 O0 2.157358 1_555
Fe0 O31 2.179660 1_455
Fe0 O13 2.204023 1_555
Fe1 O33 1.967706 1_555
Fe1 O14 2.010155 1_555
Fe1 O29 2.023993 1_555
Fe1 O22 2.031936 1_555
Fe1 O27 2.066247 1_455
Fe1 O37 2.123969 1_555
Fe2 O18 2.082400 1_555
Fe2 O17 2.101799 1_555
Fe2 O4 2.139789 1_555
Fe2 O3 2.143302 1_555
Fe2 O2 2.146208 1_455
Fe2 O24 2.184840 1_565
Fe3 O35 2.063063 1_555
Fe3 O12 2.120203 1_555
Fe3 O32 2.139608 1_555
Fe3 O36 2.146291 1_455
Fe3 O22 2.164860 1_555
Fe3 O37 2.251139 1_555
Fe4 O11 1.967706 1_555
Fe4 O9 2.010155 1_555
Fe4 O20 2.023993 1_555
Fe4 O7 2.031936 1_555
Fe4 O6 2.066247 1_655
Fe4 O23 2.123969 1_555
Fe5 O34 2.082400 1_555
Fe5 O19 2.101799 1_555
Fe5 O21 2.139789 1_555
Fe5 O30 2.143302 1_555
Fe5 O24 2.146208 1_655
Fe5 O2 2.184840 1_545
Fe6 O26 2.063063 1_555
Fe6 O28 2.120203 1_555
Fe6 O31 2.139608 1_555
Fe6 O0 2.146291 1_655
Fe6 O7 2.164860 1_555
Fe6 O23 2.251139 1_555
Fe7 O5 2.108448 1_565
Fe7 O10 2.110321 1_555
Fe7 O1 2.153985 1_556
Fe7 O36 2.157358 1_555
Fe7 O32 2.179660 1_655
Fe7 O25 2.204023 1_555
Mo0 O16 1.747459 1_555
Mo0 O30 1.777221 1_555
Mo0 O20 1.819519 1_545
Mo0 O23 1.871193 1_555
Mo1 O18 1.765269 1_555
Mo1 O21 1.778665 1_555
Mo1 O11 1.819328 1_555
Mo1 O2 1.828380 1_555
Mo2 O1 1.761716 1_555
Mo2 O8 1.768566 1_565
Mo2 O31 1.816279 1_565
Mo2 O7 1.860834 1_555
Mo3 O17 1.764563 1_555
Mo3 O13 1.795271 1_565
Mo3 O9 1.799181 1_555
Mo3 O6 1.837057 1_555
Mo4 O38 1.761716 1_555
Mo4 O10 1.768566 1_545
Mo4 O32 1.816279 1_545
Mo4 O22 1.860834 1_555
Mo5 O28 1.768302 1_556
Mo5 O35 1.781741 1_555
Mo5 O5 1.793863 1_555
Mo5 O36 1.851058 1_555
Mo6 O15 1.747459 1_555
Mo6 O3 1.777221 1_555
Mo6 O29 1.819519 1_565
Mo6 O37 1.871193 1_555
Mo7 O12 1.768302 1_554
Mo7 O26 1.781741 1_555
Mo7 O39 1.793863 1_555
Mo7 O0 1.851058 1_555
Mo8 O19 1.764563 1_555
Mo8 O25 1.795271 1_545
Mo8 O14 1.799181 1_555
Mo8 O27 1.837057 1_555
Mo9 O34 1.765269 1_555
Mo9 O4 1.778665 1_555
Mo9 O33 1.819328 1_555
Mo9 O24 1.828380 1_555
