# generated using pymatgen
data_Cs2CoO3
_symmetry_space_group_name_H-M   'P 1'
_cell_length_a   7.08783611
_cell_length_b   7.08783611
_cell_length_c   13.99739200
_cell_angle_alpha   90.00000000
_cell_angle_beta   90.00000000
_cell_angle_gamma   128.96281297
_symmetry_Int_Tables_number   1
_chemical_formula_structural   Cs2CoO3
_chemical_formula_sum   'Cs8 Co4 O12'
_cell_volume   546.77060454
_cell_formula_units_Z   4
loop_
 _symmetry_equiv_pos_site_id
 _symmetry_equiv_pos_as_xyz
  1  'x, y, z'
loop_
 _atom_site_type_symbol
 _atom_site_label
 _atom_site_symmetry_multiplicity
 _atom_site_fract_x
 _atom_site_fract_y
 _atom_site_fract_z
 _atom_site_occupancy
  Cs  Cs0  1  0.94285000  0.05715000  0.85955100  1
  Cs  Cs1  1  0.05715000  0.94285000  0.14044900  1
  Cs  Cs2  1  0.55715000  0.44285000  0.35955100  1
  Cs  Cs3  1  0.44285000  0.55715000  0.64044900  1
  Cs  Cs4  1  0.14001200  0.85998800  0.57705000  1
  Cs  Cs5  1  0.85998800  0.14001200  0.42295000  1
  Cs  Cs6  1  0.35998800  0.64001200  0.07705000  1
  Cs  Cs7  1  0.64001200  0.35998800  0.92295000  1
  Co  Co0  1  0.76197400  0.23802600  0.67550000  1
  Co  Co1  1  0.23802600  0.76197400  0.32450000  1
  Co  Co2  1  0.73802600  0.26197400  0.17550000  1
  Co  Co3  1  0.26197400  0.73802600  0.82450000  1
  O  O0  1  0.67774500  0.32225500  0.57525800  1
  O  O1  1  0.32225500  0.67774500  0.42474200  1
  O  O2  1  0.82225500  0.17774500  0.07525800  1
  O  O3  1  0.17774500  0.82225500  0.92474200  1
  O  O4  1  0.89510500  0.10489500  0.64165300  1
  O  O5  1  0.10489500  0.89510500  0.35834700  1
  O  O6  1  0.60489500  0.39510500  0.14165300  1
  O  O7  1  0.39510500  0.60489500  0.85834700  1
  O  O8  1  0.48281500  0.01718500  0.75000000  1
  O  O9  1  0.01718500  0.48281500  0.25000000  1
  O  O10  1  0.51718500  0.98281500  0.25000000  1
  O  O11  1  0.98281500  0.51718500  0.75000000  1
loop_
_geom_bond_atom_site_label_1
_geom_bond_atom_site_label_2
_geom_bond_distance
_geom_bond_site_symmetry_2
Cs0 O4 3.110561 1_555
Cs0 O7 3.114003 1_655
Cs0 O7 3.114003 1_545
Cs0 O3 3.140452 1_645
Cs0 O2 3.390641 1_556
Cs0 O11 3.449915 1_555
Cs0 O8 3.449915 1_555
Cs1 O5 3.110561 1_555
Cs1 O6 3.114003 1_565
Cs1 O6 3.114003 1_455
Cs1 O2 3.140452 1_465
Cs1 O3 3.390641 1_554
Cs1 O9 3.449915 1_555
Cs1 O10 3.449915 1_555
Cs2 O6 3.110561 1_555
Cs2 O5 3.114003 1_655
Cs2 O5 3.114003 1_545
Cs2 O1 3.140452 1_555
Cs2 O0 3.390641 1_555
Cs2 O10 3.449915 1_545
Cs2 O9 3.449915 1_655
Cs3 O7 3.110561 1_555
Cs3 O4 3.114003 1_565
Cs3 O4 3.114003 1_455
Cs3 O0 3.140452 1_555
Cs3 O1 3.390641 1_555
Cs3 O11 3.449915 1_455
Cs3 O8 3.449915 1_565
Cs4 O0 3.091489 1_565
Cs4 O0 3.091489 1_455
Cs4 O5 3.094059 1_555
Cs4 O8 3.098530 1_565
Cs4 O11 3.098530 1_455
Cs4 O1 3.159186 1_555
Cs4 O4 3.260927 1_465
Cs5 O1 3.091489 1_655
Cs5 O1 3.091489 1_545
Cs5 O4 3.094059 1_555
Cs5 O10 3.098530 1_545
Cs5 O9 3.098530 1_655
Cs5 O0 3.159186 1_555
Cs5 O5 3.260927 1_645
Cs6 O2 3.091489 1_455
Cs6 O2 3.091489 1_565
Cs6 O7 3.094059 1_554
Cs6 O9 3.098530 1_555
Cs6 O10 3.098530 1_555
Cs6 O3 3.159186 1_554
Cs6 O6 3.260927 1_555
Cs7 O3 3.091489 1_655
Cs7 O3 3.091489 1_545
Cs7 O6 3.094059 1_556
Cs7 O8 3.098530 1_555
Cs7 O11 3.098530 1_555
Cs7 O2 3.159186 1_556
Cs7 O7 3.260927 1_555
Co0 O4 1.767783 1_555
Co0 O0 1.769129 1_555
Co0 O8 1.886136 1_555
Co0 O11 1.886136 1_555
Co1 O5 1.767783 1_555
Co1 O1 1.769129 1_555
Co1 O9 1.886136 1_555
Co1 O10 1.886136 1_555
Co2 O6 1.767783 1_555
Co2 O2 1.769129 1_555
Co2 O10 1.886136 1_545
Co2 O9 1.886136 1_655
Co3 O7 1.767783 1_555
Co3 O3 1.769129 1_555
Co3 O11 1.886136 1_455
Co3 O8 1.886136 1_565
