# generated using pymatgen
data_LaSiAs3
_symmetry_space_group_name_H-M   'P 1'
_cell_length_a   6.01261900
_cell_length_b   6.13218100
_cell_length_c   26.68020100
_cell_angle_alpha   90.00000000
_cell_angle_beta   90.00000000
_cell_angle_gamma   90.00000000
_symmetry_Int_Tables_number   1
_chemical_formula_structural   LaSiAs3
_chemical_formula_sum   'La8 Si8 As24'
_cell_volume   983.71149699
_cell_formula_units_Z   8
loop_
 _symmetry_equiv_pos_site_id
 _symmetry_equiv_pos_as_xyz
  1  'x, y, z'
loop_
 _atom_site_type_symbol
 _atom_site_label
 _atom_site_symmetry_multiplicity
 _atom_site_fract_x
 _atom_site_fract_y
 _atom_site_fract_z
 _atom_site_occupancy
  La  La0  1  0.74798200  0.98405300  0.09063000  1
  La  La1  1  0.24798200  0.01594700  0.90937000  1
  La  La2  1  0.24798200  0.51594700  0.59063000  1
  La  La3  1  0.74798200  0.48405300  0.40937000  1
  La  La4  1  0.24764200  0.48257800  0.09654500  1
  La  La5  1  0.74764200  0.51742200  0.90345500  1
  La  La6  1  0.74764200  0.01742200  0.59654500  1
  La  La7  1  0.24764200  0.98257800  0.40345500  1
  Si  Si0  1  0.32733300  0.06331000  0.20525600  1
  Si  Si1  1  0.82733300  0.93669000  0.79474400  1
  Si  Si2  1  0.82733300  0.43669000  0.70525600  1
  Si  Si3  1  0.32733300  0.56331000  0.29474400  1
  Si  Si4  1  0.82555600  0.38743700  0.20784600  1
  Si  Si5  1  0.32555600  0.61256300  0.79215400  1
  Si  Si6  1  0.32555600  0.11256300  0.70784600  1
  Si  Si7  1  0.82555600  0.88743700  0.29215400  1
  As  As0  1  0.74513700  0.48853600  0.12511900  1
  As  As1  1  0.24513700  0.51146400  0.87488100  1
  As  As2  1  0.24513700  0.01146400  0.62511900  1
  As  As3  1  0.74513700  0.98853600  0.37488100  1
  As  As4  1  0.24450500  0.97887400  0.12188100  1
  As  As5  1  0.74450500  0.02112600  0.87811900  1
  As  As6  1  0.74450500  0.52112600  0.62188100  1
  As  As7  1  0.24450500  0.47887400  0.37811900  1
  As  As8  1  0.46869200  0.70308900  0.00206200  1
  As  As9  1  0.96869200  0.29691100  0.99793800  1
  As  As10  1  0.96869200  0.79691100  0.50206200  1
  As  As11  1  0.46869200  0.20308900  0.49793800  1
  As  As12  1  0.54161900  0.29492000  0.99830000  1
  As  As13  1  0.04161900  0.70508000  0.00170000  1
  As  As14  1  0.04161900  0.20508000  0.49830000  1
  As  As15  1  0.54161900  0.79492000  0.50170000  1
  As  As16  1  0.21965500  0.43262600  0.21399100  1
  As  As17  1  0.71965500  0.56737400  0.78600900  1
  As  As18  1  0.71965500  0.06737400  0.71399100  1
  As  As19  1  0.21965500  0.93262600  0.28600900  1
  As  As20  1  0.72088000  0.01601400  0.21026700  1
  As  As21  1  0.22088000  0.98398600  0.78973300  1
  As  As22  1  0.22088000  0.48398600  0.71026700  1
  As  As23  1  0.72088000  0.51601400  0.28973300  1
loop_
_geom_bond_atom_site_label_1
_geom_bond_atom_site_label_2
_geom_bond_distance
_geom_bond_site_symmetry_2
As0 Si4 2.343024 1_555
As0 La4 3.087085 1_555
As0 La4 3.116282 1_655
As0 La0 3.174918 1_555
As0 La0 3.227577 1_545
As1 Si5 2.343024 1_555
As1 La5 3.087085 1_455
As1 La5 3.116282 1_555
As1 La1 3.174918 1_555
As1 La1 3.227577 1_565
As2 Si6 2.343024 1_555
As2 La6 3.087085 1_455
As2 La6 3.116282 1_555
As2 La2 3.174918 1_545
As2 La2 3.227577 1_555
As3 Si7 2.343024 1_555
As3 La7 3.087085 1_555
As3 La7 3.116282 1_655
As3 La3 3.174918 1_565
As3 La3 3.227577 1_555
As4 Si0 2.337593 1_565
As4 La0 3.099812 1_455
As4 La4 3.117601 1_555
As4 La0 3.140101 1_555
As4 La4 3.161962 1_565
As5 Si1 2.337593 1_545
As5 La1 3.099812 1_555
As5 La5 3.117601 1_555
As5 La1 3.140101 1_655
As5 La5 3.161962 1_545
As6 Si2 2.337593 1_555
As6 La2 3.099812 1_555
As6 La6 3.117601 1_565
As6 La2 3.140101 1_655
As6 La6 3.161962 1_555
As7 Si3 2.337593 1_555
As7 La3 3.099812 1_455
As7 La7 3.117601 1_545
As7 La3 3.140101 1_555
As7 La7 3.161962 1_555
As8 La4 3.154286 1_555
As8 La5 3.321256 1_554
As8 La0 3.372272 1_555
As8 La1 3.399652 1_564
As9 La5 3.154286 1_555
As9 La4 3.321256 1_656
As9 La1 3.372272 1_655
As9 La0 3.399652 1_546
As10 As14 2.543065 1_665
As10 As15 2.567874 1_555
As10 La6 3.154286 1_565
As10 La7 3.321256 1_655
As10 La2 3.372272 1_655
As10 La3 3.399652 1_555
As11 As15 2.543065 1_545
As11 As14 2.567874 1_555
As11 La7 3.154286 1_545
As11 La6 3.321256 1_555
As11 La3 3.372272 1_555
As11 La2 3.399652 1_555
As12 As8 2.543065 1_556
As12 As9 2.567874 1_555
As12 La5 3.130410 1_555
As12 La0 3.352872 1_546
As12 La4 3.364404 1_556
As12 La1 3.416605 1_555
As13 As9 2.543065 1_454
As13 As8 2.567874 1_555
As13 La4 3.130410 1_555
As13 La1 3.352872 1_564
As13 La5 3.364404 1_454
As13 La0 3.416605 1_455
As14 La7 3.130410 1_545
As14 La2 3.352872 1_555
As14 La6 3.364404 1_455
As14 La3 3.416605 1_455
As15 La6 3.130410 1_565
As15 La3 3.352872 1_555
As15 La7 3.364404 1_555
As15 La2 3.416605 1_555
As16 Si0 2.366938 1_555
As16 Si3 2.388151 1_555
As16 Si4 2.391342 1_455
As16 La4 3.152913 1_555
As17 Si1 2.366938 1_555
As17 Si2 2.388151 1_555
As17 Si5 2.391342 1_555
As17 La5 3.152913 1_555
As18 Si2 2.366938 1_555
As18 Si1 2.388151 1_545
As18 Si6 2.391342 1_555
As18 La6 3.152913 1_555
As19 Si3 2.366938 1_555
As19 Si0 2.388151 1_565
As19 Si7 2.391342 1_455
As19 La7 3.152913 1_555
As20 Si4 2.363874 1_555
As20 Si0 2.387702 1_555
As20 Si7 2.406442 1_545
As20 La0 3.202100 1_545
As21 Si5 2.363874 1_555
As21 Si1 2.387702 1_455
As21 Si6 2.406442 1_565
As21 La1 3.202100 1_565
As22 Si6 2.363874 1_555
As22 Si2 2.387702 1_455
As22 Si5 2.406442 1_555
As22 La2 3.202100 1_555
As23 Si7 2.363874 1_555
As23 Si3 2.387702 1_555
As23 Si4 2.406442 1_555
As23 La3 3.202100 1_555
