# generated using pymatgen
data_YZr3F15
_symmetry_space_group_name_H-M   'P 1'
_cell_length_a   8.21668900
_cell_length_b   8.22261137
_cell_length_c   16.43745739
_cell_angle_alpha   100.22879372
_cell_angle_beta   100.20026607
_cell_angle_gamma   100.18870057
_symmetry_Int_Tables_number   1
_chemical_formula_structural   YZr3F15
_chemical_formula_sum   'Y4 Zr12 F60'
_cell_volume   1050.45473155
_cell_formula_units_Z   4
loop_
 _symmetry_equiv_pos_site_id
 _symmetry_equiv_pos_as_xyz
  1  'x, y, z'
loop_
 _atom_site_type_symbol
 _atom_site_label
 _atom_site_symmetry_multiplicity
 _atom_site_fract_x
 _atom_site_fract_y
 _atom_site_fract_z
 _atom_site_occupancy
  Y  Y0  1  0.32331800  0.17732600  0.87447900  1
  Y  Y1  1  0.24930700  0.67793400  0.41117900  1
  Y  Y2  1  0.75069300  0.32206600  0.58882100  1
  Y  Y3  1  0.67668200  0.82267400  0.12552100  1
  Zr  Zr0  1  0.24839500  0.67665600  0.91238500  1
  Zr  Zr1  1  0.17669300  0.74877600  0.66233500  1
  Zr  Zr2  1  0.25007000  0.24937900  0.62399800  1
  Zr  Zr3  1  0.17599500  0.75027200  0.16084700  1
  Zr  Zr4  1  0.32339800  0.17736500  0.37439500  1
  Zr  Zr5  1  0.25120600  0.25041400  0.12534400  1
  Zr  Zr6  1  0.74879400  0.74958600  0.87465600  1
  Zr  Zr7  1  0.67660200  0.82263500  0.62560500  1
  Zr  Zr8  1  0.82400500  0.24972800  0.83915300  1
  Zr  Zr9  1  0.74993000  0.75062100  0.37600200  1
  Zr  Zr10  1  0.82330700  0.25122400  0.33766500  1
  Zr  Zr11  1  0.75160500  0.32334400  0.08761500  1
  F  F0  1  0.00610800  0.77406300  0.88736400  1
  F  F1  1  0.03527700  0.46610300  0.87912400  1
  F  F2  1  0.03853400  0.15303200  0.84008100  1
  F  F3  1  0.00415800  0.78163200  0.38923900  1
  F  F4  1  0.18730700  0.65160700  0.77873700  1
  F  F5  1  0.24482400  0.95386500  0.76319900  1
  F  F6  1  0.02667700  0.45472000  0.36835000  1
  F  F7  1  0.31299900  0.93515100  0.92391700  1
  F  F8  1  0.21841300  0.22198600  0.99866400  1
  F  F9  1  0.22337800  0.99261100  0.61143600  1
  F  F10  1  0.15054300  0.68609200  0.53292800  1
  F  F11  1  0.05378700  0.15279000  0.34266000  1
  F  F12  1  0.34515700  0.46032500  0.90863200  1
  F  F13  1  0.27602500  0.28021300  0.75106700  1
  F  F14  1  0.27796500  0.50840900  0.63995800  1
  F  F15  1  0.17769700  0.65464900  0.26786800  1
  F  F16  1  0.25198300  0.96730200  0.26793100  1
  F  F17  1  0.31816400  0.96098400  0.42256300  1
  F  F18  1  0.22134300  0.22515800  0.49551500  1
  F  F19  1  0.22316100  0.99366800  0.11123700  1
  F  F20  1  0.15040100  0.68513800  0.02647000  1
  F  F21  1  0.49393700  0.72359800  0.85992700  1
  F  F22  1  0.44730200  0.81357700  0.67421300  1
  F  F23  1  0.34813800  0.43616100  0.40670500  1
  F  F24  1  0.27583100  0.27553200  0.25386300  1
  F  F25  1  0.27644500  0.50600300  0.13669700  1
  F  F26  1  0.54516600  0.25291200  0.98594900  1
  F  F27  1  0.47149200  0.75277100  0.52260900  1
  F  F28  1  0.56547000  0.18397800  0.82494700  1
  F  F29  1  0.50471900  0.27636400  0.64024300  1
  F  F30  1  0.49528100  0.72363600  0.35975700  1
  F  F31  1  0.43453000  0.81602200  0.17505300  1
  F  F32  1  0.52850800  0.24722900  0.47739100  1
  F  F33  1  0.45483400  0.74708800  0.01405100  1
  F  F34  1  0.72355500  0.49399700  0.86330300  1
  F  F35  1  0.72416900  0.72446800  0.74613700  1
  F  F36  1  0.65186200  0.56383900  0.59329500  1
  F  F37  1  0.55269800  0.18642300  0.32578700  1
  F  F38  1  0.50606300  0.27640200  0.14007300  1
  F  F39  1  0.84959900  0.31486200  0.97353000  1
  F  F40  1  0.77683900  0.00633200  0.88876300  1
  F  F41  1  0.77865700  0.77484200  0.50448500  1
  F  F42  1  0.68183600  0.03901600  0.57743700  1
  F  F43  1  0.74801700  0.03269800  0.73206900  1
  F  F44  1  0.82230300  0.34535100  0.73213200  1
  F  F45  1  0.72203500  0.49159100  0.36004200  1
  F  F46  1  0.72397500  0.71978700  0.24893300  1
  F  F47  1  0.65484300  0.53967500  0.09136800  1
  F  F48  1  0.94621300  0.84721000  0.65734000  1
  F  F49  1  0.84945700  0.31390800  0.46707200  1
  F  F50  1  0.77662200  0.00738900  0.38856400  1
  F  F51  1  0.78158700  0.77801400  0.00133600  1
  F  F52  1  0.68700100  0.06484900  0.07608300  1
  F  F53  1  0.97332300  0.54528000  0.63165000  1
  F  F54  1  0.75517600  0.04613500  0.23680100  1
  F  F55  1  0.81269300  0.34839300  0.22126300  1
  F  F56  1  0.99584200  0.21836800  0.61076100  1
  F  F57  1  0.96146600  0.84696800  0.15991900  1
  F  F58  1  0.96472300  0.53389700  0.12087600  1
  F  F59  1  0.99389200  0.22593700  0.11263600  1
loop_
_geom_bond_atom_site_label_1
_geom_bond_atom_site_label_2
_geom_bond_distance
_geom_bond_site_symmetry_2
F0 Zr6 2.057275 1_455
F0 Zr0 2.272672 1_555
F1 Zr0 2.148234 1_555
F1 Zr8 2.167685 1_455
F2 Zr8 2.056745 1_455
F2 Y0 2.271790 1_555
F3 Zr9 2.026522 1_455
F3 Y1 2.318214 1_555
F4 Zr0 2.128995 1_555
F4 Zr1 2.194401 1_555
F5 Zr1 2.061628 1_555
F5 Y0 2.259910 1_565
F6 Zr10 2.063760 1_455
F6 Y1 2.260034 1_555
F7 Zr0 2.063391 1_555
F7 Y0 2.274264 1_565
F8 Zr5 2.017258 1_556
F8 Y0 2.348114 1_555
F9 Zr2 2.052717 1_565
F9 Zr1 2.303114 1_555
F10 Zr1 2.060591 1_555
F10 Y1 2.283596 1_555
F11 Zr4 2.148359 1_555
F11 Zr10 2.181528 1_455
F12 Zr0 2.068531 1_555
F12 Y0 2.261609 1_555
F13 Zr2 2.026677 1_555
F13 Y0 2.329910 1_555
F14 Zr2 2.065282 1_555
F14 Zr1 2.272906 1_555
F15 Zr3 2.049258 1_555
F15 Y1 2.289342 1_555
F16 Zr4 2.143467 1_565
F16 Zr3 2.184878 1_555
F17 Zr4 2.068732 1_565
F17 Y1 2.261399 1_555
F18 Zr2 2.052576 1_555
F18 Zr4 2.291575 1_555
F19 Zr5 2.049101 1_565
F19 Zr3 2.288610 1_555
F20 Zr3 2.141359 1_555
F20 Zr0 2.162873 1_554
F21 Zr6 2.033028 1_555
F21 Zr0 2.328485 1_555
F22 Zr1 2.157817 1_555
F22 Zr7 2.167574 1_555
F23 Zr4 2.063739 1_555
F23 Y1 2.270988 1_555
F24 Zr5 2.055536 1_555
F24 Zr4 2.266045 1_555
F25 Zr5 2.046315 1_555
F25 Zr3 2.300513 1_555
F26 Zr11 2.076075 1_556
F26 Y0 2.253471 1_555
F27 Zr7 2.082802 1_555
F27 Y1 2.254852 1_555
F28 Zr8 2.057338 1_555
F28 Y0 2.275040 1_555
F29 Zr2 2.028639 1_555
F29 Y2 2.321559 1_555
F30 Zr9 2.028639 1_555
F30 Y1 2.321559 1_555
F31 Zr3 2.057338 1_555
F31 Y3 2.275040 1_555
F32 Zr4 2.082802 1_555
F32 Y2 2.254852 1_555
F33 Zr0 2.076075 1_554
F33 Y3 2.253471 1_555
F34 Zr6 2.046315 1_555
F34 Zr8 2.300513 1_555
F35 Zr6 2.055536 1_555
F35 Zr7 2.266045 1_555
F36 Zr7 2.063739 1_555
F36 Y2 2.270988 1_555
F37 Zr10 2.157817 1_555
F37 Zr4 2.167574 1_555
F38 Zr5 2.033028 1_555
F38 Zr11 2.328485 1_555
F39 Zr8 2.141359 1_555
F39 Zr11 2.162873 1_556
F40 Zr6 2.049101 1_545
F40 Zr8 2.288610 1_555
F41 Zr9 2.052576 1_555
F41 Zr7 2.291575 1_555
F42 Zr7 2.068732 1_545
F42 Y2 2.261399 1_555
F43 Zr7 2.143467 1_545
F43 Zr8 2.184878 1_555
F44 Zr8 2.049258 1_555
F44 Y2 2.289342 1_555
F45 Zr9 2.065282 1_555
F45 Zr10 2.272906 1_555
F46 Zr9 2.026677 1_555
F46 Y3 2.329910 1_555
F47 Zr11 2.068531 1_555
F47 Y3 2.261609 1_555
F48 Zr7 2.148359 1_555
F48 Zr1 2.181528 1_655
F49 Zr10 2.060591 1_555
F49 Y2 2.283596 1_555
F50 Zr9 2.052717 1_545
F50 Zr10 2.303114 1_555
F51 Zr6 2.017258 1_554
F51 Y3 2.348114 1_555
F52 Zr11 2.063391 1_555
F52 Y3 2.274264 1_545
F53 Zr1 2.063760 1_655
F53 Y2 2.260034 1_555
F54 Zr10 2.061628 1_555
F54 Y3 2.259910 1_545
F55 Zr11 2.128995 1_555
F55 Zr10 2.194401 1_555
F56 Zr2 2.026522 1_655
F56 Y2 2.318214 1_555
F57 Zr3 2.056745 1_655
F57 Y3 2.271790 1_555
F58 Zr11 2.148234 1_555
F58 Zr3 2.167685 1_655
F59 Zr5 2.057275 1_655
F59 Zr11 2.272672 1_555
