# generated using pymatgen
data_Rb3Pr3(PS4)4
_symmetry_space_group_name_H-M   'P 1'
_cell_length_a   9.43163100
_cell_length_b   10.77865495
_cell_length_c   14.81909965
_cell_angle_alpha   85.70929368
_cell_angle_beta   87.89052017
_cell_angle_gamma   80.69887329
_symmetry_Int_Tables_number   1
_chemical_formula_structural   Rb3Pr3(PS4)4
_chemical_formula_sum   'Rb6 Pr6 P8 S32'
_cell_volume   1482.07270434
_cell_formula_units_Z   2
loop_
 _symmetry_equiv_pos_site_id
 _symmetry_equiv_pos_as_xyz
  1  'x, y, z'
loop_
 _atom_site_type_symbol
 _atom_site_label
 _atom_site_symmetry_multiplicity
 _atom_site_fract_x
 _atom_site_fract_y
 _atom_site_fract_z
 _atom_site_occupancy
  Rb  Rb0  1  0.61848400  0.19824100  0.25473100  1
  Rb  Rb1  1  0.73562200  0.42366800  0.64619600  1
  Rb  Rb2  1  0.20849300  0.07863200  0.08492800  1
  Rb  Rb3  1  0.38151600  0.80175900  0.74526900  1
  Rb  Rb4  1  0.79150700  0.92136800  0.91507200  1
  Rb  Rb5  1  0.26437800  0.57633200  0.35380400  1
  Pr  Pr0  1  0.76609900  0.98480500  0.52477800  1
  Pr  Pr1  1  0.74685500  0.46952100  0.99709300  1
  Pr  Pr2  1  0.25314500  0.53047900  0.00290700  1
  Pr  Pr3  1  0.23390100  0.01519500  0.47522200  1
  Pr  Pr4  1  0.24463700  0.27840700  0.73701500  1
  Pr  Pr5  1  0.75536300  0.72159300  0.26298500  1
  P  P0  1  0.44765500  0.24900900  0.51387000  1
  P  P1  1  0.00331200  0.93444100  0.31852000  1
  P  P2  1  0.99183400  0.43371200  0.18010100  1
  P  P3  1  0.47233700  0.71758200  0.09625200  1
  P  P4  1  0.99668800  0.06555900  0.68148000  1
  P  P5  1  0.52766300  0.28241800  0.90374800  1
  P  P6  1  0.00816600  0.56628800  0.81989900  1
  P  P7  1  0.55234500  0.75099100  0.48613000  1
  S  S0  1  0.07566900  0.52491000  0.69286900  1
  S  S1  1  0.05492300  0.40007900  0.90450600  1
  S  S2  1  0.10705600  0.06036400  0.79881200  1
  S  S3  1  0.94507700  0.59992100  0.09549400  1
  S  S4  1  0.67756000  0.75436300  0.59620300  1
  S  S5  1  0.62658400  0.59679000  0.41717100  1
  S  S6  1  0.57967400  0.56249800  0.17070400  1
  S  S7  1  0.89230100  0.29609900  0.13264700  1
  S  S8  1  0.50281400  0.67493300  0.96189800  1
  S  S9  1  0.65539700  0.24617600  0.47016900  1
  S  S10  1  0.32244000  0.24563700  0.40379700  1
  S  S11  1  0.37341600  0.40321000  0.58282900  1
  S  S12  1  0.94417200  0.78944400  0.40389700  1
  S  S13  1  0.79128500  0.62439600  0.83227800  1
  S  S14  1  0.22012700  0.91679600  0.29942900  1
  S  S15  1  0.05076500  0.90285200  0.61406700  1
  S  S16  1  0.34460300  0.75382400  0.52983100  1
  S  S17  1  0.44179300  0.08814000  0.60224900  1
  S  S18  1  0.74380600  0.26198500  0.88323000  1
  S  S19  1  0.55820700  0.91186000  0.39775100  1
  S  S20  1  0.25619400  0.73801500  0.11677000  1
  S  S21  1  0.56380000  0.86948900  0.12447200  1
  S  S22  1  0.10769900  0.70390100  0.86735300  1
  S  S23  1  0.94923500  0.09714800  0.38593300  1
  S  S24  1  0.49718600  0.32506700  0.03810200  1
  S  S25  1  0.77987300  0.08320400  0.70057100  1
  S  S26  1  0.43620000  0.13051100  0.87552800  1
  S  S27  1  0.89294400  0.93963600  0.20118800  1
  S  S28  1  0.92433100  0.47509000  0.30713100  1
  S  S29  1  0.05582800  0.21055600  0.59610300  1
  S  S30  1  0.20871500  0.37560400  0.16772200  1
  S  S31  1  0.42032600  0.43750200  0.82929600  1
loop_
_geom_bond_atom_site_label_1
_geom_bond_atom_site_label_2
_geom_bond_distance
_geom_bond_site_symmetry_2
Rb0 S9 3.311742 1_555
Rb0 S7 3.362470 1_555
Rb0 S10 3.491522 1_555
Rb0 S24 3.548438 1_555
Rb0 S27 3.598261 1_545
Rb0 S23 3.705369 1_555
Rb0 S19 3.720636 1_545
Rb1 S9 3.520957 1_555
Rb1 S4 3.543698 1_555
Rb1 S29 3.577150 1_655
Rb1 S11 3.620974 1_555
Rb1 S0 3.655529 1_655
Rb1 S25 3.657554 1_555
Rb1 S13 3.731937 1_555
Rb1 S18 3.800277 1_555
Rb1 S5 3.840246 1_555
Rb1 S31 3.943483 1_555
Rb2 S14 3.506166 1_545
Rb2 S30 3.513051 1_555
Rb2 S7 3.566672 1_455
Rb2 S20 3.623075 1_545
Rb2 S21 3.763003 1_545
Rb2 S26 3.767275 1_554
Rb2 S27 3.840294 1_445
Rb3 S16 3.311742 1_555
Rb3 S22 3.362470 1_555
Rb3 S4 3.491522 1_555
Rb3 S8 3.548438 1_555
Rb3 S2 3.598261 1_565
Rb3 S15 3.705369 1_555
Rb3 S17 3.720636 1_565
Rb4 S25 3.506166 1_565
Rb4 S13 3.513051 1_555
Rb4 S22 3.566672 1_655
Rb4 S18 3.623075 1_565
Rb4 S26 3.763003 1_565
Rb4 S21 3.767275 1_556
Rb4 S2 3.840294 1_665
Rb5 S16 3.520957 1_555
Rb5 S10 3.543698 1_555
Rb5 S12 3.577150 1_455
Rb5 S5 3.620974 1_555
Rb5 S28 3.655529 1_455
Rb5 S14 3.657554 1_555
Rb5 S30 3.731937 1_555
Rb5 S20 3.800277 1_555
Rb5 S11 3.840246 1_555
Rb5 S6 3.943483 1_555
Pr0 S4 2.863426 1_555
Pr0 S25 2.900202 1_565
Pr0 S9 2.907242 1_565
Pr0 S23 2.953802 1_565
Pr0 S19 2.999636 1_555
Pr0 S15 3.009919 1_655
Pr0 S12 3.108625 1_555
Pr0 S17 3.278113 1_565
Pr1 S7 2.867627 1_556
Pr1 S18 2.905360 1_555
Pr1 S13 2.910045 1_555
Pr1 S8 2.956388 1_555
Pr1 S3 2.992316 1_556
Pr1 S24 3.045796 1_556
Pr1 S6 3.112243 1_556
Pr1 S1 3.168971 1_655
Pr2 S22 2.867627 1_554
Pr2 S20 2.905360 1_555
Pr2 S30 2.910045 1_555
Pr2 S24 2.956388 1_555
Pr2 S1 2.992316 1_554
Pr2 S8 3.045796 1_554
Pr2 S31 3.112243 1_554
Pr2 S3 3.168971 1_455
Pr3 S10 2.863426 1_555
Pr3 S14 2.900202 1_545
Pr3 S16 2.907242 1_545
Pr3 S15 2.953802 1_545
Pr3 S17 2.999636 1_555
Pr3 S23 3.009919 1_455
Pr3 S29 3.108625 1_555
Pr3 S19 3.278113 1_545
Pr4 S11 2.893009 1_555
Pr4 S0 2.911207 1_555
Pr4 S2 2.936357 1_555
Pr4 S26 2.978469 1_555
Pr4 S29 2.998303 1_555
Pr4 S31 2.998792 1_555
Pr4 S1 3.237871 1_555
Pr4 S17 3.280067 1_555
Pr5 S5 2.893009 1_555
Pr5 S28 2.911207 1_555
Pr5 S27 2.936357 1_555
Pr5 S21 2.978469 1_555
Pr5 S12 2.998303 1_555
Pr5 S6 2.998792 1_555
Pr5 S3 3.237871 1_555
Pr5 S19 3.280067 1_555
P0 S11 2.030362 1_555
P0 S9 2.037050 1_555
P0 S10 2.054595 1_555
P0 S17 2.100190 1_555
P1 S14 2.034121 1_555
P1 S27 2.051784 1_455
P1 S23 2.066236 1_465
P1 S12 2.070848 1_455
P2 S28 2.023255 1_555
P2 S30 2.045876 1_655
P2 S7 2.056868 1_555
P2 S3 2.103619 1_555
P3 S20 2.028800 1_555
P3 S21 2.045864 1_555
P3 S6 2.072596 1_555
P3 S8 2.076092 1_554
P4 S25 2.034121 1_555
P4 S2 2.051784 1_655
P4 S15 2.066236 1_645
P4 S29 2.070848 1_655
P5 S18 2.028800 1_555
P5 S26 2.045864 1_555
P5 S31 2.072596 1_555
P5 S24 2.076092 1_556
P6 S0 2.023255 1_555
P6 S13 2.045876 1_455
P6 S22 2.056868 1_555
P6 S1 2.103619 1_555
P7 S5 2.030362 1_555
P7 S16 2.037050 1_555
P7 S4 2.054595 1_555
P7 S19 2.100190 1_555
