# generated using pymatgen
data_K2Ag(AsSe2)3
_symmetry_space_group_name_H-M   'P 1'
_cell_length_a   7.78588000
_cell_length_b   12.93318300
_cell_length_c   18.24459490
_cell_angle_alpha   53.00878137
_cell_angle_beta   90.00000000
_cell_angle_gamma   90.00000000
_symmetry_Int_Tables_number   1
_chemical_formula_structural   K2Ag(AsSe2)3
_chemical_formula_sum   'K8 Ag4 As12 Se24'
_cell_volume   1467.39190764
_cell_formula_units_Z   4
loop_
 _symmetry_equiv_pos_site_id
 _symmetry_equiv_pos_as_xyz
  1  'x, y, z'
loop_
 _atom_site_type_symbol
 _atom_site_label
 _atom_site_symmetry_multiplicity
 _atom_site_fract_x
 _atom_site_fract_y
 _atom_site_fract_z
 _atom_site_occupancy
  K  K0  1  0.88957200  0.58961700  0.75724300  1
  K  K1  1  0.38957200  0.41038300  0.74275700  1
  K  K2  1  0.11042800  0.41038300  0.24275700  1
  K  K3  1  0.61042800  0.58961700  0.25724300  1
  K  K4  1  0.37142000  0.78561100  0.38636500  1
  K  K5  1  0.87142000  0.21438900  0.11363500  1
  K  K6  1  0.62858000  0.21438900  0.61363500  1
  K  K7  1  0.12858000  0.78561100  0.88636500  1
  Ag  Ag0  1  0.99287300  0.52762700  0.57219100  1
  Ag  Ag1  1  0.49287300  0.47237300  0.92780900  1
  Ag  Ag2  1  0.00712700  0.47237300  0.42780900  1
  Ag  Ag3  1  0.50712700  0.52762700  0.07219100  1
  As  As0  1  0.08881200  0.22027900  0.65531000  1
  As  As1  1  0.58881200  0.77972100  0.84469000  1
  As  As2  1  0.91118800  0.77972100  0.34469000  1
  As  As3  1  0.41118800  0.22027900  0.15531000  1
  As  As4  1  0.94430400  0.17086400  0.86487200  1
  As  As5  1  0.44430400  0.82913600  0.63512800  1
  As  As6  1  0.05569600  0.82913600  0.13512800  1
  As  As7  1  0.55569600  0.17086400  0.36487200  1
  As  As8  1  0.32713200  0.11693700  0.00567400  1
  As  As9  1  0.82713200  0.88306300  0.49432600  1
  As  As10  1  0.67286800  0.88306300  0.99432600  1
  As  As11  1  0.17286800  0.11693700  0.50567400  1
  Se  Se0  1  0.24233900  0.04872800  0.66134900  1
  Se  Se1  1  0.74233900  0.95127200  0.83865100  1
  Se  Se2  1  0.75766100  0.95127200  0.33865100  1
  Se  Se3  1  0.25766100  0.04872800  0.16134900  1
  Se  Se4  1  0.73260500  0.59195900  0.44206600  1
  Se  Se5  1  0.23260500  0.40804100  0.05793400  1
  Se  Se6  1  0.26739500  0.40804100  0.55793400  1
  Se  Se7  1  0.76739500  0.59195900  0.94206600  1
  Se  Se8  1  0.20356900  0.12010400  0.81007400  1
  Se  Se9  1  0.70356900  0.87989600  0.68992600  1
  Se  Se10  1  0.79643100  0.87989600  0.18992600  1
  Se  Se11  1  0.29643100  0.12010400  0.31007400  1
  Se  Se12  1  0.81677300  0.34969900  0.72739900  1
  Se  Se13  1  0.31677300  0.65030100  0.77260100  1
  Se  Se14  1  0.18322700  0.65030100  0.27260100  1
  Se  Se15  1  0.68322700  0.34969900  0.22739900  1
  Se  Se16  1  0.09619400  0.28232800  0.91865800  1
  Se  Se17  1  0.59619400  0.71767200  0.58134200  1
  Se  Se18  1  0.90380600  0.71767200  0.08134200  1
  Se  Se19  1  0.40380600  0.28232800  0.41865800  1
  Se  Se20  1  0.07434300  0.75172900  0.53947700  1
  Se  Se21  1  0.57434300  0.24827100  0.96052300  1
  Se  Se22  1  0.92565700  0.24827100  0.46052300  1
  Se  Se23  1  0.42565700  0.75172900  0.03947700  1
loop_
_geom_bond_atom_site_label_1
_geom_bond_atom_site_label_2
_geom_bond_distance
_geom_bond_site_symmetry_2
K0 Se17 3.444370 1_555
K0 Se13 3.467319 1_655
K0 Se9 3.485874 1_555
K0 Se20 3.496622 1_655
K0 Se12 3.504122 1_555
K0 Se7 3.521255 1_555
K0 Se16 3.601517 1_655
K1 Se16 3.444370 1_555
K1 Se12 3.467319 1_555
K1 Se8 3.485874 1_555
K1 Se21 3.496622 1_555
K1 Se13 3.504122 1_555
K1 Se6 3.521255 1_555
K1 Se17 3.601517 1_555
K2 Se19 3.444370 1_555
K2 Se15 3.467319 1_455
K2 Se11 3.485874 1_555
K2 Se22 3.496622 1_455
K2 Se14 3.504122 1_555
K2 Se5 3.521255 1_555
K2 Se18 3.601517 1_455
K3 Se18 3.444370 1_555
K3 Se14 3.467319 1_555
K3 Se10 3.485874 1_555
K3 Se23 3.496622 1_555
K3 Se15 3.504122 1_555
K3 Se4 3.521255 1_555
K3 Se19 3.601517 1_555
K4 Se20 3.445636 1_555
K4 Se2 3.485280 1_555
K4 Se4 3.485789 1_555
K4 Se3 3.522312 1_565
K4 Se17 3.567579 1_555
K4 Se11 3.707688 1_565
K4 Se14 3.726717 1_555
K5 Se21 3.445636 1_554
K5 Se3 3.485280 1_655
K5 Se5 3.485789 1_655
K5 Se2 3.522312 1_545
K5 Se16 3.567579 1_654
K5 Se10 3.707688 1_545
K5 Se15 3.726717 1_555
K6 Se22 3.445636 1_555
K6 Se0 3.485280 1_555
K6 Se6 3.485789 1_555
K6 Se1 3.522312 1_545
K6 Se19 3.567579 1_555
K6 Se9 3.707688 1_545
K6 Se12 3.726717 1_555
K7 Se23 3.445636 1_556
K7 Se1 3.485280 1_455
K7 Se7 3.485789 1_455
K7 Se0 3.522312 1_565
K7 Se18 3.567579 1_456
K7 Se8 3.707688 1_565
K7 Se13 3.726717 1_555
Ag0 Se20 2.660321 1_655
Ag0 Se12 2.711514 1_555
Ag0 Se6 2.740857 1_655
Ag0 Se4 2.838634 1_555
Ag1 Se21 2.660321 1_555
Ag1 Se13 2.711514 1_555
Ag1 Se7 2.740857 1_555
Ag1 Se5 2.838634 1_556
Ag2 Se22 2.660321 1_455
Ag2 Se14 2.711514 1_555
Ag2 Se4 2.740857 1_455
Ag2 Se6 2.838634 1_555
Ag3 Se23 2.660321 1_555
Ag3 Se15 2.711514 1_555
Ag3 Se5 2.740857 1_555
Ag3 Se7 2.838634 1_554
As0 Se6 2.407248 1_555
As0 Se8 2.459138 1_555
As0 Se0 2.463624 1_555
As0 K6 3.673383 1_455
As1 Se7 2.407248 1_555
As1 Se9 2.459138 1_555
As1 Se1 2.463624 1_555
As1 K7 3.673383 1_555
As2 Se4 2.407248 1_555
As2 Se10 2.459138 1_555
As2 Se2 2.463624 1_555
As2 K4 3.673383 1_655
As3 Se5 2.407248 1_555
As3 Se11 2.459138 1_555
As3 Se3 2.463624 1_555
As3 K5 3.673383 1_555
As4 Se12 2.375980 1_555
As4 Se16 2.478307 1_655
As4 Se8 2.509005 1_655
As5 Se13 2.375980 1_555
As5 Se17 2.478307 1_555
As5 Se9 2.509005 1_555
As6 Se14 2.375980 1_555
As6 Se18 2.478307 1_455
As6 Se10 2.509005 1_455
As7 Se15 2.375980 1_555
As7 Se19 2.478307 1_555
As7 Se11 2.509005 1_555
As8 Se21 2.363176 1_554
As8 Se3 2.474377 1_555
As8 Se16 2.498462 1_554
As9 Se20 2.363176 1_655
As9 Se2 2.474377 1_555
As9 Se17 2.498462 1_555
As10 Se23 2.363176 1_556
As10 Se1 2.474377 1_555
As10 Se18 2.498462 1_556
As11 Se22 2.363176 1_455
As11 Se0 2.474377 1_555
As11 Se19 2.498462 1_555
