# generated using pymatgen
data_YAg3(PS4)2
_symmetry_space_group_name_H-M   'P 1'
_cell_length_a   9.79726522
_cell_length_b   9.79726522
_cell_length_c   9.49073951
_cell_angle_alpha   61.03895898
_cell_angle_beta   61.03895898
_cell_angle_gamma   56.95709675
_symmetry_Int_Tables_number   1
_chemical_formula_structural   YAg3(PS4)2
_chemical_formula_sum   'Y2 Ag6 P4 S16'
_cell_volume   637.32741697
_cell_formula_units_Z   2
loop_
 _symmetry_equiv_pos_site_id
 _symmetry_equiv_pos_as_xyz
  1  'x, y, z'
loop_
 _atom_site_type_symbol
 _atom_site_label
 _atom_site_symmetry_multiplicity
 _atom_site_fract_x
 _atom_site_fract_y
 _atom_site_fract_z
 _atom_site_occupancy
  Y  Y0  1  0.03474200  0.96525800  0.25000000  1
  Y  Y1  1  0.96525800  0.03474200  0.75000000  1
  Ag  Ag0  1  0.76957900  0.53570800  0.22526900  1
  Ag  Ag1  1  0.46429200  0.23042100  0.27473100  1
  Ag  Ag2  1  0.23042100  0.46429200  0.77473100  1
  Ag  Ag3  1  0.53570800  0.76957900  0.72526900  1
  Ag  Ag4  1  0.43003500  0.56996500  0.25000000  1
  Ag  Ag5  1  0.56996500  0.43003500  0.75000000  1
  P  P0  1  0.85563900  0.33983500  0.93219000  1
  P  P1  1  0.66016500  0.14436100  0.56781000  1
  P  P2  1  0.14436100  0.66016500  0.06781000  1
  P  P3  1  0.33983500  0.85563900  0.43219000  1
  S  S0  1  0.21725700  0.86530700  0.92100100  1
  S  S1  1  0.62944100  0.10151200  0.81306700  1
  S  S2  1  0.32109800  0.42863100  0.02258100  1
  S  S3  1  0.10151200  0.62944100  0.31306700  1
  S  S4  1  0.73897600  0.92646300  0.51905100  1
  S  S5  1  0.78274300  0.13469300  0.07899900  1
  S  S6  1  0.07353700  0.26102400  0.98094900  1
  S  S7  1  0.26102400  0.07353700  0.48094900  1
  S  S8  1  0.92646300  0.73897600  0.01905100  1
  S  S9  1  0.86530700  0.21725700  0.42100100  1
  S  S10  1  0.89848800  0.37055900  0.68693300  1
  S  S11  1  0.37055900  0.89848800  0.18693300  1
  S  S12  1  0.67890200  0.57136900  0.97741900  1
  S  S13  1  0.42863100  0.32109800  0.52258100  1
  S  S14  1  0.13469300  0.78274300  0.57899900  1
  S  S15  1  0.57136900  0.67890200  0.47741900  1
loop_
_geom_bond_atom_site_label_1
_geom_bond_atom_site_label_2
_geom_bond_distance
_geom_bond_site_symmetry_2
Ag0 S8 2.609436 1_555
Ag0 S9 2.635896 1_555
Ag0 S15 2.691826 1_555
Ag0 S12 2.708117 1_554
Ag1 S7 2.609436 1_555
Ag1 S5 2.635896 1_555
Ag1 S2 2.691826 1_555
Ag1 S13 2.708117 1_555
Ag2 S6 2.609436 1_555
Ag2 S14 2.635896 1_555
Ag2 S13 2.691826 1_555
Ag2 S2 2.708117 1_556
Ag3 S4 2.609436 1_555
Ag3 S0 2.635896 1_555
Ag3 S12 2.691826 1_555
Ag3 S15 2.708117 1_555
Ag4 S12 2.555626 1_554
Ag4 S13 2.555626 1_555
Ag4 S11 2.735716 1_555
Ag4 S3 2.735716 1_555
Ag5 S15 2.555626 1_555
Ag5 S2 2.555626 1_556
Ag5 S10 2.735716 1_555
Ag5 S1 2.735716 1_555
P0 S6 2.044706 1_655
P0 S10 2.048865 1_555
P0 S12 2.065885 1_555
P0 S5 2.092977 1_556
P1 S4 2.044706 1_545
P1 S1 2.048865 1_555
P1 S13 2.065885 1_555
P1 S9 2.092977 1_555
P2 S8 2.044706 1_455
P2 S3 2.048865 1_555
P2 S2 2.065885 1_555
P2 S0 2.092977 1_554
P3 S7 2.044706 1_565
P3 S11 2.048865 1_555
P3 S15 2.065885 1_555
P3 S14 2.092977 1_555
S0 Y1 2.878695 1_465
S0 Y0 3.090384 1_556
S1 Y1 2.781338 1_555
S3 Y0 2.781338 1_555
S4 Y0 2.856041 1_655
S5 Y0 2.878695 1_645
S5 Y1 3.090384 1_554
S6 Y0 2.856041 1_546
S7 Y1 2.856041 1_455
S8 Y1 2.856041 1_564
S9 Y0 2.878695 1_645
S9 Y1 3.090384 1_555
S10 Y1 2.781338 1_555
S11 Y0 2.781338 1_555
S14 Y1 2.878695 1_465
S14 Y0 3.090384 1_555
