# generated using pymatgen
data_Eu2C(NCl)2
_symmetry_space_group_name_H-M   'P 1'
_cell_length_a   5.27970367
_cell_length_b   5.27970367
_cell_length_c   7.24251749
_cell_angle_alpha   82.45640537
_cell_angle_beta   82.45640537
_cell_angle_gamma   47.19445170
_symmetry_Int_Tables_number   1
_chemical_formula_structural   Eu2C(NCl)2
_chemical_formula_sum   'Eu2 C1 N2 Cl2'
_cell_volume   146.58952916
_cell_formula_units_Z   1
loop_
 _symmetry_equiv_pos_site_id
 _symmetry_equiv_pos_as_xyz
  1  'x, y, z'
loop_
 _atom_site_type_symbol
 _atom_site_label
 _atom_site_symmetry_multiplicity
 _atom_site_fract_x
 _atom_site_fract_y
 _atom_site_fract_z
 _atom_site_occupancy
  Eu  Eu0  1  0.68191100  0.68191100  0.72882700  1
  Eu  Eu1  1  0.31808900  0.31808900  0.27117300  1
  C  C0  1  0.00000000  0.00000000  0.50000000  1
  N  N0  1  0.88359600  0.88359600  0.44748300  1
  N  N1  1  0.11640400  0.11640400  0.55251700  1
  Cl  Cl0  1  0.37035200  0.37035200  0.85050300  1
  Cl  Cl1  1  0.62964800  0.62964800  0.14949700  1
loop_
_geom_bond_atom_site_label_1
_geom_bond_atom_site_label_2
_geom_bond_distance
_geom_bond_site_symmetry_2
Eu0 N1 2.594436 1_565
Eu0 N1 2.594436 1_655
Eu0 N0 2.611764 1_555
Eu1 N0 2.594436 1_455
Eu1 N0 2.594436 1_545
Eu1 N1 2.611764 1_555
C0 N1 1.239415 1_555
C0 N0 1.239415 1_445
Cl0 Eu0 3.004790 1_545
Cl0 Eu0 3.004790 1_455
Cl0 Eu1 3.016079 1_556
Cl0 Eu0 3.017335 1_555
Cl1 Eu1 3.004790 1_565
Cl1 Eu1 3.004790 1_655
Cl1 Eu0 3.016079 1_554
Cl1 Eu1 3.017335 1_555
