# generated using pymatgen
data_AlHg2SbCl4
_symmetry_space_group_name_H-M   'P 1'
_cell_length_a   8.90592676
_cell_length_b   12.12530148
_cell_length_c   17.82432966
_cell_angle_alpha   90.00000000
_cell_angle_beta   90.00000000
_cell_angle_gamma   90.00000000
_symmetry_Int_Tables_number   1
_chemical_formula_structural   AlHg2SbCl4
_chemical_formula_sum   'Al8 Hg16 Sb8 Cl32'
_cell_volume   1924.79672338
_cell_formula_units_Z   8
loop_
 _symmetry_equiv_pos_site_id
 _symmetry_equiv_pos_as_xyz
  1  'x, y, z'
loop_
 _atom_site_type_symbol
 _atom_site_label
 _atom_site_symmetry_multiplicity
 _atom_site_fract_x
 _atom_site_fract_y
 _atom_site_fract_z
 _atom_site_occupancy
  Al  Al0  1  0.41589342  0.10757191  0.62522087  1
  Al  Al1  1  0.08410658  0.39242809  0.12522087  1
  Al  Al2  1  0.58410658  0.10757191  0.12522087  1
  Al  Al3  1  0.08410658  0.60757191  0.37477913  1
  Al  Al4  1  0.91589342  0.39242809  0.62522087  1
  Al  Al5  1  0.58410658  0.89242809  0.37477913  1
  Al  Al6  1  0.41589342  0.89242809  0.87477913  1
  Al  Al7  1  0.91589342  0.60757191  0.87477913  1
  Hg  Hg0  1  0.95945236  -0.00000000  0.75000000  1
  Hg  Hg1  1  0.54054764  0.50000000  0.25000000  1
  Hg  Hg2  1  0.67512784  0.76504249  0.62366975  1
  Hg  Hg3  1  0.04054764  -0.00000000  0.25000000  1
  Hg  Hg4  1  0.32487216  0.23495751  0.37633025  1
  Hg  Hg5  1  0.32487216  0.76504249  0.12366975  1
  Hg  Hg6  1  0.17512784  0.73495751  0.62366975  1
  Hg  Hg7  1  0.67512784  0.23495751  0.87633025  1
  Hg  Hg8  1  -0.00000000  -0.00000000  0.00000000  1
  Hg  Hg9  1  0.45945236  0.50000000  0.75000000  1
  Hg  Hg10  1  0.82487216  0.73495751  0.12366975  1
  Hg  Hg11  1  0.17512784  0.26504249  0.87633025  1
  Hg  Hg12  1  0.50000000  0.50000000  0.00000000  1
  Hg  Hg13  1  0.82487216  0.26504249  0.37633025  1
  Hg  Hg14  1  -0.00000000  -0.00000000  0.50000000  1
  Hg  Hg15  1  0.50000000  0.50000000  0.50000000  1
  Sb  Sb0  1  0.56068555  0.62366363  0.12410408  1
  Sb  Sb1  1  0.56068555  0.37633637  0.37589592  1
  Sb  Sb2  1  0.93931445  0.12366363  0.87589592  1
  Sb  Sb3  1  0.93931445  0.87633637  0.62410408  1
  Sb  Sb4  1  0.06068555  0.12366363  0.37589592  1
  Sb  Sb5  1  0.43931445  0.37633637  0.87589592  1
  Sb  Sb6  1  0.43931445  0.62366363  0.62410408  1
  Sb  Sb7  1  0.06068555  0.87633637  0.12410408  1
  Cl  Cl0  1  0.36254287  0.92071950  0.33509769  1
  Cl  Cl1  1  0.15848691  0.46420165  0.43594013  1
  Cl  Cl2  1  0.76525115  0.35863840  0.71654095  1
  Cl  Cl3  1  0.65848691  0.96420165  0.06405987  1
  Cl  Cl4  1  0.34151309  0.03579835  0.93594013  1
  Cl  Cl5  1  0.65848691  0.03579835  0.43594013  1
  Cl  Cl6  1  0.84151309  0.46420165  0.93594013  1
  Cl  Cl7  1  0.23474885  0.35863840  0.21654095  1
  Cl  Cl8  1  0.76525115  0.64136160  0.78345905  1
  Cl  Cl9  1  0.90956907  0.25167319  0.55198597  1
  Cl  Cl10  1  0.23474885  0.64136160  0.28345905  1
  Cl  Cl11  1  0.59043093  0.75167319  0.44801403  1
  Cl  Cl12  1  0.90956907  0.74832681  0.94801403  1
  Cl  Cl13  1  0.86254287  0.42071950  0.16490231  1
  Cl  Cl14  1  0.36254287  0.07928050  0.16490231  1
  Cl  Cl15  1  0.40956907  0.24832681  0.55198597  1
  Cl  Cl16  1  0.09043093  0.25167319  0.05198597  1
  Cl  Cl17  1  0.15848691  0.53579835  0.06405987  1
  Cl  Cl18  1  0.73474885  0.14136160  0.21654095  1
  Cl  Cl19  1  0.13745713  0.42071950  0.66490231  1
  Cl  Cl20  1  0.09043093  0.74832681  0.44801403  1
  Cl  Cl21  1  0.59043093  0.24832681  0.05198597  1
  Cl  Cl22  1  0.86254287  0.57928050  0.33509769  1
  Cl  Cl23  1  0.34151309  0.96420165  0.56405987  1
  Cl  Cl24  1  0.63745713  0.92071950  0.83509769  1
  Cl  Cl25  1  0.26525115  0.85863840  0.78345905  1
  Cl  Cl26  1  0.26525115  0.14136160  0.71654095  1
  Cl  Cl27  1  0.84151309  0.53579835  0.56405987  1
  Cl  Cl28  1  0.73474885  0.85863840  0.28345905  1
  Cl  Cl29  1  0.40956907  0.75167319  0.94801403  1
  Cl  Cl30  1  0.13745713  0.57928050  0.83509769  1
  Cl  Cl31  1  0.63745713  0.07928050  0.66490231  1
loop_
_geom_bond_atom_site_label_1
_geom_bond_atom_site_label_2
_geom_bond_distance
_geom_bond_site_symmetry_2
Al0 Cl31 2.124048 1_555
Al0 Cl26 2.148778 1_555
Al0 Cl15 2.149408 1_555
Al0 Cl23 2.156225 1_545
Al1 Cl13 2.124048 1_455
Al1 Cl7 2.148778 1_555
Al1 Cl16 2.149408 1_555
Al1 Cl17 2.156225 1_555
Al2 Cl14 2.124048 1_555
Al2 Cl18 2.148778 1_555
Al2 Cl21 2.149408 1_555
Al2 Cl3 2.156225 1_545
Al3 Cl22 2.124048 1_455
Al3 Cl10 2.148778 1_555
Al3 Cl20 2.149408 1_555
Al3 Cl1 2.156225 1_555
Al4 Cl19 2.124048 1_655
Al4 Cl2 2.148778 1_555
Al4 Cl9 2.149408 1_555
Al4 Cl27 2.156225 1_555
Al5 Cl0 2.124048 1_555
Al5 Cl28 2.148778 1_555
Al5 Cl11 2.149408 1_555
Al5 Cl5 2.156225 1_565
Al6 Cl24 2.124048 1_555
Al6 Cl25 2.148778 1_555
Al6 Cl29 2.149408 1_555
Al6 Cl4 2.156225 1_565
Al7 Cl30 2.124048 1_655
Al7 Cl8 2.148778 1_555
Al7 Cl12 2.149408 1_555
Al7 Cl6 2.156225 1_555
Hg0 Sb3 2.704834 1_545
Hg0 Sb2 2.704834 1_555
Hg1 Sb1 2.704834 1_555
Hg1 Sb0 2.704834 1_555
Hg2 Sb6 2.710964 1_555
Hg2 Sb3 2.712366 1_555
Hg3 Sb4 2.704834 1_555
Hg3 Sb7 2.704834 1_545
Hg4 Sb1 2.710964 1_555
Hg4 Sb4 2.712366 1_555
Hg5 Sb0 2.710964 1_555
Hg5 Sb7 2.712366 1_555
Hg6 Sb3 2.710964 1_455
Hg6 Sb6 2.712366 1_555
Hg7 Sb5 2.710964 1_555
Hg7 Sb2 2.712366 1_555
Hg8 Sb2 2.726488 1_454
Hg8 Sb7 2.726488 1_545
Hg9 Sb6 2.704834 1_555
Hg9 Sb5 2.704834 1_555
Hg10 Sb7 2.710964 1_655
Hg10 Sb0 2.712366 1_555
Hg11 Sb2 2.710964 1_455
Hg11 Sb5 2.712366 1_555
Hg12 Sb5 2.726488 1_554
Hg12 Sb0 2.726488 1_555
Hg13 Sb4 2.710964 1_655
Hg13 Sb1 2.712366 1_555
Hg14 Sb4 2.726488 1_555
Hg14 Sb3 2.726488 1_445
Hg15 Sb1 2.726488 1_555
Hg15 Sb6 2.726488 1_555
