# generated using pymatgen
data_VPPbO6
_symmetry_space_group_name_H-M   'P 1'
_cell_length_a   9.96355100
_cell_length_b   5.70066800
_cell_length_c   8.57597536
_cell_angle_alpha   88.77677630
_cell_angle_beta   90.00000000
_cell_angle_gamma   90.00000000
_symmetry_Int_Tables_number   1
_chemical_formula_structural   VPPbO6
_chemical_formula_sum   'V4 P4 Pb4 O24'
_cell_volume   486.99493010
_cell_formula_units_Z   4
loop_
 _symmetry_equiv_pos_site_id
 _symmetry_equiv_pos_as_xyz
  1  'x, y, z'
loop_
 _atom_site_type_symbol
 _atom_site_label
 _atom_site_symmetry_multiplicity
 _atom_site_fract_x
 _atom_site_fract_y
 _atom_site_fract_z
 _atom_site_occupancy
  V  V0  1  0.41096100  0.34686300  0.58881100  1
  V  V1  1  0.91096100  0.65313700  0.91118900  1
  V  V2  1  0.58903900  0.65313700  0.41118900  1
  V  V3  1  0.08903900  0.34686300  0.08881100  1
  P  P0  1  0.60903200  0.66152200  0.78646200  1
  P  P1  1  0.10903200  0.33847800  0.71353800  1
  P  P2  1  0.39096800  0.33847800  0.21353800  1
  P  P3  1  0.89096800  0.66152200  0.28646200  1
  Pb  Pb0  1  0.31480000  0.87634800  0.92635200  1
  Pb  Pb1  1  0.81480000  0.12365200  0.57364800  1
  Pb  Pb2  1  0.68520000  0.12365200  0.07364800  1
  Pb  Pb3  1  0.18520000  0.87634800  0.42635200  1
  O  O0  1  0.34143700  0.25391400  0.37995300  1
  O  O1  1  0.84143700  0.74608600  0.12004700  1
  O  O2  1  0.65856300  0.74608600  0.62004700  1
  O  O3  1  0.15856300  0.25391400  0.87995300  1
  O  O4  1  0.47415700  0.52070200  0.77283000  1
  O  O5  1  0.97415700  0.47929800  0.72717000  1
  O  O6  1  0.52584300  0.47929800  0.22717000  1
  O  O7  1  0.02584300  0.52070200  0.27283000  1
  O  O8  1  0.21996500  0.49673700  0.63910300  1
  O  O9  1  0.71996500  0.50326300  0.86089700  1
  O  O10  1  0.78003500  0.50326300  0.36089700  1
  O  O11  1  0.28003500  0.49673700  0.13910300  1
  O  O12  1  0.36741400  0.09007900  0.67281900  1
  O  O13  1  0.86741400  0.90992100  0.82718100  1
  O  O14  1  0.63258600  0.90992100  0.32718100  1
  O  O15  1  0.13258600  0.09007900  0.17281900  1
  O  O16  1  0.42428400  0.67859000  0.47230400  1
  O  O17  1  0.92428400  0.32141000  0.02769600  1
  O  O18  1  0.57571600  0.32141000  0.52769600  1
  O  O19  1  0.07571600  0.67859000  0.97230400  1
  O  O20  1  0.57459700  0.87283900  0.88822000  1
  O  O21  1  0.07459700  0.12716100  0.61178000  1
  O  O22  1  0.42540300  0.12716100  0.11178000  1
  O  O23  1  0.92540300  0.87283900  0.38822000  1
loop_
_geom_bond_atom_site_label_1
_geom_bond_atom_site_label_2
_geom_bond_distance
_geom_bond_site_symmetry_2
O0 P2 1.575875 1_555
O0 V0 2.002345 1_555
O0 Pb3 2.679131 1_545
O1 P3 1.575875 1_555
O1 V1 2.002345 1_554
O1 Pb2 2.679131 1_565
O2 P0 1.575875 1_555
O2 V2 2.002345 1_555
O2 Pb1 2.679131 1_565
O3 P1 1.575875 1_555
O3 V3 2.002345 1_556
O3 Pb0 2.679131 1_545
O4 P0 1.570987 1_555
O4 V0 1.983898 1_555
O5 P1 1.570987 1_655
O5 V1 1.983898 1_555
O6 P2 1.570987 1_555
O6 V2 1.983898 1_555
O7 P3 1.570987 1_455
O7 V3 1.983898 1_555
O8 P1 1.555152 1_555
O8 V0 2.133806 1_555
O9 P0 1.555152 1_555
O9 V1 2.133806 1_555
O10 P3 1.555152 1_555
O10 V2 2.133806 1_555
O11 P2 1.555152 1_555
O11 V3 2.133806 1_555
O12 V0 1.674845 1_555
O12 Pb0 2.524633 1_545
O13 V1 1.674845 1_555
O13 Pb1 2.524633 1_565
O14 V2 1.674845 1_555
O14 Pb2 2.524633 1_565
O15 V3 1.674845 1_555
O15 Pb3 2.524633 1_545
O16 V2 1.730223 1_555
O16 V0 2.124006 1_555
O16 Pb3 2.661161 1_555
O17 V3 1.730223 1_655
O17 V1 2.124006 1_554
O17 Pb2 2.661161 1_555
O18 V0 1.730223 1_555
O18 V2 2.124006 1_555
O18 Pb1 2.661161 1_555
O19 V1 1.730223 1_455
O19 V3 2.124006 1_556
O19 Pb0 2.661161 1_555
O20 P0 1.541212 1_555
O20 Pb2 2.425825 1_566
O20 Pb0 2.609206 1_555
O21 P1 1.541212 1_555
O21 Pb3 2.425825 1_545
O21 Pb1 2.609206 1_455
O22 P2 1.541212 1_555
O22 Pb0 2.425825 1_544
O22 Pb2 2.609206 1_555
O23 P3 1.541212 1_555
O23 Pb1 2.425825 1_565
O23 Pb3 2.609206 1_655
