# generated using pymatgen
data_K2PuCl6
_symmetry_space_group_name_H-M   'P 1'
_cell_length_a   7.40889628
_cell_length_b   7.40889628
_cell_length_c   7.43166232
_cell_angle_alpha   90.47012857
_cell_angle_beta   119.66889431
_cell_angle_gamma   119.68700032
_symmetry_Int_Tables_number   1
_chemical_formula_structural   K2PuCl6
_chemical_formula_sum   'K2 Pu1 Cl6'
_cell_volume   290.06968133
_cell_formula_units_Z   1
loop_
 _symmetry_equiv_pos_site_id
 _symmetry_equiv_pos_as_xyz
  1  'x, y, z'
loop_
 _atom_site_type_symbol
 _atom_site_label
 _atom_site_symmetry_multiplicity
 _atom_site_fract_x
 _atom_site_fract_y
 _atom_site_fract_z
 _atom_site_occupancy
  K  K0  1  0.49081000  0.72737300  0.21818300  1
  K  K1  1  0.50919000  0.27262700  0.78181700  1
  Pu  Pu0  1  0.00000000  0.00000000  0.00000000  1
  Cl  Cl0  1  0.00931600  0.75234000  0.76165600  1
  Cl  Cl1  1  0.99068400  0.24766000  0.23834400  1
  Cl  Cl2  1  0.49171800  0.25262300  0.24433700  1
  Cl  Cl3  1  0.00828700  0.24738100  0.75566300  1
  Cl  Cl4  1  0.50828200  0.74737600  0.75566300  1
  Cl  Cl5  1  0.99171300  0.75261900  0.24433700  1
loop_
_geom_bond_atom_site_label_1
_geom_bond_atom_site_label_2
_geom_bond_distance
_geom_bond_site_symmetry_2
Cl0 Pu0 2.588859 1_566
Cl0 K0 3.599038 1_556
Cl0 K1 3.727993 1_455
Cl0 K1 3.727993 1_565
Cl1 Pu0 2.588859 1_655
Cl1 K1 3.599038 1_554
Cl1 K0 3.727993 1_655
Cl1 K0 3.727993 1_545
Cl2 Pu0 2.591092 1_555
Cl2 K1 3.504789 1_554
Cl2 K0 3.527478 1_555
Cl3 Pu0 2.591092 1_556
Cl3 K0 3.504789 1_556
Cl3 K1 3.527471 1_555
Cl4 Pu0 2.591092 1_666
Cl4 K0 3.504789 1_556
Cl4 K1 3.527471 1_555
Cl5 Pu0 2.591092 1_665
Cl5 K1 3.504789 1_554
Cl5 K0 3.527471 1_555
