# generated using pymatgen
data_Ga3Bi5Cl12
_symmetry_space_group_name_H-M   'P 1'
_cell_length_a   12.45635597
_cell_length_b   12.45635597
_cell_length_c   12.45635595
_cell_angle_alpha   57.96541061
_cell_angle_beta   57.96541061
_cell_angle_gamma   57.96540627
_symmetry_Int_Tables_number   1
_chemical_formula_structural   Ga3Bi5Cl12
_chemical_formula_sum   'Ga6 Bi10 Cl24'
_cell_volume   1302.85713254
_cell_formula_units_Z   2
loop_
 _symmetry_equiv_pos_site_id
 _symmetry_equiv_pos_as_xyz
  1  'x, y, z'
loop_
 _atom_site_type_symbol
 _atom_site_label
 _atom_site_symmetry_multiplicity
 _atom_site_fract_x
 _atom_site_fract_y
 _atom_site_fract_z
 _atom_site_occupancy
  Ga  Ga0  1  0.22977700  0.74811100  0.27313300  1
  Ga  Ga1  1  0.74811100  0.27313300  0.22977700  1
  Ga  Ga2  1  0.72977700  0.77313300  0.24811100  1
  Ga  Ga3  1  0.27313300  0.22977700  0.74811100  1
  Ga  Ga4  1  0.24811100  0.72977700  0.77313300  1
  Ga  Ga5  1  0.77313300  0.24811100  0.72977700  1
  Bi  Bi0  1  0.40563700  0.25252300  0.09066900  1
  Bi  Bi1  1  0.90563700  0.59066900  0.75252300  1
  Bi  Bi2  1  0.17195500  0.17195500  0.17195500  1
  Bi  Bi3  1  0.67195500  0.67195500  0.67195500  1
  Bi  Bi4  1  0.59066900  0.75252300  0.90563700  1
  Bi  Bi5  1  0.82721600  0.82721600  0.82721600  1
  Bi  Bi6  1  0.32721600  0.32721600  0.32721600  1
  Bi  Bi7  1  0.09066900  0.40563700  0.25252300  1
  Bi  Bi8  1  0.75252300  0.90563700  0.59066900  1
  Bi  Bi9  1  0.25252300  0.09066900  0.40563700  1
  Cl  Cl0  1  0.07195900  0.69636200  0.95864500  1
  Cl  Cl1  1  0.45864500  0.19636200  0.57195900  1
  Cl  Cl2  1  0.19636200  0.57195900  0.45864500  1
  Cl  Cl3  1  0.29897200  0.89764100  0.72606400  1
  Cl  Cl4  1  0.60773000  0.19720600  0.77108900  1
  Cl  Cl5  1  0.69636200  0.95864500  0.07195900  1
  Cl  Cl6  1  0.72606400  0.29897200  0.89764100  1
  Cl  Cl7  1  0.19720600  0.77108900  0.60773000  1
  Cl  Cl8  1  0.80885200  0.42565900  0.54545000  1
  Cl  Cl9  1  0.69720600  0.10773000  0.27108900  1
  Cl  Cl10  1  0.95864500  0.07195900  0.69636200  1
  Cl  Cl11  1  0.54545000  0.80885200  0.42565900  1
  Cl  Cl12  1  0.92565900  0.30885200  0.04545000  1
  Cl  Cl13  1  0.30885200  0.04545000  0.92565900  1
  Cl  Cl14  1  0.27108900  0.69720600  0.10773000  1
  Cl  Cl15  1  0.79897200  0.22606400  0.39764100  1
  Cl  Cl16  1  0.22606400  0.39764100  0.79897200  1
  Cl  Cl17  1  0.77108900  0.60773000  0.19720600  1
  Cl  Cl18  1  0.10773000  0.27108900  0.69720600  1
  Cl  Cl19  1  0.04545000  0.92565900  0.30885200  1
  Cl  Cl20  1  0.57195900  0.45864500  0.19636200  1
  Cl  Cl21  1  0.42565900  0.54545000  0.80885200  1
  Cl  Cl22  1  0.89764100  0.72606400  0.29897200  1
  Cl  Cl23  1  0.39764100  0.79897200  0.22606400  1
loop_
_geom_bond_atom_site_label_1
_geom_bond_atom_site_label_2
_geom_bond_distance
_geom_bond_site_symmetry_2
Bi0 Bi6 3.064716 1_555
Bi1 Bi5 3.064716 1_555
Bi4 Bi5 3.064716 1_555
Bi5 Bi8 3.064716 1_555
Bi6 Bi7 3.064716 1_555
Bi6 Bi9 3.064716 1_555
Cl0 Ga4 2.212952 1_555
Cl1 Ga3 2.212952 1_555
Cl2 Ga0 2.212952 1_555
Cl3 Ga4 2.197276 1_555
Cl4 Ga5 2.197001 1_555
Cl5 Ga2 2.212952 1_555
Cl6 Ga5 2.197276 1_555
Cl7 Ga4 2.197001 1_555
Cl8 Ga5 2.221286 1_555
Cl9 Ga1 2.197001 1_555
Cl10 Ga5 2.212952 1_555
Cl11 Ga2 2.221286 1_555
Cl12 Ga1 2.221286 1_555
Cl13 Ga3 2.221286 1_555
Cl14 Ga0 2.197001 1_555
Cl15 Ga1 2.197276 1_555
Cl16 Ga3 2.197276 1_555
Cl17 Ga2 2.197001 1_555
Cl18 Ga3 2.197001 1_555
Cl19 Ga0 2.221286 1_555
Cl20 Ga1 2.212952 1_555
Cl21 Ga4 2.221286 1_555
Cl22 Ga2 2.197276 1_555
Cl23 Ga0 2.197276 1_555
