# generated using pymatgen
data_Ni3(BiS)2
_symmetry_space_group_name_H-M   'P 1'
_cell_length_a   6.85671004
_cell_length_b   6.85661077
_cell_length_c   11.44681107
_cell_angle_alpha   90.44465995
_cell_angle_beta   90.44474553
_cell_angle_gamma   71.87116336
_symmetry_Int_Tables_number   1
_chemical_formula_structural   Ni3(BiS)2
_chemical_formula_sum   'Ni12 Bi8 S8'
_cell_volume   511.41992843
_cell_formula_units_Z   4
loop_
 _symmetry_equiv_pos_site_id
 _symmetry_equiv_pos_as_xyz
  1  'x, y, z'
loop_
 _atom_site_type_symbol
 _atom_site_label
 _atom_site_symmetry_multiplicity
 _atom_site_fract_x
 _atom_site_fract_y
 _atom_site_fract_z
 _atom_site_occupancy
  Ni  Ni0  1  0.12398744  0.12399104  0.14566842  1
  Ni  Ni1  1  0.87601156  0.87600896  0.85433158  1
  Ni  Ni2  1  -0.00000000  0.49999900  0.50000100  1
  Ni  Ni3  1  0.76802221  0.23200504  0.50000226  1
  Ni  Ni4  1  0.26801327  0.73201472  0.00000051  1
  Ni  Ni5  1  0.62395523  0.62396727  0.64566564  1
  Ni  Ni6  1  0.50000000  -0.00000000  0.50000000  1
  Ni  Ni7  1  0.73198573  0.26798428  -0.00000251  1
  Ni  Ni8  1  0.00000100  0.50000000  -0.00000000  1
  Ni  Ni9  1  0.23197879  0.76799596  0.49999974  1
  Ni  Ni10  1  0.37604477  0.37603173  0.35433436  1
  Ni  Ni11  1  0.50000000  0.00000100  -0.00000000  1
  Bi  Bi0  1  0.62685393  0.62685078  0.87886969  1
  Bi  Bi1  1  0.61708586  0.61708636  0.38995725  1
  Bi  Bi2  1  0.38291414  0.38291364  0.61004275  1
  Bi  Bi3  1  0.11699237  0.11699337  0.89001637  1
  Bi  Bi4  1  0.87316187  0.87316631  0.62097888  1
  Bi  Bi5  1  0.37314607  0.37314922  0.12113031  1
  Bi  Bi6  1  0.88300763  0.88300663  0.10998363  1
  Bi  Bi7  1  0.12683813  0.12683469  0.37902112  1
  S  S0  1  0.14208958  0.60436111  0.85535371  1
  S  S1  1  0.39564743  0.85792256  0.14465341  1
  S  S2  1  0.85791142  0.39563789  0.14464729  1
  S  S3  1  0.60435357  0.14207744  0.85534659  1
  S  S4  1  0.64209804  0.10436599  0.35530722  1
  S  S5  1  0.10436460  0.64208255  0.35530067  1
  S  S6  1  0.35790096  0.89563501  0.64469278  1
  S  S7  1  0.89563540  0.35791845  0.64469833  1
loop_
_geom_bond_atom_site_label_1
_geom_bond_atom_site_label_2
_geom_bond_distance
_geom_bond_site_symmetry_2
Ni0 S2 2.164053 1_455
Ni0 S1 2.164078 1_545
Ni1 S0 2.164065 1_655
Ni1 S3 2.164070 1_565
Ni2 S7 2.163749 1_455
Ni2 S5 2.163787 1_555
Ni3 S7 2.163276 1_555
Ni3 S4 2.163398 1_555
Ni4 S1 2.162957 1_555
Ni4 S0 2.163030 1_554
Ni5 S6 2.164050 1_555
Ni5 S7 2.164080 1_555
Ni6 S4 2.163784 1_555
Ni6 S6 2.163784 1_545
Ni7 S3 2.162928 1_554
Ni7 S2 2.163063 1_555
Ni8 S0 2.163321 1_554
Ni8 S2 2.163337 1_455
Ni9 S5 2.163306 1_555
Ni9 S6 2.163374 1_555
Ni10 S4 2.164038 1_555
Ni10 S5 2.164088 1_555
Ni11 S3 2.163309 1_554
Ni11 S1 2.163314 1_545
Bi0 Ni5 2.669328 1_555
Bi0 Ni4 2.725757 1_556
Bi0 Ni7 2.725858 1_556
Bi0 Ni1 2.783391 1_555
Bi0 Ni11 2.793565 1_566
Bi0 Ni8 2.793574 1_656
Bi1 Ni10 2.703460 1_555
Bi1 Ni6 2.788740 1_565
Bi1 Ni2 2.788778 1_655
Bi1 Ni3 2.821377 1_555
Bi1 Ni9 2.821530 1_555
Bi1 Ni5 2.927309 1_555
Bi2 Ni5 2.703454 1_555
Bi2 Ni6 2.788740 1_555
Bi2 Ni2 2.788768 1_555
Bi2 Ni9 2.821372 1_555
Bi2 Ni3 2.821525 1_555
Bi2 Ni10 2.927309 1_555
Bi3 Ni1 2.702844 1_445
Bi3 Ni8 2.788980 1_556
Bi3 Ni11 2.789016 1_556
Bi3 Ni4 2.820524 1_546
Bi3 Ni7 2.820685 1_456
Bi3 Ni0 2.926687 1_556
Bi4 Ni1 2.671028 1_555
Bi4 Ni9 2.724731 1_655
Bi4 Ni3 2.724811 1_565
Bi4 Ni5 2.784076 1_555
Bi4 Ni2 2.792799 1_655
Bi4 Ni6 2.792801 1_565
Bi5 Ni10 2.669328 1_555
Bi5 Ni7 2.725763 1_555
Bi5 Ni4 2.725864 1_555
Bi5 Ni0 2.783397 1_555
Bi5 Ni11 2.793553 1_555
Bi5 Ni8 2.793562 1_555
Bi6 Ni0 2.702839 1_665
Bi6 Ni8 2.788980 1_655
Bi6 Ni11 2.789016 1_565
Bi6 Ni7 2.820529 1_565
Bi6 Ni4 2.820690 1_655
Bi6 Ni1 2.926687 1_554
Bi7 Ni0 2.671028 1_555
Bi7 Ni3 2.724737 1_455
Bi7 Ni9 2.724823 1_545
Bi7 Ni10 2.784065 1_555
Bi7 Ni2 2.792794 1_555
Bi7 Ni6 2.792801 1_555
