# generated using pymatgen
data_NaLaMgWO6
_symmetry_space_group_name_H-M   'P 1'
_cell_length_a   5.60498325
_cell_length_b   5.60498325
_cell_length_c   7.95843320
_cell_angle_alpha   89.95392383
_cell_angle_beta   89.95392383
_cell_angle_gamma   90.61545975
_symmetry_Int_Tables_number   1
_chemical_formula_structural   NaLaMgWO6
_chemical_formula_sum   'Na2 La2 Mg2 W2 O12'
_cell_volume   250.00625427
_cell_formula_units_Z   2
loop_
 _symmetry_equiv_pos_site_id
 _symmetry_equiv_pos_as_xyz
  1  'x, y, z'
loop_
 _atom_site_type_symbol
 _atom_site_label
 _atom_site_symmetry_multiplicity
 _atom_site_fract_x
 _atom_site_fract_y
 _atom_site_fract_z
 _atom_site_occupancy
  Na  Na0  1  0.24693300  0.75306700  0.50000000  1
  Na  Na1  1  0.75306700  0.24693300  0.50000000  1
  La  La0  1  0.75380100  0.24619900  0.00000000  1
  La  La1  1  0.24619900  0.75380100  0.00000000  1
  Mg  Mg0  1  0.25189400  0.25189400  0.74383000  1
  Mg  Mg1  1  0.74810600  0.74810600  0.25617000  1
  W  W0  1  0.75159600  0.75159600  0.73810800  1
  W  W1  1  0.24840400  0.24840400  0.26189200  1
  O  O0  1  0.69770500  0.69770500  0.51026600  1
  O  O1  1  0.49073000  0.49073000  0.18799700  1
  O  O2  1  0.99082600  0.50640500  0.77112700  1
  O  O3  1  0.99117300  0.99117300  0.70650000  1
  O  O4  1  0.19317200  0.19317200  0.00579700  1
  O  O5  1  0.00882700  0.00882700  0.29350000  1
  O  O6  1  0.80682800  0.80682800  0.99420300  1
  O  O7  1  0.50640500  0.99082600  0.77112700  1
  O  O8  1  0.30229500  0.30229500  0.48973400  1
  O  O9  1  0.00917400  0.49359500  0.22887300  1
  O  O10  1  0.49359500  0.00917400  0.22887300  1
  O  O11  1  0.50927000  0.50927000  0.81200300  1
loop_
_geom_bond_atom_site_label_1
_geom_bond_atom_site_label_2
_geom_bond_distance
_geom_bond_site_symmetry_2
Na0 O0 2.550226 1_555
Na0 O8 2.550226 1_555
Na0 O3 2.564717 1_455
Na0 O5 2.564717 1_565
Na0 O9 2.918033 1_555
Na0 O7 2.918033 1_555
Na0 O10 2.928387 1_565
Na0 O2 2.928387 1_455
Na1 O0 2.550226 1_555
Na1 O8 2.550226 1_555
Na1 O5 2.564717 1_655
Na1 O3 2.564717 1_545
Na1 O10 2.918033 1_555
Na1 O2 2.918033 1_555
Na1 O9 2.928387 1_655
Na1 O7 2.928387 1_545
La0 O6 2.484166 1_544
La0 O4 2.484166 1_655
La0 O11 2.516816 1_554
La0 O1 2.516816 1_555
La0 O2 2.675820 1_554
La0 O10 2.675820 1_555
La0 O9 2.693504 1_655
La0 O7 2.693504 1_544
La1 O6 2.484166 1_454
La1 O4 2.484166 1_565
La1 O11 2.516816 1_554
La1 O1 2.516816 1_555
La1 O7 2.675820 1_554
La1 O9 2.675820 1_555
La1 O10 2.693504 1_565
La1 O2 2.693504 1_454
Mg0 O8 2.060431 1_555
Mg0 O7 2.065964 1_545
Mg0 O2 2.065964 1_455
Mg0 O3 2.077208 1_445
Mg0 O11 2.101022 1_555
Mg0 O4 2.135114 1_556
Mg1 O0 2.060431 1_555
Mg1 O9 2.065964 1_655
Mg1 O10 2.065964 1_565
Mg1 O5 2.077208 1_665
Mg1 O1 2.101022 1_555
Mg1 O6 2.135114 1_554
O0 W0 1.862850 1_555
O1 W1 1.998310 1_555
O2 W0 1.948144 1_555
O3 W0 1.905206 1_555
O4 W1 2.084600 1_555
O5 W1 1.905206 1_555
O6 W0 2.084600 1_555
O7 W0 1.948144 1_555
O8 W1 1.862850 1_555
O9 W1 1.948144 1_555
O10 W1 1.948144 1_555
O11 W0 1.998310 1_555
