# generated using pymatgen
data_Sr2GeO4
_symmetry_space_group_name_H-M   'P 1'
_cell_length_a   7.22580176
_cell_length_b   5.84894247
_cell_length_c   11.10985734
_cell_angle_alpha   63.02669980
_cell_angle_beta   90.00000000
_cell_angle_gamma   90.00000000
_symmetry_Int_Tables_number   1
_chemical_formula_structural   Sr2GeO4
_chemical_formula_sum   'Sr8 Ge4 O16'
_cell_volume   418.46179864
_cell_formula_units_Z   4
loop_
 _symmetry_equiv_pos_site_id
 _symmetry_equiv_pos_as_xyz
  1  'x, y, z'
loop_
 _atom_site_type_symbol
 _atom_site_label
 _atom_site_symmetry_multiplicity
 _atom_site_fract_x
 _atom_site_fract_y
 _atom_site_fract_z
 _atom_site_occupancy
  Sr  Sr0  1  0.34702826  0.29951578  0.42900693  1
  Sr  Sr1  1  0.84702826  0.70048422  0.07099307  1
  Sr  Sr2  1  0.65297174  0.70048422  0.57099307  1
  Sr  Sr3  1  0.15297174  0.29951578  0.92900693  1
  Sr  Sr4  1  0.99700065  0.01962034  0.69971488  1
  Sr  Sr5  1  0.49700065  0.98037966  0.80028512  1
  Sr  Sr6  1  0.00299935  0.98037966  0.30028512  1
  Sr  Sr7  1  0.50299935  0.01962034  0.19971488  1
  Ge  Ge0  1  0.78328418  0.34724238  0.41754734  1
  Ge  Ge1  1  0.28328418  0.65275762  0.08245266  1
  Ge  Ge2  1  0.21671582  0.65275762  0.58245266  1
  Ge  Ge3  1  0.71671582  0.34724238  0.91754734  1
  O  O0  1  0.01813310  0.27615217  0.43912178  1
  O  O1  1  0.51813310  0.72384783  0.06087822  1
  O  O2  1  0.98186690  0.72384783  0.56087822  1
  O  O3  1  0.48186690  0.27615217  0.93912178  1
  O  O4  1  0.66991825  0.26445367  0.57425451  1
  O  O5  1  0.16991825  0.73554633  0.92574549  1
  O  O6  1  0.33008175  0.73554633  0.42574549  1
  O  O7  1  0.83008175  0.26445367  0.07425451  1
  O  O8  1  0.67041281  0.14376635  0.36129632  1
  O  O9  1  0.17041281  0.85623365  0.13870368  1
  O  O10  1  0.32958719  0.85623365  0.63870368  1
  O  O11  1  0.82958719  0.14376635  0.86129632  1
  O  O12  1  0.74743167  0.67372121  0.30745917  1
  O  O13  1  0.24743167  0.32627879  0.19254083  1
  O  O14  1  0.25256833  0.32627879  0.69254083  1
  O  O15  1  0.75256833  0.67372121  0.80745917  1
loop_
_geom_bond_atom_site_label_1
_geom_bond_atom_site_label_2
_geom_bond_distance
_geom_bond_site_symmetry_2
Ge0 O0 1.737713 1_655
Ge0 O12 1.758051 1_555
Ge0 O8 1.773926 1_555
Ge0 O4 1.780955 1_555
Ge1 O1 1.737713 1_555
Ge1 O13 1.758051 1_555
Ge1 O9 1.773926 1_555
Ge1 O5 1.780955 1_554
Ge2 O2 1.737713 1_455
Ge2 O14 1.758051 1_555
Ge2 O10 1.773926 1_555
Ge2 O6 1.780955 1_555
Ge3 O3 1.737713 1_555
Ge3 O15 1.758051 1_555
Ge3 O11 1.773926 1_555
Ge3 O7 1.780955 1_556
O0 Sr0 2.380183 1_555
O0 Sr4 2.591501 1_455
O0 Sr6 2.793653 1_545
O1 Sr1 2.380183 1_555
O1 Sr5 2.591501 1_554
O1 Sr7 2.793653 1_565
O2 Sr2 2.380183 1_555
O2 Sr6 2.591501 1_655
O2 Sr4 2.793653 1_565
O3 Sr3 2.380183 1_555
O3 Sr7 2.591501 1_556
O3 Sr5 2.793653 1_545
O4 Sr2 2.537045 1_555
O4 Sr5 2.615883 1_545
O4 Sr4 2.787223 1_555
O4 Sr0 2.790942 1_555
O5 Sr3 2.537045 1_555
O5 Sr4 2.615883 1_465
O5 Sr5 2.787223 1_555
O5 Sr1 2.790942 1_456
O6 Sr0 2.537045 1_555
O6 Sr7 2.615883 1_565
O6 Sr6 2.787223 1_555
O6 Sr2 2.790942 1_555
O7 Sr1 2.537045 1_555
O7 Sr6 2.615883 1_645
O7 Sr7 2.787223 1_555
O7 Sr3 2.790942 1_654
O8 Sr7 2.528960 1_555
O8 Sr2 2.585768 1_545
O8 Sr0 2.734526 1_555
O8 Sr6 2.781312 1_645
O9 Sr6 2.528960 1_555
O9 Sr3 2.585768 1_564
O9 Sr1 2.734526 1_455
O9 Sr7 2.781312 1_565
O10 Sr5 2.528960 1_555
O10 Sr0 2.585768 1_565
O10 Sr2 2.734526 1_555
O10 Sr4 2.781312 1_465
O11 Sr4 2.528960 1_555
O11 Sr1 2.585768 1_546
O11 Sr3 2.734526 1_655
O11 Sr5 2.781312 1_545
O12 Sr7 2.539413 1_565
O12 Sr6 2.550294 1_655
O12 Sr1 2.659144 1_555
O13 Sr6 2.539413 1_545
O13 Sr7 2.550294 1_555
O13 Sr0 2.659144 1_555
O14 Sr5 2.539413 1_545
O14 Sr4 2.550294 1_455
O14 Sr3 2.659144 1_555
O15 Sr4 2.539413 1_565
O15 Sr5 2.550294 1_555
O15 Sr2 2.659144 1_555
