# generated using pymatgen
data_K(Sn3Au2)2
_symmetry_space_group_name_H-M   'P 1'
_cell_length_a   13.17830827
_cell_length_b   12.94588193
_cell_length_c   6.72110125
_cell_angle_alpha   77.01520289
_cell_angle_beta   73.18497376
_cell_angle_gamma   29.79982336
_symmetry_Int_Tables_number   1
_chemical_formula_structural   K(Sn3Au2)2
_chemical_formula_sum   'K2 Sn12 Au8'
_cell_volume   544.65179454
_cell_formula_units_Z   2
loop_
 _symmetry_equiv_pos_site_id
 _symmetry_equiv_pos_as_xyz
  1  'x, y, z'
loop_
 _atom_site_type_symbol
 _atom_site_label
 _atom_site_symmetry_multiplicity
 _atom_site_fract_x
 _atom_site_fract_y
 _atom_site_fract_z
 _atom_site_occupancy
  K  K0  1  -0.00000000  -0.00000000  -0.00000000  1
  K  K1  1  0.25000000  0.25000000  0.25000000  1
  Sn  Sn0  1  0.61564682  0.11666732  0.88708921  1
  Sn  Sn1  1  0.64669374  0.35330626  0.64669374  1
  Sn  Sn2  1  0.88708921  0.38059665  0.61564682  1
  Sn  Sn3  1  0.13333268  0.63435318  0.86940335  1
  Sn  Sn4  1  0.63435318  0.13333268  0.36291079  1
  Sn  Sn5  1  0.89669374  0.60330626  0.89669374  1
  Sn  Sn6  1  0.86940335  0.36291079  0.13333268  1
  Sn  Sn7  1  0.11666732  0.61564682  0.38059665  1
  Sn  Sn8  1  0.60330626  0.89669374  0.60330626  1
  Sn  Sn9  1  0.35330626  0.64669374  0.35330626  1
  Sn  Sn10  1  0.38059665  0.88708921  0.11666732  1
  Sn  Sn11  1  0.36291079  0.86940335  0.63435318  1
  Au  Au0  1  0.19254114  0.19254114  0.80745886  1
  Au  Au1  1  0.56297026  0.56297026  0.93702974  1
  Au  Au2  1  0.68702974  0.68702974  0.31297026  1
  Au  Au3  1  0.93702974  0.93702974  0.56297026  1
  Au  Au4  1  0.44254114  0.44254114  0.05745886  1
  Au  Au5  1  0.80745886  0.80745886  0.19254114  1
  Au  Au6  1  0.31297026  0.31297026  0.68702974  1
  Au  Au7  1  0.05745886  0.05745886  0.44254114  1
loop_
_geom_bond_atom_site_label_1
_geom_bond_atom_site_label_2
_geom_bond_distance
_geom_bond_site_symmetry_2
K0 Sn9 3.576784 1_545
K0 Sn1 3.576784 1_454
K0 Sn4 3.578360 1_455
K0 Sn11 3.578360 1_544
K0 Sn6 3.578360 1_455
K0 Sn3 3.578360 1_544
K1 Sn8 3.576784 1_545
K1 Sn5 3.576784 1_454
K1 Sn7 3.578360 1_555
K1 Sn0 3.578360 1_554
K1 Sn10 3.578360 1_545
K1 Sn2 3.578360 1_455
Au0 Sn5 2.817188 1_455
Au0 Sn8 2.817188 1_545
Au0 Sn6 2.875722 1_456
Au0 Sn11 2.875722 1_545
Au0 Sn10 2.894193 1_546
Au0 Sn2 2.894193 1_455
Au0 Au6 2.930615 1_555
Au0 K1 3.639835 1_555
Au0 K1 3.639835 1_556
Au1 Sn10 2.817100 1_556
Au1 Sn2 2.817100 1_555
Au1 Sn6 2.855066 1_556
Au1 Sn11 2.855066 1_555
Au1 Sn1 2.886105 1_555
Au1 Sn9 2.886105 1_556
Au1 Au4 2.930615 1_556
Au1 K0 3.693433 1_566
Au1 K0 3.693433 1_656
Au2 Sn11 2.817100 1_555
Au2 Sn6 2.817100 1_555
Au2 Sn2 2.855066 1_555
Au2 Sn10 2.855066 1_555
Au2 Sn8 2.886105 1_555
Au2 Sn5 2.886105 1_554
Au2 Au5 2.930615 1_555
Au2 K1 3.693433 1_565
Au2 K1 3.693433 1_655
Au3 Sn0 2.817100 1_565
Au3 Sn7 2.817100 1_655
Au3 Sn4 2.855066 1_565
Au3 Sn3 2.855066 1_655
Au3 Sn9 2.886105 1_655
Au3 Sn1 2.886105 1_565
Au3 Au7 2.930615 1_665
Au3 K0 3.693433 1_665
Au3 K0 3.693433 1_666
Au4 Sn1 2.817188 1_554
Au4 Sn9 2.817188 1_555
Au4 Sn0 2.875722 1_554
Au4 Sn7 2.875722 1_555
Au4 Sn4 2.894193 1_555
Au4 Sn3 2.894193 1_554
Au4 K0 3.639835 1_655
Au4 K0 3.639835 1_565
Au5 Sn8 2.817188 1_555
Au5 Sn5 2.817188 1_554
Au5 Sn4 2.875722 1_565
Au5 Sn3 2.875722 1_654
Au5 Sn7 2.894193 1_655
Au5 Sn0 2.894193 1_564
Au5 K1 3.639835 1_655
Au5 K1 3.639835 1_565
Au6 Sn3 2.817100 1_555
Au6 Sn4 2.817100 1_555
Au6 Sn7 2.855066 1_555
Au6 Sn0 2.855066 1_555
Au6 Sn8 2.886105 1_545
Au6 Sn5 2.886105 1_455
Au6 K1 3.693433 1_556
Au6 K1 3.693433 1_555
Au7 Sn9 2.817188 1_545
Au7 Sn1 2.817188 1_455
Au7 Sn2 2.875722 1_455
Au7 Sn10 2.875722 1_545
Au7 Sn11 2.894193 1_545
Au7 Sn6 2.894193 1_455
Au7 K0 3.639835 1_555
Au7 K0 3.639835 1_556
