# generated using pymatgen
data_K2MnF6
_symmetry_space_group_name_H-M   'P 1'
_cell_length_a   5.66146995
_cell_length_b   5.66146948
_cell_length_c   9.20524309
_cell_angle_alpha   90.00000000
_cell_angle_beta   90.00000000
_cell_angle_gamma   120.00002440
_symmetry_Int_Tables_number   1
_chemical_formula_structural   K2MnF6
_chemical_formula_sum   'K4 Mn2 F12'
_cell_volume   255.51956735
_cell_formula_units_Z   2
loop_
 _symmetry_equiv_pos_site_id
 _symmetry_equiv_pos_as_xyz
  1  'x, y, z'
loop_
 _atom_site_type_symbol
 _atom_site_label
 _atom_site_symmetry_multiplicity
 _atom_site_fract_x
 _atom_site_fract_y
 _atom_site_fract_z
 _atom_site_occupancy
  K  K0  1  0.00000000  -0.00000000  0.10165319  1
  K  K1  1  0.00000000  -0.00000000  0.60165319  1
  K  K2  1  0.66666700  0.33333300  0.37358362  1
  K  K3  1  0.33333300  0.66666700  0.87358362  1
  Mn  Mn0  1  0.66666700  0.33333300  0.75649498  1
  Mn  Mn1  1  0.33333300  0.66666700  0.25649498  1
  F  F0  1  0.51673377  0.48326623  0.64099437  1
  F  F1  1  0.03346853  0.51673377  0.14099437  1
  F  F2  1  0.48326623  0.96653147  0.14099437  1
  F  F3  1  0.51673377  0.03346853  0.64099437  1
  F  F4  1  0.96653147  0.48326623  0.64099437  1
  F  F5  1  0.48326623  0.51673377  0.14099437  1
  F  F6  1  0.17870556  0.82129444  0.36509637  1
  F  F7  1  0.35741413  0.17870556  0.86509537  1
  F  F8  1  0.82129444  0.64258587  0.86509537  1
  F  F9  1  0.17870556  0.35741413  0.36509537  1
  F  F10  1  0.64258587  0.82129444  0.36509537  1
  F  F11  1  0.82129444  0.17870556  0.86509637  1
loop_
_geom_bond_atom_site_label_1
_geom_bond_atom_site_label_2
_geom_bond_distance
_geom_bond_site_symmetry_2
F0 Mn0 1.814392 1_555
F0 K3 2.796134 1_555
F0 K1 2.858519 1_665
F0 K1 2.858519 1_555
F0 K2 2.867225 1_555
F1 Mn1 1.814384 1_555
F1 K2 2.796134 1_455
F1 K0 2.858517 1_555
F1 K0 2.858523 1_565
F1 K3 2.867220 1_554
F2 Mn1 1.814384 1_555
F2 K2 2.796134 1_565
F2 K0 2.858517 1_665
F2 K0 2.858523 1_565
F2 K3 2.867220 1_554
F3 Mn0 1.814384 1_555
F3 K3 2.796134 1_545
F3 K1 2.858517 1_555
F3 K1 2.858523 1_655
F3 K2 2.867220 1_555
F4 Mn0 1.814384 1_555
F4 K3 2.796134 1_655
F4 K1 2.858517 1_665
F4 K1 2.858523 1_655
F4 K2 2.867220 1_555
F5 Mn1 1.814392 1_555
F5 K2 2.796134 1_555
F5 K0 2.858519 1_555
F5 K0 2.858519 1_665
F5 K3 2.867225 1_554
F6 Mn1 1.816171 1_555
F6 K1 2.795105 1_565
F6 K2 2.834271 1_565
F6 K2 2.834271 1_455
F6 K0 2.991946 1_565
F7 Mn0 1.816158 1_555
F7 K0 2.795121 1_556
F7 K3 2.834262 1_545
F7 K3 2.834285 1_555
F7 K1 2.991947 1_555
F8 Mn0 1.816157 1_555
F8 K0 2.795121 1_666
F8 K3 2.834262 1_655
F8 K3 2.834285 1_555
F8 K1 2.991947 1_665
F9 Mn1 1.816157 1_555
F9 K1 2.795121 1_555
F9 K2 2.834262 1_455
F9 K2 2.834285 1_555
F9 K0 2.991947 1_555
F10 Mn1 1.816158 1_555
F10 K1 2.795121 1_665
F10 K2 2.834262 1_565
F10 K2 2.834285 1_555
F10 K0 2.991947 1_665
F11 Mn0 1.816171 1_555
F11 K0 2.795105 1_656
F11 K3 2.834271 1_545
F11 K3 2.834271 1_655
F11 K1 2.991946 1_655
