# generated using pymatgen
data_Gd3CuSnS7
_symmetry_space_group_name_H-M   'P 1'
_cell_length_a   9.89389799
_cell_length_b   9.89389799
_cell_length_c   6.22647900
_cell_angle_alpha   90.00000000
_cell_angle_beta   90.00000000
_cell_angle_gamma   119.99999994
_symmetry_Int_Tables_number   1
_chemical_formula_structural   Gd3CuSnS7
_chemical_formula_sum   'Gd6 Cu2 Sn2 S14'
_cell_volume   527.84694986
_cell_formula_units_Z   2
loop_
 _symmetry_equiv_pos_site_id
 _symmetry_equiv_pos_as_xyz
  1  'x, y, z'
loop_
 _atom_site_type_symbol
 _atom_site_label
 _atom_site_symmetry_multiplicity
 _atom_site_fract_x
 _atom_site_fract_y
 _atom_site_fract_z
 _atom_site_occupancy
  Gd  Gd0  1  0.64137600  0.85863100  0.76757100  1
  Gd  Gd1  1  0.35862400  0.14136900  0.26757100  1
  Gd  Gd2  1  0.21725500  0.35862400  0.76757100  1
  Gd  Gd3  1  0.78274500  0.64137600  0.26757100  1
  Gd  Gd4  1  0.85863100  0.21725500  0.26757100  1
  Gd  Gd5  1  0.14136900  0.78274500  0.76757100  1
  Cu  Cu0  1  0.00000000  0.00000000  0.16738800  1
  Cu  Cu1  1  0.00000000  0.00000000  0.66738800  1
  Sn  Sn0  1  0.66666700  0.33333300  0.83398000  1
  Sn  Sn1  1  0.33333300  0.66666700  0.33398000  1
  S  S0  1  0.48395700  0.56849200  0.51356400  1
  S  S1  1  0.08453500  0.51604300  0.51356400  1
  S  S2  1  0.91546500  0.48395700  0.01356400  1
  S  S3  1  0.66666700  0.33333300  0.44939200  1
  S  S4  1  0.89299800  0.15153100  0.69671200  1
  S  S5  1  0.56849200  0.08453500  0.01356400  1
  S  S6  1  0.33333300  0.66666700  0.94939200  1
  S  S7  1  0.43150800  0.91546500  0.51356400  1
  S  S8  1  0.25853400  0.10700200  0.69671200  1
  S  S9  1  0.15153100  0.25853400  0.19671200  1
  S  S10  1  0.74146600  0.89299800  0.19671200  1
  S  S11  1  0.51604300  0.43150800  0.01356400  1
  S  S12  1  0.10700200  0.84846900  0.19671200  1
  S  S13  1  0.84846900  0.74146600  0.69671200  1
loop_
_geom_bond_atom_site_label_1
_geom_bond_atom_site_label_2
_geom_bond_distance
_geom_bond_site_symmetry_2
Gd0 S4 2.752434 1_565
Gd0 S10 2.810576 1_556
Gd0 S13 2.848133 1_555
Gd0 S7 2.880387 1_555
Gd0 S6 2.896403 1_555
Gd0 S0 2.948995 1_555
Gd0 S5 3.077869 1_566
Gd1 S12 2.752434 1_545
Gd1 S8 2.810576 1_555
Gd1 S9 2.848133 1_555
Gd1 S5 2.880387 1_555
Gd1 S3 2.896403 1_555
Gd1 S11 2.948995 1_555
Gd1 S7 3.077869 1_545
Gd2 S8 2.752440 1_555
Gd2 S9 2.810576 1_556
Gd2 S4 2.848125 1_455
Gd2 S0 2.880387 1_555
Gd2 S6 2.896405 1_555
Gd2 S1 2.948995 1_555
Gd2 S11 3.077869 1_556
Gd3 S10 2.752440 1_555
Gd3 S13 2.810576 1_555
Gd3 S12 2.848125 1_655
Gd3 S11 2.880387 1_555
Gd3 S3 2.896405 1_555
Gd3 S2 2.948995 1_555
Gd3 S0 3.077869 1_555
Gd4 S9 2.752430 1_655
Gd4 S4 2.810579 1_555
Gd4 S10 2.848124 1_545
Gd4 S2 2.880387 1_555
Gd4 S3 2.896396 1_555
Gd4 S5 2.948995 1_555
Gd4 S1 3.077869 1_655
Gd5 S13 2.752430 1_455
Gd5 S12 2.810579 1_556
Gd5 S8 2.848124 1_565
Gd5 S1 2.880387 1_555
Gd5 S6 2.896396 1_555
Gd5 S7 2.948995 1_555
Gd5 S2 3.077869 1_456
Cu0 S12 2.233606 1_545
Cu0 S9 2.233614 1_555
Cu0 S10 2.233615 1_445
Cu1 S4 2.233606 1_455
Cu1 S13 2.233614 1_445
Cu1 S8 2.233615 1_555
S0 Sn1 2.421201 1_555
S1 Sn1 2.421194 1_555
S2 Sn0 2.421194 1_554
S3 Sn0 2.394629 1_555
S5 Sn0 2.421193 1_554
S6 Sn1 2.394629 1_556
S7 Sn1 2.421193 1_555
S11 Sn0 2.421201 1_554
