# generated using pymatgen
data_CeF3
_symmetry_space_group_name_H-M   'P 1'
_cell_length_a   7.09014129
_cell_length_b   7.07980728
_cell_length_c   7.23971957
_cell_angle_alpha   89.99999699
_cell_angle_beta   90.01719508
_cell_angle_gamma   119.95178788
_symmetry_Int_Tables_number   1
_chemical_formula_structural   CeF3
_chemical_formula_sum   'Ce6 F18'
_cell_volume   314.87592657
_cell_formula_units_Z   6
loop_
 _symmetry_equiv_pos_site_id
 _symmetry_equiv_pos_as_xyz
  1  'x, y, z'
loop_
 _atom_site_type_symbol
 _atom_site_label
 _atom_site_symmetry_multiplicity
 _atom_site_fract_x
 _atom_site_fract_y
 _atom_site_fract_z
 _atom_site_occupancy
  Ce  Ce0  1  0.65863784  0.00064804  0.25073947  1
  Ce  Ce1  1  0.00000000  0.65688717  0.25000000  1
  Ce  Ce2  1  0.34136216  0.34200920  0.24926053  1
  Ce  Ce3  1  0.34136216  0.99935196  0.74926053  1
  Ce  Ce4  1  -0.00000000  0.34311283  0.75000000  1
  Ce  Ce5  1  0.65863784  0.65799080  0.75073947  1
  F  F0  1  0.36884170  0.05899128  0.08052032  1
  F  F1  1  0.94266476  0.31090626  0.08124482  1
  F  F2  1  0.68959064  0.62986647  0.08015950  1
  F  F3  1  0.31040936  0.94027783  0.41984050  1
  F  F4  1  0.63115830  0.69015058  0.41947968  1
  F  F5  1  0.05733524  0.36824250  0.41875518  1
  F  F6  1  0.63115830  0.94100872  0.91947968  1
  F  F7  1  0.05733524  0.68909374  0.91875518  1
  F  F8  1  0.31040936  0.37013353  0.91984050  1
  F  F9  1  0.68959064  0.05972217  0.58015950  1
  F  F10  1  0.36884170  0.30984942  0.58052032  1
  F  F11  1  0.94266476  0.63175750  0.58124482  1
  F  F12  1  0.33389315  0.66792338  0.18197802  1
  F  F13  1  0.66610685  0.33402923  0.31802198  1
  F  F14  1  0.66610685  0.33207662  0.81802198  1
  F  F15  1  0.33389315  0.66597077  0.68197802  1
  F  F16  1  0.00000000  0.99910481  0.25000000  1
  F  F17  1  -0.00000000  0.00089519  0.75000000  1
loop_
_geom_bond_atom_site_label_1
_geom_bond_atom_site_label_2
_geom_bond_distance
_geom_bond_site_symmetry_2
Ce0 F12 2.383623 1_545
Ce0 F13 2.384565 1_555
Ce0 F9 2.412241 1_555
Ce0 F16 2.425787 1_645
Ce0 F6 2.425967 1_544
Ce0 F4 2.436221 1_545
Ce0 F1 2.443466 1_555
Ce0 F3 2.593346 1_545
Ce0 F0 2.599424 1_555
Ce1 F12 2.380959 1_555
Ce1 F13 2.380962 1_455
Ce1 F16 2.422835 1_555
Ce1 F11 2.424098 1_455
Ce1 F7 2.424098 1_554
Ce1 F2 2.443398 1_455
Ce1 F3 2.443404 1_555
Ce1 F5 2.581321 1_555
Ce1 F1 2.581327 1_455
Ce2 F13 2.383622 1_555
Ce2 F12 2.384578 1_555
Ce2 F8 2.412243 1_554
Ce2 F16 2.425784 1_545
Ce2 F10 2.425967 1_555
Ce2 F0 2.436221 1_555
Ce2 F5 2.443473 1_555
Ce2 F2 2.593344 1_555
Ce2 F4 2.599432 1_555
Ce3 F14 2.383623 1_565
Ce3 F15 2.384565 1_555
Ce3 F3 2.412241 1_555
Ce3 F17 2.425787 1_565
Ce3 F0 2.425967 1_566
Ce3 F10 2.436221 1_565
Ce3 F7 2.443466 1_555
Ce3 F9 2.593346 1_565
Ce3 F6 2.599424 1_555
Ce4 F14 2.380959 1_455
Ce4 F15 2.380962 1_555
Ce4 F17 2.422835 1_555
Ce4 F5 2.424098 1_555
Ce4 F1 2.424098 1_456
Ce4 F8 2.443398 1_555
Ce4 F9 2.443404 1_455
Ce4 F11 2.581321 1_455
Ce4 F7 2.581327 1_555
Ce5 F15 2.383622 1_555
Ce5 F14 2.384578 1_555
Ce5 F2 2.412243 1_556
Ce5 F17 2.425784 1_665
Ce5 F4 2.425967 1_555
Ce5 F6 2.436221 1_555
Ce5 F11 2.443473 1_555
Ce5 F8 2.593344 1_555
Ce5 F10 2.599432 1_555
