# generated using pymatgen
data_SiO2
_symmetry_space_group_name_H-M   'P 1'
_cell_length_a   17.29464755
_cell_length_b   17.29464755
_cell_length_c   12.89612700
_cell_angle_alpha   90.00000000
_cell_angle_beta   90.00000000
_cell_angle_gamma   119.99999829
_symmetry_Int_Tables_number   1
_chemical_formula_structural   SiO2
_chemical_formula_sum   'Si54 O108'
_cell_volume   3340.51458647
_cell_formula_units_Z   54
loop_
 _symmetry_equiv_pos_site_id
 _symmetry_equiv_pos_as_xyz
  1  'x, y, z'
loop_
 _atom_site_type_symbol
 _atom_site_label
 _atom_site_symmetry_multiplicity
 _atom_site_fract_x
 _atom_site_fract_y
 _atom_site_fract_z
 _atom_site_occupancy
  Si  Si0  1  0.00000000  0.81688800  0.37903900  1
  Si  Si1  1  0.00000000  0.81688800  0.62096100  1
  Si  Si2  1  0.00000000  0.81376900  0.00000000  1
  Si  Si3  1  0.00000000  0.69735600  0.19656600  1
  Si  Si4  1  0.00000000  0.69735600  0.80343400  1
  Si  Si5  1  0.15374900  0.66635400  0.12173800  1
  Si  Si6  1  0.15374900  0.66635400  0.87826200  1
  Si  Si7  1  0.00000000  0.30264400  0.19656600  1
  Si  Si8  1  0.00000000  0.30264400  0.80343400  1
  Si  Si9  1  0.00000000  0.18623100  0.00000000  1
  Si  Si10  1  0.00000000  0.18311200  0.62096100  1
  Si  Si11  1  0.00000000  0.18311200  0.37903900  1
  Si  Si12  1  0.15374900  0.48739500  0.12173800  1
  Si  Si13  1  0.15374900  0.48739500  0.87826200  1
  Si  Si14  1  0.33364600  0.84625100  0.12173800  1
  Si  Si15  1  0.33364600  0.84625100  0.87826200  1
  Si  Si16  1  0.51260500  0.84625100  0.12173800  1
  Si  Si17  1  0.51260500  0.84625100  0.87826200  1
  Si  Si18  1  0.33364600  0.48739500  0.12173800  1
  Si  Si19  1  0.33364600  0.48739500  0.87826200  1
  Si  Si20  1  0.18311200  0.18311200  0.62096100  1
  Si  Si21  1  0.18311200  0.18311200  0.37903900  1
  Si  Si22  1  0.18623100  0.18623100  0.00000000  1
  Si  Si23  1  0.30264400  0.30264400  0.19656600  1
  Si  Si24  1  0.30264400  0.30264400  0.80343400  1
  Si  Si25  1  0.51260500  0.66635400  0.12173800  1
  Si  Si26  1  0.51260500  0.66635400  0.87826200  1
  Si  Si27  1  0.18311200  0.00000000  0.62096100  1
  Si  Si28  1  0.18311200  0.00000000  0.37903900  1
  Si  Si29  1  0.18623100  0.00000000  0.00000000  1
  Si  Si30  1  0.30264400  0.00000000  0.19656600  1
  Si  Si31  1  0.30264400  0.00000000  0.80343400  1
  Si  Si32  1  0.48739500  0.33364600  0.12173800  1
  Si  Si33  1  0.48739500  0.33364600  0.87826200  1
  Si  Si34  1  0.69735600  0.69735600  0.19656600  1
  Si  Si35  1  0.69735600  0.69735600  0.80343400  1
  Si  Si36  1  0.81376900  0.81376900  0.00000000  1
  Si  Si37  1  0.81688800  0.81688800  0.37903900  1
  Si  Si38  1  0.81688800  0.81688800  0.62096100  1
  Si  Si39  1  0.66635400  0.51260500  0.12173800  1
  Si  Si40  1  0.66635400  0.51260500  0.87826200  1
  Si  Si41  1  0.48739500  0.15374900  0.12173800  1
  Si  Si42  1  0.48739500  0.15374900  0.87826200  1
  Si  Si43  1  0.66635400  0.15374900  0.12173800  1
  Si  Si44  1  0.66635400  0.15374900  0.87826200  1
  Si  Si45  1  0.84625100  0.51260500  0.12173800  1
  Si  Si46  1  0.84625100  0.51260500  0.87826200  1
  Si  Si47  1  0.84625100  0.33364600  0.12173800  1
  Si  Si48  1  0.84625100  0.33364600  0.87826200  1
  Si  Si49  1  0.69735600  0.00000000  0.80343400  1
  Si  Si50  1  0.69735600  0.00000000  0.19656600  1
  Si  Si51  1  0.81376900  0.00000000  0.00000000  1
  Si  Si52  1  0.81688800  0.00000000  0.62096100  1
  Si  Si53  1  0.81688800  0.00000000  0.37903900  1
  O  O0  1  0.08771400  0.91228600  0.00000000  1
  O  O1  1  0.17491200  0.08745600  0.64720700  1
  O  O2  1  0.08745600  0.91254400  0.35279300  1
  O  O3  1  0.91254400  0.82508800  0.35279300  1
  O  O4  1  0.91228600  0.82457200  0.00000000  1
  O  O5  1  0.57039200  0.14078400  0.15690200  1
  O  O6  1  0.42960800  0.85921600  0.84309800  1
  O  O7  1  0.08745600  0.17491200  0.64720700  1
  O  O8  1  0.66354200  0.12657500  0.00000000  1
  O  O9  1  0.53696700  0.87342500  0.00000000  1
  O  O10  1  0.74240000  0.25760000  0.86048200  1
  O  O11  1  0.74240000  0.25760000  0.13951800  1
  O  O12  1  0.48480000  0.74240000  0.13951800  1
  O  O13  1  0.48480000  0.74240000  0.86048200  1
  O  O14  1  0.17542800  0.08771400  0.00000000  1
  O  O15  1  0.08745600  0.91254400  0.64720700  1
  O  O16  1  0.17491200  0.08745600  0.35279300  1
  O  O17  1  0.68863700  0.08922500  0.19092700  1
  O  O18  1  0.68863700  0.08922500  0.80907300  1
  O  O19  1  0.59941300  0.91077500  0.19092700  1
  O  O20  1  0.59941300  0.91077500  0.80907300  1
  O  O21  1  0.85921600  0.42960800  0.84309800  1
  O  O22  1  0.42960800  0.57039200  0.15690200  1
  O  O23  1  0.87342500  0.33645800  0.00000000  1
  O  O24  1  0.53696700  0.66354200  0.00000000  1
  O  O25  1  0.73974800  0.00000000  0.30844900  1
  O  O26  1  0.73974800  0.00000000  0.69155100  1
  O  O27  1  0.91077500  0.31136300  0.19092700  1
  O  O28  1  0.91077500  0.31136300  0.80907300  1
  O  O29  1  0.59941300  0.68863700  0.19092700  1
  O  O30  1  0.59941300  0.68863700  0.80907300  1
  O  O31  1  0.76052500  0.00000000  0.10350100  1
  O  O32  1  0.76052500  0.00000000  0.89649900  1
  O  O33  1  0.79051600  0.00000000  0.50000000  1
  O  O34  1  0.14078400  0.57039200  0.15690200  1
  O  O35  1  0.57039200  0.42960800  0.84309800  1
  O  O36  1  0.00000000  0.26025200  0.30844900  1
  O  O37  1  0.73974800  0.73974800  0.30844900  1
  O  O38  1  0.00000000  0.26025200  0.69155100  1
  O  O39  1  0.73974800  0.73974800  0.69155100  1
  O  O40  1  0.00000000  0.23947500  0.10350100  1
  O  O41  1  0.00000000  0.23947500  0.89649900  1
  O  O42  1  0.76052500  0.76052500  0.10350100  1
  O  O43  1  0.76052500  0.76052500  0.89649900  1
  O  O44  1  0.08922500  0.40058700  0.19092700  1
  O  O45  1  0.08922500  0.40058700  0.80907300  1
  O  O46  1  0.68863700  0.59941300  0.19092700  1
  O  O47  1  0.68863700  0.59941300  0.80907300  1
  O  O48  1  0.12657500  0.46303300  0.00000000  1
  O  O49  1  0.66354200  0.53696700  0.00000000  1
  O  O50  1  0.00000000  0.20948400  0.50000000  1
  O  O51  1  0.79051600  0.79051600  0.50000000  1
  O  O52  1  0.25760000  0.51520000  0.86048200  1
  O  O53  1  0.25760000  0.51520000  0.13951800  1
  O  O54  1  0.74240000  0.48480000  0.86048200  1
  O  O55  1  0.74240000  0.48480000  0.13951800  1
  O  O56  1  0.20948400  0.20948400  0.50000000  1
  O  O57  1  0.00000000  0.79051600  0.50000000  1
  O  O58  1  0.33645800  0.46303300  0.00000000  1
  O  O59  1  0.87342500  0.53696700  0.00000000  1
  O  O60  1  0.31136300  0.40058700  0.19092700  1
  O  O61  1  0.31136300  0.40058700  0.80907300  1
  O  O62  1  0.91077500  0.59941300  0.19092700  1
  O  O63  1  0.91077500  0.59941300  0.80907300  1
  O  O64  1  0.23947500  0.23947500  0.10350100  1
  O  O65  1  0.23947500  0.23947500  0.89649900  1
  O  O66  1  0.00000000  0.76052500  0.10350100  1
  O  O67  1  0.00000000  0.76052500  0.89649900  1
  O  O68  1  0.26025200  0.26025200  0.30844900  1
  O  O69  1  0.00000000  0.73974800  0.30844900  1
  O  O70  1  0.26025200  0.26025200  0.69155100  1
  O  O71  1  0.00000000  0.73974800  0.69155100  1
  O  O72  1  0.42960800  0.57039200  0.84309800  1
  O  O73  1  0.85921600  0.42960800  0.15690200  1
  O  O74  1  0.20948400  0.00000000  0.50000000  1
  O  O75  1  0.23947500  0.00000000  0.10350100  1
  O  O76  1  0.23947500  0.00000000  0.89649900  1
  O  O77  1  0.40058700  0.31136300  0.19092700  1
  O  O78  1  0.40058700  0.31136300  0.80907300  1
  O  O79  1  0.08922500  0.68863700  0.19092700  1
  O  O80  1  0.08922500  0.68863700  0.80907300  1
  O  O81  1  0.26025200  0.00000000  0.30844900  1
  O  O82  1  0.26025200  0.00000000  0.69155100  1
  O  O83  1  0.46303300  0.33645800  0.00000000  1
  O  O84  1  0.12657500  0.66354200  0.00000000  1
  O  O85  1  0.57039200  0.42960800  0.15690200  1
  O  O86  1  0.14078400  0.57039200  0.84309800  1
  O  O87  1  0.40058700  0.08922500  0.19092700  1
  O  O88  1  0.40058700  0.08922500  0.80907300  1
  O  O89  1  0.31136300  0.91077500  0.19092700  1
  O  O90  1  0.31136300  0.91077500  0.80907300  1
  O  O91  1  0.82508800  0.91254400  0.35279300  1
  O  O92  1  0.91254400  0.08745600  0.64720700  1
  O  O93  1  0.82457200  0.91228600  0.00000000  1
  O  O94  1  0.51520000  0.25760000  0.13951800  1
  O  O95  1  0.51520000  0.25760000  0.86048200  1
  O  O96  1  0.25760000  0.74240000  0.86048200  1
  O  O97  1  0.25760000  0.74240000  0.13951800  1
  O  O98  1  0.46303300  0.12657500  0.00000000  1
  O  O99  1  0.33645800  0.87342500  0.00000000  1
  O  O100  1  0.91254400  0.82508800  0.64720700  1
  O  O101  1  0.57039200  0.14078400  0.84309800  1
  O  O102  1  0.42960800  0.85921600  0.15690200  1
  O  O103  1  0.08771400  0.17542800  0.00000000  1
  O  O104  1  0.08745600  0.17491200  0.35279300  1
  O  O105  1  0.82508800  0.91254400  0.64720700  1
  O  O106  1  0.91254400  0.08745600  0.35279300  1
  O  O107  1  0.91228600  0.08771400  0.00000000  1
loop_
_geom_bond_atom_site_label_1
_geom_bond_atom_site_label_2
_geom_bond_distance
_geom_bond_site_symmetry_2
O0 Si29 1.618508 1_565
O0 Si2 1.618508 1_555
O1 Si27 1.623851 1_555
O1 Si20 1.623851 1_555
O2 Si28 1.623852 1_565
O2 Si0 1.623852 1_555
O3 Si0 1.623851 1_655
O3 Si37 1.623851 1_555
O4 Si2 1.618508 1_655
O4 Si36 1.618508 1_555
O5 Si41 1.624241 1_555
O5 Si43 1.624241 1_555
O6 Si17 1.624241 1_555
O6 Si15 1.624241 1_555
O7 Si10 1.623851 1_555
O7 Si20 1.623851 1_555
O8 Si43 1.632518 1_555
O8 Si44 1.632518 1_554
O9 Si16 1.632518 1_555
O9 Si17 1.632518 1_554
O10 Si44 1.626648 1_555
O10 Si48 1.626648 1_555
O11 Si43 1.626648 1_555
O11 Si47 1.626648 1_555
O12 Si25 1.626648 1_555
O12 Si16 1.626648 1_555
O13 Si26 1.626648 1_555
O13 Si17 1.626648 1_555
O14 Si29 1.618508 1_555
O14 Si22 1.618508 1_555
O15 Si27 1.623852 1_565
O15 Si1 1.623852 1_555
O16 Si28 1.623851 1_555
O16 Si21 1.623851 1_555
O17 Si43 1.618638 1_555
O17 Si50 1.625398 1_555
O18 Si44 1.618638 1_555
O18 Si49 1.625398 1_555
O19 Si16 1.618648 1_555
O19 Si50 1.625389 1_565
O20 Si17 1.618648 1_555
O20 Si49 1.625389 1_565
O21 Si46 1.624241 1_555
O21 Si48 1.624241 1_555
O22 Si18 1.624241 1_555
O22 Si25 1.624241 1_555
O23 Si47 1.632518 1_555
O23 Si48 1.632518 1_554
O24 Si25 1.632518 1_555
O24 Si26 1.632518 1_554
O25 Si53 1.615104 1_555
O25 Si50 1.618442 1_555
O26 Si52 1.615104 1_555
O26 Si49 1.618442 1_555
O27 Si47 1.618638 1_555
O27 Si7 1.625398 1_655
O28 Si48 1.618638 1_555
O28 Si8 1.625398 1_655
O29 Si25 1.618652 1_555
O29 Si34 1.625381 1_555
O30 Si26 1.618652 1_555
O30 Si35 1.625381 1_555
O31 Si51 1.621582 1_555
O31 Si50 1.622946 1_555
O32 Si51 1.621582 1_556
O32 Si49 1.622946 1_555
O33 Si53 1.625238 1_555
O33 Si52 1.625238 1_555
O34 Si12 1.624241 1_555
O34 Si5 1.624241 1_555
O35 Si40 1.624241 1_555
O35 Si33 1.624241 1_555
O36 Si11 1.615104 1_555
O36 Si7 1.618442 1_555
O37 Si37 1.615104 1_555
O37 Si34 1.618442 1_555
O38 Si10 1.615104 1_555
O38 Si8 1.618442 1_555
O39 Si38 1.615104 1_555
O39 Si35 1.618442 1_555
O40 Si9 1.621582 1_555
O40 Si7 1.622946 1_555
O41 Si9 1.621582 1_556
O41 Si8 1.622946 1_555
O42 Si36 1.621582 1_555
O42 Si34 1.622946 1_555
O43 Si36 1.621582 1_556
O43 Si35 1.622946 1_555
O44 Si12 1.618648 1_555
O44 Si7 1.625389 1_555
O45 Si13 1.618648 1_555
O45 Si8 1.625389 1_555
O46 Si39 1.618652 1_555
O46 Si34 1.625381 1_555
O47 Si40 1.618652 1_555
O47 Si35 1.625381 1_555
O48 Si12 1.632518 1_555
O48 Si13 1.632518 1_554
O49 Si39 1.632518 1_555
O49 Si40 1.632518 1_554
O50 Si11 1.625238 1_555
O50 Si10 1.625238 1_555
O51 Si38 1.625238 1_555
O51 Si37 1.625238 1_555
O52 Si19 1.626648 1_555
O52 Si13 1.626648 1_555
O53 Si18 1.626648 1_555
O53 Si12 1.626648 1_555
O54 Si40 1.626648 1_555
O54 Si46 1.626648 1_555
O55 Si39 1.626648 1_555
O55 Si45 1.626648 1_555
O56 Si21 1.625238 1_555
O56 Si20 1.625238 1_555
O57 Si0 1.625238 1_555
O57 Si1 1.625238 1_555
O58 Si18 1.632518 1_555
O58 Si19 1.632518 1_554
O59 Si45 1.632518 1_555
O59 Si46 1.632518 1_554
O60 Si18 1.618652 1_555
O60 Si23 1.625381 1_555
O61 Si19 1.618652 1_555
O61 Si24 1.625381 1_555
O62 Si45 1.618648 1_555
O62 Si3 1.625389 1_655
O63 Si46 1.618648 1_555
O63 Si4 1.625389 1_655
O64 Si22 1.621582 1_555
O64 Si23 1.622946 1_555
O65 Si22 1.621582 1_556
O65 Si24 1.622946 1_555
O66 Si2 1.621582 1_555
O66 Si3 1.622946 1_555
O67 Si2 1.621582 1_556
O67 Si4 1.622946 1_555
O68 Si21 1.615104 1_555
O68 Si23 1.618442 1_555
O69 Si0 1.615104 1_555
O69 Si3 1.618442 1_555
O70 Si20 1.615104 1_555
O70 Si24 1.618442 1_555
O71 Si1 1.615104 1_555
O71 Si4 1.618442 1_555
O72 Si26 1.624241 1_555
O72 Si19 1.624241 1_555
O73 Si45 1.624241 1_555
O73 Si47 1.624241 1_555
O74 Si28 1.625238 1_555
O74 Si27 1.625238 1_555
O75 Si29 1.621582 1_555
O75 Si30 1.622946 1_555
O76 Si29 1.621582 1_556
O76 Si31 1.622946 1_555
O77 Si32 1.618652 1_555
O77 Si23 1.625381 1_555
O78 Si33 1.618652 1_555
O78 Si24 1.625381 1_555
O79 Si5 1.618638 1_555
O79 Si3 1.625398 1_555
O80 Si6 1.618638 1_555
O80 Si4 1.625398 1_555
O81 Si28 1.615104 1_555
O81 Si30 1.618442 1_555
O82 Si27 1.615104 1_555
O82 Si31 1.618442 1_555
O83 Si32 1.632518 1_555
O83 Si33 1.632518 1_554
O84 Si5 1.632518 1_555
O84 Si6 1.632518 1_554
O85 Si32 1.624241 1_555
O85 Si39 1.624241 1_555
O86 Si13 1.624241 1_555
O86 Si6 1.624241 1_555
O87 Si41 1.618648 1_555
O87 Si30 1.625389 1_555
O88 Si42 1.618648 1_555
O88 Si31 1.625389 1_555
O89 Si14 1.618638 1_555
O89 Si30 1.625398 1_565
O90 Si15 1.618638 1_555
O90 Si31 1.625398 1_565
O91 Si53 1.623851 1_565
O91 Si37 1.623851 1_555
O92 Si10 1.623852 1_655
O92 Si52 1.623852 1_555
O93 Si51 1.618508 1_565
O93 Si36 1.618508 1_555
O94 Si32 1.626648 1_555
O94 Si41 1.626648 1_555
O95 Si33 1.626648 1_555
O95 Si42 1.626648 1_555
O96 Si6 1.626648 1_555
O96 Si15 1.626648 1_555
O97 Si5 1.626648 1_555
O97 Si14 1.626648 1_555
O98 Si41 1.632518 1_555
O98 Si42 1.632518 1_554
O99 Si14 1.632518 1_555
O99 Si15 1.632518 1_554
O100 Si1 1.623851 1_655
O100 Si38 1.623851 1_555
O101 Si42 1.624241 1_555
O101 Si44 1.624241 1_555
O102 Si16 1.624241 1_555
O102 Si14 1.624241 1_555
O103 Si9 1.618508 1_555
O103 Si22 1.618508 1_555
O104 Si11 1.623851 1_555
O104 Si21 1.623851 1_555
O105 Si52 1.623851 1_565
O105 Si38 1.623851 1_555
O106 Si11 1.623852 1_655
O106 Si53 1.623852 1_555
O107 Si9 1.618508 1_655
O107 Si51 1.618508 1_555
