# generated using pymatgen
data_Hf3(Al2C3)2
_symmetry_space_group_name_H-M   'P 1'
_cell_length_a   16.41612069
_cell_length_b   16.41612069
_cell_length_c   16.41612038
_cell_angle_alpha   11.63791791
_cell_angle_beta   11.63791791
_cell_angle_gamma   11.63791438
_symmetry_Int_Tables_number   1
_chemical_formula_structural   Hf3(Al2C3)2
_chemical_formula_sum   'Hf3 Al4 C6'
_cell_volume   156.44335316
_cell_formula_units_Z   1
loop_
 _symmetry_equiv_pos_site_id
 _symmetry_equiv_pos_as_xyz
  1  'x, y, z'
loop_
 _atom_site_type_symbol
 _atom_site_label
 _atom_site_symmetry_multiplicity
 _atom_site_fract_x
 _atom_site_fract_y
 _atom_site_fract_z
 _atom_site_occupancy
  Hf  Hf0  1  0.38757100  0.38757100  0.38757100  1
  Hf  Hf1  1  0.61242900  0.61242900  0.61242900  1
  Hf  Hf2  1  0.00000000  0.00000000  0.00000000  1
  Al  Al0  1  0.76771100  0.76771100  0.76771100  1
  Al  Al1  1  0.14759500  0.14759500  0.14759500  1
  Al  Al2  1  0.23228900  0.23228900  0.23228900  1
  Al  Al3  1  0.85240500  0.85240500  0.85240500  1
  C  C0  1  0.69407700  0.69407700  0.69407700  1
  C  C1  1  0.80756700  0.80756700  0.80756700  1
  C  C2  1  0.91758100  0.91758100  0.91758100  1
  C  C3  1  0.30592300  0.30592300  0.30592300  1
  C  C4  1  0.08241900  0.08241900  0.08241900  1
  C  C5  1  0.19243300  0.19243300  0.19243300  1
loop_
_geom_bond_atom_site_label_1
_geom_bond_atom_site_label_2
_geom_bond_distance
_geom_bond_site_symmetry_2
Al0 C1 1.949346 1_555
Al0 C4 2.126803 1_566
Al0 C4 2.126803 1_656
Al0 C4 2.126803 1_665
Al1 C1 1.949527 1_544
Al1 C1 1.949527 1_454
Al1 C1 1.949527 1_445
Al1 C5 2.193014 1_555
Al2 C5 1.949346 1_555
Al2 C2 2.126803 1_544
Al2 C2 2.126803 1_454
Al2 C2 2.126803 1_445
Al3 C5 1.949527 1_566
Al3 C5 1.949527 1_656
Al3 C5 1.949527 1_665
Al3 C1 2.193014 1_555
C0 Hf0 2.327035 1_655
C0 Hf0 2.327035 1_565
C0 Hf0 2.327036 1_556
C0 Hf2 2.343232 1_566
C0 Hf2 2.343232 1_656
C0 Hf2 2.343232 1_665
C2 Hf1 2.365009 1_655
C2 Hf1 2.365009 1_565
C2 Hf1 2.365009 1_556
C3 Hf1 2.327035 1_545
C3 Hf1 2.327035 1_455
C3 Hf1 2.327036 1_554
C3 Hf2 2.343232 1_565
C3 Hf2 2.343232 1_655
C3 Hf2 2.343232 1_556
C4 Hf0 2.365009 1_545
C4 Hf0 2.365009 1_455
C4 Hf0 2.365009 1_554
