# generated using pymatgen
data_Co3W3N
_symmetry_space_group_name_H-M   'P 1'
_cell_length_a   7.81373499
_cell_length_b   7.81373499
_cell_length_c   7.81373499
_cell_angle_alpha   60.00000000
_cell_angle_beta   60.00000000
_cell_angle_gamma   60.00000000
_symmetry_Int_Tables_number   1
_chemical_formula_structural   Co3W3N
_chemical_formula_sum   'Co12 W12 N4'
_cell_volume   337.33471424
_cell_formula_units_Z   4
loop_
 _symmetry_equiv_pos_site_id
 _symmetry_equiv_pos_as_xyz
  1  'x, y, z'
loop_
 _atom_site_type_symbol
 _atom_site_label
 _atom_site_symmetry_multiplicity
 _atom_site_fract_x
 _atom_site_fract_y
 _atom_site_fract_z
 _atom_site_occupancy
  Co  Co0  1  0.33159700  0.00521000  0.33159700  1
  Co  Co1  1  0.91840300  0.91840300  0.24479000  1
  Co  Co2  1  0.24479000  0.91840300  0.91840300  1
  Co  Co3  1  0.91840300  0.91840300  0.91840300  1
  Co  Co4  1  0.00521000  0.33159700  0.33159700  1
  Co  Co5  1  0.33159700  0.33159700  0.33159700  1
  Co  Co6  1  0.33159700  0.33159700  0.00521000  1
  Co  Co7  1  0.91840300  0.24479000  0.91840300  1
  Co  Co8  1  0.12500000  0.62500000  0.12500000  1
  Co  Co9  1  0.12500000  0.12500000  0.62500000  1
  Co  Co10  1  0.62500000  0.12500000  0.12500000  1
  Co  Co11  1  0.12500000  0.12500000  0.12500000  1
  W  W0  1  0.95423800  0.95423800  0.54576200  1
  W  W1  1  0.70423800  0.29576200  0.29576200  1
  W  W2  1  0.29576200  0.70423800  0.70423800  1
  W  W3  1  0.70423800  0.70423800  0.29576200  1
  W  W4  1  0.70423800  0.29576200  0.70423800  1
  W  W5  1  0.29576200  0.70423800  0.29576200  1
  W  W6  1  0.54576200  0.95423800  0.54576200  1
  W  W7  1  0.54576200  0.95423800  0.95423800  1
  W  W8  1  0.95423800  0.54576200  0.54576200  1
  W  W9  1  0.95423800  0.54576200  0.95423800  1
  W  W10  1  0.29576200  0.29576200  0.70423800  1
  W  W11  1  0.54576200  0.54576200  0.95423800  1
  N  N0  1  0.62500000  0.12500000  0.62500000  1
  N  N1  1  0.62500000  0.62500000  0.12500000  1
  N  N2  1  0.12500000  0.62500000  0.62500000  1
  N  N3  1  0.62500000  0.62500000  0.62500000  1
loop_
_geom_bond_atom_site_label_1
_geom_bond_atom_site_label_2
_geom_bond_distance
_geom_bond_site_symmetry_2
Co0 Co9 2.381582 1_555
Co0 Co10 2.381582 1_555
Co0 Co11 2.381589 1_555
Co0 Co4 2.550302 1_555
Co0 Co6 2.550302 1_555
Co0 Co5 2.550302 1_555
Co0 W2 2.661341 1_545
Co0 W3 2.661341 1_545
Co0 W5 2.661345 1_545
Co0 W6 2.688257 1_545
Co0 W0 2.688264 1_445
Co0 W7 2.688264 1_544
Co1 Co8 2.381582 1_655
Co1 Co10 2.381582 1_565
Co1 Co11 2.381589 1_665
Co1 Co3 2.550302 1_554
Co1 Co2 2.550302 1_654
Co1 Co7 2.550302 1_564
Co1 W8 2.661341 1_555
Co1 W6 2.661341 1_555
Co1 W0 2.661345 1_555
Co1 W3 2.688257 1_555
Co1 W5 2.688264 1_655
Co1 W1 2.688264 1_565
Co2 Co9 2.381582 1_565
Co2 Co8 2.381582 1_556
Co2 Co3 2.550302 1_455
Co2 Co7 2.550302 1_465
Co2 W6 2.661341 1_555
Co2 W11 2.661341 1_555
Co2 W7 2.661345 1_555
Co2 W2 2.688257 1_555
Co2 W5 2.688264 1_556
Co2 W10 2.688264 1_565
Co3 Co8 2.381586 1_656
Co3 Co9 2.381586 1_665
Co3 Co7 2.550302 1_565
Co3 W0 2.661338 1_555
Co3 W9 2.661338 1_555
Co3 W7 2.661338 1_555
Co3 W3 2.688261 1_556
Co3 W2 2.688261 1_655
Co3 W4 2.688261 1_565
Co4 Co9 2.381582 1_555
Co4 Co8 2.381582 1_555
Co4 Co6 2.550302 1_555
Co4 Co5 2.550302 1_555
Co4 W3 2.661341 1_455
Co4 W4 2.661341 1_455
Co4 W1 2.661345 1_455
Co4 W8 2.688257 1_455
Co4 W0 2.688264 1_445
Co4 W9 2.688264 1_454
Co5 Co8 2.381586 1_555
Co5 Co9 2.381586 1_555
Co5 Co6 2.550302 1_555
Co5 W1 2.661338 1_555
Co5 W5 2.661338 1_555
Co5 W10 2.661338 1_555
Co5 W8 2.688261 1_455
Co5 W6 2.688261 1_545
Co5 W11 2.688261 1_554
Co6 Co8 2.381582 1_555
Co6 W4 2.661341 1_554
Co6 W2 2.661341 1_554
Co6 W10 2.661345 1_554
Co6 W11 2.688257 1_554
Co6 W9 2.688264 1_454
Co6 W7 2.688264 1_544
Co7 Co9 2.381582 1_655
Co7 W11 2.661341 1_555
Co7 W8 2.661341 1_555
Co7 W9 2.661345 1_555
Co7 W4 2.688257 1_555
Co7 W1 2.688264 1_556
Co7 W10 2.688264 1_655
Co8 W3 2.715982 1_455
Co8 W9 2.715982 1_454
Co8 W8 2.715982 1_455
Co8 W2 2.715982 1_554
Co8 W11 2.715982 1_554
Co8 W5 2.715982 1_555
Co9 W4 2.715982 1_455
Co9 W2 2.715982 1_545
Co9 W6 2.715982 1_545
Co9 W8 2.715982 1_455
Co9 W0 2.715982 1_445
Co9 W10 2.715982 1_555
Co10 Co7 2.381582 1_554
Co10 Co6 2.381582 1_555
Co10 Co5 2.381586 1_555
Co10 Co3 2.381586 1_544
Co10 W11 2.715982 1_554
Co10 W4 2.715982 1_554
Co10 W6 2.715982 1_545
Co10 W3 2.715982 1_545
Co10 W7 2.715982 1_544
Co10 W1 2.715982 1_555
Co11 Co6 2.381589 1_555
Co11 Co4 2.381589 1_555
Co11 Co2 2.381589 1_544
Co11 Co7 2.381589 1_454
Co11 W1 2.715982 1_455
Co11 W5 2.715982 1_545
Co11 W10 2.715982 1_554
Co11 W9 2.715982 1_454
Co11 W0 2.715982 1_445
Co11 W7 2.715982 1_544
N0 W10 2.140697 1_555
N0 W1 2.140697 1_555
N0 W6 2.140697 1_545
N0 W7 2.140697 1_545
N0 W0 2.140697 1_545
N0 W4 2.140697 1_555
N1 W1 2.140697 1_555
N1 W5 2.140697 1_555
N1 W9 2.140697 1_554
N1 W7 2.140697 1_554
N1 W3 2.140697 1_555
N1 W11 2.140697 1_554
N2 W10 2.140697 1_555
N2 W5 2.140697 1_555
N2 W8 2.140697 1_455
N2 W9 2.140697 1_455
N2 W0 2.140697 1_455
N2 W2 2.140697 1_555
N3 W2 2.140697 1_555
N3 W3 2.140697 1_555
N3 W4 2.140697 1_555
N3 W11 2.140697 1_555
N3 W6 2.140697 1_555
N3 W8 2.140697 1_555
