# generated using pymatgen
data_CuH5C5NCl
_symmetry_space_group_name_H-M   'P 1'
_cell_length_a   7.71157100
_cell_length_b   6.91666600
_cell_length_c   13.91587867
_cell_angle_alpha   67.50859287
_cell_angle_beta   90.00000000
_cell_angle_gamma   90.00000000
_symmetry_Int_Tables_number   1
_chemical_formula_structural   CuH5C5NCl
_chemical_formula_sum   'Cu4 H20 C20 N4 Cl4'
_cell_volume   685.79232195
_cell_formula_units_Z   4
loop_
 _symmetry_equiv_pos_site_id
 _symmetry_equiv_pos_as_xyz
  1  'x, y, z'
loop_
 _atom_site_type_symbol
 _atom_site_label
 _atom_site_symmetry_multiplicity
 _atom_site_fract_x
 _atom_site_fract_y
 _atom_site_fract_z
 _atom_site_occupancy
  Cu  Cu0  1  0.36320000  0.47383000  0.08915300  1
  Cu  Cu1  1  0.86320000  0.52617000  0.41084700  1
  Cu  Cu2  1  0.63680000  0.52617000  0.91084700  1
  Cu  Cu3  1  0.13680000  0.47383000  0.58915300  1
  H  H0  1  0.30251200  0.96413700  0.95696000  1
  H  H1  1  0.27885300  0.57892900  0.73131400  1
  H  H2  1  0.13319900  0.78850800  0.64619300  1
  H  H3  1  0.72114700  0.42107100  0.26868600  1
  H  H4  1  0.54243500  0.39247500  0.42326200  1
  H  H5  1  0.22114700  0.57892900  0.23131400  1
  H  H6  1  0.19748800  0.96413700  0.45696000  1
  H  H7  1  0.69748800  0.03586300  0.04304000  1
  H  H8  1  0.95756500  0.39247500  0.92326200  1
  H  H9  1  0.45971200  0.18986400  0.60713100  1
  H  H10  1  0.36680100  0.78850800  0.14619300  1
  H  H11  1  0.77885300  0.42107100  0.76868600  1
  H  H12  1  0.86680100  0.21149200  0.35380700  1
  H  H13  1  0.04243500  0.60752500  0.07673800  1
  H  H14  1  0.45756500  0.60752500  0.57673800  1
  H  H15  1  0.54028800  0.81013600  0.39286900  1
  H  H16  1  0.80251200  0.03586300  0.54304000  1
  H  H17  1  0.04028800  0.18986400  0.10713100  1
  H  H18  1  0.63319900  0.21149200  0.85380700  1
  H  H19  1  0.95971200  0.81013600  0.89286900  1
  C  C0  1  0.07713300  0.90361900  0.88511800  1
  C  C1  1  0.90019400  0.92751200  0.21020300  1
  C  C2  1  0.23611500  0.67556200  0.65279600  1
  C  C3  1  0.31043100  0.86312400  0.46610200  1
  C  C4  1  0.09980600  0.07248800  0.78979700  1
  C  C5  1  0.16222500  0.69834400  0.06654600  1
  C  C6  1  0.83777500  0.30165600  0.93345400  1
  C  C7  1  0.42286700  0.90361900  0.38511800  1
  C  C8  1  0.33777500  0.69834400  0.56654600  1
  C  C9  1  0.26388500  0.67556200  0.15279600  1
  C  C10  1  0.59980600  0.92751200  0.71020300  1
  C  C11  1  0.66222500  0.30165600  0.43345400  1
  C  C12  1  0.92286700  0.09638100  0.11488200  1
  C  C13  1  0.81043100  0.13687600  0.03389800  1
  C  C14  1  0.68956900  0.13687600  0.53389800  1
  C  C15  1  0.73611500  0.32443800  0.84720400  1
  C  C16  1  0.40019400  0.07248800  0.28979700  1
  C  C17  1  0.18956900  0.86312400  0.96610200  1
  C  C18  1  0.57713300  0.09638100  0.61488200  1
  C  C19  1  0.76388500  0.32443800  0.34720400  1
  N  N0  1  0.38661900  0.21436100  0.21003700  1
  N  N1  1  0.61338100  0.78563900  0.78996300  1
  N  N2  1  0.88661900  0.78563900  0.28996300  1
  N  N3  1  0.11338100  0.21436100  0.71003700  1
  Cl  Cl0  1  0.66014900  0.61907900  0.05259500  1
  Cl  Cl1  1  0.83985100  0.61907900  0.55259500  1
  Cl  Cl2  1  0.16014900  0.38092100  0.44740500  1
  Cl  Cl3  1  0.33985100  0.38092100  0.94740500  1
loop_
_geom_bond_atom_site_label_1
_geom_bond_atom_site_label_2
_geom_bond_distance
_geom_bond_site_symmetry_2
Cu0 N0 1.942535 1_555
Cu1 N2 1.942535 1_555
Cu2 N1 1.942535 1_555
Cu3 N3 1.942535 1_555
C0 H19 1.093748 1_455
C0 C17 1.363373 1_555
C0 C4 1.403201 1_565
C1 N2 1.171548 1_555
C1 C12 1.403201 1_565
C2 H1 1.091092 1_555
C2 H2 1.092558 1_555
C2 Cu3 2.064776 1_555
C3 H6 1.093119 1_555
C3 C7 1.363373 1_555
C3 C8 1.441649 1_555
C4 N3 1.171548 1_555
C5 H13 1.095396 1_555
C5 Cu0 2.130409 1_555
C6 H8 1.095396 1_555
C6 Cu2 2.130409 1_555
C7 H15 1.093748 1_555
C8 H14 1.095396 1_555
C8 Cu3 2.130409 1_555
C9 H5 1.091092 1_555
C9 H10 1.092558 1_555
C9 Cu0 2.064776 1_555
C10 N1 1.171548 1_555
C10 C18 1.403201 1_565
C11 H4 1.095396 1_555
C11 C14 1.441649 1_555
C11 Cu1 2.130409 1_555
C12 H17 1.093748 1_655
C12 C13 1.363373 1_555
C13 H7 1.093119 1_555
C13 C6 1.441649 1_554
C14 H16 1.093119 1_555
C14 C18 1.363373 1_555
C15 H11 1.091092 1_555
C15 H18 1.092558 1_555
C15 Cu2 2.064776 1_555
C16 N0 1.171548 1_555
C16 C7 1.403201 1_545
C17 H0 1.093119 1_555
C17 C5 1.441649 1_556
C18 H9 1.093748 1_555
C19 H3 1.091092 1_555
C19 H12 1.092558 1_555
C19 Cu1 2.064776 1_555
Cl0 Cu2 2.303509 1_554
Cl0 Cu0 2.474049 1_555
Cl1 Cu1 2.303509 1_555
Cl1 Cu3 2.474049 1_655
Cl2 Cu3 2.303509 1_555
Cl2 Cu1 2.474049 1_455
Cl3 Cu0 2.303509 1_556
Cl3 Cu2 2.474049 1_555
