# generated using pymatgen
data_Rb2Mo15S19
_symmetry_space_group_name_H-M   'P 1'
_cell_length_a   18.29644294
_cell_length_b   18.29644294
_cell_length_c   18.29644239
_cell_angle_alpha   32.86252871
_cell_angle_beta   32.86252871
_cell_angle_gamma   32.86252784
_symmetry_Int_Tables_number   1
_chemical_formula_structural   Rb2Mo15S19
_chemical_formula_sum   'Rb4 Mo30 S38'
_cell_volume   1604.54301241
_cell_formula_units_Z   2
loop_
 _symmetry_equiv_pos_site_id
 _symmetry_equiv_pos_as_xyz
  1  'x, y, z'
loop_
 _atom_site_type_symbol
 _atom_site_label
 _atom_site_symmetry_multiplicity
 _atom_site_fract_x
 _atom_site_fract_y
 _atom_site_fract_z
 _atom_site_occupancy
  Rb  Rb0  1  0.14324900  0.14324900  0.14324900  1
  Rb  Rb1  1  0.35675100  0.35675100  0.35675100  1
  Rb  Rb2  1  0.64324900  0.64324900  0.64324900  1
  Rb  Rb3  1  0.85675100  0.85675100  0.85675100  1
  Mo  Mo0  1  0.77947300  0.18987300  0.84431800  1
  Mo  Mo1  1  0.81012700  0.15568200  0.22052700  1
  Mo  Mo2  1  0.18987300  0.84431800  0.77947300  1
  Mo  Mo3  1  0.38248100  0.49163900  0.68887300  1
  Mo  Mo4  1  0.09834000  0.25000000  0.40166000  1
  Mo  Mo5  1  0.27947300  0.34431800  0.68987300  1
  Mo  Mo6  1  0.31112700  0.61751900  0.50836100  1
  Mo  Mo7  1  0.88248100  0.18887300  0.99163900  1
  Mo  Mo8  1  0.84431800  0.77947300  0.18987300  1
  Mo  Mo9  1  0.11751900  0.81112700  0.00836100  1
  Mo  Mo10  1  0.34431800  0.68987300  0.27947300  1
  Mo  Mo11  1  0.25000000  0.40166000  0.09834000  1
  Mo  Mo12  1  0.50836100  0.31112700  0.61751900  1
  Mo  Mo13  1  0.31012700  0.72052700  0.65568200  1
  Mo  Mo14  1  0.75000000  0.59834000  0.90166000  1
  Mo  Mo15  1  0.61751900  0.50836100  0.31112700  1
  Mo  Mo16  1  0.68987300  0.27947300  0.34431800  1
  Mo  Mo17  1  0.00836100  0.11751900  0.81112700  1
  Mo  Mo18  1  0.15568200  0.22052700  0.81012700  1
  Mo  Mo19  1  0.59834000  0.90166000  0.75000000  1
  Mo  Mo20  1  0.40166000  0.09834000  0.25000000  1
  Mo  Mo21  1  0.18887300  0.99163900  0.88248100  1
  Mo  Mo22  1  0.22052700  0.81012700  0.15568200  1
  Mo  Mo23  1  0.49163900  0.68887300  0.38248100  1
  Mo  Mo24  1  0.81112700  0.00836100  0.11751900  1
  Mo  Mo25  1  0.72052700  0.65568200  0.31012700  1
  Mo  Mo26  1  0.90166000  0.75000000  0.59834000  1
  Mo  Mo27  1  0.65568200  0.31012700  0.72052700  1
  Mo  Mo28  1  0.68887300  0.38248100  0.49163900  1
  Mo  Mo29  1  0.99163900  0.88248100  0.18887300  1
  S  S0  1  0.27632400  0.95422600  0.71087500  1
  S  S1  1  0.21427600  0.21427600  0.21427600  1
  S  S2  1  0.95422600  0.71087500  0.27632400  1
  S  S3  1  0.21087500  0.45422600  0.77632400  1
  S  S4  1  0.43596500  0.43596500  0.43596500  1
  S  S5  1  0.28572400  0.28572400  0.28572400  1
  S  S6  1  0.05100600  0.70253000  0.39524900  1
  S  S7  1  0.29747000  0.60475100  0.94899400  1
  S  S8  1  0.55100600  0.89524900  0.20253000  1
  S  S9  1  0.39524900  0.05100600  0.70253000  1
  S  S10  1  0.47719200  0.75000000  0.02280800  1
  S  S11  1  0.54577400  0.22367600  0.78912500  1
  S  S12  1  0.20253000  0.55100600  0.89524900  1
  S  S13  1  0.77632400  0.21087500  0.45422600  1
  S  S14  1  0.10475100  0.79747000  0.44899400  1
  S  S15  1  0.02280800  0.47719200  0.75000000  1
  S  S16  1  0.71087500  0.27632400  0.95422600  1
  S  S17  1  0.78912500  0.54577400  0.22367600  1
  S  S18  1  0.71427600  0.71427600  0.71427600  1
  S  S19  1  0.56403500  0.56403500  0.56403500  1
  S  S20  1  0.25000000  0.97719200  0.52280800  1
  S  S21  1  0.78572400  0.78572400  0.78572400  1
  S  S22  1  0.44899400  0.10475100  0.79747000  1
  S  S23  1  0.28912500  0.72367600  0.04577400  1
  S  S24  1  0.52280800  0.25000000  0.97719200  1
  S  S25  1  0.93596500  0.93596500  0.93596500  1
  S  S26  1  0.75000000  0.02280800  0.47719200  1
  S  S27  1  0.89524900  0.20253000  0.55100600  1
  S  S28  1  0.94899400  0.29747000  0.60475100  1
  S  S29  1  0.72367600  0.04577400  0.28912500  1
  S  S30  1  0.06403500  0.06403500  0.06403500  1
  S  S31  1  0.04577400  0.28912500  0.72367600  1
  S  S32  1  0.60475100  0.94899400  0.29747000  1
  S  S33  1  0.45422600  0.77632400  0.21087500  1
  S  S34  1  0.97719200  0.52280800  0.25000000  1
  S  S35  1  0.22367600  0.78912500  0.54577400  1
  S  S36  1  0.70253000  0.39524900  0.05100600  1
  S  S37  1  0.79747000  0.44899400  0.10475100  1
loop_
_geom_bond_atom_site_label_1
_geom_bond_atom_site_label_2
_geom_bond_distance
_geom_bond_site_symmetry_2
Rb0 S33 3.560372 1_545
Rb0 S13 3.560372 1_455
Rb0 S3 3.560372 1_554
Rb0 S22 3.636796 1_554
Rb0 S37 3.636796 1_455
Rb0 S14 3.636796 1_545
Rb0 S1 3.684801 1_555
Rb1 S29 3.560372 1_555
Rb1 S23 3.560372 1_555
Rb1 S31 3.560372 1_555
Rb1 S9 3.636796 1_555
Rb1 S6 3.636796 1_555
Rb1 S36 3.636796 1_555
Rb1 S5 3.684801 1_555
Rb2 S0 3.560372 1_555
Rb2 S16 3.560372 1_555
Rb2 S2 3.560372 1_555
Rb2 S32 3.636796 1_555
Rb2 S28 3.636796 1_555
Rb2 S7 3.636796 1_555
Rb2 S18 3.684801 1_555
Rb3 S11 3.560372 1_565
Rb3 S35 3.560372 1_655
Rb3 S17 3.560372 1_556
Rb3 S8 3.636796 1_556
Rb3 S12 3.636796 1_655
Rb3 S27 3.636796 1_565
Rb3 S21 3.684801 1_555
Mo0 S25 2.285789 1_545
Mo0 S28 2.372899 1_555
Mo0 S24 2.410019 1_555
Mo0 S16 2.426807 1_555
Mo1 S30 2.285789 1_655
Mo1 S36 2.372899 1_555
Mo1 S26 2.410019 1_555
Mo1 S29 2.426807 1_555
Mo2 S25 2.285789 1_455
Mo2 S7 2.372899 1_555
Mo2 S20 2.410019 1_555
Mo2 S0 2.426807 1_555
Mo3 S11 2.412231 1_555
Mo3 S3 2.493566 1_555
Mo3 S12 2.504947 1_555
Mo3 S35 2.682214 1_555
Mo3 S19 2.751147 1_555
Mo4 S1 2.428806 1_555
Mo4 S5 2.428806 1_555
Mo4 S20 2.450569 1_545
Mo4 S34 2.450569 1_455
Mo4 S28 2.530956 1_455
Mo4 S27 2.530956 1_455
Mo5 S4 2.285789 1_555
Mo5 S22 2.372899 1_555
Mo5 S15 2.410019 1_555
Mo5 S3 2.426807 1_555
Mo6 S3 2.412231 1_555
Mo6 S35 2.493566 1_555
Mo6 S14 2.504947 1_555
Mo6 S33 2.682214 1_555
Mo6 S4 2.751146 1_555
Mo7 S31 2.412231 1_655
Mo7 S16 2.493566 1_555
Mo7 S36 2.504947 1_556
Mo7 S29 2.682214 1_556
Mo7 S30 2.751146 1_656
Mo8 S25 2.285789 1_554
Mo8 S32 2.372899 1_555
Mo8 S34 2.410019 1_555
Mo8 S2 2.426807 1_555
Mo9 S2 2.412231 1_455
Mo9 S23 2.493566 1_555
Mo9 S7 2.504947 1_554
Mo9 S0 2.682214 1_554
Mo9 S25 2.751146 1_454
Mo10 S4 2.285789 1_555
Mo10 S14 2.372899 1_555
Mo10 S10 2.410019 1_555
Mo10 S33 2.426807 1_555
Mo11 S5 2.428806 1_555
Mo11 S1 2.428806 1_555
Mo11 S24 2.450569 1_554
Mo11 S34 2.450569 1_455
Mo11 S12 2.530956 1_554
Mo11 S7 2.530956 1_554
Mo12 S13 2.412231 1_555
Mo12 S11 2.493566 1_555
Mo12 S22 2.504947 1_555
Mo12 S3 2.682214 1_555
Mo12 S4 2.751146 1_555
Mo13 S19 2.285789 1_555
Mo13 S12 2.372899 1_555
Mo13 S20 2.410019 1_555
Mo13 S35 2.426807 1_555
Mo14 S18 2.428806 1_555
Mo14 S21 2.428806 1_555
Mo14 S10 2.450569 1_556
Mo14 S15 2.450569 1_655
Mo14 S37 2.530956 1_556
Mo14 S36 2.530956 1_556
Mo15 S33 2.412231 1_555
Mo15 S17 2.493566 1_555
Mo15 S37 2.504947 1_555
Mo15 S13 2.682214 1_555
Mo15 S4 2.751147 1_555
Mo16 S4 2.285789 1_555
Mo16 S37 2.372899 1_555
Mo16 S26 2.410019 1_555
Mo16 S13 2.426807 1_555
Mo17 S0 2.412231 1_545
Mo17 S31 2.493566 1_555
Mo17 S28 2.504947 1_455
Mo17 S16 2.682214 1_455
Mo17 S25 2.751147 1_445
Mo18 S30 2.285789 1_556
Mo18 S9 2.372899 1_555
Mo18 S15 2.410019 1_555
Mo18 S31 2.426807 1_555
Mo19 S21 2.428806 1_555
Mo19 S18 2.428806 1_555
Mo19 S10 2.450569 1_556
Mo19 S26 2.450569 1_565
Mo19 S9 2.530956 1_565
Mo19 S22 2.530956 1_565
Mo20 S5 2.428806 1_555
Mo20 S1 2.428806 1_555
Mo20 S24 2.450569 1_554
Mo20 S20 2.450569 1_545
Mo20 S8 2.530956 1_545
Mo20 S32 2.530956 1_545
Mo21 S23 2.412231 1_556
Mo21 S0 2.493566 1_555
Mo21 S9 2.504947 1_565
Mo21 S31 2.682214 1_565
Mo21 S30 2.751146 1_566
Mo22 S30 2.285789 1_565
Mo22 S6 2.372899 1_555
Mo22 S10 2.410019 1_555
Mo22 S23 2.426807 1_555
Mo23 S35 2.412231 1_555
Mo23 S33 2.493566 1_555
Mo23 S8 2.504947 1_555
Mo23 S17 2.682214 1_555
Mo23 S19 2.751146 1_555
Mo24 S16 2.412231 1_554
Mo24 S29 2.493566 1_555
Mo24 S32 2.504947 1_545
Mo24 S2 2.682214 1_545
Mo24 S25 2.751146 1_544
Mo25 S19 2.285789 1_555
Mo25 S8 2.372899 1_555
Mo25 S34 2.410019 1_555
Mo25 S17 2.426807 1_555
Mo26 S21 2.428806 1_555
Mo26 S18 2.428806 1_555
Mo26 S26 2.450569 1_565
Mo26 S15 2.450569 1_655
Mo26 S6 2.530956 1_655
Mo26 S14 2.530956 1_655
Mo27 S19 2.285789 1_555
Mo27 S27 2.372899 1_555
Mo27 S24 2.410019 1_555
Mo27 S11 2.426807 1_555
Mo28 S17 2.412231 1_555
Mo28 S13 2.493566 1_555
Mo28 S27 2.504947 1_555
Mo28 S11 2.682214 1_555
Mo28 S19 2.751146 1_555
Mo29 S29 2.412231 1_565
Mo29 S2 2.493566 1_555
Mo29 S6 2.504947 1_655
Mo29 S23 2.682214 1_655
Mo29 S30 2.751147 1_665
