# generated using pymatgen
data_Na2MnP2O7
_symmetry_space_group_name_H-M   'P 1'
_cell_length_a   5.38788130
_cell_length_b   9.58864464
_cell_length_c   12.93207899
_cell_angle_alpha   108.87373058
_cell_angle_beta   97.37597152
_cell_angle_gamma   73.96352991
_symmetry_Int_Tables_number   1
_chemical_formula_structural   Na2MnP2O7
_chemical_formula_sum   'Na8 Mn4 P8 O28'
_cell_volume   607.02170930
_cell_formula_units_Z   4
loop_
 _symmetry_equiv_pos_site_id
 _symmetry_equiv_pos_as_xyz
  1  'x, y, z'
loop_
 _atom_site_type_symbol
 _atom_site_label
 _atom_site_symmetry_multiplicity
 _atom_site_fract_x
 _atom_site_fract_y
 _atom_site_fract_z
 _atom_site_occupancy
  Na  Na0  1  0.41272100  0.73014800  0.79399300  1
  Na  Na1  1  0.91273400  0.73014900  0.29398200  1
  Na  Na2  1  0.58729400  0.26984500  0.20602300  1
  Na  Na3  1  0.08727900  0.26985400  0.70599900  1
  Na  Na4  1  0.78199400  0.96602400  0.87447500  1
  Na  Na5  1  0.28196500  0.96601800  0.37445000  1
  Na  Na6  1  0.21801500  0.03399200  0.12555600  1
  Na  Na7  1  0.71804500  0.03398500  0.62553000  1
  Mn  Mn0  1  0.10679500  0.36337100  0.38155600  1
  Mn  Mn1  1  0.39305400  0.63657300  0.11844400  1
  Mn  Mn2  1  0.60719500  0.36309500  0.88130300  1
  Mn  Mn3  1  0.89278100  0.63690900  0.61870800  1
  P  P0  1  0.51908600  0.61122200  0.38644600  1
  P  P1  1  0.01906800  0.61123000  0.88647400  1
  P  P2  1  0.48093500  0.38877600  0.61352500  1
  P  P3  1  0.98091500  0.38877000  0.11355000  1
  P  P4  1  0.30068600  0.86535000  0.59743500  1
  P  P5  1  0.80070800  0.86534700  0.09747200  1
  P  P6  1  0.69928000  0.13465500  0.40253100  1
  P  P7  1  0.19932900  0.13465300  0.90256400  1
  O  O0  1  0.56110900  0.83202600  0.66123200  1
  O  O1  1  0.06121500  0.83195500  0.16121100  1
  O  O2  1  0.43879100  0.16805000  0.33878900  1
  O  O3  1  0.93889100  0.16798500  0.83877100  1
  O  O4  1  0.98043600  0.33058000  0.21120200  1
  O  O5  1  0.48039300  0.33056200  0.71116400  1
  O  O6  1  0.01961300  0.66944300  0.78883300  1
  O  O7  1  0.51958000  0.66942100  0.28879600  1
  O  O8  1  0.33829500  0.75970200  0.46877800  1
  O  O9  1  0.83830500  0.75969900  0.96877500  1
  O  O10  1  0.66171400  0.24030600  0.53122400  1
  O  O11  1  0.16172600  0.24030300  0.03122100  1
  O  O12  1  0.39058600  0.48104200  0.35974400  1
  O  O13  1  0.89058800  0.48104700  0.85972700  1
  O  O14  1  0.60941100  0.51895600  0.64026900  1
  O  O15  1  0.10941700  0.51895100  0.14025600  1
  O  O16  1  0.20611800  0.42063900  0.55919600  1
  O  O17  1  0.70620400  0.42056200  0.05913600  1
  O  O18  1  0.79381000  0.57944000  0.44086000  1
  O  O19  1  0.29387900  0.57936000  0.94079800  1
  O  O20  1  0.27066000  0.97362100  0.91139000  1
  O  O21  1  0.77069100  0.97364000  0.41139700  1
  O  O22  1  0.72934500  0.02636300  0.08860500  1
  O  O23  1  0.22934100  0.02638500  0.58860900  1
  O  O24  1  0.08686700  0.82072400  0.63690300  1
  O  O25  1  0.58687400  0.82069200  0.13688600  1
  O  O26  1  0.91312500  0.17930200  0.36311300  1
  O  O27  1  0.41313500  0.17927900  0.86309600  1
loop_
_geom_bond_atom_site_label_1
_geom_bond_atom_site_label_2
_geom_bond_distance
_geom_bond_site_symmetry_2
Na0 O20 2.314957 1_555
Na0 O6 2.334310 1_555
Na0 O14 2.434466 1_555
Na0 O0 2.531828 1_555
Na0 O24 2.710518 1_555
Na0 O19 2.950299 1_555
Na0 O9 3.010137 1_555
Na1 O21 2.315152 1_555
Na1 O7 2.334603 1_555
Na1 O15 2.434495 1_655
Na1 O1 2.531714 1_655
Na1 O25 2.710472 1_555
Na1 O18 2.950701 1_555
Na1 O8 3.010165 1_655
Na2 O22 2.315112 1_555
Na2 O4 2.334588 1_555
Na2 O12 2.434494 1_555
Na2 O2 2.531647 1_555
Na2 O26 2.710340 1_555
Na2 O17 2.950823 1_555
Na2 O11 3.010233 1_555
Na3 O23 2.314897 1_555
Na3 O5 2.334345 1_555
Na3 O13 2.434503 1_455
Na3 O3 2.531888 1_455
Na3 O27 2.710589 1_555
Na3 O16 2.950249 1_555
Na3 O10 3.010008 1_455
Na4 O27 2.454981 1_565
Na4 O3 2.502222 1_565
Na4 O9 2.574384 1_555
Na4 O20 2.631725 1_655
Na4 O22 2.675417 1_566
Na4 O6 2.695881 1_655
Na4 O20 2.833299 1_555
Na4 O0 2.895134 1_555
Na5 O26 2.454975 1_465
Na5 O2 2.502367 1_565
Na5 O8 2.574548 1_555
Na5 O21 2.632121 1_555
Na5 O23 2.675720 1_565
Na5 O7 2.696018 1_555
Na5 O21 2.833026 1_455
Na5 O1 2.894951 1_555
Na6 O25 2.455110 1_545
Na6 O1 2.502294 1_545
Na6 O11 2.574603 1_555
Na6 O22 2.631842 1_455
Na6 O20 2.675824 1_544
Na6 O4 2.695890 1_455
Na6 O22 2.833319 1_555
Na6 O2 2.894938 1_555
Na7 O24 2.454886 1_645
Na7 O0 2.502312 1_545
Na7 O10 2.574388 1_555
Na7 O23 2.631937 1_555
Na7 O21 2.675444 1_545
Na7 O5 2.695879 1_555
Na7 O23 2.833110 1_655
Na7 O3 2.895033 1_555
Mn0 O4 2.168118 1_455
Mn0 O2 2.178554 1_555
Mn0 O16 2.212660 1_555
Mn0 O26 2.223091 1_455
Mn0 O12 2.227197 1_555
Mn0 O18 2.257887 1_455
Mn1 O7 2.168242 1_555
Mn1 O1 2.178355 1_555
Mn1 O19 2.212602 1_554
Mn1 O25 2.224065 1_555
Mn1 O15 2.226151 1_555
Mn1 O17 2.258038 1_555
Mn2 O5 2.166311 1_555
Mn2 O3 2.176198 1_555
Mn2 O17 2.214635 1_556
Mn2 O27 2.222996 1_555
Mn2 O13 2.226223 1_555
Mn2 O19 2.260319 1_555
Mn3 O6 2.166178 1_655
Mn3 O0 2.176147 1_555
Mn3 O18 2.214779 1_555
Mn3 O24 2.223115 1_655
Mn3 O14 2.226053 1_555
Mn3 O16 2.260439 1_655
O0 P4 1.541803 1_555
O1 P5 1.541878 1_455
O2 P6 1.541825 1_555
O3 P7 1.541851 1_655
O4 P3 1.537401 1_555
O5 P2 1.537458 1_555
O6 P1 1.537480 1_555
O7 P0 1.537448 1_555
O8 P0 1.621361 1_555
O8 P4 1.648703 1_555
O9 P1 1.621061 1_655
O9 P5 1.649125 1_556
O10 P2 1.621104 1_555
O10 P6 1.649076 1_555
O11 P3 1.621329 1_455
O11 P7 1.648705 1_554
O12 P0 1.514574 1_555
O13 P1 1.514472 1_655
O14 P2 1.514436 1_555
O15 P3 1.514584 1_455
O16 P2 1.549586 1_555
O17 P3 1.549484 1_555
O18 P0 1.549536 1_555
O19 P1 1.549539 1_555
O20 P7 1.523090 1_565
O21 P6 1.523107 1_565
O22 P5 1.523131 1_545
O23 P4 1.523115 1_545
O24 P4 1.528208 1_555
O25 P5 1.528081 1_555
O26 P6 1.528114 1_555
O27 P7 1.528147 1_555
