# generated using pymatgen
data_K2LiVO4
_symmetry_space_group_name_H-M   'P 1'
_cell_length_a   5.78535652
_cell_length_b   5.78535652
_cell_length_c   7.63082717
_cell_angle_alpha   89.71380348
_cell_angle_beta   89.71380348
_cell_angle_gamma   85.71945246
_symmetry_Int_Tables_number   1
_chemical_formula_structural   K2LiVO4
_chemical_formula_sum   'K4 Li2 V2 O8'
_cell_volume   254.68809546
_cell_formula_units_Z   2
loop_
 _symmetry_equiv_pos_site_id
 _symmetry_equiv_pos_as_xyz
  1  'x, y, z'
loop_
 _atom_site_type_symbol
 _atom_site_label
 _atom_site_symmetry_multiplicity
 _atom_site_fract_x
 _atom_site_fract_y
 _atom_site_fract_z
 _atom_site_occupancy
  K  K0  1  0.29710200  0.29710200  0.17765800  1
  K  K1  1  0.21852100  0.78147900  0.50000000  1
  K  K2  1  0.70289800  0.70289800  0.82234200  1
  K  K3  1  0.78147900  0.21852100  0.50000000  1
  Li  Li0  1  0.17754900  0.82245100  0.00000000  1
  Li  Li1  1  0.82245100  0.17754900  0.00000000  1
  V  V0  1  0.28561700  0.28561700  0.75538100  1
  V  V1  1  0.71438300  0.71438300  0.24461900  1
  O  O0  1  0.79399300  0.43406900  0.17153400  1
  O  O1  1  0.90603200  0.90603200  0.15791100  1
  O  O2  1  0.43406900  0.79399300  0.17153400  1
  O  O3  1  0.09396800  0.09396800  0.84208900  1
  O  O4  1  0.72233900  0.72233900  0.47311400  1
  O  O5  1  0.56593100  0.20600700  0.82846600  1
  O  O6  1  0.20600700  0.56593100  0.82846600  1
  O  O7  1  0.27766100  0.27766100  0.52688600  1
loop_
_geom_bond_atom_site_label_1
_geom_bond_atom_site_label_2
_geom_bond_distance
_geom_bond_site_symmetry_2
K0 O7 2.668873 1_555
K1 O2 2.796985 1_555
K1 O6 2.796985 1_555
K1 O4 2.915626 1_555
K1 O7 2.915626 1_555
K1 O7 2.924490 1_565
K1 O4 2.924490 1_455
K1 O1 3.230447 1_455
K1 O3 3.230447 1_565
K2 O4 2.668873 1_555
K3 O0 2.796985 1_555
K3 O5 2.796985 1_555
K3 O7 2.915626 1_555
K3 O4 2.915626 1_555
K3 O7 2.924490 1_655
K3 O4 2.924490 1_545
K3 O1 3.230447 1_545
K3 O3 3.230447 1_655
Li0 O2 1.980823 1_555
Li0 O6 1.980823 1_554
Li0 O1 2.006696 1_455
Li0 O3 2.006696 1_564
Li1 O0 1.980823 1_555
Li1 O5 1.980823 1_554
Li1 O1 2.006696 1_545
Li1 O3 2.006696 1_654
O0 V1 1.745878 1_555
O1 V1 1.750809 1_555
O2 V1 1.745878 1_555
O3 V0 1.750809 1_555
O4 V1 1.745371 1_555
O5 V0 1.745878 1_555
O6 V0 1.745878 1_555
O7 V0 1.745371 1_555
