# generated using pymatgen
data_Li22Pb5
_symmetry_space_group_name_H-M   'P 1'
_cell_length_a   14.16693669
_cell_length_b   14.16693669
_cell_length_c   14.16693669
_cell_angle_alpha   60.00000000
_cell_angle_beta   60.00000000
_cell_angle_gamma   60.00000000
_symmetry_Int_Tables_number   1
_chemical_formula_structural   Li22Pb5
_chemical_formula_sum   'Li88 Pb20'
_cell_volume   2010.54066357
_cell_formula_units_Z   4
loop_
 _symmetry_equiv_pos_site_id
 _symmetry_equiv_pos_as_xyz
  1  'x, y, z'
loop_
 _atom_site_type_symbol
 _atom_site_label
 _atom_site_symmetry_multiplicity
 _atom_site_fract_x
 _atom_site_fract_y
 _atom_site_fract_z
 _atom_site_occupancy
  Li  Li0  1  0.32660700  0.32660700  0.02017800  1
  Li  Li1  1  0.00810900  0.66801000  0.31577200  1
  Li  Li2  1  0.82799500  0.17200500  0.82799500  1
  Li  Li3  1  0.75386100  0.41791100  0.07436600  1
  Li  Li4  1  0.16670700  0.16670700  0.49987900  1
  Li  Li5  1  0.17200500  0.82799500  0.17200500  1
  Li  Li6  1  0.41791100  0.07436600  0.75386100  1
  Li  Li7  1  0.75386100  0.75386100  0.07436600  1
  Li  Li8  1  0.73789300  0.42070200  0.42070200  1
  Li  Li9  1  0.75386100  0.07436600  0.41791100  1
  Li  Li10  1  0.56307000  0.25622200  0.25622200  1
  Li  Li11  1  0.58155300  0.25534000  0.58155300  1
  Li  Li12  1  0.58155300  0.58155300  0.58155300  1
  Li  Li13  1  0.41791100  0.75386100  0.75386100  1
  Li  Li14  1  0.82606600  0.82606600  0.82606600  1
  Li  Li15  1  0.66801000  0.00810900  0.00810900  1
  Li  Li16  1  0.00810900  0.31577200  0.66801000  1
  Li  Li17  1  0.57947900  0.92052100  0.92052100  1
  Li  Li18  1  0.82799500  0.17200500  0.17200500  1
  Li  Li19  1  0.56307000  0.25622200  0.92448700  1
  Li  Li20  1  0.81672400  0.50608300  0.50608300  1
  Li  Li21  1  0.00810900  0.00810900  0.31577200  1
  Li  Li22  1  0.66801000  0.00810900  0.31577200  1
  Li  Li23  1  0.82606600  0.82606600  0.52180300  1
  Li  Li24  1  0.17200500  0.17200500  0.82799500  1
  Li  Li25  1  0.31577200  0.66801000  0.00810900  1
  Li  Li26  1  0.00810900  0.66801000  0.00810900  1
  Li  Li27  1  0.25622200  0.92448700  0.25622200  1
  Li  Li28  1  0.25622200  0.25622200  0.92448700  1
  Li  Li29  1  0.92052100  0.57947900  0.92052100  1
  Li  Li30  1  0.07436600  0.41791100  0.75386100  1
  Li  Li31  1  0.50608300  0.17111100  0.81672400  1
  Li  Li32  1  0.25622200  0.56307000  0.25622200  1
  Li  Li33  1  0.92052100  0.92052100  0.57947900  1
  Li  Li34  1  0.77762500  0.07412500  0.07412500  1
  Li  Li35  1  0.07436600  0.75386100  0.75386100  1
  Li  Li36  1  0.07412500  0.07412500  0.07412500  1
  Li  Li37  1  0.42070200  0.42070200  0.42070200  1
  Li  Li38  1  0.16670700  0.16670700  0.16670700  1
  Li  Li39  1  0.25622200  0.92448700  0.56307000  1
  Li  Li40  1  0.25000000  0.25000000  0.25000000  1
  Li  Li41  1  0.66801000  0.31577200  0.00810900  1
  Li  Li42  1  0.17111100  0.50608300  0.81672400  1
  Li  Li43  1  0.32660700  0.32660700  0.32660700  1
  Li  Li44  1  0.81672400  0.50608300  0.17111100  1
  Li  Li45  1  0.25622200  0.25622200  0.56307000  1
  Li  Li46  1  0.42070200  0.42070200  0.73789300  1
  Li  Li47  1  0.50608300  0.50608300  0.81672400  1
  Li  Li48  1  0.81672400  0.17111100  0.50608300  1
  Li  Li49  1  0.02017800  0.32660700  0.32660700  1
  Li  Li50  1  0.56307000  0.92448700  0.25622200  1
  Li  Li51  1  0.52180300  0.82606600  0.82606600  1
  Li  Li52  1  0.57947900  0.57947900  0.92052100  1
  Li  Li53  1  0.16670700  0.49987900  0.16670700  1
  Li  Li54  1  0.49987900  0.16670700  0.16670700  1
  Li  Li55  1  0.25622200  0.56307000  0.92448700  1
  Li  Li56  1  0.17200500  0.82799500  0.82799500  1
  Li  Li57  1  0.50608300  0.17111100  0.50608300  1
  Li  Li58  1  0.57947900  0.92052100  0.57947900  1
  Li  Li59  1  0.82606600  0.52180300  0.82606600  1
  Li  Li60  1  0.82799500  0.82799500  0.17200500  1
  Li  Li61  1  0.92448700  0.25622200  0.56307000  1
  Li  Li62  1  0.07412500  0.07412500  0.77762500  1
  Li  Li63  1  0.07436600  0.75386100  0.41791100  1
  Li  Li64  1  0.50000000  0.50000000  0.50000000  1
  Li  Li65  1  0.00000000  0.00000000  0.00000000  1
  Li  Li66  1  0.92052100  0.57947900  0.57947900  1
  Li  Li67  1  0.42070200  0.73789300  0.42070200  1
  Li  Li68  1  0.41791100  0.75386100  0.07436600  1
  Li  Li69  1  0.50608300  0.81672400  0.17111100  1
  Li  Li70  1  0.00810900  0.31577200  0.00810900  1
  Li  Li71  1  0.32660700  0.02017800  0.32660700  1
  Li  Li72  1  0.31577200  0.00810900  0.66801000  1
  Li  Li73  1  0.75386100  0.41791100  0.75386100  1
  Li  Li74  1  0.17111100  0.81672400  0.50608300  1
  Li  Li75  1  0.75386100  0.07436600  0.75386100  1
  Li  Li76  1  0.31577200  0.00810900  0.00810900  1
  Li  Li77  1  0.50608300  0.50608300  0.17111100  1
  Li  Li78  1  0.92448700  0.56307000  0.25622200  1
  Li  Li79  1  0.50608300  0.81672400  0.50608300  1
  Li  Li80  1  0.92448700  0.25622200  0.25622200  1
  Li  Li81  1  0.75386100  0.75386100  0.41791100  1
  Li  Li82  1  0.75000000  0.75000000  0.75000000  1
  Li  Li83  1  0.58155300  0.58155300  0.25534000  1
  Li  Li84  1  0.00810900  0.00810900  0.66801000  1
  Li  Li85  1  0.17111100  0.50608300  0.50608300  1
  Li  Li86  1  0.25534000  0.58155300  0.58155300  1
  Li  Li87  1  0.07412500  0.77762500  0.07412500  1
  Pb  Pb0  1  0.91185100  0.26444800  0.91185100  1
  Pb  Pb1  1  0.32423600  0.32423600  0.67576400  1
  Pb  Pb2  1  0.66641300  0.00076200  0.66641300  1
  Pb  Pb3  1  0.67576400  0.32423600  0.67576400  1
  Pb  Pb4  1  0.66641300  0.66641300  0.00076200  1
  Pb  Pb5  1  0.42511500  0.07488500  0.07488500  1
  Pb  Pb6  1  0.26444800  0.91185100  0.91185100  1
  Pb  Pb7  1  0.07488500  0.07488500  0.42511500  1
  Pb  Pb8  1  0.32423600  0.67576400  0.32423600  1
  Pb  Pb9  1  0.42511500  0.07488500  0.42511500  1
  Pb  Pb10  1  0.00076200  0.66641300  0.66641300  1
  Pb  Pb11  1  0.67576400  0.32423600  0.32423600  1
  Pb  Pb12  1  0.07488500  0.42511500  0.07488500  1
  Pb  Pb13  1  0.67576400  0.67576400  0.32423600  1
  Pb  Pb14  1  0.42511500  0.42511500  0.07488500  1
  Pb  Pb15  1  0.32423600  0.67576400  0.67576400  1
  Pb  Pb16  1  0.07488500  0.42511500  0.42511500  1
  Pb  Pb17  1  0.91185100  0.91185100  0.26444800  1
  Pb  Pb18  1  0.66641300  0.66641300  0.66641300  1
  Pb  Pb19  1  0.91185100  0.91185100  0.91185100  1
loop_
_geom_bond_atom_site_label_1
_geom_bond_atom_site_label_2
_geom_bond_distance
_geom_bond_site_symmetry_2
Li0 Li40 2.658410 1_555
Li0 Li28 2.743025 1_554
Li0 Li19 2.743048 1_554
Li0 Li55 2.743048 1_554
Li0 Pb5 2.933690 1_555
Li0 Pb12 2.933690 1_555
Li0 Pb14 2.933702 1_555
Li1 Li87 2.817849 1_555
Li1 Pb16 2.831119 1_555
Li1 Pb17 2.844416 1_455
Li2 Li34 2.873446 1_556
Li2 Li62 2.873446 1_655
Li2 Pb19 3.010087 1_545
Li2 Pb0 3.010099 1_555
Li2 Pb3 3.049959 1_555
Li3 Pb4 2.876716 1_555
Li3 Li77 2.876958 1_555
Li3 Li44 2.876980 1_555
Li3 Li59 2.883820 1_554
Li3 Pb11 2.893117 1_555
Li3 Pb0 3.165971 1_554
Li4 Li40 2.890414 1_555
Li4 Pb7 2.992326 1_555
Li4 Pb16 2.992326 1_555
Li4 Pb9 2.992326 1_555
Li5 Li87 2.873446 1_555
Li5 Pb6 3.010087 1_554
Li5 Pb17 3.010087 1_455
Li5 Pb8 3.049959 1_555
Li6 Pb2 2.876716 1_555
Li6 Pb1 2.893117 1_555
Li6 Pb6 3.165971 1_545
Li7 Pb4 2.876692 1_555
Li7 Pb13 2.893118 1_555
Li7 Pb19 3.165990 1_554
Li8 Pb11 2.963693 1_555
Li8 Pb13 2.963705 1_555
Li8 Pb3 2.963705 1_555
Li9 Pb2 2.876716 1_555
Li9 Pb11 2.893117 1_555
Li9 Pb17 3.165971 1_545
Li10 Li43 2.743050 1_555
Li10 Pb11 2.900148 1_555
Li10 Li57 2.912585 1_555
Li10 Li77 2.912585 1_555
Li10 Pb9 3.215916 1_555
Li10 Pb14 3.215916 1_555
Li11 Li57 2.721203 1_555
Li11 Li31 2.721226 1_555
Li11 Li48 2.721226 1_555
Li11 Li64 2.830045 1_555
Li11 Pb2 2.944769 1_555
Li11 Pb1 2.983645 1_555
Li11 Pb11 2.983645 1_555
Li11 Pb3 2.983656 1_555
Li12 Li79 2.721227 1_555
Li12 Li20 2.721227 1_555
Li12 Li47 2.721227 1_555
Li12 Li64 2.830033 1_555
Li12 Pb18 2.944792 1_555
Li12 Pb15 2.983645 1_555
Li12 Pb3 2.983645 1_555
Li12 Pb13 2.983645 1_555
Li13 Pb18 2.876715 1_555
Li13 Li79 2.876956 1_555
Li13 Li47 2.876956 1_555
Li13 Li51 2.883843 1_555
Li13 Pb15 2.893106 1_555
Li13 Pb6 3.165991 1_555
Li14 Li82 2.639625 1_555
Li14 Li29 2.868154 1_555
Li14 Li17 2.868154 1_555
Li14 Li33 2.868154 1_555
Li14 Li75 2.883818 1_565
Li14 Li7 2.883818 1_556
Li14 Li35 2.883818 1_655
Li14 Pb19 2.976891 1_555
Li14 Pb2 3.205751 1_565
Li14 Pb4 3.205751 1_556
Li14 Pb10 3.205751 1_655
Li15 Li34 2.817849 1_555
Li15 Pb5 2.831119 1_555
Li15 Pb19 2.844414 1_544
Li16 Li62 2.817849 1_555
Li16 Pb16 2.831119 1_555
Li16 Pb0 2.844416 1_455
Li17 Li51 2.868143 1_555
Li17 Li31 2.909284 1_565
Li17 Li69 2.909284 1_556
Li17 Pb2 2.939842 1_565
Li17 Pb4 2.939842 1_556
Li17 Pb5 3.092694 1_566
Li18 Li36 2.873446 1_655
Li18 Li34 2.873446 1_555
Li18 Pb0 3.010087 1_554
Li18 Pb17 3.010087 1_545
Li18 Pb11 3.049959 1_555
Li19 Pb3 2.900159 1_555
Li19 Li31 2.912585 1_555
Li19 Li47 2.912585 1_555
Li19 Pb14 3.215906 1_556
Li19 Pb5 3.215917 1_556
Li20 Li81 2.876956 1_555
Li20 Li73 2.876956 1_555
Li20 Li8 2.887603 1_555
Li20 Li66 2.909273 1_555
Li20 Li61 2.912585 1_555
Li20 Li78 2.912585 1_555
Li20 Pb16 2.988821 1_655
Li20 Pb18 3.215358 1_555
Li20 Pb13 3.248792 1_555
Li20 Pb3 3.248792 1_555
Li21 Li36 2.817849 1_555
Li21 Pb7 2.831119 1_555
Li21 Pb17 2.844404 1_445
Li22 Li34 2.817849 1_555
Li22 Pb9 2.831119 1_555
Li22 Pb17 2.844416 1_545
Li23 Li82 2.639613 1_555
Li23 Li33 2.868143 1_555
Li23 Li66 2.868155 1_555
Li23 Li58 2.868155 1_555
Li23 Li9 2.883820 1_565
Li23 Li63 2.883820 1_655
Li23 Li81 2.883843 1_555
Li23 Pb17 2.976891 1_555
Li23 Pb18 3.205751 1_555
Li23 Pb2 3.205751 1_565
Li23 Pb10 3.205751 1_655
Li24 Li36 2.873446 1_556
Li24 Li62 2.873446 1_555
Li24 Pb0 3.010087 1_455
Li24 Pb6 3.010087 1_545
Li24 Pb1 3.049959 1_555
Li25 Li87 2.817849 1_555
Li25 Pb14 2.831119 1_555
Li25 Pb6 2.844416 1_554
Li26 Li87 2.817849 1_555
Li26 Pb12 2.831119 1_555
Li26 Pb19 2.844414 1_454
Li27 Li71 2.743025 1_565
Li27 Pb8 2.900161 1_555
Li27 Li74 2.912585 1_555
Li27 Li69 2.912585 1_555
Li27 Pb5 3.215907 1_565
Li27 Pb7 3.215907 1_565
Li28 Pb1 2.900161 1_555
Li28 Li42 2.912585 1_555
Li28 Li31 2.912585 1_555
Li28 Pb5 3.215907 1_556
Li28 Pb12 3.215907 1_556
Li29 Li59 2.868143 1_555
Li29 Li42 2.909284 1_655
Li29 Li44 2.909284 1_556
Li29 Pb4 2.939842 1_556
Li29 Pb10 2.939842 1_655
Li29 Pb12 3.092694 1_656
Li30 Pb10 2.876716 1_555
Li30 Li85 2.876958 1_555
Li30 Li42 2.876980 1_555
Li30 Li59 2.883820 1_455
Li30 Pb1 2.893117 1_555
Li30 Pb0 3.165971 1_455
Li31 Li75 2.876956 1_555
Li31 Li6 2.876980 1_555
Li31 Li46 2.887580 1_555
Li31 Pb5 2.988821 1_556
Li31 Pb2 3.215358 1_555
Li31 Pb3 3.248782 1_555
Li31 Pb1 3.248792 1_555
Li32 Li43 2.743050 1_555
Li32 Pb8 2.900148 1_555
Li32 Li85 2.912585 1_555
Li32 Li77 2.912585 1_555
Li32 Pb16 3.215916 1_555
Li32 Pb14 3.215916 1_555
Li33 Li48 2.909284 1_565
Li33 Li74 2.909284 1_655
Li33 Pb2 2.939842 1_565
Li33 Pb10 2.939842 1_655
Li33 Pb7 3.092694 1_665
Li34 Li65 2.572268 1_655
Li34 Li41 2.817849 1_555
Li34 Li60 2.873446 1_545
Li34 Pb19 3.275364 1_544
Li34 Pb0 3.275374 1_554
Li34 Pb17 3.275374 1_545
Li35 Pb10 2.876692 1_555
Li35 Li74 2.876956 1_555
Li35 Li42 2.876956 1_555
Li35 Pb15 2.893118 1_555
Li35 Pb19 3.165990 1_455
Li36 Li65 2.572268 1_555
Li36 Li70 2.817849 1_555
Li36 Li76 2.817849 1_555
Li36 Li5 2.873446 1_545
Li36 Pb0 3.275365 1_454
Li36 Pb17 3.275365 1_445
Li36 Pb6 3.275365 1_544
Li37 Li64 2.751781 1_555
Li37 Li77 2.887580 1_555
Li37 Li57 2.887580 1_555
Li37 Li85 2.887580 1_555
Li37 Pb11 2.963704 1_555
Li37 Pb1 2.963704 1_555
Li37 Pb8 2.963704 1_555
Li38 Li40 2.890414 1_555
Li38 Pb12 2.992326 1_555
Li38 Pb7 2.992326 1_555
Li38 Pb5 2.992326 1_555
Li39 Li71 2.743048 1_565
Li39 Pb15 2.900159 1_555
Li39 Li79 2.912585 1_555
Li39 Li74 2.912585 1_555
Li39 Pb9 3.215906 1_565
Li39 Pb7 3.215917 1_565
Li40 Li43 2.658398 1_555
Li40 Li49 2.658410 1_555
Li40 Li71 2.658410 1_555
Li40 Li53 2.890414 1_555
Li40 Li54 2.890414 1_555
Li41 Pb14 2.831119 1_555
Li41 Pb0 2.844416 1_554
Li42 Li86 2.721226 1_555
Li42 Li46 2.887580 1_555
Li42 Li55 2.912585 1_555
Li42 Pb12 2.988821 1_556
Li42 Pb10 3.215358 1_555
Li42 Pb15 3.248782 1_555
Li42 Pb1 3.248792 1_555
Li43 Li45 2.743050 1_555
Li43 Pb14 2.933691 1_555
Li43 Pb9 2.933691 1_555
Li43 Pb16 2.933691 1_555
Li44 Li83 2.721226 1_555
Li44 Li7 2.876956 1_555
Li44 Li8 2.887580 1_555
Li44 Li80 2.912585 1_555
Li44 Li78 2.912585 1_555
Li44 Pb12 2.988821 1_655
Li44 Pb4 3.215358 1_555
Li44 Pb13 3.248782 1_555
Li44 Pb11 3.248792 1_555
Li45 Pb1 2.900148 1_555
Li45 Li85 2.912585 1_555
Li45 Li57 2.912585 1_555
Li45 Pb9 3.215916 1_555
Li45 Pb16 3.215916 1_555
Li46 Li64 2.751769 1_555
Li46 Li47 2.887603 1_555
Li46 Pb1 2.963693 1_555
Li46 Pb15 2.963705 1_555
Li46 Pb3 2.963705 1_555
Li47 Li73 2.876956 1_555
Li47 Li52 2.909273 1_555
Li47 Li55 2.912585 1_555
Li47 Pb14 2.988821 1_556
Li47 Pb18 3.215358 1_555
Li47 Pb3 3.248792 1_555
Li47 Pb15 3.248792 1_555
Li48 Li75 2.876956 1_555
Li48 Li9 2.876980 1_555
Li48 Li8 2.887580 1_555
Li48 Li61 2.912585 1_555
Li48 Li80 2.912585 1_555
Li48 Pb7 2.988821 1_655
Li48 Pb2 3.215358 1_555
Li48 Pb3 3.248782 1_555
Li48 Pb11 3.248792 1_555
Li49 Li80 2.743025 1_455
Li49 Li78 2.743048 1_455
Li49 Li61 2.743048 1_455
Li49 Pb7 2.933690 1_555
Li49 Pb12 2.933690 1_555
Li49 Pb16 2.933702 1_555
Li50 Li71 2.743048 1_565
Li50 Pb13 2.900159 1_555
Li50 Li79 2.912585 1_555
Li50 Li69 2.912585 1_555
Li50 Pb9 3.215906 1_565
Li50 Pb5 3.215917 1_565
Li51 Li82 2.639613 1_555
Li51 Li58 2.868155 1_555
Li51 Li52 2.868155 1_555
Li51 Li6 2.883820 1_565
Li51 Li68 2.883820 1_556
Li51 Pb6 2.976891 1_555
Li51 Pb18 3.205751 1_555
Li51 Pb2 3.205751 1_565
Li51 Pb4 3.205751 1_556
Li52 Li59 2.868155 1_555
Li52 Li77 2.909285 1_556
Li52 Pb18 2.939842 1_555
Li52 Pb4 2.939853 1_556
Li52 Pb14 3.092694 1_556
Li53 Pb12 2.992326 1_555
Li53 Pb16 2.992326 1_555
Li53 Pb14 2.992326 1_555
Li54 Pb5 2.992326 1_555
Li54 Pb14 2.992326 1_555
Li54 Pb9 2.992326 1_555
Li55 Pb15 2.900159 1_555
Li55 Pb14 3.215906 1_556
Li55 Pb12 3.215917 1_556
Li56 Li62 2.873446 1_565
Li56 Li87 2.873446 1_556
Li56 Pb19 3.010087 1_455
Li56 Pb6 3.010099 1_555
Li56 Pb15 3.049959 1_555
Li57 Li9 2.876958 1_555
Li57 Li6 2.876958 1_555
Li57 Li58 2.909285 1_545
Li57 Pb9 2.988832 1_555
Li57 Pb2 3.215358 1_555
Li57 Pb1 3.248783 1_555
Li57 Pb11 3.248783 1_555
Li58 Li79 2.909273 1_555
Li58 Pb18 2.939842 1_555
Li58 Pb2 2.939853 1_565
Li58 Pb9 3.092694 1_565
Li59 Li82 2.639613 1_555
Li59 Li66 2.868155 1_555
Li59 Li73 2.883843 1_555
Li59 Pb0 2.976891 1_555
Li59 Pb18 3.205751 1_555
Li59 Pb4 3.205751 1_556
Li59 Pb10 3.205751 1_655
Li60 Li87 2.873446 1_655
Li60 Pb19 3.010087 1_554
Li60 Pb17 3.010099 1_555
Li60 Pb13 3.049959 1_555
Li61 Pb3 2.900159 1_555
Li61 Pb16 3.215906 1_655
Li61 Pb7 3.215917 1_655
Li62 Li65 2.572268 1_556
Li62 Li84 2.817849 1_555
Li62 Li72 2.817849 1_555
Li62 Pb19 3.275364 1_445
Li62 Pb0 3.275374 1_455
Li62 Pb6 3.275374 1_545
Li63 Pb10 2.876716 1_555
Li63 Li85 2.876958 1_555
Li63 Li74 2.876980 1_555
Li63 Pb8 2.893117 1_555
Li63 Pb17 3.165971 1_455
Li64 Li8 2.751769 1_555
Li64 Li67 2.751769 1_555
Li64 Li86 2.830045 1_555
Li64 Li83 2.830045 1_555
Li65 Li87 2.572268 1_545
Li65 Pb19 3.058926 1_444
Li65 Pb6 3.058938 1_544
Li65 Pb17 3.058938 1_445
Li65 Pb0 3.058938 1_454
Li66 Li85 2.909285 1_655
Li66 Pb18 2.939842 1_555
Li66 Pb10 2.939853 1_655
Li66 Pb16 3.092694 1_655
Li67 Li69 2.887580 1_555
Li67 Li74 2.887580 1_555
Li67 Li79 2.887603 1_555
Li67 Pb8 2.963693 1_555
Li67 Pb13 2.963705 1_555
Li67 Pb15 2.963705 1_555
Li68 Pb4 2.876716 1_555
Li68 Li77 2.876958 1_555
Li68 Li69 2.876980 1_555
Li68 Pb8 2.893117 1_555
Li68 Pb6 3.165971 1_554
Li69 Li83 2.721226 1_555
Li69 Li7 2.876956 1_555
Li69 Pb5 2.988821 1_565
Li69 Pb4 3.215358 1_555
Li69 Pb13 3.248782 1_555
Li69 Pb8 3.248792 1_555
Li70 Pb12 2.831119 1_555
Li70 Pb0 2.844404 1_454
Li71 Pb7 2.933690 1_555
Li71 Pb5 2.933690 1_555
Li71 Pb9 2.933702 1_555
Li72 Pb9 2.831119 1_555
Li72 Pb6 2.844416 1_545
Li73 Pb18 2.876715 1_555
Li73 Pb3 2.893106 1_555
Li73 Pb0 3.165991 1_555
Li74 Li86 2.721226 1_555
Li74 Pb7 2.988821 1_565
Li74 Pb10 3.215358 1_555
Li74 Pb15 3.248782 1_555
Li74 Pb8 3.248792 1_555
Li75 Pb2 2.876692 1_555
Li75 Pb3 2.893118 1_555
Li75 Pb19 3.165990 1_545
Li76 Pb5 2.831119 1_555
Li76 Pb6 2.844404 1_544
Li77 Li83 2.721203 1_555
Li77 Pb14 2.988832 1_555
Li77 Pb4 3.215358 1_555
Li77 Pb11 3.248783 1_555
Li77 Pb8 3.248783 1_555
Li78 Pb13 2.900159 1_555
Li78 Pb16 3.215906 1_655
Li78 Pb12 3.215917 1_655
Li79 Li81 2.876956 1_555
Li79 Pb9 2.988821 1_565
Li79 Pb18 3.215358 1_555
Li79 Pb13 3.248792 1_555
Li79 Pb15 3.248792 1_555
Li80 Pb11 2.900161 1_555
Li80 Pb12 3.215907 1_655
Li80 Pb7 3.215907 1_655
Li81 Pb18 2.876715 1_555
Li81 Pb13 2.893106 1_555
Li81 Pb17 3.165991 1_555
Li82 Pb18 2.900617 1_555
Li82 Pb2 2.900628 1_565
Li82 Pb4 2.900628 1_556
Li82 Pb10 2.900628 1_655
Li83 Pb4 2.944769 1_555
Li83 Pb8 2.983645 1_555
Li83 Pb11 2.983645 1_555
Li83 Pb13 2.983656 1_555
Li84 Pb7 2.831119 1_555
Li84 Pb19 2.844414 1_445
Li85 Li86 2.721203 1_555
Li85 Pb16 2.988832 1_555
Li85 Pb10 3.215358 1_555
Li85 Pb1 3.248783 1_555
Li85 Pb8 3.248783 1_555
Li86 Pb10 2.944769 1_555
Li86 Pb8 2.983645 1_555
Li86 Pb1 2.983645 1_555
Li86 Pb15 2.983656 1_555
Li87 Pb19 3.275364 1_454
Li87 Pb17 3.275374 1_455
Li87 Pb6 3.275374 1_554
