# generated using pymatgen
data_Rb15Hg16
_symmetry_space_group_name_H-M   'P 1'
_cell_length_a   15.33773709
_cell_length_b   15.33773709
_cell_length_c   15.33773709
_cell_angle_alpha   111.73112139
_cell_angle_beta   111.73112139
_cell_angle_gamma   105.04023221
_symmetry_Int_Tables_number   1
_chemical_formula_structural   Rb15Hg16
_chemical_formula_sum   'Rb30 Hg32'
_cell_volume   2765.21835338
_cell_formula_units_Z   2
loop_
 _symmetry_equiv_pos_site_id
 _symmetry_equiv_pos_as_xyz
  1  'x, y, z'
loop_
 _atom_site_type_symbol
 _atom_site_label
 _atom_site_symmetry_multiplicity
 _atom_site_fract_x
 _atom_site_fract_y
 _atom_site_fract_z
 _atom_site_occupancy
  Rb  Rb0  1  0.51276900  0.51840200  0.45668100  1
  Rb  Rb1  1  0.20402000  0.97723200  0.26585500  1
  Rb  Rb2  1  0.80608900  0.76276900  0.49436700  1
  Rb  Rb3  1  0.68816600  0.45402000  0.72678800  1
  Rb  Rb4  1  0.50673100  0.71169200  0.74626200  1
  Rb  Rb5  1  0.78456900  0.48953000  0.24626200  1
  Rb  Rb6  1  0.28830800  0.03456900  0.79503900  1
  Rb  Rb7  1  0.24382100  0.24382100  0.00000000  1
  Rb  Rb8  1  0.00000000  0.00000000  0.00000000  1
  Rb  Rb9  1  0.51047000  0.75673100  0.29503900  1
  Rb  Rb10  1  0.54598000  0.27276800  0.23414500  1
  Rb  Rb11  1  0.75617900  0.75617900  0.00000000  1
  Rb  Rb12  1  0.23723100  0.73159800  0.04331900  1
  Rb  Rb13  1  0.06172100  0.05608900  0.54331900  1
  Rb  Rb14  1  0.68827900  0.19391100  0.95668100  1
  Rb  Rb15  1  0.24326900  0.53830800  0.75373800  1
  Rb  Rb16  1  0.99382100  0.49382100  0.50000000  1
  Rb  Rb17  1  0.96543100  0.76047000  0.25373800  1
  Rb  Rb18  1  0.02276800  0.28862300  0.22678800  1
  Rb  Rb19  1  0.94391100  0.48723100  0.00563300  1
  Rb  Rb20  1  0.71137700  0.93816600  0.73414500  1
  Rb  Rb21  1  0.50617900  0.00617900  0.50000000  1
  Rb  Rb22  1  0.46169200  0.21543100  0.70496100  1
  Rb  Rb23  1  0.75000000  0.25000000  0.50000000  1
  Rb  Rb24  1  0.48159800  0.93827900  0.99436700  1
  Rb  Rb25  1  0.26840200  0.31172100  0.50563300  1
  Rb  Rb26  1  0.72723200  0.96137700  0.27321200  1
  Rb  Rb27  1  0.23953000  0.49326900  0.20496100  1
  Rb  Rb28  1  0.03862300  0.31183400  0.76585500  1
  Rb  Rb29  1  0.06183400  0.79598000  0.77321200  1
  Hg  Hg0  1  0.79349400  0.54015000  0.56807000  1
  Hg  Hg1  1  0.26206000  0.75250100  0.67454700  1
  Hg  Hg2  1  0.48794000  0.49749900  0.82545200  1
  Hg  Hg3  1  0.95916900  0.21713100  0.93152500  1
  Hg  Hg4  1  0.67204600  0.66248700  0.17454700  1
  Hg  Hg5  1  0.95650600  0.70985000  0.93193000  1
  Hg  Hg6  1  0.29015000  0.22207900  0.24665600  1
  Hg  Hg7  1  0.45985000  0.02792100  0.25334400  1
  Hg  Hg8  1  0.77792100  0.02457700  0.06807000  1
  Hg  Hg9  1  0.07700800  0.76286600  0.51279000  1
  Hg  Hg10  1  0.78286900  0.71439500  0.74203800  1
  Hg  Hg11  1  0.28560500  0.02764400  0.06847500  1
  Hg  Hg12  1  0.23713400  0.74992400  0.31414100  1
  Hg  Hg13  1  0.49992400  0.68578300  0.01279000  1
  Hg  Hg14  1  0.97207900  0.22542300  0.43193000  1
  Hg  Hg15  1  0.41248700  0.73794000  0.49044100  1
  Hg  Hg16  1  0.51286600  0.50007600  0.18585900  1
  Hg  Hg17  1  0.43578300  0.92299200  0.68585900  1
  Hg  Hg18  1  0.07795400  0.58751300  0.32545200  1
  Hg  Hg19  1  0.97235600  0.04083100  0.25796200  1
  Hg  Hg20  1  0.25007600  0.56421700  0.48721000  1
  Hg  Hg21  1  0.96713100  0.53560500  0.75796200  1
  Hg  Hg22  1  0.33751300  0.51206000  0.00955900  1
  Hg  Hg23  1  0.31421700  0.32700800  0.81414100  1
  Hg  Hg24  1  0.77457700  0.20650600  0.74665600  1
  Hg  Hg25  1  0.50250100  0.32795400  0.99044100  1
  Hg  Hg26  1  0.46439500  0.22235600  0.43152500  1
  Hg  Hg27  1  0.77764400  0.20916900  0.24203800  1
  Hg  Hg28  1  0.24749900  0.92204600  0.50955900  1
  Hg  Hg29  1  0.67299200  0.48713400  0.98721000  1
  Hg  Hg30  1  0.97542300  0.04349400  0.75334400  1
  Hg  Hg31  1  0.79083100  0.03286900  0.56847500  1
loop_
_geom_bond_atom_site_label_1
_geom_bond_atom_site_label_2
_geom_bond_distance
_geom_bond_site_symmetry_2
Rb0 Rb27 4.323875 1_555
Rb0 Rb10 4.343323 1_555
Rb0 Rb4 4.384202 1_555
Rb0 Rb3 4.640089 1_555
Rb0 Rb25 4.726570 1_555
Rb0 Rb2 4.726580 1_555
Rb1 Rb17 4.147737 1_455
Rb1 Rb8 4.325943 1_565
Rb1 Rb12 4.343323 1_555
Rb1 Rb21 4.472038 1_565
Rb1 Rb25 4.640085 1_565
Rb2 Rb5 4.323859 1_555
Rb2 Rb29 4.343307 1_655
Rb2 Rb9 4.384202 1_555
Rb2 Rb20 4.640102 1_555
Rb6 Rb7 3.987775 1_556
Rb7 Rb8 4.551041 1_555
Rb10 Rb5 4.147737 1_555
Rb10 Rb23 4.325943 1_555
Rb10 Rb7 4.472038 1_555
Rb10 Rb24 4.640085 1_544
Rb11 Rb17 3.987764 1_555
Rb11 Rb4 3.987766 1_554
Rb11 Rb26 4.472038 1_555
Rb11 Rb3 4.472044 1_554
Rb11 Rb8 4.551041 1_665
Rb12 Rb9 4.323875 1_555
Rb12 Rb15 4.384202 1_554
Rb12 Rb29 4.640089 1_554
Rb12 Rb24 4.726570 1_554
Rb12 Rb19 4.726580 1_455
Rb13 Rb6 4.323884 1_555
Rb13 Rb28 4.343303 1_555
Rb13 Rb17 4.384207 1_445
Rb13 Rb26 4.640080 1_445
Rb13 Rb25 4.726559 1_555
Rb13 Rb2 4.726572 1_445
Rb14 Rb22 4.323884 1_555
Rb14 Rb20 4.343303 1_545
Rb14 Rb5 4.384207 1_556
Rb14 Rb18 4.640080 1_656
Rb14 Rb24 4.726559 1_545
Rb14 Rb19 4.726572 1_556
Rb15 Rb16 3.987766 1_455
Rb15 Rb28 4.147766 1_555
Rb15 Rb4 4.290204 1_555
Rb15 Rb25 4.323865 1_555
Rb16 Rb5 3.987764 1_555
Rb16 Rb18 4.472038 1_655
Rb16 Rb29 4.472044 1_655
Rb16 Rb23 4.551041 1_555
Rb17 Rb5 4.290240 1_555
Rb17 Rb19 4.323859 1_555
Rb18 Rb27 4.147746 1_555
Rb18 Rb8 4.325943 1_555
Rb18 Rb25 4.343323 1_555
Rb19 Rb3 4.343307 1_554
Rb19 Rb27 4.384202 1_655
Rb19 Rb28 4.640102 1_654
Rb20 Rb4 4.147766 1_555
Rb20 Rb8 4.325949 1_666
Rb20 Rb21 4.472028 1_565
Rb21 Rb22 3.987775 1_555
Rb21 Rb9 3.987775 1_545
Rb21 Rb23 4.551041 1_555
Rb22 Rb3 4.147755 1_555
Rb22 Rb6 4.290222 1_555
Rb22 Rb25 4.384190 1_555
Rb23 Rb3 4.325933 1_555
Rb23 Rb26 4.325943 1_545
Rb23 Rb28 4.325949 1_655
Rb24 Rb4 4.323865 1_555
Rb24 Rb26 4.343323 1_556
Rb24 Rb6 4.384190 1_565
Rb26 Rb9 4.147746 1_555
Rb27 Rb7 3.987775 1_555
Rb27 Rb9 4.290222 1_555
Rb28 Rb7 4.472028 1_556
Rb29 Rb6 4.147755 1_565
Rb29 Rb8 4.325933 1_566
Hg0 Hg10 3.091297 1_555
Hg0 Hg21 3.175395 1_555
Hg0 Rb16 3.740962 1_555
Hg0 Rb3 3.803566 1_555
Hg0 Rb0 3.867096 1_555
Hg0 Rb29 3.888780 1_655
Hg0 Rb2 3.956189 1_555
Hg0 Rb23 3.980283 1_555
Hg1 Hg9 3.090019 1_555
Hg1 Hg17 3.110189 1_555
Hg1 Hg20 3.133432 1_555
Hg1 Rb4 3.789018 1_555
Hg1 Rb6 3.862484 1_565
Hg1 Rb15 3.882493 1_555
Hg1 Rb16 3.916878 1_455
Hg1 Rb29 3.990348 1_555
Hg1 Rb24 3.994821 1_555
Hg2 Hg29 3.090026 1_555
Hg2 Hg23 3.110198 1_555
Hg2 Rb15 3.789018 1_555
Hg2 Rb22 3.862484 1_555
Hg2 Rb4 3.882483 1_555
Hg2 Rb11 3.916877 1_556
Hg2 Rb3 3.990339 1_555
Hg2 Rb25 3.994811 1_555
Hg3 Hg30 3.175377 1_555
Hg3 Rb28 3.762856 1_655
Hg3 Rb18 3.893481 1_656
Hg3 Rb20 3.919821 1_545
Hg3 Rb7 3.961119 1_656
Hg3 Rb19 3.965114 1_556
Hg3 Rb8 3.971336 1_656
Hg3 Rb27 4.249469 1_656
Hg3 Rb14 4.249621 1_555
Hg4 Rb5 3.789024 1_555
Hg4 Rb9 3.862484 1_555
Hg4 Rb17 3.882507 1_555
Hg4 Rb11 3.916878 1_555
Hg4 Rb26 3.990334 1_555
Hg4 Rb2 3.994821 1_555
Hg5 Rb11 3.740962 1_556
Hg5 Rb29 3.803566 1_655
Hg5 Rb12 3.867096 1_656
Hg5 Rb3 3.888780 1_555
Hg5 Rb19 3.956189 1_556
Hg5 Rb8 3.980283 1_666
Hg6 Rb7 3.740970 1_555
Hg6 Rb1 3.803561 1_545
Hg6 Rb25 3.867096 1_555
Hg6 Rb10 3.888787 1_555
Hg6 Rb0 3.956199 1_555
Hg6 Rb8 3.980280 1_555
Hg7 Rb21 3.740970 1_555
Hg7 Rb10 3.803561 1_555
Hg7 Rb24 3.867096 1_544
Hg7 Rb1 3.888787 1_545
Hg7 Rb12 3.956199 1_545
Hg7 Rb23 3.980280 1_555
Hg8 Rb11 3.740972 1_545
Hg8 Rb18 3.803559 1_655
Hg8 Rb14 3.867074 1_554
Hg8 Rb26 3.888802 1_545
Hg8 Rb24 3.956203 1_544
Hg8 Rb8 3.980272 1_655
Hg9 Rb17 3.679813 1_455
Hg9 Rb16 3.895822 1_455
Hg9 Rb29 3.938771 1_555
Hg9 Rb6 3.981559 1_565
Hg9 Rb2 4.058726 1_455
Hg10 Hg5 3.175395 1_555
Hg10 Rb3 3.762878 1_555
Hg10 Rb20 3.893481 1_555
Hg10 Rb29 3.919815 1_655
Hg10 Rb11 3.961122 1_556
Hg10 Rb0 3.965109 1_555
Hg10 Rb8 3.971328 1_666
Hg10 Rb4 4.249471 1_555
Hg10 Rb2 4.249622 1_555
Hg11 Hg7 3.091288 1_555
Hg11 Hg6 3.175368 1_555
Hg11 Rb10 3.762873 1_555
Hg11 Rb29 3.893481 1_544
Hg11 Rb1 3.919821 1_545
Hg11 Rb7 3.961115 1_555
Hg11 Rb24 3.965122 1_544
Hg11 Rb8 3.971321 1_555
Hg11 Rb6 4.249474 1_554
Hg11 Rb12 4.249625 1_545
Hg12 Hg28 3.090029 1_555
Hg12 Hg18 3.110189 1_555
Hg12 Hg15 3.133432 1_555
Hg12 Rb27 3.679798 1_555
Hg12 Rb21 3.895822 1_565
Hg12 Rb1 3.938756 1_555
Hg12 Rb17 3.981559 1_455
Hg12 Rb12 4.058726 1_555
Hg13 Hg4 3.090029 1_555
Hg13 Hg22 3.110198 1_555
Hg13 Hg2 3.133440 1_554
Hg13 Rb15 3.679805 1_554
Hg13 Rb11 3.895822 1_555
Hg13 Rb26 3.938756 1_555
Hg13 Rb9 3.981562 1_555
Hg13 Rb24 4.058726 1_554
Hg14 Hg19 3.091288 1_555
Hg14 Hg27 3.175385 1_555
Hg14 Rb16 3.740972 1_555
Hg14 Rb26 3.803559 1_545
Hg14 Rb13 3.867074 1_655
Hg14 Rb18 3.888802 1_655
Hg14 Rb25 3.956203 1_655
Hg14 Rb23 3.980272 1_555
Hg15 Hg17 3.090021 1_555
Hg15 Hg20 3.110198 1_555
Hg15 Rb27 3.789018 1_555
Hg15 Rb4 3.862498 1_555
Hg15 Rb9 3.882503 1_555
Hg15 Rb21 3.916878 1_565
Hg15 Rb20 3.990336 1_555
Hg15 Rb0 3.994821 1_555
Hg16 Hg25 3.090029 1_554
Hg16 Hg4 3.110198 1_555
Hg16 Hg22 3.133432 1_555
Hg16 Rb9 3.679798 1_555
Hg16 Rb7 3.895822 1_555
Hg16 Rb10 3.938756 1_555
Hg16 Rb5 3.981559 1_555
Hg16 Rb0 4.058726 1_555
Hg17 Hg28 3.133440 1_555
Hg17 Rb6 3.679805 1_565
Hg17 Rb21 3.895830 1_565
Hg17 Rb20 3.938748 1_555
Hg17 Rb4 3.981553 1_555
Hg17 Rb14 4.058726 1_565
Hg18 Hg20 3.090037 1_555
Hg18 Hg9 3.133432 1_555
Hg18 Rb17 3.789018 1_455
Hg18 Rb27 3.862475 1_555
Hg18 Rb5 3.882511 1_455
Hg18 Rb16 3.916893 1_455
Hg18 Rb18 3.990336 1_555
Hg18 Rb19 3.994807 1_455
Hg19 Hg8 3.175385 1_555
Hg19 Rb26 3.762865 1_545
Hg19 Rb1 3.893481 1_645
Hg19 Rb18 3.919829 1_655
Hg19 Rb11 3.961119 1_545
Hg19 Rb13 3.965101 1_655
Hg19 Rb8 3.971336 1_655
Hg19 Rb17 4.249463 1_545
Hg19 Rb25 4.249623 1_655
Hg20 Rb4 3.679805 1_555
Hg20 Rb16 3.895822 1_455
Hg20 Rb18 3.938756 1_555
Hg20 Rb27 3.981562 1_555
Hg20 Rb25 4.058726 1_555
Hg21 Hg5 3.091297 1_555
Hg21 Rb29 3.762878 1_655
Hg21 Rb28 3.893481 1_655
Hg21 Rb3 3.919815 1_555
Hg21 Rb16 3.961122 1_555
Hg21 Rb12 3.965109 1_656
Hg21 Rb23 3.971328 1_555
Hg21 Rb15 4.249471 1_655
Hg21 Rb19 4.249622 1_556
Hg22 Hg23 3.090021 1_554
Hg22 Rb9 3.789018 1_555
Hg22 Rb15 3.862498 1_554
Hg22 Rb27 3.882503 1_555
Hg22 Rb7 3.916878 1_555
Hg22 Rb28 3.990336 1_554
Hg22 Rb12 3.994821 1_555
Hg23 Hg25 3.133440 1_555
Hg23 Rb22 3.679805 1_555
Hg23 Rb7 3.895830 1_556
Hg23 Rb28 3.938748 1_555
Hg23 Rb15 3.981553 1_555
Hg23 Rb13 4.058726 1_555
Hg24 Hg3 3.091280 1_555
Hg24 Hg31 3.175377 1_555
Hg24 Rb21 3.740970 1_555
Hg24 Rb28 3.803559 1_655
Hg24 Rb19 3.867096 1_556
Hg24 Rb20 3.888772 1_545
Hg24 Rb14 3.956203 1_555
Hg24 Rb23 3.980280 1_555
Hg25 Hg29 3.110189 1_555
Hg25 Rb22 3.789018 1_555
Hg25 Rb5 3.862490 1_556
Hg25 Rb6 3.882503 1_555
Hg25 Rb7 3.916878 1_556
Hg25 Rb10 3.990334 1_556
Hg25 Rb14 3.994831 1_555
Hg26 Hg6 3.091288 1_555
Hg26 Hg7 3.175368 1_555
Hg26 Rb1 3.762873 1_545
Hg26 Rb3 3.893481 1_555
Hg26 Rb10 3.919821 1_555
Hg26 Rb21 3.961115 1_555
Hg26 Rb25 3.965122 1_555
Hg26 Rb23 3.971321 1_555
Hg26 Rb22 4.249474 1_555
Hg26 Rb0 4.249625 1_555
Hg27 Hg8 3.091288 1_555
Hg27 Rb18 3.762865 1_655
Hg27 Rb10 3.893481 1_555
Hg27 Rb26 3.919829 1_545
Hg27 Rb16 3.961119 1_555
Hg27 Rb14 3.965101 1_554
Hg27 Rb23 3.971336 1_555
Hg27 Rb5 4.249463 1_555
Hg27 Rb24 4.249623 1_544
Hg28 Hg9 3.110189 1_555
Hg28 Rb6 3.789018 1_565
Hg28 Rb17 3.862490 1_455
Hg28 Rb22 3.882503 1_565
Hg28 Rb21 3.916878 1_565
Hg28 Rb1 3.990334 1_555
Hg28 Rb13 3.994831 1_565
Hg29 Hg4 3.133423 1_556
Hg29 Rb5 3.679813 1_556
Hg29 Rb11 3.895822 1_556
Hg29 Rb3 3.938771 1_555
Hg29 Rb22 3.981559 1_555
Hg29 Rb19 4.058726 1_556
Hg30 Hg31 3.091280 1_555
Hg30 Rb7 3.740970 1_656
Hg30 Rb20 3.803559 1_545
Hg30 Rb2 3.867096 1_545
Hg30 Rb28 3.888772 1_655
Hg30 Rb13 3.956203 1_655
Hg30 Rb8 3.980280 1_656
Hg31 Rb20 3.762856 1_545
Hg31 Rb26 3.893481 1_545
Hg31 Rb28 3.919821 1_655
Hg31 Rb21 3.961119 1_555
Hg31 Rb2 3.965114 1_545
Hg31 Rb23 3.971336 1_555
Hg31 Rb9 4.249469 1_545
Hg31 Rb13 4.249621 1_655
