# generated using pymatgen
data_La10Se14O
_symmetry_space_group_name_H-M   'P 1'
_cell_length_a   15.49724743
_cell_length_b   15.49724743
_cell_length_c   15.49724743
_cell_angle_alpha   117.85110512
_cell_angle_beta   117.85110512
_cell_angle_gamma   93.76412240
_symmetry_Int_Tables_number   1
_chemical_formula_structural   La10Se14O
_chemical_formula_sum   'La40 Se56 O4'
_cell_volume   2710.92764932
_cell_formula_units_Z   4
loop_
 _symmetry_equiv_pos_site_id
 _symmetry_equiv_pos_as_xyz
  1  'x, y, z'
loop_
 _atom_site_type_symbol
 _atom_site_label
 _atom_site_symmetry_multiplicity
 _atom_site_fract_x
 _atom_site_fract_y
 _atom_site_fract_z
 _atom_site_occupancy
  La  La0  1  0.11651700  0.11651700  0.73303400  1
  La  La1  1  0.39529800  0.04243500  0.09339800  1
  La  La2  1  0.88348300  0.61651700  0.00000000  1
  La  La3  1  0.85470200  0.44810000  0.14713700  1
  La  La4  1  0.18635400  0.81084500  0.36633100  1
  La  La5  1  0.07002400  0.19451400  0.13366900  1
  La  La6  1  0.06084500  0.93635400  0.86633100  1
  La  La7  1  0.89529800  0.80190000  0.35286300  1
  La  La8  1  0.45756500  0.10470200  0.90660200  1
  La  La9  1  0.30096300  0.70756500  0.85286300  1
  La  La10  1  0.06364600  0.92997600  0.12449000  1
  La  La11  1  0.80096300  0.94810000  0.59339800  1
  La  La12  1  0.38348300  0.38348300  0.26696600  1
  La  La13  1  0.69810000  0.60470200  0.64713700  1
  La  La14  1  0.30548600  0.42997600  0.86633100  1
  La  La15  1  0.18915500  0.55548600  0.37551000  1
  La  La16  1  0.79243500  0.19903700  0.14713700  1
  La  La17  1  0.44451400  0.82002400  0.63366900  1
  La  La18  1  0.68915500  0.31364600  0.63366900  1
  La  La19  1  0.17997600  0.81364600  0.62449000  1
  La  La20  1  0.94903700  0.30190000  0.90660200  1
  La  La21  1  0.67997600  0.05548600  0.36633100  1
  La  La22  1  0.68635400  0.32002400  0.37551000  1
  La  La23  1  0.57002400  0.43635400  0.87551000  1
  La  La24  1  0.55190000  0.69903700  0.40660200  1
  La  La25  1  0.94451400  0.31084500  0.62449000  1
  La  La26  1  0.63348300  0.13348300  0.76696600  1
  La  La27  1  0.19810000  0.55096300  0.09339800  1
  La  La28  1  0.05190000  0.64529800  0.85286300  1
  La  La29  1  0.44903700  0.54243500  0.64713700  1
  La  La30  1  0.56364600  0.43915500  0.13366900  1
  La  La31  1  0.95756500  0.05096300  0.35286300  1
  La  La32  1  0.36651700  0.86651700  0.23303400  1
  La  La33  1  0.35470200  0.20756500  0.40660200  1
  La  La34  1  0.13348300  0.36651700  0.50000000  1
  La  La35  1  0.80548600  0.93915500  0.87551000  1
  La  La36  1  0.29243500  0.14529800  0.59339800  1
  La  La37  1  0.61651700  0.88348300  0.00000000  1
  La  La38  1  0.56084500  0.69451400  0.12449000  1
  La  La39  1  0.86651700  0.63348300  0.50000000  1
  Se  Se0  1  0.89568400  0.74182100  0.89089400  1
  Se  Se1  1  0.66423300  0.52385100  0.78188200  1
  Se  Se2  1  0.31024200  0.64691300  0.02174500  1
  Se  Se3  1  0.75479000  0.14568400  0.65386300  1
  Se  Se4  1  0.12500000  0.72998700  0.10498700  1
  Se  Se5  1  0.39568400  0.50479000  0.15386300  1
  Se  Se6  1  0.62516700  0.28849700  0.97825500  1
  Se  Se7  1  0.62483300  0.10308700  0.16332900  1
  Se  Se8  1  0.35092700  0.24182100  0.84613700  1
  Se  Se9  1  0.97998700  0.87500000  0.60498700  1
  Se  Se10  1  0.27001300  0.37500000  0.39501300  1
  Se  Se11  1  0.24196900  0.02385100  0.85961800  1
  Se  Se12  1  0.50803100  0.22614900  0.64038200  1
  Se  Se13  1  0.47998700  0.87500000  0.10498700  1
  Se  Se14  1  0.21150300  0.87483300  0.02174500  1
  Se  Se15  1  0.35308700  0.37483300  0.66332900  1
  Se  Se16  1  0.49182100  0.10092700  0.34613700  1
  Se  Se17  1  0.61764900  0.75803100  0.78188200  1
  Se  Se18  1  0.16423300  0.38235100  0.14038200  1
  Se  Se19  1  0.62500000  0.52001300  0.39501300  1
  Se  Se20  1  0.49521000  0.64907300  0.89089400  1
  Se  Se21  1  0.25817900  0.14907300  0.15386300  1
  Se  Se22  1  0.97614900  0.83576700  0.21811800  1
  Se  Se23  1  0.89907300  0.24521000  0.39089400  1
  Se  Se24  1  0.63235100  0.91423300  0.64038200  1
  Se  Se25  1  0.00803100  0.36764900  0.28188200  1
  Se  Se26  1  0.13235100  0.49196900  0.71811800  1
  Se  Se27  1  0.75817900  0.60431600  0.10910600  1
  Se  Se28  1  0.11764900  0.33576700  0.85961800  1
  Se  Se29  1  0.12516700  0.14691300  0.33667100  1
  Se  Se30  1  0.62500000  0.02001300  0.89501300  1
  Se  Se31  1  0.77385100  0.41423300  0.28188200  1
  Se  Se32  1  0.89691300  0.06024200  0.52174500  1
  Se  Se33  1  0.81024200  0.78849700  0.66332900  1
  Se  Se34  1  0.43975800  0.60308700  0.47825500  1
  Se  Se35  1  0.25479000  0.60092700  0.60910600  1
  Se  Se36  1  0.53849700  0.37516700  0.47825500  1
  Se  Se37  1  0.77001300  0.37500000  0.89501300  1
  Se  Se38  1  0.85092700  0.00479000  0.10910600  1
  Se  Se39  1  0.03849700  0.56024200  0.16332900  1
  Se  Se40  1  0.39907300  0.00817900  0.65386300  1
  Se  Se41  1  0.39691300  0.87516700  0.83667100  1
  Se  Se42  1  0.99182100  0.64568400  0.39089400  1
  Se  Se43  1  0.27385100  0.99196900  0.35961800  1
  Se  Se44  1  0.93975800  0.46150300  0.83667100  1
  Se  Se45  1  0.12483300  0.96150300  0.52174500  1
  Se  Se46  1  0.99521000  0.10431600  0.84613700  1
  Se  Se47  1  0.71150300  0.68975800  0.33667100  1
  Se  Se48  1  0.47614900  0.25803100  0.14038200  1
  Se  Se49  1  0.74196900  0.88235100  0.21811800  1
  Se  Se50  1  0.58576700  0.86764900  0.35961800  1
  Se  Se51  1  0.12500000  0.22998700  0.60498700  1
  Se  Se52  1  0.08576700  0.72614900  0.71811800  1
  Se  Se53  1  0.85308700  0.18975800  0.97825500  1
  Se  Se54  1  0.85431600  0.50817900  0.60910600  1
  Se  Se55  1  0.35431600  0.74521000  0.34613700  1
  O  O0  1  0.25000000  0.75000000  0.50000000  1
  O  O1  1  0.00000000  0.00000000  0.00000000  1
  O  O2  1  0.75000000  0.25000000  0.50000000  1
  O  O3  1  0.50000000  0.50000000  0.00000000  1
loop_
_geom_bond_atom_site_label_1
_geom_bond_atom_site_label_2
_geom_bond_distance
_geom_bond_site_symmetry_2
La0 Se28 3.020864 1_555
La0 Se11 3.020864 1_555
La0 Se32 3.097501 1_455
La0 Se45 3.097510 1_545
La0 Se46 3.159731 1_455
La0 Se8 3.159731 1_555
La0 Se9 3.243615 1_445
La0 Se51 3.243615 1_555
La1 Se21 2.999876 1_555
La1 Se13 3.024894 1_545
La1 Se16 3.070935 1_555
La1 Se14 3.077479 1_545
La1 Se48 3.096482 1_555
La1 Se7 3.117474 1_555
La1 Se11 3.121944 1_554
La1 Se41 3.607555 1_544
La2 Se22 3.020864 1_555
La2 Se1 3.020864 1_554
La2 Se39 3.097501 1_655
La2 Se44 3.097501 1_554
La2 Se27 3.159731 1_555
La2 Se0 3.159731 1_554
La2 Se37 3.243615 1_554
La2 Se4 3.243615 1_655
La3 Se42 2.999876 1_555
La3 Se37 3.024894 1_554
La3 Se27 3.070935 1_555
La3 Se39 3.077489 1_655
La3 Se31 3.096482 1_555
La3 Se6 3.117470 1_554
La3 Se25 3.121944 1_655
La3 Se53 3.607552 1_554
La4 O0 2.488211 1_555
La4 Se55 2.952833 1_555
La4 Se45 3.056906 1_555
La4 Se43 3.103738 1_555
La4 Se22 3.168558 1_455
La4 Se4 3.221986 1_555
La4 Se39 3.303146 1_555
La4 Se40 3.506290 1_565
La5 O1 2.488211 1_555
La5 Se21 2.952818 1_555
La5 Se53 3.056928 1_454
La5 Se18 3.103732 1_555
La5 Se25 3.168568 1_555
La5 Se10 3.221982 1_555
La5 Se29 3.303151 1_555
La5 Se46 3.506285 1_454
La6 O1 2.488211 1_566
La6 Se46 2.952833 1_465
La6 Se14 3.056906 1_556
La6 Se11 3.103738 1_565
La6 Se52 3.168558 1_555
La6 Se9 3.221986 1_455
La6 Se33 3.303146 1_455
La6 Se21 3.506290 1_566
La7 Se27 2.999876 1_555
La7 Se9 3.024894 1_555
La7 Se42 3.070935 1_555
La7 Se47 3.077489 1_555
La7 Se22 3.096482 1_555
La7 Se45 3.117470 1_655
La7 Se49 3.121944 1_555
La7 Se32 3.607552 1_565
La8 Se8 2.999876 1_555
La8 Se30 3.024894 1_555
La8 Se40 3.070935 1_555
La8 Se6 3.077479 1_555
La8 Se11 3.096482 1_555
La8 Se41 3.117474 1_545
La8 Se48 3.121944 1_556
La8 Se7 3.607555 1_556
La9 Se35 2.999876 1_555
La9 Se13 3.024894 1_556
La9 Se20 3.070935 1_555
La9 Se41 3.077475 1_555
La9 Se26 3.096482 1_555
La9 Se2 3.117459 1_556
La9 Se52 3.121944 1_555
La9 Se14 3.607558 1_556
La10 O1 2.488212 1_565
La10 Se0 2.952822 1_454
La10 Se29 3.056937 1_565
La10 Se22 3.103742 1_455
La10 Se43 3.168561 1_555
La10 Se4 3.221975 1_555
La10 Se14 3.303133 1_555
La10 Se38 3.506300 1_465
La11 Se3 2.999876 1_565
La11 Se9 3.024894 1_555
La11 Se46 3.070935 1_565
La11 Se32 3.077489 1_565
La11 Se24 3.096482 1_555
La11 Se33 3.117459 1_555
La11 Se50 3.121944 1_555
La11 Se47 3.607552 1_555
La12 Se18 3.020864 1_555
La12 Se48 3.020864 1_555
La12 Se34 3.097501 1_555
La12 Se36 3.097510 1_555
La12 Se21 3.159731 1_555
La12 Se5 3.159731 1_555
La12 Se10 3.243615 1_555
La12 Se19 3.243615 1_555
La13 Se0 2.999876 1_555
La13 Se19 3.024894 1_555
La13 Se54 3.070935 1_555
La13 Se33 3.077489 1_555
La13 Se1 3.096482 1_555
La13 Se36 3.117470 1_555
La13 Se17 3.121944 1_555
La13 Se34 3.607552 1_555
La14 O3 2.488211 1_556
La14 Se8 2.952818 1_555
La14 Se2 3.056928 1_556
La14 Se28 3.103732 1_555
La14 Se26 3.168568 1_555
La14 Se51 3.221982 1_555
La14 Se15 3.303151 1_555
La14 Se5 3.506285 1_556
La15 O0 2.488211 1_555
La15 Se35 2.952818 1_555
La15 Se39 3.056928 1_555
La15 Se25 3.103732 1_555
La15 Se18 3.168568 1_555
La15 Se10 3.221982 1_555
La15 Se34 3.303149 1_555
La15 Se42 3.506285 1_455
La16 Se23 2.999876 1_555
La16 Se30 3.024894 1_554
La16 Se38 3.070935 1_555
La16 Se7 3.077475 1_555
La16 Se25 3.096482 1_655
La16 Se53 3.117459 1_554
La16 Se31 3.121944 1_555
La16 Se6 3.607558 1_554
La17 O0 2.488211 1_555
La17 Se40 2.952818 1_565
La17 Se34 3.056928 1_555
La17 Se24 3.103732 1_555
La17 Se17 3.168568 1_555
La17 Se30 3.221982 1_565
La17 Se41 3.303151 1_555
La17 Se55 3.506285 1_555
La18 O2 2.488211 1_555
La18 Se3 2.952833 1_555
La18 Se36 3.056906 1_555
La18 Se12 3.103738 1_555
La18 Se1 3.168558 1_555
La18 Se37 3.221986 1_555
La18 Se44 3.303146 1_555
La18 Se16 3.506290 1_555
La19 O0 2.488212 1_555
La19 Se42 2.952822 1_455
La19 Se41 3.056937 1_555
La19 Se52 3.103742 1_555
La19 Se11 3.168561 1_565
La19 Se9 3.221975 1_455
La19 Se45 3.303133 1_555
La19 Se35 3.506300 1_555
La20 Se46 2.999876 1_555
La20 Se37 3.024894 1_555
La20 Se3 3.070935 1_555
La20 Se53 3.077489 1_555
La20 Se28 3.096482 1_655
La20 Se44 3.117459 1_555
La20 Se18 3.121944 1_656
La20 Se39 3.607552 1_656
La21 O2 2.488211 1_555
La21 Se16 2.952818 1_555
La21 Se32 3.056928 1_555
La21 Se50 3.103732 1_545
La21 Se49 3.168568 1_545
La21 Se13 3.221982 1_545
La21 Se7 3.303151 1_555
La21 Se3 3.506285 1_555
La22 O2 2.488212 1_555
La22 Se54 2.952822 1_555
La22 Se7 3.056937 1_555
La22 Se31 3.103742 1_555
La22 Se48 3.168561 1_555
La22 Se19 3.221975 1_555
La22 Se36 3.303133 1_555
La22 Se23 3.506300 1_555
La23 O3 2.488212 1_556
La23 Se27 2.952822 1_556
La23 Se15 3.056937 1_555
La23 Se1 3.103742 1_555
La23 Se12 3.168561 1_555
La23 Se37 3.221975 1_555
La23 Se6 3.303133 1_555
La23 Se20 3.506300 1_555
La24 Se55 2.999876 1_555
La24 Se19 3.024894 1_555
La24 Se5 3.070935 1_555
La24 Se34 3.077489 1_555
La24 Se50 3.096482 1_555
La24 Se47 3.117459 1_555
La24 Se24 3.121944 1_555
La24 Se33 3.607552 1_555
La25 O2 2.488211 1_555
La25 Se23 2.952818 1_555
La25 Se44 3.056928 1_555
La25 Se26 3.103732 1_655
La25 Se28 3.168568 1_655
La25 Se51 3.221982 1_655
La25 Se32 3.303149 1_555
La25 Se54 3.506285 1_555
La26 Se12 3.020864 1_555
La26 Se24 3.020864 1_545
La26 Se53 3.097501 1_555
La26 Se6 3.097510 1_555
La26 Se3 3.159731 1_555
La26 Se40 3.159731 1_555
La26 Se37 3.243615 1_555
La26 Se30 3.243615 1_555
La27 Se5 2.999876 1_555
La27 Se4 3.024894 1_555
La27 Se55 3.070935 1_555
La27 Se2 3.077489 1_555
La27 Se18 3.096482 1_555
La27 Se39 3.117459 1_555
La27 Se28 3.121944 1_554
La27 Se44 3.607552 1_454
La28 Se54 2.999876 1_455
La28 Se4 3.024894 1_556
La28 Se0 3.070935 1_455
La28 Se44 3.077489 1_455
La28 Se52 3.096482 1_555
La28 Se14 3.117470 1_556
La28 Se26 3.121944 1_555
La28 Se2 3.607552 1_556
La29 Se20 2.999876 1_555
La29 Se10 3.024894 1_555
La29 Se35 3.070935 1_555
La29 Se15 3.077475 1_555
La29 Se17 3.096482 1_555
La29 Se34 3.117459 1_555
La29 Se1 3.121944 1_555
La29 Se36 3.607558 1_555
La30 O3 2.488211 1_555
La30 Se5 2.952833 1_555
La30 Se6 3.056906 1_554
La30 Se48 3.103738 1_555
La30 Se31 3.168558 1_555
La30 Se19 3.221986 1_555
La30 Se47 3.303146 1_555
La30 Se8 3.506290 1_554
La31 Se38 2.999876 1_555
La31 Se51 3.024894 1_655
La31 Se23 3.070935 1_555
La31 Se29 3.077475 1_655
La31 Se49 3.096482 1_545
La31 Se32 3.117459 1_555
La31 Se22 3.121944 1_545
La31 Se45 3.607558 1_645
La32 Se50 3.020864 1_555
La32 Se43 3.020864 1_555
La32 Se2 3.097501 1_555
La32 Se14 3.097510 1_555
La32 Se16 3.159731 1_565
La32 Se55 3.159731 1_555
La32 Se13 3.243615 1_555
La32 Se4 3.243615 1_555
La33 Se16 2.999876 1_555
La33 Se10 3.024894 1_555
La33 Se21 3.070935 1_555
La33 Se36 3.077479 1_555
La33 Se43 3.096482 1_545
La33 Se29 3.117474 1_555
La33 Se12 3.121944 1_555
La33 Se15 3.607555 1_555
La34 Se26 3.020864 1_555
La34 Se25 3.020864 1_555
La34 Se29 3.097495 1_555
La34 Se15 3.097495 1_555
La34 Se23 3.159731 1_455
La34 Se35 3.159731 1_555
La34 Se51 3.243615 1_555
La34 Se10 3.243615 1_555
La35 O1 2.488211 1_666
La35 Se38 2.952818 1_566
La35 Se33 3.056928 1_555
La35 Se17 3.103732 1_555
La35 Se24 3.168568 1_555
La35 Se30 3.221982 1_565
La35 Se53 3.303149 1_565
La35 Se0 3.506285 1_555
La36 Se40 2.999876 1_555
La36 Se51 3.024894 1_555
La36 Se8 3.070935 1_555
La36 Se45 3.077479 1_545
La36 Se12 3.096482 1_555
La36 Se15 3.117474 1_555
La36 Se43 3.121944 1_545
La36 Se29 3.607555 1_555
La37 Se49 3.020864 1_555
La37 Se17 3.020864 1_554
La37 Se7 3.097495 1_565
La37 Se41 3.097495 1_554
La37 Se20 3.159731 1_554
La37 Se38 3.159731 1_565
La37 Se13 3.243615 1_555
La37 Se30 3.243615 1_564
La38 O3 2.488211 1_555
La38 Se20 2.952818 1_554
La38 Se47 3.056928 1_555
La38 Se49 3.103732 1_555
La38 Se50 3.168568 1_555
La38 Se13 3.221982 1_555
La38 Se2 3.303149 1_555
La38 Se27 3.506285 1_555
La39 Se52 3.020864 1_655
La39 Se31 3.020864 1_555
La39 Se33 3.097501 1_555
La39 Se47 3.097501 1_555
La39 Se54 3.159731 1_555
La39 Se42 3.159731 1_555
La39 Se19 3.243615 1_555
La39 Se9 3.243615 1_555
