# generated using pymatgen
data_Ce(SiPt)2
_symmetry_space_group_name_H-M   'P 1'
_cell_length_a   5.81926415
_cell_length_b   5.81926415
_cell_length_c   5.81926415
_cell_angle_alpha   137.61822483
_cell_angle_beta   137.61822483
_cell_angle_gamma   61.48821084
_symmetry_Int_Tables_number   1
_chemical_formula_structural   Ce(SiPt)2
_chemical_formula_sum   'Ce1 Si2 Pt2'
_cell_volume   88.52154794
_cell_formula_units_Z   1
loop_
 _symmetry_equiv_pos_site_id
 _symmetry_equiv_pos_as_xyz
  1  'x, y, z'
loop_
 _atom_site_type_symbol
 _atom_site_label
 _atom_site_symmetry_multiplicity
 _atom_site_fract_x
 _atom_site_fract_y
 _atom_site_fract_z
 _atom_site_occupancy
  Ce  Ce0  1  0.00000000  0.00000000  0.00000000  1
  Si  Si0  1  0.61797500  0.61797500  0.00000000  1
  Si  Si1  1  0.38202500  0.38202500  0.00000000  1
  Pt  Pt0  1  0.75000000  0.25000000  0.50000000  1
  Pt  Pt1  1  0.25000000  0.75000000  0.50000000  1
loop_
_geom_bond_atom_site_label_1
_geom_bond_atom_site_label_2
_geom_bond_distance
_geom_bond_site_symmetry_2
Ce0 Si0 3.200351 1_556
Ce0 Si0 3.200351 1_455
Ce0 Si0 3.200351 1_444
Ce0 Si0 3.200351 1_545
Ce0 Si1 3.200351 1_545
Ce0 Si1 3.200351 1_455
Ce0 Si1 3.200351 1_444
Ce0 Si1 3.200351 1_556
Ce0 Pt0 3.267777 1_555
Ce0 Pt1 3.267777 1_444
Ce0 Pt1 3.267777 1_544
Ce0 Pt0 3.267777 1_455
Ce0 Pt1 3.267777 1_555
Ce0 Pt1 3.267777 1_545
Ce0 Pt0 3.267777 1_444
Ce0 Pt0 3.267777 1_454
Si0 Si1 2.360170 1_555
Pt0 Si1 2.483721 1_555
Pt0 Si1 2.483721 1_656
Pt0 Si0 2.483721 1_545
Pt0 Si0 2.483721 1_556
Pt1 Si1 2.483721 1_555
Pt1 Si1 2.483721 1_566
Pt1 Si0 2.483721 1_455
Pt1 Si0 2.483721 1_556
