# generated using pymatgen
data_SrCrF4
_symmetry_space_group_name_H-M   'P 1'
_cell_length_a   6.88698135
_cell_length_b   6.88698135
_cell_length_c   6.88698135
_cell_angle_alpha   134.37571984
_cell_angle_beta   128.95389552
_cell_angle_gamma   70.84921478
_symmetry_Int_Tables_number   1
_chemical_formula_structural   SrCrF4
_chemical_formula_sum   'Sr2 Cr2 F8'
_cell_volume   177.86820195
_cell_formula_units_Z   2
loop_
 _symmetry_equiv_pos_site_id
 _symmetry_equiv_pos_as_xyz
  1  'x, y, z'
loop_
 _atom_site_type_symbol
 _atom_site_label
 _atom_site_symmetry_multiplicity
 _atom_site_fract_x
 _atom_site_fract_y
 _atom_site_fract_z
 _atom_site_occupancy
  Sr  Sr0  1  -0.00000000  0.50000000  0.50000000  1
  Sr  Sr1  1  0.50000000  -0.00000000  0.50000000  1
  Cr  Cr0  1  0.25000000  0.25000000  0.00000000  1
  Cr  Cr1  1  0.75000000  0.75000000  0.00000000  1
  F  F0  1  0.67571118  0.03125851  0.95988700  1
  F  F1  1  0.57137151  0.53125851  0.35554633  1
  F  F2  1  0.42862849  0.46874149  0.64445367  1
  F  F3  1  0.82428882  0.78417483  0.35554633  1
  F  F4  1  0.92862849  0.28417483  0.95988700  1
  F  F5  1  0.07137151  0.71582517  0.04011300  1
  F  F6  1  0.17571118  0.21582517  0.64445367  1
  F  F7  1  0.32428882  0.96874149  0.04011300  1
loop_
_geom_bond_atom_site_label_1
_geom_bond_atom_site_label_2
_geom_bond_distance
_geom_bond_site_symmetry_2
Cr0 F6 2.002663 1_554
Cr0 F7 2.002665 1_545
Cr0 F4 2.002666 1_454
Cr0 F1 2.002666 1_555
Cr1 F3 2.002663 1_555
Cr1 F0 2.002665 1_564
Cr1 F5 2.002666 1_655
Cr1 F2 2.002666 1_554
F0 Sr1 2.437231 1_555
F0 Sr0 2.595065 1_656
F1 Sr0 2.437229 1_655
F1 Sr1 2.595062 1_565
F2 Sr0 2.437229 1_555
F2 Sr1 2.595062 1_555
F3 Sr0 2.437229 1_655
F3 Sr1 2.595068 1_565
F4 Sr1 2.437229 1_555
F4 Sr0 2.595062 1_656
F5 Sr1 2.437229 1_565
F5 Sr0 2.595062 1_554
F6 Sr0 2.437229 1_555
F6 Sr1 2.595068 1_555
F7 Sr1 2.437231 1_565
F7 Sr0 2.595065 1_554
