# generated using pymatgen
data_NaSn2
_symmetry_space_group_name_H-M   'P 1'
_cell_length_a   6.93362109
_cell_length_b   7.61016902
_cell_length_c   15.44629072
_cell_angle_alpha   101.24972176
_cell_angle_beta   90.00000000
_cell_angle_gamma   117.10031124
_symmetry_Int_Tables_number   1
_chemical_formula_structural   NaSn2
_chemical_formula_sum   'Na8 Sn16'
_cell_volume   707.91982197
_cell_formula_units_Z   8
loop_
 _symmetry_equiv_pos_site_id
 _symmetry_equiv_pos_as_xyz
  1  'x, y, z'
loop_
 _atom_site_type_symbol
 _atom_site_label
 _atom_site_symmetry_multiplicity
 _atom_site_fract_x
 _atom_site_fract_y
 _atom_site_fract_z
 _atom_site_occupancy
  Na  Na0  1  0.38032444  0.76064788  0.56368802  1
  Na  Na1  1  0.08874808  0.17749516  0.41751465  1
  Na  Na2  1  0.25006305  0.00000000  0.00000000  1
  Na  Na3  1  0.72672192  0.45344383  0.91102227  1
  Na  Na4  1  0.61967556  0.23935212  0.43631198  1
  Na  Na5  1  0.91125192  0.82250484  0.58248535  1
  Na  Na6  1  0.74993695  0.00000000  0.00000000  1
  Na  Na7  1  0.27327808  0.54655617  0.08897773  1
  Sn  Sn0  1  0.61318631  0.65870427  0.74722001  1
  Sn  Sn1  1  0.33001124  0.08807387  0.74692408  1
  Sn  Sn2  1  0.04551796  0.65870427  0.74722001  1
  Sn  Sn3  1  0.32597792  0.65195585  0.88530419  1
  Sn  Sn4  1  0.66998876  0.91192613  0.25307592  1
  Sn  Sn5  1  0.11528142  0.23056283  0.88471073  1
  Sn  Sn6  1  0.63391404  0.69593803  0.39388097  1
  Sn  Sn7  1  0.95448204  0.34129573  0.25277999  1
  Sn  Sn8  1  0.75806264  0.08807387  0.74692408  1
  Sn  Sn9  1  0.38681369  0.34129573  0.25277999  1
  Sn  Sn10  1  0.67402208  0.34804415  0.11469581  1
  Sn  Sn11  1  0.93797801  0.30406197  0.60611903  1
  Sn  Sn12  1  0.06202199  0.69593803  0.39388097  1
  Sn  Sn13  1  0.88471858  0.76943717  0.11528927  1
  Sn  Sn14  1  0.36608696  0.30406197  0.60611903  1
  Sn  Sn15  1  0.24193736  0.91192613  0.25307592  1
loop_
_geom_bond_atom_site_label_1
_geom_bond_atom_site_label_2
_geom_bond_distance
_geom_bond_site_symmetry_2
Na0 Sn6 3.240153 1_555
Na0 Sn12 3.240166 1_555
Na0 Na5 3.496471 1_555
Na0 Na5 3.496485 1_455
Na0 Sn8 3.518747 1_565
Na0 Sn1 3.518750 1_565
Na0 Sn11 3.617844 1_455
Na0 Sn14 3.617849 1_555
Na0 Sn0 3.639325 1_555
Na0 Sn2 3.639329 1_555
Na1 Sn11 3.214046 1_455
Na1 Sn14 3.214052 1_555
Na1 Sn9 3.345162 1_555
Na1 Sn7 3.345165 1_455
Na1 Sn15 3.408384 1_545
Na1 Sn4 3.408389 1_445
Na1 Na4 3.496471 1_555
Na1 Na4 3.496485 1_455
Na1 Sn12 3.529468 1_545
Na1 Sn6 3.529477 1_445
Na2 Sn5 3.136296 1_554
Na2 Sn13 3.136296 1_445
Na2 Sn3 3.141744 1_544
Na2 Sn10 3.141745 1_555
Na2 Na6 3.465936 1_555
Na2 Na6 3.467685 1_455
Na3 Sn10 3.375167 1_556
Na3 Sn13 3.402569 1_556
Na3 Sn8 3.464671 1_555
Na3 Sn1 3.464671 1_555
Na3 Sn2 3.481919 1_655
Na3 Sn0 3.481919 1_555
Na4 Sn14 3.240149 1_555
Na4 Sn11 3.240166 1_555
Na4 Sn15 3.518747 1_545
Na4 Sn4 3.518750 1_545
Na4 Sn12 3.617844 1_655
Na4 Sn6 3.617847 1_555
Na4 Sn9 3.639325 1_555
Na4 Sn7 3.639329 1_555
Na5 Sn12 3.214046 1_655
Na5 Sn6 3.214049 1_555
Na5 Sn0 3.345162 1_555
Na5 Sn2 3.345165 1_655
Na5 Sn8 3.408384 1_565
Na5 Sn1 3.408389 1_665
Na5 Sn11 3.529468 1_565
Na5 Sn14 3.529480 1_665
Na6 Sn13 3.136296 1_545
Na6 Sn5 3.136296 1_654
Na6 Sn10 3.141744 1_555
Na6 Sn3 3.141745 1_544
Na7 Sn3 3.375167 1_554
Na7 Sn5 3.402569 1_554
Na7 Sn15 3.464671 1_555
Na7 Sn4 3.464671 1_555
Na7 Sn7 3.481919 1_455
Na7 Sn9 3.481919 1_555
Sn0 Sn14 2.908876 1_555
Sn0 Sn3 2.909821 1_555
Sn0 Sn8 2.949816 1_565
Sn0 Sn2 2.997624 1_655
Sn1 Sn5 2.914215 1_555
Sn1 Sn14 2.918018 1_555
Sn1 Sn2 2.949816 1_545
Sn1 Sn8 2.967946 1_555
Sn2 Sn3 2.909821 1_555
Sn3 Sn5 2.852796 1_555
Sn4 Sn6 2.918019 1_555
Sn4 Sn7 2.949816 1_565
Sn5 Sn8 2.914215 1_455
Sn6 Sn9 2.908877 1_555
Sn7 Sn9 2.997624 1_655
Sn10 Sn13 2.852796 1_555
Sn10 Sn7 2.909821 1_555
Sn10 Sn9 2.909821 1_555
Sn11 Sn2 2.908879 1_655
Sn11 Sn8 2.918022 1_555
Sn11 Sn14 2.968345 1_655
Sn12 Sn7 2.908879 1_455
Sn12 Sn15 2.918022 1_555
Sn12 Sn6 2.968338 1_455
Sn13 Sn4 2.914215 1_555
Sn13 Sn15 2.914215 1_655
Sn15 Sn9 2.949816 1_565
Sn15 Sn4 2.967946 1_555
