# generated using pymatgen
data_C4SeO2
_symmetry_space_group_name_H-M   'P 1'
_cell_length_a   4.46058600
_cell_length_b   9.12810600
_cell_length_c   11.70857600
_cell_angle_alpha   90.00000000
_cell_angle_beta   90.00000000
_cell_angle_gamma   90.00000000
_symmetry_Int_Tables_number   1
_chemical_formula_structural   C4SeO2
_chemical_formula_sum   'C16 Se4 O8'
_cell_volume   476.73459785
_cell_formula_units_Z   4
loop_
 _symmetry_equiv_pos_site_id
 _symmetry_equiv_pos_as_xyz
  1  'x, y, z'
loop_
 _atom_site_type_symbol
 _atom_site_label
 _atom_site_symmetry_multiplicity
 _atom_site_fract_x
 _atom_site_fract_y
 _atom_site_fract_z
 _atom_site_occupancy
  C  C0  1  0.91656600  0.06400900  0.88221100  1
  C  C1  1  0.58343400  0.56400900  0.61778900  1
  C  C2  1  0.41656600  0.43599100  0.61778900  1
  C  C3  1  0.90587400  0.07158800  0.24596000  1
  C  C4  1  0.59412600  0.57158800  0.25404000  1
  C  C5  1  0.58343400  0.56400900  0.38221100  1
  C  C6  1  0.40587400  0.42841200  0.74596000  1
  C  C7  1  0.09412600  0.92841200  0.75404000  1
  C  C8  1  0.08343400  0.93599100  0.11778900  1
  C  C9  1  0.91656600  0.06400900  0.11778900  1
  C  C10  1  0.40587400  0.42841200  0.25404000  1
  C  C11  1  0.90587400  0.07158800  0.75404000  1
  C  C12  1  0.59412600  0.57158800  0.74596000  1
  C  C13  1  0.08343400  0.93599100  0.88221100  1
  C  C14  1  0.41656600  0.43599100  0.38221100  1
  C  C15  1  0.09412600  0.92841200  0.24596000  1
  Se  Se0  1  0.23743200  0.81727200  0.00000000  1
  Se  Se1  1  0.76256800  0.18272800  0.00000000  1
  Se  Se2  1  0.26256800  0.31727200  0.50000000  1
  Se  Se3  1  0.73743200  0.68272800  0.50000000  1
  O  O0  1  0.70275500  0.65216100  0.81732200  1
  O  O1  1  0.79724500  0.15216100  0.31732200  1
  O  O2  1  0.29724500  0.34783900  0.18267800  1
  O  O3  1  0.70275500  0.65216100  0.18267800  1
  O  O4  1  0.20275500  0.84783900  0.68267800  1
  O  O5  1  0.20275500  0.84783900  0.31732200  1
  O  O6  1  0.79724500  0.15216100  0.68267800  1
  O  O7  1  0.29724500  0.34783900  0.81732200  1
loop_
_geom_bond_atom_site_label_1
_geom_bond_atom_site_label_2
_geom_bond_distance
_geom_bond_site_symmetry_2
C0 C13 1.385483 1_645
C0 C11 1.503051 1_555
C0 Se1 1.883681 1_556
C1 C2 1.385483 1_555
C1 C12 1.503051 1_555
C1 Se3 1.883681 1_555
C2 C6 1.503051 1_555
C2 Se2 1.883681 1_555
C3 O1 1.214025 1_555
C3 C9 1.503051 1_555
C4 O3 1.214025 1_555
C4 C5 1.503051 1_555
C5 Se3 1.883681 1_555
C6 O7 1.214025 1_555
C7 O4 1.214025 1_555
C8 C9 1.385483 1_465
C8 Se0 1.883681 1_555
C9 Se1 1.883681 1_555
C10 O2 1.214025 1_555
C10 C14 1.503051 1_555
C11 O6 1.214025 1_555
C12 O0 1.214025 1_555
C13 C7 1.503051 1_555
C13 Se0 1.883681 1_556
C14 C5 1.385483 1_555
C14 Se2 1.883681 1_555
C15 O5 1.214025 1_555
C15 C8 1.503051 1_555
