# generated using pymatgen
data_Ba2NiF6
_symmetry_space_group_name_H-M   'P 1'
_cell_length_a   4.13170800
_cell_length_b   4.13170800
_cell_length_c   8.75523652
_cell_angle_alpha   103.64800536
_cell_angle_beta   103.64800536
_cell_angle_gamma   90.00000000
_symmetry_Int_Tables_number   1
_chemical_formula_structural   Ba2NiF6
_chemical_formula_sum   'Ba2 Ni1 F6'
_cell_volume   140.89393338
_cell_formula_units_Z   1
loop_
 _symmetry_equiv_pos_site_id
 _symmetry_equiv_pos_as_xyz
  1  'x, y, z'
loop_
 _atom_site_type_symbol
 _atom_site_label
 _atom_site_symmetry_multiplicity
 _atom_site_fract_x
 _atom_site_fract_y
 _atom_site_fract_z
 _atom_site_occupancy
  Ba  Ba0  1  0.84883900  0.84883900  0.69767800  1
  Ba  Ba1  1  0.15116100  0.15116100  0.30232200  1
  Ni  Ni0  1  0.50000000  0.50000000  0.00000000  1
  F  F0  1  0.61888100  0.61888100  0.23776200  1
  F  F1  1  0.38111900  0.38111900  0.76223800  1
  F  F2  1  0.00000000  0.50000000  0.00000000  1
  F  F3  1  0.75000000  0.25000000  0.50000000  1
  F  F4  1  0.25000000  0.75000000  0.50000000  1
  F  F5  1  0.50000000  0.00000000  0.00000000  1
loop_
_geom_bond_atom_site_label_1
_geom_bond_atom_site_label_2
_geom_bond_distance
_geom_bond_site_symmetry_2
Ba0 F3 2.632413 1_555
Ba0 F4 2.632413 1_555
Ba0 F3 2.632413 1_565
Ba0 F4 2.632413 1_655
Ba0 F1 2.969751 1_565
Ba0 F1 2.969751 1_665
Ba0 F1 2.969751 1_555
Ba0 F1 2.969751 1_655
Ba0 F2 3.239398 1_666
Ba0 F5 3.239398 1_566
Ba0 F2 3.239398 1_656
Ba0 F5 3.239398 1_666
Ba1 F4 2.632413 1_545
Ba1 F3 2.632413 1_455
Ba1 F3 2.632413 1_555
Ba1 F4 2.632413 1_555
Ba1 F0 2.969751 1_445
Ba1 F0 2.969751 1_555
Ba1 F0 2.969751 1_545
Ba1 F0 2.969751 1_455
Ba1 F5 3.239398 1_555
Ba1 F2 3.239398 1_545
Ba1 F5 3.239398 1_455
Ba1 F2 3.239398 1_555
F0 Ni0 1.962346 1_555
F1 Ni0 1.962346 1_556
F2 Ni0 2.065854 1_455
F2 Ni0 2.065854 1_555
F5 Ni0 2.065854 1_555
F5 Ni0 2.065854 1_545
