# generated using pymatgen
data_Bi6PtCl10
_symmetry_space_group_name_H-M   'P 1'
_cell_length_a   9.95781100
_cell_length_b   17.03233200
_cell_length_c   26.93796500
_cell_angle_alpha   90.00000000
_cell_angle_beta   90.00000000
_cell_angle_gamma   90.00000000
_symmetry_Int_Tables_number   1
_chemical_formula_structural   Bi6PtCl10
_chemical_formula_sum   'Bi48 Pt8 Cl80'
_cell_volume   4568.80662929
_cell_formula_units_Z   8
loop_
 _symmetry_equiv_pos_site_id
 _symmetry_equiv_pos_as_xyz
  1  'x, y, z'
loop_
 _atom_site_type_symbol
 _atom_site_label
 _atom_site_symmetry_multiplicity
 _atom_site_fract_x
 _atom_site_fract_y
 _atom_site_fract_z
 _atom_site_occupancy
  Bi  Bi0  1  0.14754800  0.92775000  0.57334400  1
  Bi  Bi1  1  0.34309100  0.63241800  0.99146600  1
  Bi  Bi2  1  0.15690900  0.13241800  0.50853400  1
  Bi  Bi3  1  0.29491700  0.42093800  0.25000000  1
  Bi  Bi4  1  0.35245200  0.42775000  0.92665600  1
  Bi  Bi5  1  0.63286000  0.35683000  0.32028900  1
  Bi  Bi6  1  0.31623500  0.44494000  0.43302800  1
  Bi  Bi7  1  0.65690900  0.36758200  0.49146600  1
  Bi  Bi8  1  0.81623500  0.05506000  0.56697200  1
  Bi  Bi9  1  0.13286000  0.14317000  0.67971100  1
  Bi  Bi10  1  0.36714000  0.64317000  0.67971100  1
  Bi  Bi11  1  0.85245200  0.07225000  0.42665600  1
  Bi  Bi12  1  0.80629500  0.27578100  0.67949400  1
  Bi  Bi13  1  0.86714000  0.85683000  0.32028900  1
  Bi  Bi14  1  0.31623500  0.44494000  0.06697200  1
  Bi  Bi15  1  0.80629500  0.27578100  0.82050600  1
  Bi  Bi16  1  0.36714000  0.64317000  0.82028900  1
  Bi  Bi17  1  0.70508300  0.57906200  0.75000000  1
  Bi  Bi18  1  0.30629500  0.22421900  0.17949400  1
  Bi  Bi19  1  0.13286000  0.14317000  0.82028900  1
  Bi  Bi20  1  0.81623500  0.05506000  0.93302800  1
  Bi  Bi21  1  0.85245200  0.07225000  0.07334400  1
  Bi  Bi22  1  0.84309100  0.86758200  0.00853400  1
  Bi  Bi23  1  0.18376500  0.94494000  0.43302800  1
  Bi  Bi24  1  0.19370500  0.72421900  0.17949400  1
  Bi  Bi25  1  0.35245200  0.42775000  0.57334400  1
  Bi  Bi26  1  0.15690900  0.13241800  0.99146600  1
  Bi  Bi27  1  0.34309100  0.63241800  0.50853400  1
  Bi  Bi28  1  0.14754800  0.92775000  0.92665600  1
  Bi  Bi29  1  0.30629500  0.22421900  0.32050600  1
  Bi  Bi30  1  0.64754800  0.57225000  0.42665600  1
  Bi  Bi31  1  0.37643000  0.83887700  0.75000000  1
  Bi  Bi32  1  0.79491700  0.07906200  0.75000000  1
  Bi  Bi33  1  0.64754800  0.57225000  0.07334400  1
  Bi  Bi34  1  0.20508300  0.92093800  0.25000000  1
  Bi  Bi35  1  0.87643000  0.66112300  0.25000000  1
  Bi  Bi36  1  0.69370500  0.77578100  0.82050600  1
  Bi  Bi37  1  0.84309100  0.86758200  0.49146600  1
  Bi  Bi38  1  0.86714000  0.85683000  0.17971100  1
  Bi  Bi39  1  0.12357000  0.33887700  0.75000000  1
  Bi  Bi40  1  0.68376500  0.55506000  0.93302800  1
  Bi  Bi41  1  0.63286000  0.35683000  0.17971100  1
  Bi  Bi42  1  0.19370500  0.72421900  0.32050600  1
  Bi  Bi43  1  0.68376500  0.55506000  0.56697200  1
  Bi  Bi44  1  0.62357000  0.16112300  0.25000000  1
  Bi  Bi45  1  0.69370500  0.77578100  0.67949400  1
  Bi  Bi46  1  0.65690900  0.36758200  0.00853400  1
  Bi  Bi47  1  0.18376500  0.94494000  0.06697200  1
  Pt  Pt0  1  0.53579700  0.70545900  0.75000000  1
  Pt  Pt1  1  0.03579700  0.79454100  0.25000000  1
  Pt  Pt2  1  0.46420300  0.29454100  0.25000000  1
  Pt  Pt3  1  0.50000000  0.50000000  0.00000000  1
  Pt  Pt4  1  0.00000000  0.00000000  0.00000000  1
  Pt  Pt5  1  0.50000000  0.50000000  0.50000000  1
  Pt  Pt6  1  0.96420300  0.20545900  0.75000000  1
  Pt  Pt7  1  0.00000000  0.00000000  0.50000000  1
  Cl  Cl0  1  0.46182200  0.09252300  0.32094200  1
  Cl  Cl1  1  0.86072100  0.63761800  0.67969500  1
  Cl  Cl2  1  0.78868200  0.22764600  0.17573400  1
  Cl  Cl3  1  0.31574900  0.05803100  0.57988100  1
  Cl  Cl4  1  0.21131800  0.77235400  0.67573400  1
  Cl  Cl5  1  0.71131800  0.72764600  0.32426600  1
  Cl  Cl6  1  0.14316000  0.15915400  0.25000000  1
  Cl  Cl7  1  0.96395300  0.00226300  0.84513400  1
  Cl  Cl8  1  0.35684000  0.65915400  0.25000000  1
  Cl  Cl9  1  0.48608800  0.70470900  0.06653000  1
  Cl  Cl10  1  0.28868200  0.27235400  0.82426600  1
  Cl  Cl11  1  0.53134000  0.69806700  0.90585200  1
  Cl  Cl12  1  0.18425100  0.55803100  0.92011900  1
  Cl  Cl13  1  0.68425100  0.94196900  0.07988100  1
  Cl  Cl14  1  0.66805000  0.91847000  0.56004500  1
  Cl  Cl15  1  0.18425100  0.55803100  0.57988100  1
  Cl  Cl16  1  0.13927900  0.36238200  0.32030500  1
  Cl  Cl17  1  0.98608800  0.79529100  0.93347000  1
  Cl  Cl18  1  0.96182200  0.40747700  0.67905800  1
  Cl  Cl19  1  0.46395300  0.49773700  0.34513400  1
  Cl  Cl20  1  0.27932500  0.06275500  0.75000000  1
  Cl  Cl21  1  0.51391200  0.29529100  0.93347000  1
  Cl  Cl22  1  0.81817900  0.63687200  0.49339900  1
  Cl  Cl23  1  0.48608800  0.70470900  0.43347000  1
  Cl  Cl24  1  0.66805000  0.91847000  0.93995500  1
  Cl  Cl25  1  0.03817800  0.59252300  0.32094200  1
  Cl  Cl26  1  0.53134000  0.69806700  0.59414800  1
  Cl  Cl27  1  0.28868200  0.27235400  0.67573400  1
  Cl  Cl28  1  0.33195000  0.08153000  0.06004500  1
  Cl  Cl29  1  0.03134000  0.80193300  0.09414800  1
  Cl  Cl30  1  0.78868200  0.22764600  0.32426600  1
  Cl  Cl31  1  0.18182100  0.36312800  0.99339900  1
  Cl  Cl32  1  0.36072100  0.86238200  0.17969500  1
  Cl  Cl33  1  0.71131800  0.72764600  0.17573400  1
  Cl  Cl34  1  0.96395300  0.00226300  0.65486600  1
  Cl  Cl35  1  0.96182200  0.40747700  0.82094200  1
  Cl  Cl36  1  0.72067500  0.93724500  0.25000000  1
  Cl  Cl37  1  0.51391200  0.29529100  0.56653000  1
  Cl  Cl38  1  0.77932500  0.43724500  0.25000000  1
  Cl  Cl39  1  0.16805000  0.58153000  0.43995500  1
  Cl  Cl40  1  0.01391200  0.20470900  0.43347000  1
  Cl  Cl41  1  0.86072100  0.63761800  0.82030500  1
  Cl  Cl42  1  0.03134000  0.80193300  0.40585200  1
  Cl  Cl43  1  0.36072100  0.86238200  0.32030500  1
  Cl  Cl44  1  0.03604700  0.99773700  0.15486600  1
  Cl  Cl45  1  0.31817900  0.86312800  0.99339900  1
  Cl  Cl46  1  0.64316000  0.34084600  0.75000000  1
  Cl  Cl47  1  0.31574900  0.05803100  0.92011900  1
  Cl  Cl48  1  0.96866000  0.19806700  0.59414800  1
  Cl  Cl49  1  0.83195000  0.41847000  0.93995500  1
  Cl  Cl50  1  0.53604700  0.50226300  0.84513400  1
  Cl  Cl51  1  0.81574900  0.44196900  0.07988100  1
  Cl  Cl52  1  0.46866000  0.30193300  0.09414800  1
  Cl  Cl53  1  0.98608800  0.79529100  0.56653000  1
  Cl  Cl54  1  0.22067500  0.56275500  0.75000000  1
  Cl  Cl55  1  0.63927900  0.13761800  0.67969500  1
  Cl  Cl56  1  0.53817800  0.90747700  0.82094200  1
  Cl  Cl57  1  0.46395300  0.49773700  0.15486600  1
  Cl  Cl58  1  0.03604700  0.99773700  0.34513400  1
  Cl  Cl59  1  0.68182100  0.13687200  0.49339900  1
  Cl  Cl60  1  0.85684000  0.84084600  0.75000000  1
  Cl  Cl61  1  0.46866000  0.30193300  0.40585200  1
  Cl  Cl62  1  0.03817800  0.59252300  0.17905800  1
  Cl  Cl63  1  0.81574900  0.44196900  0.42011900  1
  Cl  Cl64  1  0.81817900  0.63687200  0.00660100  1
  Cl  Cl65  1  0.53817800  0.90747700  0.67905800  1
  Cl  Cl66  1  0.63927900  0.13761800  0.82030500  1
  Cl  Cl67  1  0.16805000  0.58153000  0.06004500  1
  Cl  Cl68  1  0.46182200  0.09252300  0.17905800  1
  Cl  Cl69  1  0.13927900  0.36238200  0.17969500  1
  Cl  Cl70  1  0.53604700  0.50226300  0.65486600  1
  Cl  Cl71  1  0.68182100  0.13687200  0.00660100  1
  Cl  Cl72  1  0.21131800  0.77235400  0.82426600  1
  Cl  Cl73  1  0.83195000  0.41847000  0.56004500  1
  Cl  Cl74  1  0.96866000  0.19806700  0.90585200  1
  Cl  Cl75  1  0.18182100  0.36312800  0.50660100  1
  Cl  Cl76  1  0.68425100  0.94196900  0.42011900  1
  Cl  Cl77  1  0.33195000  0.08153000  0.43995500  1
  Cl  Cl78  1  0.01391200  0.20470900  0.06653000  1
  Cl  Cl79  1  0.31817900  0.86312800  0.50660100  1
loop_
_geom_bond_atom_site_label_1
_geom_bond_atom_site_label_2
_geom_bond_distance
_geom_bond_site_symmetry_2
Bi0 Cl79 2.707574 1_555
Bi0 Pt7 2.752561 1_565
Bi0 Cl53 2.776436 1_455
Bi0 Cl3 2.785724 1_565
Bi0 Cl34 3.126596 1_465
Bi1 Cl67 2.683689 1_556
Bi1 Pt3 2.753350 1_556
Bi1 Cl9 2.762685 1_556
Bi1 Cl12 2.793006 1_555
Bi1 Cl11 3.175385 1_555
Bi2 Cl77 2.683689 1_555
Bi2 Pt7 2.753350 1_555
Bi2 Cl40 2.762685 1_555
Bi2 Cl3 2.793006 1_555
Bi2 Cl48 3.175385 1_455
Bi3 Cl16 2.642608 1_555
Bi3 Cl69 2.642608 1_555
Bi3 Pt2 2.734291 1_555
Bi4 Cl31 2.707574 1_555
Bi4 Pt3 2.752561 1_556
Bi4 Cl21 2.776436 1_555
Bi4 Cl12 2.785724 1_555
Bi4 Cl50 3.126596 1_555
Bi5 Cl30 2.694517 1_555
Bi5 Pt2 2.744314 1_555
Bi5 Cl38 2.754672 1_555
Bi5 Cl61 2.976620 1_555
Bi5 Cl19 3.006117 1_555
Bi6 Pt5 2.735458 1_555
Bi6 Cl39 2.761261 1_555
Bi6 Cl75 2.767879 1_555
Bi6 Cl19 2.928871 1_555
Bi6 Cl61 2.961847 1_555
Bi7 Cl73 2.683689 1_555
Bi7 Pt5 2.753350 1_555
Bi7 Cl37 2.762685 1_555
Bi7 Cl63 2.793006 1_555
Bi7 Cl61 3.175385 1_555
Bi8 Pt7 2.735458 1_655
Bi8 Cl14 2.761261 1_545
Bi8 Cl59 2.767879 1_555
Bi8 Cl34 2.928871 1_555
Bi8 Cl48 2.961847 1_555
Bi9 Cl27 2.694517 1_555
Bi9 Pt6 2.744314 1_455
Bi9 Cl20 2.754672 1_555
Bi9 Cl48 2.976620 1_455
Bi9 Cl34 3.006117 1_455
Bi10 Cl4 2.694517 1_555
Bi10 Pt0 2.744314 1_555
Bi10 Cl54 2.754672 1_555
Bi10 Cl26 2.976620 1_555
Bi10 Cl70 3.006117 1_555
Bi11 Cl59 2.707574 1_555
Bi11 Pt7 2.752561 1_655
Bi11 Cl40 2.776436 1_655
Bi11 Cl76 2.785724 1_545
Bi11 Cl58 3.126596 1_645
Bi12 Cl18 2.725819 1_555
Bi12 Cl46 2.733920 1_555
Bi12 Pt6 2.741239 1_555
Bi12 Cl55 2.881615 1_555
Bi12 Cl48 3.106721 1_555
Bi13 Cl5 2.694517 1_555
Bi13 Pt1 2.744314 1_655
Bi13 Cl36 2.754672 1_555
Bi13 Cl42 2.976620 1_655
Bi13 Cl58 3.006117 1_655
Bi14 Pt3 2.735458 1_555
Bi14 Cl67 2.761261 1_555
Bi14 Cl31 2.767879 1_554
Bi14 Cl57 2.928871 1_555
Bi14 Cl52 2.961847 1_555
Bi15 Cl35 2.725819 1_555
Bi15 Cl46 2.733920 1_555
Bi15 Pt6 2.741239 1_555
Bi15 Cl66 2.881615 1_555
Bi15 Cl74 3.106721 1_555
Bi16 Cl72 2.694517 1_555
Bi16 Pt0 2.744314 1_555
Bi16 Cl54 2.754672 1_555
Bi16 Cl11 2.976620 1_555
Bi16 Cl50 3.006117 1_555
Bi17 Cl41 2.642608 1_555
Bi17 Cl1 2.642608 1_555
Bi17 Pt0 2.734291 1_555
Bi18 Cl68 2.725819 1_555
Bi18 Cl6 2.733920 1_555
Bi18 Pt2 2.741239 1_555
Bi18 Cl69 2.881615 1_555
Bi18 Cl52 3.106721 1_555
Bi19 Cl10 2.694517 1_555
Bi19 Pt6 2.744314 1_455
Bi19 Cl20 2.754672 1_555
Bi19 Cl74 2.976620 1_455
Bi19 Cl7 3.006117 1_455
Bi20 Pt4 2.735458 1_656
Bi20 Cl24 2.761261 1_545
Bi20 Cl71 2.767879 1_556
Bi20 Cl7 2.928871 1_555
Bi20 Cl74 2.961847 1_555
Bi21 Cl71 2.707574 1_555
Bi21 Pt4 2.752561 1_655
Bi21 Cl78 2.776436 1_655
Bi21 Cl13 2.785724 1_545
Bi21 Cl44 3.126596 1_645
Bi22 Cl24 2.683689 1_554
Bi22 Pt4 2.753350 1_665
Bi22 Cl17 2.762685 1_554
Bi22 Cl13 2.793006 1_555
Bi22 Cl29 3.175385 1_655
Bi23 Pt7 2.735458 1_565
Bi23 Cl77 2.761261 1_565
Bi23 Cl79 2.767879 1_555
Bi23 Cl58 2.928871 1_555
Bi23 Cl42 2.961847 1_555
Bi24 Cl62 2.725819 1_555
Bi24 Cl8 2.733920 1_555
Bi24 Pt1 2.741239 1_555
Bi24 Cl32 2.881615 1_555
Bi24 Cl29 3.106721 1_555
Bi25 Cl75 2.707574 1_555
Bi25 Pt5 2.752561 1_555
Bi25 Cl37 2.776436 1_555
Bi25 Cl15 2.785724 1_555
Bi25 Cl70 3.126596 1_555
Bi26 Cl28 2.683689 1_556
Bi26 Pt4 2.753350 1_556
Bi26 Cl78 2.762685 1_556
Bi26 Cl47 2.793006 1_555
Bi26 Cl74 3.175385 1_455
Bi27 Cl39 2.683689 1_555
Bi27 Pt5 2.753350 1_555
Bi27 Cl23 2.762685 1_555
Bi27 Cl15 2.793006 1_555
Bi27 Cl26 3.175385 1_555
Bi28 Cl45 2.707574 1_555
Bi28 Pt4 2.752561 1_566
Bi28 Cl17 2.776436 1_455
Bi28 Cl47 2.785724 1_565
Bi28 Cl7 3.126596 1_465
Bi29 Cl0 2.725819 1_555
Bi29 Cl6 2.733920 1_555
Bi29 Pt2 2.741239 1_555
Bi29 Cl16 2.881615 1_555
Bi29 Cl61 3.106721 1_555
Bi30 Cl22 2.707574 1_555
Bi30 Pt5 2.752561 1_555
Bi30 Cl23 2.776436 1_555
Bi30 Cl63 2.785724 1_555
Bi30 Cl19 3.126596 1_555
Bi31 Cl65 2.758888 1_555
Bi31 Cl56 2.758888 1_555
Bi31 Pt0 2.771694 1_555
Bi31 Cl72 2.826540 1_555
Bi31 Cl4 2.826540 1_555
Bi32 Cl66 2.642608 1_555
Bi32 Cl55 2.642608 1_555
Bi32 Pt6 2.734291 1_555
Bi33 Cl64 2.707574 1_555
Bi33 Pt3 2.752561 1_555
Bi33 Cl9 2.776436 1_555
Bi33 Cl51 2.785724 1_555
Bi33 Cl57 3.126596 1_555
Bi34 Cl32 2.642608 1_555
Bi34 Cl43 2.642608 1_555
Bi34 Pt1 2.734291 1_555
Bi35 Cl62 2.758888 1_655
Bi35 Cl25 2.758888 1_655
Bi35 Pt1 2.771694 1_655
Bi35 Cl33 2.826540 1_555
Bi35 Cl5 2.826540 1_555
Bi36 Cl56 2.725819 1_555
Bi36 Cl60 2.733920 1_555
Bi36 Pt0 2.741239 1_555
Bi36 Cl41 2.881615 1_555
Bi36 Cl11 3.106721 1_555
Bi37 Cl14 2.683689 1_555
Bi37 Pt7 2.753350 1_665
Bi37 Cl53 2.762685 1_555
Bi37 Cl76 2.793006 1_555
Bi37 Cl42 3.175385 1_655
Bi38 Cl33 2.694517 1_555
Bi38 Pt1 2.744314 1_655
Bi38 Cl36 2.754672 1_555
Bi38 Cl29 2.976620 1_655
Bi38 Cl44 3.006117 1_655
Bi39 Cl18 2.758888 1_455
Bi39 Cl35 2.758888 1_455
Bi39 Pt6 2.771694 1_455
Bi39 Cl10 2.826540 1_555
Bi39 Cl27 2.826540 1_555
Bi40 Pt3 2.735458 1_556
Bi40 Cl49 2.761261 1_555
Bi40 Cl64 2.767879 1_556
Bi40 Cl50 2.928871 1_555
Bi40 Cl11 2.961847 1_555
Bi41 Cl2 2.694517 1_555
Bi41 Pt2 2.744314 1_555
Bi41 Cl38 2.754672 1_555
Bi41 Cl52 2.976620 1_555
Bi41 Cl57 3.006117 1_555
Bi42 Cl25 2.725819 1_555
Bi42 Cl8 2.733920 1_555
Bi42 Pt1 2.741239 1_555
Bi42 Cl43 2.881615 1_555
Bi42 Cl42 3.106721 1_555
Bi43 Pt5 2.735458 1_555
Bi43 Cl73 2.761261 1_555
Bi43 Cl22 2.767879 1_555
Bi43 Cl70 2.928871 1_555
Bi43 Cl26 2.961847 1_555
Bi44 Cl0 2.758888 1_555
Bi44 Cl68 2.758888 1_555
Bi44 Pt2 2.771694 1_555
Bi44 Cl2 2.826540 1_555
Bi44 Cl30 2.826540 1_555
Bi45 Cl65 2.725819 1_555
Bi45 Cl60 2.733920 1_555
Bi45 Pt0 2.741239 1_555
Bi45 Cl1 2.881615 1_555
Bi45 Cl26 3.106721 1_555
Bi46 Cl49 2.683689 1_554
Bi46 Pt3 2.753350 1_555
Bi46 Cl21 2.762685 1_554
Bi46 Cl51 2.793006 1_555
Bi46 Cl52 3.175385 1_555
Bi47 Pt4 2.735458 1_565
Bi47 Cl28 2.761261 1_565
Bi47 Cl45 2.767879 1_554
Bi47 Cl44 2.928871 1_555
Bi47 Cl29 2.961847 1_555
