# generated using pymatgen
data_NiP2H24(C2O7)2
_symmetry_space_group_name_H-M   'P 1'
_cell_length_a   7.18702700
_cell_length_b   9.86267500
_cell_length_c   12.65070500
_cell_angle_alpha   69.30920834
_cell_angle_beta   90.00000000
_cell_angle_gamma   90.00000000
_symmetry_Int_Tables_number   1
_chemical_formula_structural   NiP2H24(C2O7)2
_chemical_formula_sum   'Ni2 P4 H48 C8 O28'
_cell_volume   838.88591656
_cell_formula_units_Z   2
loop_
 _symmetry_equiv_pos_site_id
 _symmetry_equiv_pos_as_xyz
  1  'x, y, z'
loop_
 _atom_site_type_symbol
 _atom_site_label
 _atom_site_symmetry_multiplicity
 _atom_site_fract_x
 _atom_site_fract_y
 _atom_site_fract_z
 _atom_site_occupancy
  Ni  Ni0  1  0.00000000  0.50000000  0.50000000  1
  Ni  Ni1  1  0.50000000  0.00000000  0.50000000  1
  P  P0  1  0.51900600  0.46937000  0.75609900  1
  P  P1  1  0.48099400  0.53063000  0.24390100  1
  P  P2  1  0.01900600  0.03063000  0.24390100  1
  P  P3  1  0.98099400  0.96937000  0.75609900  1
  H  H0  1  0.74249000  0.71310500  0.85399500  1
  H  H1  1  0.71841800  0.20327900  0.99673100  1
  H  H2  1  0.39236400  0.03948900  0.69497500  1
  H  H3  1  0.69715200  0.64297900  0.39430600  1
  H  H4  1  0.72409000  0.22926100  0.47218300  1
  H  H5  1  0.32916100  0.24652200  0.37726800  1
  H  H6  1  0.28158200  0.79672100  0.00326900  1
  H  H7  1  0.10763600  0.53948900  0.69497500  1
  H  H8  1  0.33998700  0.14509600  0.09911500  1
  H  H9  1  0.13760800  0.05798600  0.93321900  1
  H  H10  1  0.89236400  0.46051100  0.30502500  1
  H  H11  1  0.39336200  0.71773200  0.80900300  1
  H  H12  1  0.82662500  0.87274300  0.59057200  1
  H  H13  1  0.86239200  0.94201400  0.06678100  1
  H  H14  1  0.60663800  0.28226800  0.19099700  1
  H  H15  1  0.66001300  0.85490400  0.90088500  1
  H  H16  1  0.38111900  0.94479800  0.31261400  1
  H  H17  1  0.88111900  0.55520200  0.68738600  1
  H  H18  1  0.67083900  0.75347800  0.62273200  1
  H  H19  1  0.83518800  0.35171300  0.14874900  1
  H  H20  1  0.75751000  0.21310500  0.85399500  1
  H  H21  1  0.17337500  0.12725700  0.40942800  1
  H  H22  1  0.22409000  0.27073900  0.52781700  1
  H  H23  1  0.83998700  0.35490400  0.90088500  1
  H  H24  1  0.16001300  0.64509600  0.09911500  1
  H  H25  1  0.67337500  0.37274300  0.59057200  1
  H  H26  1  0.32662500  0.62725700  0.40942800  1
  H  H27  1  0.89336200  0.78226800  0.19099700  1
  H  H28  1  0.36239200  0.55798600  0.93321900  1
  H  H29  1  0.63760800  0.44201400  0.06678100  1
  H  H30  1  0.19715200  0.85702100  0.60569400  1
  H  H31  1  0.11888100  0.44479800  0.31261400  1
  H  H32  1  0.80284800  0.14297900  0.39430600  1
  H  H33  1  0.66481200  0.85171300  0.14874900  1
  H  H34  1  0.82916100  0.25347800  0.62273200  1
  H  H35  1  0.30284800  0.35702100  0.60569400  1
  H  H36  1  0.16481200  0.64828700  0.85125100  1
  H  H37  1  0.60763600  0.96051100  0.30502500  1
  H  H38  1  0.24249000  0.78689500  0.14600500  1
  H  H39  1  0.78158200  0.70327900  0.99673100  1
  H  H40  1  0.21841800  0.29672100  0.00326900  1
  H  H41  1  0.27591000  0.77073900  0.52781700  1
  H  H42  1  0.77591000  0.72926100  0.47218300  1
  H  H43  1  0.10663800  0.21773200  0.80900300  1
  H  H44  1  0.61888100  0.05520200  0.68738600  1
  H  H45  1  0.33518800  0.14828700  0.85125100  1
  H  H46  1  0.25751000  0.28689500  0.14600500  1
  H  H47  1  0.17083900  0.74652200  0.37726800  1
  C  C0  1  0.72804100  0.27603500  0.90850500  1
  C  C1  1  0.81094700  0.88100000  0.15214600  1
  C  C2  1  0.68905300  0.38100000  0.15214600  1
  C  C3  1  0.22804100  0.22396500  0.09149500  1
  C  C4  1  0.77195900  0.77603500  0.90850500  1
  C  C5  1  0.31094700  0.61900000  0.84785400  1
  C  C6  1  0.18905300  0.11900000  0.84785400  1
  C  C7  1  0.27195900  0.72396500  0.09149500  1
  O  O0  1  0.68085700  0.47028500  0.22192300  1
  O  O1  1  0.16814000  0.91518400  0.26678400  1
  O  O2  1  0.50345500  0.03838400  0.65012100  1
  O  O3  1  0.98921900  0.09920800  0.33191000  1
  O  O4  1  0.81087300  0.66465500  0.43077900  1
  O  O5  1  0.81914300  0.97028500  0.22192300  1
  O  O6  1  0.78549400  0.34036600  0.55871900  1
  O  O7  1  0.48921900  0.40079200  0.66809000  1
  O  O8  1  0.05050100  0.15122500  0.11981000  1
  O  O9  1  0.31914300  0.52971500  0.77807700  1
  O  O10  1  0.44949900  0.65122500  0.11981000  1
  O  O11  1  0.00345500  0.46161600  0.34987900  1
  O  O12  1  0.28549400  0.15963400  0.44128100  1
  O  O13  1  0.31087300  0.83534500  0.56922100  1
  O  O14  1  0.68912700  0.16465500  0.43077900  1
  O  O15  1  0.99654500  0.53838400  0.65012100  1
  O  O16  1  0.33186000  0.41518400  0.26678400  1
  O  O17  1  0.83186000  0.08481600  0.73321600  1
  O  O18  1  0.01078100  0.90079200  0.66809000  1
  O  O19  1  0.94949900  0.84877500  0.88019000  1
  O  O20  1  0.18085700  0.02971500  0.77807700  1
  O  O21  1  0.51078100  0.59920800  0.33191000  1
  O  O22  1  0.66814000  0.58481600  0.73321600  1
  O  O23  1  0.21450600  0.65963400  0.44128100  1
  O  O24  1  0.55050100  0.34877500  0.88019000  1
  O  O25  1  0.71450600  0.84036600  0.55871900  1
  O  O26  1  0.18912700  0.33534500  0.56922100  1
  O  O27  1  0.49654500  0.96161600  0.34987900  1
loop_
_geom_bond_atom_site_label_1
_geom_bond_atom_site_label_2
_geom_bond_distance
_geom_bond_site_symmetry_2
Ni0 O26 2.060752 1_555
Ni0 O4 2.060752 1_455
Ni0 O15 2.063661 1_455
Ni0 O11 2.063661 1_555
Ni0 O23 2.140296 1_555
Ni0 O6 2.140296 1_455
Ni1 O14 2.060752 1_555
Ni1 O13 2.060752 1_545
Ni1 O2 2.063661 1_555
Ni1 O27 2.063661 1_545
Ni1 O25 2.140296 1_545
Ni1 O12 2.140296 1_555
H2 O2 0.981802 1_555
H3 O4 0.998154 1_555
H3 O21 1.686528 1_555
H4 O14 0.989622 1_555
H5 O12 0.999127 1_555
H7 O15 0.981802 1_455
H10 O11 0.981802 1_655
H12 O25 1.002294 1_555
H12 O18 1.726750 1_655
H16 O27 0.996595 1_555
H17 O15 0.996595 1_555
H18 O25 0.999127 1_555
H21 O12 1.002294 1_555
H21 O3 1.726750 1_455
H22 O26 0.989622 1_555
H25 O6 1.002294 1_555
H25 O7 1.726750 1_555
H26 O23 1.002294 1_555
H26 O21 1.726750 1_555
H30 O13 0.998154 1_555
H30 O18 1.686528 1_555
H31 O11 0.996595 1_555
H32 O14 0.998154 1_555
H32 O3 1.686528 1_555
H34 O6 0.999127 1_555
H35 O26 0.998154 1_555
H35 O7 1.686528 1_555
H37 O27 0.981802 1_555
H41 O13 0.989622 1_555
H42 O4 0.989622 1_555
H44 O2 0.996595 1_555
H47 O23 0.999127 1_555
C0 H1 1.095200 1_555
C0 H20 1.099115 1_555
C0 H23 1.099402 1_555
C0 O24 1.445521 1_555
C1 H33 1.094135 1_555
C1 H27 1.096548 1_555
C1 H13 1.098109 1_555
C1 O5 1.451692 1_555
C2 H19 1.094135 1_555
C2 H14 1.096548 1_555
C2 H29 1.098109 1_555
C2 O0 1.451692 1_555
C3 H40 1.095200 1_555
C3 H46 1.099115 1_555
C3 H8 1.099402 1_555
C3 O8 1.445521 1_555
C4 H39 1.095200 1_555
C4 H0 1.099115 1_555
C4 H15 1.099402 1_555
C4 O19 1.445521 1_555
C5 H36 1.094135 1_555
C5 H11 1.096548 1_555
C5 H28 1.098109 1_555
C5 O9 1.451692 1_555
C6 H45 1.094135 1_555
C6 H43 1.096548 1_555
C6 H9 1.098109 1_555
C6 O20 1.451692 1_555
C7 H6 1.095200 1_555
C7 H38 1.099115 1_555
C7 H24 1.099402 1_555
C7 O10 1.445521 1_555
O0 P1 1.616095 1_555
O1 P2 1.515298 1_565
O3 P2 1.508324 1_655
O5 P2 1.616095 1_665
O7 P0 1.508324 1_555
O8 P2 1.615815 1_555
O9 P0 1.616095 1_555
O10 P1 1.615815 1_555
O16 P1 1.515298 1_555
O17 P3 1.515298 1_545
O18 P3 1.508324 1_455
O19 P3 1.615815 1_555
O20 P3 1.616095 1_445
O21 P1 1.508324 1_555
O22 P0 1.515298 1_555
O24 P0 1.615815 1_555
