# generated using pymatgen
data_Rb4CuSi2O7
_symmetry_space_group_name_H-M   'P 1'
_cell_length_a   6.37319556
_cell_length_b   7.21984356
_cell_length_c   7.29564571
_cell_angle_alpha   114.54805955
_cell_angle_beta   100.23258755
_cell_angle_gamma   108.12025477
_symmetry_Int_Tables_number   1
_chemical_formula_structural   Rb4CuSi2O7
_chemical_formula_sum   'Rb4 Cu1 Si2 O7'
_cell_volume   271.31421418
_cell_formula_units_Z   1
loop_
 _symmetry_equiv_pos_site_id
 _symmetry_equiv_pos_as_xyz
  1  'x, y, z'
loop_
 _atom_site_type_symbol
 _atom_site_label
 _atom_site_symmetry_multiplicity
 _atom_site_fract_x
 _atom_site_fract_y
 _atom_site_fract_z
 _atom_site_occupancy
  Rb  Rb0  1  0.32243200  0.07747700  0.71510900  1
  Rb  Rb1  1  0.67756800  0.92252300  0.28489100  1
  Rb  Rb2  1  0.93144600  0.45650200  0.22188000  1
  Rb  Rb3  1  0.06855400  0.54349800  0.77812000  1
  Cu  Cu0  1  0.50000000  0.50000000  0.50000000  1
  Si  Si0  1  0.21539200  0.08014900  0.22322100  1
  Si  Si1  1  0.78460800  0.91985100  0.77677900  1
  O  O0  1  0.47344700  0.24105600  0.23241500  1
  O  O1  1  0.81688700  0.73097600  0.56747900  1
  O  O2  1  0.18311300  0.26902400  0.43252100  1
  O  O3  1  0.79752700  0.14149000  0.76559100  1
  O  O4  1  0.20247300  0.85851000  0.23440900  1
  O  O5  1  0.52655300  0.75894400  0.76758500  1
  O  O6  1  0.00000000  0.00000000  0.00000000  1
loop_
_geom_bond_atom_site_label_1
_geom_bond_atom_site_label_2
_geom_bond_distance
_geom_bond_site_symmetry_2
Cu0 O1 1.992912 1_555
Cu0 O2 1.992912 1_555
Cu0 O0 1.997033 1_555
Cu0 O5 1.997033 1_555
O0 Si0 1.663290 1_555
O0 Rb2 2.881036 1_555
O0 Rb1 3.089238 1_545
O0 Rb0 3.296003 1_554
O1 Si1 1.670164 1_555
O1 Rb2 2.866998 1_555
O1 Rb3 2.994897 1_655
O1 Rb0 3.051865 1_665
O1 Rb1 3.071454 1_555
O2 Si0 1.670164 1_555
O2 Rb3 2.866998 1_555
O2 Rb2 2.994897 1_455
O2 Rb1 3.051865 1_445
O2 Rb0 3.071454 1_555
O3 Si1 1.613394 1_545
O3 Rb3 2.832151 1_655
O3 Rb0 2.847661 1_555
O3 Rb2 2.911183 1_556
O3 Rb1 3.011930 1_545
O4 Si0 1.613394 1_565
O4 Rb2 2.832151 1_455
O4 Rb1 2.847661 1_555
O4 Rb3 2.911183 1_554
O4 Rb0 3.011930 1_565
O5 Si1 1.663290 1_555
O5 Rb3 2.881036 1_555
O5 Rb0 3.089238 1_565
O5 Rb1 3.296003 1_556
O6 Si1 1.673318 1_444
O6 Si0 1.673318 1_555
O6 Rb2 3.223031 1_455
O6 Rb3 3.223031 1_544
O6 Rb0 3.259468 1_554
O6 Rb1 3.259468 1_445
