# generated using pymatgen
data_Yb11GaSb9
_symmetry_space_group_name_H-M   'P 1'
_cell_length_a   11.98589659
_cell_length_b   11.98589659
_cell_length_c   11.98589659
_cell_angle_alpha   120.94365059
_cell_angle_beta   117.73513006
_cell_angle_gamma   91.17008171
_symmetry_Int_Tables_number   1
_chemical_formula_structural   Yb11GaSb9
_chemical_formula_sum   'Yb22 Ga2 Sb18'
_cell_volume   1228.28222190
_cell_formula_units_Z   2
loop_
 _symmetry_equiv_pos_site_id
 _symmetry_equiv_pos_as_xyz
  1  'x, y, z'
loop_
 _atom_site_type_symbol
 _atom_site_label
 _atom_site_symmetry_multiplicity
 _atom_site_fract_x
 _atom_site_fract_y
 _atom_site_fract_z
 _atom_site_occupancy
  Yb  Yb0  1  0.81077400  0.18641000  0.25526100  1
  Yb  Yb1  1  0.67710200  0.67710200  0.00000000  1
  Yb  Yb2  1  0.11273200  0.75209000  0.18265600  1
  Yb  Yb3  1  0.93114900  0.55551300  0.74473900  1
  Yb  Yb4  1  0.32736500  0.65938900  0.98937400  1
  Yb  Yb5  1  0.61273200  0.43007600  0.36064200  1
  Yb  Yb6  1  0.82736500  0.83799100  0.66797600  1
  Yb  Yb7  1  0.67001500  0.33799100  0.01062600  1
  Yb  Yb8  1  0.17710200  0.17710200  0.00000000  1
  Yb  Yb9  1  0.93593800  0.72837200  0.34616400  1
  Yb  Yb10  1  0.43114900  0.68641000  0.37563600  1
  Yb  Yb11  1  0.57494400  0.31177100  0.63021900  1
  Yb  Yb12  1  0.56943400  0.93007600  0.81734400  1
  Yb  Yb13  1  0.68155100  0.94472500  0.36978100  1
  Yb  Yb14  1  0.88220700  0.22837200  0.79243400  1
  Yb  Yb15  1  0.17001500  0.15938900  0.33202400  1
  Yb  Yb16  1  0.18155100  0.81177100  0.73682600  1
  Yb  Yb17  1  0.31077400  0.05551300  0.62436400  1
  Yb  Yb18  1  0.38220700  0.58977400  0.65383600  1
  Yb  Yb19  1  0.06943400  0.25209000  0.63935800  1
  Yb  Yb20  1  0.43593800  0.08977400  0.20756600  1
  Yb  Yb21  1  0.07494400  0.44472500  0.26317400  1
  Ga  Ga0  1  0.39221400  0.39221400  0.00000000  1
  Ga  Ga1  1  0.89221400  0.89221400  0.00000000  1
  Sb  Sb0  1  0.11761400  0.87438000  0.98490300  1
  Sb  Sb1  1  0.44856000  0.16166700  0.99060700  1
  Sb  Sb2  1  0.61761400  0.63271100  0.24323400  1
  Sb  Sb3  1  0.60765300  0.03282100  0.64607200  1
  Sb  Sb4  1  0.75161200  0.25161200  0.50000000  1
  Sb  Sb5  1  0.38674900  0.96158200  0.35392800  1
  Sb  Sb6  1  0.67106000  0.66166700  0.71310700  1
  Sb  Sb7  1  0.25161200  0.75161200  0.50000000  1
  Sb  Sb8  1  0.17106000  0.45795300  0.00939300  1
  Sb  Sb9  1  0.88674900  0.53282100  0.42516700  1
  Sb  Sb10  1  0.88947600  0.13271100  0.01509700  1
  Sb  Sb11  1  0.94856000  0.95795300  0.28689300  1
  Sb  Sb12  1  0.10765300  0.46158200  0.57483300  1
  Sb  Sb13  1  0.86056700  0.50305100  0.99885700  1
  Sb  Sb14  1  0.36056700  0.36170900  0.35751500  1
  Sb  Sb15  1  0.00419400  0.00305100  0.64248500  1
  Sb  Sb16  1  0.38947600  0.37438000  0.75676600  1
  Sb  Sb17  1  0.50419400  0.86170900  0.00114300  1
loop_
_geom_bond_atom_site_label_1
_geom_bond_atom_site_label_2
_geom_bond_distance
_geom_bond_site_symmetry_2
Ga0 Sb16 2.795708 1_554
Ga0 Sb2 2.795714 1_555
Ga0 Sb1 2.816333 1_554
Ga0 Sb8 2.816333 1_555
Ga0 Yb4 3.362180 1_554
Ga0 Yb7 3.362180 1_555
Ga0 Yb8 3.608860 1_555
Ga0 Yb5 3.629942 1_555
Ga0 Yb19 3.629942 1_554
Ga1 Sb0 2.795714 1_654
Ga1 Sb10 2.795715 1_565
Ga1 Sb11 2.816333 1_555
Ga1 Sb6 2.816333 1_554
Ga1 Yb15 3.362180 1_665
Ga1 Yb6 3.362180 1_554
Ga1 Yb1 3.608860 1_555
Ga1 Yb2 3.629942 1_655
Ga1 Yb12 3.629942 1_554
Sb0 Yb16 3.137099 1_555
Sb0 Yb3 3.199571 1_455
Sb0 Yb20 3.373332 1_566
Sb0 Yb2 3.386496 1_556
Sb0 Yb15 3.498312 1_566
Sb0 Yb6 3.557622 1_455
Sb0 Yb8 3.578468 1_566
Sb0 Yb4 3.639332 1_555
Sb1 Yb20 3.192652 1_556
Sb1 Yb7 3.197833 1_556
Sb1 Yb5 3.292044 1_556
Sb1 Yb8 3.313211 1_556
Sb1 Yb17 3.322467 1_555
Sb1 Yb12 3.339660 1_545
Sb1 Yb16 3.788790 1_545
Sb1 Yb0 3.893624 1_556
Sb2 Yb13 3.137096 1_555
Sb2 Yb10 3.199571 1_555
Sb2 Yb9 3.373332 1_555
Sb2 Yb5 3.386496 1_555
Sb2 Yb7 3.498312 1_555
Sb2 Yb4 3.557622 1_554
Sb2 Yb1 3.578468 1_555
Sb2 Yb6 3.639332 1_555
Sb3 Sb5 2.864307 1_545
Sb3 Yb12 3.064748 1_545
Sb3 Yb14 3.079539 1_555
Sb3 Yb10 3.411724 1_545
Sb3 Yb11 3.464982 1_555
Sb3 Yb13 3.469645 1_545
Sb3 Yb17 3.471910 1_555
Sb3 Yb6 3.563047 1_545
Sb3 Yb7 3.666399 1_556
Sb4 Yb0 3.052818 1_555
Sb4 Yb3 3.052818 1_555
Sb4 Yb11 3.069381 1_555
Sb4 Yb13 3.069381 1_545
Sb4 Yb20 3.275449 1_555
Sb4 Yb14 3.275449 1_555
Sb4 Yb5 3.371687 1_555
Sb4 Yb19 3.371687 1_655
Sb5 Yb2 3.064754 1_555
Sb5 Yb20 3.079539 1_565
Sb5 Yb17 3.411726 1_565
Sb5 Yb13 3.464972 1_555
Sb5 Yb11 3.469645 1_565
Sb5 Yb10 3.471922 1_555
Sb5 Yb15 3.563039 1_565
Sb5 Yb4 3.666404 1_554
Sb6 Yb18 3.192664 1_555
Sb6 Yb6 3.197833 1_555
Sb6 Yb12 3.292044 1_555
Sb6 Yb1 3.313211 1_556
Sb6 Yb3 3.322467 1_555
Sb6 Yb5 3.339660 1_555
Sb6 Yb11 3.788787 1_555
Sb6 Yb10 3.893624 1_555
Sb7 Yb17 3.052818 1_565
Sb7 Yb10 3.052818 1_555
Sb7 Yb16 3.069378 1_555
Sb7 Yb21 3.069381 1_555
Sb7 Yb18 3.275446 1_555
Sb7 Yb9 3.275449 1_455
Sb7 Yb2 3.371687 1_555
Sb7 Yb12 3.371687 1_555
Sb8 Yb14 3.192660 1_454
Sb8 Yb4 3.197833 1_554
Sb8 Yb19 3.292044 1_554
Sb8 Yb8 3.313211 1_555
Sb8 Yb10 3.322467 1_555
Sb8 Yb2 3.339660 1_555
Sb8 Yb21 3.788798 1_555
Sb8 Yb3 3.893624 1_454
Sb9 Yb5 3.064754 1_555
Sb9 Yb9 3.079539 1_555
Sb9 Yb0 3.411726 1_555
Sb9 Yb16 3.464976 1_655
Sb9 Yb21 3.469637 1_655
Sb9 Yb3 3.471922 1_555
Sb9 Yb7 3.563039 1_555
Sb9 Yb6 3.666404 1_555
Sb10 Yb21 3.137099 1_655
Sb10 Yb0 3.199563 1_555
Sb10 Yb14 3.373332 1_554
Sb10 Yb12 3.386487 1_544
Sb10 Yb6 3.498317 1_544
Sb10 Yb15 3.557628 1_655
Sb10 Yb8 3.578480 1_655
Sb10 Yb7 3.639324 1_555
Sb11 Yb9 3.192652 1_555
Sb11 Yb15 3.197833 1_665
Sb11 Yb2 3.292044 1_655
Sb11 Yb1 3.313211 1_555
Sb11 Yb0 3.322467 1_565
Sb11 Yb19 3.339660 1_665
Sb11 Yb13 3.788798 1_555
Sb11 Yb17 3.893624 1_665
Sb12 Sb9 2.864303 1_455
Sb12 Yb19 3.064751 1_555
Sb12 Yb18 3.079539 1_555
Sb12 Yb3 3.411715 1_455
Sb12 Yb21 3.464976 1_555
Sb12 Yb16 3.469648 1_555
Sb12 Yb0 3.471916 1_455
Sb12 Yb4 3.563040 1_555
Sb12 Yb15 3.666411 1_555
Sb13 Yb14 3.046824 1_555
Sb13 Yb1 3.061668 1_556
Sb13 Yb7 3.090733 1_556
Sb13 Yb2 3.093507 1_656
Sb13 Yb9 3.205797 1_556
Sb13 Yb11 3.417855 1_555
Sb13 Yb21 3.449922 1_656
Sb13 Yb3 3.838543 1_555
Sb14 Yb18 3.046847 1_555
Sb14 Yb8 3.061660 1_555
Sb14 Yb15 3.090732 1_555
Sb14 Yb5 3.093503 1_555
Sb14 Yb20 3.205787 1_555
Sb14 Yb21 3.417861 1_555
Sb14 Yb11 3.449914 1_555
Sb14 Yb10 3.838548 1_555
Sb15 Yb9 3.046836 1_445
Sb15 Yb8 3.061659 1_556
Sb15 Yb6 3.090724 1_445
Sb15 Yb19 3.093514 1_555
Sb15 Yb14 3.205802 1_455
Sb15 Yb16 3.417840 1_545
Sb15 Yb13 3.449926 1_445
Sb15 Yb17 3.838550 1_555
Sb16 Yb11 3.137108 1_555
Sb16 Yb17 3.199571 1_555
Sb16 Yb18 3.373332 1_555
Sb16 Yb19 3.386485 1_555
Sb16 Yb4 3.498305 1_555
Sb16 Yb7 3.557629 1_556
Sb16 Yb1 3.578475 1_556
Sb16 Yb15 3.639332 1_555
Sb17 Yb20 3.046836 1_565
Sb17 Yb1 3.061659 1_555
Sb17 Yb4 3.090724 1_554
Sb17 Yb12 3.093514 1_554
Sb17 Yb18 3.205791 1_554
Sb17 Yb13 3.417850 1_555
Sb17 Yb16 3.449930 1_554
Sb17 Yb0 3.838550 1_565
