# generated using pymatgen
data_Ba9Fe4S15
_symmetry_space_group_name_H-M   'P 1'
_cell_length_a   9.63431949
_cell_length_b   12.71922483
_cell_length_c   25.39013093
_cell_angle_alpha   90.00000000
_cell_angle_beta   90.00000000
_cell_angle_gamma   90.00000000
_symmetry_Int_Tables_number   1
_chemical_formula_structural   Ba9Fe4S15
_chemical_formula_sum   'Ba36 Fe16 S60'
_cell_volume   3111.33395575
_cell_formula_units_Z   4
loop_
 _symmetry_equiv_pos_site_id
 _symmetry_equiv_pos_as_xyz
  1  'x, y, z'
loop_
 _atom_site_type_symbol
 _atom_site_label
 _atom_site_symmetry_multiplicity
 _atom_site_fract_x
 _atom_site_fract_y
 _atom_site_fract_z
 _atom_site_occupancy
  Ba  Ba0  1  0.48890144  0.32047833  0.51314286  1
  Ba  Ba1  1  0.25000000  0.55589045  0.64249989  1
  Ba  Ba2  1  0.46882818  0.86963737  0.64037598  1
  Ba  Ba3  1  0.01482372  0.80137741  0.30710187  1
  Ba  Ba4  1  0.75000000  0.46178166  0.02167757  1
  Ba  Ba5  1  0.48890144  0.17952167  0.01314286  1
  Ba  Ba6  1  0.25000000  0.53821834  0.97832243  1
  Ba  Ba7  1  0.75000000  0.03821834  0.52167757  1
  Ba  Ba8  1  0.03117182  0.63036263  0.14037598  1
  Ba  Ba9  1  0.75000000  0.47536002  0.70782538  1
  Ba  Ba10  1  0.25000000  0.94410955  0.14249989  1
  Ba  Ba11  1  0.46882818  0.63036263  0.14037598  1
  Ba  Ba12  1  0.51482372  0.19862259  0.69289813  1
  Ba  Ba13  1  0.53117182  0.36963737  0.85962402  1
  Ba  Ba14  1  0.51109856  0.82047833  0.98685714  1
  Ba  Ba15  1  0.98890144  0.82047833  0.98685714  1
  Ba  Ba16  1  0.75000000  0.02463998  0.20782538  1
  Ba  Ba17  1  0.48517628  0.80137741  0.30710187  1
  Ba  Ba18  1  0.51482372  0.30137741  0.19289813  1
  Ba  Ba19  1  0.48517628  0.69862259  0.80710187  1
  Ba  Ba20  1  0.53117182  0.13036263  0.35962402  1
  Ba  Ba21  1  0.75000000  0.05589045  0.85750011  1
  Ba  Ba22  1  0.51109856  0.67952167  0.48685714  1
  Ba  Ba23  1  0.75000000  0.44410955  0.35750011  1
  Ba  Ba24  1  0.25000000  0.96178166  0.47832243  1
  Ba  Ba25  1  0.98517628  0.30137741  0.19289813  1
  Ba  Ba26  1  0.98517628  0.19862259  0.69289813  1
  Ba  Ba27  1  0.96882818  0.13036263  0.35962402  1
  Ba  Ba28  1  0.25000000  0.97536002  0.79217462  1
  Ba  Ba29  1  0.98890144  0.67952167  0.48685714  1
  Ba  Ba30  1  0.96882818  0.36963737  0.85962402  1
  Ba  Ba31  1  0.01109856  0.32047833  0.51314286  1
  Ba  Ba32  1  0.01109856  0.17952167  0.01314286  1
  Ba  Ba33  1  0.25000000  0.52463998  0.29217462  1
  Ba  Ba34  1  0.01482372  0.69862259  0.80710187  1
  Ba  Ba35  1  0.03117182  0.86963737  0.64037598  1
  Fe  Fe0  1  0.25000000  0.08028206  0.27630045  1
  Fe  Fe1  1  0.25000000  0.36894932  0.09881572  1
  Fe  Fe2  1  0.25000000  0.32209991  0.38398422  1
  Fe  Fe3  1  0.25000000  0.51624534  0.42674231  1
  Fe  Fe4  1  0.25000000  0.17790009  0.88398422  1
  Fe  Fe5  1  0.75000000  0.82209991  0.11601578  1
  Fe  Fe6  1  0.75000000  0.63105068  0.90118428  1
  Fe  Fe7  1  0.75000000  0.67790009  0.61601578  1
  Fe  Fe8  1  0.75000000  0.86894932  0.40118428  1
  Fe  Fe9  1  0.75000000  0.58028206  0.22369955  1
  Fe  Fe10  1  0.75000000  0.48375466  0.57325769  1
  Fe  Fe11  1  0.75000000  0.01624534  0.07325769  1
  Fe  Fe12  1  0.25000000  0.98375466  0.92674231  1
  Fe  Fe13  1  0.75000000  0.91971794  0.72369955  1
  Fe  Fe14  1  0.25000000  0.41971794  0.77630045  1
  Fe  Fe15  1  0.25000000  0.13105068  0.59881572  1
  S  S0  1  0.94951947  0.91746896  0.43870821  1
  S  S1  1  0.44417463  0.44846723  0.73304138  1
  S  S2  1  0.25000000  0.72252157  0.06008925  1
  S  S3  1  0.75000000  0.73907843  0.70190069  1
  S  S4  1  0.25000000  0.99320975  0.01309756  1
  S  S5  1  0.25000000  0.68225051  0.39393658  1
  S  S6  1  0.93735297  0.92699248  0.10509071  1
  S  S7  1  0.75000000  0.95389352  0.32292084  1
  S  S8  1  0.25000000  0.26092157  0.29809931  1
  S  S9  1  0.25000000  0.30133482  0.94357598  1
  S  S10  1  0.44951947  0.08253104  0.56129179  1
  S  S11  1  0.43735297  0.07300752  0.89490929  1
  S  S12  1  0.75000000  0.22252157  0.43991075  1
  S  S13  1  0.75000000  0.69689367  0.38729844  1
  S  S14  1  0.75000000  0.18225051  0.10606342  1
  S  S15  1  0.55048053  0.91746896  0.43870821  1
  S  S16  1  0.75000000  0.27747843  0.93991075  1
  S  S17  1  0.75000000  0.00679025  0.98690244  1
  S  S18  1  0.43735297  0.42699248  0.39490929  1
  S  S19  1  0.75000000  0.24352375  0.27746308  1
  S  S20  1  0.25000000  0.30310633  0.61270156  1
  S  S21  1  0.25000000  0.74352375  0.22253692  1
  S  S22  1  0.75000000  0.02676044  0.65443273  1
  S  S23  1  0.55582537  0.55153277  0.26695862  1
  S  S24  1  0.25000000  0.97323956  0.34556727  1
  S  S25  1  0.06264703  0.42699248  0.39490929  1
  S  S26  1  0.55048053  0.58253104  0.93870821  1
  S  S27  1  0.05048053  0.41746896  0.06129179  1
  S  S28  1  0.75000000  0.80133482  0.55642402  1
  S  S29  1  0.25000000  0.19866518  0.44357598  1
  S  S30  1  0.75000000  0.80310633  0.88729844  1
  S  S31  1  0.75000000  0.31774949  0.60606342  1
  S  S32  1  0.75000000  0.69866518  0.05642402  1
  S  S33  1  0.05582537  0.05153277  0.23304138  1
  S  S34  1  0.75000000  0.47323956  0.15443273  1
  S  S35  1  0.56264703  0.92699248  0.10509071  1
  S  S36  1  0.55582537  0.94846723  0.76695862  1
  S  S37  1  0.25000000  0.75647625  0.72253692  1
  S  S38  1  0.94417463  0.55153277  0.26695862  1
  S  S39  1  0.25000000  0.77747843  0.56008925  1
  S  S40  1  0.05582537  0.44846723  0.73304138  1
  S  S41  1  0.06264703  0.07300752  0.89490929  1
  S  S42  1  0.75000000  0.49320975  0.48690244  1
  S  S43  1  0.25000000  0.50679025  0.51309756  1
  S  S44  1  0.25000000  0.04610648  0.67707916  1
  S  S45  1  0.56264703  0.57300752  0.60509071  1
  S  S46  1  0.25000000  0.23907843  0.79809931  1
  S  S47  1  0.25000000  0.52676044  0.84556727  1
  S  S48  1  0.75000000  0.25647625  0.77746308  1
  S  S49  1  0.75000000  0.76092157  0.20190069  1
  S  S50  1  0.05048053  0.08253104  0.56129179  1
  S  S51  1  0.25000000  0.19689367  0.11270156  1
  S  S52  1  0.94951947  0.58253104  0.93870821  1
  S  S53  1  0.75000000  0.54610648  0.82292084  1
  S  S54  1  0.93735297  0.57300752  0.60509071  1
  S  S55  1  0.44951947  0.41746896  0.06129179  1
  S  S56  1  0.44417463  0.05153277  0.23304138  1
  S  S57  1  0.25000000  0.81774949  0.89393658  1
  S  S58  1  0.94417463  0.94846723  0.76695862  1
  S  S59  1  0.25000000  0.45389352  0.17707916  1
loop_
_geom_bond_atom_site_label_1
_geom_bond_atom_site_label_2
_geom_bond_distance
_geom_bond_site_symmetry_2
Ba0 S10 3.286064 1_555
Ba0 S29 3.289074 1_555
Ba0 S43 3.303527 1_555
Ba0 S18 3.330746 1_555
Ba0 S12 3.367105 1_555
Ba0 S42 3.405659 1_555
Ba0 S20 3.425820 1_555
Ba0 S31 3.448929 1_555
Ba1 S54 3.165843 1_455
Ba1 S45 3.165843 1_555
Ba1 S37 3.261709 1_555
Ba1 S40 3.263635 1_555
Ba1 S1 3.263635 1_555
Ba1 S20 3.303036 1_555
Ba1 S43 3.344370 1_555
Ba1 S39 3.510234 1_555
Ba2 S39 3.158201 1_555
Ba2 S44 3.217329 1_565
Ba2 S37 3.296684 1_555
Ba2 S10 3.376227 1_565
Ba2 S22 3.385181 1_565
Ba2 S36 3.469481 1_555
Ba2 S3 3.540618 1_555
Ba2 S28 3.554769 1_555
Ba3 S21 3.207065 1_555
Ba3 S7 3.230186 1_455
Ba3 S24 3.296347 1_555
Ba3 S38 3.405988 1_455
Ba3 S5 3.505769 1_555
Ba3 S13 3.524465 1_455
Ba3 S0 3.706995 1_455
Ba3 S33 3.716949 1_565
Ba3 S49 3.729481 1_455
Ba4 S27 3.116074 1_655
Ba4 S55 3.116074 1_555
Ba4 S16 3.131344 1_554
Ba4 S32 3.139478 1_555
Ba4 S26 3.239068 1_554
Ba4 S52 3.239068 1_554
Ba4 S34 3.373820 1_555
Ba5 S55 3.286064 1_555
Ba5 S9 3.289074 1_554
Ba5 S4 3.303527 1_545
Ba5 S11 3.330746 1_554
Ba5 S16 3.367105 1_554
Ba5 S17 3.405659 1_554
Ba5 S51 3.425820 1_555
Ba5 S14 3.448929 1_555
Ba6 S52 3.116074 1_455
Ba6 S26 3.116074 1_555
Ba6 S2 3.131344 1_556
Ba6 S9 3.139478 1_555
Ba6 S55 3.239068 1_556
Ba6 S27 3.239068 1_556
Ba6 S47 3.373820 1_555
Ba7 S50 3.116074 1_655
Ba7 S10 3.116074 1_555
Ba7 S12 3.131344 1_555
Ba7 S28 3.139478 1_545
Ba7 S15 3.239068 1_545
Ba7 S0 3.239068 1_545
Ba7 S22 3.373820 1_555
Ba8 S2 3.158201 1_555
Ba8 S59 3.217329 1_555
Ba8 S21 3.296684 1_555
Ba8 S27 3.376227 1_555
Ba8 S34 3.385181 1_455
Ba8 S38 3.469481 1_455
Ba8 S49 3.540618 1_455
Ba8 S32 3.554769 1_455
Ba9 S40 3.034517 1_655
Ba9 S1 3.034517 1_555
Ba9 S53 3.057693 1_555
Ba9 S31 3.270247 1_555
Ba9 S48 3.298037 1_555
Ba9 S3 3.357665 1_555
Ba9 S45 3.406560 1_555
Ba9 S54 3.406560 1_555
Ba10 S35 3.165843 1_555
Ba10 S6 3.165843 1_455
Ba10 S21 3.261709 1_555
Ba10 S56 3.263635 1_565
Ba10 S33 3.263635 1_565
Ba10 S51 3.303036 1_565
Ba10 S4 3.344370 1_555
Ba10 S2 3.510234 1_555
Ba11 S2 3.158201 1_555
Ba11 S59 3.217329 1_555
Ba11 S21 3.296684 1_555
Ba11 S55 3.376227 1_555
Ba11 S34 3.385181 1_555
Ba11 S23 3.469481 1_555
Ba11 S49 3.540618 1_555
Ba11 S32 3.554769 1_555
Ba12 S48 3.207065 1_555
Ba12 S44 3.230186 1_555
Ba12 S22 3.296347 1_555
Ba12 S1 3.405988 1_555
Ba12 S31 3.505769 1_555
Ba12 S20 3.524465 1_555
Ba12 S10 3.706995 1_555
Ba12 S36 3.716949 1_545
Ba12 S46 3.729481 1_555
Ba13 S16 3.158201 1_555
Ba13 S53 3.217329 1_555
Ba13 S48 3.296684 1_555
Ba13 S26 3.376227 1_555
Ba13 S47 3.385181 1_555
Ba13 S1 3.469481 1_555
Ba13 S46 3.540618 1_555
Ba13 S9 3.554769 1_555
Ba14 S26 3.286064 1_555
Ba14 S32 3.289074 1_556
Ba14 S17 3.303527 1_565
Ba14 S35 3.330746 1_556
Ba14 S2 3.367105 1_556
Ba14 S4 3.405659 1_556
Ba14 S30 3.425820 1_555
Ba14 S57 3.448929 1_555
Ba15 S52 3.286064 1_555
Ba15 S32 3.289074 1_556
Ba15 S17 3.303527 1_565
Ba15 S6 3.330746 1_556
Ba15 S2 3.367105 1_656
Ba15 S4 3.405659 1_656
Ba15 S30 3.425820 1_555
Ba15 S57 3.448929 1_655
Ba16 S33 3.034517 1_655
Ba16 S56 3.034517 1_555
Ba16 S7 3.057693 1_545
Ba16 S14 3.270247 1_555
Ba16 S19 3.298037 1_555
Ba16 S49 3.357665 1_545
Ba16 S35 3.406560 1_545
Ba16 S6 3.406560 1_545
Ba17 S21 3.207065 1_555
Ba17 S7 3.230186 1_555
Ba17 S24 3.296347 1_555
Ba17 S23 3.405988 1_555
Ba17 S5 3.505769 1_555
Ba17 S13 3.524465 1_555
Ba17 S15 3.706995 1_555
Ba17 S56 3.716949 1_565
Ba17 S49 3.729481 1_555
Ba18 S19 3.207065 1_555
Ba18 S59 3.230186 1_555
Ba18 S34 3.296347 1_555
Ba18 S56 3.405988 1_555
Ba18 S14 3.505769 1_555
Ba18 S51 3.524465 1_555
Ba18 S55 3.706995 1_555
Ba18 S23 3.716949 1_555
Ba18 S8 3.729481 1_555
Ba19 S37 3.207065 1_555
Ba19 S53 3.230186 1_555
Ba19 S47 3.296347 1_555
Ba19 S36 3.405988 1_555
Ba19 S57 3.505769 1_555
Ba19 S30 3.524465 1_555
Ba19 S26 3.706995 1_555
Ba19 S1 3.716949 1_555
Ba19 S3 3.729481 1_555
Ba20 S12 3.158201 1_555
Ba20 S7 3.217329 1_545
Ba20 S19 3.296684 1_555
Ba20 S15 3.376227 1_545
Ba20 S24 3.385181 1_545
Ba20 S56 3.469481 1_555
Ba20 S8 3.540618 1_555
Ba20 S29 3.554769 1_555
Ba21 S41 3.165843 1_655
Ba21 S11 3.165843 1_555
Ba21 S48 3.261709 1_555
Ba21 S36 3.263635 1_545
Ba21 S58 3.263635 1_545
Ba21 S30 3.303036 1_545
Ba21 S17 3.344370 1_555
Ba21 S16 3.510234 1_555
Ba22 S15 3.286064 1_555
Ba22 S28 3.289074 1_555
Ba22 S42 3.303527 1_555
Ba22 S45 3.330746 1_555
Ba22 S39 3.367105 1_555
Ba22 S43 3.405659 1_555
Ba22 S13 3.425820 1_555
Ba22 S5 3.448929 1_555
Ba23 S25 3.165843 1_655
Ba23 S18 3.165843 1_555
Ba23 S19 3.261709 1_555
Ba23 S38 3.263635 1_555
Ba23 S23 3.263635 1_555
Ba23 S13 3.303036 1_555
Ba23 S42 3.344370 1_555
Ba23 S12 3.510234 1_555
Ba24 S15 3.116074 1_555
Ba24 S0 3.116074 1_455
Ba24 S39 3.131344 1_555
Ba24 S29 3.139478 1_565
Ba24 S10 3.239068 1_565
Ba24 S50 3.239068 1_565
Ba24 S24 3.373820 1_555
Ba25 S19 3.207065 1_555
Ba25 S59 3.230186 1_655
Ba25 S34 3.296347 1_555
Ba25 S33 3.405988 1_655
Ba25 S14 3.505769 1_555
Ba25 S51 3.524465 1_655
Ba25 S27 3.706995 1_655
Ba25 S38 3.716949 1_555
Ba25 S8 3.729481 1_655
Ba26 S48 3.207065 1_555
Ba26 S44 3.230186 1_655
Ba26 S22 3.296347 1_555
Ba26 S40 3.405988 1_655
Ba26 S31 3.505769 1_555
Ba26 S20 3.524465 1_655
Ba26 S50 3.706995 1_655
Ba26 S58 3.716949 1_545
Ba26 S46 3.729481 1_655
Ba27 S12 3.158201 1_555
Ba27 S7 3.217329 1_545
Ba27 S19 3.296684 1_555
Ba27 S0 3.376227 1_545
Ba27 S24 3.385181 1_645
Ba27 S33 3.469481 1_655
Ba27 S8 3.540618 1_655
Ba27 S29 3.554769 1_655
Ba28 S36 3.034517 1_555
Ba28 S58 3.034517 1_455
Ba28 S44 3.057693 1_565
Ba28 S57 3.270247 1_555
Ba28 S37 3.298037 1_555
Ba28 S46 3.357665 1_565
Ba28 S11 3.406560 1_565
Ba28 S41 3.406560 1_565
Ba29 S0 3.286064 1_555
Ba29 S28 3.289074 1_555
Ba29 S42 3.303527 1_555
Ba29 S54 3.330746 1_555
Ba29 S39 3.367105 1_655
Ba29 S43 3.405659 1_655
Ba29 S13 3.425820 1_555
Ba29 S5 3.448929 1_655
Ba30 S16 3.158201 1_555
Ba30 S53 3.217329 1_555
Ba30 S48 3.296684 1_555
Ba30 S52 3.376227 1_555
Ba30 S47 3.385181 1_655
Ba30 S40 3.469481 1_655
Ba30 S46 3.540618 1_655
Ba30 S9 3.554769 1_655
Ba31 S50 3.286064 1_555
Ba31 S29 3.289074 1_555
Ba31 S43 3.303527 1_555
Ba31 S25 3.330746 1_555
Ba31 S12 3.367105 1_455
Ba31 S42 3.405659 1_455
Ba31 S20 3.425820 1_555
Ba31 S31 3.448929 1_455
Ba32 S27 3.286064 1_555
Ba32 S9 3.289074 1_554
Ba32 S4 3.303527 1_545
Ba32 S41 3.330746 1_554
Ba32 S16 3.367105 1_454
Ba32 S17 3.405659 1_454
Ba32 S51 3.425820 1_555
Ba32 S14 3.448929 1_455
Ba33 S23 3.034517 1_555
Ba33 S38 3.034517 1_455
Ba33 S59 3.057693 1_555
Ba33 S5 3.270247 1_555
Ba33 S21 3.298037 1_555
Ba33 S8 3.357665 1_555
Ba33 S18 3.406560 1_555
Ba33 S25 3.406560 1_555
Ba34 S37 3.207065 1_555
Ba34 S53 3.230186 1_455
Ba34 S47 3.296347 1_555
Ba34 S58 3.405988 1_455
Ba34 S57 3.505769 1_555
Ba34 S30 3.524465 1_455
Ba34 S52 3.706995 1_455
Ba34 S40 3.716949 1_555
Ba34 S3 3.729481 1_455
Ba35 S39 3.158201 1_555
Ba35 S44 3.217329 1_565
Ba35 S37 3.296684 1_555
Ba35 S50 3.376227 1_565
Ba35 S22 3.385181 1_465
Ba35 S58 3.469481 1_455
Ba35 S3 3.540618 1_455
Ba35 S28 3.554769 1_455
Fe0 S33 2.199946 1_555
Fe0 S56 2.199946 1_555
Fe0 S24 2.224113 1_545
Fe0 S8 2.363319 1_555
Fe1 S51 2.216632 1_555
Fe1 S55 2.232386 1_555
Fe1 S27 2.232386 1_555
Fe1 S59 2.261849 1_555
Fe2 S29 2.180408 1_555
Fe2 S18 2.261636 1_555
Fe2 S25 2.261636 1_555
Fe2 S8 2.315307 1_555
Fe3 S43 2.195867 1_555
Fe3 S5 2.269811 1_555
Fe3 S25 2.280371 1_555
Fe3 S18 2.280371 1_555
Fe4 S9 2.180408 1_555
Fe4 S41 2.261636 1_555
Fe4 S11 2.261636 1_555
Fe4 S46 2.315307 1_555
Fe5 S32 2.180408 1_555
Fe5 S35 2.261636 1_555
Fe5 S6 2.261636 1_555
Fe5 S49 2.315307 1_555
Fe6 S30 2.216632 1_555
Fe6 S52 2.232386 1_555
Fe6 S26 2.232386 1_555
Fe6 S53 2.261849 1_555
Fe7 S28 2.180408 1_555
Fe7 S45 2.261636 1_555
Fe7 S54 2.261636 1_555
Fe7 S3 2.315307 1_555
Fe8 S13 2.216632 1_555
Fe8 S15 2.232386 1_555
Fe8 S0 2.232386 1_555
Fe8 S7 2.261849 1_555
Fe9 S38 2.199946 1_555
Fe9 S23 2.199946 1_555
Fe9 S34 2.224113 1_555
Fe9 S49 2.363319 1_555
Fe10 S42 2.195867 1_555
Fe10 S31 2.269811 1_555
Fe10 S45 2.280371 1_555
Fe10 S54 2.280371 1_555
Fe11 S17 2.195867 1_554
Fe11 S14 2.269811 1_555
Fe11 S6 2.280371 1_545
Fe11 S35 2.280371 1_545
Fe12 S4 2.195867 1_556
Fe12 S57 2.269811 1_555
Fe12 S41 2.280371 1_565
Fe12 S11 2.280371 1_565
Fe13 S58 2.199946 1_555
Fe13 S36 2.199946 1_555
Fe13 S22 2.224113 1_565
Fe13 S3 2.363319 1_555
Fe14 S1 2.199946 1_555
Fe14 S40 2.199946 1_555
Fe14 S47 2.224113 1_555
Fe14 S46 2.363319 1_555
Fe15 S20 2.216632 1_555
Fe15 S10 2.232386 1_555
Fe15 S50 2.232386 1_555
Fe15 S44 2.261849 1_555
