# generated using pymatgen
data_CaP2H20C4(N2O3)4
_symmetry_space_group_name_H-M   'P 1'
_cell_length_a   21.95284700
_cell_length_b   5.67911700
_cell_length_c   9.31359170
_cell_angle_alpha   53.10229109
_cell_angle_beta   90.00000000
_cell_angle_gamma   90.00000000
_symmetry_Int_Tables_number   1
_chemical_formula_structural   CaP2H20C4(N2O3)4
_chemical_formula_sum   'Ca2 P4 H40 C8 N16 O24'
_cell_volume   928.58286221
_cell_formula_units_Z   2
loop_
 _symmetry_equiv_pos_site_id
 _symmetry_equiv_pos_as_xyz
  1  'x, y, z'
loop_
 _atom_site_type_symbol
 _atom_site_label
 _atom_site_symmetry_multiplicity
 _atom_site_fract_x
 _atom_site_fract_y
 _atom_site_fract_z
 _atom_site_occupancy
  Ca  Ca0  1  0.00000000  0.00000000  0.00000000  1
  Ca  Ca1  1  0.50000000  0.00000000  0.50000000  1
  P  P0  1  0.90957700  0.60731900  0.88840300  1
  P  P1  1  0.40957700  0.39268100  0.61159700  1
  P  P2  1  0.09042300  0.39268100  0.11159700  1
  P  P3  1  0.59042300  0.60731900  0.38840300  1
  H  H0  1  0.81897900  0.64075100  0.77363600  1
  H  H1  1  0.31897900  0.35924900  0.72636400  1
  H  H2  1  0.18102100  0.35924900  0.22636400  1
  H  H3  1  0.68102100  0.64075100  0.27363600  1
  H  H4  1  0.90353500  0.51557000  0.15554600  1
  H  H5  1  0.40353500  0.48443000  0.34445400  1
  H  H6  1  0.09646500  0.48443000  0.84445400  1
  H  H7  1  0.59646500  0.51557000  0.65554600  1
  H  H8  1  0.98433300  0.92045600  0.35409100  1
  H  H9  1  0.48433300  0.07954400  0.14590900  1
  H  H10  1  0.01566700  0.07954400  0.64590900  1
  H  H11  1  0.51566700  0.92045600  0.85409100  1
  H  H12  1  0.95042000  0.69150400  0.57039100  1
  H  H13  1  0.45042000  0.30849600  0.92960900  1
  H  H14  1  0.04958000  0.30849600  0.42960900  1
  H  H15  1  0.54958000  0.69150400  0.07039100  1
  H  H16  1  0.88022700  0.35067800  0.63359100  1
  H  H17  1  0.38022700  0.64932200  0.86640900  1
  H  H18  1  0.11977300  0.64932200  0.36640900  1
  H  H19  1  0.61977300  0.35067800  0.13359100  1
  H  H20  1  0.86158200  0.28660100  0.48044700  1
  H  H21  1  0.36158200  0.71339900  0.01955300  1
  H  H22  1  0.13841800  0.71339900  0.51955300  1
  H  H23  1  0.63841800  0.28660100  0.98044700  1
  H  H24  1  0.84188600  0.09219900  0.99466600  1
  H  H25  1  0.34188600  0.90780100  0.50533400  1
  H  H26  1  0.15811400  0.90780100  0.00533400  1
  H  H27  1  0.65811400  0.09219900  0.49466600  1
  H  H28  1  0.78907100  0.80043700  0.09677000  1
  H  H29  1  0.28907100  0.19956300  0.40323000  1
  H  H30  1  0.21092900  0.19956300  0.90323000  1
  H  H31  1  0.71092900  0.80043700  0.59677000  1
  H  H32  1  0.70320900  0.84257500  0.94981800  1
  H  H33  1  0.20320900  0.15742500  0.55018200  1
  H  H34  1  0.29679100  0.15742500  0.05018200  1
  H  H35  1  0.79679100  0.84257500  0.44981800  1
  H  H36  1  0.68015400  0.18243800  0.75604200  1
  H  H37  1  0.18015400  0.81756200  0.74395800  1
  H  H38  1  0.31984600  0.81756200  0.24395800  1
  H  H39  1  0.81984600  0.18243800  0.25604200  1
  C  C0  1  0.92017300  0.63107600  0.38731300  1
  C  C1  1  0.42017300  0.36892400  0.11268700  1
  C  C2  1  0.07982700  0.36892400  0.61268700  1
  C  C3  1  0.57982700  0.63107600  0.88731300  1
  C  C4  1  0.75971400  0.19228600  0.86733000  1
  C  C5  1  0.25971400  0.80771400  0.63267000  1
  C  C6  1  0.24028600  0.80771400  0.13267000  1
  C  C7  1  0.74028600  0.19228600  0.36733000  1
  N  N0  1  0.95175100  0.77148500  0.43882300  1
  N  N1  1  0.45175100  0.22851500  0.06117700  1
  N  N2  1  0.04824900  0.22851500  0.56117700  1
  N  N3  1  0.54824900  0.77148500  0.93882300  1
  N  N4  1  0.87855400  0.42855800  0.50270600  1
  N  N5  1  0.37855400  0.57144200  0.99729400  1
  N  N6  1  0.12144600  0.57144200  0.49729400  1
  N  N7  1  0.62144600  0.42855800  0.00270600  1
  N  N8  1  0.79864300  0.01945900  0.00493500  1
  N  N9  1  0.29864300  0.98054100  0.49506500  1
  N  N10  1  0.20135700  0.98054100  0.99506500  1
  N  N11  1  0.70135700  0.01945900  0.50493500  1
  N  N12  1  0.70735800  0.06566300  0.86696400  1
  N  N13  1  0.20735800  0.93433700  0.63303600  1
  N  N14  1  0.29264200  0.93433700  0.13303600  1
  N  N15  1  0.79264200  0.06566300  0.36696400  1
  O  O0  1  0.95626900  0.83880400  0.84458100  1
  O  O1  1  0.45626900  0.16119600  0.65541900  1
  O  O2  1  0.04373100  0.16119600  0.15541900  1
  O  O3  1  0.54373100  0.83880400  0.34458100  1
  O  O4  1  0.92751600  0.38630300  0.85335200  1
  O  O5  1  0.42751600  0.61369700  0.64664800  1
  O  O6  1  0.07248400  0.61369700  0.14664800  1
  O  O7  1  0.57248400  0.38630300  0.35335200  1
  O  O8  1  0.84937400  0.77284700  0.77800200  1
  O  O9  1  0.34937400  0.22715300  0.72199800  1
  O  O10  1  0.15062600  0.22715300  0.22199800  1
  O  O11  1  0.65062600  0.77284700  0.27800200  1
  O  O12  1  0.89130200  0.41889500  0.09744800  1
  O  O13  1  0.39130200  0.58110500  0.40255200  1
  O  O14  1  0.10869800  0.58110500  0.90255200  1
  O  O15  1  0.60869800  0.41889500  0.59744800  1
  O  O16  1  0.92751300  0.69581900  0.23072400  1
  O  O17  1  0.42751300  0.30418100  0.26927600  1
  O  O18  1  0.07248700  0.30418100  0.76927600  1
  O  O19  1  0.57248700  0.69581900  0.73072400  1
  O  O20  1  0.76990700  0.46476900  0.74637900  1
  O  O21  1  0.26990700  0.53523100  0.75362100  1
  O  O22  1  0.23009300  0.53523100  0.25362100  1
  O  O23  1  0.73009300  0.46476900  0.24637900  1
loop_
_geom_bond_atom_site_label_1
_geom_bond_atom_site_label_2
_geom_bond_distance
_geom_bond_site_symmetry_2
Ca0 O2 2.333698 1_555
Ca0 O0 2.333698 1_444
Ca0 O6 2.369065 1_545
Ca0 O4 2.369065 1_454
Ca0 O18 2.382564 1_554
Ca0 O16 2.382564 1_445
Ca1 O1 2.333698 1_555
Ca1 O3 2.333698 1_545
Ca1 O7 2.369065 1_555
Ca1 O5 2.369065 1_545
Ca1 O19 2.382564 1_545
Ca1 O17 2.382564 1_555
H0 O8 1.022887 1_555
H0 O20 1.590112 1_555
H1 O9 1.022887 1_555
H1 O21 1.590112 1_555
H2 O10 1.022887 1_555
H2 O22 1.590112 1_555
H3 O11 1.022887 1_555
H3 O23 1.590112 1_555
H4 O12 1.011468 1_555
H4 O16 1.635801 1_555
H5 O13 1.011468 1_555
H5 O17 1.635801 1_555
H6 O14 1.011468 1_555
H6 O18 1.635801 1_555
H7 O15 1.011468 1_555
H7 O19 1.635801 1_555
H8 N0 1.023934 1_555
H9 N1 1.023934 1_555
H10 N2 1.023934 1_555
H11 N3 1.023934 1_555
H12 N0 1.019983 1_555
H13 N1 1.019983 1_556
H14 N2 1.019983 1_555
H15 N3 1.019983 1_554
H16 N4 1.017619 1_555
H17 N5 1.017619 1_555
H18 N6 1.017619 1_555
H19 N7 1.017619 1_555
H20 N4 1.016085 1_555
H21 N5 1.016085 1_554
H22 N6 1.016085 1_555
H23 N7 1.016085 1_556
H24 N8 1.016632 1_556
H25 N9 1.016632 1_555
H26 N10 1.016632 1_554
H27 N11 1.016632 1_555
H28 N8 1.022447 1_565
H29 N9 1.022447 1_545
H30 N10 1.022447 1_545
H31 N11 1.022447 1_565
H32 N12 1.017331 1_565
H33 N13 1.017331 1_545
H34 N14 1.017331 1_545
H35 N15 1.017331 1_565
H36 N12 1.020316 1_555
H37 N13 1.020316 1_555
H38 N14 1.020316 1_555
H39 N15 1.020316 1_555
C0 O16 1.282267 1_555
C0 N0 1.343844 1_555
C0 N4 1.352162 1_555
C1 O17 1.282267 1_555
C1 N1 1.343844 1_555
C1 N5 1.352162 1_554
C2 O18 1.282267 1_555
C2 N2 1.343844 1_555
C2 N6 1.352162 1_555
C3 O19 1.282267 1_555
C3 N3 1.343844 1_555
C3 N7 1.352162 1_556
C4 O20 1.272987 1_555
C4 N8 1.351199 1_556
C4 N12 1.356873 1_555
C5 O21 1.272987 1_555
C5 N9 1.351199 1_555
C5 N13 1.356873 1_555
C6 O22 1.272987 1_555
C6 N10 1.351199 1_554
C6 N14 1.356873 1_555
C7 O23 1.272987 1_555
C7 N11 1.351199 1_555
C7 N15 1.356873 1_555
O0 P0 1.516978 1_555
O1 P1 1.516978 1_555
O2 P2 1.516978 1_555
O3 P3 1.516978 1_555
O4 P0 1.526154 1_555
O5 P1 1.526154 1_555
O6 P2 1.526154 1_555
O7 P3 1.526154 1_555
O8 P0 1.589653 1_555
O9 P1 1.589653 1_555
O10 P2 1.589653 1_555
O11 P3 1.589653 1_555
O12 P0 1.610892 1_554
O13 P1 1.610892 1_555
O14 P2 1.610892 1_556
O15 P3 1.610892 1_555
