# generated using pymatgen
data_Ba2Fe2Se2OF2
_symmetry_space_group_name_H-M   'P 1'
_cell_length_a   4.26583749
_cell_length_b   4.26571510
_cell_length_c   19.94658516
_cell_angle_alpha   89.99747917
_cell_angle_beta   89.99713969
_cell_angle_gamma   90.00067607
_symmetry_Int_Tables_number   1
_chemical_formula_structural   Ba2Fe2Se2OF2
_chemical_formula_sum   'Ba4 Fe4 Se4 O2 F4'
_cell_volume   362.96496523
_cell_formula_units_Z   2
loop_
 _symmetry_equiv_pos_site_id
 _symmetry_equiv_pos_as_xyz
  1  'x, y, z'
loop_
 _atom_site_type_symbol
 _atom_site_label
 _atom_site_symmetry_multiplicity
 _atom_site_fract_x
 _atom_site_fract_y
 _atom_site_fract_z
 _atom_site_occupancy
  Ba  Ba0  1  0.99998700  0.99998700  0.32974400  1
  Ba  Ba1  1  0.49998700  0.49998700  0.82974400  1
  Ba  Ba2  1  0.50001300  0.50001300  0.17025600  1
  Ba  Ba3  1  0.00001300  0.00001300  0.67025600  1
  Fe  Fe0  1  0.50000000  0.00000000  0.50000000  1
  Fe  Fe1  1  0.50000000  0.00000000  0.00000000  1
  Fe  Fe2  1  0.00000000  0.50000000  0.00000000  1
  Fe  Fe3  1  0.00000000  0.50000000  0.50000000  1
  Se  Se0  1  0.49977600  0.49978000  0.40955600  1
  Se  Se1  1  0.99977600  0.99978000  0.90955600  1
  Se  Se2  1  0.00022400  0.00022100  0.09044400  1
  Se  Se3  1  0.50022400  0.50022100  0.59044400  1
  O  O0  1  0.50000000  0.50000000  0.00000000  1
  O  O1  1  0.00000000  0.00000000  0.50000000  1
  F  F0  1  0.99999500  0.50000200  0.25000600  1
  F  F1  1  0.49999500  0.00000200  0.75000600  1
  F  F2  1  0.50000500  0.99999800  0.24999400  1
  F  F3  1  0.00000500  0.49999800  0.74999400  1
loop_
_geom_bond_atom_site_label_1
_geom_bond_atom_site_label_2
_geom_bond_distance
_geom_bond_site_symmetry_2
Ba0 F0 2.660592 1_565
Ba0 F0 2.660601 1_555
Ba0 F2 2.660787 1_655
Ba0 F2 2.660791 1_555
Ba0 Se0 3.409654 1_665
Ba0 Se0 3.410702 1_655
Ba0 Se0 3.410712 1_565
Ba0 Se0 3.411697 1_555
Ba1 F1 2.660592 1_565
Ba1 F1 2.660601 1_555
Ba1 F3 2.660787 1_655
Ba1 F3 2.660791 1_555
Ba1 Se1 3.409654 1_555
Ba1 Se1 3.410702 1_545
Ba1 Se1 3.410712 1_455
Ba1 Se1 3.411697 1_445
Ba2 F2 2.660592 1_545
Ba2 F2 2.660601 1_555
Ba2 F0 2.660787 1_455
Ba2 F0 2.660791 1_555
Ba2 Se2 3.409651 1_555
Ba2 Se2 3.410705 1_565
Ba2 Se2 3.410709 1_655
Ba2 Se2 3.411700 1_665
Ba3 F3 2.660592 1_545
Ba3 F3 2.660601 1_555
Ba3 F1 2.660787 1_455
Ba3 F1 2.660791 1_555
Ba3 Se3 3.409651 1_445
Ba3 Se3 3.410705 1_455
Ba3 Se3 3.410709 1_545
Ba3 Se3 3.411700 1_555
Fe0 O1 2.132919 1_655
Fe0 O1 2.132919 1_555
Fe0 Se3 2.792726 1_545
Fe0 Se0 2.792729 1_555
Fe0 Se0 2.794283 1_545
Fe0 Se3 2.794286 1_555
Fe1 O0 2.132858 1_545
Fe1 O0 2.132858 1_555
Fe1 Se1 2.792754 1_544
Fe1 Se2 2.792754 1_555
Fe1 Se1 2.794351 1_444
Fe1 Se2 2.794351 1_655
Fe2 O0 2.132919 1_455
Fe2 O0 2.132919 1_555
Fe2 Se2 2.792726 1_555
Fe2 Se1 2.792729 1_454
Fe2 Se1 2.794283 1_444
Fe2 Se2 2.794286 1_565
Fe3 O1 2.132858 1_555
Fe3 O1 2.132858 1_565
Fe3 Se0 2.792754 1_555
Fe3 Se3 2.792754 1_455
Fe3 Se0 2.794351 1_455
Fe3 Se3 2.794351 1_555
