# generated using pymatgen
data_Ba3LuRu2O9
_symmetry_space_group_name_H-M   'P 1'
_cell_length_a   5.92038628
_cell_length_b   5.92038628
_cell_length_c   14.46618200
_cell_angle_alpha   90.00000000
_cell_angle_beta   90.00000000
_cell_angle_gamma   120.00000313
_symmetry_Int_Tables_number   1
_chemical_formula_structural   Ba3LuRu2O9
_chemical_formula_sum   'Ba6 Lu2 Ru4 O18'
_cell_volume   439.12142767
_cell_formula_units_Z   2
loop_
 _symmetry_equiv_pos_site_id
 _symmetry_equiv_pos_as_xyz
  1  'x, y, z'
loop_
 _atom_site_type_symbol
 _atom_site_label
 _atom_site_symmetry_multiplicity
 _atom_site_fract_x
 _atom_site_fract_y
 _atom_site_fract_z
 _atom_site_occupancy
  Ba  Ba0  1  0.33333300  0.66666700  0.90785200  1
  Ba  Ba1  1  0.66666700  0.33333300  0.40785200  1
  Ba  Ba2  1  0.33333300  0.66666700  0.59214800  1
  Ba  Ba3  1  0.66666700  0.33333300  0.09214800  1
  Ba  Ba4  1  0.00000000  0.00000000  0.75000000  1
  Ba  Ba5  1  0.00000000  0.00000000  0.25000000  1
  Lu  Lu0  1  0.00000000  0.00000000  0.50000000  1
  Lu  Lu1  1  0.00000000  0.00000000  0.00000000  1
  Ru  Ru0  1  0.66666700  0.33333300  0.66325500  1
  Ru  Ru1  1  0.33333300  0.66666700  0.16325500  1
  Ru  Ru2  1  0.33333300  0.66666700  0.33674500  1
  Ru  Ru3  1  0.66666700  0.33333300  0.83674500  1
  O  O0  1  0.17422800  0.34845500  0.41380700  1
  O  O1  1  0.34845500  0.17422800  0.91380700  1
  O  O2  1  0.65154500  0.82577200  0.41380700  1
  O  O3  1  0.82577200  0.17422800  0.91380700  1
  O  O4  1  0.34845500  0.17422800  0.58619300  1
  O  O5  1  0.65154500  0.82577200  0.08619300  1
  O  O6  1  0.50977300  0.01954600  0.75000000  1
  O  O7  1  0.50977300  0.49022700  0.75000000  1
  O  O8  1  0.01954600  0.50977300  0.25000000  1
  O  O9  1  0.82577200  0.17422800  0.58619300  1
  O  O10  1  0.82577200  0.65154500  0.58619300  1
  O  O11  1  0.82577200  0.65154500  0.91380700  1
  O  O12  1  0.17422800  0.34845500  0.08619300  1
  O  O13  1  0.17422800  0.82577200  0.41380700  1
  O  O14  1  0.17422800  0.82577200  0.08619300  1
  O  O15  1  0.49022700  0.98045400  0.25000000  1
  O  O16  1  0.49022700  0.50977300  0.25000000  1
  O  O17  1  0.98045400  0.49022700  0.75000000  1
loop_
_geom_bond_atom_site_label_1
_geom_bond_atom_site_label_2
_geom_bond_distance
_geom_bond_site_symmetry_2
Ba0 O17 2.913408 1_455
Ba0 O6 2.913408 1_565
Ba0 O7 2.913412 1_555
Ba0 O3 2.962461 1_565
Ba0 O3 2.962461 1_455
Ba0 O1 2.962461 1_565
Ba0 O11 2.962461 1_455
Ba0 O11 2.962461 1_555
Ba0 O1 2.962461 1_555
Ba0 O14 3.052513 1_556
Ba0 O5 3.052519 1_556
Ba0 O12 3.052519 1_556
Ba1 O15 2.913408 1_545
Ba1 O8 2.913408 1_655
Ba1 O16 2.913412 1_555
Ba1 O13 2.962461 1_545
Ba1 O13 2.962461 1_655
Ba1 O2 2.962461 1_545
Ba1 O0 2.962461 1_655
Ba1 O0 2.962461 1_555
Ba1 O2 2.962461 1_555
Ba1 O9 3.052513 1_555
Ba1 O10 3.052519 1_555
Ba1 O4 3.052519 1_555
Ba2 O17 2.913408 1_455
Ba2 O6 2.913408 1_565
Ba2 O7 2.913412 1_555
Ba2 O9 2.962461 1_565
Ba2 O9 2.962461 1_455
Ba2 O4 2.962461 1_565
Ba2 O10 2.962461 1_455
Ba2 O10 2.962461 1_555
Ba2 O4 2.962461 1_555
Ba2 O13 3.052513 1_555
Ba2 O0 3.052519 1_555
Ba2 O2 3.052519 1_555
Ba3 O15 2.913408 1_545
Ba3 O8 2.913408 1_655
Ba3 O16 2.913412 1_555
Ba3 O14 2.962461 1_655
Ba3 O14 2.962461 1_545
Ba3 O5 2.962461 1_545
Ba3 O12 2.962461 1_655
Ba3 O5 2.962461 1_555
Ba3 O12 2.962461 1_555
Ba3 O3 3.052513 1_554
Ba3 O11 3.052519 1_554
Ba3 O1 3.052519 1_554
Ba4 O7 2.961889 1_555
Ba4 O7 2.961889 1_445
Ba4 O17 2.961889 1_445
Ba4 O6 2.961889 1_555
Ba4 O6 2.961889 1_455
Ba4 O17 2.961889 1_455
Ba4 O10 2.967699 1_445
Ba4 O11 2.967699 1_445
Ba4 O4 2.967699 1_555
Ba4 O1 2.967699 1_555
Ba4 O3 2.967702 1_455
Ba4 O9 2.967702 1_455
Ba5 O16 2.961889 1_555
Ba5 O16 2.961889 1_445
Ba5 O8 2.961889 1_555
Ba5 O15 2.961889 1_445
Ba5 O8 2.961889 1_545
Ba5 O15 2.961889 1_545
Ba5 O5 2.967699 1_445
Ba5 O2 2.967699 1_445
Ba5 O12 2.967699 1_555
Ba5 O0 2.967699 1_555
Ba5 O13 2.967702 1_545
Ba5 O14 2.967702 1_545
Lu0 O4 2.178683 1_555
Lu0 O10 2.178683 1_445
Lu0 O2 2.178683 1_445
Lu0 O0 2.178683 1_555
Lu0 O9 2.178687 1_455
Lu0 O13 2.178687 1_545
Lu1 O1 2.178683 1_554
Lu1 O11 2.178683 1_444
Lu1 O12 2.178683 1_555
Lu1 O5 2.178683 1_445
Lu1 O14 2.178687 1_545
Lu1 O3 2.178687 1_454
O0 Ru2 1.976026 1_555
O1 Ru3 1.976026 1_555
O2 Ru2 1.976026 1_555
O3 Ru3 1.976018 1_555
O4 Ru0 1.976026 1_555
O5 Ru1 1.976026 1_555
O6 Ru3 2.040366 1_555
O6 Ru0 2.040366 1_555
O7 Ru3 2.040371 1_555
O7 Ru0 2.040371 1_555
O8 Ru1 2.040366 1_555
O8 Ru2 2.040366 1_555
O9 Ru0 1.976018 1_555
O10 Ru0 1.976026 1_555
O11 Ru3 1.976026 1_555
O12 Ru1 1.976026 1_555
O13 Ru2 1.976018 1_555
O14 Ru1 1.976018 1_555
O15 Ru1 2.040366 1_555
O15 Ru2 2.040366 1_555
O16 Ru1 2.040371 1_555
O16 Ru2 2.040371 1_555
O17 Ru3 2.040366 1_555
O17 Ru0 2.040366 1_555
