# generated using pymatgen
data_Dy(Zn10Rh)2
_symmetry_space_group_name_H-M   'P 1'
_cell_length_a   10.23924136
_cell_length_b   10.23924136
_cell_length_c   10.23924136
_cell_angle_alpha   60.00000000
_cell_angle_beta   60.00000000
_cell_angle_gamma   60.00000000
_symmetry_Int_Tables_number   1
_chemical_formula_structural   Dy(Zn10Rh)2
_chemical_formula_sum   'Dy2 Zn40 Rh4'
_cell_volume   759.08138827
_cell_formula_units_Z   2
loop_
 _symmetry_equiv_pos_site_id
 _symmetry_equiv_pos_as_xyz
  1  'x, y, z'
loop_
 _atom_site_type_symbol
 _atom_site_label
 _atom_site_symmetry_multiplicity
 _atom_site_fract_x
 _atom_site_fract_y
 _atom_site_fract_z
 _atom_site_occupancy
  Dy  Dy0  1  0.75000000  0.75000000  0.75000000  1
  Dy  Dy1  1  0.50000000  0.50000000  0.50000000  1
  Zn  Zn0  1  0.56838300  0.30118600  0.30118600  1
  Zn  Zn1  1  0.42075600  0.94881400  0.68161700  1
  Zn  Zn2  1  0.94881400  0.68161700  0.42075600  1
  Zn  Zn3  1  0.94881400  0.42075600  0.94881400  1
  Zn  Zn4  1  0.94881400  0.94881400  0.68161700  1
  Zn  Zn5  1  0.30118600  0.82924400  0.56838300  1
  Zn  Zn6  1  0.62500000  0.12500000  0.62500000  1
  Zn  Zn7  1  0.82924400  0.30118600  0.30118600  1
  Zn  Zn8  1  0.13793900  0.13793900  0.86206100  1
  Zn  Zn9  1  0.56838300  0.82924400  0.30118600  1
  Zn  Zn10  1  0.62500000  0.62500000  0.12500000  1
  Zn  Zn11  1  0.38793900  0.11206100  0.38793900  1
  Zn  Zn12  1  0.38793900  0.11206100  0.11206100  1
  Zn  Zn13  1  0.86206100  0.13793900  0.13793900  1
  Zn  Zn14  1  0.38793900  0.38793900  0.11206100  1
  Zn  Zn15  1  0.94881400  0.42075600  0.68161700  1
  Zn  Zn16  1  0.11206100  0.38793900  0.38793900  1
  Zn  Zn17  1  0.68161700  0.42075600  0.94881400  1
  Zn  Zn18  1  0.42075600  0.94881400  0.94881400  1
  Zn  Zn19  1  0.82924400  0.30118600  0.56838300  1
  Zn  Zn20  1  0.94881400  0.68161700  0.94881400  1
  Zn  Zn21  1  0.30118600  0.56838300  0.82924400  1
  Zn  Zn22  1  0.42075600  0.68161700  0.94881400  1
  Zn  Zn23  1  0.13793900  0.86206100  0.86206100  1
  Zn  Zn24  1  0.68161700  0.94881400  0.94881400  1
  Zn  Zn25  1  0.82924400  0.56838300  0.30118600  1
  Zn  Zn26  1  0.68161700  0.94881400  0.42075600  1
  Zn  Zn27  1  0.12500000  0.62500000  0.62500000  1
  Zn  Zn28  1  0.30118600  0.30118600  0.56838300  1
  Zn  Zn29  1  0.86206100  0.86206100  0.13793900  1
  Zn  Zn30  1  0.86206100  0.13793900  0.86206100  1
  Zn  Zn31  1  0.30118600  0.82924400  0.30118600  1
  Zn  Zn32  1  0.11206100  0.38793900  0.11206100  1
  Zn  Zn33  1  0.11206100  0.11206100  0.38793900  1
  Zn  Zn34  1  0.30118600  0.30118600  0.82924400  1
  Zn  Zn35  1  0.13793900  0.86206100  0.13793900  1
  Zn  Zn36  1  0.62500000  0.62500000  0.62500000  1
  Zn  Zn37  1  0.30118600  0.56838300  0.30118600  1
  Zn  Zn38  1  0.94881400  0.94881400  0.42075600  1
  Zn  Zn39  1  0.56838300  0.30118600  0.82924400  1
  Rh  Rh0  1  0.12500000  0.12500000  0.12500000  1
  Rh  Rh1  1  0.62500000  0.12500000  0.12500000  1
  Rh  Rh2  1  0.12500000  0.62500000  0.12500000  1
  Rh  Rh3  1  0.12500000  0.12500000  0.62500000  1
loop_
_geom_bond_atom_site_label_1
_geom_bond_atom_site_label_2
_geom_bond_distance
_geom_bond_site_symmetry_2
Dy0 Zn27 3.135115 1_655
Dy0 Zn36 3.135115 1_555
Dy0 Zn6 3.135115 1_565
Dy0 Zn10 3.135115 1_556
Dy0 Zn1 3.173599 1_555
Dy0 Zn17 3.173599 1_555
Dy0 Zn2 3.173599 1_555
Dy0 Zn22 3.173599 1_555
Dy0 Zn15 3.173599 1_555
Dy0 Zn26 3.173599 1_555
Dy0 Zn18 3.173603 1_555
Dy0 Zn3 3.173603 1_555
Dy0 Zn38 3.173603 1_555
Dy0 Zn20 3.173608 1_555
Dy0 Zn24 3.173608 1_555
Dy0 Zn4 3.173608 1_555
Dy1 Zn27 3.135115 1_555
Dy1 Zn6 3.135115 1_555
Dy1 Zn10 3.135115 1_555
Dy1 Zn36 3.135115 1_555
Dy1 Zn39 3.173599 1_555
Dy1 Zn21 3.173599 1_555
Dy1 Zn5 3.173599 1_555
Dy1 Zn19 3.173599 1_555
Dy1 Zn25 3.173599 1_555
Dy1 Zn9 3.173599 1_555
Dy1 Zn7 3.173603 1_555
Dy1 Zn34 3.173603 1_555
Dy1 Zn31 3.173603 1_555
Dy1 Zn37 3.173608 1_555
Dy1 Zn28 3.173608 1_555
Dy1 Zn0 3.173608 1_555
Zn0 Zn7 2.671019 1_555
Zn0 Zn13 2.715068 1_555
Zn0 Zn37 2.735895 1_555
Zn0 Zn28 2.735895 1_555
Zn0 Zn14 2.858191 1_555
Zn0 Zn11 2.858191 1_555
Zn0 Zn17 2.946176 1_554
Zn0 Zn26 2.946176 1_545
Zn0 Zn6 3.078749 1_555
Zn0 Zn10 3.078749 1_555
Zn1 Zn26 2.671019 1_555
Zn1 Zn11 2.715072 1_565
Zn1 Zn22 2.735895 1_555
Zn1 Zn18 2.735895 1_555
Zn1 Zn8 2.858195 1_565
Zn1 Zn23 2.858200 1_555
Zn1 Zn28 2.946176 1_565
Zn1 Zn5 2.946192 1_555
Zn1 Zn6 3.078740 1_565
Zn1 Zn36 3.078748 1_555
Zn2 Zn38 2.735895 1_555
Zn2 Zn26 2.735895 1_555
Zn2 Zn35 2.858195 1_655
Zn2 Zn29 2.858200 1_555
Zn2 Zn37 2.946176 1_655
Zn2 Zn25 2.946192 1_555
Zn2 Zn27 3.078740 1_655
Zn2 Zn36 3.078748 1_555
Zn3 Zn32 2.715063 1_656
Zn3 Zn8 2.858199 1_655
Zn3 Zn7 2.946176 1_556
Zn3 Zn34 2.946176 1_655
Zn4 Zn5 2.946176 1_655
Zn4 Zn6 3.078749 1_565
Zn5 Zn9 2.735895 1_555
Zn6 Zn7 3.078744 1_555
Zn10 Zn25 3.078740 1_555
Zn10 Zn9 3.078740 1_555
Zn10 Zn17 3.078740 1_554
Zn10 Zn22 3.078740 1_554
Zn10 Zn7 3.078744 1_555
Zn10 Zn31 3.078744 1_555
Zn10 Zn3 3.078744 1_554
Zn10 Zn18 3.078744 1_554
Zn10 Zn20 3.078749 1_554
Zn10 Zn24 3.078749 1_554
Zn10 Zn37 3.078749 1_555
Zn11 Zn26 2.715072 1_545
Zn11 Zn12 2.824781 1_555
Zn11 Zn33 2.824781 1_555
Zn11 Zn16 2.824781 1_555
Zn11 Zn14 2.824781 1_555
Zn11 Zn28 2.858191 1_555
Zn11 Zn5 2.858200 1_545
Zn11 Zn9 2.858200 1_545
Zn12 Zn18 2.715063 1_544
Zn12 Zn24 2.715068 1_544
Zn12 Zn33 2.824781 1_555
Zn12 Zn32 2.824781 1_555
Zn12 Zn14 2.824781 1_555
Zn12 Zn39 2.858195 1_554
Zn12 Zn9 2.858195 1_545
Zn12 Zn34 2.858199 1_554
Zn12 Zn31 2.858199 1_545
Zn13 Zn7 2.715063 1_555
Zn13 Zn30 2.824781 1_554
Zn13 Zn29 2.824781 1_545
Zn13 Zn8 2.824781 1_654
Zn13 Zn35 2.824781 1_645
Zn13 Zn26 2.858195 1_545
Zn13 Zn17 2.858195 1_554
Zn13 Zn38 2.858199 1_545
Zn13 Zn3 2.858199 1_554
Zn14 Zn22 2.715072 1_554
Zn14 Zn17 2.715072 1_554
Zn14 Zn16 2.824781 1_555
Zn14 Zn32 2.824781 1_555
Zn14 Zn37 2.858191 1_555
Zn14 Zn39 2.858200 1_554
Zn14 Zn21 2.858200 1_554
Zn15 Zn2 2.671019 1_555
Zn15 Zn16 2.715072 1_655
Zn15 Zn3 2.735895 1_555
Zn15 Zn17 2.735895 1_555
Zn15 Zn8 2.858195 1_655
Zn15 Zn30 2.858200 1_555
Zn15 Zn28 2.946176 1_655
Zn15 Zn19 2.946192 1_555
Zn15 Zn27 3.078740 1_655
Zn15 Zn36 3.078748 1_555
Zn16 Zn2 2.715072 1_455
Zn16 Zn33 2.824781 1_555
Zn16 Zn32 2.824781 1_555
Zn16 Zn37 2.858191 1_555
Zn16 Zn28 2.858191 1_555
Zn16 Zn25 2.858200 1_455
Zn16 Zn19 2.858200 1_455
Zn17 Zn22 2.671019 1_555
Zn17 Zn3 2.735895 1_555
Zn17 Zn30 2.858200 1_555
Zn17 Zn39 2.946192 1_555
Zn17 Zn36 3.078748 1_555
Zn18 Zn24 2.671019 1_555
Zn18 Zn22 2.735895 1_555
Zn18 Zn8 2.858199 1_565
Zn18 Zn35 2.858199 1_556
Zn18 Zn34 2.946176 1_565
Zn18 Zn31 2.946176 1_556
Zn18 Zn6 3.078744 1_565
Zn19 Zn39 2.671019 1_555
Zn19 Zn30 2.715072 1_555
Zn19 Zn25 2.735895 1_555
Zn19 Zn7 2.735895 1_555
Zn19 Zn33 2.858195 1_655
Zn19 Zn4 2.946176 1_545
Zn19 Zn6 3.078740 1_555
Zn19 Zn36 3.078748 1_555
Zn20 Zn3 2.671019 1_555
Zn20 Zn32 2.715068 1_656
Zn20 Zn4 2.735895 1_555
Zn20 Zn24 2.735895 1_555
Zn20 Zn23 2.858191 1_655
Zn20 Zn29 2.858191 1_556
Zn20 Zn25 2.946176 1_556
Zn20 Zn21 2.946176 1_655
Zn20 Zn27 3.078749 1_655
Zn21 Zn5 2.671019 1_555
Zn21 Zn23 2.715072 1_555
Zn21 Zn39 2.735895 1_555
Zn21 Zn34 2.735895 1_555
Zn21 Zn32 2.858195 1_556
Zn21 Zn22 2.946192 1_555
Zn21 Zn27 3.078740 1_555
Zn21 Zn36 3.078748 1_555
Zn22 Zn35 2.858195 1_556
Zn22 Zn23 2.858200 1_555
Zn22 Zn37 2.946176 1_556
Zn22 Zn36 3.078748 1_555
Zn23 Zn5 2.715072 1_555
Zn23 Zn29 2.824781 1_456
Zn23 Zn8 2.824781 1_565
Zn23 Zn30 2.824781 1_465
Zn23 Zn35 2.824781 1_556
Zn23 Zn4 2.858191 1_455
Zn24 Zn4 2.735895 1_555
Zn24 Zn30 2.858191 1_565
Zn24 Zn29 2.858191 1_556
Zn24 Zn39 2.946176 1_565
Zn24 Zn9 2.946176 1_556
Zn24 Zn6 3.078749 1_565
Zn25 Zn9 2.671019 1_555
Zn25 Zn29 2.715072 1_555
Zn25 Zn7 2.735895 1_555
Zn25 Zn32 2.858195 1_655
Zn25 Zn36 3.078748 1_555
Zn26 Zn38 2.735895 1_555
Zn26 Zn29 2.858200 1_555
Zn26 Zn9 2.946192 1_555
Zn26 Zn6 3.078740 1_565
Zn26 Zn36 3.078748 1_555
Zn27 Zn5 3.078740 1_555
Zn27 Zn34 3.078744 1_555
Zn27 Zn31 3.078744 1_555
Zn27 Zn3 3.078744 1_455
Zn27 Zn38 3.078744 1_455
Zn27 Zn4 3.078749 1_455
Zn27 Zn37 3.078749 1_555
Zn27 Zn28 3.078749 1_555
Zn28 Zn34 2.671019 1_555
Zn28 Zn8 2.715068 1_555
Zn28 Zn37 2.735895 1_555
Zn28 Zn6 3.078749 1_555
Zn29 Zn9 2.715072 1_555
Zn29 Zn35 2.824781 1_655
Zn29 Zn30 2.824781 1_564
Zn30 Zn39 2.715072 1_555
Zn30 Zn8 2.824781 1_655
Zn30 Zn4 2.858191 1_545
Zn31 Zn37 2.671019 1_555
Zn31 Zn35 2.715063 1_555
Zn31 Zn5 2.735895 1_555
Zn31 Zn9 2.735895 1_555
Zn31 Zn33 2.858199 1_565
Zn31 Zn38 2.946176 1_455
Zn32 Zn33 2.824781 1_555
Zn32 Zn34 2.858199 1_554
Zn32 Zn7 2.858199 1_455
Zn33 Zn38 2.715063 1_445
Zn33 Zn4 2.715068 1_445
Zn33 Zn5 2.858195 1_545
Zn33 Zn7 2.858199 1_455
Zn34 Zn8 2.715063 1_555
Zn34 Zn39 2.735895 1_555
Zn34 Zn6 3.078744 1_555
Zn35 Zn37 2.715068 1_555
Zn35 Zn8 2.824781 1_564
Zn35 Zn38 2.858199 1_455
Zn36 Zn9 3.078748 1_555
Zn36 Zn39 3.078748 1_555
Zn36 Zn5 3.078748 1_555
Zn38 Zn4 2.671019 1_555
Zn38 Zn7 2.946176 1_565
Zn38 Zn6 3.078744 1_565
Zn39 Zn6 3.078740 1_555
Rh0 Zn32 2.566658 1_555
Rh0 Zn12 2.566658 1_555
Rh0 Zn33 2.566658 1_555
Rh0 Zn13 2.566658 1_455
Rh0 Zn8 2.566658 1_554
Rh0 Zn35 2.566658 1_545
Rh0 Zn34 2.829812 1_554
Rh0 Zn7 2.829812 1_455
Rh0 Zn31 2.829812 1_545
Rh0 Zn3 2.829812 1_454
Rh0 Zn38 2.829812 1_445
Rh0 Zn18 2.829812 1_544
Rh1 Zn13 2.566658 1_555
Rh1 Zn14 2.566658 1_555
Rh1 Zn30 2.566658 1_554
Rh1 Zn11 2.566658 1_555
Rh1 Zn29 2.566658 1_545
Rh1 Zn12 2.566658 1_555
Rh1 Zn0 2.829808 1_555
Rh1 Zn24 2.829808 1_544
Rh1 Zn17 2.829816 1_554
Rh1 Zn26 2.829816 1_545
Rh1 Zn9 2.829816 1_545
Rh1 Zn39 2.829816 1_554
Rh2 Zn14 2.566658 1_555
Rh2 Zn16 2.566658 1_555
Rh2 Zn35 2.566658 1_555
Rh2 Zn23 2.566658 1_554
Rh2 Zn32 2.566658 1_555
Rh2 Zn29 2.566658 1_455
Rh2 Zn37 2.829808 1_555
Rh2 Zn20 2.829808 1_454
Rh2 Zn22 2.829816 1_554
Rh2 Zn2 2.829816 1_455
Rh2 Zn21 2.829816 1_554
Rh2 Zn25 2.829816 1_455
Rh3 Zn8 2.566658 1_555
Rh3 Zn16 2.566658 1_555
Rh3 Zn23 2.566658 1_545
Rh3 Zn11 2.566658 1_555
Rh3 Zn33 2.566658 1_555
Rh3 Zn30 2.566658 1_455
Rh3 Zn28 2.829808 1_555
Rh3 Zn4 2.829808 1_445
Rh3 Zn15 2.829816 1_455
Rh3 Zn1 2.829816 1_545
Rh3 Zn5 2.829816 1_545
Rh3 Zn19 2.829816 1_455
