# generated using pymatgen
data_TbCd3
_symmetry_space_group_name_H-M   'P 1'
_cell_length_a   6.49701543
_cell_length_b   6.49701543
_cell_length_c   4.84023286
_cell_angle_alpha   90.00000000
_cell_angle_beta   90.00000000
_cell_angle_gamma   113.60685537
_symmetry_Int_Tables_number   1
_chemical_formula_structural   TbCd3
_chemical_formula_sum   'Tb2 Cd6'
_cell_volume   187.21418995
_cell_formula_units_Z   2
loop_
 _symmetry_equiv_pos_site_id
 _symmetry_equiv_pos_as_xyz
  1  'x, y, z'
loop_
 _atom_site_type_symbol
 _atom_site_label
 _atom_site_symmetry_multiplicity
 _atom_site_fract_x
 _atom_site_fract_y
 _atom_site_fract_z
 _atom_site_occupancy
  Tb  Tb0  1  0.36408050  0.63591950  0.75000000  1
  Tb  Tb1  1  0.63591950  0.36408050  0.25000000  1
  Cd  Cd0  1  0.88008089  0.69140842  0.75000000  1
  Cd  Cd1  1  0.82537097  0.17462903  0.75000000  1
  Cd  Cd2  1  0.30859158  0.11991911  0.75000000  1
  Cd  Cd3  1  0.11991911  0.30859158  0.25000000  1
  Cd  Cd4  1  0.69140842  0.88008089  0.25000000  1
  Cd  Cd5  1  0.17462903  0.82537097  0.25000000  1
loop_
_geom_bond_atom_site_label_1
_geom_bond_atom_site_label_2
_geom_bond_distance
_geom_bond_site_symmetry_2
Tb0 Tb1 3.820176 1_555
Tb0 Tb1 3.820176 1_556
Cd0 Cd5 2.990430 1_656
Cd0 Cd5 2.990430 1_655
Cd0 Cd2 3.048598 1_665
Cd0 Cd4 3.172639 1_555
Cd0 Cd4 3.172639 1_556
Cd0 Tb1 3.192819 1_555
Cd0 Tb1 3.192819 1_556
Cd0 Tb0 3.225055 1_555
Cd0 Cd1 3.231635 1_555
Cd0 Cd1 3.297958 1_565
Cd0 Tb0 3.305472 1_655
Cd1 Cd4 2.990430 1_546
Cd1 Cd4 2.990430 1_545
Cd1 Cd3 2.990430 1_655
Cd1 Cd3 2.990430 1_656
Cd1 Tb1 3.178122 1_555
Cd1 Tb1 3.178122 1_556
Cd1 Cd2 3.231635 1_555
Cd1 Cd2 3.297958 1_655
Cd1 Tb0 3.582016 1_545
Cd1 Tb0 3.582016 1_655
Cd2 Cd5 2.990430 1_545
Cd2 Cd5 2.990430 1_546
Cd2 Cd3 3.172639 1_555
Cd2 Cd3 3.172639 1_556
Cd2 Tb1 3.192819 1_555
Cd2 Tb1 3.192819 1_556
Cd2 Tb0 3.225055 1_555
Cd2 Tb0 3.305472 1_545
Cd3 Cd4 3.048598 1_445
Cd3 Tb0 3.192819 1_555
Cd3 Tb0 3.192819 1_554
Cd3 Tb1 3.225055 1_555
Cd3 Cd5 3.231635 1_555
Cd3 Cd5 3.297958 1_545
Cd3 Tb1 3.305472 1_455
Cd4 Tb0 3.192819 1_555
Cd4 Tb0 3.192819 1_554
Cd4 Tb1 3.225055 1_555
Cd4 Cd5 3.231635 1_555
Cd4 Cd5 3.297958 1_655
Cd4 Tb1 3.305472 1_565
Cd5 Tb0 3.178122 1_554
Cd5 Tb0 3.178122 1_555
Cd5 Tb1 3.582016 1_455
Cd5 Tb1 3.582016 1_565
