# generated using pymatgen
data_BaLiBS3
_symmetry_space_group_name_H-M   'P 1'
_cell_length_a   8.77522400
_cell_length_b   7.66384300
_cell_length_c   8.79226138
_cell_angle_alpha   63.64017267
_cell_angle_beta   90.00000000
_cell_angle_gamma   90.00000000
_symmetry_Int_Tables_number   1
_chemical_formula_structural   BaLiBS3
_chemical_formula_sum   'Ba4 Li4 B4 S12'
_cell_volume   529.81555053
_cell_formula_units_Z   4
loop_
 _symmetry_equiv_pos_site_id
 _symmetry_equiv_pos_as_xyz
  1  'x, y, z'
loop_
 _atom_site_type_symbol
 _atom_site_label
 _atom_site_symmetry_multiplicity
 _atom_site_fract_x
 _atom_site_fract_y
 _atom_site_fract_z
 _atom_site_occupancy
  Ba  Ba0  1  0.13146700  0.68634000  0.68831200  1
  Ba  Ba1  1  0.36853300  0.68634000  0.18831200  1
  Ba  Ba2  1  0.86853300  0.31366000  0.31168800  1
  Ba  Ba3  1  0.63146700  0.31366000  0.81168800  1
  Li  Li0  1  0.07403100  0.11185900  0.79542000  1
  Li  Li1  1  0.57403100  0.88814100  0.70458000  1
  Li  Li2  1  0.42596900  0.11185900  0.29542000  1
  Li  Li3  1  0.92596900  0.88814100  0.20458000  1
  B  B0  1  0.84097000  0.77100000  0.92037000  1
  B  B1  1  0.65903000  0.77100000  0.42037000  1
  B  B2  1  0.34097000  0.22900000  0.57963000  1
  B  B3  1  0.15903000  0.22900000  0.07963000  1
  S  S0  1  0.17247800  0.38277400  0.50921900  1
  S  S1  1  0.84339300  0.98505100  0.71218900  1
  S  S2  1  0.15660700  0.01494900  0.28781100  1
  S  S3  1  0.82752200  0.61722600  0.49078100  1
  S  S4  1  0.34339300  0.01494900  0.78781100  1
  S  S5  1  0.98479900  0.28565600  0.95387300  1
  S  S6  1  0.01520100  0.71434400  0.04612700  1
  S  S7  1  0.51520100  0.28565600  0.45387300  1
  S  S8  1  0.32752200  0.38277400  0.00921900  1
  S  S9  1  0.48479900  0.71434400  0.54612700  1
  S  S10  1  0.67247800  0.61722600  0.99078100  1
  S  S11  1  0.65660700  0.98505100  0.21218900  1
loop_
_geom_bond_atom_site_label_1
_geom_bond_atom_site_label_2
_geom_bond_distance
_geom_bond_site_symmetry_2
Ba0 S5 3.189179 1_455
Ba0 S8 3.241013 1_556
Ba0 S2 3.303888 1_565
Ba0 S9 3.314234 1_555
Ba0 S3 3.350764 1_455
Ba0 S0 3.357769 1_555
Ba0 S6 3.403514 1_556
Ba0 S1 3.478789 1_455
Ba0 S4 3.538729 1_565
Ba1 S7 3.189179 1_555
Ba1 S0 3.241013 1_555
Ba1 S4 3.303888 1_564
Ba1 S6 3.314234 1_555
Ba1 S10 3.350764 1_554
Ba1 S8 3.357769 1_555
Ba1 S9 3.403514 1_555
Ba1 S11 3.478789 1_555
Ba1 S2 3.538729 1_565
Ba2 S6 3.189179 1_655
Ba2 S10 3.241013 1_554
Ba2 S1 3.303888 1_545
Ba2 S7 3.314234 1_555
Ba2 S0 3.350764 1_655
Ba2 S3 3.357769 1_555
Ba2 S5 3.403514 1_554
Ba2 S2 3.478789 1_655
Ba2 S11 3.538729 1_545
Ba3 S9 3.189179 1_555
Ba3 S3 3.241013 1_555
Ba3 S11 3.303888 1_546
Ba3 S5 3.314234 1_555
Ba3 S8 3.350764 1_556
Ba3 S10 3.357769 1_555
Ba3 S7 3.403514 1_555
Ba3 S4 3.478789 1_555
Ba3 S1 3.538729 1_545
Li0 S5 2.444576 1_455
Li0 S4 2.487436 1_555
Li0 S1 2.491524 1_445
Li0 S0 2.598012 1_555
Li0 S6 2.905715 1_546
Li1 S9 2.444576 1_555
Li1 S1 2.487436 1_555
Li1 S4 2.491524 1_565
Li1 S10 2.598012 1_555
Li1 S7 2.905715 1_565
Li2 S7 2.444576 1_555
Li2 S2 2.487436 1_555
Li2 S11 2.491524 1_545
Li2 S8 2.598012 1_555
Li2 S9 2.905715 1_545
Li3 S6 2.444576 1_655
Li3 S11 2.487436 1_555
Li3 S2 2.491524 1_665
Li3 S3 2.598012 1_555
Li3 S5 2.905715 1_564
B0 S10 1.819440 1_555
B0 S6 1.822727 1_656
B0 S1 1.837236 1_555
B1 S3 1.819440 1_555
B1 S9 1.822727 1_555
B1 S11 1.837236 1_555
B2 S0 1.819440 1_555
B2 S7 1.822727 1_555
B2 S4 1.837236 1_555
B3 S8 1.819440 1_555
B3 S5 1.822727 1_454
B3 S2 1.837236 1_555
