# generated using pymatgen
data_Na3(Pt3O4)4
_symmetry_space_group_name_H-M   'P 1'
_cell_length_a   5.73767436
_cell_length_b   5.74242057
_cell_length_c   46.12431161
_cell_angle_alpha   90.00000000
_cell_angle_beta   90.00000000
_cell_angle_gamma   90.00000000
_symmetry_Int_Tables_number   1
_chemical_formula_structural   Na3(Pt3O4)4
_chemical_formula_sum   'Na12 Pt48 O64'
_cell_volume   1519.71024260
_cell_formula_units_Z   4
loop_
 _symmetry_equiv_pos_site_id
 _symmetry_equiv_pos_as_xyz
  1  'x, y, z'
loop_
 _atom_site_type_symbol
 _atom_site_label
 _atom_site_symmetry_multiplicity
 _atom_site_fract_x
 _atom_site_fract_y
 _atom_site_fract_z
 _atom_site_occupancy
  Na  Na0  1  0.00000000  0.00000000  0.49926736  1
  Na  Na1  1  0.00000000  0.00000000  0.62483830  1
  Na  Na2  1  0.00000000  0.00000000  0.75016170  1
  Na  Na3  1  0.00000000  0.00000000  0.87573264  1
  Na  Na4  1  0.50000000  0.50000000  0.06288603  1
  Na  Na5  1  0.50000000  0.50000000  0.18750000  1
  Na  Na6  1  0.50000000  0.50000000  0.31211397  1
  Na  Na7  1  0.50000000  0.50000000  0.43722222  1
  Na  Na8  1  0.50000000  0.50000000  0.68750000  1
  Na  Na9  1  0.50000000  0.50000000  0.56211385  1
  Na  Na10  1  0.50000000  0.50000000  0.81288615  1
  Na  Na11  1  0.50000000  0.50000000  0.93777778  1
  O  O0  1  0.25580877  0.25611892  0.03264954  1
  O  O1  1  0.25643942  0.25647161  0.15715736  1
  O  O2  1  0.25682608  0.25692117  0.28180448  1
  O  O3  1  0.25923348  0.25924452  0.40632615  1
  O  O4  1  0.25128301  0.25033233  0.53072628  1
  O  O5  1  0.25046092  0.24976010  0.65618060  1
  O  O6  1  0.25643942  0.74352839  0.15715736  1
  O  O7  1  0.25682608  0.25692117  0.09319552  1
  O  O8  1  0.25580877  0.25611892  0.34235046  1
  O  O9  1  0.24997392  0.24915866  0.78151978  1
  O  O10  1  0.25580877  0.74388108  0.03264954  1
  O  O11  1  0.24800409  0.24741174  0.90704907  1
  O  O12  1  0.25682608  0.74307883  0.09319552  1
  O  O13  1  0.25643942  0.25647161  0.21784264  1
  O  O14  1  0.24800409  0.24741174  0.46795093  1
  O  O15  1  0.25923348  0.74075548  0.40632615  1
  O  O16  1  0.24997392  0.24915866  0.59348022  1
  O  O17  1  0.25643942  0.74352839  0.21784264  1
  O  O18  1  0.25682608  0.74307883  0.28180448  1
  O  O19  1  0.25580877  0.74388108  0.34235046  1
  O  O20  1  0.25046092  0.24976010  0.71881940  1
  O  O21  1  0.25046092  0.75023990  0.65618060  1
  O  O22  1  0.24800409  0.75258826  0.46795093  1
  O  O23  1  0.25128301  0.74966767  0.53072628  1
  O  O24  1  0.24997392  0.75084134  0.59348022  1
  O  O25  1  0.24997392  0.75084134  0.78151978  1
  O  O26  1  0.25046092  0.75023990  0.71881940  1
  O  O27  1  0.25128301  0.25033233  0.84427372  1
  O  O28  1  0.25923348  0.25924452  0.96867385  1
  O  O29  1  0.24800409  0.75258826  0.90704907  1
  O  O30  1  0.25923348  0.74075548  0.96867385  1
  O  O31  1  0.25128301  0.74966767  0.84427372  1
  O  O32  1  0.74356058  0.74352839  0.15715736  1
  O  O33  1  0.74356058  0.25647161  0.15715736  1
  O  O34  1  0.74419123  0.25611892  0.03264954  1
  O  O35  1  0.74317392  0.25692117  0.09319552  1
  O  O36  1  0.74419123  0.74388108  0.03264954  1
  O  O37  1  0.74076652  0.25924452  0.40632615  1
  O  O38  1  0.74356058  0.25647161  0.21784264  1
  O  O39  1  0.74317392  0.25692117  0.28180448  1
  O  O40  1  0.74419123  0.25611892  0.34235046  1
  O  O41  1  0.75199591  0.24741174  0.46795093  1
  O  O42  1  0.74317392  0.74307883  0.28180448  1
  O  O43  1  0.74076652  0.74075548  0.40632615  1
  O  O44  1  0.74953908  0.24976010  0.65618060  1
  O  O45  1  0.74871699  0.25033233  0.53072628  1
  O  O46  1  0.75002608  0.24915866  0.59348022  1
  O  O47  1  0.75002608  0.24915866  0.78151978  1
  O  O48  1  0.74953908  0.24976010  0.71881940  1
  O  O49  1  0.74317392  0.74307883  0.09319552  1
  O  O50  1  0.74871699  0.74966767  0.53072628  1
  O  O51  1  0.74953908  0.75023990  0.65618060  1
  O  O52  1  0.75002608  0.75084134  0.78151978  1
  O  O53  1  0.75199591  0.24741174  0.90704907  1
  O  O54  1  0.74871699  0.25033233  0.84427372  1
  O  O55  1  0.74076652  0.25924452  0.96867385  1
  O  O56  1  0.74419123  0.74388108  0.34235046  1
  O  O57  1  0.75199591  0.75258826  0.90704907  1
  O  O58  1  0.74356058  0.74352839  0.21784264  1
  O  O59  1  0.75199591  0.75258826  0.46795093  1
  O  O60  1  0.75002608  0.75084134  0.59348022  1
  O  O61  1  0.74953908  0.75023990  0.71881940  1
  O  O62  1  0.74871699  0.74966767  0.84427372  1
  O  O63  1  0.74076652  0.74075548  0.96867385  1
  Pt  Pt0  1  0.00000000  0.50000000  0.03117752  1
  Pt  Pt1  1  0.00000000  0.50000000  0.21934712  1
  Pt  Pt2  1  0.00000000  0.50000000  0.28037258  1
  Pt  Pt3  1  0.00000000  0.50000000  0.40472437  1
  Pt  Pt4  1  0.00000000  0.50000000  0.59347209  1
  Pt  Pt5  1  0.00000000  0.50000000  0.71880891  1
  Pt  Pt6  1  0.00000000  0.50000000  0.78152791  1
  Pt  Pt7  1  0.00000000  0.50000000  0.84433469  1
  Pt  Pt8  1  0.00000000  0.50000000  0.90713388  1
  Pt  Pt9  1  0.00000000  0.50000000  0.97027563  1
  Pt  Pt10  1  0.00000000  0.50000000  0.53066531  1
  Pt  Pt11  1  0.00000000  0.50000000  0.65619109  1
  Pt  Pt12  1  0.24497788  0.00000000  0.06300345  1
  Pt  Pt13  1  0.24501713  0.00000000  0.18750000  1
  Pt  Pt14  1  0.24497788  0.00000000  0.31199655  1
  Pt  Pt15  1  0.24791793  0.00000000  0.43593874  1
  Pt  Pt16  1  0.25069065  0.00000000  0.56201881  1
  Pt  Pt17  1  0.25067089  0.00000000  0.68750000  1
  Pt  Pt18  1  0.25069065  0.00000000  0.81298119  1
  Pt  Pt19  1  0.24791793  0.00000000  0.93906126  1
  Pt  Pt20  1  0.50000000  0.24443576  0.00088738  1
  Pt  Pt21  1  0.50000000  0.24413959  0.12521011  1
  Pt  Pt22  1  0.50000000  0.24443576  0.37411262  1
  Pt  Pt23  1  0.50000000  0.24413959  0.24978989  1
  Pt  Pt24  1  0.50000000  0.24908100  0.49910639  1
  Pt  Pt25  1  0.50000000  0.75586041  0.12521011  1
  Pt  Pt26  1  0.50000000  0.24926495  0.62479476  1
  Pt  Pt27  1  0.50000000  0.75556424  0.00088738  1
  Pt  Pt28  1  0.50000000  0.75556424  0.37411262  1
  Pt  Pt29  1  0.50000000  0.24908100  0.87589361  1
  Pt  Pt30  1  0.50000000  0.24926495  0.75020524  1
  Pt  Pt31  1  0.50000000  0.75586041  0.24978989  1
  Pt  Pt32  1  0.50000000  0.75073505  0.62479476  1
  Pt  Pt33  1  0.50000000  0.75091900  0.49910639  1
  Pt  Pt34  1  0.50000000  0.75091900  0.87589361  1
  Pt  Pt35  1  0.50000000  0.75073505  0.75020524  1
  Pt  Pt36  1  0.75502212  0.00000000  0.06300345  1
  Pt  Pt37  1  0.75498287  0.00000000  0.18750000  1
  Pt  Pt38  1  0.75502212  0.00000000  0.31199655  1
  Pt  Pt39  1  0.75208207  0.00000000  0.43593874  1
  Pt  Pt40  1  0.74930935  0.00000000  0.56201881  1
  Pt  Pt41  1  0.74932911  0.00000000  0.68750000  1
  Pt  Pt42  1  0.74930935  0.00000000  0.81298119  1
  Pt  Pt43  1  0.75208207  0.00000000  0.93906126  1
  Pt  Pt44  1  0.00000000  0.50000000  0.15565288  1
  Pt  Pt45  1  0.00000000  0.50000000  0.09462742  1
  Pt  Pt46  1  0.00000000  0.50000000  0.34382248  1
  Pt  Pt47  1  0.00000000  0.50000000  0.46786612  1
loop_
_geom_bond_atom_site_label_1
_geom_bond_atom_site_label_2
_geom_bond_distance
_geom_bond_site_symmetry_2
Na0 O59 2.475838 1_445
Na0 O22 2.475838 1_545
Na0 O41 2.475838 1_455
Na0 O14 2.475838 1_555
Na0 O50 2.500127 1_445
Na0 O45 2.500127 1_455
Na0 O23 2.500127 1_545
Na0 O4 2.500127 1_555
Na1 O24 2.489222 1_545
Na1 O16 2.489222 1_555
Na1 O60 2.489222 1_445
Na1 O46 2.489222 1_455
Na1 O44 2.492396 1_455
Na1 O5 2.492396 1_555
Na1 O51 2.492396 1_445
Na1 O21 2.492396 1_545
Na2 O25 2.489222 1_545
Na2 O52 2.489222 1_445
Na2 O47 2.489222 1_455
Na2 O9 2.489222 1_555
Na2 O48 2.492396 1_455
Na2 O20 2.492396 1_555
Na2 O61 2.492396 1_445
Na2 O26 2.492396 1_545
Na3 O11 2.475838 1_555
Na3 O57 2.475838 1_445
Na3 O53 2.475838 1_455
Na3 O29 2.475838 1_545
Na3 O31 2.500127 1_545
Na3 O62 2.500127 1_445
Na3 O27 2.500127 1_555
Na3 O54 2.500127 1_455
Na4 O12 2.418589 1_555
Na4 O7 2.418589 1_555
Na4 O35 2.418589 1_555
Na4 O49 2.418589 1_555
Na4 O36 2.422679 1_555
Na4 O10 2.422679 1_555
Na4 O34 2.422679 1_555
Na4 O0 2.422679 1_555
Na5 O13 2.422243 1_555
Na5 O17 2.422243 1_555
Na5 O1 2.422243 1_555
Na5 O6 2.422243 1_555
Na5 O33 2.422243 1_555
Na5 O38 2.422243 1_555
Na5 O58 2.422243 1_555
Na5 O32 2.422243 1_555
Na6 O18 2.418589 1_555
Na6 O2 2.418589 1_555
Na6 O39 2.418589 1_555
Na6 O42 2.418589 1_555
Na6 O56 2.422679 1_555
Na6 O8 2.422679 1_555
Na6 O40 2.422679 1_555
Na6 O19 2.422679 1_555
Na7 O43 2.418787 1_555
Na7 O15 2.418787 1_555
Na7 O37 2.418787 1_555
Na7 O3 2.418787 1_555
Na7 O22 2.490633 1_555
Na7 O14 2.490633 1_555
Na7 O59 2.490633 1_555
Na7 O41 2.490633 1_555
Na8 O61 2.490326 1_555
Na8 O21 2.490326 1_555
Na8 O51 2.490326 1_555
Na8 O26 2.490326 1_555
Na8 O20 2.490326 1_555
Na8 O5 2.490326 1_555
Na8 O48 2.490326 1_555
Na8 O44 2.490326 1_555
Na9 O23 2.487549 1_555
Na9 O4 2.487549 1_555
Na9 O45 2.487549 1_555
Na9 O50 2.487549 1_555
Na9 O24 2.495182 1_555
Na9 O16 2.495182 1_555
Na9 O60 2.495182 1_555
Na9 O46 2.495182 1_555
Na10 O27 2.487549 1_555
Na10 O31 2.487549 1_555
Na10 O62 2.487549 1_555
Na10 O54 2.487549 1_555
Na10 O25 2.495182 1_555
Na10 O9 2.495182 1_555
Na10 O52 2.495182 1_555
Na10 O47 2.495182 1_555
Na11 O28 2.418787 1_555
Na11 O63 2.418787 1_555
Na11 O55 2.418787 1_555
Na11 O30 2.418787 1_555
Na11 O53 2.490633 1_555
Na11 O11 2.490633 1_555
Na11 O57 2.490633 1_555
Na11 O29 2.490633 1_555
O0 Pt20 2.028251 1_555
O0 Pt0 2.029828 1_555
O0 Pt12 2.031525 1_555
O1 Pt44 2.031102 1_555
O1 Pt21 2.032062 1_555
O1 Pt13 2.032741 1_555
O2 Pt14 2.029921 1_555
O2 Pt2 2.030823 1_555
O2 Pt23 2.032884 1_555
O3 Pt15 2.021383 1_555
O3 Pt22 2.030588 1_555
O3 Pt3 2.032036 1_555
O4 Pt10 2.033279 1_555
O4 Pt16 2.037083 1_555
O4 Pt24 2.040492 1_555
O5 Pt11 2.032257 1_555
O5 Pt17 2.035642 1_555
O5 Pt26 2.036093 1_555
O6 Pt44 2.031102 1_555
O6 Pt25 2.032062 1_555
O6 Pt13 2.032741 1_565
O7 Pt12 2.029921 1_555
O7 Pt45 2.030823 1_555
O7 Pt21 2.032884 1_555
O8 Pt22 2.028251 1_555
O8 Pt46 2.029828 1_555
O8 Pt14 2.031525 1_555
O9 Pt6 2.032728 1_555
O9 Pt30 2.035723 1_555
O9 Pt18 2.037873 1_555
O10 Pt27 2.028251 1_555
O10 Pt0 2.029828 1_555
O10 Pt12 2.031525 1_565
O11 Pt8 2.031922 1_555
O11 Pt29 2.038546 1_555
O11 Pt19 2.049068 1_555
O12 Pt12 2.029921 1_565
O12 Pt45 2.030823 1_555
O12 Pt25 2.032884 1_555
O13 Pt1 2.031102 1_555
O13 Pt23 2.032062 1_555
O13 Pt13 2.032741 1_555
O14 Pt47 2.031922 1_555
O14 Pt24 2.038546 1_555
O14 Pt15 2.049068 1_555
O15 Pt15 2.021383 1_565
O15 Pt28 2.030588 1_555
O15 Pt3 2.032036 1_555
O16 Pt4 2.032728 1_555
O16 Pt26 2.035723 1_555
O16 Pt16 2.037873 1_555
O17 Pt1 2.031102 1_555
O17 Pt31 2.032062 1_555
O17 Pt13 2.032741 1_565
O18 Pt14 2.029921 1_565
O18 Pt2 2.030823 1_555
O18 Pt31 2.032884 1_555
O19 Pt28 2.028251 1_555
O19 Pt46 2.029828 1_555
O19 Pt14 2.031525 1_565
O20 Pt5 2.032257 1_555
O20 Pt17 2.035642 1_555
O20 Pt30 2.036093 1_555
O21 Pt11 2.032257 1_555
O21 Pt17 2.035642 1_565
O21 Pt32 2.036093 1_555
O22 Pt47 2.031922 1_555
O22 Pt33 2.038546 1_555
O22 Pt15 2.049068 1_565
O23 Pt10 2.033279 1_555
O23 Pt16 2.037083 1_565
O23 Pt33 2.040492 1_555
O24 Pt4 2.032728 1_555
O24 Pt32 2.035723 1_555
O24 Pt16 2.037873 1_565
O25 Pt6 2.032728 1_555
O25 Pt35 2.035723 1_555
O25 Pt18 2.037873 1_565
O26 Pt5 2.032257 1_555
O26 Pt17 2.035642 1_565
O26 Pt35 2.036093 1_555
O27 Pt7 2.033279 1_555
O27 Pt18 2.037083 1_555
O27 Pt29 2.040492 1_555
O28 Pt19 2.021383 1_555
O28 Pt20 2.030588 1_556
O28 Pt9 2.032036 1_555
O29 Pt8 2.031922 1_555
O29 Pt34 2.038546 1_555
O29 Pt19 2.049068 1_565
O30 Pt19 2.021383 1_565
O30 Pt27 2.030588 1_556
O30 Pt9 2.032036 1_555
O31 Pt7 2.033279 1_555
O31 Pt18 2.037083 1_565
O31 Pt34 2.040492 1_555
O32 Pt44 2.031102 1_655
O32 Pt25 2.032062 1_555
O32 Pt37 2.032741 1_565
O33 Pt44 2.031102 1_655
O33 Pt21 2.032062 1_555
O33 Pt37 2.032741 1_555
O34 Pt20 2.028251 1_555
O34 Pt0 2.029828 1_655
O34 Pt36 2.031525 1_555
O35 Pt36 2.029921 1_555
O35 Pt45 2.030823 1_655
O35 Pt21 2.032884 1_555
O36 Pt27 2.028251 1_555
O36 Pt0 2.029828 1_655
O36 Pt36 2.031525 1_565
O37 Pt39 2.021383 1_555
O37 Pt22 2.030588 1_555
O37 Pt3 2.032036 1_655
O38 Pt1 2.031102 1_655
O38 Pt23 2.032062 1_555
O38 Pt37 2.032741 1_555
O39 Pt38 2.029921 1_555
O39 Pt2 2.030823 1_655
O39 Pt23 2.032884 1_555
O40 Pt22 2.028251 1_555
O40 Pt46 2.029828 1_655
O40 Pt38 2.031525 1_555
O41 Pt47 2.031922 1_655
O41 Pt24 2.038546 1_555
O41 Pt39 2.049068 1_555
O42 Pt38 2.029921 1_565
O42 Pt2 2.030823 1_655
O42 Pt31 2.032884 1_555
O43 Pt39 2.021383 1_565
O43 Pt28 2.030588 1_555
O43 Pt3 2.032036 1_655
O44 Pt11 2.032257 1_655
O44 Pt41 2.035642 1_555
O44 Pt26 2.036093 1_555
O45 Pt10 2.033279 1_655
O45 Pt40 2.037083 1_555
O45 Pt24 2.040492 1_555
O46 Pt4 2.032728 1_655
O46 Pt26 2.035723 1_555
O46 Pt40 2.037873 1_555
O47 Pt6 2.032728 1_655
O47 Pt30 2.035723 1_555
O47 Pt42 2.037873 1_555
O48 Pt5 2.032257 1_655
O48 Pt41 2.035642 1_555
O48 Pt30 2.036093 1_555
O49 Pt36 2.029921 1_565
O49 Pt45 2.030823 1_655
O49 Pt25 2.032884 1_555
O50 Pt10 2.033279 1_655
O50 Pt40 2.037083 1_565
O50 Pt33 2.040492 1_555
O51 Pt11 2.032257 1_655
O51 Pt41 2.035642 1_565
O51 Pt32 2.036093 1_555
O52 Pt6 2.032728 1_655
O52 Pt35 2.035723 1_555
O52 Pt42 2.037873 1_565
O53 Pt8 2.031922 1_655
O53 Pt29 2.038546 1_555
O53 Pt43 2.049068 1_555
O54 Pt7 2.033279 1_655
O54 Pt42 2.037083 1_555
O54 Pt29 2.040492 1_555
O55 Pt43 2.021383 1_555
O55 Pt20 2.030588 1_556
O55 Pt9 2.032036 1_655
O56 Pt28 2.028251 1_555
O56 Pt46 2.029828 1_655
O56 Pt38 2.031525 1_565
O57 Pt8 2.031922 1_655
O57 Pt34 2.038546 1_555
O57 Pt43 2.049068 1_565
O58 Pt1 2.031102 1_655
O58 Pt31 2.032062 1_555
O58 Pt37 2.032741 1_565
O59 Pt47 2.031922 1_655
O59 Pt33 2.038546 1_555
O59 Pt39 2.049068 1_565
O60 Pt4 2.032728 1_655
O60 Pt32 2.035723 1_555
O60 Pt40 2.037873 1_565
O61 Pt5 2.032257 1_655
O61 Pt41 2.035642 1_565
O61 Pt35 2.036093 1_555
O62 Pt7 2.033279 1_655
O62 Pt42 2.037083 1_565
O62 Pt34 2.040492 1_555
O63 Pt43 2.021383 1_565
O63 Pt27 2.030588 1_556
O63 Pt9 2.032036 1_655
