# generated using pymatgen
data_AsHPbO4
_symmetry_space_group_name_H-M   'P 1'
_cell_length_a   6.79012200
_cell_length_b   4.97294500
_cell_length_c   5.93595298
_cell_angle_alpha   84.89816231
_cell_angle_beta   90.00000000
_cell_angle_gamma   90.00000000
_symmetry_Int_Tables_number   1
_chemical_formula_structural   AsHPbO4
_chemical_formula_sum   'As2 H2 Pb2 O8'
_cell_volume   199.64465438
_cell_formula_units_Z   2
loop_
 _symmetry_equiv_pos_site_id
 _symmetry_equiv_pos_as_xyz
  1  'x, y, z'
loop_
 _atom_site_type_symbol
 _atom_site_label
 _atom_site_symmetry_multiplicity
 _atom_site_fract_x
 _atom_site_fract_y
 _atom_site_fract_z
 _atom_site_occupancy
  As  As0  1  0.20806600  0.50000000  0.75000000  1
  As  As1  1  0.79193400  0.50000000  0.25000000  1
  H  H0  1  0.50000000  0.50000000  0.50000000  1
  H  H1  1  0.50000000  0.50000000  0.00000000  1
  Pb  Pb0  1  0.79690800  0.00000000  0.75000000  1
  Pb  Pb1  1  0.20309200  0.00000000  0.25000000  1
  O  O0  1  0.35815600  0.36027700  0.55406900  1
  O  O1  1  0.35815600  0.63972300  0.94593100  1
  O  O2  1  0.64184400  0.63972300  0.44593100  1
  O  O3  1  0.64184400  0.36027700  0.05406900  1
  O  O4  1  0.07028400  0.24817900  0.89041800  1
  O  O5  1  0.07028400  0.75182100  0.60958200  1
  O  O6  1  0.92971600  0.75182100  0.10958200  1
  O  O7  1  0.92971600  0.24817900  0.39041800  1
loop_
_geom_bond_atom_site_label_1
_geom_bond_atom_site_label_2
_geom_bond_distance
_geom_bond_site_symmetry_2
As0 O5 1.718315 1_555
As0 O4 1.718315 1_555
As0 O1 1.737182 1_555
As0 O0 1.737182 1_555
As1 O6 1.718315 1_555
As1 O7 1.718315 1_555
As1 O2 1.737182 1_555
As1 O3 1.737182 1_555
H0 O2 1.213992 1_555
H0 O0 1.213992 1_555
H1 O1 1.213992 1_554
H1 O3 1.213992 1_555
O4 Pb0 2.417973 1_455
O4 Pb1 2.534526 1_556
O5 Pb0 2.417973 1_465
O5 Pb1 2.534526 1_565
O6 Pb1 2.417973 1_665
O6 Pb0 2.534526 1_564
O7 Pb1 2.417973 1_655
O7 Pb0 2.534526 1_555
