# generated using pymatgen
data_Ba2CaTl2(CuO4)2
_symmetry_space_group_name_H-M   'P 1'
_cell_length_a   15.57564464
_cell_length_b   15.57564464
_cell_length_c   15.57564464
_cell_angle_alpha   165.42975138
_cell_angle_beta   165.42975138
_cell_angle_gamma   20.66174013
_symmetry_Int_Tables_number   1
_chemical_formula_structural   Ba2CaTl2(CuO4)2
_chemical_formula_sum   'Ba2 Ca1 Tl2 Cu2 O8'
_cell_volume   239.10400286
_cell_formula_units_Z   1
loop_
 _symmetry_equiv_pos_site_id
 _symmetry_equiv_pos_as_xyz
  1  'x, y, z'
loop_
 _atom_site_type_symbol
 _atom_site_label
 _atom_site_symmetry_multiplicity
 _atom_site_fract_x
 _atom_site_fract_y
 _atom_site_fract_z
 _atom_site_occupancy
  Ba  Ba0  1  0.11526400  0.11526400  0.00000000  1
  Ba  Ba1  1  0.88473600  0.88473600  0.00000000  1
  Ca  Ca0  1  0.00000000  0.00000000  0.00000000  1
  Tl  Tl0  1  0.71297400  0.71297400  0.00000000  1
  Tl  Tl1  1  0.28702600  0.28702600  0.00000000  1
  Cu  Cu0  1  0.55026100  0.55026100  0.00000000  1
  Cu  Cu1  1  0.44973900  0.44973900  0.00000000  1
  O  O0  1  0.05150200  0.55150200  0.50000000  1
  O  O1  1  0.35592100  0.35592100  0.00000000  1
  O  O2  1  0.55150200  0.05150200  0.50000000  1
  O  O3  1  0.75000000  0.25000000  0.50000000  1
  O  O4  1  0.94849800  0.44849800  0.50000000  1
  O  O5  1  0.25000000  0.75000000  0.50000000  1
  O  O6  1  0.44849800  0.94849800  0.50000000  1
  O  O7  1  0.64407900  0.64407900  0.00000000  1
loop_
_geom_bond_atom_site_label_1
_geom_bond_atom_site_label_2
_geom_bond_distance
_geom_bond_site_symmetry_2
Ba0 O0 2.778383 1_555
Ba0 O2 2.778383 1_555
Ba0 O2 2.778383 1_454
Ba0 O0 2.778383 1_544
Ba0 O7 2.929483 1_556
Ba0 O7 2.929483 1_444
Ba0 O7 2.929483 1_545
Ba0 O7 2.929483 1_455
Ba1 O6 2.778383 1_655
Ba1 O4 2.778383 1_565
Ba1 O6 2.778383 1_554
Ba1 O4 2.778383 1_554
Ba1 O1 2.929483 1_655
Ba1 O1 2.929483 1_666
Ba1 O1 2.929483 1_565
Ba1 O1 2.929483 1_554
Ca0 O2 2.528280 1_555
Ca0 O0 2.528280 1_555
Ca0 O2 2.528280 1_454
Ca0 O0 2.528280 1_544
Ca0 O4 2.528280 1_455
Ca0 O6 2.528280 1_545
Ca0 O4 2.528280 1_444
Ca0 O6 2.528280 1_444
Cu0 O0 1.975468 1_554
Cu0 O2 1.975468 1_554
Cu0 O2 1.975468 1_565
Cu0 O0 1.975468 1_655
Cu1 O6 1.975468 1_544
Cu1 O4 1.975468 1_454
Cu1 O6 1.975468 1_555
Cu1 O4 1.975468 1_555
O1 Tl1 2.111376 1_555
O3 Tl1 2.277848 1_555
O3 Tl0 2.277848 1_556
O3 Tl1 2.277848 1_656
O3 Tl0 2.277848 1_545
O5 Tl1 2.277848 1_555
O5 Tl0 2.277848 1_556
O5 Tl0 2.277848 1_455
O5 Tl1 2.277848 1_566
O7 Tl0 2.111376 1_555
