# generated using pymatgen
data_KPSe3
_symmetry_space_group_name_H-M   'P 1'
_cell_length_a   14.95111130
_cell_length_b   14.95111130
_cell_length_c   19.27501300
_cell_angle_alpha   90.00000000
_cell_angle_beta   90.00000000
_cell_angle_gamma   119.99999691
_symmetry_Int_Tables_number   1
_chemical_formula_structural   KPSe3
_chemical_formula_sum   'K24 P24 Se72'
_cell_volume   3731.40401015
_cell_formula_units_Z   24
loop_
 _symmetry_equiv_pos_site_id
 _symmetry_equiv_pos_as_xyz
  1  'x, y, z'
loop_
 _atom_site_type_symbol
 _atom_site_label
 _atom_site_symmetry_multiplicity
 _atom_site_fract_x
 _atom_site_fract_y
 _atom_site_fract_z
 _atom_site_occupancy
  K  K0  1  0.07640300  0.55150800  0.54300600  1
  K  K1  1  0.97507300  0.95910000  0.20581200  1
  K  K2  1  0.19288300  0.81706500  0.69953600  1
  K  K3  1  0.69156500  0.28152200  0.69671100  1
  K  K4  1  0.09368700  0.81134500  0.36244800  1
  K  K5  1  0.47510500  0.92359700  0.20967200  1
  K  K6  1  0.44849200  0.52489500  0.87633900  1
  K  K7  1  0.18865500  0.28234200  0.69578100  1
  K  K8  1  0.69621700  0.81819600  0.70223600  1
  K  K9  1  0.04090000  0.01597300  0.53914500  1
  K  K10  1  0.58995700  0.30843500  0.36337800  1
  K  K11  1  0.71765800  0.90631300  0.02911500  1
  K  K12  1  0.98172900  0.52885400  0.87201500  1
  K  K13  1  0.57440500  0.55211700  0.54631600  1
  K  K14  1  0.62418200  0.80711700  0.36620300  1
  K  K15  1  0.47114600  0.45287400  0.20534900  1
  K  K16  1  0.97771100  0.42559500  0.21298300  1
  K  K17  1  0.44788300  0.02228900  0.87964900  1
  K  K18  1  0.18180400  0.87802200  0.03556900  1
  K  K19  1  0.12197800  0.30378300  0.36890300  1
  K  K20  1  0.98402700  0.02492700  0.87247900  1
  K  K21  1  0.18293500  0.37581800  0.03286900  1
  K  K22  1  0.54712600  0.01827100  0.53868200  1
  K  K23  1  0.71847800  0.41004300  0.03004400  1
  P  P0  1  0.76993200  0.63382400  0.34072400  1
  P  P1  1  0.86636400  0.13364900  0.67329900  1
  P  P2  1  0.29778100  0.09166700  0.23262000  1
  P  P3  1  0.79585500  0.20180300  0.89895800  1
  P  P4  1  0.86389200  0.23006800  0.00739100  1
  P  P5  1  0.86635100  0.73271400  0.00663300  1
  P  P6  1  0.36617600  0.13610800  0.67405700  1
  P  P7  1  0.37329200  0.24215500  0.00683500  1
  P  P8  1  0.79981300  0.10312100  0.23227200  1
  P  P9  1  0.90833300  0.20611400  0.56595300  1
  P  P10  1  0.37106400  0.63234700  0.67594200  1
  P  P11  1  0.40117100  0.70244700  0.56796700  1
  P  P12  1  0.36765300  0.73871700  0.00927500  1
  P  P13  1  0.86886300  0.62670800  0.67350200  1
  P  P14  1  0.29755300  0.69872300  0.90130100  1
  P  P15  1  0.79819700  0.59405200  0.23229200  1
  P  P16  1  0.75784500  0.13113700  0.34016900  1
  P  P17  1  0.30330800  0.20018700  0.89893800  1
  P  P18  1  0.79388600  0.70221900  0.89928600  1
  P  P19  1  0.26728600  0.13363600  0.33996600  1
  P  P20  1  0.40594800  0.20414500  0.56562500  1
  P  P21  1  0.89687900  0.69669200  0.56560500  1
  P  P22  1  0.26128300  0.62893600  0.34260900  1
  P  P23  1  0.30127700  0.59882900  0.23463400  1
  Se  Se0  1  0.70577200  0.51525100  0.67765600  1
  Se  Se1  1  0.42419200  0.40111000  0.03248500  1
  Se  Se2  1  0.82055600  0.78753700  0.56286400  1
  Se  Se3  1  0.42742700  0.29843300  0.72942200  1
  Se  Se4  1  0.75520400  0.71116900  0.17795900  1
  Se  Se5  1  0.93970800  0.39100800  0.03675600  1
  Se  Se6  1  0.22109500  0.78411000  0.87391600  1
  Se  Se7  1  0.41385200  0.79113100  0.73162000  1
  Se  Se8  1  0.68364400  0.53903200  0.89537900  1
  Se  Se9  1  0.70156700  0.12899400  0.06275500  1
  Se  Se10  1  0.96155400  0.64520300  0.22988500  1
  Se  Se11  1  0.30411200  0.54075800  0.51122800  1
  Se  Se12  1  0.32468300  0.79286100  0.56263800  1
  Se  Se13  1  0.87100600  0.57257300  0.39608800  1
  Se  Se14  1  0.93127600  0.29363100  0.73206100  1
  Se  Se15  1  0.23664600  0.69588800  0.17789500  1
  Se  Se16  1  0.20886900  0.62272100  0.06495300  1
  Se  Se17  1  0.31240800  0.79215300  0.34383100  1
  Se  Se18  1  0.95596500  0.24479600  0.84462600  1
  Se  Se19  1  0.69951800  0.04352400  0.67776600  1
  Se  Se20  1  0.84539000  0.80112300  0.34336600  1
  Se  Se21  1  0.68364900  0.03844600  0.89655100  1
  Se  Se22  1  0.79652700  0.04727600  0.50889800  1
  Se  Se23  1  0.19085300  0.93212300  0.20728300  1
  Se  Se24  1  0.19887700  0.04426800  0.67670000  1
  Se  Se25  1  0.85538800  0.31635600  0.56204600  1
  Se  Se26  1  0.41989600  0.89731200  0.03708700  1
  Se  Se27  1  0.95056600  0.05545400  0.69974500  1
  Se  Se28  1  0.56301500  0.77890500  0.54058200  1
  Se  Se29  1  0.95272400  0.74925100  0.84223100  1
  Se  Se30  1  0.97691800  0.57580800  0.69915200  1
  Se  Se31  1  0.46508700  0.26266900  0.84279900  1
  Se  Se32  1  0.74127000  0.80914700  0.87394900  1
  Se  Se33  1  0.22608600  0.28446600  0.87044700  1
  Se  Se34  1  0.45130000  0.06029200  0.70342300  1
  Se  Se35  1  0.80947900  0.29422800  0.34432200  1
  Se  Se36  1  0.60899200  0.54870000  0.37009000  1
  Se  Se37  1  0.28883100  0.04403500  0.51129300  1
  Se  Se38  1  0.79758100  0.53491300  0.50946500  1
  Se  Se39  1  0.34400700  0.30048200  0.34443300  1
  Se  Se40  1  0.71553400  0.94162000  0.20378000  1
  Se  Se41  1  0.10488800  0.04943400  0.36641100  1
  Se  Se42  1  0.06787700  0.25873000  0.54061600  1
  Se  Se43  1  0.47974600  0.68759200  0.01049700  1
  Se  Se44  1  0.46817700  0.67531700  0.22930400  1
  Se  Se45  1  0.36235500  0.06872400  0.39872700  1
  Se  Se46  1  0.91425100  0.78565500  0.72990800  1
  Se  Se47  1  0.21246300  0.03302000  0.89619800  1
  Se  Se48  1  0.74481900  0.30890500  0.87097300  1
  Se  Se49  1  0.37727900  0.58614800  0.39828600  1
  Se  Se50  1  0.20713900  0.53182300  0.89597100  1
  Se  Se51  1  0.21589000  0.43698500  0.20724900  1
  Se  Se52  1  0.21434500  0.12859600  0.06324100  1
  Se  Se53  1  0.95573200  0.15461000  0.01003300  1
  Se  Se54  1  0.94454600  0.89511200  0.03307800  1
  Se  Se55  1  0.48474900  0.19052100  0.01098900  1
  Se  Se56  1  0.05838000  0.77391400  0.53711400  1
  Se  Se57  1  0.10268800  0.52258300  0.37042000  1
  Se  Se58  1  0.45924200  0.76335400  0.84456100  1
  Se  Se59  1  0.59889000  0.02308200  0.36581800  1
  Se  Se60  1  0.73733100  0.20241900  0.17613200  1
  Se  Se61  1  0.46096800  0.14461200  0.22871300  1
  Se  Se62  1  0.20784700  0.52025400  0.67716400  1
  Se  Se63  1  0.25074900  0.20347300  0.17556400  1
  Se  Se64  1  0.35479700  0.31635100  0.56321800  1
  Se  Se65  1  0.69109500  0.43591400  0.20430700  1
  Se  Se66  1  0.56408600  0.25518100  0.53764000  1
  Se  Se67  1  0.95647600  0.65599300  0.01110000  1
  Se  Se68  1  0.96698000  0.17944400  0.22953100  1
  Se  Se69  1  0.87140400  0.08574900  0.39657500  1
  Se  Se70  1  0.47741700  0.58010400  0.70375400  1
  Se  Se71  1  0.70636900  0.63764500  0.06539400  1
loop_
_geom_bond_atom_site_label_1
_geom_bond_atom_site_label_2
_geom_bond_distance
_geom_bond_site_symmetry_2
K0 Se57 3.402597 1_555
K0 Se62 3.418432 1_555
K0 Se25 3.434674 1_455
K0 Se30 3.455890 1_455
K0 Se56 3.469669 1_555
K0 Se11 3.541022 1_555
K0 Se12 3.680880 1_555
K1 Se68 3.387516 1_565
K1 Se54 3.431059 1_555
K1 Se20 3.433394 1_555
K1 Se23 3.445687 1_655
K1 Se41 3.542907 1_665
K1 Se4 3.556643 1_555
K1 Se40 3.756752 1_555
K2 Se24 3.381795 1_565
K2 Se12 3.419055 1_555
K2 Se30 3.433649 1_455
K2 Se6 3.453407 1_555
K2 Se7 3.567692 1_555
K2 Se56 3.600560 1_555
K2 Se34 3.755969 1_565
K3 Se0 3.413112 1_555
K3 Se25 3.425253 1_555
K3 Se48 3.428966 1_555
K3 Se34 3.461143 1_555
K3 Se66 3.526766 1_555
K3 Se14 3.562705 1_555
K3 Se19 3.637628 1_555
K4 Se56 3.410429 1_555
K4 Se23 3.419483 1_555
K4 Se10 3.419737 1_455
K4 Se17 3.441386 1_555
K4 Se41 3.479824 1_565
K4 Se13 3.516207 1_455
K4 Se20 3.656853 1_455
K5 Se26 3.402575 1_555
K5 Se17 3.418441 1_555
K5 Se61 3.434676 1_565
K5 Se59 3.455890 1_565
K5 Se40 3.469669 1_555
K5 Se15 3.541019 1_555
K5 Se44 3.680873 1_555
K6 Se70 3.402576 1_555
K6 Se43 3.418423 1_556
K6 Se8 3.434674 1_555
K6 Se1 3.455890 1_556
K6 Se33 3.469669 1_555
K6 Se58 3.541022 1_555
K6 Se50 3.680888 1_555
K7 Se33 3.410429 1_555
K7 Se42 3.419483 1_555
K7 Se64 3.419737 1_555
K7 Se62 3.441371 1_555
K7 Se27 3.479825 1_455
K7 Se3 3.516210 1_555
K7 Se24 3.656836 1_555
K8 Se19 3.377595 1_565
K8 Se32 3.393780 1_555
K8 Se70 3.424769 1_555
K8 Se2 3.425623 1_555
K8 Se46 3.568448 1_555
K8 Se28 3.584697 1_555
K8 Se27 3.682005 1_565
K9 Se2 3.387509 1_445
K9 Se41 3.431059 1_555
K9 Se24 3.433406 1_555
K9 Se42 3.445687 1_555
K9 Se27 3.542924 1_455
K9 Se37 3.556640 1_555
K9 Se56 3.756752 1_545
K10 Se35 3.413114 1_555
K10 Se61 3.425253 1_555
K10 Se66 3.428966 1_555
K10 Se36 3.461143 1_555
K10 Se65 3.526767 1_555
K10 Se45 3.562701 1_555
K10 Se39 3.637613 1_555
K11 Se40 3.410410 1_555
K11 Se32 3.419500 1_554
K11 Se21 3.419751 1_564
K11 Se43 3.441380 1_555
K11 Se54 3.479824 1_555
K11 Se9 3.516206 1_565
K11 Se53 3.656846 1_565
K12 Se50 3.379846 1_655
K12 Se30 3.413253 1_555
K12 Se67 3.414760 1_556
K12 Se48 3.422388 1_555
K12 Se29 3.578383 1_555
K12 Se5 3.664763 1_556
K12 Se6 3.703475 1_655
K13 Se0 3.413635 1_555
K13 Se64 3.426121 1_555
K13 Se36 3.440117 1_555
K13 Se70 3.477571 1_555
K13 Se28 3.480762 1_555
K13 Se38 3.544393 1_555
K13 Se2 3.616783 1_555
K14 Se20 3.381782 1_555
K14 Se44 3.419076 1_555
K14 Se59 3.433649 1_565
K14 Se28 3.453388 1_555
K14 Se49 3.567689 1_555
K14 Se40 3.600577 1_555
K14 Se36 3.755969 1_555
K15 Se44 3.379873 1_555
K15 Se1 3.413270 1_555
K15 Se39 3.414745 1_555
K15 Se65 3.422379 1_555
K15 Se63 3.578377 1_555
K15 Se36 3.664764 1_555
K15 Se51 3.703482 1_555
K16 Se35 3.413614 1_555
K16 Se10 3.426113 1_555
K16 Se5 3.440134 1_555
K16 Se57 3.477564 1_655
K16 Se51 3.480777 1_655
K16 Se60 3.544394 1_555
K16 Se68 3.616783 1_555
K17 Se55 3.413625 1_556
K17 Se21 3.426128 1_555
K17 Se34 3.440114 1_555
K17 Se26 3.477585 1_546
K17 Se6 3.480769 1_545
K17 Se31 3.544390 1_555
K17 Se47 3.616785 1_555
K18 Se67 3.377607 1_455
K18 Se23 3.393795 1_555
K18 Se26 3.424782 1_555
K18 Se47 3.425608 1_564
K18 Se52 3.568433 1_565
K18 Se6 3.584688 1_554
K18 Se54 3.681997 1_455
K19 Se39 3.377624 1_555
K19 Se42 3.393778 1_555
K19 Se57 3.424752 1_555
K19 Se68 3.425623 1_455
K19 Se69 3.568439 1_455
K19 Se51 3.584699 1_555
K19 Se41 3.682012 1_555
K20 Se47 3.387502 1_655
K20 Se27 3.431059 1_555
K20 Se53 3.433400 1_556
K20 Se32 3.445687 1_545
K20 Se54 3.542907 1_546
K20 Se18 3.556643 1_555
K20 Se33 3.756753 1_655
K21 Se53 3.381788 1_455
K21 Se50 3.419065 1_554
K21 Se1 3.433649 1_555
K21 Se51 3.453407 1_555
K21 Se16 3.567692 1_555
K21 Se33 3.600560 1_554
K21 Se5 3.755969 1_455
K22 Se12 3.379861 1_545
K22 Se59 3.413268 1_555
K22 Se19 3.414745 1_555
K22 Se66 3.422394 1_555
K22 Se22 3.578368 1_555
K22 Se34 3.664770 1_555
K22 Se28 3.703467 1_545
K23 Se55 3.413112 1_555
K23 Se8 3.425253 1_554
K23 Se65 3.428985 1_555
K23 Se5 3.461143 1_555
K23 Se48 3.526766 1_554
K23 Se71 3.562705 1_555
K23 Se67 3.637618 1_555
P0 Se36 2.160485 1_555
P0 Se20 2.170252 1_555
P0 P15 2.269732 1_555
P0 Se13 2.375909 1_555
P1 Se27 2.164094 1_555
P1 Se19 2.164365 1_555
P1 P9 2.273517 1_555
P1 Se14 2.371627 1_555
P2 Se61 2.157244 1_555
P2 Se23 2.161206 1_545
P2 Se63 2.381954 1_555
P3 Se48 2.158519 1_555
P3 Se21 2.164335 1_555
P3 P4 2.269750 1_556
P3 Se18 2.387796 1_555
P4 Se5 2.160480 1_555
P4 Se53 2.170238 1_555
P4 Se9 2.375909 1_555
P5 Se54 2.164102 1_555
P5 Se67 2.164365 1_555
P5 Se71 2.371617 1_555
P6 Se34 2.160485 1_555
P6 Se24 2.170251 1_555
P6 Se3 2.375917 1_555
P7 Se1 2.159398 1_555
P7 Se55 2.160029 1_555
P7 Se52 2.382719 1_555
P8 Se40 2.162678 1_545
P8 Se68 2.167850 1_555
P8 Se60 2.373730 1_555
P9 Se25 2.157244 1_555
P9 Se42 2.161206 1_655
P9 Se22 2.381945 1_555
P10 Se70 2.160531 1_555
P10 Se62 2.162058 1_555
P10 P11 2.271735 1_555
P10 Se7 2.382887 1_555
P11 Se28 2.162050 1_555
P11 Se12 2.165997 1_555
P11 Se11 2.374406 1_555
P12 Se26 2.160517 1_555
P12 Se43 2.162069 1_555
P12 P14 2.271718 1_554
P12 Se16 2.382887 1_555
P13 Se30 2.159397 1_555
P13 Se0 2.160029 1_555
P13 P21 2.270950 1_555
P13 Se46 2.382719 1_555
P14 Se6 2.162063 1_555
P14 Se50 2.165973 1_555
P14 Se58 2.374414 1_555
P15 Se65 2.158519 1_555
P15 Se10 2.164335 1_555
P15 Se4 2.387804 1_555
P16 Se59 2.159393 1_555
P16 Se35 2.160028 1_555
P16 P8 2.270950 1_555
P16 Se69 2.382719 1_555
P17 Se33 2.162673 1_555
P17 Se47 2.167850 1_555
P17 P7 2.270950 1_556
P17 Se31 2.373709 1_555
P18 Se8 2.157244 1_555
P18 Se32 2.161206 1_555
P18 P5 2.273536 1_556
P18 Se29 2.381945 1_555
P19 Se41 2.164102 1_555
P19 Se39 2.164365 1_555
P19 P2 2.273512 1_555
P19 Se45 2.371606 1_555
P20 Se66 2.158519 1_555
P20 Se64 2.164335 1_555
P20 P6 2.269732 1_555
P20 Se37 2.387796 1_555
P21 Se56 2.162673 1_655
P21 Se2 2.167863 1_555
P21 Se38 2.373720 1_555
P22 Se57 2.160515 1_555
P22 Se17 2.162055 1_555
P22 P23 2.271740 1_555
P22 Se49 2.382878 1_555
P23 Se51 2.162051 1_555
P23 Se44 2.165972 1_555
P23 Se15 2.374417 1_555
Se3 Se31 2.383223 1_555
Se4 Se71 2.376222 1_555
Se11 Se49 2.377813 1_555
Se13 Se38 2.383228 1_555
Se14 Se18 2.376222 1_555
Se15 Se16 2.377813 1_555
Se22 Se69 2.372242 1_555
Se29 Se46 2.372242 1_555
Se37 Se45 2.376240 1_555
Se52 Se63 2.372242 1_555
Se58 Se7 2.377795 1_555
Se60 Se9 2.383228 1_555
