# generated using pymatgen
data_Ba(MnSb)2
_symmetry_space_group_name_H-M   'P 1'
_cell_length_a   7.22132129
_cell_length_b   7.22132129
_cell_length_c   7.22132129
_cell_angle_alpha   143.43822914
_cell_angle_beta   143.43822914
_cell_angle_gamma   52.66816987
_symmetry_Int_Tables_number   1
_chemical_formula_structural   Ba(MnSb)2
_chemical_formula_sum   'Ba1 Mn2 Sb2'
_cell_volume   132.82740204
_cell_formula_units_Z   1
loop_
 _symmetry_equiv_pos_site_id
 _symmetry_equiv_pos_as_xyz
  1  'x, y, z'
loop_
 _atom_site_type_symbol
 _atom_site_label
 _atom_site_symmetry_multiplicity
 _atom_site_fract_x
 _atom_site_fract_y
 _atom_site_fract_z
 _atom_site_occupancy
  Ba  Ba0  1  0.00000000  0.00000000  0.00000000  1
  Mn  Mn0  1  0.75000000  0.25000000  0.50000000  1
  Mn  Mn1  1  0.25000000  0.75000000  0.50000000  1
  Sb  Sb0  1  0.63623300  0.63623300  0.00000000  1
  Sb  Sb1  1  0.36376700  0.36376700  0.00000000  1
loop_
_geom_bond_atom_site_label_1
_geom_bond_atom_site_label_2
_geom_bond_distance
_geom_bond_site_symmetry_2
Ba0 Sb1 3.656683 1_545
Ba0 Sb1 3.656683 1_444
Ba0 Sb0 3.656683 1_556
Ba0 Sb1 3.656683 1_455
Ba0 Sb1 3.656683 1_556
Ba0 Sb0 3.656683 1_545
Ba0 Sb0 3.656683 1_444
Ba0 Sb0 3.656683 1_455
Mn0 Sb0 2.701742 1_545
Mn0 Sb1 2.701742 1_656
Mn0 Sb0 2.701742 1_556
Mn0 Sb1 2.701742 1_555
Mn1 Sb0 2.701742 1_455
Mn1 Sb1 2.701742 1_566
Mn1 Sb0 2.701742 1_556
Mn1 Sb1 2.701742 1_555
