# generated using pymatgen
data_NaGdTiO4
_symmetry_space_group_name_H-M   'P 1'
_cell_length_a   5.31102600
_cell_length_b   5.42328500
_cell_length_c   12.65408700
_cell_angle_alpha   90.00000000
_cell_angle_beta   90.00000000
_cell_angle_gamma   90.00000000
_symmetry_Int_Tables_number   1
_chemical_formula_structural   NaGdTiO4
_chemical_formula_sum   'Na4 Gd4 Ti4 O16'
_cell_volume   364.47829536
_cell_formula_units_Z   4
loop_
 _symmetry_equiv_pos_site_id
 _symmetry_equiv_pos_as_xyz
  1  'x, y, z'
loop_
 _atom_site_type_symbol
 _atom_site_label
 _atom_site_symmetry_multiplicity
 _atom_site_fract_x
 _atom_site_fract_y
 _atom_site_fract_z
 _atom_site_occupancy
  Na  Na0  1  0.75000000  0.99172700  0.58626800  1
  Na  Na1  1  0.75000000  0.49172700  0.41373200  1
  Na  Na2  1  0.25000000  0.00827300  0.41373200  1
  Na  Na3  1  0.25000000  0.50827300  0.58626800  1
  Gd  Gd0  1  0.75000000  0.97746900  0.89339300  1
  Gd  Gd1  1  0.75000000  0.47746900  0.10660700  1
  Gd  Gd2  1  0.25000000  0.02253100  0.10660700  1
  Gd  Gd3  1  0.25000000  0.52253100  0.89339300  1
  Ti  Ti0  1  0.75000000  0.99181100  0.26520100  1
  Ti  Ti1  1  0.75000000  0.49181100  0.73479900  1
  Ti  Ti2  1  0.25000000  0.00818900  0.73479900  1
  Ti  Ti3  1  0.25000000  0.50818900  0.26520100  1
  O  O0  1  0.00000000  0.75000000  0.21547900  1
  O  O1  1  0.50000000  0.25000000  0.78452100  1
  O  O2  1  0.00000000  0.25000000  0.78452100  1
  O  O3  1  0.50000000  0.75000000  0.21547900  1
  O  O4  1  0.00000000  0.75000000  0.75635000  1
  O  O5  1  0.50000000  0.25000000  0.24365000  1
  O  O6  1  0.00000000  0.25000000  0.24365000  1
  O  O7  1  0.50000000  0.75000000  0.75635000  1
  O  O8  1  0.75000000  0.06492100  0.06524900  1
  O  O9  1  0.75000000  0.56492100  0.93475100  1
  O  O10  1  0.25000000  0.93507900  0.93475100  1
  O  O11  1  0.25000000  0.43507900  0.06524900  1
  O  O12  1  0.75000000  0.95843600  0.40343700  1
  O  O13  1  0.75000000  0.45843600  0.59656300  1
  O  O14  1  0.25000000  0.04156400  0.59656300  1
  O  O15  1  0.25000000  0.54156400  0.40343700  1
loop_
_geom_bond_atom_site_label_1
_geom_bond_atom_site_label_2
_geom_bond_distance
_geom_bond_site_symmetry_2
Na0 O12 2.320593 1_555
Na0 O13 2.534446 1_565
Na0 O14 2.672409 1_565
Na0 O14 2.672409 1_665
Na0 O7 2.848446 1_555
Na0 O4 2.848446 1_655
Na0 O13 2.895122 1_555
Na1 O13 2.320593 1_555
Na1 O12 2.534446 1_555
Na1 O15 2.672409 1_655
Na1 O15 2.672409 1_555
Na1 O5 2.848446 1_555
Na1 O6 2.848446 1_655
Na1 O12 2.895122 1_545
Na2 O14 2.320593 1_555
Na2 O15 2.534446 1_545
Na2 O12 2.672409 1_545
Na2 O12 2.672409 1_445
Na2 O6 2.848446 1_555
Na2 O5 2.848446 1_555
Na2 O15 2.895122 1_555
Na3 O15 2.320593 1_555
Na3 O14 2.534446 1_555
Na3 O13 2.672409 1_455
Na3 O13 2.672409 1_555
Na3 O4 2.848446 1_555
Na3 O7 2.848446 1_555
Na3 O14 2.895122 1_565
Gd0 O8 2.225798 1_566
Gd0 O9 2.297759 1_555
Gd0 O2 2.417737 1_665
Gd0 O1 2.417737 1_565
Gd0 O7 2.508400 1_555
Gd0 O4 2.508400 1_655
Gd0 O10 2.716338 1_555
Gd0 O10 2.716338 1_655
Gd1 O9 2.225798 1_554
Gd1 O8 2.297759 1_555
Gd1 O0 2.417737 1_655
Gd1 O3 2.417737 1_555
Gd1 O6 2.508400 1_655
Gd1 O5 2.508400 1_555
Gd1 O11 2.716338 1_655
Gd1 O11 2.716338 1_555
Gd2 O10 2.225798 1_544
Gd2 O11 2.297759 1_555
Gd2 O0 2.417737 1_545
Gd2 O3 2.417737 1_545
Gd2 O6 2.508400 1_555
Gd2 O5 2.508400 1_555
Gd2 O8 2.716338 1_455
Gd2 O8 2.716338 1_555
Gd3 O11 2.225798 1_556
Gd3 O10 2.297759 1_555
Gd3 O1 2.417737 1_555
Gd3 O2 2.417737 1_555
Gd3 O4 2.508400 1_555
Gd3 O7 2.508400 1_555
Gd3 O9 2.716338 1_555
Gd3 O9 2.716338 1_455
O0 Ti0 1.969418 1_455
O0 Ti3 1.969418 1_555
O1 Ti1 1.969418 1_555
O1 Ti2 1.969418 1_555
O2 Ti1 1.969418 1_455
O2 Ti2 1.969418 1_555
O3 Ti0 1.969418 1_555
O3 Ti3 1.969418 1_555
O4 Ti1 1.948835 1_455
O4 Ti2 1.948835 1_565
O5 Ti3 1.948835 1_555
O5 Ti0 1.948835 1_545
O6 Ti0 1.948835 1_445
O6 Ti3 1.948835 1_555
O7 Ti1 1.948835 1_555
O7 Ti2 1.948835 1_565
O8 Ti0 2.561088 1_545
O9 Ti1 2.561088 1_555
O10 Ti2 2.561088 1_565
O11 Ti3 2.561088 1_555
O12 Ti0 1.758590 1_555
O13 Ti1 1.758590 1_555
O14 Ti2 1.758590 1_555
O15 Ti3 1.758590 1_555
