# generated using pymatgen
data_CsAlCuF6
_symmetry_space_group_name_H-M   'P 1'
_cell_length_a   7.19280900
_cell_length_b   7.20399600
_cell_length_c   10.31484100
_cell_angle_alpha   90.00000000
_cell_angle_beta   90.00000000
_cell_angle_gamma   90.00000000
_symmetry_Int_Tables_number   1
_chemical_formula_structural   CsAlCuF6
_chemical_formula_sum   'Cs4 Al4 Cu4 F24'
_cell_volume   534.48377844
_cell_formula_units_Z   4
loop_
 _symmetry_equiv_pos_site_id
 _symmetry_equiv_pos_as_xyz
  1  'x, y, z'
loop_
 _atom_site_type_symbol
 _atom_site_label
 _atom_site_symmetry_multiplicity
 _atom_site_fract_x
 _atom_site_fract_y
 _atom_site_fract_z
 _atom_site_occupancy
  Cs  Cs0  1  0.48475500  0.25000000  0.12868700  1
  Cs  Cs1  1  0.98475500  0.25000000  0.37131300  1
  Cs  Cs2  1  0.51524500  0.75000000  0.87131300  1
  Cs  Cs3  1  0.01524500  0.75000000  0.62868700  1
  Al  Al0  1  0.00000000  0.00000000  0.00000000  1
  Al  Al1  1  0.50000000  0.50000000  0.50000000  1
  Al  Al2  1  0.00000000  0.50000000  0.00000000  1
  Al  Al3  1  0.50000000  0.00000000  0.50000000  1
  Cu  Cu0  1  0.27350900  0.25000000  0.75842200  1
  Cu  Cu1  1  0.77350900  0.25000000  0.74157800  1
  Cu  Cu2  1  0.72649100  0.75000000  0.24157800  1
  Cu  Cu3  1  0.22649100  0.75000000  0.25842200  1
  F  F0  1  0.02860100  0.25000000  0.67523000  1
  F  F1  1  0.52860100  0.25000000  0.82477000  1
  F  F2  1  0.97139900  0.75000000  0.32477000  1
  F  F3  1  0.47139900  0.75000000  0.17523000  1
  F  F4  1  0.47759200  0.25000000  0.45830500  1
  F  F5  1  0.97759200  0.25000000  0.04169500  1
  F  F6  1  0.52240800  0.75000000  0.54169500  1
  F  F7  1  0.02240800  0.75000000  0.95830500  1
  F  F8  1  0.15358300  0.97221900  0.13812100  1
  F  F9  1  0.65358300  0.52778100  0.36187900  1
  F  F10  1  0.84641700  0.47221900  0.86187900  1
  F  F11  1  0.34641700  0.02778100  0.63812100  1
  F  F12  1  0.84641700  0.02778100  0.86187900  1
  F  F13  1  0.34641700  0.47221900  0.63812100  1
  F  F14  1  0.15358300  0.52778100  0.13812100  1
  F  F15  1  0.65358300  0.97221900  0.36187900  1
  F  F16  1  0.20179700  0.04737900  0.89854600  1
  F  F17  1  0.70179700  0.45262100  0.60145400  1
  F  F18  1  0.79820300  0.54737900  0.10145400  1
  F  F19  1  0.29820300  0.95262100  0.39854600  1
  F  F20  1  0.79820300  0.95262100  0.10145400  1
  F  F21  1  0.29820300  0.54737900  0.39854600  1
  F  F22  1  0.20179700  0.45262100  0.89854600  1
  F  F23  1  0.70179700  0.04737900  0.60145400  1
loop_
_geom_bond_atom_site_label_1
_geom_bond_atom_site_label_2
_geom_bond_distance
_geom_bond_site_symmetry_2
Cs0 F14 3.112587 1_555
Cs0 F8 3.112587 1_545
Cs0 F18 3.122743 1_555
Cs0 F20 3.122743 1_545
Cs0 F1 3.150679 1_554
Cs1 F9 3.112587 1_555
Cs1 F15 3.112587 1_545
Cs1 F21 3.122743 1_655
Cs1 F19 3.122743 1_645
Cs1 F0 3.150679 1_655
Cs2 F12 3.112587 1_565
Cs2 F10 3.112587 1_555
Cs2 F22 3.122743 1_555
Cs2 F16 3.122743 1_565
Cs2 F3 3.150679 1_556
Cs3 F11 3.112587 1_565
Cs3 F13 3.112587 1_555
Cs3 F23 3.122743 1_465
Cs3 F17 3.122743 1_455
Cs3 F2 3.150679 1_455
Al0 F12 1.813880 1_454
Al0 F8 1.813880 1_545
Al0 F20 1.821658 1_445
Al0 F16 1.821658 1_554
Al0 F5 1.858640 1_455
Al0 F7 1.858640 1_544
Al1 F13 1.813880 1_555
Al1 F9 1.813880 1_555
Al1 F17 1.821658 1_555
Al1 F21 1.821658 1_555
Al1 F6 1.858640 1_555
Al1 F4 1.858640 1_555
Al2 F14 1.813880 1_555
Al2 F10 1.813880 1_454
Al2 F18 1.821658 1_455
Al2 F22 1.821658 1_554
Al2 F5 1.858640 1_455
Al2 F7 1.858640 1_554
Al3 F11 1.813880 1_555
Al3 F15 1.813880 1_545
Al3 F23 1.821658 1_555
Al3 F19 1.821658 1_545
Al3 F6 1.858640 1_545
Al3 F4 1.858640 1_555
Cu0 F1 1.958304 1_555
Cu0 F0 1.959466 1_555
Cu0 F11 2.092265 1_555
Cu0 F13 2.092265 1_555
Cu0 F22 2.117967 1_555
Cu0 F16 2.117967 1_555
Cu1 F0 1.958304 1_655
Cu1 F1 1.959466 1_555
Cu1 F10 2.092265 1_555
Cu1 F12 2.092265 1_555
Cu1 F23 2.117967 1_555
Cu1 F17 2.117967 1_555
Cu2 F3 1.958304 1_555
Cu2 F2 1.959466 1_555
Cu2 F15 2.092265 1_555
Cu2 F9 2.092265 1_555
Cu2 F20 2.117967 1_555
Cu2 F18 2.117967 1_555
Cu3 F2 1.958304 1_455
Cu3 F3 1.959466 1_555
Cu3 F8 2.092265 1_555
Cu3 F14 2.092265 1_555
Cu3 F19 2.117967 1_555
Cu3 F21 2.117967 1_555
