# generated using pymatgen
data_SrV4(AgO6)2
_symmetry_space_group_name_H-M   'P 1'
_cell_length_a   10.73786800
_cell_length_b   10.73786800
_cell_length_c   5.08656300
_cell_angle_alpha   90.00000000
_cell_angle_beta   90.00000000
_cell_angle_gamma   90.00000000
_symmetry_Int_Tables_number   1
_chemical_formula_structural   SrV4(AgO6)2
_chemical_formula_sum   'Sr2 V8 Ag4 O24'
_cell_volume   586.48991644
_cell_formula_units_Z   2
loop_
 _symmetry_equiv_pos_site_id
 _symmetry_equiv_pos_as_xyz
  1  'x, y, z'
loop_
 _atom_site_type_symbol
 _atom_site_label
 _atom_site_symmetry_multiplicity
 _atom_site_fract_x
 _atom_site_fract_y
 _atom_site_fract_z
 _atom_site_occupancy
  Sr  Sr0  1  0.00000000  0.00000000  0.50000000  1
  Sr  Sr1  1  0.50000000  0.50000000  0.50000000  1
  V  V0  1  0.50000000  0.21727400  0.00000000  1
  V  V1  1  0.21727400  0.50000000  0.00000000  1
  V  V2  1  0.00000000  0.28272600  0.00000000  1
  V  V3  1  0.71727400  0.00000000  0.00000000  1
  V  V4  1  0.50000000  0.78272600  0.00000000  1
  V  V5  1  0.00000000  0.71727400  0.00000000  1
  V  V6  1  0.78272600  0.50000000  0.00000000  1
  V  V7  1  0.28272600  0.00000000  0.00000000  1
  Ag  Ag0  1  0.75000000  0.75000000  0.50000000  1
  Ag  Ag1  1  0.75000000  0.25000000  0.50000000  1
  Ag  Ag2  1  0.25000000  0.25000000  0.50000000  1
  Ag  Ag3  1  0.25000000  0.75000000  0.50000000  1
  O  O0  1  0.43033600  0.30323500  0.23675100  1
  O  O1  1  0.69676500  0.43033600  0.23675100  1
  O  O2  1  0.19676500  0.06966400  0.23675100  1
  O  O3  1  0.06966400  0.19676500  0.76324900  1
  O  O4  1  0.38296400  0.88296400  0.15103000  1
  O  O5  1  0.93033600  0.19676500  0.23675100  1
  O  O6  1  0.11703600  0.38296400  0.15103000  1
  O  O7  1  0.61703600  0.88296400  0.84897000  1
  O  O8  1  0.30323500  0.56966400  0.23675100  1
  O  O9  1  0.88296400  0.38296400  0.84897000  1
  O  O10  1  0.93033600  0.80323500  0.76324900  1
  O  O11  1  0.80323500  0.93033600  0.23675100  1
  O  O12  1  0.06966400  0.80323500  0.23675100  1
  O  O13  1  0.56966400  0.30323500  0.76324900  1
  O  O14  1  0.30323500  0.43033600  0.76324900  1
  O  O15  1  0.61703600  0.11703600  0.15103000  1
  O  O16  1  0.11703600  0.61703600  0.84897000  1
  O  O17  1  0.43033600  0.69676500  0.76324900  1
  O  O18  1  0.80323500  0.06966400  0.76324900  1
  O  O19  1  0.19676500  0.93033600  0.76324900  1
  O  O20  1  0.88296400  0.61703600  0.15103000  1
  O  O21  1  0.38296400  0.11703600  0.84897000  1
  O  O22  1  0.56966400  0.69676500  0.23675100  1
  O  O23  1  0.69676500  0.56966400  0.76324900  1
loop_
_geom_bond_atom_site_label_1
_geom_bond_atom_site_label_2
_geom_bond_distance
_geom_bond_site_symmetry_2
Ag0 O23 2.422707 1_555
Ag0 O10 2.422707 1_555
Ag0 O11 2.422707 1_555
Ag0 O22 2.422707 1_555
Ag0 O7 2.688451 1_555
Ag0 O20 2.688451 1_555
Ag1 O1 2.422707 1_555
Ag1 O18 2.422707 1_555
Ag1 O13 2.422707 1_555
Ag1 O5 2.422707 1_555
Ag1 O15 2.688451 1_555
Ag1 O9 2.688451 1_555
Ag2 O14 2.422707 1_555
Ag2 O2 2.422707 1_555
Ag2 O0 2.422707 1_555
Ag2 O3 2.422707 1_555
Ag2 O21 2.688451 1_555
Ag2 O6 2.688451 1_555
Ag3 O12 2.422707 1_555
Ag3 O17 2.422707 1_555
Ag3 O19 2.422707 1_555
Ag3 O8 2.422707 1_555
Ag3 O4 2.688451 1_555
Ag3 O16 2.688451 1_555
O0 V0 1.691680 1_555
O0 Sr1 2.610872 1_555
O1 V6 1.691680 1_555
O1 Sr1 2.610872 1_555
O2 V7 1.691680 1_555
O2 Sr0 2.610872 1_555
O3 V2 1.691680 1_556
O3 Sr0 2.610872 1_555
O4 V4 1.824286 1_555
O4 V7 1.824286 1_565
O5 V2 1.691680 1_655
O5 Sr0 2.610872 1_655
O6 V1 1.824286 1_555
O6 V2 1.824286 1_555
O7 V3 1.824286 1_566
O7 V4 1.824286 1_556
O8 V1 1.691680 1_555
O8 Sr1 2.610872 1_555
O9 V6 1.824286 1_556
O9 V2 1.824286 1_656
O10 V5 1.691680 1_656
O10 Sr0 2.610872 1_665
O11 V3 1.691680 1_565
O11 Sr0 2.610872 1_665
O12 V5 1.691680 1_555
O12 Sr0 2.610872 1_565
O13 V0 1.691680 1_556
O13 Sr1 2.610872 1_555
O14 V1 1.691680 1_556
O14 Sr1 2.610872 1_555
O15 V3 1.824286 1_555
O15 V0 1.824286 1_555
O16 V5 1.824286 1_556
O16 V1 1.824286 1_556
O17 V4 1.691680 1_556
O17 Sr1 2.610872 1_555
O18 V3 1.691680 1_556
O18 Sr0 2.610872 1_655
O19 V7 1.691680 1_566
O19 Sr0 2.610872 1_565
O20 V6 1.824286 1_555
O20 V5 1.824286 1_655
O21 V0 1.824286 1_556
O21 V7 1.824286 1_556
O22 V4 1.691680 1_555
O22 Sr1 2.610872 1_555
O23 V6 1.691680 1_556
O23 Sr1 2.610872 1_555
