# generated using pymatgen
data_Sr(CrAs)2
_symmetry_space_group_name_H-M   'P 1'
_cell_length_a   4.10426400
_cell_length_b   4.10426400
_cell_length_c   6.78295125
_cell_angle_alpha   107.61038436
_cell_angle_beta   107.61038436
_cell_angle_gamma   90.00000000
_symmetry_Int_Tables_number   1
_chemical_formula_structural   Sr(CrAs)2
_chemical_formula_sum   'Sr1 Cr2 As2'
_cell_volume   103.27216043
_cell_formula_units_Z   1
loop_
 _symmetry_equiv_pos_site_id
 _symmetry_equiv_pos_as_xyz
  1  'x, y, z'
loop_
 _atom_site_type_symbol
 _atom_site_label
 _atom_site_symmetry_multiplicity
 _atom_site_fract_x
 _atom_site_fract_y
 _atom_site_fract_z
 _atom_site_occupancy
  Sr  Sr0  1  0.00000000  0.00000000  0.00000000  1
  Cr  Cr0  1  0.25000000  0.75000000  0.50000000  1
  Cr  Cr1  1  0.75000000  0.25000000  0.50000000  1
  As  As0  1  0.35844700  0.35844700  0.71689400  1
  As  As1  1  0.64155300  0.64155300  0.28310600  1
loop_
_geom_bond_atom_site_label_1
_geom_bond_atom_site_label_2
_geom_bond_distance
_geom_bond_site_symmetry_2
As0 Cr0 2.445281 1_545
As0 Cr1 2.445281 1_455
As0 Cr1 2.445281 1_555
As0 Cr0 2.445281 1_555
As0 Sr0 3.381563 1_656
As0 Sr0 3.381563 1_666
As0 Sr0 3.381563 1_556
As0 Sr0 3.381563 1_566
As1 Cr0 2.445281 1_655
As1 Cr1 2.445281 1_565
As1 Cr1 2.445281 1_555
As1 Cr0 2.445281 1_555
As1 Sr0 3.381563 1_665
As1 Sr0 3.381563 1_655
As1 Sr0 3.381563 1_565
As1 Sr0 3.381563 1_555
