# generated using pymatgen
data_KP2Au5S8
_symmetry_space_group_name_H-M   'P 1'
_cell_length_a   14.00171700
_cell_length_b   10.34632500
_cell_length_c   12.53122660
_cell_angle_alpha   74.39113794
_cell_angle_beta   90.00000000
_cell_angle_gamma   90.00000000
_symmetry_Int_Tables_number   1
_chemical_formula_structural   KP2Au5S8
_chemical_formula_sum   'K4 P8 Au20 S32'
_cell_volume   1748.40415476
_cell_formula_units_Z   4
loop_
 _symmetry_equiv_pos_site_id
 _symmetry_equiv_pos_as_xyz
  1  'x, y, z'
loop_
 _atom_site_type_symbol
 _atom_site_label
 _atom_site_symmetry_multiplicity
 _atom_site_fract_x
 _atom_site_fract_y
 _atom_site_fract_z
 _atom_site_occupancy
  K  K0  1  0.24751900  0.30561100  0.33137300  1
  K  K1  1  0.74751900  0.69438900  0.16862700  1
  K  K2  1  0.75248100  0.69438900  0.66862700  1
  K  K3  1  0.25248100  0.30561100  0.83137300  1
  P  P0  1  0.18424200  0.05542500  0.11699700  1
  P  P1  1  0.81575800  0.94457500  0.88300300  1
  P  P2  1  0.05721700  0.59534800  0.70579800  1
  P  P3  1  0.68424200  0.94457500  0.38300300  1
  P  P4  1  0.55721700  0.40465200  0.79420200  1
  P  P5  1  0.44278300  0.59534800  0.20579800  1
  P  P6  1  0.94278300  0.40465200  0.29420200  1
  P  P7  1  0.31575800  0.05542500  0.61699700  1
  Au  Au0  1  0.45577100  0.88625200  0.45167400  1
  Au  Au1  1  0.54422900  0.11374800  0.54832600  1
  Au  Au2  1  0.73727600  0.23325000  0.95943000  1
  Au  Au3  1  0.25527100  0.75703200  0.29766100  1
  Au  Au4  1  0.76272400  0.23325000  0.45943000  1
  Au  Au5  1  0.91082300  0.06051400  0.36011700  1
  Au  Au6  1  0.09501400  0.55882400  0.43067000  1
  Au  Au7  1  0.40498600  0.55882400  0.93067000  1
  Au  Au8  1  0.74472900  0.24296800  0.70233900  1
  Au  Au9  1  0.95577100  0.11374800  0.04832600  1
  Au  Au10  1  0.90498600  0.44117600  0.56933000  1
  Au  Au11  1  0.26272400  0.76675000  0.04057000  1
  Au  Au12  1  0.23727600  0.76675000  0.54057000  1
  Au  Au13  1  0.08917700  0.93948600  0.63988300  1
  Au  Au14  1  0.04422900  0.88625200  0.95167400  1
  Au  Au15  1  0.59501400  0.44117600  0.06933000  1
  Au  Au16  1  0.75527100  0.24296800  0.20233900  1
  Au  Au17  1  0.24472900  0.75703200  0.79766100  1
  Au  Au18  1  0.41082300  0.93948600  0.13988300  1
  Au  Au19  1  0.58917700  0.06051400  0.86011700  1
  S  S0  1  0.69238100  0.02220700  0.52711900  1
  S  S1  1  0.90197900  0.77910700  0.92904500  1
  S  S2  1  0.62663700  0.41105300  0.64863000  1
  S  S3  1  0.86742400  0.08149900  0.74625200  1
  S  S4  1  0.46674600  0.56638200  0.75664200  1
  S  S5  1  0.87336300  0.41105300  0.14863000  1
  S  S6  1  0.98542400  0.76721000  0.62844500  1
  S  S7  1  0.48542400  0.23279000  0.87155500  1
  S  S8  1  0.66825600  0.44656700  0.90106500  1
  S  S9  1  0.03325400  0.56638200  0.25664200  1
  S  S10  1  0.37336300  0.58894700  0.35137000  1
  S  S11  1  0.59802100  0.77910700  0.42904500  1
  S  S12  1  0.09802100  0.22089300  0.07095500  1
  S  S13  1  0.63257600  0.08149900  0.24625200  1
  S  S14  1  0.83174400  0.44656700  0.40106500  1
  S  S15  1  0.01457600  0.23279000  0.37155500  1
  S  S16  1  0.31845600  0.13113300  0.13017200  1
  S  S17  1  0.33174400  0.55343300  0.09893500  1
  S  S18  1  0.18154400  0.13113300  0.63017200  1
  S  S19  1  0.16825600  0.55343300  0.59893500  1
  S  S20  1  0.53325400  0.43361800  0.24335800  1
  S  S21  1  0.36742400  0.91850100  0.75374800  1
  S  S22  1  0.13257600  0.91850100  0.25374800  1
  S  S23  1  0.30761900  0.97779300  0.47288100  1
  S  S24  1  0.12663700  0.58894700  0.85137000  1
  S  S25  1  0.80761900  0.02220700  0.02711900  1
  S  S26  1  0.81845600  0.86886700  0.36982800  1
  S  S27  1  0.40197900  0.22089300  0.57095500  1
  S  S28  1  0.19238100  0.97779300  0.97288100  1
  S  S29  1  0.51457600  0.76721000  0.12844500  1
  S  S30  1  0.68154400  0.86886700  0.86982800  1
  S  S31  1  0.96674600  0.43361800  0.74335800  1
loop_
_geom_bond_atom_site_label_1
_geom_bond_atom_site_label_2
_geom_bond_distance
_geom_bond_site_symmetry_2
K0 S15 3.354861 1_555
K0 S23 3.481341 1_545
K0 S10 3.486614 1_555
K0 S17 3.525630 1_555
K0 S27 3.611509 1_555
K0 S16 3.612691 1_555
K0 S18 3.807179 1_555
K1 S29 3.354861 1_555
K1 S25 3.481341 1_565
K1 S5 3.486614 1_555
K1 S14 3.525630 1_555
K1 S1 3.611509 1_554
K1 S26 3.612691 1_555
K1 S30 3.807179 1_554
K2 S6 3.354861 1_555
K2 S0 3.481341 1_565
K2 S2 3.486614 1_555
K2 S8 3.525630 1_555
K2 S11 3.611509 1_555
K2 S30 3.612691 1_555
K2 S26 3.807179 1_555
K3 S7 3.354861 1_555
K3 S28 3.481341 1_545
K3 S24 3.486614 1_555
K3 S19 3.525630 1_555
K3 S12 3.611509 1_556
K3 S18 3.612691 1_555
K3 S16 3.807179 1_556
P0 S22 2.039719 1_545
P0 S12 2.046868 1_555
P0 S16 2.059588 1_555
P0 S28 2.167989 1_544
P1 S3 2.039719 1_565
P1 S1 2.046868 1_555
P1 S30 2.059588 1_555
P1 S25 2.167989 1_566
P2 S6 2.045562 1_455
P2 S31 2.049958 1_455
P2 S24 2.052278 1_555
P2 S19 2.170493 1_555
P3 S13 2.039719 1_565
P3 S11 2.046868 1_555
P3 S26 2.059588 1_555
P3 S0 2.167989 1_565
P4 S7 2.045562 1_555
P4 S4 2.049958 1_555
P4 S2 2.052278 1_555
P4 S8 2.170493 1_555
P5 S29 2.045562 1_555
P5 S20 2.049958 1_555
P5 S10 2.052278 1_555
P5 S17 2.170493 1_555
P6 S15 2.045562 1_655
P6 S9 2.049958 1_655
P6 S5 2.052278 1_555
P6 S14 2.170493 1_555
P7 S21 2.039719 1_545
P7 S27 2.046868 1_555
P7 S18 2.059588 1_555
P7 S23 2.167989 1_545
Au0 S23 2.325114 1_555
Au0 S11 2.333564 1_555
Au1 S0 2.325114 1_555
Au1 S27 2.333564 1_555
Au2 S25 2.336798 1_556
Au2 S8 2.339069 1_555
Au3 S22 2.355920 1_555
Au3 S10 2.362516 1_555
Au3 Au6 3.190478 1_555
Au4 S0 2.336798 1_555
Au4 S14 2.339069 1_555
Au5 S15 2.333550 1_655
Au5 S26 2.342912 1_545
Au6 S9 2.327649 1_555
Au6 S19 2.331856 1_555
Au6 K0 3.837408 1_555
Au7 S4 2.327649 1_555
Au7 S17 2.331856 1_556
Au7 K3 3.837408 1_555
Au8 S3 2.355920 1_555
Au8 S2 2.362516 1_555
Au9 S25 2.325114 1_555
Au9 S12 2.333564 1_655
Au10 S31 2.327649 1_555
Au10 S14 2.331856 1_555
Au10 Au8 3.190478 1_555
Au10 Au6 3.231419 1_655
Au10 K2 3.837408 1_555
Au11 S28 2.336798 1_554
Au11 S17 2.339069 1_555
Au12 S23 2.336798 1_555
Au12 S19 2.339069 1_555
Au13 S6 2.333550 1_455
Au13 S18 2.342912 1_565
Au14 S28 2.325114 1_555
Au14 S1 2.333564 1_455
Au15 S20 2.327649 1_555
Au15 S8 2.331856 1_554
Au15 Au16 3.190478 1_555
Au15 Au7 3.231419 1_554
Au15 K1 3.837408 1_555
Au16 S13 2.355920 1_555
Au16 S5 2.362516 1_555
Au17 S21 2.355920 1_555
Au17 S24 2.362516 1_555
Au17 Au7 3.190478 1_555
Au18 S29 2.333550 1_555
Au18 S16 2.342912 1_565
Au19 S7 2.333550 1_555
Au19 S30 2.342912 1_545
