# generated using pymatgen
data_Co2(SnSe)3
_symmetry_space_group_name_H-M   'P 1'
_cell_length_a   8.72582154
_cell_length_b   8.72582154
_cell_length_c   8.72582075
_cell_angle_alpha   90.11474705
_cell_angle_beta   90.11474705
_cell_angle_gamma   90.11474544
_symmetry_Int_Tables_number   1
_chemical_formula_structural   Co2(SnSe)3
_chemical_formula_sum   'Co8 Sn12 Se12'
_cell_volume   664.37965381
_cell_formula_units_Z   4
loop_
 _symmetry_equiv_pos_site_id
 _symmetry_equiv_pos_as_xyz
  1  'x, y, z'
loop_
 _atom_site_type_symbol
 _atom_site_label
 _atom_site_symmetry_multiplicity
 _atom_site_fract_x
 _atom_site_fract_y
 _atom_site_fract_z
 _atom_site_occupancy
  Co  Co0  1  0.25883961  0.76131272  0.75504439  1
  Co  Co1  1  0.24495561  0.74116039  0.23868728  1
  Co  Co2  1  0.76131272  0.75504439  0.25883961  1
  Co  Co3  1  0.23868728  0.24495561  0.74116039  1
  Co  Co4  1  0.25730390  0.25730390  0.25730390  1
  Co  Co5  1  0.74269610  0.74269610  0.74269610  1
  Co  Co6  1  0.75504439  0.25883961  0.76131272  1
  Co  Co7  1  0.74116039  0.23868728  0.24495561  1
  Sn  Sn0  1  0.67265718  0.84386167  0.00145444  1
  Sn  Sn1  1  0.50013991  0.82792803  0.34356938  1
  Sn  Sn2  1  0.32734282  0.15613833  0.99854556  1
  Sn  Sn3  1  0.17207197  0.65643062  0.49986009  1
  Sn  Sn4  1  0.00145444  0.67265718  0.84386167  1
  Sn  Sn5  1  0.99854556  0.32734282  0.15613833  1
  Sn  Sn6  1  0.82792803  0.34356938  0.50013991  1
  Sn  Sn7  1  0.49986009  0.17207197  0.65643062  1
  Sn  Sn8  1  0.34356938  0.50013991  0.82792803  1
  Sn  Sn9  1  0.15613833  0.99854556  0.32734282  1
  Sn  Sn10  1  0.65643062  0.49986009  0.17207197  1
  Sn  Sn11  1  0.84386167  0.00145444  0.67265718  1
  Se  Se0  1  0.99872696  0.65965440  0.15470207  1
  Se  Se1  1  0.34034560  0.84529793  0.00127304  1
  Se  Se2  1  0.15470207  0.99872696  0.65965440  1
  Se  Se3  1  0.34555440  0.49693669  0.15940771  1
  Se  Se4  1  0.49693669  0.15940771  0.34555440  1
  Se  Se5  1  0.50306331  0.84059229  0.65444560  1
  Se  Se6  1  0.65444560  0.50306331  0.84059229  1
  Se  Se7  1  0.84059229  0.65444560  0.50306331  1
  Se  Se8  1  0.00127304  0.34034560  0.84529793  1
  Se  Se9  1  0.65965440  0.15470207  0.99872696  1
  Se  Se10  1  0.15940771  0.34555440  0.49693669  1
  Se  Se11  1  0.84529793  0.00127304  0.34034560  1
loop_
_geom_bond_atom_site_label_1
_geom_bond_atom_site_label_2
_geom_bond_distance
_geom_bond_site_symmetry_2
Co0 Se1 2.375839 1_556
Co0 Se5 2.407179 1_555
Co0 Se2 2.412802 1_555
Co0 Sn8 2.480997 1_555
Co0 Sn4 2.499109 1_555
Co0 Sn3 2.520170 1_555
Co1 Se0 2.375839 1_455
Co1 Se3 2.407179 1_555
Co1 Se1 2.412802 1_555
Co1 Sn3 2.480997 1_555
Co1 Sn9 2.499109 1_555
Co1 Sn1 2.520170 1_555
Co2 Se11 2.375839 1_565
Co2 Se7 2.407178 1_555
Co2 Se0 2.412802 1_555
Co2 Sn1 2.480997 1_555
Co2 Sn0 2.499108 1_555
Co2 Sn10 2.520170 1_555
Co3 Se2 2.375839 1_545
Co3 Se10 2.407178 1_555
Co3 Se8 2.412802 1_555
Co3 Sn7 2.480997 1_555
Co3 Sn2 2.499108 1_555
Co3 Sn8 2.520170 1_555
Co4 Se10 2.387107 1_555
Co4 Se4 2.387107 1_555
Co4 Se3 2.387107 1_555
Co4 Sn2 2.500095 1_554
Co4 Sn5 2.500095 1_455
Co4 Sn9 2.500095 1_545
Co5 Se7 2.387107 1_555
Co5 Se5 2.387107 1_555
Co5 Se6 2.387107 1_555
Co5 Sn0 2.500095 1_556
Co5 Sn4 2.500095 1_655
Co5 Sn11 2.500095 1_565
Co6 Se8 2.375839 1_655
Co6 Se6 2.407179 1_555
Co6 Se9 2.412802 1_555
Co6 Sn6 2.480997 1_555
Co6 Sn11 2.499109 1_555
Co6 Sn7 2.520170 1_555
Co7 Se9 2.375839 1_554
Co7 Se4 2.407179 1_555
Co7 Se11 2.412802 1_555
Co7 Sn10 2.480997 1_555
Co7 Sn5 2.499109 1_555
Co7 Sn6 2.520170 1_555
Se0 Sn4 2.715087 1_654
Se0 Sn5 2.899741 1_555
Se1 Sn2 2.715087 1_564
Se1 Sn0 2.899741 1_555
Se2 Sn11 2.715087 1_465
Se2 Sn9 2.899741 1_555
Se3 Sn10 2.714746 1_555
Se3 Sn8 2.892641 1_554
Se4 Sn7 2.714746 1_555
Se4 Sn1 2.892641 1_545
Se5 Sn1 2.714746 1_555
Se5 Sn7 2.892641 1_565
Se6 Sn8 2.714746 1_555
Se6 Sn10 2.892641 1_556
Se7 Sn6 2.714746 1_555
Se7 Sn3 2.892641 1_655
Se8 Sn5 2.715087 1_456
Se8 Sn4 2.899741 1_555
Se9 Sn0 2.715087 1_546
Se9 Sn2 2.899741 1_555
Se10 Sn3 2.714746 1_555
Se10 Sn6 2.892641 1_455
Se11 Sn9 2.715087 1_645
Se11 Sn11 2.899741 1_555
