# generated using pymatgen
data_Tl4Cu4(P2O7)3
_symmetry_space_group_name_H-M   'P 1'
_cell_length_a   9.77019215
_cell_length_b   10.78343058
_cell_length_c   20.48049907
_cell_angle_alpha   90.00000000
_cell_angle_beta   90.00000000
_cell_angle_gamma   90.00000000
_symmetry_Int_Tables_number   1
_chemical_formula_structural   Tl4Cu4(P2O7)3
_chemical_formula_sum   'Tl16 Cu16 P24 O84'
_cell_volume   2157.74732679
_cell_formula_units_Z   4
loop_
 _symmetry_equiv_pos_site_id
 _symmetry_equiv_pos_as_xyz
  1  'x, y, z'
loop_
 _atom_site_type_symbol
 _atom_site_label
 _atom_site_symmetry_multiplicity
 _atom_site_fract_x
 _atom_site_fract_y
 _atom_site_fract_z
 _atom_site_occupancy
  Tl  Tl0  1  0.33564701  0.74172688  0.60434344  1
  Tl  Tl1  1  0.83564701  0.25827312  0.60434344  1
  Tl  Tl2  1  0.25000000  0.60674872  0.00000000  1
  Tl  Tl3  1  0.33564701  0.25827312  0.89565656  1
  Tl  Tl4  1  0.66435299  0.74172688  0.10434344  1
  Tl  Tl5  1  0.66435299  0.25827312  0.39565656  1
  Tl  Tl6  1  0.16435299  0.74172688  0.39565656  1
  Tl  Tl7  1  0.16435299  0.25827312  0.10434344  1
  Tl  Tl8  1  0.32908534  0.00000000  0.25000000  1
  Tl  Tl9  1  0.67091466  0.00000000  0.75000000  1
  Tl  Tl10  1  0.75000000  0.39325128  0.00000000  1
  Tl  Tl11  1  0.75000000  0.60674872  0.50000000  1
  Tl  Tl12  1  0.82908534  0.00000000  0.25000000  1
  Tl  Tl13  1  0.17091466  0.00000000  0.75000000  1
  Tl  Tl14  1  0.83564701  0.74172688  0.89565656  1
  Tl  Tl15  1  0.25000000  0.39325128  0.50000000  1
  Cu  Cu0  1  0.97571710  0.15700437  0.91510473  1
  Cu  Cu1  1  0.18580174  0.34752283  0.67274237  1
  Cu  Cu2  1  0.52428290  0.15700437  0.08489527  1
  Cu  Cu3  1  0.47571710  0.84299563  0.91510473  1
  Cu  Cu4  1  0.02428290  0.15700437  0.41510473  1
  Cu  Cu5  1  0.31419826  0.34752283  0.32725763  1
  Cu  Cu6  1  0.97571710  0.84299563  0.58489527  1
  Cu  Cu7  1  0.81419826  0.65247717  0.32725763  1
  Cu  Cu8  1  0.68580174  0.65247717  0.67274237  1
  Cu  Cu9  1  0.52428290  0.84299563  0.41510473  1
  Cu  Cu10  1  0.02428290  0.84299563  0.08489527  1
  Cu  Cu11  1  0.31419826  0.65247717  0.17274237  1
  Cu  Cu12  1  0.47571710  0.15700437  0.58489527  1
  Cu  Cu13  1  0.68580174  0.34752283  0.82725763  1
  Cu  Cu14  1  0.81419826  0.34752283  0.17274237  1
  Cu  Cu15  1  0.18580174  0.65247717  0.82725763  1
  P  P0  1  0.47823193  0.55877651  0.87129823  1
  P  P1  1  0.84893804  0.91157886  0.44878724  1
  P  P2  1  0.02176807  0.44122349  0.37129823  1
  P  P3  1  0.15106196  0.08842114  0.55121276  1
  P  P4  1  0.95997215  0.26313249  0.77012920  1
  P  P5  1  0.45997215  0.73686751  0.77012920  1
  P  P6  1  0.52176807  0.44122349  0.12870177  1
  P  P7  1  0.02176807  0.55877651  0.12870177  1
  P  P8  1  0.54002785  0.73686751  0.27012920  1
  P  P9  1  0.47823193  0.44122349  0.62870177  1
  P  P10  1  0.34893804  0.91157886  0.05121276  1
  P  P11  1  0.04002785  0.73686751  0.22987080  1
  P  P12  1  0.97823193  0.44122349  0.87129823  1
  P  P13  1  0.84893804  0.08842114  0.05121276  1
  P  P14  1  0.45997215  0.26313249  0.72987080  1
  P  P15  1  0.15106196  0.91157886  0.94878724  1
  P  P16  1  0.54002785  0.26313249  0.22987080  1
  P  P17  1  0.65106196  0.08842114  0.94878724  1
  P  P18  1  0.95997215  0.73686751  0.72987080  1
  P  P19  1  0.65106196  0.91157886  0.55121276  1
  P  P20  1  0.52176807  0.55877651  0.37129823  1
  P  P21  1  0.97823193  0.55877651  0.62870177  1
  P  P22  1  0.34893804  0.08842114  0.44878724  1
  P  P23  1  0.04002785  0.26313249  0.27012920  1
  O  O0  1  0.95276472  0.43253630  0.11834849  1
  O  O1  1  0.46359882  0.84895384  0.01081312  1
  O  O2  1  0.59634504  0.98919235  0.90231290  1
  O  O3  1  0.52813254  0.38893120  0.69974550  1
  O  O4  1  0.97939136  0.65416208  0.07727158  1
  O  O5  1  0.47186746  0.38893120  0.19974550  1
  O  O6  1  0.03514026  0.23946118  0.70537006  1
  O  O7  1  0.96485974  0.23946118  0.20537006  1
  O  O8  1  0.25000000  0.98648461  0.00000000  1
  O  O9  1  0.47939136  0.65416208  0.42272842  1
  O  O10  1  0.46359882  0.15104616  0.48918688  1
  O  O11  1  0.97939136  0.34583792  0.42272842  1
  O  O12  1  0.97186746  0.38893120  0.30025450  1
  O  O13  1  0.01369833  0.84298047  0.18163704  1
  O  O14  1  0.25750709  0.81675819  0.08629033  1
  O  O15  1  0.40365496  0.98919235  0.40231290  1
  O  O16  1  0.96359882  0.84895384  0.48918688  1
  O  O17  1  0.03640118  0.84895384  0.98918688  1
  O  O18  1  0.19284735  0.71249658  0.24225609  1
  O  O19  1  0.98630167  0.15701953  0.81836296  1
  O  O20  1  0.53640118  0.84895384  0.51081312  1
  O  O21  1  0.01369833  0.15701953  0.31836296  1
  O  O22  1  0.25000000  0.01351539  0.50000000  1
  O  O23  1  0.51369833  0.84298047  0.31836296  1
  O  O24  1  0.80715265  0.71249658  0.74225609  1
  O  O25  1  0.17807376  0.53938030  0.13389864  1
  O  O26  1  0.97186746  0.61106880  0.19974550  1
  O  O27  1  0.51369833  0.15701953  0.18163704  1
  O  O28  1  0.03514026  0.76053882  0.79462994  1
  O  O29  1  0.32192624  0.46061970  0.63389864  1
  O  O30  1  0.52060864  0.65416208  0.92272842  1
  O  O31  1  0.19284735  0.28750342  0.25774391  1
  O  O32  1  0.80715265  0.28750342  0.75774391  1
  O  O33  1  0.96359882  0.15104616  0.01081312  1
  O  O34  1  0.54723528  0.56746370  0.61834849  1
  O  O35  1  0.75750709  0.81675819  0.41370967  1
  O  O36  1  0.96485974  0.76053882  0.29462994  1
  O  O37  1  0.02813254  0.38893120  0.80025450  1
  O  O38  1  0.69284735  0.28750342  0.24225609  1
  O  O39  1  0.52060864  0.34583792  0.57727158  1
  O  O40  1  0.04723528  0.56746370  0.88165151  1
  O  O41  1  0.53514026  0.23946118  0.79462994  1
  O  O42  1  0.53514026  0.76053882  0.70537006  1
  O  O43  1  0.24249291  0.81675819  0.91370967  1
  O  O44  1  0.32192624  0.53938030  0.86610136  1
  O  O45  1  0.53640118  0.15104616  0.98918688  1
  O  O46  1  0.48630167  0.84298047  0.81836296  1
  O  O47  1  0.30715265  0.71249658  0.75774391  1
  O  O48  1  0.09634504  0.98919235  0.59768710  1
  O  O49  1  0.90365496  0.98919235  0.09768710  1
  O  O50  1  0.90365496  0.01080765  0.40231290  1
  O  O51  1  0.17807376  0.46061970  0.36610136  1
  O  O52  1  0.04723528  0.43253630  0.61834849  1
  O  O53  1  0.46485974  0.23946118  0.29462994  1
  O  O54  1  0.48630167  0.15701953  0.68163704  1
  O  O55  1  0.74249291  0.18324181  0.91370967  1
  O  O56  1  0.67807376  0.53938030  0.36610136  1
  O  O57  1  0.40365496  0.01080765  0.09768710  1
  O  O58  1  0.67807376  0.46061970  0.13389864  1
  O  O59  1  0.69284735  0.71249658  0.25774391  1
  O  O60  1  0.59634504  0.01080765  0.59768710  1
  O  O61  1  0.09634504  0.01080765  0.90231290  1
  O  O62  1  0.02060864  0.65416208  0.57727158  1
  O  O63  1  0.45276472  0.43253630  0.38165151  1
  O  O64  1  0.95276472  0.56746370  0.38165151  1
  O  O65  1  0.98630167  0.84298047  0.68163704  1
  O  O66  1  0.52813254  0.61106880  0.80025450  1
  O  O67  1  0.75000000  0.98648461  0.50000000  1
  O  O68  1  0.75750709  0.18324181  0.08629033  1
  O  O69  1  0.47186746  0.61106880  0.30025450  1
  O  O70  1  0.54723528  0.43253630  0.88165151  1
  O  O71  1  0.46485974  0.76053882  0.20537006  1
  O  O72  1  0.75000000  0.01351539  0.00000000  1
  O  O73  1  0.03640118  0.15104616  0.51081312  1
  O  O74  1  0.74249291  0.81675819  0.58629033  1
  O  O75  1  0.02813254  0.61106880  0.69974550  1
  O  O76  1  0.82192624  0.53938030  0.63389864  1
  O  O77  1  0.45276472  0.56746370  0.11834849  1
  O  O78  1  0.82192624  0.46061970  0.86610136  1
  O  O79  1  0.02060864  0.34583792  0.92272842  1
  O  O80  1  0.25750709  0.18324181  0.41370967  1
  O  O81  1  0.47939136  0.34583792  0.07727158  1
  O  O82  1  0.30715265  0.28750342  0.74225609  1
  O  O83  1  0.24249291  0.18324181  0.58629033  1
loop_
_geom_bond_atom_site_label_1
_geom_bond_atom_site_label_2
_geom_bond_distance
_geom_bond_site_symmetry_2
Cu0 O33 1.964779 1_556
Cu0 O19 1.984017 1_555
Cu0 O61 1.985697 1_655
Cu0 O79 2.088817 1_655
Cu0 O55 2.296321 1_555
Cu1 O82 1.962508 1_555
Cu1 O29 1.972065 1_555
Cu1 O52 1.978450 1_555
Cu1 O6 1.992777 1_555
Cu1 O83 2.565151 1_555
Cu2 O45 1.964779 1_554
Cu2 O27 1.984017 1_555
Cu2 O57 1.985697 1_555
Cu2 O81 2.088817 1_555
Cu2 O68 2.296321 1_555
Cu3 O1 1.964779 1_556
Cu3 O46 1.984017 1_555
Cu3 O2 1.985697 1_555
Cu3 O30 2.088817 1_555
Cu3 O43 2.296321 1_555
Cu4 O73 1.964779 1_555
Cu4 O21 1.984017 1_555
Cu4 O50 1.985697 1_455
Cu4 O11 2.088817 1_455
Cu4 O80 2.296321 1_555
Cu5 O31 1.962508 1_555
Cu5 O51 1.972065 1_555
Cu5 O63 1.978450 1_555
Cu5 O53 1.992777 1_555
Cu5 O80 2.565151 1_555
Cu6 O16 1.964779 1_555
Cu6 O65 1.984017 1_555
Cu6 O48 1.985697 1_655
Cu6 O62 2.088817 1_655
Cu6 O74 2.296321 1_555
Cu7 O59 1.962508 1_555
Cu7 O56 1.972065 1_555
Cu7 O64 1.978450 1_555
Cu7 O36 1.992777 1_555
Cu7 O35 2.565151 1_555
Cu8 O24 1.962508 1_555
Cu8 O76 1.972065 1_555
Cu8 O34 1.978450 1_555
Cu8 O42 1.992777 1_555
Cu8 O74 2.565151 1_555
Cu9 O20 1.964779 1_555
Cu9 O23 1.984017 1_555
Cu9 O15 1.985697 1_555
Cu9 O9 2.088817 1_555
Cu9 O35 2.296321 1_555
Cu10 O17 1.964779 1_554
Cu10 O13 1.984017 1_555
Cu10 O49 1.985697 1_455
Cu10 O4 2.088817 1_455
Cu10 O14 2.296321 1_555
Cu11 O18 1.962508 1_555
Cu11 O25 1.972065 1_555
Cu11 O77 1.978450 1_555
Cu11 O71 1.992777 1_555
Cu11 O14 2.565151 1_555
Cu12 O10 1.964779 1_555
Cu12 O54 1.984017 1_555
Cu12 O60 1.985697 1_555
Cu12 O39 2.088817 1_555
Cu12 O83 2.296321 1_555
Cu13 O32 1.962508 1_555
Cu13 O78 1.972065 1_555
Cu13 O70 1.978450 1_555
Cu13 O41 1.992777 1_555
Cu13 O55 2.565151 1_555
Cu14 O38 1.962508 1_555
Cu14 O58 1.972065 1_555
Cu14 O0 1.978450 1_555
Cu14 O7 1.992777 1_555
Cu14 O68 2.565151 1_555
Cu15 O47 1.962508 1_555
Cu15 O44 1.972065 1_555
Cu15 O40 1.978450 1_555
Cu15 O28 1.992777 1_555
Cu15 O43 2.565151 1_555
O0 P7 1.533825 1_655
O0 Tl7 2.808389 1_655
O1 P10 1.547780 1_555
O2 P17 1.528629 1_565
O3 P14 1.632283 1_555
O3 P9 1.634847 1_555
O4 P7 1.529339 1_655
O5 P16 1.632283 1_555
O5 P6 1.634847 1_555
O6 P4 1.537394 1_455
O6 Tl1 2.849766 1_455
O7 P23 1.537394 1_655
O7 Tl7 2.849766 1_655
O8 P15 1.639195 1_554
O8 P10 1.639195 1_555
O9 P20 1.529339 1_555
O10 P22 1.547780 1_555
O11 P2 1.529339 1_655
O12 P23 1.632283 1_655
O12 P2 1.634847 1_655
O13 P11 1.533415 1_555
O13 Tl12 2.842641 1_465
O14 P10 1.536092 1_555
O15 P22 1.528629 1_565
O16 P1 1.547780 1_555
O17 P15 1.547780 1_555
O18 P11 1.537102 1_555
O19 P4 1.533415 1_555
O19 Tl13 2.842641 1_655
O20 P19 1.547780 1_555
O21 P23 1.533415 1_555
O21 Tl12 2.842641 1_455
O22 P3 1.639195 1_555
O22 P22 1.639195 1_555
O23 P8 1.533415 1_555
O23 Tl8 2.842641 1_565
O24 P18 1.537102 1_555
O25 P7 1.545064 1_555
O26 P11 1.632283 1_655
O26 P7 1.634847 1_655
O27 P16 1.533415 1_555
O27 Tl8 2.842641 1_555
O28 P18 1.537394 1_455
O28 Tl14 2.849766 1_455
O29 P9 1.545064 1_555
O30 P0 1.529339 1_555
O31 P23 1.537102 1_555
O32 P4 1.537102 1_555
O33 P13 1.547780 1_555
O34 P9 1.533825 1_555
O34 Tl0 2.808389 1_555
O35 P1 1.536092 1_555
O36 P11 1.537394 1_655
O36 Tl6 2.849766 1_655
O37 P4 1.632283 1_455
O37 P12 1.634847 1_455
O38 P16 1.537102 1_555
O39 P9 1.529339 1_555
O40 P12 1.533825 1_455
O40 Tl14 2.808389 1_455
O41 P14 1.537394 1_555
O41 Tl3 2.849766 1_555
O42 P5 1.537394 1_555
O42 Tl0 2.849766 1_555
O43 P15 1.536092 1_555
O44 P0 1.545064 1_555
O45 P17 1.547780 1_555
O46 P5 1.533415 1_555
O46 Tl9 2.842641 1_565
O47 P5 1.537102 1_555
O48 P3 1.528629 1_565
O49 P13 1.528629 1_565
O50 P1 1.528629 1_545
O51 P2 1.545064 1_555
O52 P21 1.533825 1_455
O52 Tl1 2.808389 1_455
O53 P16 1.537394 1_555
O53 Tl5 2.849766 1_555
O54 P14 1.533415 1_555
O54 Tl9 2.842641 1_555
O55 P17 1.536092 1_555
O56 P20 1.545064 1_555
O57 P10 1.528629 1_545
O58 P6 1.545064 1_555
O59 P8 1.537102 1_555
O60 P19 1.528629 1_545
O61 P15 1.528629 1_545
O62 P21 1.529339 1_455
O63 P20 1.533825 1_555
O63 Tl5 2.808389 1_555
O64 P2 1.533825 1_655
O64 Tl6 2.808389 1_655
O65 P18 1.533415 1_555
O65 Tl13 2.842641 1_665
O66 P5 1.632283 1_555
O66 P0 1.634847 1_555
O67 P19 1.639195 1_555
O67 P1 1.639195 1_555
O68 P13 1.536092 1_555
O69 P8 1.632283 1_555
O69 P20 1.634847 1_555
O70 P0 1.533825 1_555
O70 Tl3 2.808389 1_555
O71 P8 1.537394 1_555
O71 Tl4 2.849766 1_555
O72 P17 1.639195 1_554
O72 P13 1.639195 1_555
O73 P3 1.547780 1_555
O74 P19 1.536092 1_555
O75 P18 1.632283 1_455
O75 P21 1.634847 1_455
O76 P21 1.545064 1_555
O77 P6 1.533825 1_555
O77 Tl4 2.808389 1_555
O78 P12 1.545064 1_555
O79 P12 1.529339 1_455
O80 P22 1.536092 1_555
O81 P6 1.529339 1_555
O82 P14 1.537102 1_555
O83 P3 1.536092 1_555
