# generated using pymatgen
data_BaY2CoO5
_symmetry_space_group_name_H-M   'P 1'
_cell_length_a   5.77002500
_cell_length_b   7.15852900
_cell_length_c   12.39054000
_cell_angle_alpha   90.00000000
_cell_angle_beta   90.00000000
_cell_angle_gamma   90.00000000
_symmetry_Int_Tables_number   1
_chemical_formula_structural   BaY2CoO5
_chemical_formula_sum   'Ba4 Y8 Co4 O20'
_cell_volume   511.78990776
_cell_formula_units_Z   4
loop_
 _symmetry_equiv_pos_site_id
 _symmetry_equiv_pos_as_xyz
  1  'x, y, z'
loop_
 _atom_site_type_symbol
 _atom_site_label
 _atom_site_symmetry_multiplicity
 _atom_site_fract_x
 _atom_site_fract_y
 _atom_site_fract_z
 _atom_site_occupancy
  Ba  Ba0  1  0.25000000  0.92148500  0.89996900  1
  Ba  Ba1  1  0.75000000  0.07851500  0.10003100  1
  Ba  Ba2  1  0.75000000  0.42148500  0.60003100  1
  Ba  Ba3  1  0.25000000  0.57851500  0.39996900  1
  Y  Y0  1  0.25000000  0.11880900  0.29158800  1
  Y  Y1  1  0.75000000  0.88119100  0.70841200  1
  Y  Y2  1  0.75000000  0.61880900  0.20841200  1
  Y  Y3  1  0.25000000  0.38119100  0.79158800  1
  Y  Y4  1  0.25000000  0.40053600  0.07457500  1
  Y  Y5  1  0.75000000  0.59946400  0.92542500  1
  Y  Y6  1  0.75000000  0.90053600  0.42542500  1
  Y  Y7  1  0.25000000  0.09946400  0.57457500  1
  Co  Co0  1  0.25000000  0.69233200  0.65200200  1
  Co  Co1  1  0.75000000  0.30766800  0.34799800  1
  Co  Co2  1  0.75000000  0.19233200  0.84799800  1
  Co  Co3  1  0.25000000  0.80766800  0.15200200  1
  O  O0  1  0.99544000  0.16653800  0.43433300  1
  O  O1  1  0.49544000  0.83346200  0.56566700  1
  O  O2  1  0.00456000  0.66653800  0.06566700  1
  O  O3  1  0.50456000  0.33346200  0.93433300  1
  O  O4  1  0.00456000  0.83346200  0.56566700  1
  O  O5  1  0.50456000  0.16653800  0.43433300  1
  O  O6  1  0.99544000  0.33346200  0.93433300  1
  O  O7  1  0.49544000  0.66653800  0.06566700  1
  O  O8  1  0.50153600  0.35934100  0.22500600  1
  O  O9  1  0.00153600  0.64065900  0.77499400  1
  O  O10  1  0.49846400  0.85934100  0.27499400  1
  O  O11  1  0.99846400  0.14065900  0.72500600  1
  O  O12  1  0.49846400  0.64065900  0.77499400  1
  O  O13  1  0.99846400  0.35934100  0.22500600  1
  O  O14  1  0.50153600  0.14065900  0.72500600  1
  O  O15  1  0.00153600  0.85934100  0.27499400  1
  O  O16  1  0.25000000  0.07464000  0.10185900  1
  O  O17  1  0.75000000  0.92536000  0.89814100  1
  O  O18  1  0.75000000  0.57464000  0.39814100  1
  O  O19  1  0.25000000  0.42536000  0.60185900  1
loop_
_geom_bond_atom_site_label_1
_geom_bond_atom_site_label_2
_geom_bond_distance
_geom_bond_site_symmetry_2
Ba0 O16 2.731236 1_566
Ba0 O17 2.885235 1_455
Ba0 O17 2.885235 1_555
Ba0 O12 2.914536 1_555
Ba0 O9 2.914536 1_555
Ba0 O14 3.044314 1_565
Ba0 O11 3.044314 1_465
Ba0 O2 3.090561 1_556
Ba0 O7 3.090561 1_556
Ba0 O3 3.322078 1_565
Ba0 O6 3.322078 1_465
Ba1 O17 2.731236 1_544
Ba1 O16 2.885235 1_655
Ba1 O16 2.885235 1_555
Ba1 O13 2.914536 1_555
Ba1 O8 2.914536 1_555
Ba1 O15 3.044314 1_645
Ba1 O10 3.044314 1_545
Ba1 O3 3.090561 1_554
Ba1 O6 3.090561 1_554
Ba1 O2 3.322078 1_645
Ba1 O7 3.322078 1_545
Ba2 O18 2.731236 1_555
Ba2 O19 2.885235 1_555
Ba2 O19 2.885235 1_655
Ba2 O11 2.914536 1_555
Ba2 O14 2.914536 1_555
Ba2 O9 3.044314 1_655
Ba2 O12 3.044314 1_555
Ba2 O5 3.090561 1_555
Ba2 O0 3.090561 1_555
Ba2 O4 3.322078 1_655
Ba2 O1 3.322078 1_555
Ba3 O19 2.731236 1_555
Ba3 O18 2.885235 1_455
Ba3 O18 2.885235 1_555
Ba3 O10 2.914536 1_555
Ba3 O15 2.914536 1_555
Ba3 O8 3.044314 1_555
Ba3 O13 3.044314 1_455
Ba3 O4 3.090561 1_555
Ba3 O1 3.090561 1_555
Ba3 O5 3.322078 1_555
Ba3 O0 3.322078 1_455
Co0 O19 2.009582 1_555
Co0 O4 2.042209 1_555
Co0 O1 2.042209 1_555
Co0 O12 2.124746 1_555
Co0 O9 2.124746 1_555
Co1 O18 2.009582 1_555
Co1 O5 2.042209 1_555
Co1 O0 2.042209 1_555
Co1 O13 2.124746 1_555
Co1 O8 2.124746 1_555
Co2 O17 2.009582 1_545
Co2 O3 2.042209 1_555
Co2 O6 2.042209 1_555
Co2 O11 2.124746 1_555
Co2 O14 2.124746 1_555
Co3 O16 2.009582 1_565
Co3 O7 2.042209 1_555
Co3 O2 2.042209 1_555
Co3 O10 2.124746 1_555
Co3 O15 2.124746 1_555
O0 Y0 2.324310 1_655
O0 Y7 2.325399 1_655
O0 Y6 2.375648 1_545
O1 Y1 2.324310 1_555
O1 Y6 2.325399 1_555
O1 Y7 2.375648 1_565
O2 Y2 2.324310 1_455
O2 Y5 2.325399 1_454
O2 Y4 2.375648 1_555
O3 Y3 2.324310 1_555
O3 Y4 2.325399 1_556
O3 Y5 2.375648 1_555
O4 Y1 2.324310 1_455
O4 Y6 2.325399 1_455
O4 Y7 2.375648 1_565
O5 Y0 2.324310 1_555
O5 Y7 2.325399 1_555
O5 Y6 2.375648 1_545
O6 Y3 2.324310 1_655
O6 Y4 2.325399 1_656
O6 Y5 2.375648 1_555
O7 Y2 2.324310 1_555
O7 Y5 2.325399 1_554
O7 Y4 2.375648 1_555
O8 Y2 2.355330 1_555
O8 Y4 2.380680 1_555
O8 Y0 2.398304 1_555
O9 Y3 2.355330 1_555
O9 Y5 2.380680 1_455
O9 Y1 2.398304 1_455
O10 Y0 2.355330 1_565
O10 Y6 2.380680 1_555
O10 Y2 2.398304 1_555
O11 Y1 2.355330 1_545
O11 Y7 2.380680 1_655
O11 Y3 2.398304 1_655
O12 Y3 2.355330 1_555
O12 Y5 2.380680 1_555
O12 Y1 2.398304 1_555
O13 Y2 2.355330 1_555
O13 Y4 2.380680 1_655
O13 Y0 2.398304 1_655
O14 Y1 2.355330 1_545
O14 Y7 2.380680 1_555
O14 Y3 2.398304 1_555
O15 Y0 2.355330 1_565
O15 Y6 2.380680 1_455
O15 Y2 2.398304 1_455
O16 Y4 2.357303 1_555
O16 Y0 2.372013 1_555
O17 Y5 2.357303 1_555
O17 Y1 2.372013 1_555
O18 Y6 2.357303 1_555
O18 Y2 2.372013 1_555
O19 Y7 2.357303 1_555
O19 Y3 2.372013 1_555
