# generated using pymatgen
data_SrFe3P3O13
_symmetry_space_group_name_H-M   'P 1'
_cell_length_a   6.43414100
_cell_length_b   7.70245100
_cell_length_c   10.47583658
_cell_angle_alpha   80.44288196
_cell_angle_beta   90.00000000
_cell_angle_gamma   90.00000000
_symmetry_Int_Tables_number   1
_chemical_formula_structural   SrFe3P3O13
_chemical_formula_sum   'Sr2 Fe6 P6 O26'
_cell_volume   511.96262089
_cell_formula_units_Z   2
loop_
 _symmetry_equiv_pos_site_id
 _symmetry_equiv_pos_as_xyz
  1  'x, y, z'
loop_
 _atom_site_type_symbol
 _atom_site_label
 _atom_site_symmetry_multiplicity
 _atom_site_fract_x
 _atom_site_fract_y
 _atom_site_fract_z
 _atom_site_occupancy
  Sr  Sr0  1  0.25000000  0.33629900  0.70122000  1
  Sr  Sr1  1  0.75000000  0.66370100  0.29878000  1
  Fe  Fe0  1  0.25000000  0.78935700  0.05823400  1
  Fe  Fe1  1  0.00000000  0.00000000  0.50000000  1
  Fe  Fe2  1  0.75000000  0.21064300  0.94176600  1
  Fe  Fe3  1  0.25000000  0.35050200  0.30192800  1
  Fe  Fe4  1  0.75000000  0.64949800  0.69807200  1
  Fe  Fe5  1  0.50000000  0.00000000  0.50000000  1
  P  P0  1  0.25000000  0.21625200  0.01908800  1
  P  P1  1  0.75000000  0.78374800  0.98091200  1
  P  P2  1  0.75000000  0.31235000  0.61649600  1
  P  P3  1  0.75000000  0.25316300  0.26296900  1
  P  P4  1  0.25000000  0.74683700  0.73703100  1
  P  P5  1  0.25000000  0.68765000  0.38350400  1
  O  O0  1  0.25000000  0.80039300  0.87143900  1
  O  O1  1  0.75000000  0.07932200  0.36720100  1
  O  O2  1  0.05925300  0.24955800  0.92587000  1
  O  O3  1  0.93839900  0.36741900  0.28768300  1
  O  O4  1  0.55925300  0.75044200  0.07413000  1
  O  O5  1  0.44777500  0.79085600  0.40800600  1
  O  O6  1  0.56160100  0.36741900  0.28768300  1
  O  O7  1  0.25000000  0.12235200  0.41037900  1
  O  O8  1  0.94074700  0.75044200  0.07413000  1
  O  O9  1  0.25000000  0.02416400  0.09243400  1
  O  O10  1  0.94777500  0.20914400  0.59199400  1
  O  O11  1  0.06160100  0.63258100  0.71231700  1
  O  O12  1  0.05222500  0.79085600  0.40800600  1
  O  O13  1  0.75000000  0.34883000  0.75961100  1
  O  O14  1  0.25000000  0.34500100  0.11499500  1
  O  O15  1  0.55222500  0.20914400  0.59199400  1
  O  O16  1  0.43839900  0.63258100  0.71231700  1
  O  O17  1  0.75000000  0.50355700  0.54198400  1
  O  O18  1  0.75000000  0.19960700  0.12856100  1
  O  O19  1  0.25000000  0.92067800  0.63279900  1
  O  O20  1  0.25000000  0.49644300  0.45801600  1
  O  O21  1  0.75000000  0.87764800  0.58962100  1
  O  O22  1  0.44074700  0.24955800  0.92587000  1
  O  O23  1  0.75000000  0.97583600  0.90756600  1
  O  O24  1  0.75000000  0.65499900  0.88500500  1
  O  O25  1  0.25000000  0.65117000  0.24038900  1
loop_
_geom_bond_atom_site_label_1
_geom_bond_atom_site_label_2
_geom_bond_distance
_geom_bond_site_symmetry_2
Fe0 O9 1.901189 1_565
Fe0 O0 1.944528 1_554
Fe0 O4 2.014997 1_555
Fe0 O8 2.014997 1_455
Fe0 O25 2.024793 1_555
Fe1 O21 2.015730 1_445
Fe1 O7 2.015730 1_555
Fe1 O12 2.037704 1_545
Fe1 O10 2.037704 1_455
Fe1 O19 2.147979 1_545
Fe1 O1 2.147979 1_455
Fe2 O23 1.901189 1_545
Fe2 O18 1.944528 1_556
Fe2 O2 2.014997 1_655
Fe2 O22 2.014997 1_555
Fe2 O13 2.024793 1_555
Fe3 O7 1.927679 1_555
Fe3 O14 1.965759 1_555
Fe3 O3 2.013046 1_455
Fe3 O6 2.013046 1_555
Fe3 O20 2.132531 1_555
Fe3 O25 2.298509 1_555
Fe4 O21 1.927679 1_555
Fe4 O24 1.965759 1_555
Fe4 O16 2.013046 1_555
Fe4 O11 2.013046 1_655
Fe4 O17 2.132531 1_555
Fe4 O13 2.298509 1_555
Fe5 O21 2.015730 1_545
Fe5 O7 2.015730 1_555
Fe5 O15 2.037704 1_555
Fe5 O5 2.037704 1_545
Fe5 O1 2.147979 1_555
Fe5 O19 2.147979 1_545
O0 P4 1.531537 1_555
O1 P3 1.581047 1_555
O2 P0 1.562849 1_556
O2 Sr0 2.639885 1_555
O3 P3 1.544853 1_555
O3 Sr1 2.603646 1_555
O4 P1 1.562849 1_554
O4 Sr1 2.639885 1_555
O5 P5 1.544298 1_555
O5 Sr1 2.534155 1_555
O6 P3 1.544853 1_555
O6 Sr1 2.603646 1_555
O8 P1 1.562849 1_554
O8 Sr1 2.639885 1_555
O9 P0 1.549821 1_555
O10 P2 1.544298 1_555
O10 Sr0 2.534155 1_655
O11 P4 1.544853 1_555
O11 Sr0 2.603646 1_555
O12 P5 1.544298 1_555
O12 Sr1 2.534155 1_455
O13 P2 1.570537 1_555
O14 P0 1.524375 1_555
O15 P2 1.544298 1_555
O15 Sr0 2.534155 1_555
O16 P4 1.544853 1_555
O16 Sr0 2.603646 1_555
O17 P2 1.548092 1_555
O17 Sr1 2.639900 1_555
O18 P3 1.531537 1_555
O19 P4 1.581047 1_555
O20 P5 1.548092 1_555
O20 Sr0 2.639900 1_555
O22 P0 1.562849 1_556
O22 Sr0 2.639885 1_555
O23 P1 1.549821 1_555
O24 P1 1.524375 1_555
O25 P5 1.570537 1_555
