# generated using pymatgen
data_K9Sm3Si12(O16F)2
_symmetry_space_group_name_H-M   'P 1'
_cell_length_a   6.99729900
_cell_length_b   11.54121703
_cell_length_c   11.63635288
_cell_angle_alpha   87.63283716
_cell_angle_beta   89.48081611
_cell_angle_gamma   80.16708419
_symmetry_Int_Tables_number   1
_chemical_formula_structural   K9Sm3Si12(O16F)2
_chemical_formula_sum   'K9 Sm3 Si12 O32 F2'
_cell_volume   925.12439368
_cell_formula_units_Z   1
loop_
 _symmetry_equiv_pos_site_id
 _symmetry_equiv_pos_as_xyz
  1  'x, y, z'
loop_
 _atom_site_type_symbol
 _atom_site_label
 _atom_site_symmetry_multiplicity
 _atom_site_fract_x
 _atom_site_fract_y
 _atom_site_fract_z
 _atom_site_occupancy
  K  K0  1  0.83151400  0.15333900  0.78659900  1
  K  K1  1  0.26505500  0.61537900  0.01705500  1
  K  K2  1  0.73494500  0.38462100  0.98294500  1
  K  K3  1  0.16848600  0.84666100  0.21340100  1
  K  K4  1  0.83155200  0.19069800  0.22092100  1
  K  K5  1  0.98346100  0.66913900  0.49022600  1
  K  K6  1  0.50000000  0.00000000  0.00000000  1
  K  K7  1  0.16844800  0.80930200  0.77907900  1
  K  K8  1  0.01653900  0.33086100  0.50977400  1
  Sm  Sm0  1  0.48581300  0.48592700  0.33431400  1
  Sm  Sm1  1  0.00000000  0.00000000  0.50000000  1
  Sm  Sm2  1  0.51418700  0.51407300  0.66568600  1
  Si  Si0  1  0.68853000  0.69588900  0.15946500  1
  Si  Si1  1  0.55265500  0.23301300  0.51111200  1
  Si  Si2  1  0.71524400  0.66686100  0.88267900  1
  Si  Si3  1  0.33874800  0.13837300  0.31090500  1
  Si  Si4  1  0.34306000  0.09022300  0.69609000  1
  Si  Si5  1  0.01758900  0.51538300  0.74356800  1
  Si  Si6  1  0.98241100  0.48461700  0.25643200  1
  Si  Si7  1  0.31147000  0.30411100  0.84053500  1
  Si  Si8  1  0.28475600  0.33313900  0.11732100  1
  Si  Si9  1  0.65694000  0.90977700  0.30391000  1
  Si  Si10  1  0.66125200  0.86162700  0.68909500  1
  Si  Si11  1  0.44734500  0.76698700  0.48888800  1
  O  O0  1  0.10301400  0.37590000  0.78742400  1
  O  O1  1  0.71602400  0.79643300  0.81682600  1
  O  O2  1  0.70787000  0.69028200  0.01984500  1
  O  O3  1  0.51124400  0.78791100  0.62522600  1
  O  O4  1  0.85398500  0.87233000  0.61814200  1
  O  O5  1  0.84377500  0.51068100  0.65438500  1
  O  O6  1  0.31258300  0.16336400  0.81649600  1
  O  O7  1  0.49953500  0.35117400  0.79001500  1
  O  O8  1  0.46021000  0.00814700  0.27662300  1
  O  O9  1  0.47396900  0.62442000  0.48236400  1
  O  O10  1  0.68741700  0.83663600  0.18350400  1
  O  O11  1  0.06797800  0.41600200  0.13684700  1
  O  O12  1  0.48875600  0.21208900  0.37477400  1
  O  O13  1  0.84468300  0.96588200  0.33020300  1
  O  O14  1  0.15622500  0.48931900  0.34561500  1
  O  O15  1  0.29213000  0.30971800  0.98015500  1
  O  O16  1  0.54219000  0.60293300  0.84369800  1
  O  O17  1  0.61443500  0.81640400  0.40734200  1
  O  O18  1  0.89698600  0.62410000  0.21257600  1
  O  O19  1  0.18766600  0.57968500  0.69072000  1
  O  O20  1  0.52603100  0.37558000  0.51763600  1
  O  O21  1  0.14601500  0.12767000  0.38185800  1
  O  O22  1  0.81233400  0.42031500  0.30928000  1
  O  O23  1  0.53979000  0.99185300  0.72337700  1
  O  O24  1  0.93202200  0.58399800  0.86315300  1
  O  O25  1  0.38556500  0.18359600  0.59265800  1
  O  O26  1  0.50046500  0.64882600  0.20998500  1
  O  O27  1  0.15531700  0.03411800  0.66979700  1
  O  O28  1  0.28397600  0.20356700  0.18317400  1
  O  O29  1  0.76743100  0.16410800  0.54034400  1
  O  O30  1  0.45781000  0.39706700  0.15630200  1
  O  O31  1  0.23256900  0.83589200  0.45965600  1
  F  F0  1  0.75502400  0.15611300  0.00411500  1
  F  F1  1  0.24497600  0.84388700  0.99588500  1
loop_
_geom_bond_atom_site_label_1
_geom_bond_atom_site_label_2
_geom_bond_distance
_geom_bond_site_symmetry_2
K0 O27 2.812119 1_655
K0 O29 2.898706 1_555
K0 O7 2.967362 1_555
K0 O23 3.101849 1_545
K1 O16 2.776381 1_554
K1 O26 2.873710 1_555
K1 O24 3.030885 1_454
K1 O30 3.055258 1_555
K1 O11 3.150172 1_555
K2 O30 2.776381 1_556
K2 O7 2.873710 1_555
K2 O11 3.030885 1_656
K2 O16 3.055258 1_555
K2 O24 3.150172 1_555
K3 O13 2.812119 1_455
K3 O31 2.898706 1_555
K3 O26 2.967362 1_555
K3 O8 3.101849 1_565
K4 O13 2.829464 1_545
K4 O22 2.863373 1_555
K4 O21 2.879826 1_655
K4 O12 2.962433 1_555
K5 O19 2.812142 1_655
K5 O31 2.818987 1_655
K5 O14 2.827505 1_655
K5 O4 2.841473 1_555
K5 O5 2.869998 1_555
K5 O17 2.982839 1_555
K6 O10 2.950909 1_545
K6 O6 2.950909 1_554
K6 O23 3.232242 1_544
K6 O8 3.232242 1_555
K6 O28 3.389710 1_555
K6 O1 3.389710 1_544
K7 O27 2.829464 1_565
K7 O19 2.863373 1_555
K7 O4 2.879826 1_455
K7 O3 2.962433 1_555
K8 O22 2.812142 1_455
K8 O29 2.818987 1_455
K8 O5 2.827505 1_455
K8 O21 2.841473 1_555
K8 O14 2.869998 1_555
K8 O25 2.982839 1_555
O0 Si7 1.660505 1_555
O0 Si5 1.678751 1_555
O1 Si2 1.652742 1_555
O1 Si10 1.655785 1_555
O2 Si2 1.628707 1_554
O2 Si0 1.632101 1_555
O3 Si10 1.658104 1_555
O3 Si11 1.690126 1_555
O4 Si10 1.594984 1_555
O4 Sm1 2.329446 1_665
O5 Si5 1.615296 1_655
O5 Sm2 2.302519 1_555
O6 Si7 1.658352 1_555
O6 Si4 1.658881 1_555
O7 Si7 1.605014 1_555
O7 Sm2 2.340217 1_555
O8 Si9 1.651989 1_545
O8 Si3 1.657551 1_555
O9 Si11 1.628854 1_555
O9 Sm0 2.389398 1_555
O9 Sm2 2.432219 1_555
O10 Si0 1.658352 1_555
O10 Si9 1.658881 1_555
O11 Si8 1.668327 1_555
O11 Si6 1.684026 1_455
O12 Si3 1.658104 1_555
O12 Si1 1.690126 1_555
O13 Si9 1.597770 1_555
O13 Sm1 2.342944 1_665
O14 Si6 1.615296 1_455
O14 Sm0 2.302519 1_555
O15 Si8 1.628707 1_556
O15 Si7 1.632101 1_555
O16 Si2 1.599738 1_555
O16 Sm2 2.373261 1_555
O17 Si9 1.641398 1_555
O17 Si11 1.660002 1_555
O18 Si0 1.660505 1_555
O18 Si6 1.678751 1_555
O19 Si5 1.611180 1_555
O19 Sm2 2.300796 1_555
O20 Si1 1.628854 1_555
O20 Sm2 2.389398 1_555
O20 Sm0 2.432219 1_555
O21 Si3 1.594984 1_555
O21 Sm1 2.329446 1_555
O22 Si6 1.611180 1_555
O22 Sm0 2.300796 1_555
O23 Si4 1.651989 1_565
O23 Si10 1.657551 1_555
O24 Si2 1.668327 1_555
O24 Si5 1.684026 1_655
O25 Si4 1.641398 1_555
O25 Si1 1.660002 1_555
O26 Si0 1.605014 1_555
O26 Sm0 2.340217 1_555
O27 Si4 1.597770 1_555
O27 Sm1 2.342944 1_555
O28 Si8 1.652742 1_555
O28 Si3 1.655785 1_555
O29 Si1 1.607919 1_555
O29 Sm1 2.337264 1_655
O30 Si8 1.599738 1_555
O30 Sm0 2.373261 1_555
O31 Si11 1.607919 1_555
O31 Sm1 2.337264 1_565
F0 K0 2.582675 1_554
F0 K2 2.618391 1_554
F0 K4 2.644129 1_555
F0 K6 2.745855 1_555
F1 K3 2.582675 1_556
F1 K1 2.618391 1_556
F1 K7 2.644129 1_555
F1 K6 2.745855 1_566
