# generated using pymatgen
data_La8Ru4O21
_symmetry_space_group_name_H-M   'P 1'
_cell_length_a   9.94782015
_cell_length_b   9.94782015
_cell_length_c   10.91829100
_cell_angle_alpha   90.00000000
_cell_angle_beta   90.00000000
_cell_angle_gamma   120.00000097
_symmetry_Int_Tables_number   1
_chemical_formula_structural   La8Ru4O21
_chemical_formula_sum   'La16 Ru8 O42'
_cell_volume   935.70972251
_cell_formula_units_Z   2
loop_
 _symmetry_equiv_pos_site_id
 _symmetry_equiv_pos_as_xyz
  1  'x, y, z'
loop_
 _atom_site_type_symbol
 _atom_site_label
 _atom_site_symmetry_multiplicity
 _atom_site_fract_x
 _atom_site_fract_y
 _atom_site_fract_z
 _atom_site_occupancy
  La  La0  1  0.60487100  0.00000000  0.09125500  1
  La  La1  1  0.39512900  0.00000000  0.59125500  1
  La  La2  1  0.00000000  0.24266800  0.23006800  1
  La  La3  1  0.24266800  0.24266800  0.73006800  1
  La  La4  1  0.00000000  0.60487100  0.09125500  1
  La  La5  1  0.75733200  0.75733200  0.23006800  1
  La  La6  1  0.24266800  0.00000000  0.23006800  1
  La  La7  1  0.33333300  0.66666700  0.88384100  1
  La  La8  1  0.33333300  0.66666700  0.38384100  1
  La  La9  1  0.66666700  0.33333300  0.88384100  1
  La  La10  1  0.60487100  0.60487100  0.59125500  1
  La  La11  1  0.00000000  0.39512900  0.59125500  1
  La  La12  1  0.39512900  0.39512900  0.09125500  1
  La  La13  1  0.66666700  0.33333300  0.38384100  1
  La  La14  1  0.00000000  0.75733200  0.73006800  1
  La  La15  1  0.75733200  0.00000000  0.73006800  1
  Ru  Ru0  1  0.35543800  0.00000000  0.90009400  1
  Ru  Ru1  1  0.00000000  0.35543800  0.90009400  1
  Ru  Ru2  1  0.64456200  0.64456200  0.90009400  1
  Ru  Ru3  1  0.00000000  0.64456200  0.40009400  1
  Ru  Ru4  1  0.00000000  0.00000000  0.99846600  1
  Ru  Ru5  1  0.64456200  0.00000000  0.40009400  1
  Ru  Ru6  1  0.00000000  0.00000000  0.49846600  1
  Ru  Ru7  1  0.35543800  0.35543800  0.40009400  1
  O  O0  1  0.72590300  0.16318600  0.26859500  1
  O  O1  1  0.54238600  0.70043900  0.03298700  1
  O  O2  1  0.43900400  0.43900400  0.87821800  1
  O  O3  1  0.56271700  0.72590300  0.76859500  1
  O  O4  1  0.84053800  0.84053800  0.88950400  1
  O  O5  1  0.15817800  0.15817800  0.11301500  1
  O  O6  1  0.43728300  0.27409700  0.26859500  1
  O  O7  1  0.15805300  0.45761400  0.03298700  1
  O  O8  1  0.56099600  0.56099600  0.37821800  1
  O  O9  1  0.27409700  0.43728300  0.26859500  1
  O  O10  1  0.16318600  0.43728300  0.76859500  1
  O  O11  1  0.45761400  0.29956100  0.53298700  1
  O  O12  1  0.70043900  0.54238600  0.03298700  1
  O  O13  1  0.84182200  0.84182200  0.61301500  1
  O  O14  1  0.29956100  0.45761400  0.53298700  1
  O  O15  1  0.83681400  0.56271700  0.26859500  1
  O  O16  1  0.84194700  0.54238600  0.53298700  1
  O  O17  1  0.43728300  0.16318600  0.76859500  1
  O  O18  1  0.15946200  0.15946200  0.38950400  1
  O  O19  1  0.00000000  0.15946200  0.88950400  1
  O  O20  1  0.54238600  0.84194700  0.53298700  1
  O  O21  1  0.00000000  0.84053800  0.38950400  1
  O  O22  1  0.70043900  0.15805300  0.53298700  1
  O  O23  1  0.27409700  0.83681400  0.76859500  1
  O  O24  1  0.15805300  0.70043900  0.53298700  1
  O  O25  1  0.00000000  0.43900400  0.37821800  1
  O  O26  1  0.84194700  0.29956100  0.03298700  1
  O  O27  1  0.84182200  0.00000000  0.11301500  1
  O  O28  1  0.43900400  0.00000000  0.37821800  1
  O  O29  1  0.00000000  0.56099600  0.87821800  1
  O  O30  1  0.16318600  0.72590300  0.26859500  1
  O  O31  1  0.00000000  0.15817800  0.61301500  1
  O  O32  1  0.56271700  0.83681400  0.26859500  1
  O  O33  1  0.00000000  0.84182200  0.11301500  1
  O  O34  1  0.15817800  0.00000000  0.61301500  1
  O  O35  1  0.83681400  0.27409700  0.76859500  1
  O  O36  1  0.56099600  0.00000000  0.87821800  1
  O  O37  1  0.84053800  0.00000000  0.38950400  1
  O  O38  1  0.45761400  0.15805300  0.03298700  1
  O  O39  1  0.72590300  0.56271700  0.76859500  1
  O  O40  1  0.15946200  0.00000000  0.88950400  1
  O  O41  1  0.29956100  0.84194700  0.03298700  1
loop_
_geom_bond_atom_site_label_1
_geom_bond_atom_site_label_2
_geom_bond_distance
_geom_bond_site_symmetry_2
La0 O36 2.366595 1_554
La0 O27 2.369089 1_555
La0 O0 2.424752 1_555
La0 O32 2.424752 1_545
La0 O41 2.706643 1_545
La0 O38 2.706643 1_555
La0 O26 2.796258 1_555
La0 O1 2.796258 1_545
La1 O28 2.366595 1_555
La1 O34 2.369089 1_555
La1 O23 2.424752 1_545
La1 O17 2.424752 1_555
La1 O22 2.706643 1_555
La1 O20 2.706643 1_545
La1 O24 2.796258 1_545
La1 O11 2.796258 1_555
La2 O9 2.465953 1_555
La2 O0 2.465953 1_455
La2 O27 2.477555 1_455
La2 O5 2.477555 1_555
La2 O25 2.535963 1_555
La2 O37 2.746770 1_455
La2 O18 2.746770 1_555
La2 O7 2.883128 1_555
La2 O26 2.883128 1_455
La3 O10 2.465953 1_555
La3 O17 2.465953 1_555
La3 O34 2.477555 1_555
La3 O31 2.477555 1_555
La3 O2 2.535963 1_555
La3 O40 2.746770 1_555
La3 O19 2.746770 1_555
La3 O11 2.883128 1_555
La3 O14 2.883128 1_555
La4 O29 2.366595 1_554
La4 O33 2.369089 1_555
La4 O30 2.424752 1_555
La4 O15 2.424752 1_455
La4 O26 2.706643 1_455
La4 O7 2.706643 1_555
La4 O41 2.796258 1_555
La4 O12 2.796258 1_455
La5 O32 2.465953 1_555
La5 O15 2.465953 1_555
La5 O33 2.477555 1_655
La5 O27 2.477555 1_565
La5 O8 2.535963 1_555
La5 O21 2.746770 1_655
La5 O37 2.746770 1_565
La5 O1 2.883128 1_555
La5 O12 2.883128 1_555
La6 O6 2.465953 1_555
La6 O30 2.465953 1_545
La6 O33 2.477555 1_545
La6 O5 2.477555 1_555
La6 O28 2.535963 1_555
La6 O21 2.746770 1_545
La6 O18 2.746770 1_555
La6 O38 2.883128 1_555
La6 O41 2.883128 1_545
La7 O23 2.406821 1_555
La7 O10 2.406827 1_555
La7 O3 2.406830 1_555
La7 O41 2.527991 1_556
La7 O7 2.527996 1_556
La7 O1 2.527999 1_556
La7 O29 2.935731 1_555
La7 O36 2.935733 1_565
La7 O2 2.935741 1_555
La8 O30 2.406821 1_555
La8 O32 2.406827 1_555
La8 O9 2.406830 1_555
La8 O24 2.527991 1_555
La8 O20 2.527996 1_555
La8 O14 2.527999 1_555
La8 O28 2.935731 1_565
La8 O25 2.935733 1_555
La8 O8 2.935741 1_555
La9 O35 2.406821 1_555
La9 O17 2.406827 1_555
La9 O39 2.406830 1_555
La9 O26 2.527991 1_556
La9 O38 2.527996 1_556
La9 O12 2.527999 1_556
La9 O36 2.935731 1_555
La9 O29 2.935733 1_655
La9 O2 2.935741 1_555
La10 O8 2.366595 1_555
La10 O13 2.369089 1_555
La10 O39 2.424752 1_555
La10 O3 2.424752 1_555
La10 O14 2.706643 1_555
La10 O11 2.706643 1_555
La10 O16 2.796258 1_555
La10 O20 2.796258 1_555
La11 O25 2.366595 1_555
La11 O31 2.369089 1_555
La11 O35 2.424752 1_455
La11 O10 2.424752 1_555
La11 O24 2.706643 1_555
La11 O16 2.706643 1_455
La11 O22 2.796258 1_455
La11 O14 2.796258 1_555
La12 O2 2.366595 1_554
La12 O5 2.369089 1_555
La12 O9 2.424752 1_555
La12 O6 2.424752 1_555
La12 O1 2.706643 1_555
La12 O12 2.706643 1_555
La12 O38 2.796258 1_555
La12 O7 2.796258 1_555
La13 O0 2.406821 1_555
La13 O15 2.406827 1_555
La13 O6 2.406830 1_555
La13 O22 2.527991 1_555
La13 O16 2.527996 1_555
La13 O11 2.527999 1_555
La13 O25 2.935731 1_655
La13 O28 2.935733 1_555
La13 O8 2.935741 1_555
La14 O39 2.465953 1_455
La14 O23 2.465953 1_555
La14 O34 2.477555 1_565
La14 O13 2.477555 1_455
La14 O29 2.535963 1_555
La14 O40 2.746770 1_565
La14 O4 2.746770 1_455
La14 O16 2.883128 1_455
La14 O24 2.883128 1_555
La15 O3 2.465953 1_545
La15 O35 2.465953 1_555
La15 O31 2.477555 1_655
La15 O13 2.477555 1_545
La15 O36 2.535963 1_555
La15 O19 2.746770 1_655
La15 O4 2.746770 1_545
La15 O20 2.883128 1_545
La15 O22 2.883128 1_555
O0 Ru5 2.009429 1_555
O1 Ru2 2.003094 1_554
O2 Ru2 2.058756 1_555
O3 Ru2 2.009429 1_555
O4 Ru2 1.952960 1_555
O4 Ru4 1.982847 1_665
O5 Ru4 2.010021 1_554
O6 Ru7 2.009429 1_555
O7 Ru1 2.003094 1_554
O8 Ru7 2.058756 1_555
O9 Ru7 2.009429 1_555
O10 Ru1 2.009429 1_555
O11 Ru7 2.003094 1_555
O12 Ru2 2.003094 1_554
O13 Ru6 2.010021 1_665
O14 Ru7 2.003094 1_555
O15 Ru3 2.009429 1_655
O16 Ru3 2.003094 1_655
O17 Ru0 2.009429 1_555
O18 Ru7 1.952960 1_555
O18 Ru6 1.982847 1_555
O19 Ru1 1.952960 1_555
O19 Ru4 1.982847 1_555
O20 Ru5 2.003094 1_565
O21 Ru3 1.952960 1_555
O21 Ru6 1.982847 1_565
O22 Ru5 2.003094 1_555
O23 Ru0 2.009429 1_565
O24 Ru3 2.003094 1_555
O25 Ru3 2.058756 1_555
O26 Ru1 2.003094 1_654
O27 Ru4 2.010021 1_654
O28 Ru5 2.058756 1_555
O29 Ru1 2.058756 1_555
O30 Ru3 2.009429 1_555
O31 Ru6 2.010021 1_555
O32 Ru5 2.009429 1_565
O33 Ru4 2.010021 1_564
O34 Ru6 2.010021 1_555
O35 Ru1 2.009429 1_655
O36 Ru0 2.058756 1_555
O37 Ru5 1.952960 1_555
O37 Ru6 1.982847 1_655
O38 Ru0 2.003094 1_554
O39 Ru2 2.009429 1_555
O40 Ru0 1.952960 1_555
O40 Ru4 1.982847 1_555
O41 Ru0 2.003094 1_564
