# generated using pymatgen
data_TaNi3
_symmetry_space_group_name_H-M   'P 1'
_cell_length_a   4.50048397
_cell_length_b   5.07755310
_cell_length_c   8.56418505
_cell_angle_alpha   90.00000000
_cell_angle_beta   100.87707586
_cell_angle_gamma   90.00000000
_symmetry_Int_Tables_number   1
_chemical_formula_structural   TaNi3
_chemical_formula_sum   'Ta4 Ni12'
_cell_volume   192.18805369
_cell_formula_units_Z   4
loop_
 _symmetry_equiv_pos_site_id
 _symmetry_equiv_pos_as_xyz
  1  'x, y, z'
loop_
 _atom_site_type_symbol
 _atom_site_label
 _atom_site_symmetry_multiplicity
 _atom_site_fract_x
 _atom_site_fract_y
 _atom_site_fract_z
 _atom_site_occupancy
  Ta  Ta0  1  0.38750281  0.75000000  0.62180369  1
  Ta  Ta1  1  0.61249719  0.25000000  0.37819631  1
  Ta  Ta2  1  0.21046106  0.75000000  0.12753970  1
  Ta  Ta3  1  0.78953894  0.25000000  0.87246030  1
  Ni  Ni0  1  0.29418221  0.99872364  0.87680968  1
  Ni  Ni1  1  0.88586021  0.99739824  0.62666734  1
  Ni  Ni2  1  0.79787617  0.75000000  0.87337735  1
  Ni  Ni3  1  0.11413979  0.49739824  0.37333266  1
  Ni  Ni4  1  0.63419069  0.75000000  0.37621318  1
  Ni  Ni5  1  0.29418221  0.50127636  0.87680968  1
  Ni  Ni6  1  0.36580931  0.25000000  0.62378682  1
  Ni  Ni7  1  0.70581779  0.00127636  0.12319032  1
  Ni  Ni8  1  0.70581779  0.49872364  0.12319032  1
  Ni  Ni9  1  0.11413979  0.00260176  0.37333266  1
  Ni  Ni10  1  0.20212383  0.25000000  0.12662265  1
  Ni  Ni11  1  0.88586021  0.50260176  0.62666734  1
loop_
_geom_bond_atom_site_label_1
_geom_bond_atom_site_label_2
_geom_bond_distance
_geom_bond_site_symmetry_2
Ni0 Ni5 2.525815 1_555
Ni0 Ni7 2.531636 1_566
Ni0 Ni1 2.545692 1_455
Ni0 Ni5 2.551738 1_565
Ni0 Ni2 2.561263 1_455
Ni0 Ta3 2.574985 1_565
Ni0 Ta2 2.579368 1_556
Ni0 Ni6 2.586694 1_565
Ni0 Ni10 2.590607 1_566
Ni0 Ta3 2.599110 1_465
Ni0 Ni2 2.599929 1_555
Ni0 Ta0 2.624307 1_555
Ni1 Ni11 2.512355 1_555
Ni1 Ni6 2.516226 1_665
Ni1 Ni2 2.552400 1_555
Ni1 Ni4 2.558264 1_555
Ni1 Ta0 2.564144 1_555
Ni1 Ni11 2.565198 1_565
Ni1 Ni9 2.569942 1_665
Ni1 Ta3 2.570691 1_565
Ni1 Ta1 2.588198 1_565
Ni1 Ta0 2.590776 1_655
Ni1 Ni6 2.664907 1_565
Ni2 Ta3 2.539044 1_565
Ni2 Ta3 2.539044 1_555
Ni2 Ta0 2.559528 1_555
Ni2 Ni5 2.561263 1_655
Ni2 Ta2 2.580783 1_656
Ni2 Ni8 2.590607 1_556
Ni2 Ni7 2.590607 1_566
Ni2 Ni5 2.599929 1_555
Ni3 Ni9 2.512355 1_555
Ni3 Ni4 2.516226 1_455
Ni3 Ni8 2.545692 1_455
Ni3 Ni6 2.558264 1_555
Ni3 Ta1 2.564144 1_555
Ni3 Ni9 2.565198 1_565
Ni3 Ta2 2.570691 1_555
Ni3 Ta0 2.588198 1_555
Ni3 Ta1 2.590776 1_455
Ni3 Ni4 2.664907 1_555
Ni4 Ni9 2.516226 1_665
Ni4 Ta1 2.540833 1_555
Ni4 Ta1 2.540833 1_565
Ni4 Ta0 2.556883 1_555
Ni4 Ta2 2.576706 1_555
Ni4 Ni8 2.586694 1_555
Ni4 Ni7 2.586694 1_565
Ni4 Ni9 2.664907 1_565
Ni5 Ni8 2.531636 1_556
Ni5 Ta3 2.574985 1_555
Ni5 Ta2 2.579368 1_556
Ni5 Ni6 2.586694 1_555
Ni5 Ta3 2.599110 1_455
Ni5 Ta0 2.624307 1_555
Ni6 Ta0 2.540833 1_545
Ni6 Ta0 2.540833 1_555
Ni6 Ta1 2.556883 1_555
Ni6 Ni9 2.558264 1_555
Ni6 Ta3 2.576706 1_555
Ni7 Ni8 2.525815 1_555
Ni7 Ni9 2.545692 1_655
Ni7 Ni8 2.551738 1_545
Ni7 Ta2 2.574985 1_545
Ni7 Ta3 2.579368 1_554
Ni7 Ta2 2.599110 1_645
Ni7 Ta1 2.624307 1_555
Ni8 Ta2 2.574985 1_555
Ni8 Ta3 2.579368 1_554
Ni8 Ta2 2.599110 1_655
Ni8 Ta1 2.624307 1_555
Ni9 Ta1 2.564144 1_555
Ni9 Ta2 2.570691 1_545
Ni9 Ta0 2.588198 1_545
Ni9 Ta1 2.590776 1_455
Ni10 Ta2 2.539044 1_555
Ni10 Ta2 2.539044 1_545
Ni10 Ni3 2.552400 1_555
Ni10 Ni9 2.552400 1_555
Ni10 Ta1 2.559528 1_555
Ni10 Ni7 2.561263 1_455
Ni10 Ni8 2.561263 1_455
Ni10 Ta3 2.580783 1_454
Ni10 Ni5 2.590607 1_554
Ni10 Ni8 2.599929 1_555
Ni10 Ni7 2.599929 1_555
Ni11 Ni6 2.516226 1_655
Ni11 Ni5 2.545692 1_655
Ni11 Ni2 2.552400 1_555
Ni11 Ni4 2.558264 1_555
Ni11 Ta0 2.564144 1_555
Ni11 Ni3 2.569942 1_655
Ni11 Ta3 2.570691 1_555
Ni11 Ta1 2.588198 1_555
Ni11 Ta0 2.590776 1_655
Ni11 Ni6 2.664907 1_555
