# generated using pymatgen
data_RbC2S2N(OF)4
_symmetry_space_group_name_H-M   'P 1'
_cell_length_a   18.57591400
_cell_length_b   5.57384600
_cell_length_c   17.66004626
_cell_angle_alpha   89.24474322
_cell_angle_beta   90.00000000
_cell_angle_gamma   90.00000000
_symmetry_Int_Tables_number   1
_chemical_formula_structural   RbC2S2N(OF)4
_chemical_formula_sum   'Rb8 C16 S16 N8 O32 F32'
_cell_volume   1828.34968802
_cell_formula_units_Z   8
loop_
 _symmetry_equiv_pos_site_id
 _symmetry_equiv_pos_as_xyz
  1  'x, y, z'
loop_
 _atom_site_type_symbol
 _atom_site_label
 _atom_site_symmetry_multiplicity
 _atom_site_fract_x
 _atom_site_fract_y
 _atom_site_fract_z
 _atom_site_occupancy
  Rb  Rb0  1  0.25132700  0.49432300  0.76169300  1
  Rb  Rb1  1  0.74867300  0.50567700  0.23830700  1
  Rb  Rb2  1  0.87758000  0.50836300  0.46607500  1
  Rb  Rb3  1  0.24867300  0.49432300  0.26169300  1
  Rb  Rb4  1  0.62242000  0.50836300  0.96607500  1
  Rb  Rb5  1  0.37758000  0.49163700  0.03392500  1
  Rb  Rb6  1  0.75132700  0.50567700  0.73830700  1
  Rb  Rb7  1  0.12242000  0.49163700  0.53392500  1
  C  C0  1  0.35136700  0.04383800  0.44740400  1
  C  C1  1  0.93965500  0.98974000  0.70695300  1
  C  C2  1  0.99614400  0.05313400  0.23649600  1
  C  C3  1  0.62735400  0.97427000  0.46666100  1
  C  C4  1  0.50385600  0.05313400  0.73649600  1
  C  C5  1  0.00385600  0.94686600  0.76350400  1
  C  C6  1  0.37264600  0.02573000  0.53333900  1
  C  C7  1  0.64863300  0.95616200  0.55259600  1
  C  C8  1  0.87264600  0.97427000  0.96666100  1
  C  C9  1  0.56034500  0.98974000  0.20695300  1
  C  C10  1  0.14863300  0.04383800  0.94740400  1
  C  C11  1  0.49614400  0.94686600  0.26350400  1
  C  C12  1  0.43965500  0.01026000  0.79304700  1
  C  C13  1  0.12735400  0.02573000  0.03333900  1
  C  C14  1  0.85136700  0.95616200  0.05259600  1
  C  C15  1  0.06034500  0.01026000  0.29304700  1
  S  S0  1  0.41007400  0.95552300  0.20430200  1
  S  S1  1  0.52227400  0.95338700  0.10911200  1
  S  S2  1  0.97772600  0.95338700  0.60911200  1
  S  S3  1  0.74981000  0.99773500  0.05813900  1
  S  S4  1  0.78558800  0.95820500  0.91153000  1
  S  S5  1  0.47772600  0.04661300  0.89088800  1
  S  S6  1  0.24981000  0.00226500  0.44186100  1
  S  S7  1  0.08992600  0.95552300  0.70430200  1
  S  S8  1  0.91007400  0.04447700  0.29569800  1
  S  S9  1  0.25019000  0.00226500  0.94186100  1
  S  S10  1  0.02227400  0.04661300  0.39088800  1
  S  S11  1  0.71441200  0.95820500  0.41153000  1
  S  S12  1  0.21441200  0.04179500  0.08847000  1
  S  S13  1  0.28558800  0.04179500  0.58847000  1
  S  S14  1  0.58992600  0.04447700  0.79569800  1
  S  S15  1  0.75019000  0.99773500  0.55813900  1
  N  N0  1  0.26525600  0.91534500  0.02738300  1
  N  N1  1  0.55629700  0.94163800  0.87347100  1
  N  N2  1  0.44370300  0.05836200  0.12652900  1
  N  N3  1  0.05629700  0.05836200  0.62652900  1
  N  N4  1  0.23474400  0.91534500  0.52738300  1
  N  N5  1  0.73474400  0.08465500  0.97261700  1
  N  N6  1  0.76525600  0.08465500  0.47261700  1
  N  N7  1  0.94370300  0.94163800  0.37347100  1
  O  O0  1  0.20860000  0.89115600  0.15544600  1
  O  O1  1  0.79140000  0.10884400  0.84455400  1
  O  O2  1  0.27084600  0.29548600  0.59968000  1
  O  O3  1  0.72031400  0.76344700  0.07810700  1
  O  O4  1  0.26551300  0.80712200  0.89112200  1
  O  O5  1  0.22031400  0.23655300  0.42189300  1
  O  O6  1  0.05960000  0.88743500  0.44274100  1
  O  O7  1  0.77968600  0.76344700  0.57810700  1
  O  O8  1  0.73448700  0.19287800  0.10887800  1
  O  O9  1  0.72915400  0.70451400  0.40032000  1
  O  O10  1  0.13844900  0.13120100  0.73551100  1
  O  O11  1  0.47503600  0.30246100  0.90570200  1
  O  O12  1  0.11563900  0.70949700  0.70013400  1
  O  O13  1  0.76551300  0.19287800  0.60887800  1
  O  O14  1  0.36155100  0.13120100  0.23551100  1
  O  O15  1  0.02496400  0.30246100  0.40570200  1
  O  O16  1  0.29140000  0.89115600  0.65544600  1
  O  O17  1  0.63844900  0.86879900  0.76448900  1
  O  O18  1  0.94040000  0.11256500  0.55725900  1
  O  O19  1  0.86155100  0.86879900  0.26448900  1
  O  O20  1  0.52496400  0.69753900  0.09429800  1
  O  O21  1  0.97503600  0.69753900  0.59429800  1
  O  O22  1  0.88436100  0.29050300  0.29986600  1
  O  O23  1  0.23448700  0.80712200  0.39112200  1
  O  O24  1  0.77084600  0.70451400  0.90032000  1
  O  O25  1  0.27968600  0.23655300  0.92189300  1
  O  O26  1  0.38436100  0.70949700  0.20013400  1
  O  O27  1  0.61563900  0.29050300  0.79986600  1
  O  O28  1  0.44040000  0.88743500  0.94274100  1
  O  O29  1  0.22915400  0.29548600  0.09968000  1
  O  O30  1  0.70860000  0.10884400  0.34455400  1
  O  O31  1  0.55960000  0.11256500  0.05725900  1
  F  F0  1  0.49721000  0.26940300  0.70119900  1
  F  F1  1  0.08142700  0.20354800  0.05299300  1
  F  F2  1  0.13017800  0.26121000  0.91790800  1
  F  F3  1  0.50279000  0.73059700  0.29880100  1
  F  F4  1  0.49405600  0.12226100  0.31584200  1
  F  F5  1  0.00594400  0.12226100  0.81584200  1
  F  F6  1  0.50594400  0.87773900  0.68415800  1
  F  F7  1  0.59601600  0.18977100  0.45159600  1
  F  F8  1  0.41400200  0.78304800  0.78659200  1
  F  F9  1  0.40398400  0.81022900  0.54840400  1
  F  F10  1  0.88483800  0.83245600  0.72076100  1
  F  F11  1  0.91400200  0.21695200  0.71340800  1
  F  F12  1  0.11604800  0.86855800  0.90713400  1
  F  F13  1  0.58599800  0.21695200  0.21340800  1
  F  F14  1  0.36982200  0.26121000  0.41790800  1
  F  F15  1  0.99721000  0.73059700  0.79880100  1
  F  F16  1  0.91857300  0.79645200  0.94700700  1
  F  F17  1  0.61604800  0.13144200  0.59286600  1
  F  F18  1  0.90398400  0.18977100  0.95159600  1
  F  F19  1  0.99405600  0.87773900  0.18415800  1
  F  F20  1  0.41857300  0.20354800  0.55299300  1
  F  F21  1  0.09601600  0.81022900  0.04840400  1
  F  F22  1  0.63017800  0.73879000  0.58209200  1
  F  F23  1  0.38483800  0.16754400  0.77923900  1
  F  F24  1  0.38395200  0.86855800  0.40713400  1
  F  F25  1  0.00279000  0.26940300  0.20119900  1
  F  F26  1  0.58142700  0.79645200  0.44700700  1
  F  F27  1  0.11516200  0.16754400  0.27923900  1
  F  F28  1  0.86982200  0.73879000  0.08209200  1
  F  F29  1  0.61516200  0.83245600  0.22076100  1
  F  F30  1  0.88395200  0.13144200  0.09286600  1
  F  F31  1  0.08599800  0.78304800  0.28659200  1
loop_
_geom_bond_atom_site_label_1
_geom_bond_atom_site_label_2
_geom_bond_distance
_geom_bond_site_symmetry_2
C0 F14 1.356537 1_555
C0 F24 1.358293 1_545
C1 F11 1.359324 1_565
C1 F10 1.363552 1_555
C1 S2 1.880421 1_555
C2 F19 1.354766 1_545
C2 F25 1.355398 1_655
C2 S8 1.910587 1_555
C3 F26 1.356363 1_555
C3 F7 1.357955 1_565
C3 S11 1.890376 1_555
C4 F6 1.354766 1_545
C4 F0 1.355398 1_555
C4 S14 1.910587 1_555
C5 F5 1.354766 1_565
C5 F15 1.355398 1_455
C5 S7 1.910587 1_555
C6 F20 1.356363 1_555
C6 F9 1.357955 1_545
C6 S13 1.890376 1_555
C7 F22 1.356537 1_555
C7 F17 1.358293 1_565
C8 F16 1.356363 1_555
C8 F18 1.357955 1_565
C8 S4 1.890376 1_555
C9 F13 1.359324 1_565
C9 F29 1.363552 1_555
C9 S1 1.880421 1_555
C10 F2 1.356537 1_555
C10 F12 1.358293 1_545
C11 F4 1.354766 1_565
C11 F3 1.355398 1_555
C11 S0 1.910587 1_555
C12 F8 1.359324 1_545
C12 F23 1.363552 1_555
C12 S5 1.880421 1_555
C13 F1 1.356363 1_555
C13 F21 1.357955 1_545
C13 S12 1.890376 1_555
C14 F28 1.356537 1_555
C14 F30 1.358293 1_565
C15 F31 1.359324 1_545
C15 F27 1.363552 1_555
C15 S10 1.880421 1_555
N0 S12 1.603947 1_565
N0 S9 1.604627 1_564
N0 Rb5 3.152344 1_555
N1 S5 1.603725 1_565
N1 S14 1.607633 1_565
N1 Rb4 3.148231 1_555
N2 S1 1.603725 1_545
N2 S0 1.607633 1_545
N2 Rb5 3.148231 1_555
N3 S2 1.603725 1_445
N3 S7 1.607633 1_545
N3 Rb7 3.148231 1_555
N4 S13 1.603947 1_565
N4 S6 1.604627 1_565
N4 Rb7 3.152344 1_555
N5 S4 1.603947 1_545
N5 S3 1.604627 1_546
N5 Rb4 3.152344 1_555
N6 S11 1.603947 1_545
N6 S15 1.604627 1_545
N6 Rb2 3.152344 1_555
N7 S10 1.603725 1_665
N7 S8 1.607633 1_565
N7 Rb2 3.148231 1_555
O0 S12 1.445504 1_565
O0 Rb3 2.976198 1_555
O1 S4 1.445504 1_545
O1 Rb6 2.976198 1_555
O2 S13 1.456385 1_555
O2 Rb0 3.103157 1_555
O2 Rb7 3.179970 1_555
O3 S3 1.455252 1_555
O3 Rb4 3.052365 1_554
O3 Rb1 3.199796 1_555
O4 S9 1.446620 1_565
O4 Rb0 2.904961 1_555
O5 S6 1.455252 1_555
O5 Rb7 3.052365 1_555
O5 Rb3 3.199796 1_555
O6 S10 1.443979 1_565
O6 Rb7 2.954345 1_555
O7 S15 1.455252 1_555
O7 Rb2 3.052365 1_555
O7 Rb6 3.199796 1_555
O8 S3 1.446620 1_545
O8 Rb1 2.904961 1_555
O9 S11 1.456385 1_555
O9 Rb1 3.103157 1_555
O9 Rb2 3.179970 1_555
O10 S7 1.445435 1_545
O10 Rb0 2.954929 1_555
O11 S5 1.454103 1_555
O11 Rb5 3.095111 1_556
O11 Rb4 3.159377 1_555
O12 S7 1.454894 1_555
O12 Rb0 2.989814 1_555
O12 Rb7 3.193766 1_555
O13 S15 1.446620 1_545
O13 Rb6 2.904961 1_555
O14 S0 1.445435 1_545
O14 Rb3 2.954929 1_555
O15 S10 1.454103 1_555
O15 Rb7 3.095111 1_555
O15 Rb2 3.159377 1_455
O16 S13 1.445504 1_565
O16 Rb0 2.976198 1_555
O17 S14 1.445435 1_565
O17 Rb6 2.954929 1_555
O18 S2 1.443979 1_545
O18 Rb2 2.954345 1_555
O19 S8 1.445435 1_565
O19 Rb1 2.954929 1_555
O20 S1 1.454103 1_555
O20 Rb4 3.095111 1_554
O20 Rb5 3.159377 1_555
O21 S2 1.454103 1_555
O21 Rb2 3.095111 1_555
O21 Rb7 3.159377 1_655
O22 S8 1.454894 1_555
O22 Rb1 2.989814 1_555
O22 Rb2 3.193766 1_555
O23 S6 1.446620 1_565
O23 Rb3 2.904961 1_555
O24 S4 1.456385 1_555
O24 Rb6 3.103157 1_555
O24 Rb4 3.179970 1_555
O25 S9 1.455252 1_555
O25 Rb5 3.052365 1_556
O25 Rb0 3.199796 1_555
O26 S0 1.454894 1_555
O26 Rb3 2.989814 1_555
O26 Rb5 3.193766 1_555
O27 S14 1.454894 1_555
O27 Rb6 2.989814 1_555
O27 Rb4 3.193766 1_555
O28 S5 1.443979 1_565
O28 Rb5 2.954345 1_556
O29 S12 1.456385 1_555
O29 Rb3 3.103157 1_555
O29 Rb5 3.179970 1_555
O30 S11 1.445504 1_545
O30 Rb1 2.976198 1_555
O31 S1 1.443979 1_545
O31 Rb4 2.954345 1_554
F8 Rb0 3.454472 1_555
F10 Rb6 3.090232 1_555
F11 Rb6 3.454472 1_555
F13 Rb1 3.454472 1_555
F23 Rb0 3.090232 1_555
F27 Rb3 3.090232 1_555
F29 Rb1 3.090232 1_555
F31 Rb3 3.454472 1_555
