# generated using pymatgen
data_Nb2SnC
_symmetry_space_group_name_H-M   'P 1'
_cell_length_a   3.28320688
_cell_length_b   3.28320726
_cell_length_c   13.76861158
_cell_angle_alpha   90.00000000
_cell_angle_beta   90.00000000
_cell_angle_gamma   119.99999620
_symmetry_Int_Tables_number   1
_chemical_formula_structural   Nb2SnC
_chemical_formula_sum   'Nb4 Sn2 C2'
_cell_volume   128.53379933
_cell_formula_units_Z   2
loop_
 _symmetry_equiv_pos_site_id
 _symmetry_equiv_pos_as_xyz
  1  'x, y, z'
loop_
 _atom_site_type_symbol
 _atom_site_label
 _atom_site_symmetry_multiplicity
 _atom_site_fract_x
 _atom_site_fract_y
 _atom_site_fract_z
 _atom_site_occupancy
  Nb  Nb0  1  0.33333300  0.66666700  0.08331571  1
  Nb  Nb1  1  0.33333300  0.66666700  0.41668429  1
  Nb  Nb2  1  0.66666700  0.33333300  0.58331571  1
  Nb  Nb3  1  0.66666700  0.33333300  0.91668429  1
  Sn  Sn0  1  0.33333300  0.66666700  0.75000000  1
  Sn  Sn1  1  0.66666700  0.33333300  0.25000000  1
  C  C0  1  0.00000000  0.00000000  -0.00000000  1
  C  C1  1  0.00000000  0.00000000  0.50000000  1
loop_
_geom_bond_atom_site_label_1
_geom_bond_atom_site_label_2
_geom_bond_distance
_geom_bond_site_symmetry_2
Nb0 Sn1 2.976612 1_455
Nb0 Sn1 2.976612 1_565
Nb0 Sn1 2.976616 1_555
Nb1 Sn1 2.976612 1_455
Nb1 Sn1 2.976612 1_565
Nb1 Sn1 2.976616 1_555
Nb2 Sn0 2.976612 1_655
Nb2 Sn0 2.976612 1_545
Nb2 Sn0 2.976616 1_555
Nb3 Sn0 2.976612 1_655
Nb3 Sn0 2.976612 1_545
Nb3 Sn0 2.976616 1_555
C0 Nb0 2.215644 1_545
C0 Nb3 2.215644 1_454
C0 Nb0 2.215646 1_445
C0 Nb3 2.215646 1_554
C0 Nb0 2.215646 1_555
C0 Nb3 2.215646 1_444
C1 Nb1 2.215644 1_545
C1 Nb2 2.215644 1_455
C1 Nb1 2.215646 1_445
C1 Nb2 2.215646 1_555
C1 Nb1 2.215646 1_555
C1 Nb2 2.215646 1_445
