# generated using pymatgen
data_Eu3Sn2S7
_symmetry_space_group_name_H-M   'P 1'
_cell_length_a   3.99393088
_cell_length_b   11.35665319
_cell_length_c   12.62551009
_cell_angle_alpha   90.00000000
_cell_angle_beta   90.00000000
_cell_angle_gamma   90.00000000
_symmetry_Int_Tables_number   1
_chemical_formula_structural   Eu3Sn2S7
_chemical_formula_sum   'Eu6 Sn4 S14'
_cell_volume   572.66394585
_cell_formula_units_Z   2
loop_
 _symmetry_equiv_pos_site_id
 _symmetry_equiv_pos_as_xyz
  1  'x, y, z'
loop_
 _atom_site_type_symbol
 _atom_site_label
 _atom_site_symmetry_multiplicity
 _atom_site_fract_x
 _atom_site_fract_y
 _atom_site_fract_z
 _atom_site_occupancy
  Eu  Eu0  1  0.00000000  0.00000000  0.50000000  1
  Eu  Eu1  1  0.00000000  0.50000000  -0.00000000  1
  Eu  Eu2  1  0.00000000  0.38163829  0.65216157  1
  Eu  Eu3  1  0.00000000  0.61836171  0.34783843  1
  Eu  Eu4  1  -0.00000000  0.88163829  0.84783843  1
  Eu  Eu5  1  0.00000000  0.11836171  0.15216157  1
  Sn  Sn0  1  0.50000000  0.28832733  0.39193709  1
  Sn  Sn1  1  0.50000000  0.71167267  0.60806291  1
  Sn  Sn2  1  0.50000000  0.78832733  0.10806291  1
  Sn  Sn3  1  0.50000000  0.21167267  0.89193709  1
  S  S0  1  0.00000000  0.35568101  0.29057431  1
  S  S1  1  0.00000000  0.64431899  0.70942569  1
  S  S2  1  -0.00000000  0.85568101  0.20942569  1
  S  S3  1  0.00000000  0.14431899  0.79057431  1
  S  S4  1  0.50000000  0.29727672  0.06872447  1
  S  S5  1  0.50000000  0.70272328  0.93127553  1
  S  S6  1  0.50000000  0.79727672  0.43127553  1
  S  S7  1  0.50000000  0.20272328  0.56872447  1
  S  S8  1  0.50000000  0.08311627  0.32154547  1
  S  S9  1  0.50000000  0.91688373  0.67845453  1
  S  S10  1  0.50000000  0.58311627  0.17845453  1
  S  S11  1  0.50000000  0.41688373  0.82154547  1
  S  S12  1  0.50000000  0.00000000  0.00000000  1
  S  S13  1  0.50000000  0.50000000  0.50000000  1
loop_
_geom_bond_atom_site_label_1
_geom_bond_atom_site_label_2
_geom_bond_distance
_geom_bond_site_symmetry_2
Eu0 S9 3.155191 1_445
Eu0 S8 3.155191 1_455
Eu0 S9 3.155191 1_545
Eu0 S8 3.155191 1_555
Eu0 S6 3.168775 1_545
Eu0 S6 3.168775 1_445
Eu0 S7 3.168775 1_555
Eu0 S7 3.168775 1_455
Eu1 S10 3.155191 1_455
Eu1 S10 3.155191 1_555
Eu1 S11 3.155191 1_454
Eu1 S11 3.155191 1_554
Eu1 S4 3.168775 1_555
Eu1 S4 3.168775 1_455
Eu1 S5 3.168775 1_554
Eu1 S5 3.168775 1_454
Eu2 S11 2.953222 1_455
Eu2 S11 2.953222 1_555
Eu2 S7 3.037452 1_555
Eu2 S7 3.037452 1_455
Eu2 S1 3.069534 1_555
Eu2 S13 3.079841 1_555
Eu2 S13 3.079841 1_455
Eu2 S3 3.212120 1_555
Eu3 S10 2.953222 1_555
Eu3 S10 2.953222 1_455
Eu3 S6 3.037452 1_555
Eu3 S6 3.037452 1_455
Eu3 S0 3.069534 1_555
Eu3 S13 3.079841 1_555
Eu3 S13 3.079841 1_455
Eu3 S2 3.212120 1_555
Eu4 S9 2.953222 1_555
Eu4 S9 2.953222 1_455
Eu4 S5 3.037452 1_455
Eu4 S5 3.037452 1_555
Eu4 S3 3.069534 1_565
Eu4 S12 3.079841 1_466
Eu4 S12 3.079841 1_566
Eu4 S1 3.212120 1_555
Eu5 S8 2.953222 1_455
Eu5 S8 2.953222 1_555
Eu5 S4 3.037452 1_455
Eu5 S4 3.037452 1_555
Eu5 S2 3.069534 1_545
Eu5 S12 3.079841 1_455
Eu5 S12 3.079841 1_555
Eu5 S0 3.212120 1_555
S0 Sn0 2.492136 1_555
S0 Sn0 2.492136 1_455
S1 Sn1 2.492136 1_555
S1 Sn1 2.492136 1_455
S2 Sn2 2.492136 1_555
S2 Sn2 2.492136 1_455
S3 Sn3 2.492136 1_555
S3 Sn3 2.492136 1_455
S4 Sn3 2.434561 1_554
S5 Sn2 2.434561 1_556
S6 Sn1 2.434561 1_555
S7 Sn0 2.434561 1_555
S8 Sn0 2.494218 1_555
S9 Sn1 2.494218 1_555
S10 Sn2 2.494218 1_555
S11 Sn3 2.494218 1_555
S12 Sn2 2.764082 1_545
S12 Sn3 2.764082 1_554
S13 Sn1 2.764082 1_555
S13 Sn0 2.764082 1_555
