# generated using pymatgen
data_K2ZnN12
_symmetry_space_group_name_H-M   'P 1'
_cell_length_a   11.37821300
_cell_length_b   11.82166200
_cell_length_c   14.53361700
_cell_angle_alpha   90.00000000
_cell_angle_beta   90.00000000
_cell_angle_gamma   90.00000000
_symmetry_Int_Tables_number   1
_chemical_formula_structural   K2ZnN12
_chemical_formula_sum   'K16 Zn8 N96'
_cell_volume   1954.90793173
_cell_formula_units_Z   8
loop_
 _symmetry_equiv_pos_site_id
 _symmetry_equiv_pos_as_xyz
  1  'x, y, z'
loop_
 _atom_site_type_symbol
 _atom_site_label
 _atom_site_symmetry_multiplicity
 _atom_site_fract_x
 _atom_site_fract_y
 _atom_site_fract_z
 _atom_site_occupancy
  K  K0  1  0.75771000  0.91741000  0.60577100  1
  K  K1  1  0.79838700  0.75070800  0.84346200  1
  K  K2  1  0.20161300  0.24929200  0.15653800  1
  K  K3  1  0.79838700  0.25070800  0.65653800  1
  K  K4  1  0.20161300  0.74929200  0.34346200  1
  K  K5  1  0.74229000  0.91741000  0.10577100  1
  K  K6  1  0.70161300  0.25070800  0.15653800  1
  K  K7  1  0.25771000  0.08259000  0.89422900  1
  K  K8  1  0.70161300  0.75070800  0.34346200  1
  K  K9  1  0.24229000  0.58259000  0.10577100  1
  K  K10  1  0.75771000  0.41741000  0.89422900  1
  K  K11  1  0.25771000  0.58259000  0.60577100  1
  K  K12  1  0.24229000  0.08259000  0.39422900  1
  K  K13  1  0.29838700  0.74929200  0.84346200  1
  K  K14  1  0.74229000  0.41741000  0.39422900  1
  K  K15  1  0.29838700  0.24929200  0.65653800  1
  Zn  Zn0  1  0.75212500  0.07483000  0.88616300  1
  Zn  Zn1  1  0.24787500  0.42517000  0.38616300  1
  Zn  Zn2  1  0.74787500  0.57483000  0.11383700  1
  Zn  Zn3  1  0.25212500  0.42517000  0.88616300  1
  Zn  Zn4  1  0.25212500  0.92517000  0.61383700  1
  Zn  Zn5  1  0.75212500  0.57483000  0.61383700  1
  Zn  Zn6  1  0.24787500  0.92517000  0.11383700  1
  Zn  Zn7  1  0.74787500  0.07483000  0.38616300  1
  N  N0  1  0.45975600  0.98658100  0.70912700  1
  N  N1  1  0.43789200  0.01077900  0.29253300  1
  N  N2  1  0.66037100  0.70511100  0.66731400  1
  N  N3  1  0.04687800  0.21563300  0.31981100  1
  N  N4  1  0.33909000  0.56674200  0.42041300  1
  N  N5  1  0.56111300  0.63386900  0.99005900  1
  N  N6  1  0.04611300  0.91156000  0.41511900  1
  N  N7  1  0.94453400  0.92446800  0.41686300  1
  N  N8  1  0.33309600  0.37092100  0.00272400  1
  N  N9  1  0.05505200  0.79189900  0.67289600  1
  N  N10  1  0.66091000  0.43325800  0.57958700  1
  N  N11  1  0.55505200  0.70810100  0.67289600  1
  N  N12  1  0.44494800  0.79189900  0.17289600  1
  N  N13  1  0.16690400  0.37092100  0.50272400  1
  N  N14  1  0.93888700  0.13386900  0.00994100  1
  N  N15  1  0.05546600  0.07553200  0.58313700  1
  N  N16  1  0.55546600  0.42446800  0.58313700  1
  N  N17  1  0.43888700  0.36613100  0.00994100  1
  N  N18  1  0.05505200  0.29189900  0.82710400  1
  N  N19  1  0.04611300  0.41156000  0.08488100  1
  N  N20  1  0.83309600  0.12907900  0.00272400  1
  N  N21  1  0.45312200  0.71563300  0.68018900  1
  N  N22  1  0.95978700  0.35993000  0.52062000  1
  N  N23  1  0.83909000  0.93325800  0.42041300  1
  N  N24  1  0.85398700  0.01348600  0.78496500  1
  N  N25  1  0.44453400  0.57553200  0.41686300  1
  N  N26  1  0.04021300  0.14007000  0.02062000  1
  N  N27  1  0.95312200  0.78436700  0.68018900  1
  N  N28  1  0.04024400  0.98658100  0.20912700  1
  N  N29  1  0.66690400  0.62907900  0.99727600  1
  N  N30  1  0.64601300  0.01348600  0.28496500  1
  N  N31  1  0.44494800  0.29189900  0.32710400  1
  N  N32  1  0.16037100  0.29488900  0.83268600  1
  N  N33  1  0.35398700  0.98651400  0.71503500  1
  N  N34  1  0.54687800  0.78436700  0.18018900  1
  N  N35  1  0.93789200  0.98922100  0.20746700  1
  N  N36  1  0.66091000  0.93325800  0.92041300  1
  N  N37  1  0.45312200  0.21563300  0.81981100  1
  N  N38  1  0.33962900  0.29488900  0.33268600  1
  N  N39  1  0.83962900  0.20511100  0.33268600  1
  N  N40  1  0.54024400  0.01341900  0.29087300  1
  N  N41  1  0.04687800  0.71563300  0.18018900  1
  N  N42  1  0.95975600  0.51341900  0.70912700  1
  N  N43  1  0.54611300  0.08844000  0.08488100  1
  N  N44  1  0.43789200  0.51077900  0.20746700  1
  N  N45  1  0.56111300  0.13386900  0.50994100  1
  N  N46  1  0.35398700  0.48651400  0.78496500  1
  N  N47  1  0.05546600  0.57553200  0.91686300  1
  N  N48  1  0.54021300  0.85993000  0.47938000  1
  N  N49  1  0.04024400  0.48658100  0.29087300  1
  N  N50  1  0.95978700  0.85993000  0.97938000  1
  N  N51  1  0.95388700  0.08844000  0.58488100  1
  N  N52  1  0.66690400  0.12907900  0.50272400  1
  N  N53  1  0.45388700  0.41156000  0.58488100  1
  N  N54  1  0.83309600  0.62907900  0.49727600  1
  N  N55  1  0.33309600  0.87092100  0.49727600  1
  N  N56  1  0.94494800  0.20810100  0.32710400  1
  N  N57  1  0.45388700  0.91156000  0.91511900  1
  N  N58  1  0.06210800  0.01077900  0.79253300  1
  N  N59  1  0.56210800  0.48922100  0.79253300  1
  N  N60  1  0.16091000  0.06674200  0.57958700  1
  N  N61  1  0.16690400  0.87092100  0.99727600  1
  N  N62  1  0.06111300  0.36613100  0.50994100  1
  N  N63  1  0.54021300  0.35993000  0.02062000  1
  N  N64  1  0.16091000  0.56674200  0.92041300  1
  N  N65  1  0.83962900  0.70511100  0.16731400  1
  N  N66  1  0.93789200  0.48922100  0.29253300  1
  N  N67  1  0.85398700  0.51348600  0.71503500  1
  N  N68  1  0.56210800  0.98922100  0.70746700  1
  N  N69  1  0.33909000  0.06674200  0.07958700  1
  N  N70  1  0.95312200  0.28436700  0.81981100  1
  N  N71  1  0.45978700  0.64007000  0.97938000  1
  N  N72  1  0.16037100  0.79488900  0.66731400  1
  N  N73  1  0.45978700  0.14007000  0.52062000  1
  N  N74  1  0.95388700  0.58844000  0.91511900  1
  N  N75  1  0.04021300  0.64007000  0.47938000  1
  N  N76  1  0.06111300  0.86613100  0.99005900  1
  N  N77  1  0.66037100  0.20511100  0.83268600  1
  N  N78  1  0.54687800  0.28436700  0.31981100  1
  N  N79  1  0.94453400  0.42446800  0.08313700  1
  N  N80  1  0.14601300  0.98651400  0.21503500  1
  N  N81  1  0.55546600  0.92446800  0.91686300  1
  N  N82  1  0.06210800  0.51077900  0.70746700  1
  N  N83  1  0.45975600  0.48658100  0.79087300  1
  N  N84  1  0.44453400  0.07553200  0.08313700  1
  N  N85  1  0.83909000  0.43325800  0.07958700  1
  N  N86  1  0.33962900  0.79488900  0.16731400  1
  N  N87  1  0.94494800  0.70810100  0.17289600  1
  N  N88  1  0.14601300  0.48651400  0.28496500  1
  N  N89  1  0.95975600  0.01341900  0.79087300  1
  N  N90  1  0.54024400  0.51341900  0.20912700  1
  N  N91  1  0.43888700  0.86613100  0.49005900  1
  N  N92  1  0.64601300  0.51348600  0.21503500  1
  N  N93  1  0.55505200  0.20810100  0.82710400  1
  N  N94  1  0.54611300  0.58844000  0.41511900  1
  N  N95  1  0.93888700  0.63386900  0.49005900  1
loop_
_geom_bond_atom_site_label_1
_geom_bond_atom_site_label_2
_geom_bond_distance
_geom_bond_site_symmetry_2
K0 N68 2.803300 1_555
K0 N23 2.854771 1_555
K0 N2 2.885379 1_555
K0 N27 2.930380 1_555
K0 N51 3.026971 1_565
K0 N24 3.045094 1_565
K0 N52 3.093843 1_565
K0 N48 3.155991 1_555
K1 N74 2.809776 1_555
K1 N36 2.890463 1_555
K1 N27 2.981434 1_555
K1 N50 2.990286 1_555
K1 N29 3.050068 1_555
K1 N2 3.051324 1_555
K1 N24 3.282253 1_565
K1 N67 3.427608 1_555
K2 N19 2.809776 1_555
K2 N69 2.890463 1_555
K2 N3 2.981434 1_555
K2 N26 2.990286 1_555
K2 N8 3.050068 1_555
K2 N38 3.051324 1_555
K2 N80 3.282253 1_545
K2 N88 3.427608 1_555
K3 N51 2.809776 1_555
K3 N10 2.890463 1_555
K3 N70 2.981434 1_555
K3 N22 2.990286 1_555
K3 N52 3.050068 1_555
K3 N77 3.051324 1_555
K3 N67 3.282253 1_555
K3 N24 3.427608 1_555
K4 N6 2.809776 1_555
K4 N4 2.890463 1_555
K4 N41 2.981434 1_555
K4 N75 2.990286 1_555
K4 N55 3.050068 1_555
K4 N86 3.051324 1_555
K4 N88 3.282253 1_555
K4 N80 3.427608 1_555
K5 N35 2.803300 1_555
K5 N36 2.854771 1_554
K5 N65 2.885379 1_555
K5 N34 2.930380 1_555
K5 N43 3.026971 1_565
K5 N30 3.045094 1_565
K5 N20 3.093843 1_565
K5 N50 3.155991 1_554
K6 N43 2.809776 1_555
K6 N85 2.890463 1_555
K6 N78 2.981434 1_555
K6 N63 2.990286 1_555
K6 N20 3.050068 1_555
K6 N39 3.051324 1_555
K6 N92 3.282253 1_555
K6 N30 3.427608 1_555
K7 N58 2.803300 1_555
K7 N69 2.854771 1_556
K7 N32 2.885379 1_555
K7 N37 2.930380 1_555
K7 N57 3.026971 1_545
K7 N33 3.045094 1_545
K7 N61 3.093843 1_545
K7 N26 3.155991 1_556
K8 N94 2.809776 1_555
K8 N23 2.890463 1_555
K8 N34 2.981434 1_555
K8 N48 2.990286 1_555
K8 N54 3.050068 1_555
K8 N65 3.051324 1_555
K8 N30 3.282253 1_565
K8 N92 3.427608 1_555
K9 N44 2.803300 1_555
K9 N64 2.854771 1_554
K9 N86 2.885379 1_555
K9 N41 2.930380 1_555
K9 N19 3.026971 1_555
K9 N88 3.045094 1_555
K9 N8 3.093843 1_555
K9 N71 3.155991 1_554
K10 N59 2.803300 1_555
K10 N85 2.854771 1_556
K10 N77 2.885379 1_555
K10 N70 2.930380 1_555
K10 N74 3.026971 1_555
K10 N67 3.045094 1_555
K10 N29 3.093843 1_555
K10 N63 3.155991 1_556
K11 N82 2.803300 1_555
K11 N4 2.854771 1_555
K11 N72 2.885379 1_555
K11 N21 2.930380 1_555
K11 N53 3.026971 1_555
K11 N46 3.045094 1_555
K11 N13 3.093843 1_555
K11 N75 3.155991 1_555
K12 N1 2.803300 1_555
K12 N60 2.854771 1_555
K12 N38 2.885379 1_555
K12 N3 2.930380 1_555
K12 N6 3.026971 1_545
K12 N80 3.045094 1_545
K12 N55 3.093843 1_545
K12 N73 3.155991 1_555
K13 N57 2.809776 1_555
K13 N64 2.890463 1_555
K13 N21 2.981434 1_555
K13 N71 2.990286 1_555
K13 N61 3.050068 1_555
K13 N72 3.051324 1_555
K13 N46 3.282253 1_555
K13 N33 3.427608 1_555
K14 N66 2.803300 1_555
K14 N10 2.854771 1_555
K14 N39 2.885379 1_555
K14 N78 2.930380 1_555
K14 N94 3.026971 1_555
K14 N92 3.045094 1_555
K14 N54 3.093843 1_555
K14 N22 3.155991 1_555
K15 N53 2.809776 1_555
K15 N60 2.890463 1_555
K15 N37 2.981434 1_555
K15 N73 2.990286 1_555
K15 N13 3.050068 1_555
K15 N32 3.051324 1_555
K15 N33 3.282253 1_545
K15 N46 3.427608 1_555
N0 N68 1.165251 1_555
N0 N33 1.206522 1_555
N1 N40 1.165251 1_555
N2 Zn5 2.016436 1_555
N3 N56 1.168013 1_455
N4 Zn1 2.031240 1_555
N5 N71 1.165616 1_555
N6 N7 1.166093 1_455
N8 Zn3 2.032216 1_554
N10 N16 1.205361 1_555
N10 Zn5 2.031240 1_555
N11 N21 1.168013 1_555
N11 N2 1.201605 1_555
N12 N34 1.168013 1_555
N12 N86 1.201605 1_555
N13 N62 1.209600 1_555
N13 Zn1 2.032216 1_555
N14 N26 1.165616 1_655
N14 N20 1.209600 1_555
N15 N51 1.166093 1_455
N15 N60 1.205361 1_555
N16 N53 1.166093 1_555
N17 N63 1.165616 1_555
N17 N8 1.209600 1_555
N18 N70 1.168013 1_455
N18 N32 1.201605 1_555
N19 N79 1.166093 1_455
N20 Zn0 2.032216 1_554
N22 N62 1.165616 1_655
N23 N7 1.205361 1_555
N23 Zn7 2.031240 1_565
N24 N89 1.206522 1_555
N24 Zn0 2.008076 1_555
N25 N94 1.166093 1_555
N25 N4 1.205361 1_555
N27 N9 1.168013 1_655
N28 N35 1.165251 1_455
N28 N80 1.206522 1_555
N29 N5 1.209600 1_555
N29 Zn2 2.032216 1_556
N30 N40 1.206522 1_555
N30 Zn7 2.008076 1_555
N31 N78 1.168013 1_555
N31 N38 1.201605 1_555
N32 Zn3 2.016436 1_555
N33 Zn4 2.008076 1_555
N36 N81 1.205361 1_555
N36 Zn0 2.031240 1_565
N37 N93 1.168013 1_555
N38 Zn1 2.016436 1_555
N39 N56 1.201605 1_555
N39 Zn7 2.016436 1_555
N41 N87 1.168013 1_455
N42 N82 1.165251 1_655
N42 N67 1.206522 1_555
N43 N84 1.166093 1_555
N44 N90 1.165251 1_555
N45 N73 1.165616 1_555
N45 N52 1.209600 1_555
N46 N83 1.206522 1_555
N46 Zn3 2.008076 1_555
N47 N74 1.166093 1_455
N47 N64 1.205361 1_555
N48 N91 1.165616 1_555
N49 N66 1.165251 1_455
N49 N88 1.206522 1_555
N50 N76 1.165616 1_655
N52 Zn7 2.032216 1_555
N54 N95 1.209600 1_555
N54 Zn5 2.032216 1_555
N55 N91 1.209600 1_555
N55 Zn4 2.032216 1_555
N57 N81 1.166093 1_555
N58 N89 1.165251 1_455
N59 N83 1.165251 1_555
N60 Zn4 2.031240 1_545
N61 N76 1.209600 1_555
N61 Zn6 2.032216 1_556
N64 Zn3 2.031240 1_555
N65 N87 1.201605 1_555
N65 Zn2 2.016436 1_555
N67 Zn5 2.008076 1_555
N69 N84 1.205361 1_555
N69 Zn6 2.031240 1_545
N72 N9 1.201605 1_555
N72 Zn4 2.016436 1_555
N75 N95 1.165616 1_455
N77 N93 1.201605 1_555
N77 Zn0 2.016436 1_555
N79 N85 1.205361 1_555
N80 Zn6 2.008076 1_555
N85 Zn2 2.031240 1_555
N86 Zn6 2.016436 1_555
N88 Zn1 2.008076 1_555
N90 N92 1.206522 1_555
N92 Zn2 2.008076 1_555
