# generated using pymatgen
data_CsV2I3O13
_symmetry_space_group_name_H-M   'P 1'
_cell_length_a   8.21641000
_cell_length_b   9.72598166
_cell_length_c   9.72598166
_cell_angle_alpha   66.73615743
_cell_angle_beta   65.01412019
_cell_angle_gamma   65.01412019
_symmetry_Int_Tables_number   1
_chemical_formula_structural   CsV2I3O13
_chemical_formula_sum   'Cs2 V4 I6 O26'
_cell_volume   615.97773346
_cell_formula_units_Z   2
loop_
 _symmetry_equiv_pos_site_id
 _symmetry_equiv_pos_as_xyz
  1  'x, y, z'
loop_
 _atom_site_type_symbol
 _atom_site_label
 _atom_site_symmetry_multiplicity
 _atom_site_fract_x
 _atom_site_fract_y
 _atom_site_fract_z
 _atom_site_occupancy
  Cs  Cs0  1  0.62161100  0.85908500  0.64091500  1
  Cs  Cs1  1  0.12161100  0.14091500  0.35908500  1
  V  V0  1  0.75105000  0.11003300  0.14707500  1
  V  V1  1  0.25105000  0.64707500  0.61003300  1
  V  V2  1  0.00815700  0.88996800  0.85292500  1
  V  V3  1  0.50815700  0.35292500  0.38996700  1
  I  I0  1  0.11438400  0.23621000  0.75021200  1
  I  I1  1  0.60080600  0.74978800  0.26379000  1
  I  I2  1  0.61438400  0.25021200  0.73621000  1
  I  I3  1  0.89786700  0.52385900  0.97614100  1
  I  I4  1  0.39786700  0.47614100  0.02385900  1
  I  I5  1  0.10080600  0.76379000  0.24978800  1
  O  O0  1  0.44281100  0.14643700  0.81236000  1
  O  O1  1  0.20730600  0.73842500  0.76157500  1
  O  O2  1  0.90160800  0.68764000  0.35356300  1
  O  O3  1  0.46971500  0.72362600  0.48252000  1
  O  O4  1  0.69077300  0.58169200  0.91830800  1
  O  O5  1  0.34239100  0.50000000  0.50000000  1
  O  O6  1  0.59821200  0.01976400  0.28029800  1
  O  O7  1  0.37001000  0.47726900  0.22657300  1
  O  O8  1  0.96971500  0.98251900  0.22362700  1
  O  O9  1  0.89827400  0.98023600  0.71970100  1
  O  O10  1  0.94281100  0.31236000  0.64643700  1
  O  O11  1  0.66354900  0.54711200  0.25319900  1
  O  O12  1  0.96386000  0.24680200  0.95288700  1
  O  O13  1  0.40160800  0.85356200  0.18764000  1
  O  O14  1  0.19077300  0.41830800  0.08169200  1
  O  O15  1  0.07385200  0.52273100  0.77342700  1
  O  O16  1  0.16354900  0.75319800  0.04711300  1
  O  O17  1  0.70730600  0.26157500  0.23842500  1
  O  O18  1  0.17586100  0.01748000  0.77637300  1
  O  O19  1  0.57385200  0.27342700  0.02273100  1
  O  O20  1  0.09821200  0.78029800  0.51976400  1
  O  O21  1  0.39827400  0.21970100  0.48023600  1
  O  O22  1  0.67586100  0.27637300  0.51748000  1
  O  O23  1  0.46386000  0.45288800  0.74680100  1
  O  O24  1  0.87001000  0.72657300  0.97726900  1
  O  O25  1  0.84239100  0.00000000  0.00000000  1
loop_
_geom_bond_atom_site_label_1
_geom_bond_atom_site_label_2
_geom_bond_distance
_geom_bond_site_symmetry_2
Cs0 O4 3.021710 1_555
Cs0 O18 3.206739 1_565
Cs0 O3 3.206741 1_555
Cs0 O21 3.281276 1_565
Cs0 O6 3.281282 1_565
Cs0 O0 3.300417 1_565
Cs0 O2 3.300417 1_555
Cs0 O9 3.404475 1_555
Cs0 O20 3.404482 1_655
Cs1 O14 3.021710 1_555
Cs1 O22 3.206739 1_455
Cs1 O8 3.206741 1_445
Cs1 O9 3.281276 1_445
Cs1 O20 3.281282 1_545
Cs1 O10 3.300417 1_455
Cs1 O13 3.300424 1_545
Cs1 O21 3.404475 1_555
Cs1 O6 3.404482 1_555
I0 O10 1.812187 1_455
I0 O12 1.849088 1_455
I0 O18 1.902306 1_555
I1 O13 1.812187 1_555
I1 O11 1.849094 1_555
I1 O3 1.902304 1_555
I2 O0 1.812187 1_555
I2 O23 1.849094 1_555
I2 O22 1.902306 1_555
I3 O4 1.810577 1_555
I3 O24 1.890351 1_555
I3 O15 1.890351 1_655
I3 O12 2.598037 1_555
I3 O11 2.598042 1_556
I3 O14 2.658414 1_656
I4 O14 1.810577 1_555
I4 O19 1.890351 1_555
I4 O7 1.890351 1_555
I4 O16 2.598037 1_555
I4 O23 2.598042 1_554
I4 O4 2.658414 1_554
I5 O2 1.812187 1_455
I5 O16 1.849088 1_555
I5 O8 1.902297 1_455
O1 V1 1.846092 1_555
O1 V2 1.846100 1_555
O3 V1 1.959242 1_555
O5 V3 1.838079 1_555
O5 V1 1.838081 1_555
O6 V0 1.638558 1_555
O7 V3 2.030379 1_555
O8 V0 1.959248 1_565
O9 V2 1.638561 1_655
O11 V3 2.363135 1_555
O12 V0 2.363137 1_556
O15 V1 2.030385 1_555
O16 V2 2.363143 1_554
O17 V0 1.846092 1_555
O17 V3 1.846094 1_555
O18 V2 1.959239 1_545
O19 V0 2.030385 1_555
O20 V1 1.638558 1_555
O21 V3 1.638561 1_555
O22 V3 1.959247 1_555
O23 V1 2.363129 1_555
O24 V2 2.030387 1_655
O25 V2 1.838074 1_644
O25 V0 1.838081 1_555
