# generated using pymatgen
data_In2Si2Pb2O9
_symmetry_space_group_name_H-M   'P 1'
_cell_length_a   7.12648300
_cell_length_b   10.72244400
_cell_length_c   11.61452600
_cell_angle_alpha   90.00000000
_cell_angle_beta   90.00000000
_cell_angle_gamma   90.00000000
_symmetry_Int_Tables_number   1
_chemical_formula_structural   In2Si2Pb2O9
_chemical_formula_sum   'In8 Si8 Pb8 O36'
_cell_volume   887.50443247
_cell_formula_units_Z   4
loop_
 _symmetry_equiv_pos_site_id
 _symmetry_equiv_pos_as_xyz
  1  'x, y, z'
loop_
 _atom_site_type_symbol
 _atom_site_label
 _atom_site_symmetry_multiplicity
 _atom_site_fract_x
 _atom_site_fract_y
 _atom_site_fract_z
 _atom_site_occupancy
  In  In0  1  0.21018600  0.49896800  0.25058500  1
  In  In1  1  0.71018600  0.50103200  0.74941500  1
  In  In2  1  0.71018600  0.00103200  0.75058500  1
  In  In3  1  0.21018600  0.99896800  0.24941500  1
  In  In4  1  0.23248600  0.24949700  0.08860100  1
  In  In5  1  0.73248600  0.75050300  0.91139900  1
  In  In6  1  0.73248600  0.25050300  0.58860100  1
  In  In7  1  0.23248600  0.74949700  0.41139900  1
  Si  Si0  1  0.49218200  0.24955300  0.34082800  1
  Si  Si1  1  0.99218200  0.75044700  0.65917200  1
  Si  Si2  1  0.99218200  0.25044700  0.84082800  1
  Si  Si3  1  0.49218200  0.74955300  0.15917200  1
  Si  Si4  1  0.92283100  0.24431300  0.33072900  1
  Si  Si5  1  0.42283100  0.75568700  0.66927100  1
  Si  Si6  1  0.42283100  0.25568700  0.83072900  1
  Si  Si7  1  0.92283100  0.74431300  0.16927100  1
  Pb  Pb0  1  0.26685100  0.45659400  0.56517300  1
  Pb  Pb1  1  0.76685100  0.54340600  0.43482700  1
  Pb  Pb2  1  0.76685100  0.04340600  0.06517300  1
  Pb  Pb3  1  0.26685100  0.95659400  0.93482700  1
  Pb  Pb4  1  0.25376300  0.05809700  0.54494100  1
  Pb  Pb5  1  0.75376300  0.94190300  0.45505900  1
  Pb  Pb6  1  0.75376300  0.44190300  0.04494100  1
  Pb  Pb7  1  0.25376300  0.55809700  0.95505900  1
  O  O0  1  0.33928600  0.06641700  0.09678900  1
  O  O1  1  0.83928600  0.93358300  0.90321100  1
  O  O2  1  0.83928600  0.43358300  0.59678900  1
  O  O3  1  0.33928600  0.56641700  0.40321100  1
  O  O4  1  0.38129000  0.32981100  0.24193300  1
  O  O5  1  0.88129000  0.67018900  0.75806700  1
  O  O6  1  0.88129000  0.17018900  0.74193300  1
  O  O7  1  0.38129000  0.82981100  0.25806700  1
  O  O8  1  0.11024900  0.42988300  0.08838200  1
  O  O9  1  0.61024900  0.57011700  0.91161800  1
  O  O10  1  0.61024900  0.07011700  0.58838200  1
  O  O11  1  0.11024900  0.92988300  0.41161800  1
  O  O12  1  0.51890500  0.32643900  0.46295600  1
  O  O13  1  0.01890500  0.67356100  0.53704400  1
  O  O14  1  0.01890500  0.17356100  0.96295600  1
  O  O15  1  0.51890500  0.82643900  0.03704400  1
  O  O16  1  0.04169300  0.17109800  0.23004000  1
  O  O17  1  0.54169300  0.82890200  0.76996000  1
  O  O18  1  0.54169300  0.32890200  0.73004000  1
  O  O19  1  0.04169300  0.67109800  0.26996000  1
  O  O20  1  0.70310500  0.22477500  0.28594700  1
  O  O21  1  0.20310500  0.77522500  0.71405300  1
  O  O22  1  0.20310500  0.27522500  0.78594700  1
  O  O23  1  0.70310500  0.72477500  0.21405300  1
  O  O24  1  0.39079700  0.11422500  0.36692800  1
  O  O25  1  0.89079700  0.88577500  0.63307200  1
  O  O26  1  0.89079700  0.38577500  0.86692800  1
  O  O27  1  0.39079700  0.61422500  0.13307200  1
  O  O28  1  0.97419600  0.39468000  0.33918300  1
  O  O29  1  0.47419600  0.60532000  0.66081700  1
  O  O30  1  0.47419600  0.10532000  0.83918300  1
  O  O31  1  0.97419600  0.89468000  0.16081700  1
  O  O32  1  0.93771800  0.17871000  0.45907100  1
  O  O33  1  0.43771800  0.82129000  0.54092900  1
  O  O34  1  0.43771800  0.32129000  0.95907100  1
  O  O35  1  0.93771800  0.67871000  0.04092900  1
loop_
_geom_bond_atom_site_label_1
_geom_bond_atom_site_label_2
_geom_bond_distance
_geom_bond_site_symmetry_2
In0 O3 2.124120 1_555
In0 O8 2.145944 1_555
In0 O4 2.187863 1_555
In0 O19 2.213348 1_555
In0 O27 2.246511 1_555
In0 O28 2.266647 1_455
In1 O2 2.124120 1_555
In1 O9 2.145944 1_555
In1 O5 2.187863 1_555
In1 O18 2.213348 1_555
In1 O26 2.246511 1_555
In1 O29 2.266647 1_555
In2 O1 2.124120 1_545
In2 O10 2.145944 1_555
In2 O6 2.187863 1_555
In2 O17 2.213348 1_545
In2 O25 2.246511 1_545
In2 O30 2.266647 1_555
In3 O0 2.124120 1_565
In3 O11 2.145944 1_555
In3 O7 2.187863 1_555
In3 O16 2.213348 1_565
In3 O24 2.246511 1_565
In3 O31 2.266647 1_455
In4 O0 2.107594 1_555
In4 O8 2.121298 1_555
In4 O34 2.234959 1_554
In4 O4 2.244478 1_555
In4 O14 2.260368 1_554
In4 O16 2.292163 1_555
In5 O1 2.107594 1_555
In5 O9 2.121298 1_555
In5 O35 2.234959 1_556
In5 O5 2.244478 1_555
In5 O15 2.260368 1_556
In5 O17 2.292163 1_555
In6 O2 2.107594 1_555
In6 O10 2.121298 1_555
In6 O32 2.234959 1_555
In6 O6 2.244478 1_555
In6 O12 2.260368 1_555
In6 O18 2.292163 1_555
In7 O3 2.107594 1_555
In7 O11 2.121298 1_555
In7 O33 2.234959 1_555
In7 O7 2.244478 1_555
In7 O13 2.260368 1_555
In7 O19 2.292163 1_555
O0 Pb3 2.278536 1_544
O1 Pb2 2.278536 1_566
O2 Pb1 2.278536 1_555
O3 Pb0 2.278536 1_555
O4 Si0 1.638419 1_555
O5 Si1 1.638419 1_555
O6 Si2 1.638419 1_555
O7 Si3 1.638419 1_555
O8 Pb7 2.309503 1_554
O8 Pb6 2.593314 1_455
O9 Pb6 2.309503 1_556
O9 Pb7 2.593314 1_555
O10 Pb5 2.309503 1_545
O10 Pb4 2.593314 1_555
O11 Pb4 2.309503 1_565
O11 Pb5 2.593314 1_455
O12 Si0 1.651647 1_555
O12 Pb0 2.565860 1_555
O13 Si1 1.651647 1_455
O13 Pb1 2.565860 1_455
O14 Si2 1.651647 1_455
O14 Pb2 2.565860 1_456
O15 Si3 1.651647 1_555
O15 Pb3 2.565860 1_554
O16 Si4 1.643607 1_455
O17 Si5 1.643607 1_555
O18 Si6 1.643607 1_555
O19 Si7 1.643607 1_455
O20 Si0 1.654181 1_555
O20 Si4 1.663242 1_555
O21 Si1 1.654181 1_455
O21 Si5 1.663242 1_555
O22 Si2 1.654181 1_455
O22 Si6 1.663242 1_555
O23 Si3 1.654181 1_555
O23 Si7 1.663242 1_555
O24 Si0 1.649080 1_555
O24 Pb4 2.364444 1_555
O25 Si1 1.649080 1_555
O25 Pb5 2.364444 1_555
O26 Si2 1.649080 1_555
O26 Pb6 2.364444 1_556
O27 Si3 1.649080 1_555
O27 Pb7 2.364444 1_554
O28 Si4 1.656246 1_555
O28 Pb1 2.441417 1_555
O29 Si5 1.656246 1_555
O29 Pb0 2.441417 1_555
O30 Si6 1.656246 1_555
O30 Pb3 2.441417 1_545
O31 Si7 1.656246 1_555
O31 Pb2 2.441417 1_565
O32 Si4 1.651679 1_555
O32 Pb4 2.782091 1_655
O32 Pb5 2.857980 1_545
O33 Si5 1.651679 1_555
O33 Pb5 2.782091 1_555
O33 Pb4 2.857980 1_565
O34 Si6 1.651679 1_555
O34 Pb6 2.782091 1_556
O34 Pb7 2.857980 1_555
O35 Si7 1.651679 1_555
O35 Pb7 2.782091 1_654
O35 Pb6 2.857980 1_555
