# generated using pymatgen
data_Tm2Pd2Pb
_symmetry_space_group_name_H-M   'P 1'
_cell_length_a   15.53045532
_cell_length_b   15.53045532
_cell_length_c   7.14455888
_cell_angle_alpha   90.00000000
_cell_angle_beta   90.00000000
_cell_angle_gamma   90.00000000
_symmetry_Int_Tables_number   1
_chemical_formula_structural   Tm2Pd2Pb
_chemical_formula_sum   'Tm32 Pd32 Pb16'
_cell_volume   1723.23218232
_cell_formula_units_Z   16
loop_
 _symmetry_equiv_pos_site_id
 _symmetry_equiv_pos_as_xyz
  1  'x, y, z'
loop_
 _atom_site_type_symbol
 _atom_site_label
 _atom_site_symmetry_multiplicity
 _atom_site_fract_x
 _atom_site_fract_y
 _atom_site_fract_z
 _atom_site_occupancy
  Tm  Tm0_0  1  0.16492304  0.41492304  0.25000000  1
  Tm  Tm0_1  1  0.16492304  0.41492304  0.75000000  1
  Tm  Tm0_2  1  0.16492304  0.91492304  0.25000000  1
  Tm  Tm0_3  1  0.16492304  0.91492304  0.75000000  1
  Tm  Tm0_4  1  0.66492304  0.41492304  0.25000000  1
  Tm  Tm0_5  1  0.66492304  0.41492304  0.75000000  1
  Tm  Tm0_6  1  0.66492304  0.91492304  0.25000000  1
  Tm  Tm0_7  1  0.66492304  0.91492304  0.75000000  1
  Tm  Tm1_0  1  0.33507696  0.08507695  0.25000000  1
  Tm  Tm1_1  1  0.33507696  0.08507695  0.75000000  1
  Tm  Tm1_2  1  0.33507696  0.58507696  0.25000000  1
  Tm  Tm1_3  1  0.33507696  0.58507696  0.75000000  1
  Tm  Tm1_4  1  0.83507696  0.08507695  0.25000000  1
  Tm  Tm1_5  1  0.83507696  0.08507695  0.75000000  1
  Tm  Tm1_6  1  0.83507696  0.58507696  0.25000000  1
  Tm  Tm1_7  1  0.83507696  0.58507696  0.75000000  1
  Tm  Tm2_0  1  0.08507695  0.16492304  0.25000000  1
  Tm  Tm2_1  1  0.08507695  0.16492304  0.75000000  1
  Tm  Tm2_2  1  0.08507695  0.66492304  0.25000000  1
  Tm  Tm2_3  1  0.08507695  0.66492304  0.75000000  1
  Tm  Tm2_4  1  0.58507696  0.16492304  0.25000000  1
  Tm  Tm2_5  1  0.58507696  0.16492304  0.75000000  1
  Tm  Tm2_6  1  0.58507696  0.66492304  0.25000000  1
  Tm  Tm2_7  1  0.58507696  0.66492304  0.75000000  1
  Tm  Tm3_0  1  0.41492304  0.33507696  0.25000000  1
  Tm  Tm3_1  1  0.41492304  0.33507696  0.75000000  1
  Tm  Tm3_2  1  0.41492304  0.83507696  0.25000000  1
  Tm  Tm3_3  1  0.41492304  0.83507696  0.75000000  1
  Tm  Tm3_4  1  0.91492304  0.33507696  0.25000000  1
  Tm  Tm3_5  1  0.91492304  0.33507696  0.75000000  1
  Tm  Tm3_6  1  0.91492304  0.83507696  0.25000000  1
  Tm  Tm3_7  1  0.91492304  0.83507696  0.75000000  1
  Pd  Pd0_0  1  0.43703662  0.18703662  0.00000000  1
  Pd  Pd0_1  1  0.43703662  0.18703662  0.50000000  1
  Pd  Pd0_2  1  0.43703662  0.68703662  0.00000000  1
  Pd  Pd0_3  1  0.43703662  0.68703662  0.50000000  1
  Pd  Pd0_4  1  0.93703662  0.18703662  0.00000000  1
  Pd  Pd0_5  1  0.93703662  0.18703662  0.50000000  1
  Pd  Pd0_6  1  0.93703662  0.68703662  0.00000000  1
  Pd  Pd0_7  1  0.93703662  0.68703662  0.50000000  1
  Pd  Pd1_0  1  0.31296338  0.43703662  0.00000000  1
  Pd  Pd1_1  1  0.31296338  0.43703662  0.50000000  1
  Pd  Pd1_2  1  0.31296338  0.93703662  0.00000000  1
  Pd  Pd1_3  1  0.31296338  0.93703662  0.50000000  1
  Pd  Pd1_4  1  0.81296338  0.43703662  0.00000000  1
  Pd  Pd1_5  1  0.81296338  0.43703662  0.50000000  1
  Pd  Pd1_6  1  0.81296338  0.93703662  0.00000000  1
  Pd  Pd1_7  1  0.81296338  0.93703662  0.50000000  1
  Pd  Pd2_0  1  0.18703662  0.06296338  0.00000000  1
  Pd  Pd2_1  1  0.18703662  0.06296338  0.50000000  1
  Pd  Pd2_2  1  0.18703662  0.56296338  0.00000000  1
  Pd  Pd2_3  1  0.18703662  0.56296338  0.50000000  1
  Pd  Pd2_4  1  0.68703662  0.06296338  0.00000000  1
  Pd  Pd2_5  1  0.68703662  0.06296338  0.50000000  1
  Pd  Pd2_6  1  0.68703662  0.56296338  0.00000000  1
  Pd  Pd2_7  1  0.68703662  0.56296338  0.50000000  1
  Pd  Pd3_0  1  0.06296338  0.31296338  0.00000000  1
  Pd  Pd3_1  1  0.06296338  0.31296338  0.50000000  1
  Pd  Pd3_2  1  0.06296338  0.81296338  0.00000000  1
  Pd  Pd3_3  1  0.06296338  0.81296338  0.50000000  1
  Pd  Pd3_4  1  0.56296338  0.31296338  0.00000000  1
  Pd  Pd3_5  1  0.56296338  0.31296338  0.50000000  1
  Pd  Pd3_6  1  0.56296338  0.81296338  0.00000000  1
  Pd  Pd3_7  1  0.56296338  0.81296338  0.50000000  1
  Pb  Pb0_0  1  0.25000000  0.25000000  0.00000000  1
  Pb  Pb0_1  1  0.25000000  0.25000000  0.50000000  1
  Pb  Pb0_2  1  0.25000000  0.75000000  0.00000000  1
  Pb  Pb0_3  1  0.25000000  0.75000000  0.50000000  1
  Pb  Pb0_4  1  0.75000000  0.25000000  0.00000000  1
  Pb  Pb0_5  1  0.75000000  0.25000000  0.50000000  1
  Pb  Pb0_6  1  0.75000000  0.75000000  0.00000000  1
  Pb  Pb0_7  1  0.75000000  0.75000000  0.50000000  1
  Pb  Pb1_0  1  0.00000000  0.00000000  0.00000000  1
  Pb  Pb1_1  1  0.00000000  0.00000000  0.50000000  1
  Pb  Pb1_2  1  0.00000000  0.50000000  0.00000000  1
  Pb  Pb1_3  1  0.00000000  0.50000000  0.50000000  1
  Pb  Pb1_4  1  0.50000000  0.00000000  0.00000000  1
  Pb  Pb1_5  1  0.50000000  0.00000000  0.50000000  1
  Pb  Pb1_6  1  0.50000000  0.50000000  0.00000000  1
  Pb  Pb1_7  1  0.50000000  0.50000000  0.50000000  1
loop_
_geom_bond_atom_site_label_1
_geom_bond_atom_site_label_2
_geom_bond_distance
_geom_bond_site_symmetry_2
Pd0_0 Pd3_4 2.765777 1_555
Pd0_0 Tm1_1 2.864457 1_554
Pd0_0 Tm1_0 2.864457 1_555
Pd0_0 Tm3_1 2.931597 1_554
Pd0_0 Tm3_0 2.931597 1_555
Pd0_0 Tm2_5 2.931597 1_554
Pd0_0 Tm2_4 2.931597 1_555
Pd0_1 Pd3_5 2.765777 1_555
Pd0_1 Tm1_0 2.864457 1_555
Pd0_1 Tm1_1 2.864457 1_555
Pd0_1 Tm3_0 2.931597 1_555
Pd0_1 Tm3_1 2.931597 1_555
Pd0_1 Tm2_4 2.931597 1_555
Pd0_1 Tm2_5 2.931597 1_555
Pd0_2 Pd3_6 2.765777 1_555
Pd0_2 Tm1_3 2.864457 1_554
Pd0_2 Tm1_2 2.864457 1_555
Pd0_2 Tm3_3 2.931597 1_554
Pd0_2 Tm3_2 2.931597 1_555
Pd0_2 Tm2_7 2.931597 1_554
Pd0_2 Tm2_6 2.931597 1_555
Pd0_3 Pd3_7 2.765777 1_555
Pd0_3 Tm1_2 2.864457 1_555
Pd0_3 Tm1_3 2.864457 1_555
Pd0_3 Tm3_2 2.931597 1_555
Pd0_3 Tm2_6 2.931597 1_555
Pd0_3 Tm3_3 2.931597 1_555
Pd0_3 Tm2_7 2.931597 1_555
Pd0_4 Pd3_0 2.765777 1_655
Pd0_4 Tm1_5 2.864457 1_554
Pd0_4 Tm1_4 2.864457 1_555
Pd0_4 Tm3_5 2.931597 1_554
Pd0_4 Tm2_1 2.931597 1_654
Pd0_4 Tm2_0 2.931597 1_655
Pd0_4 Tm3_4 2.931597 1_555
Pd0_5 Pd3_1 2.765777 1_655
Pd0_5 Tm1_4 2.864457 1_555
Pd0_5 Tm1_5 2.864457 1_555
Pd0_5 Tm2_0 2.931597 1_655
Pd0_5 Tm3_4 2.931597 1_555
Pd0_5 Tm3_5 2.931597 1_555
Pd0_5 Tm2_1 2.931597 1_655
Pd0_6 Pd3_2 2.765777 1_655
Pd0_6 Tm1_7 2.864457 1_554
Pd0_6 Tm1_6 2.864457 1_555
Pd0_6 Tm3_7 2.931597 1_554
Pd0_6 Tm2_3 2.931597 1_654
Pd0_6 Tm3_6 2.931597 1_555
Pd0_6 Tm2_2 2.931597 1_655
Pd0_7 Pd3_3 2.765777 1_655
Pd0_7 Tm1_6 2.864457 1_555
Pd0_7 Tm1_7 2.864457 1_555
Pd0_7 Tm3_6 2.931597 1_555
Pd0_7 Tm2_2 2.931597 1_655
Pd0_7 Tm3_7 2.931597 1_555
Pd0_7 Tm2_3 2.931597 1_655
Pd1_0 Pd2_2 2.765777 1_555
Pd1_0 Tm3_1 2.864457 1_554
Pd1_0 Tm3_0 2.864457 1_555
Pd1_0 Tm0_1 2.931597 1_554
Pd1_0 Tm0_0 2.931597 1_555
Pd1_0 Tm1_3 2.931597 1_554
Pd1_0 Tm1_2 2.931597 1_555
Pd1_1 Pd2_3 2.765777 1_555
Pd1_1 Tm3_0 2.864457 1_555
Pd1_1 Tm3_1 2.864457 1_555
Pd1_1 Tm0_0 2.931597 1_555
Pd1_1 Tm0_1 2.931597 1_555
Pd1_1 Tm1_2 2.931597 1_555
Pd1_1 Tm1_3 2.931597 1_555
Pd1_2 Pd2_0 2.765777 1_565
Pd1_2 Tm3_3 2.864457 1_554
Pd1_2 Tm3_2 2.864457 1_555
Pd1_2 Tm0_3 2.931597 1_554
Pd1_2 Tm1_1 2.931597 1_564
Pd1_2 Tm1_0 2.931597 1_565
Pd1_2 Tm0_2 2.931597 1_555
Pd1_3 Pd2_1 2.765777 1_565
Pd1_3 Tm3_2 2.864457 1_555
Pd1_3 Tm3_3 2.864457 1_555
Pd1_3 Tm1_0 2.931597 1_565
Pd1_3 Tm0_2 2.931597 1_555
Pd1_3 Tm0_3 2.931597 1_555
Pd1_3 Tm1_1 2.931597 1_565
Pd1_4 Pd2_6 2.765777 1_555
Pd1_4 Tm3_5 2.864457 1_554
Pd1_4 Tm3_4 2.864457 1_555
Pd1_4 Tm0_5 2.931597 1_554
Pd1_4 Tm0_4 2.931597 1_555
Pd1_4 Tm1_7 2.931597 1_554
Pd1_4 Tm1_6 2.931597 1_555
Pd1_5 Pd2_7 2.765777 1_555
Pd1_5 Tm3_4 2.864457 1_555
Pd1_5 Tm3_5 2.864457 1_555
Pd1_5 Tm0_4 2.931597 1_555
Pd1_5 Tm0_5 2.931597 1_555
Pd1_5 Tm1_6 2.931597 1_555
Pd1_5 Tm1_7 2.931597 1_555
Pd1_6 Pd2_4 2.765777 1_565
Pd1_6 Tm3_7 2.864457 1_554
Pd1_6 Tm3_6 2.864457 1_555
Pd1_6 Tm0_7 2.931597 1_554
Pd1_6 Tm0_6 2.931597 1_555
Pd1_6 Tm1_5 2.931597 1_564
Pd1_6 Tm1_4 2.931597 1_565
Pd1_7 Pd2_5 2.765777 1_565
Pd1_7 Tm3_6 2.864457 1_555
Pd1_7 Tm3_7 2.864457 1_555
Pd1_7 Tm0_6 2.931597 1_555
Pd1_7 Tm0_7 2.931597 1_555
Pd1_7 Tm1_4 2.931597 1_565
Pd1_7 Tm1_5 2.931597 1_565
Pd2_0 Tm2_1 2.864457 1_554
Pd2_0 Tm2_0 2.864457 1_555
Pd2_0 Tm1_1 2.931597 1_554
Pd2_0 Tm1_0 2.931597 1_555
Pd2_0 Tm0_3 2.931597 1_544
Pd2_0 Tm0_2 2.931597 1_545
Pd2_1 Tm2_0 2.864457 1_555
Pd2_1 Tm2_1 2.864457 1_555
Pd2_1 Tm1_0 2.931597 1_555
Pd2_1 Tm1_1 2.931597 1_555
Pd2_1 Tm0_2 2.931597 1_545
Pd2_1 Tm0_3 2.931597 1_545
Pd2_2 Tm2_3 2.864457 1_554
Pd2_2 Tm2_2 2.864457 1_555
Pd2_2 Tm0_1 2.931597 1_554
Pd2_2 Tm1_3 2.931597 1_554
Pd2_2 Tm1_2 2.931597 1_555
Pd2_2 Tm0_0 2.931597 1_555
Pd2_3 Tm2_2 2.864457 1_555
Pd2_3 Tm2_3 2.864457 1_555
Pd2_3 Tm1_2 2.931597 1_555
Pd2_3 Tm0_0 2.931597 1_555
Pd2_3 Tm1_3 2.931597 1_555
Pd2_3 Tm0_1 2.931597 1_555
Pd2_4 Tm2_5 2.864457 1_554
Pd2_4 Tm2_4 2.864457 1_555
Pd2_4 Tm1_5 2.931597 1_554
Pd2_4 Tm1_4 2.931597 1_555
Pd2_4 Tm0_7 2.931597 1_544
Pd2_4 Tm0_6 2.931597 1_545
Pd2_5 Tm2_4 2.864457 1_555
Pd2_5 Tm2_5 2.864457 1_555
Pd2_5 Tm1_4 2.931597 1_555
Pd2_5 Tm1_5 2.931597 1_555
Pd2_5 Tm0_6 2.931597 1_545
Pd2_5 Tm0_7 2.931597 1_545
Pd2_6 Tm2_7 2.864457 1_554
Pd2_6 Tm2_6 2.864457 1_555
Pd2_6 Tm0_5 2.931597 1_554
Pd2_6 Tm1_7 2.931597 1_554
Pd2_6 Tm0_4 2.931597 1_555
Pd2_6 Tm1_6 2.931597 1_555
Pd2_7 Tm2_6 2.864457 1_555
Pd2_7 Tm2_7 2.864457 1_555
Pd2_7 Tm0_4 2.931597 1_555
Pd2_7 Tm0_5 2.931597 1_555
Pd2_7 Tm1_6 2.931597 1_555
Pd2_7 Tm1_7 2.931597 1_555
Pd3_0 Tm0_1 2.864457 1_554
Pd3_0 Tm0_0 2.864457 1_555
Pd3_0 Tm2_1 2.931597 1_554
Pd3_0 Tm2_0 2.931597 1_555
Pd3_0 Tm3_5 2.931597 1_454
Pd3_0 Tm3_4 2.931597 1_455
Pd3_1 Tm0_0 2.864457 1_555
Pd3_1 Tm0_1 2.864457 1_555
Pd3_1 Tm2_0 2.931597 1_555
Pd3_1 Tm2_1 2.931597 1_555
Pd3_1 Tm3_4 2.931597 1_455
Pd3_1 Tm3_5 2.931597 1_455
Pd3_2 Tm0_3 2.864457 1_554
Pd3_2 Tm0_2 2.864457 1_555
Pd3_2 Tm2_3 2.931597 1_554
Pd3_2 Tm2_2 2.931597 1_555
Pd3_2 Tm3_7 2.931597 1_454
Pd3_2 Tm3_6 2.931597 1_455
Pd3_3 Tm0_2 2.864457 1_555
Pd3_3 Tm0_3 2.864457 1_555
Pd3_3 Tm2_2 2.931597 1_555
Pd3_3 Tm2_3 2.931597 1_555
Pd3_3 Tm3_6 2.931597 1_455
Pd3_3 Tm3_7 2.931597 1_455
Pd3_4 Tm0_5 2.864457 1_554
Pd3_4 Tm0_4 2.864457 1_555
Pd3_4 Tm2_5 2.931597 1_554
Pd3_4 Tm3_1 2.931597 1_554
Pd3_4 Tm3_0 2.931597 1_555
Pd3_4 Tm2_4 2.931597 1_555
Pd3_5 Tm0_4 2.864457 1_555
Pd3_5 Tm0_5 2.864457 1_555
Pd3_5 Tm3_0 2.931597 1_555
Pd3_5 Tm2_4 2.931597 1_555
Pd3_5 Tm2_5 2.931597 1_555
Pd3_5 Tm3_1 2.931597 1_555
Pd3_6 Tm0_7 2.864457 1_554
Pd3_6 Tm0_6 2.864457 1_555
Pd3_6 Tm2_7 2.931597 1_554
Pd3_6 Tm2_6 2.931597 1_555
Pd3_6 Tm3_3 2.931597 1_554
Pd3_6 Tm3_2 2.931597 1_555
Pd3_7 Tm0_6 2.864457 1_555
Pd3_7 Tm0_7 2.864457 1_555
Pd3_7 Tm2_6 2.931597 1_555
Pd3_7 Tm3_2 2.931597 1_555
Pd3_7 Tm2_7 2.931597 1_555
Pd3_7 Tm3_3 2.931597 1_555
Pb0_0 Pd1_0 3.064938 1_555
Pb0_0 Pd0_0 3.064938 1_555
Pb0_0 Pd3_0 3.064938 1_555
Pb0_0 Pd2_0 3.064938 1_555
Pb0_0 Tm0_1 3.390649 1_554
Pb0_0 Tm2_1 3.390649 1_554
Pb0_0 Tm0_0 3.390649 1_555
Pb0_0 Tm3_1 3.390649 1_554
Pb0_0 Tm1_1 3.390649 1_554
Pb0_0 Tm3_0 3.390649 1_555
Pb0_0 Tm2_0 3.390649 1_555
Pb0_0 Tm1_0 3.390649 1_555
Pb0_0 Pb0_1 3.572279 1_554
Pb0_0 Pb0_1 3.572279 1_555
Pb0_1 Pd0_1 3.064938 1_555
Pb0_1 Pd1_1 3.064938 1_555
Pb0_1 Pd3_1 3.064938 1_555
Pb0_1 Pd2_1 3.064938 1_555
Pb0_1 Tm0_0 3.390649 1_555
Pb0_1 Tm3_0 3.390649 1_555
Pb0_1 Tm0_1 3.390649 1_555
Pb0_1 Tm2_0 3.390649 1_555
Pb0_1 Tm3_1 3.390649 1_555
Pb0_1 Tm2_1 3.390649 1_555
Pb0_1 Tm1_0 3.390649 1_555
Pb0_1 Tm1_1 3.390649 1_555
Pb0_2 Pd0_2 3.064938 1_555
Pb0_2 Pd2_2 3.064938 1_555
Pb0_2 Pd1_2 3.064938 1_555
Pb0_2 Pd3_2 3.064938 1_555
Pb0_2 Tm2_3 3.390649 1_554
Pb0_2 Tm1_3 3.390649 1_554
Pb0_2 Tm1_2 3.390649 1_555
Pb0_2 Tm2_2 3.390649 1_555
Pb0_2 Tm0_3 3.390649 1_554
Pb0_2 Tm3_3 3.390649 1_554
Pb0_2 Tm0_2 3.390649 1_555
Pb0_2 Tm3_2 3.390649 1_555
Pb0_2 Pb0_3 3.572279 1_554
Pb0_2 Pb0_3 3.572279 1_555
Pb0_3 Pd0_3 3.064938 1_555
Pb0_3 Pd3_3 3.064938 1_555
Pb0_3 Pd1_3 3.064938 1_555
Pb0_3 Pd2_3 3.064938 1_555
Pb0_3 Tm1_2 3.390649 1_555
Pb0_3 Tm2_2 3.390649 1_555
Pb0_3 Tm1_3 3.390649 1_555
Pb0_3 Tm2_3 3.390649 1_555
Pb0_3 Tm0_2 3.390649 1_555
Pb0_3 Tm3_2 3.390649 1_555
Pb0_3 Tm0_3 3.390649 1_555
Pb0_3 Tm3_3 3.390649 1_555
Pb0_4 Pd2_4 3.064938 1_555
Pb0_4 Pd1_4 3.064938 1_555
Pb0_4 Pd0_4 3.064938 1_555
Pb0_4 Pd3_4 3.064938 1_555
Pb0_4 Tm2_5 3.390649 1_554
Pb0_4 Tm2_4 3.390649 1_555
Pb0_4 Tm0_5 3.390649 1_554
Pb0_4 Tm0_4 3.390649 1_555
Pb0_4 Tm3_5 3.390649 1_554
Pb0_4 Tm1_5 3.390649 1_554
Pb0_4 Tm3_4 3.390649 1_555
Pb0_4 Tm1_4 3.390649 1_555
Pb0_4 Pb0_5 3.572279 1_555
Pb0_4 Pb0_5 3.572279 1_554
Pb0_5 Pd2_5 3.064938 1_555
Pb0_5 Pd1_5 3.064938 1_555
Pb0_5 Pd0_5 3.064938 1_555
Pb0_5 Pd3_5 3.064938 1_555
Pb0_5 Tm2_4 3.390649 1_555
Pb0_5 Tm2_5 3.390649 1_555
Pb0_5 Tm0_4 3.390649 1_555
Pb0_5 Tm0_5 3.390649 1_555
Pb0_5 Tm3_4 3.390649 1_555
Pb0_5 Tm1_4 3.390649 1_555
Pb0_5 Tm3_5 3.390649 1_555
Pb0_5 Tm1_5 3.390649 1_555
Pb0_6 Pd2_6 3.064938 1_555
Pb0_6 Pd0_6 3.064938 1_555
Pb0_6 Pd1_6 3.064938 1_555
Pb0_6 Pd3_6 3.064938 1_555
Pb0_6 Tm2_7 3.390649 1_554
Pb0_6 Tm2_6 3.390649 1_555
Pb0_6 Tm1_7 3.390649 1_554
Pb0_6 Tm0_7 3.390649 1_554
Pb0_6 Tm0_6 3.390649 1_555
Pb0_6 Tm1_6 3.390649 1_555
Pb0_6 Tm3_7 3.390649 1_554
Pb0_6 Tm3_6 3.390649 1_555
Pb0_6 Pb0_7 3.572279 1_555
Pb0_6 Pb0_7 3.572279 1_554
Pb0_7 Pd2_7 3.064938 1_555
Pb0_7 Pd0_7 3.064938 1_555
Pb0_7 Pd1_7 3.064938 1_555
Pb0_7 Pd3_7 3.064938 1_555
Pb0_7 Tm2_6 3.390649 1_555
Pb0_7 Tm2_7 3.390649 1_555
Pb0_7 Tm0_6 3.390649 1_555
Pb0_7 Tm1_6 3.390649 1_555
Pb0_7 Tm0_7 3.390649 1_555
Pb0_7 Tm1_7 3.390649 1_555
Pb0_7 Tm3_6 3.390649 1_555
Pb0_7 Tm3_7 3.390649 1_555
Pb1_0 Pd2_0 3.064938 1_555
Pb1_0 Pd0_4 3.064938 1_455
Pb1_0 Pd3_2 3.064938 1_545
Pb1_0 Pd1_6 3.064938 1_445
Pb1_0 Tm1_5 3.390649 1_454
Pb1_0 Tm2_1 3.390649 1_554
Pb1_0 Tm1_4 3.390649 1_455
Pb1_0 Tm2_0 3.390649 1_555
Pb1_0 Tm3_7 3.390649 1_444
Pb1_0 Tm0_3 3.390649 1_544
Pb1_0 Tm3_6 3.390649 1_445
Pb1_0 Tm0_2 3.390649 1_545
Pb1_0 Pb1_1 3.572279 1_555
Pb1_0 Pb1_1 3.572279 1_554
Pb1_1 Pd2_1 3.064938 1_555
Pb1_1 Pd0_5 3.064938 1_455
Pb1_1 Pd3_3 3.064938 1_545
Pb1_1 Pd1_7 3.064938 1_445
Pb1_1 Tm1_4 3.390649 1_455
Pb1_1 Tm2_0 3.390649 1_555
Pb1_1 Tm1_5 3.390649 1_455
Pb1_1 Tm2_1 3.390649 1_555
Pb1_1 Tm3_6 3.390649 1_445
Pb1_1 Tm0_2 3.390649 1_545
Pb1_1 Tm0_3 3.390649 1_545
Pb1_1 Tm3_7 3.390649 1_445
Pb1_2 Pd3_0 3.064938 1_555
Pb1_2 Pd2_2 3.064938 1_555
Pb1_2 Pd0_6 3.064938 1_455
Pb1_2 Pd1_4 3.064938 1_455
Pb1_2 Tm0_1 3.390649 1_554
Pb1_2 Tm3_5 3.390649 1_454
Pb1_2 Tm3_4 3.390649 1_455
Pb1_2 Tm1_7 3.390649 1_454
Pb1_2 Tm0_0 3.390649 1_555
Pb1_2 Tm2_3 3.390649 1_554
Pb1_2 Tm2_2 3.390649 1_555
Pb1_2 Tm1_6 3.390649 1_455
Pb1_2 Pb1_3 3.572279 1_554
Pb1_2 Pb1_3 3.572279 1_555
Pb1_3 Pd3_1 3.064938 1_555
Pb1_3 Pd2_3 3.064938 1_555
Pb1_3 Pd0_7 3.064938 1_455
Pb1_3 Pd1_5 3.064938 1_455
Pb1_3 Tm3_4 3.390649 1_455
Pb1_3 Tm0_0 3.390649 1_555
Pb1_3 Tm3_5 3.390649 1_455
Pb1_3 Tm2_2 3.390649 1_555
Pb1_3 Tm1_6 3.390649 1_455
Pb1_3 Tm0_1 3.390649 1_555
Pb1_3 Tm1_7 3.390649 1_455
Pb1_3 Tm2_3 3.390649 1_555
Pb1_4 Pd1_2 3.064938 1_545
Pb1_4 Pd0_0 3.064938 1_555
Pb1_4 Pd2_4 3.064938 1_555
Pb1_4 Pd3_6 3.064938 1_545
Pb1_4 Tm1_1 3.390649 1_554
Pb1_4 Tm1_0 3.390649 1_555
Pb1_4 Tm3_3 3.390649 1_544
Pb1_4 Tm3_2 3.390649 1_545
Pb1_4 Tm2_5 3.390649 1_554
Pb1_4 Tm2_4 3.390649 1_555
Pb1_4 Tm0_7 3.390649 1_544
Pb1_4 Tm0_6 3.390649 1_545
Pb1_4 Pb1_5 3.572279 1_555
Pb1_4 Pb1_5 3.572279 1_554
Pb1_5 Pd1_3 3.064938 1_545
Pb1_5 Pd0_1 3.064938 1_555
Pb1_5 Pd2_5 3.064938 1_555
Pb1_5 Pd3_7 3.064938 1_545
Pb1_5 Tm1_0 3.390649 1_555
Pb1_5 Tm3_2 3.390649 1_545
Pb1_5 Tm1_1 3.390649 1_555
Pb1_5 Tm3_3 3.390649 1_545
Pb1_5 Tm2_4 3.390649 1_555
Pb1_5 Tm2_5 3.390649 1_555
Pb1_5 Tm0_6 3.390649 1_545
Pb1_5 Tm0_7 3.390649 1_545
Pb1_6 Pd3_4 3.064938 1_555
Pb1_6 Pd1_0 3.064938 1_555
Pb1_6 Pd2_6 3.064938 1_555
Pb1_6 Pd0_2 3.064938 1_555
Pb1_6 Tm3_1 3.390649 1_554
Pb1_6 Tm1_3 3.390649 1_554
Pb1_6 Tm3_0 3.390649 1_555
Pb1_6 Tm1_2 3.390649 1_555
Pb1_6 Tm2_7 3.390649 1_554
Pb1_6 Tm0_5 3.390649 1_554
Pb1_6 Tm0_4 3.390649 1_555
Pb1_6 Tm2_6 3.390649 1_555
Pb1_6 Pb1_7 3.572279 1_555
Pb1_6 Pb1_7 3.572279 1_554
Pb1_7 Pd1_1 3.064938 1_555
Pb1_7 Pd3_5 3.064938 1_555
Pb1_7 Pd2_7 3.064938 1_555
Pb1_7 Pd0_3 3.064938 1_555
Pb1_7 Tm3_0 3.390649 1_555
Pb1_7 Tm1_2 3.390649 1_555
Pb1_7 Tm3_1 3.390649 1_555
Pb1_7 Tm1_3 3.390649 1_555
Pb1_7 Tm0_4 3.390649 1_555
Pb1_7 Tm2_6 3.390649 1_555
Pb1_7 Tm0_5 3.390649 1_555
Pb1_7 Tm2_7 3.390649 1_555
