# generated using pymatgen
data_Zn2GeO4
_symmetry_space_group_name_H-M   'P 1'
_cell_length_a   8.83137532
_cell_length_b   8.83137533
_cell_length_c   8.83137513
_cell_angle_alpha   107.81515668
_cell_angle_beta   107.81515671
_cell_angle_gamma   107.81516445
_symmetry_Int_Tables_number   1
_chemical_formula_structural   Zn2GeO4
_chemical_formula_sum   'Zn12 Ge6 O24'
_cell_volume   560.38381565
_cell_formula_units_Z   6
loop_
 _symmetry_equiv_pos_site_id
 _symmetry_equiv_pos_as_xyz
  1  'x, y, z'
loop_
 _atom_site_type_symbol
 _atom_site_label
 _atom_site_symmetry_multiplicity
 _atom_site_fract_x
 _atom_site_fract_y
 _atom_site_fract_z
 _atom_site_occupancy
  Zn  Zn0  1  0.27465250  0.10548878  0.87327330  1
  Zn  Zn1  1  0.87327330  0.27465250  0.10548878  1
  Zn  Zn2  1  0.10548878  0.87327330  0.27465250  1
  Zn  Zn3  1  0.72534750  0.89451122  0.12672670  1
  Zn  Zn4  1  0.12672670  0.72534750  0.89451122  1
  Zn  Zn5  1  0.89451122  0.12672670  0.72534750  1
  Zn  Zn6  1  0.60827480  0.44061248  0.20219654  1
  Zn  Zn7  1  0.20219654  0.60827480  0.44061248  1
  Zn  Zn8  1  0.44061248  0.20219654  0.60827480  1
  Zn  Zn9  1  0.39172520  0.55938752  0.79780346  1
  Zn  Zn10  1  0.79780346  0.39172520  0.55938752  1
  Zn  Zn11  1  0.55938752  0.79780346  0.39172520  1
  Ge  Ge0  1  0.94485848  0.76892830  0.53568721  1
  Ge  Ge1  1  0.53568721  0.94485848  0.76892830  1
  Ge  Ge2  1  0.76892830  0.53568721  0.94485848  1
  Ge  Ge3  1  0.05514152  0.23107170  0.46431279  1
  Ge  Ge4  1  0.46431279  0.05514152  0.23107170  1
  Ge  Ge5  1  0.23107170  0.46431279  0.05514152  1
  O  O0  1  0.07377495  0.75120784  0.42034154  1
  O  O1  1  0.42034154  0.07377495  0.75120784  1
  O  O2  1  0.75120784  0.42034154  0.07377495  1
  O  O3  1  0.92622505  0.24879216  0.57965846  1
  O  O4  1  0.57965846  0.92622505  0.24879216  1
  O  O5  1  0.24879216  0.57965846  0.92622505  1
  O  O6  1  0.36332787  0.35168464  0.03523866  1
  O  O7  1  0.03523866  0.36332787  0.35168464  1
  O  O8  1  0.35168464  0.03523866  0.36332787  1
  O  O9  1  0.63667213  0.64831536  0.96476134  1
  O  O10  1  0.96476134  0.63667213  0.64831536  1
  O  O11  1  0.64831536  0.96476134  0.63667213  1
  O  O12  1  0.72057635  0.68445188  0.38768503  1
  O  O13  1  0.38768503  0.72057635  0.68445188  1
  O  O14  1  0.68445188  0.38768503  0.72057635  1
  O  O15  1  0.27942365  0.31554812  0.61231497  1
  O  O16  1  0.61231497  0.27942365  0.31554812  1
  O  O17  1  0.31554812  0.61231497  0.27942365  1
  O  O18  1  0.01258179  0.30478847  0.97167348  1
  O  O19  1  0.30478847  0.97167348  0.01258179  1
  O  O20  1  0.97167348  0.01258179  0.30478847  1
  O  O21  1  0.98741821  0.69521153  0.02832652  1
  O  O22  1  0.69521153  0.02832652  0.98741821  1
  O  O23  1  0.02832652  0.98741821  0.69521153  1
loop_
_geom_bond_atom_site_label_1
_geom_bond_atom_site_label_2
_geom_bond_distance
_geom_bond_site_symmetry_2
Ge0 O0 1.754848 1_655
Ge0 O23 1.755622 1_655
Ge0 O12 1.761597 1_555
Ge0 O10 1.764654 1_555
Ge1 O1 1.754848 1_565
Ge1 O22 1.755622 1_565
Ge1 O13 1.761597 1_555
Ge1 O11 1.764654 1_555
Ge2 O2 1.754847 1_556
Ge2 O21 1.755622 1_556
Ge2 O14 1.761597 1_555
Ge2 O9 1.764654 1_555
Ge3 O3 1.754848 1_455
Ge3 O20 1.755622 1_455
Ge3 O15 1.761597 1_555
Ge3 O7 1.764654 1_555
Ge4 O4 1.754848 1_545
Ge4 O19 1.755622 1_545
Ge4 O16 1.761597 1_555
Ge4 O8 1.764654 1_555
Ge5 O5 1.754847 1_554
Ge5 O18 1.755622 1_554
Ge5 O17 1.761597 1_555
Ge5 O6 1.764654 1_555
O0 Zn2 1.944330 1_555
O0 Zn7 1.949807 1_555
O1 Zn0 1.944330 1_555
O1 Zn8 1.949807 1_555
O2 Zn1 1.944330 1_555
O2 Zn6 1.949807 1_555
O3 Zn5 1.944330 1_555
O3 Zn10 1.949807 1_555
O4 Zn3 1.944330 1_555
O4 Zn11 1.949807 1_555
O5 Zn4 1.944330 1_555
O5 Zn9 1.949807 1_555
O6 Zn0 1.938125 1_554
O6 Zn6 1.941790 1_555
O7 Zn1 1.938125 1_455
O7 Zn7 1.941790 1_555
O8 Zn2 1.938125 1_545
O8 Zn8 1.941790 1_555
O9 Zn3 1.938125 1_556
O9 Zn9 1.941790 1_555
O10 Zn4 1.938125 1_655
O10 Zn10 1.941790 1_555
O11 Zn5 1.938125 1_565
O11 Zn11 1.941790 1_555
O12 Zn6 1.960837 1_555
O12 Zn11 1.977616 1_555
O13 Zn7 1.960837 1_555
O13 Zn9 1.977615 1_555
O14 Zn8 1.960837 1_555
O14 Zn10 1.977615 1_555
O15 Zn9 1.960837 1_555
O15 Zn8 1.977616 1_555
O16 Zn10 1.960837 1_555
O16 Zn6 1.977615 1_555
O17 Zn11 1.960837 1_555
O17 Zn7 1.977615 1_555
O18 Zn5 1.951396 1_455
O18 Zn1 1.965392 1_456
O19 Zn4 1.951396 1_554
O19 Zn0 1.965392 1_564
O20 Zn3 1.951396 1_545
O20 Zn2 1.965392 1_645
O21 Zn2 1.951396 1_655
O21 Zn4 1.965392 1_654
O22 Zn1 1.951396 1_556
O22 Zn3 1.965392 1_546
O23 Zn0 1.951396 1_565
O23 Zn5 1.965392 1_465
