# generated using pymatgen
data_Ba4Eu4Zn3PtO15
_symmetry_space_group_name_H-M   'P 1'
_cell_length_a   11.82206700
_cell_length_b   11.82206645
_cell_length_c   6.85262500
_cell_angle_alpha   90.00000000
_cell_angle_beta   90.00000000
_cell_angle_gamma   119.99999874
_symmetry_Int_Tables_number   1
_chemical_formula_structural   Ba4Eu4Zn3PtO15
_chemical_formula_sum   'Ba8 Eu8 Zn6 Pt2 O30'
_cell_volume   829.41983299
_cell_formula_units_Z   2
loop_
 _symmetry_equiv_pos_site_id
 _symmetry_equiv_pos_as_xyz
  1  'x, y, z'
loop_
 _atom_site_type_symbol
 _atom_site_label
 _atom_site_symmetry_multiplicity
 _atom_site_fract_x
 _atom_site_fract_y
 _atom_site_fract_z
 _atom_site_occupancy
  Ba  Ba0  1  0.33333300  0.66666700  0.33213900  1
  Ba  Ba1  1  0.34039900  0.17020000  0.16144400  1
  Ba  Ba2  1  0.82980000  0.17020000  0.16144400  1
  Ba  Ba3  1  0.17020000  0.82980000  0.66144400  1
  Ba  Ba4  1  0.65960100  0.82980000  0.66144400  1
  Ba  Ba5  1  0.66666700  0.33333300  0.83213900  1
  Ba  Ba6  1  0.17020000  0.34039900  0.66144400  1
  Ba  Ba7  1  0.82980000  0.65960100  0.16144400  1
  Eu  Eu0  1  0.48020200  0.51979800  0.00586900  1
  Eu  Eu1  1  0.00000000  0.00000000  0.84141900  1
  Eu  Eu2  1  0.51979800  0.48020200  0.50586900  1
  Eu  Eu3  1  0.48020200  0.96040300  0.00586900  1
  Eu  Eu4  1  0.03959700  0.51979800  0.00586900  1
  Eu  Eu5  1  0.00000000  0.00000000  0.34141900  1
  Eu  Eu6  1  0.96040300  0.48020200  0.50586900  1
  Eu  Eu7  1  0.51979800  0.03959700  0.50586900  1
  Zn  Zn0  1  0.17205300  0.34410700  0.17454600  1
  Zn  Zn1  1  0.17205300  0.82794700  0.17454600  1
  Zn  Zn2  1  0.82794700  0.65589300  0.67454600  1
  Zn  Zn3  1  0.82794700  0.17205300  0.67454600  1
  Zn  Zn4  1  0.65589300  0.82794700  0.17454600  1
  Zn  Zn5  1  0.34410700  0.17205300  0.67454600  1
  Pt  Pt0  1  0.66666700  0.33333300  0.31662600  1
  Pt  Pt1  1  0.33333300  0.66666700  0.81662600  1
  O  O0  1  0.94228400  0.33767200  0.80289000  1
  O  O1  1  0.16811400  0.08405700  0.57282300  1
  O  O2  1  0.41513000  0.83026100  0.65578500  1
  O  O3  1  0.25167300  0.74832700  0.98750900  1
  O  O4  1  0.60461200  0.66232800  0.30289000  1
  O  O5  1  0.33767200  0.94228400  0.30289000  1
  O  O6  1  0.33767200  0.39538800  0.30289000  1
  O  O7  1  0.58487000  0.16973900  0.15578500  1
  O  O8  1  0.91594300  0.08405700  0.57282300  1
  O  O9  1  0.74832700  0.49665400  0.48750900  1
  O  O10  1  0.08405700  0.91594300  0.07282200  1
  O  O11  1  0.50334600  0.25167300  0.48750900  1
  O  O12  1  0.41513000  0.58487000  0.65578500  1
  O  O13  1  0.39538800  0.05771600  0.80289000  1
  O  O14  1  0.58487000  0.41513000  0.15578500  1
  O  O15  1  0.60461200  0.94228400  0.30289000  1
  O  O16  1  0.05771600  0.66232800  0.30289000  1
  O  O17  1  0.66232800  0.05771600  0.80289000  1
  O  O18  1  0.39538800  0.33767200  0.80289000  1
  O  O19  1  0.49665400  0.74832700  0.98750900  1
  O  O20  1  0.08405700  0.16811400  0.07282200  1
  O  O21  1  0.16973900  0.58487000  0.65578500  1
  O  O22  1  0.91594300  0.83188600  0.57282300  1
  O  O23  1  0.83188600  0.91594300  0.07282200  1
  O  O24  1  0.83026100  0.41513000  0.15578500  1
  O  O25  1  0.25167300  0.50334600  0.98750900  1
  O  O26  1  0.94228400  0.60461200  0.80289000  1
  O  O27  1  0.74832700  0.25167300  0.48750900  1
  O  O28  1  0.05771600  0.39538800  0.30289000  1
  O  O29  1  0.66232800  0.60461200  0.80289000  1
loop_
_geom_bond_atom_site_label_1
_geom_bond_atom_site_label_2
_geom_bond_distance
_geom_bond_site_symmetry_2
Ba0 O2 2.779221 1_555
Ba0 O12 2.779221 1_555
Ba0 O21 2.779221 1_555
Ba0 O3 2.893645 1_554
Ba0 O25 2.893651 1_554
Ba0 O19 2.893651 1_554
Ba0 O5 3.239227 1_555
Ba0 O16 3.239227 1_555
Ba0 O15 3.239233 1_555
Ba0 O28 3.239233 1_555
Ba0 O6 3.239239 1_555
Ba0 O4 3.239239 1_555
Ba1 O11 2.788499 1_555
Ba1 O6 2.848439 1_555
Ba1 O5 2.848450 1_545
Ba1 O14 2.893129 1_555
Ba1 O7 2.893141 1_555
Ba1 O18 3.015365 1_554
Ba1 O13 3.015371 1_554
Ba1 O20 3.078727 1_555
Ba1 O10 3.078733 1_545
Ba1 O1 3.325390 1_555
Ba2 O27 2.788493 1_555
Ba2 O15 2.848445 1_545
Ba2 O28 2.848445 1_655
Ba2 O24 2.893118 1_555
Ba2 O7 2.893118 1_555
Ba2 O0 3.015366 1_554
Ba2 O17 3.015366 1_554
Ba2 O23 3.078739 1_545
Ba2 O20 3.078739 1_655
Ba2 O8 3.325395 1_555
Ba3 O3 2.788493 1_555
Ba3 O13 2.848445 1_565
Ba3 O26 2.848445 1_455
Ba3 O21 2.893118 1_555
Ba3 O2 2.893118 1_555
Ba3 O16 3.015366 1_555
Ba3 O5 3.015366 1_555
Ba3 O1 3.078738 1_565
Ba3 O22 3.078738 1_455
Ba3 O10 3.325389 1_556
Ba4 O19 2.788499 1_555
Ba4 O29 2.848439 1_555
Ba4 O17 2.848450 1_565
Ba4 O12 2.893129 1_555
Ba4 O2 2.893141 1_555
Ba4 O4 3.015365 1_555
Ba4 O15 3.015371 1_555
Ba4 O22 3.078726 1_555
Ba4 O8 3.078732 1_565
Ba4 O23 3.325384 1_556
Ba5 O7 2.779221 1_556
Ba5 O14 2.779221 1_556
Ba5 O24 2.779221 1_556
Ba5 O27 2.893645 1_555
Ba5 O9 2.893651 1_555
Ba5 O11 2.893651 1_555
Ba5 O17 3.239227 1_555
Ba5 O0 3.239227 1_555
Ba5 O13 3.239233 1_555
Ba5 O26 3.239233 1_555
Ba5 O29 3.239239 1_555
Ba5 O18 3.239239 1_555
Ba6 O25 2.788499 1_555
Ba6 O18 2.848439 1_555
Ba6 O0 2.848450 1_455
Ba6 O12 2.893129 1_555
Ba6 O21 2.893141 1_555
Ba6 O6 3.015365 1_555
Ba6 O28 3.015371 1_555
Ba6 O1 3.078726 1_555
Ba6 O8 3.078732 1_455
Ba6 O20 3.325384 1_556
Ba7 O9 2.788499 1_555
Ba7 O4 2.848439 1_555
Ba7 O16 2.848450 1_655
Ba7 O14 2.893129 1_555
Ba7 O24 2.893141 1_555
Ba7 O29 3.015365 1_554
Ba7 O26 3.015371 1_554
Ba7 O23 3.078727 1_555
Ba7 O10 3.078733 1_655
Ba7 O22 3.325390 1_555
Eu0 O18 2.327459 1_554
Eu0 O29 2.327459 1_554
Eu0 O14 2.376720 1_555
Eu0 O4 2.582035 1_555
Eu0 O6 2.582035 1_555
Eu0 O19 2.612909 1_554
Eu0 O25 2.612909 1_554
Eu0 O12 2.744189 1_554
Eu1 O20 2.340296 1_556
Eu1 O10 2.340296 1_546
Eu1 O23 2.340296 1_446
Eu1 O22 2.519969 1_445
Eu1 O8 2.519969 1_455
Eu1 O1 2.519969 1_555
Eu2 O4 2.327459 1_555
Eu2 O6 2.327459 1_555
Eu2 O12 2.376720 1_555
Eu2 O18 2.582035 1_555
Eu2 O29 2.582035 1_555
Eu2 O11 2.612909 1_555
Eu2 O9 2.612909 1_555
Eu2 O14 2.744189 1_555
Eu3 O17 2.327460 1_564
Eu3 O13 2.327468 1_564
Eu3 O7 2.376720 1_565
Eu3 O15 2.582030 1_555
Eu3 O5 2.582037 1_555
Eu3 O19 2.612897 1_554
Eu3 O3 2.612904 1_554
Eu3 O2 2.744179 1_554
Eu4 O0 2.327460 1_454
Eu4 O26 2.327468 1_454
Eu4 O24 2.376721 1_455
Eu4 O28 2.582030 1_555
Eu4 O16 2.582037 1_555
Eu4 O25 2.612897 1_554
Eu4 O3 2.612903 1_554
Eu4 O21 2.744179 1_554
Eu5 O22 2.340300 1_445
Eu5 O8 2.340300 1_455
Eu5 O1 2.340300 1_555
Eu5 O20 2.519974 1_555
Eu5 O10 2.519974 1_545
Eu5 O23 2.519974 1_445
Eu6 O16 2.327460 1_655
Eu6 O28 2.327468 1_655
Eu6 O21 2.376721 1_655
Eu6 O26 2.582030 1_555
Eu6 O0 2.582037 1_555
Eu6 O9 2.612897 1_555
Eu6 O27 2.612903 1_555
Eu6 O24 2.744179 1_555
Eu7 O5 2.327460 1_545
Eu7 O15 2.327468 1_545
Eu7 O2 2.376720 1_545
Eu7 O13 2.582030 1_555
Eu7 O17 2.582037 1_555
Eu7 O11 2.612897 1_555
Eu7 O27 2.612904 1_555
Eu7 O7 2.744179 1_555
O0 Zn3 1.946184 1_555
O1 Zn5 1.931989 1_555
O2 Pt1 2.005026 1_555
O3 Pt1 2.041364 1_555
O3 Zn1 2.073819 1_556
O4 Zn4 1.946186 1_555
O5 Zn1 1.946184 1_555
O6 Zn0 1.946186 1_555
O7 Pt0 2.005026 1_555
O8 Zn3 1.931979 1_555
O9 Pt0 2.041373 1_555
O9 Zn2 2.073811 1_555
O10 Zn1 1.931982 1_555
O11 Pt0 2.041373 1_555
O11 Zn5 2.073811 1_555
O12 Pt1 2.005026 1_555
O13 Zn5 1.946176 1_555
O14 Pt0 2.005026 1_555
O15 Zn4 1.946176 1_555
O16 Zn1 1.946184 1_555
O17 Zn3 1.946184 1_555
O18 Zn5 1.946186 1_555
O19 Pt1 2.041373 1_555
O19 Zn4 2.073811 1_556
O20 Zn0 1.931991 1_555
O21 Pt1 2.005026 1_555
O22 Zn2 1.931989 1_555
O23 Zn4 1.931991 1_555
O24 Pt0 2.005026 1_555
O25 Pt1 2.041373 1_555
O25 Zn0 2.073811 1_556
O26 Zn2 1.946176 1_555
O27 Pt0 2.041364 1_555
O27 Zn3 2.073819 1_555
O28 Zn0 1.946176 1_555
O29 Zn2 1.946186 1_555
