# generated using pymatgen
data_Sc2TeO6
_symmetry_space_group_name_H-M   'P 1'
_cell_length_a   8.76694724
_cell_length_b   8.76694714
_cell_length_c   4.81777938
_cell_angle_alpha   90.00002303
_cell_angle_beta   89.99994385
_cell_angle_gamma   120.00007835
_symmetry_Int_Tables_number   1
_chemical_formula_structural   Sc2TeO6
_chemical_formula_sum   'Sc6 Te3 O18'
_cell_volume   320.68155331
_cell_formula_units_Z   3
loop_
 _symmetry_equiv_pos_site_id
 _symmetry_equiv_pos_as_xyz
  1  'x, y, z'
loop_
 _atom_site_type_symbol
 _atom_site_label
 _atom_site_symmetry_multiplicity
 _atom_site_fract_x
 _atom_site_fract_y
 _atom_site_fract_z
 _atom_site_occupancy
  Sc  Sc0  1  0.29309090  0.00000052  0.49999961  1
  Sc  Sc1  1  0.62876303  -0.00000005  -0.00000060  1
  Sc  Sc2  1  0.70690814  0.70690791  0.50000047  1
  Sc  Sc3  1  -0.00000003  0.62876288  0.00000035  1
  Sc  Sc4  1  0.37123728  0.37123711  -0.00000025  1
  Sc  Sc5  1  0.00000028  0.29309079  0.50000014  1
  Te  Te0  1  0.00000027  -0.00000009  0.00000037  1
  Te  Te1  1  0.66666715  0.33333363  0.49698569  1
  Te  Te2  1  0.33333330  0.66666682  0.50301397  1
  O  O0  1  0.88055056  0.08969777  0.21901083  1
  O  O1  1  0.45647517  0.58137328  0.72623586  1
  O  O2  1  0.22249950  0.76571291  0.27999388  1
  O  O3  1  0.76571322  0.22249950  0.72000588  1
  O  O4  1  0.54321315  0.77750051  0.27999359  1
  O  O5  1  0.23428748  0.45678692  0.27999393  1
  O  O6  1  0.12489755  0.54352444  0.72623604  1
  O  O7  1  0.58137339  0.45647501  0.27376433  1
  O  O8  1  0.54352463  0.12489754  0.27376370  1
  O  O9  1  0.87510271  0.41862691  0.27376350  1
  O  O10  1  0.45678707  0.23428734  0.72000580  1
  O  O11  1  0.20914699  0.11944979  0.21901087  1
  O  O12  1  0.91030213  0.79085308  0.21901189  1
  O  O13  1  0.11944983  0.20914692  0.78098911  1
  O  O14  1  0.79085315  0.91030251  0.78098866  1
  O  O15  1  0.08969750  0.88055060  0.78098988  1
  O  O16  1  0.41862707  0.87510255  0.72623641  1
  O  O17  1  0.77750057  0.54321290  0.72000608  1
loop_
_geom_bond_atom_site_label_1
_geom_bond_atom_site_label_2
_geom_bond_distance
_geom_bond_site_symmetry_2
O0 Te0 1.910985 1_655
O0 Sc5 2.059496 1_655
O0 Sc1 2.206473 1_555
O1 Te2 1.920540 1_555
O1 Sc4 2.077313 1_556
O1 Sc2 2.191636 1_555
O2 Te2 1.922592 1_555
O2 Sc0 2.110492 1_565
O2 Sc3 2.173517 1_555
O3 Te1 1.922594 1_555
O3 Sc5 2.110488 1_655
O3 Sc1 2.173516 1_556
O4 Te2 1.922589 1_555
O4 Sc2 2.110495 1_555
O4 Sc1 2.173517 1_565
O5 Te2 1.922589 1_555
O5 Sc5 2.110490 1_555
O5 Sc4 2.173519 1_555
O6 Te2 1.920539 1_555
O6 Sc3 2.077313 1_556
O6 Sc5 2.191642 1_555
O7 Te1 1.920536 1_555
O7 Sc4 2.077316 1_555
O7 Sc2 2.191638 1_555
O8 Te1 1.920542 1_555
O8 Sc1 2.077313 1_555
O8 Sc0 2.191642 1_555
O9 Te1 1.920539 1_555
O9 Sc3 2.077308 1_655
O9 Sc5 2.191647 1_655
O10 Te1 1.922590 1_555
O10 Sc0 2.110489 1_555
O10 Sc4 2.173518 1_556
O11 Te0 1.910980 1_555
O11 Sc0 2.059497 1_555
O11 Sc4 2.206470 1_555
O12 Te0 1.910982 1_665
O12 Sc2 2.059498 1_555
O12 Sc3 2.206477 1_655
O13 Te0 1.910983 1_556
O13 Sc5 2.059499 1_555
O13 Sc4 2.206470 1_556
O14 Te0 1.910986 1_666
O14 Sc2 2.059501 1_555
O14 Sc1 2.206472 1_566
O15 Te0 1.910979 1_566
O15 Sc0 2.059500 1_565
O15 Sc3 2.206472 1_556
O16 Te2 1.920541 1_555
O16 Sc1 2.077309 1_566
O16 Sc0 2.191650 1_565
O17 Te1 1.922586 1_555
O17 Sc2 2.110491 1_555
O17 Sc3 2.173518 1_656
