# generated using pymatgen
data_RbFeF4
_symmetry_space_group_name_H-M   'P 1'
_cell_length_a   5.35122953
_cell_length_b   5.35122953
_cell_length_c   6.42727639
_cell_angle_alpha   90.00000000
_cell_angle_beta   90.00000000
_cell_angle_gamma   90.00000000
_symmetry_Int_Tables_number   1
_chemical_formula_structural   RbFeF4
_chemical_formula_sum   'Rb2 Fe2 F8'
_cell_volume   184.04928525
_cell_formula_units_Z   2
loop_
 _symmetry_equiv_pos_site_id
 _symmetry_equiv_pos_as_xyz
  1  'x, y, z'
loop_
 _atom_site_type_symbol
 _atom_site_label
 _atom_site_symmetry_multiplicity
 _atom_site_fract_x
 _atom_site_fract_y
 _atom_site_fract_z
 _atom_site_occupancy
  Rb  Rb0  1  0.50000000  0.00000000  0.50000000  1
  Rb  Rb1  1  -0.00000000  0.50000000  0.50000000  1
  Fe  Fe0  1  0.50000000  0.50000000  -0.00000000  1
  Fe  Fe1  1  -0.00000000  0.00000000  -0.00000000  1
  F  F0  1  0.50000000  0.50000000  0.29377629  1
  F  F1  1  -0.00000000  0.00000000  0.70622371  1
  F  F2  1  0.50000000  0.50000000  0.70622371  1
  F  F3  1  -0.00000000  0.00000000  0.29377629  1
  F  F4  1  0.31680366  0.81680366  -0.00000000  1
  F  F5  1  0.18319634  0.31680366  -0.00000000  1
  F  F6  1  0.81680366  0.68319634  -0.00000000  1
  F  F7  1  0.68319634  0.18319634  -0.00000000  1
loop_
_geom_bond_atom_site_label_1
_geom_bond_atom_site_label_2
_geom_bond_distance
_geom_bond_site_symmetry_2
F0 Fe0 1.888181 1_555
F0 Rb0 2.985925 1_555
F0 Rb1 2.985925 1_555
F0 Rb1 2.985925 1_655
F0 Rb0 2.985925 1_565
F1 Fe1 1.888181 1_556
F1 Rb1 2.985925 1_545
F1 Rb0 2.985925 1_455
F1 Rb0 2.985925 1_555
F1 Rb1 2.985925 1_555
F2 Fe0 1.888181 1_556
F2 Rb0 2.985925 1_555
F2 Rb1 2.985925 1_555
F2 Rb1 2.985925 1_655
F2 Rb0 2.985925 1_565
F3 Fe1 1.888181 1_555
F3 Rb1 2.985925 1_545
F3 Rb0 2.985925 1_455
F3 Rb0 2.985925 1_555
F3 Rb1 2.985925 1_555
F4 Fe1 1.958327 1_565
F4 Fe0 1.958327 1_555
F5 Fe0 1.958327 1_555
F5 Fe1 1.958327 1_555
F6 Fe1 1.958327 1_665
F6 Fe0 1.958327 1_555
F7 Fe1 1.958327 1_655
F7 Fe0 1.958327 1_555
