# generated using pymatgen
data_Tb3CuGeS7
_symmetry_space_group_name_H-M   'P 1'
_cell_length_a   9.90966334
_cell_length_b   9.90966334
_cell_length_c   5.84075700
_cell_angle_alpha   90.00000000
_cell_angle_beta   90.00000000
_cell_angle_gamma   119.99999557
_symmetry_Int_Tables_number   1
_chemical_formula_structural   Tb3CuGeS7
_chemical_formula_sum   'Tb6 Cu2 Ge2 S14'
_cell_volume   496.72679732
_cell_formula_units_Z   2
loop_
 _symmetry_equiv_pos_site_id
 _symmetry_equiv_pos_as_xyz
  1  'x, y, z'
loop_
 _atom_site_type_symbol
 _atom_site_label
 _atom_site_symmetry_multiplicity
 _atom_site_fract_x
 _atom_site_fract_y
 _atom_site_fract_z
 _atom_site_occupancy
  Tb  Tb0  1  0.13278000  0.77555700  0.75527100  1
  Tb  Tb1  1  0.22444300  0.35722300  0.75527100  1
  Tb  Tb2  1  0.77555700  0.64277700  0.25527100  1
  Tb  Tb3  1  0.64277700  0.86722000  0.75527100  1
  Tb  Tb4  1  0.35722300  0.13278000  0.25527100  1
  Tb  Tb5  1  0.86722000  0.22444300  0.25527100  1
  Cu  Cu0  1  0.00000000  0.00000000  0.68756000  1
  Cu  Cu1  1  0.00000000  0.00000000  0.18756000  1
  Ge  Ge0  1  0.66666700  0.33333300  0.83586300  1
  Ge  Ge1  1  0.33333300  0.66666700  0.33586300  1
  S  S0  1  0.90143700  0.48048300  0.99734300  1
  S  S1  1  0.33333300  0.66666700  0.95806300  1
  S  S2  1  0.15958200  0.25842200  0.21632500  1
  S  S3  1  0.48048300  0.57904700  0.49734300  1
  S  S4  1  0.09856300  0.51951700  0.49734300  1
  S  S5  1  0.25842200  0.09884000  0.71632500  1
  S  S6  1  0.42095300  0.90143700  0.49734300  1
  S  S7  1  0.90116000  0.15958200  0.71632500  1
  S  S8  1  0.74157800  0.90116000  0.21632500  1
  S  S9  1  0.51951700  0.42095300  0.99734300  1
  S  S10  1  0.09884000  0.84041800  0.21632500  1
  S  S11  1  0.66666700  0.33333300  0.45806300  1
  S  S12  1  0.57904700  0.09856300  0.99734300  1
  S  S13  1  0.84041800  0.74157800  0.71632500  1
loop_
_geom_bond_atom_site_label_1
_geom_bond_atom_site_label_2
_geom_bond_distance
_geom_bond_site_symmetry_2
Cu0 S7 2.244408 1_455
Cu0 S5 2.244408 1_555
Cu0 S13 2.244408 1_445
Cu0 Tb0 3.124287 1_545
Cu0 Tb3 3.124287 1_445
Cu0 Tb1 3.124287 1_555
Cu1 S10 2.244408 1_545
Cu1 S8 2.244408 1_445
Cu1 S2 2.244408 1_555
Cu1 Tb5 3.124287 1_455
Cu1 Tb4 3.124287 1_555
Cu1 Tb2 3.124287 1_445
Ge0 S11 2.206638 1_555
Ge0 S9 2.244100 1_555
Ge0 S12 2.244100 1_555
Ge0 S0 2.244100 1_555
Ge1 S1 2.206638 1_554
Ge1 S3 2.244100 1_555
Ge1 S6 2.244100 1_555
Ge1 S4 2.244100 1_555
S0 Tb5 2.821685 1_556
S0 Tb2 2.901444 1_556
S0 Tb0 3.016866 1_655
S1 Tb0 2.943072 1_555
S1 Tb3 2.943079 1_555
S1 Tb1 2.943081 1_555
S2 Tb5 2.753797 1_455
S2 Tb4 2.806497 1_555
S2 Tb1 2.827395 1_554
S2 Tb1 3.263649 1_555
S3 Tb1 2.821688 1_555
S3 Tb3 2.901437 1_555
S3 Tb2 3.016869 1_555
S4 Tb0 2.821685 1_555
S4 Tb1 2.901444 1_555
S4 Tb5 3.016866 1_455
S5 Tb1 2.753797 1_555
S5 Tb0 2.806497 1_545
S5 Tb4 2.827395 1_555
S5 Tb4 3.263649 1_556
S6 Tb3 2.821693 1_555
S6 Tb0 2.901437 1_555
S6 Tb4 3.016860 1_565
S7 Tb3 2.753797 1_545
S7 Tb1 2.806497 1_655
S7 Tb5 2.827395 1_555
S7 Tb5 3.263649 1_556
S8 Tb2 2.753797 1_555
S8 Tb5 2.806497 1_565
S8 Tb3 2.827395 1_554
S8 Tb3 3.263649 1_555
S9 Tb2 2.821688 1_556
S9 Tb4 2.901437 1_556
S9 Tb1 3.016869 1_555
S10 Tb4 2.753797 1_565
S10 Tb2 2.806497 1_455
S10 Tb0 2.827395 1_554
S10 Tb0 3.263649 1_555
S11 Tb5 2.943072 1_555
S11 Tb4 2.943079 1_555
S11 Tb2 2.943081 1_555
S12 Tb4 2.821693 1_556
S12 Tb5 2.901437 1_556
S12 Tb3 3.016860 1_545
S13 Tb0 2.753797 1_655
S13 Tb3 2.806497 1_555
S13 Tb2 2.827395 1_555
S13 Tb2 3.263649 1_556
