# generated using pymatgen
data_K2FeCu(CN)6
_symmetry_space_group_name_H-M   'P 1'
_cell_length_a   6.96339100
_cell_length_b   7.02669986
_cell_length_c   7.30500936
_cell_angle_alpha   118.28859293
_cell_angle_beta   117.09127946
_cell_angle_gamma   90.83033557
_symmetry_Int_Tables_number   1
_chemical_formula_structural   K2FeCu(CN)6
_chemical_formula_sum   'K2 Fe1 Cu1 C6 N6'
_cell_volume   267.84570281
_cell_formula_units_Z   1
loop_
 _symmetry_equiv_pos_site_id
 _symmetry_equiv_pos_as_xyz
  1  'x, y, z'
loop_
 _atom_site_type_symbol
 _atom_site_label
 _atom_site_symmetry_multiplicity
 _atom_site_fract_x
 _atom_site_fract_y
 _atom_site_fract_z
 _atom_site_occupancy
  K  K0  1  0.22875600  0.72228200  0.46886100  1
  K  K1  1  0.77124400  0.27771800  0.53113900  1
  Fe  Fe0  1  0.50000000  0.50000000  0.00000000  1
  Cu  Cu0  1  0.00000000  0.00000000  0.00000000  1
  C  C0  1  0.71784100  0.72648300  0.07153300  1
  C  C1  1  0.28215900  0.27351700  0.92846700  1
  C  C2  1  0.37319400  0.37860600  0.66254600  1
  C  C3  1  0.68889100  0.31323800  0.99432600  1
  C  C4  1  0.62680600  0.62139400  0.33745400  1
  C  C5  1  0.31110900  0.68676200  0.00567400  1
  N  N0  1  0.70313000  0.69216400  0.54657900  1
  N  N1  1  0.14438000  0.12892200  0.88006700  1
  N  N2  1  0.19196900  0.80402000  0.00745900  1
  N  N3  1  0.80803100  0.19598000  0.99254100  1
  N  N4  1  0.85562000  0.87107800  0.11993300  1
  N  N5  1  0.29687000  0.30783600  0.45342100  1
loop_
_geom_bond_atom_site_label_1
_geom_bond_atom_site_label_2
_geom_bond_distance
_geom_bond_site_symmetry_2
K0 N5 2.914782 1_555
K0 N0 3.115222 1_555
K0 N4 3.303601 1_455
K0 N1 3.324711 1_565
K1 N0 2.914782 1_555
K1 N5 3.115222 1_555
K1 N1 3.303601 1_655
K1 N4 3.324711 1_545
Cu0 N3 1.935045 1_454
Cu0 N2 1.935045 1_545
Cu0 N1 2.031533 1_554
Cu0 N4 2.031533 1_445
Cu0 N0 2.601217 1_444
Cu0 N5 2.601217 1_555
C0 N4 1.183251 1_555
C0 Fe0 1.877917 1_555
C1 N1 1.183251 1_555
C1 Fe0 1.877917 1_556
C2 N5 1.181649 1_555
C2 Fe0 1.893836 1_556
C3 N3 1.177620 1_555
C3 Fe0 1.871391 1_556
C4 N0 1.181649 1_555
C4 Fe0 1.893836 1_555
C5 N2 1.177620 1_555
C5 Fe0 1.871391 1_555
