# generated using pymatgen
data_Ag2CO3
_symmetry_space_group_name_H-M   'P 1'
_cell_length_a   9.28175082
_cell_length_b   9.28175061
_cell_length_c   6.07890833
_cell_angle_alpha   90.00000000
_cell_angle_beta   90.00000000
_cell_angle_gamma   120.00000417
_symmetry_Int_Tables_number   1
_chemical_formula_structural   Ag2CO3
_chemical_formula_sum   'Ag12 C6 O18'
_cell_volume   453.54043074
_cell_formula_units_Z   6
loop_
 _symmetry_equiv_pos_site_id
 _symmetry_equiv_pos_as_xyz
  1  'x, y, z'
loop_
 _atom_site_type_symbol
 _atom_site_label
 _atom_site_symmetry_multiplicity
 _atom_site_fract_x
 _atom_site_fract_y
 _atom_site_fract_z
 _atom_site_occupancy
  Ag  Ag0  1  0.01791269  0.66867446  0.49504075  1
  Ag  Ag1  1  0.98208731  0.65076177  0.99504075  1
  Ag  Ag2  1  0.33132554  0.34923823  0.49504075  1
  Ag  Ag3  1  0.30314796  0.96914757  0.28192713  1
  Ag  Ag4  1  0.03085243  0.33400039  0.28192713  1
  Ag  Ag5  1  0.66599961  0.69685204  0.28192713  1
  Ag  Ag6  1  0.69685204  0.66599961  0.78192713  1
  Ag  Ag7  1  0.65076177  0.98208731  0.49504075  1
  Ag  Ag8  1  0.96914757  0.30314796  0.78192713  1
  Ag  Ag9  1  0.33400039  0.03085243  0.78192713  1
  Ag  Ag10  1  0.34923823  0.33132554  0.99504075  1
  Ag  Ag11  1  0.66867446  0.01791269  0.99504075  1
  C  C0  1  -0.00000000  0.00000000  0.87782375  1
  C  C1  1  0.33333300  0.66666700  0.72701404  1
  C  C2  1  0.66666700  0.33333300  0.22701404  1
  C  C3  1  -0.00000000  0.00000000  0.37782375  1
  C  C4  1  0.66666700  0.33333300  0.71301367  1
  C  C5  1  0.33333300  0.66666700  0.21301367  1
  O  O0  1  0.92185580  0.84012158  0.37732797  1
  O  O1  1  0.41875150  0.82654913  0.21346095  1
  O  O2  1  0.40779863  0.58124850  0.21346095  1
  O  O3  1  0.73065013  0.23762721  0.22865872  1
  O  O4  1  0.58124850  0.40779863  0.71346095  1
  O  O5  1  0.84012158  0.92185580  0.87732797  1
  O  O6  1  0.76237279  0.49302392  0.22865872  1
  O  O7  1  0.91826578  0.07814420  0.37732797  1
  O  O8  1  0.08173422  0.15987842  0.87732797  1
  O  O9  1  0.59220137  0.17345087  0.71346095  1
  O  O10  1  0.17345087  0.59220137  0.21346095  1
  O  O11  1  0.82654913  0.41875150  0.71346095  1
  O  O12  1  0.07814420  0.91826578  0.87732797  1
  O  O13  1  0.50697608  0.26934987  0.22865872  1
  O  O14  1  0.26934987  0.50697608  0.72865872  1
  O  O15  1  0.15987842  0.08173422  0.37732797  1
  O  O16  1  0.23762721  0.73065013  0.72865872  1
  O  O17  1  0.49302392  0.76237279  0.72865872  1
loop_
_geom_bond_atom_site_label_1
_geom_bond_atom_site_label_2
_geom_bond_distance
_geom_bond_site_symmetry_2
Ag0 O0 2.293047 1_455
Ag0 O16 2.309434 1_555
Ag0 O11 2.485685 1_455
Ag0 O10 2.557856 1_555
Ag0 O6 2.653103 1_455
Ag1 O12 2.293046 1_655
Ag1 O6 2.309432 1_556
Ag1 O10 2.485691 1_656
Ag1 O11 2.557850 1_555
Ag1 O16 2.653105 1_655
Ag2 O15 2.293046 1_555
Ag2 O14 2.309427 1_555
Ag2 O4 2.485683 1_555
Ag2 O2 2.557849 1_555
Ag2 O13 2.653098 1_555
Ag3 O1 2.120511 1_555
Ag3 O15 2.141572 1_565
Ag3 O13 2.485270 1_565
Ag4 O10 2.120503 1_555
Ag4 O7 2.141572 1_455
Ag4 O3 2.485272 1_455
Ag5 O2 2.120502 1_555
Ag5 O0 2.141572 1_555
Ag5 O6 2.485263 1_555
Ag6 O4 2.120502 1_555
Ag6 O5 2.141572 1_555
Ag6 O17 2.485263 1_555
Ag7 O7 2.293046 1_565
Ag7 O17 2.309432 1_555
Ag7 O9 2.485691 1_565
Ag7 O1 2.557850 1_555
Ag7 O3 2.653105 1_565
Ag8 O11 2.120511 1_555
Ag8 O8 2.141572 1_655
Ag8 O14 2.485270 1_655
Ag9 O9 2.120503 1_555
Ag9 O12 2.141572 1_545
Ag9 O16 2.485272 1_545
Ag10 O8 2.293046 1_555
Ag10 O13 2.309427 1_556
Ag10 O2 2.485683 1_556
Ag10 O4 2.557849 1_555
Ag10 O14 2.653098 1_555
Ag11 O5 2.293047 1_545
Ag11 O3 2.309434 1_556
Ag11 O1 2.485685 1_546
Ag11 O9 2.557856 1_555
Ag11 O17 2.653103 1_545
C0 O8 1.285251 1_555
C0 O5 1.285251 1_445
C0 O12 1.285251 1_545
C1 O16 1.292070 1_555
C1 O17 1.292085 1_555
C1 O14 1.292087 1_555
C2 O3 1.292070 1_555
C2 O6 1.292085 1_555
C2 O13 1.292087 1_555
C3 O0 1.285251 1_445
C3 O15 1.285251 1_555
C3 O7 1.285251 1_455
C4 O9 1.286177 1_555
C4 O11 1.286178 1_555
C4 O4 1.286193 1_555
C5 O10 1.286177 1_555
C5 O1 1.286178 1_555
C5 O2 1.286193 1_555
