# generated using pymatgen
data_Sr2ZnReO6
_symmetry_space_group_name_H-M   'P 1'
_cell_length_a   5.68403599
_cell_length_b   5.68403599
_cell_length_c   5.68403599
_cell_angle_alpha   120.45985810
_cell_angle_beta   120.45985810
_cell_angle_gamma   89.20533090
_symmetry_Int_Tables_number   1
_chemical_formula_structural   Sr2ZnReO6
_chemical_formula_sum   'Sr2 Zn1 Re1 O6'
_cell_volume   128.93800907
_cell_formula_units_Z   1
loop_
 _symmetry_equiv_pos_site_id
 _symmetry_equiv_pos_as_xyz
  1  'x, y, z'
loop_
 _atom_site_type_symbol
 _atom_site_label
 _atom_site_symmetry_multiplicity
 _atom_site_fract_x
 _atom_site_fract_y
 _atom_site_fract_z
 _atom_site_occupancy
  Sr  Sr0  1  0.25000000  0.75000000  0.50000000  1
  Sr  Sr1  1  0.75000000  0.25000000  0.50000000  1
  Zn  Zn0  1  0.00000000  0.00000000  0.00000000  1
  Re  Re0  1  0.50000000  0.50000000  0.00000000  1
  O  O0  1  0.25980900  0.25980900  0.00000000  1
  O  O1  1  0.74019100  0.74019100  0.00000000  1
  O  O2  1  0.22284000  0.29773700  0.52057600  1
  O  O3  1  0.77716000  0.70226300  0.47942400  1
  O  O4  1  0.70226300  0.22284000  0.92510300  1
  O  O5  1  0.29773700  0.77716000  0.07489700  1
loop_
_geom_bond_atom_site_label_1
_geom_bond_atom_site_label_2
_geom_bond_distance
_geom_bond_site_symmetry_2
O0 Re0 1.944104 1_555
O0 Zn0 2.102892 1_555
O0 Sr0 2.823358 1_555
O0 Sr1 2.823358 1_454
O0 Sr0 2.823358 1_544
O0 Sr1 2.823358 1_555
O1 Re0 1.944104 1_555
O1 Zn0 2.102892 1_665
O1 Sr0 2.823358 1_554
O1 Sr0 2.823358 1_655
O1 Sr1 2.823358 1_554
O1 Sr1 2.823358 1_565
O2 Re0 1.936711 1_556
O2 Zn0 2.099144 1_555
O2 Sr0 2.641976 1_555
O2 Sr1 2.641983 1_455
O2 Sr1 3.060436 1_555
O2 Sr0 3.060442 1_545
O3 Re0 1.936711 1_555
O3 Zn0 2.099144 1_666
O3 Sr1 2.641976 1_555
O3 Sr0 2.641983 1_655
O3 Sr0 3.060436 1_555
O3 Sr1 3.060442 1_565
O4 Re0 1.936707 1_556
O4 Zn0 2.099148 1_656
O4 Sr0 2.641980 1_545
O4 Sr1 2.641980 1_555
O4 Sr0 3.060439 1_656
O4 Sr1 3.060439 1_556
O5 Re0 1.936707 1_555
O5 Zn0 2.099148 1_565
O5 Sr0 2.641980 1_555
O5 Sr1 2.641980 1_565
O5 Sr1 3.060439 1_454
O5 Sr0 3.060439 1_554
