# generated using pymatgen
data_CaMgSi
_symmetry_space_group_name_H-M   'P 1'
_cell_length_a   4.43022210
_cell_length_b   7.47997663
_cell_length_c   8.24267599
_cell_angle_alpha   90.00000000
_cell_angle_beta   90.00000000
_cell_angle_gamma   90.00000000
_symmetry_Int_Tables_number   1
_chemical_formula_structural   CaMgSi
_chemical_formula_sum   'Ca4 Mg4 Si4'
_cell_volume   273.14544890
_cell_formula_units_Z   4
loop_
 _symmetry_equiv_pos_site_id
 _symmetry_equiv_pos_as_xyz
  1  'x, y, z'
loop_
 _atom_site_type_symbol
 _atom_site_label
 _atom_site_symmetry_multiplicity
 _atom_site_fract_x
 _atom_site_fract_y
 _atom_site_fract_z
 _atom_site_occupancy
  Ca  Ca0  1  0.25000000  0.01778893  0.81731195  1
  Ca  Ca1  1  0.75000000  0.98221107  0.18268805  1
  Ca  Ca2  1  0.25000000  0.51778893  0.68268805  1
  Ca  Ca3  1  0.75000000  0.48221107  0.31731195  1
  Mg  Mg0  1  0.75000000  0.85395763  0.56494868  1
  Mg  Mg1  1  0.25000000  0.64604237  0.06494868  1
  Mg  Mg2  1  0.75000000  0.35395763  0.93505132  1
  Mg  Mg3  1  0.25000000  0.14604237  0.43505132  1
  Si  Si0  1  0.25000000  0.27137815  0.11273646  1
  Si  Si1  1  0.75000000  0.22862185  0.61273646  1
  Si  Si2  1  0.25000000  0.77137815  0.38726354  1
  Si  Si3  1  0.75000000  0.72862185  0.88726354  1
loop_
_geom_bond_atom_site_label_1
_geom_bond_atom_site_label_2
_geom_bond_distance
_geom_bond_site_symmetry_2
Ca0 Si0 3.086691 1_556
Ca0 Si3 3.149219 1_445
Ca0 Si3 3.149219 1_545
Ca0 Si1 3.199557 1_555
Ca0 Si1 3.199557 1_455
Ca0 Mg0 3.276503 1_445
Ca0 Mg0 3.276503 1_545
Ca0 Mg3 3.293657 1_555
Ca0 Mg1 3.449420 1_546
Ca0 Mg2 3.488760 1_455
Ca0 Mg2 3.488760 1_555
Ca1 Si3 3.086691 1_554
Ca1 Si0 3.149219 1_565
Ca1 Si0 3.149219 1_665
Ca1 Si2 3.199557 1_555
Ca1 Si2 3.199557 1_655
Ca1 Mg3 3.276503 1_665
Ca1 Mg3 3.276503 1_565
Ca1 Mg0 3.293657 1_555
Ca1 Mg2 3.449420 1_564
Ca1 Mg1 3.488760 1_655
Ca1 Mg1 3.488760 1_555
Ca2 Si2 3.086691 1_555
Ca2 Si1 3.149219 1_555
Ca2 Si1 3.149219 1_455
Ca2 Si3 3.199557 1_555
Ca2 Si3 3.199557 1_455
Ca2 Mg2 3.276503 1_455
Ca2 Mg2 3.276503 1_555
Ca2 Mg1 3.293657 1_556
Ca2 Mg3 3.449420 1_555
Ca2 Mg0 3.488760 1_455
Ca2 Mg0 3.488760 1_555
Ca3 Si1 3.086691 1_555
Ca3 Si2 3.149219 1_655
Ca3 Si2 3.149219 1_555
Ca3 Si0 3.199557 1_655
Ca3 Si0 3.199557 1_555
Ca3 Mg1 3.276503 1_655
Ca3 Mg1 3.276503 1_555
Ca3 Mg2 3.293657 1_554
Ca3 Mg0 3.449420 1_555
Ca3 Mg3 3.488760 1_555
Ca3 Mg3 3.488760 1_655
Mg0 Si2 2.726411 1_555
Mg0 Si2 2.726411 1_655
Mg0 Si3 2.817299 1_555
Mg0 Si1 2.830026 1_565
Mg1 Si3 2.726411 1_554
Mg1 Si3 2.726411 1_454
Mg1 Si2 2.817299 1_555
Mg1 Si0 2.830026 1_555
Mg2 Si0 2.726411 1_656
Mg2 Si0 2.726411 1_556
Mg2 Si1 2.817299 1_555
Mg2 Si3 2.830026 1_555
Mg3 Si1 2.726411 1_555
Mg3 Si1 2.726411 1_455
Mg3 Si0 2.817299 1_555
Mg3 Si2 2.830026 1_545
