# generated using pymatgen
data_NaMo2P3O13
_symmetry_space_group_name_H-M   'P 1'
_cell_length_a   22.69559200
_cell_length_b   6.47717000
_cell_length_c   8.79148959
_cell_angle_alpha   53.84104531
_cell_angle_beta   90.00000000
_cell_angle_gamma   90.00000000
_symmetry_Int_Tables_number   1
_chemical_formula_structural   NaMo2P3O13
_chemical_formula_sum   'Na4 Mo8 P12 O52'
_cell_volume   1043.44361511
_cell_formula_units_Z   4
loop_
 _symmetry_equiv_pos_site_id
 _symmetry_equiv_pos_as_xyz
  1  'x, y, z'
loop_
 _atom_site_type_symbol
 _atom_site_label
 _atom_site_symmetry_multiplicity
 _atom_site_fract_x
 _atom_site_fract_y
 _atom_site_fract_z
 _atom_site_occupancy
  Na  Na0  1  0.63263100  0.96551600  0.20381100  1
  Na  Na1  1  0.13263100  0.03448400  0.29618900  1
  Na  Na2  1  0.86736900  0.96551600  0.70381100  1
  Na  Na3  1  0.36736900  0.03448400  0.79618900  1
  Mo  Mo0  1  0.20766600  0.74583100  0.04054900  1
  Mo  Mo1  1  0.43647600  0.44893200  0.27699400  1
  Mo  Mo2  1  0.56352400  0.55106800  0.72300600  1
  Mo  Mo3  1  0.29233400  0.74583100  0.54054900  1
  Mo  Mo4  1  0.70766600  0.25416900  0.45945100  1
  Mo  Mo5  1  0.79233400  0.25416900  0.95945100  1
  Mo  Mo6  1  0.93647600  0.55106800  0.22300600  1
  Mo  Mo7  1  0.06352400  0.44893200  0.77699400  1
  P  P0  1  0.08288000  0.52897500  0.35015000  1
  P  P1  1  0.58288000  0.47102500  0.14985000  1
  P  P2  1  0.09868400  0.02058400  0.70222400  1
  P  P3  1  0.90131600  0.97941600  0.29777600  1
  P  P4  1  0.59868400  0.97941600  0.79777600  1
  P  P5  1  0.41712000  0.52897500  0.85015000  1
  P  P6  1  0.20321600  0.35915100  0.91386700  1
  P  P7  1  0.40131600  0.02058400  0.20222400  1
  P  P8  1  0.70321600  0.64084900  0.58613300  1
  P  P9  1  0.29678400  0.35915100  0.41386700  1
  P  P10  1  0.91712000  0.47102500  0.64985000  1
  P  P11  1  0.79678400  0.64084900  0.08613300  1
  O  O0  1  0.06623700  0.81459500  0.70155400  1
  O  O1  1  0.57839300  0.36705500  0.03284600  1
  O  O2  1  0.65339000  0.54826800  0.73329300  1
  O  O3  1  0.52360300  0.51396900  0.20999800  1
  O  O4  1  0.93932800  0.72076100  0.98283500  1
  O  O5  1  0.02360300  0.48603100  0.29000200  1
  O  O6  1  0.26116600  0.48967800  0.81142300  1
  O  O7  1  0.23883400  0.48967800  0.31142300  1
  O  O8  1  0.70668200  0.93560600  0.45692200  1
  O  O9  1  0.34085700  0.94219300  0.29442800  1
  O  O10  1  0.29331800  0.06439400  0.54307800  1
  O  O11  1  0.20668200  0.06439400  0.04307800  1
  O  O12  1  0.34661000  0.45173200  0.26670700  1
  O  O13  1  0.93376300  0.18540500  0.29844600  1
  O  O14  1  0.97639700  0.51396900  0.70999800  1
  O  O15  1  0.37536800  0.68119300  0.68437100  1
  O  O16  1  0.72371200  0.18123500  0.05818300  1
  O  O17  1  0.87536800  0.31880700  0.81562900  1
  O  O18  1  0.56623700  0.18540500  0.79844600  1
  O  O19  1  0.68892700  0.57602500  0.44437500  1
  O  O20  1  0.31107300  0.42397500  0.55562500  1
  O  O21  1  0.18892700  0.42397500  0.05562500  1
  O  O22  1  0.43932800  0.27923900  0.51716500  1
  O  O23  1  0.61212700  0.75781700  0.01831200  1
  O  O24  1  0.73883400  0.51032200  0.18857700  1
  O  O25  1  0.77628800  0.18123500  0.55818300  1
  O  O26  1  0.06067200  0.27923900  0.01716500  1
  O  O27  1  0.12463200  0.68119300  0.18437100  1
  O  O28  1  0.15339000  0.45173200  0.76670700  1
  O  O29  1  0.05770900  0.13293800  0.77446600  1
  O  O30  1  0.43376300  0.81459500  0.20155400  1
  O  O31  1  0.56067200  0.72076100  0.48283500  1
  O  O32  1  0.88787300  0.75781700  0.51831200  1
  O  O33  1  0.92160700  0.36705500  0.53284600  1
  O  O34  1  0.07839300  0.63294500  0.46715400  1
  O  O35  1  0.38787300  0.24218300  0.98168800  1
  O  O36  1  0.81107300  0.57602500  0.94437500  1
  O  O37  1  0.15914300  0.94219300  0.79442800  1
  O  O38  1  0.76116600  0.51032200  0.68857700  1
  O  O39  1  0.84085700  0.05780700  0.20557200  1
  O  O40  1  0.47639700  0.48603100  0.79000200  1
  O  O41  1  0.84661000  0.54826800  0.23329300  1
  O  O42  1  0.27628800  0.81876500  0.94181700  1
  O  O43  1  0.11212700  0.24218300  0.48168800  1
  O  O44  1  0.79331800  0.93560600  0.95692200  1
  O  O45  1  0.62463200  0.31880700  0.31562900  1
  O  O46  1  0.55770900  0.86706200  0.72553400  1
  O  O47  1  0.94229100  0.86706200  0.22553400  1
  O  O48  1  0.44229100  0.13293800  0.27446600  1
  O  O49  1  0.65914300  0.05780700  0.70557200  1
  O  O50  1  0.22371200  0.81876500  0.44181700  1
  O  O51  1  0.42160700  0.63294500  0.96715400  1
loop_
_geom_bond_atom_site_label_1
_geom_bond_atom_site_label_2
_geom_bond_distance
_geom_bond_site_symmetry_2
Na0 O16 2.398649 1_565
Na0 O1 2.434281 1_565
Na0 O19 2.484680 1_555
Na0 O31 2.570751 1_555
Na0 O23 2.697202 1_555
Na0 O8 2.702767 1_555
Na0 O45 2.981668 1_565
Na1 O50 2.398649 1_545
Na1 O34 2.434281 1_545
Na1 O21 2.484680 1_555
Na1 O26 2.570751 1_555
Na1 O43 2.697202 1_555
Na1 O11 2.702767 1_555
Na1 O27 2.981668 1_545
Na2 O25 2.398649 1_565
Na2 O33 2.434281 1_565
Na2 O36 2.484680 1_555
Na2 O4 2.570751 1_555
Na2 O32 2.697202 1_555
Na2 O44 2.702767 1_555
Na2 O17 2.981668 1_565
Na3 O42 2.398649 1_545
Na3 O51 2.434281 1_545
Na3 O20 2.484680 1_555
Na3 O22 2.570751 1_555
Na3 O35 2.697202 1_555
Na3 O10 2.702767 1_555
Na3 O15 2.981668 1_545
Mo0 O42 1.708292 1_554
Mo0 O21 2.053880 1_555
Mo0 O7 2.064381 1_555
Mo0 O37 2.065133 1_554
Mo0 O11 2.076703 1_565
Mo0 O27 2.168108 1_555
Mo1 O22 1.712281 1_555
Mo1 O3 2.035113 1_555
Mo1 O12 2.041173 1_555
Mo1 O30 2.049293 1_555
Mo1 O48 2.064162 1_555
Mo1 O51 2.263446 1_554
Mo2 O31 1.712281 1_555
Mo2 O40 2.035113 1_555
Mo2 O2 2.041173 1_555
Mo2 O18 2.049293 1_555
Mo2 O46 2.064162 1_555
Mo2 O1 2.263446 1_556
Mo3 O50 1.708292 1_555
Mo3 O20 2.053880 1_555
Mo3 O6 2.064381 1_555
Mo3 O9 2.065133 1_555
Mo3 O10 2.076703 1_565
Mo3 O15 2.168108 1_555
Mo4 O25 1.708292 1_555
Mo4 O19 2.053880 1_555
Mo4 O24 2.064381 1_555
Mo4 O49 2.065133 1_555
Mo4 O8 2.076703 1_545
Mo4 O45 2.168108 1_555
Mo5 O16 1.708292 1_556
Mo5 O36 2.053880 1_555
Mo5 O38 2.064381 1_555
Mo5 O39 2.065133 1_556
Mo5 O44 2.076703 1_545
Mo5 O17 2.168108 1_555
Mo6 O4 1.712281 1_554
Mo6 O5 2.035113 1_655
Mo6 O41 2.041173 1_555
Mo6 O13 2.049293 1_555
Mo6 O47 2.064162 1_555
Mo6 O33 2.263446 1_555
Mo7 O26 1.712281 1_556
Mo7 O14 2.035113 1_455
Mo7 O28 2.041173 1_555
Mo7 O0 2.049293 1_555
Mo7 O29 2.064162 1_555
Mo7 O34 2.263446 1_555
O0 P2 1.527009 1_565
O1 P1 1.529518 1_555
O2 P8 1.548118 1_555
O3 P1 1.529857 1_555
O5 P0 1.529857 1_555
O6 P6 1.535304 1_555
O7 P9 1.535304 1_555
O8 P8 1.543484 1_555
O9 P7 1.520529 1_565
O10 P9 1.543484 1_555
O11 P6 1.543484 1_554
O12 P9 1.548118 1_555
O13 P3 1.527009 1_545
O14 P10 1.529857 1_555
O15 P5 1.516067 1_555
O17 P10 1.516067 1_555
O18 P4 1.527009 1_545
O19 P8 1.565929 1_555
O20 P9 1.565929 1_555
O21 P6 1.565929 1_554
O23 P4 1.621238 1_554
O23 P1 1.641229 1_555
O24 P11 1.535304 1_555
O27 P0 1.516067 1_555
O28 P6 1.548118 1_555
O29 P2 1.530751 1_555
O30 P7 1.527009 1_565
O32 P3 1.621238 1_555
O32 P10 1.641229 1_555
O33 P10 1.529518 1_555
O34 P0 1.529518 1_555
O35 P7 1.621238 1_556
O35 P5 1.641229 1_555
O36 P11 1.565929 1_556
O37 P2 1.520529 1_565
O38 P8 1.535304 1_555
O39 P3 1.520529 1_545
O40 P5 1.529857 1_555
O41 P11 1.548118 1_555
O43 P2 1.621238 1_555
O43 P0 1.641229 1_555
O44 P11 1.543484 1_556
O45 P1 1.516067 1_555
O46 P4 1.530751 1_555
O47 P3 1.530751 1_555
O48 P7 1.530751 1_555
O49 P4 1.520529 1_545
O51 P5 1.529518 1_555
