# generated using pymatgen
data_Ca2Cu(BrO)2
_symmetry_space_group_name_H-M   'P 1'
_cell_length_a   3.88489600
_cell_length_b   3.88489600
_cell_length_c   9.26575389
_cell_angle_alpha   102.10110031
_cell_angle_beta   102.10110031
_cell_angle_gamma   90.00000000
_symmetry_Int_Tables_number   1
_chemical_formula_structural   Ca2Cu(BrO)2
_chemical_formula_sum   'Ca2 Cu1 Br2 O2'
_cell_volume   133.55551406
_cell_formula_units_Z   1
loop_
 _symmetry_equiv_pos_site_id
 _symmetry_equiv_pos_as_xyz
  1  'x, y, z'
loop_
 _atom_site_type_symbol
 _atom_site_label
 _atom_site_symmetry_multiplicity
 _atom_site_fract_x
 _atom_site_fract_y
 _atom_site_fract_z
 _atom_site_occupancy
  Ca  Ca0  1  0.41112300  0.41112300  0.82224600  1
  Ca  Ca1  1  0.58887700  0.58887700  0.17775400  1
  Cu  Cu0  1  0.00000000  0.00000000  0.00000000  1
  Br  Br0  1  0.82966400  0.82966400  0.65932800  1
  Br  Br1  1  0.17033600  0.17033600  0.34067200  1
  O  O0  1  0.50000000  0.00000000  0.00000000  1
  O  O1  1  0.00000000  0.50000000  0.00000000  1
loop_
_geom_bond_atom_site_label_1
_geom_bond_atom_site_label_2
_geom_bond_distance
_geom_bond_site_symmetry_2
Ca0 O0 2.499472 1_556
Ca0 O1 2.499472 1_556
Ca0 O0 2.499472 1_566
Ca0 O1 2.499472 1_656
Ca1 O1 2.499472 1_555
Ca1 O0 2.499472 1_555
Ca1 O1 2.499472 1_655
Ca1 O0 2.499472 1_565
Cu0 O1 1.942448 1_555
Cu0 O0 1.942448 1_455
Cu0 O1 1.942448 1_545
Cu0 O0 1.942448 1_555
Br0 Cu0 3.014668 1_666
Br0 Ca0 3.102367 1_665
Br0 Ca0 3.102367 1_655
Br0 Ca0 3.102367 1_565
Br0 Ca0 3.102367 1_555
Br1 Cu0 3.014668 1_555
Br1 Ca1 3.102367 1_545
Br1 Ca1 3.102367 1_555
Br1 Ca1 3.102367 1_445
Br1 Ca1 3.102367 1_455
