# generated using pymatgen
data_BaV4As4O19
_symmetry_space_group_name_H-M   'P 1'
_cell_length_a   7.78455100
_cell_length_b   11.29341200
_cell_length_c   17.78606500
_cell_angle_alpha   90.00000000
_cell_angle_beta   90.00000000
_cell_angle_gamma   90.00000000
_symmetry_Int_Tables_number   1
_chemical_formula_structural   BaV4As4O19
_chemical_formula_sum   'Ba4 V16 As16 O76'
_cell_volume   1563.64663830
_cell_formula_units_Z   4
loop_
 _symmetry_equiv_pos_site_id
 _symmetry_equiv_pos_as_xyz
  1  'x, y, z'
loop_
 _atom_site_type_symbol
 _atom_site_label
 _atom_site_symmetry_multiplicity
 _atom_site_fract_x
 _atom_site_fract_y
 _atom_site_fract_z
 _atom_site_occupancy
  Ba  Ba0  1  0.75000000  0.87259200  0.26323900  1
  Ba  Ba1  1  0.25000000  0.37259200  0.23676100  1
  Ba  Ba2  1  0.75000000  0.62740800  0.76323900  1
  Ba  Ba3  1  0.25000000  0.12740800  0.73676100  1
  V  V0  1  0.55195300  0.89645400  0.87889800  1
  V  V1  1  0.54878100  0.14231800  0.38411900  1
  V  V2  1  0.94804700  0.89645400  0.87889800  1
  V  V3  1  0.04878100  0.85768200  0.61588100  1
  V  V4  1  0.44804700  0.39645400  0.62110200  1
  V  V5  1  0.94804700  0.60354600  0.37889800  1
  V  V6  1  0.05195300  0.39645400  0.62110200  1
  V  V7  1  0.55195300  0.60354600  0.37889800  1
  V  V8  1  0.95121900  0.35768200  0.88411900  1
  V  V9  1  0.95121900  0.14231800  0.38411900  1
  V  V10  1  0.04878100  0.64231800  0.11588100  1
  V  V11  1  0.44804700  0.10354600  0.12110200  1
  V  V12  1  0.45121900  0.64231800  0.11588100  1
  V  V13  1  0.05195300  0.10354600  0.12110200  1
  V  V14  1  0.45121900  0.85768200  0.61588100  1
  V  V15  1  0.54878100  0.35768200  0.88411900  1
  As  As0  1  0.25000000  0.76382600  0.77570300  1
  As  As1  1  0.75000000  0.62544500  0.96904100  1
  As  As2  1  0.25000000  0.37455500  0.03095900  1
  As  As3  1  0.75000000  0.12615200  0.98027100  1
  As  As4  1  0.75000000  0.99102600  0.72047400  1
  As  As5  1  0.25000000  0.00897400  0.27952600  1
  As  As6  1  0.75000000  0.26382600  0.72429700  1
  As  As7  1  0.25000000  0.49102600  0.77952600  1
  As  As8  1  0.25000000  0.12544500  0.53095900  1
  As  As9  1  0.25000000  0.73617400  0.27570300  1
  As  As10  1  0.75000000  0.87455500  0.46904100  1
  As  As11  1  0.75000000  0.23617400  0.22429700  1
  As  As12  1  0.25000000  0.87384800  0.01972900  1
  As  As13  1  0.75000000  0.50897400  0.22047400  1
  As  As14  1  0.25000000  0.62615200  0.51972900  1
  As  As15  1  0.75000000  0.37384800  0.48027100  1
  O  O0  1  0.25000000  0.00076400  0.58967400  1
  O  O1  1  0.43471000  0.73963700  0.32670500  1
  O  O2  1  0.94346400  0.74712600  0.16003900  1
  O  O3  1  0.05632600  0.00211300  0.83723700  1
  O  O4  1  0.94367400  0.99788700  0.16276300  1
  O  O5  1  0.55653600  0.74712600  0.16003900  1
  O  O6  1  0.44367400  0.00211300  0.83723700  1
  O  O7  1  0.93471000  0.26036300  0.67329500  1
  O  O8  1  0.75000000  0.88692900  0.79314500  1
  O  O9  1  0.25000000  0.49673400  0.57400400  1
  O  O10  1  0.93454800  0.99460200  0.66969300  1
  O  O11  1  0.93611400  0.62362800  0.01930300  1
  O  O12  1  0.75000000  0.25669400  0.92807200  1
  O  O13  1  0.56545200  0.99460200  0.66969300  1
  O  O14  1  0.56388600  0.62362800  0.01930300  1
  O  O15  1  0.05653600  0.24712600  0.33996100  1
  O  O16  1  0.93471000  0.23963700  0.17329500  1
  O  O17  1  0.25000000  0.63319200  0.20327700  1
  O  O18  1  0.44346400  0.24712600  0.33996100  1
  O  O19  1  0.93611400  0.87637200  0.51930300  1
  O  O20  1  0.55632600  0.99788700  0.16276300  1
  O  O21  1  0.55653600  0.75287400  0.66003900  1
  O  O22  1  0.25000000  0.00326600  0.07400400  1
  O  O23  1  0.25000000  0.74330600  0.07192800  1
  O  O24  1  0.43471000  0.76036300  0.82670500  1
  O  O25  1  0.55826600  0.37322500  0.52498100  1
  O  O26  1  0.25000000  0.38692900  0.70685500  1
  O  O27  1  0.44367400  0.49788700  0.33723700  1
  O  O28  1  0.43454800  0.00539800  0.33030700  1
  O  O29  1  0.94367400  0.50211300  0.66276300  1
  O  O30  1  0.94173400  0.37322500  0.52498100  1
  O  O31  1  0.93454800  0.50539800  0.16969300  1
  O  O32  1  0.44173400  0.87322500  0.97501900  1
  O  O33  1  0.25000000  0.62571700  0.72802000  1
  O  O34  1  0.75000000  0.50076400  0.91032600  1
  O  O35  1  0.25000000  0.25096000  0.09098800  1
  O  O36  1  0.94173400  0.12677500  0.02498100  1
  O  O37  1  0.75000000  0.36680800  0.79672300  1
  O  O38  1  0.75000000  0.37428300  0.27198000  1
  O  O39  1  0.06545200  0.00539800  0.33030700  1
  O  O40  1  0.75000000  0.24330600  0.42807200  1
  O  O41  1  0.75000000  0.50326600  0.42599600  1
  O  O42  1  0.43611400  0.37637200  0.98069700  1
  O  O43  1  0.56529000  0.23963700  0.17329500  1
  O  O44  1  0.75000000  0.61307100  0.29314500  1
  O  O45  1  0.56388600  0.87637200  0.51930300  1
  O  O46  1  0.94346400  0.75287400  0.66003900  1
  O  O47  1  0.55826600  0.12677500  0.02498100  1
  O  O48  1  0.06388600  0.12362800  0.48069700  1
  O  O49  1  0.06388600  0.37637200  0.98069700  1
  O  O50  1  0.25000000  0.87428300  0.22802000  1
  O  O51  1  0.25000000  0.86680800  0.70327700  1
  O  O52  1  0.75000000  0.99673400  0.92599600  1
  O  O53  1  0.06529000  0.73963700  0.32670500  1
  O  O54  1  0.25000000  0.49923600  0.08967400  1
  O  O55  1  0.05826600  0.87322500  0.97501900  1
  O  O56  1  0.05632600  0.49788700  0.33723700  1
  O  O57  1  0.43454800  0.49460200  0.83030700  1
  O  O58  1  0.56529000  0.26036300  0.67329500  1
  O  O59  1  0.25000000  0.11307100  0.20685500  1
  O  O60  1  0.06529000  0.76036300  0.82670500  1
  O  O61  1  0.06545200  0.49460200  0.83030700  1
  O  O62  1  0.56545200  0.50539800  0.16969300  1
  O  O63  1  0.25000000  0.75669400  0.57192800  1
  O  O64  1  0.05653600  0.25287400  0.83996100  1
  O  O65  1  0.75000000  0.12571700  0.77198000  1
  O  O66  1  0.75000000  0.13319200  0.29672300  1
  O  O67  1  0.75000000  0.99923600  0.41032600  1
  O  O68  1  0.25000000  0.24904000  0.59098800  1
  O  O69  1  0.44173400  0.62677500  0.47501900  1
  O  O70  1  0.44346400  0.25287400  0.83996100  1
  O  O71  1  0.05826600  0.62677500  0.47501900  1
  O  O72  1  0.55632600  0.50211300  0.66276300  1
  O  O73  1  0.75000000  0.74904000  0.90901200  1
  O  O74  1  0.43611400  0.12362800  0.48069700  1
  O  O75  1  0.75000000  0.75096000  0.40901200  1
loop_
_geom_bond_atom_site_label_1
_geom_bond_atom_site_label_2
_geom_bond_distance
_geom_bond_site_symmetry_2
Ba0 O4 2.732934 1_555
Ba0 O20 2.732934 1_555
Ba0 O2 2.764957 1_555
Ba0 O5 2.764957 1_555
Ba0 O75 2.934131 1_555
Ba0 O44 2.978753 1_555
Ba0 O67 2.981538 1_555
Ba0 O66 3.002715 1_565
Ba0 O1 3.090760 1_555
Ba0 O53 3.090760 1_655
Ba0 O28 3.114912 1_565
Ba0 O39 3.114912 1_665
Ba1 O27 2.732934 1_555
Ba1 O56 2.732934 1_555
Ba1 O18 2.764957 1_555
Ba1 O15 2.764957 1_555
Ba1 O35 2.934131 1_555
Ba1 O59 2.978753 1_555
Ba1 O54 2.981538 1_555
Ba1 O17 3.002715 1_555
Ba1 O16 3.090760 1_455
Ba1 O43 3.090760 1_555
Ba1 O62 3.114912 1_555
Ba1 O31 3.114912 1_455
Ba2 O29 2.732934 1_555
Ba2 O72 2.732934 1_555
Ba2 O46 2.764957 1_555
Ba2 O21 2.764957 1_555
Ba2 O73 2.934131 1_555
Ba2 O8 2.978753 1_555
Ba2 O34 2.981538 1_555
Ba2 O37 3.002715 1_555
Ba2 O24 3.090760 1_555
Ba2 O60 3.090760 1_655
Ba2 O61 3.114912 1_655
Ba2 O57 3.114912 1_555
Ba3 O6 2.732934 1_555
Ba3 O3 2.732934 1_555
Ba3 O70 2.764957 1_555
Ba3 O64 2.764957 1_555
Ba3 O68 2.934131 1_555
Ba3 O26 2.978753 1_555
Ba3 O0 2.981538 1_555
Ba3 O51 3.002715 1_545
Ba3 O7 3.090760 1_455
Ba3 O58 3.090760 1_555
Ba3 O13 3.114912 1_545
Ba3 O10 3.114912 1_445
As0 O60 1.700564 1_555
As0 O24 1.700564 1_555
As0 O51 1.735512 1_555
As0 O33 1.775386 1_555
As1 O14 1.702543 1_556
As1 O11 1.702543 1_556
As1 O34 1.753070 1_555
As1 O73 1.757334 1_555
As2 O42 1.702543 1_554
As2 O49 1.702543 1_554
As2 O54 1.753070 1_555
As2 O35 1.757334 1_555
As3 O36 1.691201 1_556
As3 O47 1.691201 1_556
As3 O12 1.742243 1_555
As3 O52 1.751590 1_545
As4 O10 1.697433 1_555
As4 O13 1.697433 1_555
As4 O8 1.747197 1_555
As4 O65 1.775677 1_565
As5 O39 1.697433 1_555
As5 O28 1.697433 1_555
As5 O59 1.747197 1_555
As5 O50 1.775677 1_545
As6 O58 1.700564 1_555
As6 O7 1.700564 1_555
As6 O37 1.735512 1_555
As6 O65 1.775386 1_555
As7 O61 1.697433 1_555
As7 O57 1.697433 1_555
As7 O26 1.747197 1_555
As7 O33 1.775677 1_555
As8 O48 1.702543 1_555
As8 O74 1.702543 1_555
As8 O0 1.753070 1_555
As8 O68 1.757334 1_555
As9 O53 1.700564 1_555
As9 O1 1.700564 1_555
As9 O17 1.735512 1_555
As9 O50 1.775386 1_555
As10 O19 1.702543 1_555
As10 O45 1.702543 1_555
As10 O67 1.753070 1_555
As10 O75 1.757334 1_555
As11 O43 1.700564 1_555
As11 O16 1.700564 1_555
As11 O66 1.735512 1_555
As11 O38 1.775386 1_555
As12 O32 1.691201 1_554
As12 O55 1.691201 1_554
As12 O23 1.742243 1_555
As12 O22 1.751590 1_565
As13 O31 1.697433 1_555
As13 O62 1.697433 1_555
As13 O44 1.747197 1_555
As13 O38 1.775677 1_555
As14 O69 1.691201 1_555
As14 O71 1.691201 1_555
As14 O63 1.742243 1_555
As14 O9 1.751590 1_555
As15 O30 1.691201 1_555
As15 O25 1.691201 1_555
As15 O40 1.742243 1_555
As15 O41 1.751590 1_555
O0 V14 2.298251 1_545
O0 V3 2.298251 1_545
O1 V7 2.014177 1_555
O2 V10 1.640122 1_655
O3 V2 1.638106 1_445
O4 V13 1.638106 1_665
O5 V12 1.640122 1_555
O6 V0 1.638106 1_545
O7 V6 2.014177 1_655
O8 V2 2.171334 1_555
O8 V0 2.171334 1_555
O9 V4 2.088336 1_555
O9 V6 2.088336 1_555
O10 V3 2.024313 1_655
O11 V10 1.940214 1_655
O12 V8 2.089373 1_555
O12 V15 2.089373 1_555
O13 V14 2.024313 1_555
O14 V12 1.940214 1_555
O15 V9 1.640122 1_455
O16 V13 2.014177 1_655
O17 V12 2.209182 1_555
O17 V10 2.209182 1_555
O18 V1 1.640122 1_555
O19 V3 1.940214 1_655
O20 V11 1.638106 1_565
O21 V14 1.640122 1_555
O22 V11 2.088336 1_555
O22 V13 2.088336 1_555
O23 V12 2.089373 1_555
O23 V10 2.089373 1_555
O24 V0 2.014177 1_555
O25 V4 1.930744 1_555
O26 V4 2.171334 1_555
O26 V6 2.171334 1_555
O27 V7 1.638106 1_555
O28 V1 2.024313 1_555
O29 V6 1.638106 1_655
O30 V6 1.930744 1_655
O31 V10 2.024313 1_655
O32 V0 1.930744 1_555
O34 V8 2.298251 1_555
O34 V15 2.298251 1_555
O35 V11 2.331377 1_555
O35 V13 2.331377 1_555
O36 V13 1.930744 1_655
O37 V8 2.209182 1_555
O37 V15 2.209182 1_555
O39 V9 2.024313 1_455
O40 V9 2.089373 1_555
O40 V1 2.089373 1_555
O41 V7 2.088336 1_555
O41 V5 2.088336 1_555
O42 V15 1.940214 1_555
O43 V11 2.014177 1_555
O44 V5 2.171334 1_555
O44 V7 2.171334 1_555
O45 V14 1.940214 1_555
O46 V3 1.640122 1_655
O47 V11 1.930744 1_555
O48 V9 1.940214 1_455
O49 V8 1.940214 1_455
O51 V3 2.209182 1_555
O51 V14 2.209182 1_555
O52 V0 2.088336 1_555
O52 V2 2.088336 1_555
O53 V5 2.014177 1_455
O54 V12 2.298251 1_555
O54 V10 2.298251 1_555
O55 V2 1.930744 1_455
O56 V5 1.638106 1_455
O57 V15 2.024313 1_555
O58 V4 2.014177 1_555
O59 V11 2.171334 1_555
O59 V13 2.171334 1_555
O60 V2 2.014177 1_455
O61 V8 2.024313 1_455
O62 V12 2.024313 1_555
O63 V3 2.089373 1_555
O63 V14 2.089373 1_555
O64 V8 1.640122 1_455
O66 V9 2.209182 1_555
O66 V1 2.209182 1_555
O67 V9 2.298251 1_565
O67 V1 2.298251 1_565
O68 V6 2.331377 1_555
O68 V4 2.331377 1_555
O69 V7 1.930744 1_555
O70 V15 1.640122 1_555
O71 V5 1.930744 1_455
O72 V4 1.638106 1_555
O73 V0 2.331377 1_555
O73 V2 2.331377 1_555
O74 V1 1.940214 1_555
O75 V7 2.331377 1_555
O75 V5 2.331377 1_555
