# generated using pymatgen
data_RbNaLi6(SiO4)2
_symmetry_space_group_name_H-M   'P 1'
_cell_length_a   8.55081611
_cell_length_b   8.55081611
_cell_length_c   7.88661880
_cell_angle_alpha   89.46785927
_cell_angle_beta   89.46785927
_cell_angle_gamma   43.68557316
_symmetry_Int_Tables_number   1
_chemical_formula_structural   RbNaLi6(SiO4)2
_chemical_formula_sum   'Rb2 Na2 Li12 Si4 O16'
_cell_volume   398.26662892
_cell_formula_units_Z   2
loop_
 _symmetry_equiv_pos_site_id
 _symmetry_equiv_pos_as_xyz
  1  'x, y, z'
loop_
 _atom_site_type_symbol
 _atom_site_label
 _atom_site_symmetry_multiplicity
 _atom_site_fract_x
 _atom_site_fract_y
 _atom_site_fract_z
 _atom_site_occupancy
  Rb  Rb0  1  0.75538600  0.75538600  0.46894200  1
  Rb  Rb1  1  0.24461400  0.24461400  0.53105800  1
  Na  Na0  1  0.25192100  0.74807900  0.00000000  1
  Na  Na1  1  0.74807900  0.25192100  0.00000000  1
  Li  Li0  1  0.35946600  0.35946600  0.86600200  1
  Li  Li1  1  0.32353400  0.81529100  0.37350900  1
  Li  Li2  1  0.55512900  0.07086600  0.13372800  1
  Li  Li3  1  0.07086600  0.55512900  0.13372800  1
  Li  Li4  1  0.92913400  0.44487100  0.86627200  1
  Li  Li5  1  0.44487100  0.92913400  0.86627200  1
  Li  Li6  1  0.06680000  0.06680000  0.71740600  1
  Li  Li7  1  0.18470900  0.67646600  0.62649100  1
  Li  Li8  1  0.64053400  0.64053400  0.13399800  1
  Li  Li9  1  0.81529100  0.32353400  0.37350900  1
  Li  Li10  1  0.67646600  0.18470900  0.62649100  1
  Li  Li11  1  0.93320000  0.93320000  0.28259400  1
  Si  Si0  1  0.14603300  0.14603300  0.14044700  1
  Si  Si1  1  0.85396700  0.85396700  0.85955300  1
  Si  Si2  1  0.57072800  0.57072800  0.70833800  1
  Si  Si3  1  0.42927200  0.42927200  0.29166200  1
  O  O0  1  0.97598100  0.41433300  0.19546400  1
  O  O1  1  0.81810200  0.38029400  0.60937600  1
  O  O2  1  0.58566700  0.02401900  0.80453600  1
  O  O3  1  0.13042900  0.13042900  0.93271000  1
  O  O4  1  0.38029400  0.81810200  0.60937600  1
  O  O5  1  0.05297100  0.05297100  0.23888100  1
  O  O6  1  0.46778700  0.46778700  0.74410300  1
  O  O7  1  0.38353100  0.38353100  0.10313600  1
  O  O8  1  0.41433300  0.97598100  0.19546400  1
  O  O9  1  0.53221300  0.53221300  0.25589700  1
  O  O10  1  0.61970600  0.18189800  0.39062400  1
  O  O11  1  0.18189800  0.61970600  0.39062400  1
  O  O12  1  0.86957100  0.86957100  0.06729000  1
  O  O13  1  0.94702900  0.94702900  0.76111900  1
  O  O14  1  0.61646900  0.61646900  0.89686400  1
  O  O15  1  0.02401900  0.58566700  0.80453600  1
loop_
_geom_bond_atom_site_label_1
_geom_bond_atom_site_label_2
_geom_bond_distance
_geom_bond_site_symmetry_2
Na0 O7 2.557589 1_555
Na0 O14 2.557589 1_554
Na0 O9 2.616626 1_555
Na0 O6 2.616626 1_554
Na0 O13 2.618675 1_454
Na0 O5 2.618675 1_565
Na0 O3 2.667520 1_564
Na0 O12 2.667520 1_455
Na1 O7 2.557589 1_555
Na1 O14 2.557589 1_554
Na1 O9 2.616626 1_555
Na1 O6 2.616626 1_554
Na1 O13 2.618675 1_544
Na1 O5 2.618675 1_655
Na1 O3 2.667520 1_654
Na1 O12 2.667520 1_545
Li0 O7 1.912542 1_556
Li0 O6 1.961567 1_555
Li0 O2 2.046468 1_555
Li0 O15 2.046468 1_555
Li1 O9 1.915110 1_555
Li1 O4 1.931561 1_555
Li1 O5 1.953326 1_565
Li1 O8 2.439115 1_555
Li2 O7 1.918330 1_555
Li2 O8 1.933716 1_545
Li2 O12 1.940042 1_545
Li3 O7 1.918330 1_555
Li3 O0 1.933716 1_455
Li3 O12 1.940042 1_455
Li4 O14 1.918330 1_555
Li4 O15 1.933716 1_655
Li4 O3 1.940042 1_655
Li5 O14 1.918330 1_555
Li5 O2 1.933716 1_565
Li5 O3 1.940042 1_565
Li6 O13 1.928836 1_445
Li6 O3 1.984382 1_555
Li6 O1 2.044651 1_455
Li6 O4 2.044651 1_545
Li7 O6 1.915110 1_555
Li7 O11 1.931561 1_555
Li7 O13 1.953326 1_455
Li7 O15 2.439115 1_555
Li8 O14 1.912542 1_554
Li8 O9 1.961567 1_555
Li8 O8 2.046468 1_555
Li8 O0 2.046468 1_555
Li9 O9 1.915110 1_555
Li9 O1 1.931561 1_555
Li9 O5 1.953326 1_655
Li9 O0 2.439115 1_555
Li10 O6 1.915110 1_555
Li10 O10 1.931561 1_555
Li10 O13 1.953326 1_545
Li10 O2 2.439115 1_555
Li11 O5 1.928836 1_665
Li11 O12 1.984382 1_555
Li11 O11 2.044651 1_655
Li11 O10 2.044651 1_565
O0 Si0 1.657701 1_655
O0 Rb0 2.966478 1_555
O0 Rb1 3.099648 1_655
O1 Si2 1.657216 1_555
O1 Rb1 2.979981 1_655
O1 Rb0 3.042816 1_555
O2 Si1 1.657701 1_545
O2 Rb1 2.966478 1_555
O2 Rb0 3.099648 1_545
O3 Si0 1.659410 1_556
O4 Si2 1.657216 1_555
O4 Rb1 2.979981 1_565
O4 Rb0 3.042816 1_555
O5 Si0 1.661924 1_555
O6 Si2 1.655455 1_555
O7 Si3 1.661168 1_555
O8 Si0 1.657701 1_565
O8 Rb0 2.966478 1_555
O8 Rb1 3.099648 1_565
O9 Si3 1.655455 1_555
O10 Si3 1.657216 1_555
O10 Rb0 2.979981 1_545
O10 Rb1 3.042816 1_555
O11 Si3 1.657216 1_555
O11 Rb0 2.979981 1_455
O11 Rb1 3.042816 1_555
O12 Si1 1.659410 1_554
O13 Si1 1.661924 1_555
O14 Si2 1.661168 1_555
O15 Si1 1.657701 1_455
O15 Rb1 2.966478 1_555
O15 Rb0 3.099648 1_455
