# generated using pymatgen
data_Na2HoMoPO8
_symmetry_space_group_name_H-M   'P 1'
_cell_length_a   11.48085889
_cell_length_b   11.48085889
_cell_length_c   11.48085889
_cell_angle_alpha   144.85697008
_cell_angle_beta   115.88013907
_cell_angle_gamma   75.27336375
_symmetry_Int_Tables_number   1
_chemical_formula_structural   Na2HoMoPO8
_chemical_formula_sum   'Na8 Ho4 Mo4 P4 O32'
_cell_volume   768.14992717
_cell_formula_units_Z   4
loop_
 _symmetry_equiv_pos_site_id
 _symmetry_equiv_pos_as_xyz
  1  'x, y, z'
loop_
 _atom_site_type_symbol
 _atom_site_label
 _atom_site_symmetry_multiplicity
 _atom_site_fract_x
 _atom_site_fract_y
 _atom_site_fract_z
 _atom_site_occupancy
  Na  Na0  1  0.79060800  0.83597500  0.93287400  1
  Na  Na1  1  0.90310100  0.33597500  0.54536600  1
  Na  Na2  1  0.29060800  0.35773400  0.95463400  1
  Na  Na3  1  0.20939200  0.16402500  0.06712600  1
  Na  Na4  1  0.59689900  0.14226600  0.43287400  1
  Na  Na5  1  0.40310100  0.85773400  0.56712600  1
  Na  Na6  1  0.09689900  0.66402500  0.45463400  1
  Na  Na7  1  0.70939200  0.64226600  0.04536600  1
  Ho  Ho0  1  0.67798600  0.75000000  0.42798600  1
  Ho  Ho1  1  0.32201400  0.25000000  0.57201400  1
  Ho  Ho2  1  0.17798600  0.75000000  0.92798600  1
  Ho  Ho3  1  0.82201400  0.25000000  0.07201400  1
  Mo  Mo0  1  0.42785500  0.67785500  0.75000000  1
  Mo  Mo1  1  0.92785500  0.17785500  0.75000000  1
  Mo  Mo2  1  0.57214500  0.32214500  0.25000000  1
  Mo  Mo3  1  0.07214500  0.82214500  0.25000000  1
  P  P0  1  0.93092800  0.75000000  0.68092800  1
  P  P1  1  0.06907200  0.25000000  0.31907200  1
  P  P2  1  0.56907200  0.25000000  0.81907200  1
  P  P3  1  0.43092800  0.75000000  0.18092800  1
  O  O0  1  0.56108300  0.30521600  0.73022700  1
  O  O1  1  0.10437200  0.66916300  0.01498100  1
  O  O2  1  0.36196500  0.68963200  0.58793300  1
  O  O3  1  0.85939500  0.58314000  0.42646800  1
  O  O4  1  0.57498900  0.80521600  0.24413300  1
  O  O5  1  0.07498900  0.83085600  0.76977300  1
  O  O6  1  0.63803500  0.31036800  0.41206700  1
  O  O7  1  0.92501100  0.16914400  0.23022700  1
  O  O8  1  0.43891700  0.69478400  0.26977300  1
  O  O9  1  0.39562800  0.41060900  0.56479200  1
  O  O10  1  0.64060500  0.06707300  0.72374500  1
  O  O11  1  0.84332800  0.91686000  0.77625500  1
  O  O12  1  0.10170000  0.18963200  0.82766700  1
  O  O13  1  0.84581700  0.91060900  0.51498100  1
  O  O14  1  0.15667200  0.08314000  0.22374500  1
  O  O15  1  0.13803500  0.72596700  0.32766700  1
  O  O16  1  0.86196500  0.27403300  0.67233300  1
  O  O17  1  0.93891700  0.66914400  0.74413300  1
  O  O18  1  0.65667200  0.43292700  0.07353200  1
  O  O19  1  0.89830000  0.81036800  0.17233300  1
  O  O20  1  0.42501100  0.19478400  0.75586700  1
  O  O21  1  0.65418300  0.16916300  0.06479200  1
  O  O22  1  0.35939500  0.93292700  0.27625500  1
  O  O23  1  0.34332800  0.56707300  0.92646800  1
  O  O24  1  0.60437200  0.58939100  0.43520800  1
  O  O25  1  0.89562800  0.33083700  0.98501900  1
  O  O26  1  0.06108300  0.33085600  0.25586700  1
  O  O27  1  0.15418300  0.08939100  0.48501900  1
  O  O28  1  0.60170000  0.77403300  0.91206700  1
  O  O29  1  0.34581700  0.83083700  0.93520800  1
  O  O30  1  0.14060500  0.41686000  0.57353200  1
  O  O31  1  0.39830000  0.22596700  0.08793300  1
loop_
_geom_bond_atom_site_label_1
_geom_bond_atom_site_label_2
_geom_bond_distance
_geom_bond_site_symmetry_2
Na0 O28 2.306652 1_555
Na0 O7 2.390155 1_566
Na0 O17 2.457331 1_555
Na0 O19 2.709770 1_556
Na0 O11 2.903213 1_555
Na0 O21 2.988248 1_566
Na1 O16 2.306670 1_555
Na1 O17 2.390151 1_555
Na1 O7 2.457321 1_555
Na1 O6 2.709770 1_555
Na1 O30 2.903207 1_655
Na1 O1 2.988261 1_656
Na2 O12 2.306653 1_555
Na2 O20 2.390162 1_555
Na2 O8 2.457332 1_556
Na2 O31 2.709770 1_556
Na2 O23 2.903223 1_555
Na2 O27 2.988265 1_555
Na3 O31 2.306652 1_555
Na3 O5 2.390155 1_544
Na3 O26 2.457331 1_555
Na3 O12 2.709770 1_554
Na3 O14 2.903213 1_555
Na3 O29 2.988248 1_544
Na4 O6 2.306669 1_555
Na4 O0 2.390155 1_555
Na4 O4 2.457331 1_545
Na4 O16 2.709770 1_555
Na4 O22 2.903213 1_545
Na4 O9 2.988256 1_555
Na5 O2 2.306669 1_555
Na5 O8 2.390155 1_555
Na5 O20 2.457331 1_565
Na5 O15 2.709770 1_555
Na5 O10 2.903213 1_565
Na5 O24 2.988256 1_555
Na6 O15 2.306670 1_555
Na6 O26 2.390151 1_555
Na6 O5 2.457321 1_555
Na6 O2 2.709770 1_555
Na6 O3 2.903207 1_455
Na6 O25 2.988261 1_454
Na7 O19 2.306653 1_555
Na7 O4 2.390162 1_555
Na7 O0 2.457332 1_554
Na7 O28 2.709770 1_554
Na7 O18 2.903223 1_555
Na7 O13 2.988265 1_555
Ho0 O24 2.285774 1_555
Ho0 O13 2.285774 1_555
Ho0 O10 2.286535 1_565
Ho0 O18 2.286535 1_555
Ho0 O4 2.425670 1_555
Ho0 O8 2.425670 1_555
Ho0 O11 2.440601 1_555
Ho0 O3 2.440601 1_555
Ho1 O27 2.285774 1_555
Ho1 O9 2.285774 1_555
Ho1 O23 2.286535 1_555
Ho1 O22 2.286535 1_545
Ho1 O20 2.425670 1_555
Ho1 O0 2.425670 1_555
Ho1 O30 2.440601 1_555
Ho1 O14 2.440601 1_555
Ho2 O29 2.285780 1_555
Ho2 O1 2.285783 1_556
Ho2 O30 2.286535 1_555
Ho2 O14 2.286535 1_566
Ho2 O5 2.425670 1_555
Ho2 O17 2.425670 1_455
Ho2 O23 2.440601 1_555
Ho2 O22 2.440601 1_556
Ho3 O21 2.285780 1_555
Ho3 O25 2.285783 1_554
Ho3 O11 2.286535 1_544
Ho3 O3 2.286535 1_555
Ho3 O7 2.425670 1_555
Ho3 O26 2.425670 1_655
Ho3 O18 2.440601 1_555
Ho3 O10 2.440601 1_554
Mo0 O2 1.784181 1_555
Mo0 O28 1.784191 1_555
Mo0 O29 1.814611 1_555
Mo0 O9 1.814613 1_555
Mo1 O12 1.784192 1_655
Mo1 O16 1.784192 1_555
Mo1 O25 1.814609 1_555
Mo1 O13 1.814613 1_545
Mo2 O6 1.784181 1_555
Mo2 O31 1.784191 1_555
Mo2 O21 1.814611 1_555
Mo2 O24 1.814613 1_555
Mo3 O15 1.784192 1_555
Mo3 O19 1.784192 1_455
Mo3 O1 1.814609 1_555
Mo3 O27 1.814613 1_565
O0 P2 1.548217 1_555
O3 P0 1.559372 1_555
O4 P3 1.548217 1_555
O5 P0 1.548217 1_455
O7 P1 1.548217 1_655
O8 P3 1.548217 1_555
O10 P2 1.559372 1_555
O11 P0 1.559372 1_555
O14 P1 1.559372 1_555
O17 P0 1.548217 1_555
O18 P2 1.559372 1_554
O20 P2 1.548217 1_555
O22 P3 1.559372 1_555
O23 P3 1.559372 1_556
O26 P1 1.548217 1_555
O30 P1 1.559372 1_555
