# generated using pymatgen
data_K2HoPWO8
_symmetry_space_group_name_H-M   'P 1'
_cell_length_a   12.23658708
_cell_length_b   12.23658708
_cell_length_c   12.23658708
_cell_angle_alpha   146.98740540
_cell_angle_beta   119.90070331
_cell_angle_gamma   70.30280252
_symmetry_Int_Tables_number   1
_chemical_formula_structural   K2HoPWO8
_chemical_formula_sum   'K8 Ho4 P4 W4 O32'
_cell_volume   852.55752428
_cell_formula_units_Z   4
loop_
 _symmetry_equiv_pos_site_id
 _symmetry_equiv_pos_as_xyz
  1  'x, y, z'
loop_
 _atom_site_type_symbol
 _atom_site_label
 _atom_site_symmetry_multiplicity
 _atom_site_fract_x
 _atom_site_fract_y
 _atom_site_fract_z
 _atom_site_occupancy
  K  K0  1  0.57757000  0.18669500  0.45135400  1
  K  K1  1  0.23534100  0.12621600  0.04864600  1
  K  K2  1  0.92243000  0.37378400  0.60912500  1
  K  K3  1  0.07757000  0.62621600  0.39087500  1
  K  K4  1  0.42243000  0.81330500  0.54864600  1
  K  K5  1  0.73534100  0.68669500  0.10912500  1
  K  K6  1  0.26465900  0.31330500  0.89087500  1
  K  K7  1  0.76465900  0.87378400  0.95135400  1
  Ho  Ho0  1  0.17437300  0.25000000  0.42437300  1
  Ho  Ho1  1  0.82562700  0.75000000  0.57562700  1
  Ho  Ho2  1  0.32562700  0.75000000  0.07562700  1
  Ho  Ho3  1  0.67437300  0.25000000  0.92437300  1
  P  P0  1  0.42971600  0.25000000  0.67971600  1
  P  P1  1  0.07028400  0.75000000  0.82028400  1
  P  P2  1  0.57028400  0.75000000  0.32028400  1
  P  P3  1  0.92971600  0.25000000  0.17971600  1
  W  W0  1  0.91425500  0.16425500  0.75000000  1
  W  W1  1  0.08574500  0.83574500  0.25000000  1
  W  W2  1  0.41425500  0.66425500  0.75000000  1
  W  W3  1  0.58574500  0.33574500  0.25000000  1
  O  O0  1  0.44464500  0.17137500  0.73845800  1
  O  O1  1  0.55535500  0.82862500  0.26154200  1
  O  O2  1  0.35618400  0.08408000  0.42568200  1
  O  O3  1  0.15091500  0.84256400  0.42473900  1
  O  O4  1  0.16783300  0.67541000  0.06905700  1
  O  O5  1  0.15839800  0.93050200  0.07431800  1
  O  O6  1  0.65091500  0.22617700  0.30835200  1
  O  O7  1  0.05535500  0.79381400  0.72673000  1
  O  O8  1  0.06708400  0.29381400  0.23845800  1
  O  O9  1  0.65839800  0.58408000  0.22789600  1
  O  O10  1  0.41782500  0.34256400  0.19164800  1
  O  O11  1  0.84908500  0.15743600  0.57526100  1
  O  O12  1  0.34160200  0.41592000  0.77210400  1
  O  O13  1  0.34908500  0.77382300  0.69164800  1
  O  O14  1  0.93291600  0.70618600  0.76154200  1
  O  O15  1  0.56708400  0.32862500  0.77327000  1
  O  O16  1  0.83216700  0.32459000  0.93094300  1
  O  O17  1  0.84160200  0.06949800  0.92568200  1
  O  O18  1  0.64381600  0.91592000  0.57431800  1
  O  O19  1  0.89364700  0.90122400  0.56905700  1
  O  O20  1  0.39364700  0.82459000  0.99242300  1
  O  O21  1  0.33216700  0.40122400  0.50757700  1
  O  O22  1  0.66783300  0.59877600  0.49242300  1
  O  O23  1  0.10635300  0.09877600  0.43094300  1
  O  O24  1  0.60635300  0.17541000  0.00757700  1
  O  O25  1  0.94464500  0.20618600  0.27327000  1
  O  O26  1  0.58217500  0.65743600  0.80835200  1
  O  O27  1  0.91782500  0.72617700  0.07526100  1
  O  O28  1  0.14381600  0.56949800  0.72789600  1
  O  O29  1  0.85618400  0.43050200  0.27210400  1
  O  O30  1  0.43291600  0.67137500  0.22673000  1
  O  O31  1  0.08217500  0.27382300  0.92473900  1
loop_
_geom_bond_atom_site_label_1
_geom_bond_atom_site_label_2
_geom_bond_distance
_geom_bond_site_symmetry_2
K0 O6 2.716022 1_555
K0 O15 2.725773 1_555
K0 O1 2.787915 1_545
K0 O11 2.924334 1_555
K0 O20 2.936849 1_544
K0 O2 3.130034 1_555
K0 O26 3.168429 1_555
K0 O21 3.177870 1_555
K1 O10 2.716031 1_555
K1 O7 2.725773 1_544
K1 O8 2.787901 1_555
K1 O31 2.924324 1_554
K1 O21 2.936849 1_555
K1 O5 3.130034 1_545
K1 O13 3.168437 1_544
K1 O20 3.177870 1_544
K2 O11 2.716024 1_555
K2 O14 2.725766 1_555
K2 O25 2.787908 1_555
K2 O6 2.924333 1_555
K2 O23 2.936849 1_655
K2 O28 3.130034 1_655
K2 O27 3.168429 1_556
K2 O4 3.177870 1_656
K3 O3 2.716024 1_555
K3 O8 2.725766 1_555
K3 O7 2.787908 1_555
K3 O13 2.924333 1_555
K3 O19 2.936849 1_455
K3 O29 3.130034 1_455
K3 O31 3.168429 1_554
K3 O16 3.177870 1_454
K4 O13 2.716022 1_555
K4 O30 2.725773 1_555
K4 O0 2.787915 1_565
K4 O3 2.924334 1_555
K4 O24 2.936849 1_566
K4 O18 3.130034 1_555
K4 O10 3.168429 1_555
K4 O22 3.177870 1_555
K5 O27 2.716031 1_555
K5 O1 2.725780 1_555
K5 O15 2.787908 1_554
K5 O26 2.924324 1_554
K5 O16 2.936849 1_554
K5 O9 3.130034 1_555
K5 O11 3.168431 1_565
K5 O19 3.177870 1_555
K6 O31 2.716031 1_555
K6 O0 2.725780 1_555
K6 O30 2.787908 1_556
K6 O10 2.924324 1_556
K6 O4 2.936849 1_556
K6 O12 3.130034 1_555
K6 O3 3.168431 1_545
K6 O23 3.177870 1_555
K7 O26 2.716031 1_555
K7 O25 2.725773 1_566
K7 O14 2.787901 1_555
K7 O27 2.924324 1_556
K7 O22 2.936849 1_555
K7 O17 3.130034 1_565
K7 O6 3.168437 1_566
K7 O24 3.177870 1_566
Ho0 O28 2.294735 1_555
Ho0 O5 2.294735 1_545
Ho0 O23 2.340496 1_555
Ho0 O21 2.340496 1_555
Ho0 O25 2.404116 1_455
Ho0 O8 2.404127 1_555
Ho0 O2 2.458868 1_555
Ho0 O12 2.458868 1_555
Ho1 O29 2.294735 1_555
Ho1 O17 2.294735 1_565
Ho1 O19 2.340496 1_555
Ho1 O22 2.340496 1_555
Ho1 O7 2.404116 1_655
Ho1 O14 2.404127 1_555
Ho1 O18 2.458868 1_555
Ho1 O9 2.458868 1_555
Ho2 O2 2.294735 1_565
Ho2 O12 2.294735 1_554
Ho2 O4 2.340496 1_555
Ho2 O20 2.340496 1_554
Ho2 O30 2.404116 1_555
Ho2 O1 2.404117 1_555
Ho2 O28 2.458868 1_554
Ho2 O5 2.458868 1_555
Ho3 O9 2.294735 1_556
Ho3 O18 2.294735 1_545
Ho3 O24 2.340496 1_556
Ho3 O16 2.340496 1_555
Ho3 O15 2.404116 1_555
Ho3 O0 2.404117 1_555
Ho3 O17 2.458868 1_555
Ho3 O29 2.458868 1_556
O0 P0 1.544704 1_555
O1 P2 1.544704 1_555
O2 P0 1.566175 1_555
O3 W1 1.805675 1_555
O4 W1 1.834155 1_555
O5 P1 1.566175 1_554
O6 W3 1.805674 1_555
O7 P1 1.544715 1_555
O8 P3 1.544720 1_455
O9 P2 1.566175 1_555
O10 W3 1.805674 1_555
O11 W0 1.805675 1_555
O12 P0 1.566175 1_555
O13 W2 1.805674 1_555
O14 P1 1.544720 1_655
O15 P0 1.544715 1_555
O16 W0 1.834155 1_555
O17 P3 1.566175 1_556
O18 P2 1.566175 1_555
O19 W0 1.834155 1_565
O20 W2 1.834155 1_555
O21 W2 1.834155 1_555
O22 W3 1.834155 1_555
O23 W1 1.834155 1_545
O24 W3 1.834155 1_555
O25 P3 1.544715 1_555
O26 W2 1.805674 1_555
O27 W1 1.805674 1_655
O28 P1 1.566175 1_555
O29 P3 1.566175 1_555
O30 P2 1.544715 1_555
O31 W0 1.805674 1_455
