# generated using pymatgen
data_KZrSnF7
_symmetry_space_group_name_H-M   'P 1'
_cell_length_a   6.05310200
_cell_length_b   8.54287500
_cell_length_c   12.67308400
_cell_angle_alpha   90.00000000
_cell_angle_beta   90.00000000
_cell_angle_gamma   90.00000000
_symmetry_Int_Tables_number   1
_chemical_formula_structural   KZrSnF7
_chemical_formula_sum   'K4 Zr4 Sn4 F28'
_cell_volume   655.33650019
_cell_formula_units_Z   4
loop_
 _symmetry_equiv_pos_site_id
 _symmetry_equiv_pos_as_xyz
  1  'x, y, z'
loop_
 _atom_site_type_symbol
 _atom_site_label
 _atom_site_symmetry_multiplicity
 _atom_site_fract_x
 _atom_site_fract_y
 _atom_site_fract_z
 _atom_site_occupancy
  K  K0  1  0.21371800  0.75000000  0.25000000  1
  K  K1  1  0.21371800  0.25000000  0.25000000  1
  K  K2  1  0.78628200  0.25000000  0.75000000  1
  K  K3  1  0.78628200  0.75000000  0.75000000  1
  Zr  Zr0  1  0.25110400  0.00000000  0.91481200  1
  Zr  Zr1  1  0.74889600  0.00000000  0.08518800  1
  Zr  Zr2  1  0.74889600  0.50000000  0.41481200  1
  Zr  Zr3  1  0.25110400  0.50000000  0.58518800  1
  Sn  Sn0  1  0.23513400  0.00000000  0.59349800  1
  Sn  Sn1  1  0.76486600  0.00000000  0.40650200  1
  Sn  Sn2  1  0.76486600  0.50000000  0.09349800  1
  Sn  Sn3  1  0.23513400  0.50000000  0.90650200  1
  F  F0  1  0.50000300  0.00000000  0.19441500  1
  F  F1  1  0.15959700  0.26714200  0.60964900  1
  F  F2  1  0.15959700  0.23285800  0.89035100  1
  F  F3  1  0.87370600  0.00000000  0.92850300  1
  F  F4  1  0.87749400  0.00000000  0.58386300  1
  F  F5  1  0.09459500  0.50000000  0.74016500  1
  F  F6  1  0.90540500  0.00000000  0.24016500  1
  F  F7  1  0.50000000  0.35793100  0.50000000  1
  F  F8  1  0.84040300  0.73285800  0.39035100  1
  F  F9  1  0.15959700  0.76714200  0.89035100  1
  F  F10  1  0.84040300  0.76714200  0.10964900  1
  F  F11  1  0.50000000  0.14206900  0.00000000  1
  F  F12  1  0.12629400  0.00000000  0.07149700  1
  F  F13  1  0.12629400  0.50000000  0.42850300  1
  F  F14  1  0.49999700  0.00000000  0.80558500  1
  F  F15  1  0.49999700  0.50000000  0.69441500  1
  F  F16  1  0.15959700  0.73285800  0.60964900  1
  F  F17  1  0.12250600  0.50000000  0.08386300  1
  F  F18  1  0.12250600  0.00000000  0.41613700  1
  F  F19  1  0.09459500  0.00000000  0.75983500  1
  F  F20  1  0.87749400  0.50000000  0.91613700  1
  F  F21  1  0.90540500  0.50000000  0.25983500  1
  F  F22  1  0.50000300  0.50000000  0.30558500  1
  F  F23  1  0.87370600  0.50000000  0.57149700  1
  F  F24  1  0.50000000  0.85793100  0.00000000  1
  F  F25  1  0.50000000  0.64206900  0.50000000  1
  F  F26  1  0.84040300  0.23285800  0.10964900  1
  F  F27  1  0.84040300  0.26714200  0.39035100  1
loop_
_geom_bond_atom_site_label_1
_geom_bond_atom_site_label_2
_geom_bond_distance
_geom_bond_site_symmetry_2
F0 Zr1 2.045946 1_555
F0 K0 2.839103 1_545
F0 K1 2.839103 1_555
F1 Zr3 2.088092 1_555
F1 Sn0 2.336496 1_555
F1 K2 2.879489 1_455
F2 Zr0 2.088092 1_555
F2 Sn3 2.336496 1_555
F2 K2 2.879489 1_455
F3 Zr1 2.124546 1_556
F3 Zr0 2.291008 1_655
F3 K2 3.155758 1_555
F3 K3 3.155758 1_545
F4 Sn0 2.168272 1_655
F4 Sn1 2.348826 1_555
F4 K3 3.049446 1_545
F4 K2 3.049446 1_555
F5 Zr3 2.180582 1_555
F5 Sn3 2.273183 1_555
F5 K2 2.838964 1_455
F5 K3 2.838964 1_455
F6 Zr1 2.180582 1_555
F6 Sn1 2.273183 1_555
F6 K0 2.838964 1_645
F6 K1 2.838964 1_655
F7 Zr3 2.215482 1_555
F7 Zr2 2.215482 1_555
F8 Zr2 2.088092 1_555
F8 Sn1 2.336496 1_565
F8 K0 2.879489 1_655
F9 Zr0 2.088092 1_565
F9 Sn3 2.336496 1_555
F9 K3 2.879489 1_455
F10 Zr1 2.088092 1_565
F10 Sn2 2.336496 1_555
F10 K0 2.879489 1_655
F11 Zr1 2.215482 1_555
F11 Zr0 2.215482 1_554
F12 Zr0 2.124546 1_554
F12 Zr1 2.291008 1_455
F12 K0 3.155758 1_545
F12 K1 3.155758 1_555
F13 Zr3 2.124546 1_555
F13 Zr2 2.291008 1_455
F13 K1 3.155758 1_555
F13 K0 3.155758 1_555
F14 Zr0 2.045946 1_555
F14 K3 2.839103 1_545
F14 K2 2.839103 1_555
F15 Zr3 2.045946 1_555
F15 K2 2.839103 1_555
F15 K3 2.839103 1_555
F16 Zr3 2.088092 1_555
F16 Sn0 2.336496 1_565
F16 K3 2.879489 1_455
F17 Sn2 2.168272 1_455
F17 Sn3 2.348826 1_554
F17 K0 3.049446 1_555
F17 K1 3.049446 1_555
F18 Sn1 2.168272 1_455
F18 Sn0 2.348826 1_555
F18 K0 3.049446 1_545
F18 K1 3.049446 1_555
F19 Zr0 2.180582 1_555
F19 Sn0 2.273183 1_555
F19 K2 2.838964 1_455
F19 K3 2.838964 1_445
F20 Sn3 2.168272 1_655
F20 Sn2 2.348826 1_556
F20 K2 3.049446 1_555
F20 K3 3.049446 1_555
F21 Zr2 2.180582 1_555
F21 Sn2 2.273183 1_555
F21 K0 2.838964 1_655
F21 K1 2.838964 1_655
F22 Zr2 2.045946 1_555
F22 K1 2.839103 1_555
F22 K0 2.839103 1_555
F23 Zr2 2.124546 1_555
F23 Zr3 2.291008 1_655
F23 K3 3.155758 1_555
F23 K2 3.155758 1_555
F24 Zr1 2.215482 1_565
F24 Zr0 2.215482 1_564
F25 Zr3 2.215482 1_555
F25 Zr2 2.215482 1_555
F26 Zr1 2.088092 1_555
F26 Sn2 2.336496 1_555
F26 K1 2.879489 1_655
F27 Zr2 2.088092 1_555
F27 Sn1 2.336496 1_555
F27 K1 2.879489 1_655
