# generated using pymatgen
data_Li17(CoO4)3
_symmetry_space_group_name_H-M   'P 1'
_cell_length_a   6.56836700
_cell_length_b   8.05624900
_cell_length_c   11.43095932
_cell_angle_alpha   89.71308782
_cell_angle_beta   90.00000000
_cell_angle_gamma   90.00000000
_symmetry_Int_Tables_number   1
_chemical_formula_structural   Li17(CoO4)3
_chemical_formula_sum   'Li34 Co6 O24'
_cell_volume   604.87763264
_cell_formula_units_Z   2
loop_
 _symmetry_equiv_pos_site_id
 _symmetry_equiv_pos_as_xyz
  1  'x, y, z'
loop_
 _atom_site_type_symbol
 _atom_site_label
 _atom_site_symmetry_multiplicity
 _atom_site_fract_x
 _atom_site_fract_y
 _atom_site_fract_z
 _atom_site_occupancy
  Li  Li0  1  0.03753100  0.55254200  0.09508200  1
  Li  Li1  1  0.03509300  0.89066300  0.42718900  1
  Li  Li2  1  0.03662500  0.22589400  0.76122800  1
  Li  Li3  1  0.03078800  0.94054100  0.90854700  1
  Li  Li4  1  0.02972500  0.59879100  0.56394000  1
  Li  Li5  1  0.24956200  0.76780700  0.02264700  1
  Li  Li6  1  0.27094800  0.62027600  0.84371100  1
  Li  Li7  1  0.22545000  0.11498500  0.34589700  1
  Li  Li8  1  0.24404000  0.43978600  0.68415400  1
  Li  Li9  1  0.24730500  0.93368800  0.18742500  1
  Li  Li10  1  0.25057000  0.26605400  0.52269000  1
  Li  Li11  1  0.47456300  0.55551000  0.09886700  1
  Li  Li12  1  0.46446600  0.90407500  0.42477800  1
  Li  Li13  1  0.46758300  0.23768900  0.76076600  1
  Li  Li14  1  0.47123900  0.92058600  0.89603400  1
  Li  Li15  1  0.46023900  0.27368700  0.24232900  1
  Li  Li16  1  0.47402000  0.61960700  0.58730900  1
  Li  Li17  1  0.53753100  0.44745800  0.90491800  1
  Li  Li18  1  0.53078800  0.05945900  0.09145300  1
  Li  Li19  1  0.53662500  0.77410600  0.23877200  1
  Li  Li20  1  0.52972500  0.40120900  0.43606000  1
  Li  Li21  1  0.53509300  0.10933700  0.57281100  1
  Li  Li22  1  0.74956200  0.23219300  0.97735300  1
  Li  Li23  1  0.72545000  0.88501500  0.65410300  1
  Li  Li24  1  0.74404000  0.56021400  0.31584600  1
  Li  Li25  1  0.77094800  0.37972400  0.15628900  1
  Li  Li26  1  0.75057000  0.73394600  0.47731000  1
  Li  Li27  1  0.74730500  0.06631200  0.81257500  1
  Li  Li28  1  0.97123900  0.07941400  0.10396600  1
  Li  Li29  1  0.97456300  0.44449000  0.90113300  1
  Li  Li30  1  0.96758300  0.76231100  0.23923400  1
  Li  Li31  1  0.97402000  0.38039300  0.41269100  1
  Li  Li32  1  0.96446600  0.09592500  0.57522200  1
  Li  Li33  1  0.96023900  0.72631300  0.75767100  1
  Co  Co0  1  0.25255900  0.25193400  0.99801100  1
  Co  Co1  1  0.25382200  0.58154600  0.33526800  1
  Co  Co2  1  0.25428700  0.91285300  0.66852000  1
  Co  Co3  1  0.75255900  0.74806600  0.00198900  1
  Co  Co4  1  0.75428700  0.08714700  0.33148000  1
  Co  Co5  1  0.75382200  0.41845400  0.66473200  1
  O  O0  1  0.01484000  0.68491000  0.93049300  1
  O  O1  1  0.00278800  0.99700800  0.26723400  1
  O  O2  1  0.01001000  0.34085400  0.59705800  1
  O  O3  1  0.25441900  0.36217700  0.84234500  1
  O  O4  1  0.25163300  0.00775200  0.01895100  1
  O  O5  1  0.25168400  0.68561600  0.17969100  1
  O  O6  1  0.24625000  0.02215800  0.51009300  1
  O  O7  1  0.26288100  0.34692400  0.36300300  1
  O  O8  1  0.22966700  0.67539900  0.67765500  1
  O  O9  1  0.48868000  0.67945200  0.94632600  1
  O  O10  1  0.48573900  0.01615000  0.26357800  1
  O  O11  1  0.48675700  0.35212400  0.60234300  1
  O  O12  1  0.50278800  0.00299200  0.73276600  1
  O  O13  1  0.51484000  0.31509000  0.06950700  1
  O  O14  1  0.51001000  0.65914600  0.40294200  1
  O  O15  1  0.75163300  0.99224800  0.98104900  1
  O  O16  1  0.76288100  0.65307600  0.63699700  1
  O  O17  1  0.72966700  0.32460100  0.32234500  1
  O  O18  1  0.75441900  0.63782300  0.15765500  1
  O  O19  1  0.74625000  0.97784200  0.48990700  1
  O  O20  1  0.75168400  0.31438400  0.82030900  1
  O  O21  1  0.98868000  0.32054800  0.05367400  1
  O  O22  1  0.98573900  0.98385000  0.73642200  1
  O  O23  1  0.98675700  0.64787600  0.39765700  1
loop_
_geom_bond_atom_site_label_1
_geom_bond_atom_site_label_2
_geom_bond_distance
_geom_bond_site_symmetry_2
Li0 O21 1.956790 1_455
Li0 O5 2.018356 1_555
Li0 O18 2.108700 1_455
Li0 O0 2.163102 1_554
Li1 O6 1.988472 1_565
Li1 O23 2.011746 1_455
Li1 O1 2.026458 1_555
Li1 O19 2.147504 1_455
Li2 O22 2.000007 1_445
Li2 O3 2.030248 1_555
Li2 O2 2.095855 1_555
Li2 O20 2.114715 1_455
Li3 O4 1.999237 1_566
Li3 O22 2.018337 1_455
Li3 O15 2.055699 1_455
Li3 O0 2.076047 1_555
Li4 O8 1.950215 1_555
Li4 O23 1.959960 1_455
Li4 O16 1.991078 1_455
Li4 O2 2.114311 1_555
Li5 O5 1.910326 1_555
Li5 O4 1.933355 1_565
Li5 O9 1.934126 1_554
Li5 O0 1.984865 1_554
Li6 O9 1.911567 1_555
Li6 O8 1.966056 1_555
Li6 O0 2.022427 1_555
Li6 O3 2.082279 1_555
Li7 O7 1.895746 1_555
Li7 O1 1.964548 1_545
Li7 O6 2.021556 1_555
Li7 O10 2.109488 1_555
Li8 O8 1.901583 1_555
Li8 O3 1.911571 1_555
Li8 O11 1.980297 1_555
Li8 O2 1.999340 1_555
Li9 O10 1.912497 1_565
Li9 O1 1.917459 1_555
Li9 O5 2.001133 1_555
Li9 O4 2.013481 1_565
Li10 O2 1.894097 1_555
Li10 O11 1.929478 1_555
Li10 O7 1.936773 1_555
Li10 O6 1.971079 1_555
Li11 O13 1.985108 1_555
Li11 O9 2.007145 1_554
Li11 O5 2.026102 1_555
Li11 O18 2.067551 1_555
Li12 O6 1.979840 1_565
Li12 O14 2.012531 1_555
Li12 O10 2.052689 1_565
Li12 O19 2.082679 1_555
Li13 O12 1.933136 1_555
Li13 O3 1.960914 1_555
Li13 O11 2.031878 1_555
Li13 O20 2.081224 1_555
Li14 O12 1.988564 1_565
Li14 O9 2.026392 1_555
Li14 O4 2.134917 1_566
Li14 O15 2.162244 1_555
Li15 O7 1.984821 1_555
Li15 O13 2.033707 1_555
Li15 O17 2.034809 1_555
Li15 O10 2.094451 1_555
Li16 O8 1.961952 1_555
Li16 O16 1.999189 1_555
Li16 O14 2.142929 1_555
Li16 O11 2.162512 1_555
Li17 O9 1.956790 1_555
Li17 O20 2.018356 1_555
Li17 O3 2.108700 1_555
Li17 O13 2.163102 1_556
Li18 O15 1.999237 1_544
Li18 O10 2.018337 1_555
Li18 O4 2.055699 1_555
Li18 O13 2.076047 1_555
Li19 O10 2.000007 1_565
Li19 O18 2.030248 1_555
Li19 O14 2.095855 1_555
Li19 O5 2.114715 1_555
Li20 O17 1.950215 1_555
Li20 O11 1.959960 1_555
Li20 O7 1.991078 1_555
Li20 O14 2.114311 1_555
Li21 O19 1.988472 1_545
Li21 O11 2.011746 1_555
Li21 O12 2.026458 1_555
Li21 O6 2.147504 1_555
Li22 O20 1.910326 1_555
Li22 O15 1.933355 1_545
Li22 O21 1.934126 1_556
Li22 O13 1.984865 1_556
Li23 O16 1.895746 1_555
Li23 O12 1.964548 1_565
Li23 O19 2.021556 1_555
Li23 O22 2.109488 1_555
Li24 O17 1.901583 1_555
Li24 O18 1.911571 1_555
Li24 O23 1.980297 1_555
Li24 O14 1.999340 1_555
Li25 O21 1.911567 1_555
Li25 O17 1.966056 1_555
Li25 O13 2.022427 1_555
Li25 O18 2.082279 1_555
Li26 O14 1.894097 1_555
Li26 O23 1.929478 1_555
Li26 O16 1.936773 1_555
Li26 O19 1.971079 1_555
Li27 O22 1.912497 1_545
Li27 O12 1.917459 1_555
Li27 O20 2.001133 1_555
Li27 O15 2.013481 1_545
Li28 O1 1.988564 1_645
Li28 O21 2.026392 1_555
Li28 O15 2.134917 1_544
Li28 O4 2.162244 1_655
Li29 O0 1.985108 1_655
Li29 O21 2.007145 1_556
Li29 O20 2.026102 1_555
Li29 O3 2.067551 1_655
Li30 O1 1.933136 1_655
Li30 O18 1.960914 1_555
Li30 O23 2.031878 1_555
Li30 O5 2.081224 1_655
Li31 O17 1.961952 1_555
Li31 O7 1.999189 1_655
Li31 O2 2.142929 1_655
Li31 O23 2.162512 1_555
Li32 O19 1.979840 1_545
Li32 O2 2.012531 1_655
Li32 O22 2.052689 1_545
Li32 O6 2.082679 1_655
Li33 O16 1.984821 1_555
Li33 O0 2.033707 1_655
Li33 O8 2.034809 1_655
Li33 O22 2.094451 1_555
Co0 O21 1.928238 1_456
Co0 O13 1.974554 1_556
Co0 O4 1.980519 1_556
Co0 O3 1.984800 1_555
Co1 O7 1.915935 1_555
Co1 O14 1.955940 1_555
Co1 O5 1.962368 1_555
Co1 O23 1.968534 1_455
Co2 O8 1.922129 1_555
Co2 O12 1.932936 1_565
Co2 O6 2.010441 1_565
Co2 O22 2.011338 1_455
Co3 O9 1.928238 1_554
Co3 O0 1.974554 1_654
Co3 O15 1.980519 1_554
Co3 O18 1.984800 1_555
Co4 O17 1.922129 1_555
Co4 O1 1.932936 1_645
Co4 O19 2.010441 1_545
Co4 O10 2.011338 1_555
Co5 O16 1.915935 1_555
Co5 O2 1.955940 1_655
Co5 O20 1.962368 1_555
Co5 O11 1.968534 1_555
