# generated using pymatgen
data_CuBi(WO4)2
_symmetry_space_group_name_H-M   'P 1'
_cell_length_a   5.14835400
_cell_length_b   6.12172413
_cell_length_c   6.23470289
_cell_angle_alpha   108.80062944
_cell_angle_beta   91.71055258
_cell_angle_gamma   113.44919672
_symmetry_Int_Tables_number   1
_chemical_formula_structural   CuBi(WO4)2
_chemical_formula_sum   'Cu1 Bi1 W2 O8'
_cell_volume   167.80022020
_cell_formula_units_Z   1
loop_
 _symmetry_equiv_pos_site_id
 _symmetry_equiv_pos_as_xyz
  1  'x, y, z'
loop_
 _atom_site_type_symbol
 _atom_site_label
 _atom_site_symmetry_multiplicity
 _atom_site_fract_x
 _atom_site_fract_y
 _atom_site_fract_z
 _atom_site_occupancy
  Cu  Cu0  1  0.85555300  0.89802400  0.78461100  1
  Bi  Bi0  1  0.36343200  0.90201300  0.29004900  1
  W  W0  1  0.11251900  0.41753100  0.62554500  1
  W  W1  1  0.61003200  0.38532900  0.95237900  1
  O  O0  1  0.33035200  0.21110500  0.62575100  1
  O  O1  1  0.82445700  0.19770000  0.80961200  1
  O  O2  1  0.35475700  0.64972100  0.51536800  1
  O  O3  1  0.86524100  0.63090900  0.21139700  1
  O  O4  1  0.86318300  0.17409100  0.36334200  1
  O  O5  1  0.39020900  0.59056100  0.95440100  1
  O  O6  1  0.89505400  0.60323900  0.76452000  1
  O  O7  1  0.37400900  0.15557600  0.06712500  1
loop_
_geom_bond_atom_site_label_1
_geom_bond_atom_site_label_2
_geom_bond_distance
_geom_bond_site_symmetry_2
Cu0 O6 1.860511 1_555
Cu0 O1 1.861817 1_565
Cu0 O2 2.598802 1_555
Bi0 O3 2.363451 1_455
Bi0 O4 2.373058 1_565
Bi0 O7 2.381587 1_565
Bi0 O5 2.384987 1_554
Bi0 O2 2.389166 1_555
Bi0 O0 2.390629 1_565
O0 W0 1.995867 1_555
O0 W1 2.135563 1_555
O1 W1 1.933681 1_555
O1 W0 2.199110 1_655
O2 W0 1.821328 1_555
O3 W1 1.825045 1_554
O4 W0 1.822931 1_655
O5 W1 1.995422 1_555
O5 W0 2.142346 1_555
O6 W0 1.932011 1_655
O6 W1 2.203711 1_555
O7 W1 1.818463 1_554
