# generated using pymatgen
data_Sr5V3ClO12
_symmetry_space_group_name_H-M   'P 1'
_cell_length_a   10.45052017
_cell_length_b   10.45052017
_cell_length_c   7.31511400
_cell_angle_alpha   90.00000000
_cell_angle_beta   90.00000000
_cell_angle_gamma   120.00000108
_symmetry_Int_Tables_number   1
_chemical_formula_structural   Sr5V3ClO12
_chemical_formula_sum   'Sr10 V6 Cl2 O24'
_cell_volume   691.87484554
_cell_formula_units_Z   2
loop_
 _symmetry_equiv_pos_site_id
 _symmetry_equiv_pos_as_xyz
  1  'x, y, z'
loop_
 _atom_site_type_symbol
 _atom_site_label
 _atom_site_symmetry_multiplicity
 _atom_site_fract_x
 _atom_site_fract_y
 _atom_site_fract_z
 _atom_site_occupancy
  Sr  Sr0  1  0.00781800  0.75168800  0.75000000  1
  Sr  Sr1  1  0.25613000  0.00781800  0.25000000  1
  Sr  Sr2  1  0.33333300  0.66666700  0.00255600  1
  Sr  Sr3  1  0.66666700  0.33333300  0.50255600  1
  Sr  Sr4  1  0.99218200  0.24831200  0.25000000  1
  Sr  Sr5  1  0.33333300  0.66666700  0.49744400  1
  Sr  Sr6  1  0.24831200  0.25613000  0.75000000  1
  Sr  Sr7  1  0.66666700  0.33333300  0.99744400  1
  Sr  Sr8  1  0.74387000  0.99218200  0.75000000  1
  Sr  Sr9  1  0.75168800  0.74387000  0.25000000  1
  V  V0  1  0.62510500  0.03217500  0.25000000  1
  V  V1  1  0.03217500  0.40707000  0.75000000  1
  V  V2  1  0.59293000  0.62510500  0.75000000  1
  V  V3  1  0.40707000  0.37489500  0.25000000  1
  V  V4  1  0.96782500  0.59293000  0.25000000  1
  V  V5  1  0.37489500  0.96782500  0.75000000  1
  Cl  Cl0  1  0.00000000  0.00000000  0.00000000  1
  Cl  Cl1  1  0.00000000  0.00000000  0.50000000  1
  O  O0  1  0.86900300  0.39873500  0.25000000  1
  O  O1  1  0.33349500  0.49217400  0.25000000  1
  O  O2  1  0.90659400  0.64829900  0.06166900  1
  O  O3  1  0.49217400  0.15867900  0.75000000  1
  O  O4  1  0.35170100  0.25829500  0.06166900  1
  O  O5  1  0.09340600  0.35170100  0.56166900  1
  O  O6  1  0.47026800  0.86900300  0.75000000  1
  O  O7  1  0.25829500  0.90659400  0.93833100  1
  O  O8  1  0.25829500  0.90659400  0.56166900  1
  O  O9  1  0.90659400  0.64829900  0.43833100  1
  O  O10  1  0.60126500  0.47026800  0.25000000  1
  O  O11  1  0.52973200  0.13099700  0.25000000  1
  O  O12  1  0.15867900  0.66650500  0.25000000  1
  O  O13  1  0.74170500  0.09340600  0.43833100  1
  O  O14  1  0.13099700  0.60126500  0.75000000  1
  O  O15  1  0.35170100  0.25829500  0.43833100  1
  O  O16  1  0.09340600  0.35170100  0.93833100  1
  O  O17  1  0.74170500  0.09340600  0.06166900  1
  O  O18  1  0.64829900  0.74170500  0.56166900  1
  O  O19  1  0.39873500  0.52973200  0.75000000  1
  O  O20  1  0.84132100  0.33349500  0.75000000  1
  O  O21  1  0.66650500  0.50782600  0.75000000  1
  O  O22  1  0.64829900  0.74170500  0.93833100  1
  O  O23  1  0.50782600  0.84132100  0.25000000  1
loop_
_geom_bond_atom_site_label_1
_geom_bond_atom_site_label_2
_geom_bond_distance
_geom_bond_site_symmetry_2
Cl0 Sr9 3.208908 1_445
Cl0 Sr6 3.208908 1_554
Cl0 Sr8 3.208908 1_444
Cl0 Sr1 3.208908 1_555
Cl0 Sr0 3.208908 1_544
Cl0 Sr4 3.208908 1_455
Cl1 Sr9 3.208908 1_445
Cl1 Sr6 3.208908 1_555
Cl1 Sr8 3.208908 1_445
Cl1 Sr1 3.208908 1_555
Cl1 Sr0 3.208908 1_545
Cl1 Sr4 3.208908 1_455
O0 V4 1.757638 1_555
O0 Sr4 2.480301 1_555
O0 Sr7 2.627976 1_554
O0 Sr3 2.627976 1_555
O1 V3 1.742339 1_555
O1 Sr5 2.569979 1_555
O1 Sr2 2.569979 1_555
O1 Sr4 3.182350 1_455
O2 V4 1.735657 1_555
O2 Sr0 2.518213 1_654
O2 Sr9 2.670770 1_555
O2 Sr7 3.014767 1_554
O3 V5 1.742339 1_545
O3 Sr3 2.569975 1_555
O3 Sr7 2.569975 1_555
O3 Sr6 3.182350 1_555
O4 V3 1.735657 1_555
O4 Sr6 2.518213 1_554
O4 Sr1 2.670770 1_555
O4 Sr7 3.014770 1_554
O5 V1 1.735657 1_555
O5 Sr4 2.518213 1_455
O5 Sr6 2.670770 1_555
O5 Sr5 3.014767 1_555
O6 V5 1.757638 1_555
O6 Sr8 2.480301 1_555
O6 Sr5 2.627978 1_555
O6 Sr2 2.627978 1_556
O7 V5 1.735657 1_555
O7 Sr1 2.518213 1_566
O7 Sr0 2.670770 1_555
O7 Sr2 3.014759 1_556
O8 V5 1.735657 1_555
O8 Sr1 2.518213 1_565
O8 Sr0 2.670770 1_555
O8 Sr5 3.014759 1_555
O9 V4 1.735657 1_555
O9 Sr0 2.518213 1_655
O9 Sr9 2.670770 1_555
O9 Sr3 3.014767 1_555
O10 V3 1.757638 1_555
O10 Sr9 2.480301 1_555
O10 Sr3 2.627983 1_555
O10 Sr7 2.627983 1_554
O11 V0 1.757638 1_555
O11 Sr1 2.480301 1_555
O11 Sr3 2.627978 1_555
O11 Sr7 2.627978 1_554
O12 V4 1.742339 1_455
O12 Sr5 2.569971 1_555
O12 Sr2 2.569971 1_555
O12 Sr1 3.182350 1_565
O13 V0 1.735657 1_555
O13 Sr8 2.518213 1_545
O13 Sr4 2.670770 1_555
O13 Sr3 3.014759 1_555
O14 V1 1.757638 1_555
O14 Sr0 2.480301 1_555
O14 Sr2 2.627976 1_556
O14 Sr5 2.627976 1_555
O15 V3 1.735657 1_555
O15 Sr6 2.518213 1_555
O15 Sr1 2.670770 1_555
O15 Sr3 3.014770 1_555
O16 V1 1.735657 1_555
O16 Sr4 2.518213 1_456
O16 Sr6 2.670770 1_555
O16 Sr2 3.014767 1_556
O17 V0 1.735657 1_555
O17 Sr8 2.518213 1_544
O17 Sr4 2.670770 1_555
O17 Sr7 3.014759 1_554
O18 V2 1.735657 1_555
O18 Sr9 2.518213 1_555
O18 Sr8 2.670770 1_555
O18 Sr5 3.014770 1_555
O19 V2 1.757638 1_555
O19 Sr6 2.480301 1_555
O19 Sr5 2.627983 1_555
O19 Sr2 2.627983 1_556
O20 V1 1.742339 1_655
O20 Sr3 2.569971 1_555
O20 Sr7 2.569971 1_555
O20 Sr8 3.182350 1_545
O21 V2 1.742339 1_555
O21 Sr7 2.569979 1_555
O21 Sr3 2.569979 1_555
O21 Sr0 3.182350 1_655
O22 V2 1.735657 1_555
O22 Sr9 2.518213 1_556
O22 Sr8 2.670770 1_555
O22 Sr2 3.014770 1_556
O23 V0 1.742339 1_565
O23 Sr2 2.569975 1_555
O23 Sr5 2.569975 1_555
O23 Sr9 3.182350 1_555
