# generated using pymatgen
data_Mg3Pt
_symmetry_space_group_name_H-M   'P 1'
_cell_length_a   4.58684741
_cell_length_b   4.58684802
_cell_length_c   8.29362388
_cell_angle_alpha   90.00000000
_cell_angle_beta   90.00000000
_cell_angle_gamma   119.99999551
_symmetry_Int_Tables_number   1
_chemical_formula_structural   Mg3Pt
_chemical_formula_sum   'Mg6 Pt2'
_cell_volume   151.11362743
_cell_formula_units_Z   2
loop_
 _symmetry_equiv_pos_site_id
 _symmetry_equiv_pos_as_xyz
  1  'x, y, z'
loop_
 _atom_site_type_symbol
 _atom_site_label
 _atom_site_symmetry_multiplicity
 _atom_site_fract_x
 _atom_site_fract_y
 _atom_site_fract_z
 _atom_site_occupancy
  Mg  Mg0  1  0.66666700  0.33333300  0.42364468  1
  Mg  Mg1  1  0.33333300  0.66666700  0.92364468  1
  Mg  Mg2  1  0.66666700  0.33333300  0.07635532  1
  Mg  Mg3  1  -0.00000000  0.00000000  0.75000000  1
  Mg  Mg4  1  0.00000000  -0.00000000  0.25000000  1
  Mg  Mg5  1  0.33333300  0.66666700  0.57635532  1
  Pt  Pt0  1  0.66666700  0.33333300  0.75000000  1
  Pt  Pt1  1  0.33333300  0.66666700  0.25000000  1
loop_
_geom_bond_atom_site_label_1
_geom_bond_atom_site_label_2
_geom_bond_distance
_geom_bond_site_symmetry_2
Mg0 Pt0 2.706668 1_555
Mg0 Mg2 2.880287 1_555
Mg0 Mg5 2.935494 1_655
Mg0 Mg5 2.935495 1_545
Mg0 Mg5 2.935502 1_555
Mg0 Mg4 3.014475 1_655
Mg0 Pt1 3.014475 1_655
Mg0 Pt1 3.014475 1_545
Mg0 Mg4 3.014478 1_555
Mg0 Mg4 3.014478 1_665
Mg0 Pt1 3.014482 1_555
Mg1 Pt1 2.706668 1_556
Mg1 Mg5 2.880287 1_555
Mg1 Mg2 2.935494 1_456
Mg1 Mg2 2.935495 1_566
Mg1 Mg2 2.935502 1_556
Mg1 Mg3 3.014475 1_565
Mg1 Pt0 3.014475 1_455
Mg1 Pt0 3.014475 1_565
Mg1 Mg3 3.014478 1_665
Mg1 Mg3 3.014478 1_555
Mg1 Pt0 3.014482 1_555
Mg2 Pt0 2.706668 1_554
Mg2 Mg4 3.014475 1_655
Mg2 Pt1 3.014475 1_655
Mg2 Pt1 3.014475 1_545
Mg2 Mg4 3.014478 1_555
Mg2 Mg4 3.014478 1_665
Mg2 Pt1 3.014482 1_555
Mg3 Pt0 2.648215 1_455
Mg3 Pt0 2.648219 1_555
Mg3 Pt0 2.648219 1_445
Mg3 Mg5 3.014475 1_545
Mg3 Mg5 3.014478 1_445
Mg3 Mg5 3.014478 1_555
Mg4 Pt1 2.648215 1_545
Mg4 Pt1 2.648219 1_445
Mg4 Pt1 2.648219 1_555
Mg5 Pt1 2.706668 1_555
Mg5 Pt0 3.014475 1_455
Mg5 Pt0 3.014475 1_565
Mg5 Pt0 3.014482 1_555
