# generated using pymatgen
data_K3NbP2O9
_symmetry_space_group_name_H-M   'P 1'
_cell_length_a   17.93559100
_cell_length_b   5.29444300
_cell_length_c   9.94017678
_cell_angle_alpha   89.92386250
_cell_angle_beta   90.00000000
_cell_angle_gamma   90.00000000
_symmetry_Int_Tables_number   1
_chemical_formula_structural   K3NbP2O9
_chemical_formula_sum   'K12 Nb4 P8 O36'
_cell_volume   943.90805746
_cell_formula_units_Z   4
loop_
 _symmetry_equiv_pos_site_id
 _symmetry_equiv_pos_as_xyz
  1  'x, y, z'
loop_
 _atom_site_type_symbol
 _atom_site_label
 _atom_site_symmetry_multiplicity
 _atom_site_fract_x
 _atom_site_fract_y
 _atom_site_fract_z
 _atom_site_occupancy
  K  K0  1  0.86303800  0.75622400  0.07652100  1
  K  K1  1  0.63696200  0.75622400  0.57652100  1
  K  K2  1  0.42647900  0.24974400  0.04192500  1
  K  K3  1  0.36303800  0.24377600  0.42347900  1
  K  K4  1  0.13696200  0.24377600  0.92347900  1
  K  K5  1  0.70490500  0.25093800  0.95756700  1
  K  K6  1  0.20490500  0.74906200  0.54243300  1
  K  K7  1  0.29509500  0.74906200  0.04243300  1
  K  K8  1  0.79509500  0.25093800  0.45756700  1
  K  K9  1  0.07352100  0.24974400  0.54192500  1
  K  K10  1  0.57352100  0.75025600  0.95807500  1
  K  K11  1  0.92647900  0.75025600  0.45807500  1
  Nb  Nb0  1  0.41076300  0.76415100  0.68577500  1
  Nb  Nb1  1  0.58923700  0.23584900  0.31422500  1
  Nb  Nb2  1  0.91076300  0.23584900  0.81422500  1
  Nb  Nb3  1  0.08923700  0.76415100  0.18577500  1
  P  P0  1  0.71093300  0.74464000  0.26389900  1
  P  P1  1  0.21093300  0.25536000  0.23610100  1
  P  P2  1  0.96109700  0.26314100  0.17085800  1
  P  P3  1  0.46109700  0.73685900  0.32914200  1
  P  P4  1  0.78906700  0.74464000  0.76389900  1
  P  P5  1  0.03890300  0.73685900  0.82914200  1
  P  P6  1  0.28906700  0.25536000  0.73610100  1
  P  P7  1  0.53890300  0.26314100  0.67085800  1
  O  O0  1  0.41955600  0.77431500  0.86427300  1
  O  O1  1  0.40311500  0.74901600  0.44410800  1
  O  O2  1  0.69897800  0.74769800  0.11277800  1
  O  O3  1  0.30102200  0.25230200  0.88722200  1
  O  O4  1  0.07098500  0.77340900  0.68902400  1
  O  O5  1  0.97689200  0.93996400  0.85844900  1
  O  O6  1  0.59688500  0.25098400  0.55589200  1
  O  O7  1  0.08044400  0.77431500  0.36427300  1
  O  O8  1  0.66293900  0.52323600  0.33200600  1
  O  O9  1  0.29136500  0.28240000  0.19027000  1
  O  O10  1  0.70863500  0.71760000  0.80973000  1
  O  O11  1  0.52310800  0.93996400  0.35844900  1
  O  O12  1  0.83706100  0.52323600  0.83200600  1
  O  O13  1  0.09688500  0.74901600  0.94410800  1
  O  O14  1  0.02310800  0.06003600  0.14155100  1
  O  O15  1  0.49906200  0.52784900  0.65971200  1
  O  O16  1  0.91955600  0.22568500  0.63572700  1
  O  O17  1  0.67763400  0.99362900  0.33220200  1
  O  O18  1  0.90311500  0.25098400  0.05589200  1
  O  O19  1  0.20863500  0.28240000  0.69027000  1
  O  O20  1  0.42901500  0.77340900  0.18902400  1
  O  O21  1  0.32236600  0.00637100  0.66779800  1
  O  O22  1  0.79136500  0.71760000  0.30973000  1
  O  O23  1  0.82236600  0.99362900  0.83220200  1
  O  O24  1  0.16293900  0.47676400  0.16799400  1
  O  O25  1  0.80102200  0.74769800  0.61277800  1
  O  O26  1  0.92901500  0.22659100  0.31097600  1
  O  O27  1  0.19897800  0.25230200  0.38722200  1
  O  O28  1  0.17763400  0.00637100  0.16779800  1
  O  O29  1  0.99906200  0.47215100  0.84028800  1
  O  O30  1  0.50093800  0.47215100  0.34028800  1
  O  O31  1  0.47689200  0.06003600  0.64155100  1
  O  O32  1  0.58044400  0.22568500  0.13572700  1
  O  O33  1  0.00093800  0.52784900  0.15971200  1
  O  O34  1  0.57098500  0.22659100  0.81097600  1
  O  O35  1  0.33706100  0.47676400  0.66799400  1
loop_
_geom_bond_atom_site_label_1
_geom_bond_atom_site_label_2
_geom_bond_distance
_geom_bond_site_symmetry_2
K0 O22 2.658351 1_555
K0 O18 2.723778 1_565
K0 O12 2.766606 1_554
K0 O18 2.777701 1_555
K0 O23 2.828756 1_554
K0 O33 2.874096 1_655
K0 O2 2.964838 1_555
K0 O5 3.132008 1_554
K1 O10 2.658351 1_555
K1 O6 2.723778 1_565
K1 O8 2.766606 1_555
K1 O6 2.777701 1_555
K1 O17 2.828756 1_555
K1 O15 2.874096 1_555
K1 O25 2.964838 1_555
K1 O11 3.132008 1_555
K2 O3 2.725442 1_554
K2 O9 2.842106 1_555
K2 O20 2.913828 1_545
K2 O32 2.917348 1_555
K2 O0 3.079214 1_544
K2 O20 3.136508 1_555
K2 O0 3.291537 1_554
K3 O9 2.658351 1_555
K3 O1 2.723778 1_545
K3 O35 2.766606 1_555
K3 O1 2.777701 1_555
K3 O21 2.828756 1_555
K3 O30 2.874096 1_555
K3 O27 2.964838 1_555
K3 O31 3.132008 1_555
K4 O19 2.658351 1_555
K4 O13 2.723778 1_545
K4 O24 2.766606 1_556
K4 O13 2.777701 1_555
K4 O28 2.828756 1_556
K4 O29 2.874096 1_455
K4 O3 2.964838 1_555
K4 O14 3.132008 1_556
K5 O23 2.802072 1_545
K5 O34 2.812412 1_555
K5 O32 2.852466 1_556
K5 O10 2.873807 1_555
K5 O12 3.041327 1_555
K5 O2 3.052810 1_556
K5 O2 3.078893 1_546
K5 O10 3.185663 1_545
K6 O21 2.802072 1_565
K6 O4 2.812412 1_555
K6 O7 2.852466 1_555
K6 O19 2.873807 1_555
K6 O35 3.041327 1_555
K6 O27 3.052810 1_555
K6 O27 3.078893 1_565
K6 O19 3.185663 1_565
K7 O28 2.802072 1_565
K7 O20 2.812412 1_555
K7 O0 2.852466 1_554
K7 O9 2.873807 1_555
K7 O24 3.041327 1_555
K7 O3 3.052810 1_554
K7 O3 3.078893 1_564
K7 O9 3.185663 1_565
K8 O17 2.802072 1_545
K8 O26 2.812412 1_555
K8 O16 2.852466 1_555
K8 O22 2.873807 1_555
K8 O8 3.041327 1_555
K8 O25 3.052810 1_555
K8 O25 3.078893 1_545
K8 O22 3.185663 1_545
K9 O27 2.725442 1_555
K9 O19 2.842106 1_555
K9 O4 2.913828 1_545
K9 O16 2.917348 1_455
K9 O7 3.079214 1_545
K9 O4 3.136508 1_555
K9 O7 3.291537 1_555
K10 O2 2.725442 1_556
K10 O10 2.842106 1_555
K10 O34 2.913828 1_565
K10 O0 2.917348 1_555
K10 O32 3.079214 1_566
K10 O34 3.136508 1_555
K10 O32 3.291537 1_556
K11 O25 2.725442 1_555
K11 O22 2.842106 1_555
K11 O26 2.913828 1_565
K11 O7 2.917348 1_655
K11 O16 3.079214 1_565
K11 O26 3.136508 1_555
K11 O16 3.291537 1_555
Nb0 O0 1.782181 1_555
Nb0 O31 2.013014 1_565
Nb0 O35 2.023480 1_555
Nb0 O15 2.035015 1_555
Nb0 O21 2.046847 1_565
Nb0 O1 2.407566 1_555
Nb1 O32 1.782181 1_555
Nb1 O11 2.013014 1_545
Nb1 O8 2.023480 1_555
Nb1 O30 2.035015 1_555
Nb1 O17 2.046847 1_545
Nb1 O6 2.407566 1_555
Nb2 O16 1.782181 1_555
Nb2 O5 2.013014 1_545
Nb2 O12 2.023480 1_555
Nb2 O29 2.035015 1_555
Nb2 O23 2.046847 1_545
Nb2 O18 2.407566 1_556
Nb3 O7 1.782181 1_555
Nb3 O14 2.013014 1_565
Nb3 O24 2.023480 1_555
Nb3 O33 2.035015 1_555
Nb3 O28 2.046847 1_565
Nb3 O13 2.407566 1_554
O1 P3 1.546534 1_555
O2 P0 1.517461 1_555
O3 P6 1.517461 1_555
O4 P5 1.519116 1_555
O5 P5 1.574492 1_655
O6 P7 1.546534 1_555
O8 P0 1.603518 1_555
O9 P1 1.519522 1_555
O10 P4 1.519522 1_555
O11 P3 1.574492 1_555
O12 P4 1.603518 1_555
O13 P5 1.546534 1_555
O14 P2 1.574492 1_455
O15 P7 1.576904 1_555
O17 P0 1.599325 1_555
O18 P2 1.546534 1_555
O19 P6 1.519522 1_555
O20 P3 1.519116 1_555
O21 P6 1.599325 1_555
O22 P0 1.519522 1_555
O23 P4 1.599325 1_555
O24 P1 1.603518 1_555
O25 P4 1.517461 1_555
O26 P2 1.519116 1_555
O27 P1 1.517461 1_555
O28 P1 1.599325 1_555
O29 P5 1.576904 1_655
O30 P3 1.576904 1_555
O31 P7 1.574492 1_555
O33 P2 1.576904 1_455
O34 P7 1.519116 1_555
O35 P6 1.603518 1_555
