# generated using pymatgen
data_K2BiF5
_symmetry_space_group_name_H-M   'P 1'
_cell_length_a   6.59061788
_cell_length_b   7.46977510
_cell_length_c   11.21073223
_cell_angle_alpha   90.00000000
_cell_angle_beta   90.00000000
_cell_angle_gamma   90.00000000
_symmetry_Int_Tables_number   1
_chemical_formula_structural   K2BiF5
_chemical_formula_sum   'K8 Bi4 F20'
_cell_volume   551.90920567
_cell_formula_units_Z   4
loop_
 _symmetry_equiv_pos_site_id
 _symmetry_equiv_pos_as_xyz
  1  'x, y, z'
loop_
 _atom_site_type_symbol
 _atom_site_label
 _atom_site_symmetry_multiplicity
 _atom_site_fract_x
 _atom_site_fract_y
 _atom_site_fract_z
 _atom_site_occupancy
  K  K0  1  0.99535077  0.00134470  0.33089008  1
  K  K1  1  0.99535077  0.49865530  0.33089008  1
  K  K2  1  0.49535077  0.50134470  0.16910992  1
  K  K3  1  0.50464923  0.49865530  0.83089008  1
  K  K4  1  0.00464923  0.50134470  0.66910992  1
  K  K5  1  0.50464923  0.00134470  0.83089008  1
  K  K6  1  0.49535077  0.99865530  0.16910992  1
  K  K7  1  0.00464923  0.99865530  0.66910992  1
  Bi  Bi0  1  0.06482905  0.25000000  0.95695681  1
  Bi  Bi1  1  0.43517095  0.25000000  0.45695681  1
  Bi  Bi2  1  0.56482905  0.75000000  0.54304319  1
  Bi  Bi3  1  0.93517095  0.75000000  0.04304319  1
  F  F0  1  0.77625932  0.75000000  0.21896525  1
  F  F1  1  0.88719758  0.45537633  0.09514238  1
  F  F2  1  0.69105004  0.25000000  0.32921129  1
  F  F3  1  0.61280242  0.45537633  0.59514238  1
  F  F4  1  0.38719758  0.54462367  0.40485762  1
  F  F5  1  0.72374068  0.75000000  0.71896525  1
  F  F6  1  0.90112650  0.75000000  0.49257564  1
  F  F7  1  0.59887350  0.75000000  0.99257564  1
  F  F8  1  0.27625932  0.25000000  0.28103475  1
  F  F9  1  0.88719758  0.04462367  0.09514238  1
  F  F10  1  0.30894996  0.75000000  0.67078871  1
  F  F11  1  0.80894996  0.25000000  0.82921129  1
  F  F12  1  0.22374068  0.25000000  0.78103475  1
  F  F13  1  0.38719758  0.95537633  0.40485762  1
  F  F14  1  0.40112650  0.25000000  0.00742436  1
  F  F15  1  0.09887350  0.25000000  0.50742436  1
  F  F16  1  0.61280242  0.04462367  0.59514238  1
  F  F17  1  0.11280242  0.95537633  0.90485762  1
  F  F18  1  0.19105004  0.75000000  0.17078871  1
  F  F19  1  0.11280242  0.54462367  0.90485762  1
loop_
_geom_bond_atom_site_label_1
_geom_bond_atom_site_label_2
_geom_bond_distance
_geom_bond_site_symmetry_2
Bi0 F11 2.212446 1_455
Bi0 F12 2.233053 1_555
Bi0 F14 2.287481 1_556
Bi0 F19 2.298805 1_555
Bi0 F17 2.298805 1_545
Bi0 F1 2.474662 1_456
Bi0 F9 2.474662 1_456
Bi1 F2 2.212446 1_555
Bi1 F8 2.233053 1_555
Bi1 F15 2.287481 1_555
Bi1 F4 2.298805 1_555
Bi1 F13 2.298805 1_545
Bi1 F16 2.474662 1_555
Bi1 F3 2.474662 1_555
Bi2 F10 2.212446 1_555
Bi2 F5 2.233053 1_555
Bi2 F6 2.287481 1_555
Bi2 F3 2.298805 1_555
Bi2 F16 2.298805 1_565
Bi2 F4 2.474662 1_555
Bi2 F13 2.474662 1_555
Bi3 F18 2.212446 1_655
Bi3 F0 2.233053 1_555
Bi3 F7 2.287481 1_554
Bi3 F1 2.298805 1_555
Bi3 F9 2.298805 1_565
Bi3 F19 2.474662 1_654
Bi3 F17 2.474662 1_654
F0 K0 2.680367 1_565
F0 K1 2.680367 1_555
F0 K6 2.681390 1_555
F0 K2 2.681390 1_555
F1 K2 2.734026 1_555
F1 K1 2.756363 1_555
F2 K1 2.733576 1_555
F2 K0 2.733576 1_555
F2 K2 2.899999 1_555
F2 K6 2.899999 1_545
F3 K4 2.734026 1_655
F3 K3 2.756363 1_555
F4 K1 2.734026 1_455
F4 K2 2.756363 1_555
F5 K5 2.680367 1_565
F5 K3 2.680367 1_555
F5 K7 2.681390 1_655
F5 K4 2.681390 1_655
F6 K0 2.682567 1_565
F6 K1 2.682567 1_555
F6 K7 2.798605 1_655
F6 K4 2.798605 1_655
F7 K5 2.682567 1_565
F7 K3 2.682567 1_555
F7 K6 2.798605 1_556
F7 K2 2.798605 1_556
F8 K2 2.680367 1_555
F8 K6 2.680367 1_545
F8 K1 2.681390 1_455
F8 K0 2.681390 1_455
F9 K6 2.734026 1_545
F9 K0 2.756363 1_555
F10 K7 2.733576 1_555
F10 K4 2.733576 1_555
F10 K5 2.899999 1_565
F10 K3 2.899999 1_555
F11 K3 2.733576 1_555
F11 K5 2.733576 1_555
F11 K4 2.899999 1_655
F11 K7 2.899999 1_645
F12 K4 2.680367 1_555
F12 K7 2.680367 1_545
F12 K3 2.681390 1_555
F12 K5 2.681390 1_555
F13 K0 2.734026 1_465
F13 K6 2.756363 1_555
F14 K2 2.682567 1_555
F14 K6 2.682567 1_545
F14 K3 2.798605 1_554
F14 K5 2.798605 1_554
F15 K4 2.682567 1_555
F15 K7 2.682567 1_545
F15 K1 2.798605 1_455
F15 K0 2.798605 1_455
F16 K7 2.734026 1_645
F16 K5 2.756363 1_555
F17 K5 2.734026 1_565
F17 K7 2.756363 1_555
F18 K6 2.733576 1_555
F18 K2 2.733576 1_555
F18 K0 2.899999 1_465
F18 K1 2.899999 1_455
F19 K3 2.734026 1_555
F19 K4 2.756363 1_555
