# generated using pymatgen
data_Na3NO4
_symmetry_space_group_name_H-M   'P 1'
_cell_length_a   8.71854700
_cell_length_b   9.14427000
_cell_length_c   9.82544900
_cell_angle_alpha   90.00000000
_cell_angle_beta   90.00000000
_cell_angle_gamma   90.00000000
_symmetry_Int_Tables_number   1
_chemical_formula_structural   Na3NO4
_chemical_formula_sum   'Na24 N8 O32'
_cell_volume   783.33144331
_cell_formula_units_Z   8
loop_
 _symmetry_equiv_pos_site_id
 _symmetry_equiv_pos_as_xyz
  1  'x, y, z'
loop_
 _atom_site_type_symbol
 _atom_site_label
 _atom_site_symmetry_multiplicity
 _atom_site_fract_x
 _atom_site_fract_y
 _atom_site_fract_z
 _atom_site_occupancy
  Na  Na0  1  0.61744000  0.96047400  0.85436700  1
  Na  Na1  1  0.20289800  0.24091800  0.38466500  1
  Na  Na2  1  0.38256000  0.53952600  0.35436700  1
  Na  Na3  1  0.29710200  0.74091800  0.61533500  1
  Na  Na4  1  0.29710200  0.24091800  0.88466500  1
  Na  Na5  1  0.54726300  0.87685600  0.39335300  1
  Na  Na6  1  0.88256000  0.46047400  0.14563300  1
  Na  Na7  1  0.45273700  0.12314400  0.60664700  1
  Na  Na8  1  0.95273700  0.37685600  0.60664700  1
  Na  Na9  1  0.20289800  0.74091800  0.11533500  1
  Na  Na10  1  0.70289800  0.75908200  0.11533500  1
  Na  Na11  1  0.11744000  0.03952600  0.64563300  1
  Na  Na12  1  0.61744000  0.46047400  0.64563300  1
  Na  Na13  1  0.79710200  0.25908200  0.88466500  1
  Na  Na14  1  0.95273700  0.87685600  0.89335300  1
  Na  Na15  1  0.88256000  0.96047400  0.35436700  1
  Na  Na16  1  0.11744000  0.53952600  0.85436700  1
  Na  Na17  1  0.54726300  0.37685600  0.10664700  1
  Na  Na18  1  0.04726300  0.62314400  0.39335300  1
  Na  Na19  1  0.79710200  0.75908200  0.61533500  1
  Na  Na20  1  0.70289800  0.25908200  0.38466500  1
  Na  Na21  1  0.04726300  0.12314400  0.10664700  1
  Na  Na22  1  0.45273700  0.62314400  0.89335300  1
  Na  Na23  1  0.38256000  0.03952600  0.14563300  1
  N  N0  1  0.71169600  0.09823500  0.11948300  1
  N  N1  1  0.78830400  0.09823500  0.61948300  1
  N  N2  1  0.71169600  0.59823500  0.38051700  1
  N  N3  1  0.21169600  0.90176500  0.38051700  1
  N  N4  1  0.78830400  0.59823500  0.88051700  1
  N  N5  1  0.28830400  0.40176500  0.61948300  1
  N  N6  1  0.28830400  0.90176500  0.88051700  1
  N  N7  1  0.21169600  0.40176500  0.11948300  1
  O  O0  1  0.60554000  0.14382700  0.02183600  1
  O  O1  1  0.20094900  0.28112300  0.66143100  1
  O  O2  1  0.89446000  0.64382700  0.97816400  1
  O  O3  1  0.19068000  0.50717100  0.56393300  1
  O  O4  1  0.20094900  0.78112300  0.83856900  1
  O  O5  1  0.30932000  0.00717100  0.43606700  1
  O  O6  1  0.63616800  0.54006700  0.26722900  1
  O  O7  1  0.10554000  0.85617300  0.47816400  1
  O  O8  1  0.70094900  0.21887700  0.66143100  1
  O  O9  1  0.39446000  0.35617300  0.52183600  1
  O  O10  1  0.13616800  0.95993300  0.26722900  1
  O  O11  1  0.79905100  0.71887700  0.33856900  1
  O  O12  1  0.29905100  0.78112300  0.33856900  1
  O  O13  1  0.13616800  0.45993300  0.23277100  1
  O  O14  1  0.39446000  0.85617300  0.97816400  1
  O  O15  1  0.80932000  0.99282900  0.06393300  1
  O  O16  1  0.19068000  0.00717100  0.93606700  1
  O  O17  1  0.36383200  0.95993300  0.76722900  1
  O  O18  1  0.36383200  0.45993300  0.73277100  1
  O  O19  1  0.86383200  0.54006700  0.76722900  1
  O  O20  1  0.79905100  0.21887700  0.16143100  1
  O  O21  1  0.60554000  0.64382700  0.47816400  1
  O  O22  1  0.10554000  0.35617300  0.02183600  1
  O  O23  1  0.80932000  0.49282900  0.43606700  1
  O  O24  1  0.29905100  0.28112300  0.16143100  1
  O  O25  1  0.89446000  0.14382700  0.52183600  1
  O  O26  1  0.86383200  0.04006700  0.73277100  1
  O  O27  1  0.70094900  0.71887700  0.83856900  1
  O  O28  1  0.63616800  0.04006700  0.23277100  1
  O  O29  1  0.30932000  0.50717100  0.06393300  1
  O  O30  1  0.69068000  0.99282900  0.56393300  1
  O  O31  1  0.69068000  0.49282900  0.93606700  1
loop_
_geom_bond_atom_site_label_1
_geom_bond_atom_site_label_2
_geom_bond_distance
_geom_bond_site_symmetry_2
Na0 O27 2.331283 1_555
Na0 O0 2.351464 1_566
Na0 O17 2.371073 1_555
Na0 O14 2.483659 1_555
Na0 O26 2.563551 1_565
Na0 O15 2.669455 1_556
Na0 O30 2.939143 1_555
Na1 O24 2.376726 1_555
Na1 O5 2.384249 1_555
Na1 O9 2.390942 1_555
Na1 O13 2.564518 1_555
Na1 O1 2.744142 1_555
Na1 O10 2.876057 1_545
Na2 O12 2.331283 1_555
Na2 O9 2.351464 1_555
Na2 O6 2.371073 1_555
Na2 O21 2.483659 1_555
Na2 O13 2.563551 1_555
Na2 O3 2.669455 1_555
Na2 O29 2.939143 1_555
Na3 O4 2.376726 1_555
Na3 O3 2.384249 1_555
Na3 O7 2.390942 1_555
Na3 O17 2.564518 1_555
Na3 O12 2.744142 1_555
Na3 O18 2.876057 1_555
Na4 O1 2.376726 1_555
Na4 O16 2.384249 1_555
Na4 O22 2.390942 1_556
Na4 O18 2.564518 1_555
Na4 O24 2.744142 1_556
Na4 O17 2.876057 1_545
Na5 O28 2.305999 1_565
Na5 O21 2.343759 1_555
Na5 O30 2.344604 1_555
Na5 O12 2.395660 1_555
Na5 O5 2.428940 1_565
Na5 O11 2.682468 1_555
Na6 O20 2.331283 1_555
Na6 O2 2.351464 1_554
Na6 O13 2.371073 1_655
Na6 O22 2.483659 1_655
Na6 O6 2.563551 1_555
Na6 O31 2.669455 1_554
Na6 O23 2.939143 1_555
Na7 O17 2.305999 1_545
Na7 O9 2.343759 1_555
Na7 O5 2.344604 1_555
Na7 O8 2.395660 1_555
Na7 O30 2.428940 1_545
Na7 O1 2.682468 1_555
Na8 O19 2.305999 1_555
Na8 O25 2.343759 1_555
Na8 O23 2.344604 1_555
Na8 O1 2.395660 1_655
Na8 O3 2.428940 1_655
Na8 O8 2.682468 1_555
Na9 O12 2.376726 1_555
Na9 O29 2.384249 1_555
Na9 O14 2.390942 1_554
Na9 O10 2.564518 1_555
Na9 O4 2.744142 1_554
Na9 O13 2.876057 1_555
Na10 O11 2.376726 1_555
Na10 O15 2.384249 1_555
Na10 O2 2.390942 1_554
Na10 O6 2.564518 1_555
Na10 O27 2.744142 1_554
Na10 O28 2.876057 1_565
Na11 O1 2.331283 1_555
Na11 O7 2.351464 1_545
Na11 O26 2.371073 1_455
Na11 O25 2.483659 1_455
Na11 O17 2.563551 1_545
Na11 O5 2.669455 1_555
Na11 O16 2.939143 1_555
Na12 O8 2.331283 1_555
Na12 O21 2.351464 1_555
Na12 O18 2.371073 1_555
Na12 O9 2.483659 1_555
Na12 O19 2.563551 1_555
Na12 O23 2.669455 1_555
Na12 O31 2.939143 1_555
Na13 O8 2.376726 1_555
Na13 O31 2.384249 1_555
Na13 O0 2.390942 1_556
Na13 O26 2.564518 1_555
Na13 O20 2.744142 1_556
Na13 O19 2.876057 1_555
Na14 O26 2.305999 1_565
Na14 O2 2.343759 1_555
Na14 O15 2.344604 1_556
Na14 O4 2.395660 1_655
Na14 O16 2.428940 1_665
Na14 O27 2.682468 1_555
Na15 O11 2.331283 1_555
Na15 O25 2.351464 1_565
Na15 O10 2.371073 1_655
Na15 O7 2.483659 1_655
Na15 O28 2.563551 1_565
Na15 O30 2.669455 1_555
Na15 O15 2.939143 1_555
Na16 O4 2.331283 1_555
Na16 O22 2.351464 1_556
Na16 O19 2.371073 1_455
Na16 O2 2.483659 1_455
Na16 O18 2.563551 1_555
Na16 O29 2.669455 1_556
Na16 O3 2.939143 1_555
Na17 O6 2.305999 1_555
Na17 O0 2.343759 1_555
Na17 O31 2.344604 1_554
Na17 O24 2.395660 1_555
Na17 O29 2.428940 1_555
Na17 O20 2.682468 1_555
Na18 O13 2.305999 1_555
Na18 O7 2.343759 1_555
Na18 O3 2.344604 1_555
Na18 O11 2.395660 1_455
Na18 O23 2.428940 1_455
Na18 O12 2.682468 1_555
Na19 O27 2.376726 1_555
Na19 O30 2.384249 1_555
Na19 O21 2.390942 1_555
Na19 O19 2.564518 1_555
Na19 O11 2.744142 1_555
Na19 O26 2.876057 1_565
Na20 O20 2.376726 1_555
Na20 O23 2.384249 1_555
Na20 O25 2.390942 1_555
Na20 O28 2.564518 1_555
Na20 O8 2.744142 1_555
Na20 O6 2.876057 1_555
Na21 O10 2.305999 1_545
Na21 O22 2.343759 1_555
Na21 O16 2.344604 1_554
Na21 O20 2.395660 1_455
Na21 O15 2.428940 1_445
Na21 O24 2.682468 1_555
Na22 O18 2.305999 1_555
Na22 O14 2.343759 1_555
Na22 O29 2.344604 1_556
Na22 O27 2.395660 1_555
Na22 O31 2.428940 1_555
Na22 O4 2.682468 1_555
Na23 O24 2.331283 1_555
Na23 O14 2.351464 1_544
Na23 O28 2.371073 1_555
Na23 O0 2.483659 1_555
Na23 O10 2.563551 1_545
Na23 O16 2.669455 1_554
Na23 O5 2.939143 1_555
N0 O0 1.396748 1_555
N0 O15 1.396914 1_545
N0 O28 1.398406 1_555
N0 O20 1.402474 1_555
N1 O25 1.396748 1_555
N1 O30 1.396914 1_545
N1 O26 1.398406 1_555
N1 O8 1.402474 1_555
N2 O21 1.396748 1_555
N2 O23 1.396914 1_555
N2 O6 1.398406 1_555
N2 O11 1.402474 1_555
N3 O7 1.396748 1_555
N3 O5 1.396914 1_565
N3 O10 1.398406 1_555
N3 O12 1.402474 1_555
N4 O2 1.396748 1_555
N4 O31 1.396914 1_555
N4 O19 1.398406 1_555
N4 O27 1.402474 1_555
N5 O9 1.396748 1_555
N5 O3 1.396914 1_555
N5 O18 1.398406 1_555
N5 O1 1.402474 1_555
N6 O14 1.396748 1_555
N6 O16 1.396914 1_565
N6 O17 1.398406 1_555
N6 O4 1.402474 1_555
N7 O22 1.396748 1_555
N7 O29 1.396914 1_555
N7 O13 1.398406 1_555
N7 O24 1.402474 1_555
