# generated using pymatgen
data_La6B(NO2)3
_symmetry_space_group_name_H-M   'P 1'
_cell_length_a   12.65378517
_cell_length_b   12.65378517
_cell_length_c   11.00787800
_cell_angle_alpha   90.00000000
_cell_angle_beta   90.00000000
_cell_angle_gamma   163.27059571
_symmetry_Int_Tables_number   1
_chemical_formula_structural   La6B(NO2)3
_chemical_formula_sum   'La12 B2 N6 O12'
_cell_volume   507.35720314
_cell_formula_units_Z   2
loop_
 _symmetry_equiv_pos_site_id
 _symmetry_equiv_pos_as_xyz
  1  'x, y, z'
loop_
 _atom_site_type_symbol
 _atom_site_label
 _atom_site_symmetry_multiplicity
 _atom_site_fract_x
 _atom_site_fract_y
 _atom_site_fract_z
 _atom_site_occupancy
  La  La0  1  0.54755100  0.45244900  0.75000000  1
  La  La1  1  0.68719100  0.31280900  0.56924600  1
  La  La2  1  0.68719100  0.31280900  0.93075400  1
  La  La3  1  0.93205200  0.06794800  0.93457000  1
  La  La4  1  0.69925300  0.30074700  0.25000000  1
  La  La5  1  0.31280900  0.68719100  0.43075400  1
  La  La6  1  0.06794800  0.93205200  0.06543000  1
  La  La7  1  0.30074700  0.69925300  0.75000000  1
  La  La8  1  0.45244900  0.54755100  0.25000000  1
  La  La9  1  0.93205200  0.06794800  0.56543000  1
  La  La10  1  0.06794800  0.93205200  0.43457000  1
  La  La11  1  0.31280900  0.68719100  0.06924600  1
  B  B0  1  0.85963900  0.14036100  0.25000000  1
  B  B1  1  0.14036100  0.85963900  0.75000000  1
  N  N0  1  0.80061300  0.19938700  0.25000000  1
  N  N1  1  0.88927500  0.11072500  0.36608200  1
  N  N2  1  0.11072500  0.88927500  0.63391800  1
  N  N3  1  0.19938700  0.80061300  0.75000000  1
  N  N4  1  0.11072500  0.88927500  0.86608200  1
  N  N5  1  0.88927500  0.11072500  0.13391800  1
  O  O0  1  0.37650100  0.62349900  0.89359200  1
  O  O1  1  0.78257100  0.21742900  0.90812800  1
  O  O2  1  0.98706900  0.01293100  0.75000000  1
  O  O3  1  0.78257100  0.21742900  0.59187200  1
  O  O4  1  0.21742900  0.78257100  0.09187200  1
  O  O5  1  0.21742900  0.78257100  0.40812800  1
  O  O6  1  0.37650100  0.62349900  0.60640800  1
  O  O7  1  0.62349900  0.37650100  0.39359200  1
  O  O8  1  0.01293100  0.98706900  0.25000000  1
  O  O9  1  0.62349900  0.37650100  0.10640800  1
  O  O10  1  0.50000000  0.50000000  0.00000000  1
  O  O11  1  0.50000000  0.50000000  0.50000000  1
loop_
_geom_bond_atom_site_label_1
_geom_bond_atom_site_label_2
_geom_bond_distance
_geom_bond_site_symmetry_2
La0 O2 2.383658 1_455
La0 O2 2.383658 1_565
La0 N4 2.742869 1_655
La0 N4 2.742869 1_545
La0 N2 2.742869 1_655
La0 N2 2.742869 1_545
La0 O10 2.998477 1_556
La0 O11 2.998477 1_555
La1 O3 2.401111 1_555
La1 O7 2.506377 1_555
La1 O5 2.665946 1_655
La1 O5 2.665946 1_545
La1 N3 2.727772 1_655
La1 N3 2.727772 1_545
La1 N2 2.749717 1_655
La1 N2 2.749717 1_545
La2 O1 2.401111 1_555
La2 O9 2.506377 1_556
La2 O4 2.665946 1_656
La2 O4 2.665946 1_546
La2 N3 2.727772 1_655
La2 N3 2.727772 1_545
La2 N4 2.749717 1_655
La2 N4 2.749717 1_545
La3 O0 2.350873 1_655
La3 O0 2.350873 1_545
La3 N5 2.441837 1_556
La3 O2 2.454690 1_555
La3 O10 2.608008 1_546
La3 O10 2.608008 1_656
La4 O7 2.469031 1_555
La4 O9 2.469031 1_555
La4 N0 2.537887 1_555
La4 O5 2.574005 1_655
La4 O4 2.574005 1_655
La4 O4 2.574005 1_545
La4 O5 2.574005 1_545
La5 O5 2.401111 1_555
La5 O6 2.506377 1_555
La5 O3 2.665946 1_565
La5 O3 2.665946 1_455
La5 N0 2.727772 1_565
La5 N0 2.727772 1_455
La5 N1 2.749717 1_565
La5 N1 2.749717 1_455
La6 O9 2.350873 1_455
La6 O9 2.350873 1_565
La6 N4 2.441837 1_554
La6 O8 2.454690 1_555
La6 O10 2.608008 1_455
La6 O10 2.608008 1_565
La7 O0 2.469031 1_555
La7 O6 2.469031 1_555
La7 N3 2.537887 1_555
La7 O1 2.574005 1_565
La7 O1 2.574005 1_455
La7 O3 2.574005 1_565
La7 O3 2.574005 1_455
La8 O8 2.383658 1_655
La8 O8 2.383658 1_545
La8 N1 2.742869 1_565
La8 N1 2.742869 1_455
La8 N5 2.742869 1_565
La8 N5 2.742869 1_455
La8 O11 2.998477 1_555
La8 O10 2.998477 1_555
La9 O6 2.350873 1_655
La9 O6 2.350873 1_545
La9 N1 2.441837 1_555
La9 O2 2.454690 1_555
La9 O11 2.608008 1_655
La9 O11 2.608008 1_545
La10 O7 2.350873 1_565
La10 O7 2.350873 1_455
La10 N2 2.441837 1_555
La10 O8 2.454690 1_555
La10 O11 2.608008 1_565
La10 O11 2.608008 1_455
La11 O4 2.401111 1_555
La11 O0 2.506377 1_554
La11 O1 2.665946 1_564
La11 O1 2.665946 1_454
La11 N0 2.727772 1_565
La11 N0 2.727772 1_455
La11 N5 2.749717 1_565
La11 N5 2.749717 1_455
B0 N1 1.477645 1_555
B0 N5 1.477645 1_555
B0 N0 1.477914 1_555
B1 N4 1.477645 1_555
B1 N2 1.477645 1_555
B1 N3 1.477914 1_555
