# generated using pymatgen
data_KCu3Te2
_symmetry_space_group_name_H-M   'P 1'
_cell_length_a   8.46613612
_cell_length_b   8.46613612
_cell_length_c   8.68281257
_cell_angle_alpha   69.14301745
_cell_angle_beta   69.14301745
_cell_angle_gamma   29.15010445
_symmetry_Int_Tables_number   1
_chemical_formula_structural   KCu3Te2
_chemical_formula_sum   'K2 Cu6 Te4'
_cell_volume   281.88572582
_cell_formula_units_Z   2
loop_
 _symmetry_equiv_pos_site_id
 _symmetry_equiv_pos_as_xyz
  1  'x, y, z'
loop_
 _atom_site_type_symbol
 _atom_site_label
 _atom_site_symmetry_multiplicity
 _atom_site_fract_x
 _atom_site_fract_y
 _atom_site_fract_z
 _atom_site_occupancy
  K  K0  1  0.13382700  0.13382700  0.95444500  1
  K  K1  1  0.86617300  0.86617300  0.04555500  1
  Cu  Cu0  1  0.58365400  0.58365400  0.39941900  1
  Cu  Cu1  1  0.41634600  0.41634600  0.60058100  1
  Cu  Cu2  1  0.69608400  0.69608400  0.52867200  1
  Cu  Cu3  1  0.30391600  0.30391600  0.47132800  1
  Cu  Cu4  1  0.92974400  0.92974400  0.41643800  1
  Cu  Cu5  1  0.07025600  0.07025600  0.58356200  1
  Te  Te0  1  0.79819000  0.79819000  0.69511300  1
  Te  Te1  1  0.20181000  0.20181000  0.30488700  1
  Te  Te2  1  0.52087200  0.52087200  0.76098900  1
  Te  Te3  1  0.47912800  0.47912800  0.23901100  1
loop_
_geom_bond_atom_site_label_1
_geom_bond_atom_site_label_2
_geom_bond_distance
_geom_bond_site_symmetry_2
K0 Te0 3.521615 1_545
K0 Te0 3.521615 1_455
K0 Te3 3.530177 1_546
K0 Te3 3.530177 1_456
K0 Te1 3.604722 1_556
K0 Te2 3.615865 1_455
K0 Te2 3.615865 1_545
K1 Te1 3.521615 1_655
K1 Te1 3.521615 1_565
K1 Te2 3.530177 1_654
K1 Te2 3.530177 1_564
K1 Te0 3.604722 1_554
K1 Te3 3.615865 1_655
K1 Te3 3.615865 1_565
Cu0 Cu2 2.485035 1_555
Cu0 Te3 2.574726 1_555
Cu0 Cu5 2.623987 1_655
Cu0 Cu5 2.623987 1_565
Cu0 Cu1 2.654151 1_555
Cu0 Te1 2.791504 1_655
Cu0 Te1 2.791504 1_565
Cu0 Te2 2.922013 1_555
Cu1 Cu3 2.485035 1_555
Cu1 Te2 2.574726 1_555
Cu1 Cu4 2.623987 1_545
Cu1 Cu4 2.623987 1_455
Cu1 Te0 2.791504 1_545
Cu1 Te0 2.791504 1_455
Cu1 Te3 2.922013 1_555
Cu2 Te0 2.582139 1_555
Cu2 Cu3 2.694832 1_655
Cu2 Cu3 2.694832 1_565
Cu2 Te2 2.837567 1_555
Cu2 Te1 2.861678 1_565
Cu2 Te1 2.861678 1_655
Cu2 Cu5 2.880081 1_655
Cu2 Cu5 2.880081 1_565
Cu3 Te1 2.582139 1_555
Cu3 Te3 2.837567 1_555
Cu3 Te0 2.861678 1_455
Cu3 Te0 2.861678 1_545
Cu3 Cu4 2.880081 1_545
Cu3 Cu4 2.880081 1_455
Cu4 Te3 2.578749 1_565
Cu4 Te3 2.578749 1_655
Cu4 Te0 2.581563 1_555
Cu4 K1 3.731479 1_555
Cu5 Te2 2.578749 1_455
Cu5 Te2 2.578749 1_545
Cu5 Te1 2.581563 1_555
Cu5 K0 3.731479 1_555
