# generated using pymatgen
data_Mn3(P3Pd10)2
_symmetry_space_group_name_H-M   'P 1'
_cell_length_a   8.55559183
_cell_length_b   8.55559183
_cell_length_c   8.55559183
_cell_angle_alpha   60.00000000
_cell_angle_beta   60.00000000
_cell_angle_gamma   60.00000000
_symmetry_Int_Tables_number   1
_chemical_formula_structural   Mn3(P3Pd10)2
_chemical_formula_sum   'Mn3 P6 Pd20'
_cell_volume   442.82810186
_cell_formula_units_Z   1
loop_
 _symmetry_equiv_pos_site_id
 _symmetry_equiv_pos_as_xyz
  1  'x, y, z'
loop_
 _atom_site_type_symbol
 _atom_site_label
 _atom_site_symmetry_multiplicity
 _atom_site_fract_x
 _atom_site_fract_y
 _atom_site_fract_z
 _atom_site_occupancy
  Mn  Mn0  1  0.25000000  0.25000000  0.25000000  1
  Mn  Mn1  1  0.75000000  0.75000000  0.75000000  1
  Mn  Mn2  1  0.00000000  0.00000000  0.00000000  1
  P  P0  1  0.73437200  0.73437200  0.26562800  1
  P  P1  1  0.26562800  0.26562800  0.73437200  1
  P  P2  1  0.26562800  0.73437200  0.73437200  1
  P  P3  1  0.73437200  0.26562800  0.73437200  1
  P  P4  1  0.26562800  0.73437200  0.26562800  1
  P  P5  1  0.73437200  0.26562800  0.26562800  1
  Pd  Pd0  1  0.61855100  0.61855100  0.61855100  1
  Pd  Pd1  1  0.38144900  0.85565200  0.38144900  1
  Pd  Pd2  1  0.65805100  0.34194900  0.00000000  1
  Pd  Pd3  1  0.00000000  0.34194900  0.65805100  1
  Pd  Pd4  1  0.65805100  0.00000000  0.00000000  1
  Pd  Pd5  1  0.61855100  0.61855100  0.14434800  1
  Pd  Pd6  1  0.00000000  0.00000000  0.65805100  1
  Pd  Pd7  1  0.00000000  0.34194900  0.00000000  1
  Pd  Pd8  1  0.65805100  0.00000000  0.34194900  1
  Pd  Pd9  1  0.34194900  0.00000000  0.00000000  1
  Pd  Pd10  1  0.00000000  0.65805100  0.00000000  1
  Pd  Pd11  1  0.34194900  0.00000000  0.65805100  1
  Pd  Pd12  1  0.00000000  0.65805100  0.34194900  1
  Pd  Pd13  1  0.34194900  0.65805100  0.00000000  1
  Pd  Pd14  1  0.14434800  0.61855100  0.61855100  1
  Pd  Pd15  1  0.38144900  0.38144900  0.38144900  1
  Pd  Pd16  1  0.85565200  0.38144900  0.38144900  1
  Pd  Pd17  1  0.38144900  0.38144900  0.85565200  1
  Pd  Pd18  1  0.61855100  0.14434800  0.61855100  1
  Pd  Pd19  1  0.00000000  0.00000000  0.34194900  1
loop_
_geom_bond_atom_site_label_1
_geom_bond_atom_site_label_2
_geom_bond_distance
_geom_bond_site_symmetry_2
Mn0 Pd15 2.754755 1_555
Mn0 Pd17 2.754762 1_554
Mn0 Pd1 2.754762 1_545
Mn0 Pd16 2.754762 1_455
Mn0 Pd13 3.313347 1_555
Mn0 Pd11 3.313347 1_555
Mn0 Pd12 3.313347 1_555
Mn0 Pd8 3.313347 1_555
Mn0 Pd2 3.313347 1_555
Mn0 Pd3 3.313347 1_555
Mn0 Pd4 3.313347 1_555
Mn0 Pd10 3.313347 1_555
Mn0 Pd6 3.313347 1_555
Mn0 Pd19 3.313347 1_555
Mn0 Pd7 3.313347 1_555
Mn0 Pd9 3.313347 1_555
Mn1 Pd0 2.754755 1_555
Mn1 Pd18 2.754762 1_565
Mn1 Pd14 2.754762 1_655
Mn1 Pd5 2.754762 1_556
Mn1 Pd10 3.313347 1_656
Mn1 Pd6 3.313347 1_665
Mn1 Pd4 3.313347 1_566
Mn1 Pd9 3.313347 1_566
Mn1 Pd19 3.313347 1_665
Mn1 Pd7 3.313347 1_656
Mn1 Pd11 3.313347 1_565
Mn1 Pd13 3.313347 1_556
Mn1 Pd2 3.313347 1_556
Mn1 Pd8 3.313347 1_565
Mn1 Pd12 3.313347 1_655
Mn1 Pd3 3.313347 1_655
Mn2 Pd19 2.925576 1_555
Mn2 Pd7 2.925576 1_555
Mn2 Pd9 2.925576 1_555
Mn2 Pd12 2.925576 1_545
Mn2 Pd3 2.925576 1_554
Mn2 Pd13 2.925576 1_545
Mn2 Pd8 2.925576 1_455
Mn2 Pd2 2.925576 1_455
Mn2 Pd11 2.925576 1_554
Mn2 Pd10 2.925576 1_545
Mn2 Pd6 2.925576 1_554
Mn2 Pd4 2.925576 1_455
P0 Pd4 2.364552 1_565
P0 Pd10 2.364552 1_655
P0 Pd12 2.364552 1_655
P0 Pd8 2.364552 1_565
P0 Pd5 2.465523 1_555
P0 Pd1 2.465530 1_555
P0 Pd16 2.465530 1_555
P0 Pd0 2.465530 1_555
P1 Pd11 2.364552 1_555
P1 Pd3 2.364552 1_555
P1 Pd7 2.364552 1_556
P1 Pd9 2.364552 1_556
P1 Pd17 2.465523 1_555
P1 Pd18 2.465530 1_555
P1 Pd14 2.465530 1_555
P1 Pd15 2.465530 1_555
P2 Pd10 2.364552 1_556
P2 Pd6 2.364552 1_565
P2 Pd11 2.364552 1_565
P2 Pd13 2.364552 1_556
P2 Pd14 2.465523 1_555
P2 Pd1 2.465530 1_555
P2 Pd17 2.465530 1_555
P2 Pd0 2.465530 1_555
P3 Pd4 2.364552 1_556
P3 Pd6 2.364552 1_655
P3 Pd2 2.364552 1_556
P3 Pd3 2.364552 1_655
P3 Pd18 2.465523 1_555
P3 Pd16 2.465530 1_555
P3 Pd17 2.465530 1_555
P3 Pd0 2.465530 1_555
P4 Pd13 2.364552 1_555
P4 Pd12 2.364552 1_555
P4 Pd9 2.364552 1_565
P4 Pd19 2.364552 1_565
P4 Pd1 2.465523 1_555
P4 Pd5 2.465530 1_555
P4 Pd14 2.465530 1_555
P4 Pd15 2.465530 1_555
P5 Pd8 2.364552 1_555
P5 Pd2 2.364552 1_555
P5 Pd19 2.364552 1_655
P5 Pd7 2.364552 1_655
P5 Pd16 2.465523 1_555
P5 Pd5 2.465530 1_555
P5 Pd18 2.465530 1_555
P5 Pd15 2.465530 1_555
Pd0 Pd11 2.990839 1_565
Pd0 Pd13 2.990839 1_556
Pd0 Pd12 2.990839 1_655
Pd0 Pd3 2.990839 1_655
Pd0 Pd2 2.990839 1_556
Pd0 Pd8 2.990839 1_565
Pd1 Pd19 2.990837 1_565
Pd1 Pd9 2.990837 1_565
Pd1 Pd4 2.990841 1_565
Pd1 Pd6 2.990841 1_565
Pd1 Pd8 2.990846 1_565
Pd1 Pd11 2.990846 1_565
Pd2 Pd4 2.925576 1_555
Pd2 Pd8 2.925576 1_555
Pd2 Pd7 2.925576 1_655
Pd2 Pd3 2.925576 1_654
Pd2 Pd5 2.990846 1_555
Pd3 Pd6 2.925576 1_555
Pd3 Pd7 2.925576 1_556
Pd4 Pd9 2.704440 1_555
Pd4 Pd8 2.925576 1_555
Pd4 Pd6 2.925576 1_654
Pd4 Pd5 2.990837 1_545
Pd5 Pd7 2.990841 1_655
Pd5 Pd9 2.990841 1_565
Pd7 Pd9 2.925576 1_555
Pd10 Pd7 2.704440 1_555
Pd10 Pd13 2.925576 1_555
Pd10 Pd12 2.925576 1_555
Pd10 Pd4 2.925576 1_465
Pd10 Pd6 2.925576 1_564
Pd10 Pd14 2.990837 1_554
Pd10 Pd5 2.990837 1_455
Pd10 Pd17 2.990841 1_554
Pd10 Pd16 2.990841 1_455
Pd11 Pd8 2.704440 1_555
Pd11 Pd6 2.925576 1_555
Pd11 Pd3 2.925576 1_555
Pd11 Pd13 2.925576 1_546
Pd11 Pd9 2.925576 1_556
Pd11 Pd15 2.990839 1_555
Pd11 Pd18 2.990846 1_555
Pd12 Pd3 2.704440 1_555
Pd12 Pd13 2.925576 1_555
Pd12 Pd19 2.925576 1_565
Pd12 Pd8 2.925576 1_465
Pd12 Pd15 2.990839 1_555
Pd12 Pd16 2.990846 1_455
Pd12 Pd14 2.990846 1_555
Pd13 Pd2 2.704440 1_555
Pd13 Pd9 2.925576 1_565
Pd13 Pd15 2.990839 1_555
Pd13 Pd17 2.990846 1_554
Pd13 Pd5 2.990846 1_555
Pd14 Pd6 2.990837 1_565
Pd14 Pd19 2.990841 1_565
Pd14 Pd7 2.990841 1_556
Pd14 Pd3 2.990846 1_555
Pd15 Pd3 2.990839 1_555
Pd15 Pd8 2.990839 1_555
Pd15 Pd2 2.990839 1_555
Pd16 Pd19 2.990837 1_655
Pd16 Pd7 2.990837 1_655
Pd16 Pd6 2.990841 1_655
Pd16 Pd3 2.990846 1_655
Pd17 Pd7 2.990837 1_556
Pd17 Pd9 2.990837 1_556
Pd17 Pd4 2.990841 1_556
Pd17 Pd2 2.990846 1_556
Pd18 Pd4 2.990837 1_556
Pd18 Pd6 2.990837 1_655
Pd18 Pd19 2.990841 1_655
Pd18 Pd9 2.990841 1_556
Pd18 Pd8 2.990846 1_555
Pd19 Pd6 2.704440 1_555
Pd19 Pd7 2.925576 1_555
Pd19 Pd9 2.925576 1_555
Pd19 Pd8 2.925576 1_455
