# generated using pymatgen
data_K2BiPWO8
_symmetry_space_group_name_H-M   'P 1'
_cell_length_a   12.37565806
_cell_length_b   12.37565806
_cell_length_c   12.37565806
_cell_angle_alpha   146.39884598
_cell_angle_beta   118.75268813
_cell_angle_gamma   71.70316582
_symmetry_Int_Tables_number   1
_chemical_formula_structural   K2BiPWO8
_chemical_formula_sum   'K8 Bi4 P4 W4 O32'
_cell_volume   904.80281455
_cell_formula_units_Z   4
loop_
 _symmetry_equiv_pos_site_id
 _symmetry_equiv_pos_as_xyz
  1  'x, y, z'
loop_
 _atom_site_type_symbol
 _atom_site_label
 _atom_site_symmetry_multiplicity
 _atom_site_fract_x
 _atom_site_fract_y
 _atom_site_fract_z
 _atom_site_occupancy
  K  K0  1  0.76579200  0.81213500  0.88974400  1
  K  K1  1  0.26579200  0.37604800  0.95365700  1
  K  K2  1  0.57760900  0.12395200  0.38974400  1
  K  K3  1  0.73420800  0.62395200  0.04634300  1
  K  K4  1  0.07760900  0.68786500  0.45365700  1
  K  K5  1  0.92239100  0.31213500  0.54634300  1
  K  K6  1  0.42239100  0.87604800  0.61025600  1
  K  K7  1  0.23420800  0.18786500  0.11025600  1
  Bi  Bi0  1  0.33032600  0.25000000  0.58032600  1
  Bi  Bi1  1  0.66967400  0.75000000  0.41967400  1
  Bi  Bi2  1  0.16967400  0.75000000  0.91967400  1
  Bi  Bi3  1  0.83032600  0.25000000  0.08032600  1
  P  P0  1  0.92687400  0.75000000  0.67687400  1
  P  P1  1  0.42687400  0.75000000  0.17687400  1
  P  P2  1  0.07312600  0.25000000  0.32312600  1
  P  P3  1  0.57312600  0.25000000  0.82312600  1
  W  W0  1  0.41819600  0.66819600  0.75000000  1
  W  W1  1  0.58180400  0.33180400  0.25000000  1
  W  W2  1  0.91819600  0.16819600  0.75000000  1
  W  W3  1  0.08180400  0.83180400  0.25000000  1
  O  O0  1  0.93853500  0.66228300  0.72372600  1
  O  O1  1  0.43855700  0.21480900  0.77627400  1
  O  O2  1  0.91818700  0.84367300  0.19992400  1
  O  O3  1  0.35625100  0.65632700  0.57451400  1
  O  O4  1  0.56144300  0.78519100  0.22372600  1
  O  O5  1  0.36013500  0.92905700  0.26720700  1
  O  O6  1  0.08181300  0.15632700  0.80007600  1
  O  O7  1  0.83282800  0.91274800  0.51147900  1
  O  O8  1  0.33282800  0.82134800  0.92007900  1
  O  O9  1  0.85625100  0.28173700  0.69992400  1
  O  O10  1  0.63986500  0.07094300  0.73279300  1
  O  O11  1  0.43853500  0.71480900  0.27625200  1
  O  O12  1  0.09873100  0.67865200  0.01147900  1
  O  O13  1  0.66717200  0.17865200  0.07992100  1
  O  O14  1  0.58181300  0.78173700  0.92548600  1
  O  O15  1  0.06146500  0.33771700  0.27627400  1
  O  O16  1  0.90126900  0.32134800  0.98852100  1
  O  O17  1  0.59873100  0.58725200  0.42007900  1
  O  O18  1  0.33814900  0.57094300  0.93107700  1
  O  O19  1  0.86013500  0.59292800  0.43107700  1
  O  O20  1  0.64374900  0.34367300  0.42548600  1
  O  O21  1  0.93855700  0.16228300  0.22374800  1
  O  O22  1  0.40126900  0.41274800  0.57992100  1
  O  O23  1  0.16717200  0.08725200  0.48852100  1
  O  O24  1  0.56146500  0.28519100  0.72374800  1
  O  O25  1  0.14374900  0.71826300  0.30007600  1
  O  O26  1  0.66185100  0.42905700  0.06892300  1
  O  O27  1  0.83814900  0.90707200  0.76720700  1
  O  O28  1  0.41818700  0.21826300  0.07451400  1
  O  O29  1  0.13986500  0.40707200  0.56892300  1
  O  O30  1  0.06144300  0.83771700  0.77625200  1
  O  O31  1  0.16185100  0.09292800  0.23279300  1
loop_
_geom_bond_atom_site_label_1
_geom_bond_atom_site_label_2
_geom_bond_distance
_geom_bond_site_symmetry_2
K0 O14 2.702813 1_555
K0 O0 2.760421 1_555
K0 O21 2.812806 1_566
K0 O13 3.017820 1_566
K0 O27 3.068714 1_555
K0 O2 3.073451 1_556
K0 O20 3.250342 1_555
K0 O17 3.302856 1_555
K1 O6 2.702813 1_555
K1 O11 2.760421 1_556
K1 O1 2.812806 1_555
K1 O23 3.017815 1_555
K1 O18 3.068726 1_555
K1 O28 3.073451 1_556
K1 O25 3.250342 1_556
K1 O12 3.302856 1_556
K2 O20 2.702813 1_555
K2 O4 2.760421 1_545
K2 O24 2.812806 1_555
K2 O22 3.017816 1_555
K2 O5 3.068722 1_545
K2 O9 3.073451 1_555
K2 O14 3.250342 1_544
K2 O8 3.302851 1_544
K3 O2 2.702813 1_555
K3 O24 2.760421 1_554
K3 O4 2.812806 1_555
K3 O7 3.017815 1_555
K3 O26 3.068726 1_555
K3 O14 3.073451 1_554
K3 O9 3.250342 1_554
K3 O16 3.302856 1_554
K4 O25 2.702813 1_555
K4 O30 2.760421 1_555
K4 O15 2.812806 1_555
K4 O16 3.017816 1_454
K4 O19 3.068714 1_455
K4 O3 3.073451 1_555
K4 O6 3.250342 1_565
K4 O7 3.302847 1_455
K5 O9 2.702813 1_555
K5 O21 2.760421 1_555
K5 O0 2.812806 1_555
K5 O12 3.017816 1_656
K5 O29 3.068714 1_655
K5 O20 3.073451 1_555
K5 O2 3.250342 1_545
K5 O23 3.302847 1_655
K6 O3 2.702813 1_555
K6 O1 2.760421 1_565
K6 O11 2.812806 1_555
K6 O17 3.017816 1_555
K6 O10 3.068722 1_565
K6 O25 3.073451 1_555
K6 O28 3.250342 1_566
K6 O13 3.302851 1_566
K7 O28 2.702813 1_555
K7 O15 2.760421 1_555
K7 O30 2.812806 1_544
K7 O8 3.017820 1_544
K7 O31 3.068714 1_555
K7 O6 3.073451 1_554
K7 O3 3.250342 1_555
K7 O22 3.302856 1_555
Bi0 O18 2.396706 1_555
Bi0 O5 2.396707 1_545
Bi0 O22 2.441075 1_555
Bi0 O23 2.441086 1_555
Bi0 O24 2.476380 1_555
Bi0 O1 2.476380 1_555
Bi0 O31 2.571861 1_555
Bi0 O29 2.571861 1_555
Bi1 O26 2.396706 1_555
Bi1 O10 2.396707 1_565
Bi1 O17 2.441075 1_555
Bi1 O7 2.441086 1_555
Bi1 O4 2.476380 1_555
Bi1 O11 2.476380 1_555
Bi1 O19 2.571861 1_555
Bi1 O27 2.571861 1_555
Bi2 O31 2.396704 1_566
Bi2 O29 2.396704 1_555
Bi2 O12 2.441075 1_556
Bi2 O8 2.441087 1_555
Bi2 O30 2.476380 1_555
Bi2 O0 2.476380 1_455
Bi2 O18 2.571853 1_555
Bi2 O5 2.571864 1_556
Bi3 O19 2.396704 1_555
Bi3 O27 2.396704 1_544
Bi3 O16 2.441075 1_554
Bi3 O13 2.441087 1_555
Bi3 O21 2.476380 1_555
Bi3 O15 2.476380 1_655
Bi3 O26 2.571853 1_555
Bi3 O10 2.571864 1_554
O0 P0 1.550841 1_555
O1 P3 1.550841 1_555
O2 W3 1.806479 1_655
O3 W0 1.806479 1_555
O4 P1 1.550841 1_555
O5 P1 1.566785 1_555
O6 W2 1.806479 1_455
O7 W2 1.837208 1_565
O8 W0 1.837203 1_555
O9 W2 1.806479 1_555
O10 P3 1.566785 1_555
O11 P1 1.550841 1_555
O12 W3 1.837213 1_555
O13 W1 1.837203 1_555
O14 W0 1.806479 1_555
O15 P2 1.550841 1_555
O16 W2 1.837213 1_555
O17 W1 1.837213 1_555
O18 P1 1.566793 1_556
O19 P0 1.566793 1_555
O20 W1 1.806479 1_555
O21 P2 1.550841 1_655
O22 W0 1.837213 1_555
O23 W3 1.837208 1_545
O24 P3 1.550841 1_555
O25 W3 1.806479 1_555
O26 P3 1.566793 1_554
O27 P0 1.566793 1_555
O28 W1 1.806479 1_555
O29 P2 1.566793 1_555
O30 P0 1.550841 1_455
O31 P2 1.566793 1_555
