# generated using pymatgen
data_Zn(FeO2)2
_symmetry_space_group_name_H-M   'P 1'
_cell_length_a   6.04049688
_cell_length_b   6.04049684
_cell_length_c   24.16479908
_cell_angle_alpha   60.00385745
_cell_angle_beta   60.00385778
_cell_angle_gamma   59.99999665
_symmetry_Int_Tables_number   1
_chemical_formula_structural   Zn(FeO2)2
_chemical_formula_sum   'Zn8 Fe16 O32'
_cell_volume   623.50339902
_cell_formula_units_Z   8
loop_
 _symmetry_equiv_pos_site_id
 _symmetry_equiv_pos_as_xyz
  1  'x, y, z'
loop_
 _atom_site_type_symbol
 _atom_site_label
 _atom_site_symmetry_multiplicity
 _atom_site_fract_x
 _atom_site_fract_y
 _atom_site_fract_z
 _atom_site_occupancy
  Zn  Zn0  1  0.00458600  0.00458600  0.99656000  1
  Zn  Zn1  1  0.00317900  0.00317900  0.24761500  1
  Zn  Zn2  1  0.62654900  0.62654900  0.03008800  1
  Zn  Zn3  1  0.99948800  0.99948800  0.50038400  1
  Zn  Zn4  1  0.99945600  0.99945600  0.75040800  1
  Zn  Zn5  1  0.62733900  0.62733900  0.27949600  1
  Zn  Zn6  1  0.24983100  0.24983100  0.56262700  1
  Zn  Zn7  1  0.24687100  0.24687100  0.81484700  1
  Fe  Fe0  1  0.24709100  0.24709100  0.06468200  1
  Fe  Fe1  1  0.12076500  0.62641000  0.15660400  1
  Fe  Fe2  1  0.62641000  0.12076500  0.15660400  1
  Fe  Fe3  1  0.24748600  0.24748600  0.31438600  1
  Fe  Fe4  1  0.62641000  0.62641000  0.15660400  1
  Fe  Fe5  1  0.12215000  0.62613200  0.40639700  1
  Fe  Fe6  1  0.62613200  0.12215000  0.40639700  1
  Fe  Fe7  1  0.62613200  0.62613200  0.40639700  1
  Fe  Fe8  1  0.12360600  0.62425900  0.65696900  1
  Fe  Fe9  1  0.62425900  0.12360600  0.65696900  1
  Fe  Fe10  1  0.62350600  0.62350600  0.53237100  1
  Fe  Fe11  1  0.62425900  0.62425900  0.65696900  1
  Fe  Fe12  1  0.12083600  0.62584000  0.90687100  1
  Fe  Fe13  1  0.62353800  0.62353800  0.78234700  1
  Fe  Fe14  1  0.62584000  0.12083600  0.90687100  1
  Fe  Fe15  1  0.62584000  0.62584000  0.90687100  1
  O  O0  1  0.37698500  0.37698500  0.09782300  1
  O  O1  1  0.38276200  0.38276200  0.21292900  1
  O  O2  1  0.37698500  0.85473900  0.09782300  1
  O  O3  1  0.85473900  0.37698500  0.09782300  1
  O  O4  1  0.40389100  0.86983000  0.21411200  1
  O  O5  1  0.37194300  0.37194300  0.34883400  1
  O  O6  1  0.86983000  0.40389100  0.21411200  1
  O  O7  1  0.38838800  0.38838800  0.45870900  1
  O  O8  1  0.37194300  0.86077800  0.34883400  1
  O  O9  1  0.86624300  0.86624300  0.10031800  1
  O  O10  1  0.86983000  0.86983000  0.21411200  1
  O  O11  1  0.86077800  0.37194300  0.34883400  1
  O  O12  1  0.40739400  0.86430700  0.46599800  1
  O  O13  1  0.38596100  0.38596100  0.59570000  1
  O  O14  1  0.86430700  0.40739400  0.46599800  1
  O  O15  1  0.38503400  0.38503400  0.71122500  1
  O  O16  1  0.38596100  0.84527600  0.59570000  1
  O  O17  1  0.86538900  0.86538900  0.35095800  1
  O  O18  1  0.84527600  0.38596100  0.59570000  1
  O  O19  1  0.86430700  0.86430700  0.46599800  1
  O  O20  1  0.40601300  0.86527600  0.71585900  1
  O  O21  1  0.38670300  0.38670300  0.84624100  1
  O  O22  1  0.86527600  0.40601300  0.71585900  1
  O  O23  1  0.37961300  0.37961300  0.96529000  1
  O  O24  1  0.38670300  0.84163200  0.84624100  1
  O  O25  1  0.86500400  0.86500400  0.60124700  1
  O  O26  1  0.84163200  0.38670300  0.84624100  1
  O  O27  1  0.86527600  0.86527600  0.71585900  1
  O  O28  1  0.40480000  0.87199900  0.96280000  1
  O  O29  1  0.87199900  0.40480000  0.96280000  1
  O  O30  1  0.86548200  0.86548200  0.85088800  1
  O  O31  1  0.87199900  0.87199900  0.96280000  1
loop_
_geom_bond_atom_site_label_1
_geom_bond_atom_site_label_2
_geom_bond_distance
_geom_bond_site_symmetry_2
Fe0 O0 1.935159 1_555
Fe0 O2 1.935159 1_545
Fe0 O3 1.935159 1_455
Fe0 O23 1.961166 1_554
Fe1 O10 2.024580 1_455
Fe1 O6 2.024588 1_455
Fe1 O9 2.050811 1_455
Fe1 O0 2.071920 1_555
Fe1 O2 2.071920 1_555
Fe1 O1 2.084432 1_555
Fe2 O10 2.024580 1_545
Fe2 O4 2.024588 1_545
Fe2 O9 2.050811 1_545
Fe2 O0 2.071920 1_555
Fe2 O3 2.071920 1_555
Fe2 O1 2.084432 1_555
Fe3 O5 1.907860 1_555
Fe3 O8 1.907870 1_545
Fe3 O11 1.907870 1_455
Fe3 O1 2.001912 1_555
Fe4 O6 2.024579 1_555
Fe4 O4 2.024579 1_555
Fe4 O9 2.050812 1_555
Fe4 O2 2.071920 1_555
Fe4 O3 2.071920 1_555
Fe4 O1 2.084428 1_555
Fe5 O7 2.038304 1_555
Fe5 O19 2.039143 1_455
Fe5 O14 2.039151 1_455
Fe5 O17 2.046713 1_455
Fe5 O8 2.071050 1_555
Fe5 O5 2.071058 1_555
Fe6 O7 2.038304 1_555
Fe6 O19 2.039143 1_545
Fe6 O12 2.039151 1_545
Fe6 O17 2.046713 1_545
Fe6 O11 2.071050 1_555
Fe6 O5 2.071058 1_555
Fe7 O7 2.038313 1_555
Fe7 O14 2.039142 1_555
Fe7 O12 2.039142 1_555
Fe7 O17 2.046700 1_555
Fe7 O8 2.071058 1_555
Fe7 O11 2.071058 1_555
Fe8 O22 2.039367 1_455
Fe8 O27 2.039371 1_455
Fe8 O15 2.048094 1_555
Fe8 O25 2.059506 1_455
Fe8 O16 2.068612 1_555
Fe8 O13 2.068620 1_555
Fe9 O20 2.039367 1_545
Fe9 O27 2.039371 1_545
Fe9 O15 2.048094 1_555
Fe9 O25 2.059506 1_545
Fe9 O18 2.068612 1_555
Fe9 O13 2.068620 1_555
Fe10 O18 2.031593 1_555
Fe10 O16 2.031593 1_555
Fe10 O13 2.031610 1_555
Fe10 O19 2.062600 1_555
Fe10 O12 2.062608 1_555
Fe10 O14 2.062608 1_555
Fe11 O22 2.039371 1_555
Fe11 O20 2.039371 1_555
Fe11 O15 2.048085 1_555
Fe11 O25 2.059506 1_555
Fe11 O16 2.068620 1_555
Fe11 O18 2.068620 1_555
Fe12 O31 2.009970 1_455
Fe12 O29 2.009979 1_455
Fe12 O30 2.049465 1_455
Fe12 O21 2.062988 1_555
Fe12 O24 2.062997 1_555
Fe12 O23 2.104879 1_555
Fe13 O26 2.026477 1_555
Fe13 O24 2.026477 1_555
Fe13 O21 2.026477 1_555
Fe13 O27 2.070378 1_555
Fe13 O20 2.070382 1_555
Fe13 O22 2.070382 1_555
Fe14 O31 2.009970 1_545
Fe14 O28 2.009979 1_545
Fe14 O30 2.049465 1_545
Fe14 O21 2.062988 1_555
Fe14 O26 2.062997 1_555
Fe14 O23 2.104879 1_555
Fe15 O29 2.009970 1_555
Fe15 O28 2.009970 1_555
Fe15 O30 2.049457 1_555
Fe15 O24 2.062988 1_555
Fe15 O26 2.062988 1_555
Fe15 O23 2.104883 1_555
O0 Zn2 2.135967 1_555
O2 Zn2 2.135974 1_555
O3 Zn2 2.135974 1_555
O4 Zn1 1.976370 1_565
O4 Zn5 2.074832 1_555
O5 Zn5 2.185911 1_555
O6 Zn1 1.976370 1_655
O6 Zn5 2.074832 1_555
O7 Zn6 2.050471 1_555
O8 Zn5 2.185906 1_555
O9 Zn0 2.047314 1_664
O10 Zn1 1.976360 1_665
O10 Zn5 2.074824 1_555
O11 Zn5 2.185906 1_555
O12 Zn3 2.011868 1_455
O13 Zn6 1.995351 1_555
O14 Zn3 2.011868 1_545
O15 Zn7 2.044631 1_555
O16 Zn6 1.995366 1_565
O17 Zn1 2.039125 1_665
O18 Zn6 1.995366 1_655
O19 Zn3 2.011867 1_555
O20 Zn4 2.005247 1_455
O21 Zn7 1.999314 1_555
O22 Zn4 2.005247 1_545
O24 Zn7 1.999309 1_565
O25 Zn3 1.990191 1_555
O26 Zn7 1.999309 1_655
O27 Zn4 2.005242 1_555
O28 Zn0 1.973931 1_565
O28 Zn2 2.101802 1_556
O29 Zn0 1.973931 1_655
O29 Zn2 2.101802 1_556
O30 Zn4 1.982634 1_555
O31 Zn0 1.973931 1_665
O31 Zn2 2.101799 1_556
