# generated using pymatgen
data_KNa(BH4)2
_symmetry_space_group_name_H-M   'P 1'
_cell_length_a   7.87129436
_cell_length_b   7.87129436
_cell_length_c   7.87129495
_cell_angle_alpha   33.65614526
_cell_angle_beta   33.65614526
_cell_angle_gamma   33.65614381
_symmetry_Int_Tables_number   1
_chemical_formula_structural   KNa(BH4)2
_chemical_formula_sum   'K1 Na1 B2 H8'
_cell_volume   133.44332707
_cell_formula_units_Z   1
loop_
 _symmetry_equiv_pos_site_id
 _symmetry_equiv_pos_as_xyz
  1  'x, y, z'
loop_
 _atom_site_type_symbol
 _atom_site_label
 _atom_site_symmetry_multiplicity
 _atom_site_fract_x
 _atom_site_fract_y
 _atom_site_fract_z
 _atom_site_occupancy
  K  K0  1  0.35251400  0.35251400  0.35251400  1
  Na  Na0  1  0.85646600  0.85646600  0.85646600  1
  B  B0  1  0.59212700  0.59212700  0.59212700  1
  B  B1  1  0.10374600  0.10374600  0.10374600  1
  H  H0  1  0.85719400  0.36557600  0.14151800  1
  H  H1  1  0.53708200  0.53708200  0.53708200  1
  H  H2  1  0.14151800  0.85719400  0.36557600  1
  H  H3  1  0.31804000  0.75636400  0.75838000  1
  H  H4  1  0.36557600  0.14151800  0.85719400  1
  H  H5  1  0.04837300  0.04837300  0.04837300  1
  H  H6  1  0.75838000  0.31804000  0.75636400  1
  H  H7  1  0.75636400  0.75838000  0.31804000  1
loop_
_geom_bond_atom_site_label_1
_geom_bond_atom_site_label_2
_geom_bond_distance
_geom_bond_site_symmetry_2
B0 H1 1.225049 1_555
B0 H6 1.229405 1_555
B0 H3 1.229405 1_555
B0 H7 1.229405 1_555
B1 H0 1.226062 1_455
B1 H4 1.226062 1_554
B1 H2 1.226062 1_545
B1 H5 1.232349 1_555
H0 Na0 2.348637 1_554
H0 K0 2.821676 1_555
H1 Na0 2.649520 1_455
H1 Na0 2.649520 1_545
H1 Na0 2.649520 1_554
H2 Na0 2.348637 1_455
H2 K0 2.821676 1_555
H3 Na0 2.448315 1_455
H3 K0 2.824419 1_556
H3 K0 2.831822 1_565
H4 Na0 2.348637 1_545
H4 K0 2.821676 1_555
H5 K0 2.710290 1_455
H5 K0 2.710290 1_545
H5 K0 2.710290 1_554
H6 Na0 2.448315 1_545
H6 K0 2.824419 1_655
H6 K0 2.831822 1_556
H7 Na0 2.448315 1_554
H7 K0 2.824419 1_565
H7 K0 2.831822 1_655
