# generated using pymatgen
data_Na7Al3O8
_symmetry_space_group_name_H-M   'P 1'
_cell_length_a   5.82291223
_cell_length_b   7.91311688
_cell_length_c   11.25338675
_cell_angle_alpha   69.42873878
_cell_angle_beta   89.73183691
_cell_angle_gamma   70.98007042
_symmetry_Int_Tables_number   1
_chemical_formula_structural   Na7Al3O8
_chemical_formula_sum   'Na14 Al6 O16'
_cell_volume   455.41246327
_cell_formula_units_Z   2
loop_
 _symmetry_equiv_pos_site_id
 _symmetry_equiv_pos_as_xyz
  1  'x, y, z'
loop_
 _atom_site_type_symbol
 _atom_site_label
 _atom_site_symmetry_multiplicity
 _atom_site_fract_x
 _atom_site_fract_y
 _atom_site_fract_z
 _atom_site_occupancy
  Na  Na0  1  0.14814523  0.09867272  0.66816718  1
  Na  Na1  1  0.27517687  0.48204857  0.44833084  1
  Na  Na2  1  0.54988157  0.69275827  0.23925280  1
  Na  Na3  1  0.37614971  0.91048947  0.44424498  1
  Na  Na4  1  0.62385029  0.08951053  0.55575502  1
  Na  Na5  1  0.52837302  0.70852880  0.72846895  1
  Na  Na6  1  0.72482313  0.51795143  0.55166916  1
  Na  Na7  1  0.85185477  0.90132728  0.33183282  1
  Na  Na8  1  0.74361250  0.49024036  0.05630549  1
  Na  Na9  1  0.34303745  0.90135981  0.95013709  1
  Na  Na10  1  0.25638750  0.50975964  0.94369451  1
  Na  Na11  1  0.47162698  0.29147120  0.27153105  1
  Na  Na12  1  0.45011843  0.30724173  0.76074720  1
  Na  Na13  1  0.65696255  0.09864019  0.04986291  1
  Al  Al0  1  0.16597926  0.09537043  0.15877887  1
  Al  Al1  1  0.83402074  0.90462957  0.84122113  1
  Al  Al2  1  0.04296826  0.67590786  0.64493503  1
  Al  Al3  1  0.95703174  0.32409214  0.35506497  1
  Al  Al4  1  0.93255354  0.30039943  0.86394491  1
  Al  Al5  1  0.06744646  0.69960057  0.13605509  1
  O  O0  1  0.84262598  0.76556137  0.00551351  1
  O  O1  1  0.36083633  0.59298718  0.10478874  1
  O  O2  1  0.97742302  0.55831118  0.27384141  1
  O  O3  1  0.05196668  0.78335156  0.76051126  1
  O  O4  1  0.32338190  0.63207650  0.58207949  1
  O  O5  1  0.93215384  0.09455934  0.83721374  1
  O  O6  1  0.77863670  0.80181924  0.53509385  1
  O  O7  1  0.94803332  0.21664844  0.23948874  1
  O  O8  1  0.63916367  0.40701282  0.89521126  1
  O  O9  1  0.02257698  0.44168882  0.72615859  1
  O  O10  1  0.06784616  0.90544066  0.16278626  1
  O  O11  1  0.22136330  0.19818076  0.46490615  1
  O  O12  1  0.53404396  0.99066162  0.76846308  1
  O  O13  1  0.15737402  0.23443863  0.99448649  1
  O  O14  1  0.46595604  0.00933838  0.23153692  1
  O  O15  1  0.67661810  0.36792350  0.41792051  1
loop_
_geom_bond_atom_site_label_1
_geom_bond_atom_site_label_2
_geom_bond_distance
_geom_bond_site_symmetry_2
Na0 O11 2.231107 1_555
Na0 O12 2.268848 1_545
Na0 O5 2.272127 1_455
Na0 O3 2.588943 1_545
Na0 O9 2.876603 1_555
Na1 O4 2.287023 1_555
Na1 O15 2.287051 1_555
Na1 O11 2.311394 1_555
Na1 O2 2.396475 1_455
Na2 O2 2.339419 1_555
Na2 O1 2.355068 1_555
Na2 O14 2.360434 1_565
Na2 O15 2.517933 1_555
Na2 O10 2.716099 1_555
Na3 O11 2.254251 1_565
Na3 O6 2.316976 1_555
Na3 O4 2.321497 1_555
Na3 O14 2.356724 1_565
Na4 O6 2.254251 1_545
Na4 O11 2.316976 1_555
Na4 O15 2.321497 1_555
Na4 O12 2.356724 1_545
Na5 O8 2.343433 1_555
Na5 O4 2.386230 1_555
Na5 O12 2.437671 1_555
Na5 O6 2.635655 1_555
Na5 O3 2.691871 1_555
Na6 O15 2.287023 1_555
Na6 O4 2.287051 1_555
Na6 O6 2.311394 1_555
Na6 O9 2.396475 1_655
Na7 O6 2.231107 1_555
Na7 O14 2.268848 1_565
Na7 O10 2.272127 1_655
Na7 O7 2.588943 1_565
Na7 O2 2.876603 1_555
Na8 O1 2.246282 1_555
Na8 O8 2.280463 1_554
Na8 O0 2.312171 1_555
Na8 O7 2.358058 1_555
Na9 O12 2.322041 1_555
Na9 O1 2.417961 1_556
Na9 O5 2.440381 1_465
Na9 O13 2.725222 1_565
Na9 O0 2.741269 1_556
Na9 O10 2.877502 1_556
Na10 O8 2.246282 1_555
Na10 O1 2.280463 1_556
Na10 O13 2.312171 1_555
Na10 O3 2.358058 1_555
Na11 O1 2.343433 1_555
Na11 O15 2.386230 1_555
Na11 O14 2.437671 1_555
Na11 O11 2.635655 1_555
Na11 O7 2.691871 1_555
Na12 O9 2.339419 1_555
Na12 O8 2.355068 1_555
Na12 O12 2.360434 1_545
Na12 O4 2.517933 1_555
Na12 O5 2.716099 1_555
Na13 O14 2.322041 1_555
Na13 O8 2.417961 1_554
Na13 O10 2.440381 1_645
Na13 O0 2.725222 1_545
Na13 O13 2.741269 1_554
Na13 O5 2.877502 1_554
Al0 O14 1.741133 1_555
Al0 O10 1.760474 1_545
Al0 O7 1.778882 1_455
Al0 O13 1.779576 1_554
Al1 O12 1.741133 1_555
Al1 O5 1.760474 1_565
Al1 O3 1.778882 1_655
Al1 O0 1.779576 1_556
Al2 O6 1.744264 1_455
Al2 O4 1.754766 1_555
Al2 O3 1.795552 1_555
Al2 O9 1.799051 1_555
Al3 O11 1.744264 1_655
Al3 O15 1.754766 1_555
Al3 O7 1.795552 1_555
Al3 O2 1.799051 1_555
Al4 O8 1.737146 1_555
Al4 O9 1.756463 1_655
Al4 O5 1.757957 1_555
Al4 O13 1.782711 1_655
Al5 O1 1.737146 1_555
Al5 O2 1.756463 1_455
Al5 O10 1.757957 1_555
Al5 O0 1.782711 1_455
