# generated using pymatgen
data_K2NaMoF6
_symmetry_space_group_name_H-M   'P 1'
_cell_length_a   6.15420063
_cell_length_b   6.15420063
_cell_length_c   6.15420063
_cell_angle_alpha   60.00000000
_cell_angle_beta   60.00000000
_cell_angle_gamma   60.00000000
_symmetry_Int_Tables_number   1
_chemical_formula_structural   K2NaMoF6
_chemical_formula_sum   'K2 Na1 Mo1 F6'
_cell_volume   164.81622161
_cell_formula_units_Z   1
loop_
 _symmetry_equiv_pos_site_id
 _symmetry_equiv_pos_as_xyz
  1  'x, y, z'
loop_
 _atom_site_type_symbol
 _atom_site_label
 _atom_site_symmetry_multiplicity
 _atom_site_fract_x
 _atom_site_fract_y
 _atom_site_fract_z
 _atom_site_occupancy
  K  K0  1  0.25000000  0.25000000  0.25000000  1
  K  K1  1  0.75000000  0.75000000  0.75000000  1
  Na  Na0  1  0.50000000  0.50000000  0.50000000  1
  Mo  Mo0  1  0.00000000  0.00000000  0.00000000  1
  F  F0  1  0.75942900  0.24057100  0.75942900  1
  F  F1  1  0.24057100  0.24057100  0.75942900  1
  F  F2  1  0.75942900  0.75942900  0.24057100  1
  F  F3  1  0.75942900  0.24057100  0.24057100  1
  F  F4  1  0.24057100  0.75942900  0.24057100  1
  F  F5  1  0.24057100  0.75942900  0.75942900  1
loop_
_geom_bond_atom_site_label_1
_geom_bond_atom_site_label_2
_geom_bond_distance
_geom_bond_site_symmetry_2
F0 Mo0 2.093775 1_656
F0 Na0 2.257902 1_555
F0 K1 3.078194 1_545
F0 K0 3.078194 1_655
F0 K0 3.078194 1_556
F0 K1 3.078194 1_555
F1 Mo0 2.093775 1_556
F1 Na0 2.257902 1_555
F1 K0 3.078194 1_555
F1 K1 3.078194 1_455
F1 K1 3.078194 1_545
F1 K0 3.078194 1_556
F2 Mo0 2.093775 1_665
F2 Na0 2.257902 1_555
F2 K1 3.078194 1_554
F2 K0 3.078194 1_565
F2 K0 3.078194 1_655
F2 K1 3.078194 1_555
F3 Mo0 2.093775 1_655
F3 Na0 2.257902 1_555
F3 K0 3.078194 1_555
F3 K1 3.078194 1_554
F3 K1 3.078194 1_545
F3 K0 3.078194 1_655
F4 Mo0 2.093775 1_565
F4 Na0 2.257902 1_555
F4 K0 3.078194 1_555
F4 K1 3.078194 1_554
F4 K1 3.078194 1_455
F4 K0 3.078194 1_565
F5 Mo0 2.093775 1_566
F5 Na0 2.257902 1_555
F5 K1 3.078194 1_455
F5 K0 3.078194 1_556
F5 K0 3.078194 1_565
F5 K1 3.078194 1_555
