# generated using pymatgen
data_GdAl3(BO3)4
_symmetry_space_group_name_H-M   'P 1'
_cell_length_a   5.94564967
_cell_length_b   5.94564967
_cell_length_c   16.34000308
_cell_angle_alpha   89.56765453
_cell_angle_beta   89.56765453
_cell_angle_gamma   104.35300495
_symmetry_Int_Tables_number   1
_chemical_formula_structural   GdAl3(BO3)4
_chemical_formula_sum   'Gd3 Al9 B12 O36'
_cell_volume   559.55928222
_cell_formula_units_Z   3
loop_
 _symmetry_equiv_pos_site_id
 _symmetry_equiv_pos_as_xyz
  1  'x, y, z'
loop_
 _atom_site_type_symbol
 _atom_site_label
 _atom_site_symmetry_multiplicity
 _atom_site_fract_x
 _atom_site_fract_y
 _atom_site_fract_z
 _atom_site_occupancy
  Gd  Gd0  1  0.83165200  0.82830500  0.16811300  1
  Gd  Gd1  1  0.17169500  0.16834800  0.83188700  1
  Gd  Gd2  1  0.93093500  0.06906500  0.50000000  1
  Al  Al0  1  0.02006600  0.57233500  0.98149200  1
  Al  Al1  1  0.34464100  0.91368300  0.64776200  1
  Al  Al2  1  0.37822000  0.62178000  0.50000000  1
  Al  Al3  1  0.08631700  0.65535900  0.35223800  1
  Al  Al4  1  0.42766500  0.97993400  0.01850800  1
  Al  Al5  1  0.75495400  0.32036000  0.68543800  1
  Al  Al6  1  0.67964000  0.24504600  0.31456200  1
  Al  Al7  1  0.38872500  0.27705400  0.16567000  1
  Al  Al8  1  0.72294600  0.61127500  0.83433000  1
  B  B0  1  0.64973100  0.09042600  0.85224800  1
  B  B1  1  0.85678000  0.54955000  0.51847300  1
  B  B2  1  0.27108800  0.39490000  0.66326600  1
  B  B3  1  0.50081200  0.49918800  0.00000000  1
  B  B4  1  0.31490400  0.75580700  0.18543500  1
  B  B5  1  0.90957400  0.35026900  0.14775200  1
  B  B6  1  0.82885000  0.83876000  0.66976000  1
  B  B7  1  0.24419300  0.68509600  0.81456500  1
  B  B8  1  0.94458900  0.05541100  0.00000000  1
  B  B9  1  0.16124000  0.17115000  0.33024000  1
  B  B10  1  0.45045000  0.14322000  0.48152700  1
  B  B11  1  0.60510000  0.72891200  0.33673400  1
  O  O0  1  0.77644100  0.63570500  0.71585400  1
  O  O1  1  0.73749600  0.98471300  0.04222900  1
  O  O2  1  0.40131500  0.67515400  0.38232600  1
  O  O3  1  0.36453600  0.95485300  0.13644000  1
  O  O4  1  0.40039600  0.55197400  0.82561700  1
  O  O5  1  0.47002300  0.06295500  0.90769800  1
  O  O6  1  0.03064100  0.90545200  0.62334300  1
  O  O7  1  0.31653600  0.29819900  0.49387300  1
  O  O8  1  0.45067700  0.30026700  0.04926700  1
  O  O9  1  0.69973300  0.54932300  0.95073300  1
  O  O10  1  0.78533100  0.93591000  0.84137900  1
  O  O11  1  0.44802600  0.59960400  0.17438300  1
  O  O12  1  0.71102100  0.30436000  0.19714000  1
  O  O13  1  0.93704500  0.52997700  0.09230200  1
  O  O14  1  0.75085900  0.57829200  0.33222100  1
  O  O15  1  0.70180100  0.68346400  0.50612700  1
  O  O16  1  0.27168700  0.86467600  0.75906500  1
  O  O17  1  0.06409000  0.21466900  0.15862100  1
  O  O18  1  0.62954800  0.17288800  0.42579400  1
  O  O19  1  0.35254900  0.64745100  0.00000000  1
  O  O20  1  0.05646200  0.59532700  0.46975900  1
  O  O21  1  0.67222400  0.93132700  0.29087400  1
  O  O22  1  0.01528700  0.26250400  0.95777100  1
  O  O23  1  0.40467300  0.94353800  0.53024100  1
  O  O24  1  0.36429500  0.22355900  0.28414600  1
  O  O25  1  0.01547500  0.32197200  0.33436000  1
  O  O26  1  0.67802800  0.98452500  0.66564000  1
  O  O27  1  0.09454800  0.96935900  0.37665700  1
  O  O28  1  0.82711200  0.37045200  0.57420600  1
  O  O29  1  0.69564000  0.28897900  0.80286000  1
  O  O30  1  0.42170800  0.24914100  0.66777900  1
  O  O31  1  0.06867300  0.32777600  0.70912600  1
  O  O32  1  0.09284900  0.90715100  0.00000000  1
  O  O33  1  0.32484600  0.59868500  0.61767400  1
  O  O34  1  0.13532400  0.72831300  0.24093500  1
  O  O35  1  0.04514700  0.63546400  0.86356000  1
loop_
_geom_bond_atom_site_label_1
_geom_bond_atom_site_label_2
_geom_bond_distance
_geom_bond_site_symmetry_2
Gd0 O11 2.349188 1_555
Gd0 O21 2.361171 1_555
Gd0 O34 2.362881 1_655
Gd0 O17 2.372431 1_665
Gd0 O13 2.376107 1_555
Gd0 O1 2.378201 1_555
Gd1 O4 2.349188 1_555
Gd1 O31 2.361171 1_555
Gd1 O16 2.362881 1_545
Gd1 O10 2.372431 1_445
Gd1 O5 2.376107 1_555
Gd1 O22 2.378201 1_555
Gd2 O15 2.359701 1_545
Gd2 O7 2.359701 1_655
Gd2 O18 2.373235 1_555
Gd2 O28 2.373235 1_555
Gd2 O6 2.373613 1_645
Gd2 O27 2.373613 1_645
Al0 O13 1.871758 1_456
Al0 O22 1.878706 1_555
Al0 O19 1.942191 1_556
Al0 O9 1.945526 1_455
Al0 O32 1.955904 1_556
Al0 O35 1.957928 1_555
Al1 O16 1.870327 1_555
Al1 O6 1.900864 1_555
Al1 O33 1.915379 1_555
Al1 O26 1.946415 1_555
Al1 O23 1.949239 1_555
Al1 O30 1.963168 1_565
Al2 O7 1.870709 1_555
Al2 O15 1.870709 1_555
Al2 O33 1.944711 1_555
Al2 O2 1.944711 1_555
Al2 O23 1.948069 1_555
Al2 O20 1.948069 1_555
Al3 O34 1.870327 1_555
Al3 O27 1.900864 1_555
Al3 O2 1.915379 1_555
Al3 O25 1.946415 1_555
Al3 O20 1.949239 1_555
Al3 O14 1.963168 1_455
Al4 O5 1.871758 1_564
Al4 O1 1.878706 1_555
Al4 O19 1.942191 1_555
Al4 O8 1.945526 1_565
Al4 O32 1.955904 1_555
Al4 O3 1.957928 1_555
Al5 O28 1.868930 1_555
Al5 O31 1.897721 1_655
Al5 O0 1.917018 1_555
Al5 O30 1.944961 1_555
Al5 O29 1.947373 1_555
Al5 O26 1.964707 1_545
Al6 O18 1.868930 1_555
Al6 O21 1.897721 1_545
Al6 O24 1.917018 1_555
Al6 O14 1.944961 1_555
Al6 O12 1.947373 1_555
Al6 O25 1.964707 1_655
Al7 O11 1.868706 1_555
Al7 O17 1.877614 1_555
Al7 O8 1.932016 1_555
Al7 O3 1.948573 1_545
Al7 O12 1.955688 1_555
Al7 O24 1.957938 1_555
Al8 O4 1.868706 1_555
Al8 O10 1.877614 1_555
Al8 O9 1.932016 1_555
Al8 O35 1.948573 1_655
Al8 O29 1.955688 1_555
Al8 O0 1.957938 1_555
B0 O5 1.373278 1_555
B0 O10 1.375892 1_545
B0 O29 1.393533 1_555
B1 O28 1.372653 1_555
B1 O15 1.373986 1_555
B1 O20 1.392649 1_655
B2 O31 1.383089 1_555
B2 O33 1.384190 1_555
B2 O30 1.394017 1_555
B3 O19 1.392631 1_555
B3 O9 1.393897 1_554
B3 O8 1.393897 1_555
B4 O34 1.373236 1_555
B4 O11 1.373477 1_555
B4 O3 1.391966 1_555
B5 O13 1.373278 1_555
B5 O17 1.375892 1_655
B5 O12 1.393533 1_555
B6 O6 1.384851 1_655
B6 O0 1.384973 1_555
B6 O26 1.394677 1_555
B7 O16 1.373236 1_555
B7 O4 1.373477 1_555
B7 O35 1.391966 1_555
B8 O22 1.376633 1_654
B8 O1 1.376633 1_545
B8 O32 1.392603 1_645
B9 O27 1.384851 1_545
B9 O24 1.384973 1_555
B9 O25 1.394677 1_555
B10 O18 1.372653 1_555
B10 O7 1.373986 1_555
B10 O23 1.392649 1_545
B11 O21 1.383089 1_555
B11 O2 1.384190 1_555
B11 O14 1.394017 1_555
