# generated using pymatgen
data_KGaCuF6
_symmetry_space_group_name_H-M   'P 1'
_cell_length_a   10.11537300
_cell_length_b   6.83186500
_cell_length_c   7.43523151
_cell_angle_alpha   85.62013111
_cell_angle_beta   90.00000000
_cell_angle_gamma   90.00000000
_symmetry_Int_Tables_number   1
_chemical_formula_structural   KGaCuF6
_chemical_formula_sum   'K4 Ga4 Cu4 F24'
_cell_volume   512.32497100
_cell_formula_units_Z   4
loop_
 _symmetry_equiv_pos_site_id
 _symmetry_equiv_pos_as_xyz
  1  'x, y, z'
loop_
 _atom_site_type_symbol
 _atom_site_label
 _atom_site_symmetry_multiplicity
 _atom_site_fract_x
 _atom_site_fract_y
 _atom_site_fract_z
 _atom_site_occupancy
  K  K0  1  0.11586600  0.50022500  0.24102000  1
  K  K1  1  0.88413400  0.49977500  0.75898000  1
  K  K2  1  0.61586600  0.99977500  0.75898000  1
  K  K3  1  0.38413400  0.00022500  0.24102000  1
  Ga  Ga0  1  0.00000000  0.00000000  0.50000000  1
  Ga  Ga1  1  0.50000000  0.50000000  0.00000000  1
  Ga  Ga2  1  0.00000000  0.00000000  0.00000000  1
  Ga  Ga3  1  0.50000000  0.50000000  0.50000000  1
  Cu  Cu0  1  0.73299700  0.18398600  0.25744400  1
  Cu  Cu1  1  0.23299700  0.31601400  0.74255600  1
  Cu  Cu2  1  0.26700300  0.81601400  0.74255600  1
  Cu  Cu3  1  0.76700300  0.68398600  0.25744400  1
  F  F0  1  0.94251200  0.74914000  0.44884500  1
  F  F1  1  0.97923000  0.91527200  0.75489800  1
  F  F2  1  0.81954100  0.09823000  0.48976800  1
  F  F3  1  0.16022200  0.86437000  0.02810800  1
  F  F4  1  0.83977800  0.13563000  0.97189200  1
  F  F5  1  0.33196600  0.07713200  0.75487900  1
  F  F6  1  0.47923000  0.58472800  0.24510200  1
  F  F7  1  0.52077000  0.41527200  0.75489800  1
  F  F8  1  0.55748800  0.24914000  0.44884500  1
  F  F9  1  0.05748800  0.25086000  0.55115500  1
  F  F10  1  0.33977800  0.36437000  0.02810800  1
  F  F11  1  0.31954100  0.40177000  0.51023200  1
  F  F12  1  0.16803400  0.57713200  0.75487900  1
  F  F13  1  0.66022200  0.63563000  0.97189200  1
  F  F14  1  0.40788100  0.74107100  0.92344900  1
  F  F15  1  0.02077000  0.08472800  0.24510200  1
  F  F16  1  0.18045900  0.90177000  0.51023200  1
  F  F17  1  0.68045900  0.59823000  0.48976800  1
  F  F18  1  0.83196600  0.42286800  0.24512100  1
  F  F19  1  0.09211900  0.24107100  0.92344900  1
  F  F20  1  0.66803400  0.92286800  0.24512100  1
  F  F21  1  0.59211900  0.25892900  0.07655100  1
  F  F22  1  0.90788100  0.75892900  0.07655100  1
  F  F23  1  0.44251200  0.75086000  0.55115500  1
loop_
_geom_bond_atom_site_label_1
_geom_bond_atom_site_label_2
_geom_bond_distance
_geom_bond_site_symmetry_2
Cu0 F20 1.909857 1_545
Cu0 F18 1.910819 1_555
Cu0 F2 1.984664 1_555
Cu0 F21 1.999165 1_555
Cu0 F8 2.339222 1_555
Cu0 F4 2.427075 1_554
Cu1 F12 1.909857 1_555
Cu1 F5 1.910819 1_555
Cu1 F11 1.984664 1_555
Cu1 F19 1.999165 1_555
Cu1 F9 2.339222 1_555
Cu1 F10 2.427075 1_556
Cu2 F5 1.909857 1_565
Cu2 F12 1.910819 1_555
Cu2 F16 1.984664 1_555
Cu2 F14 1.999165 1_555
Cu2 F23 2.339222 1_555
Cu2 F3 2.427075 1_556
Cu3 F18 1.909857 1_555
Cu3 F20 1.910819 1_555
Cu3 F17 1.984664 1_555
Cu3 F22 1.999165 1_555
Cu3 F0 2.339222 1_555
Cu3 F13 2.427075 1_554
F0 Ga0 1.876070 1_665
F0 K1 2.822823 1_555
F0 K0 2.959032 1_655
F1 Ga0 1.950263 1_665
F1 Ga2 1.965053 1_666
F1 K1 2.995135 1_555
F2 Ga0 1.944345 1_655
F2 K2 2.915138 1_545
F3 Ga2 1.870664 1_565
F3 K0 2.880092 1_555
F3 K3 2.953291 1_565
F4 Ga2 1.870664 1_656
F4 K1 2.880092 1_555
F4 K2 2.953291 1_545
F5 K2 2.919717 1_545
F6 Ga3 1.950263 1_555
F6 Ga1 1.965053 1_555
F6 K3 2.995135 1_565
F7 Ga3 1.950263 1_555
F7 Ga1 1.965053 1_556
F7 K2 2.995135 1_545
F8 Ga3 1.876070 1_555
F8 K2 2.822823 1_545
F8 K3 2.959032 1_555
F9 Ga0 1.876070 1_555
F9 K0 2.822823 1_555
F9 K1 2.959032 1_455
F10 Ga1 1.870664 1_555
F10 K3 2.880092 1_555
F10 K0 2.953291 1_555
F11 Ga3 1.944345 1_555
F11 K0 2.915138 1_555
F12 K1 2.919717 1_455
F13 Ga1 1.870664 1_556
F13 K2 2.880092 1_555
F13 K1 2.953291 1_555
F14 Ga1 1.939474 1_556
F14 K2 2.952162 1_555
F14 K3 3.066960 1_566
F15 Ga0 1.950263 1_555
F15 Ga2 1.965053 1_555
F15 K0 2.995135 1_555
F16 Ga0 1.944345 1_565
F16 K3 2.915138 1_565
F17 Ga3 1.944345 1_555
F17 K1 2.915138 1_555
F18 K0 2.919717 1_655
F19 Ga2 1.939474 1_556
F19 K1 2.952162 1_455
F19 K0 3.066960 1_556
F20 K3 2.919717 1_565
F21 Ga1 1.939474 1_555
F21 K3 2.952162 1_555
F21 K2 3.066960 1_544
F22 Ga2 1.939474 1_665
F22 K0 2.952162 1_655
F22 K1 3.066960 1_554
F23 Ga3 1.876070 1_555
F23 K3 2.822823 1_565
F23 K2 2.959032 1_555
