# generated using pymatgen
data_NdMg2Ni9
_symmetry_space_group_name_H-M   'P 1'
_cell_length_a   8.29413632
_cell_length_b   8.29413356
_cell_length_c   8.29413426
_cell_angle_alpha   33.99912898
_cell_angle_beta   33.99915882
_cell_angle_gamma   33.99914774
_symmetry_Int_Tables_number   1
_chemical_formula_structural   NdMg2Ni9
_chemical_formula_sum   'Nd1 Mg2 Ni9'
_cell_volume   159.02951235
_cell_formula_units_Z   1
loop_
 _symmetry_equiv_pos_site_id
 _symmetry_equiv_pos_as_xyz
  1  'x, y, z'
loop_
 _atom_site_type_symbol
 _atom_site_label
 _atom_site_symmetry_multiplicity
 _atom_site_fract_x
 _atom_site_fract_y
 _atom_site_fract_z
 _atom_site_occupancy
  Nd  Nd0  1  -0.00000000  -0.00000000  -0.00000000  1
  Mg  Mg0  1  0.85556393  0.85556393  0.85556393  1
  Mg  Mg1  1  0.14443607  0.14443607  0.14443607  1
  Ni  Ni0  1  0.41388229  0.91775224  0.41388229  1
  Ni  Ni1  1  0.58611771  0.58611771  0.08224776  1
  Ni  Ni2  1  0.66632784  0.66632684  0.66632584  1
  Ni  Ni3  1  0.91775324  0.41388129  0.41388129  1
  Ni  Ni4  1  0.08224676  0.58611871  0.58611871  1
  Ni  Ni5  1  0.33367216  0.33367316  0.33367416  1
  Ni  Ni6  1  0.50000000  0.50000000  0.50000000  1
  Ni  Ni7  1  0.41388229  0.41388229  0.91775224  1
  Ni  Ni8  1  0.58611771  0.08224776  0.58611771  1
loop_
_geom_bond_atom_site_label_1
_geom_bond_atom_site_label_2
_geom_bond_distance
_geom_bond_site_symmetry_2
Nd0 Ni5 2.800053 1_554
Nd0 Ni2 2.800053 1_445
Nd0 Ni5 2.800056 1_545
Nd0 Ni2 2.800056 1_454
Nd0 Ni2 2.800063 1_544
Nd0 Ni5 2.800063 1_455
Nd0 Ni7 3.134915 1_544
Nd0 Ni1 3.134915 1_455
Nd0 Ni0 3.134915 1_544
Nd0 Ni8 3.134915 1_455
Nd0 Ni7 3.134916 1_454
Nd0 Ni1 3.134916 1_545
Nd0 Ni8 3.134916 1_554
Nd0 Ni0 3.134916 1_445
Nd0 Ni3 3.134919 1_445
Nd0 Ni4 3.134919 1_554
Nd0 Ni3 3.134919 1_454
Nd0 Ni4 3.134919 1_545
Mg0 Ni3 2.798114 1_565
Mg0 Ni3 2.798114 1_556
Mg0 Ni7 2.798119 1_565
Mg0 Ni0 2.798120 1_556
Mg0 Ni7 2.798120 1_655
Mg0 Ni0 2.798121 1_655
Mg0 Ni4 2.805544 1_655
Mg0 Ni8 2.805553 1_565
Mg0 Ni1 2.805553 1_556
Mg0 Ni6 2.848044 1_565
Mg0 Ni6 2.848045 1_556
Mg0 Ni6 2.848047 1_655
Mg1 Ni4 2.798114 1_545
Mg1 Ni4 2.798114 1_554
Mg1 Ni1 2.798119 1_545
Mg1 Ni8 2.798120 1_554
Mg1 Ni1 2.798120 1_455
Mg1 Ni8 2.798121 1_455
Mg1 Ni3 2.805544 1_455
Mg1 Ni0 2.805553 1_545
Mg1 Ni7 2.805553 1_554
Mg1 Ni6 2.848044 1_545
Mg1 Ni6 2.848045 1_554
Mg1 Ni6 2.848047 1_455
Ni0 Ni6 2.380051 1_555
Ni0 Ni3 2.406138 1_465
Ni0 Ni7 2.406141 1_564
Ni0 Ni2 2.430296 1_555
Ni0 Ni5 2.430825 1_565
Ni0 Ni7 2.443678 1_555
Ni0 Ni3 2.443685 1_555
Ni1 Ni6 2.380051 1_555
Ni1 Ni4 2.406139 1_654
Ni1 Ni8 2.406141 1_564
Ni1 Ni5 2.430299 1_555
Ni1 Ni2 2.430828 1_554
Ni1 Ni8 2.443678 1_555
Ni1 Ni4 2.443686 1_555
Ni2 Ni7 2.430299 1_555
Ni2 Ni3 2.430304 1_555
Ni2 Ni8 2.430825 1_565
Ni2 Ni4 2.430827 1_655
Ni2 Ni5 2.800085 1_655
Ni2 Ni5 2.800090 1_565
Ni2 Ni5 2.800100 1_556
Ni3 Ni6 2.380049 1_555
Ni3 Ni7 2.406139 1_654
Ni3 Ni5 2.430827 1_655
Ni3 Ni7 2.443686 1_555
Ni4 Ni6 2.380049 1_555
Ni4 Ni8 2.406138 1_465
Ni4 Ni5 2.430304 1_555
Ni4 Ni8 2.443685 1_555
Ni5 Ni8 2.430296 1_555
Ni5 Ni7 2.430828 1_554
Ni6 Ni8 2.380051 1_555
Ni6 Ni7 2.380051 1_555
