# generated using pymatgen
data_Sr2YbRuO6
_symmetry_space_group_name_H-M   'P 1'
_cell_length_a   5.86198800
_cell_length_b   5.77899700
_cell_length_c   9.99880123
_cell_angle_alpha   55.08775720
_cell_angle_beta   90.00000000
_cell_angle_gamma   90.00000000
_symmetry_Int_Tables_number   1
_chemical_formula_structural   Sr2YbRuO6
_chemical_formula_sum   'Sr4 Yb2 Ru2 O12'
_cell_volume   277.76329765
_cell_formula_units_Z   2
loop_
 _symmetry_equiv_pos_site_id
 _symmetry_equiv_pos_as_xyz
  1  'x, y, z'
loop_
 _atom_site_type_symbol
 _atom_site_label
 _atom_site_symmetry_multiplicity
 _atom_site_fract_x
 _atom_site_fract_y
 _atom_site_fract_z
 _atom_site_occupancy
  Sr  Sr0  1  0.54211400  0.75885900  0.75015800  1
  Sr  Sr1  1  0.04211400  0.24114100  0.74984200  1
  Sr  Sr2  1  0.95788600  0.75885900  0.25015800  1
  Sr  Sr3  1  0.45788600  0.24114100  0.24984200  1
  Yb  Yb0  1  0.00000000  0.50000000  0.00000000  1
  Yb  Yb1  1  0.50000000  0.50000000  0.50000000  1
  Ru  Ru0  1  0.50000000  0.00000000  0.00000000  1
  Ru  Ru1  1  0.00000000  0.00000000  0.50000000  1
  O  O0  1  0.73041600  0.85323600  0.45727800  1
  O  O1  1  0.02043700  0.30628500  0.26999300  1
  O  O2  1  0.52043700  0.69371500  0.23000700  1
  O  O3  1  0.97956300  0.69371500  0.73000700  1
  O  O4  1  0.26958400  0.14676400  0.54272200  1
  O  O5  1  0.19370400  0.77131600  0.46021000  1
  O  O6  1  0.69370400  0.22868400  0.03979000  1
  O  O7  1  0.76958400  0.85323600  0.95727800  1
  O  O8  1  0.47956300  0.30628500  0.76999300  1
  O  O9  1  0.23041600  0.14676400  0.04272200  1
  O  O10  1  0.30629600  0.77131600  0.96021000  1
  O  O11  1  0.80629600  0.22868400  0.53979000  1
loop_
_geom_bond_atom_site_label_1
_geom_bond_atom_site_label_2
_geom_bond_distance
_geom_bond_site_symmetry_2
O0 Ru1 1.952915 1_665
O0 Yb1 2.275046 1_555
O0 Sr3 2.560728 1_565
O0 Sr2 2.767167 1_555
O0 Sr0 2.874630 1_555
O1 Ru1 1.943425 1_555
O1 Yb0 2.257471 1_555
O1 Sr2 2.533869 1_455
O1 Sr3 2.616274 1_555
O2 Ru0 1.943425 1_565
O2 Yb1 2.257471 1_555
O2 Sr3 2.533869 1_555
O2 Sr2 2.616274 1_555
O3 Ru1 1.943425 1_665
O3 Yb0 2.257471 1_656
O3 Sr1 2.533869 1_655
O3 Sr0 2.616274 1_555
O4 Ru1 1.952915 1_555
O4 Yb1 2.275046 1_555
O4 Sr0 2.560728 1_545
O4 Sr1 2.767167 1_555
O4 Sr3 2.874630 1_555
O5 Ru1 1.948331 1_565
O5 Yb1 2.264178 1_555
O5 Sr2 2.549569 1_455
O5 Sr3 2.767204 1_565
O5 Sr1 2.899543 1_555
O6 Ru0 1.948331 1_555
O6 Yb0 2.264178 1_655
O6 Sr3 2.549569 1_555
O6 Sr2 2.767204 1_545
O6 Sr0 2.899543 1_554
O7 Ru0 1.952915 1_566
O7 Yb0 2.275046 1_656
O7 Sr1 2.560728 1_665
O7 Sr0 2.767167 1_555
O7 Sr2 2.874630 1_556
O8 Ru0 1.943425 1_556
O8 Yb1 2.257471 1_555
O8 Sr0 2.533869 1_555
O8 Sr1 2.616274 1_555
O9 Ru0 1.952915 1_555
O9 Yb0 2.275046 1_555
O9 Sr2 2.560728 1_445
O9 Sr3 2.767167 1_555
O9 Sr1 2.874630 1_554
O10 Ru0 1.948331 1_566
O10 Yb0 2.264178 1_556
O10 Sr0 2.549569 1_555
O10 Sr1 2.767204 1_565
O10 Sr3 2.899543 1_556
O11 Ru1 1.948331 1_655
O11 Yb1 2.264178 1_555
O11 Sr1 2.549569 1_655
O11 Sr0 2.767204 1_545
O11 Sr2 2.899543 1_555
