# generated using pymatgen
data_TlHg3Sb2Br3
_symmetry_space_group_name_H-M   'P 1'
_cell_length_a   6.76356300
_cell_length_b   13.48534500
_cell_length_c   13.51803000
_cell_angle_alpha   90.00000000
_cell_angle_beta   90.00000000
_cell_angle_gamma   90.00000000
_symmetry_Int_Tables_number   1
_chemical_formula_structural   TlHg3Sb2Br3
_chemical_formula_sum   'Tl4 Hg12 Sb8 Br12'
_cell_volume   1232.96573446
_cell_formula_units_Z   4
loop_
 _symmetry_equiv_pos_site_id
 _symmetry_equiv_pos_as_xyz
  1  'x, y, z'
loop_
 _atom_site_type_symbol
 _atom_site_label
 _atom_site_symmetry_multiplicity
 _atom_site_fract_x
 _atom_site_fract_y
 _atom_site_fract_z
 _atom_site_occupancy
  Tl  Tl0  1  0.99812200  0.75000000  0.75752800  1
  Tl  Tl1  1  0.00187800  0.75000000  0.25752800  1
  Tl  Tl2  1  0.99812200  0.25000000  0.74247200  1
  Tl  Tl3  1  0.00187800  0.25000000  0.24247200  1
  Hg  Hg0  1  0.46705600  0.00000000  0.75000000  1
  Hg  Hg1  1  0.53568200  0.75000000  0.01324300  1
  Hg  Hg2  1  0.46705600  0.50000000  0.75000000  1
  Hg  Hg3  1  0.53294400  0.00000000  0.25000000  1
  Hg  Hg4  1  0.46431800  0.25000000  0.98675700  1
  Hg  Hg5  1  0.00000000  0.50000000  0.00000000  1
  Hg  Hg6  1  0.00000000  0.50000000  0.50000000  1
  Hg  Hg7  1  0.53568200  0.25000000  0.48675700  1
  Hg  Hg8  1  0.46431800  0.75000000  0.51324300  1
  Hg  Hg9  1  0.53294400  0.50000000  0.25000000  1
  Hg  Hg10  1  0.00000000  0.00000000  0.00000000  1
  Hg  Hg11  1  0.00000000  0.00000000  0.50000000  1
  Sb  Sb0  1  0.37170600  0.94365400  0.55986500  1
  Sb  Sb1  1  0.62829400  0.94365400  0.05986500  1
  Sb  Sb2  1  0.37170600  0.55634600  0.55986500  1
  Sb  Sb3  1  0.62829400  0.55634600  0.05986500  1
  Sb  Sb4  1  0.37170600  0.44365400  0.94013500  1
  Sb  Sb5  1  0.37170600  0.05634600  0.94013500  1
  Sb  Sb6  1  0.62829400  0.44365400  0.44013500  1
  Sb  Sb7  1  0.62829400  0.05634600  0.44013500  1
  Br  Br0  1  0.53289800  0.75000000  0.79748300  1
  Br  Br1  1  0.53289800  0.25000000  0.70251700  1
  Br  Br2  1  0.89687400  0.25000000  0.99059800  1
  Br  Br3  1  0.89879300  0.00000000  0.75000000  1
  Br  Br4  1  0.46710200  0.75000000  0.29748300  1
  Br  Br5  1  0.89879300  0.50000000  0.75000000  1
  Br  Br6  1  0.10312600  0.75000000  0.00940200  1
  Br  Br7  1  0.10120700  0.50000000  0.25000000  1
  Br  Br8  1  0.89687400  0.75000000  0.50940200  1
  Br  Br9  1  0.10120700  0.00000000  0.25000000  1
  Br  Br10  1  0.10312600  0.25000000  0.49059800  1
  Br  Br11  1  0.46710200  0.25000000  0.20251700  1
loop_
_geom_bond_atom_site_label_1
_geom_bond_atom_site_label_2
_geom_bond_distance
_geom_bond_site_symmetry_2
Hg0 Sb5 2.756711 1_555
Hg0 Sb0 2.756711 1_545
Hg1 Sb3 2.758522 1_555
Hg1 Sb1 2.758522 1_555
Hg2 Sb4 2.756711 1_555
Hg2 Sb2 2.756711 1_555
Hg3 Sb7 2.756711 1_555
Hg3 Sb1 2.756711 1_545
Hg4 Sb4 2.758522 1_555
Hg4 Sb5 2.758522 1_555
Hg5 Sb3 2.748226 1_455
Hg5 Sb4 2.748226 1_554
Hg6 Sb2 2.748226 1_555
Hg6 Sb6 2.748226 1_455
Hg7 Sb7 2.758522 1_555
Hg7 Sb6 2.758522 1_555
Hg8 Sb2 2.758522 1_555
Hg8 Sb0 2.758522 1_555
Hg9 Sb6 2.756711 1_555
Hg9 Sb3 2.756711 1_555
Hg10 Sb1 2.748226 1_445
Hg10 Sb5 2.748226 1_554
Hg11 Sb0 2.748226 1_545
Hg11 Sb7 2.748226 1_455
Sb0 Sb7 2.817948 1_565
Sb1 Sb5 2.817948 1_564
Sb2 Sb6 2.817948 1_555
Sb3 Sb4 2.817948 1_554
Br0 Hg1 2.916711 1_556
Br0 Tl0 3.192591 1_555
Br1 Hg7 2.916711 1_555
Br1 Tl2 3.192591 1_555
Br2 Hg4 2.926080 1_555
Br3 Hg0 2.920080 1_555
Br4 Hg8 2.916711 1_555
Br4 Tl1 3.192591 1_555
Br5 Hg2 2.920080 1_555
Br6 Hg1 2.926080 1_555
Br7 Hg9 2.920080 1_555
Br8 Hg8 2.926080 1_555
Br9 Hg3 2.920080 1_555
Br10 Hg7 2.926080 1_555
Br11 Hg4 2.916711 1_554
Br11 Tl3 3.192591 1_555
