# generated using pymatgen
data_Nd3Ti4O12
_symmetry_space_group_name_H-M   'P 1'
_cell_length_a   5.46711500
_cell_length_b   7.64820000
_cell_length_c   22.40176200
_cell_angle_alpha   90.00000000
_cell_angle_beta   90.00000000
_cell_angle_gamma   90.00000000
_symmetry_Int_Tables_number   1
_chemical_formula_structural   Nd3Ti4O12
_chemical_formula_sum   'Nd12 Ti16 O48'
_cell_volume   936.69806787
_cell_formula_units_Z   4
loop_
 _symmetry_equiv_pos_site_id
 _symmetry_equiv_pos_as_xyz
  1  'x, y, z'
loop_
 _atom_site_type_symbol
 _atom_site_label
 _atom_site_symmetry_multiplicity
 _atom_site_fract_x
 _atom_site_fract_y
 _atom_site_fract_z
 _atom_site_occupancy
  Nd  Nd0  1  0.55779500  0.25000000  0.70304600  1
  Nd  Nd1  1  0.05779500  0.75000000  0.79695400  1
  Nd  Nd2  1  0.42588300  0.25000000  0.32412500  1
  Nd  Nd3  1  0.45419200  0.75000000  0.02756300  1
  Nd  Nd4  1  0.04580800  0.75000000  0.52756300  1
  Nd  Nd5  1  0.54580800  0.25000000  0.97243700  1
  Nd  Nd6  1  0.44220500  0.75000000  0.29695400  1
  Nd  Nd7  1  0.07411700  0.25000000  0.82412500  1
  Nd  Nd8  1  0.92588300  0.75000000  0.17587500  1
  Nd  Nd9  1  0.95419200  0.25000000  0.47243700  1
  Nd  Nd10  1  0.94220500  0.25000000  0.20304600  1
  Nd  Nd11  1  0.57411700  0.75000000  0.67587500  1
  Ti  Ti0  1  0.44132200  0.49882900  0.17679900  1
  Ti  Ti1  1  0.55867800  0.50117100  0.82320100  1
  Ti  Ti2  1  0.45242800  0.51158400  0.43900800  1
  Ti  Ti3  1  0.54757200  0.01158400  0.56099200  1
  Ti  Ti4  1  0.04757200  0.98841600  0.93900800  1
  Ti  Ti5  1  0.94132200  0.99882900  0.32320100  1
  Ti  Ti6  1  0.04757200  0.51158400  0.93900800  1
  Ti  Ti7  1  0.95242800  0.48841600  0.06099200  1
  Ti  Ti8  1  0.05867800  0.49882900  0.67679900  1
  Ti  Ti9  1  0.05867800  0.00117100  0.67679900  1
  Ti  Ti10  1  0.54757200  0.48841600  0.56099200  1
  Ti  Ti11  1  0.94132200  0.50117100  0.32320100  1
  Ti  Ti12  1  0.45242800  0.98841600  0.43900800  1
  Ti  Ti13  1  0.55867800  0.99882900  0.82320100  1
  Ti  Ti14  1  0.44132200  0.00117100  0.17679900  1
  Ti  Ti15  1  0.95242800  0.01158400  0.06099200  1
  O  O0  1  0.36415400  0.43851700  0.88666100  1
  O  O1  1  0.29578600  0.04041600  0.76325500  1
  O  O2  1  0.36415400  0.06148300  0.88666100  1
  O  O3  1  0.79578600  0.54041600  0.73674500  1
  O  O4  1  0.16064200  0.75000000  0.93820200  1
  O  O5  1  0.20421400  0.45958400  0.26325500  1
  O  O6  1  0.24771300  0.03838700  0.01243500  1
  O  O7  1  0.12123500  0.46758900  0.14177400  1
  O  O8  1  0.83935800  0.25000000  0.06179800  1
  O  O9  1  0.99670500  0.25000000  0.68524800  1
  O  O10  1  0.13584600  0.06148300  0.38666100  1
  O  O11  1  0.70421400  0.54041600  0.23674500  1
  O  O12  1  0.65087900  0.25000000  0.80686800  1
  O  O13  1  0.25228700  0.46161300  0.51243500  1
  O  O14  1  0.74771300  0.96161300  0.48756500  1
  O  O15  1  0.75228700  0.96161300  0.98756500  1
  O  O16  1  0.12123500  0.03241100  0.14177400  1
  O  O17  1  0.75228700  0.53838700  0.98756500  1
  O  O18  1  0.86415400  0.56148300  0.61333900  1
  O  O19  1  0.87876500  0.96758900  0.85822600  1
  O  O20  1  0.86415400  0.93851700  0.61333900  1
  O  O21  1  0.62123500  0.53241100  0.35822600  1
  O  O22  1  0.49670500  0.75000000  0.81475200  1
  O  O23  1  0.63584600  0.93851700  0.11333900  1
  O  O24  1  0.66064200  0.25000000  0.56179800  1
  O  O25  1  0.25228700  0.03838700  0.51243500  1
  O  O26  1  0.79578600  0.95958400  0.73674500  1
  O  O27  1  0.37876500  0.03241100  0.64177400  1
  O  O28  1  0.46728500  0.75000000  0.56979600  1
  O  O29  1  0.34912100  0.75000000  0.19313200  1
  O  O30  1  0.63584600  0.56148300  0.11333900  1
  O  O31  1  0.00329500  0.75000000  0.31475200  1
  O  O32  1  0.29578600  0.45958400  0.76325500  1
  O  O33  1  0.03271500  0.75000000  0.06979600  1
  O  O34  1  0.15087900  0.75000000  0.69313200  1
  O  O35  1  0.53271500  0.25000000  0.43020400  1
  O  O36  1  0.74771300  0.53838700  0.48756500  1
  O  O37  1  0.96728500  0.25000000  0.93020400  1
  O  O38  1  0.24771300  0.46161300  0.01243500  1
  O  O39  1  0.20421400  0.04041600  0.26325500  1
  O  O40  1  0.37876500  0.46758900  0.64177400  1
  O  O41  1  0.13584600  0.43851700  0.38666100  1
  O  O42  1  0.84912100  0.25000000  0.30686800  1
  O  O43  1  0.87876500  0.53241100  0.85822600  1
  O  O44  1  0.50329500  0.25000000  0.18524800  1
  O  O45  1  0.70421400  0.95958400  0.23674500  1
  O  O46  1  0.33935800  0.75000000  0.43820200  1
  O  O47  1  0.62123500  0.96758900  0.35822600  1
loop_
_geom_bond_atom_site_label_1
_geom_bond_atom_site_label_2
_geom_bond_distance
_geom_bond_site_symmetry_2
Nd0 O40 2.368856 1_555
Nd0 O27 2.368856 1_555
Nd0 O12 2.380820 1_555
Nd0 O9 2.432470 1_555
Nd0 O1 2.537816 1_555
Nd0 O32 2.537816 1_555
Nd0 O3 2.682606 1_555
Nd0 O26 2.682606 1_545
Nd1 O19 2.368856 1_455
Nd1 O43 2.368856 1_455
Nd1 O34 2.380820 1_555
Nd1 O22 2.432470 1_555
Nd1 O3 2.537816 1_455
Nd1 O26 2.537816 1_455
Nd1 O32 2.682606 1_555
Nd1 O1 2.682606 1_565
Nd2 O42 2.345963 1_555
Nd2 O39 2.428474 1_555
Nd2 O5 2.428474 1_555
Nd2 O35 2.447080 1_555
Nd2 O21 2.527756 1_555
Nd2 O47 2.527756 1_545
Nd2 O41 2.560417 1_555
Nd2 O10 2.560417 1_555
Nd3 O15 2.465412 1_554
Nd3 O17 2.465412 1_554
Nd3 O33 2.490928 1_555
Nd3 O6 2.500798 1_565
Nd3 O38 2.500798 1_555
Nd3 O4 2.565734 1_554
Nd3 O23 2.599503 1_555
Nd3 O30 2.599503 1_555
Nd4 O14 2.465412 1_455
Nd4 O36 2.465412 1_455
Nd4 O28 2.490928 1_555
Nd4 O25 2.500798 1_565
Nd4 O13 2.500798 1_555
Nd4 O46 2.565734 1_555
Nd4 O20 2.599503 1_455
Nd4 O18 2.599503 1_455
Nd5 O38 2.465412 1_556
Nd5 O6 2.465412 1_556
Nd5 O37 2.490928 1_555
Nd5 O17 2.500798 1_555
Nd5 O15 2.500798 1_545
Nd5 O8 2.565734 1_556
Nd5 O0 2.599503 1_555
Nd5 O2 2.599503 1_555
Nd6 O47 2.368856 1_555
Nd6 O21 2.368856 1_555
Nd6 O29 2.380820 1_555
Nd6 O31 2.432470 1_555
Nd6 O45 2.537816 1_555
Nd6 O11 2.537816 1_555
Nd6 O5 2.682606 1_555
Nd6 O39 2.682606 1_565
Nd7 O12 2.345963 1_455
Nd7 O1 2.428474 1_555
Nd7 O32 2.428474 1_555
Nd7 O37 2.447080 1_455
Nd7 O43 2.527756 1_455
Nd7 O19 2.527756 1_445
Nd7 O0 2.560417 1_555
Nd7 O2 2.560417 1_555
Nd8 O29 2.345963 1_655
Nd8 O45 2.428474 1_555
Nd8 O11 2.428474 1_555
Nd8 O33 2.447080 1_655
Nd8 O16 2.527756 1_665
Nd8 O7 2.527756 1_655
Nd8 O23 2.560417 1_555
Nd8 O30 2.560417 1_555
Nd9 O25 2.465412 1_655
Nd9 O13 2.465412 1_655
Nd9 O35 2.490928 1_555
Nd9 O36 2.500798 1_555
Nd9 O14 2.500798 1_545
Nd9 O24 2.565734 1_555
Nd9 O41 2.599503 1_655
Nd9 O10 2.599503 1_655
Nd10 O7 2.368856 1_655
Nd10 O16 2.368856 1_655
Nd10 O42 2.380820 1_555
Nd10 O44 2.432470 1_555
Nd10 O39 2.537816 1_655
Nd10 O5 2.537816 1_655
Nd10 O45 2.682606 1_545
Nd10 O11 2.682606 1_555
Nd11 O34 2.345963 1_555
Nd11 O3 2.428474 1_555
Nd11 O26 2.428474 1_555
Nd11 O28 2.447080 1_555
Nd11 O27 2.527756 1_565
Nd11 O40 2.527756 1_555
Nd11 O20 2.560417 1_555
Nd11 O18 2.560417 1_555
O0 Ti1 1.838917 1_555
O0 Ti6 2.164040 1_555
O1 Ti13 1.992550 1_545
O1 Ti9 2.349796 1_555
O2 Ti13 1.838917 1_545
O2 Ti4 2.164040 1_545
O3 Ti8 1.992550 1_655
O3 Ti1 2.349796 1_555
O4 Ti4 1.925471 1_555
O4 Ti6 1.925471 1_555
O5 Ti11 1.992550 1_455
O5 Ti0 2.349796 1_555
O6 Ti15 1.957396 1_455
O6 Ti4 2.012214 1_544
O7 Ti0 1.932628 1_555
O7 Ti7 2.037636 1_455
O8 Ti7 1.925471 1_555
O8 Ti15 1.925471 1_555
O9 Ti8 1.942263 1_655
O9 Ti9 1.942263 1_655
O10 Ti5 1.838917 1_445
O10 Ti12 2.164040 1_545
O11 Ti0 1.992550 1_555
O11 Ti11 2.349796 1_555
O12 Ti1 2.019462 1_555
O12 Ti13 2.019462 1_545
O13 Ti10 1.957396 1_555
O13 Ti2 2.012214 1_555
O14 Ti12 1.957396 1_555
O14 Ti3 2.012214 1_565
O15 Ti4 1.957396 1_655
O15 Ti15 2.012214 1_566
O16 Ti14 1.932628 1_555
O16 Ti15 2.037636 1_455
O17 Ti6 1.957396 1_655
O17 Ti7 2.012214 1_556
O18 Ti8 1.838917 1_655
O18 Ti10 2.164040 1_555
O19 Ti13 1.932628 1_555
O19 Ti4 2.037636 1_655
O20 Ti9 1.838917 1_665
O20 Ti3 2.164040 1_565
O21 Ti11 1.932628 1_555
O21 Ti2 2.037636 1_555
O22 Ti13 1.942263 1_555
O22 Ti1 1.942263 1_555
O23 Ti14 1.838917 1_565
O23 Ti15 2.164040 1_565
O24 Ti10 1.925471 1_555
O24 Ti3 1.925471 1_555
O25 Ti3 1.957396 1_555
O25 Ti12 2.012214 1_545
O26 Ti9 1.992550 1_665
O26 Ti13 2.349796 1_555
O27 Ti9 1.932628 1_555
O27 Ti3 2.037636 1_555
O28 Ti3 2.057706 1_565
O28 Ti10 2.057706 1_555
O29 Ti14 2.019462 1_565
O29 Ti0 2.019462 1_555
O30 Ti0 1.838917 1_555
O30 Ti7 2.164040 1_555
O31 Ti5 1.942263 1_455
O31 Ti11 1.942263 1_455
O32 Ti1 1.992550 1_555
O32 Ti8 2.349796 1_555
O33 Ti15 2.057706 1_465
O33 Ti7 2.057706 1_455
O34 Ti9 2.019462 1_565
O34 Ti8 2.019462 1_555
O35 Ti2 2.057706 1_555
O35 Ti12 2.057706 1_545
O36 Ti2 1.957396 1_555
O36 Ti10 2.012214 1_555
O37 Ti6 2.057706 1_655
O37 Ti4 2.057706 1_645
O38 Ti7 1.957396 1_455
O38 Ti6 2.012214 1_554
O39 Ti5 1.992550 1_445
O39 Ti14 2.349796 1_555
O40 Ti8 1.932628 1_555
O40 Ti10 2.037636 1_555
O41 Ti11 1.838917 1_455
O41 Ti2 2.164040 1_555
O42 Ti11 2.019462 1_555
O42 Ti5 2.019462 1_545
O43 Ti1 1.932628 1_555
O43 Ti6 2.037636 1_655
O44 Ti0 1.942263 1_555
O44 Ti14 1.942263 1_555
O45 Ti14 1.992550 1_565
O45 Ti5 2.349796 1_555
O46 Ti12 1.925471 1_555
O46 Ti2 1.925471 1_555
O47 Ti5 1.932628 1_555
O47 Ti12 2.037636 1_555
