# generated using pymatgen
data_Nd3NbO7
_symmetry_space_group_name_H-M   'P 1'
_cell_length_a   7.63382254
_cell_length_b   7.68303046
_cell_length_c   10.95639061
_cell_angle_alpha   90.00000000
_cell_angle_beta   90.00000000
_cell_angle_gamma   90.00000000
_symmetry_Int_Tables_number   1
_chemical_formula_structural   Nd3NbO7
_chemical_formula_sum   'Nd12 Nb4 O28'
_cell_volume   642.60207253
_cell_formula_units_Z   4
loop_
 _symmetry_equiv_pos_site_id
 _symmetry_equiv_pos_as_xyz
  1  'x, y, z'
loop_
 _atom_site_type_symbol
 _atom_site_label
 _atom_site_symmetry_multiplicity
 _atom_site_fract_x
 _atom_site_fract_y
 _atom_site_fract_z
 _atom_site_occupancy
  Nd  Nd0  1  0.48716347  0.29140275  0.25000000  1
  Nd  Nd1  1  0.74935171  0.54491018  0.47574788  1
  Nd  Nd2  1  0.25064829  0.45508982  0.52425212  1
  Nd  Nd3  1  0.98716347  0.20859725  0.25000000  1
  Nd  Nd4  1  0.75064829  0.04491018  0.97574788  1
  Nd  Nd5  1  0.75064829  0.04491018  0.52425212  1
  Nd  Nd6  1  0.51283653  0.70859725  0.75000000  1
  Nd  Nd7  1  0.25064829  0.45508982  0.97574788  1
  Nd  Nd8  1  0.01283653  0.79140275  0.75000000  1
  Nd  Nd9  1  0.24935171  0.95508982  0.02425212  1
  Nd  Nd10  1  0.74935171  0.54491018  0.02425212  1
  Nd  Nd11  1  0.24935171  0.95508982  0.47574788  1
  Nb  Nb0  1  0.49552987  0.75220146  0.25000000  1
  Nb  Nb1  1  0.99552987  0.74779854  0.25000000  1
  Nb  Nb2  1  0.00447013  0.25220146  0.75000000  1
  Nb  Nb3  1  0.50447013  0.24779854  0.75000000  1
  O  O0  1  0.03721402  0.04981514  0.62700194  1
  O  O1  1  0.96278598  0.95018486  0.12700194  1
  O  O2  1  0.75275394  0.66724234  0.25000000  1
  O  O3  1  0.53721402  0.45018486  0.62700194  1
  O  O4  1  0.96278598  0.95018486  0.37299806  1
  O  O5  1  0.25687769  0.72809268  0.61752401  1
  O  O6  1  0.25275394  0.83275766  0.25000000  1
  O  O7  1  0.46278598  0.54981514  0.37299806  1
  O  O8  1  0.24312231  0.22809268  0.38247599  1
  O  O9  1  0.45605483  0.09322703  0.61345289  1
  O  O10  1  0.74312231  0.27190732  0.11752401  1
  O  O11  1  0.45605483  0.09322703  0.88654711  1
  O  O12  1  0.74312231  0.27190732  0.38247599  1
  O  O13  1  0.95605483  0.40677297  0.88654711  1
  O  O14  1  0.24724606  0.33275766  0.75000000  1
  O  O15  1  0.54394517  0.90677297  0.38654711  1
  O  O16  1  0.04394517  0.59322703  0.11345289  1
  O  O17  1  0.95605483  0.40677297  0.61345289  1
  O  O18  1  0.24312231  0.22809268  0.11752401  1
  O  O19  1  0.54394517  0.90677297  0.11345289  1
  O  O20  1  0.74724606  0.16724234  0.75000000  1
  O  O21  1  0.46278598  0.54981514  0.12700194  1
  O  O22  1  0.75687769  0.77190732  0.88247599  1
  O  O23  1  0.25687769  0.72809268  0.88247599  1
  O  O24  1  0.53721402  0.45018486  0.87299806  1
  O  O25  1  0.04394517  0.59322703  0.38654711  1
  O  O26  1  0.75687769  0.77190732  0.61752401  1
  O  O27  1  0.03721402  0.04981514  0.87299806  1
loop_
_geom_bond_atom_site_label_1
_geom_bond_atom_site_label_2
_geom_bond_distance
_geom_bond_site_symmetry_2
Nd0 O21 2.406755 1_555
Nd0 O7 2.406755 1_555
Nd0 O18 2.411219 1_555
Nd0 O8 2.411219 1_555
Nd0 O12 2.438661 1_555
Nd0 O10 2.438661 1_555
Nd1 O12 2.333677 1_555
Nd1 O26 2.336202 1_555
Nd1 O17 2.427466 1_555
Nd1 O3 2.428681 1_555
Nd1 O7 2.460555 1_555
Nd1 O25 2.479998 1_655
Nd1 O2 2.646067 1_555
Nd2 O5 2.333677 1_555
Nd2 O8 2.336202 1_555
Nd2 O25 2.427466 1_555
Nd2 O7 2.428681 1_555
Nd2 O3 2.460555 1_555
Nd2 O17 2.479998 1_455
Nd2 O14 2.646067 1_555
Nd3 O4 2.406755 1_545
Nd3 O1 2.406755 1_545
Nd3 O12 2.411219 1_555
Nd3 O10 2.411219 1_555
Nd3 O18 2.438661 1_655
Nd3 O8 2.438661 1_655
Nd4 O22 2.333677 1_545
Nd4 O10 2.336202 1_556
Nd4 O19 2.427466 1_546
Nd4 O1 2.428681 1_546
Nd4 O27 2.460555 1_655
Nd4 O11 2.479998 1_555
Nd4 O20 2.646067 1_555
Nd5 O26 2.333677 1_545
Nd5 O12 2.336202 1_555
Nd5 O15 2.427466 1_545
Nd5 O4 2.428681 1_545
Nd5 O0 2.460555 1_655
Nd5 O9 2.479998 1_555
Nd5 O20 2.646067 1_555
Nd6 O24 2.406755 1_555
Nd6 O3 2.406755 1_555
Nd6 O26 2.411219 1_555
Nd6 O22 2.411219 1_555
Nd6 O23 2.438661 1_555
Nd6 O5 2.438661 1_555
Nd7 O23 2.333677 1_555
Nd7 O18 2.336202 1_556
Nd7 O16 2.427466 1_556
Nd7 O21 2.428681 1_556
Nd7 O24 2.460555 1_555
Nd7 O13 2.479998 1_455
Nd7 O14 2.646067 1_555
Nd8 O0 2.406755 1_565
Nd8 O27 2.406755 1_565
Nd8 O5 2.411219 1_555
Nd8 O23 2.411219 1_555
Nd8 O26 2.438661 1_455
Nd8 O22 2.438661 1_455
Nd9 O18 2.333677 1_565
Nd9 O23 2.336202 1_554
Nd9 O11 2.427466 1_564
Nd9 O27 2.428681 1_564
Nd9 O1 2.460555 1_455
Nd9 O19 2.479998 1_555
Nd9 O6 2.646067 1_555
Nd10 O10 2.333677 1_555
Nd10 O22 2.336202 1_554
Nd10 O13 2.427466 1_554
Nd10 O24 2.428681 1_554
Nd10 O21 2.460555 1_555
Nd10 O16 2.479998 1_655
Nd10 O2 2.646067 1_555
Nd11 O8 2.333677 1_565
Nd11 O5 2.336202 1_555
Nd11 O9 2.427466 1_565
Nd11 O0 2.428681 1_565
Nd11 O4 2.460555 1_455
Nd11 O15 2.479998 1_555
Nd11 O6 2.646067 1_555
Nb0 O19 1.945545 1_555
Nb0 O15 1.945545 1_555
Nb0 O6 1.953921 1_555
Nb0 O2 2.069254 1_555
Nb0 O7 2.072772 1_555
Nb0 O21 2.072772 1_555
Nb1 O16 1.945545 1_655
Nb1 O25 1.945545 1_655
Nb1 O2 1.953921 1_555
Nb1 O6 2.069254 1_655
Nb1 O4 2.072772 1_555
Nb1 O1 2.072772 1_555
Nb2 O17 1.945545 1_455
Nb2 O13 1.945545 1_455
Nb2 O14 1.953921 1_555
Nb2 O20 2.069254 1_455
Nb2 O0 2.072772 1_555
Nb2 O27 2.072772 1_555
Nb3 O9 1.945545 1_555
Nb3 O11 1.945545 1_555
Nb3 O20 1.953921 1_555
Nb3 O14 2.069254 1_555
Nb3 O24 2.072772 1_555
Nb3 O3 2.072772 1_555
