# generated using pymatgen
data_LiCa2Ge3
_symmetry_space_group_name_H-M   'P 1'
_cell_length_a   4.41095098
_cell_length_b   10.71034719
_cell_length_c   11.35727260
_cell_angle_alpha   90.00000000
_cell_angle_beta   90.00000000
_cell_angle_gamma   90.00000000
_symmetry_Int_Tables_number   1
_chemical_formula_structural   LiCa2Ge3
_chemical_formula_sum   'Li4 Ca8 Ge12'
_cell_volume   536.54954463
_cell_formula_units_Z   4
loop_
 _symmetry_equiv_pos_site_id
 _symmetry_equiv_pos_as_xyz
  1  'x, y, z'
loop_
 _atom_site_type_symbol
 _atom_site_label
 _atom_site_symmetry_multiplicity
 _atom_site_fract_x
 _atom_site_fract_y
 _atom_site_fract_z
 _atom_site_occupancy
  Li  Li0  1  0.50000000  0.13786262  0.71783311  1
  Li  Li1  1  0.50000000  0.86213738  0.28216689  1
  Li  Li2  1  -0.00000000  0.36213738  0.21783311  1
  Li  Li3  1  -0.00000000  0.63786262  0.78216689  1
  Ca  Ca0  1  0.00000000  0.05256619  0.14770604  1
  Ca  Ca1  1  0.50000000  0.17829292  0.42809288  1
  Ca  Ca2  1  0.00000000  0.94743381  0.85229396  1
  Ca  Ca3  1  -0.00000000  0.67829292  0.07190712  1
  Ca  Ca4  1  0.50000000  0.82170708  0.57190712  1
  Ca  Ca5  1  0.50000000  0.55256619  0.35229396  1
  Ca  Ca6  1  -0.00000000  0.32170708  0.92809288  1
  Ca  Ca7  1  0.50000000  0.44743381  0.64770604  1
  Ge  Ge0  1  0.00000000  0.25632276  0.64124909  1
  Ge  Ge1  1  0.50000000  0.47126660  0.10421750  1
  Ge  Ge2  1  0.50000000  0.24367724  0.14124909  1
  Ge  Ge3  1  0.50000000  0.52873340  0.89578250  1
  Ge  Ge4  1  0.50000000  0.11077986  0.95552080  1
  Ge  Ge5  1  0.50000000  0.75632276  0.85875091  1
  Ge  Ge6  1  0.00000000  0.02873340  0.60421750  1
  Ge  Ge7  1  0.00000000  0.61077986  0.54447920  1
  Ge  Ge8  1  0.00000000  0.74367724  0.35875091  1
  Ge  Ge9  1  -0.00000000  0.38922014  0.45552080  1
  Ge  Ge10  1  0.50000000  0.88922014  0.04447920  1
  Ge  Ge11  1  -0.00000000  0.97126660  0.39578250  1
loop_
_geom_bond_atom_site_label_1
_geom_bond_atom_site_label_2
_geom_bond_distance
_geom_bond_site_symmetry_2
Ca0 Ge11 2.948957 1_545
Ca0 Ge2 3.009844 1_555
Ca0 Ge2 3.009844 1_455
Ca0 Ge10 3.049477 1_445
Ca0 Ge10 3.049477 1_545
Ca0 Ge4 3.164971 1_454
Ca0 Ge4 3.164971 1_554
Ca1 Ge11 3.148858 1_645
Ca1 Ge11 3.148858 1_545
Ca1 Ge9 3.172492 1_555
Ca1 Ge9 3.172492 1_655
Ca1 Ge2 3.332180 1_555
Ca1 Ge0 3.379821 1_655
Ca1 Ge0 3.379821 1_555
Ca1 Ge6 3.381002 1_555
Ca1 Ge6 3.381002 1_655
Ca2 Ge6 2.948957 1_565
Ca2 Ge5 3.009844 1_555
Ca2 Ge5 3.009844 1_455
Ca2 Ge4 3.049477 1_465
Ca2 Ge4 3.049477 1_565
Ca2 Ge10 3.164971 1_456
Ca2 Ge10 3.164971 1_556
Ca3 Ge1 3.148858 1_555
Ca3 Ge1 3.148858 1_455
Ca3 Ge10 3.172492 1_455
Ca3 Ge10 3.172492 1_555
Ca3 Ge8 3.332180 1_555
Ca3 Ge5 3.379821 1_454
Ca3 Ge5 3.379821 1_554
Ca3 Ge3 3.381002 1_454
Ca3 Ge3 3.381002 1_554
Ca4 Ge6 3.148858 1_565
Ca4 Ge6 3.148858 1_665
Ca4 Ge7 3.172492 1_555
Ca4 Ge7 3.172492 1_655
Ca4 Ge5 3.332180 1_555
Ca4 Ge8 3.379821 1_655
Ca4 Ge8 3.379821 1_555
Ca4 Ge11 3.381002 1_555
Ca4 Ge11 3.381002 1_655
Ca5 Ge1 2.948957 1_555
Ca5 Ge8 3.009844 1_655
Ca5 Ge8 3.009844 1_555
Ca5 Ge9 3.049477 1_655
Ca5 Ge9 3.049477 1_555
Ca5 Ge7 3.164971 1_555
Ca5 Ge7 3.164971 1_655
Ca6 Ge3 3.148858 1_555
Ca6 Ge3 3.148858 1_455
Ca6 Ge4 3.172492 1_455
Ca6 Ge4 3.172492 1_555
Ca6 Ge0 3.332180 1_555
Ca6 Ge2 3.379821 1_456
Ca6 Ge2 3.379821 1_556
Ca6 Ge1 3.381002 1_556
Ca6 Ge1 3.381002 1_456
Ca7 Ge3 2.948957 1_555
Ca7 Ge0 3.009844 1_655
Ca7 Ge0 3.009844 1_555
Ca7 Ge7 3.049477 1_555
Ca7 Ge7 3.049477 1_655
Ca7 Ge9 3.164971 1_555
Ca7 Ge9 3.164971 1_655
Ge0 Ge6 2.473578 1_555
Ge0 Ge9 2.544687 1_555
Ge0 Li0 2.688935 1_455
Ge0 Li0 2.688935 1_555
Ge1 Ge3 2.445959 1_554
Ge1 Ge2 2.473578 1_555
Ge1 Li2 2.809854 1_655
Ge1 Li2 2.809854 1_555
Ge2 Ge4 2.544687 1_554
Ge2 Li2 2.688935 1_555
Ge2 Li2 2.688935 1_655
Ge3 Ge5 2.473578 1_555
Ge3 Li3 2.809854 1_555
Ge3 Li3 2.809854 1_655
Ge4 Li0 2.715023 1_555
Ge5 Li3 2.688935 1_555
Ge5 Li3 2.688935 1_655
Ge6 Li0 2.809854 1_455
Ge6 Li0 2.809854 1_555
Ge7 Ge8 2.544687 1_555
Ge7 Ge9 2.579108 1_555
Ge7 Li3 2.715023 1_555
Ge8 Li1 2.688935 1_555
Ge8 Li1 2.688935 1_455
Ge9 Li2 2.715023 1_555
Ge10 Ge5 2.544687 1_554
Ge10 Ge4 2.579108 1_564
Ge10 Li1 2.715023 1_555
Ge11 Ge6 2.445959 1_565
Ge11 Ge8 2.473578 1_555
Ge11 Li1 2.809854 1_555
Ge11 Li1 2.809854 1_455
