# generated using pymatgen
data_NaNbO3
_symmetry_space_group_name_H-M   'P 1'
_cell_length_a   5.50155075
_cell_length_b   5.59235205
_cell_length_c   15.68355490
_cell_angle_alpha   90.00000000
_cell_angle_beta   90.00000000
_cell_angle_gamma   90.00000000
_symmetry_Int_Tables_number   1
_chemical_formula_structural   NaNbO3
_chemical_formula_sum   'Na8 Nb8 O24'
_cell_volume   482.52979530
_cell_formula_units_Z   8
loop_
 _symmetry_equiv_pos_site_id
 _symmetry_equiv_pos_as_xyz
  1  'x, y, z'
loop_
 _atom_site_type_symbol
 _atom_site_label
 _atom_site_symmetry_multiplicity
 _atom_site_fract_x
 _atom_site_fract_y
 _atom_site_fract_z
 _atom_site_occupancy
  Na  Na0  1  0.23963974  0.79144249  0.87629181  1
  Na  Na1  1  0.23963974  0.70855751  0.37629181  1
  Na  Na2  1  0.75446855  0.22361067  0.62850639  1
  Na  Na3  1  0.24553145  0.77638933  0.12850639  1
  Na  Na4  1  0.75446855  0.27638933  0.12850639  1
  Na  Na5  1  0.76036026  0.20855751  0.37629181  1
  Na  Na6  1  0.76036026  0.29144249  0.87629181  1
  Na  Na7  1  0.24553145  0.72361067  0.62850639  1
  Nb  Nb0  1  0.25227218  0.26943400  0.00103295  1
  Nb  Nb1  1  0.25819128  0.23772766  0.25167611  1
  Nb  Nb2  1  0.74772782  0.76943400  0.00103295  1
  Nb  Nb3  1  0.25819128  0.26227234  0.75167611  1
  Nb  Nb4  1  0.74180872  0.73772766  0.25167611  1
  Nb  Nb5  1  0.25227218  0.23056600  0.50103295  1
  Nb  Nb6  1  0.74772782  0.73056600  0.50103295  1
  Nb  Nb7  1  0.74180872  0.76227234  0.75167611  1
  O  O0  1  0.17541645  0.25221643  0.62033569  1
  O  O1  1  0.96063049  0.02807929  0.97437330  1
  O  O2  1  0.67161312  0.77896515  0.37039718  1
  O  O3  1  0.03936951  0.97192071  0.47437330  1
  O  O4  1  0.54577748  0.44716068  0.01298206  1
  O  O5  1  0.03936951  0.52807929  0.97437330  1
  O  O6  1  0.17541645  0.24778357  0.12033569  1
  O  O7  1  0.32838688  0.27896515  0.37039718  1
  O  O8  1  0.54577748  0.05283932  0.51298206  1
  O  O9  1  0.82458355  0.75221643  0.62033569  1
  O  O10  1  0.04091448  0.53030679  0.76460201  1
  O  O11  1  0.54040384  0.04630254  0.22540150  1
  O  O12  1  0.96063049  0.47192071  0.47437330  1
  O  O13  1  0.95908552  0.03030679  0.76460201  1
  O  O14  1  0.67161312  0.72103485  0.87039718  1
  O  O15  1  0.45422252  0.55283932  0.51298206  1
  O  O16  1  0.45422252  0.94716068  0.01298206  1
  O  O17  1  0.54040384  0.45369746  0.72540150  1
  O  O18  1  0.32838688  0.22103485  0.87039718  1
  O  O19  1  0.04091448  0.96969321  0.26460201  1
  O  O20  1  0.45959616  0.54630254  0.22540150  1
  O  O21  1  0.45959616  0.95369746  0.72540150  1
  O  O22  1  0.95908552  0.46969321  0.26460201  1
  O  O23  1  0.82458355  0.74778357  0.12033569  1
loop_
_geom_bond_atom_site_label_1
_geom_bond_atom_site_label_2
_geom_bond_distance
_geom_bond_site_symmetry_2
Na0 O5 2.397794 1_555
Na0 O14 2.410694 1_555
Na0 O18 2.453286 1_565
Na0 O10 2.529108 1_555
Na0 O1 2.544349 1_465
Na0 O16 2.597662 1_556
Na0 O13 2.689826 1_465
Na0 O21 2.808559 1_555
Na1 O3 2.397794 1_555
Na1 O2 2.410694 1_555
Na1 O7 2.453286 1_555
Na1 O19 2.529108 1_555
Na1 O12 2.544349 1_455
Na1 O15 2.597662 1_555
Na1 O22 2.689826 1_455
Na1 O20 2.808559 1_555
Na2 O17 2.313435 1_555
Na2 O0 2.324919 1_655
Na2 O8 2.347973 1_555
Na2 O13 2.644195 1_555
Na2 O9 2.667355 1_545
Na2 O21 2.686916 1_545
Na3 O20 2.313435 1_555
Na3 O23 2.324919 1_455
Na3 O16 2.347973 1_555
Na3 O19 2.644195 1_555
Na3 O6 2.667355 1_565
Na3 O11 2.686916 1_565
Na4 O11 2.313435 1_555
Na4 O6 2.324919 1_655
Na4 O4 2.347973 1_555
Na4 O22 2.644195 1_555
Na4 O23 2.667355 1_555
Na4 O20 2.686916 1_555
Na5 O12 2.397794 1_555
Na5 O7 2.410694 1_555
Na5 O2 2.453286 1_545
Na5 O22 2.529108 1_555
Na5 O3 2.544349 1_645
Na5 O8 2.597662 1_555
Na5 O19 2.689826 1_645
Na5 O11 2.808559 1_555
Na6 O1 2.397794 1_555
Na6 O18 2.410694 1_555
Na6 O14 2.453286 1_555
Na6 O13 2.529108 1_555
Na6 O5 2.544349 1_655
Na6 O4 2.597662 1_556
Na6 O10 2.689826 1_655
Na6 O17 2.808559 1_555
Na7 O21 2.313435 1_555
Na7 O9 2.324919 1_455
Na7 O15 2.347973 1_555
Na7 O10 2.644195 1_555
Na7 O0 2.667355 1_555
Na7 O17 2.686916 1_555
Nb0 O4 1.905346 1_555
Nb0 O5 1.907598 1_554
Nb0 O6 1.922088 1_555
Nb0 O18 2.108632 1_554
Nb0 O16 2.125486 1_545
Nb0 O1 2.137986 1_454
Nb1 O7 1.915528 1_555
Nb1 O19 1.927903 1_545
Nb1 O11 1.930389 1_555
Nb1 O20 2.091760 1_555
Nb1 O22 2.105168 1_455
Nb1 O6 2.110371 1_555
Nb2 O16 1.905346 1_555
Nb2 O1 1.907598 1_564
Nb2 O23 1.922088 1_555
Nb2 O14 2.108632 1_554
Nb2 O4 2.125486 1_555
Nb2 O5 2.137986 1_654
Nb3 O18 1.915528 1_555
Nb3 O10 1.927903 1_555
Nb3 O17 1.930389 1_555
Nb3 O21 2.091760 1_545
Nb3 O13 2.105168 1_455
Nb3 O0 2.110371 1_555
Nb4 O2 1.915528 1_555
Nb4 O22 1.927903 1_555
Nb4 O20 1.930389 1_555
Nb4 O11 2.091760 1_565
Nb4 O19 2.105168 1_655
Nb4 O23 2.110371 1_555
Nb5 O8 1.905346 1_555
Nb5 O3 1.907598 1_545
Nb5 O0 1.922088 1_555
Nb5 O7 2.108632 1_555
Nb5 O15 2.125486 1_555
Nb5 O12 2.137986 1_455
Nb6 O15 1.905346 1_555
Nb6 O12 1.907598 1_555
Nb6 O9 1.922088 1_555
Nb6 O2 2.108632 1_555
Nb6 O8 2.125486 1_565
Nb6 O3 2.137986 1_655
Nb7 O14 1.915528 1_555
Nb7 O13 1.927903 1_565
Nb7 O21 1.930389 1_555
Nb7 O17 2.091760 1_555
Nb7 O10 2.105168 1_655
Nb7 O9 2.110371 1_555
