# generated using pymatgen
data_Na5Y4Si4O16F
_symmetry_space_group_name_H-M   'P 1'
_cell_length_a   8.70725956
_cell_length_b   8.70725956
_cell_length_c   8.70725956
_cell_angle_alpha   95.63453991
_cell_angle_beta   95.63453991
_cell_angle_gamma   143.47856937
_symmetry_Int_Tables_number   1
_chemical_formula_structural   Na5Y4Si4O16F
_chemical_formula_sum   'Na5 Y4 Si4 O16 F1'
_cell_volume   373.08755125
_cell_formula_units_Z   1
loop_
 _symmetry_equiv_pos_site_id
 _symmetry_equiv_pos_as_xyz
  1  'x, y, z'
loop_
 _atom_site_type_symbol
 _atom_site_label
 _atom_site_symmetry_multiplicity
 _atom_site_fract_x
 _atom_site_fract_y
 _atom_site_fract_z
 _atom_site_occupancy
  Na  Na0  1  0.90102600  0.59536300  0.51545700  1
  Na  Na1  1  0.50000000  0.50000000  0.00000000  1
  Na  Na2  1  0.40463700  0.92009400  0.30566300  1
  Na  Na3  1  0.61443100  0.09897400  0.69433700  1
  Na  Na4  1  0.07990600  0.38556900  0.48454300  1
  Y  Y0  1  0.86044000  0.15879600  0.06663700  1
  Y  Y1  1  0.20619700  0.13956000  0.29835600  1
  Y  Y2  1  0.84120400  0.90784100  0.70164400  1
  Y  Y3  1  0.09215900  0.79380300  0.93336300  1
  Si  Si0  1  0.59263900  0.73633100  0.35067300  1
  Si  Si1  1  0.75803400  0.40736100  0.14369200  1
  Si  Si2  1  0.26366900  0.61434200  0.85630800  1
  Si  Si3  1  0.38565800  0.24196600  0.64932700  1
  O  O0  1  0.87074300  0.37413300  0.27789100  1
  O  O1  1  0.55110000  0.79109400  0.82701400  1
  O  O2  1  0.07912600  0.31462500  0.86173200  1
  O  O3  1  0.77003100  0.33061200  0.96812100  1
  O  O4  1  0.27591400  0.44890000  0.23999400  1
  O  O5  1  0.40714800  0.12925700  0.50339000  1
  O  O6  1  0.68537500  0.54710700  0.76450100  1
  O  O7  1  0.78260600  0.92087400  0.23549900  1
  O  O8  1  0.62586700  0.90375800  0.49661000  1
  O  O9  1  0.09624200  0.59285200  0.72210900  1
  O  O10  1  0.96408000  0.72408600  0.17298600  1
  O  O11  1  0.45289300  0.21739400  0.13826800  1
  O  O12  1  0.20890600  0.03592000  0.76000600  1
  O  O13  1  0.36249100  0.80191000  0.03187900  1
  O  O14  1  0.19809000  0.22996900  0.56058100  1
  O  O15  1  0.66938800  0.63750900  0.43941900  1
  F  F0  1  0.00000000  0.00000000  0.00000000  1
loop_
_geom_bond_atom_site_label_1
_geom_bond_atom_site_label_2
_geom_bond_distance
_geom_bond_site_symmetry_2
Na0 O9 2.365246 1_655
Na0 O15 2.369847 1_555
Na0 O0 2.520544 1_555
Na0 O5 2.598336 1_555
Na0 O12 2.680030 1_665
Na0 O6 2.848711 1_555
Na0 O5 2.881345 1_665
Na1 O6 2.594094 1_554
Na1 O7 2.594094 1_555
Na1 O11 2.594094 1_555
Na1 O2 2.594094 1_554
Na1 O1 2.821299 1_554
Na1 O10 2.821299 1_555
Na1 O4 2.821299 1_555
Na1 O12 2.821299 1_554
Na2 O5 2.365246 1_565
Na2 O13 2.369847 1_555
Na2 O8 2.520544 1_555
Na2 O0 2.598336 1_565
Na2 O10 2.680030 1_455
Na2 O11 2.848711 1_565
Na2 O0 2.881345 1_455
Na3 O8 2.365246 1_545
Na3 O3 2.369847 1_555
Na3 O5 2.520544 1_555
Na3 O9 2.598336 1_655
Na3 O1 2.680030 1_545
Na3 O2 2.848711 1_655
Na3 O9 2.881345 1_545
Na4 O0 2.365246 1_455
Na4 O14 2.369847 1_555
Na4 O9 2.520544 1_555
Na4 O8 2.598336 1_445
Na4 O4 2.680030 1_555
Na4 O7 2.848711 1_445
Na4 O8 2.881345 1_555
O0 Si1 1.646148 1_555
O0 Y0 2.434583 1_555
O1 Si2 1.645890 1_555
O1 Y2 2.288662 1_555
O1 Y0 2.362849 1_566
O2 Si2 1.641324 1_555
O2 Y2 2.334542 1_445
O2 Y0 2.374856 1_456
O3 Si1 1.654540 1_556
O3 Y0 2.367696 1_556
O3 Y3 2.539552 1_655
O4 Si0 1.645890 1_555
O4 Y0 2.288662 1_455
O4 Y1 2.362849 1_555
O5 Si3 1.646148 1_555
O5 Y1 2.434583 1_555
O6 Si3 1.641324 1_555
O6 Y3 2.334542 1_655
O6 Y2 2.374856 1_555
O7 Si0 1.641324 1_555
O7 Y0 2.334542 1_565
O7 Y1 2.374856 1_665
O8 Si0 1.646148 1_555
O8 Y2 2.434583 1_555
O9 Si2 1.646148 1_555
O9 Y3 2.434583 1_555
O10 Si1 1.645890 1_555
O10 Y1 2.288662 1_665
O10 Y3 2.362849 1_654
O11 Si1 1.641324 1_555
O11 Y1 2.334542 1_555
O11 Y3 2.374856 1_544
O12 Si3 1.645890 1_555
O12 Y3 2.288662 1_545
O12 Y2 2.362849 1_445
O13 Si2 1.654540 1_554
O13 Y3 2.367696 1_554
O13 Y0 2.539552 1_565
O14 Si3 1.654540 1_555
O14 Y1 2.367696 1_555
O14 Y2 2.539552 1_445
O15 Si0 1.654540 1_555
O15 Y2 2.367696 1_555
O15 Y1 2.539552 1_555
F0 Y3 2.531126 1_544
F0 Y2 2.531126 1_444
F0 Y0 2.531126 1_455
F0 Y1 2.531126 1_555
F0 Na1 2.728345 1_555
F0 Na1 2.728345 1_445
