# generated using pymatgen
data_Rb2FeI4
_symmetry_space_group_name_H-M   'P 1'
_cell_length_a   7.76362371
_cell_length_b   8.24528575
_cell_length_c   10.40299747
_cell_angle_alpha   90.00000000
_cell_angle_beta   109.57116876
_cell_angle_gamma   90.00000000
_symmetry_Int_Tables_number   1
_chemical_formula_structural   Rb2FeI4
_chemical_formula_sum   'Rb4 Fe2 I8'
_cell_volume   627.45679557
_cell_formula_units_Z   2
loop_
 _symmetry_equiv_pos_site_id
 _symmetry_equiv_pos_as_xyz
  1  'x, y, z'
loop_
 _atom_site_type_symbol
 _atom_site_label
 _atom_site_symmetry_multiplicity
 _atom_site_fract_x
 _atom_site_fract_y
 _atom_site_fract_z
 _atom_site_occupancy
  Rb  Rb0  1  0.20032970  0.73863956  0.04038069  1
  Rb  Rb1  1  0.28587492  0.73981911  0.58061436  1
  Rb  Rb2  1  0.71412508  0.23981911  0.41938564  1
  Rb  Rb3  1  0.79967030  0.23863956  0.95961931  1
  Fe  Fe0  1  0.79230343  0.74507551  0.20949884  1
  Fe  Fe1  1  0.20769657  0.24507551  0.79050116  1
  I  I0  1  0.62470828  0.74910883  0.94299631  1
  I  I1  1  0.58338555  0.75124836  0.36219325  1
  I  I2  1  0.00960146  0.49038521  0.26927916  1
  I  I3  1  0.37529172  0.24910883  0.05700369  1
  I  I4  1  0.98305445  0.49442342  0.72404154  1
  I  I5  1  0.41661445  0.25124836  0.63780675  1
  I  I6  1  0.99039854  0.99038521  0.73072084  1
  I  I7  1  0.01694555  0.99442342  0.27595846  1
loop_
_geom_bond_atom_site_label_1
_geom_bond_atom_site_label_2
_geom_bond_distance
_geom_bond_site_symmetry_2
Fe0 I1 2.623493 1_555
Fe0 I7 2.634151 1_655
Fe0 I2 2.634366 1_655
Fe0 I0 2.638878 1_554
Fe1 I5 2.623493 1_555
Fe1 I4 2.634151 1_455
Fe1 I6 2.634366 1_445
Fe1 I3 2.638878 1_556
I0 Rb0 3.758345 1_556
I0 Rb1 3.807066 1_555
I1 Rb0 3.659596 1_555
I1 Rb1 3.744738 1_555
I1 Rb2 4.148217 1_565
I2 Rb3 3.718174 1_454
I2 Rb2 3.790639 1_455
I2 Rb0 3.796712 1_555
I2 Rb1 3.829647 1_555
I3 Rb3 3.758345 1_554
I3 Rb2 3.807066 1_555
I4 Rb0 3.743123 1_656
I4 Rb1 3.767954 1_655
I4 Rb2 3.791791 1_555
I4 Rb3 3.849480 1_555
I5 Rb3 3.659596 1_555
I5 Rb2 3.744738 1_555
I5 Rb1 4.148217 1_555
I6 Rb0 3.718174 1_656
I6 Rb1 3.790639 1_655
I6 Rb3 3.796712 1_565
I6 Rb2 3.829647 1_565
I7 Rb3 3.743123 1_464
I7 Rb2 3.767954 1_465
I7 Rb1 3.791791 1_555
I7 Rb0 3.849480 1_555
