# generated using pymatgen
data_Fe3O4
_symmetry_space_group_name_H-M   'P 1'
_cell_length_a   3.01278002
_cell_length_b   10.05688600
_cell_length_c   10.46110310
_cell_angle_alpha   90.00000000
_cell_angle_beta   90.01387427
_cell_angle_gamma   90.00000000
_symmetry_Int_Tables_number   1
_chemical_formula_structural   Fe3O4
_chemical_formula_sum   'Fe12 O16'
_cell_volume   316.96289056
_cell_formula_units_Z   4
loop_
 _symmetry_equiv_pos_site_id
 _symmetry_equiv_pos_as_xyz
  1  'x, y, z'
loop_
 _atom_site_type_symbol
 _atom_site_label
 _atom_site_symmetry_multiplicity
 _atom_site_fract_x
 _atom_site_fract_y
 _atom_site_fract_z
 _atom_site_occupancy
  Fe  Fe0  1  0.27918600  0.37735900  0.25075800  1
  Fe  Fe1  1  0.27207700  0.12420500  0.75005500  1
  Fe  Fe2  1  0.72081400  0.87735900  0.24924200  1
  Fe  Fe3  1  0.72792300  0.62420500  0.74994500  1
  Fe  Fe4  1  0.24639600  0.12125700  0.07289900  1
  Fe  Fe5  1  0.75360400  0.62125700  0.42710100  1
  Fe  Fe6  1  0.24570500  0.38164900  0.92668600  1
  Fe  Fe7  1  0.75429500  0.88164900  0.57331400  1
  Fe  Fe8  1  0.75315300  0.88046300  0.92596100  1
  Fe  Fe9  1  0.75395100  0.61984200  0.07326500  1
  Fe  Fe10  1  0.24684700  0.38046200  0.57403900  1
  Fe  Fe11  1  0.24604900  0.11984200  0.42673500  1
  O  O0  1  0.25288700  0.18651800  0.25075300  1
  O  O1  1  0.25294500  0.31211200  0.75124200  1
  O  O2  1  0.74711300  0.68651800  0.24924700  1
  O  O3  1  0.74705500  0.81211200  0.74875800  1
  O  O4  1  0.25280200  0.48753800  0.10160700  1
  O  O5  1  0.25185200  0.01022100  0.89743500  1
  O  O6  1  0.74719800  0.98753800  0.39839300  1
  O  O7  1  0.74814800  0.51022100  0.60256500  1
  O  O8  1  0.74745700  0.51136800  0.89756000  1
  O  O9  1  0.74771300  0.98904700  0.09885300  1
  O  O10  1  0.25254300  0.01136800  0.60244000  1
  O  O11  1  0.25228700  0.48904700  0.40114700  1
  O  O12  1  0.75000200  0.24956200  0.00121000  1
  O  O13  1  0.24999800  0.74956200  0.49879000  1
  O  O14  1  0.25175600  0.74886000  0.99923200  1
  O  O15  1  0.74824400  0.24886000  0.50076800  1
loop_
_geom_bond_atom_site_label_1
_geom_bond_atom_site_label_2
_geom_bond_distance
_geom_bond_site_symmetry_2
Fe0 O4 1.915342 1_555
Fe0 O0 1.920901 1_555
Fe0 O11 1.934774 1_555
Fe1 O1 1.890679 1_555
Fe1 O10 1.917229 1_555
Fe1 O5 1.922195 1_555
Fe2 O6 1.915342 1_555
Fe2 O2 1.920901 1_555
Fe2 O9 1.934774 1_555
Fe3 O3 1.890679 1_555
Fe3 O8 1.917229 1_555
Fe3 O7 1.922195 1_555
Fe4 O0 1.973010 1_555
Fe4 O9 2.024618 1_445
Fe4 O9 2.030416 1_545
Fe4 O12 2.112693 1_455
Fe4 O12 2.128387 1_555
Fe4 O5 2.148600 1_554
Fe5 O2 1.973010 1_555
Fe5 O11 2.024618 1_655
Fe5 O11 2.030416 1_555
Fe5 O13 2.112693 1_655
Fe5 O13 2.128387 1_555
Fe5 O7 2.148600 1_555
Fe6 O1 1.964183 1_555
Fe6 O8 2.011927 1_455
Fe6 O8 2.019926 1_555
Fe6 O4 2.117284 1_556
Fe6 O12 2.145536 1_456
Fe6 O12 2.163375 1_556
Fe7 O3 1.964183 1_555
Fe7 O10 2.011927 1_665
Fe7 O10 2.019926 1_565
Fe7 O6 2.117284 1_555
Fe7 O13 2.145536 1_655
Fe7 O13 2.163375 1_555
Fe8 O3 1.977166 1_555
Fe8 O5 2.012364 1_665
Fe8 O5 2.018116 1_565
Fe8 O9 2.112810 1_556
Fe8 O14 2.143642 1_655
Fe8 O14 2.149809 1_555
Fe9 O2 1.959398 1_555
Fe9 O4 2.029012 1_655
Fe9 O4 2.034252 1_555
Fe9 O14 2.129143 1_654
Fe9 O8 2.137509 1_554
Fe9 O14 2.138216 1_554
Fe10 O1 1.977162 1_555
Fe10 O7 2.012371 1_455
Fe10 O7 2.018122 1_555
Fe10 O11 2.112815 1_555
Fe10 O15 2.143636 1_455
Fe10 O15 2.149803 1_555
Fe11 O0 1.959398 1_555
Fe11 O6 2.029012 1_445
Fe11 O6 2.034252 1_545
Fe11 O15 2.129143 1_455
Fe11 O10 2.137509 1_555
Fe11 O15 2.138216 1_555
