# generated using pymatgen
data_ZnAsHPbO5
_symmetry_space_group_name_H-M   'P 1'
_cell_length_a   6.19840400
_cell_length_b   7.81000500
_cell_length_c   9.47579300
_cell_angle_alpha   90.00000000
_cell_angle_beta   90.00000000
_cell_angle_gamma   90.00000000
_symmetry_Int_Tables_number   1
_chemical_formula_structural   ZnAsHPbO5
_chemical_formula_sum   'Zn4 As4 H4 Pb4 O20'
_cell_volume   458.71902883
_cell_formula_units_Z   4
loop_
 _symmetry_equiv_pos_site_id
 _symmetry_equiv_pos_as_xyz
  1  'x, y, z'
loop_
 _atom_site_type_symbol
 _atom_site_label
 _atom_site_symmetry_multiplicity
 _atom_site_fract_x
 _atom_site_fract_y
 _atom_site_fract_z
 _atom_site_occupancy
  Zn  Zn0  1  0.23086500  0.22965500  0.51247300  1
  Zn  Zn1  1  0.73086500  0.27034500  0.48752700  1
  Zn  Zn2  1  0.76913500  0.72965500  0.98752700  1
  Zn  Zn3  1  0.26913500  0.77034500  0.01247300  1
  As  As0  1  0.98612400  0.37696400  0.81475900  1
  As  As1  1  0.48612400  0.12303600  0.18524100  1
  As  As2  1  0.01387600  0.87696400  0.68524100  1
  As  As3  1  0.51387600  0.62303600  0.31475900  1
  H  H0  1  0.51185600  0.00429900  0.51055100  1
  H  H1  1  0.01185600  0.49570100  0.48944900  1
  H  H2  1  0.48814400  0.50429900  0.98944900  1
  H  H3  1  0.98814400  0.99570100  0.01055100  1
  Pb  Pb0  1  0.03362500  0.36868000  0.17144700  1
  Pb  Pb1  1  0.53362500  0.13132000  0.82855300  1
  Pb  Pb2  1  0.96637500  0.86868000  0.32855300  1
  Pb  Pb3  1  0.46637500  0.63132000  0.67144700  1
  O  O0  1  0.49265700  0.44638300  0.42625200  1
  O  O1  1  0.99265700  0.05361700  0.57374800  1
  O  O2  1  0.50734300  0.94638300  0.07374800  1
  O  O3  1  0.00734300  0.55361700  0.92625200  1
  O  O4  1  0.43868500  0.29580700  0.07661300  1
  O  O5  1  0.93868500  0.20419300  0.92338700  1
  O  O6  1  0.56131500  0.79580700  0.42338700  1
  O  O7  1  0.06131500  0.70419300  0.57661300  1
  O  O8  1  0.72749700  0.14271400  0.27801800  1
  O  O9  1  0.22749700  0.35728600  0.72198200  1
  O  O10  1  0.27250300  0.64271400  0.22198200  1
  O  O11  1  0.77250300  0.85728600  0.77801800  1
  O  O12  1  0.73929400  0.61142500  0.20562400  1
  O  O13  1  0.23929400  0.88857500  0.79437600  1
  O  O14  1  0.26070600  0.11142500  0.29437600  1
  O  O15  1  0.76070600  0.38857500  0.70562400  1
  O  O16  1  0.50452100  0.11455000  0.56212100  1
  O  O17  1  0.00452100  0.38545000  0.43787900  1
  O  O18  1  0.49547900  0.61455000  0.93787900  1
  O  O19  1  0.99547900  0.88545000  0.06212100  1
loop_
_geom_bond_atom_site_label_1
_geom_bond_atom_site_label_2
_geom_bond_distance
_geom_bond_site_symmetry_2
As0 O5 1.722417 1_555
As0 O15 1.740669 1_555
As0 O9 1.742095 1_655
As0 O3 1.742677 1_655
As1 O4 1.722417 1_555
As1 O14 1.740669 1_555
As1 O8 1.742095 1_555
As1 O2 1.742677 1_545
As2 O7 1.722417 1_555
As2 O13 1.740669 1_555
As2 O11 1.742095 1_455
As2 O1 1.742677 1_465
As3 O6 1.722417 1_555
As3 O12 1.740669 1_555
As3 O10 1.742095 1_555
As3 O0 1.742677 1_555
H0 O16 0.991104 1_555
H1 O17 0.991104 1_555
H2 O18 0.991104 1_555
H3 O19 0.991104 1_555
O0 Zn1 2.099391 1_555
O0 Zn0 2.483081 1_555
O0 Pb3 2.740616 1_555
O1 Zn0 2.099391 1_655
O1 Zn1 2.483081 1_555
O1 Pb2 2.740616 1_545
O2 Zn3 2.099391 1_555
O2 Zn2 2.483081 1_554
O2 Pb1 2.740616 1_564
O3 Zn2 2.099391 1_455
O3 Zn3 2.483081 1_556
O3 Pb0 2.740616 1_556
O4 Pb0 2.726755 1_555
O4 Pb1 2.742585 1_554
O5 Pb1 2.726755 1_555
O5 Pb0 2.742585 1_656
O6 Pb2 2.726755 1_555
O6 Pb3 2.742585 1_555
O7 Pb3 2.726755 1_555
O7 Pb2 2.742585 1_455
O8 Zn1 2.221557 1_555
O8 Pb2 2.646158 1_545
O8 Pb0 2.781154 1_655
O9 Zn0 2.221557 1_555
O9 Pb3 2.646158 1_555
O9 Pb1 2.781154 1_555
O10 Zn3 2.221557 1_555
O10 Pb0 2.646158 1_555
O10 Pb2 2.781154 1_455
O11 Zn2 2.221557 1_555
O11 Pb1 2.646158 1_565
O11 Pb3 2.781154 1_555
O12 Zn2 2.271089 1_554
O12 Pb0 2.650936 1_655
O12 Pb2 2.715654 1_555
O13 Zn3 2.271089 1_556
O13 Pb1 2.650936 1_565
O13 Pb3 2.715654 1_555
O14 Zn0 2.271089 1_555
O14 Pb2 2.650936 1_445
O14 Pb0 2.715654 1_555
O15 Zn1 2.271089 1_555
O15 Pb3 2.650936 1_555
O15 Pb1 2.715654 1_555
O16 Zn0 1.976531 1_555
O16 Zn1 1.987071 1_555
O16 Pb1 2.534478 1_555
O17 Zn1 1.976531 1_455
O17 Zn0 1.987071 1_555
O17 Pb0 2.534478 1_555
O18 Zn2 1.976531 1_555
O18 Zn3 1.987071 1_556
O18 Pb3 2.534478 1_555
O19 Zn3 1.976531 1_655
O19 Zn2 1.987071 1_554
O19 Pb2 2.534478 1_555
