# generated using pymatgen
data_Ba2Bi
_symmetry_space_group_name_H-M   'P 1'
_cell_length_a   5.35417127
_cell_length_b   5.35417153
_cell_length_c   10.37967080
_cell_angle_alpha   104.94645236
_cell_angle_beta   104.94645379
_cell_angle_gamma   90.00001040
_symmetry_Int_Tables_number   1
_chemical_formula_structural   Ba2Bi
_chemical_formula_sum   'Ba4 Bi2'
_cell_volume   277.05580781
_cell_formula_units_Z   2
loop_
 _symmetry_equiv_pos_site_id
 _symmetry_equiv_pos_as_xyz
  1  'x, y, z'
loop_
 _atom_site_type_symbol
 _atom_site_label
 _atom_site_symmetry_multiplicity
 _atom_site_fract_x
 _atom_site_fract_y
 _atom_site_fract_z
 _atom_site_occupancy
  Ba  Ba0  1  0.50000000  0.00000000  0.00000000  1
  Ba  Ba1  1  0.67997604  0.67997604  0.35995207  1
  Ba  Ba2  1  0.32002396  0.32002396  0.64004893  1
  Ba  Ba3  1  0.00000000  0.50000000  0.00000000  1
  Bi  Bi0  1  0.86589081  0.86589081  0.73178263  1
  Bi  Bi1  1  0.13410919  0.13410919  0.26821737  1
loop_
_geom_bond_atom_site_label_1
_geom_bond_atom_site_label_2
_geom_bond_distance
_geom_bond_site_symmetry_2
Ba0 Bi1 3.726434 1_555
Ba0 Bi0 3.726434 1_544
Ba0 Bi1 3.726438 1_655
Ba0 Bi0 3.726438 1_444
Ba0 Ba3 3.785971 1_655
Ba0 Ba3 3.785971 1_545
Ba0 Ba3 3.785971 1_645
Ba0 Ba3 3.785971 1_555
Ba0 Ba2 4.389606 1_554
Ba0 Ba2 4.389609 1_544
Ba0 Ba1 4.389615 1_545
Ba0 Ba1 4.389615 1_555
Ba1 Bi0 3.593584 1_555
Ba1 Bi1 3.888388 1_555
Ba1 Bi1 3.888393 1_565
Ba1 Bi1 3.888393 1_655
Ba1 Bi1 3.888396 1_665
Ba1 Ba3 4.389615 1_555
Ba1 Ba3 4.389615 1_655
Ba2 Bi1 3.593594 1_555
Ba2 Bi0 3.888390 1_555
Ba2 Bi0 3.888390 1_445
Ba2 Bi0 3.888390 1_545
Ba2 Bi0 3.888390 1_455
Ba2 Ba3 4.389606 1_556
Ba2 Ba3 4.389609 1_656
Ba3 Bi0 3.726434 1_454
Ba3 Bi1 3.726434 1_555
Ba3 Bi1 3.726438 1_565
Ba3 Bi0 3.726438 1_444
