# generated using pymatgen
data_RbGa3S5
_symmetry_space_group_name_H-M   'P 1'
_cell_length_a   12.76818290
_cell_length_b   7.18088272
_cell_length_c   10.36995071
_cell_angle_alpha   76.61605239
_cell_angle_beta   90.00000000
_cell_angle_gamma   90.00000000
_symmetry_Int_Tables_number   1
_chemical_formula_structural   RbGa3S5
_chemical_formula_sum   'Rb4 Ga12 S20'
_cell_volume   924.96517816
_cell_formula_units_Z   4
loop_
 _symmetry_equiv_pos_site_id
 _symmetry_equiv_pos_as_xyz
  1  'x, y, z'
loop_
 _atom_site_type_symbol
 _atom_site_label
 _atom_site_symmetry_multiplicity
 _atom_site_fract_x
 _atom_site_fract_y
 _atom_site_fract_z
 _atom_site_occupancy
  Rb  Rb0  1  0.61340003  0.83601089  0.39846786  1
  Rb  Rb1  1  0.11340003  0.16398911  0.10153214  1
  Rb  Rb2  1  0.38659997  0.16398911  0.60153214  1
  Rb  Rb3  1  0.88659997  0.83601089  0.89846786  1
  Ga  Ga0  1  0.92036375  0.79931907  0.40010284  1
  Ga  Ga1  1  0.57963625  0.79931907  0.90010284  1
  Ga  Ga2  1  0.42036375  0.20068093  0.09989716  1
  Ga  Ga3  1  0.39804559  0.55982601  0.80355361  1
  Ga  Ga4  1  0.10195441  0.55982601  0.30355361  1
  Ga  Ga5  1  0.33575711  0.70954142  0.12398910  1
  Ga  Ga6  1  0.60195441  0.44017399  0.19644639  1
  Ga  Ga7  1  0.07963625  0.20068093  0.59989716  1
  Ga  Ga8  1  0.66424289  0.29045858  0.87601090  1
  Ga  Ga9  1  0.89804559  0.44017399  0.69644639  1
  Ga  Ga10  1  0.16424289  0.70954142  0.62398910  1
  Ga  Ga11  1  0.83575711  0.29045858  0.37601090  1
  S  S0  1  0.83165775  0.71844788  0.58926399  1
  S  S1  1  0.10242298  0.80984523  0.40992852  1
  S  S2  1  0.66834225  0.71844788  0.08926399  1
  S  S3  1  0.39757702  0.80984523  0.90992852  1
  S  S4  1  0.33165775  0.28155212  0.91073601  1
  S  S5  1  0.66372278  0.34485697  0.40354192  1
  S  S6  1  0.58015152  0.57137573  0.76818218  1
  S  S7  1  0.60242298  0.19015477  0.09007148  1
  S  S8  1  0.89757702  0.19015477  0.59007148  1
  S  S9  1  0.63445651  0.06697131  0.75899194  1
  S  S10  1  0.36554349  0.93302869  0.24100806  1
  S  S11  1  0.16834225  0.28155212  0.41073601  1
  S  S12  1  0.08015152  0.42862427  0.73181782  1
  S  S13  1  0.91984848  0.57137573  0.26818218  1
  S  S14  1  0.86554349  0.06697131  0.25899194  1
  S  S15  1  0.13445651  0.93302869  0.74100806  1
  S  S16  1  0.83627722  0.34485697  0.90354192  1
  S  S17  1  0.33627722  0.65514303  0.59645808  1
  S  S18  1  0.41984848  0.42862427  0.23181782  1
  S  S19  1  0.16372278  0.65514303  0.09645808  1
loop_
_geom_bond_atom_site_label_1
_geom_bond_atom_site_label_2
_geom_bond_distance
_geom_bond_site_symmetry_2
Rb0 S0 3.408821 1_555
Rb0 S10 3.555292 1_555
Rb0 S2 3.569194 1_555
Rb0 S5 3.573354 1_555
Rb0 S7 3.598509 1_565
Rb0 S5 3.722375 1_565
Rb0 S14 3.754555 1_565
Rb0 S6 3.888117 1_555
Rb1 S4 3.408821 1_554
Rb1 S14 3.555292 1_455
Rb1 S11 3.569194 1_555
Rb1 S19 3.573354 1_555
Rb1 S1 3.598509 1_545
Rb1 S19 3.722375 1_545
Rb1 S10 3.754555 1_545
Rb1 S12 3.888117 1_554
Rb2 S11 3.408821 1_555
Rb2 S9 3.555292 1_555
Rb2 S4 3.569194 1_555
Rb2 S17 3.573354 1_555
Rb2 S3 3.598509 1_545
Rb2 S17 3.722375 1_545
Rb2 S15 3.754555 1_545
Rb2 S18 3.888117 1_555
Rb3 S2 3.408821 1_556
Rb3 S15 3.555292 1_655
Rb3 S0 3.569194 1_555
Rb3 S16 3.573354 1_555
Rb3 S8 3.598509 1_565
Rb3 S16 3.722375 1_565
Rb3 S9 3.754555 1_565
Rb3 S13 3.888117 1_556
Ga0 S0 2.222731 1_555
Ga0 S14 2.241249 1_565
Ga0 S1 2.328791 1_655
Ga0 S13 2.363761 1_555
Ga1 S2 2.222731 1_556
Ga1 S9 2.241249 1_565
Ga1 S3 2.328791 1_555
Ga1 S6 2.363761 1_555
Ga2 S4 2.222731 1_554
Ga2 S10 2.241249 1_545
Ga2 S7 2.328791 1_555
Ga2 S18 2.363761 1_555
Ga3 S4 2.217811 1_555
Ga3 S17 2.240991 1_555
Ga3 S3 2.314528 1_555
Ga3 S6 2.352385 1_555
Ga4 S11 2.217811 1_555
Ga4 S19 2.240991 1_555
Ga4 S1 2.314528 1_555
Ga4 S13 2.352385 1_455
Ga5 S10 2.257043 1_555
Ga5 S19 2.260670 1_555
Ga5 S3 2.308493 1_554
Ga5 S18 2.329834 1_555
Ga6 S2 2.217811 1_555
Ga6 S5 2.240991 1_555
Ga6 S7 2.314528 1_555
Ga6 S18 2.352385 1_555
Ga7 S11 2.222731 1_555
Ga7 S15 2.241249 1_545
Ga7 S8 2.328791 1_455
Ga7 S12 2.363761 1_555
Ga8 S9 2.257043 1_555
Ga8 S16 2.260670 1_555
Ga8 S7 2.308493 1_556
Ga8 S6 2.329834 1_555
Ga9 S0 2.217811 1_555
Ga9 S16 2.240991 1_555
Ga9 S8 2.314528 1_555
Ga9 S12 2.352385 1_655
Ga10 S15 2.257043 1_555
Ga10 S17 2.260670 1_555
Ga10 S1 2.308493 1_555
Ga10 S12 2.329834 1_555
Ga11 S14 2.257043 1_555
Ga11 S5 2.260670 1_555
Ga11 S8 2.308493 1_555
Ga11 S13 2.329834 1_555
