# generated using pymatgen
data_K2PrH4N5O17
_symmetry_space_group_name_H-M   'P 1'
_cell_length_a   12.20818782
_cell_length_b   11.96317555
_cell_length_c   8.29034827
_cell_angle_alpha   71.54027879
_cell_angle_beta   68.35850356
_cell_angle_gamma   40.10121765
_symmetry_Int_Tables_number   1
_chemical_formula_structural   K2PrH4N5O17
_chemical_formula_sum   'K4 Pr2 H8 N10 O34'
_cell_volume   723.73672497
_cell_formula_units_Z   2
loop_
 _symmetry_equiv_pos_site_id
 _symmetry_equiv_pos_as_xyz
  1  'x, y, z'
loop_
 _atom_site_type_symbol
 _atom_site_label
 _atom_site_symmetry_multiplicity
 _atom_site_fract_x
 _atom_site_fract_y
 _atom_site_fract_z
 _atom_site_occupancy
  K  K0  1  0.67659260  0.52831913  0.35612934  1
  K  K1  1  0.35612934  0.43895893  0.67659260  1
  K  K2  1  0.81104107  0.89387066  0.72168087  1
  K  K3  1  0.72168087  0.57340740  0.81104107  1
  Pr  Pr0  1  0.99929236  0.00070764  0.99929236  1
  Pr  Pr1  1  0.24929236  0.25070764  0.24929236  1
  H  H0  1  0.15447804  0.13966422  0.92946104  1
  H  H1  1  0.92946104  0.77639670  0.15447804  1
  H  H2  1  0.47360330  0.32053896  0.11033578  1
  H  H3  1  0.11033578  0.09552196  0.47360330  1
  H  H4  1  0.16819330  0.11519352  0.74976915  1
  H  H5  1  0.74976915  0.96684404  0.16819330  1
  H  H6  1  0.28315596  0.50023085  0.13480648  1
  H  H7  1  0.13480648  0.08180670  0.28315596  1
  N  N0  1  0.20998896  0.80914711  0.66671718  1
  N  N1  1  0.66671718  0.31414675  0.20998896  1
  N  N2  1  0.93585325  0.58328282  0.44085289  1
  N  N3  1  0.44085289  0.04001104  0.93585325  1
  N  N4  1  0.34104466  0.80868726  0.07536989  1
  N  N5  1  0.07536989  0.77489819  0.34104466  1
  N  N6  1  0.47510181  0.17463011  0.44131274  1
  N  N7  1  0.44131274  0.90895534  0.47510181  1
  N  N8  1  0.74546276  0.25453724  0.74546276  1
  N  N9  1  0.99546276  0.50453724  0.99546276  1
  O  O0  1  0.14104429  0.95871323  0.67270631  1
  O  O1  1  0.67270631  0.22753517  0.14104429  1
  O  O2  1  0.02246483  0.57729369  0.29128677  1
  O  O3  1  0.29128677  0.10895571  0.02246483  1
  O  O4  1  0.16874337  0.75219639  0.80411142  1
  O  O5  1  0.80411142  0.27494882  0.16874337  1
  O  O6  1  0.97505118  0.44588858  0.49780361  1
  O  O7  1  0.49780361  0.08125663  0.97505118  1
  O  O8  1  0.31001710  0.72550708  0.53579990  1
  O  O9  1  0.53579990  0.42867492  0.31001710  1
  O  O10  1  0.82132508  0.71420010  0.52449292  1
  O  O11  1  0.52449292  0.93998290  0.82132508  1
  O  O12  1  0.34471008  0.77245184  0.94464325  1
  O  O13  1  0.94464325  0.93819482  0.34471008  1
  O  O14  1  0.31180518  0.30535675  0.47754816  1
  O  O15  1  0.47754816  0.90528992  0.31180518  1
  O  O16  1  0.19178236  0.93033794  0.16626005  1
  O  O17  1  0.16626005  0.71161964  0.19178236  1
  O  O18  1  0.53838036  0.08373995  0.31966206  1
  O  O19  1  0.31966206  0.05821764  0.53838036  1
  O  O20  1  0.47607783  0.73056217  0.11352745  1
  O  O21  1  0.11352745  0.67983155  0.47607783  1
  O  O22  1  0.57016845  0.13647255  0.51943783  1
  O  O23  1  0.51943783  0.77392217  0.57016845  1
  O  O24  1  0.79701834  0.11154253  0.80193783  1
  O  O25  1  0.80193783  0.28950131  0.79701834  1
  O  O26  1  0.96049869  0.44806217  0.13845747  1
  O  O27  1  0.13845747  0.45298166  0.96049869  1
  O  O28  1  0.64386489  0.35613511  0.64386489  1
  O  O29  1  0.89386489  0.60613511  0.89386489  1
  O  O30  1  0.09065108  0.15565645  0.86419017  1
  O  O31  1  0.86419017  0.88950229  0.09065108  1
  O  O32  1  0.36049771  0.38580983  0.09434355  1
  O  O33  1  0.09434355  0.15934892  0.36049771  1
loop_
_geom_bond_atom_site_label_1
_geom_bond_atom_site_label_2
_geom_bond_distance
_geom_bond_site_symmetry_2
K0 O20 2.716717 1_555
K0 O28 2.745417 1_555
K0 O26 2.753961 1_555
K0 O23 2.762144 1_555
K0 O5 2.829110 1_555
K0 O9 2.903319 1_555
K0 O8 2.994875 1_555
K0 O15 3.036827 1_555
K0 O33 3.330378 1_655
K1 O21 2.716716 1_555
K1 O28 2.745417 1_555
K1 O27 2.753961 1_555
K1 O22 2.762135 1_555
K1 O4 2.829110 1_555
K1 O8 2.903309 1_555
K1 O9 2.994873 1_555
K1 O14 3.036827 1_555
K1 O32 3.330378 1_556
K2 O22 2.716711 1_565
K2 O29 2.745417 1_555
K2 O24 2.753961 1_565
K2 O21 2.762139 1_655
K2 O7 2.829110 1_565
K2 O11 2.903308 1_555
K2 O10 2.994866 1_555
K2 O13 3.036827 1_555
K2 O31 3.330377 1_556
K3 O23 2.716710 1_555
K3 O29 2.745417 1_555
K3 O25 2.753961 1_555
K3 O20 2.762138 1_556
K3 O6 2.829110 1_555
K3 O10 2.903315 1_555
K3 O11 2.994877 1_555
K3 O12 3.036827 1_555
K3 O30 3.330378 1_655
H0 O30 0.976712 1_555
H1 O31 0.976711 1_555
H2 O32 0.976711 1_555
H3 O33 0.976711 1_555
H4 O30 0.978624 1_555
H5 O31 0.978624 1_555
H6 O32 0.978624 1_555
H7 O33 0.978624 1_555
N0 O8 1.229344 1_555
N0 O4 1.274945 1_555
N0 O0 1.278260 1_555
N1 O9 1.229340 1_555
N1 O5 1.274945 1_555
N1 O1 1.278271 1_555
N2 O10 1.229344 1_555
N2 O6 1.274945 1_555
N2 O2 1.278265 1_655
N3 O11 1.229337 1_545
N3 O7 1.274945 1_555
N3 O3 1.278262 1_556
N4 O20 1.237558 1_555
N4 O12 1.263543 1_554
N4 O16 1.277096 1_555
N5 O21 1.237562 1_555
N5 O13 1.263543 1_455
N5 O17 1.277096 1_555
N6 O22 1.237568 1_555
N6 O14 1.263543 1_555
N6 O18 1.277096 1_555
N7 O23 1.237562 1_555
N7 O15 1.263543 1_555
N7 O19 1.277096 1_565
N8 O28 1.241426 1_555
N8 O24 1.266786 1_555
N8 O25 1.266787 1_555
N9 O29 1.241426 1_555
N9 O27 1.266786 1_655
N9 O26 1.266787 1_556
O0 Pr0 2.579375 1_465
O1 Pr0 2.579375 1_554
O2 Pr1 2.579377 1_555
O3 Pr1 2.579368 1_555
O4 Pr0 2.627778 1_465
O5 Pr0 2.627778 1_554
O6 Pr1 2.627778 1_655
O7 Pr1 2.627778 1_556
O12 Pr0 2.683781 1_465
O13 Pr0 2.683781 1_564
O14 Pr1 2.683781 1_555
O15 Pr1 2.683781 1_565
O16 Pr0 2.604219 1_464
O17 Pr0 2.604220 1_464
O18 Pr1 2.604220 1_555
O19 Pr1 2.604220 1_555
O24 Pr0 2.670246 1_555
O25 Pr0 2.670246 1_555
O26 Pr1 2.670246 1_655
O27 Pr1 2.670246 1_556
O30 Pr0 2.619385 1_455
O31 Pr0 2.619385 1_564
O32 Pr1 2.619385 1_555
O33 Pr1 2.619385 1_555
