# generated using pymatgen
data_Ba6Co25S27
_symmetry_space_group_name_H-M   'P 1'
_cell_length_a   9.98623300
_cell_length_b   9.98623300
_cell_length_c   9.98623300
_cell_angle_alpha   90.00000000
_cell_angle_beta   90.00000000
_cell_angle_gamma   90.00000000
_symmetry_Int_Tables_number   1
_chemical_formula_structural   Ba6Co25S27
_chemical_formula_sum   'Ba6 Co25 S27'
_cell_volume   995.87558330
_cell_formula_units_Z   1
loop_
 _symmetry_equiv_pos_site_id
 _symmetry_equiv_pos_as_xyz
  1  'x, y, z'
loop_
 _atom_site_type_symbol
 _atom_site_label
 _atom_site_symmetry_multiplicity
 _atom_site_fract_x
 _atom_site_fract_y
 _atom_site_fract_z
 _atom_site_occupancy
  Ba  Ba0  1  0.50000000  0.50000000  0.19431200  1
  Ba  Ba1  1  0.50000000  0.80568800  0.50000000  1
  Ba  Ba2  1  0.50000000  0.19431200  0.50000000  1
  Ba  Ba3  1  0.19431200  0.50000000  0.50000000  1
  Ba  Ba4  1  0.80568800  0.50000000  0.50000000  1
  Ba  Ba5  1  0.50000000  0.50000000  0.80568800  1
  Co  Co0  1  0.12904900  0.36953000  0.12904900  1
  Co  Co1  1  0.12904900  0.87095100  0.36953000  1
  Co  Co2  1  0.12904900  0.12904900  0.63047000  1
  Co  Co3  1  0.12904900  0.36953000  0.87095100  1
  Co  Co4  1  0.87095100  0.36953000  0.12904900  1
  Co  Co5  1  0.63047000  0.12904900  0.12904900  1
  Co  Co6  1  0.36953000  0.87095100  0.12904900  1
  Co  Co7  1  0.12904900  0.12904900  0.36953000  1
  Co  Co8  1  0.36953000  0.12904900  0.12904900  1
  Co  Co9  1  0.63047000  0.87095100  0.12904900  1
  Co  Co10  1  0.12904900  0.87095100  0.63047000  1
  Co  Co11  1  0.63047000  0.12904900  0.87095100  1
  Co  Co12  1  0.87095100  0.87095100  0.36953000  1
  Co  Co13  1  0.87095100  0.12904900  0.63047000  1
  Co  Co14  1  0.36953000  0.87095100  0.87095100  1
  Co  Co15  1  0.12904900  0.63047000  0.87095100  1
  Co  Co16  1  0.87095100  0.36953000  0.87095100  1
  Co  Co17  1  0.87095100  0.63047000  0.12904900  1
  Co  Co18  1  0.36953000  0.12904900  0.87095100  1
  Co  Co19  1  0.63047000  0.87095100  0.87095100  1
  Co  Co20  1  0.12904900  0.63047000  0.12904900  1
  Co  Co21  1  0.87095100  0.63047000  0.87095100  1
  Co  Co22  1  0.87095100  0.12904900  0.36953000  1
  Co  Co23  1  0.87095100  0.87095100  0.63047000  1
  Co  Co24  1  0.00000000  0.00000000  0.00000000  1
  S  S0  1  0.50000000  0.50000000  0.50000000  1
  S  S1  1  0.00000000  0.23903100  0.00000000  1
  S  S2  1  0.00000000  0.00000000  0.23903100  1
  S  S3  1  0.00000000  0.00000000  0.76096900  1
  S  S4  1  0.76096900  0.00000000  0.00000000  1
  S  S5  1  0.23903100  0.00000000  0.00000000  1
  S  S6  1  0.00000000  0.76096900  0.00000000  1
  S  S7  1  0.26117600  0.26117600  0.26117600  1
  S  S8  1  0.26117600  0.73882400  0.26117600  1
  S  S9  1  0.26117600  0.26117600  0.73882400  1
  S  S10  1  0.73882400  0.26117600  0.26117600  1
  S  S11  1  0.73882400  0.73882400  0.26117600  1
  S  S12  1  0.26117600  0.73882400  0.73882400  1
  S  S13  1  0.73882400  0.26117600  0.73882400  1
  S  S14  1  0.73882400  0.73882400  0.73882400  1
  S  S15  1  0.00000000  0.50000000  0.24443700  1
  S  S16  1  0.00000000  0.75556300  0.50000000  1
  S  S17  1  0.00000000  0.24443700  0.50000000  1
  S  S18  1  0.24443700  0.50000000  0.00000000  1
  S  S19  1  0.75556300  0.50000000  0.00000000  1
  S  S20  1  0.50000000  0.00000000  0.24443700  1
  S  S21  1  0.24443700  0.00000000  0.50000000  1
  S  S22  1  0.50000000  0.24443700  0.00000000  1
  S  S23  1  0.50000000  0.75556300  0.00000000  1
  S  S24  1  0.75556300  0.00000000  0.50000000  1
  S  S25  1  0.00000000  0.50000000  0.75556300  1
  S  S26  1  0.50000000  0.00000000  0.75556300  1
loop_
_geom_bond_atom_site_label_1
_geom_bond_atom_site_label_2
_geom_bond_distance
_geom_bond_site_symmetry_2
Ba0 S0 3.052672 1_555
Ba0 S23 3.206026 1_555
Ba0 S18 3.206026 1_555
Ba0 S22 3.206026 1_555
Ba0 S19 3.206026 1_555
Ba0 S11 3.438291 1_555
Ba0 S10 3.438291 1_555
Ba0 S8 3.438291 1_555
Ba0 S7 3.438291 1_555
Ba1 S0 3.052672 1_555
Ba1 S24 3.206026 1_565
Ba1 S26 3.206026 1_565
Ba1 S20 3.206026 1_565
Ba1 S21 3.206026 1_565
Ba1 S14 3.438291 1_555
Ba1 S11 3.438291 1_555
Ba1 S12 3.438291 1_555
Ba1 S8 3.438291 1_555
Ba2 S0 3.052672 1_555
Ba2 S26 3.206026 1_555
Ba2 S20 3.206026 1_555
Ba2 S24 3.206026 1_555
Ba2 S21 3.206026 1_555
Ba2 S13 3.438291 1_555
Ba2 S9 3.438291 1_555
Ba2 S10 3.438291 1_555
Ba2 S7 3.438291 1_555
Ba3 S0 3.052672 1_555
Ba3 S17 3.206026 1_555
Ba3 S15 3.206026 1_555
Ba3 S25 3.206026 1_555
Ba3 S16 3.206026 1_555
Ba3 S12 3.438291 1_555
Ba3 S9 3.438291 1_555
Ba3 S8 3.438291 1_555
Ba3 S7 3.438291 1_555
Ba4 S0 3.052672 1_555
Ba4 S15 3.206026 1_655
Ba4 S25 3.206026 1_655
Ba4 S16 3.206026 1_655
Ba4 S17 3.206026 1_655
Ba4 S14 3.438291 1_555
Ba4 S13 3.438291 1_555
Ba4 S11 3.438291 1_555
Ba4 S10 3.438291 1_555
Ba5 S0 3.052672 1_555
Ba5 S18 3.206026 1_556
Ba5 S22 3.206026 1_556
Ba5 S19 3.206026 1_556
Ba5 S23 3.206026 1_556
Ba5 S14 3.438291 1_555
Ba5 S13 3.438291 1_555
Ba5 S12 3.438291 1_555
Ba5 S9 3.438291 1_555
Co0 S7 2.157019 1_555
Co0 S15 2.164744 1_555
Co0 S18 2.164744 1_555
Co0 S1 2.240508 1_555
Co1 S8 2.157019 1_555
Co1 S16 2.164744 1_555
Co1 S21 2.164744 1_565
Co1 S2 2.240508 1_565
Co2 S9 2.157019 1_555
Co2 S17 2.164744 1_555
Co2 S21 2.164744 1_555
Co2 S3 2.240508 1_555
Co3 S9 2.157019 1_555
Co3 S25 2.164744 1_555
Co3 S18 2.164744 1_556
Co3 S1 2.240508 1_556
Co4 S10 2.157019 1_555
Co4 S19 2.164744 1_555
Co4 S15 2.164744 1_655
Co4 S1 2.240508 1_655
Co5 S10 2.157019 1_555
Co5 S22 2.164744 1_555
Co5 S20 2.164744 1_555
Co5 S4 2.240508 1_555
Co6 S8 2.157019 1_555
Co6 S23 2.164744 1_555
Co6 S20 2.164744 1_565
Co6 S5 2.240508 1_565
Co7 S7 2.157019 1_555
Co7 S17 2.164744 1_555
Co7 S21 2.164744 1_555
Co7 S2 2.240508 1_555
Co8 S7 2.157019 1_555
Co8 S22 2.164744 1_555
Co8 S20 2.164744 1_555
Co8 S5 2.240508 1_555
Co9 S11 2.157019 1_555
Co9 S23 2.164744 1_555
Co9 S20 2.164744 1_565
Co9 S4 2.240508 1_565
Co10 S12 2.157019 1_555
Co10 S16 2.164744 1_555
Co10 S21 2.164744 1_565
Co10 S3 2.240508 1_565
Co11 S13 2.157019 1_555
Co11 S26 2.164744 1_555
Co11 S22 2.164744 1_556
Co11 S4 2.240508 1_556
Co12 S11 2.157019 1_555
Co12 S24 2.164744 1_565
Co12 S16 2.164744 1_655
Co12 S2 2.240508 1_665
Co13 S13 2.157019 1_555
Co13 S24 2.164744 1_555
Co13 S17 2.164744 1_655
Co13 S3 2.240508 1_655
Co14 S12 2.157019 1_555
Co14 S26 2.164744 1_565
Co14 S23 2.164744 1_556
Co14 S5 2.240508 1_566
Co15 S12 2.157019 1_555
Co15 S25 2.164744 1_555
Co15 S18 2.164744 1_556
Co15 S6 2.240508 1_556
Co16 S13 2.157019 1_555
Co16 S25 2.164744 1_655
Co16 S19 2.164744 1_556
Co16 S1 2.240508 1_656
Co17 S11 2.157019 1_555
Co17 S19 2.164744 1_555
Co17 S15 2.164744 1_655
Co17 S6 2.240508 1_655
Co18 S9 2.157019 1_555
Co18 S26 2.164744 1_555
Co18 S22 2.164744 1_556
Co18 S5 2.240508 1_556
Co19 S14 2.157019 1_555
Co19 S23 2.164744 1_556
Co19 S26 2.164744 1_565
Co19 S4 2.240508 1_566
Co20 S8 2.157019 1_555
Co20 S15 2.164744 1_555
Co20 S18 2.164744 1_555
Co20 S6 2.240508 1_555
Co21 S14 2.157019 1_555
Co21 S19 2.164744 1_556
Co21 S25 2.164744 1_655
Co21 S6 2.240508 1_656
Co22 S10 2.157019 1_555
Co22 S24 2.164744 1_555
Co22 S17 2.164744 1_655
Co22 S2 2.240508 1_655
Co23 S14 2.157019 1_555
Co23 S24 2.164744 1_565
Co23 S16 2.164744 1_655
Co23 S3 2.240508 1_665
Co24 S2 2.387019 1_555
Co24 S4 2.387019 1_455
Co24 S6 2.387019 1_545
Co24 S1 2.387019 1_555
Co24 S5 2.387019 1_555
Co24 S3 2.387019 1_554
