# generated using pymatgen
data_Li4WO5
_symmetry_space_group_name_H-M   'P 1'
_cell_length_a   5.15544820
_cell_length_b   5.19143302
_cell_length_c   7.90342630
_cell_angle_alpha   102.37561601
_cell_angle_beta   108.70920124
_cell_angle_gamma   101.43211624
_symmetry_Int_Tables_number   1
_chemical_formula_structural   Li4WO5
_chemical_formula_sum   'Li8 W2 O10'
_cell_volume   187.37171111
_cell_formula_units_Z   2
loop_
 _symmetry_equiv_pos_site_id
 _symmetry_equiv_pos_as_xyz
  1  'x, y, z'
loop_
 _atom_site_type_symbol
 _atom_site_label
 _atom_site_symmetry_multiplicity
 _atom_site_fract_x
 _atom_site_fract_y
 _atom_site_fract_z
 _atom_site_occupancy
  Li  Li0  1  0.69316800  0.00623500  0.39126300  1
  Li  Li1  1  0.32456700  0.50459800  0.10088500  1
  Li  Li2  1  0.12546700  0.49811600  0.69243200  1
  Li  Li3  1  0.50000000  0.00000000  0.00000000  1
  Li  Li4  1  0.67543300  0.49540200  0.89911500  1
  Li  Li5  1  0.87453300  0.50188400  0.30756800  1
  Li  Li6  1  0.30683200  0.99376500  0.60873700  1
  Li  Li7  1  0.50000000  0.50000000  0.50000000  1
  W  W0  1  0.89327100  0.99959200  0.78394900  1
  W  W1  1  0.10672900  0.00040800  0.21605100  1
  O  O0  1  0.28298900  0.76902900  0.33480300  1
  O  O1  1  0.47114700  0.24036400  0.24992100  1
  O  O2  1  0.52885300  0.75963600  0.75007900  1
  O  O3  1  0.72737500  0.76417000  0.15494900  1
  O  O4  1  0.71701100  0.23097100  0.66519700  1
  O  O5  1  0.91048700  0.21515000  0.04153500  1
  O  O6  1  0.09359300  0.24116400  0.42805900  1
  O  O7  1  0.08951300  0.78485000  0.95846500  1
  O  O8  1  0.27262500  0.23583000  0.84505100  1
  O  O9  1  0.90640700  0.75883700  0.57194100  1
loop_
_geom_bond_atom_site_label_1
_geom_bond_atom_site_label_2
_geom_bond_distance
_geom_bond_site_symmetry_2
Li0 O6 2.073265 1_655
Li0 O0 2.077053 1_545
Li0 O1 2.085331 1_555
Li0 O3 2.095634 1_545
Li0 O4 2.180209 1_555
Li0 O9 2.288225 1_545
Li1 O1 2.091096 1_555
Li1 O3 2.094179 1_555
Li1 O8 2.098125 1_554
Li1 O0 2.152063 1_555
Li1 O5 2.195239 1_455
Li1 O7 2.319060 1_554
Li2 O2 2.093674 1_555
Li2 O8 2.100246 1_555
Li2 O9 2.117262 1_455
Li2 O6 2.161101 1_555
Li2 O4 2.197174 1_455
Li2 O7 2.385126 1_555
Li3 O7 2.072187 1_544
Li3 O5 2.072187 1_555
Li3 O3 2.159479 1_545
Li3 O8 2.159479 1_554
Li3 O2 2.164795 1_544
Li3 O1 2.164795 1_555
Li4 O2 2.091096 1_555
Li4 O8 2.094179 1_555
Li4 O3 2.098125 1_556
Li4 O4 2.152063 1_555
Li4 O7 2.195239 1_655
Li4 O5 2.319060 1_556
Li5 O1 2.093674 1_555
Li5 O3 2.100246 1_555
Li5 O6 2.117258 1_655
Li5 O9 2.161103 1_555
Li5 O0 2.197174 1_655
Li5 O5 2.385126 1_555
Li6 O9 2.073263 1_455
Li6 O4 2.077053 1_565
Li6 O2 2.085331 1_555
Li6 O8 2.095634 1_565
Li6 O0 2.180209 1_555
Li6 O6 2.288229 1_565
Li7 O6 2.076294 1_555
Li7 O9 2.076296 1_555
Li7 O1 2.082157 1_555
Li7 O2 2.082157 1_555
Li7 O0 2.317521 1_555
Li7 O4 2.317521 1_555
O0 W1 1.875701 1_565
O1 W1 1.939019 1_555
O2 W0 1.939019 1_555
O3 W1 1.936915 1_665
O4 W0 1.875701 1_545
O5 W0 2.067095 1_544
O5 W1 2.092791 1_655
O6 W1 1.892888 1_555
O7 W1 2.067095 1_566
O7 W0 2.092791 1_455
O8 W0 1.936915 1_445
O9 W0 1.892885 1_555
