# generated using pymatgen
data_Ag3AsSe3
_symmetry_space_group_name_H-M   'P 1'
_cell_length_a   7.18505447
_cell_length_b   7.18505502
_cell_length_c   7.18505440
_cell_angle_alpha   103.91348149
_cell_angle_beta   103.91348650
_cell_angle_gamma   103.91348016
_symmetry_Int_Tables_number   1
_chemical_formula_structural   Ag3AsSe3
_chemical_formula_sum   'Ag6 As2 Se6'
_cell_volume   331.50635423
_cell_formula_units_Z   2
loop_
 _symmetry_equiv_pos_site_id
 _symmetry_equiv_pos_as_xyz
  1  'x, y, z'
loop_
 _atom_site_type_symbol
 _atom_site_label
 _atom_site_symmetry_multiplicity
 _atom_site_fract_x
 _atom_site_fract_y
 _atom_site_fract_z
 _atom_site_occupancy
  Ag  Ag0  1  0.97893403  0.41391903  0.75960361  1
  Ag  Ag1  1  0.41391903  0.75960361  0.97893403  1
  Ag  Ag2  1  0.75960361  0.97893403  0.41391903  1
  Ag  Ag3  1  0.25960361  0.91391903  0.47893403  1
  Ag  Ag4  1  0.91391903  0.47893403  0.25960361  1
  Ag  Ag5  1  0.47893403  0.25960361  0.91391903  1
  As  As0  1  0.50726362  0.50726362  0.50726362  1
  As  As1  1  0.00726362  0.00726362  0.00726362  1
  Se  Se0  1  0.77815170  0.75520049  0.09072553  1
  Se  Se1  1  0.75520049  0.09072553  0.77815170  1
  Se  Se2  1  0.27815170  0.59072553  0.25520049  1
  Se  Se3  1  0.59072553  0.25520049  0.27815170  1
  Se  Se4  1  0.25520049  0.27815170  0.59072553  1
  Se  Se5  1  0.09072553  0.77815170  0.75520049  1
loop_
_geom_bond_atom_site_label_1
_geom_bond_atom_site_label_2
_geom_bond_distance
_geom_bond_site_symmetry_2
Ag0 Se1 2.539883 1_555
Ag0 Se5 2.556590 1_655
Ag0 Se4 2.807918 1_655
Ag1 Se5 2.539883 1_555
Ag1 Se0 2.556590 1_556
Ag1 Se2 2.807918 1_556
Ag2 Se0 2.539883 1_555
Ag2 Se1 2.556590 1_565
Ag2 Se3 2.807918 1_565
Ag3 Se2 2.539883 1_555
Ag3 Se4 2.556590 1_565
Ag3 Se5 2.807918 1_555
Ag4 Se3 2.539883 1_555
Ag4 Se2 2.556590 1_655
Ag4 Se0 2.807918 1_555
Ag5 Se4 2.539883 1_555
Ag5 Se3 2.556590 1_556
Ag5 Se1 2.807918 1_555
As0 Se2 2.431632 1_555
As0 Se3 2.431632 1_555
As0 Se4 2.431632 1_555
As1 Se1 2.431632 1_454
As1 Se5 2.431632 1_544
As1 Se0 2.431632 1_445
