# generated using pymatgen
data_Cs5Si3AgO9
_symmetry_space_group_name_H-M   'P 1'
_cell_length_a   6.62041900
_cell_length_b   9.89331500
_cell_length_c   11.79701685
_cell_angle_alpha   86.18101321
_cell_angle_beta   90.00000000
_cell_angle_gamma   90.00000000
_symmetry_Int_Tables_number   1
_chemical_formula_structural   Cs5Si3AgO9
_chemical_formula_sum   'Cs10 Si6 Ag2 O18'
_cell_volume   770.96394612
_cell_formula_units_Z   2
loop_
 _symmetry_equiv_pos_site_id
 _symmetry_equiv_pos_as_xyz
  1  'x, y, z'
loop_
 _atom_site_type_symbol
 _atom_site_label
 _atom_site_symmetry_multiplicity
 _atom_site_fract_x
 _atom_site_fract_y
 _atom_site_fract_z
 _atom_site_occupancy
  Cs  Cs0  1  0.25000000  0.33919900  0.06338700  1
  Cs  Cs1  1  0.75000000  0.95197500  0.61856600  1
  Cs  Cs2  1  0.25000000  0.22269800  0.68577300  1
  Cs  Cs3  1  0.25000000  0.04802500  0.38143400  1
  Cs  Cs4  1  0.25000000  0.72583300  0.14194200  1
  Cs  Cs5  1  0.25000000  0.46117200  0.39823200  1
  Cs  Cs6  1  0.75000000  0.66080100  0.93661300  1
  Cs  Cs7  1  0.75000000  0.53882800  0.60176800  1
  Cs  Cs8  1  0.75000000  0.27416700  0.85805800  1
  Cs  Cs9  1  0.75000000  0.77730200  0.31422700  1
  Si  Si0  1  0.25000000  0.86984900  0.79935300  1
  Si  Si1  1  0.75000000  0.13015100  0.20064700  1
  Si  Si2  1  0.25000000  0.55726300  0.79046200  1
  Si  Si3  1  0.75000000  0.25368000  0.43515300  1
  Si  Si4  1  0.25000000  0.74632000  0.56484700  1
  Si  Si5  1  0.75000000  0.44273700  0.20953800  1
  Ag  Ag0  1  0.00000000  0.00000000  0.00000000  1
  Ag  Ag1  1  0.50000000  0.00000000  0.00000000  1
  O  O0  1  0.45664600  0.75699200  0.49207800  1
  O  O1  1  0.95769600  0.05297200  0.16486700  1
  O  O2  1  0.45769600  0.94702800  0.83513300  1
  O  O3  1  0.45579900  0.47617300  0.82490700  1
  O  O4  1  0.95664600  0.24300800  0.50792200  1
  O  O5  1  0.04420100  0.47617300  0.82490700  1
  O  O6  1  0.25000000  0.70928300  0.85259300  1
  O  O7  1  0.75000000  0.12910000  0.34140200  1
  O  O8  1  0.75000000  0.39876600  0.35023900  1
  O  O9  1  0.04230400  0.94702800  0.83513300  1
  O  O10  1  0.25000000  0.60123400  0.64976100  1
  O  O11  1  0.54230400  0.05297200  0.16486700  1
  O  O12  1  0.75000000  0.29071700  0.14740700  1
  O  O13  1  0.54335400  0.24300800  0.50792200  1
  O  O14  1  0.54420100  0.52382700  0.17509300  1
  O  O15  1  0.04335400  0.75699200  0.49207800  1
  O  O16  1  0.95579900  0.52382700  0.17509300  1
  O  O17  1  0.25000000  0.87090000  0.65859800  1
loop_
_geom_bond_atom_site_label_1
_geom_bond_atom_site_label_2
_geom_bond_distance
_geom_bond_site_symmetry_2
Cs0 O16 3.031057 1_455
Cs0 O14 3.031057 1_555
Cs0 O5 3.331638 1_554
Cs0 O3 3.331638 1_554
Cs0 O12 3.479464 1_455
Cs0 O12 3.479464 1_555
Cs0 O11 3.570046 1_555
Cs0 O1 3.570046 1_455
Cs1 O15 3.178529 1_655
Cs1 O0 3.178529 1_555
Cs1 O9 3.202791 1_655
Cs1 O2 3.202791 1_555
Cs1 O4 3.371203 1_565
Cs1 O13 3.371203 1_565
Cs1 O17 3.431242 1_655
Cs1 O17 3.431242 1_555
Cs1 O7 3.605342 1_565
Cs2 O4 2.856246 1_455
Cs2 O13 2.856246 1_555
Cs3 O4 3.178529 1_455
Cs3 O13 3.178529 1_555
Cs3 O1 3.202791 1_455
Cs3 O11 3.202791 1_555
Cs3 O15 3.371203 1_545
Cs3 O0 3.371203 1_545
Cs3 O7 3.431242 1_455
Cs3 O7 3.431242 1_555
Cs3 O17 3.605342 1_545
Cs4 O16 2.799382 1_455
Cs4 O14 2.799382 1_555
Cs5 O4 3.119747 1_455
Cs5 O13 3.119747 1_555
Cs5 O14 3.299990 1_555
Cs5 O16 3.299990 1_455
Cs5 O10 3.357475 1_555
Cs5 O8 3.421373 1_455
Cs5 O8 3.421373 1_555
Cs5 O15 3.477666 1_555
Cs5 O0 3.477666 1_555
Cs6 O5 3.031057 1_655
Cs6 O3 3.031057 1_555
Cs6 O16 3.331638 1_556
Cs6 O14 3.331638 1_556
Cs6 O6 3.479464 1_555
Cs6 O6 3.479464 1_655
Cs6 O9 3.570046 1_655
Cs6 O2 3.570046 1_555
Cs7 O15 3.119747 1_655
Cs7 O0 3.119747 1_555
Cs7 O5 3.299990 1_655
Cs7 O3 3.299990 1_555
Cs7 O8 3.357475 1_555
Cs7 O10 3.421373 1_555
Cs7 O10 3.421373 1_655
Cs7 O4 3.477666 1_555
Cs7 O13 3.477666 1_555
Cs8 O3 2.799382 1_555
Cs8 O5 2.799382 1_655
Cs9 O15 2.856246 1_655
Cs9 O0 2.856246 1_555
Ag0 O9 2.066797 1_544
Ag0 O1 2.066797 1_455
Ag1 O2 2.066797 1_544
Ag1 O11 2.066797 1_555
O0 Si4 1.614829 1_555
O1 Si1 1.641596 1_555
O2 Si0 1.641596 1_555
O3 Si2 1.619147 1_555
O4 Si3 1.614829 1_555
O5 Si2 1.619147 1_555
O6 Si0 1.668832 1_555
O6 Si2 1.716402 1_555
O7 Si1 1.659829 1_555
O7 Si3 1.709929 1_555
O8 Si5 1.687651 1_555
O8 Si3 1.694771 1_555
O9 Si0 1.641596 1_555
O10 Si2 1.687651 1_555
O10 Si4 1.694771 1_555
O11 Si1 1.641596 1_555
O12 Si1 1.668832 1_555
O12 Si5 1.716402 1_555
O13 Si3 1.614829 1_555
O14 Si5 1.619147 1_555
O15 Si4 1.614829 1_555
O16 Si5 1.619147 1_555
O17 Si0 1.659829 1_555
O17 Si4 1.709929 1_555
