# generated using pymatgen
data_MgCuAs
_symmetry_space_group_name_H-M   'P 1'
_cell_length_a   3.95459967
_cell_length_b   7.35366599
_cell_length_c   13.43008339
_cell_angle_alpha   90.00000000
_cell_angle_beta   90.00000000
_cell_angle_gamma   90.00000000
_symmetry_Int_Tables_number   1
_chemical_formula_structural   MgCuAs
_chemical_formula_sum   'Mg8 Cu8 As8'
_cell_volume   390.55763751
_cell_formula_units_Z   8
loop_
 _symmetry_equiv_pos_site_id
 _symmetry_equiv_pos_as_xyz
  1  'x, y, z'
loop_
 _atom_site_type_symbol
 _atom_site_label
 _atom_site_symmetry_multiplicity
 _atom_site_fract_x
 _atom_site_fract_y
 _atom_site_fract_z
 _atom_site_occupancy
  Mg  Mg0  1  0.25000000  0.32801699  0.14270024  1
  Mg  Mg1  1  0.25000000  0.44392922  0.39348663  1
  Mg  Mg2  1  0.75000000  0.94392922  0.10651337  1
  Mg  Mg3  1  0.75000000  0.82801699  0.35729976  1
  Mg  Mg4  1  0.75000000  0.55607078  0.60651337  1
  Mg  Mg5  1  0.75000000  0.67198301  0.85729976  1
  Mg  Mg6  1  0.25000000  0.05607078  0.89348663  1
  Mg  Mg7  1  0.25000000  0.17198301  0.64270024  1
  Cu  Cu0  1  0.25000000  0.06987546  0.43331786  1
  Cu  Cu1  1  0.25000000  0.69913650  0.18627648  1
  Cu  Cu2  1  0.75000000  0.56987546  0.06668214  1
  Cu  Cu3  1  0.25000000  0.43012454  0.93331786  1
  Cu  Cu4  1  0.25000000  0.80086350  0.68627648  1
  Cu  Cu5  1  0.75000000  0.93012454  0.56668214  1
  Cu  Cu6  1  0.75000000  0.30086350  0.81372352  1
  Cu  Cu7  1  0.75000000  0.19913650  0.31372352  1
  As  As0  1  0.25000000  0.74968057  0.50010637  1
  As  As1  1  0.75000000  0.25031943  0.49989363  1
  As  As2  1  0.75000000  0.24968057  -0.00010637  1
  As  As3  1  0.25000000  0.02037739  0.24667192  1
  As  As4  1  0.75000000  0.52037739  0.25332808  1
  As  As5  1  0.25000000  0.47962261  0.74667192  1
  As  As6  1  0.25000000  0.75031943  0.00010637  1
  As  As7  1  0.75000000  0.97962261  0.75332808  1
loop_
_geom_bond_atom_site_label_1
_geom_bond_atom_site_label_2
_geom_bond_distance
_geom_bond_site_symmetry_2
Cu0 Cu7 2.719008 1_555
Cu0 Cu7 2.719008 1_455
Cu0 Mg1 2.802200 1_555
Cu0 Mg3 2.848726 1_445
Cu0 Mg3 2.848726 1_545
Cu0 Cu5 2.858996 1_445
Cu0 Cu5 2.858996 1_545
Cu0 Mg7 2.910545 1_555
Cu1 Cu2 2.719008 1_555
Cu1 Cu2 2.719008 1_455
Cu1 Mg0 2.791133 1_555
Cu1 Mg2 2.880570 1_455
Cu1 Mg2 2.880570 1_555
Cu1 Mg3 3.175450 1_555
Cu1 Mg3 3.175450 1_455
Cu2 Mg2 2.802200 1_555
Cu2 Mg0 2.848726 1_555
Cu2 Mg0 2.848726 1_655
Cu2 Cu3 2.858996 1_654
Cu2 Cu3 2.858996 1_554
Cu2 Mg5 2.910545 1_554
Cu3 Cu6 2.719008 1_555
Cu3 Cu6 2.719008 1_455
Cu3 Mg6 2.802200 1_555
Cu3 Mg5 2.848726 1_455
Cu3 Mg5 2.848726 1_555
Cu3 Mg0 2.910545 1_556
Cu4 Cu5 2.719008 1_455
Cu4 Cu5 2.719008 1_555
Cu4 Mg7 2.791133 1_565
Cu4 Mg4 2.880570 1_455
Cu4 Mg4 2.880570 1_555
Cu4 Mg5 3.175450 1_555
Cu4 Mg5 3.175450 1_455
Cu5 Mg4 2.802200 1_555
Cu5 Mg7 2.848726 1_565
Cu5 Mg7 2.848726 1_665
Cu5 Mg3 2.910545 1_555
Cu6 Mg5 2.791133 1_555
Cu6 Mg6 2.880570 1_555
Cu6 Mg6 2.880570 1_655
Cu6 Mg7 3.175450 1_555
Cu6 Mg7 3.175450 1_655
Cu7 Mg3 2.791133 1_545
Cu7 Mg1 2.880570 1_555
Cu7 Mg1 2.880570 1_655
Cu7 Mg0 3.175450 1_655
Cu7 Mg0 3.175450 1_555
As0 Cu0 2.519670 1_565
As0 Cu4 2.528451 1_555
As0 Cu5 2.543598 1_455
As0 Cu5 2.543598 1_555
As0 Mg1 2.665641 1_555
As0 Mg3 2.814235 1_455
As0 Mg3 2.814235 1_555
As0 Mg4 2.824704 1_455
As0 Mg4 2.824704 1_555
As1 Cu5 2.519670 1_545
As1 Cu7 2.528451 1_555
As1 Cu0 2.543598 1_655
As1 Cu0 2.543598 1_555
As1 Mg4 2.665641 1_555
As1 Mg7 2.814235 1_655
As1 Mg7 2.814235 1_555
As1 Mg1 2.824704 1_555
As1 Mg1 2.824704 1_655
As2 Cu2 2.519670 1_555
As2 Cu6 2.528451 1_554
As2 Cu3 2.543598 1_554
As2 Cu3 2.543598 1_654
As2 Mg2 2.665641 1_545
As2 Mg0 2.814235 1_555
As2 Mg0 2.814235 1_655
As2 Mg6 2.824704 1_654
As2 Mg6 2.824704 1_554
As3 Cu1 2.497671 1_545
As3 Cu0 2.532960 1_555
As3 Cu7 2.539416 1_455
As3 Cu7 2.539416 1_555
As3 Mg0 2.658514 1_555
As3 Mg2 2.787286 1_445
As3 Mg2 2.787286 1_545
As3 Mg3 2.849229 1_445
As3 Mg3 2.849229 1_545
As4 Cu7 2.497671 1_555
As4 Cu2 2.532960 1_555
As4 Cu1 2.539416 1_555
As4 Cu1 2.539416 1_655
As4 Mg3 2.658514 1_555
As4 Mg1 2.787286 1_655
As4 Mg1 2.787286 1_555
As4 Mg0 2.849229 1_555
As4 Mg0 2.849229 1_655
As5 Cu4 2.497671 1_555
As5 Cu3 2.532960 1_555
As5 Cu6 2.539416 1_455
As5 Cu6 2.539416 1_555
As5 Mg7 2.658514 1_555
As5 Mg4 2.787286 1_455
As5 Mg4 2.787286 1_555
As5 Mg5 2.849229 1_455
As5 Mg5 2.849229 1_555
As6 Cu3 2.519670 1_554
As6 Cu1 2.528451 1_555
As6 Cu2 2.543598 1_455
As6 Cu2 2.543598 1_555
As6 Mg6 2.665641 1_564
As6 Mg5 2.814235 1_454
As6 Mg5 2.814235 1_554
As6 Mg2 2.824704 1_555
As6 Mg2 2.824704 1_455
As7 Cu6 2.497671 1_565
As7 Cu5 2.532960 1_555
As7 Cu4 2.539416 1_555
As7 Cu4 2.539416 1_655
As7 Mg5 2.658514 1_555
As7 Mg6 2.787286 1_665
As7 Mg6 2.787286 1_565
As7 Mg7 2.849229 1_565
As7 Mg7 2.849229 1_665
