# generated using pymatgen
data_Cr6P7O24
_symmetry_space_group_name_H-M   'P 1'
_cell_length_a   27.73758300
_cell_length_b   5.32482100
_cell_length_c   6.45322379
_cell_angle_alpha   73.04958133
_cell_angle_beta   90.00000000
_cell_angle_gamma   90.00000000
_symmetry_Int_Tables_number   1
_chemical_formula_structural   Cr6P7O24
_chemical_formula_sum   'Cr12 P14 O48'
_cell_volume   911.71981122
_cell_formula_units_Z   2
loop_
 _symmetry_equiv_pos_site_id
 _symmetry_equiv_pos_as_xyz
  1  'x, y, z'
loop_
 _atom_site_type_symbol
 _atom_site_label
 _atom_site_symmetry_multiplicity
 _atom_site_fract_x
 _atom_site_fract_y
 _atom_site_fract_z
 _atom_site_occupancy
  Cr  Cr0  1  0.59759000  0.80699100  0.07245300  1
  Cr  Cr1  1  0.40241000  0.19300900  0.92754700  1
  Cr  Cr2  1  0.90241000  0.80699100  0.07245300  1
  Cr  Cr3  1  0.04730600  0.80169300  0.69260200  1
  Cr  Cr4  1  0.31512400  0.85721400  0.28777800  1
  Cr  Cr5  1  0.68487600  0.14278600  0.71222200  1
  Cr  Cr6  1  0.54730600  0.19830700  0.30739800  1
  Cr  Cr7  1  0.45269400  0.80169300  0.69260200  1
  Cr  Cr8  1  0.95269400  0.19830700  0.30739800  1
  Cr  Cr9  1  0.81512400  0.14278600  0.71222200  1
  Cr  Cr10  1  0.09759000  0.19300900  0.92754700  1
  Cr  Cr11  1  0.18487600  0.85721400  0.28777800  1
  P  P0  1  0.11027300  0.30272700  0.38788600  1
  P  P1  1  0.16978700  0.71928600  0.82273700  1
  P  P2  1  0.66978700  0.28071400  0.17726300  1
  P  P3  1  0.88972700  0.69727300  0.61211400  1
  P  P4  1  0.02780200  0.69031700  0.20925000  1
  P  P5  1  0.83021300  0.28071400  0.17726300  1
  P  P6  1  0.38972700  0.30272700  0.38788600  1
  P  P7  1  0.97219800  0.30968300  0.79075000  1
  P  P8  1  0.25000000  0.43310800  0.10758600  1
  P  P9  1  0.61027300  0.69727300  0.61211400  1
  P  P10  1  0.33021300  0.71928600  0.82273700  1
  P  P11  1  0.75000000  0.56689200  0.89241400  1
  P  P12  1  0.52780200  0.30968300  0.79075000  1
  P  P13  1  0.47219800  0.69031700  0.20925000  1
  O  O0  1  0.30874900  0.85116500  0.60223300  1
  O  O1  1  0.25000000  0.14141200  0.23261400  1
  O  O2  1  0.02160800  0.42177600  0.82090500  1
  O  O3  1  0.69125100  0.14883500  0.39776700  1
  O  O4  1  0.37793500  0.57439900  0.81918200  1
  O  O5  1  0.66794300  0.09573400  0.03291700  1
  O  O6  1  0.97839200  0.57822400  0.17909500  1
  O  O7  1  0.75000000  0.36315100  0.76392900  1
  O  O8  1  0.52846200  0.16813600  0.61808300  1
  O  O9  1  0.59311000  0.86371400  0.38582600  1
  O  O10  1  0.04917300  0.86993800  0.99569400  1
  O  O11  1  0.56124100  0.56706900  0.72875900  1
  O  O12  1  0.93875900  0.56706900  0.72875900  1
  O  O13  1  0.16794300  0.90426600  0.96708300  1
  O  O14  1  0.47153800  0.83186400  0.38191700  1
  O  O15  1  0.29496600  0.47595200  0.95075800  1
  O  O16  1  0.97153800  0.16813600  0.61808300  1
  O  O17  1  0.75000000  0.85858800  0.76738600  1
  O  O18  1  0.12479700  0.12277500  0.24725800  1
  O  O19  1  0.09311000  0.13628600  0.61417400  1
  O  O20  1  0.79496600  0.52404800  0.04924200  1
  O  O21  1  0.70503400  0.52404800  0.04924200  1
  O  O22  1  0.33205700  0.90426600  0.96708300  1
  O  O23  1  0.90689000  0.86371400  0.38582600  1
  O  O24  1  0.83205700  0.09573400  0.03291700  1
  O  O25  1  0.19125100  0.85116500  0.60223300  1
  O  O26  1  0.87520300  0.87722500  0.75274200  1
  O  O27  1  0.25000000  0.63684900  0.23607100  1
  O  O28  1  0.85267400  0.49394600  0.60833300  1
  O  O29  1  0.40689000  0.13628600  0.61417400  1
  O  O30  1  0.62479700  0.87722500  0.75274200  1
  O  O31  1  0.06124100  0.43293100  0.27124100  1
  O  O32  1  0.64732600  0.49394600  0.60833300  1
  O  O33  1  0.14732600  0.50605400  0.39166700  1
  O  O34  1  0.12206500  0.57439900  0.81918200  1
  O  O35  1  0.95082700  0.13006200  0.00430600  1
  O  O36  1  0.43875900  0.43293100  0.27124100  1
  O  O37  1  0.20503400  0.47595200  0.95075800  1
  O  O38  1  0.45082700  0.86993800  0.99569400  1
  O  O39  1  0.02846200  0.83186400  0.38191700  1
  O  O40  1  0.37520300  0.12277500  0.24725800  1
  O  O41  1  0.35267400  0.50605400  0.39166700  1
  O  O42  1  0.62206500  0.42560100  0.18081800  1
  O  O43  1  0.47839200  0.42177600  0.82090500  1
  O  O44  1  0.52160800  0.57822400  0.17909500  1
  O  O45  1  0.87793500  0.42560100  0.18081800  1
  O  O46  1  0.80874900  0.14883500  0.39776700  1
  O  O47  1  0.54917300  0.13006200  0.00430600  1
loop_
_geom_bond_atom_site_label_1
_geom_bond_atom_site_label_2
_geom_bond_distance
_geom_bond_site_symmetry_2
Cr0 O42 2.060607 1_555
Cr0 O47 2.124914 1_565
Cr0 O30 2.125117 1_554
Cr0 O9 2.133631 1_555
Cr0 O44 2.431144 1_555
Cr0 O5 2.451190 1_565
Cr1 O4 2.060607 1_555
Cr1 O38 2.124914 1_545
Cr1 O40 2.125117 1_556
Cr1 O29 2.133631 1_555
Cr1 O43 2.431144 1_555
Cr1 O22 2.451190 1_545
Cr2 O45 2.060607 1_555
Cr2 O35 2.124914 1_565
Cr2 O26 2.125117 1_554
Cr2 O23 2.133631 1_555
Cr2 O6 2.431144 1_555
Cr2 O24 2.451190 1_565
Cr3 O39 2.032462 1_555
Cr3 O2 2.075921 1_555
Cr3 O10 2.091602 1_555
Cr3 O19 2.125745 1_565
Cr3 O34 2.419828 1_555
Cr4 O0 2.027817 1_555
Cr4 O22 2.064930 1_554
Cr4 O41 2.073576 1_555
Cr4 O40 2.151603 1_565
Cr4 O27 2.231487 1_555
Cr4 O1 2.316401 1_565
Cr5 O3 2.027817 1_555
Cr5 O5 2.064930 1_556
Cr5 O32 2.073576 1_555
Cr5 O30 2.151603 1_545
Cr5 O7 2.231487 1_555
Cr5 O17 2.316401 1_545
Cr6 O8 2.032462 1_555
Cr6 O44 2.075921 1_555
Cr6 O47 2.091602 1_555
Cr6 O9 2.125745 1_545
Cr6 O42 2.419828 1_555
Cr7 O14 2.032462 1_555
Cr7 O43 2.075921 1_555
Cr7 O38 2.091602 1_555
Cr7 O29 2.125745 1_565
Cr7 O4 2.419828 1_555
Cr8 O16 2.032462 1_555
Cr8 O6 2.075921 1_555
Cr8 O35 2.091602 1_555
Cr8 O23 2.125745 1_545
Cr8 O45 2.419828 1_555
Cr9 O46 2.027817 1_555
Cr9 O24 2.064930 1_556
Cr9 O28 2.073576 1_555
Cr9 O26 2.151603 1_545
Cr9 O7 2.231487 1_555
Cr9 O17 2.316401 1_545
Cr10 O34 2.060607 1_555
Cr10 O10 2.124914 1_545
Cr10 O18 2.125117 1_556
Cr10 O19 2.133631 1_555
Cr10 O2 2.431144 1_555
Cr10 O13 2.451190 1_545
Cr11 O25 2.027817 1_555
Cr11 O13 2.064930 1_554
Cr11 O33 2.073576 1_555
Cr11 O18 2.151603 1_565
Cr11 O27 2.231487 1_555
Cr11 O1 2.316401 1_565
O0 P10 1.513193 1_555
O1 P8 1.527343 1_555
O2 P7 1.529759 1_455
O3 P2 1.513193 1_555
O4 P10 1.535649 1_555
O5 P2 1.541262 1_555
O6 P4 1.529759 1_655
O7 P11 1.545624 1_555
O8 P12 1.516471 1_555
O9 P9 1.545932 1_555
O10 P4 1.548173 1_556
O11 P12 1.605925 1_555
O11 P9 1.610177 1_555
O12 P7 1.605925 1_555
O12 P3 1.610177 1_555
O13 P1 1.541262 1_555
O14 P13 1.516471 1_555
O15 P8 1.580280 1_556
O15 P10 1.641052 1_555
O16 P7 1.516471 1_555
O17 P11 1.527343 1_555
O18 P0 1.552763 1_555
O19 P0 1.545932 1_555
O20 P11 1.580280 1_554
O20 P5 1.641052 1_555
O21 P11 1.580280 1_554
O21 P2 1.641052 1_555
O22 P10 1.541262 1_555
O23 P3 1.545932 1_555
O24 P5 1.541262 1_555
O25 P1 1.513193 1_555
O26 P3 1.552763 1_555
O27 P8 1.545624 1_555
O28 P3 1.498161 1_555
O29 P6 1.545932 1_555
O30 P9 1.552763 1_555
O31 P4 1.605925 1_555
O31 P0 1.610177 1_555
O32 P9 1.498161 1_555
O33 P0 1.498161 1_555
O34 P1 1.535649 1_555
O35 P7 1.548173 1_554
O36 P13 1.605925 1_555
O36 P6 1.610177 1_555
O37 P8 1.580280 1_556
O37 P1 1.641052 1_555
O38 P13 1.548173 1_556
O39 P4 1.516471 1_555
O40 P6 1.552763 1_555
O41 P6 1.498161 1_555
O42 P2 1.535649 1_555
O43 P12 1.529759 1_555
O44 P13 1.529759 1_555
O45 P5 1.535649 1_555
O46 P5 1.513193 1_555
O47 P12 1.548173 1_554
