# generated using pymatgen
data_Si2H18C7N2
_symmetry_space_group_name_H-M   'P 1'
_cell_length_a   11.47820100
_cell_length_b   10.01342400
_cell_length_c   12.28868021
_cell_angle_alpha   77.41447809
_cell_angle_beta   90.00000000
_cell_angle_gamma   90.00000000
_symmetry_Int_Tables_number   1
_chemical_formula_structural   Si2H18C7N2
_chemical_formula_sum   'Si8 H72 C28 N8'
_cell_volume   1378.47523184
_cell_formula_units_Z   4
loop_
 _symmetry_equiv_pos_site_id
 _symmetry_equiv_pos_as_xyz
  1  'x, y, z'
loop_
 _atom_site_type_symbol
 _atom_site_label
 _atom_site_symmetry_multiplicity
 _atom_site_fract_x
 _atom_site_fract_y
 _atom_site_fract_z
 _atom_site_occupancy
  Si  Si0  1  0.45604100  0.98994300  0.26787000  1
  Si  Si1  1  0.26720000  0.43630100  0.46690300  1
  Si  Si2  1  0.73280000  0.56369900  0.53309700  1
  Si  Si3  1  0.76720000  0.56369900  0.03309700  1
  Si  Si4  1  0.23280000  0.43630100  0.96690300  1
  Si  Si5  1  0.54395900  0.01005700  0.73213000  1
  Si  Si6  1  0.95604100  0.01005700  0.23213000  1
  Si  Si7  1  0.04395900  0.98994300  0.76787000  1
  H  H0  1  0.86431300  0.42958200  0.20270000  1
  H  H1  1  0.10235400  0.47509500  0.33206800  1
  H  H2  1  0.63568700  0.42958200  0.70270000  1
  H  H3  1  0.66809900  0.43952700  0.90387100  1
  H  H4  1  0.11117400  0.03686600  0.94936700  1
  H  H5  1  0.85390000  0.69917800  0.63856300  1
  H  H6  1  0.90533100  0.60469100  0.17947600  1
  H  H7  1  0.18290400  0.60929800  0.07821900  1
  H  H8  1  0.31709600  0.60929800  0.57821900  1
  H  H9  1  0.78628300  0.32441800  0.52767200  1
  H  H10  1  0.58748000  0.15556600  0.14648800  1
  H  H11  1  0.16809900  0.56047300  0.59612900  1
  H  H12  1  0.95778800  0.76260800  0.32251700  1
  H  H13  1  0.06020100  0.36420800  0.45953100  1
  H  H14  1  0.39764600  0.47509500  0.83206800  1
  H  H15  1  0.77613300  0.93183500  0.15272800  1
  H  H16  1  0.64610000  0.69917800  0.13856300  1
  H  H17  1  0.71371700  0.32441800  0.02767200  1
  H  H18  1  0.46910200  0.50419600  0.40109700  1
  H  H19  1  0.40533100  0.39530900  0.32052400  1
  H  H20  1  0.13568700  0.57041800  0.79730000  1
  H  H21  1  0.21371700  0.67558200  0.47232800  1
  H  H22  1  0.54221200  0.76260800  0.82251700  1
  H  H23  1  0.57100700  0.19813400  0.27895600  1
  H  H24  1  0.84727900  0.17651000  0.31819500  1
  H  H25  1  0.61117400  0.96313400  0.55063300  1
  H  H26  1  0.81104900  0.10229800  0.08424100  1
  H  H27  1  0.34727900  0.82349000  0.18180500  1
  H  H28  1  0.38882600  0.03686600  0.44936700  1
  H  H29  1  0.41252000  0.84443400  0.85351200  1
  H  H30  1  0.18693700  0.99505400  0.61528100  1
  H  H31  1  0.07100700  0.80186600  0.22104400  1
  H  H32  1  0.93979900  0.63579200  0.54046900  1
  H  H33  1  0.42899300  0.80186600  0.72104400  1
  H  H34  1  0.14610000  0.30082200  0.36143700  1
  H  H35  1  0.04221200  0.23739200  0.67748300  1
  H  H36  1  0.91252000  0.15556600  0.64648800  1
  H  H37  1  0.45778800  0.23739200  0.17748300  1
  H  H38  1  0.22386700  0.06816500  0.84727200  1
  H  H39  1  0.03089800  0.50419600  0.90109700  1
  H  H40  1  0.18895100  0.89770200  0.91575900  1
  H  H41  1  0.56020100  0.63579200  0.04046900  1
  H  H42  1  0.05308600  0.92060300  0.58530600  1
  H  H43  1  0.44691400  0.92060300  0.08530600  1
  H  H44  1  0.28628300  0.67558200  0.97232800  1
  H  H45  1  0.92899300  0.19813400  0.77895600  1
  H  H46  1  0.09466900  0.39530900  0.82052400  1
  H  H47  1  0.33190100  0.56047300  0.09612900  1
  H  H48  1  0.81306300  0.00494600  0.38471900  1
  H  H49  1  0.27613300  0.06816500  0.34727200  1
  H  H50  1  0.59466900  0.60469100  0.67947600  1
  H  H51  1  0.53089800  0.49580400  0.59890300  1
  H  H52  1  0.15272100  0.82349000  0.68180500  1
  H  H53  1  0.72386700  0.93183500  0.65272800  1
  H  H54  1  0.83190100  0.43952700  0.40387100  1
  H  H55  1  0.08748000  0.84443400  0.35351200  1
  H  H56  1  0.65272100  0.17651000  0.81819500  1
  H  H57  1  0.94691400  0.07939700  0.41469400  1
  H  H58  1  0.35390000  0.30082200  0.86143700  1
  H  H59  1  0.81709600  0.39070200  0.92178100  1
  H  H60  1  0.68693700  0.00494600  0.88471900  1
  H  H61  1  0.43979900  0.36420800  0.95953100  1
  H  H62  1  0.89764600  0.52490500  0.66793200  1
  H  H63  1  0.88882600  0.96313400  0.05063300  1
  H  H64  1  0.31104900  0.89770200  0.41575900  1
  H  H65  1  0.55308600  0.07939700  0.91469400  1
  H  H66  1  0.31306300  0.99505400  0.11528100  1
  H  H67  1  0.96910200  0.49580400  0.09890300  1
  H  H68  1  0.68290400  0.39070200  0.42178100  1
  H  H69  1  0.36431300  0.57041800  0.29730000  1
  H  H70  1  0.60235400  0.52490500  0.16793200  1
  H  H71  1  0.68895100  0.10229800  0.58424100  1
  C  C0  1  0.63151800  0.61032200  0.10118100  1
  C  C1  1  0.23904400  0.58394200  0.53487500  1
  C  C2  1  0.26095600  0.58394200  0.03487500  1
  C  C3  1  0.38793300  0.48006800  0.36200200  1
  C  C4  1  0.34834800  0.99908500  0.38078700  1
  C  C5  1  0.36848200  0.38967800  0.89881900  1
  C  C6  1  0.37381500  0.21134500  0.62145300  1
  C  C7  1  0.61206700  0.51993200  0.63799800  1
  C  C8  1  0.65165200  0.00091500  0.61921300  1
  C  C9  1  0.47536600  0.83850800  0.78721500  1
  C  C10  1  0.97536600  0.16149200  0.71278500  1
  C  C11  1  0.52463400  0.16149200  0.21278500  1
  C  C12  1  0.88426600  0.07380600  0.34815300  1
  C  C13  1  0.76095600  0.41605800  0.46512500  1
  C  C14  1  0.84834800  0.00091500  0.11921300  1
  C  C15  1  0.38426600  0.92619400  0.15184700  1
  C  C16  1  0.61573400  0.07380600  0.84815300  1
  C  C17  1  0.12618500  0.21134500  0.12145300  1
  C  C18  1  0.11206700  0.48006800  0.86200200  1
  C  C19  1  0.13151800  0.38967800  0.39881900  1
  C  C20  1  0.02463400  0.83850800  0.28721500  1
  C  C21  1  0.15165200  0.99908500  0.88078700  1
  C  C22  1  0.87381500  0.78865500  0.87854700  1
  C  C23  1  0.73904400  0.41605800  0.96512500  1
  C  C24  1  0.88793300  0.51993200  0.13799800  1
  C  C25  1  0.11573400  0.92619400  0.65184700  1
  C  C26  1  0.62618500  0.78865500  0.37854700  1
  C  C27  1  0.86848200  0.61032200  0.60118100  1
  N  N0  1  0.43360800  0.12209500  0.67720900  1
  N  N1  1  0.30719500  0.29720500  0.57027300  1
  N  N2  1  0.19280500  0.29720500  0.07027300  1
  N  N3  1  0.93360800  0.87790500  0.82279100  1
  N  N4  1  0.56639200  0.87790500  0.32279100  1
  N  N5  1  0.80719500  0.70279500  0.92972700  1
  N  N6  1  0.06639200  0.12209500  0.17720900  1
  N  N7  1  0.69280500  0.70279500  0.42972700  1
loop_
_geom_bond_atom_site_label_1
_geom_bond_atom_site_label_2
_geom_bond_distance
_geom_bond_site_symmetry_2
C0 H16 1.099465 1_555
C0 H41 1.099471 1_555
C0 H70 1.100333 1_555
C0 Si3 1.874468 1_555
C1 H11 1.099027 1_555
C1 H8 1.099881 1_555
C1 H21 1.099984 1_555
C1 Si1 1.877750 1_555
C2 H47 1.099027 1_555
C2 H7 1.099881 1_555
C2 H44 1.099984 1_554
C2 Si4 1.877750 1_554
C3 H18 1.098991 1_555
C3 H19 1.099340 1_555
C3 H69 1.100324 1_555
C3 Si1 1.878315 1_555
C4 H28 1.099170 1_565
C4 H64 1.099303 1_555
C4 H49 1.100468 1_565
C4 Si0 1.875412 1_555
C5 H58 1.099465 1_555
C5 H61 1.099471 1_555
C5 H14 1.100333 1_555
C5 Si4 1.874468 1_555
C6 N0 1.213396 1_555
C6 N1 1.218121 1_555
C7 H51 1.098991 1_555
C7 H50 1.099340 1_555
C7 H2 1.100324 1_555
C7 Si2 1.878315 1_555
C8 H25 1.099170 1_545
C8 H71 1.099303 1_555
C8 H53 1.100468 1_545
C8 Si5 1.875412 1_555
C9 H29 1.099404 1_555
C9 H33 1.099630 1_555
C9 H22 1.100384 1_555
C9 Si5 1.876744 1_565
C10 H36 1.099404 1_555
C10 H45 1.099630 1_555
C10 H35 1.100384 1_655
C10 Si7 1.876744 1_645
C11 H10 1.099404 1_555
C11 H23 1.099630 1_555
C11 H37 1.100384 1_555
C11 Si0 1.876744 1_545
C12 H24 1.099281 1_555
C12 H57 1.099457 1_555
C12 H48 1.100129 1_555
C12 Si6 1.875009 1_555
C13 H54 1.099027 1_555
C13 H68 1.099881 1_555
C13 H9 1.099984 1_555
C13 Si2 1.877750 1_555
C14 H63 1.099170 1_545
C14 H26 1.099303 1_555
C14 H15 1.100468 1_545
C14 Si6 1.875412 1_555
C15 H27 1.099281 1_555
C15 H43 1.099457 1_555
C15 H66 1.100129 1_555
C15 Si0 1.875009 1_555
C16 H56 1.099281 1_555
C16 H65 1.099457 1_555
C16 H60 1.100129 1_555
C16 Si5 1.875009 1_555
C17 N6 1.213396 1_555
C17 N2 1.218121 1_555
C18 H39 1.098991 1_555
C18 H46 1.099340 1_555
C18 H20 1.100324 1_555
C18 Si4 1.878315 1_555
C19 H34 1.099465 1_555
C19 H13 1.099471 1_555
C19 H1 1.100333 1_555
C19 Si1 1.874468 1_555
C20 H55 1.099404 1_555
C20 H31 1.099630 1_555
C20 H12 1.100384 1_455
C20 Si6 1.876744 1_465
C21 H4 1.099170 1_565
C21 H40 1.099303 1_555
C21 H38 1.100468 1_565
C21 Si7 1.875412 1_555
C22 N3 1.213396 1_555
C22 N5 1.218121 1_555
C23 H3 1.099027 1_555
C23 H59 1.099881 1_555
C23 H17 1.099984 1_556
C23 Si3 1.877750 1_556
C24 H67 1.098991 1_555
C24 H6 1.099340 1_555
C24 H0 1.100324 1_555
C24 Si3 1.878315 1_555
C25 H52 1.099281 1_555
C25 H42 1.099457 1_555
C25 H30 1.100129 1_555
C25 Si7 1.875009 1_555
C26 N4 1.213396 1_555
C26 N7 1.218121 1_555
C27 H5 1.099465 1_555
C27 H32 1.099471 1_555
C27 H62 1.100333 1_555
C27 Si2 1.874468 1_555
N0 Si5 1.728730 1_555
N1 Si1 1.730112 1_555
N2 Si4 1.730112 1_554
N3 Si7 1.728730 1_655
N4 Si0 1.728730 1_555
N5 Si3 1.730112 1_556
N6 Si6 1.728730 1_455
N7 Si2 1.730112 1_555
