# generated using pymatgen
data_Sn2IF3
_symmetry_space_group_name_H-M   'P 1'
_cell_length_a   4.30746728
_cell_length_b   7.31289749
_cell_length_c   9.07404881
_cell_angle_alpha   90.00000000
_cell_angle_beta   90.00000000
_cell_angle_gamma   107.12824846
_symmetry_Int_Tables_number   1
_chemical_formula_structural   Sn2IF3
_chemical_formula_sum   'Sn4 I2 F6'
_cell_volume   273.15585052
_cell_formula_units_Z   2
loop_
 _symmetry_equiv_pos_site_id
 _symmetry_equiv_pos_as_xyz
  1  'x, y, z'
loop_
 _atom_site_type_symbol
 _atom_site_label
 _atom_site_symmetry_multiplicity
 _atom_site_fract_x
 _atom_site_fract_y
 _atom_site_fract_z
 _atom_site_occupancy
  Sn  Sn0  1  0.62972661  0.27967997  0.71201328  1
  Sn  Sn1  1  0.64995437  0.27967997  0.28798672  1
  Sn  Sn2  1  0.35004563  0.72032003  0.78798672  1
  Sn  Sn3  1  0.37027339  0.72032003  0.21201328  1
  I  I0  1  0.00648499  0.01296998  -0.00000000  1
  I  I1  1  0.99351501  0.98703002  0.50000000  1
  F  F0  1  0.70748359  0.41496718  0.50000000  1
  F  F1  1  0.29251641  0.58503282  -0.00000000  1
  F  F2  1  0.20941745  0.41882518  0.70861472  1
  F  F3  1  0.79059227  0.58117482  0.79138528  1
  F  F4  1  0.20940773  0.41882518  0.29138528  1
  F  F5  1  0.79058255  0.58117482  0.20861472  1
loop_
_geom_bond_atom_site_label_1
_geom_bond_atom_site_label_2
_geom_bond_distance
_geom_bond_site_symmetry_2
I0 Sn2 3.512367 1_544
I0 Sn3 3.512370 1_445
I0 Sn3 3.565394 1_545
I0 Sn2 3.565397 1_444
I1 Sn1 3.512367 1_565
I1 Sn0 3.512370 1_665
I1 Sn0 3.565394 1_565
I1 Sn1 3.565397 1_665
F0 Sn0 2.144033 1_555
F0 Sn1 2.144033 1_555
F1 Sn3 2.144033 1_555
F1 Sn2 2.144033 1_554
F2 Sn2 2.227135 1_555
F2 Sn0 2.323637 1_555
F2 Sn0 2.403074 1_455
F3 Sn0 2.227135 1_555
F3 Sn2 2.323634 1_655
F3 Sn2 2.403078 1_555
F4 Sn3 2.227135 1_555
F4 Sn1 2.323634 1_455
F4 Sn1 2.403078 1_555
F5 Sn1 2.227135 1_555
F5 Sn3 2.323637 1_555
F5 Sn3 2.403074 1_655
