# generated using pymatgen
data_Li2Mo(PO4)2
_symmetry_space_group_name_H-M   'P 1'
_cell_length_a   8.74937500
_cell_length_b   5.00936500
_cell_length_c   6.92497293
_cell_angle_alpha   84.05636728
_cell_angle_beta   90.00000000
_cell_angle_gamma   90.00000000
_symmetry_Int_Tables_number   1
_chemical_formula_structural   Li2Mo(PO4)2
_chemical_formula_sum   'Li4 Mo2 P4 O16'
_cell_volume   301.88173072
_cell_formula_units_Z   2
loop_
 _symmetry_equiv_pos_site_id
 _symmetry_equiv_pos_as_xyz
  1  'x, y, z'
loop_
 _atom_site_type_symbol
 _atom_site_label
 _atom_site_symmetry_multiplicity
 _atom_site_fract_x
 _atom_site_fract_y
 _atom_site_fract_z
 _atom_site_occupancy
  Li  Li0  1  0.63675600  0.74958900  0.90403300  1
  Li  Li1  1  0.49275600  0.24949800  0.73816900  1
  Li  Li2  1  0.13675600  0.25041100  0.09596700  1
  Li  Li3  1  0.99275600  0.75050200  0.26183100  1
  Mo  Mo0  1  0.99974400  0.75970900  0.73902800  1
  Mo  Mo1  1  0.49974400  0.24029100  0.26097200  1
  P  P0  1  0.68033000  0.70286200  0.48216500  1
  P  P1  1  0.18033000  0.29713800  0.51783500  1
  P  P2  1  0.82352200  0.21205400  0.97949900  1
  P  P3  1  0.32352200  0.78794600  0.02050100  1
  O  O0  1  0.36269000  0.48126800  0.06981000  1
  O  O1  1  0.64827800  0.18752700  0.02344200  1
  O  O2  1  0.42381600  0.90301100  0.85524700  1
  O  O3  1  0.13903300  0.43316300  0.70496400  1
  O  O4  1  0.62398600  0.00279100  0.44792800  1
  O  O5  1  0.35797700  0.29152900  0.50100500  1
  O  O6  1  0.84506900  0.05798700  0.79506800  1
  O  O7  1  0.12398600  0.99720900  0.55207200  1
  O  O8  1  0.34506900  0.94201300  0.20493200  1
  O  O9  1  0.86269000  0.51873200  0.93019000  1
  O  O10  1  0.92381600  0.09698900  0.14475300  1
  O  O11  1  0.11034300  0.43283700  0.33394100  1
  O  O12  1  0.61034300  0.56716300  0.66605900  1
  O  O13  1  0.85797700  0.70847100  0.49899500  1
  O  O14  1  0.14827800  0.81247300  0.97655800  1
  O  O15  1  0.63903300  0.56683700  0.29503600  1
loop_
_geom_bond_atom_site_label_1
_geom_bond_atom_site_label_2
_geom_bond_distance
_geom_bond_site_symmetry_2
Li0 O12 1.978933 1_555
Li0 O2 2.030305 1_555
Li0 O9 2.287895 1_555
Li0 O1 2.425354 1_566
Li0 O6 2.456933 1_565
Li1 O12 1.917155 1_555
Li1 O2 1.934506 1_545
Li1 O5 2.015101 1_555
Li1 O1 2.392395 1_556
Li2 O11 1.978933 1_555
Li2 O10 2.030305 1_455
Li2 O0 2.287895 1_555
Li2 O14 2.425354 1_544
Li2 O8 2.456933 1_545
Li3 O11 1.917155 1_655
Li3 O10 1.934506 1_565
Li3 O13 2.015101 1_555
Li3 O14 2.392395 1_654
Mo0 O7 1.988533 1_655
Mo0 O3 2.072817 1_655
Mo0 O9 2.077642 1_555
Mo0 O6 2.081999 1_565
Mo0 O13 2.110863 1_555
Mo0 O14 2.134120 1_655
Mo1 O4 1.988533 1_555
Mo1 O15 2.072817 1_555
Mo1 O0 2.077642 1_555
Mo1 O8 2.081999 1_545
Mo1 O5 2.110863 1_555
Mo1 O1 2.134120 1_555
O0 P3 1.576546 1_555
O1 P2 1.565531 1_554
O2 P3 1.508396 1_556
O3 P1 1.567479 1_555
O4 P0 1.575700 1_545
O5 P1 1.559134 1_555
O6 P2 1.570512 1_555
O7 P1 1.575700 1_565
O8 P3 1.570512 1_555
O9 P2 1.576546 1_555
O10 P2 1.508396 1_554
O11 P1 1.509792 1_555
O12 P0 1.509792 1_555
O13 P0 1.559134 1_555
O14 P3 1.565531 1_556
O15 P0 1.567479 1_555
