# generated using pymatgen
data_Co3(PO4)2
_symmetry_space_group_name_H-M   'P 1'
_cell_length_a   4.73395005
_cell_length_b   5.90277178
_cell_length_c   10.23691153
_cell_angle_alpha   91.46917964
_cell_angle_beta   90.00042403
_cell_angle_gamma   90.00076939
_symmetry_Int_Tables_number   1
_chemical_formula_structural   Co3(PO4)2
_chemical_formula_sum   'Co6 P4 O16'
_cell_volume   285.96035034
_cell_formula_units_Z   2
loop_
 _symmetry_equiv_pos_site_id
 _symmetry_equiv_pos_as_xyz
  1  'x, y, z'
loop_
 _atom_site_type_symbol
 _atom_site_label
 _atom_site_symmetry_multiplicity
 _atom_site_fract_x
 _atom_site_fract_y
 _atom_site_fract_z
 _atom_site_occupancy
  Co  Co0  1  0.49985710  0.50041107  0.50008701  1
  Co  Co1  1  0.01673174  0.76420789  0.72575089  1
  Co  Co2  1  0.48330589  0.76387977  0.22577398  1
  Co  Co3  1  -0.00015902  0.49958770  0.99991625  1
  Co  Co4  1  0.51674254  0.23579844  0.77425532  1
  Co  Co5  1  0.98330888  0.23610881  0.27422458  1
  P  P0  1  0.07147786  0.25700621  0.59647252  1
  P  P1  1  0.42856669  0.25668356  0.09651927  1
  P  P2  1  0.57146599  0.74301148  0.90352987  1
  P  P3  1  0.92857344  0.74331145  0.40347307  1
  O  O0  1  0.72226297  0.52897235  0.83990490  1
  O  O1  1  0.22227371  0.47104859  0.66008576  1
  O  O2  1  0.27762573  0.47068634  0.16007963  1
  O  O3  1  0.77763594  0.52928385  0.33992134  1
  O  O4  1  0.18646623  0.24953020  0.45644641  1
  O  O5  1  0.68646012  0.75045302  0.04356045  1
  O  O6  1  0.31361150  0.24916868  0.95643191  1
  O  O7  1  0.81363779  0.75084744  0.54356382  1
  O  O8  1  0.25055182  0.72638648  0.39817326  1
  O  O9  1  0.74950802  0.27387267  0.60181267  1
  O  O10  1  0.24950060  0.72614211  0.89819026  1
  O  O11  1  0.75052847  0.27360392  0.10182190  1
  O  O12  1  0.68374246  0.93612148  0.82010731  1
  O  O13  1  0.81630244  0.93642168  0.32003066  1
  O  O14  1  0.31628568  0.06355690  0.17995653  1
  O  O15  1  0.18373840  0.06389491  0.67991043  1
loop_
_geom_bond_atom_site_label_1
_geom_bond_atom_site_label_2
_geom_bond_distance
_geom_bond_site_symmetry_2
Co0 O8 2.081329 1_555
Co0 O9 2.083435 1_555
Co0 O1 2.110470 1_555
Co0 O3 2.112084 1_555
Co0 O7 2.134487 1_555
Co0 O4 2.135329 1_555
Co1 O15 2.004270 1_565
Co1 O1 2.081710 1_555
Co1 O12 2.097009 1_455
Co1 O10 2.097884 1_555
Co1 O7 2.097941 1_455
Co1 O0 2.306524 1_455
Co2 O14 2.004199 1_565
Co2 O2 2.082245 1_555
Co2 O8 2.097079 1_555
Co2 O13 2.098300 1_555
Co2 O5 2.098332 1_555
Co2 O3 2.303783 1_555
Co3 O11 2.081326 1_456
Co3 O10 2.083511 1_555
Co3 O0 2.110556 1_455
Co3 O2 2.112087 1_556
Co3 O6 2.134430 1_555
Co3 O5 2.135272 1_456
Co4 O12 2.004251 1_545
Co4 O0 2.081658 1_555
Co4 O15 2.096950 1_555
Co4 O9 2.097921 1_555
Co4 O6 2.097941 1_555
Co4 O1 2.306672 1_555
Co5 O13 2.004180 1_545
Co5 O3 2.082174 1_555
Co5 O11 2.097165 1_555
Co5 O14 2.098341 1_655
Co5 O4 2.098400 1_655
Co5 O2 2.303654 1_655
O0 P2 1.577308 1_555
O1 P0 1.577254 1_555
O2 P1 1.577188 1_555
O3 P3 1.577242 1_555
O4 P0 1.532895 1_555
O5 P2 1.532939 1_554
O6 P1 1.533418 1_556
O7 P3 1.533427 1_555
O8 P3 1.528374 1_455
O9 P0 1.528326 1_655
O10 P2 1.528302 1_555
O11 P1 1.528292 1_555
O12 P2 1.536569 1_555
O13 P3 1.536684 1_555
O14 P1 1.536738 1_555
O15 P0 1.536646 1_555
