# generated using pymatgen
data_Cd3As2
_symmetry_space_group_name_H-M   'P 1'
_cell_length_a   15.87732687
_cell_length_b   15.87732687
_cell_length_c   15.87732687
_cell_angle_alpha   132.03175444
_cell_angle_beta   132.03175444
_cell_angle_gamma   70.17887882
_symmetry_Int_Tables_number   1
_chemical_formula_structural   Cd3As2
_chemical_formula_sum   'Cd48 As32'
_cell_volume   2164.54675056
_cell_formula_units_Z   16
loop_
 _symmetry_equiv_pos_site_id
 _symmetry_equiv_pos_as_xyz
  1  'x, y, z'
loop_
 _atom_site_type_symbol
 _atom_site_label
 _atom_site_symmetry_multiplicity
 _atom_site_fract_x
 _atom_site_fract_y
 _atom_site_fract_z
 _atom_site_occupancy
  Cd  Cd0  1  0.46212700  0.44179900  0.25890500  1
  Cd  Cd1  1  0.96212700  0.70322200  0.02032800  1
  Cd  Cd2  1  0.69179900  0.21212700  0.75890500  1
  Cd  Cd3  1  0.19179900  0.43289400  0.47967200  1
  Cd  Cd4  1  0.28787300  0.80820100  0.24109500  1
  Cd  Cd5  1  0.78787300  0.54677800  0.47967200  1
  Cd  Cd6  1  0.05820100  0.03787300  0.74109500  1
  Cd  Cd7  1  0.55820100  0.81710600  0.02032800  1
  Cd  Cd8  1  0.68289400  0.94179900  0.97967200  1
  Cd  Cd9  1  0.18289400  0.20322200  0.74109500  1
  Cd  Cd10  1  0.95322200  0.71212700  0.52032800  1
  Cd  Cd11  1  0.45322200  0.93289400  0.24109500  1
  Cd  Cd12  1  0.06710600  0.30820100  0.52032800  1
  Cd  Cd13  1  0.56710600  0.04677800  0.75890500  1
  Cd  Cd14  1  0.79677800  0.53787300  0.97967200  1
  Cd  Cd15  1  0.29677800  0.31710600  0.25890500  1
  Cd  Cd16  1  0.41411900  0.69480900  0.50404400  1
  Cd  Cd17  1  0.91411900  0.41007500  0.71931000  1
  Cd  Cd18  1  0.94480900  0.16411900  0.00404400  1
  Cd  Cd19  1  0.44480900  0.44076500  0.78069000  1
  Cd  Cd20  1  0.33588100  0.55519100  0.99595600  1
  Cd  Cd21  1  0.83588100  0.83992500  0.78069000  1
  Cd  Cd22  1  0.80519100  0.08588100  0.49595600  1
  Cd  Cd23  1  0.30519100  0.80923500  0.71931000  1
  Cd  Cd24  1  0.69076500  0.19480900  0.28069000  1
  Cd  Cd25  1  0.19076500  0.91007500  0.49595600  1
  Cd  Cd26  1  0.66007500  0.66411900  0.21931000  1
  Cd  Cd27  1  0.16007500  0.94076500  0.99595600  1
  Cd  Cd28  1  0.05923500  0.05519100  0.21931000  1
  Cd  Cd29  1  0.55923500  0.33992500  0.00404400  1
  Cd  Cd30  1  0.08992500  0.58588100  0.28069000  1
  Cd  Cd31  1  0.58992500  0.30923500  0.50404400  1
  Cd  Cd32  1  0.43123900  0.16815700  0.97442100  1
  Cd  Cd33  1  0.93123900  0.95681900  0.26308300  1
  Cd  Cd34  1  0.41815700  0.18123900  0.47442100  1
  Cd  Cd35  1  0.91815700  0.44373600  0.23691700  1
  Cd  Cd36  1  0.31876100  0.08184300  0.52557900  1
  Cd  Cd37  1  0.81876100  0.29318100  0.23691700  1
  Cd  Cd38  1  0.33184300  0.06876100  0.02557900  1
  Cd  Cd39  1  0.83184300  0.80626400  0.26308300  1
  Cd  Cd40  1  0.69373600  0.66815700  0.73691700  1
  Cd  Cd41  1  0.19373600  0.45681900  0.02557900  1
  Cd  Cd42  1  0.20681900  0.68123900  0.76308300  1
  Cd  Cd43  1  0.70681900  0.94373600  0.52557900  1
  Cd  Cd44  1  0.05626400  0.58184300  0.76308300  1
  Cd  Cd45  1  0.55626400  0.79318100  0.47442100  1
  Cd  Cd46  1  0.54318100  0.56876100  0.73691700  1
  Cd  Cd47  1  0.04318100  0.30626400  0.97442100  1
  As  As0  1  0.49752500  0.25956900  0.25333900  1
  As  As1  1  0.99752500  0.74418600  0.23795700  1
  As  As2  1  0.50956900  0.24752500  0.75333900  1
  As  As3  1  0.00956900  0.25622900  0.26204300  1
  As  As4  1  0.25247500  0.99043100  0.24666100  1
  As  As5  1  0.75247500  0.50581400  0.26204300  1
  As  As6  1  0.24043100  0.00247500  0.74666100  1
  As  As7  1  0.74043100  0.99377100  0.23795700  1
  As  As8  1  0.50622900  0.75956900  0.76204300  1
  As  As9  1  0.00622900  0.24418600  0.74666100  1
  As  As10  1  0.99418600  0.74752500  0.73795700  1
  As  As11  1  0.49418600  0.75622900  0.24666100  1
  As  As12  1  0.24377100  0.49043100  0.73795700  1
  As  As13  1  0.74377100  0.00581400  0.75333900  1
  As  As14  1  0.75581400  0.50247500  0.76204300  1
  As  As15  1  0.25581400  0.49377100  0.25333900  1
  As  As16  1  0.37549300  0.37549300  0.00000000  1
  As  As17  1  0.87549300  0.87549300  0.00000000  1
  As  As18  1  0.62549300  0.12549300  0.50000000  1
  As  As19  1  0.12549300  0.62549300  0.50000000  1
  As  As20  1  0.37450700  0.87450700  0.50000000  1
  As  As21  1  0.87450700  0.37450700  0.50000000  1
  As  As22  1  0.12450700  0.12450700  0.00000000  1
  As  As23  1  0.62450700  0.62450700  0.00000000  1
  As  As24  1  0.62500000  0.63579200  0.51079200  1
  As  As25  1  0.12500000  0.61420800  0.98920800  1
  As  As26  1  0.88579200  0.37500000  0.01079200  1
  As  As27  1  0.38579200  0.37500000  0.51079200  1
  As  As28  1  0.86420800  0.87500000  0.48920800  1
  As  As29  1  0.36420800  0.87500000  0.98920800  1
  As  As30  1  0.62500000  0.13579200  0.01079200  1
  As  As31  1  0.12500000  0.11420800  0.48920800  1
loop_
_geom_bond_atom_site_label_1
_geom_bond_atom_site_label_2
_geom_bond_distance
_geom_bond_site_symmetry_2
As0 Cd38 2.677872 1_555
As0 Cd0 2.704874 1_555
As0 Cd24 2.708062 1_555
As0 Cd31 2.716645 1_555
As0 Cd32 3.002247 1_554
As0 Cd15 3.048907 1_555
As1 Cd39 2.677872 1_555
As1 Cd1 2.704889 1_555
As1 Cd25 2.708060 1_655
As1 Cd30 2.716637 1_655
As1 Cd33 3.002262 1_555
As1 Cd14 3.048905 1_554
As2 Cd36 2.677872 1_555
As2 Cd2 2.704874 1_555
As2 Cd19 2.708062 1_555
As2 Cd29 2.716645 1_556
As2 Cd34 3.002247 1_555
As2 Cd13 3.048907 1_555
As3 Cd37 2.677872 1_455
As3 Cd3 2.704880 1_555
As3 Cd18 2.708053 1_455
As3 Cd28 2.716636 1_555
As3 Cd35 3.002262 1_455
As3 Cd12 3.048914 1_555
As4 Cd34 2.677872 1_565
As4 Cd4 2.704874 1_555
As4 Cd28 2.708062 1_565
As4 Cd27 2.716645 1_554
As4 Cd36 3.002247 1_565
As4 Cd11 3.048907 1_555
As5 Cd35 2.677872 1_555
As5 Cd5 2.704889 1_555
As5 Cd29 2.708060 1_555
As5 Cd26 2.716637 1_555
As5 Cd37 3.002262 1_555
As5 Cd10 3.048905 1_555
As6 Cd32 2.677872 1_555
As6 Cd6 2.704874 1_555
As6 Cd23 2.708062 1_545
As6 Cd25 2.716645 1_545
As6 Cd38 3.002247 1_556
As6 Cd9 3.048907 1_555
As7 Cd33 2.677872 1_555
As7 Cd7 2.704880 1_555
As7 Cd22 2.708053 1_565
As7 Cd24 2.716636 1_565
As7 Cd39 3.002262 1_555
As7 Cd8 3.048914 1_554
As8 Cd46 2.677872 1_555
As8 Cd8 2.704880 1_555
As8 Cd16 2.708053 1_555
As8 Cd23 2.716636 1_555
As8 Cd40 3.002262 1_555
As8 Cd7 3.048914 1_556
As9 Cd47 2.677872 1_555
As9 Cd9 2.704889 1_555
As9 Cd17 2.708060 1_455
As9 Cd22 2.716637 1_455
As9 Cd41 3.002261 1_556
As9 Cd6 3.048905 1_555
As10 Cd44 2.677872 1_655
As10 Cd10 2.704889 1_555
As10 Cd27 2.708060 1_655
As10 Cd21 2.716637 1_555
As10 Cd42 3.002262 1_655
As10 Cd5 3.048905 1_555
As11 Cd45 2.677872 1_555
As11 Cd11 2.704889 1_555
As11 Cd26 2.708060 1_555
As11 Cd20 2.716637 1_554
As11 Cd43 3.002261 1_555
As11 Cd4 3.048905 1_555
As12 Cd42 2.677872 1_555
As12 Cd12 2.704880 1_555
As12 Cd20 2.708053 1_555
As12 Cd19 2.716636 1_555
As12 Cd44 3.002262 1_555
As12 Cd3 3.048914 1_555
As13 Cd43 2.677872 1_545
As13 Cd13 2.704889 1_555
As13 Cd21 2.708060 1_545
As13 Cd18 2.716637 1_556
As13 Cd45 3.002261 1_545
As13 Cd2 3.048905 1_555
As14 Cd40 2.677872 1_555
As14 Cd14 2.704889 1_555
As14 Cd31 2.708060 1_555
As14 Cd17 2.716637 1_555
As14 Cd46 3.002262 1_555
As14 Cd1 3.048905 1_556
As15 Cd41 2.677872 1_555
As15 Cd15 2.704889 1_555
As15 Cd30 2.708060 1_555
As15 Cd16 2.716637 1_555
As15 Cd47 3.002261 1_554
As15 Cd0 3.048905 1_555
As16 Cd0 2.741115 1_555
As16 Cd9 2.741115 1_554
As16 Cd29 2.741224 1_555
As16 Cd20 2.741224 1_554
As16 Cd32 2.915529 1_554
As16 Cd41 2.915529 1_555
As17 Cd8 2.741115 1_554
As17 Cd1 2.741115 1_555
As17 Cd21 2.741224 1_554
As17 Cd28 2.741224 1_665
As17 Cd40 2.915529 1_554
As17 Cd33 2.915537 1_555
As18 Cd2 2.741115 1_555
As18 Cd11 2.741115 1_545
As18 Cd31 2.741224 1_555
As18 Cd22 2.741224 1_555
As18 Cd34 2.915529 1_555
As18 Cd43 2.915529 1_545
As19 Cd3 2.741115 1_555
As19 Cd10 2.741115 1_455
As19 Cd30 2.741224 1_555
As19 Cd23 2.741224 1_555
As19 Cd35 2.915529 1_455
As19 Cd42 2.915537 1_555
As20 Cd13 2.741115 1_565
As20 Cd4 2.741115 1_555
As20 Cd16 2.741224 1_555
As20 Cd25 2.741224 1_555
As20 Cd36 2.915529 1_565
As20 Cd45 2.915529 1_555
As21 Cd5 2.741115 1_555
As21 Cd12 2.741115 1_655
As21 Cd24 2.741224 1_555
As21 Cd17 2.741224 1_555
As21 Cd44 2.915529 1_655
As21 Cd37 2.915537 1_555
As22 Cd6 2.741115 1_554
As22 Cd15 2.741115 1_555
As22 Cd18 2.741224 1_455
As22 Cd27 2.741224 1_544
As22 Cd38 2.915529 1_555
As22 Cd47 2.915529 1_554
As23 Cd7 2.741115 1_555
As23 Cd14 2.741115 1_554
As23 Cd26 2.741224 1_555
As23 Cd19 2.741224 1_554
As23 Cd39 2.915529 1_555
As23 Cd46 2.915537 1_554
As24 Cd45 2.647274 1_555
As24 Cd40 2.647274 1_555
As24 Cd5 2.688166 1_555
As24 Cd0 2.688166 1_555
As24 Cd21 3.102662 1_555
As24 Cd16 3.102662 1_555
As25 Cd41 2.647274 1_556
As25 Cd44 2.647274 1_555
As25 Cd4 2.688166 1_556
As25 Cd1 2.688166 1_456
As25 Cd20 3.102662 1_555
As25 Cd17 3.102662 1_455
As26 Cd35 2.647274 1_555
As26 Cd47 2.647274 1_654
As26 Cd14 2.688166 1_554
As26 Cd2 2.688166 1_554
As26 Cd30 3.102662 1_655
As26 Cd18 3.102662 1_555
As27 Cd46 2.647283 1_555
As27 Cd34 2.647289 1_555
As27 Cd3 2.688166 1_555
As27 Cd15 2.688166 1_555
As27 Cd31 3.102662 1_555
As27 Cd19 3.102662 1_555
As28 Cd39 2.647274 1_555
As28 Cd43 2.647274 1_555
As28 Cd6 2.688166 1_665
As28 Cd10 2.688166 1_555
As28 Cd26 3.102662 1_555
As28 Cd22 3.102662 1_565
As29 Cd42 2.647283 1_555
As29 Cd38 2.647289 1_566
As29 Cd11 2.688166 1_556
As29 Cd7 2.688166 1_556
As29 Cd23 3.102662 1_555
As29 Cd27 3.102662 1_555
As30 Cd37 2.647283 1_555
As30 Cd32 2.647289 1_554
As30 Cd8 2.688166 1_544
As30 Cd13 2.688166 1_554
As30 Cd29 3.102662 1_555
As30 Cd24 3.102662 1_555
As31 Cd33 2.647283 1_445
As31 Cd36 2.647289 1_555
As31 Cd9 2.688166 1_555
As31 Cd12 2.688166 1_555
As31 Cd25 3.102662 1_545
As31 Cd28 3.102662 1_555
