# generated using pymatgen
data_Si2Ag6O7
_symmetry_space_group_name_H-M   'P 1'
_cell_length_a   8.18226626
_cell_length_b   8.18226626
_cell_length_c   10.85646712
_cell_angle_alpha   76.93463801
_cell_angle_beta   76.93463801
_cell_angle_gamma   74.67013209
_symmetry_Int_Tables_number   1
_chemical_formula_structural   Si2Ag6O7
_chemical_formula_sum   'Si6 Ag18 O21'
_cell_volume   672.04455996
_cell_formula_units_Z   3
loop_
 _symmetry_equiv_pos_site_id
 _symmetry_equiv_pos_as_xyz
  1  'x, y, z'
loop_
 _atom_site_type_symbol
 _atom_site_label
 _atom_site_symmetry_multiplicity
 _atom_site_fract_x
 _atom_site_fract_y
 _atom_site_fract_z
 _atom_site_occupancy
  Si  Si0  1  0.89483300  0.89483300  0.12670100  1
  Si  Si1  1  0.10516700  0.10516700  0.87329900  1
  Si  Si2  1  0.80278800  0.80278800  0.61737200  1
  Si  Si3  1  0.34392100  0.34392100  0.87245200  1
  Si  Si4  1  0.19721200  0.19721200  0.38262800  1
  Si  Si5  1  0.65607900  0.65607900  0.12754800  1
  Ag  Ag0  1  0.72500500  0.44002000  0.86139500  1
  Ag  Ag1  1  0.27499500  0.55998000  0.13860500  1
  Ag  Ag2  1  0.44917100  0.10401300  0.62059800  1
  Ag  Ag3  1  0.54114900  0.54114900  0.63565400  1
  Ag  Ag4  1  0.99640700  0.63744800  0.86526700  1
  Ag  Ag5  1  0.89598700  0.55082900  0.37940200  1
  Ag  Ag6  1  0.85988500  0.16182400  0.65699800  1
  Ag  Ag7  1  0.00359300  0.36255200  0.13473300  1
  Ag  Ag8  1  0.16182400  0.85988500  0.65699800  1
  Ag  Ag9  1  0.55082900  0.89598700  0.37940200  1
  Ag  Ag10  1  0.44002000  0.72500500  0.86139500  1
  Ag  Ag11  1  0.36255200  0.00359300  0.13473300  1
  Ag  Ag12  1  0.45885100  0.45885100  0.36434600  1
  Ag  Ag13  1  0.55998000  0.27499500  0.13860500  1
  Ag  Ag14  1  0.10401300  0.44917100  0.62059800  1
  Ag  Ag15  1  0.83817600  0.14011500  0.34300200  1
  Ag  Ag16  1  0.14011500  0.83817600  0.34300200  1
  Ag  Ag17  1  0.63744800  0.99640700  0.86526700  1
  O  O0  1  0.24636200  0.24636200  0.22176900  1
  O  O1  1  0.24920500  0.52509200  0.92670500  1
  O  O2  1  0.62597800  0.62597800  0.28589200  1
  O  O3  1  0.47490800  0.75079500  0.07329500  1
  O  O4  1  0.73986300  0.01359000  0.57062400  1
  O  O5  1  0.02548200  0.75283600  0.21336200  1
  O  O6  1  0.75079500  0.47490800  0.07329500  1
  O  O7  1  0.24716400  0.97451800  0.78663800  1
  O  O8  1  0.29442800  0.29442800  0.45355500  1
  O  O9  1  0.97451800  0.24716400  0.78663800  1
  O  O10  1  0.98641000  0.26013700  0.42937600  1
  O  O11  1  0.52509200  0.24920500  0.92670500  1
  O  O12  1  0.79025800  0.79025800  0.06757200  1
  O  O13  1  0.70557200  0.70557200  0.54644500  1
  O  O14  1  0.75363800  0.75363800  0.77823100  1
  O  O15  1  0.20974200  0.20974200  0.93242800  1
  O  O16  1  0.37402200  0.37402200  0.71410800  1
  O  O17  1  0.75283600  0.02548200  0.21336200  1
  O  O18  1  0.00000000  0.00000000  0.00000000  1
  O  O19  1  0.01359000  0.73986300  0.57062400  1
  O  O20  1  0.26013700  0.98641000  0.42937600  1
loop_
_geom_bond_atom_site_label_1
_geom_bond_atom_site_label_2
_geom_bond_distance
_geom_bond_site_symmetry_2
Ag0 O9 2.333085 1_555
Ag0 O11 2.437524 1_555
Ag0 O6 2.442642 1_556
Ag0 O14 2.574820 1_555
Ag1 O5 2.333085 1_555
Ag1 O3 2.437524 1_555
Ag1 O1 2.442642 1_554
Ag1 O0 2.574820 1_555
Ag2 O4 2.273029 1_555
Ag2 O7 2.412350 1_545
Ag2 O8 2.457024 1_555
Ag2 O16 2.510610 1_555
Ag3 O13 2.082486 1_555
Ag3 O16 2.097856 1_555
Ag4 O1 2.215773 1_655
Ag4 O14 2.277365 1_555
Ag5 O10 2.273029 1_555
Ag5 O5 2.412350 1_655
Ag5 O13 2.457024 1_555
Ag5 O2 2.510610 1_555
Ag6 O9 2.176170 1_555
Ag6 O4 2.207991 1_555
Ag6 O10 2.492077 1_555
Ag7 O6 2.215773 1_455
Ag7 O0 2.277365 1_555
Ag8 O7 2.176170 1_555
Ag8 O19 2.207991 1_555
Ag8 O20 2.492077 1_555
Ag9 O20 2.273029 1_555
Ag9 O17 2.412350 1_565
Ag9 O13 2.457024 1_555
Ag9 O2 2.510610 1_555
Ag10 O7 2.333085 1_555
Ag10 O1 2.437524 1_555
Ag10 O3 2.442642 1_556
Ag10 O14 2.574820 1_555
Ag11 O3 2.215773 1_545
Ag11 O0 2.277365 1_555
Ag12 O8 2.082486 1_555
Ag12 O2 2.097856 1_555
Ag13 O17 2.333085 1_555
Ag13 O6 2.437524 1_555
Ag13 O11 2.442642 1_554
Ag13 O0 2.574820 1_555
Ag14 O19 2.273029 1_555
Ag14 O9 2.412350 1_455
Ag14 O8 2.457024 1_555
Ag14 O16 2.510610 1_555
Ag15 O17 2.176170 1_555
Ag15 O10 2.207991 1_555
Ag15 O4 2.492077 1_555
Ag16 O5 2.176170 1_555
Ag16 O20 2.207991 1_555
Ag16 O19 2.492077 1_555
Ag17 O11 2.215773 1_565
Ag17 O14 2.277365 1_555
O0 Si4 1.680383 1_555
O1 Si3 1.651041 1_555
O2 Si5 1.650969 1_555
O3 Si5 1.651041 1_555
O4 Si2 1.658470 1_545
O5 Si0 1.637567 1_455
O6 Si5 1.651041 1_555
O7 Si1 1.637567 1_565
O8 Si4 1.657353 1_555
O9 Si1 1.637567 1_655
O10 Si4 1.658470 1_655
O11 Si3 1.651041 1_555
O12 Si0 1.661384 1_555
O12 Si5 1.680953 1_555
O13 Si2 1.657353 1_555
O14 Si2 1.680383 1_555
O15 Si1 1.661384 1_555
O15 Si3 1.680953 1_555
O16 Si3 1.650969 1_555
O17 Si0 1.637567 1_545
O18 Si0 1.641407 1_445
O18 Si1 1.641407 1_554
O19 Si2 1.658470 1_455
O20 Si4 1.658470 1_565
