# generated using pymatgen
data_Cs3GeAsSe5
_symmetry_space_group_name_H-M   'P 1'
_cell_length_a   9.84601300
_cell_length_b   7.93550600
_cell_length_c   20.03636401
_cell_angle_alpha   80.20533802
_cell_angle_beta   90.00000000
_cell_angle_gamma   90.00000000
_symmetry_Int_Tables_number   1
_chemical_formula_structural   Cs3GeAsSe5
_chemical_formula_sum   'Cs12 Ge4 As4 Se20'
_cell_volume   1542.68397550
_cell_formula_units_Z   4
loop_
 _symmetry_equiv_pos_site_id
 _symmetry_equiv_pos_as_xyz
  1  'x, y, z'
loop_
 _atom_site_type_symbol
 _atom_site_label
 _atom_site_symmetry_multiplicity
 _atom_site_fract_x
 _atom_site_fract_y
 _atom_site_fract_z
 _atom_site_occupancy
  Cs  Cs0  1  0.56039400  0.91934800  0.23851800  1
  Cs  Cs1  1  0.30079900  0.37233600  0.54189700  1
  Cs  Cs2  1  0.06039400  0.58065200  0.26148200  1
  Cs  Cs3  1  0.21058500  0.96900400  0.41434300  1
  Cs  Cs4  1  0.93960600  0.41934800  0.73851800  1
  Cs  Cs5  1  0.78941500  0.03099600  0.58565700  1
  Cs  Cs6  1  0.19920100  0.87233600  0.04189700  1
  Cs  Cs7  1  0.71058500  0.53099600  0.08565700  1
  Cs  Cs8  1  0.28941500  0.46900400  0.91434300  1
  Cs  Cs9  1  0.43960600  0.08065200  0.76148200  1
  Cs  Cs10  1  0.69920100  0.62766400  0.45810300  1
  Cs  Cs11  1  0.80079900  0.12766400  0.95810300  1
  Ge  Ge0  1  0.20916200  0.79578200  0.62938800  1
  Ge  Ge1  1  0.79083800  0.20421800  0.37061200  1
  Ge  Ge2  1  0.70916200  0.70421800  0.87061200  1
  Ge  Ge3  1  0.29083800  0.29578200  0.12938800  1
  As  As0  1  0.95835800  0.12855800  0.20041200  1
  As  As1  1  0.04164200  0.87144200  0.79958800  1
  As  As2  1  0.45835800  0.37144200  0.29958800  1
  As  As3  1  0.54164200  0.62855800  0.70041200  1
  Se  Se0  1  0.90402200  0.59069200  0.92767000  1
  Se  Se1  1  0.29402200  0.57443900  0.72244400  1
  Se  Se2  1  0.59597800  0.09069200  0.42767000  1
  Se  Se3  1  0.54015300  0.81968400  0.93058400  1
  Se  Se4  1  0.11393200  0.02629200  0.68446700  1
  Se  Se5  1  0.95984700  0.31968400  0.43058400  1
  Se  Se6  1  0.79402200  0.92556100  0.77755600  1
  Se  Se7  1  0.11610200  0.07588900  0.86340700  1
  Se  Se8  1  0.38606800  0.52629200  0.18446700  1
  Se  Se9  1  0.88389800  0.92411100  0.13659300  1
  Se  Se10  1  0.04015300  0.68031600  0.56941600  1
  Se  Se11  1  0.45984700  0.18031600  0.06941600  1
  Se  Se12  1  0.20597800  0.07443900  0.22244400  1
  Se  Se13  1  0.61610200  0.42411100  0.63659300  1
  Se  Se14  1  0.40402200  0.90930800  0.57233000  1
  Se  Se15  1  0.09597800  0.40930800  0.07233000  1
  Se  Se16  1  0.38389800  0.57588900  0.36340700  1
  Se  Se17  1  0.61393200  0.47370800  0.81553300  1
  Se  Se18  1  0.88606800  0.97370800  0.31553300  1
  Se  Se19  1  0.70597800  0.42556100  0.27755600  1
loop_
_geom_bond_atom_site_label_1
_geom_bond_atom_site_label_2
_geom_bond_distance
_geom_bond_site_symmetry_2
Cs0 Se18 3.616067 1_555
Cs0 Se12 3.696045 1_565
Cs0 Se9 3.780401 1_555
Cs0 Se11 3.789627 1_565
Cs0 Se16 3.793351 1_555
Cs0 Se8 3.872597 1_555
Cs0 Se19 4.120431 1_555
Cs0 Se2 4.253035 1_565
Cs1 Se10 3.649870 1_555
Cs1 Se13 3.697541 1_555
Cs1 Se16 3.755398 1_555
Cs1 Se14 3.760769 1_545
Cs1 Se4 4.051801 1_555
Cs1 Se5 4.090901 1_455
Cs2 Se8 3.616067 1_555
Cs2 Se19 3.696045 1_455
Cs2 Se16 3.780401 1_555
Cs2 Se5 3.789627 1_455
Cs2 Se9 3.793351 1_455
Cs2 Se18 3.872597 1_455
Cs2 Se12 4.120431 1_565
Cs2 Se15 4.253035 1_555
Cs3 Se14 3.655399 1_555
Cs3 Se18 3.755679 1_455
Cs3 Se5 3.775305 1_465
Cs3 Se12 3.793581 1_565
Cs3 Se16 3.842971 1_555
Cs3 Se10 3.911056 1_555
Cs3 Se2 3.935784 1_565
Cs4 Se17 3.616067 1_555
Cs4 Se1 3.696045 1_655
Cs4 Se13 3.780401 1_555
Cs4 Se10 3.789627 1_655
Cs4 Se7 3.793351 1_655
Cs4 Se4 3.872597 1_655
Cs4 Se6 4.120431 1_545
Cs4 Se0 4.253035 1_555
Cs5 Se2 3.655399 1_555
Cs5 Se4 3.755679 1_655
Cs5 Se10 3.775305 1_645
Cs5 Se6 3.793581 1_545
Cs5 Se13 3.842971 1_555
Cs5 Se5 3.911056 1_555
Cs5 Se14 3.935784 1_545
Cs6 Se11 3.649870 1_565
Cs6 Se9 3.697541 1_455
Cs6 Se7 3.755398 1_564
Cs6 Se15 3.760769 1_555
Cs6 Se8 4.051801 1_555
Cs6 Se3 4.090901 1_554
Cs7 Se0 3.655399 1_554
Cs7 Se8 3.755679 1_555
Cs7 Se11 3.775305 1_555
Cs7 Se19 3.793581 1_555
Cs7 Se9 3.842971 1_555
Cs7 Se3 3.911056 1_554
Cs7 Se15 3.935784 1_655
Cs8 Se15 3.655399 1_556
Cs8 Se17 3.755679 1_555
Cs8 Se3 3.775305 1_555
Cs8 Se1 3.793581 1_555
Cs8 Se7 3.842971 1_555
Cs8 Se11 3.911056 1_556
Cs8 Se0 3.935784 1_455
Cs9 Se4 3.616067 1_555
Cs9 Se6 3.696045 1_545
Cs9 Se7 3.780401 1_555
Cs9 Se3 3.789627 1_545
Cs9 Se13 3.793351 1_555
Cs9 Se17 3.872597 1_555
Cs9 Se1 4.120431 1_555
Cs9 Se14 4.253035 1_545
Cs10 Se5 3.649870 1_555
Cs10 Se16 3.697541 1_555
Cs10 Se13 3.755398 1_555
Cs10 Se2 3.760769 1_565
Cs10 Se18 4.051801 1_555
Cs10 Se10 4.090901 1_655
Cs11 Se3 3.649870 1_545
Cs11 Se7 3.697541 1_655
Cs11 Se9 3.755398 1_546
Cs11 Se0 3.760769 1_555
Cs11 Se17 4.051801 1_555
Cs11 Se11 4.090901 1_556
Ge0 Se10 2.329631 1_555
Ge0 Se14 2.334345 1_555
Ge0 Se4 2.475865 1_565
Ge0 Se1 2.478996 1_555
Ge1 Se5 2.329631 1_555
Ge1 Se2 2.334345 1_555
Ge1 Se18 2.475865 1_545
Ge1 Se19 2.478996 1_555
Ge2 Se3 2.329631 1_555
Ge2 Se0 2.334345 1_555
Ge2 Se17 2.475865 1_555
Ge2 Se6 2.478996 1_555
Ge3 Se11 2.329631 1_555
Ge3 Se15 2.334345 1_555
Ge3 Se8 2.475865 1_555
Ge3 Se12 2.478996 1_555
As0 Se9 2.347456 1_545
As0 Se12 2.501797 1_655
As0 Se18 2.524415 1_545
As0 Cs2 4.107430 1_655
As1 Se7 2.347456 1_565
As1 Se6 2.501797 1_455
As1 Se4 2.524415 1_565
As1 Cs4 4.107430 1_455
As2 Se16 2.347456 1_555
As2 Se19 2.501797 1_555
As2 Se8 2.524415 1_555
As2 Cs0 4.107430 1_545
As3 Se13 2.347456 1_555
As3 Se1 2.501797 1_555
As3 Se17 2.524415 1_555
As3 Cs9 4.107430 1_565
