# generated using pymatgen
data_AgH8C5S2O2F3
_symmetry_space_group_name_H-M   'P 1'
_cell_length_a   9.08531500
_cell_length_b   10.74405900
_cell_length_c   11.04494000
_cell_angle_alpha   90.00000000
_cell_angle_beta   90.00000000
_cell_angle_gamma   90.00000000
_symmetry_Int_Tables_number   1
_chemical_formula_structural   AgH8C5S2O2F3
_chemical_formula_sum   'Ag4 H32 C20 S8 O8 F12'
_cell_volume   1078.13149976
_cell_formula_units_Z   4
loop_
 _symmetry_equiv_pos_site_id
 _symmetry_equiv_pos_as_xyz
  1  'x, y, z'
loop_
 _atom_site_type_symbol
 _atom_site_label
 _atom_site_symmetry_multiplicity
 _atom_site_fract_x
 _atom_site_fract_y
 _atom_site_fract_z
 _atom_site_occupancy
  Ag  Ag0  1  0.66277700  0.72602900  0.97085800  1
  Ag  Ag1  1  0.16277700  0.77397100  0.97085800  1
  Ag  Ag2  1  0.66277700  0.22602900  0.02914200  1
  Ag  Ag3  1  0.16277700  0.27397100  0.02914200  1
  H  H0  1  0.76351700  0.47620800  0.65271900  1
  H  H1  1  0.50378600  0.70343000  0.28283000  1
  H  H2  1  0.97341300  0.00120100  0.14314500  1
  H  H3  1  0.14364600  0.89418300  0.67877900  1
  H  H4  1  0.00378600  0.29657000  0.71717000  1
  H  H5  1  0.30903800  0.23370800  0.72081800  1
  H  H6  1  0.83828800  0.62133800  0.70584800  1
  H  H7  1  0.43641500  0.85402900  0.23867900  1
  H  H8  1  0.97341300  0.50120100  0.85685500  1
  H  H9  1  0.26351700  0.52379200  0.34728100  1
  H  H10  1  0.33828800  0.37866200  0.29415200  1
  H  H11  1  0.80903800  0.76629200  0.27918200  1
  H  H12  1  0.00378600  0.79657000  0.28283000  1
  H  H13  1  0.14364600  0.39418300  0.32122100  1
  H  H14  1  0.83828800  0.12133800  0.29415200  1
  H  H15  1  0.40206300  0.01216600  0.00831700  1
  H  H16  1  0.26351700  0.02379200  0.65271900  1
  H  H17  1  0.64364600  0.10581700  0.32122100  1
  H  H18  1  0.33828800  0.87866200  0.70584800  1
  H  H19  1  0.64364600  0.60581700  0.67877900  1
  H  H20  1  0.80903800  0.26629200  0.72081800  1
  H  H21  1  0.50378600  0.20343000  0.71717000  1
  H  H22  1  0.93641500  0.64597100  0.23867900  1
  H  H23  1  0.47341300  0.99879900  0.85685500  1
  H  H24  1  0.90206300  0.48783400  0.00831700  1
  H  H25  1  0.90206300  0.98783400  0.99168300  1
  H  H26  1  0.76351700  0.97620800  0.34728100  1
  H  H27  1  0.30903800  0.73370800  0.27918200  1
  H  H28  1  0.93641500  0.14597100  0.76132100  1
  H  H29  1  0.40206300  0.51216600  0.99168300  1
  H  H30  1  0.47341300  0.49879900  0.14314500  1
  H  H31  1  0.43641500  0.35402900  0.76132100  1
  C  C0  1  0.76024400  0.89557300  0.75464500  1
  C  C1  1  0.38708000  0.54037600  0.08632500  1
  C  C2  1  0.41527000  0.75351600  0.23626900  1
  C  C3  1  0.24366500  0.44185800  0.29081100  1
  C  C4  1  0.24366500  0.94185800  0.70918900  1
  C  C5  1  0.38708000  0.04037600  0.91367500  1
  C  C6  1  0.76024400  0.39557300  0.24535500  1
  C  C7  1  0.91527000  0.24648400  0.76373100  1
  C  C8  1  0.88708000  0.95962400  0.08632500  1
  C  C9  1  0.41527000  0.25351600  0.76373100  1
  C  C10  1  0.88708000  0.45962400  0.91367500  1
  C  C11  1  0.74366500  0.05814200  0.29081100  1
  C  C12  1  0.74387200  0.43934800  0.38009400  1
  C  C13  1  0.24387200  0.06065200  0.38009400  1
  C  C14  1  0.24387200  0.56065200  0.61990600  1
  C  C15  1  0.91527000  0.74648400  0.23626900  1
  C  C16  1  0.26024400  0.10442700  0.24535500  1
  C  C17  1  0.74387200  0.93934800  0.61990600  1
  C  C18  1  0.74366500  0.55814200  0.70918900  1
  C  C19  1  0.26024400  0.60442700  0.75464500  1
  S  S0  1  0.20768000  0.98770700  0.86426300  1
  S  S1  1  0.90987000  0.29117800  0.92183600  1
  S  S2  1  0.40987000  0.20882200  0.92183600  1
  S  S3  1  0.70768000  0.01229300  0.13573700  1
  S  S4  1  0.20768000  0.48770700  0.13573700  1
  S  S5  1  0.90987000  0.79117800  0.07816400  1
  S  S6  1  0.70768000  0.51229300  0.86426300  1
  S  S7  1  0.40987000  0.70882200  0.07816400  1
  O  O0  1  0.88543400  0.40296400  0.19952900  1
  O  O1  1  0.13966400  0.64202600  0.80013400  1
  O  O2  1  0.13966400  0.14202600  0.19986600  1
  O  O3  1  0.88543400  0.90296400  0.80047100  1
  O  O4  1  0.38543400  0.59703600  0.80047100  1
  O  O5  1  0.38543400  0.09703600  0.19952900  1
  O  O6  1  0.63966400  0.35797400  0.19986600  1
  O  O7  1  0.63966400  0.85797400  0.80013400  1
  F  F0  1  0.15022600  0.46040300  0.61122000  1
  F  F1  1  0.18723100  0.65239700  0.54768300  1
  F  F2  1  0.87374200  0.47520100  0.43076300  1
  F  F3  1  0.18723100  0.15239700  0.45231700  1
  F  F4  1  0.68723100  0.34760300  0.45231700  1
  F  F5  1  0.37374200  0.52479900  0.56923700  1
  F  F6  1  0.15022600  0.96040300  0.38878000  1
  F  F7  1  0.65022600  0.03959700  0.61122000  1
  F  F8  1  0.37374200  0.02479900  0.43076300  1
  F  F9  1  0.87374200  0.97520100  0.56923700  1
  F  F10  1  0.68723100  0.84760300  0.54768300  1
  F  F11  1  0.65022600  0.53959700  0.38878000  1
loop_
_geom_bond_atom_site_label_1
_geom_bond_atom_site_label_2
_geom_bond_distance
_geom_bond_site_symmetry_2
Ag0 O7 2.368413 1_555
Ag0 S7 2.591999 1_556
Ag0 S6 2.612655 1_555
Ag0 S5 2.633302 1_556
Ag1 O1 2.368413 1_555
Ag1 S5 2.591999 1_456
Ag1 S0 2.612655 1_555
Ag1 S7 2.633302 1_556
Ag2 O6 2.368413 1_555
Ag2 S2 2.591999 1_554
Ag2 S3 2.612655 1_555
Ag2 S1 2.633302 1_554
Ag3 O2 2.368413 1_555
Ag3 S1 2.591999 1_454
Ag3 S4 2.612655 1_555
Ag3 S2 2.633302 1_554
C0 O3 1.247456 1_555
C0 O7 1.271123 1_555
C1 H29 1.096849 1_554
C1 H30 1.099372 1_555
C1 S4 1.809601 1_555
C1 S7 1.823828 1_555
C2 H1 1.095800 1_555
C2 H27 1.096110 1_555
C2 H7 1.097195 1_555
C2 S7 1.811745 1_555
C3 H9 1.093836 1_555
C3 H13 1.095869 1_555
C3 H10 1.096096 1_555
C3 S4 1.811952 1_555
C4 H16 1.093836 1_565
C4 H3 1.095869 1_555
C4 H18 1.096096 1_555
C4 S0 1.811952 1_555
C5 H15 1.096849 1_556
C5 H23 1.099372 1_545
C5 S0 1.809601 1_545
C5 S2 1.823828 1_555
C6 O0 1.247456 1_555
C6 O6 1.271123 1_555
C7 H4 1.095800 1_655
C7 H20 1.096110 1_555
C7 H28 1.097195 1_555
C7 S1 1.811745 1_555
C8 H25 1.096849 1_554
C8 H2 1.099372 1_565
C8 S3 1.809601 1_565
C8 S5 1.823828 1_555
C9 H21 1.095800 1_555
C9 H5 1.096110 1_555
C9 H31 1.097195 1_555
C9 S2 1.811745 1_555
C10 H24 1.096849 1_556
C10 H8 1.099372 1_555
C10 S6 1.809601 1_555
C10 S1 1.823828 1_555
C11 H26 1.093836 1_545
C11 H17 1.095869 1_555
C11 H14 1.096096 1_555
C11 S3 1.811952 1_555
C12 F2 1.361530 1_555
C12 F4 1.368492 1_555
C12 F11 1.375927 1_555
C13 F8 1.361530 1_555
C13 F3 1.368492 1_555
C13 F6 1.375927 1_545
C14 F5 1.361530 1_555
C14 F1 1.368492 1_555
C14 F0 1.375927 1_555
C15 H12 1.095800 1_655
C15 H11 1.096110 1_555
C15 H22 1.097195 1_555
C15 S5 1.811745 1_555
C16 O5 1.247456 1_555
C16 O2 1.271123 1_555
C17 F9 1.361530 1_555
C17 F10 1.368492 1_555
C17 F7 1.375927 1_565
C18 H0 1.093836 1_555
C18 H19 1.095869 1_555
C18 H6 1.096096 1_555
C18 S6 1.811952 1_555
C19 O4 1.247456 1_555
C19 O1 1.271123 1_555
