# generated using pymatgen
data_Ba3Tb2(PS4)4
_symmetry_space_group_name_H-M   'P 1'
_cell_length_a   10.43538400
_cell_length_b   12.78381200
_cell_length_c   19.46190100
_cell_angle_alpha   90.00000000
_cell_angle_beta   90.00000000
_cell_angle_gamma   90.00000000
_symmetry_Int_Tables_number   1
_chemical_formula_structural   Ba3Tb2(PS4)4
_chemical_formula_sum   'Ba12 Tb8 P16 S64'
_cell_volume   2596.29519197
_cell_formula_units_Z   4
loop_
 _symmetry_equiv_pos_site_id
 _symmetry_equiv_pos_as_xyz
  1  'x, y, z'
loop_
 _atom_site_type_symbol
 _atom_site_label
 _atom_site_symmetry_multiplicity
 _atom_site_fract_x
 _atom_site_fract_y
 _atom_site_fract_z
 _atom_site_occupancy
  Ba  Ba0  1  0.28956000  0.10726100  0.27278300  1
  Ba  Ba1  1  0.11656600  0.25000000  0.00000000  1
  Ba  Ba2  1  0.21044000  0.60726100  0.22721700  1
  Ba  Ba3  1  0.61656600  0.25000000  0.50000000  1
  Ba  Ba4  1  0.71044000  0.60726100  0.27278300  1
  Ba  Ba5  1  0.21044000  0.89273900  0.77278300  1
  Ba  Ba6  1  0.78956000  0.39273900  0.77278300  1
  Ba  Ba7  1  0.78956000  0.10726100  0.22721700  1
  Ba  Ba8  1  0.88343400  0.75000000  0.00000000  1
  Ba  Ba9  1  0.71044000  0.89273900  0.72721700  1
  Ba  Ba10  1  0.28956000  0.39273900  0.72721700  1
  Ba  Ba11  1  0.38343400  0.75000000  0.50000000  1
  Tb  Tb0  1  0.37159000  0.61259200  0.92654500  1
  Tb  Tb1  1  0.62841000  0.38740800  0.07345500  1
  Tb  Tb2  1  0.12841000  0.38740800  0.42654500  1
  Tb  Tb3  1  0.12841000  0.11259200  0.57345500  1
  Tb  Tb4  1  0.87159000  0.61259200  0.57345500  1
  Tb  Tb5  1  0.62841000  0.11259200  0.92654500  1
  Tb  Tb6  1  0.37159000  0.88740800  0.07345500  1
  Tb  Tb7  1  0.87159000  0.88740800  0.42654500  1
  P  P0  1  0.99605500  0.13991400  0.39772800  1
  P  P1  1  0.49605500  0.36008600  0.89772800  1
  P  P2  1  0.99605500  0.36008600  0.60227200  1
  P  P3  1  0.50394500  0.86008600  0.89772800  1
  P  P4  1  0.43709300  0.04858900  0.63102100  1
  P  P5  1  0.00394500  0.86008600  0.60227200  1
  P  P6  1  0.00394500  0.63991400  0.39772800  1
  P  P7  1  0.06290700  0.54858900  0.86897900  1
  P  P8  1  0.93709300  0.04858900  0.86897900  1
  P  P9  1  0.43709300  0.45141100  0.36897900  1
  P  P10  1  0.50394500  0.63991400  0.10227200  1
  P  P11  1  0.56290700  0.95141100  0.36897900  1
  P  P12  1  0.06290700  0.95141100  0.13102100  1
  P  P13  1  0.49605500  0.13991400  0.10227200  1
  P  P14  1  0.93709300  0.45141100  0.13102100  1
  P  P15  1  0.56290700  0.54858900  0.63102100  1
  S  S0  1  0.56400100  0.73031300  0.84882100  1
  S  S1  1  0.00480800  0.01482200  0.33289400  1
  S  S2  1  0.38568600  0.60587500  0.64969700  1
  S  S3  1  0.56400100  0.76968700  0.15117900  1
  S  S4  1  0.70828300  0.88676000  0.30869400  1
  S  S5  1  0.61431400  0.39412500  0.35030300  1
  S  S6  1  0.88845600  0.09915200  0.48293100  1
  S  S7  1  0.93599900  0.23031300  0.65117900  1
  S  S8  1  0.17968900  0.33110700  0.56816500  1
  S  S9  1  0.50480800  0.01482200  0.16710600  1
  S  S10  1  0.88046700  0.41433400  0.03264200  1
  S  S11  1  0.38046700  0.41433400  0.46735800  1
  S  S12  1  0.20828300  0.88676000  0.19130600  1
  S  S13  1  0.88568600  0.89412500  0.14969700  1
  S  S14  1  0.56918400  0.38833700  0.64701100  1
  S  S15  1  0.06918400  0.11166300  0.14701100  1
  S  S16  1  0.93081600  0.88833700  0.85298900  1
  S  S17  1  0.43081600  0.88833700  0.64701100  1
  S  S18  1  0.61431400  0.10587500  0.64969700  1
  S  S19  1  0.99519200  0.51482200  0.33289400  1
  S  S20  1  0.61953300  0.91433400  0.46735800  1
  S  S21  1  0.88046700  0.08566600  0.96735800  1
  S  S22  1  0.67968900  0.16889300  0.06816500  1
  S  S23  1  0.43081600  0.61166300  0.35298900  1
  S  S24  1  0.29171700  0.38676000  0.30869400  1
  S  S25  1  0.79171700  0.38676000  0.19130600  1
  S  S26  1  0.88845600  0.40084800  0.51706900  1
  S  S27  1  0.67968900  0.33110700  0.93183500  1
  S  S28  1  0.17968900  0.16889300  0.43183500  1
  S  S29  1  0.70828300  0.61324000  0.69130600  1
  S  S30  1  0.49519200  0.51482200  0.16710600  1
  S  S31  1  0.99519200  0.98517800  0.66710600  1
  S  S32  1  0.11154400  0.59915200  0.48293100  1
  S  S33  1  0.61154400  0.59915200  0.01706900  1
  S  S34  1  0.06400100  0.76968700  0.34882100  1
  S  S35  1  0.50480800  0.48517800  0.83289400  1
  S  S36  1  0.11953300  0.58566600  0.96735800  1
  S  S37  1  0.11953300  0.91433400  0.03264200  1
  S  S38  1  0.11154400  0.90084800  0.51706900  1
  S  S39  1  0.11431400  0.39412500  0.14969700  1
  S  S40  1  0.43599900  0.23031300  0.84882100  1
  S  S41  1  0.88568600  0.60587500  0.85030300  1
  S  S42  1  0.20828300  0.61324000  0.80869400  1
  S  S43  1  0.82031100  0.66889300  0.43183500  1
  S  S44  1  0.93599900  0.26968700  0.34882100  1
  S  S45  1  0.38845600  0.40084800  0.98293100  1
  S  S46  1  0.00480800  0.48517800  0.66710600  1
  S  S47  1  0.38046700  0.08566600  0.53264200  1
  S  S48  1  0.49519200  0.98517800  0.83289400  1
  S  S49  1  0.93081600  0.61166300  0.14701100  1
  S  S50  1  0.32031100  0.66889300  0.06816500  1
  S  S51  1  0.38845600  0.09915200  0.01706900  1
  S  S52  1  0.61953300  0.58566600  0.53264200  1
  S  S53  1  0.61154400  0.90084800  0.98293100  1
  S  S54  1  0.29171700  0.11324000  0.69130600  1
  S  S55  1  0.56918400  0.11166300  0.35298900  1
  S  S56  1  0.43599900  0.26968700  0.15117900  1
  S  S57  1  0.06400100  0.73031300  0.65117900  1
  S  S58  1  0.11431400  0.10587500  0.85030300  1
  S  S59  1  0.06918400  0.38833700  0.85298900  1
  S  S60  1  0.38568600  0.89412500  0.35030300  1
  S  S61  1  0.79171700  0.11324000  0.80869400  1
  S  S62  1  0.32031100  0.83110700  0.93183500  1
  S  S63  1  0.82031100  0.83110700  0.56816500  1
loop_
_geom_bond_atom_site_label_1
_geom_bond_atom_site_label_2
_geom_bond_distance
_geom_bond_site_symmetry_2
Ba0 S9 3.266769 1_555
Ba0 S60 3.272049 1_545
Ba0 S55 3.309743 1_555
Ba0 S12 3.343603 1_545
Ba0 S15 3.359072 1_555
Ba0 S28 3.393697 1_555
Ba0 S1 3.405123 1_555
Ba0 S56 3.499682 1_555
Ba0 S24 3.640843 1_555
Ba1 S21 3.299580 1_454
Ba1 S10 3.299580 1_455
Ba1 S15 3.399699 1_555
Ba1 S59 3.399699 1_554
Ba1 S51 3.446631 1_555
Ba1 S45 3.446631 1_554
Ba1 S58 3.447183 1_554
Ba1 S39 3.447183 1_555
Ba2 S19 3.266769 1_455
Ba2 S39 3.272049 1_555
Ba2 S49 3.309743 1_455
Ba2 S24 3.343603 1_555
Ba2 S23 3.359072 1_555
Ba2 S50 3.393697 1_555
Ba2 S30 3.405123 1_555
Ba2 S34 3.499682 1_555
Ba2 S12 3.640843 1_555
Ba3 S47 3.299580 1_555
Ba3 S11 3.299580 1_555
Ba3 S55 3.399699 1_555
Ba3 S14 3.399699 1_555
Ba3 S26 3.446631 1_555
Ba3 S6 3.446631 1_555
Ba3 S18 3.447183 1_555
Ba3 S5 3.447183 1_555
Ba4 S30 3.266769 1_555
Ba4 S5 3.272049 1_555
Ba4 S23 3.309743 1_555
Ba4 S25 3.343603 1_555
Ba4 S49 3.359072 1_555
Ba4 S43 3.393697 1_555
Ba4 S19 3.405123 1_555
Ba4 S3 3.499682 1_555
Ba4 S4 3.640843 1_555
Ba5 S31 3.266769 1_455
Ba5 S58 3.272049 1_565
Ba5 S16 3.309743 1_455
Ba5 S54 3.343603 1_565
Ba5 S17 3.359072 1_555
Ba5 S62 3.393697 1_555
Ba5 S48 3.405123 1_555
Ba5 S57 3.499682 1_555
Ba5 S42 3.640843 1_555
Ba6 S46 3.266769 1_655
Ba6 S41 3.272049 1_555
Ba6 S59 3.309743 1_655
Ba6 S29 3.343603 1_555
Ba6 S14 3.359072 1_555
Ba6 S27 3.393697 1_555
Ba6 S35 3.405123 1_555
Ba6 S7 3.499682 1_555
Ba6 S61 3.640843 1_555
Ba7 S1 3.266769 1_655
Ba7 S13 3.272049 1_545
Ba7 S15 3.309743 1_655
Ba7 S4 3.343603 1_545
Ba7 S55 3.359072 1_555
Ba7 S22 3.393697 1_555
Ba7 S9 3.405123 1_555
Ba7 S44 3.499682 1_555
Ba7 S25 3.640843 1_555
Ba8 S37 3.299580 1_655
Ba8 S36 3.299580 1_654
Ba8 S49 3.399699 1_555
Ba8 S16 3.399699 1_554
Ba8 S33 3.446631 1_555
Ba8 S53 3.446631 1_554
Ba8 S41 3.447183 1_554
Ba8 S13 3.447183 1_555
Ba9 S48 3.266769 1_555
Ba9 S18 3.272049 1_565
Ba9 S17 3.309743 1_555
Ba9 S61 3.343603 1_565
Ba9 S16 3.359072 1_555
Ba9 S63 3.393697 1_555
Ba9 S31 3.405123 1_555
Ba9 S0 3.499682 1_555
Ba9 S29 3.640843 1_555
Ba10 S35 3.266769 1_555
Ba10 S2 3.272049 1_555
Ba10 S14 3.309743 1_555
Ba10 S42 3.343603 1_555
Ba10 S59 3.359072 1_555
Ba10 S8 3.393697 1_555
Ba10 S46 3.405123 1_555
Ba10 S40 3.499682 1_555
Ba10 S54 3.640843 1_555
Ba11 S52 3.299580 1_555
Ba11 S20 3.299580 1_555
Ba11 S17 3.399699 1_555
Ba11 S23 3.399699 1_555
Ba11 S38 3.446631 1_555
Ba11 S32 3.446631 1_555
Ba11 S2 3.447183 1_555
Ba11 S60 3.447183 1_555
P0 S44 2.012707 1_555
P0 S1 2.039057 1_655
P0 S28 2.061560 1_655
P0 S6 2.069292 1_555
P1 S40 2.012707 1_555
P1 S35 2.039057 1_555
P1 S27 2.061560 1_555
P1 S45 2.069292 1_555
P2 S7 2.012707 1_555
P2 S46 2.039057 1_655
P2 S8 2.061560 1_655
P2 S26 2.069292 1_555
P3 S0 2.012707 1_555
P3 S48 2.039057 1_555
P3 S62 2.061560 1_555
P3 S53 2.069292 1_555
P4 S18 2.022026 1_555
P4 S47 2.059052 1_555
P4 S17 2.073168 1_545
P4 S54 2.088319 1_555
P5 S57 2.012707 1_555
P5 S31 2.039057 1_455
P5 S63 2.061560 1_455
P5 S38 2.069292 1_555
P6 S34 2.012707 1_555
P6 S19 2.039057 1_455
P6 S43 2.061560 1_455
P6 S32 2.069292 1_555
P7 S41 2.022026 1_455
P7 S36 2.059052 1_555
P7 S59 2.073168 1_555
P7 S42 2.088319 1_555
P8 S58 2.022026 1_655
P8 S21 2.059052 1_555
P8 S16 2.073168 1_545
P8 S61 2.088319 1_555
P9 S5 2.022026 1_555
P9 S11 2.059052 1_555
P9 S23 2.073168 1_555
P9 S24 2.088319 1_555
P10 S3 2.012707 1_555
P10 S30 2.039057 1_555
P10 S50 2.061560 1_555
P10 S33 2.069292 1_555
P11 S60 2.022026 1_555
P11 S20 2.059052 1_555
P11 S55 2.073168 1_565
P11 S4 2.088319 1_555
P12 S13 2.022026 1_455
P12 S37 2.059052 1_555
P12 S15 2.073168 1_565
P12 S12 2.088319 1_555
P13 S56 2.012707 1_555
P13 S9 2.039057 1_555
P13 S22 2.061560 1_555
P13 S51 2.069292 1_555
P14 S39 2.022026 1_655
P14 S10 2.059052 1_555
P14 S49 2.073168 1_555
P14 S25 2.088319 1_555
P15 S2 2.022026 1_555
P15 S52 2.059052 1_555
P15 S14 2.073168 1_555
P15 S29 2.088319 1_555
S0 Tb0 2.929935 1_555
S1 Tb7 2.812060 1_445
S3 Tb6 2.929935 1_555
S4 Tb7 2.857427 1_555
S6 Tb7 2.926175 1_545
S6 Tb3 3.066501 1_655
S7 Tb3 2.929935 1_655
S8 Tb3 2.846109 1_555
S8 Tb2 2.898445 1_555
S9 Tb6 2.812060 1_545
S10 Tb1 2.769104 1_555
S11 Tb2 2.769104 1_555
S12 Tb6 2.857427 1_555
S19 Tb2 2.812060 1_655
S20 Tb7 2.769104 1_555
S21 Tb5 2.769104 1_555
S22 Tb1 2.846109 1_555
S22 Tb5 2.898445 1_554
S24 Tb2 2.857427 1_555
S25 Tb1 2.857427 1_555
S26 Tb4 2.926175 1_555
S26 Tb2 3.066501 1_655
S27 Tb5 2.846109 1_555
S27 Tb1 2.898445 1_556
S28 Tb2 2.846109 1_555
S28 Tb3 2.898445 1_555
S29 Tb4 2.857427 1_555
S30 Tb1 2.812060 1_555
S31 Tb3 2.812060 1_665
S32 Tb2 2.926175 1_555
S32 Tb4 3.066501 1_455
S33 Tb1 2.926175 1_555
S33 Tb0 3.066501 1_554
S34 Tb7 2.929935 1_455
S35 Tb0 2.812060 1_555
S36 Tb0 2.769104 1_555
S37 Tb6 2.769104 1_555
S38 Tb3 2.926175 1_565
S38 Tb7 3.066501 1_455
S40 Tb5 2.929935 1_555
S42 Tb0 2.857427 1_555
S43 Tb7 2.846109 1_555
S43 Tb4 2.898445 1_555
S44 Tb2 2.929935 1_655
S45 Tb0 2.926175 1_555
S45 Tb1 3.066501 1_556
S46 Tb4 2.812060 1_455
S47 Tb3 2.769104 1_555
S48 Tb5 2.812060 1_565
S50 Tb6 2.846109 1_555
S50 Tb0 2.898445 1_554
S51 Tb6 2.926175 1_545
S51 Tb5 3.066501 1_554
S52 Tb4 2.769104 1_555
S53 Tb5 2.926175 1_565
S53 Tb6 3.066501 1_556
S54 Tb3 2.857427 1_555
S56 Tb1 2.929935 1_555
S57 Tb4 2.929935 1_455
S61 Tb5 2.857427 1_555
S62 Tb0 2.846109 1_555
S62 Tb6 2.898445 1_556
S63 Tb4 2.846109 1_555
S63 Tb7 2.898445 1_555
