# generated using pymatgen
data_In4GeSe4
_symmetry_space_group_name_H-M   'P 1'
_cell_length_a   12.84671300
_cell_length_b   12.84671300
_cell_length_c   12.84671300
_cell_angle_alpha   90.00000000
_cell_angle_beta   90.00000000
_cell_angle_gamma   90.00000000
_symmetry_Int_Tables_number   1
_chemical_formula_structural   In4GeSe4
_chemical_formula_sum   'In32 Ge8 Se32'
_cell_volume   2120.19626850
_cell_formula_units_Z   8
loop_
 _symmetry_equiv_pos_site_id
 _symmetry_equiv_pos_as_xyz
  1  'x, y, z'
loop_
 _atom_site_type_symbol
 _atom_site_label
 _atom_site_symmetry_multiplicity
 _atom_site_fract_x
 _atom_site_fract_y
 _atom_site_fract_z
 _atom_site_occupancy
  In  In0  1  0.04008100  0.05954600  0.27774600  1
  In  In1  1  0.04008100  0.44045400  0.77774600  1
  In  In2  1  0.05954600  0.27774600  0.04008100  1
  In  In3  1  0.05954600  0.22225400  0.54008100  1
  In  In4  1  0.22139800  0.72139800  0.77860200  1
  In  In5  1  0.22139800  0.77860200  0.27860200  1
  In  In6  1  0.22225400  0.95991900  0.55954600  1
  In  In7  1  0.22225400  0.54008100  0.05954600  1
  In  In8  1  0.27774600  0.04008100  0.05954600  1
  In  In9  1  0.27774600  0.45991900  0.55954600  1
  In  In10  1  0.27860200  0.22139800  0.77860200  1
  In  In11  1  0.27860200  0.27860200  0.27860200  1
  In  In12  1  0.44045400  0.72225400  0.54008100  1
  In  In13  1  0.44045400  0.77774600  0.04008100  1
  In  In14  1  0.45991900  0.55954600  0.27774600  1
  In  In15  1  0.45991900  0.94045400  0.77774600  1
  In  In16  1  0.54008100  0.05954600  0.22225400  1
  In  In17  1  0.54008100  0.44045400  0.72225400  1
  In  In18  1  0.55954600  0.22225400  0.95991900  1
  In  In19  1  0.55954600  0.27774600  0.45991900  1
  In  In20  1  0.72139800  0.72139800  0.72139800  1
  In  In21  1  0.72139800  0.77860200  0.22139800  1
  In  In22  1  0.72225400  0.95991900  0.94045400  1
  In  In23  1  0.72225400  0.54008100  0.44045400  1
  In  In24  1  0.77774600  0.45991900  0.94045400  1
  In  In25  1  0.77774600  0.04008100  0.44045400  1
  In  In26  1  0.77860200  0.22139800  0.72139800  1
  In  In27  1  0.77860200  0.27860200  0.22139800  1
  In  In28  1  0.94045400  0.72225400  0.95991900  1
  In  In29  1  0.94045400  0.77774600  0.45991900  1
  In  In30  1  0.95991900  0.94045400  0.72225400  1
  In  In31  1  0.95991900  0.55954600  0.22225400  1
  Ge  Ge0  1  0.10082700  0.89917300  0.39917300  1
  Ge  Ge1  1  0.10082700  0.60082700  0.89917300  1
  Ge  Ge2  1  0.39917300  0.39917300  0.39917300  1
  Ge  Ge3  1  0.39917300  0.10082700  0.89917300  1
  Ge  Ge4  1  0.60082700  0.89917300  0.10082700  1
  Ge  Ge5  1  0.60082700  0.60082700  0.60082700  1
  Ge  Ge6  1  0.89917300  0.10082700  0.60082700  1
  Ge  Ge7  1  0.89917300  0.39917300  0.10082700  1
  Se  Se0  1  0.42504700  0.57495300  0.07495300  1
  Se  Se1  1  0.57495300  0.07495300  0.42504700  1
  Se  Se2  1  0.92504700  0.92504700  0.92504700  1
  Se  Se3  1  0.92504700  0.57495300  0.42504700  1
  Se  Se4  1  0.07507800  0.25709600  0.33211500  1
  Se  Se5  1  0.07507800  0.24290400  0.83211500  1
  Se  Se6  1  0.07495300  0.42504700  0.57495300  1
  Se  Se7  1  0.07495300  0.07495300  0.07495300  1
  Se  Se8  1  0.16788500  0.92492200  0.75709600  1
  Se  Se9  1  0.16788500  0.57507800  0.25709600  1
  Se  Se10  1  0.24290400  0.66788500  0.57507800  1
  Se  Se11  1  0.24290400  0.83211500  0.07507800  1
  Se  Se12  1  0.25709600  0.16788500  0.57507800  1
  Se  Se13  1  0.25709600  0.33211500  0.07507800  1
  Se  Se14  1  0.33211500  0.07507800  0.25709600  1
  Se  Se15  1  0.33211500  0.42492200  0.75709600  1
  Se  Se16  1  0.42504700  0.92504700  0.57495300  1
  Se  Se17  1  0.42492200  0.75709600  0.33211500  1
  Se  Se18  1  0.42492200  0.74290400  0.83211500  1
  Se  Se19  1  0.57507800  0.25709600  0.16788500  1
  Se  Se20  1  0.57507800  0.24290400  0.66788500  1
  Se  Se21  1  0.57495300  0.42504700  0.92504700  1
  Se  Se22  1  0.66788500  0.57507800  0.24290400  1
  Se  Se23  1  0.66788500  0.92492200  0.74290400  1
  Se  Se24  1  0.74290400  0.66788500  0.92492200  1
  Se  Se25  1  0.74290400  0.83211500  0.42492200  1
  Se  Se26  1  0.75709600  0.16788500  0.92492200  1
  Se  Se27  1  0.75709600  0.33211500  0.42492200  1
  Se  Se28  1  0.83211500  0.42492200  0.74290400  1
  Se  Se29  1  0.83211500  0.07507800  0.24290400  1
  Se  Se30  1  0.92492200  0.74290400  0.66788500  1
  Se  Se31  1  0.92492200  0.75709600  0.16788500  1
loop_
_geom_bond_atom_site_label_1
_geom_bond_atom_site_label_2
_geom_bond_distance
_geom_bond_site_symmetry_2
In0 Se7 2.650860 1_555
In0 Se4 2.670349 1_555
In0 Se29 2.716254 1_455
In1 Se6 2.650860 1_555
In1 Se5 2.670349 1_555
In1 Se28 2.716254 1_455
In2 Se7 2.650860 1_555
In2 Se13 2.670349 1_555
In2 Se5 2.716254 1_554
In3 Se6 2.650860 1_555
In3 Se12 2.670349 1_555
In3 Se4 2.716254 1_555
In4 Se18 2.717563 1_555
In4 Se8 2.717563 1_555
In4 Se10 2.717563 1_555
In5 Se11 2.717563 1_555
In5 Se17 2.717563 1_555
In5 Se9 2.717563 1_555
In6 Se16 2.650860 1_555
In6 Se8 2.670349 1_555
In6 Se12 2.716254 1_565
In7 Se0 2.650860 1_555
In7 Se9 2.670349 1_555
In7 Se13 2.716254 1_555
In8 Se7 2.650860 1_555
In8 Se14 2.670349 1_555
In8 Se11 2.716254 1_545
In9 Se6 2.650860 1_555
In9 Se15 2.670349 1_555
In9 Se10 2.716254 1_555
In10 Se5 2.717563 1_555
In10 Se15 2.717563 1_555
In10 Se12 2.717563 1_555
In11 Se13 2.717563 1_555
In11 Se14 2.717563 1_555
In11 Se4 2.717563 1_555
In12 Se16 2.650860 1_555
In12 Se10 2.670349 1_555
In12 Se17 2.716254 1_555
In13 Se0 2.650860 1_555
In13 Se11 2.670349 1_555
In13 Se18 2.716254 1_554
In14 Se0 2.650860 1_555
In14 Se17 2.670349 1_555
In14 Se22 2.716254 1_555
In15 Se16 2.650860 1_555
In15 Se18 2.670349 1_555
In15 Se23 2.716254 1_555
In16 Se1 2.650860 1_555
In16 Se19 2.670349 1_555
In16 Se14 2.716254 1_555
In17 Se21 2.650860 1_555
In17 Se20 2.670349 1_555
In17 Se15 2.716254 1_555
In18 Se21 2.650860 1_555
In18 Se26 2.670349 1_555
In18 Se19 2.716254 1_556
In19 Se1 2.650860 1_555
In19 Se27 2.670349 1_555
In19 Se20 2.716254 1_555
In20 Se23 2.717563 1_555
In20 Se30 2.717563 1_555
In20 Se24 2.717563 1_555
In21 Se25 2.717563 1_555
In21 Se31 2.717563 1_555
In21 Se22 2.717563 1_555
In22 Se2 2.650860 1_555
In22 Se23 2.670349 1_555
In22 Se26 2.716254 1_565
In23 Se3 2.650860 1_555
In23 Se22 2.670349 1_555
In23 Se27 2.716254 1_555
In24 Se21 2.650860 1_555
In24 Se28 2.670349 1_555
In24 Se24 2.716254 1_555
In25 Se1 2.650860 1_555
In25 Se29 2.670349 1_555
In25 Se25 2.716254 1_545
In26 Se28 2.717563 1_555
In26 Se26 2.717563 1_555
In26 Se20 2.717563 1_555
In27 Se29 2.717563 1_555
In27 Se27 2.717563 1_555
In27 Se19 2.717563 1_555
In28 Se2 2.650860 1_555
In28 Se24 2.670349 1_555
In28 Se31 2.716254 1_556
In29 Se3 2.650860 1_555
In29 Se25 2.670349 1_555
In29 Se30 2.716254 1_555
In30 Se2 2.650860 1_555
In30 Se30 2.670349 1_555
In30 Se8 2.716254 1_655
In31 Se3 2.650860 1_555
In31 Se31 2.670349 1_555
In31 Se9 2.716254 1_655
Ge0 In5 2.682845 1_555
Ge0 In29 2.699464 1_455
Ge0 In6 2.699464 1_555
Ge0 In0 2.699464 1_565
Ge1 In4 2.682845 1_555
Ge1 In28 2.699464 1_455
Ge1 In1 2.699464 1_555
Ge1 In7 2.699464 1_556
Ge2 In11 2.682845 1_555
Ge2 In19 2.699464 1_555
Ge2 In14 2.699464 1_555
Ge2 In9 2.699464 1_555
Ge3 In10 2.682845 1_555
Ge3 In15 2.699464 1_545
Ge3 In18 2.699464 1_555
Ge3 In8 2.699464 1_556
Ge4 In21 2.682845 1_555
Ge4 In22 2.699464 1_554
Ge4 In13 2.699464 1_555
Ge4 In16 2.699464 1_565
Ge5 In20 2.682845 1_555
Ge5 In23 2.699464 1_555
Ge5 In17 2.699464 1_555
Ge5 In12 2.699464 1_555
Ge6 In26 2.682845 1_555
Ge6 In30 2.699464 1_545
Ge6 In25 2.699464 1_555
Ge6 In3 2.699464 1_655
Ge7 In27 2.682845 1_555
Ge7 In24 2.699464 1_554
Ge7 In31 2.699464 1_555
Ge7 In2 2.699464 1_655
