# generated using pymatgen
data_SiO2
_symmetry_space_group_name_H-M   'P 1'
_cell_length_a   6.85498438
_cell_length_b   6.85498438
_cell_length_c   4.64319546
_cell_angle_alpha   79.67772194
_cell_angle_beta   79.67772194
_cell_angle_gamma   43.30501584
_symmetry_Int_Tables_number   1
_chemical_formula_structural   SiO2
_chemical_formula_sum   'Si6 O12'
_cell_volume   146.84351579
_cell_formula_units_Z   6
loop_
 _symmetry_equiv_pos_site_id
 _symmetry_equiv_pos_as_xyz
  1  'x, y, z'
loop_
 _atom_site_type_symbol
 _atom_site_label
 _atom_site_symmetry_multiplicity
 _atom_site_fract_x
 _atom_site_fract_y
 _atom_site_fract_z
 _atom_site_occupancy
  Si  Si0  1  0.69172200  0.98119700  0.32968800  1
  Si  Si1  1  0.30827800  0.01880300  0.67031200  1
  Si  Si2  1  0.35780900  0.64219100  0.25000000  1
  Si  Si3  1  0.98119700  0.69172200  0.82968800  1
  Si  Si4  1  0.64219100  0.35780900  0.75000000  1
  Si  Si5  1  0.01880300  0.30827800  0.17031200  1
  O  O0  1  0.96325100  0.21874800  0.53957600  1
  O  O1  1  0.30241100  0.54857100  0.96123200  1
  O  O2  1  0.21874800  0.96325100  0.03957600  1
  O  O3  1  0.69758900  0.45142900  0.03876800  1
  O  O4  1  0.86025900  0.65657200  0.18065900  1
  O  O5  1  0.34342800  0.13974100  0.31934100  1
  O  O6  1  0.13974100  0.34342800  0.81934100  1
  O  O7  1  0.03674900  0.78125200  0.46042400  1
  O  O8  1  0.65657200  0.86025900  0.68065900  1
  O  O9  1  0.54857100  0.30241100  0.46123200  1
  O  O10  1  0.78125200  0.03674900  0.96042400  1
  O  O11  1  0.45142900  0.69758900  0.53876800  1
loop_
_geom_bond_atom_site_label_1
_geom_bond_atom_site_label_2
_geom_bond_distance
_geom_bond_site_symmetry_2
O0 Si5 1.786188 1_655
O0 Si4 1.793542 1_555
O0 Si1 1.827376 1_655
O1 Si2 1.788681 1_556
O1 Si4 1.817985 1_555
O1 Si3 1.818469 1_455
O2 Si1 1.786188 1_564
O2 Si2 1.793542 1_555
O2 Si5 1.827376 1_565
O3 Si4 1.788681 1_554
O3 Si2 1.817985 1_555
O3 Si5 1.818469 1_655
O4 Si3 1.751252 1_554
O4 Si5 1.769092 1_655
O4 Si0 1.813582 1_555
O5 Si1 1.751252 1_555
O5 Si0 1.769092 1_545
O5 Si5 1.813582 1_555
O6 Si5 1.751252 1_556
O6 Si3 1.769092 1_455
O6 Si1 1.813582 1_555
O7 Si3 1.786188 1_455
O7 Si2 1.793542 1_555
O7 Si0 1.827376 1_455
O8 Si0 1.751252 1_555
O8 Si1 1.769092 1_565
O8 Si3 1.813582 1_555
O9 Si4 1.788681 1_555
O9 Si2 1.817985 1_555
O9 Si0 1.818469 1_545
O10 Si0 1.786188 1_546
O10 Si4 1.793542 1_555
O10 Si3 1.827376 1_545
O11 Si2 1.788681 1_555
O11 Si4 1.817985 1_555
O11 Si1 1.818469 1_565
