# generated using pymatgen
data_BaIrO3
_symmetry_space_group_name_H-M   'P 1'
_cell_length_a   5.83274888
_cell_length_b   5.83274888
_cell_length_c   14.97434683
_cell_angle_alpha   78.40800857
_cell_angle_beta   78.40800857
_cell_angle_gamma   59.54336278
_symmetry_Int_Tables_number   1
_chemical_formula_structural   BaIrO3
_chemical_formula_sum   'Ba6 Ir6 O18'
_cell_volume   427.21633937
_cell_formula_units_Z   6
loop_
 _symmetry_equiv_pos_site_id
 _symmetry_equiv_pos_as_xyz
  1  'x, y, z'
loop_
 _atom_site_type_symbol
 _atom_site_label
 _atom_site_symmetry_multiplicity
 _atom_site_fract_x
 _atom_site_fract_y
 _atom_site_fract_z
 _atom_site_occupancy
  Ba  Ba0  1  0.23024061  0.23024061  0.24907709  1
  Ba  Ba1  1  0.76975939  0.76975939  0.75092291  1
  Ba  Ba2  1  0.63393634  0.63393634  0.07416214  1
  Ba  Ba3  1  0.36606366  0.36606366  0.92583786  1
  Ba  Ba4  1  0.85278045  0.85278045  0.42348420  1
  Ba  Ba5  1  0.14721955  0.14721955  0.57651580  1
  Ir  Ir0  1  0.92330860  0.92330860  0.17448622  1
  Ir  Ir1  1  0.07669140  0.07669140  0.82551378  1
  Ir  Ir2  1  -0.00000000  0.00000000  -0.00000000  1
  Ir  Ir3  1  0.53820247  0.53820247  0.32570752  1
  Ir  Ir4  1  0.46179753  0.46179753  0.67429248  1
  Ir  Ir5  1  0.50000000  0.50000000  0.50000000  1
  O  O0  1  0.71674656  0.71674656  0.23066372  1
  O  O1  1  0.28325344  0.28325344  0.76933628  1
  O  O2  1  0.70613505  0.20420221  0.26120059  1
  O  O3  1  0.79579779  0.29386495  0.73879941  1
  O  O4  1  0.29386495  0.79579779  0.73879941  1
  O  O5  1  0.20420221  0.70613505  0.26120059  1
  O  O6  1  0.11548480  0.11548480  0.09551532  1
  O  O7  1  0.88451520  0.88451520  0.90448468  1
  O  O8  1  0.64638777  0.12664345  0.08392461  1
  O  O9  1  0.87335655  0.35361223  0.91607539  1
  O  O10  1  0.35361223  0.87335655  0.91607539  1
  O  O11  1  0.12664345  0.64638777  0.08392461  1
  O  O12  1  0.37022670  0.83544725  0.40679417  1
  O  O13  1  0.16455275  0.62977330  0.59320583  1
  O  O14  1  0.62977330  0.16455275  0.59320583  1
  O  O15  1  0.83544725  0.37022670  0.40679417  1
  O  O16  1  0.35821329  0.35821329  0.42298494  1
  O  O17  1  0.64178671  0.64178671  0.57701506  1
loop_
_geom_bond_atom_site_label_1
_geom_bond_atom_site_label_2
_geom_bond_distance
_geom_bond_site_symmetry_2
Ba0 O5 2.743172 1_555
Ba0 O2 2.743172 1_555
Ba0 O6 2.806239 1_555
Ba0 O15 2.868836 1_455
Ba0 O12 2.868836 1_545
Ba0 O0 2.915518 1_455
Ba0 O0 2.915518 1_545
Ba0 O11 3.012315 1_555
Ba0 O8 3.012315 1_555
Ba0 O5 3.104463 1_545
Ba0 O2 3.104463 1_455
Ba0 O16 3.165939 1_555
Ba1 O4 2.743172 1_555
Ba1 O3 2.743172 1_555
Ba1 O7 2.806239 1_555
Ba1 O13 2.868836 1_655
Ba1 O14 2.868836 1_565
Ba1 O1 2.915518 1_565
Ba1 O1 2.915518 1_655
Ba1 O9 3.012315 1_555
Ba1 O10 3.012315 1_555
Ba1 O3 3.104463 1_565
Ba1 O4 3.104463 1_655
Ba1 O17 3.165939 1_555
Ba2 O0 2.665513 1_555
Ba2 O10 2.853004 1_554
Ba2 O9 2.853004 1_554
Ba2 O11 2.897306 1_555
Ba2 O8 2.897306 1_555
Ba2 O6 2.915063 1_655
Ba2 O6 2.915063 1_565
Ba2 O8 2.944533 1_565
Ba2 O11 2.944533 1_655
Ba2 O7 3.147827 1_554
Ba2 O5 3.299547 1_555
Ba2 O2 3.299547 1_555
Ba3 O1 2.665513 1_555
Ba3 O8 2.853004 1_556
Ba3 O11 2.853004 1_556
Ba3 O10 2.897306 1_555
Ba3 O9 2.897306 1_555
Ba3 O7 2.915063 1_455
Ba3 O7 2.915063 1_545
Ba3 O10 2.944533 1_545
Ba3 O9 2.944533 1_455
Ba3 O6 3.147827 1_556
Ba3 O3 3.299547 1_555
Ba3 O4 3.299547 1_555
Ba4 O17 2.752438 1_555
Ba4 O2 2.809731 1_565
Ba4 O5 2.809731 1_655
Ba4 O16 2.896722 1_655
Ba4 O16 2.896722 1_565
Ba4 O15 2.928493 1_555
Ba4 O12 2.928493 1_555
Ba4 O15 2.929077 1_565
Ba4 O12 2.929077 1_655
Ba4 O14 3.096572 1_565
Ba4 O13 3.096572 1_655
Ba5 O16 2.752438 1_555
Ba5 O3 2.809731 1_455
Ba5 O4 2.809731 1_545
Ba5 O17 2.896722 1_455
Ba5 O17 2.896722 1_545
Ba5 O13 2.928493 1_555
Ba5 O14 2.928493 1_555
Ba5 O14 2.929077 1_455
Ba5 O13 2.929077 1_545
Ba5 O15 3.096572 1_455
Ba5 O12 3.096572 1_545
Ir0 O5 2.016172 1_655
Ir0 O2 2.016172 1_565
Ir0 O6 2.029691 1_665
Ir0 O11 2.036272 1_655
Ir0 O8 2.036272 1_565
Ir0 O0 2.065870 1_555
Ir1 O4 2.016172 1_545
Ir1 O3 2.016172 1_455
Ir1 O7 2.029691 1_445
Ir1 O10 2.036272 1_545
Ir1 O9 2.036272 1_455
Ir1 O1 2.065870 1_555
Ir2 O9 2.041047 1_454
Ir2 O8 2.041047 1_455
Ir2 O11 2.041047 1_545
Ir2 O10 2.041047 1_544
Ir2 O7 2.046339 1_444
Ir2 O6 2.046339 1_555
Ir3 O15 2.021394 1_555
Ir3 O12 2.021394 1_555
Ir3 O0 2.025526 1_555
Ir3 O5 2.032059 1_555
Ir3 O2 2.032059 1_555
Ir3 O16 2.052885 1_555
Ir4 O13 2.021394 1_555
Ir4 O14 2.021394 1_555
Ir4 O1 2.025526 1_555
Ir4 O4 2.032059 1_555
Ir4 O3 2.032059 1_555
Ir4 O17 2.052885 1_555
Ir5 O16 2.039071 1_555
Ir5 O17 2.039071 1_555
Ir5 O15 2.043241 1_555
Ir5 O12 2.043241 1_555
Ir5 O13 2.043241 1_555
Ir5 O14 2.043241 1_555
