# generated using pymatgen
data_Ca2CoTeO6
_symmetry_space_group_name_H-M   'P 1'
_cell_length_a   7.89622354
_cell_length_b   7.89452491
_cell_length_c   9.52811568
_cell_angle_alpha   113.49572466
_cell_angle_beta   113.50684805
_cell_angle_gamma   91.67892810
_symmetry_Int_Tables_number   1
_chemical_formula_structural   Ca2CoTeO6
_chemical_formula_sum   'Ca8 Co4 Te4 O24'
_cell_volume   486.82059092
_cell_formula_units_Z   4
loop_
 _symmetry_equiv_pos_site_id
 _symmetry_equiv_pos_as_xyz
  1  'x, y, z'
loop_
 _atom_site_type_symbol
 _atom_site_label
 _atom_site_symmetry_multiplicity
 _atom_site_fract_x
 _atom_site_fract_y
 _atom_site_fract_z
 _atom_site_occupancy
  Ca  Ca0  1  0.15789400  0.10616500  0.25113000  1
  Ca  Ca1  1  0.65789100  0.60614600  0.25110000  1
  Ca  Ca2  1  0.34212700  0.39383000  0.74888200  1
  Ca  Ca3  1  0.84208500  0.89385100  0.74887900  1
  Ca  Ca4  1  0.64383800  0.09208000  0.24886000  1
  Ca  Ca5  1  0.14381900  0.59208200  0.24886700  1
  Ca  Ca6  1  0.85614700  0.40791000  0.75113500  1
  Ca  Ca7  1  0.35618600  0.90792500  0.75112500  1
  Co  Co0  1  0.24999100  0.24999600  0.99998500  1
  Co  Co1  1  0.99998600  0.49998500  0.49996900  1
  Co  Co2  1  0.74999200  0.74999600  0.99998300  1
  Co  Co3  1  0.50000300  0.99999700  0.49999300  1
  Te  Te0  1  0.74998900  0.25002000  0.00005300  1
  Te  Te1  1  0.24998800  0.74999800  0.99993200  1
  Te  Te2  1  0.49999200  0.49999300  0.49993700  1
  Te  Te3  1  0.00002500  0.99997800  0.50004700  1
  O  O0  1  0.52201400  0.23720400  0.44719700  1
  O  O1  1  0.02197900  0.73740500  0.44714100  1
  O  O2  1  0.98726100  0.77200700  0.94722800  1
  O  O3  1  0.48746800  0.27195800  0.94713700  1
  O  O4  1  0.97801100  0.26255800  0.55277600  1
  O  O5  1  0.47800600  0.76281100  0.55281400  1
  O  O6  1  0.51275800  0.72802300  0.05280300  1
  O  O7  1  0.01249300  0.22802500  0.05276100  1
  O  O8  1  0.73667300  0.92820600  0.45417700  1
  O  O9  1  0.23693600  0.42819900  0.45422600  1
  O  O10  1  0.17823100  0.48682000  0.95423400  1
  O  O11  1  0.67820100  0.98661700  0.95416500  1
  O  O12  1  0.76307800  0.57183900  0.54588200  1
  O  O13  1  0.26328900  0.07181600  0.54581100  1
  O  O14  1  0.32181000  0.01320200  0.04587500  1
  O  O15  1  0.82181400  0.51333900  0.04581800  1
  O  O16  1  0.69446700  0.16028200  0.75917200  1
  O  O17  1  0.19461000  0.66038500  0.75939400  1
  O  O18  1  0.58970700  0.55551800  0.74083900  1
  O  O19  1  0.08959800  0.05539100  0.74067400  1
  O  O20  1  0.80541600  0.33961500  0.24065300  1
  O  O21  1  0.30554600  0.83969700  0.24082000  1
  O  O22  1  0.91028300  0.94449900  0.25918100  1
  O  O23  1  0.41039300  0.44463100  0.25934800  1
loop_
_geom_bond_atom_site_label_1
_geom_bond_atom_site_label_2
_geom_bond_distance
_geom_bond_site_symmetry_2
Ca0 O22 2.347132 1_445
Ca0 O7 2.366343 1_555
Ca0 O9 2.370308 1_555
Ca0 O21 2.421685 1_545
Ca0 O0 2.612810 1_555
Ca0 O14 2.639901 1_555
Ca0 O13 2.721382 1_555
Ca0 O2 2.783485 1_444
Ca1 O23 2.346849 1_555
Ca1 O6 2.365539 1_555
Ca1 O8 2.370602 1_555
Ca1 O20 2.421443 1_555
Ca1 O1 2.612715 1_655
Ca1 O15 2.640161 1_555
Ca1 O12 2.722293 1_555
Ca1 O3 2.783813 1_554
Ca2 O18 2.346977 1_555
Ca2 O3 2.365495 1_555
Ca2 O13 2.370275 1_555
Ca2 O17 2.421504 1_555
Ca2 O4 2.612974 1_455
Ca2 O10 2.640538 1_555
Ca2 O9 2.721404 1_555
Ca2 O6 2.783713 1_556
Ca3 O19 2.346814 1_665
Ca3 O2 2.365787 1_555
Ca3 O12 2.369938 1_555
Ca3 O16 2.421309 1_565
Ca3 O5 2.612548 1_555
Ca3 O11 2.639950 1_555
Ca3 O8 2.721583 1_555
Ca3 O7 2.783389 1_666
Ca4 O20 2.346922 1_555
Ca4 O0 2.365918 1_555
Ca4 O14 2.370233 1_555
Ca4 O22 2.421460 1_545
Ca4 O6 2.612179 1_545
Ca4 O8 2.639640 1_545
Ca4 O11 2.721763 1_544
Ca4 O4 2.783602 1_555
Ca5 O21 2.347186 1_555
Ca5 O1 2.365831 1_555
Ca5 O15 2.370372 1_455
Ca5 O23 2.421632 1_555
Ca5 O7 2.612388 1_555
Ca5 O9 2.640020 1_555
Ca5 O10 2.721566 1_554
Ca5 O5 2.783880 1_555
Ca6 O16 2.347018 1_555
Ca6 O4 2.366633 1_555
Ca6 O10 2.370844 1_655
Ca6 O18 2.421564 1_555
Ca6 O2 2.612495 1_555
Ca6 O12 2.639475 1_555
Ca6 O15 2.721558 1_556
Ca6 O0 2.783611 1_555
Ca7 O17 2.347290 1_555
Ca7 O5 2.365691 1_555
Ca7 O11 2.370444 1_555
Ca7 O19 2.421823 1_565
Ca7 O3 2.612102 1_565
Ca7 O13 2.639721 1_565
Ca7 O14 2.722465 1_566
Ca7 O1 2.784059 1_555
Co0 O19 2.105226 1_555
Co0 O23 2.105610 1_556
Co0 O10 2.126368 1_555
Co0 O14 2.126832 1_556
Co0 O7 2.145365 1_556
Co0 O3 2.145617 1_555
Co1 O20 2.105163 1_555
Co1 O17 2.105961 1_655
Co1 O9 2.127794 1_655
Co1 O12 2.128313 1_555
Co1 O4 2.144556 1_555
Co1 O1 2.144647 1_655
Co2 O18 2.103863 1_555
Co2 O22 2.104247 1_556
Co2 O11 2.125154 1_555
Co2 O15 2.125553 1_556
Co2 O2 2.143544 1_555
Co2 O6 2.143614 1_556
Co3 O21 2.104007 1_555
Co3 O16 2.104044 1_565
Co3 O8 2.125973 1_555
Co3 O13 2.126364 1_565
Co3 O5 2.142827 1_555
Co3 O0 2.142857 1_565
O0 Te2 1.961195 1_555
O1 Te3 1.959237 1_555
O2 Te1 1.961065 1_655
O3 Te0 1.959119 1_556
O4 Te3 1.959614 1_645
O5 Te2 1.961182 1_555
O6 Te1 1.961124 1_554
O7 Te0 1.959348 1_455
O8 Te3 1.960821 1_655
O9 Te2 1.959077 1_555
O10 Te1 1.959645 1_555
O11 Te0 1.960826 1_566
O12 Te2 1.958672 1_555
O13 Te3 1.960559 1_545
O14 Te1 1.959193 1_544
O15 Te0 1.960606 1_555
O16 Te0 1.960715 1_556
O17 Te1 1.958051 1_555
O18 Te2 1.960868 1_555
O19 Te3 1.958762 1_545
O20 Te0 1.958523 1_555
O21 Te1 1.960740 1_554
O22 Te3 1.960615 1_655
O23 Te2 1.958502 1_555
