# generated using pymatgen
data_BaGd2Mn2O7
_symmetry_space_group_name_H-M   'P 1'
_cell_length_a   5.56100071
_cell_length_b   5.56100071
_cell_length_c   19.82938477
_cell_angle_alpha   90.00000000
_cell_angle_beta   90.00000000
_cell_angle_gamma   90.00000000
_symmetry_Int_Tables_number   1
_chemical_formula_structural   BaGd2Mn2O7
_chemical_formula_sum   'Ba4 Gd8 Mn8 O28'
_cell_volume   613.21834820
_cell_formula_units_Z   4
loop_
 _symmetry_equiv_pos_site_id
 _symmetry_equiv_pos_as_xyz
  1  'x, y, z'
loop_
 _atom_site_type_symbol
 _atom_site_label
 _atom_site_symmetry_multiplicity
 _atom_site_fract_x
 _atom_site_fract_y
 _atom_site_fract_z
 _atom_site_occupancy
  Ba  Ba0  1  0.24553757  0.24553757  -0.00000000  1
  Ba  Ba1  1  0.25446243  0.74553757  0.50000000  1
  Ba  Ba2  1  0.74553757  0.25446243  0.50000000  1
  Ba  Ba3  1  0.75446243  0.75446243  -0.00000000  1
  Gd  Gd0  1  0.22791622  0.22791622  0.18306679  1
  Gd  Gd1  1  0.27208378  0.72791622  0.68306679  1
  Gd  Gd2  1  0.72791622  0.27208378  0.68306679  1
  Gd  Gd3  1  0.72791622  0.27208378  0.31693321  1
  Gd  Gd4  1  0.27208378  0.72791622  0.31693321  1
  Gd  Gd5  1  0.77208378  0.77208378  0.18306679  1
  Gd  Gd6  1  0.22791622  0.22791622  0.81693321  1
  Gd  Gd7  1  0.77208378  0.77208378  0.81693321  1
  Mn  Mn0  1  0.24664998  0.24664998  0.39755510  1
  Mn  Mn1  1  0.25335002  0.74664998  0.89755510  1
  Mn  Mn2  1  0.74664998  0.25335002  0.89755510  1
  Mn  Mn3  1  0.74664998  0.25335002  0.10244490  1
  Mn  Mn4  1  0.25335002  0.74664998  0.10244490  1
  Mn  Mn5  1  0.75335002  0.75335002  0.39755510  1
  Mn  Mn6  1  0.24664998  0.24664998  0.60244490  1
  Mn  Mn7  1  0.75335002  0.75335002  0.60244490  1
  O  O0  1  0.26849787  0.73150213  -0.00000000  1
  O  O1  1  0.76849787  0.76849787  0.50000000  1
  O  O2  1  0.23150213  0.23150213  0.50000000  1
  O  O3  1  0.73150213  0.26849787  -0.00000000  1
  O  O4  1  -0.00000000  0.50000000  0.38875337  1
  O  O5  1  -0.00000000  0.50000000  0.88875337  1
  O  O6  1  0.50000000  0.00000000  0.11124663  1
  O  O7  1  0.50000000  0.00000000  0.61124663  1
  O  O8  1  -0.00000000  0.50000000  0.61124663  1
  O  O9  1  -0.00000000  0.50000000  0.11124663  1
  O  O10  1  0.50000000  0.00000000  0.88875337  1
  O  O11  1  0.50000000  0.00000000  0.38875337  1
  O  O12  1  -0.00000000  0.00000000  0.09877733  1
  O  O13  1  0.50000000  0.50000000  0.59877733  1
  O  O14  1  0.50000000  0.50000000  0.40122267  1
  O  O15  1  -0.00000000  0.00000000  0.90122267  1
  O  O16  1  -0.00000000  0.00000000  0.37730573  1
  O  O17  1  0.50000000  0.50000000  0.87730573  1
  O  O18  1  0.50000000  0.50000000  0.12269427  1
  O  O19  1  -0.00000000  0.00000000  0.62269427  1
  O  O20  1  0.30313598  0.30313598  0.29072448  1
  O  O21  1  0.19686402  0.80313598  0.79072448  1
  O  O22  1  0.80313598  0.19686402  0.79072448  1
  O  O23  1  0.80313598  0.19686402  0.20927552  1
  O  O24  1  0.19686402  0.80313598  0.20927552  1
  O  O25  1  0.69686402  0.69686402  0.29072448  1
  O  O26  1  0.30313598  0.30313598  0.70927552  1
  O  O27  1  0.69686402  0.69686402  0.70927552  1
loop_
_geom_bond_atom_site_label_1
_geom_bond_atom_site_label_2
_geom_bond_distance
_geom_bond_site_symmetry_2
Ba0 O0 2.705464 1_555
Ba0 O3 2.705464 1_555
Ba0 O15 2.750510 1_554
Ba0 O12 2.750510 1_555
Ba0 O3 2.861402 1_455
Ba0 O0 2.861402 1_545
Ba0 O9 2.955173 1_555
Ba0 O6 2.955173 1_555
Ba0 O10 2.955173 1_554
Ba0 O5 2.955173 1_554
Ba0 O18 3.150250 1_555
Ba0 O17 3.150250 1_554
Ba1 O2 2.705464 1_565
Ba1 O1 2.705464 1_455
Ba1 O14 2.750510 1_555
Ba1 O13 2.750510 1_555
Ba1 O1 2.861402 1_555
Ba1 O2 2.861402 1_555
Ba1 O8 2.955173 1_555
Ba1 O11 2.955173 1_565
Ba1 O4 2.955173 1_555
Ba1 O7 2.955173 1_565
Ba1 O19 3.150250 1_565
Ba1 O16 3.150250 1_565
Ba2 O2 2.705464 1_655
Ba2 O1 2.705464 1_545
Ba2 O14 2.750510 1_555
Ba2 O13 2.750510 1_555
Ba2 O2 2.861402 1_555
Ba2 O1 2.861402 1_555
Ba2 O7 2.955173 1_555
Ba2 O11 2.955173 1_555
Ba2 O4 2.955173 1_655
Ba2 O8 2.955173 1_655
Ba2 O19 3.150250 1_655
Ba2 O16 3.150250 1_655
Ba3 O0 2.705464 1_555
Ba3 O3 2.705464 1_555
Ba3 O15 2.750510 1_664
Ba3 O12 2.750510 1_665
Ba3 O0 2.861402 1_655
Ba3 O3 2.861402 1_565
Ba3 O9 2.955173 1_655
Ba3 O6 2.955173 1_565
Ba3 O5 2.955173 1_654
Ba3 O10 2.955173 1_564
Ba3 O18 3.150250 1_555
Ba3 O17 3.150250 1_554
Gd0 O20 2.215233 1_555
Gd0 O24 2.424853 1_545
Gd0 O23 2.424853 1_455
Gd0 O6 2.433918 1_555
Gd0 O9 2.433918 1_555
Gd0 O12 2.450801 1_555
Gd0 O18 2.451909 1_555
Gd1 O21 2.215233 1_555
Gd1 O26 2.424853 1_555
Gd1 O27 2.424853 1_555
Gd1 O7 2.433918 1_565
Gd1 O8 2.433918 1_555
Gd1 O13 2.450801 1_555
Gd1 O19 2.451909 1_565
Gd2 O22 2.215233 1_555
Gd2 O27 2.424853 1_555
Gd2 O26 2.424853 1_555
Gd2 O8 2.433918 1_655
Gd2 O7 2.433918 1_555
Gd2 O13 2.450801 1_555
Gd2 O19 2.451909 1_655
Gd3 O23 2.215233 1_555
Gd3 O25 2.424853 1_555
Gd3 O20 2.424853 1_555
Gd3 O11 2.433918 1_555
Gd3 O4 2.433918 1_655
Gd3 O14 2.450801 1_555
Gd3 O16 2.451909 1_655
Gd4 O24 2.215233 1_555
Gd4 O20 2.424853 1_555
Gd4 O25 2.424853 1_555
Gd4 O4 2.433918 1_555
Gd4 O11 2.433918 1_565
Gd4 O14 2.450801 1_555
Gd4 O16 2.451909 1_565
Gd5 O25 2.215233 1_555
Gd5 O24 2.424853 1_655
Gd5 O23 2.424853 1_565
Gd5 O6 2.433918 1_565
Gd5 O9 2.433918 1_655
Gd5 O12 2.450801 1_665
Gd5 O18 2.451909 1_555
Gd6 O26 2.215233 1_555
Gd6 O21 2.424853 1_545
Gd6 O22 2.424853 1_455
Gd6 O5 2.433918 1_555
Gd6 O10 2.433918 1_555
Gd6 O15 2.450801 1_555
Gd6 O17 2.451909 1_555
Gd7 O27 2.215233 1_555
Gd7 O22 2.424853 1_565
Gd7 O21 2.424853 1_655
Gd7 O10 2.433918 1_565
Gd7 O5 2.433918 1_655
Gd7 O15 2.450801 1_665
Gd7 O17 2.451909 1_555
Mn0 O11 1.974018 1_555
Mn0 O4 1.974018 1_555
Mn0 O16 1.980887 1_555
Mn0 O14 1.993784 1_555
Mn0 O2 2.034909 1_555
Mn0 O20 2.164463 1_555
Mn1 O10 1.974018 1_565
Mn1 O5 1.974018 1_555
Mn1 O17 1.980887 1_555
Mn1 O15 1.993784 1_565
Mn1 O0 2.034909 1_556
Mn1 O21 2.164463 1_555
Mn2 O5 1.974018 1_655
Mn2 O10 1.974018 1_555
Mn2 O17 1.980887 1_555
Mn2 O15 1.993784 1_655
Mn2 O3 2.034909 1_556
Mn2 O22 2.164463 1_555
Mn3 O9 1.974018 1_655
Mn3 O6 1.974018 1_555
Mn3 O18 1.980887 1_555
Mn3 O12 1.993784 1_655
Mn3 O3 2.034909 1_555
Mn3 O23 2.164463 1_555
Mn4 O6 1.974018 1_565
Mn4 O9 1.974018 1_555
Mn4 O18 1.980887 1_555
Mn4 O12 1.993784 1_565
Mn4 O0 2.034909 1_555
Mn4 O24 2.164463 1_555
Mn5 O4 1.974018 1_655
Mn5 O11 1.974018 1_565
Mn5 O16 1.980887 1_665
Mn5 O14 1.993784 1_555
Mn5 O1 2.034909 1_555
Mn5 O25 2.164463 1_555
Mn6 O8 1.974018 1_555
Mn6 O7 1.974018 1_555
Mn6 O19 1.980887 1_555
Mn6 O13 1.993784 1_555
Mn6 O2 2.034909 1_555
Mn6 O26 2.164463 1_555
Mn7 O7 1.974018 1_565
Mn7 O8 1.974018 1_655
Mn7 O19 1.980887 1_665
Mn7 O13 1.993784 1_555
Mn7 O1 2.034909 1_555
Mn7 O27 2.164463 1_555
