# generated using pymatgen
data_Ba3AlF9
_symmetry_space_group_name_H-M   'P 1'
_cell_length_a   7.65854000
_cell_length_b   14.79851500
_cell_length_c   15.10369800
_cell_angle_alpha   90.00000000
_cell_angle_beta   90.00000000
_cell_angle_gamma   90.00000000
_symmetry_Int_Tables_number   1
_chemical_formula_structural   Ba3AlF9
_chemical_formula_sum   'Ba24 Al8 F72'
_cell_volume   1711.77790083
_cell_formula_units_Z   8
loop_
 _symmetry_equiv_pos_site_id
 _symmetry_equiv_pos_as_xyz
  1  'x, y, z'
loop_
 _atom_site_type_symbol
 _atom_site_label
 _atom_site_symmetry_multiplicity
 _atom_site_fract_x
 _atom_site_fract_y
 _atom_site_fract_z
 _atom_site_occupancy
  Ba  Ba0  1  0.74192100  0.40178900  0.10847000  1
  Ba  Ba1  1  0.00000000  0.85618000  0.00000000  1
  Ba  Ba2  1  0.24159900  0.19817900  0.68863000  1
  Ba  Ba3  1  0.24159900  0.69817900  0.81137000  1
  Ba  Ba4  1  0.74960100  0.28133700  0.77305000  1
  Ba  Ba5  1  0.49245800  0.00425400  0.14541300  1
  Ba  Ba6  1  0.25039900  0.28133700  0.22695000  1
  Ba  Ba7  1  0.25807900  0.40178900  0.89153000  1
  Ba  Ba8  1  0.50754200  0.00425400  0.85458700  1
  Ba  Ba9  1  0.50754200  0.50425400  0.64541300  1
  Ba  Ba10  1  0.49245800  0.50425400  0.35458700  1
  Ba  Ba11  1  0.77223100  0.06948500  0.59508200  1
  Ba  Ba12  1  0.00000000  0.17737000  0.00000000  1
  Ba  Ba13  1  0.22776900  0.06948500  0.40491800  1
  Ba  Ba14  1  0.00000000  0.67737000  0.50000000  1
  Ba  Ba15  1  0.77223100  0.56948500  0.90491800  1
  Ba  Ba16  1  0.75840100  0.69817900  0.18863000  1
  Ba  Ba17  1  0.00000000  0.35618000  0.50000000  1
  Ba  Ba18  1  0.25039900  0.78133700  0.27305000  1
  Ba  Ba19  1  0.75840100  0.19817900  0.31137000  1
  Ba  Ba20  1  0.25807900  0.90178900  0.60847000  1
  Ba  Ba21  1  0.74960100  0.78133700  0.72695000  1
  Ba  Ba22  1  0.22776900  0.56948500  0.09508200  1
  Ba  Ba23  1  0.74192100  0.90178900  0.39153000  1
  Al  Al0  1  0.50000000  0.81060300  0.00000000  1
  Al  Al1  1  0.50000000  0.20488300  0.00000000  1
  Al  Al2  1  0.98322500  0.48408200  0.30097400  1
  Al  Al3  1  0.50000000  0.70488300  0.50000000  1
  Al  Al4  1  0.01677500  0.98408200  0.80097400  1
  Al  Al5  1  0.01677500  0.48408200  0.69902600  1
  Al  Al6  1  0.98322500  0.98408200  0.19902600  1
  Al  Al7  1  0.50000000  0.31060300  0.50000000  1
  F  F0  1  0.66987100  0.28676700  0.97173800  1
  F  F1  1  0.50000000  0.49294700  0.00000000  1
  F  F2  1  0.93493100  0.25130800  0.15902800  1
  F  F3  1  0.43481200  0.20744400  0.88285900  1
  F  F4  1  0.21805800  0.53371600  0.74423200  1
  F  F5  1  0.65887300  0.90327200  0.00825900  1
  F  F6  1  0.15073300  0.87996100  0.81571500  1
  F  F7  1  0.67276400  0.22773200  0.48839400  1
  F  F8  1  0.34112700  0.40327200  0.50825900  1
  F  F9  1  0.56518800  0.70744400  0.38285900  1
  F  F10  1  0.34013900  0.11483300  0.02365700  1
  F  F11  1  0.66987100  0.78676700  0.52826200  1
  F  F12  1  0.33012900  0.28676700  0.02826200  1
  F  F13  1  0.13888200  0.56754700  0.92590100  1
  F  F14  1  0.33012900  0.78676700  0.47173800  1
  F  F15  1  0.92487900  0.22817500  0.62953700  1
  F  F16  1  0.44700800  0.92362700  0.30024900  1
  F  F17  1  0.07512100  0.72817500  0.12953700  1
  F  F18  1  0.07650700  0.52046100  0.58891700  1
  F  F19  1  0.50000000  0.99294700  0.50000000  1
  F  F20  1  0.93493100  0.75130800  0.34097200  1
  F  F21  1  0.34013900  0.61483300  0.47634300  1
  F  F22  1  0.65986100  0.11483300  0.97634300  1
  F  F23  1  0.00000000  0.37774900  0.00000000  1
  F  F24  1  0.06506900  0.25130800  0.84097200  1
  F  F25  1  0.10832100  0.08577800  0.21953800  1
  F  F26  1  0.65887300  0.40327200  0.49174100  1
  F  F27  1  0.51833900  0.31260200  0.62326800  1
  F  F28  1  0.04781100  0.44210900  0.19118900  1
  F  F29  1  0.00000000  0.87774900  0.50000000  1
  F  F30  1  0.92349300  0.52046100  0.41108300  1
  F  F31  1  0.43481200  0.70744400  0.61714100  1
  F  F32  1  0.56518800  0.20744400  0.11714100  1
  F  F33  1  0.89167900  0.08577800  0.78046200  1
  F  F34  1  0.95218900  0.94210900  0.69118900  1
  F  F35  1  0.84926700  0.37996100  0.31571500  1
  F  F36  1  0.07650700  0.02046100  0.91108300  1
  F  F37  1  0.92487900  0.72817500  0.87046300  1
  F  F38  1  0.78194200  0.03371600  0.24423200  1
  F  F39  1  0.92349300  0.02046100  0.08891700  1
  F  F40  1  0.48166100  0.31260200  0.37673200  1
  F  F41  1  0.84926700  0.87996100  0.18428500  1
  F  F42  1  0.17137600  0.92424300  0.15408100  1
  F  F43  1  0.51833900  0.81260200  0.87673200  1
  F  F44  1  0.07512100  0.22817500  0.37046300  1
  F  F45  1  0.44189000  0.13588300  0.28221700  1
  F  F46  1  0.34112700  0.90327200  0.99174100  1
  F  F47  1  0.17137600  0.42424300  0.34591900  1
  F  F48  1  0.55811000  0.13588300  0.71778300  1
  F  F49  1  0.32723600  0.22773200  0.51160600  1
  F  F50  1  0.82862400  0.42424300  0.65408100  1
  F  F51  1  0.86111800  0.06754700  0.42590100  1
  F  F52  1  0.32723600  0.72773200  0.98839400  1
  F  F53  1  0.55811000  0.63588300  0.78221700  1
  F  F54  1  0.10832100  0.58577800  0.28046200  1
  F  F55  1  0.55299200  0.42362700  0.80024900  1
  F  F56  1  0.44700800  0.42362700  0.19975100  1
  F  F57  1  0.15073300  0.37996100  0.68428500  1
  F  F58  1  0.21805800  0.03371600  0.75576800  1
  F  F59  1  0.95218900  0.44210900  0.80881100  1
  F  F60  1  0.13888200  0.06754700  0.57409900  1
  F  F61  1  0.82862400  0.92424300  0.84591900  1
  F  F62  1  0.65986100  0.61483300  0.52365700  1
  F  F63  1  0.06506900  0.75130800  0.65902800  1
  F  F64  1  0.04781100  0.94210900  0.30881100  1
  F  F65  1  0.78194200  0.53371600  0.25576800  1
  F  F66  1  0.67276400  0.72773200  0.01160600  1
  F  F67  1  0.89167900  0.58577800  0.71953800  1
  F  F68  1  0.48166100  0.81260200  0.12326800  1
  F  F69  1  0.55299200  0.92362700  0.69975100  1
  F  F70  1  0.86111800  0.56754700  0.07409900  1
  F  F71  1  0.44189000  0.63588300  0.21778300  1
loop_
_geom_bond_atom_site_label_1
_geom_bond_atom_site_label_2
_geom_bond_distance
_geom_bond_site_symmetry_2
Ba0 F23 2.591750 1_655
Ba0 F56 2.665799 1_555
Ba0 F70 2.668316 1_555
Ba0 F28 2.721220 1_655
Ba0 F0 2.732525 1_554
Ba0 F2 2.779778 1_555
Ba0 F1 2.817189 1_555
Ba0 F65 2.975735 1_555
Ba0 F32 3.181295 1_555
Ba0 F35 3.252407 1_555
Ba1 F5 2.706761 1_455
Ba1 F46 2.706761 1_554
Ba1 F17 2.783369 1_555
Ba1 F37 2.783369 1_454
Ba1 F39 2.838524 1_465
Ba1 F36 2.838524 1_564
Ba1 F42 2.855341 1_555
Ba1 F61 2.855341 1_454
Ba1 F41 3.033762 1_455
Ba1 F6 3.033762 1_554
Ba1 F66 3.150350 1_455
Ba1 F52 3.150350 1_554
Ba2 F15 2.622449 1_455
Ba2 F48 2.630512 1_555
Ba2 F58 2.642761 1_555
Ba2 F60 2.710774 1_555
Ba2 F57 2.779432 1_555
Ba2 F24 2.782126 1_555
Ba2 F49 2.787503 1_555
Ba2 F27 2.886827 1_555
Ba3 F37 2.622449 1_455
Ba3 F53 2.630512 1_555
Ba3 F4 2.642761 1_555
Ba3 F13 2.710774 1_555
Ba3 F6 2.779432 1_555
Ba3 F63 2.782126 1_555
Ba3 F52 2.787503 1_555
Ba3 F43 2.886827 1_555
Ba4 F55 2.621049 1_555
Ba4 F24 2.662155 1_655
Ba4 F15 2.668198 1_555
Ba4 F48 2.735105 1_555
Ba4 F50 2.840314 1_555
Ba4 F59 2.891281 1_555
Ba4 F27 2.910120 1_555
Ba4 F0 3.063470 1_555
Ba4 F33 3.093809 1_555
Ba4 F3 3.123864 1_555
Ba5 F16 2.648362 1_545
Ba5 F38 2.707941 1_555
Ba5 F10 2.724048 1_555
Ba5 F42 2.732376 1_545
Ba5 F5 2.854605 1_545
Ba5 F68 2.857016 1_545
Ba5 F45 2.865960 1_555
Ba5 F46 2.993913 1_544
Ba5 F32 3.087734 1_555
Ba6 F56 2.621049 1_555
Ba6 F2 2.662155 1_455
Ba6 F44 2.668198 1_555
Ba6 F45 2.735105 1_555
Ba6 F47 2.840314 1_555
Ba6 F28 2.891281 1_555
Ba6 F40 2.910120 1_555
Ba6 F12 3.063470 1_555
Ba6 F25 3.093809 1_555
Ba6 F32 3.123864 1_555
Ba7 F23 2.591750 1_556
Ba7 F55 2.665799 1_555
Ba7 F13 2.668316 1_555
Ba7 F59 2.721220 1_455
Ba7 F12 2.732525 1_556
Ba7 F24 2.779778 1_555
Ba7 F1 2.817189 1_556
Ba7 F4 2.975735 1_555
Ba7 F3 3.181295 1_555
Ba7 F57 3.252407 1_555
Ba8 F69 2.648362 1_545
Ba8 F58 2.707941 1_555
Ba8 F22 2.724048 1_555
Ba8 F61 2.732376 1_545
Ba8 F46 2.854605 1_545
Ba8 F43 2.857016 1_545
Ba8 F48 2.865960 1_555
Ba8 F5 2.993913 1_546
Ba8 F3 3.087734 1_555
Ba9 F55 2.648362 1_555
Ba9 F4 2.707941 1_555
Ba9 F62 2.724048 1_555
Ba9 F50 2.732376 1_555
Ba9 F8 2.854605 1_555
Ba9 F27 2.857016 1_555
Ba9 F53 2.865960 1_555
Ba9 F26 2.993913 1_555
Ba9 F31 3.087734 1_555
Ba10 F56 2.648362 1_555
Ba10 F65 2.707941 1_555
Ba10 F21 2.724048 1_555
Ba10 F47 2.732376 1_555
Ba10 F26 2.854605 1_555
Ba10 F40 2.857016 1_555
Ba10 F71 2.865960 1_555
Ba10 F8 2.993913 1_555
Ba10 F9 3.087734 1_555
Ba11 F51 2.644538 1_555
Ba11 F48 2.662537 1_555
Ba11 F15 2.674395 1_555
Ba11 F34 2.749485 1_545
Ba11 F19 2.773449 1_545
Ba11 F60 2.825985 1_655
Ba11 F7 2.942954 1_555
Ba11 F33 2.955429 1_555
Ba11 F69 3.158713 1_545
Ba12 F24 2.686024 1_554
Ba12 F2 2.686024 1_455
Ba12 F39 2.745665 1_455
Ba12 F36 2.745665 1_554
Ba12 F22 2.787471 1_454
Ba12 F10 2.787471 1_555
Ba12 F23 2.965312 1_555
Ba12 F0 3.032395 1_454
Ba12 F12 3.032395 1_555
Ba13 F60 2.644538 1_555
Ba13 F45 2.662537 1_555
Ba13 F44 2.674395 1_555
Ba13 F64 2.749485 1_545
Ba13 F19 2.773449 1_545
Ba13 F51 2.825985 1_455
Ba13 F49 2.942954 1_555
Ba13 F25 2.955429 1_555
Ba13 F16 3.158713 1_545
Ba14 F63 2.686024 1_555
Ba14 F20 2.686024 1_455
Ba14 F30 2.745665 1_455
Ba14 F18 2.745665 1_555
Ba14 F62 2.787471 1_455
Ba14 F21 2.787471 1_555
Ba14 F29 2.965312 1_555
Ba14 F11 3.032395 1_455
Ba14 F14 3.032395 1_555
Ba15 F70 2.644538 1_556
Ba15 F53 2.662537 1_555
Ba15 F37 2.674395 1_555
Ba15 F59 2.749485 1_555
Ba15 F1 2.773449 1_556
Ba15 F13 2.825985 1_655
Ba15 F66 2.942954 1_556
Ba15 F67 2.955429 1_555
Ba15 F55 3.158713 1_555
Ba16 F17 2.622449 1_655
Ba16 F71 2.630512 1_555
Ba16 F65 2.642761 1_555
Ba16 F70 2.710774 1_555
Ba16 F41 2.779432 1_555
Ba16 F20 2.782126 1_555
Ba16 F66 2.787503 1_555
Ba16 F68 2.886827 1_555
Ba17 F26 2.706761 1_455
Ba17 F8 2.706761 1_555
Ba17 F44 2.783369 1_555
Ba17 F15 2.783369 1_455
Ba17 F30 2.838524 1_455
Ba17 F18 2.838524 1_555
Ba17 F47 2.855341 1_555
Ba17 F50 2.855341 1_455
Ba17 F35 3.033762 1_455
Ba17 F57 3.033762 1_555
Ba17 F49 3.150350 1_555
Ba17 F7 3.150350 1_455
Ba18 F16 2.621049 1_555
Ba18 F20 2.662155 1_455
Ba18 F17 2.668198 1_555
Ba18 F71 2.735105 1_555
Ba18 F42 2.840314 1_555
Ba18 F64 2.891281 1_555
Ba18 F68 2.910120 1_555
Ba18 F14 3.063470 1_555
Ba18 F54 3.093809 1_555
Ba18 F9 3.123864 1_555
Ba19 F44 2.622449 1_655
Ba19 F45 2.630512 1_555
Ba19 F38 2.642761 1_555
Ba19 F51 2.710774 1_555
Ba19 F35 2.779432 1_555
Ba19 F2 2.782126 1_555
Ba19 F7 2.787503 1_555
Ba19 F40 2.886827 1_555
Ba20 F29 2.591750 1_555
Ba20 F69 2.665799 1_555
Ba20 F60 2.668316 1_565
Ba20 F34 2.721220 1_455
Ba20 F14 2.732525 1_555
Ba20 F63 2.779778 1_555
Ba20 F19 2.817189 1_555
Ba20 F58 2.975735 1_565
Ba20 F31 3.181295 1_555
Ba20 F6 3.252407 1_555
Ba21 F69 2.621049 1_555
Ba21 F63 2.662155 1_655
Ba21 F37 2.668198 1_555
Ba21 F53 2.735105 1_555
Ba21 F61 2.840314 1_555
Ba21 F34 2.891281 1_555
Ba21 F43 2.910120 1_555
Ba21 F11 3.063470 1_555
Ba21 F67 3.093809 1_555
Ba21 F31 3.123864 1_555
Ba22 F13 2.644538 1_554
Ba22 F71 2.662537 1_555
Ba22 F17 2.674395 1_555
Ba22 F28 2.749485 1_555
Ba22 F1 2.773449 1_555
Ba22 F70 2.825985 1_455
Ba22 F52 2.942954 1_554
Ba22 F54 2.955429 1_555
Ba22 F56 3.158713 1_555
Ba23 F29 2.591750 1_655
Ba23 F16 2.665799 1_555
Ba23 F51 2.668316 1_565
Ba23 F64 2.721220 1_655
Ba23 F11 2.732525 1_555
Ba23 F20 2.779778 1_555
Ba23 F19 2.817189 1_555
Ba23 F38 2.975735 1_565
Ba23 F9 3.181295 1_555
Ba23 F41 3.252407 1_555
Al0 F52 1.812554 1_554
Al0 F66 1.812554 1_555
Al0 F46 1.837564 1_554
Al0 F5 1.837564 1_555
Al0 F68 1.867327 1_555
Al0 F43 1.867327 1_554
Al1 F12 1.828410 1_555
Al1 F0 1.828410 1_554
Al1 F32 1.838742 1_555
Al1 F3 1.838742 1_554
Al1 F10 1.844566 1_555
Al1 F22 1.844566 1_554
Al2 F30 1.806887 1_555
Al2 F54 1.810723 1_655
Al2 F47 1.822457 1_655
Al2 F28 1.838469 1_655
Al2 F65 1.839026 1_555
Al2 F35 1.864474 1_555
Al3 F14 1.828410 1_555
Al3 F11 1.828410 1_555
Al3 F9 1.838742 1_555
Al3 F31 1.838742 1_555
Al3 F21 1.844566 1_555
Al3 F62 1.844566 1_555
Al4 F36 1.806887 1_565
Al4 F33 1.810723 1_465
Al4 F61 1.822457 1_455
Al4 F34 1.838469 1_455
Al4 F58 1.839026 1_565
Al4 F6 1.864474 1_555
Al5 F18 1.806887 1_555
Al5 F67 1.810723 1_455
Al5 F50 1.822457 1_455
Al5 F59 1.838469 1_455
Al5 F4 1.839026 1_555
Al5 F57 1.864474 1_555
Al6 F39 1.806887 1_565
Al6 F25 1.810723 1_665
Al6 F42 1.822457 1_655
Al6 F64 1.838469 1_655
Al6 F38 1.839026 1_565
Al6 F41 1.864474 1_555
Al7 F49 1.812554 1_555
Al7 F7 1.812554 1_555
Al7 F8 1.837564 1_555
Al7 F26 1.837564 1_555
Al7 F40 1.867327 1_555
Al7 F27 1.867327 1_555
