# generated using pymatgen
data_ErCo3B2
_symmetry_space_group_name_H-M   'P 1'
_cell_length_a   9.90349266
_cell_length_b   9.90349636
_cell_length_c   5.93569258
_cell_angle_alpha   90.00000000
_cell_angle_beta   90.00000000
_cell_angle_gamma   119.99989395
_symmetry_Int_Tables_number   1
_chemical_formula_structural   ErCo3B2
_chemical_formula_sum   'Er8 Co24 B16'
_cell_volume   504.17281654
_cell_formula_units_Z   8
loop_
 _symmetry_equiv_pos_site_id
 _symmetry_equiv_pos_as_xyz
  1  'x, y, z'
loop_
 _atom_site_type_symbol
 _atom_site_label
 _atom_site_symmetry_multiplicity
 _atom_site_fract_x
 _atom_site_fract_y
 _atom_site_fract_z
 _atom_site_occupancy
  Er  Er0_0  1  0.00000000  0.00000000  0.00000000  1
  Er  Er0_1  1  0.00000000  0.00000000  0.50000000  1
  Er  Er0_2  1  0.00000000  0.50000000  0.00000000  1
  Er  Er0_3  1  0.00000000  0.50000000  0.50000000  1
  Er  Er0_4  1  0.50000000  0.00000000  0.00000000  1
  Er  Er0_5  1  0.50000000  0.00000000  0.50000000  1
  Er  Er0_6  1  0.50000000  0.50000000  0.00000000  1
  Er  Er0_7  1  0.50000000  0.50000000  0.50000000  1
  Co  Co0_0  1  0.25000000  0.00000000  0.25000000  1
  Co  Co0_1  1  0.25000000  0.00000000  0.75000000  1
  Co  Co0_2  1  0.25000000  0.50000000  0.25000000  1
  Co  Co0_3  1  0.25000000  0.50000000  0.75000000  1
  Co  Co0_4  1  0.75000000  0.00000000  0.25000000  1
  Co  Co0_5  1  0.75000000  0.00000000  0.75000000  1
  Co  Co0_6  1  0.75000000  0.50000000  0.25000000  1
  Co  Co0_7  1  0.75000000  0.50000000  0.75000000  1
  Co  Co1_0  1  0.25000000  0.25000000  0.25000000  1
  Co  Co1_1  1  0.25000000  0.25000000  0.75000000  1
  Co  Co1_2  1  0.25000000  0.75000000  0.25000000  1
  Co  Co1_3  1  0.25000000  0.75000000  0.75000000  1
  Co  Co1_4  1  0.75000000  0.25000000  0.25000000  1
  Co  Co1_5  1  0.75000000  0.25000000  0.75000000  1
  Co  Co1_6  1  0.75000000  0.75000000  0.25000000  1
  Co  Co1_7  1  0.75000000  0.75000000  0.75000000  1
  Co  Co2_0  1  0.00000000  0.25000000  0.25000000  1
  Co  Co2_1  1  0.00000000  0.25000000  0.75000000  1
  Co  Co2_2  1  0.00000000  0.75000000  0.25000000  1
  Co  Co2_3  1  0.00000000  0.75000000  0.75000000  1
  Co  Co2_4  1  0.50000000  0.25000000  0.25000000  1
  Co  Co2_5  1  0.50000000  0.25000000  0.75000000  1
  Co  Co2_6  1  0.50000000  0.75000000  0.25000000  1
  Co  Co2_7  1  0.50000000  0.75000000  0.75000000  1
  B  B0_0  1  0.16666443  0.33333407  0.00000000  1
  B  B0_1  1  0.16666443  0.33333407  0.50000000  1
  B  B0_2  1  0.16666443  0.83333407  0.00000000  1
  B  B0_3  1  0.16666443  0.83333407  0.50000000  1
  B  B0_4  1  0.66666443  0.33333407  0.00000000  1
  B  B0_5  1  0.66666443  0.33333407  0.50000000  1
  B  B0_6  1  0.66666443  0.83333407  0.00000000  1
  B  B0_7  1  0.66666443  0.83333407  0.50000000  1
  B  B1_0  1  0.33333557  0.16666593  0.00000000  1
  B  B1_1  1  0.33333557  0.16666593  0.50000000  1
  B  B1_2  1  0.33333557  0.66666593  0.00000000  1
  B  B1_3  1  0.33333557  0.66666593  0.50000000  1
  B  B1_4  1  0.83333557  0.16666593  0.00000000  1
  B  B1_5  1  0.83333557  0.16666593  0.50000000  1
  B  B1_6  1  0.83333557  0.66666593  0.00000000  1
  B  B1_7  1  0.83333557  0.66666593  0.50000000  1
loop_
_geom_bond_atom_site_label_1
_geom_bond_atom_site_label_2
_geom_bond_distance
_geom_bond_site_symmetry_2
Er0_0 Er0_1 2.967846 1_554
Er0_0 Er0_1 2.967846 1_555
Er0_2 Er0_3 2.967846 1_554
Er0_2 Er0_3 2.967846 1_555
Er0_4 Er0_5 2.967846 1_555
Er0_4 Er0_5 2.967846 1_554
Er0_6 Er0_7 2.967846 1_555
Er0_6 Er0_7 2.967846 1_554
Co0_0 Er0_4 2.886516 1_555
Co0_0 Er0_1 2.886516 1_555
Co0_0 Er0_0 2.886516 1_555
Co0_0 Er0_5 2.886516 1_555
Co0_1 Er0_4 2.886516 1_556
Co0_1 Er0_0 2.886516 1_556
Co0_1 Er0_1 2.886516 1_555
Co0_1 Er0_5 2.886516 1_555
Co0_2 Er0_3 2.886516 1_555
Co0_2 Er0_2 2.886516 1_555
Co0_2 Er0_6 2.886516 1_555
Co0_2 Er0_7 2.886516 1_555
Co0_3 Er0_2 2.886516 1_556
Co0_3 Er0_6 2.886516 1_556
Co0_3 Er0_3 2.886516 1_555
Co0_3 Er0_7 2.886516 1_555
Co0_4 Er0_1 2.886516 1_655
Co0_4 Er0_0 2.886516 1_655
Co0_4 Er0_5 2.886516 1_555
Co0_4 Er0_4 2.886516 1_555
Co0_5 Er0_0 2.886516 1_656
Co0_5 Er0_1 2.886516 1_655
Co0_5 Er0_5 2.886516 1_555
Co0_5 Er0_4 2.886516 1_556
Co0_6 Er0_6 2.886516 1_555
Co0_6 Er0_7 2.886516 1_555
Co0_6 Er0_2 2.886516 1_655
Co0_6 Er0_3 2.886516 1_655
Co0_7 Er0_6 2.886516 1_556
Co0_7 Er0_7 2.886516 1_555
Co0_7 Er0_3 2.886516 1_655
Co0_7 Er0_2 2.886516 1_656
Co1_0 Er0_6 2.886520 1_555
Co1_0 Er0_7 2.886520 1_555
Co1_0 Er0_1 2.886520 1_555
Co1_0 Er0_0 2.886520 1_555
Co1_1 Er0_7 2.886520 1_555
Co1_1 Er0_0 2.886520 1_556
Co1_1 Er0_1 2.886520 1_555
Co1_1 Er0_6 2.886520 1_556
Co1_2 Er0_4 2.886520 1_565
Co1_2 Er0_5 2.886520 1_565
Co1_2 Er0_2 2.886520 1_555
Co1_2 Er0_3 2.886520 1_555
Co1_3 Er0_4 2.886520 1_566
Co1_3 Er0_5 2.886520 1_565
Co1_3 Er0_3 2.886520 1_555
Co1_3 Er0_2 2.886520 1_556
Co1_4 Er0_3 2.886520 1_655
Co1_4 Er0_2 2.886520 1_655
Co1_4 Er0_5 2.886520 1_555
Co1_4 Er0_4 2.886520 1_555
Co1_5 Er0_3 2.886520 1_655
Co1_5 Er0_2 2.886520 1_656
Co1_5 Er0_5 2.886520 1_555
Co1_5 Er0_4 2.886520 1_556
Co1_6 Er0_1 2.886520 1_665
Co1_6 Er0_6 2.886520 1_555
Co1_6 Er0_7 2.886520 1_555
Co1_6 Er0_0 2.886520 1_665
Co1_7 Er0_0 2.886520 1_666
Co1_7 Er0_1 2.886520 1_665
Co1_7 Er0_7 2.886520 1_555
Co1_7 Er0_6 2.886520 1_556
Co2_0 Er0_1 2.886517 1_555
Co2_0 Er0_0 2.886517 1_555
Co2_0 Er0_2 2.886517 1_555
Co2_0 Er0_3 2.886517 1_555
Co2_1 Er0_0 2.886517 1_556
Co2_1 Er0_1 2.886517 1_555
Co2_1 Er0_2 2.886517 1_556
Co2_1 Er0_3 2.886517 1_555
Co2_2 Er0_1 2.886517 1_565
Co2_2 Er0_3 2.886517 1_555
Co2_2 Er0_0 2.886517 1_565
Co2_2 Er0_2 2.886517 1_555
Co2_3 Er0_1 2.886517 1_565
Co2_3 Er0_0 2.886517 1_566
Co2_3 Er0_2 2.886517 1_556
Co2_3 Er0_3 2.886517 1_555
Co2_4 Er0_4 2.886517 1_555
Co2_4 Er0_5 2.886517 1_555
Co2_4 Er0_7 2.886517 1_555
Co2_4 Er0_6 2.886517 1_555
Co2_5 Er0_4 2.886517 1_556
Co2_5 Er0_5 2.886517 1_555
Co2_5 Er0_7 2.886517 1_555
Co2_5 Er0_6 2.886517 1_556
Co2_6 Er0_5 2.886517 1_565
Co2_6 Er0_4 2.886517 1_565
Co2_6 Er0_6 2.886517 1_555
Co2_6 Er0_7 2.886517 1_555
Co2_7 Er0_5 2.886517 1_565
Co2_7 Er0_4 2.886517 1_566
Co2_7 Er0_6 2.886517 1_556
Co2_7 Er0_7 2.886517 1_555
B0_0 Co2_1 2.060411 1_554
B0_0 Co2_0 2.060411 1_555
B0_0 Co0_2 2.060420 1_555
B0_0 Co0_3 2.060420 1_554
B0_0 Co1_0 2.060441 1_555
B0_0 Co1_1 2.060441 1_554
B0_0 Er0_2 2.858866 1_555
B0_0 Er0_0 2.858903 1_555
B0_0 Er0_6 2.858914 1_555
B0_1 Co2_0 2.060411 1_555
B0_1 Co2_1 2.060411 1_555
B0_1 Co0_2 2.060420 1_555
B0_1 Co0_3 2.060420 1_555
B0_1 Co1_0 2.060441 1_555
B0_1 Co1_1 2.060441 1_555
B0_1 Er0_3 2.858866 1_555
B0_1 Er0_1 2.858903 1_555
B0_1 Er0_7 2.858914 1_555
B0_2 Co2_3 2.060411 1_554
B0_2 Co2_2 2.060411 1_555
B0_2 Co0_1 2.060420 1_564
B0_2 Co0_0 2.060420 1_565
B0_2 Co1_3 2.060441 1_554
B0_2 Co1_2 2.060441 1_555
B0_2 Er0_0 2.858866 1_565
B0_2 Er0_2 2.858903 1_555
B0_2 Er0_4 2.858914 1_565
B0_3 Co2_2 2.060411 1_555
B0_3 Co2_3 2.060411 1_555
B0_3 Co0_1 2.060420 1_565
B0_3 Co0_0 2.060420 1_565
B0_3 Co1_3 2.060441 1_555
B0_3 Co1_2 2.060441 1_555
B0_3 Er0_1 2.858866 1_565
B0_3 Er0_3 2.858903 1_555
B0_3 Er0_5 2.858914 1_565
B0_4 Co2_5 2.060411 1_554
B0_4 Co2_4 2.060411 1_555
B0_4 Co0_6 2.060420 1_555
B0_4 Co0_7 2.060420 1_554
B0_4 Co1_4 2.060441 1_555
B0_4 Co1_5 2.060441 1_554
B0_4 Er0_6 2.858866 1_555
B0_4 Er0_4 2.858903 1_555
B0_4 Er0_2 2.858914 1_655
B0_5 Co2_5 2.060411 1_555
B0_5 Co2_4 2.060411 1_555
B0_5 Co0_6 2.060420 1_555
B0_5 Co0_7 2.060420 1_555
B0_5 Co1_4 2.060441 1_555
B0_5 Co1_5 2.060441 1_555
B0_5 Er0_7 2.858866 1_555
B0_5 Er0_5 2.858903 1_555
B0_5 Er0_3 2.858914 1_655
B0_6 Co2_7 2.060411 1_554
B0_6 Co2_6 2.060411 1_555
B0_6 Co0_4 2.060420 1_565
B0_6 Co0_5 2.060420 1_564
B0_6 Co1_7 2.060441 1_554
B0_6 Co1_6 2.060441 1_555
B0_6 Er0_4 2.858866 1_565
B0_6 Er0_6 2.858903 1_555
B0_6 Er0_0 2.858914 1_665
B0_7 Co2_6 2.060411 1_555
B0_7 Co2_7 2.060411 1_555
B0_7 Co0_5 2.060420 1_565
B0_7 Co0_4 2.060420 1_565
B0_7 Co1_6 2.060441 1_555
B0_7 Co1_7 2.060441 1_555
B0_7 Er0_5 2.858866 1_565
B0_7 Er0_7 2.858903 1_555
B0_7 Er0_1 2.858914 1_665
B1_0 Co2_5 2.060411 1_554
B1_0 Co2_4 2.060411 1_555
B1_0 Co0_1 2.060420 1_554
B1_0 Co0_0 2.060420 1_555
B1_0 Co1_1 2.060441 1_554
B1_0 Co1_0 2.060441 1_555
B1_0 Er0_4 2.858866 1_555
B1_0 Er0_6 2.858903 1_555
B1_0 Er0_0 2.858914 1_555
B1_1 Co2_4 2.060411 1_555
B1_1 Co2_5 2.060411 1_555
B1_1 Co0_0 2.060420 1_555
B1_1 Co0_1 2.060420 1_555
B1_1 Co1_0 2.060441 1_555
B1_1 Co1_1 2.060441 1_555
B1_1 Er0_5 2.858866 1_555
B1_1 Er0_7 2.858903 1_555
B1_1 Er0_1 2.858914 1_555
B1_2 Co2_7 2.060411 1_554
B1_2 Co2_6 2.060411 1_555
B1_2 Co0_2 2.060420 1_555
B1_2 Co0_3 2.060420 1_554
B1_2 Co1_2 2.060441 1_555
B1_2 Co1_3 2.060441 1_554
B1_2 Er0_6 2.858866 1_555
B1_2 Er0_4 2.858903 1_565
B1_2 Er0_2 2.858914 1_555
B1_3 Co2_7 2.060411 1_555
B1_3 Co2_6 2.060411 1_555
B1_3 Co0_2 2.060420 1_555
B1_3 Co0_3 2.060420 1_555
B1_3 Co1_3 2.060441 1_555
B1_3 Co1_2 2.060441 1_555
B1_3 Er0_7 2.858866 1_555
B1_3 Er0_5 2.858903 1_565
B1_3 Er0_3 2.858914 1_555
B1_4 Co2_0 2.060411 1_655
B1_4 Co2_1 2.060411 1_654
B1_4 Co0_5 2.060420 1_554
B1_4 Co0_4 2.060420 1_555
B1_4 Co1_4 2.060441 1_555
B1_4 Co1_5 2.060441 1_554
B1_4 Er0_0 2.858866 1_655
B1_4 Er0_2 2.858903 1_655
B1_4 Er0_4 2.858914 1_555
B1_5 Co2_0 2.060411 1_655
B1_5 Co2_1 2.060411 1_655
B1_5 Co0_4 2.060420 1_555
B1_5 Co0_5 2.060420 1_555
B1_5 Co1_4 2.060441 1_555
B1_5 Co1_5 2.060441 1_555
B1_5 Er0_1 2.858866 1_655
B1_5 Er0_3 2.858903 1_655
B1_5 Er0_5 2.858914 1_555
B1_6 Co2_2 2.060411 1_655
B1_6 Co2_3 2.060411 1_654
B1_6 Co0_7 2.060420 1_554
B1_6 Co0_6 2.060420 1_555
B1_6 Co1_6 2.060441 1_555
B1_6 Co1_7 2.060441 1_554
B1_6 Er0_2 2.858866 1_655
B1_6 Er0_0 2.858903 1_665
B1_6 Er0_6 2.858914 1_555
B1_7 Co2_2 2.060411 1_655
B1_7 Co2_3 2.060411 1_655
B1_7 Co0_7 2.060420 1_555
B1_7 Co0_6 2.060420 1_555
B1_7 Co1_6 2.060441 1_555
B1_7 Co1_7 2.060441 1_555
B1_7 Er0_3 2.858866 1_655
B1_7 Er0_1 2.858903 1_665
B1_7 Er0_7 2.858914 1_555
