# generated using pymatgen
data_La(AlZn)2
_symmetry_space_group_name_H-M   'P 1'
_cell_length_a   4.24732726
_cell_length_b   4.24732688
_cell_length_c   6.23747848
_cell_angle_alpha   109.90541266
_cell_angle_beta   109.90542265
_cell_angle_gamma   90.00000601
_symmetry_Int_Tables_number   1
_chemical_formula_structural   La(AlZn)2
_chemical_formula_sum   'La1 Al2 Zn2'
_cell_volume   98.62045543
_cell_formula_units_Z   1
loop_
 _symmetry_equiv_pos_site_id
 _symmetry_equiv_pos_as_xyz
  1  'x, y, z'
loop_
 _atom_site_type_symbol
 _atom_site_label
 _atom_site_symmetry_multiplicity
 _atom_site_fract_x
 _atom_site_fract_y
 _atom_site_fract_z
 _atom_site_occupancy
  La  La0  1  0.00000000  0.00000000  -0.00000000  1
  Al  Al0  1  0.75000000  0.25000000  0.50000000  1
  Al  Al1  1  0.25000000  0.75000000  0.50000000  1
  Zn  Zn0  1  0.61337192  0.61337192  0.22674283  1
  Zn  Zn1  1  0.38662808  0.38662808  0.77325717  1
loop_
_geom_bond_atom_site_label_1
_geom_bond_atom_site_label_2
_geom_bond_distance
_geom_bond_site_symmetry_2
La0 Zn1 3.249061 1_554
La0 Zn0 3.249061 1_445
La0 Zn0 3.249064 1_545
La0 Zn1 3.249064 1_454
La0 Zn1 3.249064 1_544
La0 Zn0 3.249064 1_455
La0 Zn0 3.249066 1_555
La0 Zn1 3.249066 1_444
Al0 Zn1 2.596445 1_655
Al0 Zn0 2.596445 1_545
Al0 Zn0 2.596449 1_555
Al0 Zn1 2.596449 1_555
Al0 La0 3.461431 1_555
Al0 La0 3.461431 1_666
Al0 La0 3.461431 1_656
Al0 La0 3.461432 1_655
Al1 Zn0 2.596445 1_455
Al1 Zn1 2.596445 1_565
Al1 Zn1 2.596449 1_555
Al1 Zn0 2.596449 1_555
Al1 La0 3.461431 1_666
Al1 La0 3.461431 1_555
Al1 La0 3.461431 1_565
Al1 La0 3.461432 1_566
Zn0 Zn1 2.479129 1_554
