# generated using pymatgen
data_Nd2Ti2O7
_symmetry_space_group_name_H-M   'P 1'
_cell_length_a   7.28549978
_cell_length_b   7.28550001
_cell_length_c   7.28550129
_cell_angle_alpha   60.00000304
_cell_angle_beta   60.00000200
_cell_angle_gamma   59.99999980
_symmetry_Int_Tables_number   1
_chemical_formula_structural   Nd2Ti2O7
_chemical_formula_sum   'Nd4 Ti4 O14'
_cell_volume   273.44070808
_cell_formula_units_Z   2
loop_
 _symmetry_equiv_pos_site_id
 _symmetry_equiv_pos_as_xyz
  1  'x, y, z'
loop_
 _atom_site_type_symbol
 _atom_site_label
 _atom_site_symmetry_multiplicity
 _atom_site_fract_x
 _atom_site_fract_y
 _atom_site_fract_z
 _atom_site_occupancy
  Nd  Nd0  1  0.50000000  0.50000000  0.50000000  1
  Nd  Nd1  1  0.50000000  0.00000000  0.50000000  1
  Nd  Nd2  1  -0.00000000  0.50000000  0.50000000  1
  Nd  Nd3  1  0.50000000  0.50000000  0.00000000  1
  Ti  Ti0  1  -0.00000000  0.00000000  0.00000000  1
  Ti  Ti1  1  -0.00000000  0.00000000  0.50000000  1
  Ti  Ti2  1  0.50000000  0.00000000  0.00000000  1
  Ti  Ti3  1  -0.00000000  0.50000000  0.00000000  1
  O  O0  1  0.07494718  0.07494718  0.67505282  1
  O  O1  1  0.67505282  0.67505282  0.07494718  1
  O  O2  1  0.07494718  0.67505282  0.07494718  1
  O  O3  1  0.92505282  0.32494718  0.92505282  1
  O  O4  1  0.32494718  0.32494718  0.92505282  1
  O  O5  1  0.67505282  0.07494718  0.67505282  1
  O  O6  1  0.92505282  0.92505282  0.32494718  1
  O  O7  1  0.67505282  0.07494718  0.07494718  1
  O  O8  1  0.92505282  0.32494718  0.32494718  1
  O  O9  1  0.32494718  0.92505282  0.32494718  1
  O  O10  1  0.62500000  0.62500000  0.62500000  1
  O  O11  1  0.37500000  0.37500000  0.37500000  1
  O  O12  1  0.32494718  0.92505282  0.92505282  1
  O  O13  1  0.07494718  0.67505282  0.67505282  1
loop_
_geom_bond_atom_site_label_1
_geom_bond_atom_site_label_2
_geom_bond_distance
_geom_bond_site_symmetry_2
Nd0 O10 2.230720 1_555
Nd0 O11 2.230720 1_555
Nd0 O13 2.563285 1_555
Nd0 O8 2.563285 1_555
Nd0 O9 2.563285 1_555
Nd0 O5 2.563285 1_555
Nd0 O4 2.563285 1_555
Nd0 O1 2.563285 1_555
Nd1 O10 2.230720 1_545
Nd1 O11 2.230720 1_555
Nd1 O0 2.563285 1_555
Nd1 O6 2.563285 1_545
Nd1 O9 2.563285 1_545
Nd1 O5 2.563285 1_555
Nd1 O7 2.563285 1_555
Nd1 O12 2.563285 1_545
Nd2 O11 2.230720 1_555
Nd2 O10 2.230720 1_455
Nd2 O0 2.563285 1_555
Nd2 O6 2.563285 1_455
Nd2 O13 2.563285 1_555
Nd2 O8 2.563285 1_455
Nd2 O2 2.563285 1_555
Nd2 O3 2.563285 1_455
Nd3 O11 2.230720 1_555
Nd3 O10 2.230720 1_554
Nd3 O3 2.563285 1_554
Nd3 O2 2.563285 1_555
Nd3 O12 2.563285 1_554
Nd3 O7 2.563285 1_555
Nd3 O4 2.563285 1_554
Nd3 O1 2.563285 1_555
O0 Ti1 1.978307 1_555
O0 Ti0 1.978308 1_556
O1 Ti3 1.978307 1_655
O1 Ti2 1.978307 1_565
O2 Ti0 1.978307 1_565
O2 Ti3 1.978307 1_555
O3 Ti0 1.978307 1_656
O3 Ti3 1.978307 1_656
O4 Ti3 1.978307 1_556
O4 Ti2 1.978307 1_556
O5 Ti1 1.978307 1_655
O5 Ti2 1.978308 1_556
O6 Ti1 1.978307 1_665
O6 Ti0 1.978308 1_665
O7 Ti0 1.978307 1_655
O7 Ti2 1.978307 1_555
O8 Ti1 1.978307 1_655
O8 Ti3 1.978308 1_655
O9 Ti1 1.978307 1_565
O9 Ti2 1.978308 1_565
O12 Ti0 1.978307 1_566
O12 Ti2 1.978307 1_566
O13 Ti1 1.978307 1_565
O13 Ti3 1.978308 1_556
