# generated using pymatgen
data_Er(GeRu)2
_symmetry_space_group_name_H-M   'P 1'
_cell_length_a   4.22818361
_cell_length_b   4.22818362
_cell_length_c   5.71814005
_cell_angle_alpha   111.69815482
_cell_angle_beta   111.69814270
_cell_angle_gamma   89.99999316
_symmetry_Int_Tables_number   1
_chemical_formula_structural   Er(GeRu)2
_chemical_formula_sum   'Er1 Ge2 Ru2'
_cell_volume   87.13966191
_cell_formula_units_Z   1
loop_
 _symmetry_equiv_pos_site_id
 _symmetry_equiv_pos_as_xyz
  1  'x, y, z'
loop_
 _atom_site_type_symbol
 _atom_site_label
 _atom_site_symmetry_multiplicity
 _atom_site_fract_x
 _atom_site_fract_y
 _atom_site_fract_z
 _atom_site_occupancy
  Er  Er0  1  0.00000000  -0.00000000  0.00000000  1
  Ge  Ge0  1  0.37002755  0.37002755  0.74005409  1
  Ge  Ge1  1  0.62997245  0.62997245  0.25994591  1
  Ru  Ru0  1  0.75000000  0.25000000  0.50000000  1
  Ru  Ru1  1  0.25000000  0.75000000  0.50000000  1
loop_
_geom_bond_atom_site_label_1
_geom_bond_atom_site_label_2
_geom_bond_distance
_geom_bond_site_symmetry_2
Er0 Ru0 3.226294 1_444
Er0 Ru1 3.226294 1_555
Er0 Ru1 3.226294 1_544
Er0 Ru0 3.226294 1_455
Er0 Ru1 3.226294 1_444
Er0 Ru0 3.226294 1_555
Er0 Ru0 3.226294 1_454
Er0 Ru1 3.226294 1_545
Er0 Ge1 3.247175 1_555
Er0 Ge0 3.247175 1_444
Er0 Ge0 3.247178 1_544
Er0 Ge1 3.247178 1_455
Er0 Ge0 3.247178 1_454
Er0 Ge1 3.247178 1_545
Er0 Ge1 3.247181 1_445
Er0 Ge0 3.247181 1_554
Ge0 Ru0 2.416293 1_555
Ge0 Ru1 2.416293 1_555
Ge0 Ru1 2.416297 1_545
Ge0 Ru0 2.416297 1_455
Ge0 Ge1 2.534085 1_556
Ge1 Ru1 2.416293 1_555
Ge1 Ru0 2.416293 1_555
Ge1 Ru0 2.416297 1_565
Ge1 Ru1 2.416297 1_655
