# generated using pymatgen
data_SnPCl9
_symmetry_space_group_name_H-M   'P 1'
_cell_length_a   10.29643543
_cell_length_b   10.29643543
_cell_length_c   6.51820484
_cell_angle_alpha   90.00000000
_cell_angle_beta   90.00000000
_cell_angle_gamma   107.68321178
_symmetry_Int_Tables_number   1
_chemical_formula_structural   SnPCl9
_chemical_formula_sum   'Sn2 P2 Cl18'
_cell_volume   658.38662796
_cell_formula_units_Z   2
loop_
 _symmetry_equiv_pos_site_id
 _symmetry_equiv_pos_as_xyz
  1  'x, y, z'
loop_
 _atom_site_type_symbol
 _atom_site_label
 _atom_site_symmetry_multiplicity
 _atom_site_fract_x
 _atom_site_fract_y
 _atom_site_fract_z
 _atom_site_occupancy
  Sn  Sn0  1  0.75000000  0.25000000  0.89340570  1
  Sn  Sn1  1  0.25000000  0.75000000  0.10659430  1
  P  P0  1  0.25000000  0.25000000  0.50000000  1
  P  P1  1  0.75000000  0.75000000  0.50000000  1
  Cl  Cl0  1  0.92011969  0.42011969  0.72236458  1
  Cl  Cl1  1  0.77457198  0.90941679  0.32755519  1
  Cl  Cl2  1  0.22542802  0.09058321  0.67244481  1
  Cl  Cl3  1  0.27457198  0.40941679  0.67244481  1
  Cl  Cl4  1  0.59058321  0.72542802  0.67244481  1
  Cl  Cl5  1  0.10297469  0.89702531  0.10467809  1
  Cl  Cl6  1  0.72542802  0.59058321  0.32755519  1
  Cl  Cl7  1  0.90941679  0.77457198  0.67244481  1
  Cl  Cl8  1  0.09058321  0.22542802  0.32755519  1
  Cl  Cl9  1  0.42011969  0.92011969  0.27763542  1
  Cl  Cl10  1  0.07988031  0.57988031  0.27763542  1
  Cl  Cl11  1  0.40941679  0.27457198  0.32755519  1
  Cl  Cl12  1  0.25000000  0.75000000  0.74412113  1
  Cl  Cl13  1  0.39702531  0.60297469  0.10467809  1
  Cl  Cl14  1  0.57988031  0.07988031  0.72236458  1
  Cl  Cl15  1  0.60297469  0.39702531  0.89532191  1
  Cl  Cl16  1  0.75000000  0.25000000  0.25587887  1
  Cl  Cl17  1  0.89702531  0.10297469  0.89532191  1
loop_
_geom_bond_atom_site_label_1
_geom_bond_atom_site_label_2
_geom_bond_distance
_geom_bond_site_symmetry_2
Cl0 Sn0 2.348488 1_555
Cl1 P1 1.941505 1_555
Cl2 P0 1.941505 1_555
Cl3 P0 1.941505 1_555
Cl4 P1 1.941505 1_555
Cl5 Sn1 2.444542 1_555
Cl6 P1 1.941505 1_555
Cl7 P1 1.941505 1_555
Cl8 P0 1.941505 1_555
Cl9 Sn1 2.348488 1_555
Cl10 Sn1 2.348488 1_555
Cl11 P0 1.941505 1_555
Cl12 Sn1 2.362674 1_556
Cl13 Sn1 2.444542 1_555
Cl14 Sn0 2.348488 1_555
Cl15 Sn0 2.444542 1_555
Cl16 Sn0 2.362674 1_554
Cl17 Sn0 2.444542 1_555
