# generated using pymatgen
data_Pb3(ClO)2
_symmetry_space_group_name_H-M   'P 1'
_cell_length_a   5.85827491
_cell_length_b   9.66025163
_cell_length_c   11.95093456
_cell_angle_alpha   90.00000000
_cell_angle_beta   90.00000000
_cell_angle_gamma   90.00000000
_symmetry_Int_Tables_number   1
_chemical_formula_structural   Pb3(ClO)2
_chemical_formula_sum   'Pb12 Cl8 O8'
_cell_volume   676.33218549
_cell_formula_units_Z   4
loop_
 _symmetry_equiv_pos_site_id
 _symmetry_equiv_pos_as_xyz
  1  'x, y, z'
loop_
 _atom_site_type_symbol
 _atom_site_label
 _atom_site_symmetry_multiplicity
 _atom_site_fract_x
 _atom_site_fract_y
 _atom_site_fract_z
 _atom_site_occupancy
  Pb  Pb0  1  0.25000000  0.08013889  0.08122828  1
  Pb  Pb1  1  0.75000000  0.91986111  0.91877172  1
  Pb  Pb2  1  0.75000000  0.58013889  0.41877172  1
  Pb  Pb3  1  0.25000000  0.41986111  0.58122828  1
  Pb  Pb4  1  0.25000000  0.36554001  0.28296220  1
  Pb  Pb5  1  0.75000000  0.63445999  0.71703780  1
  Pb  Pb6  1  0.75000000  0.86554001  0.21703780  1
  Pb  Pb7  1  0.25000000  0.13445999  0.78296220  1
  Pb  Pb8  1  0.25000000  0.79418799  0.56009057  1
  Pb  Pb9  1  0.75000000  0.20581201  0.43990943  1
  Pb  Pb10  1  0.75000000  0.29418799  0.93990943  1
  Pb  Pb11  1  0.25000000  0.70581201  0.06009057  1
  Cl  Cl0  1  0.25000000  0.08492473  0.36537725  1
  Cl  Cl1  1  0.75000000  0.91507527  0.63462275  1
  Cl  Cl2  1  0.75000000  0.58492473  0.13462275  1
  Cl  Cl3  1  0.25000000  0.41507527  0.86537725  1
  Cl  Cl4  1  0.25000000  0.80865818  0.80867626  1
  Cl  Cl5  1  0.75000000  0.19134182  0.19132374  1
  Cl  Cl6  1  0.75000000  0.30865818  0.69132374  1
  Cl  Cl7  1  0.25000000  0.69134182  0.30867626  1
  O  O0  1  0.99477322  0.38736253  0.42049705  1
  O  O1  1  0.49477322  0.61263747  0.57950295  1
  O  O2  1  0.00522678  0.88736253  0.07950295  1
  O  O3  1  0.50522678  0.11263747  0.92049705  1
  O  O4  1  0.00522678  0.61263747  0.57950295  1
  O  O5  1  0.50522678  0.38736253  0.42049705  1
  O  O6  1  0.99477322  0.11263747  0.92049705  1
  O  O7  1  0.49477322  0.88736253  0.07950295  1
loop_
_geom_bond_atom_site_label_1
_geom_bond_atom_site_label_2
_geom_bond_distance
_geom_bond_site_symmetry_2
Cl0 Pb4 2.884201 1_555
Cl1 Pb5 2.884201 1_555
Cl2 Pb6 2.884201 1_555
Cl3 Pb7 2.884201 1_555
Cl4 Pb8 2.974118 1_555
Cl4 Pb7 3.162295 1_565
Cl4 Pb11 3.164636 1_556
Cl5 Pb9 2.974118 1_555
Cl5 Pb6 3.162295 1_545
Cl5 Pb10 3.164636 1_554
Cl6 Pb10 2.974118 1_555
Cl6 Pb5 3.162295 1_555
Cl6 Pb9 3.164636 1_555
Cl7 Pb11 2.974118 1_555
Cl7 Pb4 3.162295 1_555
Cl7 Pb8 3.164636 1_555
O0 Pb4 2.231968 1_655
O0 Pb9 2.277263 1_555
O0 Pb2 2.350463 1_555
O0 Pb3 2.454376 1_655
O1 Pb5 2.231968 1_555
O1 Pb8 2.277263 1_555
O1 Pb3 2.350463 1_555
O1 Pb2 2.454376 1_555
O2 Pb6 2.231968 1_455
O2 Pb11 2.277263 1_555
O2 Pb0 2.350463 1_565
O2 Pb1 2.454376 1_454
O3 Pb7 2.231968 1_555
O3 Pb10 2.277263 1_555
O3 Pb1 2.350463 1_545
O3 Pb0 2.454376 1_556
O4 Pb5 2.231968 1_455
O4 Pb8 2.277263 1_555
O4 Pb3 2.350463 1_555
O4 Pb2 2.454376 1_455
O5 Pb4 2.231968 1_555
O5 Pb9 2.277263 1_555
O5 Pb2 2.350463 1_555
O5 Pb3 2.454376 1_555
O6 Pb7 2.231968 1_655
O6 Pb10 2.277263 1_555
O6 Pb1 2.350463 1_545
O6 Pb0 2.454376 1_656
O7 Pb6 2.231968 1_555
O7 Pb11 2.277263 1_555
O7 Pb0 2.350463 1_565
O7 Pb1 2.454376 1_554
