# generated using pymatgen
data_LiGa5O8
_symmetry_space_group_name_H-M   'P 1'
_cell_length_a   5.77445665
_cell_length_b   5.86771624
_cell_length_c   8.18970429
_cell_angle_alpha   90.00000000
_cell_angle_beta   90.00000000
_cell_angle_gamma   90.00000000
_symmetry_Int_Tables_number   1
_chemical_formula_structural   LiGa5O8
_chemical_formula_sum   'Li2 Ga10 O16'
_cell_volume   277.49071088
_cell_formula_units_Z   2
loop_
 _symmetry_equiv_pos_site_id
 _symmetry_equiv_pos_as_xyz
  1  'x, y, z'
loop_
 _atom_site_type_symbol
 _atom_site_label
 _atom_site_symmetry_multiplicity
 _atom_site_fract_x
 _atom_site_fract_y
 _atom_site_fract_z
 _atom_site_occupancy
  Li  Li0  1  0.50000000  0.50000000  0.00000000  1
  Li  Li1  1  0.50000000  0.00000000  0.50000000  1
  Ga  Ga0  1  0.75669980  0.00000000  0.88358523  1
  Ga  Ga1  1  -0.00000000  0.00000000  0.50000000  1
  Ga  Ga2  1  0.26954855  0.75000000  0.75000000  1
  Ga  Ga3  1  0.73045145  0.25000000  0.25000000  1
  Ga  Ga4  1  0.24330020  0.00000000  0.11641477  1
  Ga  Ga5  1  0.75669980  0.50000000  0.61641477  1
  Ga  Ga6  1  0.73045145  0.75000000  0.25000000  1
  Ga  Ga7  1  0.26954855  0.25000000  0.75000000  1
  Ga  Ga8  1  -0.00000000  0.50000000  0.00000000  1
  Ga  Ga9  1  0.24330020  0.50000000  0.38358523  1
  O  O0  1  0.98102559  0.00000000  0.25675088  1
  O  O1  1  0.24067198  0.73768775  0.98840587  1
  O  O2  1  0.49101900  0.50000000  0.74580464  1
  O  O3  1  0.75932802  0.23768775  0.48840587  1
  O  O4  1  0.50898100  0.50000000  0.25419536  1
  O  O5  1  0.24067198  0.76231225  0.51159413  1
  O  O6  1  0.01897441  0.00000000  0.74324912  1
  O  O7  1  0.75932802  0.26231225  0.01159413  1
  O  O8  1  0.24067198  0.23768775  0.51159413  1
  O  O9  1  0.98102559  0.50000000  0.24324912  1
  O  O10  1  0.75932802  0.73768775  0.01159413  1
  O  O11  1  0.49101900  0.00000000  0.75419536  1
  O  O12  1  0.24067198  0.26231225  0.98840587  1
  O  O13  1  0.50898100  0.00000000  0.24580464  1
  O  O14  1  0.75932802  0.76231225  0.48840587  1
  O  O15  1  0.01897441  0.50000000  0.75675088  1
loop_
_geom_bond_atom_site_label_1
_geom_bond_atom_site_label_2
_geom_bond_distance
_geom_bond_site_symmetry_2
Li0 O1 2.048561 1_554
Li0 O7 2.048561 1_555
Li0 O12 2.048561 1_554
Li0 O10 2.048561 1_555
Li0 O2 2.082431 1_554
Li0 O4 2.082431 1_555
Li1 O5 2.048561 1_545
Li1 O14 2.048561 1_545
Li1 O8 2.048561 1_555
Li1 O3 2.048561 1_555
Li1 O13 2.082431 1_555
Li1 O11 2.082431 1_555
Ga0 O10 1.862347 1_546
Ga0 O7 1.862347 1_556
Ga0 O11 1.864549 1_555
Ga0 O6 1.901212 1_655
Ga1 O5 1.971184 1_545
Ga1 O14 1.971184 1_445
Ga1 O8 1.971184 1_555
Ga1 O3 1.971184 1_455
Ga1 O6 1.995149 1_555
Ga1 O0 1.995149 1_455
Ga2 O2 1.946426 1_555
Ga2 O11 1.946426 1_565
Ga2 O1 1.960912 1_555
Ga2 O5 1.960912 1_555
Ga2 O15 2.061199 1_555
Ga2 O6 2.061199 1_565
Ga3 O4 1.946426 1_555
Ga3 O13 1.946426 1_555
Ga3 O7 1.960912 1_555
Ga3 O3 1.960912 1_555
Ga3 O9 2.061199 1_555
Ga3 O0 2.061199 1_555
Ga4 O1 1.862347 1_544
Ga4 O12 1.862347 1_554
Ga4 O13 1.864549 1_555
Ga4 O0 1.901212 1_455
Ga5 O14 1.862347 1_555
Ga5 O3 1.862347 1_555
Ga5 O2 1.864549 1_555
Ga5 O15 1.901212 1_655
Ga6 O4 1.946426 1_555
Ga6 O13 1.946426 1_565
Ga6 O10 1.960912 1_555
Ga6 O14 1.960912 1_555
Ga6 O9 2.061199 1_555
Ga6 O0 2.061199 1_565
Ga7 O2 1.946426 1_555
Ga7 O11 1.946426 1_555
Ga7 O8 1.960912 1_555
Ga7 O12 1.960912 1_555
Ga7 O15 2.061199 1_555
Ga7 O6 2.061199 1_555
Ga8 O10 1.971184 1_455
Ga8 O7 1.971184 1_455
Ga8 O1 1.971184 1_554
Ga8 O12 1.971184 1_554
Ga8 O15 1.995149 1_554
Ga8 O9 1.995149 1_455
Ga9 O8 1.862347 1_555
Ga9 O5 1.862347 1_555
Ga9 O4 1.864549 1_555
Ga9 O9 1.901212 1_455
