# generated using pymatgen
data_CsMn(PO3)4
_symmetry_space_group_name_H-M   'P 1'
_cell_length_a   13.84409000
_cell_length_b   5.33326500
_cell_length_c   7.55547483
_cell_angle_alpha   77.75625500
_cell_angle_beta   90.00000000
_cell_angle_gamma   90.00000000
_symmetry_Int_Tables_number   1
_chemical_formula_structural   CsMn(PO3)4
_chemical_formula_sum   'Cs2 Mn2 P8 O24'
_cell_volume   545.16368063
_cell_formula_units_Z   2
loop_
 _symmetry_equiv_pos_site_id
 _symmetry_equiv_pos_as_xyz
  1  'x, y, z'
loop_
 _atom_site_type_symbol
 _atom_site_label
 _atom_site_symmetry_multiplicity
 _atom_site_fract_x
 _atom_site_fract_y
 _atom_site_fract_z
 _atom_site_occupancy
  Cs  Cs0  1  0.00118900  0.38396200  0.83389300  1
  Cs  Cs1  1  0.50118900  0.61603800  0.16610700  1
  Mn  Mn0  1  0.23523500  0.50191300  0.48640600  1
  Mn  Mn1  1  0.73523500  0.49808700  0.51359400  1
  P  P0  1  0.87542100  0.99657900  0.44529800  1
  P  P1  1  0.81948300  0.78953800  0.13685100  1
  P  P2  1  0.37542100  0.00342100  0.55470200  1
  P  P3  1  0.17846200  0.86202200  0.09717300  1
  P  P4  1  0.09511200  0.99988900  0.42695800  1
  P  P5  1  0.59511200  0.00011100  0.57304200  1
  P  P6  1  0.67846200  0.13797800  0.90282700  1
  P  P7  1  0.31948300  0.21046200  0.86314900  1
  O  O0  1  0.15497400  0.77980400  0.53287800  1
  O  O1  1  0.10464100  0.25480900  0.47623700  1
  O  O2  1  0.61297600  0.97442500  0.78636300  1
  O  O3  1  0.98584100  0.89664800  0.45641200  1
  O  O4  1  0.86683100  0.24692500  0.50201300  1
  O  O5  1  0.84855200  0.02696700  0.23556800  1
  O  O6  1  0.11297600  0.02557500  0.21363700  1
  O  O7  1  0.62349600  0.17049100  0.06351100  1
  O  O8  1  0.12349600  0.82950900  0.93648900  1
  O  O9  1  0.23983500  0.36314900  0.74648100  1
  O  O10  1  0.36683100  0.75307500  0.49798700  1
  O  O11  1  0.60464100  0.74519100  0.52376300  1
  O  O12  1  0.65497400  0.22019600  0.46712200  1
  O  O13  1  0.48584100  0.10335200  0.54358800  1
  O  O14  1  0.26990700  0.05459800  0.04572900  1
  O  O15  1  0.90667100  0.65988300  0.08920100  1
  O  O16  1  0.72035700  0.37180400  0.77373600  1
  O  O17  1  0.76990700  0.94540200  0.95427100  1
  O  O18  1  0.40667100  0.34011700  0.91079900  1
  O  O19  1  0.82078000  0.77006900  0.55886900  1
  O  O20  1  0.32078000  0.22993100  0.44113100  1
  O  O21  1  0.34855200  0.97303300  0.76443200  1
  O  O22  1  0.73983500  0.63685100  0.25351900  1
  O  O23  1  0.22035700  0.62819600  0.22626400  1
loop_
_geom_bond_atom_site_label_1
_geom_bond_atom_site_label_2
_geom_bond_distance
_geom_bond_site_symmetry_2
Cs0 O15 2.966919 1_456
Cs0 O8 3.145723 1_555
Cs0 O1 3.258425 1_555
Cs0 O4 3.325491 1_455
Cs0 O8 3.352581 1_545
Cs0 O9 3.375638 1_555
Cs0 O6 3.457511 1_556
Cs0 O0 3.482183 1_555
Cs0 O3 3.513982 1_455
Cs0 O19 3.602958 1_455
Cs1 O18 2.966919 1_554
Cs1 O7 3.145723 1_555
Cs1 O11 3.258425 1_555
Cs1 O10 3.325491 1_555
Cs1 O7 3.352581 1_565
Cs1 O22 3.375638 1_555
Cs1 O2 3.457511 1_554
Cs1 O12 3.482183 1_555
Cs1 O13 3.513982 1_555
Cs1 O20 3.602958 1_555
Mn0 O0 1.942975 1_555
Mn0 O9 1.948369 1_555
Mn0 O23 1.948779 1_555
Mn0 O20 1.958092 1_555
Mn0 O1 2.248185 1_555
Mn0 O10 2.273921 1_555
Mn1 O12 1.942975 1_555
Mn1 O22 1.948369 1_555
Mn1 O16 1.948779 1_555
Mn1 O19 1.958092 1_555
Mn1 O11 2.248185 1_555
Mn1 O4 2.273921 1_555
O0 P4 1.518739 1_555
O1 P4 1.489672 1_545
O2 P5 1.607480 1_565
O2 P6 1.637869 1_565
O3 P4 1.609087 1_655
O3 P0 1.615218 1_555
O4 P0 1.491000 1_545
O5 P0 1.602091 1_545
O5 P1 1.649933 1_545
O6 P4 1.607480 1_545
O6 P3 1.637869 1_545
O7 P6 1.473876 1_554
O8 P3 1.473876 1_556
O9 P7 1.533467 1_555
O10 P2 1.491000 1_565
O11 P5 1.489672 1_565
O12 P5 1.518739 1_555
O13 P5 1.609087 1_555
O13 P2 1.615218 1_555
O14 P7 1.605817 1_554
O14 P3 1.624590 1_545
O15 P1 1.473192 1_555
O16 P6 1.525436 1_555
O17 P1 1.605817 1_556
O17 P6 1.624590 1_565
O18 P7 1.473192 1_555
O19 P0 1.525851 1_555
O20 P2 1.525851 1_555
O21 P2 1.602091 1_565
O21 P7 1.649933 1_565
O22 P1 1.533467 1_555
O23 P3 1.525436 1_555
