# generated using pymatgen
data_AlPO4
_symmetry_space_group_name_H-M   'P 1'
_cell_length_a   9.03571600
_cell_length_b   10.20868700
_cell_length_c   20.05279300
_cell_angle_alpha   90.00000000
_cell_angle_beta   90.00000000
_cell_angle_gamma   90.00000000
_symmetry_Int_Tables_number   1
_chemical_formula_structural   AlPO4
_chemical_formula_sum   'Al16 P16 O64'
_cell_volume   1849.72570325
_cell_formula_units_Z   16
loop_
 _symmetry_equiv_pos_site_id
 _symmetry_equiv_pos_as_xyz
  1  'x, y, z'
loop_
 _atom_site_type_symbol
 _atom_site_label
 _atom_site_symmetry_multiplicity
 _atom_site_fract_x
 _atom_site_fract_y
 _atom_site_fract_z
 _atom_site_occupancy
  Al  Al0  1  0.86149000  0.34674900  0.54750000  1
  Al  Al1  1  0.63851000  0.84674900  0.45250000  1
  Al  Al2  1  0.69569600  0.57997300  0.79493000  1
  Al  Al3  1  0.80430400  0.57997300  0.29493000  1
  Al  Al4  1  0.69569600  0.07997300  0.70507000  1
  Al  Al5  1  0.19569600  0.42002700  0.70507000  1
  Al  Al6  1  0.80430400  0.07997300  0.20507000  1
  Al  Al7  1  0.13851000  0.65325100  0.45250000  1
  Al  Al8  1  0.30430400  0.42002700  0.20507000  1
  Al  Al9  1  0.36149000  0.15325100  0.54750000  1
  Al  Al10  1  0.30430400  0.92002700  0.29493000  1
  Al  Al11  1  0.13851000  0.15325100  0.04750000  1
  Al  Al12  1  0.86149000  0.84674900  0.95250000  1
  Al  Al13  1  0.19569600  0.92002700  0.79493000  1
  Al  Al14  1  0.36149000  0.65325100  0.95250000  1
  Al  Al15  1  0.63851000  0.34674900  0.04750000  1
  P  P0  1  0.84609900  0.35582100  0.70530500  1
  P  P1  1  0.79391700  0.07782200  0.04724100  1
  P  P2  1  0.70608300  0.57782200  0.95275900  1
  P  P3  1  0.70608300  0.07782200  0.54724100  1
  P  P4  1  0.34609900  0.14417900  0.70530500  1
  P  P5  1  0.29391700  0.92217800  0.45275900  1
  P  P6  1  0.79391700  0.57782200  0.45275900  1
  P  P7  1  0.65390100  0.85582100  0.29469500  1
  P  P8  1  0.20608300  0.42217800  0.54724100  1
  P  P9  1  0.84609900  0.85582100  0.79469500  1
  P  P10  1  0.15390100  0.14417900  0.20530500  1
  P  P11  1  0.20608300  0.92217800  0.95275900  1
  P  P12  1  0.65390100  0.35582100  0.20530500  1
  P  P13  1  0.15390100  0.64417900  0.29469500  1
  P  P14  1  0.29391700  0.42217800  0.04724100  1
  P  P15  1  0.34609900  0.64417900  0.79469500  1
  O  O0  1  0.31017800  0.78657900  0.77542000  1
  O  O1  1  0.75308700  0.94756000  0.25423500  1
  O  O2  1  0.68982200  0.21342100  0.22458000  1
  O  O3  1  0.22063700  0.46197900  0.62096300  1
  O  O4  1  0.24691300  0.55244000  0.75423500  1
  O  O5  1  0.55077600  0.13393000  0.53391400  1
  O  O6  1  0.24691300  0.05244000  0.74576500  1
  O  O7  1  0.27936300  0.96197900  0.37903700  1
  O  O8  1  0.68640400  0.87864600  0.36931000  1
  O  O9  1  0.82102800  0.68290900  0.97107200  1
  O  O10  1  0.17897200  0.81709100  0.47107200  1
  O  O11  1  0.81359600  0.37864600  0.63069000  1
  O  O12  1  0.99014900  0.11778300  0.22070000  1
  O  O13  1  0.31359600  0.62135400  0.86931000  1
  O  O14  1  0.44922400  0.86607000  0.46608600  1
  O  O15  1  0.50985100  0.11778300  0.72070000  1
  O  O16  1  0.25308700  0.55244000  0.25423500  1
  O  O17  1  0.26554000  0.54339200  0.00376100  1
  O  O18  1  0.44922400  0.36607000  0.03391400  1
  O  O19  1  0.31359600  0.12135400  0.63069000  1
  O  O20  1  0.55077600  0.63393000  0.96608600  1
  O  O21  1  0.77936300  0.53802100  0.37903700  1
  O  O22  1  0.99014900  0.61778300  0.27930000  1
  O  O23  1  0.23446000  0.04339200  0.99623900  1
  O  O24  1  0.76554000  0.45660800  0.49623900  1
  O  O25  1  0.00985100  0.88221700  0.77930000  1
  O  O26  1  0.27936300  0.46197900  0.12096300  1
  O  O27  1  0.18640400  0.62135400  0.36931000  1
  O  O28  1  0.49014900  0.88221700  0.27930000  1
  O  O29  1  0.05077600  0.36607000  0.53391400  1
  O  O30  1  0.94922400  0.63393000  0.46608600  1
  O  O31  1  0.81017800  0.21342100  0.72458000  1
  O  O32  1  0.82102800  0.18290900  0.52892800  1
  O  O33  1  0.67897200  0.18290900  0.02892800  1
  O  O34  1  0.73446000  0.45660800  0.99623900  1
  O  O35  1  0.18640400  0.12135400  0.13069000  1
  O  O36  1  0.05077600  0.86607000  0.96608600  1
  O  O37  1  0.67897200  0.68290900  0.47107200  1
  O  O38  1  0.68640400  0.37864600  0.13069000  1
  O  O39  1  0.23446000  0.54339200  0.50376100  1
  O  O40  1  0.77936300  0.03802100  0.12096300  1
  O  O41  1  0.32102800  0.81709100  0.97107200  1
  O  O42  1  0.75308700  0.44756000  0.24576500  1
  O  O43  1  0.73446000  0.95660800  0.50376100  1
  O  O44  1  0.18982200  0.28657900  0.22458000  1
  O  O45  1  0.72063700  0.03802100  0.62096300  1
  O  O46  1  0.81017800  0.71342100  0.77542000  1
  O  O47  1  0.76554000  0.95660800  0.00376100  1
  O  O48  1  0.81359600  0.87864600  0.86931000  1
  O  O49  1  0.18982200  0.78657900  0.27542000  1
  O  O50  1  0.50985100  0.61778300  0.77930000  1
  O  O51  1  0.74691300  0.94756000  0.75423500  1
  O  O52  1  0.72063700  0.53802100  0.87903700  1
  O  O53  1  0.00985100  0.38221700  0.72070000  1
  O  O54  1  0.49014900  0.38221700  0.22070000  1
  O  O55  1  0.74691300  0.44756000  0.74576500  1
  O  O56  1  0.25308700  0.05244000  0.24576500  1
  O  O57  1  0.22063700  0.96197900  0.87903700  1
  O  O58  1  0.32102800  0.31709100  0.52892800  1
  O  O59  1  0.68982200  0.71342100  0.27542000  1
  O  O60  1  0.17897200  0.31709100  0.02892800  1
  O  O61  1  0.31017800  0.28657900  0.72458000  1
  O  O62  1  0.26554000  0.04339200  0.49623900  1
  O  O63  1  0.94922400  0.13393000  0.03391400  1
loop_
_geom_bond_atom_site_label_1
_geom_bond_atom_site_label_2
_geom_bond_distance
_geom_bond_site_symmetry_2
Al0 O29 1.743092 1_655
Al0 O24 1.751023 1_555
Al0 O32 1.752120 1_555
Al0 O11 1.753903 1_555
Al1 O14 1.743092 1_555
Al1 O43 1.751023 1_555
Al1 O37 1.752120 1_555
Al1 O8 1.753903 1_555
Al2 O55 1.735921 1_555
Al2 O50 1.751308 1_555
Al2 O52 1.754639 1_555
Al2 O46 1.754719 1_555
Al3 O42 1.735921 1_555
Al3 O22 1.751308 1_555
Al3 O21 1.754639 1_555
Al3 O59 1.754719 1_555
Al4 O51 1.735921 1_545
Al4 O15 1.751308 1_555
Al4 O45 1.754639 1_555
Al4 O31 1.754719 1_555
Al5 O4 1.735921 1_555
Al5 O53 1.751308 1_555
Al5 O3 1.754639 1_555
Al5 O61 1.754719 1_555
Al6 O1 1.735921 1_545
Al6 O12 1.751308 1_555
Al6 O40 1.754639 1_555
Al6 O2 1.754719 1_555
Al7 O30 1.743092 1_455
Al7 O39 1.751023 1_555
Al7 O10 1.752120 1_555
Al7 O27 1.753903 1_555
Al8 O16 1.735921 1_555
Al8 O54 1.751308 1_555
Al8 O26 1.754639 1_555
Al8 O44 1.754719 1_555
Al9 O5 1.743092 1_555
Al9 O62 1.751023 1_555
Al9 O58 1.752120 1_555
Al9 O19 1.753903 1_555
Al10 O56 1.735921 1_565
Al10 O28 1.751308 1_555
Al10 O7 1.754639 1_555
Al10 O49 1.754719 1_555
Al11 O63 1.743092 1_455
Al11 O23 1.751023 1_554
Al11 O60 1.752120 1_555
Al11 O35 1.753903 1_555
Al12 O36 1.743092 1_655
Al12 O47 1.751023 1_556
Al12 O9 1.752120 1_555
Al12 O48 1.753903 1_555
Al13 O6 1.735921 1_565
Al13 O25 1.751308 1_555
Al13 O57 1.754639 1_555
Al13 O0 1.754719 1_555
Al14 O20 1.743092 1_555
Al14 O17 1.751023 1_556
Al14 O41 1.752120 1_555
Al14 O13 1.753903 1_555
Al15 O18 1.743092 1_555
Al15 O34 1.751023 1_554
Al15 O33 1.752120 1_555
Al15 O38 1.753903 1_555
O0 P15 1.538842 1_555
O1 P7 1.529238 1_555
O2 P12 1.538842 1_555
O3 P8 1.538783 1_555
O4 P15 1.529238 1_555
O5 P3 1.539086 1_555
O6 P4 1.529238 1_555
O7 P5 1.538783 1_555
O8 P7 1.542491 1_555
O9 P2 1.537683 1_555
O10 P5 1.537683 1_555
O11 P0 1.542491 1_555
O12 P10 1.535312 1_655
O13 P15 1.542491 1_555
O14 P5 1.539086 1_555
O15 P4 1.535312 1_555
O16 P13 1.529238 1_555
O17 P14 1.535315 1_555
O18 P14 1.539086 1_555
O19 P4 1.542491 1_555
O20 P2 1.539086 1_555
O21 P6 1.538783 1_555
O22 P13 1.535312 1_655
O23 P11 1.535315 1_545
O24 P6 1.535315 1_555
O25 P9 1.535312 1_455
O26 P14 1.538783 1_555
O27 P13 1.542491 1_555
O28 P7 1.535312 1_555
O29 P8 1.539086 1_555
O30 P6 1.539086 1_555
O31 P0 1.538842 1_555
O32 P3 1.537683 1_555
O33 P1 1.537683 1_555
O34 P2 1.535315 1_555
O35 P10 1.542491 1_555
O36 P11 1.539086 1_555
O37 P6 1.537683 1_555
O38 P12 1.542491 1_555
O39 P8 1.535315 1_555
O40 P1 1.538783 1_555
O41 P11 1.537683 1_555
O42 P12 1.529238 1_555
O43 P3 1.535315 1_565
O44 P10 1.538842 1_555
O45 P3 1.538783 1_555
O46 P9 1.538842 1_555
O47 P1 1.535315 1_565
O48 P9 1.542491 1_555
O49 P13 1.538842 1_555
O50 P15 1.535312 1_555
O51 P9 1.529238 1_555
O52 P2 1.538783 1_555
O53 P0 1.535312 1_455
O54 P12 1.535312 1_555
O55 P0 1.529238 1_555
O56 P10 1.529238 1_555
O57 P11 1.538783 1_555
O58 P8 1.537683 1_555
O59 P7 1.538842 1_555
O60 P14 1.537683 1_555
O61 P4 1.538842 1_555
O62 P5 1.535315 1_545
O63 P1 1.539086 1_555
