# generated using pymatgen
data_Cs6K7
_symmetry_space_group_name_H-M   'P 1'
_cell_length_a   9.23749188
_cell_length_b   9.23749188
_cell_length_c   34.39810219
_cell_angle_alpha   90.00000000
_cell_angle_beta   90.00000000
_cell_angle_gamma   119.99999124
_symmetry_Int_Tables_number   1
_chemical_formula_structural   Cs6K7
_chemical_formula_sum   'Cs12 K14'
_cell_volume   2541.98680232
_cell_formula_units_Z   2
loop_
 _symmetry_equiv_pos_site_id
 _symmetry_equiv_pos_as_xyz
  1  'x, y, z'
loop_
 _atom_site_type_symbol
 _atom_site_label
 _atom_site_symmetry_multiplicity
 _atom_site_fract_x
 _atom_site_fract_y
 _atom_site_fract_z
 _atom_site_occupancy
  Cs  Cs0  1  0.33333300  0.66666700  0.97700101  1
  Cs  Cs1  1  0.66666600  0.33333200  0.17838445  1
  Cs  Cs2  1  0.33333400  0.66666800  0.67838445  1
  Cs  Cs3  1  0.33333400  0.66666800  0.82161555  1
  Cs  Cs4  1  0.66666700  0.33333300  0.02299899  1
  Cs  Cs5  1  0.66666600  0.33333200  0.32161555  1
  Cs  Cs6  1  0.33333300  0.66666700  0.52299899  1
  Cs  Cs7  1  0.66666700  0.33333300  0.47700101  1
  Cs  Cs8  1  0.00000000  0.00000000  0.25000000  1
  Cs  Cs9  1  0.66666700  0.33333300  0.75000000  1
  Cs  Cs10  1  0.00000000  0.00000000  0.75000000  1
  Cs  Cs11  1  0.33333300  0.66666700  0.25000000  1
  K  K0  1  0.16715814  0.33431629  0.38554018  1
  K  K1  1  0.16715814  0.83284286  0.38554018  1
  K  K2  1  0.66568271  0.83284186  0.11445982  1
  K  K3  1  0.16715814  0.83284286  0.11445982  1
  K  K4  1  0.66568271  0.83284186  0.38554018  1
  K  K5  1  0.83284186  0.16715714  0.61445982  1
  K  K6  1  0.33431729  0.16715814  0.88554018  1
  K  K7  1  0.33431729  0.16715814  0.61445982  1
  K  K8  1  0.16715814  0.33431629  0.11445982  1
  K  K9  1  0.83284186  0.16715714  0.88554018  1
  K  K10  1  0.83284186  0.66568371  0.61445982  1
  K  K11  1  0.00000000  0.00000000  0.50000000  1
  K  K12  1  0.83284186  0.66568371  0.88554018  1
  K  K13  1  0.00000000  0.00000000  0.00000000  1
loop_
_geom_bond_atom_site_label_1
_geom_bond_atom_site_label_2
_geom_bond_distance
_geom_bond_site_symmetry_2
Cs0 Cs3 5.344965 1_555
Cs0 Cs4 5.563020 1_456
Cs0 Cs4 5.563020 1_566
Cs0 Cs4 5.563035 1_556
Cs1 Cs5 4.926878 1_555
Cs1 K2 5.115452 1_545
Cs1 K3 5.115452 1_545
Cs1 K8 5.115464 1_655
Cs1 K8 5.115464 1_555
Cs1 K2 5.115477 1_555
Cs1 K3 5.115477 1_655
Cs1 Cs4 5.344965 1_555
Cs2 Cs3 4.926878 1_555
Cs2 K7 5.115452 1_565
Cs2 K5 5.115452 1_565
Cs2 K10 5.115464 1_455
Cs2 K10 5.115464 1_555
Cs2 K7 5.115477 1_555
Cs2 K5 5.115477 1_455
Cs2 Cs6 5.344965 1_555
Cs3 K6 5.115452 1_565
Cs3 K9 5.115452 1_565
Cs3 K12 5.115464 1_455
Cs3 K12 5.115464 1_555
Cs3 K6 5.115477 1_555
Cs3 K9 5.115477 1_455
Cs5 K4 5.115452 1_545
Cs5 K1 5.115452 1_545
Cs5 K0 5.115464 1_655
Cs5 K0 5.115464 1_555
Cs5 K4 5.115477 1_555
Cs5 K1 5.115477 1_655
Cs5 Cs7 5.344965 1_555
Cs6 Cs7 5.563020 1_565
Cs6 Cs7 5.563020 1_455
Cs6 Cs7 5.563035 1_555
Cs10 Cs9 5.333263 1_455
Cs10 Cs9 5.333272 1_445
Cs10 Cs9 5.333272 1_555
Cs11 Cs8 5.333263 1_565
Cs11 Cs8 5.333272 1_665
Cs11 Cs8 5.333272 1_555
K0 K4 4.605122 1_555
K0 K1 4.605135 1_555
K0 K1 4.632357 1_545
K0 K4 4.632371 1_445
K0 K11 4.759673 1_555
K1 K4 4.605121 1_555
K1 K4 4.632371 1_455
K1 K11 4.759668 1_565
K2 K3 4.605121 1_555
K2 K8 4.605122 1_555
K2 K3 4.632371 1_655
K2 K8 4.632371 1_665
K3 K8 4.605135 1_555
K3 K8 4.632357 1_565
K5 K7 4.605121 1_555
K5 K7 4.632371 1_655
K6 K9 4.605121 1_555
K6 K9 4.632371 1_455
K10 K7 4.605122 1_555
K10 K5 4.605135 1_555
K10 K5 4.632357 1_565
K10 K7 4.632371 1_665
K10 K11 4.759673 1_665
K11 K5 4.759668 1_455
K11 K7 4.759678 1_555
K11 K4 4.759678 1_445
K12 K6 4.605122 1_555
K12 K9 4.605135 1_555
K12 K9 4.632357 1_565
K12 K6 4.632371 1_665
K12 K13 4.759673 1_666
K13 K9 4.759668 1_454
K13 K3 4.759668 1_545
K13 K8 4.759673 1_555
K13 K6 4.759678 1_554
K13 K2 4.759678 1_445
