# generated using pymatgen
data_K2PbO3
_symmetry_space_group_name_H-M   'P 1'
_cell_length_a   6.02295153
_cell_length_b   6.02295131
_cell_length_c   12.41712227
_cell_angle_alpha   89.99996302
_cell_angle_beta   89.99998131
_cell_angle_gamma   120.00001866
_symmetry_Int_Tables_number   1
_chemical_formula_structural   K2PbO3
_chemical_formula_sum   'K8 Pb4 O12'
_cell_volume   390.09485999
_cell_formula_units_Z   4
loop_
 _symmetry_equiv_pos_site_id
 _symmetry_equiv_pos_as_xyz
  1  'x, y, z'
loop_
 _atom_site_type_symbol
 _atom_site_label
 _atom_site_symmetry_multiplicity
 _atom_site_fract_x
 _atom_site_fract_y
 _atom_site_fract_z
 _atom_site_occupancy
  K  K0  1  0.00000004  0.68813768  0.24998482  1
  K  K1  1  0.31186088  0.31185996  0.24998466  1
  K  K2  1  0.99999905  0.31186165  0.75001539  1
  K  K3  1  0.68813716  0.99999930  0.24998472  1
  K  K4  1  -0.00000009  0.99999857  0.99999835  1
  K  K5  1  0.68814066  0.68813915  0.75001568  1
  K  K6  1  0.00000034  0.00000062  0.50000043  1
  K  K7  1  0.31186031  -0.00000076  0.75001425  1
  Pb  Pb0  1  0.66666676  0.33333373  0.50000053  1
  Pb  Pb1  1  0.33333339  0.66666698  0.50000062  1
  Pb  Pb2  1  0.66666657  0.33333322  0.99999957  1
  Pb  Pb3  1  0.33333333  0.66666638  0.99999951  1
  O  O0  1  0.00000024  0.61403574  0.89987838  1
  O  O1  1  0.61403598  -0.00000014  0.89987848  1
  O  O2  1  0.61403559  0.61403587  0.10012042  1
  O  O3  1  0.00000037  0.38598070  0.39987191  1
  O  O4  1  0.38597995  0.00000081  0.39987160  1
  O  O5  1  0.38596353  -0.00000014  0.10012037  1
  O  O6  1  0.61402030  -0.00000018  0.60012925  1
  O  O7  1  -0.00000037  0.38596360  0.10012024  1
  O  O8  1  -0.00000009  0.61402042  0.60012962  1
  O  O9  1  0.61401924  0.61401975  0.39987151  1
  O  O10  1  0.38598169  0.38598135  0.60013016  1
  O  O11  1  0.38596417  0.38596373  0.89987855  1
loop_
_geom_bond_atom_site_label_1
_geom_bond_atom_site_label_2
_geom_bond_distance
_geom_bond_site_symmetry_2
K0 O7 2.602926 1_555
K0 O3 2.603054 1_555
K0 O5 2.833464 1_565
K0 O2 2.833469 1_455
K0 O9 2.833698 1_455
K0 O4 2.833698 1_565
K1 O2 2.602927 1_555
K1 O9 2.603062 1_555
K1 O5 2.833460 1_555
K1 O7 2.833468 1_555
K1 O4 2.833687 1_555
K1 O3 2.833701 1_555
K2 O0 2.602911 1_655
K2 O8 2.603047 1_655
K2 O1 2.833451 1_555
K2 O11 2.833462 1_655
K2 O6 2.833688 1_555
K2 O10 2.833692 1_655
K3 O5 2.602924 1_565
K3 O4 2.603056 1_565
K3 O2 2.833465 1_555
K3 O7 2.833467 1_665
K3 O9 2.833693 1_555
K3 O3 2.833706 1_665
K4 O0 2.636188 1_555
K4 O11 2.636194 1_565
K4 O1 2.636196 1_465
K4 O5 2.636200 1_566
K4 O2 2.636201 1_456
K4 O7 2.636211 1_566
K5 O11 2.602918 1_555
K5 O10 2.603047 1_555
K5 O0 2.833446 1_655
K5 O1 2.833456 1_565
K5 O8 2.833680 1_655
K5 O6 2.833693 1_565
K6 O4 2.636327 1_555
K6 O6 2.636328 1_455
K6 O3 2.636328 1_555
K6 O8 2.636331 1_545
K6 O9 2.636336 1_445
K6 O10 2.636341 1_555
K7 O1 2.602929 1_555
K7 O6 2.603047 1_555
K7 O0 2.833458 1_545
K7 O11 2.833466 1_555
K7 O8 2.833673 1_545
K7 O10 2.833677 1_555
O0 Pb3 2.245065 1_555
O0 Pb2 2.245066 1_455
O1 Pb3 2.245064 1_545
O1 Pb2 2.245067 1_555
O2 Pb3 2.245062 1_554
O2 Pb2 2.245066 1_554
O3 Pb1 2.245088 1_555
O3 Pb0 2.245088 1_455
O4 Pb0 2.245090 1_555
O4 Pb1 2.245093 1_545
O5 Pb2 2.245063 1_554
O5 Pb3 2.245067 1_544
O6 Pb1 2.245088 1_545
O6 Pb0 2.245091 1_555
O7 Pb2 2.245063 1_454
O7 Pb3 2.245063 1_554
O8 Pb1 2.245091 1_555
O8 Pb0 2.245091 1_455
O9 Pb1 2.245089 1_555
O9 Pb0 2.245090 1_555
O10 Pb0 2.245090 1_555
O10 Pb1 2.245094 1_555
O11 Pb2 2.245064 1_555
O11 Pb3 2.245066 1_555
