# generated using pymatgen
data_Nd2Ni7P4
_symmetry_space_group_name_H-M   'P 1'
_cell_length_a   3.74115141
_cell_length_b   9.18508611
_cell_length_c   10.38834053
_cell_angle_alpha   90.00000000
_cell_angle_beta   90.00000000
_cell_angle_gamma   90.00000000
_symmetry_Int_Tables_number   1
_chemical_formula_structural   Nd2Ni7P4
_chemical_formula_sum   'Nd4 Ni14 P8'
_cell_volume   356.97244564
_cell_formula_units_Z   2
loop_
 _symmetry_equiv_pos_site_id
 _symmetry_equiv_pos_as_xyz
  1  'x, y, z'
loop_
 _atom_site_type_symbol
 _atom_site_label
 _atom_site_symmetry_multiplicity
 _atom_site_fract_x
 _atom_site_fract_y
 _atom_site_fract_z
 _atom_site_occupancy
  Nd  Nd0  1  0.50000000  0.43683395  0.49981360  1
  Nd  Nd1  1  0.50000000  0.06068880  0.28314937  1
  Nd  Nd2  1  0.00000000  0.93931120  0.78314937  1
  Nd  Nd3  1  0.00000000  0.56316605  -0.00018640  1
  Ni  Ni0  1  0.50000000  0.30520769  0.07429100  1
  Ni  Ni1  1  0.50000000  0.74574305  0.40223746  1
  Ni  Ni2  1  0.50000000  0.41766140  0.80412134  1
  Ni  Ni3  1  0.50000000  0.06190229  0.97901581  1
  Ni  Ni4  1  0.50000000  0.68227862  0.76039172  1
  Ni  Ni5  1  0.00000000  0.27569822  0.67190767  1
  Ni  Ni6  1  -0.00000000  0.25425695  0.90223746  1
  Ni  Ni7  1  0.00000000  0.69479231  0.57429100  1
  Ni  Ni8  1  0.50000000  0.09570081  0.58604313  1
  Ni  Ni9  1  -0.00000000  0.31772138  0.26039172  1
  Ni  Ni10  1  -0.00000000  0.58233860  0.30412134  1
  Ni  Ni11  1  0.00000000  0.90429919  0.08604313  1
  Ni  Ni12  1  -0.00000000  0.93809771  0.47901581  1
  Ni  Ni13  1  0.50000000  0.72430178  0.17190767  1
  P  P0  1  -0.00000000  0.81528829  0.28814069  1
  P  P1  1  0.00000000  0.18405175  0.47277173  1
  P  P2  1  0.50000000  0.18471171  0.78814069  1
  P  P3  1  0.00000000  0.15764374  0.08874909  1
  P  P4  1  0.50000000  0.47605038  0.21706638  1
  P  P5  1  0.50000000  0.81594825  0.97277173  1
  P  P6  1  0.50000000  0.84235626  0.58874909  1
  P  P7  1  -0.00000000  0.52394962  0.71706638  1
loop_
_geom_bond_atom_site_label_1
_geom_bond_atom_site_label_2
_geom_bond_distance
_geom_bond_site_symmetry_2
Nd0 P4 2.959279 1_555
Nd0 Ni5 2.980892 1_555
Nd0 Ni5 2.980892 1_655
Nd0 P1 2.994803 1_655
Nd0 P1 2.994803 1_555
Nd0 Ni1 3.012987 1_555
Nd0 P7 3.038568 1_555
Nd0 P7 3.038568 1_655
Nd0 Ni10 3.068871 1_555
Nd0 Ni10 3.068871 1_655
Nd0 Ni7 3.116340 1_655
Nd0 Ni7 3.116340 1_555
Nd0 Ni2 3.166154 1_555
Nd0 Ni8 3.258869 1_555
Nd0 Ni9 3.298812 1_555
Nd0 Ni9 3.298812 1_655
Nd1 P3 2.893178 1_655
Nd1 P3 2.893178 1_555
Nd1 P0 2.929568 1_545
Nd1 P0 2.929568 1_645
Nd1 P1 2.943352 1_555
Nd1 P1 2.943352 1_655
Nd1 Ni12 2.984471 1_645
Nd1 Ni12 2.984471 1_545
Nd1 Ni9 3.021363 1_555
Nd1 Ni9 3.021363 1_655
Nd1 Ni0 3.122779 1_555
Nd1 Ni11 3.123322 1_545
Nd1 Ni11 3.123322 1_645
Nd1 Ni1 3.146236 1_545
Nd1 Ni3 3.159463 1_554
Nd1 Ni8 3.162954 1_555
Nd1 Ni13 3.298783 1_545
Nd2 P6 2.893178 1_555
Nd2 P6 2.893178 1_455
Nd2 P2 2.929568 1_565
Nd2 P2 2.929568 1_465
Nd2 P5 2.943352 1_555
Nd2 P5 2.943352 1_455
Nd2 Ni3 2.984471 1_565
Nd2 Ni3 2.984471 1_465
Nd2 Ni4 3.021363 1_455
Nd2 Ni4 3.021363 1_555
Nd2 Ni7 3.122779 1_555
Nd2 Ni8 3.123322 1_565
Nd2 Ni8 3.123322 1_465
Nd2 Ni6 3.146236 1_565
Nd2 Ni12 3.159463 1_555
Nd2 Ni11 3.162954 1_556
Nd2 Ni5 3.298783 1_565
Nd3 P7 2.959279 1_554
Nd3 Ni13 2.980892 1_555
Nd3 Ni13 2.980892 1_455
Nd3 P5 2.994803 1_554
Nd3 P5 2.994803 1_454
Nd3 Ni6 3.012987 1_554
Nd3 P4 3.038568 1_555
Nd3 P4 3.038568 1_455
Nd3 Ni2 3.068871 1_454
Nd3 Ni2 3.068871 1_554
Nd3 Ni0 3.116340 1_455
Nd3 Ni0 3.116340 1_555
Nd3 Ni10 3.166154 1_555
Nd3 Ni11 3.258869 1_555
Nd3 Ni4 3.298812 1_554
Nd3 Ni4 3.298812 1_454
Ni0 P4 2.159232 1_555
Ni0 P3 2.314884 1_655
Ni0 P3 2.314884 1_555
Ni1 P6 2.131095 1_555
Ni1 P0 2.304771 1_655
Ni1 P0 2.304771 1_555
Ni2 P2 2.146094 1_555
Ni2 P7 2.295650 1_555
Ni2 P7 2.295650 1_655
Ni3 P5 2.260040 1_545
Ni3 P2 2.281275 1_555
Ni3 P3 2.360480 1_556
Ni3 P3 2.360480 1_656
Ni4 P6 2.311113 1_555
Ni4 P7 2.411745 1_655
Ni4 P7 2.411745 1_555
Ni4 P5 2.524889 1_555
Ni5 P1 2.233401 1_555
Ni5 P7 2.327968 1_555
Ni5 P2 2.378121 1_555
Ni5 P2 2.378121 1_455
Ni6 P3 2.131095 1_556
Ni6 P2 2.304771 1_455
Ni6 P2 2.304771 1_555
Ni7 P7 2.159232 1_555
Ni7 P6 2.314884 1_555
Ni7 P6 2.314884 1_455
Ni8 P2 2.253031 1_555
Ni8 P6 2.327161 1_545
Ni8 P1 2.354194 1_555
Ni8 P1 2.354194 1_655
Ni9 P3 2.311113 1_555
Ni9 P4 2.411745 1_555
Ni9 P4 2.411745 1_455
Ni9 P1 2.524889 1_555
Ni10 P0 2.146094 1_555
Ni10 P4 2.295650 1_455
Ni10 P4 2.295650 1_555
Ni11 P0 2.253031 1_555
Ni11 P3 2.327161 1_565
Ni11 P5 2.354194 1_554
Ni11 P5 2.354194 1_454
Ni12 P1 2.260040 1_565
Ni12 P0 2.281275 1_555
Ni12 P6 2.360480 1_555
Ni12 P6 2.360480 1_455
Ni13 P5 2.233401 1_554
Ni13 P4 2.327968 1_555
Ni13 P0 2.378121 1_655
Ni13 P0 2.378121 1_555
