# generated using pymatgen
data_TlRe3(S2Cl)2
_symmetry_space_group_name_H-M   'P 1'
_cell_length_a   6.43635700
_cell_length_b   9.19845142
_cell_length_c   17.18914167
_cell_angle_alpha   95.95395651
_cell_angle_beta   92.65757313
_cell_angle_gamma   96.05122886
_symmetry_Int_Tables_number   1
_chemical_formula_structural   TlRe3(S2Cl)2
_chemical_formula_sum   'Tl4 Re12 S16 Cl8'
_cell_volume   1004.85455450
_cell_formula_units_Z   4
loop_
 _symmetry_equiv_pos_site_id
 _symmetry_equiv_pos_as_xyz
  1  'x, y, z'
loop_
 _atom_site_type_symbol
 _atom_site_label
 _atom_site_symmetry_multiplicity
 _atom_site_fract_x
 _atom_site_fract_y
 _atom_site_fract_z
 _atom_site_occupancy
  Tl  Tl0  1  0.53413400  0.49100900  0.84441900  1
  Tl  Tl1  1  0.04135500  0.98842200  0.33209900  1
  Tl  Tl2  1  0.95864500  0.01157800  0.66790100  1
  Tl  Tl3  1  0.46586600  0.50899100  0.15558100  1
  Re  Re0  1  0.22486800  0.47499400  0.46157100  1
  Re  Re1  1  0.42263000  0.40955000  0.58805000  1
  Re  Re2  1  0.72376300  0.92701000  0.00412800  1
  Re  Re3  1  0.07054200  0.89774200  0.08381900  1
  Re  Re4  1  0.92945800  0.10225800  0.91618100  1
  Re  Re5  1  0.54035000  0.31641000  0.44935300  1
  Re  Re6  1  0.77513200  0.52500600  0.53842900  1
  Re  Re7  1  0.27623700  0.07299000  0.99587200  1
  Re  Re8  1  0.45965000  0.68359000  0.55064700  1
  Re  Re9  1  0.04065900  0.83937500  0.92879800  1
  Re  Re10  1  0.95934100  0.16062500  0.07120200  1
  Re  Re11  1  0.57737000  0.59045000  0.41195000  1
  S  S0  1  0.22902100  0.01511200  0.85509200  1
  S  S1  1  0.15600900  0.30915000  0.98395400  1
  S  S2  1  0.77097900  0.98488800  0.14490800  1
  S  S3  1  0.64699000  0.18691600  0.99129700  1
  S  S4  1  0.35301000  0.81308400  0.00870300  1
  S  S5  1  0.14260700  0.56591100  0.59814000  1
  S  S6  1  0.28362600  0.12230400  0.13700800  1
  S  S7  1  0.27959300  0.72513000  0.42975500  1
  S  S8  1  0.85739300  0.43408900  0.40186000  1
  S  S9  1  0.71637400  0.87769600  0.86299200  1
  S  S10  1  0.64830100  0.60921400  0.66302200  1
  S  S11  1  0.35169900  0.39078600  0.33697800  1
  S  S12  1  0.84399100  0.69085000  0.01604600  1
  S  S13  1  0.21076500  0.22710900  0.49794500  1
  S  S14  1  0.72040700  0.27487000  0.57024500  1
  S  S15  1  0.78923500  0.77289100  0.50205500  1
  Cl  Cl0  1  0.83408200  0.23345500  0.80711200  1
  Cl  Cl1  1  0.58242700  0.07867000  0.38194400  1
  Cl  Cl2  1  0.08801400  0.63207900  0.83563000  1
  Cl  Cl3  1  0.41757300  0.92133000  0.61805600  1
  Cl  Cl4  1  0.68055800  0.70776900  0.29722600  1
  Cl  Cl5  1  0.91198600  0.36792100  0.16437000  1
  Cl  Cl6  1  0.31944200  0.29223100  0.70277400  1
  Cl  Cl7  1  0.16591800  0.76654500  0.19288800  1
loop_
_geom_bond_atom_site_label_1
_geom_bond_atom_site_label_2
_geom_bond_distance
_geom_bond_site_symmetry_2
Re0 S11 2.409214 1_555
Re0 S7 2.413540 1_555
Re0 S13 2.419849 1_555
Re0 S5 2.508351 1_555
Re0 S8 2.509250 1_455
Re1 S14 2.403768 1_555
Re1 S13 2.420141 1_555
Re1 S5 2.422992 1_555
Re1 S10 2.432400 1_555
Re2 S12 2.406602 1_555
Re2 S9 2.418674 1_554
Re2 S2 2.421170 1_555
Re2 S4 2.511185 1_555
Re2 S3 2.521264 1_564
Re3 S2 2.408683 1_455
Re3 S6 2.424520 1_565
Re3 S4 2.426211 1_555
Re3 S12 2.429521 1_455
Re4 S0 2.408683 1_655
Re4 S9 2.424520 1_545
Re4 S3 2.426211 1_555
Re4 S1 2.429521 1_655
Re5 S13 2.410744 1_555
Re5 S14 2.417033 1_555
Re5 S8 2.423703 1_555
Re5 S11 2.430101 1_555
Re6 S10 2.409214 1_555
Re6 S14 2.413540 1_555
Re6 S15 2.419849 1_555
Re6 S8 2.508351 1_555
Re6 S5 2.509250 1_655
Re7 S1 2.406602 1_555
Re7 S6 2.418674 1_556
Re7 S0 2.421170 1_555
Re7 S3 2.511185 1_555
Re7 S4 2.521264 1_546
Re8 S15 2.410744 1_555
Re8 S7 2.417033 1_555
Re8 S5 2.423703 1_555
Re8 S10 2.430101 1_555
Re9 S9 2.403978 1_455
Re9 S0 2.417064 1_565
Re9 S4 2.429414 1_556
Re9 S12 2.440178 1_456
Re10 S6 2.403978 1_655
Re10 S2 2.417064 1_545
Re10 S3 2.429414 1_554
Re10 S1 2.440178 1_654
Re11 S7 2.403768 1_555
Re11 S15 2.420141 1_555
Re11 S8 2.422992 1_555
Re11 S11 2.432400 1_555
Cl0 Re4 2.422181 1_555
Cl0 Tl2 3.169214 1_555
Cl1 Re5 2.413813 1_555
Cl2 Re9 2.414085 1_555
Cl3 Re8 2.413813 1_555
Cl4 Re11 2.430292 1_555
Cl4 Tl3 3.067974 1_555
Cl5 Re10 2.414085 1_555
Cl6 Re1 2.430292 1_555
Cl6 Tl0 3.067974 1_555
Cl7 Re3 2.422181 1_555
Cl7 Tl1 3.169214 1_555
