# generated using pymatgen
data_Na3PSO3
_symmetry_space_group_name_H-M   'P 1'
_cell_length_a   6.30636469
_cell_length_b   6.30636469
_cell_length_c   6.30636456
_cell_angle_alpha   84.89448229
_cell_angle_beta   84.89448229
_cell_angle_gamma   84.89448086
_symmetry_Int_Tables_number   1
_chemical_formula_structural   Na3PSO3
_chemical_formula_sum   'Na6 P2 S2 O6'
_cell_volume   247.98722900
_cell_formula_units_Z   2
loop_
 _symmetry_equiv_pos_site_id
 _symmetry_equiv_pos_as_xyz
  1  'x, y, z'
loop_
 _atom_site_type_symbol
 _atom_site_label
 _atom_site_symmetry_multiplicity
 _atom_site_fract_x
 _atom_site_fract_y
 _atom_site_fract_z
 _atom_site_occupancy
  Na  Na0  1  0.50512200  0.88160200  0.18976300  1
  Na  Na1  1  0.18976300  0.50512200  0.88160200  1
  Na  Na2  1  0.88160200  0.18976300  0.50512200  1
  Na  Na3  1  0.38160200  0.00512200  0.68976300  1
  Na  Na4  1  0.68976300  0.38160200  0.00512200  1
  Na  Na5  1  0.00512200  0.68976300  0.38160200  1
  P  P0  1  0.90703200  0.90703200  0.90703200  1
  P  P1  1  0.40703200  0.40703200  0.40703200  1
  S  S0  1  0.58436400  0.58436400  0.58436400  1
  S  S1  1  0.08436400  0.08436400  0.08436400  1
  O  O0  1  0.86401800  0.69574500  0.04322200  1
  O  O1  1  0.04322200  0.86401800  0.69574500  1
  O  O2  1  0.69574500  0.04322200  0.86401800  1
  O  O3  1  0.19574500  0.36401800  0.54322200  1
  O  O4  1  0.54322200  0.19574500  0.36401800  1
  O  O5  1  0.36401800  0.54322200  0.19574500  1
loop_
_geom_bond_atom_site_label_1
_geom_bond_atom_site_label_2
_geom_bond_distance
_geom_bond_site_symmetry_2
Na0 O5 2.380054 1_555
Na0 O4 2.389413 1_565
Na0 O2 2.471818 1_564
Na0 O0 2.588211 1_555
Na0 S1 2.945578 1_565
Na0 S0 3.029927 1_555
Na1 O3 2.380054 1_555
Na1 O5 2.389413 1_556
Na1 O0 2.471818 1_456
Na1 O1 2.588211 1_555
Na1 S1 2.945578 1_556
Na1 S0 3.029927 1_555
Na2 O4 2.380054 1_555
Na2 O3 2.389413 1_655
Na2 O1 2.471818 1_645
Na2 O2 2.588211 1_555
Na2 S1 2.945578 1_655
Na2 S0 3.029927 1_555
Na3 O1 2.380054 1_545
Na3 O2 2.389413 1_555
Na3 O4 2.471818 1_555
Na3 O3 2.588211 1_555
Na3 S0 2.945578 1_545
Na3 S1 3.029927 1_556
Na4 O2 2.380054 1_554
Na4 O0 2.389413 1_555
Na4 O5 2.471818 1_555
Na4 O4 2.588211 1_555
Na4 S0 2.945578 1_554
Na4 S1 3.029927 1_655
Na5 O0 2.380054 1_455
Na5 O1 2.389413 1_555
Na5 O3 2.471818 1_555
Na5 O5 2.588211 1_555
Na5 S0 2.945578 1_455
Na5 S1 3.029927 1_565
P0 S1 2.102306 1_666
P1 S0 2.102306 1_555
O0 P0 1.551079 1_554
O1 P0 1.551079 1_455
O2 P0 1.551079 1_545
O3 P1 1.551079 1_555
O4 P1 1.551079 1_555
O5 P1 1.551079 1_555
