# generated using pymatgen
data_V3Cd5P6O25
_symmetry_space_group_name_H-M   'P 1'
_cell_length_a   8.90343033
_cell_length_b   8.90343033
_cell_length_c   24.63402799
_cell_angle_alpha   77.37518874
_cell_angle_beta   77.37518874
_cell_angle_gamma   31.32175420
_symmetry_Int_Tables_number   1
_chemical_formula_structural   V3Cd5P6O25
_chemical_formula_sum   'V6 Cd10 P12 O50'
_cell_volume   988.63406107
_cell_formula_units_Z   2
loop_
 _symmetry_equiv_pos_site_id
 _symmetry_equiv_pos_as_xyz
  1  'x, y, z'
loop_
 _atom_site_type_symbol
 _atom_site_label
 _atom_site_symmetry_multiplicity
 _atom_site_fract_x
 _atom_site_fract_y
 _atom_site_fract_z
 _atom_site_occupancy
  V  V0  1  0.77340700  0.76490000  0.08705800  1
  V  V1  1  0.06042000  0.93958000  0.25000000  1
  V  V2  1  0.22659300  0.23510000  0.91294200  1
  V  V3  1  0.93958000  0.06042000  0.75000000  1
  V  V4  1  0.23510000  0.22659300  0.41294200  1
  V  V5  1  0.76490000  0.77340700  0.58705800  1
  Cd  Cd0  1  0.58390500  0.53683800  0.11644400  1
  Cd  Cd1  1  0.53683800  0.58390500  0.61644400  1
  Cd  Cd2  1  0.41609500  0.46316200  0.88355600  1
  Cd  Cd3  1  0.46316200  0.41609500  0.38355600  1
  Cd  Cd4  1  0.69294300  0.64101000  0.29137600  1
  Cd  Cd5  1  0.35899000  0.30705700  0.20862400  1
  Cd  Cd6  1  0.30705700  0.35899000  0.70862400  1
  Cd  Cd7  1  0.64101000  0.69294300  0.79137600  1
  Cd  Cd8  1  0.00000000  0.00000000  0.50000000  1
  Cd  Cd9  1  0.00000000  0.00000000  0.00000000  1
  P  P0  1  0.18893100  0.16373100  0.67452400  1
  P  P1  1  0.81106900  0.83626900  0.32547600  1
  P  P2  1  0.16373100  0.18893100  0.17452400  1
  P  P3  1  0.83626900  0.81106900  0.82547600  1
  P  P4  1  0.67391800  0.62599500  0.49692500  1
  P  P5  1  0.11585400  0.02714800  0.35920600  1
  P  P6  1  0.37400500  0.32608200  0.00307500  1
  P  P7  1  0.62599500  0.67391800  0.99692500  1
  P  P8  1  0.97285200  0.88414600  0.14079400  1
  P  P9  1  0.88414600  0.97285200  0.64079400  1
  P  P10  1  0.02714800  0.11585400  0.85920600  1
  P  P11  1  0.32608200  0.37400500  0.50307500  1
  O  O0  1  0.43717500  0.19736600  0.95153200  1
  O  O1  1  0.13757100  0.85571500  0.09235400  1
  O  O2  1  0.01932300  0.29168400  0.86441500  1
  O  O3  1  0.70831600  0.98067700  0.63558500  1
  O  O4  1  0.75470200  0.05463100  0.81180500  1
  O  O5  1  0.68671000  0.91185200  0.27080100  1
  O  O6  1  0.94216800  0.56984000  0.35408100  1
  O  O7  1  0.66202700  0.20953500  0.14783800  1
  O  O8  1  0.31329000  0.08814800  0.72919900  1
  O  O9  1  0.14428500  0.86242900  0.40764600  1
  O  O10  1  0.28089600  0.71910400  0.75000000  1
  O  O11  1  0.33797300  0.79046500  0.85216200  1
  O  O12  1  0.44447200  0.69418800  0.52219600  1
  O  O13  1  0.56984000  0.94216800  0.85408100  1
  O  O14  1  0.91185200  0.68671000  0.77080100  1
  O  O15  1  0.05783200  0.43016000  0.64591900  1
  O  O16  1  0.86806500  0.25805400  0.80331200  1
  O  O17  1  0.94536900  0.24529800  0.68819500  1
  O  O18  1  0.13193500  0.74194600  0.19668800  1
  O  O19  1  0.87311000  0.54728200  0.95809200  1
  O  O20  1  0.74194600  0.13193500  0.69668800  1
  O  O21  1  0.05463100  0.75470200  0.31180500  1
  O  O22  1  0.10065900  0.56246700  0.86217000  1
  O  O23  1  0.65540400  0.07454800  0.03597200  1
  O  O24  1  0.79046500  0.33797300  0.35216200  1
  O  O25  1  0.80263400  0.56282500  0.54846800  1
  O  O26  1  0.12689000  0.45271800  0.04190800  1
  O  O27  1  0.34459600  0.92545200  0.96402800  1
  O  O28  1  0.86242900  0.14428500  0.90764600  1
  O  O29  1  0.69418800  0.44447200  0.02219600  1
  O  O30  1  0.71910400  0.28089600  0.25000000  1
  O  O31  1  0.43753300  0.89934100  0.63783000  1
  O  O32  1  0.85571500  0.13757100  0.59235400  1
  O  O33  1  0.07454800  0.65540400  0.53597200  1
  O  O34  1  0.54728200  0.87311000  0.45809200  1
  O  O35  1  0.30581200  0.55552800  0.97780400  1
  O  O36  1  0.43016000  0.05783200  0.14591900  1
  O  O37  1  0.25805400  0.86806500  0.30331200  1
  O  O38  1  0.55552800  0.30581200  0.47780400  1
  O  O39  1  0.89934100  0.43753300  0.13783000  1
  O  O40  1  0.92545200  0.34459600  0.46402800  1
  O  O41  1  0.29168400  0.01932300  0.36441500  1
  O  O42  1  0.08814800  0.31329000  0.22919900  1
  O  O43  1  0.98067700  0.70831600  0.13558500  1
  O  O44  1  0.56246700  0.10065900  0.36217000  1
  O  O45  1  0.19736600  0.43717500  0.45153200  1
  O  O46  1  0.24529800  0.94536900  0.18819500  1
  O  O47  1  0.20953500  0.66202700  0.64783800  1
  O  O48  1  0.45271800  0.12689000  0.54190800  1
  O  O49  1  0.56282500  0.80263400  0.04846800  1
loop_
_geom_bond_atom_site_label_1
_geom_bond_atom_site_label_2
_geom_bond_distance
_geom_bond_site_symmetry_2
Cd0 O39 2.268793 1_555
Cd0 O1 2.285357 1_555
Cd0 O7 2.315365 1_555
Cd0 O29 2.342913 1_555
Cd0 O49 2.466951 1_555
Cd0 O46 2.681223 1_555
Cd1 O31 2.268793 1_555
Cd1 O32 2.285357 1_555
Cd1 O47 2.315365 1_555
Cd1 O12 2.342913 1_555
Cd1 O25 2.466951 1_555
Cd1 O17 2.681223 1_555
Cd2 O22 2.268793 1_555
Cd2 O28 2.285357 1_555
Cd2 O11 2.315365 1_555
Cd2 O35 2.342913 1_555
Cd2 O0 2.466951 1_555
Cd2 O4 2.681223 1_555
Cd3 O44 2.268793 1_555
Cd3 O9 2.285357 1_555
Cd3 O24 2.315365 1_555
Cd3 O38 2.342913 1_555
Cd3 O45 2.466951 1_555
Cd3 O21 2.681223 1_555
Cd4 O24 2.252881 1_555
Cd4 O42 2.301588 1_655
Cd4 O5 2.307449 1_555
Cd4 O37 2.356750 1_555
Cd4 O6 2.525762 1_555
Cd4 O41 2.574066 1_565
Cd5 O7 2.252881 1_555
Cd5 O5 2.301588 1_545
Cd5 O42 2.307449 1_555
Cd5 O18 2.356750 1_555
Cd5 O36 2.525762 1_555
Cd5 O43 2.574066 1_455
Cd6 O47 2.252881 1_555
Cd6 O14 2.301588 1_455
Cd6 O8 2.307449 1_555
Cd6 O20 2.356750 1_555
Cd6 O15 2.525762 1_555
Cd6 O3 2.574066 1_545
Cd7 O11 2.252881 1_555
Cd7 O8 2.301588 1_565
Cd7 O14 2.307449 1_555
Cd7 O16 2.356750 1_555
Cd7 O13 2.525762 1_555
Cd7 O2 2.574066 1_655
Cd8 O12 2.293205 1_545
Cd8 O38 2.293205 1_455
Cd8 O9 2.361910 1_545
Cd8 O32 2.361910 1_455
Cd8 O33 2.495670 1_545
Cd8 O40 2.495670 1_455
Cd9 O29 2.293205 1_455
Cd9 O35 2.293205 1_544
Cd9 O1 2.361910 1_545
Cd9 O28 2.361910 1_454
Cd9 O23 2.495670 1_455
Cd9 O27 2.495670 1_544
O0 P6 1.569878 1_556
O0 V2 2.023644 1_555
O1 P8 1.539991 1_455
O2 P10 1.539363 1_555
O2 V2 2.049640 1_555
O3 P9 1.539363 1_555
O3 V5 2.049640 1_555
O4 P3 1.562172 1_545
O4 V3 2.011294 1_555
O5 P1 1.573373 1_555
O6 P1 1.544096 1_555
O6 V4 2.083848 1_655
O7 P8 1.547142 1_545
O8 P0 1.573373 1_555
O9 P5 1.539991 1_565
O10 V3 1.640651 1_465
O11 P10 1.547142 1_565
O12 P4 1.555513 1_555
O13 P3 1.544096 1_555
O13 V2 2.083848 1_565
O14 P3 1.573373 1_555
O15 P0 1.544096 1_555
O15 V5 2.083848 1_455
O16 P10 1.591098 1_655
O16 V3 1.989175 1_555
O17 P0 1.562172 1_655
O17 V3 2.011294 1_555
O18 P8 1.591098 1_455
O18 V1 1.989175 1_555
O19 P7 1.529787 1_555
O19 V2 1.934741 1_655
O20 P9 1.591098 1_545
O20 V3 1.989175 1_555
O21 P1 1.562172 1_455
O21 V1 2.011294 1_555
O22 P3 1.552760 1_455
O22 V2 2.180088 1_555
O23 P6 1.567506 1_555
O23 V0 2.097802 1_545
O24 P5 1.547142 1_655
O25 P4 1.569878 1_555
O25 V5 2.023644 1_555
O26 P6 1.529787 1_555
O26 V0 1.934741 1_455
O27 P7 1.567506 1_555
O27 V2 2.097802 1_565
O28 P10 1.539991 1_655
O29 P7 1.555513 1_554
O30 V1 1.640651 1_645
O31 P0 1.552760 1_565
O31 V5 2.180088 1_555
O32 P9 1.539991 1_545
O33 P11 1.567506 1_555
O33 V5 2.097802 1_455
O34 P4 1.529787 1_555
O34 V4 1.934741 1_565
O35 P6 1.555513 1_556
O36 P2 1.544096 1_555
O36 V0 2.083848 1_545
O37 P5 1.591098 1_565
O37 V1 1.989175 1_555
O38 P11 1.555513 1_555
O39 P2 1.552760 1_655
O39 V0 2.180088 1_555
O40 P4 1.567506 1_555
O40 V4 2.097802 1_655
O41 P5 1.539363 1_555
O41 V4 2.049640 1_555
O42 P2 1.573373 1_555
O43 P8 1.539363 1_555
O43 V0 2.049640 1_555
O44 P1 1.552760 1_545
O44 V4 2.180088 1_555
O45 P11 1.569878 1_555
O45 V4 2.023644 1_555
O46 P2 1.562172 1_565
O46 V1 2.011294 1_555
O47 P9 1.547142 1_455
O48 P11 1.529787 1_555
O48 V5 1.934741 1_545
O49 P7 1.569878 1_554
O49 V0 2.023644 1_555
