# generated using pymatgen
data_TlIn5S6
_symmetry_space_group_name_H-M   'P 1'
_cell_length_a   3.94688030
_cell_length_b   8.85104747
_cell_length_c   17.74220248
_cell_angle_alpha   85.01054483
_cell_angle_beta   90.00000000
_cell_angle_gamma   90.00000000
_symmetry_Int_Tables_number   1
_chemical_formula_structural   TlIn5S6
_chemical_formula_sum   'Tl2 In10 S12'
_cell_volume   617.45792334
_cell_formula_units_Z   2
loop_
 _symmetry_equiv_pos_site_id
 _symmetry_equiv_pos_as_xyz
  1  'x, y, z'
loop_
 _atom_site_type_symbol
 _atom_site_label
 _atom_site_symmetry_multiplicity
 _atom_site_fract_x
 _atom_site_fract_y
 _atom_site_fract_z
 _atom_site_occupancy
  Tl  Tl0  1  0.75000000  0.37542394  0.21532283  1
  Tl  Tl1  1  0.25000000  0.62457606  0.78467717  1
  In  In0  1  0.75000000  0.65699715  0.54458775  1
  In  In1  1  0.25000000  0.34300285  0.45541225  1
  In  In2  1  0.75000000  0.76699721  0.31476320  1
  In  In3  1  0.25000000  0.23300279  0.68523680  1
  In  In4  1  0.75000000  0.03454692  0.38314337  1
  In  In5  1  0.25000000  0.96545308  0.61685663  1
  In  In6  1  0.75000000  0.11315677  0.88664497  1
  In  In7  1  0.25000000  0.88684323  0.11335503  1
  In  In8  1  0.75000000  0.30468423  0.00438076  1
  In  In9  1  0.25000000  0.69531577  0.99561924  1
  S  S0  1  0.75000000  0.79703228  0.66756578  1
  S  S1  1  0.25000000  0.20296772  0.33243422  1
  S  S2  1  0.75000000  0.16324693  0.50490285  1
  S  S3  1  0.25000000  0.83675307  0.49509715  1
  S  S4  1  0.75000000  0.30367434  0.76519428  1
  S  S5  1  0.25000000  0.69632566  0.23480572  1
  S  S6  1  0.75000000  0.59525317  0.92604724  1
  S  S7  1  0.25000000  0.40474683  0.07395276  1
  S  S8  1  0.75000000  0.53427323  0.41325057  1
  S  S9  1  0.25000000  0.46572677  0.58674943  1
  S  S10  1  0.75000000  0.05358546  0.13051990  1
  S  S11  1  0.25000000  0.94641454  0.86948010  1
loop_
_geom_bond_atom_site_label_1
_geom_bond_atom_site_label_2
_geom_bond_distance
_geom_bond_site_symmetry_2
In0 S0 2.601415 1_555
In0 S3 2.637013 1_555
In0 S3 2.637013 1_655
In0 S8 2.655197 1_555
In0 S9 2.664546 1_655
In0 S9 2.664546 1_555
In1 S1 2.601415 1_555
In1 S2 2.637013 1_455
In1 S2 2.637013 1_555
In1 S9 2.655197 1_555
In1 S8 2.664546 1_455
In1 S8 2.664546 1_555
In2 S5 2.540193 1_555
In2 S5 2.540193 1_655
In2 S8 2.582682 1_555
In3 S4 2.540193 1_555
In3 S4 2.540193 1_455
In3 S9 2.582682 1_555
In4 S2 2.528336 1_555
In4 S1 2.587047 1_555
In4 S1 2.587047 1_655
In5 S3 2.528336 1_555
In5 S0 2.587047 1_555
In5 S0 2.587047 1_455
In6 S11 2.498701 1_545
In6 S11 2.498701 1_645
In6 S4 2.618142 1_555
In6 In8 2.802356 1_556
In7 S10 2.498701 1_565
In7 S10 2.498701 1_465
In7 S5 2.618142 1_555
In7 In9 2.802356 1_554
In8 S7 2.528372 1_655
In8 S7 2.528372 1_555
In8 S6 2.814993 1_554
In8 S10 3.013776 1_555
In9 S6 2.528372 1_555
In9 S6 2.528372 1_455
In9 S7 2.814993 1_556
In9 S11 3.013776 1_555
S0 Tl1 3.160703 1_555
S0 Tl1 3.160703 1_655
S1 Tl0 3.160703 1_555
S1 Tl0 3.160703 1_455
S6 Tl1 3.184296 1_655
S6 Tl1 3.184296 1_555
S7 Tl0 3.184296 1_455
S7 Tl0 3.184296 1_555
