# generated using pymatgen
data_Cs3Ta2S11
_symmetry_space_group_name_H-M   'P 1'
_cell_length_a   8.24919814
_cell_length_b   12.20509152
_cell_length_c   19.90150633
_cell_angle_alpha   77.23790147
_cell_angle_beta   90.00000000
_cell_angle_gamma   90.00000000
_symmetry_Int_Tables_number   1
_chemical_formula_structural   Cs3Ta2S11
_chemical_formula_sum   'Cs12 Ta8 S44'
_cell_volume   1954.22710413
_cell_formula_units_Z   4
loop_
 _symmetry_equiv_pos_site_id
 _symmetry_equiv_pos_as_xyz
  1  'x, y, z'
loop_
 _atom_site_type_symbol
 _atom_site_label
 _atom_site_symmetry_multiplicity
 _atom_site_fract_x
 _atom_site_fract_y
 _atom_site_fract_z
 _atom_site_occupancy
  Cs  Cs0  1  0.84137410  0.96186433  0.64136951  1
  Cs  Cs1  1  0.82013356  0.50397850  0.66325093  1
  Cs  Cs2  1  0.67986644  0.50397850  0.16325093  1
  Cs  Cs3  1  0.68804274  0.73027152  0.38210734  1
  Cs  Cs4  1  0.17986644  0.49602150  0.33674907  1
  Cs  Cs5  1  0.65862590  0.96186433  0.14136951  1
  Cs  Cs6  1  0.32013356  0.49602150  0.83674907  1
  Cs  Cs7  1  0.18804274  0.26972848  0.11789266  1
  Cs  Cs8  1  0.81195726  0.73027152  0.88210734  1
  Cs  Cs9  1  0.15862590  0.03813567  0.35863049  1
  Cs  Cs10  1  0.31195726  0.26972848  0.61789266  1
  Cs  Cs11  1  0.34137410  0.03813567  0.85863049  1
  Ta  Ta0  1  0.14182716  0.78950369  0.15665529  1
  Ta  Ta1  1  0.77600512  0.30756650  0.49367235  1
  Ta  Ta2  1  0.27600512  0.69243350  0.00632765  1
  Ta  Ta3  1  0.22399488  0.69243350  0.50632765  1
  Ta  Ta4  1  0.35817284  0.78950369  0.65665529  1
  Ta  Ta5  1  0.64182716  0.21049631  0.34334471  1
  Ta  Ta6  1  0.72399488  0.30756650  0.99367235  1
  Ta  Ta7  1  0.85817284  0.21049631  0.84334471  1
  S  S0  1  0.47552279  0.58391289  0.54416708  1
  S  S1  1  0.94881114  0.74605917  0.53096184  1
  S  S2  1  0.72736163  0.39049350  0.84452892  1
  S  S3  1  0.12258529  0.49857513  0.51282028  1
  S  S4  1  0.42469564  0.98001771  0.59222970  1
  S  S5  1  0.74441718  0.24999867  0.60690769  1
  S  S6  1  0.02447721  0.58391289  0.04416708  1
  S  S7  1  0.11273757  0.70720133  0.71483799  1
  S  S8  1  0.98977816  0.24767953  0.95234421  1
  S  S9  1  0.37741471  0.49857513  0.01282028  1
  S  S10  1  0.48977816  0.75232047  0.54765579  1
  S  S11  1  0.93453824  0.73494843  0.22788689  1
  S  S12  1  0.06546176  0.26505157  0.77211311  1
  S  S13  1  0.01022184  0.75232047  0.04765579  1
  S  S14  1  0.38726243  0.70720133  0.21483799  1
  S  S15  1  0.62258529  0.50142487  0.98717972  1
  S  S16  1  0.92469564  0.01998229  0.90777030  1
  S  S17  1  0.55118886  0.74605917  0.03096184  1
  S  S18  1  0.43453824  0.26505157  0.27211311  1
  S  S19  1  0.71758924  0.02785654  0.32064165  1
  S  S20  1  0.51022184  0.24767953  0.45234421  1
  S  S21  1  0.21758924  0.97214346  0.17935835  1
  S  S22  1  0.88726243  0.29279867  0.28516201  1
  S  S23  1  0.61273757  0.29279867  0.78516201  1
  S  S24  1  0.22736163  0.60950650  0.65547108  1
  S  S25  1  0.12833785  0.86201840  0.54002928  1
  S  S26  1  0.56546176  0.73494843  0.72788689  1
  S  S27  1  0.07530436  0.98001771  0.09222970  1
  S  S28  1  0.44881114  0.25394083  0.96903816  1
  S  S29  1  0.87166215  0.13798160  0.45997072  1
  S  S30  1  0.87741471  0.50142487  0.48717972  1
  S  S31  1  0.97552279  0.41608711  0.95583292  1
  S  S32  1  0.28241076  0.97214346  0.67935835  1
  S  S33  1  0.27263837  0.60950650  0.15547108  1
  S  S34  1  0.52447721  0.41608711  0.45583292  1
  S  S35  1  0.75558282  0.24999867  0.10690769  1
  S  S36  1  0.05118886  0.25394083  0.46903816  1
  S  S37  1  0.25558282  0.75000133  0.39309231  1
  S  S38  1  0.62833785  0.13798160  0.95997072  1
  S  S39  1  0.37166215  0.86201840  0.04002928  1
  S  S40  1  0.77263837  0.39049350  0.34452892  1
  S  S41  1  0.57530436  0.01998229  0.40777030  1
  S  S42  1  0.24441718  0.75000133  0.89309231  1
  S  S43  1  0.78241076  0.02785654  0.82064165  1
loop_
_geom_bond_atom_site_label_1
_geom_bond_atom_site_label_2
_geom_bond_distance
_geom_bond_site_symmetry_2
Cs0 S25 3.498889 1_655
Cs0 S5 3.523026 1_565
Cs0 S4 3.567147 1_555
Cs0 S26 3.702511 1_555
Cs0 S32 3.723671 1_655
Cs0 S29 3.779861 1_565
Cs0 S7 3.847316 1_655
Cs0 S43 3.857980 1_565
Cs0 S1 3.886900 1_555
Cs1 S30 3.542752 1_555
Cs1 S23 3.562869 1_555
Cs1 S5 3.576619 1_555
Cs1 S24 3.588828 1_655
Cs1 S2 3.648559 1_555
Cs1 S1 3.653927 1_555
Cs1 S0 3.691645 1_555
Cs1 S7 3.762634 1_655
Cs1 S12 3.808141 1_655
Cs1 S3 3.908880 1_655
Cs1 S26 3.951852 1_555
Cs2 S15 3.542752 1_554
Cs2 S22 3.562869 1_555
Cs2 S35 3.576619 1_555
Cs2 S33 3.588828 1_555
Cs2 S40 3.648559 1_555
Cs2 S17 3.653927 1_555
Cs2 S6 3.691645 1_655
Cs2 S14 3.762634 1_555
Cs2 S18 3.808141 1_555
Cs2 S9 3.908880 1_555
Cs2 S11 3.951852 1_555
Cs3 S30 3.469006 1_555
Cs3 S19 3.575563 1_565
Cs3 S37 3.585488 1_555
Cs3 S11 3.671599 1_555
Cs3 S1 3.700361 1_555
Cs3 S10 3.740840 1_555
Cs3 S0 3.757807 1_555
Cs3 S41 3.798228 1_565
Cs3 S34 4.023947 1_555
Cs3 S14 4.210866 1_555
Cs4 S3 3.542752 1_555
Cs4 S14 3.562869 1_555
Cs4 S37 3.576619 1_555
Cs4 S40 3.588828 1_455
Cs4 S33 3.648559 1_555
Cs4 S36 3.653927 1_555
Cs4 S34 3.691645 1_555
Cs4 S22 3.762634 1_455
Cs4 S11 3.808141 1_455
Cs4 S30 3.908880 1_455
Cs4 S18 3.951852 1_555
Cs5 S39 3.498889 1_555
Cs5 S35 3.523026 1_565
Cs5 S27 3.567147 1_655
Cs5 S11 3.702511 1_555
Cs5 S21 3.723671 1_555
Cs5 S38 3.779861 1_564
Cs5 S14 3.847316 1_555
Cs5 S19 3.857980 1_565
Cs5 S17 3.886900 1_555
Cs6 S9 3.542752 1_556
Cs6 S7 3.562869 1_555
Cs6 S42 3.576619 1_555
Cs6 S2 3.588828 1_555
Cs6 S24 3.648559 1_555
Cs6 S28 3.653927 1_555
Cs6 S31 3.691645 1_455
Cs6 S23 3.762634 1_555
Cs6 S26 3.808141 1_555
Cs6 S15 3.908880 1_555
Cs6 S12 3.951852 1_555
Cs7 S9 3.469006 1_555
Cs7 S21 3.575563 1_545
Cs7 S35 3.585488 1_455
Cs7 S18 3.671599 1_555
Cs7 S28 3.700361 1_554
Cs7 S8 3.740840 1_454
Cs7 S31 3.757807 1_454
Cs7 S27 3.798228 1_545
Cs7 S6 4.023947 1_555
Cs7 S22 4.210866 1_455
Cs8 S15 3.469006 1_555
Cs8 S43 3.575563 1_565
Cs8 S42 3.585488 1_655
Cs8 S26 3.671599 1_555
Cs8 S17 3.700361 1_556
Cs8 S13 3.740840 1_656
Cs8 S6 3.757807 1_656
Cs8 S16 3.798228 1_565
Cs8 S31 4.023947 1_555
Cs8 S7 4.210866 1_655
Cs9 S29 3.498889 1_455
Cs9 S37 3.523026 1_545
Cs9 S41 3.567147 1_555
Cs9 S18 3.702511 1_555
Cs9 S19 3.723671 1_455
Cs9 S25 3.779861 1_545
Cs9 S22 3.847316 1_455
Cs9 S21 3.857980 1_545
Cs9 S36 3.886900 1_555
Cs10 S3 3.469006 1_555
Cs10 S32 3.575563 1_545
Cs10 S5 3.585488 1_555
Cs10 S12 3.671599 1_555
Cs10 S36 3.700361 1_555
Cs10 S20 3.740840 1_555
Cs10 S34 3.757807 1_555
Cs10 S4 3.798228 1_545
Cs10 S0 4.023947 1_555
Cs10 S23 4.210866 1_555
Cs11 S38 3.498889 1_555
Cs11 S42 3.523026 1_545
Cs11 S16 3.567147 1_455
Cs11 S12 3.702511 1_555
Cs11 S43 3.723671 1_555
Cs11 S39 3.779861 1_546
Cs11 S23 3.847316 1_555
Cs11 S32 3.857980 1_545
Cs11 S28 3.886900 1_555
S0 S10 2.075209 1_555
S0 Ta3 2.487160 1_555
S1 S25 2.083668 1_655
S1 Ta3 2.442049 1_655
S2 S23 2.081865 1_555
S2 Ta7 2.452377 1_555
S2 Ta6 2.916847 1_555
S3 Ta3 2.485895 1_555
S4 Ta4 2.456553 1_555
S5 Ta1 2.222729 1_555
S6 Ta2 2.487160 1_555
S7 Ta4 2.436211 1_555
S8 Ta6 2.506672 1_555
S8 Ta7 2.554442 1_555
S9 Ta2 2.485895 1_555
S10 Ta3 2.506672 1_555
S10 Ta4 2.554442 1_555
S11 Ta0 2.227095 1_655
S12 Ta7 2.227095 1_455
S13 S6 2.075209 1_555
S13 Ta2 2.506672 1_555
S13 Ta0 2.554442 1_555
S14 S33 2.081865 1_555
S14 Ta0 2.436211 1_555
S15 Ta6 2.485895 1_555
S16 S43 2.078459 1_555
S16 Ta7 2.456553 1_555
S17 S39 2.083668 1_555
S17 Ta2 2.442049 1_555
S18 Ta5 2.227095 1_555
S19 S41 2.078459 1_555
S19 Ta5 2.451278 1_555
S20 S34 2.075209 1_555
S20 Ta1 2.506672 1_555
S20 Ta5 2.554442 1_555
S21 S27 2.078459 1_555
S21 Ta0 2.451278 1_555
S22 S40 2.081865 1_555
S22 Ta5 2.436211 1_555
S23 Ta7 2.436211 1_555
S24 S7 2.081865 1_555
S24 Ta4 2.452377 1_555
S24 Ta3 2.916847 1_555
S25 Ta3 2.443344 1_555
S25 Ta4 2.976168 1_555
S26 Ta4 2.227095 1_555
S27 Ta0 2.456553 1_555
S28 S38 2.083668 1_555
S28 Ta6 2.442049 1_555
S29 S36 2.083668 1_655
S29 Ta1 2.443344 1_555
S29 Ta5 2.976168 1_555
S30 Ta1 2.485895 1_555
S31 S8 2.075209 1_555
S31 Ta6 2.487160 1_555
S32 S4 2.078459 1_555
S32 Ta4 2.451278 1_555
S33 Ta0 2.452377 1_555
S33 Ta2 2.916847 1_555
S34 Ta1 2.487160 1_555
S35 Ta6 2.222729 1_554
S36 Ta1 2.442049 1_455
S37 Ta3 2.222729 1_555
S38 Ta6 2.443344 1_555
S38 Ta7 2.976168 1_555
S39 Ta2 2.443344 1_555
S39 Ta0 2.976168 1_555
S40 Ta5 2.452377 1_555
S40 Ta1 2.916847 1_555
S41 Ta5 2.456553 1_555
S42 Ta2 2.222729 1_556
S43 Ta7 2.451278 1_555
