# generated using pymatgen
data_La2Si2O7
_symmetry_space_group_name_H-M   'P 1'
_cell_length_a   8.77506910
_cell_length_b   5.45327678
_cell_length_c   14.29032186
_cell_angle_alpha   67.23995111
_cell_angle_beta   90.00000000
_cell_angle_gamma   90.00000000
_symmetry_Int_Tables_number   1
_chemical_formula_structural   La2Si2O7
_chemical_formula_sum   'La8 Si8 O28'
_cell_volume   630.58512746
_cell_formula_units_Z   4
loop_
 _symmetry_equiv_pos_site_id
 _symmetry_equiv_pos_as_xyz
  1  'x, y, z'
loop_
 _atom_site_type_symbol
 _atom_site_label
 _atom_site_symmetry_multiplicity
 _atom_site_fract_x
 _atom_site_fract_y
 _atom_site_fract_z
 _atom_site_occupancy
  La  La0  1  0.60841641  0.16806149  0.58901042  1
  La  La1  1  0.10841641  0.83193851  0.91098958  1
  La  La2  1  0.39158359  0.83193851  0.41098958  1
  La  La3  1  0.89158359  0.16806149  0.08901042  1
  La  La4  1  0.80896681  0.48428233  0.76783589  1
  La  La5  1  0.30896681  0.51571767  0.73216411  1
  La  La6  1  0.19103319  0.51571767  0.23216411  1
  La  La7  1  0.69103319  0.48428233  0.26783589  1
  Si  Si0  1  0.49326319  0.05067426  0.17975346  1
  Si  Si1  1  0.99326319  0.94932574  0.32024654  1
  Si  Si2  1  0.50673681  0.94932574  0.82024654  1
  Si  Si3  1  0.00673681  0.05067426  0.67975346  1
  Si  Si4  1  0.24535419  0.24213231  0.02717792  1
  Si  Si5  1  0.74535419  0.75786769  0.47282208  1
  Si  Si6  1  0.75464581  0.75786769  0.97282208  1
  Si  Si7  1  0.25464581  0.24213231  0.52717792  1
  O  O0  1  0.67072369  0.98177900  0.17326955  1
  O  O1  1  0.17072369  0.01822100  0.32673045  1
  O  O2  1  0.32927631  0.01822100  0.82673045  1
  O  O3  1  0.82927631  0.98177900  0.67326955  1
  O  O4  1  0.41518568  0.76270190  0.24159255  1
  O  O5  1  0.91518568  0.23729810  0.25840745  1
  O  O6  1  0.58481432  0.23729810  0.75840745  1
  O  O7  1  0.08481432  0.76270190  0.74159255  1
  O  O8  1  0.46935556  0.23092428  0.24719654  1
  O  O9  1  0.96935556  0.76907572  0.25280346  1
  O  O10  1  0.53064444  0.76907572  0.75280346  1
  O  O11  1  0.03064444  0.23092428  0.74719654  1
  O  O12  1  0.23757504  0.42060941  0.90716831  1
  O  O13  1  0.73757504  0.57939059  0.59283169  1
  O  O14  1  0.76242496  0.57939059  0.09283169  1
  O  O15  1  0.26242496  0.42060941  0.40716831  1
  O  O16  1  0.07996585  0.19936415  0.56730348  1
  O  O17  1  0.57996585  0.80063585  0.93269652  1
  O  O18  1  0.92003415  0.80063585  0.43269652  1
  O  O19  1  0.42003415  0.19936415  0.06730348  1
  O  O20  1  0.34528074  0.96023058  0.55751491  1
  O  O21  1  0.84528074  0.03976942  0.94248509  1
  O  O22  1  0.65471926  0.03976942  0.44248509  1
  O  O23  1  0.15471926  0.96023058  0.05751491  1
  O  O24  1  0.35467658  0.41319970  0.57914653  1
  O  O25  1  0.85467658  0.58680030  0.92085347  1
  O  O26  1  0.64532342  0.58680030  0.42085347  1
  O  O27  1  0.14532342  0.41319970  0.07914653  1
loop_
_geom_bond_atom_site_label_1
_geom_bond_atom_site_label_2
_geom_bond_distance
_geom_bond_site_symmetry_2
La0 O3 2.300313 1_545
La0 O22 2.484433 1_555
La0 O13 2.532540 1_555
La0 O24 2.572703 1_555
La0 O10 2.595754 1_545
La0 O6 2.598580 1_555
La0 O26 2.616865 1_555
La0 O20 2.685778 1_545
La1 O2 2.300313 1_565
La1 O23 2.484433 1_556
La1 O12 2.532540 1_555
La1 O25 2.572703 1_455
La1 O11 2.595754 1_565
La1 O7 2.598580 1_555
La1 O27 2.616865 1_556
La1 O21 2.685778 1_465
La2 O1 2.300313 1_565
La2 O20 2.484433 1_555
La2 O15 2.532540 1_555
La2 O26 2.572703 1_555
La2 O8 2.595754 1_565
La2 O4 2.598580 1_555
La2 O24 2.616865 1_555
La2 O22 2.685778 1_565
La3 O0 2.300313 1_545
La3 O21 2.484433 1_554
La3 O14 2.532540 1_555
La3 O27 2.572703 1_655
La3 O9 2.595754 1_545
La3 O5 2.598580 1_555
La3 O25 2.616865 1_554
La3 O23 2.685778 1_645
La4 O6 2.416928 1_555
La4 O13 2.431499 1_555
La4 O11 2.468835 1_655
La4 O25 2.490150 1_555
La4 O3 2.526168 1_555
La4 O21 2.743255 1_555
La4 O7 2.804375 1_655
La4 O10 2.857414 1_555
La5 O7 2.416928 1_555
La5 O12 2.431499 1_555
La5 O10 2.468835 1_555
La5 O24 2.490150 1_555
La5 O2 2.526168 1_555
La5 O20 2.743255 1_555
La5 O6 2.804375 1_555
La5 O11 2.857414 1_555
La6 O4 2.416928 1_555
La6 O15 2.431499 1_555
La6 O9 2.468835 1_455
La6 O27 2.490150 1_555
La6 O1 2.526168 1_555
La6 O23 2.743255 1_555
La6 O5 2.804375 1_455
La6 O8 2.857414 1_555
La7 O5 2.416928 1_555
La7 O14 2.431499 1_555
La7 O8 2.468835 1_555
La7 O26 2.490150 1_555
La7 O0 2.526168 1_555
La7 O22 2.743255 1_555
La7 O4 2.804375 1_555
La7 O9 2.857414 1_555
O0 Si0 1.612958 1_565
O1 Si1 1.612958 1_445
O2 Si2 1.612958 1_545
O3 Si3 1.612958 1_665
O4 Si0 1.625639 1_565
O5 Si1 1.625639 1_545
O6 Si2 1.625639 1_545
O7 Si3 1.625639 1_565
O8 Si0 1.634655 1_555
O9 Si1 1.634655 1_555
O10 Si2 1.634655 1_555
O11 Si3 1.634655 1_555
O12 Si4 1.612942 1_556
O13 Si5 1.612942 1_555
O14 Si6 1.612942 1_554
O15 Si7 1.612942 1_555
O16 Si7 1.621505 1_555
O16 Si3 1.626189 1_555
O17 Si6 1.621505 1_555
O17 Si2 1.626189 1_555
O18 Si5 1.621505 1_555
O18 Si1 1.626189 1_555
O19 Si4 1.621505 1_555
O19 Si0 1.626189 1_555
O20 Si7 1.633426 1_565
O21 Si6 1.633426 1_545
O22 Si5 1.633426 1_545
O23 Si4 1.633426 1_565
O24 Si7 1.651766 1_555
O25 Si6 1.651766 1_555
O26 Si5 1.651766 1_555
O27 Si4 1.651766 1_555
