# generated using pymatgen
data_LiGaTe2
_symmetry_space_group_name_H-M   'P 1'
_cell_length_a   6.35740665
_cell_length_b   6.35740702
_cell_length_c   7.44098708
_cell_angle_alpha   115.28926398
_cell_angle_beta   115.28926326
_cell_angle_gamma   90.00000411
_symmetry_Int_Tables_number   1
_chemical_formula_structural   LiGaTe2
_chemical_formula_sum   'Li2 Ga2 Te4'
_cell_volume   239.65377548
_cell_formula_units_Z   2
loop_
 _symmetry_equiv_pos_site_id
 _symmetry_equiv_pos_as_xyz
  1  'x, y, z'
loop_
 _atom_site_type_symbol
 _atom_site_label
 _atom_site_symmetry_multiplicity
 _atom_site_fract_x
 _atom_site_fract_y
 _atom_site_fract_z
 _atom_site_occupancy
  Li  Li0  1  0.75000000  0.25000000  0.50000000  1
  Li  Li1  1  0.50000000  0.50000000  -0.00000000  1
  Ga  Ga0  1  0.25000000  0.75000000  0.50000000  1
  Ga  Ga1  1  -0.00000000  0.00000000  -0.00000000  1
  Te  Te0  1  0.89110152  0.87500000  0.25000000  1
  Te  Te1  1  0.62500000  0.10889848  0.75000000  1
  Te  Te2  1  0.12500000  0.64110152  0.75000000  1
  Te  Te3  1  0.35889848  0.37500000  0.25000000  1
loop_
_geom_bond_atom_site_label_1
_geom_bond_atom_site_label_2
_geom_bond_distance
_geom_bond_site_symmetry_2
Li0 Te2 2.754167 1_655
Li0 Te3 2.754168 1_555
Li0 Te1 2.754168 1_555
Li0 Te0 2.754168 1_545
Li1 Te0 2.754167 1_555
Li1 Te2 2.754168 1_554
Li1 Te3 2.754168 1_555
Li1 Te1 2.754168 1_554
Ga0 Te1 2.633376 1_565
Ga0 Te0 2.633376 1_455
Ga0 Te3 2.633376 1_555
Ga0 Te2 2.633376 1_555
Ga1 Te3 2.633376 1_555
Ga1 Te1 2.633376 1_454
Ga1 Te2 2.633376 1_544
Ga1 Te0 2.633376 1_445
