# generated using pymatgen
data_TbCl2F
_symmetry_space_group_name_H-M   'P 1'
_cell_length_a   5.30034424
_cell_length_b   5.30034467
_cell_length_c   6.81678766
_cell_angle_alpha   73.72341437
_cell_angle_beta   73.72341998
_cell_angle_gamma   66.39065337
_symmetry_Int_Tables_number   1
_chemical_formula_structural   TbCl2F
_chemical_formula_sum   'Tb2 Cl4 F2'
_cell_volume   165.34343315
_cell_formula_units_Z   2
loop_
 _symmetry_equiv_pos_site_id
 _symmetry_equiv_pos_as_xyz
  1  'x, y, z'
loop_
 _atom_site_type_symbol
 _atom_site_label
 _atom_site_symmetry_multiplicity
 _atom_site_fract_x
 _atom_site_fract_y
 _atom_site_fract_z
 _atom_site_occupancy
  Tb  Tb0  1  0.23168624  0.76831376  0.75000000  1
  Tb  Tb1  1  0.76831376  0.23168624  0.25000000  1
  Cl  Cl0  1  0.33786144  0.28294549  0.60684907  1
  Cl  Cl1  1  0.66213856  0.71705451  0.39315093  1
  Cl  Cl2  1  0.28294549  0.33786144  0.10684807  1
  Cl  Cl3  1  0.71705451  0.66213856  0.89315093  1
  F  F0  1  0.00000000  0.00000000  -0.00000000  1
  F  F1  1  0.00000000  0.00000000  0.50000000  1
loop_
_geom_bond_atom_site_label_1
_geom_bond_atom_site_label_2
_geom_bond_distance
_geom_bond_site_symmetry_2
Cl0 Tb0 2.797685 1_555
Cl0 Tb1 2.821265 1_555
Cl0 Tb0 2.852914 1_545
Cl1 Tb1 2.797685 1_555
Cl1 Tb0 2.821265 1_555
Cl1 Tb1 2.852914 1_565
Cl2 Tb1 2.797688 1_555
Cl2 Tb0 2.821261 1_554
Cl2 Tb1 2.852915 1_455
Cl3 Tb0 2.797684 1_555
Cl3 Tb1 2.821265 1_556
Cl3 Tb0 2.852914 1_655
F0 Tb1 2.170810 1_455
F0 Tb0 2.170810 1_544
F1 Tb1 2.170809 1_455
F1 Tb0 2.170809 1_545
