# generated using pymatgen
data_Nd3S3N
_symmetry_space_group_name_H-M   'P 1'
_cell_length_a   4.02356749
_cell_length_b   12.27877997
_cell_length_c   13.16208217
_cell_angle_alpha   90.00000000
_cell_angle_beta   90.00000000
_cell_angle_gamma   90.00000000
_symmetry_Int_Tables_number   1
_chemical_formula_structural   Nd3S3N
_chemical_formula_sum   'Nd12 S12 N4'
_cell_volume   650.26608731
_cell_formula_units_Z   4
loop_
 _symmetry_equiv_pos_site_id
 _symmetry_equiv_pos_as_xyz
  1  'x, y, z'
loop_
 _atom_site_type_symbol
 _atom_site_label
 _atom_site_symmetry_multiplicity
 _atom_site_fract_x
 _atom_site_fract_y
 _atom_site_fract_z
 _atom_site_occupancy
  Nd  Nd0  1  0.75000000  0.78052640  0.86546973  1
  Nd  Nd1  1  0.75000000  0.95719961  0.14817884  1
  Nd  Nd2  1  0.25000000  0.04280039  0.85182116  1
  Nd  Nd3  1  0.25000000  0.21947360  0.13453027  1
  Nd  Nd4  1  0.25000000  0.57926804  0.12852330  1
  Nd  Nd5  1  0.25000000  0.54280039  0.64817884  1
  Nd  Nd6  1  0.75000000  0.28052640  0.63453027  1
  Nd  Nd7  1  0.25000000  0.71947360  0.36546973  1
  Nd  Nd8  1  0.75000000  0.42073196  0.87147670  1
  Nd  Nd9  1  0.25000000  0.07926804  0.37147670  1
  Nd  Nd10  1  0.75000000  0.45719961  0.35182116  1
  Nd  Nd11  1  0.75000000  0.92073196  0.62852330  1
  S  S0  1  0.75000000  0.72836744  0.19611115  1
  S  S1  1  0.25000000  0.77163256  0.69611115  1
  S  S2  1  0.75000000  0.22836744  0.30388885  1
  S  S3  1  0.75000000  0.41518320  0.10602170  1
  S  S4  1  0.75000000  0.63698421  0.49493335  1
  S  S5  1  0.75000000  0.13698421  0.00506665  1
  S  S6  1  0.25000000  0.36301579  0.50506665  1
  S  S7  1  0.25000000  0.08481680  0.60602170  1
  S  S8  1  0.75000000  0.91518320  0.39397830  1
  S  S9  1  0.25000000  0.86301579  0.99493335  1
  S  S10  1  0.25000000  0.27163256  0.80388885  1
  S  S11  1  0.25000000  0.58481680  0.89397830  1
  N  N0  1  0.25000000  0.54375063  0.29790963  1
  N  N1  1  0.25000000  0.04375063  0.20209037  1
  N  N2  1  0.75000000  0.95624937  0.79790963  1
  N  N3  1  0.75000000  0.45624937  0.70209037  1
loop_
_geom_bond_atom_site_label_1
_geom_bond_atom_site_label_2
_geom_bond_distance
_geom_bond_site_symmetry_2
Nd0 S9 2.824328 1_555
Nd0 S9 2.824328 1_655
Nd0 S1 3.004686 1_555
Nd0 S1 3.004686 1_655
Nd0 S11 3.156397 1_555
Nd0 S11 3.156397 1_655
Nd1 S0 2.879737 1_555
Nd1 S5 2.901959 1_565
Nd1 S9 3.074587 1_554
Nd1 S9 3.074587 1_654
Nd1 S8 3.276110 1_555
Nd2 S10 2.879737 1_555
Nd2 S9 2.901959 1_545
Nd2 S5 3.074587 1_556
Nd2 S5 3.074587 1_456
Nd2 S7 3.276110 1_555
Nd3 S5 2.824328 1_455
Nd3 S5 2.824328 1_555
Nd3 S2 3.004686 1_455
Nd3 S2 3.004686 1_555
Nd3 S3 3.156397 1_455
Nd3 S3 3.156397 1_555
Nd4 S0 2.861876 1_455
Nd4 S0 2.861876 1_555
Nd4 S3 2.862561 1_455
Nd4 S3 2.862561 1_555
Nd4 S11 3.087852 1_554
Nd5 S1 2.879737 1_555
Nd5 S6 2.901959 1_555
Nd5 S4 3.074587 1_455
Nd5 S4 3.074587 1_555
Nd5 S11 3.276110 1_555
Nd6 S6 2.824328 1_655
Nd6 S6 2.824328 1_555
Nd6 S10 3.004686 1_555
Nd6 S10 3.004686 1_655
Nd6 S7 3.156397 1_555
Nd6 S7 3.156397 1_655
Nd7 S4 2.824328 1_455
Nd7 S4 2.824328 1_555
Nd7 S0 3.004686 1_555
Nd7 S0 3.004686 1_455
Nd7 S8 3.156397 1_455
Nd7 S8 3.156397 1_555
Nd8 S10 2.861876 1_555
Nd8 S10 2.861876 1_655
Nd8 S11 2.862561 1_655
Nd8 S11 2.862561 1_555
Nd8 S3 3.087852 1_556
Nd9 S2 2.861876 1_555
Nd9 S2 2.861876 1_455
Nd9 S8 2.862561 1_545
Nd9 S8 2.862561 1_445
Nd9 S7 3.087852 1_555
Nd10 S2 2.879737 1_555
Nd10 S4 2.901959 1_555
Nd10 S6 3.074587 1_655
Nd10 S6 3.074587 1_555
Nd10 S3 3.276110 1_555
Nd11 S1 2.861876 1_555
Nd11 S1 2.861876 1_655
Nd11 S7 2.862561 1_665
Nd11 S7 2.862561 1_565
Nd11 S8 3.087852 1_555
N0 Nd4 2.271730 1_555
N0 Nd7 2.333719 1_555
N0 Nd10 2.383319 1_555
N0 Nd10 2.383319 1_455
N1 Nd9 2.271730 1_555
N1 Nd3 2.333719 1_555
N1 Nd1 2.383319 1_545
N1 Nd1 2.383319 1_445
N2 Nd11 2.271730 1_555
N2 Nd0 2.333719 1_555
N2 Nd2 2.383319 1_665
N2 Nd2 2.383319 1_565
N3 Nd8 2.271730 1_555
N3 Nd6 2.333719 1_555
N3 Nd5 2.383319 1_655
N3 Nd5 2.383319 1_555
