# generated using pymatgen
data_SmI2
_symmetry_space_group_name_H-M   'P 1'
_cell_length_a   7.40034600
_cell_length_b   8.24739900
_cell_length_c   14.13088400
_cell_angle_alpha   90.00000000
_cell_angle_beta   90.00000000
_cell_angle_gamma   90.00000000
_symmetry_Int_Tables_number   1
_chemical_formula_structural   SmI2
_chemical_formula_sum   'Sm8 I16'
_cell_volume   862.45880931
_cell_formula_units_Z   8
loop_
 _symmetry_equiv_pos_site_id
 _symmetry_equiv_pos_as_xyz
  1  'x, y, z'
loop_
 _atom_site_type_symbol
 _atom_site_label
 _atom_site_symmetry_multiplicity
 _atom_site_fract_x
 _atom_site_fract_y
 _atom_site_fract_z
 _atom_site_occupancy
  Sm  Sm0  1  0.67497200  0.54975400  0.09437900  1
  Sm  Sm1  1  0.17497200  0.95024600  0.09437900  1
  Sm  Sm2  1  0.67497200  0.04975400  0.40562100  1
  Sm  Sm3  1  0.82502800  0.54975400  0.59437900  1
  Sm  Sm4  1  0.82502800  0.04975400  0.90562100  1
  Sm  Sm5  1  0.32502800  0.45024600  0.90562100  1
  Sm  Sm6  1  0.32502800  0.95024600  0.59437900  1
  Sm  Sm7  1  0.17497200  0.45024600  0.40562100  1
  I  I0  1  0.19518600  0.61586000  0.70482200  1
  I  I1  1  0.69518600  0.88414000  0.70482200  1
  I  I2  1  0.80481400  0.38414000  0.29517800  1
  I  I3  1  0.80481400  0.88414000  0.20482200  1
  I  I4  1  0.30481400  0.61586000  0.20482200  1
  I  I5  1  0.98222500  0.70672000  0.95383600  1
  I  I6  1  0.98222500  0.20672000  0.54616400  1
  I  I7  1  0.01777500  0.79328000  0.45383600  1
  I  I8  1  0.19518600  0.11586000  0.79517800  1
  I  I9  1  0.51777500  0.20672000  0.04616400  1
  I  I10  1  0.69518600  0.38414000  0.79517800  1
  I  I11  1  0.51777500  0.70672000  0.45383600  1
  I  I12  1  0.30481400  0.11586000  0.29517800  1
  I  I13  1  0.48222500  0.79328000  0.95383600  1
  I  I14  1  0.01777500  0.29328000  0.04616400  1
  I  I15  1  0.48222500  0.29328000  0.54616400  1
loop_
_geom_bond_atom_site_label_1
_geom_bond_atom_site_label_2
_geom_bond_distance
_geom_bond_site_symmetry_2
I0 Sm3 3.199476 1_455
I0 Sm5 3.292437 1_555
I0 Sm6 3.311265 1_555
I1 Sm6 3.199476 1_555
I1 Sm4 3.292437 1_565
I1 Sm3 3.311265 1_555
I2 Sm7 3.199476 1_655
I2 Sm0 3.292437 1_555
I2 Sm2 3.311265 1_555
I3 Sm1 3.199476 1_655
I3 Sm2 3.292437 1_565
I3 Sm0 3.311265 1_555
I4 Sm0 3.199476 1_555
I4 Sm7 3.292437 1_555
I4 Sm1 3.311265 1_555
I5 Sm4 3.133930 1_565
I5 Sm1 3.164282 1_656
I5 Sm0 3.284835 1_556
I5 Sm5 3.372553 1_655
I6 Sm3 3.133930 1_555
I6 Sm7 3.164282 1_655
I6 Sm2 3.284835 1_555
I6 Sm6 3.372553 1_645
I7 Sm7 3.133930 1_555
I7 Sm3 3.164282 1_455
I7 Sm6 3.284835 1_555
I7 Sm2 3.372553 1_465
I8 Sm4 3.199476 1_455
I8 Sm6 3.292437 1_545
I8 Sm5 3.311265 1_555
I9 Sm0 3.133930 1_555
I9 Sm5 3.164282 1_554
I9 Sm4 3.284835 1_554
I9 Sm1 3.372553 1_545
I10 Sm5 3.199476 1_555
I10 Sm3 3.292437 1_555
I10 Sm4 3.311265 1_555
I11 Sm2 3.133930 1_565
I11 Sm6 3.164282 1_555
I11 Sm3 3.284835 1_555
I11 Sm7 3.372553 1_555
I12 Sm2 3.199476 1_555
I12 Sm1 3.292437 1_545
I12 Sm7 3.311265 1_555
I13 Sm5 3.133930 1_555
I13 Sm0 3.164282 1_556
I13 Sm1 3.284835 1_556
I13 Sm4 3.372553 1_565
I14 Sm1 3.133930 1_545
I14 Sm4 3.164282 1_454
I14 Sm5 3.284835 1_554
I14 Sm0 3.372553 1_455
I15 Sm6 3.133930 1_545
I15 Sm2 3.164282 1_555
I15 Sm7 3.284835 1_555
I15 Sm3 3.372553 1_555
