# generated using pymatgen
data_S
_symmetry_space_group_name_H-M   'P 1'
_cell_length_a   8.14113499
_cell_length_b   14.21340624
_cell_length_c   17.44033624
_cell_angle_alpha   90.00000000
_cell_angle_beta   103.18600294
_cell_angle_gamma   90.00000000
_symmetry_Int_Tables_number   1
_chemical_formula_structural   S
_chemical_formula_sum   S72
_cell_volume   1964.87082354
_cell_formula_units_Z   72
loop_
 _symmetry_equiv_pos_site_id
 _symmetry_equiv_pos_as_xyz
  1  'x, y, z'
loop_
 _atom_site_type_symbol
 _atom_site_label
 _atom_site_symmetry_multiplicity
 _atom_site_fract_x
 _atom_site_fract_y
 _atom_site_fract_z
 _atom_site_occupancy
  S  S0  1  0.38557602  0.01792711  0.35900931  1
  S  S1  1  0.76736862  0.47868712  0.62756157  1
  S  S2  1  0.22520431  0.75681747  0.34899311  1
  S  S3  1  0.61442398  0.98207289  0.64099069  1
  S  S4  1  0.21091680  0.31963020  0.64245904  1
  S  S5  1  0.77479569  0.25681747  0.15100689  1
  S  S6  1  0.78908320  0.81963020  0.85754096  1
  S  S7  1  0.60601375  0.87913659  0.55926810  1
  S  S8  1  0.00582134  0.47183926  0.12773046  1
  S  S9  1  0.77479569  0.24318253  0.65100689  1
  S  S10  1  0.14010312  0.26666999  0.32754606  1
  S  S11  1  0.83258948  0.41892914  0.87948712  1
  S  S12  1  0.01443212  0.79773444  0.09890051  1
  S  S13  1  0.16741052  0.91892914  0.62051288  1
  S  S14  1  0.29050434  0.64953521  0.42724691  1
  S  S15  1  0.70949566  0.14953521  0.07275309  1
  S  S16  1  0.21091680  0.18036980  0.14245904  1
  S  S17  1  0.04943218  0.67676184  0.03829998  1
  S  S18  1  0.86151122  0.50620376  0.20567101  1
  S  S19  1  0.85989688  0.76666999  0.17245394  1
  S  S20  1  0.13848878  0.49379624  0.79432899  1
  S  S21  1  0.40460036  0.73386899  0.78167870  1
  S  S22  1  0.39398625  0.12086341  0.44073190  1
  S  S23  1  0.63166439  0.70634812  0.85724549  1
  S  S24  1  0.04943218  0.82323816  0.53829998  1
  S  S25  1  0.74804847  0.58330229  0.43829871  1
  S  S26  1  0.59539964  0.23386899  0.71832130  1
  S  S27  1  0.29050434  0.85046479  0.92724691  1
  S  S28  1  0.39398625  0.37913659  0.94073190  1
  S  S29  1  0.86151122  0.99379624  0.70567101  1
  S  S30  1  0.95056782  0.32323816  0.96170002  1
  S  S31  1  0.83258948  0.08107086  0.37948712  1
  S  S32  1  0.99417866  0.52816074  0.87226954  1
  S  S33  1  0.61442398  0.51792711  0.14099069  1
  S  S34  1  0.41056266  0.50449873  0.30663073  1
  S  S35  1  0.63166439  0.79365188  0.35724549  1
  S  S36  1  0.38569460  0.24784403  0.88952004  1
  S  S37  1  0.25195153  0.41669771  0.56170129  1
  S  S38  1  0.14010312  0.23333001  0.82754606  1
  S  S39  1  0.99417866  0.97183926  0.37226954  1
  S  S40  1  0.38569460  0.25215597  0.38952004  1
  S  S41  1  0.41056266  0.99550127  0.80663073  1
  S  S42  1  0.36833561  0.20634812  0.64275451  1
  S  S43  1  0.63826340  0.46694149  0.37559289  1
  S  S44  1  0.00582134  0.02816074  0.62773046  1
  S  S45  1  0.58943734  0.49550127  0.69336927  1
  S  S46  1  0.36173660  0.96694149  0.12440711  1
  S  S47  1  0.60601375  0.62086341  0.05926810  1
  S  S48  1  0.74804847  0.91669771  0.93829871  1
  S  S49  1  0.36833561  0.29365188  0.14275451  1
  S  S50  1  0.58943734  0.00449873  0.19336927  1
  S  S51  1  0.59539964  0.26613101  0.21832130  1
  S  S52  1  0.01443212  0.70226556  0.59890051  1
  S  S53  1  0.25195153  0.08330229  0.06170129  1
  S  S54  1  0.38557602  0.48207289  0.85900931  1
  S  S55  1  0.85989688  0.73333001  0.67245394  1
  S  S56  1  0.23263138  0.97868712  0.87243843  1
  S  S57  1  0.36173660  0.53305851  0.62440711  1
  S  S58  1  0.22520431  0.74318253  0.84899311  1
  S  S59  1  0.78908320  0.68036980  0.35754096  1
  S  S60  1  0.98556788  0.20226556  0.90109949  1
  S  S61  1  0.16741052  0.58107086  0.12051288  1
  S  S62  1  0.13848878  0.00620376  0.29432899  1
  S  S63  1  0.63826340  0.03305851  0.87559289  1
  S  S64  1  0.61430540  0.75215597  0.11047996  1
  S  S65  1  0.23263138  0.52131288  0.37243843  1
  S  S66  1  0.95056782  0.17676184  0.46170002  1
  S  S67  1  0.70949566  0.35046479  0.57275309  1
  S  S68  1  0.98556788  0.29773444  0.40109949  1
  S  S69  1  0.40460036  0.76613101  0.28167870  1
  S  S70  1  0.76736862  0.02131288  0.12756157  1
  S  S71  1  0.61430540  0.74784403  0.61047996  1
loop_
_geom_bond_atom_site_label_1
_geom_bond_atom_site_label_2
_geom_bond_distance
_geom_bond_site_symmetry_2
S0 S22 2.032769 1_555
S0 S62 2.076398 1_555
S1 S45 2.056981 1_555
S1 S67 2.061950 1_555
S2 S69 2.076302 1_555
S3 S7 2.032769 1_555
S4 S42 2.057165 1_555
S5 S51 2.076302 1_555
S7 S71 2.063287 1_555
S10 S68 2.039511 1_455
S10 S40 2.054857 1_555
S11 S30 2.049372 1_555
S11 S32 2.057281 1_555
S12 S19 2.039511 1_455
S12 S17 2.071728 1_555
S13 S24 2.049372 1_555
S13 S44 2.057281 1_565
S14 S2 2.034544 1_555
S14 S65 2.061950 1_555
S15 S5 2.034544 1_555
S15 S70 2.061950 1_555
S16 S53 2.052666 1_555
S16 S49 2.057165 1_555
S17 S61 2.049372 1_555
S18 S8 2.048205 1_655
S18 S33 2.076398 1_555
S19 S64 2.054857 1_555
S20 S32 2.048205 1_455
S20 S54 2.076398 1_555
S21 S23 2.048315 1_555
S21 S58 2.076302 1_555
S22 S40 2.063287 1_555
S23 S6 2.057165 1_555
S24 S52 2.071728 1_555
S25 S59 2.052666 1_555
S25 S43 2.069834 1_555
S26 S42 2.048315 1_555
S26 S9 2.076302 1_555
S27 S58 2.034544 1_555
S27 S56 2.061950 1_555
S28 S54 2.032769 1_555
S28 S36 2.063287 1_555
S29 S44 2.048205 1_665
S29 S3 2.076398 1_555
S30 S60 2.071728 1_555
S31 S66 2.049372 1_555
S31 S39 2.057281 1_545
S33 S47 2.032769 1_555
S34 S43 2.037324 1_555
S34 S65 2.056981 1_555
S35 S69 2.048315 1_555
S35 S59 2.057165 1_555
S36 S38 2.054857 1_555
S37 S4 2.052666 1_555
S37 S57 2.069834 1_555
S38 S60 2.039511 1_455
S39 S62 2.048205 1_665
S41 S63 2.037324 1_565
S41 S56 2.056981 1_555
S45 S57 2.037324 1_555
S46 S50 2.037324 1_565
S46 S53 2.069834 1_565
S47 S64 2.063287 1_555
S48 S6 2.052666 1_555
S48 S63 2.069834 1_565
S49 S51 2.048315 1_555
S50 S70 2.056981 1_555
S52 S55 2.039511 1_455
S55 S71 2.054857 1_555
S61 S8 2.057281 1_555
S66 S68 2.071728 1_555
S67 S9 2.034544 1_555
