# generated using pymatgen
data_Li2Ni(SO4)2
_symmetry_space_group_name_H-M   'P 1'
_cell_length_a   9.13962200
_cell_length_b   9.25861500
_cell_length_c   13.74112200
_cell_angle_alpha   90.00000000
_cell_angle_beta   90.00000000
_cell_angle_gamma   90.00000000
_symmetry_Int_Tables_number   1
_chemical_formula_structural   Li2Ni(SO4)2
_chemical_formula_sum   'Li16 Ni8 S16 O64'
_cell_volume   1162.77705997
_cell_formula_units_Z   8
loop_
 _symmetry_equiv_pos_site_id
 _symmetry_equiv_pos_as_xyz
  1  'x, y, z'
loop_
 _atom_site_type_symbol
 _atom_site_label
 _atom_site_symmetry_multiplicity
 _atom_site_fract_x
 _atom_site_fract_y
 _atom_site_fract_z
 _atom_site_occupancy
  Li  Li0  1  0.72025800  0.46649500  0.62666500  1
  Li  Li1  1  0.54443100  0.22566500  0.12779300  1
  Li  Li2  1  0.45556900  0.27433500  0.62779300  1
  Li  Li3  1  0.22025800  0.53350500  0.87333500  1
  Li  Li4  1  0.54443100  0.72566500  0.37220700  1
  Li  Li5  1  0.27974200  0.53350500  0.37333500  1
  Li  Li6  1  0.45556900  0.77433500  0.87220700  1
  Li  Li7  1  0.95556900  0.72566500  0.87220700  1
  Li  Li8  1  0.77974200  0.96649500  0.37333500  1
  Li  Li9  1  0.27974200  0.03350500  0.12666500  1
  Li  Li10  1  0.77974200  0.46649500  0.12666500  1
  Li  Li11  1  0.04443100  0.77433500  0.37220700  1
  Li  Li12  1  0.04443100  0.27433500  0.12779300  1
  Li  Li13  1  0.95556900  0.22566500  0.62779300  1
  Li  Li14  1  0.72025800  0.96649500  0.87333500  1
  Li  Li15  1  0.22025800  0.03350500  0.62666500  1
  Ni  Ni0  1  0.89663600  0.36191100  0.37795600  1
  Ni  Ni1  1  0.60336400  0.86191100  0.62204400  1
  Ni  Ni2  1  0.39663600  0.63808900  0.12204400  1
  Ni  Ni3  1  0.39663600  0.13808900  0.37795600  1
  Ni  Ni4  1  0.10336400  0.63808900  0.62204400  1
  Ni  Ni5  1  0.60336400  0.36191100  0.87795600  1
  Ni  Ni6  1  0.10336400  0.13808900  0.87795600  1
  Ni  Ni7  1  0.89663600  0.86191100  0.12204400  1
  S  S0  1  0.43066100  0.07493300  0.77307100  1
  S  S1  1  0.81294000  0.16071900  0.00867600  1
  S  S2  1  0.31294000  0.83928100  0.49132400  1
  S  S3  1  0.43066100  0.57493300  0.72692900  1
  S  S4  1  0.93066100  0.92506700  0.72692900  1
  S  S5  1  0.31294000  0.33928100  0.00867600  1
  S  S6  1  0.18706000  0.83928100  0.99132400  1
  S  S7  1  0.68706000  0.16071900  0.50867600  1
  S  S8  1  0.56933900  0.92506700  0.22692900  1
  S  S9  1  0.18706000  0.33928100  0.50867600  1
  S  S10  1  0.06933900  0.07493300  0.27307100  1
  S  S11  1  0.06933900  0.57493300  0.22692900  1
  S  S12  1  0.93066100  0.42506700  0.77307100  1
  S  S13  1  0.56933900  0.42506700  0.27307100  1
  S  S14  1  0.81294000  0.66071900  0.49132400  1
  S  S15  1  0.68706000  0.66071900  0.99132400  1
  O  O0  1  0.00209700  0.48195000  0.15213200  1
  O  O1  1  0.99790300  0.51805000  0.84786800  1
  O  O2  1  0.26722300  0.07408300  0.77786800  1
  O  O3  1  0.01143100  0.22533600  0.27826600  1
  O  O4  1  0.26722300  0.57408300  0.72213200  1
  O  O5  1  0.98856900  0.27466400  0.77826600  1
  O  O6  1  0.51143100  0.77466400  0.22173400  1
  O  O7  1  0.27168900  0.81056000  0.08212800  1
  O  O8  1  0.76722300  0.42591700  0.77786800  1
  O  O9  1  0.29910500  0.99826500  0.47722300  1
  O  O10  1  0.75784200  0.74263100  0.40625000  1
  O  O11  1  0.23277700  0.07408300  0.27786800  1
  O  O12  1  0.20089500  0.99826500  0.97722300  1
  O  O13  1  0.77168900  0.18944000  0.41787200  1
  O  O14  1  0.96897700  0.20424300  0.99448500  1
  O  O15  1  0.23277700  0.57408300  0.22213200  1
  O  O16  1  0.99790300  0.01805000  0.65213200  1
  O  O17  1  0.03102300  0.79575700  0.00551500  1
  O  O18  1  0.50209700  0.51805000  0.34786800  1
  O  O19  1  0.49790300  0.98195000  0.84786800  1
  O  O20  1  0.20089500  0.49826500  0.52277700  1
  O  O21  1  0.49790300  0.48195000  0.65213200  1
  O  O22  1  0.01143100  0.72533600  0.22173400  1
  O  O23  1  0.46332400  0.52333600  0.82891100  1
  O  O24  1  0.73277700  0.42591700  0.27786800  1
  O  O25  1  0.53102300  0.70424300  0.00551500  1
  O  O26  1  0.53667600  0.97666400  0.32891100  1
  O  O27  1  0.70089500  0.00173500  0.52277700  1
  O  O28  1  0.96897700  0.70424300  0.50551500  1
  O  O29  1  0.75784200  0.24263100  0.09375000  1
  O  O30  1  0.77168900  0.68944000  0.08212800  1
  O  O31  1  0.00209700  0.98195000  0.34786800  1
  O  O32  1  0.48856900  0.72533600  0.72173400  1
  O  O33  1  0.46332400  0.02333600  0.67108900  1
  O  O34  1  0.46897700  0.29575700  0.99448500  1
  O  O35  1  0.74215800  0.24263100  0.59375000  1
  O  O36  1  0.51143100  0.27466400  0.27826600  1
  O  O37  1  0.27168900  0.31056000  0.41787200  1
  O  O38  1  0.24215800  0.25736900  0.59375000  1
  O  O39  1  0.79910500  0.00173500  0.02277700  1
  O  O40  1  0.53102300  0.20424300  0.49448500  1
  O  O41  1  0.22831100  0.31056000  0.91787200  1
  O  O42  1  0.72831100  0.18944000  0.91787200  1
  O  O43  1  0.03667600  0.52333600  0.32891100  1
  O  O44  1  0.76722300  0.92591700  0.72213200  1
  O  O45  1  0.46897700  0.79575700  0.50551500  1
  O  O46  1  0.25784200  0.75736900  0.40625000  1
  O  O47  1  0.03102300  0.29575700  0.49448500  1
  O  O48  1  0.48856900  0.22533600  0.77826600  1
  O  O49  1  0.24215800  0.75736900  0.90625000  1
  O  O50  1  0.96332400  0.97666400  0.82891100  1
  O  O51  1  0.50209700  0.01805000  0.15213200  1
  O  O52  1  0.29910500  0.49826500  0.02277700  1
  O  O53  1  0.74215800  0.74263100  0.90625000  1
  O  O54  1  0.96332400  0.47666400  0.67108900  1
  O  O55  1  0.22831100  0.81056000  0.58212800  1
  O  O56  1  0.79910500  0.50173500  0.47722300  1
  O  O57  1  0.70089500  0.50173500  0.97722300  1
  O  O58  1  0.03667600  0.02333600  0.17108900  1
  O  O59  1  0.53667600  0.47666400  0.17108900  1
  O  O60  1  0.72831100  0.68944000  0.58212800  1
  O  O61  1  0.73277700  0.92591700  0.22213200  1
  O  O62  1  0.25784200  0.25736900  0.09375000  1
  O  O63  1  0.98856900  0.77466400  0.72173400  1
loop_
_geom_bond_atom_site_label_1
_geom_bond_atom_site_label_2
_geom_bond_distance
_geom_bond_site_symmetry_2
Li0 O21 2.067109 1_555
Li0 O35 2.130866 1_555
Li0 O60 2.154231 1_555
Li0 O8 2.154583 1_555
Li0 O56 2.200598 1_555
Li0 O54 2.305797 1_555
Li1 O51 1.989099 1_555
Li1 O29 2.011948 1_555
Li1 O34 2.062090 1_554
Li1 O36 2.138230 1_555
Li1 O59 2.399895 1_555
Li2 O21 1.989099 1_555
Li2 O38 2.011948 1_555
Li2 O40 2.062090 1_555
Li2 O48 2.138230 1_555
Li2 O33 2.399895 1_555
Li3 O1 2.067109 1_455
Li3 O49 2.130866 1_555
Li3 O41 2.154231 1_555
Li3 O4 2.154583 1_555
Li3 O52 2.200598 1_556
Li3 O23 2.305797 1_555
Li4 O18 1.989099 1_555
Li4 O10 2.011948 1_555
Li4 O45 2.062090 1_555
Li4 O6 2.138230 1_555
Li4 O26 2.399895 1_555
Li5 O18 2.067109 1_555
Li5 O46 2.130866 1_555
Li5 O37 2.154231 1_555
Li5 O15 2.154583 1_555
Li5 O20 2.200598 1_555
Li5 O43 2.305797 1_555
Li6 O19 1.989099 1_555
Li6 O49 2.011948 1_555
Li6 O25 2.062090 1_556
Li6 O32 2.138230 1_555
Li6 O23 2.399895 1_555
Li7 O1 1.989099 1_555
Li7 O53 2.011948 1_555
Li7 O17 2.062090 1_656
Li7 O63 2.138230 1_555
Li7 O50 2.399895 1_555
Li8 O31 2.067109 1_655
Li8 O10 2.130866 1_555
Li8 O13 2.154231 1_565
Li8 O61 2.154583 1_555
Li8 O27 2.200598 1_565
Li8 O26 2.305797 1_555
Li9 O51 2.067109 1_555
Li9 O62 2.130866 1_555
Li9 O7 2.154231 1_545
Li9 O11 2.154583 1_555
Li9 O12 2.200598 1_544
Li9 O58 2.305797 1_555
Li10 O0 2.067109 1_655
Li10 O29 2.130866 1_555
Li10 O30 2.154231 1_555
Li10 O24 2.154583 1_555
Li10 O57 2.200598 1_554
Li10 O59 2.305797 1_555
Li11 O31 1.989099 1_555
Li11 O46 2.011948 1_555
Li11 O28 2.062090 1_455
Li11 O22 2.138230 1_555
Li11 O43 2.399895 1_555
Li12 O0 1.989099 1_555
Li12 O62 2.011948 1_555
Li12 O14 2.062090 1_454
Li12 O3 2.138230 1_555
Li12 O58 2.399895 1_555
Li13 O16 1.989099 1_555
Li13 O35 2.011948 1_555
Li13 O47 2.062090 1_655
Li13 O5 2.138230 1_555
Li13 O54 2.399895 1_555
Li14 O19 2.067109 1_555
Li14 O53 2.130866 1_555
Li14 O42 2.154231 1_565
Li14 O44 2.154583 1_555
Li14 O39 2.200598 1_566
Li14 O50 2.305797 1_555
Li15 O16 2.067109 1_455
Li15 O38 2.130866 1_555
Li15 O55 2.154231 1_545
Li15 O2 2.154583 1_555
Li15 O9 2.200598 1_545
Li15 O33 2.305797 1_555
Ni0 O13 2.038342 1_555
Ni0 O43 2.079930 1_655
Ni0 O56 2.081135 1_555
Ni0 O47 2.108958 1_655
Ni0 O24 2.117906 1_555
Ni0 O3 2.139212 1_655
Ni1 O60 2.038342 1_555
Ni1 O33 2.079930 1_565
Ni1 O27 2.081135 1_565
Ni1 O45 2.108958 1_555
Ni1 O44 2.117906 1_555
Ni1 O32 2.139212 1_555
Ni2 O7 2.038342 1_555
Ni2 O59 2.079930 1_555
Ni2 O52 2.081135 1_555
Ni2 O25 2.108958 1_555
Ni2 O15 2.117906 1_555
Ni2 O6 2.139212 1_555
Ni3 O37 2.038342 1_555
Ni3 O26 2.079930 1_545
Ni3 O9 2.081135 1_545
Ni3 O40 2.108958 1_555
Ni3 O11 2.117906 1_555
Ni3 O36 2.139212 1_555
Ni4 O55 2.038342 1_555
Ni4 O54 2.079930 1_455
Ni4 O20 2.081135 1_555
Ni4 O28 2.108958 1_455
Ni4 O4 2.117906 1_555
Ni4 O63 2.139212 1_455
Ni5 O42 2.038342 1_555
Ni5 O23 2.079930 1_555
Ni5 O57 2.081135 1_555
Ni5 O34 2.108958 1_555
Ni5 O8 2.117906 1_555
Ni5 O48 2.139212 1_555
Ni6 O41 2.038342 1_555
Ni6 O50 2.079930 1_445
Ni6 O12 2.081135 1_545
Ni6 O14 2.108958 1_455
Ni6 O2 2.117906 1_555
Ni6 O5 2.139212 1_455
Ni7 O30 2.038342 1_555
Ni7 O58 2.079930 1_665
Ni7 O39 2.081135 1_565
Ni7 O17 2.108958 1_655
Ni7 O61 2.117906 1_555
Ni7 O22 2.139212 1_655
O0 S11 1.474853 1_555
O1 S12 1.474853 1_555
O2 S0 1.495236 1_555
O3 S10 1.491419 1_555
O4 S3 1.495236 1_555
O5 S12 1.491419 1_555
O6 S8 1.491419 1_555
O7 S6 1.491930 1_554
O8 S12 1.495236 1_555
O9 S2 1.490045 1_555
O10 S14 1.481666 1_555
O11 S10 1.495236 1_555
O12 S6 1.490045 1_555
O13 S7 1.491930 1_555
O14 S1 1.494733 1_556
O15 S11 1.495236 1_555
O16 S4 1.474853 1_545
O17 S6 1.494733 1_554
O18 S13 1.474853 1_555
O19 S0 1.474853 1_565
O20 S9 1.490045 1_555
O21 S3 1.474853 1_555
O22 S11 1.491419 1_555
O23 S3 1.510333 1_555
O24 S13 1.495236 1_555
O25 S15 1.494733 1_554
O26 S8 1.510333 1_555
O27 S7 1.490045 1_555
O28 S14 1.494733 1_555
O29 S1 1.481666 1_555
O30 S15 1.491930 1_554
O31 S10 1.474853 1_565
O32 S3 1.491419 1_555
O33 S0 1.510333 1_555
O34 S5 1.494733 1_556
O35 S7 1.481666 1_555
O36 S13 1.491419 1_555
O37 S9 1.491930 1_555
O38 S9 1.481666 1_555
O39 S1 1.490045 1_555
O40 S7 1.494733 1_555
O41 S5 1.491930 1_556
O42 S1 1.491930 1_556
O43 S11 1.510333 1_555
O44 S4 1.495236 1_555
O45 S2 1.494733 1_555
O46 S2 1.481666 1_555
O47 S9 1.494733 1_555
O48 S0 1.491419 1_555
O49 S6 1.481666 1_555
O50 S4 1.510333 1_555
O51 S8 1.474853 1_545
O52 S5 1.490045 1_555
O53 S15 1.481666 1_555
O54 S12 1.510333 1_555
O55 S2 1.491930 1_555
O56 S14 1.490045 1_555
O57 S15 1.490045 1_555
O58 S10 1.510333 1_555
O59 S13 1.510333 1_555
O60 S14 1.491930 1_555
O61 S8 1.495236 1_555
O62 S5 1.481666 1_555
O63 S4 1.491419 1_555
