# generated using pymatgen
data_BaTiO3
_symmetry_space_group_name_H-M   'P 1'
_cell_length_a   5.75288743
_cell_length_b   5.75288743
_cell_length_c   14.01903216
_cell_angle_alpha   90.00000000
_cell_angle_beta   90.00000000
_cell_angle_gamma   119.72477257
_symmetry_Int_Tables_number   1
_chemical_formula_structural   BaTiO3
_chemical_formula_sum   'Ba6 Ti6 O18'
_cell_volume   402.91942798
_cell_formula_units_Z   6
loop_
 _symmetry_equiv_pos_site_id
 _symmetry_equiv_pos_as_xyz
  1  'x, y, z'
loop_
 _atom_site_type_symbol
 _atom_site_label
 _atom_site_symmetry_multiplicity
 _atom_site_fract_x
 _atom_site_fract_y
 _atom_site_fract_z
 _atom_site_occupancy
  Ba  Ba0  1  0.34699731  0.67893065  0.40371352  1
  Ba  Ba1  1  0.67893065  0.34699731  0.59628648  1
  Ba  Ba2  1  0.65300269  0.32106935  0.90371352  1
  Ba  Ba3  1  0.00075526  0.99924474  0.25000000  1
  Ba  Ba4  1  0.99924474  0.00075526  0.75000000  1
  Ba  Ba5  1  0.32106935  0.65300269  0.09628648  1
  Ti  Ti0  1  0.35270424  0.68906022  0.65386952  1
  Ti  Ti1  1  0.68906022  0.35270424  0.34613048  1
  Ti  Ti2  1  0.97581967  0.97581967  0.00000000  1
  Ti  Ti3  1  0.31093978  0.64729576  0.84613048  1
  Ti  Ti4  1  0.02418033  0.02418033  0.50000000  1
  Ti  Ti5  1  0.64729576  0.31093978  0.15386952  1
  O  O0  1  0.16370690  0.83412141  0.91986164  1
  O  O1  1  0.83421323  0.67024411  0.08058558  1
  O  O2  1  0.51983002  0.03262784  0.24732290  1
  O  O3  1  0.83558482  0.66755973  0.41921055  1
  O  O4  1  0.83412141  0.16370690  0.08013836  1
  O  O5  1  0.16578677  0.32975589  0.58058558  1
  O  O6  1  0.66755973  0.83558482  0.58078945  1
  O  O7  1  0.96737216  0.48016998  0.25267710  1
  O  O8  1  0.47946123  0.52053877  0.75000000  1
  O  O9  1  0.16587859  0.83629310  0.58013836  1
  O  O10  1  0.33244027  0.16441518  0.08078945  1
  O  O11  1  0.52053877  0.47946123  0.25000000  1
  O  O12  1  0.67024411  0.83421323  0.91941442  1
  O  O13  1  0.83629310  0.16587859  0.41986164  1
  O  O14  1  0.32975589  0.16578677  0.41941442  1
  O  O15  1  0.48016998  0.96737216  0.74732290  1
  O  O16  1  0.03262784  0.51983002  0.75267710  1
  O  O17  1  0.16441518  0.33244027  0.91921055  1
loop_
_geom_bond_atom_site_label_1
_geom_bond_atom_site_label_2
_geom_bond_distance
_geom_bond_site_symmetry_2
Ba0 O2 2.815928 1_565
Ba0 O13 2.828881 1_565
Ba0 O7 2.843232 1_455
Ba0 O11 2.844874 1_555
Ba0 O3 2.852078 1_555
Ba0 O14 2.859794 1_565
Ba0 O14 2.912485 1_555
Ba0 O3 2.918316 1_455
Ba0 O6 2.954226 1_555
Ba0 O13 2.965695 1_455
Ba0 O9 2.992970 1_555
Ba0 O5 3.032085 1_555
Ba1 O16 2.815928 1_655
Ba1 O9 2.828881 1_655
Ba1 O15 2.843232 1_545
Ba1 O8 2.844874 1_555
Ba1 O6 2.852078 1_555
Ba1 O5 2.859794 1_655
Ba1 O5 2.912485 1_555
Ba1 O6 2.918316 1_545
Ba1 O3 2.954226 1_555
Ba1 O9 2.965695 1_545
Ba1 O13 2.992970 1_555
Ba1 O14 3.032085 1_555
Ba2 O15 2.815928 1_545
Ba2 O0 2.828881 1_545
Ba2 O16 2.843232 1_655
Ba2 O8 2.844874 1_555
Ba2 O17 2.852078 1_555
Ba2 O12 2.859794 1_545
Ba2 O12 2.912485 1_555
Ba2 O17 2.918316 1_655
Ba2 O10 2.954226 1_556
Ba2 O0 2.965695 1_655
Ba2 O4 2.992970 1_556
Ba2 O1 3.032085 1_556
Ba3 O7 2.867034 1_465
Ba3 O2 2.867034 1_465
Ba3 O1 2.888380 1_455
Ba3 O14 2.888380 1_565
Ba3 O3 2.893626 1_455
Ba3 O10 2.893626 1_565
Ba3 O11 2.895102 1_455
Ba3 O11 2.895102 1_565
Ba3 O13 2.895536 1_465
Ba3 O4 2.895536 1_465
Ba3 O2 2.896004 1_565
Ba3 O7 2.896004 1_455
Ba4 O15 2.867034 1_645
Ba4 O16 2.867034 1_645
Ba4 O12 2.888380 1_545
Ba4 O5 2.888380 1_655
Ba4 O6 2.893626 1_545
Ba4 O17 2.893626 1_655
Ba4 O8 2.895102 1_545
Ba4 O8 2.895102 1_655
Ba4 O9 2.895536 1_645
Ba4 O0 2.895536 1_645
Ba4 O16 2.896004 1_655
Ba4 O15 2.896004 1_545
Ba5 O7 2.815928 1_455
Ba5 O4 2.828881 1_455
Ba5 O2 2.843232 1_565
Ba5 O11 2.844874 1_555
Ba5 O10 2.852078 1_555
Ba5 O1 2.859794 1_455
Ba5 O1 2.912485 1_555
Ba5 O10 2.918316 1_565
Ba5 O17 2.954226 1_554
Ba5 O4 2.965695 1_565
Ba5 O0 2.992970 1_554
Ba5 O12 3.032085 1_554
O0 Ti3 1.960557 1_555
O0 Ti2 1.992181 1_456
O1 Ti2 1.900035 1_555
O1 Ti5 2.068873 1_555
O2 Ti5 1.911379 1_555
O2 Ti1 2.116469 1_555
O3 Ti1 1.878021 1_555
O3 Ti4 2.112249 1_665
O4 Ti5 1.960557 1_555
O4 Ti2 1.992181 1_545
O5 Ti4 1.900035 1_555
O5 Ti0 2.068873 1_555
O6 Ti0 1.878021 1_555
O6 Ti4 2.112249 1_665
O7 Ti1 1.911379 1_555
O7 Ti5 2.116469 1_555
O8 Ti3 1.997227 1_555
O8 Ti0 1.997227 1_555
O9 Ti0 1.960557 1_555
O9 Ti4 1.992181 1_565
O10 Ti5 1.878021 1_555
O10 Ti2 2.112249 1_445
O11 Ti5 1.997227 1_555
O11 Ti1 1.997227 1_555
O12 Ti2 1.900035 1_556
O12 Ti3 2.068873 1_555
O13 Ti1 1.960557 1_555
O13 Ti4 1.992181 1_655
O14 Ti4 1.900035 1_555
O14 Ti1 2.068873 1_555
O15 Ti0 1.911379 1_555
O15 Ti3 2.116469 1_555
O16 Ti3 1.911379 1_555
O16 Ti0 2.116469 1_555
O17 Ti3 1.878021 1_555
O17 Ti2 2.112249 1_446
