# generated using pymatgen
data_CaNdMn2O6
_symmetry_space_group_name_H-M   'P 1'
_cell_length_a   16.29721600
_cell_length_b   5.47379300
_cell_length_c   7.70250800
_cell_angle_alpha   90.00000000
_cell_angle_beta   90.00000000
_cell_angle_gamma   90.00000000
_symmetry_Int_Tables_number   1
_chemical_formula_structural   CaNdMn2O6
_chemical_formula_sum   'Ca6 Nd6 Mn12 O36'
_cell_volume   687.12215145
_cell_formula_units_Z   6
loop_
 _symmetry_equiv_pos_site_id
 _symmetry_equiv_pos_as_xyz
  1  'x, y, z'
loop_
 _atom_site_type_symbol
 _atom_site_label
 _atom_site_symmetry_multiplicity
 _atom_site_fract_x
 _atom_site_fract_y
 _atom_site_fract_z
 _atom_site_occupancy
  Ca  Ca0  1  0.16707000  0.53808700  0.75000000  1
  Ca  Ca1  1  0.33642500  0.95805600  0.25000000  1
  Ca  Ca2  1  0.50546800  0.54354900  0.75000000  1
  Ca  Ca3  1  0.66119800  0.04354900  0.75000000  1
  Ca  Ca4  1  0.83024200  0.45805600  0.25000000  1
  Ca  Ca5  1  0.99959800  0.03808700  0.75000000  1
  Nd  Nd0  1  0.99875000  0.96837400  0.25000000  1
  Nd  Nd1  1  0.16791600  0.46837400  0.25000000  1
  Nd  Nd2  1  0.33129900  0.03285500  0.75000000  1
  Nd  Nd3  1  0.49442700  0.46148000  0.25000000  1
  Nd  Nd4  1  0.67224000  0.96148000  0.25000000  1
  Nd  Nd5  1  0.83536800  0.53285500  0.75000000  1
  Mn  Mn0  1  0.99997200  0.49947600  0.99727800  1
  Mn  Mn1  1  0.99997200  0.49947600  0.50272200  1
  Mn  Mn2  1  0.16669500  0.99947600  0.50272200  1
  Mn  Mn3  1  0.16669500  0.99947600  0.99727800  1
  Mn  Mn4  1  0.33403000  0.50066400  0.50284900  1
  Mn  Mn5  1  0.33403000  0.50066400  0.99715100  1
  Mn  Mn6  1  0.50077300  0.99893700  0.99703800  1
  Mn  Mn7  1  0.50077300  0.99893700  0.50296200  1
  Mn  Mn8  1  0.66589400  0.49893700  0.50296200  1
  Mn  Mn9  1  0.66589400  0.49893700  0.99703800  1
  Mn  Mn10  1  0.83263600  0.00066400  0.99715100  1
  Mn  Mn11  1  0.83263600  0.00066400  0.50284900  1
  O  O0  1  0.02302900  0.48078400  0.75000000  1
  O  O1  1  0.07437000  0.22270700  0.04174900  1
  O  O2  1  0.07437000  0.22270700  0.45825100  1
  O  O3  1  0.09229700  0.72270700  0.04174900  1
  O  O4  1  0.09229700  0.72270700  0.45825100  1
  O  O5  1  0.14363800  0.98078400  0.75000000  1
  O  O6  1  0.19113200  0.00999300  0.25000000  1
  O  O7  1  0.23841500  0.28550200  0.53983300  1
  O  O8  1  0.23841500  0.28550200  0.96016700  1
  O  O9  1  0.25998600  0.77876900  0.53503400  1
  O  O10  1  0.25998600  0.77876900  0.96496600  1
  O  O11  1  0.31543100  0.51500500  0.25000000  1
  O  O12  1  0.35929300  0.48832100  0.75000000  1
  O  O13  1  0.40400800  0.21024100  0.03655800  1
  O  O14  1  0.40400800  0.21024100  0.46344200  1
  O  O15  1  0.42817200  0.71791300  0.03117800  1
  O  O16  1  0.42817200  0.71791300  0.46882200  1
  O  O17  1  0.47904200  0.98379800  0.75000000  1
  O  O18  1  0.52284800  0.00672900  0.25000000  1
  O  O19  1  0.56905800  0.29227600  0.53160800  1
  O  O20  1  0.56905800  0.29227600  0.96839200  1
  O  O21  1  0.59760900  0.79227600  0.53160800  1
  O  O22  1  0.59760900  0.79227600  0.96839200  1
  O  O23  1  0.64381900  0.50672900  0.25000000  1
  O  O24  1  0.68762400  0.48379800  0.75000000  1
  O  O25  1  0.73849500  0.21791300  0.03117800  1
  O  O26  1  0.73849500  0.21791300  0.46882200  1
  O  O27  1  0.76265800  0.71024100  0.03655800  1
  O  O28  1  0.76265800  0.71024100  0.46344200  1
  O  O29  1  0.80737400  0.98832100  0.75000000  1
  O  O30  1  0.85123600  0.01500500  0.25000000  1
  O  O31  1  0.90668000  0.27876900  0.53503400  1
  O  O32  1  0.90668000  0.27876900  0.96496600  1
  O  O33  1  0.92825200  0.78550200  0.53983300  1
  O  O34  1  0.92825200  0.78550200  0.96016700  1
  O  O35  1  0.97553400  0.50999300  0.25000000  1
loop_
_geom_bond_atom_site_label_1
_geom_bond_atom_site_label_2
_geom_bond_distance
_geom_bond_site_symmetry_2
Ca0 O0 2.368330 1_555
Ca0 O8 2.425709 1_555
Ca0 O7 2.425709 1_555
Ca0 O5 2.453137 1_555
Ca0 O9 2.601975 1_555
Ca0 O10 2.601975 1_555
Ca0 O3 2.748841 1_556
Ca0 O4 2.748841 1_555
Ca1 O6 2.384877 1_565
Ca1 O13 2.412780 1_565
Ca1 O14 2.412780 1_565
Ca1 O11 2.449185 1_555
Ca1 O15 2.608527 1_555
Ca1 O16 2.608527 1_555
Ca1 O9 2.708339 1_555
Ca1 O10 2.708339 1_554
Ca2 O12 2.401350 1_555
Ca2 O19 2.407375 1_555
Ca2 O20 2.407375 1_555
Ca2 O17 2.448013 1_555
Ca2 O21 2.634054 1_555
Ca2 O22 2.634054 1_555
Ca2 O15 2.681118 1_556
Ca2 O16 2.681118 1_555
Ca3 O29 2.401366 1_545
Ca3 O21 2.407368 1_545
Ca3 O22 2.407368 1_545
Ca3 O24 2.448013 1_555
Ca3 O19 2.634044 1_555
Ca3 O20 2.634044 1_555
Ca3 O25 2.681126 1_556
Ca3 O26 2.681126 1_555
Ca4 O35 2.384861 1_555
Ca4 O27 2.412787 1_555
Ca4 O28 2.412787 1_555
Ca4 O30 2.449185 1_555
Ca4 O25 2.608527 1_555
Ca4 O26 2.608527 1_555
Ca4 O31 2.708331 1_555
Ca4 O32 2.708331 1_554
Ca5 O5 2.368314 1_645
Ca5 O33 2.425716 1_545
Ca5 O34 2.425716 1_545
Ca5 O0 2.453135 1_655
Ca5 O31 2.601994 1_555
Ca5 O32 2.601994 1_555
Ca5 O2 2.748833 1_655
Ca5 O1 2.748833 1_656
Nd0 O30 2.417580 1_565
Nd0 O2 2.455589 1_665
Nd0 O1 2.455589 1_665
Nd0 O35 2.537449 1_555
Nd0 O3 2.589510 1_655
Nd0 O4 2.589510 1_655
Nd0 O34 2.702928 1_554
Nd0 O33 2.702928 1_555
Nd1 O11 2.417596 1_555
Nd1 O3 2.455581 1_555
Nd1 O4 2.455581 1_555
Nd1 O6 2.537449 1_555
Nd1 O1 2.589500 1_555
Nd1 O2 2.589500 1_555
Nd1 O7 2.702935 1_555
Nd1 O8 2.702935 1_554
Nd2 O17 2.422727 1_545
Nd2 O9 2.454930 1_545
Nd2 O10 2.454930 1_545
Nd2 O12 2.534526 1_555
Nd2 O7 2.612377 1_555
Nd2 O8 2.612377 1_555
Nd2 O14 2.686765 1_555
Nd2 O13 2.686765 1_556
Nd3 O15 2.444792 1_555
Nd3 O16 2.444792 1_555
Nd3 O23 2.447240 1_555
Nd3 O18 2.531940 1_555
Nd3 O14 2.601068 1_555
Nd3 O13 2.601068 1_555
Nd3 O20 2.653695 1_554
Nd3 O19 2.653695 1_555
Nd4 O26 2.444792 1_565
Nd4 O25 2.444792 1_565
Nd4 O18 2.447240 1_565
Nd4 O23 2.531940 1_555
Nd4 O28 2.601059 1_555
Nd4 O27 2.601059 1_555
Nd4 O22 2.653695 1_554
Nd4 O21 2.653695 1_555
Nd5 O24 2.422743 1_555
Nd5 O32 2.454922 1_555
Nd5 O31 2.454922 1_555
Nd5 O29 2.534526 1_555
Nd5 O33 2.612377 1_555
Nd5 O34 2.612377 1_555
Nd5 O28 2.686772 1_555
Nd5 O27 2.686772 1_556
Mn0 O0 1.944068 1_655
Mn0 O32 1.957824 1_555
Mn0 O3 1.968341 1_656
Mn0 O1 1.970430 1_656
Mn0 O34 1.974624 1_555
Mn0 O35 1.987752 1_556
Mn1 O0 1.944068 1_655
Mn1 O31 1.957824 1_555
Mn1 O4 1.968341 1_655
Mn1 O2 1.970430 1_655
Mn1 O33 1.974624 1_555
Mn1 O35 1.987752 1_555
Mn2 O5 1.944068 1_555
Mn2 O9 1.957811 1_555
Mn2 O2 1.968341 1_565
Mn2 O4 1.970430 1_555
Mn2 O7 1.974624 1_565
Mn2 O6 1.987749 1_565
Mn3 O5 1.944068 1_555
Mn3 O10 1.957811 1_555
Mn3 O1 1.968341 1_566
Mn3 O3 1.970430 1_556
Mn3 O8 1.974624 1_565
Mn3 O6 1.987749 1_566
Mn4 O12 1.948867 1_555
Mn4 O9 1.958309 1_555
Mn4 O16 1.958766 1_555
Mn4 O11 1.972580 1_555
Mn4 O7 1.973935 1_555
Mn4 O14 1.979885 1_555
Mn5 O12 1.948867 1_555
Mn5 O10 1.958309 1_555
Mn5 O15 1.958766 1_556
Mn5 O11 1.972580 1_556
Mn5 O8 1.973935 1_555
Mn5 O13 1.979885 1_556
Mn6 O17 1.937263 1_555
Mn6 O22 1.954206 1_555
Mn6 O15 1.958409 1_556
Mn6 O20 1.966044 1_565
Mn6 O13 1.979241 1_566
Mn6 O18 1.981836 1_566
Mn7 O17 1.937263 1_555
Mn7 O21 1.954206 1_555
Mn7 O16 1.958409 1_555
Mn7 O19 1.966044 1_565
Mn7 O14 1.979241 1_565
Mn7 O18 1.981836 1_565
Mn8 O24 1.937260 1_555
Mn8 O19 1.954206 1_555
Mn8 O26 1.958409 1_555
Mn8 O21 1.966044 1_555
Mn8 O28 1.979228 1_555
Mn8 O23 1.981836 1_555
Mn9 O24 1.937260 1_555
Mn9 O20 1.954206 1_555
Mn9 O25 1.958409 1_556
Mn9 O22 1.966044 1_555
Mn9 O27 1.979228 1_556
Mn9 O23 1.981836 1_556
Mn10 O29 1.948864 1_545
Mn10 O32 1.958309 1_555
Mn10 O25 1.958753 1_556
Mn10 O30 1.972583 1_556
Mn10 O34 1.973948 1_545
Mn10 O27 1.979885 1_546
Mn11 O29 1.948864 1_545
Mn11 O31 1.958309 1_555
Mn11 O26 1.958753 1_555
Mn11 O30 1.972583 1_555
Mn11 O33 1.973948 1_545
Mn11 O28 1.979885 1_545
