# generated using pymatgen
data_CsAuSe3
_symmetry_space_group_name_H-M   'P 1'
_cell_length_a   6.59200526
_cell_length_b   7.69525620
_cell_length_c   7.73270003
_cell_angle_alpha   81.02189656
_cell_angle_beta   68.63364999
_cell_angle_gamma   64.64449123
_symmetry_Int_Tables_number   1
_chemical_formula_structural   CsAuSe3
_chemical_formula_sum   'Cs2 Au2 Se6'
_cell_volume   330.10821329
_cell_formula_units_Z   2
loop_
 _symmetry_equiv_pos_site_id
 _symmetry_equiv_pos_as_xyz
  1  'x, y, z'
loop_
 _atom_site_type_symbol
 _atom_site_label
 _atom_site_symmetry_multiplicity
 _atom_site_fract_x
 _atom_site_fract_y
 _atom_site_fract_z
 _atom_site_occupancy
  Cs  Cs0  1  0.85035464  0.29956034  0.25000554  1
  Cs  Cs1  1  0.14964536  0.70043966  0.74999446  1
  Au  Au0  1  0.42357826  0.15272918  0.75014461  1
  Au  Au1  1  0.57642174  0.84727082  0.24985539  1
  Se  Se0  1  0.80674594  0.82550804  0.44067579  1
  Se  Se1  1  0.63195973  0.17443166  0.94115975  1
  Se  Se2  1  0.19325406  0.17449196  0.55932421  1
  Se  Se3  1  0.36804027  0.82556834  0.05884025  1
  Se  Se4  1  0.19190578  0.61553393  0.24953712  1
  Se  Se5  1  0.80809422  0.38446607  0.75046288  1
loop_
_geom_bond_atom_site_label_1
_geom_bond_atom_site_label_2
_geom_bond_distance
_geom_bond_site_symmetry_2
Cs0 Se1 3.621277 1_554
Cs0 Se2 3.621399 1_655
Cs0 Se0 3.804557 1_545
Cs0 Se3 3.805443 1_645
Cs0 Se5 3.907214 1_554
Cs0 Se5 3.915131 1_555
Cs0 Se4 3.957467 1_655
Cs0 Se4 3.965066 1_555
Cs1 Se3 3.621277 1_556
Cs1 Se0 3.621399 1_455
Cs1 Se2 3.804557 1_565
Cs1 Se1 3.805443 1_465
Cs1 Se4 3.907214 1_556
Cs1 Se4 3.915131 1_555
Cs1 Se5 3.957467 1_455
Cs1 Se5 3.965066 1_555
Au0 Se2 2.418282 1_555
Au0 Se1 2.418352 1_555
Au0 Se3 3.232217 1_546
Au0 Se0 3.236689 1_545
Au0 Cs1 3.808756 1_555
Au0 Cs0 4.190389 1_456
Au0 Cs0 4.192732 1_555
Au1 Se0 2.418282 1_555
Au1 Se3 2.418352 1_555
Au1 Se1 3.232217 1_564
Au1 Se2 3.236689 1_565
Au1 Cs0 3.808756 1_555
Au1 Cs1 4.190389 1_654
Au1 Cs1 4.192732 1_555
Se0 Se4 2.395640 1_655
Se1 Se5 2.398062 1_555
Se2 Se5 2.395640 1_455
Se3 Se4 2.398062 1_555
