# generated using pymatgen
data_HgI2
_symmetry_space_group_name_H-M   'P 1'
_cell_length_a   12.79816760
_cell_length_b   12.79817938
_cell_length_c   15.64261703
_cell_angle_alpha   114.14292931
_cell_angle_beta   114.14294743
_cell_angle_gamma   90.06809794
_symmetry_Int_Tables_number   1
_chemical_formula_structural   HgI2
_chemical_formula_sum   'Hg16 I32'
_cell_volume   2089.39820779
_cell_formula_units_Z   16
loop_
 _symmetry_equiv_pos_site_id
 _symmetry_equiv_pos_as_xyz
  1  'x, y, z'
loop_
 _atom_site_type_symbol
 _atom_site_label
 _atom_site_symmetry_multiplicity
 _atom_site_fract_x
 _atom_site_fract_y
 _atom_site_fract_z
 _atom_site_occupancy
  Hg  Hg0  1  0.56431782  0.56886327  0.87456671  1
  Hg  Hg1  1  0.06886227  0.06431782  0.37456671  1
  Hg  Hg2  1  0.43168355  0.68943211  0.62542079  1
  Hg  Hg3  1  0.93113773  0.93568218  0.62543329  1
  Hg  Hg4  1  0.43568218  0.43113673  0.12543329  1
  Hg  Hg5  1  0.80619695  0.56424743  0.37420170  1
  Hg  Hg6  1  0.68965954  0.19471980  0.12583137  1
  Hg  Hg7  1  0.56831645  0.31056789  0.37457921  1
  Hg  Hg8  1  0.31034046  0.80528020  0.87416863  1
  Hg  Hg9  1  0.06424743  0.30619695  0.87420170  1
  Hg  Hg10  1  0.30528020  0.81034046  0.37416963  1
  Hg  Hg11  1  0.81056789  0.06831645  0.87457921  1
  Hg  Hg12  1  0.93575257  0.69380305  0.12579830  1
  Hg  Hg13  1  0.69471980  0.18965954  0.62583037  1
  Hg  Hg14  1  0.18943211  0.93168355  0.12542079  1
  Hg  Hg15  1  0.19380305  0.43575257  0.62579830  1
  I  I0  1  0.99474346  0.24939398  0.49993062  1
  I  I1  1  0.25060602  0.50525654  0.00006838  1
  I  I2  1  0.63147391  0.11612203  0.24976611  1
  I  I3  1  0.24375259  0.49374032  0.48824217  1
  I  I4  1  0.49501392  0.24876763  0.49957493  1
  I  I5  1  0.74876763  0.99501392  0.99957493  1
  I  I6  1  0.13220258  0.13456272  0.25043839  1
  I  I7  1  0.38154898  0.36667328  0.75092274  1
  I  I8  1  0.25663547  0.00662082  0.51213222  1
  I  I9  1  0.88170918  0.38475255  0.75042463  1
  I  I10  1  0.38387797  0.86852609  0.25023389  1
  I  I11  1  0.75624741  0.50625968  0.51175783  1
  I  I12  1  0.00525654  0.75060602  0.50006938  1
  I  I13  1  0.25123237  0.00498608  0.00042507  1
  I  I14  1  0.61845202  0.63332672  0.24907726  1
  I  I15  1  0.88475255  0.38170918  0.25042463  1
  I  I16  1  0.49337918  0.24336453  0.98786778  1
  I  I17  1  0.36852609  0.88387797  0.75023389  1
  I  I18  1  0.50498608  0.75123237  0.50042507  1
  I  I19  1  0.86779742  0.86543728  0.74956161  1
  I  I20  1  0.86667228  0.88154898  0.25092274  1
  I  I21  1  0.99374032  0.74375259  0.98824217  1
  I  I22  1  0.63456272  0.63220258  0.75043839  1
  I  I23  1  0.50662082  0.75663547  0.01213222  1
  I  I24  1  0.61612203  0.13147391  0.74976611  1
  I  I25  1  0.36543728  0.36779742  0.24956161  1
  I  I26  1  0.74336453  0.99337918  0.48786778  1
  I  I27  1  0.13332772  0.11845102  0.74907726  1
  I  I28  1  0.11524745  0.61829082  0.74957537  1
  I  I29  1  0.74939398  0.49474346  -0.00006838  1
  I  I30  1  0.00625968  0.25624741  0.01175783  1
  I  I31  1  0.11829082  0.61524745  0.24957537  1
loop_
_geom_bond_atom_site_label_1
_geom_bond_atom_site_label_2
_geom_bond_distance
_geom_bond_site_symmetry_2
Hg0 I22 2.819446 1_555
Hg0 I23 2.832800 1_556
Hg0 I29 2.843110 1_556
Hg0 I7 2.845854 1_555
Hg1 I6 2.819454 1_555
Hg1 I8 2.832805 1_555
Hg1 I0 2.843096 1_455
Hg1 I20 2.845854 1_445
Hg2 I17 2.824772 1_555
Hg2 I3 2.833626 1_555
Hg2 I18 2.844737 1_555
Hg2 I22 2.850454 1_555
Hg3 I19 2.819454 1_555
Hg3 I26 2.832805 1_555
Hg3 I12 2.843096 1_655
Hg3 I27 2.845854 1_665
Hg4 I25 2.819446 1_555
Hg4 I16 2.832800 1_554
Hg4 I1 2.843110 1_555
Hg4 I14 2.845861 1_555
Hg5 I14 2.821238 1_555
Hg5 I11 2.831924 1_555
Hg5 I12 2.845389 1_655
Hg5 I15 2.848692 1_555
Hg6 I15 2.819463 1_555
Hg6 I16 2.832557 1_554
Hg6 I2 2.845915 1_555
Hg6 I5 2.846541 1_544
Hg7 I2 2.824772 1_555
Hg7 I11 2.833626 1_555
Hg7 I4 2.844737 1_555
Hg7 I25 2.850454 1_555
Hg8 I28 2.819463 1_555
Hg8 I23 2.832557 1_556
Hg8 I17 2.845915 1_555
Hg8 I13 2.846541 1_566
Hg9 I27 2.821254 1_555
Hg9 I30 2.831924 1_556
Hg9 I1 2.845389 1_556
Hg9 I9 2.848691 1_455
Hg10 I31 2.819463 1_555
Hg10 I8 2.832551 1_565
Hg10 I10 2.845929 1_555
Hg10 I18 2.846532 1_555
Hg11 I24 2.824770 1_555
Hg11 I30 2.833626 1_656
Hg11 I5 2.844737 1_545
Hg11 I19 2.850455 1_545
Hg12 I20 2.821254 1_555
Hg12 I21 2.831924 1_554
Hg12 I29 2.845389 1_555
Hg12 I31 2.848691 1_655
Hg13 I9 2.819463 1_555
Hg13 I26 2.832551 1_545
Hg13 I24 2.845929 1_555
Hg13 I4 2.846532 1_555
Hg14 I10 2.824770 1_555
Hg14 I21 2.833626 1_454
Hg14 I13 2.844737 1_565
Hg14 I6 2.850455 1_565
Hg15 I7 2.821245 1_555
Hg15 I3 2.831924 1_555
Hg15 I0 2.845389 1_455
Hg15 I28 2.848692 1_555
