# generated using pymatgen
data_U11Ni16
_symmetry_space_group_name_H-M   'P 1'
_cell_length_a   9.61821306
_cell_length_b   9.61821411
_cell_length_c   9.61821321
_cell_angle_alpha   74.97168818
_cell_angle_beta   74.97168871
_cell_angle_gamma   74.97169352
_symmetry_Int_Tables_number   1
_chemical_formula_structural   U11Ni16
_chemical_formula_sum   'U22 Ni32'
_cell_volume   812.17271337
_cell_formula_units_Z   2
loop_
 _symmetry_equiv_pos_site_id
 _symmetry_equiv_pos_as_xyz
  1  'x, y, z'
loop_
 _atom_site_type_symbol
 _atom_site_label
 _atom_site_symmetry_multiplicity
 _atom_site_fract_x
 _atom_site_fract_y
 _atom_site_fract_z
 _atom_site_occupancy
  U  U0  1  0.88468200  0.41356700  0.57724500  1
  U  U1  1  0.58643300  0.42275500  0.11531800  1
  U  U2  1  0.42798900  0.42798900  0.42798900  1
  U  U3  1  0.41304300  0.94755000  0.12569900  1
  U  U4  1  0.57201100  0.57201100  0.57201100  1
  U  U5  1  0.58695700  0.05245000  0.87430100  1
  U  U6  1  0.72103200  0.14588300  0.05699000  1
  U  U7  1  0.42275500  0.11531800  0.58643300  1
  U  U8  1  0.94755000  0.12569900  0.41304300  1
  U  U9  1  0.87430100  0.58695700  0.05245000  1
  U  U10  1  0.19381600  0.19381600  0.19381600  1
  U  U11  1  0.41356700  0.57724500  0.88468200  1
  U  U12  1  0.12569900  0.41304300  0.94755000  1
  U  U13  1  0.14588300  0.05699000  0.72103200  1
  U  U14  1  0.11531800  0.58643300  0.42275500  1
  U  U15  1  0.05245000  0.87430100  0.58695700  1
  U  U16  1  0.57724500  0.88468200  0.41356700  1
  U  U17  1  0.80618400  0.80618400  0.80618400  1
  U  U18  1  0.85411700  0.94301000  0.27896800  1
  U  U19  1  0.05699000  0.72103200  0.14588300  1
  U  U20  1  0.27896800  0.85411700  0.94301000  1
  U  U21  1  0.94301000  0.27896800  0.85411700  1
  Ni  Ni0  1  0.84519600  0.11239000  0.72101300  1
  Ni  Ni1  1  0.99212700  0.57408900  0.72734200  1
  Ni  Ni2  1  0.64852300  0.33400600  0.81359800  1
  Ni  Ni3  1  0.18640200  0.35147700  0.66599400  1
  Ni  Ni4  1  0.55871000  0.81728400  0.72488400  1
  Ni  Ni5  1  0.88761000  0.27898700  0.15480400  1
  Ni  Ni6  1  0.72488400  0.55871000  0.81728400  1
  Ni  Ni7  1  0.81359800  0.64852300  0.33400600  1
  Ni  Ni8  1  0.74310200  0.41463700  0.34801400  1
  Ni  Ni9  1  0.66599400  0.18640200  0.35147700  1
  Ni  Ni10  1  0.41463700  0.34801400  0.74310200  1
  Ni  Ni11  1  0.42591100  0.27265800  0.00787300  1
  Ni  Ni12  1  0.72101300  0.84519600  0.11239000  1
  Ni  Ni13  1  0.06163600  0.06163600  0.06163600  1
  Ni  Ni14  1  0.72734200  0.99212700  0.57408900  1
  Ni  Ni15  1  0.27265800  0.00787300  0.42591100  1
  Ni  Ni16  1  0.00787300  0.42591100  0.27265800  1
  Ni  Ni17  1  0.93836400  0.93836400  0.93836400  1
  Ni  Ni18  1  0.57408900  0.72734200  0.99212700  1
  Ni  Ni19  1  0.33400600  0.81359800  0.64852300  1
  Ni  Ni20  1  0.81728400  0.72488400  0.55871000  1
  Ni  Ni21  1  0.44129000  0.18271600  0.27511600  1
  Ni  Ni22  1  0.35147700  0.66599400  0.18640200  1
  Ni  Ni23  1  0.18271600  0.27511600  0.44129000  1
  Ni  Ni24  1  0.34801400  0.74310200  0.41463700  1
  Ni  Ni25  1  0.58536300  0.65198600  0.25689800  1
  Ni  Ni26  1  0.27511600  0.44129000  0.18271600  1
  Ni  Ni27  1  0.25689800  0.58536300  0.65198600  1
  Ni  Ni28  1  0.11239000  0.72101300  0.84519600  1
  Ni  Ni29  1  0.15480400  0.88761000  0.27898700  1
  Ni  Ni30  1  0.65198600  0.25689800  0.58536300  1
  Ni  Ni31  1  0.27898700  0.15480400  0.88761000  1
loop_
_geom_bond_atom_site_label_1
_geom_bond_atom_site_label_2
_geom_bond_distance
_geom_bond_site_symmetry_2
U0 U21 2.773558 1_555
U0 U14 2.969071 1_655
U0 U4 3.005167 1_555
U0 U8 3.380867 1_555
U1 U6 2.773558 1_555
U1 U11 2.969071 1_554
U1 U2 3.005167 1_555
U1 U9 3.380867 1_555
U2 U4 2.956681 1_555
U2 U7 3.005167 1_555
U3 U5 2.678671 1_564
U5 U6 2.855361 1_556
U5 U7 3.380867 1_555
U10 U8 2.825605 1_455
U10 U12 2.825605 1_554
U10 U3 2.825605 1_545
U11 U20 2.773558 1_555
U11 U4 3.005167 1_555
U11 U12 3.380867 1_555
U12 U9 2.678671 1_456
U12 U21 2.855361 1_455
U13 U7 2.773557 1_555
U13 U20 2.822383 1_545
U13 U21 2.822383 1_455
U13 U15 2.855361 1_545
U14 U19 2.773558 1_555
U14 U2 3.005167 1_555
U14 U15 3.380867 1_555
U15 U8 2.678671 1_465
U15 U17 2.825605 1_455
U16 U18 2.773557 1_555
U16 U7 2.969071 1_565
U16 U4 3.005167 1_555
U16 U3 3.380867 1_555
U17 U9 2.825605 1_556
U17 U5 2.825605 1_565
U18 U6 2.822383 1_565
U18 U19 2.822383 1_655
U18 U8 2.855361 1_565
U19 U20 2.822383 1_554
U19 U9 2.855361 1_455
U20 U3 2.855361 1_556
U21 U6 2.822383 1_556
Ni0 Ni30 2.462720 1_555
Ni0 Ni17 2.520715 1_545
Ni0 Ni2 2.633357 1_555
Ni0 Ni14 2.641643 1_545
Ni0 U5 2.660462 1_555
Ni0 U21 2.749739 1_555
Ni0 U13 2.801617 1_655
Ni0 U8 2.848888 1_555
Ni0 U17 2.940802 1_545
Ni0 U0 2.944248 1_555
Ni0 U15 2.951481 1_645
Ni1 Ni27 2.483469 1_655
Ni1 Ni6 2.520887 1_555
Ni1 Ni3 2.536291 1_655
Ni1 Ni20 2.547938 1_555
Ni1 U17 2.619359 1_555
Ni1 Ni28 2.641644 1_655
Ni1 U12 2.685804 1_655
Ni1 U14 2.844807 1_655
Ni1 U0 2.879744 1_555
Ni1 U21 2.892929 1_555
Ni1 U15 2.989667 1_655
Ni1 U9 3.060674 1_556
Ni2 Ni6 2.467410 1_555
Ni2 Ni30 2.482674 1_555
Ni2 U6 2.690017 1_556
Ni2 U5 2.803126 1_555
Ni2 U21 2.853543 1_555
Ni2 U0 2.869543 1_555
Ni2 U11 2.886907 1_555
Ni2 U4 2.904451 1_555
Ni2 U1 3.102976 1_556
Ni3 Ni31 2.633357 1_555
Ni3 U21 2.690017 1_455
Ni3 U12 2.803126 1_555
Ni3 U13 2.853543 1_555
Ni3 U7 2.869543 1_555
Ni3 U14 2.886907 1_555
Ni3 U2 2.904451 1_555
Ni3 U0 3.102976 1_455
Ni4 Ni6 2.656812 1_555
Ni4 U17 2.660573 1_555
Ni4 U16 2.862587 1_555
Ni4 U11 2.891362 1_555
Ni4 U7 2.946166 1_565
Ni4 U20 2.954690 1_555
Ni4 U4 3.047692 1_555
Ni4 U5 3.076058 1_565
Ni5 Ni8 2.462720 1_555
Ni5 Ni9 2.633357 1_555
Ni5 U8 2.660463 1_555
Ni5 U6 2.749739 1_555
Ni5 U21 2.801617 1_554
Ni5 U9 2.848888 1_555
Ni5 U10 2.940802 1_655
Ni5 U1 2.944248 1_555
Ni5 U12 2.951481 1_654
Ni6 U17 2.660573 1_555
Ni6 U11 2.862587 1_555
Ni6 U0 2.891362 1_555
Ni6 U1 2.946166 1_556
Ni6 U21 2.954691 1_555
Ni6 U4 3.047692 1_555
Ni6 U9 3.076058 1_556
Ni7 Ni8 2.474854 1_555
Ni7 U19 2.690017 1_655
Ni7 U9 2.803126 1_555
Ni7 U18 2.853543 1_555
Ni7 U16 2.869543 1_555
Ni7 U0 2.886907 1_555
Ni7 U4 2.904451 1_555
Ni7 U14 3.102976 1_655
Ni8 Ni9 2.482674 1_555
Ni8 U4 2.863850 1_555
Ni8 U0 2.872898 1_555
Ni8 U2 2.904210 1_555
Ni8 U1 2.980486 1_555
Ni8 U8 2.980543 1_555
Ni8 U9 3.033434 1_555
Ni9 U18 2.690017 1_545
Ni9 U8 2.803126 1_555
Ni9 U6 2.853543 1_555
Ni9 U1 2.869543 1_555
Ni9 U7 2.886906 1_555
Ni9 U2 2.904452 1_555
Ni9 U16 3.102976 1_545
Ni10 Ni31 2.462720 1_555
Ni10 Ni2 2.474854 1_555
Ni10 Ni30 2.477336 1_555
Ni10 Ni27 2.477336 1_555
Ni10 Ni3 2.482674 1_555
Ni10 Ni11 2.483469 1_556
Ni10 U4 2.863850 1_555
Ni10 U11 2.872898 1_555
Ni10 U2 2.904210 1_555
Ni10 U7 2.980486 1_555
Ni10 U12 2.980543 1_555
Ni10 U5 3.033435 1_555
Ni11 Ni21 2.520887 1_555
Ni11 Ni2 2.536291 1_554
Ni11 Ni26 2.547938 1_555
Ni11 U10 2.619358 1_555
Ni11 Ni31 2.641643 1_554
Ni11 U5 2.685804 1_554
Ni11 U11 2.844807 1_554
Ni11 U1 2.879743 1_555
Ni11 U6 2.892928 1_555
Ni11 U12 2.989667 1_554
Ni11 U3 3.060674 1_545
Ni12 Ni25 2.462720 1_555
Ni12 Ni17 2.520714 1_554
Ni12 Ni7 2.633357 1_555
Ni12 Ni18 2.641643 1_554
Ni12 U9 2.660463 1_555
Ni12 U18 2.749739 1_555
Ni12 U6 2.801618 1_565
Ni12 U3 2.848888 1_555
Ni12 U17 2.940802 1_554
Ni12 U16 2.944248 1_555
Ni12 U5 2.951481 1_564
Ni13 Ni31 2.520714 1_554
Ni13 Ni29 2.520715 1_545
Ni13 Ni5 2.520715 1_455
Ni13 Ni17 2.530697 1_444
Ni13 U10 2.713572 1_555
Ni13 U18 2.726844 1_445
Ni13 U21 2.726844 1_454
Ni13 U20 2.726844 1_544
Ni14 Ni30 2.483470 1_565
Ni14 Ni20 2.520887 1_555
Ni14 Ni9 2.536291 1_565
Ni14 Ni4 2.547938 1_555
Ni14 U17 2.619358 1_555
Ni14 U8 2.685804 1_565
Ni14 U7 2.844807 1_565
Ni14 U16 2.879743 1_555
Ni14 U18 2.892928 1_555
Ni14 U5 2.989667 1_565
Ni14 U15 3.060674 1_655
Ni15 Ni24 2.483470 1_545
Ni15 Ni23 2.520887 1_555
Ni15 Ni19 2.536291 1_545
Ni15 Ni21 2.547938 1_555
Ni15 U10 2.619358 1_555
Ni15 Ni29 2.641643 1_545
Ni15 U15 2.685804 1_545
Ni15 U16 2.844807 1_545
Ni15 U7 2.879743 1_555
Ni15 U13 2.892928 1_555
Ni15 U3 2.989667 1_545
Ni15 U8 3.060674 1_455
Ni16 Ni8 2.483469 1_455
Ni16 Ni26 2.520887 1_555
Ni16 Ni7 2.536291 1_455
Ni16 Ni23 2.547938 1_555
Ni16 U10 2.619359 1_555
Ni16 Ni5 2.641644 1_455
Ni16 U9 2.685804 1_455
Ni16 U0 2.844807 1_455
Ni16 U14 2.879744 1_555
Ni16 U19 2.892929 1_555
Ni16 U8 2.989667 1_455
Ni16 U12 3.060674 1_554
Ni17 Ni28 2.520715 1_655
Ni17 U17 2.713572 1_555
Ni17 U13 2.726844 1_665
Ni17 U19 2.726844 1_656
Ni17 U6 2.726844 1_566
Ni18 Ni25 2.483469 1_556
Ni18 Ni4 2.520887 1_555
Ni18 Ni22 2.536291 1_556
Ni18 Ni6 2.547938 1_555
Ni18 U17 2.619358 1_555
Ni18 U3 2.685804 1_556
Ni18 U1 2.844807 1_556
Ni18 U11 2.879743 1_555
Ni18 U20 2.892928 1_555
Ni18 U9 2.989667 1_556
Ni18 U5 3.060674 1_565
Ni19 Ni4 2.467410 1_555
Ni19 Ni24 2.474854 1_555
Ni19 Ni27 2.482674 1_555
Ni19 Ni28 2.633357 1_555
Ni19 U13 2.690017 1_565
Ni19 U15 2.803126 1_555
Ni19 U20 2.853543 1_555
Ni19 U11 2.869543 1_555
Ni19 U16 2.886906 1_555
Ni19 U4 2.904452 1_555
Ni19 U7 3.102976 1_565
Ni20 Ni7 2.467410 1_555
Ni20 Ni6 2.656811 1_555
Ni20 Ni4 2.656811 1_555
Ni20 U17 2.660573 1_555
Ni20 U0 2.862587 1_555
Ni20 U16 2.891362 1_555
Ni20 U14 2.946166 1_655
Ni20 U18 2.954690 1_555
Ni20 U4 3.047692 1_555
Ni20 U15 3.076058 1_655
Ni21 Ni9 2.467410 1_555
Ni21 Ni23 2.656811 1_555
Ni21 Ni26 2.656812 1_555
Ni21 U10 2.660573 1_555
Ni21 U7 2.862587 1_555
Ni21 U1 2.891362 1_555
Ni21 U16 2.946166 1_545
Ni21 U6 2.954690 1_555
Ni21 U2 3.047692 1_555
Ni21 U3 3.076058 1_545
Ni22 Ni26 2.467410 1_555
Ni22 Ni25 2.474854 1_555
Ni22 Ni24 2.482674 1_555
Ni22 Ni29 2.633357 1_555
Ni22 U20 2.690017 1_554
Ni22 U3 2.803126 1_555
Ni22 U19 2.853543 1_555
Ni22 U14 2.869543 1_555
Ni22 U1 2.886907 1_555
Ni22 U2 2.904451 1_555
Ni22 U11 3.102976 1_554
Ni23 Ni3 2.467410 1_555
Ni23 Ni26 2.656811 1_555
Ni23 U10 2.660573 1_555
Ni23 U14 2.862587 1_555
Ni23 U7 2.891362 1_555
Ni23 U0 2.946166 1_455
Ni23 U13 2.954690 1_555
Ni23 U2 3.047692 1_555
Ni23 U8 3.076058 1_455
Ni24 Ni29 2.462720 1_555
Ni24 Ni27 2.477336 1_555
Ni24 Ni25 2.477336 1_555
Ni24 U4 2.863850 1_555
Ni24 U16 2.872898 1_555
Ni24 U2 2.904210 1_555
Ni24 U14 2.980486 1_555
Ni24 U3 2.980543 1_555
Ni24 U15 3.033434 1_555
Ni25 Ni8 2.477336 1_555
Ni25 Ni7 2.482674 1_555
Ni25 U2 2.863850 1_555
Ni25 U1 2.872898 1_555
Ni25 U4 2.904210 1_555
Ni25 U16 2.980486 1_555
Ni25 U9 2.980543 1_555
Ni25 U3 3.033435 1_555
Ni26 U10 2.660573 1_555
Ni26 U1 2.862587 1_555
Ni26 U14 2.891362 1_555
Ni26 U11 2.946166 1_554
Ni26 U19 2.954691 1_555
Ni26 U2 3.047692 1_555
Ni26 U12 3.076058 1_554
Ni27 Ni28 2.462720 1_555
Ni27 Ni3 2.474854 1_555
Ni27 U2 2.863850 1_555
Ni27 U14 2.872898 1_555
Ni27 U4 2.904210 1_555
Ni27 U11 2.980486 1_555
Ni27 U15 2.980543 1_555
Ni27 U12 3.033434 1_555
Ni28 U15 2.660463 1_555
Ni28 U20 2.749739 1_555
Ni28 U19 2.801617 1_556
Ni28 U12 2.848888 1_555
Ni28 U17 2.940802 1_455
Ni28 U11 2.944248 1_555
Ni28 U9 2.951481 1_456
Ni29 U3 2.660462 1_555
Ni29 U19 2.749739 1_555
Ni29 U18 2.801617 1_455
Ni29 U15 2.848888 1_555
Ni29 U10 2.940802 1_565
Ni29 U14 2.944248 1_555
Ni29 U8 2.951481 1_465
Ni30 Ni9 2.474854 1_555
Ni30 Ni8 2.477336 1_555
Ni30 U2 2.863850 1_555
Ni30 U7 2.872898 1_555
Ni30 U4 2.904210 1_555
Ni30 U0 2.980486 1_555
Ni30 U5 2.980543 1_555
Ni30 U8 3.033434 1_555
Ni31 U12 2.660463 1_555
Ni31 U13 2.749739 1_555
Ni31 U20 2.801618 1_545
Ni31 U5 2.848888 1_555
Ni31 U10 2.940802 1_556
Ni31 U7 2.944248 1_555
Ni31 U3 2.951481 1_546
