# generated using pymatgen
data_Ca3Fe2Cl2O5
_symmetry_space_group_name_H-M   'P 1'
_cell_length_a   5.51451319
_cell_length_b   5.51433479
_cell_length_c   12.09564347
_cell_angle_alpha   90.00003567
_cell_angle_beta   76.82243354
_cell_angle_gamma   90.00007109
_symmetry_Int_Tables_number   1
_chemical_formula_structural   Ca3Fe2Cl2O5
_chemical_formula_sum   'Ca6 Fe4 Cl4 O10'
_cell_volume   358.12965927
_cell_formula_units_Z   2
loop_
 _symmetry_equiv_pos_site_id
 _symmetry_equiv_pos_as_xyz
  1  'x, y, z'
loop_
 _atom_site_type_symbol
 _atom_site_label
 _atom_site_symmetry_multiplicity
 _atom_site_fract_x
 _atom_site_fract_y
 _atom_site_fract_z
 _atom_site_occupancy
  Ca  Ca0  1  0.50000100  0.00000000  0.00000000  1
  Ca  Ca1  1  0.99999900  0.50000000  0.00000000  1
  Ca  Ca2  1  0.15251100  0.50000000  0.69498200  1
  Ca  Ca3  1  0.65251100  0.99999900  0.69498200  1
  Ca  Ca4  1  0.34749000  0.00000000  0.30501800  1
  Ca  Ca5  1  0.84748900  0.50000100  0.30501700  1
  Fe  Fe0  1  0.41872000  0.50000000  0.16257100  1
  Fe  Fe1  1  0.08127900  0.00000000  0.83742900  1
  Fe  Fe2  1  0.91872700  0.99999800  0.16255800  1
  Fe  Fe3  1  0.58127400  0.50000100  0.83744200  1
  Cl  Cl0  1  0.29775800  0.50000100  0.40449600  1
  Cl  Cl1  1  0.79775700  0.00000000  0.40449800  1
  Cl  Cl2  1  0.20224200  0.00000100  0.59550500  1
  Cl  Cl3  1  0.70224400  0.50000000  0.59550200  1
  O  O0  1  0.49999500  0.50000000  0.00000800  1
  O  O1  1  0.00000400  0.00000000  0.99999200  1
  O  O2  1  0.34219700  0.24999800  0.81563200  1
  O  O3  1  0.84219400  0.74999600  0.81563300  1
  O  O4  1  0.84219400  0.25000300  0.81563200  1
  O  O5  1  0.34219600  0.75000100  0.81563200  1
  O  O6  1  0.15780300  0.25000200  0.18436800  1
  O  O7  1  0.65780500  0.75000400  0.18436800  1
  O  O8  1  0.65780600  0.24999700  0.18436700  1
  O  O9  1  0.15780400  0.74999800  0.18436800  1
loop_
_geom_bond_atom_site_label_1
_geom_bond_atom_site_label_2
_geom_bond_distance
_geom_bond_site_symmetry_2
Ca0 O0 2.757167 1_555
Ca0 O0 2.757167 1_545
Ca0 O1 2.757251 1_654
Ca0 O1 2.757262 1_554
Ca0 O8 2.918149 1_555
Ca0 O7 2.918156 1_545
Ca0 O2 2.918161 1_554
Ca0 O5 2.918164 1_544
Ca0 O3 2.918191 1_544
Ca0 O4 2.918195 1_554
Ca0 O9 2.918203 1_545
Ca0 O6 2.918206 1_555
Ca1 O1 2.757167 1_654
Ca1 O1 2.757167 1_664
Ca1 O0 2.757257 1_555
Ca1 O0 2.757257 1_655
Ca1 O3 2.918148 1_554
Ca1 O4 2.918159 1_554
Ca1 O6 2.918161 1_655
Ca1 O9 2.918161 1_655
Ca1 O8 2.918188 1_555
Ca1 O5 2.918200 1_654
Ca1 O7 2.918201 1_555
Ca1 O2 2.918206 1_654
Ca2 O4 2.412441 1_455
Ca2 O3 2.412444 1_455
Ca2 O5 2.412535 1_555
Ca2 O2 2.412543 1_555
Ca2 Cl2 2.995744 1_555
Ca2 Cl2 2.995755 1_565
Ca2 Cl3 2.995793 1_555
Ca2 Cl3 2.995897 1_455
Ca2 Cl0 3.421095 1_555
Ca3 O5 2.412437 1_555
Ca3 O2 2.412439 1_565
Ca3 O4 2.412538 1_565
Ca3 O3 2.412546 1_555
Ca3 Cl3 2.995758 1_555
Ca3 Cl3 2.995768 1_565
Ca3 Cl2 2.995776 1_665
Ca3 Cl2 2.995886 1_565
Ca3 Cl1 3.421072 1_565
Ca4 O7 2.412433 1_545
Ca4 O8 2.412443 1_555
Ca4 O9 2.412541 1_545
Ca4 O6 2.412547 1_555
Ca4 Cl0 2.995749 1_545
Ca4 Cl0 2.995758 1_555
Ca4 Cl1 2.995793 1_455
Ca4 Cl1 2.995897 1_555
Ca4 Cl2 3.421107 1_555
Ca5 O9 2.412429 1_655
Ca5 O6 2.412433 1_655
Ca5 O7 2.412532 1_555
Ca5 O8 2.412538 1_555
Ca5 Cl1 2.995762 1_565
Ca5 Cl1 2.995773 1_555
Ca5 Cl0 2.995781 1_555
Ca5 Cl0 2.995900 1_655
Ca5 Cl3 3.421084 1_555
Fe0 O0 1.914528 1_555
Fe0 O8 1.966423 1_555
Fe0 O7 1.966424 1_555
Fe0 O9 1.966529 1_555
Fe0 O6 1.966531 1_555
Fe1 O1 1.914528 1_555
Fe1 O3 1.966420 1_445
Fe1 O4 1.966423 1_455
Fe1 O2 1.966534 1_555
Fe1 O5 1.966537 1_545
Fe2 O1 1.914563 1_664
Fe2 O9 1.966425 1_655
Fe2 O6 1.966434 1_665
Fe2 O7 1.966529 1_555
Fe2 O8 1.966547 1_565
Fe3 O0 1.914563 1_556
Fe3 O5 1.966429 1_555
Fe3 O2 1.966434 1_555
Fe3 O3 1.966526 1_555
Fe3 O4 1.966539 1_555
Cl0 Fe0 2.849186 1_555
Cl1 Fe2 2.849362 1_545
Cl2 Fe1 2.849174 1_555
Cl3 Fe3 2.849362 1_555
