# generated using pymatgen
data_Gd2Zn17
_symmetry_space_group_name_H-M   'P 1'
_cell_length_a   6.71607316
_cell_length_b   6.71604822
_cell_length_c   6.71605742
_cell_angle_alpha   82.92080200
_cell_angle_beta   82.92208526
_cell_angle_gamma   82.92084497
_symmetry_Int_Tables_number   1
_chemical_formula_structural   Gd2Zn17
_chemical_formula_sum   'Gd2 Zn17'
_cell_volume   296.52953708
_cell_formula_units_Z   1
loop_
 _symmetry_equiv_pos_site_id
 _symmetry_equiv_pos_as_xyz
  1  'x, y, z'
loop_
 _atom_site_type_symbol
 _atom_site_label
 _atom_site_symmetry_multiplicity
 _atom_site_fract_x
 _atom_site_fract_y
 _atom_site_fract_z
 _atom_site_occupancy
  Gd  Gd0  1  0.66372581  0.66371627  0.66373859  1
  Gd  Gd1  1  0.33628175  0.33628336  0.33627213  1
  Zn  Zn0  1  0.35001846  0.35001042  0.83869015  1
  Zn  Zn1  1  0.29388776  0.70612347  0.99998040  1
  Zn  Zn2  1  0.00000943  0.29388892  0.70610618  1
  Zn  Zn3  1  0.34999859  0.83867932  0.34999908  1
  Zn  Zn4  1  0.64998686  0.64999352  0.16130164  1
  Zn  Zn5  1  0.83869647  0.35000916  0.35001645  1
  Zn  Zn6  1  0.70600011  -0.00000105  0.29399743  1
  Zn  Zn7  1  0.16129421  0.64999412  0.64999132  1
  Zn  Zn8  1  0.65000552  0.16131141  0.65000719  1
  Zn  Zn9  1  0.00000032  0.00000346  0.50000271  1
  Zn  Zn10  1  0.70611339  0.29387904  0.00000628  1
  Zn  Zn11  1  0.09922212  0.09922575  0.09921474  1
  Zn  Zn12  1  0.99998026  0.70611228  0.29389801  1
  Zn  Zn13  1  0.00000070  0.49999725  -0.00000129  1
  Zn  Zn14  1  0.90077708  0.90077168  0.90077971  1
  Zn  Zn15  1  0.50000060  0.00000344  -0.00000227  1
  Zn  Zn16  1  0.29400157  -0.00000281  0.70600156  1
loop_
_geom_bond_atom_site_label_1
_geom_bond_atom_site_label_2
_geom_bond_distance
_geom_bond_site_symmetry_2
Gd0 Zn14 3.078607 1_555
Gd0 Zn16 3.154220 1_565
Gd0 Zn6 3.154306 1_565
Gd0 Zn1 3.154694 1_555
Gd0 Zn10 3.154739 1_556
Gd0 Zn12 3.154752 1_555
Gd0 Zn2 3.154754 1_655
Gd0 Zn0 3.183123 1_555
Gd0 Zn5 3.183224 1_555
Gd0 Zn3 3.183345 1_555
Gd0 Zn4 3.321733 1_556
Gd0 Zn7 3.321772 1_655
Gd0 Zn8 3.321948 1_565
Gd0 Zn13 3.382673 1_656
Gd0 Zn15 3.382779 1_566
Gd0 Zn9 3.382865 1_665
Gd0 Zn8 3.399630 1_555
Gd0 Zn7 3.399838 1_555
Gd0 Zn4 3.399858 1_555
Gd1 Zn11 3.078723 1_555
Gd1 Zn6 3.154214 1_555
Gd1 Zn16 3.154270 1_555
Gd1 Zn10 3.154765 1_555
Gd1 Zn2 3.154797 1_555
Gd1 Zn12 3.154840 1_455
Gd1 Zn1 3.154857 1_554
Gd1 Zn4 3.183159 1_555
Gd1 Zn7 3.183250 1_555
Gd1 Zn8 3.183321 1_555
Gd1 Zn0 3.321859 1_554
Gd1 Zn5 3.321885 1_455
Gd1 Zn3 3.322013 1_545
Gd1 Zn13 3.382761 1_555
Gd1 Zn15 3.382810 1_555
Gd1 Zn9 3.382858 1_555
Gd1 Zn3 3.399562 1_555
Gd1 Zn5 3.399725 1_555
Gd1 Zn0 3.399733 1_555
Zn0 Zn8 2.531475 1_555
Zn0 Zn7 2.531549 1_555
Zn0 Zn15 2.602215 1_556
Zn0 Zn13 2.602322 1_556
Zn0 Zn2 2.697706 1_555
Zn0 Zn16 2.697856 1_555
Zn0 Zn10 2.711289 1_556
Zn0 Zn1 2.711331 1_555
Zn0 Zn11 2.825231 1_556
Zn1 Zn15 2.546617 1_566
Zn1 Zn13 2.546679 1_556
Zn1 Zn12 2.613928 1_456
Zn1 Zn16 2.614012 1_565
Zn1 Zn7 2.697622 1_555
Zn1 Zn3 2.697664 1_556
Zn1 Zn4 2.711331 1_556
Zn1 Zn14 2.913995 1_455
Zn1 Zn11 2.914059 1_566
Zn2 Zn9 2.546598 1_555
Zn2 Zn8 2.697620 1_455
Zn2 Zn5 2.711244 1_455
Zn2 Zn7 2.711267 1_555
Zn3 Zn4 2.531485 1_555
Zn3 Zn7 2.531519 1_555
Zn3 Zn9 2.602289 1_565
Zn3 Zn6 2.710770 1_565
Zn4 Zn5 2.531556 1_555
Zn4 Zn6 2.697823 1_565
Zn5 Zn8 2.531510 1_555
Zn5 Zn9 2.602208 1_655
Zn5 Zn6 2.697866 1_555
Zn6 Zn9 2.546803 1_655
Zn6 Zn8 2.710794 1_555
Zn7 Zn9 2.602209 1_565
Zn8 Zn9 2.602234 1_655
Zn10 Zn15 2.546583 1_555
Zn10 Zn13 2.546657 1_655
Zn10 Zn2 2.613799 1_654
Zn10 Zn6 2.614095 1_555
Zn10 Zn8 2.697572 1_554
Zn10 Zn5 2.697723 1_555
Zn10 Zn4 2.711357 1_555
Zn10 Zn11 2.914009 1_655
Zn10 Zn14 2.914070 1_544
Zn11 Zn14 2.577241 1_444
Zn11 Zn13 2.712572 1_555
Zn11 Zn15 2.712645 1_555
Zn11 Zn9 2.712703 1_555
Zn11 Zn3 2.825176 1_545
Zn11 Zn5 2.825251 1_455
Zn11 Zn2 2.914031 1_554
Zn11 Zn12 2.914174 1_445
Zn11 Zn16 2.914960 1_554
Zn11 Zn6 2.915020 1_455
Zn12 Zn9 2.546647 1_665
Zn12 Zn13 2.546694 1_655
Zn12 Zn6 2.614080 1_565
Zn12 Zn4 2.697641 1_555
Zn12 Zn3 2.697682 1_655
Zn12 Zn5 2.711251 1_555
Zn12 Zn7 2.711269 1_655
Zn12 Zn14 2.914062 1_554
Zn13 Zn2 2.546640 1_554
Zn13 Zn7 2.602248 1_554
Zn13 Zn4 2.602309 1_455
Zn13 Zn5 2.602310 1_455
Zn13 Zn14 2.712595 1_454
Zn14 Zn15 2.712643 1_566
Zn14 Zn9 2.712645 1_665
Zn14 Zn8 2.825088 1_565
Zn14 Zn7 2.825148 1_655
Zn14 Zn4 2.825172 1_556
Zn14 Zn2 2.914158 1_665
Zn14 Zn6 2.914979 1_566
Zn14 Zn16 2.915022 1_665
Zn15 Zn16 2.546753 1_554
Zn15 Zn6 2.546763 1_555
Zn15 Zn8 2.602207 1_554
Zn15 Zn4 2.602231 1_545
Zn15 Zn3 2.602298 1_545
Zn16 Zn9 2.546769 1_555
Zn16 Zn2 2.614156 1_555
Zn16 Zn7 2.697838 1_545
Zn16 Zn3 2.710766 1_545
Zn16 Zn8 2.710768 1_555
