# generated using pymatgen
data_ErB2Ir3
_symmetry_space_group_name_H-M   'P 1'
_cell_length_a   6.29245597
_cell_length_b   10.83128691
_cell_length_c   10.83267822
_cell_angle_alpha   60.00425245
_cell_angle_beta   89.99993072
_cell_angle_gamma   89.99985446
_symmetry_Int_Tables_number   1
_chemical_formula_structural   ErB2Ir3
_chemical_formula_sum   'Er8 B16 Ir24'
_cell_volume   639.41869271
_cell_formula_units_Z   8
loop_
 _symmetry_equiv_pos_site_id
 _symmetry_equiv_pos_as_xyz
  1  'x, y, z'
loop_
 _atom_site_type_symbol
 _atom_site_label
 _atom_site_symmetry_multiplicity
 _atom_site_fract_x
 _atom_site_fract_y
 _atom_site_fract_z
 _atom_site_occupancy
  Er  Er0_0  1  0.00000000  0.00000000  0.00000000  1
  Er  Er0_1  1  0.00000000  0.00000000  0.50000000  1
  Er  Er0_2  1  0.00000000  0.50000000  0.00000000  1
  Er  Er0_3  1  0.00000000  0.50000000  0.50000000  1
  Er  Er0_4  1  0.50000000  0.00000000  0.00000000  1
  Er  Er0_5  1  0.50000000  0.00000000  0.50000000  1
  Er  Er0_6  1  0.50000000  0.50000000  0.00000000  1
  Er  Er0_7  1  0.50000000  0.50000000  0.50000000  1
  B  B0_0  1  0.00000000  0.33333910  0.33332180  1
  B  B0_1  1  0.00000000  0.33333910  0.83332180  1
  B  B0_2  1  0.00000000  0.83333910  0.33332180  1
  B  B0_3  1  0.00000000  0.83333910  0.83332180  1
  B  B0_4  1  0.50000000  0.33333910  0.33332180  1
  B  B0_5  1  0.50000000  0.33333910  0.83332180  1
  B  B0_6  1  0.50000000  0.83333910  0.33332180  1
  B  B0_7  1  0.50000000  0.83333910  0.83332180  1
  B  B1_0  1  0.00000000  0.16666090  0.16667820  1
  B  B1_1  1  0.00000000  0.16666090  0.66667820  1
  B  B1_2  1  0.00000000  0.66666090  0.16667820  1
  B  B1_3  1  0.00000000  0.66666090  0.66667820  1
  B  B1_4  1  0.50000000  0.16666090  0.16667820  1
  B  B1_5  1  0.50000000  0.16666090  0.66667820  1
  B  B1_6  1  0.50000000  0.66666090  0.16667820  1
  B  B1_7  1  0.50000000  0.66666090  0.66667820  1
  Ir  Ir0_0  1  0.25000000  0.00000000  0.25000000  1
  Ir  Ir0_1  1  0.25000000  0.00000000  0.75000000  1
  Ir  Ir0_2  1  0.25000000  0.50000000  0.25000000  1
  Ir  Ir0_3  1  0.25000000  0.50000000  0.75000000  1
  Ir  Ir0_4  1  0.75000000  0.00000000  0.25000000  1
  Ir  Ir0_5  1  0.75000000  0.00000000  0.75000000  1
  Ir  Ir0_6  1  0.75000000  0.50000000  0.25000000  1
  Ir  Ir0_7  1  0.75000000  0.50000000  0.75000000  1
  Ir  Ir1_0  1  0.25000000  0.25000000  0.00000000  1
  Ir  Ir1_1  1  0.25000000  0.25000000  0.50000000  1
  Ir  Ir1_2  1  0.25000000  0.75000000  1.00000000  1
  Ir  Ir1_3  1  0.25000000  0.75000000  0.50000000  1
  Ir  Ir1_4  1  0.75000000  0.25000000  0.00000000  1
  Ir  Ir1_5  1  0.75000000  0.25000000  0.50000000  1
  Ir  Ir1_6  1  0.75000000  0.75000000  0.00000000  1
  Ir  Ir1_7  1  0.75000000  0.75000000  0.50000000  1
  Ir  Ir2_0  1  0.25000000  0.25000000  0.25000000  1
  Ir  Ir2_1  1  0.25000000  0.25000000  0.75000000  1
  Ir  Ir2_2  1  0.25000000  0.75000000  0.25000000  1
  Ir  Ir2_3  1  0.25000000  0.75000000  0.75000000  1
  Ir  Ir2_4  1  0.75000000  0.25000000  0.25000000  1
  Ir  Ir2_5  1  0.75000000  0.25000000  0.75000000  1
  Ir  Ir2_6  1  0.75000000  0.75000000  0.25000000  1
  Ir  Ir2_7  1  0.75000000  0.75000000  0.75000000  1
loop_
_geom_bond_atom_site_label_1
_geom_bond_atom_site_label_2
_geom_bond_distance
_geom_bond_site_symmetry_2
Er0_0 Ir1_4 3.131607 1_455
Er0_0 Ir1_2 3.131607 1_544
Er0_0 Ir1_6 3.131614 1_445
Er0_0 Ir1_0 3.131614 1_555
Er0_0 Ir2_5 3.131910 1_454
Er0_0 Ir2_2 3.131910 1_545
Er0_0 Ir0_1 3.131910 1_554
Er0_0 Ir0_4 3.131910 1_455
Er0_0 Ir0_5 3.131913 1_454
Er0_0 Ir0_0 3.131913 1_555
Er0_0 Ir2_1 3.131914 1_554
Er0_0 Ir2_6 3.131914 1_445
Er0_0 Er0_4 3.146228 1_455
Er0_0 Er0_4 3.146228 1_555
Er0_1 Ir1_5 3.131607 1_455
Er0_1 Ir1_3 3.131607 1_545
Er0_1 Ir1_1 3.131614 1_555
Er0_1 Ir1_7 3.131614 1_445
Er0_1 Ir2_4 3.131910 1_455
Er0_1 Ir2_3 3.131910 1_545
Er0_1 Ir0_0 3.131910 1_555
Er0_1 Ir0_5 3.131910 1_455
Er0_1 Ir0_4 3.131913 1_455
Er0_1 Ir0_1 3.131913 1_555
Er0_1 Ir2_0 3.131914 1_555
Er0_1 Ir2_7 3.131914 1_445
Er0_1 Er0_5 3.146228 1_555
Er0_1 Er0_5 3.146228 1_455
Er0_2 Ir1_0 3.131607 1_555
Er0_2 Ir1_6 3.131607 1_455
Er0_2 Ir1_4 3.131614 1_455
Er0_2 Ir1_2 3.131614 1_554
Er0_2 Ir2_7 3.131910 1_454
Er0_2 Ir2_0 3.131910 1_555
Er0_2 Ir0_6 3.131910 1_455
Er0_2 Ir0_3 3.131910 1_554
Er0_2 Ir0_2 3.131913 1_555
Er0_2 Ir0_7 3.131913 1_454
Er0_2 Ir2_3 3.131914 1_554
Er0_2 Ir2_4 3.131914 1_455
Er0_2 Er0_6 3.146228 1_455
Er0_2 Er0_6 3.146228 1_555
Er0_3 Ir1_7 3.131607 1_455
Er0_3 Ir1_1 3.131607 1_555
Er0_3 Ir1_3 3.131614 1_555
Er0_3 Ir1_5 3.131614 1_455
Er0_3 Ir2_6 3.131910 1_455
Er0_3 Ir2_1 3.131910 1_555
Er0_3 Ir0_2 3.131910 1_555
Er0_3 Ir0_7 3.131910 1_455
Er0_3 Ir0_6 3.131913 1_455
Er0_3 Ir0_3 3.131913 1_555
Er0_3 Ir2_2 3.131914 1_555
Er0_3 Ir2_5 3.131914 1_455
Er0_3 Er0_7 3.146228 1_455
Er0_3 Er0_7 3.146228 1_555
Er0_4 Ir1_0 3.131607 1_555
Er0_4 Ir1_6 3.131607 1_545
Er0_4 Ir1_4 3.131614 1_555
Er0_4 Ir1_2 3.131614 1_544
Er0_4 Ir2_1 3.131910 1_554
Er0_4 Ir2_6 3.131910 1_545
Er0_4 Ir0_5 3.131910 1_554
Er0_4 Ir0_0 3.131910 1_555
Er0_4 Ir0_1 3.131913 1_554
Er0_4 Ir0_4 3.131913 1_555
Er0_4 Ir2_2 3.131914 1_545
Er0_4 Ir2_5 3.131914 1_554
Er0_5 Ir1_1 3.131607 1_555
Er0_5 Ir1_7 3.131607 1_545
Er0_5 Ir1_5 3.131614 1_555
Er0_5 Ir1_3 3.131614 1_545
Er0_5 Ir2_0 3.131910 1_555
Er0_5 Ir2_7 3.131910 1_545
Er0_5 Ir0_4 3.131910 1_555
Er0_5 Ir0_1 3.131910 1_555
Er0_5 Ir0_0 3.131913 1_555
Er0_5 Ir0_5 3.131913 1_555
Er0_5 Ir2_4 3.131914 1_555
Er0_5 Ir2_3 3.131914 1_545
Er0_6 Ir1_2 3.131607 1_554
Er0_6 Ir1_4 3.131607 1_555
Er0_6 Ir1_0 3.131614 1_555
Er0_6 Ir1_6 3.131614 1_555
Er0_6 Ir2_3 3.131910 1_554
Er0_6 Ir2_4 3.131910 1_555
Er0_6 Ir0_2 3.131910 1_555
Er0_6 Ir0_7 3.131910 1_554
Er0_6 Ir0_6 3.131913 1_555
Er0_6 Ir0_3 3.131913 1_554
Er0_6 Ir2_7 3.131914 1_554
Er0_6 Ir2_0 3.131914 1_555
Er0_7 Ir1_5 3.131607 1_555
Er0_7 Ir1_3 3.131607 1_555
Er0_7 Ir1_1 3.131614 1_555
Er0_7 Ir1_7 3.131614 1_555
Er0_7 Ir2_5 3.131910 1_555
Er0_7 Ir2_2 3.131910 1_555
Er0_7 Ir0_3 3.131910 1_555
Er0_7 Ir0_6 3.131910 1_555
Er0_7 Ir0_7 3.131913 1_555
Er0_7 Ir0_2 3.131913 1_555
Er0_7 Ir2_1 3.131914 1_555
Er0_7 Ir2_6 3.131914 1_555
B0_0 Ir0_6 2.217840 1_455
B0_0 Ir2_0 2.217841 1_555
B0_0 Ir2_4 2.217845 1_455
B0_0 Ir0_2 2.217845 1_555
B0_0 Ir1_1 2.218099 1_555
B0_0 Ir1_5 2.218099 1_455
B0_0 Er0_3 3.126911 1_555
B0_0 Er0_1 3.126911 1_555
B0_0 Er0_2 3.127151 1_555
B0_1 Ir0_7 2.217840 1_455
B0_1 Ir2_1 2.217841 1_555
B0_1 Ir2_5 2.217845 1_455
B0_1 Ir0_3 2.217845 1_555
B0_1 Ir1_0 2.218099 1_556
B0_1 Ir1_4 2.218099 1_456
B0_1 Er0_2 3.126911 1_556
B0_1 Er0_0 3.126911 1_556
B0_1 Er0_3 3.127151 1_555
B0_2 Ir0_4 2.217840 1_465
B0_2 Ir2_2 2.217841 1_555
B0_2 Ir2_6 2.217845 1_455
B0_2 Ir0_0 2.217845 1_565
B0_2 Ir1_3 2.218099 1_555
B0_2 Ir1_7 2.218099 1_455
B0_2 Er0_1 3.126911 1_565
B0_2 Er0_3 3.126911 1_555
B0_2 Er0_0 3.127151 1_565
B0_3 Ir0_5 2.217840 1_465
B0_3 Ir2_3 2.217841 1_555
B0_3 Ir2_7 2.217845 1_455
B0_3 Ir0_1 2.217845 1_565
B0_3 Ir1_2 2.218099 1_555
B0_3 Ir1_6 2.218099 1_456
B0_3 Er0_0 3.126911 1_566
B0_3 Er0_2 3.126911 1_556
B0_3 Er0_1 3.127151 1_565
B0_4 Ir0_2 2.217840 1_555
B0_4 Ir2_4 2.217841 1_555
B0_4 Ir2_0 2.217845 1_555
B0_4 Ir0_6 2.217845 1_555
B0_4 Ir1_5 2.218099 1_555
B0_4 Ir1_1 2.218099 1_555
B0_4 Er0_7 3.126911 1_555
B0_4 Er0_5 3.126911 1_555
B0_4 Er0_6 3.127151 1_555
B0_5 Ir0_3 2.217840 1_555
B0_5 Ir2_5 2.217841 1_555
B0_5 Ir2_1 2.217845 1_555
B0_5 Ir0_7 2.217845 1_555
B0_5 Ir1_4 2.218099 1_556
B0_5 Ir1_0 2.218099 1_556
B0_5 Er0_6 3.126911 1_556
B0_5 Er0_4 3.126911 1_556
B0_5 Er0_7 3.127151 1_555
B0_6 Ir0_0 2.217840 1_565
B0_6 Ir2_6 2.217841 1_555
B0_6 Ir2_2 2.217845 1_555
B0_6 Ir0_4 2.217845 1_565
B0_6 Ir1_7 2.218099 1_555
B0_6 Ir1_3 2.218099 1_555
B0_6 Er0_5 3.126911 1_565
B0_6 Er0_7 3.126911 1_555
B0_6 Er0_4 3.127151 1_565
B0_7 Ir0_1 2.217840 1_565
B0_7 Ir2_7 2.217841 1_555
B0_7 Ir2_3 2.217845 1_555
B0_7 Ir0_5 2.217845 1_565
B0_7 Ir1_6 2.218099 1_556
B0_7 Ir1_2 2.218099 1_555
B0_7 Er0_4 3.126911 1_566
B0_7 Er0_6 3.126911 1_556
B0_7 Er0_5 3.127151 1_565
B1_0 Ir0_0 2.217840 1_555
B1_0 Ir2_4 2.217841 1_455
B1_0 Ir2_0 2.217845 1_555
B1_0 Ir0_4 2.217845 1_455
B1_0 Ir1_4 2.218099 1_455
B1_0 Ir1_0 2.218099 1_555
B1_0 Er0_0 3.126911 1_555
B1_0 Er0_2 3.126911 1_555
B1_0 Er0_1 3.127151 1_555
B1_1 Ir0_1 2.217840 1_555
B1_1 Ir2_5 2.217841 1_455
B1_1 Ir2_1 2.217845 1_555
B1_1 Ir0_5 2.217845 1_455
B1_1 Ir1_5 2.218099 1_455
B1_1 Ir1_1 2.218099 1_555
B1_1 Er0_1 3.126911 1_555
B1_1 Er0_3 3.126911 1_555
B1_1 Er0_0 3.127151 1_556
B1_2 Ir0_2 2.217840 1_555
B1_2 Ir2_6 2.217841 1_455
B1_2 Ir2_2 2.217845 1_555
B1_2 Ir0_6 2.217845 1_455
B1_2 Ir1_6 2.218099 1_455
B1_2 Ir1_2 2.218099 1_554
B1_2 Er0_2 3.126911 1_555
B1_2 Er0_0 3.126911 1_565
B1_2 Er0_3 3.127151 1_555
B1_3 Ir0_3 2.217840 1_555
B1_3 Ir2_7 2.217841 1_455
B1_3 Ir2_3 2.217845 1_555
B1_3 Ir0_7 2.217845 1_455
B1_3 Ir1_7 2.218099 1_455
B1_3 Ir1_3 2.218099 1_555
B1_3 Er0_3 3.126911 1_555
B1_3 Er0_1 3.126911 1_565
B1_3 Er0_2 3.127151 1_556
B1_4 Ir0_4 2.217840 1_555
B1_4 Ir2_0 2.217841 1_555
B1_4 Ir2_4 2.217845 1_555
B1_4 Ir0_0 2.217845 1_555
B1_4 Ir1_0 2.218099 1_555
B1_4 Ir1_4 2.218099 1_555
B1_4 Er0_4 3.126911 1_555
B1_4 Er0_6 3.126911 1_555
B1_4 Er0_5 3.127151 1_555
B1_5 Ir0_5 2.217840 1_555
B1_5 Ir2_1 2.217841 1_555
B1_5 Ir2_5 2.217845 1_555
B1_5 Ir0_1 2.217845 1_555
B1_5 Ir1_1 2.218099 1_555
B1_5 Ir1_5 2.218099 1_555
B1_5 Er0_5 3.126911 1_555
B1_5 Er0_7 3.126911 1_555
B1_5 Er0_4 3.127151 1_556
B1_6 Ir0_6 2.217840 1_555
B1_6 Ir2_2 2.217841 1_555
B1_6 Ir2_6 2.217845 1_555
B1_6 Ir0_2 2.217845 1_555
B1_6 Ir1_2 2.218099 1_554
B1_6 Ir1_6 2.218099 1_555
B1_6 Er0_6 3.126911 1_555
B1_6 Er0_4 3.126911 1_565
B1_6 Er0_7 3.127151 1_555
B1_7 Ir0_7 2.217840 1_555
B1_7 Ir2_3 2.217841 1_555
B1_7 Ir2_7 2.217845 1_555
B1_7 Ir0_3 2.217845 1_555
B1_7 Ir1_3 2.218099 1_555
B1_7 Ir1_7 2.218099 1_555
B1_7 Er0_7 3.126911 1_555
B1_7 Er0_5 3.126911 1_565
B1_7 Er0_6 3.127151 1_556
