# generated using pymatgen
data_NaYbP2O7
_symmetry_space_group_name_H-M   'P 1'
_cell_length_a   5.49439900
_cell_length_b   9.29718600
_cell_length_c   14.27382678
_cell_angle_alpha   63.89770026
_cell_angle_beta   90.00000000
_cell_angle_gamma   90.00000000
_symmetry_Int_Tables_number   1
_chemical_formula_structural   NaYbP2O7
_chemical_formula_sum   'Na4 Yb4 P8 O28'
_cell_volume   654.77677833
_cell_formula_units_Z   4
loop_
 _symmetry_equiv_pos_site_id
 _symmetry_equiv_pos_as_xyz
  1  'x, y, z'
loop_
 _atom_site_type_symbol
 _atom_site_label
 _atom_site_symmetry_multiplicity
 _atom_site_fract_x
 _atom_site_fract_y
 _atom_site_fract_z
 _atom_site_occupancy
  Na  Na0  1  0.72694900  0.55680700  0.30639600  1
  Na  Na1  1  0.27305100  0.44319300  0.69360400  1
  Na  Na2  1  0.22694900  0.44319300  0.19360400  1
  Na  Na3  1  0.77305100  0.55680700  0.80639600  1
  Yb  Yb0  1  0.26095000  0.25270500  0.47753100  1
  Yb  Yb1  1  0.76095000  0.74729500  0.02246900  1
  Yb  Yb2  1  0.73905000  0.74729500  0.52246900  1
  Yb  Yb3  1  0.23905000  0.25270500  0.97753100  1
  P  P0  1  0.75119600  0.18431800  0.34389100  1
  P  P1  1  0.21621200  0.68714600  0.38019400  1
  P  P2  1  0.71621200  0.31285400  0.11980600  1
  P  P3  1  0.28378800  0.68714600  0.88019400  1
  P  P4  1  0.78378800  0.31285400  0.61980600  1
  P  P5  1  0.24880400  0.81568200  0.65610900  1
  P  P6  1  0.25119600  0.81568200  0.15610900  1
  P  P7  1  0.74880400  0.18431800  0.84389100  1
  O  O0  1  0.48939400  0.72753100  0.66191600  1
  O  O1  1  0.29445900  0.52992400  0.37765600  1
  O  O2  1  0.44344900  0.31018500  0.10023700  1
  O  O3  1  0.70554100  0.47007600  0.62234400  1
  O  O4  1  0.25921900  0.98539000  0.07084600  1
  O  O5  1  0.72118200  0.17039000  0.73458000  1
  O  O6  1  0.87162700  0.27983200  0.04322800  1
  O  O7  1  0.98939400  0.27246900  0.83808400  1
  O  O8  1  0.27881800  0.82961000  0.26542000  1
  O  O9  1  0.74078100  0.01461000  0.92915400  1
  O  O10  1  0.46435400  0.71301500  0.14944800  1
  O  O11  1  0.03564600  0.71301500  0.64944800  1
  O  O12  1  0.53564600  0.28698500  0.85055200  1
  O  O13  1  0.94344900  0.68981500  0.39976300  1
  O  O14  1  0.75921900  0.01461000  0.42915400  1
  O  O15  1  0.01060600  0.72753100  0.16191600  1
  O  O16  1  0.24078100  0.98539000  0.57084600  1
  O  O17  1  0.77881800  0.17039000  0.23458000  1
  O  O18  1  0.62837300  0.27983200  0.54322800  1
  O  O19  1  0.22118200  0.82961000  0.76542000  1
  O  O20  1  0.20554100  0.52992400  0.87765600  1
  O  O21  1  0.51060600  0.27246900  0.33808400  1
  O  O22  1  0.96435400  0.28698500  0.35055200  1
  O  O23  1  0.79445900  0.47007600  0.12234400  1
  O  O24  1  0.12837300  0.72016800  0.95677200  1
  O  O25  1  0.37162700  0.72016800  0.45677200  1
  O  O26  1  0.05655100  0.31018500  0.60023700  1
  O  O27  1  0.55655100  0.68981500  0.89976300  1
loop_
_geom_bond_atom_site_label_1
_geom_bond_atom_site_label_2
_geom_bond_distance
_geom_bond_site_symmetry_2
Na0 O13 2.484041 1_555
Na0 O15 2.514156 1_655
Na0 O10 2.519252 1_555
Na0 O1 2.553436 1_555
Na0 O22 2.645829 1_555
Na0 O21 2.748399 1_555
Na1 O26 2.484041 1_555
Na1 O7 2.514156 1_455
Na1 O12 2.519252 1_555
Na1 O3 2.553436 1_555
Na1 O11 2.645829 1_555
Na1 O0 2.748399 1_555
Na2 O2 2.484041 1_555
Na2 O21 2.514156 1_555
Na2 O22 2.519252 1_455
Na2 O23 2.553436 1_455
Na2 O10 2.645829 1_555
Na2 O15 2.748399 1_555
Na3 O27 2.484041 1_555
Na3 O0 2.514156 1_555
Na3 O11 2.519252 1_655
Na3 O20 2.553436 1_655
Na3 O12 2.645829 1_555
Na3 O7 2.748399 1_555
O0 P5 1.538239 1_555
O0 Yb2 2.356985 1_555
O1 P1 1.539277 1_555
O1 Yb0 2.340046 1_555
O2 P2 1.526678 1_555
O2 Yb3 2.331985 1_554
O3 P4 1.539277 1_555
O3 Yb2 2.340046 1_555
O4 P6 1.510915 1_555
O4 Yb3 2.247245 1_564
O5 P4 1.627011 1_555
O5 P7 1.628522 1_555
O6 P2 1.521020 1_555
O6 Yb3 2.286158 1_654
O7 P7 1.538239 1_555
O7 Yb3 2.356985 1_655
O8 P1 1.627011 1_555
O8 P6 1.628522 1_555
O9 P7 1.510915 1_555
O9 Yb1 2.247245 1_546
O10 P6 1.540015 1_555
O10 Yb1 2.352444 1_555
O11 P5 1.540015 1_555
O11 Yb2 2.352444 1_455
O12 P7 1.540015 1_555
O12 Yb3 2.352444 1_555
O13 P1 1.526678 1_655
O13 Yb2 2.331985 1_555
O14 P0 1.510915 1_555
O14 Yb2 2.247245 1_545
O15 P6 1.538239 1_555
O15 Yb1 2.356985 1_455
O16 P5 1.510915 1_555
O16 Yb0 2.247245 1_565
O17 P2 1.627011 1_555
O17 P0 1.628522 1_555
O18 P4 1.521020 1_555
O18 Yb0 2.286158 1_555
O19 P3 1.627011 1_555
O19 P5 1.628522 1_555
O20 P3 1.539277 1_555
O20 Yb3 2.340046 1_555
O21 P0 1.538239 1_555
O21 Yb0 2.356985 1_555
O22 P0 1.540015 1_555
O22 Yb0 2.352444 1_655
O23 P2 1.539277 1_555
O23 Yb1 2.340046 1_555
O24 P3 1.521020 1_555
O24 Yb1 2.286158 1_456
O25 P1 1.521020 1_555
O25 Yb2 2.286158 1_555
O26 P4 1.526678 1_455
O26 Yb0 2.331985 1_555
O27 P3 1.526678 1_555
O27 Yb1 2.331985 1_556
