# generated using pymatgen
data_Yb11Ge10
_symmetry_space_group_name_H-M   'P 1'
_cell_length_a   11.56731533
_cell_length_b   11.56731533
_cell_length_c   11.56731533
_cell_angle_alpha   123.67185784
_cell_angle_beta   123.67185784
_cell_angle_gamma   83.74973608
_symmetry_Int_Tables_number   1
_chemical_formula_structural   Yb11Ge10
_chemical_formula_sum   'Yb22 Ge20'
_cell_volume   1026.98401482
_cell_formula_units_Z   2
loop_
 _symmetry_equiv_pos_site_id
 _symmetry_equiv_pos_as_xyz
  1  'x, y, z'
loop_
 _atom_site_type_symbol
 _atom_site_label
 _atom_site_symmetry_multiplicity
 _atom_site_fract_x
 _atom_site_fract_y
 _atom_site_fract_z
 _atom_site_occupancy
  Yb  Yb0  1  0.67981900  0.32018100  0.00000000  1
  Yb  Yb1  1  0.10483000  0.42259000  0.31776100  1
  Yb  Yb2  1  0.89517000  0.21293100  0.31776100  1
  Yb  Yb3  1  0.07265300  0.32173100  0.75092200  1
  Yb  Yb4  1  0.32018100  0.67981900  0.00000000  1
  Yb  Yb5  1  0.15732900  0.15732900  0.00000000  1
  Yb  Yb6  1  0.67826900  0.42919000  0.75092200  1
  Yb  Yb7  1  0.32018100  0.32018100  0.64036200  1
  Yb  Yb8  1  0.89517000  0.57741000  0.68223900  1
  Yb  Yb9  1  0.84267100  0.84267100  0.00000000  1
  Yb  Yb10  1  0.92734700  0.67826900  0.24907800  1
  Yb  Yb11  1  0.10483000  0.78706900  0.68223900  1
  Yb  Yb12  1  0.42919000  0.67826900  0.75092200  1
  Yb  Yb13  1  0.21293100  0.89517000  0.31776100  1
  Yb  Yb14  1  0.32173100  0.57081000  0.24907800  1
  Yb  Yb15  1  0.57741000  0.89517000  0.68223900  1
  Yb  Yb16  1  0.67981900  0.67981900  0.35963800  1
  Yb  Yb17  1  0.57081000  0.32173100  0.24907800  1
  Yb  Yb18  1  0.67826900  0.92734700  0.24907800  1
  Yb  Yb19  1  0.42259000  0.10483000  0.31776100  1
  Yb  Yb20  1  0.78706900  0.10483000  0.68223900  1
  Yb  Yb21  1  0.32173100  0.07265300  0.75092200  1
  Ge  Ge0  1  0.11937400  0.50000000  0.61937400  1
  Ge  Ge1  1  0.11756300  0.88243700  0.00000000  1
  Ge  Ge2  1  0.88243700  0.11756300  0.00000000  1
  Ge  Ge3  1  0.01665200  0.60384000  0.00000000  1
  Ge  Ge4  1  0.98334800  0.98334800  0.58718800  1
  Ge  Ge5  1  0.60384000  0.01665200  0.00000000  1
  Ge  Ge6  1  0.11756300  0.11756300  0.23512600  1
  Ge  Ge7  1  0.41460300  0.41460300  0.00000000  1
  Ge  Ge8  1  0.39616000  0.98334800  0.00000000  1
  Ge  Ge9  1  0.88243700  0.88243700  0.76487400  1
  Ge  Ge10  1  0.88062600  0.50000000  0.38062600  1
  Ge  Ge11  1  0.39616000  0.39616000  0.41281200  1
  Ge  Ge12  1  0.98334800  0.39616000  0.00000000  1
  Ge  Ge13  1  0.01665200  0.01665200  0.41281200  1
  Ge  Ge14  1  0.50000000  0.11937400  0.61937400  1
  Ge  Ge15  1  0.58539700  0.58539700  0.00000000  1
  Ge  Ge16  1  0.25000000  0.75000000  0.50000000  1
  Ge  Ge17  1  0.60384000  0.60384000  0.58718800  1
  Ge  Ge18  1  0.75000000  0.25000000  0.50000000  1
  Ge  Ge19  1  0.50000000  0.88062600  0.38062600  1
loop_
_geom_bond_atom_site_label_1
_geom_bond_atom_site_label_2
_geom_bond_distance
_geom_bond_site_symmetry_2
Ge0 Ge10 2.607009 1_455
Ge0 Yb7 2.943374 1_555
Ge0 Yb4 2.943374 1_556
Ge0 Yb1 2.986639 1_555
Ge0 Yb11 2.986643 1_555
Ge0 Yb2 2.986643 1_455
Ge0 Yb8 2.986644 1_455
Ge0 Yb12 3.390227 1_555
Ge0 Yb3 3.390237 1_555
Ge1 Ge9 2.567458 1_454
Ge1 Ge6 2.567458 1_565
Ge1 Yb19 3.112517 1_565
Ge1 Yb8 3.112517 1_454
Ge1 Yb11 3.112524 1_554
Ge1 Yb13 3.112524 1_555
Ge1 Yb4 3.128929 1_555
Ge1 Yb5 3.262048 1_565
Ge1 Yb9 3.262048 1_455
Ge2 Ge9 2.567458 1_544
Ge2 Ge6 2.567458 1_655
Ge2 Yb1 3.112517 1_655
Ge2 Yb15 3.112517 1_544
Ge2 Yb20 3.112524 1_554
Ge2 Yb2 3.112524 1_555
Ge2 Yb0 3.128929 1_555
Ge2 Yb5 3.262048 1_655
Ge2 Yb9 3.262048 1_545
Ge3 Yb13 2.949317 1_555
Ge3 Yb8 2.949323 1_454
Ge3 Yb10 3.235051 1_455
Ge3 Yb6 3.235054 1_454
Ge3 Yb9 3.235996 1_455
Ge3 Yb14 3.248566 1_555
Ge3 Yb3 3.248572 1_554
Ge3 Yb4 3.711003 1_555
Ge4 Yb11 2.949317 1_655
Ge4 Yb20 2.949317 1_565
Ge4 Yb21 3.235051 1_665
Ge4 Yb3 3.235051 1_665
Ge4 Yb5 3.235996 1_666
Ge4 Yb18 3.248572 1_555
Ge4 Yb10 3.248572 1_555
Ge4 Yb16 3.711003 1_555
Ge5 Ge8 2.474058 1_545
Ge5 Yb2 2.949317 1_555
Ge5 Yb15 2.949323 1_544
Ge5 Yb18 3.235051 1_545
Ge5 Yb12 3.235054 1_544
Ge5 Yb9 3.235996 1_545
Ge5 Yb17 3.248566 1_555
Ge5 Yb21 3.248572 1_554
Ge5 Yb0 3.711003 1_555
Ge6 Yb19 3.112513 1_555
Ge6 Yb1 3.112513 1_555
Ge6 Yb2 3.112524 1_455
Ge6 Yb13 3.112524 1_545
Ge6 Yb7 3.128929 1_555
Ge6 Yb9 3.262048 1_445
Ge6 Yb5 3.262048 1_555
Ge7 Yb4 3.142443 1_555
Ge7 Yb0 3.142443 1_555
Ge7 Yb16 3.142443 1_555
Ge7 Yb7 3.142443 1_554
Ge7 Yb3 3.155439 1_554
Ge7 Yb21 3.155439 1_554
Ge7 Yb14 3.155440 1_555
Ge7 Yb17 3.155440 1_555
Ge8 Yb11 2.949317 1_554
Ge8 Yb19 2.949323 1_565
Ge8 Yb21 3.235051 1_564
Ge8 Yb17 3.235054 1_565
Ge8 Yb5 3.235996 1_565
Ge8 Yb12 3.248566 1_554
Ge8 Yb18 3.248572 1_555
Ge8 Yb4 3.711003 1_555
Ge9 Yb15 3.112513 1_555
Ge9 Yb8 3.112513 1_555
Ge9 Yb20 3.112524 1_565
Ge9 Yb11 3.112524 1_655
Ge9 Yb16 3.128929 1_555
Ge9 Yb5 3.262048 1_666
Ge9 Yb9 3.262048 1_556
Ge10 Yb16 2.943374 1_555
Ge10 Yb0 2.943374 1_555
Ge10 Yb8 2.986639 1_555
Ge10 Yb2 2.986643 1_555
Ge10 Yb11 2.986643 1_655
Ge10 Yb1 2.986644 1_655
Ge10 Yb17 3.390227 1_555
Ge10 Yb10 3.390237 1_555
Ge11 Ge17 2.474058 1_555
Ge11 Yb19 2.949315 1_555
Ge11 Yb1 2.949315 1_555
Ge11 Yb14 3.235062 1_555
Ge11 Yb17 3.235062 1_555
Ge11 Yb5 3.235996 1_555
Ge11 Yb6 3.248577 1_555
Ge11 Yb12 3.248577 1_555
Ge11 Yb7 3.711003 1_555
Ge12 Ge3 2.474058 1_655
Ge12 Yb20 2.949317 1_554
Ge12 Yb1 2.949323 1_655
Ge12 Yb3 3.235051 1_654
Ge12 Yb14 3.235054 1_655
Ge12 Yb5 3.235996 1_655
Ge12 Yb6 3.248566 1_554
Ge12 Yb10 3.248572 1_555
Ge12 Yb0 3.711003 1_555
Ge13 Ge4 2.474058 1_445
Ge13 Yb13 2.949317 1_545
Ge13 Yb2 2.949317 1_455
Ge13 Yb10 3.235051 1_445
Ge13 Yb18 3.235051 1_445
Ge13 Yb9 3.235996 1_445
Ge13 Yb21 3.248572 1_555
Ge13 Yb3 3.248572 1_555
Ge13 Yb7 3.711003 1_555
Ge14 Ge19 2.607009 1_545
Ge14 Yb7 2.943374 1_555
Ge14 Yb0 2.943374 1_556
Ge14 Yb19 2.986639 1_555
Ge14 Yb20 2.986643 1_555
Ge14 Yb13 2.986643 1_545
Ge14 Yb15 2.986644 1_545
Ge14 Yb6 3.390227 1_555
Ge14 Yb21 3.390237 1_555
Ge15 Ge7 2.942123 1_555
Ge15 Yb4 3.142443 1_555
Ge15 Yb0 3.142443 1_555
Ge15 Yb16 3.142443 1_555
Ge15 Yb7 3.142443 1_554
Ge15 Yb10 3.155439 1_555
Ge15 Yb18 3.155439 1_555
Ge15 Yb6 3.155440 1_554
Ge15 Yb12 3.155440 1_554
Ge16 Yb12 3.005679 1_555
Ge16 Yb14 3.005679 1_555
Ge16 Yb10 3.005680 1_455
Ge16 Yb21 3.005680 1_565
Ge16 Yb13 3.195862 1_555
Ge16 Yb11 3.195862 1_555
Ge16 Yb15 3.195872 1_555
Ge16 Yb1 3.195872 1_555
Ge17 Yb8 2.949315 1_555
Ge17 Yb15 2.949315 1_555
Ge17 Yb12 3.235062 1_555
Ge17 Yb6 3.235062 1_555
Ge17 Yb9 3.235996 1_556
Ge17 Yb17 3.248577 1_555
Ge17 Yb14 3.248577 1_555
Ge17 Yb16 3.711003 1_555
Ge18 Yb6 3.005679 1_555
Ge18 Yb17 3.005679 1_555
Ge18 Yb18 3.005680 1_545
Ge18 Yb3 3.005680 1_655
Ge18 Yb2 3.195862 1_555
Ge18 Yb20 3.195862 1_555
Ge18 Yb8 3.195872 1_555
Ge18 Yb19 3.195872 1_555
Ge19 Yb16 2.943374 1_555
Ge19 Yb4 2.943374 1_555
Ge19 Yb15 2.986639 1_555
Ge19 Yb20 2.986643 1_565
Ge19 Yb13 2.986643 1_555
Ge19 Yb19 2.986644 1_565
Ge19 Yb14 3.390227 1_555
Ge19 Yb18 3.390237 1_555
