# generated using pymatgen
data_Ca2As4Xe5F34
_symmetry_space_group_name_H-M   'P 1'
_cell_length_a   23.70783200
_cell_length_b   8.53278500
_cell_length_c   8.74619659
_cell_angle_alpha   62.80979802
_cell_angle_beta   90.00000000
_cell_angle_gamma   90.00000000
_symmetry_Int_Tables_number   1
_chemical_formula_structural   Ca2As4Xe5F34
_chemical_formula_sum   'Ca4 As8 Xe10 F68'
_cell_volume   1573.78412094
_cell_formula_units_Z   2
loop_
 _symmetry_equiv_pos_site_id
 _symmetry_equiv_pos_as_xyz
  1  'x, y, z'
loop_
 _atom_site_type_symbol
 _atom_site_label
 _atom_site_symmetry_multiplicity
 _atom_site_fract_x
 _atom_site_fract_y
 _atom_site_fract_z
 _atom_site_occupancy
  Ca  Ca0  1  0.88731700  0.58305500  0.83703600  1
  Ca  Ca1  1  0.61268300  0.58305500  0.33703600  1
  Ca  Ca2  1  0.11268300  0.41694500  0.16296400  1
  Ca  Ca3  1  0.38731700  0.41694500  0.66296400  1
  As  As0  1  0.51227600  0.66152900  0.67831300  1
  As  As1  1  0.82622300  0.19083800  0.29687500  1
  As  As2  1  0.98772400  0.66152900  0.17831300  1
  As  As3  1  0.01227600  0.33847100  0.82168700  1
  As  As4  1  0.67377700  0.19083800  0.79687500  1
  As  As5  1  0.48772400  0.33847100  0.32168700  1
  As  As6  1  0.32622300  0.80916200  0.20312500  1
  As  As7  1  0.17377700  0.80916200  0.70312500  1
  Xe  Xe0  1  0.64890100  0.07445800  0.35045600  1
  Xe  Xe1  1  0.29029500  0.35075900  0.08188800  1
  Xe  Xe2  1  0.79029500  0.64924100  0.41811200  1
  Xe  Xe3  1  0.70970500  0.64924100  0.91811200  1
  Xe  Xe4  1  0.00000000  0.00000000  0.50000000  1
  Xe  Xe5  1  0.20970500  0.35075900  0.58188800  1
  Xe  Xe6  1  0.35109900  0.92554200  0.64954400  1
  Xe  Xe7  1  0.85109900  0.07445800  0.85045600  1
  Xe  Xe8  1  0.50000000  0.00000000  0.00000000  1
  Xe  Xe9  1  0.14890100  0.92554200  0.14954400  1
  F  F0  1  0.34609800  0.19526300  0.58006900  1
  F  F1  1  0.52345300  0.55005500  0.21771800  1
  F  F2  1  0.28154700  0.86951200  0.32960500  1
  F  F3  1  0.61885300  0.06834100  0.76707800  1
  F  F4  1  0.64680000  0.34246800  0.27981300  1
  F  F5  1  0.02345300  0.44994500  0.28228200  1
  F  F6  1  0.34836300  0.61614800  0.39957000  1
  F  F7  1  0.95488400  0.86637800  0.06438200  1
  F  F8  1  0.78173200  0.62569600  0.79240600  1
  F  F9  1  0.78154700  0.13048800  0.17039500  1
  F  F10  1  0.04511600  0.13362200  0.93561800  1
  F  F11  1  0.13828300  0.31957000  0.45971000  1
  F  F12  1  0.65163700  0.38385200  0.60043000  1
  F  F13  1  0.69716800  0.00685100  0.98588100  1
  F  F14  1  0.54927600  0.58198700  0.54589200  1
  F  F15  1  0.84836300  0.38385200  0.10043000  1
  F  F16  1  0.80283200  0.00685100  0.48588100  1
  F  F17  1  0.71826800  0.62569600  0.29240600  1
  F  F18  1  0.93338200  0.58030400  0.32849200  1
  F  F19  1  0.04410200  0.72348500  0.02719900  1
  F  F20  1  0.19716800  0.99314900  0.51411900  1
  F  F21  1  0.27178200  0.67684100  0.18600900  1
  F  F22  1  0.71845300  0.13048800  0.67039500  1
  F  F23  1  0.77178200  0.32315900  0.31399100  1
  F  F24  1  0.47654700  0.44994500  0.78228200  1
  F  F25  1  0.45488400  0.13362200  0.43561800  1
  F  F26  1  0.54511600  0.86637800  0.56438200  1
  F  F27  1  0.87147900  0.25616500  0.41692600  1
  F  F28  1  0.21826800  0.37430400  0.20759400  1
  F  F29  1  0.36171700  0.31957000  0.95971000  1
  F  F30  1  0.14680000  0.65753200  0.22018700  1
  F  F31  1  0.45072400  0.41801300  0.45410800  1
  F  F32  1  0.72821800  0.32315900  0.81399100  1
  F  F33  1  0.43338200  0.41969600  0.17150800  1
  F  F34  1  0.95072400  0.58198700  0.04589200  1
  F  F35  1  0.28173200  0.37430400  0.70759400  1
  F  F36  1  0.56681000  0.87549900  0.16873500  1
  F  F37  1  0.11885300  0.93165900  0.73292200  1
  F  F38  1  0.93319000  0.87549900  0.66873500  1
  F  F39  1  0.12852100  0.74383500  0.58307400  1
  F  F40  1  0.15163700  0.61614800  0.89957000  1
  F  F41  1  0.85320000  0.34246800  0.77981300  1
  F  F42  1  0.97415500  0.26473600  0.69461600  1
  F  F43  1  0.63828300  0.68043000  0.04029000  1
  F  F44  1  0.86171700  0.68043000  0.54029000  1
  F  F45  1  0.04927600  0.41801300  0.95410800  1
  F  F46  1  0.22821800  0.67684100  0.68600900  1
  F  F47  1  0.30283200  0.99314900  0.01411900  1
  F  F48  1  0.62852100  0.25616500  0.91692600  1
  F  F49  1  0.06681000  0.12450100  0.33126500  1
  F  F50  1  0.84609800  0.80473700  0.91993100  1
  F  F51  1  0.97654700  0.55005500  0.71771800  1
  F  F52  1  0.54410200  0.27651500  0.47280100  1
  F  F53  1  0.47415500  0.73526400  0.80538400  1
  F  F54  1  0.56661800  0.58030400  0.82849200  1
  F  F55  1  0.43319000  0.12450100  0.83126500  1
  F  F56  1  0.52584500  0.26473600  0.19461600  1
  F  F57  1  0.88114700  0.06834100  0.26707800  1
  F  F58  1  0.95589800  0.27651500  0.97280100  1
  F  F59  1  0.38114700  0.93165900  0.23292200  1
  F  F60  1  0.06661800  0.41969600  0.67150800  1
  F  F61  1  0.37147900  0.74383500  0.08307400  1
  F  F62  1  0.02584500  0.73526400  0.30538400  1
  F  F63  1  0.21845300  0.86951200  0.82960500  1
  F  F64  1  0.35320000  0.65753200  0.72018700  1
  F  F65  1  0.65390200  0.80473700  0.41993100  1
  F  F66  1  0.45589800  0.72348500  0.52719900  1
  F  F67  1  0.15390200  0.19526300  0.08006900  1
loop_
_geom_bond_atom_site_label_1
_geom_bond_atom_site_label_2
_geom_bond_distance
_geom_bond_site_symmetry_2
Ca0 F15 2.338914 1_556
Ca0 F34 2.362504 1_556
Ca0 F44 2.413304 1_555
Ca0 F51 2.431465 1_555
Ca0 F41 2.461295 1_555
Ca0 F38 2.493891 1_555
Ca0 F50 2.512357 1_555
Ca0 F8 2.533954 1_555
Ca0 F58 2.838431 1_555
Ca1 F12 2.338914 1_555
Ca1 F14 2.362504 1_555
Ca1 F43 2.413304 1_555
Ca1 F1 2.431465 1_555
Ca1 F4 2.461295 1_555
Ca1 F36 2.493891 1_555
Ca1 F65 2.512357 1_555
Ca1 F17 2.533954 1_555
Ca1 F52 2.838431 1_555
Ca2 F40 2.338914 1_554
Ca2 F45 2.362504 1_554
Ca2 F11 2.413304 1_555
Ca2 F5 2.431465 1_555
Ca2 F30 2.461295 1_555
Ca2 F49 2.493891 1_555
Ca2 F67 2.512357 1_555
Ca2 F28 2.533954 1_555
Ca2 F19 2.838431 1_555
Ca3 F6 2.338914 1_555
Ca3 F31 2.362504 1_555
Ca3 F29 2.413304 1_555
Ca3 F24 2.431465 1_555
Ca3 F64 2.461295 1_555
Ca3 F55 2.493891 1_555
Ca3 F0 2.512357 1_555
Ca3 F35 2.533954 1_555
Ca3 F66 2.838431 1_555
As0 F54 1.741682 1_555
As0 F26 1.750028 1_555
As0 F53 1.756946 1_555
As0 F66 1.781643 1_555
As0 F14 1.813804 1_555
As0 F24 1.817558 1_555
As1 F27 1.760468 1_555
As1 F57 1.762081 1_555
As1 F23 1.765650 1_555
As1 F9 1.769559 1_555
As1 F16 1.770063 1_555
As1 F15 1.831376 1_555
As2 F18 1.741682 1_555
As2 F7 1.750028 1_555
As2 F62 1.756946 1_655
As2 F19 1.781643 1_655
As2 F34 1.813804 1_555
As2 F5 1.817558 1_655
As3 F60 1.741682 1_555
As3 F10 1.750028 1_555
As3 F42 1.756946 1_455
As3 F58 1.781643 1_455
As3 F45 1.813804 1_555
As3 F51 1.817558 1_455
As4 F48 1.760468 1_555
As4 F3 1.762081 1_555
As4 F32 1.765650 1_555
As4 F22 1.769559 1_555
As4 F13 1.770063 1_555
As4 F12 1.831376 1_555
As5 F33 1.741682 1_555
As5 F25 1.750028 1_555
As5 F56 1.756946 1_555
As5 F52 1.781643 1_555
As5 F31 1.813804 1_555
As5 F1 1.817558 1_555
As6 F61 1.760468 1_555
As6 F59 1.762081 1_555
As6 F21 1.765650 1_555
As6 F2 1.769559 1_555
As6 F47 1.770063 1_555
As6 F6 1.831376 1_555
As7 F39 1.760468 1_555
As7 F37 1.762081 1_555
As7 F46 1.765650 1_555
As7 F63 1.769559 1_555
As7 F20 1.770063 1_555
As7 F40 1.831376 1_555
F0 Xe6 2.098096 1_545
F4 Xe0 2.079115 1_555
F8 Xe3 2.089719 1_555
F11 Xe5 2.083205 1_555
F17 Xe2 2.089719 1_555
F28 Xe1 2.089719 1_555
F29 Xe1 2.083205 1_556
F30 Xe9 2.079115 1_555
F35 Xe5 2.089719 1_555
F36 Xe8 2.093450 1_565
F38 Xe4 2.093450 1_665
F41 Xe7 2.079115 1_555
F43 Xe3 2.083205 1_554
F44 Xe2 2.083205 1_555
F49 Xe4 2.093450 1_555
F50 Xe7 2.098096 1_565
F55 Xe8 2.093450 1_556
F64 Xe6 2.079115 1_555
F65 Xe0 2.098096 1_565
F67 Xe9 2.098096 1_545
