# generated using pymatgen
data_CeTl5Ni2(NO2)12
_symmetry_space_group_name_H-M   'P 1'
_cell_length_a   10.92860400
_cell_length_b   10.92860400
_cell_length_c   10.92860400
_cell_angle_alpha   90.00000000
_cell_angle_beta   90.00000000
_cell_angle_gamma   90.00000000
_symmetry_Int_Tables_number   1
_chemical_formula_structural   CeTl5Ni2(NO2)12
_chemical_formula_sum   'Ce2 Tl10 Ni4 N24 O48'
_cell_volume   1305.25110190
_cell_formula_units_Z   2
loop_
 _symmetry_equiv_pos_site_id
 _symmetry_equiv_pos_as_xyz
  1  'x, y, z'
loop_
 _atom_site_type_symbol
 _atom_site_label
 _atom_site_symmetry_multiplicity
 _atom_site_fract_x
 _atom_site_fract_y
 _atom_site_fract_z
 _atom_site_occupancy
  Ce  Ce0  1  0.25000000  0.25000000  0.25000000  1
  Ce  Ce1  1  0.75000000  0.75000000  0.75000000  1
  Tl  Tl0  1  0.50000000  0.50000000  0.00000000  1
  Tl  Tl1  1  0.50000000  0.00000000  0.50000000  1
  Tl  Tl2  1  0.25000000  0.75000000  0.75000000  1
  Tl  Tl3  1  0.75000000  0.25000000  0.25000000  1
  Tl  Tl4  1  0.75000000  0.25000000  0.75000000  1
  Tl  Tl5  1  0.00000000  0.00000000  0.00000000  1
  Tl  Tl6  1  0.75000000  0.75000000  0.25000000  1
  Tl  Tl7  1  0.25000000  0.75000000  0.25000000  1
  Tl  Tl8  1  0.00000000  0.50000000  0.50000000  1
  Tl  Tl9  1  0.25000000  0.25000000  0.75000000  1
  Ni  Ni0  1  0.00000000  0.00000000  0.50000000  1
  Ni  Ni1  1  0.50000000  0.00000000  0.00000000  1
  Ni  Ni2  1  0.00000000  0.50000000  0.00000000  1
  Ni  Ni3  1  0.50000000  0.50000000  0.50000000  1
  N  N0  1  0.50514400  0.50951400  0.69193000  1
  N  N1  1  0.80807000  0.99485600  0.50951400  1
  N  N2  1  0.69193000  0.99485600  0.99048600  1
  N  N3  1  0.50951400  0.80807000  0.99485600  1
  N  N4  1  0.99485600  0.99048600  0.69193000  1
  N  N5  1  0.00951400  0.30807000  0.00514400  1
  N  N6  1  0.30807000  0.00514400  0.00951400  1
  N  N7  1  0.80807000  0.50514400  0.99048600  1
  N  N8  1  0.50951400  0.69193000  0.50514400  1
  N  N9  1  0.00514400  0.49048600  0.19193000  1
  N  N10  1  0.99048600  0.80807000  0.50514400  1
  N  N11  1  0.49485600  0.49048600  0.30807000  1
  N  N12  1  0.50514400  0.99048600  0.80807000  1
  N  N13  1  0.00951400  0.19193000  0.49485600  1
  N  N14  1  0.69193000  0.50514400  0.50951400  1
  N  N15  1  0.49048600  0.19193000  0.00514400  1
  N  N16  1  0.49048600  0.30807000  0.49485600  1
  N  N17  1  0.19193000  0.00514400  0.49048600  1
  N  N18  1  0.99048600  0.69193000  0.99485600  1
  N  N19  1  0.99485600  0.50951400  0.80807000  1
  N  N20  1  0.49485600  0.00951400  0.19193000  1
  N  N21  1  0.00514400  0.00951400  0.30807000  1
  N  N22  1  0.19193000  0.49485600  0.00951400  1
  N  N23  1  0.30807000  0.49485600  0.49048600  1
  O  O0  1  0.50458400  0.24986400  0.90711300  1
  O  O1  1  0.00458400  0.74986400  0.09288700  1
  O  O2  1  0.40711300  0.00458400  0.75013600  1
  O  O3  1  0.25013600  0.59288700  0.50458400  1
  O  O4  1  0.90711300  0.50458400  0.24986400  1
  O  O5  1  0.25218100  0.09975500  0.45932800  1
  O  O6  1  0.40024500  0.45932800  0.24781900  1
  O  O7  1  0.95932800  0.74781900  0.59975500  1
  O  O8  1  0.59288700  0.99541600  0.24986400  1
  O  O9  1  0.04067200  0.25218100  0.40024500  1
  O  O10  1  0.09288700  0.00458400  0.74986400  1
  O  O11  1  0.40024500  0.04067200  0.25218100  1
  O  O12  1  0.75013600  0.40711300  0.00458400  1
  O  O13  1  0.90024500  0.95932800  0.75218100  1
  O  O14  1  0.04067200  0.24781900  0.09975500  1
  O  O15  1  0.90711300  0.99541600  0.25013600  1
  O  O16  1  0.90024500  0.54067200  0.74781900  1
  O  O17  1  0.24986400  0.90711300  0.50458400  1
  O  O18  1  0.09288700  0.49541600  0.75013600  1
  O  O19  1  0.09975500  0.04067200  0.24781900  1
  O  O20  1  0.54067200  0.74781900  0.90024500  1
  O  O21  1  0.24986400  0.59288700  0.99541600  1
  O  O22  1  0.25218100  0.40024500  0.04067200  1
  O  O23  1  0.75013600  0.09288700  0.49541600  1
  O  O24  1  0.00458400  0.75013600  0.40711300  1
  O  O25  1  0.24781900  0.40024500  0.45932800  1
  O  O26  1  0.40711300  0.49541600  0.74986400  1
  O  O27  1  0.99541600  0.24986400  0.59288700  1
  O  O28  1  0.59288700  0.50458400  0.25013600  1
  O  O29  1  0.54067200  0.75218100  0.59975500  1
  O  O30  1  0.74781900  0.59975500  0.95932800  1
  O  O31  1  0.59975500  0.95932800  0.74781900  1
  O  O32  1  0.25013600  0.90711300  0.99541600  1
  O  O33  1  0.75218100  0.90024500  0.95932800  1
  O  O34  1  0.74986400  0.09288700  0.00458400  1
  O  O35  1  0.50458400  0.25013600  0.59288700  1
  O  O36  1  0.74781900  0.90024500  0.54067200  1
  O  O37  1  0.74986400  0.40711300  0.49541600  1
  O  O38  1  0.99541600  0.25013600  0.90711300  1
  O  O39  1  0.49541600  0.75013600  0.09288700  1
  O  O40  1  0.09975500  0.45932800  0.25218100  1
  O  O41  1  0.24781900  0.09975500  0.04067200  1
  O  O42  1  0.45932800  0.24781900  0.40024500  1
  O  O43  1  0.59975500  0.54067200  0.75218100  1
  O  O44  1  0.49541600  0.74986400  0.40711300  1
  O  O45  1  0.95932800  0.75218100  0.90024500  1
  O  O46  1  0.75218100  0.59975500  0.54067200  1
  O  O47  1  0.45932800  0.25218100  0.09975500  1
loop_
_geom_bond_atom_site_label_1
_geom_bond_atom_site_label_2
_geom_bond_distance
_geom_bond_site_symmetry_2
Ce0 O6 2.816031 1_555
Ce0 O42 2.816031 1_555
Ce0 O25 2.816031 1_555
Ce0 O47 2.816031 1_555
Ce0 O5 2.816031 1_555
Ce0 O40 2.816031 1_555
Ce0 O9 2.816031 1_555
Ce0 O22 2.816031 1_555
Ce0 O11 2.816031 1_555
Ce0 O41 2.816031 1_555
Ce0 O14 2.816031 1_555
Ce0 O19 2.816031 1_555
Ce1 O33 2.816031 1_555
Ce1 O13 2.816031 1_555
Ce1 O45 2.816031 1_555
Ce1 O30 2.816031 1_555
Ce1 O31 2.816031 1_555
Ce1 O7 2.816031 1_555
Ce1 O16 2.816031 1_555
Ce1 O20 2.816031 1_555
Ce1 O36 2.816031 1_555
Ce1 O29 2.816031 1_555
Ce1 O46 2.816031 1_555
Ce1 O43 2.816031 1_555
N0 O26 1.253944 1_555
N0 O43 1.272244 1_555
N0 Ni3 2.100855 1_555
N1 O23 1.253944 1_565
N1 O36 1.272244 1_555
N1 Ni0 2.100855 1_665
N2 O34 1.253944 1_566
N2 O33 1.272244 1_555
N2 Ni1 2.100855 1_566
N3 O39 1.253944 1_556
N3 O20 1.272244 1_555
N3 Ni1 2.100855 1_566
N4 O10 1.253944 1_665
N4 O13 1.272244 1_555
N4 Ni0 2.100855 1_665
N5 O38 1.253944 1_454
N5 O14 1.272244 1_555
N5 Ni2 2.100855 1_555
N6 O32 1.253944 1_544
N6 O41 1.272244 1_555
N6 Ni1 2.100855 1_555
N7 O12 1.253944 1_556
N7 O30 1.272244 1_555
N7 Ni2 2.100855 1_656
N8 O44 1.253944 1_555
N8 O29 1.272244 1_555
N8 Ni3 2.100855 1_555
N9 O4 1.253944 1_455
N9 O40 1.272244 1_555
N9 Ni2 2.100855 1_555
N10 O24 1.253944 1_655
N10 O7 1.272244 1_555
N10 Ni0 2.100855 1_665
N11 O28 1.253944 1_555
N11 O6 1.272244 1_555
N11 Ni3 2.100855 1_555
N12 O2 1.253944 1_565
N12 O31 1.272244 1_555
N12 Ni1 2.100855 1_566
N13 O27 1.253944 1_455
N13 O9 1.272244 1_555
N13 Ni0 2.100855 1_555
N14 O37 1.253944 1_555
N14 O46 1.272244 1_555
N14 Ni3 2.100855 1_555
N15 O0 1.253944 1_554
N15 O47 1.272244 1_555
N15 Ni1 2.100855 1_555
N16 O35 1.253944 1_555
N16 O42 1.272244 1_555
N16 Ni3 2.100855 1_555
N17 O17 1.253944 1_545
N17 O5 1.272244 1_555
N17 Ni0 2.100855 1_555
N18 O1 1.253944 1_656
N18 O45 1.272244 1_555
N18 Ni2 2.100855 1_656
N19 O18 1.253944 1_655
N19 O16 1.272244 1_555
N19 Ni2 2.100855 1_656
N20 O8 1.253944 1_545
N20 O11 1.272244 1_555
N20 Ni1 2.100855 1_555
N21 O15 1.253944 1_445
N21 O19 1.272244 1_555
N21 Ni0 2.100855 1_555
N22 O21 1.253944 1_554
N22 O22 1.272244 1_555
N22 Ni2 2.100855 1_555
N23 O3 1.253944 1_555
N23 O25 1.272244 1_555
N23 Ni3 2.100855 1_555
