# generated using pymatgen
data_NaPPdS4
_symmetry_space_group_name_H-M   'P 1'
_cell_length_a   8.15962070
_cell_length_b   8.15962070
_cell_length_c   8.15962070
_cell_angle_alpha   125.66205655
_cell_angle_beta   125.66205655
_cell_angle_gamma   80.44428618
_symmetry_Int_Tables_number   1
_chemical_formula_structural   NaPPdS4
_chemical_formula_sum   'Na2 P2 Pd2 S8'
_cell_volume   345.94578126
_cell_formula_units_Z   2
loop_
 _symmetry_equiv_pos_site_id
 _symmetry_equiv_pos_as_xyz
  1  'x, y, z'
loop_
 _atom_site_type_symbol
 _atom_site_label
 _atom_site_symmetry_multiplicity
 _atom_site_fract_x
 _atom_site_fract_y
 _atom_site_fract_z
 _atom_site_occupancy
  Na  Na0  1  0.25000000  0.25000000  0.00000000  1
  Na  Na1  1  0.75000000  0.75000000  0.00000000  1
  P  P0  1  0.25000000  0.75000000  0.50000000  1
  P  P1  1  0.75000000  0.25000000  0.50000000  1
  Pd  Pd0  1  0.50000000  0.00000000  0.50000000  1
  Pd  Pd1  1  0.00000000  0.50000000  0.50000000  1
  S  S0  1  0.71014000  0.21014000  0.20373900  1
  S  S1  1  0.99359900  0.49359900  0.20373900  1
  S  S2  1  0.50640100  0.71014000  0.50000000  1
  S  S3  1  0.21014000  0.00640100  0.50000000  1
  S  S4  1  0.28986000  0.78986000  0.79626100  1
  S  S5  1  0.49359900  0.28986000  0.50000000  1
  S  S6  1  0.78986000  0.99359900  0.50000000  1
  S  S7  1  0.00640100  0.50640100  0.79626100  1
loop_
_geom_bond_atom_site_label_1
_geom_bond_atom_site_label_2
_geom_bond_distance
_geom_bond_site_symmetry_2
Na0 S3 3.148552 1_554
Na0 S5 3.148552 1_555
Na0 S6 3.148552 1_444
Na0 S1 3.148552 1_455
Na0 S2 3.148552 1_555
Na0 S4 3.148552 1_544
Na0 S0 3.148552 1_555
Na0 S7 3.148552 1_554
Na1 S2 3.148552 1_554
Na1 S6 3.148552 1_555
Na1 S3 3.148552 1_665
Na1 S0 3.148552 1_565
Na1 S5 3.148552 1_554
Na1 S4 3.148552 1_554
Na1 S1 3.148552 1_555
Na1 S7 3.148552 1_654
P0 S4 2.063224 1_555
P0 S1 2.063224 1_455
P0 S2 2.063224 1_555
P0 S3 2.063224 1_565
P1 S0 2.063224 1_555
P1 S5 2.063224 1_555
P1 S6 2.063224 1_545
P1 S7 2.063224 1_655
Pd0 S6 2.357040 1_545
Pd0 S3 2.357040 1_555
Pd0 S2 2.357040 1_545
Pd0 S5 2.357040 1_555
Pd1 S7 2.357040 1_555
Pd1 S0 2.357040 1_455
Pd1 S1 2.357040 1_455
Pd1 S4 2.357040 1_555
