# generated using pymatgen
data_SiO2
_symmetry_space_group_name_H-M   'P 1'
_cell_length_a   10.79549100
_cell_length_b   10.79549100
_cell_length_c   10.79549100
_cell_angle_alpha   90.00000000
_cell_angle_beta   90.00000000
_cell_angle_gamma   90.00000000
_symmetry_Int_Tables_number   1
_chemical_formula_structural   SiO2
_chemical_formula_sum   'Si24 O48'
_cell_volume   1258.13486936
_cell_formula_units_Z   24
loop_
 _symmetry_equiv_pos_site_id
 _symmetry_equiv_pos_as_xyz
  1  'x, y, z'
loop_
 _atom_site_type_symbol
 _atom_site_label
 _atom_site_symmetry_multiplicity
 _atom_site_fract_x
 _atom_site_fract_y
 _atom_site_fract_z
 _atom_site_occupancy
  Si  Si0  1  0.25000000  0.13695600  0.36304400  1
  Si  Si1  1  0.13695600  0.36304400  0.75000000  1
  Si  Si2  1  0.86304400  0.36304400  0.25000000  1
  Si  Si3  1  0.36304400  0.75000000  0.86304400  1
  Si  Si4  1  0.25000000  0.13695600  0.63695600  1
  Si  Si5  1  0.13695600  0.36304400  0.25000000  1
  Si  Si6  1  0.36304400  0.25000000  0.86304400  1
  Si  Si7  1  0.63695600  0.25000000  0.86304400  1
  Si  Si8  1  0.36304400  0.25000000  0.13695600  1
  Si  Si9  1  0.86304400  0.36304400  0.75000000  1
  Si  Si10  1  0.13695600  0.63695600  0.75000000  1
  Si  Si11  1  0.86304400  0.63695600  0.25000000  1
  Si  Si12  1  0.75000000  0.86304400  0.36304400  1
  Si  Si13  1  0.75000000  0.13695600  0.63695600  1
  Si  Si14  1  0.13695600  0.63695600  0.25000000  1
  Si  Si15  1  0.25000000  0.86304400  0.63695600  1
  Si  Si16  1  0.63695600  0.75000000  0.13695600  1
  Si  Si17  1  0.75000000  0.13695600  0.36304400  1
  Si  Si18  1  0.75000000  0.86304400  0.63695600  1
  Si  Si19  1  0.86304400  0.63695600  0.75000000  1
  Si  Si20  1  0.36304400  0.75000000  0.13695600  1
  Si  Si21  1  0.25000000  0.86304400  0.36304400  1
  Si  Si22  1  0.63695600  0.25000000  0.13695600  1
  Si  Si23  1  0.63695600  0.75000000  0.86304400  1
  O  O0  1  0.35009300  0.14990700  0.75000000  1
  O  O1  1  0.85009300  0.75000000  0.35009300  1
  O  O2  1  0.64990700  0.14990700  0.75000000  1
  O  O3  1  0.50000000  0.31495900  0.14826500  1
  O  O4  1  0.35009300  0.14990700  0.25000000  1
  O  O5  1  0.00000000  0.35173500  0.81495900  1
  O  O6  1  0.00000000  0.64826500  0.81495900  1
  O  O7  1  0.50000000  0.68504100  0.85173500  1
  O  O8  1  0.75000000  0.35009300  0.14990700  1
  O  O9  1  0.64990700  0.14990700  0.25000000  1
  O  O10  1  0.35009300  0.85009300  0.75000000  1
  O  O11  1  0.35009300  0.85009300  0.25000000  1
  O  O12  1  0.18504100  0.00000000  0.35173500  1
  O  O13  1  0.35173500  0.81495900  0.00000000  1
  O  O14  1  0.25000000  0.64990700  0.85009300  1
  O  O15  1  0.31495900  0.14826500  0.50000000  1
  O  O16  1  0.00000000  0.35173500  0.18504100  1
  O  O17  1  0.64990700  0.85009300  0.25000000  1
  O  O18  1  0.85173500  0.50000000  0.31495900  1
  O  O19  1  0.35173500  0.18504100  0.00000000  1
  O  O20  1  0.50000000  0.31495900  0.85173500  1
  O  O21  1  0.85009300  0.25000000  0.64990700  1
  O  O22  1  0.85009300  0.75000000  0.64990700  1
  O  O23  1  0.68504100  0.85173500  0.50000000  1
  O  O24  1  0.50000000  0.68504100  0.14826500  1
  O  O25  1  0.14990700  0.75000000  0.64990700  1
  O  O26  1  0.14826500  0.50000000  0.68504100  1
  O  O27  1  0.75000000  0.35009300  0.85009300  1
  O  O28  1  0.64826500  0.18504100  0.00000000  1
  O  O29  1  0.64826500  0.81495900  0.00000000  1
  O  O30  1  0.75000000  0.64990700  0.14990700  1
  O  O31  1  0.31495900  0.85173500  0.50000000  1
  O  O32  1  0.00000000  0.64826500  0.18504100  1
  O  O33  1  0.68504100  0.14826500  0.50000000  1
  O  O34  1  0.14990700  0.25000000  0.35009300  1
  O  O35  1  0.81495900  0.00000000  0.35173500  1
  O  O36  1  0.25000000  0.64990700  0.14990700  1
  O  O37  1  0.14990700  0.75000000  0.35009300  1
  O  O38  1  0.75000000  0.64990700  0.85009300  1
  O  O39  1  0.18504100  0.00000000  0.64826500  1
  O  O40  1  0.64990700  0.85009300  0.75000000  1
  O  O41  1  0.25000000  0.35009300  0.85009300  1
  O  O42  1  0.81495900  0.00000000  0.64826500  1
  O  O43  1  0.85173500  0.50000000  0.68504100  1
  O  O44  1  0.14826500  0.50000000  0.31495900  1
  O  O45  1  0.14990700  0.25000000  0.64990700  1
  O  O46  1  0.85009300  0.25000000  0.35009300  1
  O  O47  1  0.25000000  0.35009300  0.14990700  1
loop_
_geom_bond_atom_site_label_1
_geom_bond_atom_site_label_2
_geom_bond_distance
_geom_bond_site_symmetry_2
O0 Si6 1.635981 1_555
O0 Si4 1.635981 1_555
O1 Si11 1.635981 1_555
O1 Si12 1.635981 1_555
O2 Si13 1.635981 1_555
O2 Si7 1.635981 1_555
O3 Si22 1.640933 1_555
O3 Si8 1.640933 1_555
O4 Si0 1.635981 1_555
O4 Si8 1.635981 1_555
O5 Si9 1.640933 1_455
O5 Si1 1.640933 1_555
O6 Si19 1.640933 1_455
O6 Si10 1.640933 1_555
O7 Si23 1.640933 1_555
O7 Si3 1.640933 1_555
O8 Si2 1.635981 1_555
O8 Si22 1.635981 1_555
O9 Si17 1.635981 1_555
O9 Si22 1.635981 1_555
O10 Si3 1.635981 1_555
O10 Si15 1.635981 1_555
O11 Si21 1.635981 1_555
O11 Si20 1.635981 1_555
O12 Si21 1.640933 1_545
O12 Si0 1.640933 1_555
O13 Si3 1.640933 1_554
O13 Si20 1.640933 1_555
O14 Si3 1.635981 1_555
O14 Si10 1.635981 1_555
O15 Si4 1.640933 1_555
O15 Si0 1.640933 1_555
O16 Si2 1.640933 1_455
O16 Si5 1.640933 1_555
O17 Si12 1.635981 1_555
O17 Si16 1.635981 1_555
O18 Si11 1.640933 1_555
O18 Si2 1.640933 1_555
O19 Si6 1.640933 1_554
O19 Si8 1.640933 1_555
O20 Si7 1.640933 1_555
O20 Si6 1.640933 1_555
O21 Si9 1.635981 1_555
O21 Si13 1.635981 1_555
O22 Si19 1.635981 1_555
O22 Si18 1.635981 1_555
O23 Si18 1.640933 1_555
O23 Si12 1.640933 1_555
O24 Si16 1.640933 1_555
O24 Si20 1.640933 1_555
O25 Si10 1.635981 1_555
O25 Si15 1.635981 1_555
O26 Si10 1.640933 1_555
O26 Si1 1.640933 1_555
O27 Si9 1.635981 1_555
O27 Si7 1.635981 1_555
O28 Si7 1.640933 1_554
O28 Si22 1.640933 1_555
O29 Si23 1.640933 1_554
O29 Si16 1.640933 1_555
O30 Si11 1.635981 1_555
O30 Si16 1.635981 1_555
O31 Si15 1.640933 1_555
O31 Si21 1.640933 1_555
O32 Si11 1.640933 1_455
O32 Si14 1.640933 1_555
O33 Si13 1.640933 1_555
O33 Si17 1.640933 1_555
O34 Si5 1.635981 1_555
O34 Si0 1.635981 1_555
O35 Si12 1.640933 1_545
O35 Si17 1.640933 1_555
O36 Si20 1.635981 1_555
O36 Si14 1.635981 1_555
O37 Si21 1.635981 1_555
O37 Si14 1.635981 1_555
O38 Si19 1.635981 1_555
O38 Si23 1.635981 1_555
O39 Si15 1.640933 1_545
O39 Si4 1.640933 1_555
O40 Si23 1.635981 1_555
O40 Si18 1.635981 1_555
O41 Si6 1.635981 1_555
O41 Si1 1.635981 1_555
O42 Si18 1.640933 1_545
O42 Si13 1.640933 1_555
O43 Si19 1.640933 1_555
O43 Si9 1.640933 1_555
O44 Si14 1.640933 1_555
O44 Si5 1.640933 1_555
O45 Si1 1.635981 1_555
O45 Si4 1.635981 1_555
O46 Si2 1.635981 1_555
O46 Si17 1.635981 1_555
O47 Si8 1.635981 1_555
O47 Si5 1.635981 1_555
