# generated using pymatgen
data_Sr2CoTeO6
_symmetry_space_group_name_H-M   'P 1'
_cell_length_a   5.69685358
_cell_length_b   5.72486586
_cell_length_c   8.00408990
_cell_angle_alpha   89.69787992
_cell_angle_beta   90.05108011
_cell_angle_gamma   89.61082396
_symmetry_Int_Tables_number   1
_chemical_formula_structural   Sr2CoTeO6
_chemical_formula_sum   'Sr4 Co2 Te2 O12'
_cell_volume   261.03340450
_cell_formula_units_Z   2
loop_
 _symmetry_equiv_pos_site_id
 _symmetry_equiv_pos_as_xyz
  1  'x, y, z'
loop_
 _atom_site_type_symbol
 _atom_site_label
 _atom_site_symmetry_multiplicity
 _atom_site_fract_x
 _atom_site_fract_y
 _atom_site_fract_z
 _atom_site_occupancy
  Sr  Sr0  1  0.48229800  0.49611900  0.74974800  1
  Sr  Sr1  1  0.01845600  0.99466900  0.25047300  1
  Sr  Sr2  1  0.51770200  0.50388100  0.25025200  1
  Sr  Sr3  1  0.98154400  0.00533100  0.74952700  1
  Co  Co0  1  0.50000000  0.00000000  0.50000000  1
  Co  Co1  1  0.00000000  0.50000000  0.00000000  1
  Te  Te0  1  0.50000000  0.00000000  0.00000000  1
  Te  Te1  1  0.00000000  0.50000000  0.50000000  1
  O  O0  1  0.22183600  0.24160500  0.53257200  1
  O  O1  1  0.71974600  0.25762200  0.96675900  1
  O  O2  1  0.77816400  0.75839500  0.46742800  1
  O  O3  1  0.28025400  0.74237800  0.03324100  1
  O  O4  1  0.74037000  0.28233200  0.53278600  1
  O  O5  1  0.76236800  0.78193900  0.03304200  1
  O  O6  1  0.23763200  0.21806100  0.96695800  1
  O  O7  1  0.25963000  0.71766800  0.46721400  1
  O  O8  1  0.99210700  0.43852500  0.25998600  1
  O  O9  1  0.50623100  0.93785100  0.75955100  1
  O  O10  1  0.00789300  0.56147500  0.74001400  1
  O  O11  1  0.49376900  0.06214900  0.24044900  1
loop_
_geom_bond_atom_site_label_1
_geom_bond_atom_site_label_2
_geom_bond_distance
_geom_bond_site_symmetry_2
Co0 O9 2.106094 1_545
Co0 O11 2.106094 1_555
Co0 O0 2.113528 1_555
Co0 O2 2.113528 1_545
Co0 O4 2.142512 1_555
Co0 O7 2.142512 1_545
Co1 O8 2.109241 1_455
Co1 O10 2.109241 1_554
Co1 O6 2.117369 1_554
Co1 O5 2.117369 1_455
Co1 O1 2.139726 1_454
Co1 O3 2.139726 1_555
O0 Te1 1.955322 1_555
O0 Sr3 2.593007 1_455
O0 Sr0 2.719904 1_555
O0 Sr1 2.913839 1_545
O0 Sr2 3.194858 1_555
O1 Te0 1.958231 1_556
O1 Sr0 2.580082 1_555
O1 Sr3 2.708417 1_555
O1 Sr2 2.911623 1_556
O1 Sr1 3.200167 1_646
O2 Te1 1.955322 1_655
O2 Sr1 2.593007 1_655
O2 Sr2 2.719904 1_555
O2 Sr3 2.913839 1_565
O2 Sr0 3.194858 1_555
O3 Te0 1.958231 1_565
O3 Sr2 2.580082 1_555
O3 Sr1 2.708417 1_555
O3 Sr0 2.911623 1_554
O3 Sr3 3.200167 1_464
O4 Te1 1.957453 1_655
O4 Sr0 2.584118 1_555
O4 Sr3 2.710932 1_555
O4 Sr2 2.876565 1_555
O4 Sr1 3.215282 1_645
O5 Te0 1.957775 1_565
O5 Sr1 2.585009 1_655
O5 Sr2 2.739456 1_555
O5 Sr3 2.887968 1_564
O5 Sr0 3.229991 1_554
O6 Te0 1.957775 1_556
O6 Sr3 2.585009 1_455
O6 Sr0 2.739456 1_555
O6 Sr1 2.887968 1_546
O6 Sr2 3.229991 1_556
O7 Te1 1.957453 1_555
O7 Sr2 2.584118 1_555
O7 Sr1 2.710932 1_555
O7 Sr0 2.876565 1_555
O7 Sr3 3.215282 1_465
O8 Te1 1.955421 1_655
O8 Sr1 2.545972 1_645
O8 Sr2 2.726862 1_555
O8 Sr2 3.021068 1_655
O8 Sr1 3.188916 1_655
O9 Te0 1.959340 1_566
O9 Sr0 2.535078 1_555
O9 Sr3 2.738990 1_565
O9 Sr3 3.012266 1_465
O9 Sr0 3.198537 1_565
O10 Te1 1.955421 1_555
O10 Sr3 2.545972 1_465
O10 Sr0 2.726862 1_555
O10 Sr0 3.021068 1_455
O10 Sr3 3.188916 1_455
O11 Te0 1.959340 1_555
O11 Sr2 2.535078 1_555
O11 Sr1 2.738990 1_545
O11 Sr1 3.012266 1_645
O11 Sr2 3.198537 1_545
