# generated using pymatgen
data_K2AgSbS4
_symmetry_space_group_name_H-M   'P 1'
_cell_length_a   8.09565200
_cell_length_b   10.46500800
_cell_length_c   10.69716500
_cell_angle_alpha   90.00000000
_cell_angle_beta   90.00000000
_cell_angle_gamma   90.00000000
_symmetry_Int_Tables_number   1
_chemical_formula_structural   K2AgSbS4
_chemical_formula_sum   'K8 Ag4 Sb4 S16'
_cell_volume   906.27518930
_cell_formula_units_Z   4
loop_
 _symmetry_equiv_pos_site_id
 _symmetry_equiv_pos_as_xyz
  1  'x, y, z'
loop_
 _atom_site_type_symbol
 _atom_site_label
 _atom_site_symmetry_multiplicity
 _atom_site_fract_x
 _atom_site_fract_y
 _atom_site_fract_z
 _atom_site_occupancy
  K  K0  1  0.44857000  0.74750300  0.26913500  1
  K  K1  1  0.94857000  0.75249700  0.76913500  1
  K  K2  1  0.75978000  0.00000000  0.50000000  1
  K  K3  1  0.25978000  0.50000000  0.00000000  1
  K  K4  1  0.94857000  0.24750300  0.23086500  1
  K  K5  1  0.94772500  0.50000000  0.50000000  1
  K  K6  1  0.44772500  0.00000000  0.00000000  1
  K  K7  1  0.44857000  0.25249700  0.73086500  1
  Ag  Ag0  1  0.45190500  0.50000000  0.50000000  1
  Ag  Ag1  1  0.72540500  0.50000000  0.00000000  1
  Ag  Ag2  1  0.22540500  0.00000000  0.50000000  1
  Ag  Ag3  1  0.95190500  0.00000000  0.00000000  1
  Sb  Sb0  1  0.44914100  0.72685900  0.72410400  1
  Sb  Sb1  1  0.94914100  0.22685900  0.77589600  1
  Sb  Sb2  1  0.94914100  0.77314100  0.22410400  1
  Sb  Sb3  1  0.44914100  0.27314100  0.27589600  1
  S  S0  1  0.80039200  0.42273800  0.78246600  1
  S  S1  1  0.30039200  0.92273800  0.71753400  1
  S  S2  1  0.58618900  0.71555800  0.91988400  1
  S  S3  1  0.30039200  0.07726200  0.28246600  1
  S  S4  1  0.80039200  0.57726200  0.21753400  1
  S  S5  1  0.76858000  0.95144400  0.20199800  1
  S  S6  1  0.13292100  0.20891100  0.94843700  1
  S  S7  1  0.63292100  0.70891100  0.55156300  1
  S  S8  1  0.26858000  0.54855600  0.70199800  1
  S  S9  1  0.08618900  0.21555800  0.58011600  1
  S  S10  1  0.76858000  0.04855600  0.79800200  1
  S  S11  1  0.63292100  0.29108900  0.44843700  1
  S  S12  1  0.13292100  0.79108900  0.05156300  1
  S  S13  1  0.08618900  0.78444200  0.41988400  1
  S  S14  1  0.58618900  0.28444200  0.08011600  1
  S  S15  1  0.26858000  0.45144400  0.29800200  1
loop_
_geom_bond_atom_site_label_1
_geom_bond_atom_site_label_2
_geom_bond_distance
_geom_bond_site_symmetry_2
K0 S13 3.369945 1_555
K0 S7 3.393820 1_555
K0 S4 3.404570 1_555
K0 S5 3.432557 1_555
K0 S15 3.437705 1_555
K0 S12 3.486381 1_555
K0 S3 3.656267 1_565
K1 S2 3.369945 1_555
K1 S12 3.393820 1_656
K1 S1 3.404570 1_655
K1 S8 3.432557 1_655
K1 S10 3.437705 1_565
K1 S7 3.486381 1_555
K1 S0 3.656267 1_555
K2 S10 3.228808 1_555
K2 S5 3.228808 1_545
K2 S11 3.261688 1_555
K2 S7 3.261688 1_545
K2 S9 3.578541 1_655
K2 S13 3.578541 1_645
K3 S8 3.228808 1_554
K3 S15 3.228808 1_555
K3 S12 3.261688 1_555
K3 S6 3.261688 1_554
K3 S2 3.578541 1_554
K3 S14 3.578541 1_555
K4 S14 3.369945 1_555
K4 S6 3.393820 1_654
K4 S3 3.404570 1_655
K4 S15 3.432557 1_655
K4 S5 3.437705 1_545
K4 S11 3.486381 1_555
K4 S4 3.656267 1_555
K5 S9 3.294190 1_655
K5 S13 3.294190 1_655
K5 S0 3.347596 1_555
K5 S4 3.347596 1_555
K5 S7 3.402797 1_555
K5 S11 3.402797 1_555
K5 S8 3.416790 1_655
K5 S15 3.416790 1_655
K6 S14 3.294190 1_555
K6 S2 3.294190 1_544
K6 S1 3.347596 1_544
K6 S3 3.347596 1_555
K6 S6 3.402797 1_554
K6 S12 3.402797 1_545
K6 S5 3.416790 1_545
K6 S10 3.416790 1_554
K7 S9 3.369945 1_555
K7 S11 3.393820 1_555
K7 S0 3.404570 1_555
K7 S10 3.432557 1_555
K7 S8 3.437705 1_555
K7 S6 3.486381 1_555
K7 S1 3.656267 1_545
Ag0 S8 2.670196 1_555
Ag0 S15 2.670196 1_555
Ag0 S7 2.689140 1_555
Ag0 S11 2.689140 1_555
Ag0 K0 3.578880 1_555
Ag0 K7 3.578880 1_555
Ag1 S4 2.537163 1_555
Ag1 S0 2.537163 1_554
Ag1 S2 2.663345 1_554
Ag1 S14 2.663345 1_555
Ag1 K3 3.769538 1_555
Ag2 S3 2.537163 1_555
Ag2 S1 2.537163 1_545
Ag2 S9 2.663345 1_555
Ag2 S13 2.663345 1_545
Ag2 K2 3.769538 1_455
Ag3 S5 2.670196 1_545
Ag3 S10 2.670196 1_554
Ag3 S6 2.689140 1_654
Ag3 S12 2.689140 1_645
Ag3 K4 3.578880 1_555
Ag3 K1 3.578880 1_544
S0 Sb1 2.378460 1_555
S1 Sb0 2.378460 1_555
S2 Sb0 2.372976 1_555
S3 Sb3 2.378460 1_555
S4 Sb2 2.378460 1_555
S5 Sb2 2.382100 1_555
S6 Sb1 2.378128 1_455
S7 Sb0 2.378128 1_555
S8 Sb0 2.382100 1_555
S9 Sb1 2.372976 1_455
S10 Sb1 2.382100 1_555
S11 Sb3 2.378128 1_555
S12 Sb2 2.378128 1_455
S13 Sb2 2.372976 1_455
S14 Sb3 2.372976 1_555
S15 Sb3 2.382100 1_555
