# generated using pymatgen
data_YCrO4
_symmetry_space_group_name_H-M   'P 1'
_cell_length_a   5.06808490
_cell_length_b   6.73780912
_cell_length_c   5.06809644
_cell_angle_alpha   67.90867756
_cell_angle_beta   89.99951608
_cell_angle_gamma   112.09130214
_symmetry_Int_Tables_number   1
_chemical_formula_structural   YCrO4
_chemical_formula_sum   'Y2 Cr2 O8'
_cell_volume   146.55588214
_cell_formula_units_Z   2
loop_
 _symmetry_equiv_pos_site_id
 _symmetry_equiv_pos_as_xyz
  1  'x, y, z'
loop_
 _atom_site_type_symbol
 _atom_site_label
 _atom_site_symmetry_multiplicity
 _atom_site_fract_x
 _atom_site_fract_y
 _atom_site_fract_z
 _atom_site_occupancy
  Y  Y0  1  0.12499900  0.75000100  0.62499800  1
  Y  Y1  1  0.87499900  0.25000000  0.37500000  1
  Cr  Cr0  1  0.37499800  0.24999000  0.87500500  1
  Cr  Cr1  1  0.62500900  0.75000500  0.12500800  1
  O  O0  1  0.19485800  0.40500300  0.65314000  1
  O  O1  1  0.84721700  0.90530500  0.78943500  1
  O  O2  1  0.71014600  0.40501000  0.94184700  1
  O  O3  1  0.55808700  0.90530700  0.30525500  1
  O  O4  1  0.44185200  0.09499100  0.69486000  1
  O  O5  1  0.15313800  0.09499300  0.21014700  1
  O  O6  1  0.80525500  0.59470100  0.34721900  1
  O  O7  1  0.28944200  0.59469300  0.05808600  1
loop_
_geom_bond_atom_site_label_1
_geom_bond_atom_site_label_2
_geom_bond_distance
_geom_bond_site_symmetry_2
Cr0 O4 1.738494 1_555
Cr0 O5 1.738517 1_556
Cr0 O2 1.738544 1_555
Cr0 O0 1.738567 1_555
Cr1 O6 1.740796 1_555
Cr1 O3 1.740807 1_555
Cr1 O1 1.740880 1_554
Cr1 O7 1.740913 1_555
O0 Y1 2.353644 1_455
O0 Y0 2.432859 1_555
O1 Y0 2.352751 1_655
O1 Y1 2.431109 1_565
O2 Y1 2.353690 1_556
O2 Y0 2.432844 1_655
O3 Y0 2.352779 1_555
O3 Y1 2.431103 1_565
O4 Y1 2.353649 1_555
O4 Y0 2.432836 1_545
O5 Y1 2.353630 1_455
O5 Y0 2.432846 1_545
O6 Y0 2.352761 1_655
O6 Y1 2.431138 1_555
O7 Y0 2.352809 1_554
O7 Y1 2.431127 1_455
