# generated using pymatgen
data_KCaF3
_symmetry_space_group_name_H-M   'P 1'
_cell_length_a   6.12777352
_cell_length_b   6.22062595
_cell_length_c   8.71579992
_cell_angle_alpha   90.00000000
_cell_angle_beta   90.00000000
_cell_angle_gamma   90.00000000
_symmetry_Int_Tables_number   1
_chemical_formula_structural   KCaF3
_chemical_formula_sum   'K4 Ca4 F12'
_cell_volume   332.23397730
_cell_formula_units_Z   4
loop_
 _symmetry_equiv_pos_site_id
 _symmetry_equiv_pos_as_xyz
  1  'x, y, z'
loop_
 _atom_site_type_symbol
 _atom_site_label
 _atom_site_symmetry_multiplicity
 _atom_site_fract_x
 _atom_site_fract_y
 _atom_site_fract_z
 _atom_site_occupancy
  K  K0  1  0.49118768  0.03968915  0.25000000  1
  K  K1  1  0.99118768  0.46031085  0.75000000  1
  K  K2  1  0.00881232  0.53968915  0.25000000  1
  K  K3  1  0.50881232  0.96031085  0.75000000  1
  Ca  Ca0  1  0.00000000  0.00000000  -0.00000000  1
  Ca  Ca1  1  0.50000000  0.50000000  -0.00000000  1
  Ca  Ca2  1  0.50000000  0.50000000  0.50000000  1
  Ca  Ca3  1  0.00000000  0.00000000  0.50000000  1
  F  F0  1  0.20674961  0.29194532  0.45700143  1
  F  F1  1  0.70674961  0.20805468  0.54299857  1
  F  F2  1  0.29325039  0.79194532  0.04299857  1
  F  F3  1  0.79325039  0.70805468  0.95700143  1
  F  F4  1  0.79325039  0.70805468  0.54299857  1
  F  F5  1  0.29325039  0.79194532  0.45700143  1
  F  F6  1  0.70674961  0.20805468  0.95700143  1
  F  F7  1  0.20674961  0.29194532  0.04299857  1
  F  F8  1  0.91834125  0.97146200  0.25000000  1
  F  F9  1  0.41834125  0.52853800  0.75000000  1
  F  F10  1  0.58165875  0.47146200  0.25000000  1
  F  F11  1  0.08165875  0.02853800  0.75000000  1
loop_
_geom_bond_atom_site_label_1
_geom_bond_atom_site_label_2
_geom_bond_distance
_geom_bond_site_symmetry_2
Ca0 F8 2.242705 1_445
Ca0 F11 2.242705 1_554
Ca0 F3 2.245814 1_444
Ca0 F7 2.245814 1_555
Ca0 F6 2.246017 1_454
Ca0 F2 2.246017 1_545
Ca1 F9 2.242705 1_554
Ca1 F10 2.242705 1_555
Ca1 F2 2.245814 1_555
Ca1 F6 2.245814 1_554
Ca1 F7 2.246017 1_555
Ca1 F3 2.246017 1_554
Ca2 F9 2.242705 1_555
Ca2 F10 2.242705 1_555
Ca2 F5 2.245814 1_555
Ca2 F1 2.245814 1_555
Ca2 F4 2.246017 1_555
Ca2 F0 2.246017 1_555
Ca3 F8 2.242705 1_445
Ca3 F11 2.242705 1_555
Ca3 F4 2.245814 1_445
Ca3 F0 2.245814 1_555
Ca3 F1 2.246017 1_455
Ca3 F5 2.246017 1_545
F0 K2 2.664826 1_555
F0 K0 2.958951 1_555
F0 K1 3.059935 1_455
F1 K3 2.664826 1_545
F1 K1 2.958951 1_555
F1 K0 3.059935 1_555
F2 K0 2.664826 1_565
F2 K2 2.958951 1_555
F2 K3 3.059935 1_554
F3 K1 2.664826 1_555
F3 K3 2.958951 1_555
F3 K2 3.059935 1_656
F4 K1 2.664826 1_555
F4 K3 2.958951 1_555
F4 K2 3.059935 1_655
F5 K0 2.664826 1_565
F5 K2 2.958951 1_555
F5 K3 3.059935 1_555
F6 K3 2.664826 1_545
F6 K1 2.958951 1_555
F6 K0 3.059935 1_556
F7 K2 2.664826 1_555
F7 K0 2.958951 1_555
F7 K1 3.059935 1_454
F8 K0 2.651686 1_565
F8 K2 2.742515 1_655
F9 K1 2.651686 1_455
F9 K3 2.742515 1_555
F10 K2 2.651686 1_655
F10 K0 2.742515 1_555
F11 K3 2.651686 1_545
F11 K1 2.742515 1_455
