# generated using pymatgen
data_TaPbF7
_symmetry_space_group_name_H-M   'P 1'
_cell_length_a   4.88796141
_cell_length_b   6.77814150
_cell_length_c   7.30574364
_cell_angle_alpha   90.00000000
_cell_angle_beta   90.00000000
_cell_angle_gamma   93.90228374
_symmetry_Int_Tables_number   1
_chemical_formula_structural   TaPbF7
_chemical_formula_sum   'Ta2 Pb2 F14'
_cell_volume   241.48756734
_cell_formula_units_Z   2
loop_
 _symmetry_equiv_pos_site_id
 _symmetry_equiv_pos_as_xyz
  1  'x, y, z'
loop_
 _atom_site_type_symbol
 _atom_site_label
 _atom_site_symmetry_multiplicity
 _atom_site_fract_x
 _atom_site_fract_y
 _atom_site_fract_z
 _atom_site_occupancy
  Ta  Ta0  1  0.46362236  0.78388148  0.75000000  1
  Ta  Ta1  1  0.53637764  0.21611852  0.25000000  1
  Pb  Pb0  1  0.98083066  0.68406547  0.25000000  1
  Pb  Pb1  1  0.01916934  0.31593453  0.75000000  1
  F  F0  1  0.36476024  0.94363924  0.25000000  1
  F  F1  1  0.32252812  0.20902443  0.47012629  1
  F  F2  1  0.67747188  0.79097557  0.97012629  1
  F  F3  1  0.19754566  0.64056561  0.57609583  1
  F  F4  1  0.59323958  0.51080327  0.75000000  1
  F  F5  1  0.40676042  0.48919673  0.25000000  1
  F  F6  1  0.63523976  0.05636076  0.75000000  1
  F  F7  1  0.19754566  0.64056561  0.92390417  1
  F  F8  1  0.80245434  0.35943439  0.42390417  1
  F  F9  1  0.84276737  0.05122781  0.25000000  1
  F  F10  1  0.80245434  0.35943439  0.07609583  1
  F  F11  1  0.67747188  0.79097557  0.52987371  1
  F  F12  1  0.15723263  0.94877219  0.75000000  1
  F  F13  1  0.32252812  0.20902443  0.02987371  1
loop_
_geom_bond_atom_site_label_1
_geom_bond_atom_site_label_2
_geom_bond_distance
_geom_bond_site_symmetry_2
F0 Ta1 1.975819 1_565
F0 Pb0 2.483532 1_455
F1 Ta1 1.916862 1_555
F1 Pb1 2.655339 1_555
F2 Ta0 1.916862 1_555
F2 Pb0 2.655339 1_556
F3 Ta0 2.019243 1_555
F3 Pb0 2.631967 1_455
F3 Pb1 2.637230 1_555
F4 Ta0 1.996768 1_555
F4 Pb1 2.540345 1_655
F5 Ta1 1.996768 1_555
F5 Pb0 2.540345 1_455
F6 Ta0 1.975819 1_545
F6 Pb1 2.483532 1_655
F7 Ta0 2.019243 1_555
F7 Pb0 2.631967 1_456
F7 Pb1 2.637230 1_555
F8 Ta1 2.019243 1_555
F8 Pb1 2.631967 1_655
F8 Pb0 2.637230 1_555
F9 Ta1 1.928689 1_555
F9 Pb0 2.622505 1_545
F10 Ta1 2.019243 1_555
F10 Pb1 2.631967 1_654
F10 Pb0 2.637230 1_555
F11 Ta0 1.916862 1_555
F11 Pb0 2.655339 1_555
F12 Ta0 1.928689 1_555
F12 Pb1 2.622505 1_565
F13 Ta1 1.916862 1_555
F13 Pb1 2.655339 1_554
