# generated using pymatgen
data_Sr3Li4(GeN3)2
_symmetry_space_group_name_H-M   'P 1'
_cell_length_a   5.93188610
_cell_length_b   5.93188610
_cell_length_c   6.36369640
_cell_angle_alpha   89.32241500
_cell_angle_beta   89.32241500
_cell_angle_gamma   117.00545955
_symmetry_Int_Tables_number   1
_chemical_formula_structural   Sr3Li4(GeN3)2
_chemical_formula_sum   'Sr3 Li4 Ge2 N6'
_cell_volume   199.45437781
_cell_formula_units_Z   1
loop_
 _symmetry_equiv_pos_site_id
 _symmetry_equiv_pos_as_xyz
  1  'x, y, z'
loop_
 _atom_site_type_symbol
 _atom_site_label
 _atom_site_symmetry_multiplicity
 _atom_site_fract_x
 _atom_site_fract_y
 _atom_site_fract_z
 _atom_site_occupancy
  Sr  Sr0  1  0.81051400  0.18948600  0.50000000  1
  Sr  Sr1  1  0.18948600  0.81051400  0.50000000  1
  Sr  Sr2  1  0.00000000  0.00000000  0.00000000  1
  Li  Li0  1  0.45799000  0.81653700  0.11825800  1
  Li  Li1  1  0.54201000  0.18346300  0.88174200  1
  Li  Li2  1  0.18346300  0.54201000  0.88174200  1
  Li  Li3  1  0.81653700  0.45799000  0.11825800  1
  Ge  Ge0  1  0.38770900  0.38770900  0.32058700  1
  Ge  Ge1  1  0.61229100  0.61229100  0.67941300  1
  N  N0  1  0.86060300  0.54948400  0.80111600  1
  N  N1  1  0.13939700  0.45051600  0.19888400  1
  N  N2  1  0.69948200  0.69948200  0.36827200  1
  N  N3  1  0.30051800  0.30051800  0.63172800  1
  N  N4  1  0.54948400  0.86060300  0.80111600  1
  N  N5  1  0.45051600  0.13939700  0.19888400  1
loop_
_geom_bond_atom_site_label_1
_geom_bond_atom_site_label_2
_geom_bond_distance
_geom_bond_site_symmetry_2
Li0 N5 2.008208 1_565
Li0 N4 2.066102 1_554
Li0 N1 2.184777 1_555
Li0 N2 2.448797 1_555
Li1 N4 2.008208 1_545
Li1 N5 2.066102 1_556
Li1 N0 2.184777 1_555
Li1 N3 2.448797 1_555
Li2 N0 2.008208 1_455
Li2 N1 2.066102 1_556
Li2 N4 2.184777 1_555
Li2 N3 2.448797 1_555
Li3 N1 2.008208 1_655
Li3 N0 2.066102 1_554
Li3 N5 2.184777 1_555
Li3 N2 2.448797 1_555
Ge0 N1 1.851150 1_555
Ge0 N5 1.851150 1_555
Ge0 N2 1.962924 1_555
Ge0 N3 2.040602 1_555
Ge1 N4 1.851150 1_555
Ge1 N0 1.851150 1_555
Ge1 N3 1.962924 1_555
Ge1 N2 2.040602 1_555
N0 Sr1 2.640738 1_655
N0 Sr2 2.743226 1_666
N0 Sr0 2.802570 1_555
N1 Sr0 2.640738 1_455
N1 Sr2 2.743226 1_555
N1 Sr1 2.802570 1_555
N2 Sr1 2.813756 1_655
N2 Sr0 2.813756 1_565
N2 Sr2 2.960470 1_665
N3 Sr1 2.813756 1_545
N3 Sr0 2.813756 1_455
N3 Sr2 2.960470 1_556
N4 Sr0 2.640738 1_565
N4 Sr2 2.743226 1_666
N4 Sr1 2.802570 1_555
N5 Sr1 2.640738 1_545
N5 Sr2 2.743226 1_555
N5 Sr0 2.802570 1_555
