# generated using pymatgen
data_Sr10Sm6Al6Si30N54O7
_symmetry_space_group_name_H-M   'P 1'
_cell_length_a   9.88566727
_cell_length_b   9.88566701
_cell_length_c   17.49616752
_cell_angle_alpha   98.25811476
_cell_angle_beta   98.25811453
_cell_angle_gamma   119.44465472
_symmetry_Int_Tables_number   1
_chemical_formula_structural   Sr10Sm6Al6Si30N54O7
_chemical_formula_sum   'Sr10 Sm6 Al6 Si30 N54 O7'
_cell_volume   1427.28208485
_cell_formula_units_Z   1
loop_
 _symmetry_equiv_pos_site_id
 _symmetry_equiv_pos_as_xyz
  1  'x, y, z'
loop_
 _atom_site_type_symbol
 _atom_site_label
 _atom_site_symmetry_multiplicity
 _atom_site_fract_x
 _atom_site_fract_y
 _atom_site_fract_z
 _atom_site_occupancy
  Sr  Sr0  1  0.01733839  0.33905280  1.00000000  1
  Sr  Sr1  1  0.33905280  0.01733839  1.00000000  1
  Sr  Sr2  1  0.68450197  0.35555413  0.69728384  1
  Sr  Sr3  1  0.32107663  0.32107663  0.29402709  1
  Sr  Sr4  1  0.86304930  0.86304930  0.00000000  1
  Sr  Sr5  1  0.98721813  0.65827029  0.30271616  1
  Sr  Sr6  1  0.02704955  0.02704955  0.70597291  1
  Sr  Sr7  1  0.35555413  0.68450197  0.69728384  1
  Sr  Sr8  1  0.65827029  0.98721813  0.30271616  1
  Sr  Sr9  1  0.49181696  0.49181696  0.00000000  1
  Sm  Sm0  1  0.68202994  0.68202994  0.39235833  1
  Sm  Sm1  1  0.66453078  0.66453078  0.61386729  1
  Sm  Sm2  1  0.28967161  0.28967161  0.60764167  1
  Sm  Sm3  1  0.94156893  0.44156893  0.50000000  1
  Sm  Sm4  1  0.05066350  0.05066350  0.38613271  1
  Sm  Sm5  1  0.44156893  0.94156893  0.50000000  1
  Al  Al0  1  0.08875869  0.44181714  0.17954385  1
  Al  Al1  1  0.90921484  0.26227329  0.82045615  1
  Al  Al2  1  0.23981223  0.23981223  0.10773364  1
  Al  Al3  1  0.44181714  0.08875869  0.17954385  1
  Al  Al4  1  0.13207859  0.13207859  0.89226636  1
  Al  Al5  1  0.26227329  0.90921484  0.82045615  1
  Si  Si0  1  0.78343138  0.47501261  0.90475394  1
  Si  Si1  1  0.86165350  0.04381409  0.52839630  1
  Si  Si2  1  0.47501261  0.78343138  0.90475394  1
  Si  Si3  1  0.62086957  0.12715192  0.90284137  1
  Si  Si4  1  0.92681814  0.75006624  0.82068433  1
  Si  Si5  1  0.22431055  0.71802820  0.09715863  1
  Si  Si6  1  0.02706597  0.34726785  0.33708398  1
  Si  Si7  1  0.10613382  0.92938191  0.17931567  1
  Si  Si8  1  0.33234436  0.67914545  0.34178089  1
  Si  Si9  1  0.51541779  0.33325720  0.47160370  1
  Si  Si10  1  0.87867744  0.57025867  0.09524606  1
  Si  Si11  1  0.71802820  0.22431055  0.09715863  1
  Si  Si12  1  0.68998199  0.01018387  0.66291602  1
  Si  Si13  1  0.61184228  0.43364500  0.19067212  1
  Si  Si14  1  0.67914545  0.33234436  0.34178089  1
  Si  Si15  1  0.33736456  0.99056347  0.65821911  1
  Si  Si16  1  0.77575611  0.77575611  0.19305672  1
  Si  Si17  1  0.57025867  0.87867744  0.09524606  1
  Si  Si18  1  0.75006624  0.92681814  0.82068433  1
  Si  Si19  1  0.34726785  0.02706597  0.33708398  1
  Si  Si20  1  0.12715192  0.62086957  0.90284137  1
  Si  Si21  1  0.43364500  0.61184228  0.19067212  1
  Si  Si22  1  0.01018387  0.68998199  0.66291602  1
  Si  Si23  1  0.33325720  0.51541779  0.47160370  1
  Si  Si24  1  0.92938191  0.10613382  0.17931567  1
  Si  Si25  1  0.04381409  0.86165350  0.52839630  1
  Si  Si26  1  0.42117016  0.24297289  0.80932788  1
  Si  Si27  1  0.58269940  0.58269940  0.80694328  1
  Si  Si28  1  0.99056347  0.33736456  0.65821911  1
  Si  Si29  1  0.24297289  0.42117016  0.80932788  1
  N  N0  1  0.00667814  0.51516730  0.65145485  1
  N  N1  1  0.10466650  0.93152098  0.86084144  1
  N  N2  1  0.13969126  0.35637256  0.42667152  1
  N  N3  1  0.51516730  0.00667814  0.65145485  1
  N  N4  1  0.03495593  0.03495593  0.55045768  1
  N  N5  1  0.89790469  0.41117668  0.11753348  1
  N  N6  1  0.27589213  0.27589213  0.84187946  1
  N  N7  1  0.14322141  0.63224687  0.00000000  1
  N  N8  1  0.35522329  0.86371245  0.34854515  1
  N  N9  1  0.78037121  0.29364320  0.88246652  1
  N  N10  1  0.63224687  0.14322141  0.00000000  1
  N  N11  1  0.91727531  0.91727531  0.15305946  1
  N  N12  1  0.65999119  0.46901054  0.29378999  1
  N  N13  1  0.85083479  0.21224687  0.70894122  1
  N  N14  1  0.24153157  0.92497366  0.55839982  1
  N  N15  1  0.36620120  0.17522055  0.70621001  1
  N  N16  1  0.71301974  0.92970103  0.57332848  1
  N  N17  1  0.60652766  0.93952500  0.86506942  1
  N  N18  1  0.68313175  0.36657384  0.44160018  1
  N  N19  1  0.88234198  0.69645007  0.71919391  1
  N  N20  1  0.07445558  0.74145824  0.13493058  1
  N  N21  1  0.92970103  0.71301974  0.57332848  1
  N  N22  1  0.07067953  0.24382506  0.13915856  1
  N  N23  1  0.21224687  0.85083479  0.70894122  1
  N  N24  1  0.69645007  0.88234198  0.71919391  1
  N  N25  1  0.76314280  0.59396230  0.16013718  1
  N  N26  1  0.92497366  0.24153157  0.55839982  1
  N  N27  1  0.58456108  0.25482466  0.14142673  1
  N  N28  1  0.60300562  0.43382512  0.83986282  1
  N  N29  1  0.43382512  0.60300562  0.83986282  1
  N  N30  1  0.78285496  0.55290807  1.00000000  1
  N  N31  1  0.25482466  0.58456108  0.14142673  1
  N  N32  1  0.14189357  0.50330565  0.29105878  1
  N  N33  1  0.44313434  0.11339792  0.85857327  1
  N  N34  1  0.17522055  0.36620120  0.70621001  1
  N  N35  1  0.29364320  0.78037121  0.88246652  1
  N  N36  1  0.50330565  0.14189357  0.29105878  1
  N  N37  1  0.93952500  0.60652766  0.86506942  1
  N  N38  1  0.43401267  0.43401267  0.15812054  1
  N  N39  1  0.97725617  0.16314807  0.28080609  1
  N  N40  1  0.36657384  0.68313175  0.44160018  1
  N  N41  1  0.11339792  0.44313434  0.85857327  1
  N  N42  1  0.86371245  0.35522329  0.34854515  1
  N  N43  1  0.16314807  0.97725617  0.28080609  1
  N  N44  1  0.55290807  0.78285496  1.00000000  1
  N  N45  1  0.46901054  0.65999119  0.29378999  1
  N  N46  1  0.93152098  0.10466650  0.86084144  1
  N  N47  1  0.41117668  0.89790469  0.11753348  1
  N  N48  1  0.74145824  0.07445558  0.13493058  1
  N  N49  1  0.59396230  0.76314280  0.16013718  1
  N  N50  1  0.76421585  0.76421585  0.84694054  1
  N  N51  1  0.24382506  0.07067953  0.13915856  1
  N  N52  1  0.48449825  0.48449825  0.44954232  1
  N  N53  1  0.35637256  0.13969126  0.42667152  1
  O  O0  1  0.54373274  0.36380739  0.57121029  1
  O  O1  1  0.82034184  0.82034184  0.29055011  1
  O  O2  1  0.97252245  0.79259710  0.42878971  1
  O  O3  1  0.21535685  0.21535685  1.00000000  1
  O  O4  1  0.79259710  0.97252245  0.42878971  1
  O  O5  1  0.36380739  0.54373274  0.57121029  1
  O  O6  1  0.52979173  0.52979173  0.70944989  1
loop_
_geom_bond_atom_site_label_1
_geom_bond_atom_site_label_2
_geom_bond_distance
_geom_bond_site_symmetry_2
Al0 N31 1.854281 1_555
Al0 N32 1.871662 1_555
Al0 N5 1.893214 1_455
Al0 N22 1.893325 1_555
Al1 N41 1.854281 1_655
Al1 N13 1.871662 1_555
Al1 N9 1.893214 1_555
Al1 N46 1.893325 1_555
Al2 O3 1.830455 1_554
Al2 N51 1.849985 1_555
Al2 N22 1.849985 1_555
Al2 N38 1.884806 1_555
Al3 N27 1.854281 1_555
Al3 N36 1.871662 1_555
Al3 N47 1.893214 1_545
Al3 N51 1.893325 1_555
Al4 O3 1.830455 1_555
Al4 N1 1.849985 1_545
Al4 N46 1.849985 1_455
Al4 N6 1.884806 1_555
Al5 N33 1.854281 1_565
Al5 N23 1.871662 1_555
Al5 N35 1.893214 1_555
Al5 N1 1.893325 1_555
N0 Si22 1.693375 1_555
N0 Si28 1.708440 1_455
N0 Sm3 2.541907 1_455
N0 Sr7 2.912682 1_555
N0 Sr2 3.071258 1_455
N1 Si4 1.727681 1_455
N1 Sr1 2.805334 1_565
N1 Sr6 3.110106 1_565
N2 Si23 1.733927 1_555
N2 Si6 1.750485 1_555
N2 Sm4 2.645917 1_555
N2 Sm3 2.867850 1_455
N2 Sr3 3.209504 1_555
N3 Si12 1.693375 1_555
N3 Si15 1.708440 1_545
N3 Sm5 2.541907 1_545
N3 Sr2 2.912682 1_555
N3 Sr7 3.071258 1_545
N4 Si25 1.748997 1_545
N4 Si1 1.748997 1_455
N4 Sm2 2.449658 1_555
N4 Sr6 2.744413 1_555
N4 Sm4 2.923519 1_555
N5 Si11 1.760893 1_555
N5 Si10 1.763550 1_555
N5 Sr0 2.689798 1_654
N6 Si29 1.770333 1_555
N6 Si26 1.770333 1_555
N6 Sr6 2.906340 1_555
N6 Sr9 2.982253 1_556
N7 Si5 1.666582 1_555
N7 Si20 1.666582 1_554
N7 Sr0 2.530470 1_554
N8 Si19 1.693375 1_565
N8 Si8 1.708440 1_555
N8 Sm5 2.541907 1_555
N8 Sr8 2.912682 1_555
N8 Sr5 3.071258 1_455
N9 Si3 1.760893 1_555
N9 Si0 1.763550 1_555
N9 Sr0 2.689798 1_655
N10 Si11 1.666582 1_555
N10 Si3 1.666582 1_554
N10 Sr1 2.530470 1_554
N11 Si16 1.744243 1_555
N11 Si24 1.796987 1_565
N11 Si7 1.796987 1_655
N11 Sr4 2.576601 1_555
N12 Si13 1.735602 1_555
N12 Si14 1.760084 1_555
N12 Sm0 2.419484 1_555
N12 Sr5 2.794587 1_555
N12 Sr3 2.924445 1_555
N13 Si28 1.792524 1_555
N13 Si12 1.792852 1_555
N13 Sr2 2.651280 1_555
N13 Sr6 3.085989 1_655
N14 Si25 1.701678 1_555
N14 Si15 1.721486 1_555
N14 Sm5 2.300236 1_555
N15 Si26 1.735602 1_555
N15 Si15 1.760084 1_545
N15 Sm2 2.419484 1_555
N15 Sr2 2.794587 1_555
N15 Sr6 2.924445 1_555
N16 Si1 1.733927 1_565
N16 Si12 1.750486 1_565
N16 Sm1 2.645917 1_555
N16 Sm5 2.867850 1_555
N16 Sr6 3.209504 1_665
N17 Si18 1.759573 1_555
N17 Si2 1.774313 1_555
N17 Si3 1.805437 1_565
N17 Sr7 3.280440 1_555
N18 Si9 1.701678 1_555
N18 Si14 1.721486 1_555
N18 Sm3 2.300236 1_555
N19 Si4 1.703987 1_555
N19 Si22 1.729061 1_655
N19 Sm1 2.481318 1_555
N19 Sr2 2.874430 1_555
N19 Sr6 2.914912 1_665
N20 Si7 1.759573 1_555
N20 Si10 1.774313 1_455
N20 Si5 1.805437 1_555
N20 Sr5 3.280440 1_455
N21 Si25 1.733927 1_655
N21 Si22 1.750486 1_655
N21 Sm1 2.645917 1_555
N21 Sm3 2.867850 1_555
N21 Sr6 3.209504 1_665
N22 Si24 1.727681 1_455
N22 Sr0 2.805335 1_554
N22 Sr3 3.110106 1_555
N23 Si15 1.792524 1_555
N23 Si22 1.792852 1_555
N23 Sr7 2.651280 1_555
N23 Sr6 3.085989 1_565
N24 Si18 1.703987 1_555
N24 Si12 1.729061 1_565
N24 Sm1 2.481318 1_555
N24 Sr7 2.874430 1_555
N24 Sr6 2.914912 1_665
N25 Si16 1.743201 1_555
N25 Si13 1.782274 1_555
N25 Si10 1.790978 1_555
N25 Sr5 2.847185 1_555
N25 Sr9 3.229497 1_555
N26 Si1 1.701678 1_555
N26 Si28 1.721486 1_555
N26 Sm3 2.300236 1_555
N27 Si13 1.722514 1_555
N27 Si11 1.746274 1_555
N27 Sr1 2.920439 1_554
N28 Si27 1.743201 1_555
N28 Si26 1.782274 1_555
N28 Si0 1.790978 1_555
N28 Sr2 2.847185 1_555
N28 Sr9 3.229497 1_556
N29 Si27 1.743201 1_555
N29 Si29 1.782274 1_555
N29 Si2 1.790978 1_555
N29 Sr7 2.847185 1_555
N29 Sr9 3.229497 1_556
N30 Si10 1.734487 1_556
N30 Si0 1.734487 1_555
N30 Sr9 2.633278 1_556
N30 Sr4 2.763850 1_556
N31 Si21 1.722514 1_555
N31 Si5 1.746274 1_555
N31 Sr0 2.920439 1_554
N32 Si8 1.792524 1_555
N32 Si6 1.792852 1_555
N32 Sr5 2.651280 1_455
N32 Sr3 3.085989 1_555
N33 Si26 1.722514 1_555
N33 Si3 1.746274 1_555
N33 Sr1 2.920439 1_555
N34 Si29 1.735602 1_555
N34 Si28 1.760084 1_455
N34 Sm2 2.419484 1_555
N34 Sr7 2.794587 1_555
N34 Sr6 2.924445 1_555
N35 Si20 1.760893 1_555
N35 Si2 1.763550 1_555
N35 Sr1 2.689798 1_565
N36 Si14 1.792524 1_555
N36 Si19 1.792852 1_555
N36 Sr8 2.651280 1_545
N36 Sr3 3.085989 1_555
N37 Si4 1.759573 1_555
N37 Si0 1.774313 1_555
N37 Si20 1.805437 1_655
N37 Sr2 3.280440 1_555
N38 Si21 1.770333 1_555
N38 Si13 1.770333 1_555
N38 Sr3 2.906340 1_555
N38 Sr9 2.982254 1_555
N39 Si24 1.703987 1_555
N39 Si6 1.729061 1_655
N39 Sm4 2.481318 1_655
N39 Sr8 2.874430 1_545
N39 Sr3 2.914912 1_655
N40 Si23 1.701678 1_555
N40 Si8 1.721486 1_555
N40 Sm5 2.300235 1_555
N41 Si29 1.722514 1_555
N41 Si20 1.746274 1_555
N41 Sr0 2.920439 1_555
N42 Si6 1.693375 1_655
N42 Si14 1.708440 1_555
N42 Sm3 2.541907 1_555
N42 Sr5 2.912682 1_555
N42 Sr8 3.071258 1_545
N43 Si7 1.703987 1_555
N43 Si19 1.729061 1_565
N43 Sm4 2.481318 1_565
N43 Sr5 2.874430 1_455
N43 Sr3 2.914912 1_565
N44 Si17 1.734487 1_556
N44 Si2 1.734487 1_555
N44 Sr9 2.633278 1_556
N44 Sr4 2.763850 1_556
N45 Si21 1.735602 1_555
N45 Si8 1.760084 1_555
N45 Sm0 2.419484 1_555
N45 Sr8 2.794587 1_555
N45 Sr3 2.924445 1_555
N46 Si18 1.727681 1_545
N46 Sr0 2.805334 1_655
N46 Sr6 3.110106 1_655
N47 Si5 1.760893 1_555
N47 Si17 1.763550 1_555
N47 Sr1 2.689798 1_564
N48 Si24 1.759573 1_555
N48 Si17 1.774313 1_545
N48 Si11 1.805437 1_555
N48 Sr8 3.280440 1_545
N49 Si16 1.743201 1_555
N49 Si21 1.782274 1_555
N49 Si17 1.790978 1_555
N49 Sr8 2.847185 1_555
N49 Sr9 3.229497 1_555
N50 Si27 1.744243 1_555
N50 Si18 1.796987 1_555
N50 Si4 1.796987 1_555
N50 Sr4 2.576601 1_556
N51 Si7 1.727681 1_545
N51 Sr1 2.805335 1_554
N51 Sr3 3.110106 1_555
N52 Si9 1.748997 1_555
N52 Si23 1.748997 1_555
N52 Sm0 2.449659 1_555
N52 Sr3 2.744413 1_555
N52 Sm1 2.923519 1_555
N53 Si9 1.733927 1_555
N53 Si19 1.750485 1_555
N53 Sm4 2.645917 1_555
N53 Sm5 2.867850 1_545
N53 Sr3 3.209504 1_555
O0 Si9 1.682927 1_555
O0 Sm2 2.456775 1_555
O0 Sr2 2.467856 1_555
O0 Sm1 2.537161 1_555
O1 Si16 1.635607 1_555
O1 Sm4 2.424978 1_665
O1 Sm0 2.544237 1_555
O1 Sr8 2.815930 1_555
O1 Sr5 2.815930 1_555
O2 Si25 1.682927 1_655
O2 Sm0 2.456775 1_555
O2 Sr5 2.467855 1_555
O2 Sm4 2.537161 1_665
O3 Sr9 2.755901 1_556
O3 Sr1 2.771405 1_555
O3 Sr0 2.771405 1_555
O4 Si1 1.682927 1_565
O4 Sm0 2.456775 1_555
O4 Sr8 2.467856 1_555
O4 Sm4 2.537161 1_665
O5 Si23 1.682927 1_555
O5 Sm2 2.456775 1_555
O5 Sr7 2.467855 1_555
O5 Sm1 2.537161 1_555
O6 Si27 1.635607 1_555
O6 Sm1 2.424978 1_555
O6 Sm2 2.544237 1_555
O6 Sr2 2.815930 1_555
O6 Sr7 2.815930 1_555
