# generated using pymatgen
data_KInSnSe4
_symmetry_space_group_name_H-M   'P 1'
_cell_length_a   12.94545600
_cell_length_b   8.04403000
_cell_length_c   18.88152994
_cell_angle_alpha   81.75242610
_cell_angle_beta   90.00000000
_cell_angle_gamma   90.00000000
_symmetry_Int_Tables_number   1
_chemical_formula_structural   KInSnSe4
_chemical_formula_sum   'K8 In8 Sn8 Se32'
_cell_volume   1945.86685130
_cell_formula_units_Z   8
loop_
 _symmetry_equiv_pos_site_id
 _symmetry_equiv_pos_as_xyz
  1  'x, y, z'
loop_
 _atom_site_type_symbol
 _atom_site_label
 _atom_site_symmetry_multiplicity
 _atom_site_fract_x
 _atom_site_fract_y
 _atom_site_fract_z
 _atom_site_occupancy
  K  K0  1  0.07038900  0.74677000  0.67914400  1
  K  K1  1  0.42961100  0.74677000  0.17914400  1
  K  K2  1  0.60151800  0.26402600  0.45602400  1
  K  K3  1  0.39848200  0.73597400  0.54397600  1
  K  K4  1  0.57038900  0.25323000  0.82085600  1
  K  K5  1  0.10151800  0.73597400  0.04397600  1
  K  K6  1  0.92961100  0.25323000  0.32085600  1
  K  K7  1  0.89848200  0.26402600  0.95602400  1
  In  In0  1  0.75705000  0.53148400  0.15775700  1
  In  In1  1  0.25705000  0.46851600  0.34224300  1
  In  In2  1  0.24339500  0.96271000  0.85773400  1
  In  In3  1  0.75660500  0.03729000  0.14226600  1
  In  In4  1  0.24295000  0.46851600  0.84224300  1
  In  In5  1  0.25660500  0.96271000  0.35773400  1
  In  In6  1  0.74339500  0.03729000  0.64226600  1
  In  In7  1  0.74295000  0.53148400  0.65775700  1
  Sn  Sn0  1  0.32838600  0.19768700  0.01523000  1
  Sn  Sn1  1  0.29556900  0.24378400  0.67557300  1
  Sn  Sn2  1  0.82838600  0.80231300  0.48477000  1
  Sn  Sn3  1  0.70443100  0.75621600  0.32442700  1
  Sn  Sn4  1  0.17161400  0.19768700  0.51523000  1
  Sn  Sn5  1  0.67161400  0.80231300  0.98477000  1
  Sn  Sn6  1  0.20443100  0.24378400  0.17557300  1
  Sn  Sn7  1  0.79556900  0.75621600  0.82442700  1
  Se  Se0  1  0.17214500  0.53358500  0.21181200  1
  Se  Se1  1  0.39700100  0.19348300  0.14475400  1
  Se  Se2  1  0.86510600  0.74696100  0.95472800  1
  Se  Se3  1  0.63489400  0.74696100  0.45472800  1
  Se  Se4  1  0.10299900  0.19348300  0.64475400  1
  Se  Se5  1  0.82785500  0.46641500  0.78818800  1
  Se  Se6  1  0.84736100  0.09702700  0.51902200  1
  Se  Se7  1  0.11859300  0.99745000  0.25388700  1
  Se  Se8  1  0.38315600  0.71077100  0.35908900  1
  Se  Se9  1  0.90430900  0.56136000  0.57191100  1
  Se  Se10  1  0.38140700  0.99745000  0.75388700  1
  Se  Se11  1  0.61684400  0.28922900  0.64091100  1
  Se  Se12  1  0.67214500  0.46641500  0.28818800  1
  Se  Se13  1  0.15263900  0.90297300  0.48097800  1
  Se  Se14  1  0.88315600  0.28922900  0.14091100  1
  Se  Se15  1  0.65263900  0.09702700  0.01902200  1
  Se  Se16  1  0.38221400  0.21602700  0.34660900  1
  Se  Se17  1  0.89700100  0.80651700  0.35524600  1
  Se  Se18  1  0.11684400  0.71077100  0.85908900  1
  Se  Se19  1  0.32785500  0.53358500  0.71181200  1
  Se  Se20  1  0.59569100  0.56136000  0.07191100  1
  Se  Se21  1  0.09569100  0.43864000  0.42808900  1
  Se  Se22  1  0.88221400  0.78397300  0.15339100  1
  Se  Se23  1  0.61859300  0.00255000  0.24611300  1
  Se  Se24  1  0.13489400  0.25303900  0.04527200  1
  Se  Se25  1  0.61778600  0.78397300  0.65339100  1
  Se  Se26  1  0.60299900  0.80651700  0.85524600  1
  Se  Se27  1  0.34736100  0.90297300  0.98097800  1
  Se  Se28  1  0.36510600  0.25303900  0.54527200  1
  Se  Se29  1  0.40430900  0.43864000  0.92808900  1
  Se  Se30  1  0.11778600  0.21602700  0.84660900  1
  Se  Se31  1  0.88140700  0.00255000  0.74611300  1
loop_
_geom_bond_atom_site_label_1
_geom_bond_atom_site_label_2
_geom_bond_distance
_geom_bond_site_symmetry_2
K0 Se18 3.421575 1_555
K0 Se9 3.436961 1_455
K0 Se31 3.544545 1_465
K0 Se4 3.583678 1_565
K0 Se19 3.758557 1_555
K0 Se13 3.919671 1_555
K1 Se8 3.421575 1_555
K1 Se20 3.436961 1_555
K1 Se23 3.544545 1_565
K1 Se1 3.583678 1_565
K1 Se0 3.758557 1_555
K1 Se27 3.919671 1_554
K2 Se12 3.471136 1_555
K2 Se28 3.488724 1_555
K2 Se11 3.531323 1_555
K2 Se16 3.564524 1_555
K2 Se6 3.590218 1_555
K2 Se3 3.905284 1_555
K3 Se19 3.471136 1_555
K3 Se3 3.488724 1_555
K3 Se8 3.531323 1_555
K3 Se25 3.564524 1_555
K3 Se13 3.590218 1_555
K3 Se28 3.905284 1_555
K4 Se11 3.421575 1_555
K4 Se29 3.436961 1_555
K4 Se10 3.544545 1_545
K4 Se26 3.583678 1_545
K4 Se5 3.758557 1_555
K4 Se15 3.919671 1_556
K5 Se0 3.471136 1_555
K5 Se2 3.488724 1_454
K5 Se18 3.531323 1_554
K5 Se22 3.564524 1_455
K5 Se27 3.590218 1_554
K5 Se24 3.905284 1_555
K6 Se14 3.421575 1_555
K6 Se21 3.436961 1_655
K6 Se7 3.544545 1_645
K6 Se17 3.583678 1_545
K6 Se12 3.758557 1_555
K6 Se6 3.919671 1_555
K7 Se5 3.471136 1_555
K7 Se24 3.488724 1_656
K7 Se14 3.531323 1_556
K7 Se30 3.564524 1_655
K7 Se15 3.590218 1_556
K7 Se2 3.905284 1_555
In0 Se22 2.590218 1_555
In0 Se14 2.596444 1_555
In0 Se20 2.633759 1_555
In0 Se12 2.679050 1_555
In1 Se16 2.590218 1_555
In1 Se8 2.596444 1_555
In1 Se21 2.633759 1_555
In1 Se0 2.679050 1_555
In2 Se30 2.591831 1_565
In2 Se18 2.603229 1_555
In2 Se10 2.637731 1_555
In2 Se27 2.671441 1_555
In3 Se22 2.591831 1_545
In3 Se14 2.603229 1_555
In3 Se23 2.637731 1_555
In3 Se15 2.671441 1_555
In4 Se30 2.590218 1_555
In4 Se18 2.596444 1_555
In4 Se29 2.633759 1_555
In4 Se19 2.679050 1_555
In5 Se16 2.591831 1_565
In5 Se8 2.603229 1_555
In5 Se7 2.637731 1_555
In5 Se13 2.671441 1_555
In6 Se25 2.591831 1_545
In6 Se11 2.603229 1_555
In6 Se31 2.637731 1_555
In6 Se6 2.671441 1_555
In7 Se25 2.590218 1_555
In7 Se11 2.596444 1_555
In7 Se9 2.633759 1_555
In7 Se5 2.679050 1_555
Se0 Sn6 2.556338 1_555
Se1 Sn0 2.597580 1_555
Se1 Sn6 2.604702 1_555
Se2 Sn7 2.610808 1_555
Se2 Sn5 2.620440 1_555
Se3 Sn3 2.610808 1_555
Se3 Sn2 2.620440 1_555
Se4 Sn4 2.597580 1_555
Se4 Sn1 2.604702 1_555
Se5 Sn7 2.556338 1_555
Se6 Sn2 2.557076 1_545
Se7 Sn6 2.550900 1_565
Se9 Sn2 2.552450 1_555
Se10 Sn1 2.550900 1_565
Se12 Sn3 2.556338 1_555
Se13 Sn4 2.557076 1_565
Se15 Sn5 2.557076 1_544
Se17 Sn2 2.597580 1_555
Se17 Sn3 2.604702 1_555
Se19 Sn1 2.556338 1_555
Se20 Sn5 2.552450 1_554
Se21 Sn4 2.552450 1_555
Se23 Sn3 2.550900 1_545
Se24 Sn6 2.610808 1_555
Se24 Sn0 2.620440 1_555
Se26 Sn5 2.597580 1_555
Se26 Sn7 2.604702 1_555
Se27 Sn0 2.557076 1_566
Se28 Sn1 2.610808 1_555
Se28 Sn4 2.620440 1_555
Se29 Sn0 2.552450 1_556
Se31 Sn7 2.550900 1_545
