# generated using pymatgen
data_KNa2FeO3
_symmetry_space_group_name_H-M   'P 1'
_cell_length_a   6.37008000
_cell_length_b   6.62438300
_cell_length_c   10.32274100
_cell_angle_alpha   90.00000000
_cell_angle_beta   90.00000000
_cell_angle_gamma   90.00000000
_symmetry_Int_Tables_number   1
_chemical_formula_structural   KNa2FeO3
_chemical_formula_sum   'K4 Na8 Fe4 O12'
_cell_volume   435.59747280
_cell_formula_units_Z   4
loop_
 _symmetry_equiv_pos_site_id
 _symmetry_equiv_pos_as_xyz
  1  'x, y, z'
loop_
 _atom_site_type_symbol
 _atom_site_label
 _atom_site_symmetry_multiplicity
 _atom_site_fract_x
 _atom_site_fract_y
 _atom_site_fract_z
 _atom_site_occupancy
  K  K0  1  0.75000000  0.16227900  0.52535000  1
  K  K1  1  0.25000000  0.83772100  0.47465000  1
  K  K2  1  0.75000000  0.66227900  0.97465000  1
  K  K3  1  0.25000000  0.33772100  0.02535000  1
  Na  Na0  1  0.50610900  0.50651900  0.26954100  1
  Na  Na1  1  0.00610900  0.49348100  0.73045900  1
  Na  Na2  1  0.99389100  0.00651900  0.23045900  1
  Na  Na3  1  0.49389100  0.99348100  0.76954100  1
  Na  Na4  1  0.49389100  0.49348100  0.73045900  1
  Na  Na5  1  0.99389100  0.50651900  0.26954100  1
  Na  Na6  1  0.00610900  0.99348100  0.76954100  1
  Na  Na7  1  0.50610900  0.00651900  0.23045900  1
  Fe  Fe0  1  0.75000000  0.67000200  0.50755800  1
  Fe  Fe1  1  0.25000000  0.32999800  0.49244200  1
  Fe  Fe2  1  0.75000000  0.17000200  0.99244200  1
  Fe  Fe3  1  0.25000000  0.82999800  0.00755800  1
  O  O0  1  0.75000000  0.33291100  0.14126800  1
  O  O1  1  0.25000000  0.66708900  0.85873200  1
  O  O2  1  0.75000000  0.83291100  0.35873200  1
  O  O3  1  0.25000000  0.16708900  0.64126800  1
  O  O4  1  0.50000000  0.50000000  0.50000000  1
  O  O5  1  0.00000000  0.50000000  0.50000000  1
  O  O6  1  0.00000000  0.00000000  0.00000000  1
  O  O7  1  0.50000000  0.00000000  0.00000000  1
  O  O8  1  0.75000000  0.79359500  0.67112700  1
  O  O9  1  0.25000000  0.20640500  0.32887300  1
  O  O10  1  0.75000000  0.29359500  0.82887300  1
  O  O11  1  0.25000000  0.70640500  0.17112700  1
loop_
_geom_bond_atom_site_label_1
_geom_bond_atom_site_label_2
_geom_bond_distance
_geom_bond_site_symmetry_2
K0 O5 2.758556 1_655
K0 O4 2.758556 1_555
K0 O2 2.778265 1_545
K0 O8 2.868680 1_545
K0 O10 3.251704 1_555
K1 O4 2.758556 1_555
K1 O5 2.758556 1_555
K1 O3 2.778265 1_565
K1 O9 2.868680 1_565
K1 O11 3.251704 1_555
K2 O6 2.758556 1_666
K2 O7 2.758556 1_566
K2 O0 2.778265 1_556
K2 O10 2.868680 1_555
K2 O8 3.251704 1_555
K3 O6 2.758556 1_555
K3 O7 2.758556 1_555
K3 O1 2.778265 1_554
K3 O11 2.868680 1_555
K3 O9 3.251704 1_555
Na0 O11 2.333867 1_555
Na0 O0 2.342992 1_555
Na0 O4 2.379679 1_555
Na0 O9 2.643694 1_555
Na0 O2 2.817134 1_555
Na1 O10 2.333867 1_455
Na1 O1 2.342992 1_555
Na1 O5 2.379679 1_555
Na1 O8 2.643694 1_455
Na1 O3 2.817134 1_555
Na2 O9 2.333867 1_655
Na2 O2 2.342992 1_545
Na2 O6 2.379679 1_655
Na2 O11 2.643694 1_645
Na2 O0 2.817134 1_555
Na3 O8 2.333867 1_555
Na3 O3 2.342992 1_565
Na3 O7 2.379679 1_566
Na3 O10 2.643694 1_565
Na3 O1 2.817134 1_555
Na4 O10 2.333867 1_555
Na4 O1 2.342992 1_555
Na4 O4 2.379679 1_555
Na4 O8 2.643694 1_555
Na4 O3 2.817134 1_555
Na5 O11 2.333867 1_655
Na5 O0 2.342992 1_555
Na5 O5 2.379679 1_655
Na5 O9 2.643694 1_655
Na5 O2 2.817134 1_555
Na6 O8 2.333867 1_455
Na6 O3 2.342992 1_565
Na6 O6 2.379679 1_566
Na6 O10 2.643694 1_465
Na6 O1 2.817134 1_555
Na7 O9 2.333867 1_555
Na7 O2 2.342992 1_545
Na7 O7 2.379679 1_555
Na7 O11 2.643694 1_545
Na7 O0 2.817134 1_555
Fe0 O8 1.876508 1_555
Fe0 O2 1.877446 1_555
Fe0 O4 1.952035 1_555
Fe0 O5 1.952035 1_655
Fe1 O9 1.876508 1_555
Fe1 O3 1.877446 1_555
Fe1 O5 1.952035 1_555
Fe1 O4 1.952035 1_555
Fe2 O10 1.876508 1_555
Fe2 O0 1.877446 1_556
Fe2 O6 1.952035 1_656
Fe2 O7 1.952035 1_556
Fe3 O11 1.876508 1_555
Fe3 O1 1.877446 1_554
Fe3 O7 1.952035 1_565
Fe3 O6 1.952035 1_565
