# generated using pymatgen
data_KCe(PO3)4
_symmetry_space_group_name_H-M   'P 1'
_cell_length_a   7.39249613
_cell_length_b   10.14198777
_cell_length_c   13.24576330
_cell_angle_alpha   90.00000000
_cell_angle_beta   90.00000000
_cell_angle_gamma   90.12722614
_symmetry_Int_Tables_number   1
_chemical_formula_structural   KCe(PO3)4
_chemical_formula_sum   'K4 Ce4 P16 O48'
_cell_volume   993.09342734
_cell_formula_units_Z   4
loop_
 _symmetry_equiv_pos_site_id
 _symmetry_equiv_pos_as_xyz
  1  'x, y, z'
loop_
 _atom_site_type_symbol
 _atom_site_label
 _atom_site_symmetry_multiplicity
 _atom_site_fract_x
 _atom_site_fract_y
 _atom_site_fract_z
 _atom_site_occupancy
  K  K0  1  0.99748604  0.93128312  0.22568512  1
  K  K1  1  0.50251396  0.56871688  0.72568512  1
  K  K2  1  0.00251396  0.06871688  0.77431488  1
  K  K3  1  0.49748604  0.43128312  0.27431488  1
  Ce  Ce0  1  0.50833347  0.97729206  0.78275439  1
  Ce  Ce1  1  0.99166653  0.52270794  0.28275439  1
  Ce  Ce2  1  0.49166653  0.02270794  0.21724561  1
  Ce  Ce3  1  0.00833347  0.47729206  0.71724561  1
  P  P0  1  0.76559299  0.75387389  0.59767742  1
  P  P1  1  0.73440701  0.74612611  0.09767742  1
  P  P2  1  0.23440701  0.24612611  0.40232258  1
  P  P3  1  0.26559299  0.25387389  0.90232258  1
  P  P4  1  0.86118941  0.75855118  0.88617465  1
  P  P5  1  0.63881059  0.74144882  0.38617465  1
  P  P6  1  0.13881059  0.24144882  0.11382535  1
  P  P7  1  0.36118941  0.25855118  0.61382535  1
  P  P8  1  0.15574380  0.80005265  0.62574427  1
  P  P9  1  0.34425620  0.69994735  0.12574427  1
  P  P10  1  0.84425620  0.19994735  0.37425573  1
  P  P11  1  0.65574380  0.30005265  0.87425573  1
  P  P12  1  0.25393753  0.79880686  0.41061553  1
  P  P13  1  0.24606247  0.70119314  0.91061553  1
  P  P14  1  0.74606247  0.20119314  0.58938447  1
  P  P15  1  0.75393753  0.29880686  0.08938447  1
  O  O0  1  0.22998474  0.88504412  0.70689392  1
  O  O1  1  0.27001526  0.61495588  0.20689392  1
  O  O2  1  0.77001526  0.11495588  0.29310608  1
  O  O3  1  0.72998474  0.38504412  0.79310608  1
  O  O4  1  0.06567023  0.78788456  0.91948837  1
  O  O5  1  0.43432977  0.71211544  0.41948837  1
  O  O6  1  0.93432977  0.21211544  0.08051163  1
  O  O7  1  0.56567023  0.28788456  0.58051163  1
  O  O8  1  0.64543163  0.84794137  0.30972093  1
  O  O9  1  0.85456837  0.65205863  0.80972093  1
  O  O10  1  0.35456837  0.15205863  0.69027907  1
  O  O11  1  0.14543163  0.34794137  0.19027907  1
  O  O12  1  0.78208785  0.88819945  0.85949387  1
  O  O13  1  0.71791215  0.61180055  0.35949387  1
  O  O14  1  0.21791215  0.11180055  0.14050613  1
  O  O15  1  0.28208785  0.38819945  0.64050613  1
  O  O16  1  0.94535204  0.83648830  0.61967101  1
  O  O17  1  0.55464796  0.66351170  0.11967101  1
  O  O18  1  0.05464796  0.16351170  0.38032899  1
  O  O19  1  0.44535204  0.33648830  0.88032899  1
  O  O20  1  0.61739706  0.80796492  0.66130245  1
  O  O21  1  0.88260294  0.69203508  0.16130245  1
  O  O22  1  0.38260294  0.19203508  0.33869755  1
  O  O23  1  0.11739706  0.30796492  0.83869755  1
  O  O24  1  0.23374120  0.85546679  0.52239461  1
  O  O25  1  0.26625880  0.64453321  0.02239461  1
  O  O26  1  0.76625880  0.14453321  0.47760539  1
  O  O27  1  0.73374120  0.35546679  0.97760539  1
  O  O28  1  0.72943924  0.79975840  0.48460026  1
  O  O29  1  0.77056076  0.70024160  0.98460026  1
  O  O30  1  0.27056076  0.20024160  0.51539974  1
  O  O31  1  0.22943924  0.29975840  0.01539974  1
  O  O32  1  0.28626664  0.91422145  0.34439753  1
  O  O33  1  0.21373336  0.58577855  0.84439753  1
  O  O34  1  0.71373336  0.08577855  0.65560247  1
  O  O35  1  0.78626664  0.41422145  0.15560247  1
  O  O36  1  0.70009478  0.89048796  0.10294335  1
  O  O37  1  0.79990522  0.60951204  0.60294335  1
  O  O38  1  0.29990522  0.10951204  0.89705665  1
  O  O39  1  0.20009478  0.39048796  0.39705665  1
  O  O40  1  0.32029602  0.84468252  0.13266301  1
  O  O41  1  0.17970398  0.65531748  0.63266301  1
  O  O42  1  0.67970398  0.15531748  0.86733699  1
  O  O43  1  0.82029602  0.34468252  0.36733699  1
  O  O44  1  0.40061523  0.79001433  0.88749607  1
  O  O45  1  0.09938477  0.70998567  0.38749607  1
  O  O46  1  0.59938477  0.20998567  0.11250393  1
  O  O47  1  0.90061523  0.29001433  0.61250393  1
loop_
_geom_bond_atom_site_label_1
_geom_bond_atom_site_label_2
_geom_bond_distance
_geom_bond_site_symmetry_2
K0 O32 2.657358 1_655
K0 O2 2.666306 1_565
K0 O14 2.695708 1_665
K0 O21 2.706850 1_555
K0 O36 2.764713 1_555
K0 O40 2.827310 1_655
K0 O8 2.952463 1_555
K0 O18 3.149164 1_665
K0 O45 3.194689 1_655
K1 O33 2.657358 1_555
K1 O3 2.666306 1_555
K1 O15 2.695708 1_555
K1 O20 2.706850 1_555
K1 O37 2.764713 1_555
K1 O41 2.827310 1_555
K1 O9 2.952463 1_555
K1 O19 3.149164 1_555
K1 O44 3.194689 1_555
K2 O34 2.657358 1_455
K2 O0 2.666306 1_545
K2 O12 2.695708 1_445
K2 O23 2.706850 1_555
K2 O38 2.764713 1_555
K2 O42 2.827310 1_455
K2 O10 2.952463 1_555
K2 O16 3.149164 1_445
K2 O47 3.194689 1_455
K3 O35 2.657358 1_555
K3 O1 2.666306 1_555
K3 O13 2.695708 1_555
K3 O22 2.706850 1_555
K3 O39 2.764713 1_555
K3 O43 2.827310 1_555
K3 O11 2.952463 1_555
K3 O17 3.149164 1_555
K3 O46 3.194689 1_555
Ce0 O10 2.437855 1_565
Ce0 O12 2.439931 1_555
Ce0 O42 2.471825 1_565
Ce0 O0 2.471950 1_555
Ce0 O44 2.481899 1_555
Ce0 O20 2.488644 1_555
Ce0 O34 2.519003 1_565
Ce0 O38 2.544351 1_565
Ce1 O11 2.437855 1_655
Ce1 O13 2.439931 1_555
Ce1 O43 2.471825 1_555
Ce1 O1 2.471950 1_655
Ce1 O45 2.481899 1_655
Ce1 O21 2.488644 1_555
Ce1 O35 2.519003 1_555
Ce1 O39 2.544351 1_655
Ce2 O8 2.437855 1_545
Ce2 O14 2.439931 1_555
Ce2 O40 2.471825 1_545
Ce2 O2 2.471950 1_555
Ce2 O46 2.481899 1_555
Ce2 O22 2.488644 1_555
Ce2 O32 2.519003 1_545
Ce2 O36 2.544351 1_545
Ce3 O9 2.437855 1_455
Ce3 O15 2.439931 1_555
Ce3 O41 2.471825 1_555
Ce3 O3 2.471950 1_455
Ce3 O47 2.481899 1_455
Ce3 O23 2.488644 1_555
Ce3 O33 2.519003 1_555
Ce3 O37 2.544351 1_455
O0 P8 1.482400 1_555
O1 P9 1.482400 1_555
O2 P10 1.482400 1_555
O3 P11 1.482400 1_555
O4 P4 1.601946 1_455
O4 P13 1.603249 1_555
O5 P5 1.601946 1_555
O5 P12 1.603249 1_555
O6 P6 1.601946 1_655
O6 P15 1.603249 1_555
O7 P7 1.601946 1_555
O7 P14 1.603249 1_555
O8 P5 1.481282 1_555
O9 P4 1.481282 1_555
O10 P7 1.481282 1_555
O11 P6 1.481282 1_555
O12 P4 1.482967 1_555
O13 P5 1.482967 1_555
O14 P6 1.482967 1_555
O15 P7 1.482967 1_555
O16 P0 1.596198 1_555
O16 P8 1.601436 1_655
O17 P1 1.596198 1_555
O17 P9 1.601436 1_555
O18 P2 1.596198 1_555
O18 P10 1.601436 1_455
O19 P3 1.596198 1_555
O19 P11 1.601436 1_555
O20 P0 1.487976 1_555
O21 P1 1.487976 1_555
O22 P2 1.487976 1_555
O23 P3 1.487976 1_555
O24 P8 1.587731 1_555
O24 P12 1.595325 1_555
O25 P9 1.587731 1_555
O25 P13 1.595325 1_554
O26 P10 1.587731 1_555
O26 P14 1.595325 1_555
O27 P11 1.587731 1_555
O27 P15 1.595325 1_556
O28 P5 1.580038 1_555
O28 P0 1.591203 1_555
O29 P4 1.580038 1_555
O29 P1 1.591203 1_556
O30 P7 1.580038 1_555
O30 P2 1.591203 1_555
O31 P6 1.580038 1_555
O31 P3 1.591203 1_554
O32 P12 1.481669 1_555
O33 P13 1.481669 1_555
O34 P14 1.481669 1_555
O35 P15 1.481669 1_555
O36 P1 1.488116 1_555
O37 P0 1.488116 1_555
O38 P3 1.488116 1_555
O39 P2 1.488116 1_555
O40 P9 1.481777 1_555
O41 P8 1.481777 1_555
O42 P11 1.481777 1_555
O43 P10 1.481777 1_555
O44 P13 1.485284 1_555
O45 P12 1.485284 1_555
O46 P15 1.485284 1_555
O47 P14 1.485284 1_555
