# generated using pymatgen
data_Ca3SiBr2
_symmetry_space_group_name_H-M   'P 1'
_cell_length_a   4.07642782
_cell_length_b   4.07642782
_cell_length_c   12.20374900
_cell_angle_alpha   90.00000000
_cell_angle_beta   90.00000000
_cell_angle_gamma   119.99999712
_symmetry_Int_Tables_number   1
_chemical_formula_structural   Ca3SiBr2
_chemical_formula_sum   'Ca3 Si1 Br2'
_cell_volume   175.62382241
_cell_formula_units_Z   1
loop_
 _symmetry_equiv_pos_site_id
 _symmetry_equiv_pos_as_xyz
  1  'x, y, z'
loop_
 _atom_site_type_symbol
 _atom_site_label
 _atom_site_symmetry_multiplicity
 _atom_site_fract_x
 _atom_site_fract_y
 _atom_site_fract_z
 _atom_site_occupancy
  Ca  Ca0  1  0.00000000  0.00000000  0.00000000  1
  Ca  Ca1  1  0.00000000  0.00000000  0.64634500  1
  Ca  Ca2  1  0.00000000  0.00000000  0.35365500  1
  Si  Si0  1  0.66666700  0.33333300  0.50000000  1
  Br  Br0  1  0.33333300  0.66666700  0.82821800  1
  Br  Br1  1  0.33333300  0.66666700  0.17178200  1
loop_
_geom_bond_atom_site_label_1
_geom_bond_atom_site_label_2
_geom_bond_distance
_geom_bond_site_symmetry_2
Ca1 Si0 2.954441 1_455
Ca1 Si0 2.954444 1_555
Ca1 Si0 2.954444 1_445
Ca2 Si0 2.954441 1_455
Ca2 Si0 2.954444 1_445
Ca2 Si0 2.954444 1_555
Br0 Ca0 3.151810 1_566
Br0 Ca0 3.151812 1_556
Br0 Ca0 3.151812 1_666
Br0 Ca1 3.235027 1_565
Br0 Ca1 3.235030 1_665
Br0 Ca1 3.235030 1_555
Br1 Ca0 3.151810 1_565
Br1 Ca0 3.151812 1_665
Br1 Ca0 3.151812 1_555
Br1 Ca2 3.235027 1_565
Br1 Ca2 3.235030 1_665
Br1 Ca2 3.235030 1_555
