# generated using pymatgen
data_Mo15N16
_symmetry_space_group_name_H-M   'P 1'
_cell_length_a   8.04723994
_cell_length_b   8.04723994
_cell_length_c   9.96003616
_cell_angle_alpha   89.98058602
_cell_angle_beta   89.98058602
_cell_angle_gamma   90.95457185
_symmetry_Int_Tables_number   1
_chemical_formula_structural   Mo15N16
_chemical_formula_sum   'Mo30 N32'
_cell_volume   644.90313661
_cell_formula_units_Z   2
loop_
 _symmetry_equiv_pos_site_id
 _symmetry_equiv_pos_as_xyz
  1  'x, y, z'
loop_
 _atom_site_type_symbol
 _atom_site_label
 _atom_site_symmetry_multiplicity
 _atom_site_fract_x
 _atom_site_fract_y
 _atom_site_fract_z
 _atom_site_occupancy
  Mo  Mo0  1  0.49502100  0.74573800  0.01027800  1
  Mo  Mo1  1  0.49504700  0.74405500  0.50106300  1
  Mo  Mo2  1  0.61335500  0.62850700  0.24432200  1
  Mo  Mo3  1  0.62850700  0.61335500  0.74432200  1
  Mo  Mo4  1  0.99717500  0.74399100  0.49256900  1
  Mo  Mo5  1  0.74573800  0.49502100  0.51027800  1
  Mo  Mo6  1  0.74405500  0.49504700  0.00106300  1
  Mo  Mo7  1  0.99431100  0.74345500  0.99779500  1
  Mo  Mo8  1  0.87716600  0.38888700  0.74615000  1
  Mo  Mo9  1  0.11605100  0.62558800  0.25691200  1
  Mo  Mo10  1  0.86619700  0.35300200  0.24323000  1
  Mo  Mo11  1  0.24516100  0.49714500  0.98755200  1
  Mo  Mo12  1  0.99694000  0.24464100  0.00844100  1
  Mo  Mo13  1  0.99302500  0.24451200  0.50213700  1
  Mo  Mo14  1  0.24283400  0.49470400  0.49863100  1
  Mo  Mo15  1  0.11510700  0.12691400  0.24373900  1
  Mo  Mo16  1  0.36764800  0.37580200  0.75701500  1
  Mo  Mo17  1  0.12691400  0.11510700  0.74373900  1
  Mo  Mo18  1  0.37580200  0.36764800  0.25701500  1
  Mo  Mo19  1  0.24464100  0.99694000  0.50844100  1
  Mo  Mo20  1  0.49714500  0.24516100  0.48755200  1
  Mo  Mo21  1  0.24451200  0.99302500  0.00213700  1
  Mo  Mo22  1  0.49470400  0.24283400  0.99863100  1
  Mo  Mo23  1  0.35300200  0.86619700  0.74323000  1
  Mo  Mo24  1  0.38888700  0.87716600  0.24615000  1
  Mo  Mo25  1  0.62558800  0.11605100  0.75691200  1
  Mo  Mo26  1  0.74345500  0.99431100  0.49779500  1
  Mo  Mo27  1  0.74399100  0.99717500  0.99256900  1
  Mo  Mo28  1  0.86592100  0.87662900  0.75513300  1
  Mo  Mo29  1  0.87662900  0.86592100  0.25513300  1
  N  N0  1  0.24831500  0.74570500  0.91600800  1
  N  N1  1  0.37238200  0.61897700  0.66770800  1
  N  N2  1  0.36367700  0.61596600  0.16603600  1
  N  N3  1  0.49799100  0.49941800  0.91654900  1
  N  N4  1  0.74924500  0.74905500  0.58393900  1
  N  N5  1  0.49941800  0.49799100  0.41654900  1
  N  N6  1  0.61596600  0.36367700  0.66603600  1
  N  N7  1  0.61897700  0.37238200  0.16770800  1
  N  N8  1  0.86321300  0.61333400  0.33389400  1
  N  N9  1  0.87413300  0.62363500  0.83495100  1
  N  N10  1  0.99954600  0.49781300  0.58262900  1
  N  N11  1  0.74570500  0.24831500  0.41600800  1
  N  N12  1  0.74831600  0.24890500  0.91804500  1
  N  N13  1  0.99726800  0.49725700  0.08350400  1
  N  N14  1  0.11782600  0.37002000  0.83212700  1
  N  N15  1  0.86593300  0.11244400  0.16560900  1
  N  N16  1  0.87063200  0.12385000  0.66697300  1
  N  N17  1  0.11934200  0.37009900  0.33397300  1
  N  N18  1  0.99865500  0.99683600  0.91546700  1
  N  N19  1  0.24905000  0.24863000  0.08366900  1
  N  N20  1  0.99683600  0.99865500  0.41546700  1
  N  N21  1  0.24863000  0.24905000  0.58366900  1
  N  N22  1  0.37002000  0.11782600  0.33212700  1
  N  N23  1  0.11244400  0.86593300  0.66560900  1
  N  N24  1  0.12385000  0.87063200  0.16697300  1
  N  N25  1  0.37009900  0.11934200  0.83397300  1
  N  N26  1  0.49725700  0.99726800  0.58350400  1
  N  N27  1  0.24890500  0.74831600  0.41804500  1
  N  N28  1  0.49781300  0.99954600  0.08262900  1
  N  N29  1  0.61333400  0.86321300  0.83389400  1
  N  N30  1  0.62363500  0.87413300  0.33495100  1
  N  N31  1  0.74905500  0.74924500  0.08393900  1
loop_
_geom_bond_atom_site_label_1
_geom_bond_atom_site_label_2
_geom_bond_distance
_geom_bond_site_symmetry_2
Mo0 N2 2.139030 1_555
Mo0 N28 2.165847 1_555
Mo0 N31 2.171916 1_555
Mo0 N3 2.191802 1_554
Mo0 N0 2.196421 1_554
Mo0 N29 2.203232 1_554
Mo1 N27 2.147477 1_555
Mo1 N5 2.152712 1_555
Mo1 N1 2.169576 1_555
Mo1 N26 2.196944 1_555
Mo1 N30 2.205760 1_555
Mo1 N4 2.205868 1_555
Mo2 N2 2.156266 1_555
Mo2 N31 2.156542 1_555
Mo2 N30 2.173582 1_555
Mo2 N7 2.199231 1_555
Mo2 N5 2.202717 1_555
Mo2 N8 2.205205 1_555
Mo3 N6 2.156266 1_555
Mo3 N4 2.156542 1_555
Mo3 N9 2.173582 1_555
Mo3 N1 2.199231 1_555
Mo3 N3 2.202717 1_555
Mo3 N29 2.205205 1_555
Mo4 N27 2.156935 1_655
Mo4 N10 2.174768 1_555
Mo4 N8 2.174820 1_555
Mo4 N23 2.183044 1_655
Mo4 N20 2.188301 1_555
Mo4 N4 2.193624 1_555
Mo5 N6 2.139030 1_555
Mo5 N10 2.165847 1_555
Mo5 N4 2.171916 1_555
Mo5 N5 2.191802 1_555
Mo5 N11 2.196421 1_555
Mo5 N8 2.203232 1_555
Mo6 N12 2.147477 1_554
Mo6 N3 2.152712 1_554
Mo6 N7 2.169576 1_555
Mo6 N13 2.196944 1_555
Mo6 N9 2.205760 1_554
Mo6 N31 2.205868 1_555
Mo7 N9 2.113462 1_555
Mo7 N31 2.153022 1_556
Mo7 N13 2.157535 1_556
Mo7 N18 2.197196 1_555
Mo7 N0 2.199908 1_655
Mo7 N24 2.222647 1_656
Mo8 N9 2.086653 1_555
Mo8 N10 2.088058 1_555
Mo8 N14 2.125512 1_655
Mo8 N6 2.254562 1_555
Mo8 N16 2.273983 1_555
Mo8 N12 2.287763 1_555
Mo9 N27 2.158962 1_555
Mo9 N24 2.165532 1_555
Mo9 N8 2.174769 1_455
Mo9 N2 2.190912 1_555
Mo9 N17 2.194908 1_555
Mo9 N13 2.220962 1_455
Mo10 N15 2.084708 1_555
Mo10 N7 2.135244 1_555
Mo10 N11 2.140553 1_555
Mo10 N13 2.224366 1_555
Mo10 N17 2.231062 1_655
Mo10 N8 2.282059 1_555
Mo11 N14 2.111915 1_555
Mo11 N0 2.122883 1_555
Mo11 N3 2.153547 1_555
Mo11 N13 2.211684 1_456
Mo11 N19 2.217590 1_556
Mo11 N2 2.226215 1_556
Mo12 N15 2.157314 1_555
Mo12 N19 2.162708 1_655
Mo12 N13 2.166180 1_555
Mo12 N12 2.195049 1_554
Mo12 N18 2.199202 1_544
Mo12 N14 2.239002 1_654
Mo13 N16 2.138758 1_555
Mo13 N20 2.159542 1_545
Mo13 N11 2.168197 1_555
Mo13 N10 2.190439 1_555
Mo13 N17 2.196241 1_655
Mo13 N21 2.211408 1_655
Mo14 N10 2.129335 1_455
Mo14 N21 2.151604 1_555
Mo14 N17 2.156769 1_555
Mo14 N27 2.192564 1_555
Mo14 N1 2.211429 1_555
Mo14 N5 2.220239 1_555
Mo15 N19 2.150718 1_555
Mo15 N15 2.152472 1_455
Mo15 N17 2.153508 1_555
Mo15 N24 2.201990 1_545
Mo15 N20 2.204910 1_445
Mo15 N22 2.234851 1_555
Mo16 N3 2.140561 1_555
Mo16 N14 2.144599 1_555
Mo16 N1 2.149043 1_555
Mo16 N6 2.197514 1_555
Mo16 N25 2.201695 1_555
Mo16 N21 2.215491 1_555
Mo17 N21 2.150718 1_555
Mo17 N23 2.152472 1_545
Mo17 N25 2.153508 1_555
Mo17 N16 2.201990 1_455
Mo17 N18 2.204910 1_445
Mo17 N14 2.234851 1_555
Mo18 N5 2.140561 1_555
Mo18 N22 2.144599 1_555
Mo18 N7 2.149043 1_555
Mo18 N2 2.197514 1_555
Mo18 N17 2.201695 1_555
Mo18 N19 2.215491 1_555
Mo19 N23 2.157314 1_555
Mo19 N21 2.162708 1_565
Mo19 N26 2.166180 1_555
Mo19 N27 2.195049 1_555
Mo19 N20 2.199202 1_455
Mo19 N22 2.239002 1_565
Mo20 N22 2.111915 1_555
Mo20 N11 2.122883 1_555
Mo20 N5 2.153547 1_555
Mo20 N26 2.211684 1_545
Mo20 N21 2.217590 1_555
Mo20 N6 2.226215 1_555
Mo21 N24 2.138758 1_555
Mo21 N18 2.159542 1_454
Mo21 N0 2.168197 1_554
Mo21 N28 2.190439 1_555
Mo21 N25 2.196241 1_564
Mo21 N19 2.211408 1_565
Mo22 N28 2.129335 1_546
Mo22 N19 2.151604 1_556
Mo22 N25 2.156769 1_555
Mo22 N12 2.192564 1_555
Mo22 N7 2.211429 1_556
Mo22 N3 2.220239 1_555
Mo23 N23 2.084708 1_555
Mo23 N1 2.135244 1_555
Mo23 N0 2.140553 1_555
Mo23 N26 2.224366 1_555
Mo23 N25 2.231062 1_565
Mo23 N29 2.282059 1_555
Mo24 N30 2.086653 1_555
Mo24 N28 2.088058 1_555
Mo24 N22 2.125512 1_565
Mo24 N2 2.254562 1_555
Mo24 N24 2.273983 1_555
Mo24 N27 2.287763 1_555
Mo25 N12 2.158962 1_555
Mo25 N16 2.165532 1_555
Mo25 N29 2.174769 1_545
Mo25 N6 2.190912 1_555
Mo25 N25 2.194908 1_555
Mo25 N26 2.220962 1_545
Mo26 N30 2.113462 1_555
Mo26 N4 2.153022 1_555
Mo26 N26 2.157535 1_555
Mo26 N20 2.197196 1_555
Mo26 N11 2.199908 1_565
Mo26 N16 2.222647 1_565
Mo27 N12 2.156935 1_565
Mo27 N28 2.174768 1_556
Mo27 N29 2.174820 1_555
Mo27 N15 2.183044 1_566
Mo27 N18 2.188301 1_555
Mo27 N31 2.193624 1_556
Mo28 N18 2.143510 1_555
Mo28 N16 2.174083 1_565
Mo28 N23 2.177750 1_655
Mo28 N29 2.179487 1_555
Mo28 N9 2.187396 1_555
Mo28 N4 2.193862 1_555
Mo29 N20 2.143510 1_555
Mo29 N24 2.174083 1_655
Mo29 N15 2.177750 1_565
Mo29 N8 2.179487 1_555
Mo29 N30 2.187396 1_555
Mo29 N31 2.193862 1_555
