# generated using pymatgen
data_Li7Ti16O32
_symmetry_space_group_name_H-M   'P 1'
_cell_length_a   10.36601034
_cell_length_b   10.36601034
_cell_length_c   10.36601034
_cell_angle_alpha   131.81132000
_cell_angle_beta   131.81132000
_cell_angle_gamma   70.52719016
_symmetry_Int_Tables_number   1
_chemical_formula_structural   Li7Ti16O32
_chemical_formula_sum   'Li7 Ti16 O32'
_cell_volume   606.29676029
_cell_formula_units_Z   1
loop_
 _symmetry_equiv_pos_site_id
 _symmetry_equiv_pos_as_xyz
  1  'x, y, z'
loop_
 _atom_site_type_symbol
 _atom_site_label
 _atom_site_symmetry_multiplicity
 _atom_site_fract_x
 _atom_site_fract_y
 _atom_site_fract_z
 _atom_site_occupancy
  Li  Li0  1  0.25000000  0.75000000  0.50000000  1
  Li  Li1  1  0.12625500  0.62469600  0.00000000  1
  Li  Li2  1  0.37530400  0.37530400  0.50155900  1
  Li  Li3  1  0.75000000  0.25000000  0.50000000  1
  Li  Li4  1  0.62469600  0.12625500  0.00000000  1
  Li  Li5  1  0.00000000  0.00000000  0.00000000  1
  Li  Li6  1  0.87374500  0.87374500  0.49844100  1
  Ti  Ti0  1  0.43846700  0.43846700  0.24964900  1
  Ti  Ti1  1  0.56194500  0.81004400  0.49620600  1
  Ti  Ti2  1  0.43805500  0.93426100  0.24809900  1
  Ti  Ti3  1  0.31383800  0.06573900  0.50379400  1
  Ti  Ti4  1  0.93759500  0.93759500  0.24937600  1
  Ti  Ti5  1  0.06573900  0.31383800  0.50379400  1
  Ti  Ti6  1  0.93426100  0.43805500  0.24809900  1
  Ti  Ti7  1  0.18995600  0.68616200  0.75190100  1
  Ti  Ti8  1  0.81004400  0.56194500  0.49620600  1
  Ti  Ti9  1  0.31178100  0.06240500  0.00000000  1
  Ti  Ti10  1  0.18881900  0.18881900  0.75035100  1
  Ti  Ti11  1  0.06240500  0.31178100  0.00000000  1
  Ti  Ti12  1  0.68616200  0.18995600  0.75190100  1
  Ti  Ti13  1  0.81118100  0.56153300  0.00000000  1
  Ti  Ti14  1  0.68821900  0.68821900  0.75062400  1
  Ti  Ti15  1  0.56153300  0.81118100  0.00000000  1
  O  O0  1  0.54351500  0.04430300  0.22508300  1
  O  O1  1  0.41815500  0.19350600  0.00000000  1
  O  O2  1  0.30609200  0.30609200  0.22453700  1
  O  O3  1  0.45648500  0.68156800  0.50078800  1
  O  O4  1  0.19350600  0.41815500  0.00000000  1
  O  O5  1  0.04430300  0.54351500  0.22508300  1
  O  O6  1  0.33162500  0.83195700  0.27590400  1
  O  O7  1  0.55605200  0.05572000  0.72409600  1
  O  O8  1  0.44394800  0.16804300  0.49966800  1
  O  O9  1  0.18078000  0.95569700  0.49921200  1
  O  O10  1  0.91844600  0.69390800  0.00000000  1
  O  O11  1  0.28810100  0.28810100  0.71751000  1
  O  O12  1  0.80649400  0.80649400  0.22464900  1
  O  O13  1  0.06838500  0.06838500  0.27441000  1
  O  O14  1  0.95569700  0.18078000  0.49921200  1
  O  O15  1  0.69390800  0.91844600  0.00000000  1
  O  O16  1  0.42940900  0.71189900  0.00000000  1
  O  O17  1  0.16804300  0.44394800  0.49966800  1
  O  O18  1  0.83195700  0.33162500  0.27590400  1
  O  O19  1  0.05572000  0.55605200  0.72409600  1
  O  O20  1  0.31843200  0.81922000  0.77491700  1
  O  O21  1  0.20602500  0.93161500  0.00000000  1
  O  O22  1  0.94428000  0.66837500  0.50033200  1
  O  O23  1  0.68156800  0.45648500  0.50078800  1
  O  O24  1  0.79397500  0.79397500  0.72559000  1
  O  O25  1  0.57059100  0.57059100  0.28249000  1
  O  O26  1  0.08155400  0.08155400  0.77546300  1
  O  O27  1  0.66837500  0.94428000  0.50033200  1
  O  O28  1  0.93161500  0.20602500  0.00000000  1
  O  O29  1  0.81922000  0.31843200  0.77491700  1
  O  O30  1  0.71189900  0.42940900  0.00000000  1
  O  O31  1  0.58184500  0.58184500  0.77535100  1
loop_
_geom_bond_atom_site_label_1
_geom_bond_atom_site_label_2
_geom_bond_distance
_geom_bond_site_symmetry_2
Li0 O3 2.014148 1_555
Li0 O20 2.014148 1_555
Li0 O5 2.014148 1_555
Li0 O9 2.014148 1_555
Li1 O19 2.016376 1_554
Li1 O6 2.016386 1_555
Li1 O4 2.018608 1_555
Li1 O10 2.030933 1_455
Li2 O17 2.016386 1_555
Li2 O8 2.016386 1_555
Li2 O31 2.018608 1_555
Li2 O2 2.030942 1_555
Li3 O23 2.014148 1_555
Li3 O14 2.014148 1_555
Li3 O0 2.014148 1_555
Li3 O29 2.014148 1_555
Li4 O7 2.016376 1_554
Li4 O18 2.016386 1_555
Li4 O1 2.018608 1_555
Li4 O15 2.030933 1_545
Li5 O13 2.013500 1_555
Li5 O24 2.013500 1_444
Li5 O28 2.013500 1_455
Li5 O21 2.013500 1_545
Li6 O27 2.016386 1_555
Li6 O22 2.016386 1_555
Li6 O12 2.018608 1_555
Li6 O26 2.030933 1_665
O0 Ti9 2.014834 1_555
O0 Ti15 2.020072 1_545
O0 Ti2 2.023671 1_545
O1 Ti0 2.014277 1_555
O1 Ti10 2.014278 1_554
O1 Ti9 2.015404 1_555
O2 Ti11 2.011498 1_555
O2 Ti9 2.011498 1_555
O2 Ti0 2.033831 1_555
O3 Ti14 2.014834 1_555
O3 Ti0 2.020068 1_555
O3 Ti1 2.023671 1_555
O4 Ti0 2.014277 1_555
O4 Ti10 2.014278 1_554
O4 Ti11 2.015404 1_555
O5 Ti11 2.014834 1_555
O5 Ti13 2.020072 1_455
O5 Ti6 2.023671 1_455
O6 Ti1 2.006772 1_555
O6 Ti2 2.009097 1_555
O6 Ti3 2.033952 1_565
O7 Ti3 2.006771 1_555
O7 Ti12 2.009114 1_555
O7 Ti1 2.033951 1_545
O8 Ti12 2.006767 1_555
O8 Ti3 2.009106 1_555
O8 Ti2 2.033947 1_545
O9 Ti4 2.014834 1_455
O9 Ti10 2.020068 1_565
O9 Ti3 2.023671 1_565
O10 Ti4 2.011501 1_555
O10 Ti14 2.011501 1_554
O10 Ti13 2.033847 1_555
O11 Ti5 1.965060 1_555
O11 Ti3 1.965060 1_555
O11 Ti10 1.968424 1_555
O12 Ti15 2.014273 1_555
O12 Ti13 2.014273 1_555
O12 Ti4 2.015404 1_555
O13 Ti4 2.007698 1_445
O13 Ti3 2.025364 1_555
O13 Ti5 2.025364 1_555
O14 Ti4 2.014834 1_545
O14 Ti10 2.020068 1_655
O14 Ti5 2.023671 1_655
O15 Ti4 2.011501 1_555
O15 Ti14 2.011501 1_554
O15 Ti15 2.033847 1_555
O16 Ti7 1.965060 1_554
O16 Ti2 1.965060 1_555
O16 Ti15 1.968433 1_555
O17 Ti7 2.006767 1_555
O17 Ti5 2.009106 1_555
O17 Ti6 2.033947 1_455
O18 Ti8 2.006772 1_555
O18 Ti6 2.009097 1_555
O18 Ti5 2.033952 1_655
O19 Ti5 2.006771 1_555
O19 Ti7 2.009114 1_555
O19 Ti8 2.033951 1_455
O20 Ti9 2.014834 1_566
O20 Ti15 2.020072 1_556
O20 Ti7 2.023671 1_555
O21 Ti9 2.007698 1_565
O21 Ti7 2.025364 1_554
O21 Ti2 2.025364 1_555
O22 Ti6 2.006767 1_555
O22 Ti8 2.009106 1_555
O22 Ti7 2.033947 1_655
O23 Ti14 2.014834 1_555
O23 Ti0 2.020068 1_555
O23 Ti8 2.023671 1_555
O24 Ti14 2.007698 1_555
O24 Ti8 2.025364 1_555
O24 Ti1 2.025364 1_555
O25 Ti1 1.965060 1_555
O25 Ti8 1.965060 1_555
O25 Ti0 1.968441 1_555
O26 Ti11 2.011497 1_556
O26 Ti9 2.011497 1_556
O26 Ti10 2.033865 1_555
O27 Ti2 2.006767 1_555
O27 Ti1 2.009106 1_555
O27 Ti12 2.033947 1_565
O28 Ti11 2.007698 1_655
O28 Ti12 2.025364 1_554
O28 Ti6 2.025364 1_555
O29 Ti11 2.014834 1_656
O29 Ti13 2.020072 1_556
O29 Ti12 2.023671 1_555
O30 Ti12 1.965060 1_554
O30 Ti6 1.965060 1_555
O30 Ti13 1.968433 1_555
O31 Ti15 2.014273 1_556
O31 Ti13 2.014273 1_556
O31 Ti14 2.015404 1_555
