# generated using pymatgen
data_ZrBrN
_symmetry_space_group_name_H-M   'P 1'
_cell_length_a   3.61973778
_cell_length_b   4.11929166
_cell_length_c   9.02238691
_cell_angle_alpha   90.00000000
_cell_angle_beta   90.00000000
_cell_angle_gamma   90.00000000
_symmetry_Int_Tables_number   1
_chemical_formula_structural   ZrBrN
_chemical_formula_sum   'Zr2 Br2 N2'
_cell_volume   134.53060658
_cell_formula_units_Z   2
loop_
 _symmetry_equiv_pos_site_id
 _symmetry_equiv_pos_as_xyz
  1  'x, y, z'
loop_
 _atom_site_type_symbol
 _atom_site_label
 _atom_site_symmetry_multiplicity
 _atom_site_fract_x
 _atom_site_fract_y
 _atom_site_fract_z
 _atom_site_occupancy
  Zr  Zr0  1  0.00000000  0.50000000  0.09800630  1
  Zr  Zr1  1  0.50000000  -0.00000000  0.90199470  1
  Br  Br0  1  0.00000000  0.00000000  0.67014082  1
  Br  Br1  1  0.50000000  0.50000000  0.32985918  1
  N  N0  1  0.00000000  0.00000000  0.03051271  1
  N  N1  1  0.50000000  0.50000000  0.96948729  1
loop_
_geom_bond_atom_site_label_1
_geom_bond_atom_site_label_2
_geom_bond_distance
_geom_bond_site_symmetry_2
Br0 Zr1 2.766147 1_455
Br0 Zr1 2.766147 1_555
Br1 Zr0 2.766140 1_655
Br1 Zr0 2.766140 1_555
N0 Zr0 2.147781 1_545
N0 Zr0 2.147781 1_555
N0 Zr1 2.149455 1_454
N0 Zr1 2.149455 1_554
N1 Zr1 2.147779 1_565
N1 Zr1 2.147779 1_555
N1 Zr0 2.149460 1_556
N1 Zr0 2.149460 1_656
