# generated using pymatgen
data_Cs3BiCl6
_symmetry_space_group_name_H-M   'P 1'
_cell_length_a   14.21479890
_cell_length_b   14.21479890
_cell_length_c   13.21026657
_cell_angle_alpha   80.80235238
_cell_angle_beta   80.80235238
_cell_angle_gamma   33.86605250
_symmetry_Int_Tables_number   1
_chemical_formula_structural   Cs3BiCl6
_chemical_formula_sum   'Cs12 Bi4 Cl24'
_cell_volume   1466.55124674
_cell_formula_units_Z   4
loop_
 _symmetry_equiv_pos_site_id
 _symmetry_equiv_pos_as_xyz
  1  'x, y, z'
loop_
 _atom_site_type_symbol
 _atom_site_label
 _atom_site_symmetry_multiplicity
 _atom_site_fract_x
 _atom_site_fract_y
 _atom_site_fract_z
 _atom_site_occupancy
  Cs  Cs0  1  0.02472333  0.65287671  0.29936882  1
  Cs  Cs1  1  0.20240029  0.69788434  0.93275475  1
  Cs  Cs2  1  0.46885709  0.84015981  0.85461248  1
  Cs  Cs3  1  0.97527667  0.34712329  0.70063118  1
  Cs  Cs4  1  0.84015981  0.46885709  0.35461248  1
  Cs  Cs5  1  0.69788434  0.20240029  0.43275475  1
  Cs  Cs6  1  0.65287671  0.02472333  0.79936882  1
  Cs  Cs7  1  0.15984019  0.53114291  0.64538752  1
  Cs  Cs8  1  0.53114291  0.15984019  0.14538752  1
  Cs  Cs9  1  0.30211566  0.79759971  0.56724525  1
  Cs  Cs10  1  0.34712329  0.97527667  0.20063118  1
  Cs  Cs11  1  0.79759971  0.30211566  0.06724525  1
  Bi  Bi0  1  0.78396342  0.21603658  0.75000000  1
  Bi  Bi1  1  0.50000000  -0.00000000  0.50000000  1
  Bi  Bi2  1  0.21603658  0.78396342  0.25000000  1
  Bi  Bi3  1  0.00000000  0.50000000  0.00000000  1
  Cl  Cl0  1  0.38083013  0.27385814  0.41922603  1
  Cl  Cl1  1  0.13978543  0.36089776  0.18707933  1
  Cl  Cl2  1  0.36089776  0.13978543  0.68707933  1
  Cl  Cl3  1  0.83466070  0.28151352  0.56314587  1
  Cl  Cl4  1  0.50365497  0.61099272  0.31975048  1
  Cl  Cl5  1  0.61099272  0.50365497  0.81975048  1
  Cl  Cl6  1  0.22104404  0.13230311  0.46571078  1
  Cl  Cl7  1  0.72614186  0.61916987  0.08077397  1
  Cl  Cl8  1  0.27385814  0.38083013  0.91922603  1
  Cl  Cl9  1  0.86021457  0.63910224  0.81292067  1
  Cl  Cl10  1  0.08586694  0.02941202  0.80705635  1
  Cl  Cl11  1  0.91413306  0.97058798  0.19294365  1
  Cl  Cl12  1  0.13230311  0.22104404  0.96571078  1
  Cl  Cl13  1  0.28151352  0.83466070  0.06314587  1
  Cl  Cl14  1  0.02941202  0.08586694  0.30705635  1
  Cl  Cl15  1  0.77895596  0.86769689  0.53428922  1
  Cl  Cl16  1  0.16533930  0.71848648  0.43685413  1
  Cl  Cl17  1  0.63910224  0.86021457  0.31292067  1
  Cl  Cl18  1  0.97058798  0.91413306  0.69294365  1
  Cl  Cl19  1  0.38900728  0.49634503  0.18024952  1
  Cl  Cl20  1  0.61916987  0.72614186  0.58077397  1
  Cl  Cl21  1  0.86769689  0.77895596  0.03428922  1
  Cl  Cl22  1  0.71848648  0.16533930  0.93685413  1
  Cl  Cl23  1  0.49634503  0.38900728  0.68024952  1
loop_
_geom_bond_atom_site_label_1
_geom_bond_atom_site_label_2
_geom_bond_distance
_geom_bond_site_symmetry_2
Bi0 Cl22 2.699881 1_555
Bi0 Cl3 2.699881 1_555
Bi0 Cl23 2.719541 1_555
Bi0 Cl5 2.719541 1_555
Bi0 Cl18 2.740648 1_545
Bi0 Cl10 2.740648 1_655
Bi1 Cl6 2.717201 1_555
Bi1 Cl15 2.717201 1_545
Bi1 Cl17 2.729209 1_545
Bi1 Cl2 2.729209 1_555
Bi1 Cl20 2.731499 1_545
Bi1 Cl0 2.731499 1_555
Bi2 Cl16 2.699881 1_555
Bi2 Cl13 2.699881 1_555
Bi2 Cl19 2.719541 1_555
Bi2 Cl4 2.719541 1_555
Bi2 Cl11 2.740648 1_455
Bi2 Cl14 2.740648 1_565
Bi3 Cl12 2.717201 1_554
Bi3 Cl21 2.717201 1_455
Bi3 Cl1 2.729209 1_555
Bi3 Cl9 2.729209 1_454
Bi3 Cl7 2.731499 1_455
Bi3 Cl8 2.731499 1_554
Cl0 Cs0 3.420834 1_555
Cl0 Cs7 3.685549 1_555
Cl0 Cs8 3.732391 1_555
Cl0 Cs5 3.737986 1_555
Cl1 Cs10 3.433845 1_545
Cl1 Cs0 3.467096 1_555
Cl1 Cs8 3.541091 1_555
Cl1 Cs4 3.551220 1_455
Cl2 Cs3 3.433845 1_455
Cl2 Cs6 3.467096 1_555
Cl2 Cs7 3.541091 1_555
Cl2 Cs2 3.551220 1_545
Cl3 Cs4 3.552241 1_555
Cl3 Cs3 3.600220 1_555
Cl3 Cs5 3.651392 1_555
Cl3 Cs9 3.944986 1_645
Cl4 Cs4 3.395860 1_555
Cl4 Cs9 3.618173 1_555
Cl4 Cs10 3.690706 1_555
Cl4 Cs5 3.937062 1_555
Cl4 Cs11 4.197973 1_555
Cl5 Cs2 3.395860 1_555
Cl5 Cs11 3.618173 1_556
Cl5 Cs3 3.690706 1_555
Cl5 Cs1 3.937062 1_555
Cl5 Cs9 4.197973 1_555
Cl6 Cs4 3.411091 1_455
Cl6 Cs3 3.606624 1_455
Cl6 Cs10 3.782296 1_545
Cl6 Cs9 3.887410 1_545
Cl7 Cs10 3.420834 1_555
Cl7 Cs2 3.685549 1_554
Cl7 Cs4 3.732391 1_555
Cl7 Cs11 3.737986 1_555
Cl8 Cs6 3.420834 1_555
Cl8 Cs8 3.685549 1_556
Cl8 Cs7 3.732391 1_555
Cl8 Cs1 3.737986 1_555
Cl9 Cs6 3.433845 1_565
Cl9 Cs3 3.467096 1_555
Cl9 Cs2 3.541091 1_555
Cl9 Cs7 3.551220 1_655
Cl10 Cs3 3.424986 1_455
Cl10 Cs1 3.622650 1_545
Cl10 Cs2 3.674435 1_545
Cl10 Cs9 3.707557 1_545
Cl10 Cs11 4.124285 1_456
Cl11 Cs0 3.424986 1_655
Cl11 Cs11 3.622650 1_565
Cl11 Cs8 3.674435 1_565
Cl11 Cs5 3.707557 1_565
Cl11 Cs1 4.124285 1_654
Cl12 Cs2 3.411091 1_545
Cl12 Cs10 3.606624 1_546
Cl12 Cs3 3.782296 1_455
Cl12 Cs11 3.887410 1_456
Cl13 Cs2 3.552241 1_554
Cl13 Cs10 3.600220 1_555
Cl13 Cs1 3.651392 1_554
Cl13 Cs11 3.944986 1_465
Cl14 Cs10 3.424986 1_545
Cl14 Cs5 3.622650 1_455
Cl14 Cs4 3.674435 1_455
Cl14 Cs11 3.707557 1_455
Cl14 Cs9 4.124285 1_545
Cl15 Cs7 3.411091 1_655
Cl15 Cs0 3.606624 1_655
Cl15 Cs6 3.782296 1_565
Cl15 Cs5 3.887410 1_565
Cl16 Cs7 3.552241 1_555
Cl16 Cs0 3.600220 1_555
Cl16 Cs9 3.651392 1_555
Cl16 Cs5 3.944986 1_465
Cl17 Cs0 3.433845 1_655
Cl17 Cs10 3.467096 1_555
Cl17 Cs4 3.541091 1_555
Cl17 Cs8 3.551220 1_565
Cl18 Cs6 3.424986 1_565
Cl18 Cs9 3.622650 1_655
Cl18 Cs7 3.674435 1_655
Cl18 Cs1 3.707557 1_655
Cl18 Cs5 4.124285 1_565
Cl19 Cs8 3.395860 1_555
Cl19 Cs1 3.618173 1_554
Cl19 Cs0 3.690706 1_555
Cl19 Cs11 3.937062 1_555
Cl19 Cs5 4.197973 1_555
Cl20 Cs3 3.420834 1_555
Cl20 Cs4 3.685549 1_555
Cl20 Cs2 3.732391 1_555
Cl20 Cs9 3.737986 1_555
Cl21 Cs8 3.411091 1_565
Cl21 Cs6 3.606624 1_564
Cl21 Cs0 3.782296 1_655
Cl21 Cs1 3.887410 1_654
Cl22 Cs8 3.552241 1_556
Cl22 Cs6 3.600220 1_555
Cl22 Cs11 3.651392 1_556
Cl22 Cs1 3.944986 1_645
Cl23 Cs7 3.395860 1_555
Cl23 Cs5 3.618173 1_555
Cl23 Cs6 3.690706 1_555
Cl23 Cs9 3.937062 1_555
Cl23 Cs1 4.197973 1_555
