# generated using pymatgen
data_KSeNO2
_symmetry_space_group_name_H-M   'P 1'
_cell_length_a   13.04565400
_cell_length_b   7.60158300
_cell_length_c   12.11938350
_cell_angle_alpha   66.10290226
_cell_angle_beta   90.00000000
_cell_angle_gamma   90.00000000
_symmetry_Int_Tables_number   1
_chemical_formula_structural   KSeNO2
_chemical_formula_sum   'K12 Se12 N12 O24'
_cell_volume   1098.82117936
_cell_formula_units_Z   12
loop_
 _symmetry_equiv_pos_site_id
 _symmetry_equiv_pos_as_xyz
  1  'x, y, z'
loop_
 _atom_site_type_symbol
 _atom_site_label
 _atom_site_symmetry_multiplicity
 _atom_site_fract_x
 _atom_site_fract_y
 _atom_site_fract_z
 _atom_site_occupancy
  K  K0  1  0.14014800  0.39905100  0.42994700  1
  K  K1  1  0.75043800  0.19253900  0.90430500  1
  K  K2  1  0.35985200  0.39905100  0.92994700  1
  K  K3  1  0.64014800  0.60094900  0.07005300  1
  K  K4  1  0.25043800  0.80746100  0.59569500  1
  K  K5  1  0.85985200  0.60094900  0.57005300  1
  K  K6  1  0.24956200  0.80746100  0.09569500  1
  K  K7  1  0.07766400  0.27919200  0.87003700  1
  K  K8  1  0.57766400  0.72080800  0.62996300  1
  K  K9  1  0.74956200  0.19253900  0.40430500  1
  K  K10  1  0.92233600  0.72080800  0.12996300  1
  K  K11  1  0.42233600  0.27919200  0.37003700  1
  Se  Se0  1  0.56123400  0.11493900  0.15657100  1
  Se  Se1  1  0.06123400  0.88506100  0.34342900  1
  Se  Se2  1  0.93627300  0.20799500  0.16610600  1
  Se  Se3  1  0.33396900  0.24690800  0.68309800  1
  Se  Se4  1  0.66603100  0.75309200  0.31690200  1
  Se  Se5  1  0.56372700  0.20799500  0.66610600  1
  Se  Se6  1  0.83396900  0.75309200  0.81690200  1
  Se  Se7  1  0.43627300  0.79200500  0.33389400  1
  Se  Se8  1  0.43876600  0.88506100  0.84342900  1
  Se  Se9  1  0.16603100  0.24690800  0.18309800  1
  Se  Se10  1  0.06372700  0.79200500  0.83389400  1
  Se  Se11  1  0.93876600  0.11493900  0.65657100  1
  N  N0  1  0.33426900  0.04915500  0.83055200  1
  N  N1  1  0.66573100  0.95084500  0.16944800  1
  N  N2  1  0.16573100  0.04915500  0.33055200  1
  N  N3  1  0.56290900  0.99999900  0.81037800  1
  N  N4  1  0.43709100  0.00000100  0.18962200  1
  N  N5  1  0.95607200  0.63178000  0.85012200  1
  N  N6  1  0.83426900  0.95084500  0.66944800  1
  N  N7  1  0.54392800  0.63178000  0.35012200  1
  N  N8  1  0.06290900  0.00000100  0.68962200  1
  N  N9  1  0.45607200  0.36822000  0.64987800  1
  N  N10  1  0.04392800  0.36822000  0.14987800  1
  N  N11  1  0.93709100  0.99999900  0.31037800  1
  O  O0  1  0.94139300  0.26297200  0.51158400  1
  O  O1  1  0.57176000  0.13680900  0.55309900  1
  O  O2  1  0.05860700  0.73702800  0.48841600  1
  O  O3  1  0.70279600  0.81725100  0.42757500  1
  O  O4  1  0.92824000  0.13680900  0.05309900  1
  O  O5  1  0.33697100  0.66048500  0.32829700  1
  O  O6  1  0.25339800  0.40227400  0.70075200  1
  O  O7  1  0.20279600  0.18274900  0.07242500  1
  O  O8  1  0.66302900  0.33951500  0.67170300  1
  O  O9  1  0.41713400  0.75887800  0.76019100  1
  O  O10  1  0.42824000  0.86319100  0.44690100  1
  O  O11  1  0.75339800  0.59772600  0.79924800  1
  O  O12  1  0.91713400  0.24112200  0.73980900  1
  O  O13  1  0.29720400  0.18274900  0.57242500  1
  O  O14  1  0.79720400  0.81725100  0.92757500  1
  O  O15  1  0.74660200  0.59772600  0.29924800  1
  O  O16  1  0.24660200  0.40227400  0.20075200  1
  O  O17  1  0.83697100  0.33951500  0.17170300  1
  O  O18  1  0.08286600  0.75887800  0.26019100  1
  O  O19  1  0.55860700  0.26297200  0.01158400  1
  O  O20  1  0.16302900  0.66048500  0.82829700  1
  O  O21  1  0.58286600  0.24112200  0.23980900  1
  O  O22  1  0.07176000  0.86319100  0.94690100  1
  O  O23  1  0.44139300  0.73702800  0.98841600  1
loop_
_geom_bond_atom_site_label_1
_geom_bond_atom_site_label_2
_geom_bond_distance
_geom_bond_site_symmetry_2
K0 O13 2.753702 1_555
K0 O18 2.777313 1_555
K0 O0 2.818297 1_455
K0 O16 3.096733 1_555
K0 O2 3.115969 1_555
K0 O5 3.174356 1_555
K0 N2 3.351511 1_555
K1 O11 2.816403 1_555
K1 O14 2.817497 1_545
K1 O8 2.818432 1_555
K1 O4 2.862285 1_556
K1 O12 2.871137 1_555
K1 O19 2.967128 1_556
K1 N1 3.184214 1_546
K1 N3 3.282204 1_545
K2 O7 2.753702 1_556
K2 O9 2.777313 1_555
K2 O19 2.818297 1_556
K2 O6 3.096733 1_555
K2 O23 3.115969 1_555
K2 O20 3.174356 1_555
K2 N0 3.351511 1_555
K3 O14 2.753702 1_554
K3 O21 2.777313 1_555
K3 O23 2.818297 1_554
K3 O15 3.096733 1_555
K3 O19 3.115969 1_555
K3 O17 3.174356 1_555
K3 N1 3.351511 1_555
K4 O6 2.816403 1_555
K4 O13 2.817497 1_565
K4 O20 2.818432 1_555
K4 O10 2.862285 1_555
K4 O9 2.871137 1_555
K4 O2 2.967128 1_555
K4 N2 3.184214 1_565
K4 N8 3.282204 1_565
K5 O3 2.753702 1_555
K5 O12 2.777313 1_555
K5 O2 2.818297 1_655
K5 O11 3.096733 1_555
K5 O0 3.115969 1_555
K5 O8 3.174356 1_555
K5 N6 3.351511 1_555
K6 O16 2.816403 1_555
K6 O7 2.817497 1_565
K6 O5 2.818432 1_555
K6 O22 2.862285 1_554
K6 O18 2.871137 1_555
K6 O23 2.967128 1_554
K6 N0 3.184214 1_564
K6 N4 3.282204 1_565
K7 O12 2.707495 1_455
K7 O7 2.785985 1_556
K7 O4 2.819228 1_456
K7 O22 2.913243 1_545
K7 O20 2.951116 1_555
K7 O6 2.963988 1_555
K7 N5 3.038740 1_455
K8 O9 2.707495 1_555
K8 O3 2.785985 1_555
K8 O10 2.819228 1_555
K8 O1 2.913243 1_565
K8 O8 2.951116 1_555
K8 O11 2.963988 1_555
K8 N9 3.038740 1_555
K9 O15 2.816403 1_555
K9 O3 2.817497 1_545
K9 O17 2.818432 1_555
K9 O1 2.862285 1_555
K9 O21 2.871137 1_555
K9 O0 2.967128 1_555
K9 N6 3.184214 1_545
K9 N11 3.282204 1_545
K10 O18 2.707495 1_655
K10 O14 2.785985 1_554
K10 O22 2.819228 1_654
K10 O4 2.913243 1_565
K10 O17 2.951116 1_555
K10 O15 2.963988 1_555
K10 N10 3.038740 1_655
K11 O21 2.707495 1_555
K11 O13 2.785985 1_555
K11 O1 2.819228 1_555
K11 O10 2.913243 1_545
K11 O5 2.951116 1_555
K11 O16 2.963988 1_555
K11 N7 3.038740 1_555
N0 Se3 1.810200 1_555
N0 Se8 1.811348 1_545
N1 Se4 1.810200 1_555
N1 Se0 1.811348 1_565
N2 Se9 1.810200 1_555
N2 Se1 1.811348 1_545
N3 Se8 1.806416 1_555
N3 Se5 1.821373 1_565
N4 Se0 1.806416 1_555
N4 Se7 1.821373 1_545
N5 Se6 1.802513 1_555
N5 Se10 1.816718 1_655
N6 Se6 1.810200 1_555
N6 Se11 1.811348 1_565
N7 Se4 1.802513 1_555
N7 Se7 1.816718 1_555
N8 Se11 1.806416 1_455
N8 Se10 1.821373 1_545
N9 Se3 1.802513 1_555
N9 Se5 1.816718 1_555
N10 Se9 1.802513 1_555
N10 Se2 1.816718 1_455
N11 Se1 1.806416 1_655
N11 Se2 1.821373 1_565
O0 Se11 1.659229 1_555
O1 Se5 1.667327 1_555
O2 Se1 1.659229 1_555
O3 Se4 1.672408 1_555
O4 Se2 1.667327 1_555
O5 Se7 1.654473 1_555
O6 Se3 1.658355 1_555
O7 Se9 1.672408 1_555
O8 Se5 1.654473 1_555
O9 Se8 1.673711 1_555
O10 Se7 1.667327 1_555
O11 Se6 1.658355 1_555
O12 Se11 1.673711 1_555
O13 Se3 1.672408 1_555
O14 Se6 1.672408 1_555
O15 Se4 1.658355 1_555
O16 Se9 1.658355 1_555
O17 Se2 1.654473 1_555
O18 Se1 1.673711 1_555
O19 Se0 1.659229 1_555
O20 Se10 1.654473 1_555
O21 Se0 1.673711 1_555
O22 Se10 1.667327 1_555
O23 Se8 1.659229 1_555
