# generated using pymatgen
data_Cr3SiNi2
_symmetry_space_group_name_H-M   'P 1'
_cell_length_a   7.33786203
_cell_length_b   7.33786203
_cell_length_c   7.33786203
_cell_angle_alpha   60.00000000
_cell_angle_beta   60.00000000
_cell_angle_gamma   60.00000000
_symmetry_Int_Tables_number   1
_chemical_formula_structural   Cr3SiNi2
_chemical_formula_sum   'Cr12 Si4 Ni8'
_cell_volume   279.37891540
_cell_formula_units_Z   4
loop_
 _symmetry_equiv_pos_site_id
 _symmetry_equiv_pos_as_xyz
  1  'x, y, z'
loop_
 _atom_site_type_symbol
 _atom_site_label
 _atom_site_symmetry_multiplicity
 _atom_site_fract_x
 _atom_site_fract_y
 _atom_site_fract_z
 _atom_site_occupancy
  Cr  Cr0  1  0.92227400  0.92227400  0.57772600  1
  Cr  Cr1  1  0.67227400  0.32772600  0.32772600  1
  Cr  Cr2  1  0.32772600  0.67227400  0.67227400  1
  Cr  Cr3  1  0.67227400  0.67227400  0.32772600  1
  Cr  Cr4  1  0.67227400  0.32772600  0.67227400  1
  Cr  Cr5  1  0.32772600  0.67227400  0.32772600  1
  Cr  Cr6  1  0.57772600  0.92227400  0.57772600  1
  Cr  Cr7  1  0.57772600  0.92227400  0.92227400  1
  Cr  Cr8  1  0.92227400  0.57772600  0.57772600  1
  Cr  Cr9  1  0.92227400  0.57772600  0.92227400  1
  Cr  Cr10  1  0.32772600  0.32772600  0.67227400  1
  Cr  Cr11  1  0.57772600  0.57772600  0.92227400  1
  Si  Si0  1  0.12500000  0.62500000  0.12500000  1
  Si  Si1  1  0.12500000  0.12500000  0.62500000  1
  Si  Si2  1  0.62500000  0.12500000  0.12500000  1
  Si  Si3  1  0.12500000  0.12500000  0.12500000  1
  Ni  Ni0  1  0.91491200  0.25526500  0.91491200  1
  Ni  Ni1  1  0.33508800  0.33508800  0.99473500  1
  Ni  Ni2  1  0.99473500  0.33508800  0.33508800  1
  Ni  Ni3  1  0.33508800  0.33508800  0.33508800  1
  Ni  Ni4  1  0.25526500  0.91491200  0.91491200  1
  Ni  Ni5  1  0.91491200  0.91491200  0.91491200  1
  Ni  Ni6  1  0.91491200  0.91491200  0.25526500  1
  Ni  Ni7  1  0.33508800  0.99473500  0.33508800  1
loop_
_geom_bond_atom_site_label_1
_geom_bond_atom_site_label_2
_geom_bond_distance
_geom_bond_site_symmetry_2
Cr0 Ni6 2.421401 1_555
Cr0 Ni5 2.421409 1_555
Cr0 Si3 2.791241 1_665
Cr0 Si1 2.791241 1_665
Cr0 Ni2 2.810564 1_565
Cr0 Ni7 2.810564 1_655
Cr1 Ni2 2.421401 1_555
Cr1 Ni3 2.421409 1_555
Cr1 Si2 2.791241 1_555
Cr1 Si3 2.791241 1_655
Cr1 Ni6 2.810564 1_545
Cr1 Ni0 2.810564 1_554
Cr2 Ni1 2.421405 1_555
Cr2 Ni7 2.421405 1_555
Cr2 Si0 2.791241 1_556
Cr2 Si1 2.791241 1_565
Cr2 Ni5 2.810567 1_455
Cr2 Ni4 2.810570 1_555
Cr3 Ni7 2.421405 1_555
Cr3 Ni2 2.421405 1_555
Cr3 Si0 2.791241 1_655
Cr3 Si2 2.791241 1_565
Cr3 Ni5 2.810567 1_554
Cr3 Ni6 2.810570 1_555
Cr4 Ni1 2.421405 1_555
Cr4 Ni2 2.421405 1_555
Cr4 Si2 2.791241 1_556
Cr4 Si1 2.791241 1_655
Cr4 Ni5 2.810567 1_545
Cr4 Ni0 2.810570 1_555
Cr5 Ni7 2.421401 1_555
Cr5 Ni3 2.421409 1_555
Cr5 Si0 2.791241 1_555
Cr5 Si3 2.791241 1_565
Cr5 Ni4 2.810564 1_554
Cr5 Ni6 2.810564 1_455
Cr6 Ni4 2.421405 1_555
Cr6 Ni6 2.421405 1_555
Cr6 Si1 2.791241 1_565
Cr6 Si2 2.791241 1_565
Cr6 Ni3 2.810567 1_565
Cr6 Ni7 2.810570 1_555
Cr7 Ni4 2.421401 1_555
Cr7 Ni5 2.421409 1_555
Cr7 Si3 2.791241 1_566
Cr7 Si2 2.791241 1_566
Cr7 Ni7 2.810564 1_556
Cr7 Ni1 2.810564 1_565
Cr8 Ni6 2.421405 1_555
Cr8 Ni0 2.421405 1_555
Cr8 Si1 2.791241 1_655
Cr8 Si0 2.791241 1_655
Cr8 Ni3 2.810567 1_655
Cr8 Ni2 2.810570 1_555
Cr9 Ni0 2.421401 1_555
Cr9 Ni5 2.421409 1_555
Cr9 Si3 2.791241 1_656
Cr9 Si0 2.791241 1_656
Cr9 Ni1 2.810564 1_655
Cr9 Ni2 2.810564 1_556
Cr10 Ni1 2.421401 1_555
Cr10 Ni3 2.421409 1_555
Cr10 Si1 2.791241 1_555
Cr10 Si3 2.791241 1_556
Cr10 Ni4 2.810564 1_545
Cr10 Ni0 2.810564 1_455
Cr11 Ni0 2.421405 1_555
Cr11 Ni4 2.421405 1_555
Cr11 Si0 2.791241 1_556
Cr11 Si2 2.791241 1_556
Cr11 Ni3 2.810567 1_556
Cr11 Ni1 2.810570 1_555
Ni0 Si3 2.257459 1_656
Ni0 Si1 2.257465 1_655
Ni0 Si2 2.257465 1_556
Ni0 Ni5 2.497463 1_545
Ni0 Ni4 2.497463 1_645
Ni0 Ni6 2.497463 1_546
Ni1 Si3 2.257459 1_556
Ni1 Si0 2.257465 1_556
Ni1 Si2 2.257465 1_556
Ni1 Ni2 2.497463 1_456
Ni1 Ni7 2.497463 1_546
Ni1 Ni3 2.497463 1_556
Ni2 Si3 2.257459 1_655
Ni2 Si0 2.257465 1_655
Ni2 Si1 2.257465 1_655
Ni2 Ni7 2.497463 1_645
Ni2 Ni3 2.497463 1_655
Ni3 Si1 2.257461 1_555
Ni3 Si2 2.257461 1_555
Ni3 Si0 2.257461 1_555
Ni3 Ni7 2.497463 1_545
Ni4 Si3 2.257459 1_566
Ni4 Si0 2.257465 1_556
Ni4 Si1 2.257465 1_565
Ni4 Ni6 2.497463 1_456
Ni4 Ni5 2.497463 1_455
Ni5 Si2 2.257461 1_566
Ni5 Si0 2.257461 1_656
Ni5 Si1 2.257461 1_665
Ni5 Ni6 2.497463 1_556
Ni6 Si3 2.257459 1_665
Ni6 Si2 2.257465 1_565
Ni6 Si0 2.257465 1_655
Ni7 Si3 2.257459 1_565
Ni7 Si2 2.257465 1_565
Ni7 Si1 2.257465 1_565
