# generated using pymatgen
data_YbSbAu
_symmetry_space_group_name_H-M   'P 1'
_cell_length_a   4.70683193
_cell_length_b   4.70683193
_cell_length_c   7.67244000
_cell_angle_alpha   90.00000000
_cell_angle_beta   90.00000000
_cell_angle_gamma   119.99999899
_symmetry_Int_Tables_number   1
_chemical_formula_structural   YbSbAu
_chemical_formula_sum   'Yb2 Sb2 Au2'
_cell_volume   147.20464643
_cell_formula_units_Z   2
loop_
 _symmetry_equiv_pos_site_id
 _symmetry_equiv_pos_as_xyz
  1  'x, y, z'
loop_
 _atom_site_type_symbol
 _atom_site_label
 _atom_site_symmetry_multiplicity
 _atom_site_fract_x
 _atom_site_fract_y
 _atom_site_fract_z
 _atom_site_occupancy
  Yb  Yb0  1  0.00000000  0.00000000  0.25444700  1
  Yb  Yb1  1  0.00000000  0.00000000  0.75444700  1
  Sb  Sb0  1  0.66666700  0.33333300  0.03418300  1
  Sb  Sb1  1  0.33333300  0.66666700  0.53418300  1
  Au  Au0  1  0.33333300  0.66666700  0.93737000  1
  Au  Au1  1  0.66666700  0.33333300  0.43737000  1
loop_
_geom_bond_atom_site_label_1
_geom_bond_atom_site_label_2
_geom_bond_distance
_geom_bond_site_symmetry_2
Sb0 Yb0 3.200111 1_655
Sb0 Yb0 3.200115 1_555
Sb0 Yb0 3.200115 1_665
Sb0 Yb1 3.462826 1_654
Sb0 Yb1 3.462829 1_664
Sb0 Yb1 3.462829 1_554
Sb1 Yb1 3.200111 1_565
Sb1 Yb1 3.200115 1_665
Sb1 Yb1 3.200115 1_555
Sb1 Yb0 3.462826 1_565
Sb1 Yb0 3.462829 1_665
Sb1 Yb0 3.462829 1_555
Au0 Sb0 2.817176 1_456
Au0 Sb0 2.817176 1_566
Au0 Sb0 2.817184 1_556
Au0 Yb1 3.058506 1_565
Au0 Yb1 3.058509 1_665
Au0 Yb1 3.058509 1_555
Au0 Sb1 3.093428 1_555
Au0 Yb0 3.647332 1_566
Au0 Yb0 3.647336 1_556
Au0 Yb0 3.647336 1_666
Au1 Sb1 2.817176 1_655
Au1 Sb1 2.817176 1_545
Au1 Sb1 2.817184 1_555
Au1 Yb0 3.058506 1_655
Au1 Yb0 3.058509 1_665
Au1 Yb0 3.058509 1_555
Au1 Sb0 3.093428 1_555
Au1 Yb1 3.647332 1_655
Au1 Yb1 3.647336 1_555
Au1 Yb1 3.647336 1_665
