# generated using pymatgen
data_SNF
_symmetry_space_group_name_H-M   'P 1'
_cell_length_a   6.91258238
_cell_length_b   6.91258238
_cell_length_c   6.91258190
_cell_angle_alpha   99.14583671
_cell_angle_beta   99.14583671
_cell_angle_gamma   99.14583465
_symmetry_Int_Tables_number   1
_chemical_formula_structural   SNF
_chemical_formula_sum   'S6 N6 F6'
_cell_volume   316.16238204
_cell_formula_units_Z   6
loop_
 _symmetry_equiv_pos_site_id
 _symmetry_equiv_pos_as_xyz
  1  'x, y, z'
loop_
 _atom_site_type_symbol
 _atom_site_label
 _atom_site_symmetry_multiplicity
 _atom_site_fract_x
 _atom_site_fract_y
 _atom_site_fract_z
 _atom_site_occupancy
  S  S0  1  0.72103100  0.52231300  0.82922300  1
  S  S1  1  0.52231300  0.82922300  0.72103100  1
  S  S2  1  0.82922300  0.72103100  0.52231300  1
  S  S3  1  0.17077700  0.27896900  0.47768700  1
  S  S4  1  0.47768700  0.17077700  0.27896900  1
  S  S5  1  0.27896900  0.47768700  0.17077700  1
  N  N0  1  0.82815300  0.53847000  0.64121200  1
  N  N1  1  0.35878800  0.17184700  0.46153000  1
  N  N2  1  0.53847000  0.64121200  0.82815300  1
  N  N3  1  0.17184700  0.46153000  0.35878800  1
  N  N4  1  0.64121200  0.82815300  0.53847000  1
  N  N5  1  0.46153000  0.35878800  0.17184700  1
  F  F0  1  0.66918700  0.01652200  0.88989100  1
  F  F1  1  0.01652200  0.88989100  0.66918700  1
  F  F2  1  0.88989100  0.66918700  0.01652200  1
  F  F3  1  0.98347800  0.11010900  0.33081300  1
  F  F4  1  0.33081300  0.98347800  0.11010900  1
  F  F5  1  0.11010900  0.33081300  0.98347800  1
loop_
_geom_bond_atom_site_label_1
_geom_bond_atom_site_label_2
_geom_bond_distance
_geom_bond_site_symmetry_2
N0 S0 1.604884 1_555
N0 S2 1.611467 1_555
N1 S3 1.604884 1_555
N1 S4 1.611467 1_555
N2 S1 1.604884 1_555
N2 S0 1.611467 1_555
N3 S5 1.604884 1_555
N3 S3 1.611467 1_555
N4 S2 1.604884 1_555
N4 S1 1.611467 1_555
N5 S4 1.604884 1_555
N5 S5 1.611467 1_555
F0 S1 1.671689 1_545
F1 S2 1.671689 1_455
F2 S0 1.671689 1_554
F3 S3 1.671689 1_655
F4 S4 1.671689 1_565
F5 S5 1.671689 1_556
