# generated using pymatgen
data_Sr2V3BiO11
_symmetry_space_group_name_H-M   'P 1'
_cell_length_a   7.09465100
_cell_length_b   7.12976843
_cell_length_c   10.37861581
_cell_angle_alpha   99.23046837
_cell_angle_beta   95.93400983
_cell_angle_gamma   92.89805319
_symmetry_Int_Tables_number   1
_chemical_formula_structural   Sr2V3BiO11
_chemical_formula_sum   'Sr4 V6 Bi2 O22'
_cell_volume   514.20246981
_cell_formula_units_Z   2
loop_
 _symmetry_equiv_pos_site_id
 _symmetry_equiv_pos_as_xyz
  1  'x, y, z'
loop_
 _atom_site_type_symbol
 _atom_site_label
 _atom_site_symmetry_multiplicity
 _atom_site_fract_x
 _atom_site_fract_y
 _atom_site_fract_z
 _atom_site_occupancy
  Sr  Sr0  1  0.64991900  0.25143100  0.97937900  1
  Sr  Sr1  1  0.35008100  0.74856900  0.02062100  1
  Sr  Sr2  1  0.34043100  0.38837800  0.63681700  1
  Sr  Sr3  1  0.65956900  0.61162200  0.36318300  1
  V  V0  1  0.64052900  0.11124500  0.33548100  1
  V  V1  1  0.35947100  0.88875500  0.66451900  1
  V  V2  1  0.15954900  0.23566700  0.96190000  1
  V  V3  1  0.84045100  0.76433300  0.03810000  1
  V  V4  1  0.13283600  0.42743900  0.26475900  1
  V  V5  1  0.86716400  0.57256100  0.73524100  1
  Bi  Bi0  1  0.84927000  0.07144900  0.64041000  1
  Bi  Bi1  1  0.15073000  0.92855100  0.35959000  1
  O  O0  1  0.99126000  0.39438500  0.65473200  1
  O  O1  1  0.00874000  0.60561500  0.34526800  1
  O  O2  1  0.02847400  0.34015800  0.09566200  1
  O  O3  1  0.97152600  0.65984200  0.90433800  1
  O  O4  1  0.41929900  0.74671600  0.52567000  1
  O  O5  1  0.58070100  0.25328400  0.47433000  1
  O  O6  1  0.69996800  0.26215800  0.23222900  1
  O  O7  1  0.30003200  0.73784200  0.76777100  1
  O  O8  1  0.97056200  0.12116800  0.85079300  1
  O  O9  1  0.02943800  0.87883200  0.14920700  1
  O  O10  1  0.68121200  0.91341700  0.98821100  1
  O  O11  1  0.31878800  0.08658300  0.01178900  1
  O  O12  1  0.54246000  0.05960800  0.73485600  1
  O  O13  1  0.45754000  0.94039200  0.26514400  1
  O  O14  1  0.16738600  0.02589800  0.60461100  1
  O  O15  1  0.83261400  0.97410200  0.39538900  1
  O  O16  1  0.29989300  0.39739500  0.90243000  1
  O  O17  1  0.70010700  0.60260500  0.09757000  1
  O  O18  1  0.66141400  0.46076200  0.76154300  1
  O  O19  1  0.33858600  0.53923800  0.23845700  1
  O  O20  1  0.82585400  0.74374000  0.63490800  1
  O  O21  1  0.17414600  0.25626000  0.36509200  1
loop_
_geom_bond_atom_site_label_1
_geom_bond_atom_site_label_2
_geom_bond_distance
_geom_bond_site_symmetry_2
Bi0 O8 2.228476 1_555
Bi0 O20 2.325087 1_545
Bi0 O14 2.354996 1_655
Bi0 O0 2.441908 1_555
Bi0 O12 2.480958 1_555
Bi0 O15 2.515109 1_545
Bi1 O9 2.228476 1_555
Bi1 O21 2.325087 1_565
Bi1 O15 2.354996 1_455
Bi1 O1 2.441908 1_555
Bi1 O13 2.480958 1_555
Bi1 O14 2.515109 1_565
O0 V5 1.735449 1_555
O0 Sr2 2.505307 1_655
O1 V4 1.735449 1_555
O1 Sr3 2.505307 1_455
O2 V4 1.830253 1_555
O2 V2 1.830917 1_554
O2 Sr0 2.825393 1_454
O3 V5 1.830253 1_555
O3 V3 1.830917 1_556
O3 Sr1 2.825393 1_656
O4 V1 1.727468 1_555
O4 Sr3 2.629966 1_555
O4 Sr2 3.017533 1_555
O5 V0 1.727468 1_555
O5 Sr2 2.629966 1_555
O5 Sr3 3.017533 1_555
O6 V0 1.703340 1_555
O6 Sr0 2.599755 1_554
O6 Sr3 2.683986 1_555
O7 V1 1.703340 1_555
O7 Sr1 2.599755 1_556
O7 Sr2 2.683986 1_555
O8 V2 1.749721 1_655
O8 Sr0 2.874412 1_555
O9 V3 1.749721 1_455
O9 Sr1 2.874412 1_555
O10 V3 1.688576 1_556
O10 Sr0 2.446706 1_565
O10 Sr1 2.650392 1_556
O11 V2 1.688576 1_554
O11 Sr1 2.446706 1_545
O11 Sr0 2.650392 1_554
O12 V1 1.749588 1_545
O12 Sr0 2.696890 1_555
O12 Sr2 3.063933 1_555
O13 V0 1.749588 1_565
O13 Sr1 2.696890 1_555
O13 Sr3 3.063933 1_555
O14 V1 1.831508 1_545
O14 Sr2 2.759576 1_555
O15 V0 1.831508 1_565
O15 Sr3 2.759576 1_555
O16 V2 1.715009 1_555
O16 Sr1 2.595124 1_556
O16 Sr2 2.791982 1_555
O16 Sr0 2.829411 1_555
O17 V3 1.715009 1_555
O17 Sr0 2.595124 1_554
O17 Sr3 2.791982 1_555
O17 Sr1 2.829411 1_555
O18 V5 1.695648 1_555
O18 Sr2 2.487020 1_555
O18 Sr0 2.907551 1_555
O19 V4 1.695648 1_555
O19 Sr3 2.487020 1_555
O19 Sr1 2.907551 1_555
O20 V5 1.743721 1_555
O20 Sr3 2.929112 1_555
O21 V4 1.743721 1_555
O21 Sr2 2.929112 1_555
