# generated using pymatgen
data_Al(PO3)3
_symmetry_space_group_name_H-M   'P 1'
_cell_length_a   11.51486715
_cell_length_b   11.51486715
_cell_length_c   9.36966394
_cell_angle_alpha   70.19456464
_cell_angle_beta   70.19456464
_cell_angle_gamma   110.88974656
_symmetry_Int_Tables_number   1
_chemical_formula_structural   Al(PO3)3
_chemical_formula_sum   'Al6 P18 O54'
_cell_volume   930.82840154
_cell_formula_units_Z   6
loop_
 _symmetry_equiv_pos_site_id
 _symmetry_equiv_pos_as_xyz
  1  'x, y, z'
loop_
 _atom_site_type_symbol
 _atom_site_label
 _atom_site_symmetry_multiplicity
 _atom_site_fract_x
 _atom_site_fract_y
 _atom_site_fract_z
 _atom_site_occupancy
  Al  Al0  1  0.41934200  0.59499500  0.48579200  1
  Al  Al1  1  0.59499500  0.41934200  0.98579200  1
  Al  Al2  1  0.08560900  0.92494400  0.48951600  1
  Al  Al3  1  0.92494400  0.08560900  0.98951600  1
  Al  Al4  1  0.74196100  0.23275500  0.51916200  1
  Al  Al5  1  0.23275500  0.74196100  0.01916200  1
  P  P0  1  0.61899800  0.67497600  0.65159700  1
  P  P1  1  0.67497600  0.61899800  0.15159700  1
  P  P2  1  0.26709600  0.99542700  0.67911700  1
  P  P3  1  0.99542700  0.26709600  0.17911700  1
  P  P4  1  0.93282100  0.32610000  0.68528100  1
  P  P5  1  0.32610000  0.93282100  0.18528100  1
  P  P6  1  0.84304500  0.90597300  0.80777100  1
  P  P7  1  0.90597300  0.84304500  0.30777100  1
  P  P8  1  0.49429700  0.22067000  0.83195200  1
  P  P9  1  0.22067000  0.49429700  0.33195200  1
  P  P10  1  0.16296400  0.56043000  0.83250500  1
  P  P11  1  0.56043000  0.16296400  0.33250500  1
  P  P12  1  0.58349000  0.88145100  0.77464900  1
  P  P13  1  0.88145100  0.58349000  0.27464900  1
  P  P14  1  0.28416900  0.25284900  0.71963700  1
  P  P15  1  0.25284900  0.28416900  0.21963700  1
  P  P16  1  0.93800100  0.57371100  0.73657100  1
  P  P17  1  0.57371100  0.93800100  0.23657100  1
  O  O0  1  0.80689000  0.23303500  0.67918400  1
  O  O1  1  0.23303500  0.80689000  0.17918400  1
  O  O2  1  0.51473200  0.58847800  0.61355200  1
  O  O3  1  0.58847800  0.51473200  0.11355200  1
  O  O4  1  0.14143200  0.92145600  0.65985300  1
  O  O5  1  0.92145600  0.14143200  0.15985300  1
  O  O6  1  0.07701700  0.37092100  0.52109100  1
  O  O7  1  0.37092100  0.07701700  0.02109100  1
  O  O8  1  0.76419600  0.80920500  0.46694100  1
  O  O9  1  0.80920500  0.76419600  0.96694100  1
  O  O10  1  0.41246500  0.03744700  0.51778500  1
  O  O11  1  0.03744700  0.41246500  0.01778500  1
  O  O12  1  0.93415000  0.25870100  0.85231500  1
  O  O13  1  0.25870100  0.93415000  0.35231500  1
  O  O14  1  0.65262900  0.59382300  0.77743100  1
  O  O15  1  0.59382300  0.65262900  0.27743100  1
  O  O16  1  0.25928600  0.91628200  0.84920300  1
  O  O17  1  0.91628200  0.25928600  0.34920300  1
  O  O18  1  0.13271200  0.18089500  0.87057100  1
  O  O19  1  0.18089500  0.13271200  0.37057100  1
  O  O20  1  0.79269100  0.48185700  0.90737900  1
  O  O21  1  0.48185700  0.79269100  0.40737900  1
  O  O22  1  0.43760800  0.82882400  0.92211600  1
  O  O23  1  0.82882400  0.43760800  0.42211600  1
  O  O24  1  0.34849700  0.39817700  0.56150800  1
  O  O25  1  0.39817700  0.34849700  0.06150800  1
  O  O26  1  0.97743800  0.71812800  0.60091700  1
  O  O27  1  0.71812800  0.97743800  0.10091700  1
  O  O28  1  0.66463300  0.02944500  0.61216700  1
  O  O29  1  0.02944500  0.66463300  0.11216700  1
  O  O30  1  0.24661800  0.53438600  0.69862900  1
  O  O31  1  0.53438600  0.24661800  0.19862900  1
  O  O32  1  0.91312600  0.91266300  0.63555300  1
  O  O33  1  0.91266300  0.91312600  0.13555300  1
  O  O34  1  0.56036600  0.18647500  0.69669700  1
  O  O35  1  0.18647500  0.56036600  0.19669700  1
  O  O36  1  0.24842700  0.67197900  0.86323200  1
  O  O37  1  0.67197900  0.24842700  0.36323200  1
  O  O38  1  0.92817400  0.03482800  0.81552400  1
  O  O39  1  0.03482800  0.92817400  0.31552400  1
  O  O40  1  0.59781000  0.32713200  0.85305900  1
  O  O41  1  0.32713200  0.59781000  0.35305900  1
  O  O42  1  0.15359700  0.29804500  0.13844700  1
  O  O43  1  0.29804500  0.15359700  0.63844700  1
  O  O44  1  0.76221700  0.55837400  0.21945100  1
  O  O45  1  0.55837400  0.76221700  0.71945100  1
  O  O46  1  0.48244800  0.95351600  0.14145400  1
  O  O47  1  0.95351600  0.48244800  0.64145400  1
  O  O48  1  0.27375400  0.39254900  0.29184800  1
  O  O49  1  0.39254900  0.27375400  0.79184800  1
  O  O50  1  0.87063700  0.68083600  0.36167500  1
  O  O51  1  0.68083600  0.87063700  0.86167500  1
  O  O52  1  0.60921700  0.06389800  0.27906900  1
  O  O53  1  0.06389800  0.60921700  0.77906900  1
loop_
_geom_bond_atom_site_label_1
_geom_bond_atom_site_label_2
_geom_bond_distance
_geom_bond_site_symmetry_2
Al0 O24 1.872127 1_555
Al0 O2 1.879900 1_555
Al0 O41 1.888706 1_555
Al0 O21 1.892026 1_555
Al0 O30 1.949068 1_555
Al0 O15 1.949750 1_555
Al1 O25 1.872127 1_556
Al1 O3 1.879900 1_556
Al1 O40 1.888706 1_555
Al1 O20 1.892026 1_555
Al1 O31 1.949068 1_556
Al1 O14 1.949750 1_555
Al2 O39 1.903000 1_555
Al2 O26 1.905627 1_455
Al2 O4 1.905831 1_555
Al2 O13 1.912346 1_555
Al2 O19 1.913673 1_565
Al2 O32 1.914136 1_455
Al3 O38 1.903000 1_555
Al3 O27 1.905627 1_546
Al3 O5 1.905831 1_556
Al3 O12 1.912346 1_555
Al3 O18 1.913673 1_655
Al3 O33 1.914136 1_546
Al4 O37 1.881317 1_555
Al4 O0 1.888980 1_555
Al4 O28 1.907368 1_555
Al4 O23 1.907635 1_555
Al4 O34 1.915984 1_555
Al4 O17 1.930107 1_555
Al5 O36 1.881317 1_554
Al5 O1 1.888980 1_555
Al5 O29 1.907368 1_555
Al5 O22 1.907635 1_554
Al5 O35 1.915984 1_555
Al5 O16 1.930107 1_554
O0 P4 1.497939 1_555
O1 P5 1.497939 1_555
O2 P0 1.496130 1_555
O3 P1 1.496130 1_555
O4 P2 1.501375 1_555
O5 P3 1.501375 1_555
O6 P4 1.584245 1_455
O6 P9 1.589527 1_555
O7 P5 1.584245 1_545
O7 P8 1.589527 1_554
O8 P7 1.594945 1_555
O8 P0 1.600771 1_555
O9 P6 1.594945 1_555
O9 P1 1.600771 1_556
O10 P2 1.591594 1_545
O10 P11 1.595243 1_555
O11 P3 1.591594 1_455
O11 P10 1.595243 1_554
O12 P4 1.501181 1_555
O13 P5 1.501181 1_555
O14 P0 1.494709 1_555
O15 P1 1.494709 1_555
O16 P2 1.496190 1_555
O17 P3 1.496190 1_555
O18 P14 1.494040 1_555
O19 P15 1.494040 1_555
O20 P16 1.501958 1_555
O21 P17 1.501958 1_555
O22 P12 1.493965 1_555
O23 P13 1.493965 1_555
O24 P14 1.495455 1_555
O25 P15 1.495455 1_555
O26 P16 1.491683 1_555
O27 P17 1.491683 1_555
O28 P12 1.495746 1_545
O29 P13 1.495746 1_455
O30 P10 1.494453 1_555
O31 P11 1.494453 1_555
O32 P6 1.499983 1_555
O33 P7 1.499983 1_555
O34 P8 1.496089 1_555
O35 P9 1.496089 1_555
O36 P10 1.497448 1_555
O37 P11 1.497448 1_555
O38 P6 1.500582 1_545
O39 P7 1.500582 1_455
O40 P8 1.498213 1_555
O41 P9 1.498213 1_555
O42 P15 1.596060 1_555
O42 P3 1.601297 1_455
O43 P14 1.596060 1_555
O43 P2 1.601297 1_545
O44 P1 1.591484 1_555
O44 P13 1.592335 1_555
O45 P0 1.591484 1_555
O45 P12 1.592335 1_555
O46 P17 1.609717 1_555
O46 P5 1.610386 1_555
O47 P16 1.609717 1_555
O47 P4 1.610386 1_555
O48 P9 1.594026 1_555
O48 P15 1.594210 1_555
O49 P8 1.594026 1_555
O49 P14 1.594210 1_555
O50 P13 1.608410 1_555
O50 P7 1.608994 1_555
O51 P12 1.608410 1_555
O51 P6 1.608994 1_555
O52 P17 1.583075 1_545
O52 P11 1.587759 1_555
O53 P16 1.583075 1_455
O53 P10 1.587759 1_555
