# generated using pymatgen
data_Dy2Sn5
_symmetry_space_group_name_H-M   'P 1'
_cell_length_a   4.33613296
_cell_length_b   4.41008694
_cell_length_c   19.23826331
_cell_angle_alpha   90.00000000
_cell_angle_beta   90.00000000
_cell_angle_gamma   90.00000000
_symmetry_Int_Tables_number   1
_chemical_formula_structural   Dy2Sn5
_chemical_formula_sum   'Dy4 Sn10'
_cell_volume   367.88798676
_cell_formula_units_Z   2
loop_
 _symmetry_equiv_pos_site_id
 _symmetry_equiv_pos_as_xyz
  1  'x, y, z'
loop_
 _atom_site_type_symbol
 _atom_site_label
 _atom_site_symmetry_multiplicity
 _atom_site_fract_x
 _atom_site_fract_y
 _atom_site_fract_z
 _atom_site_occupancy
  Dy  Dy0  1  0.25000000  0.75000000  0.87243704  1
  Dy  Dy1  1  0.25000000  0.25000000  0.30086301  1
  Dy  Dy2  1  0.75000000  0.75000000  0.69913699  1
  Dy  Dy3  1  0.75000000  0.25000000  0.12756296  1
  Sn  Sn0  1  0.25000000  0.25000000  0.73771943  1
  Sn  Sn1  1  0.75000000  0.25000000  0.42534319  1
  Sn  Sn2  1  0.75000000  0.25000000  0.84257120  1
  Sn  Sn3  1  0.75000000  0.25000000  0.57590243  1
  Sn  Sn4  1  0.75000000  0.75000000  0.26228057  1
  Sn  Sn5  1  0.25000000  0.75000000  0.42409757  1
  Sn  Sn6  1  0.25000000  0.75000000  0.57465681  1
  Sn  Sn7  1  0.25000000  0.75000000  0.15742880  1
  Sn  Sn8  1  0.25000000  0.25000000  0.99756527  1
  Sn  Sn9  1  0.75000000  0.75000000  0.00243473  1
loop_
_geom_bond_atom_site_label_1
_geom_bond_atom_site_label_2
_geom_bond_distance
_geom_bond_site_symmetry_2
Dy0 Sn2 3.145291 1_555
Dy0 Sn2 3.145291 1_465
Dy0 Sn2 3.145291 1_565
Dy0 Sn2 3.145291 1_455
Dy0 Sn8 3.264517 1_555
Dy0 Sn8 3.264517 1_565
Dy0 Sn9 3.309858 1_456
Dy0 Sn9 3.309858 1_556
Dy0 Sn0 3.402836 1_565
Dy0 Sn0 3.402836 1_555
Dy1 Sn4 3.180201 1_545
Dy1 Sn4 3.180201 1_555
Dy1 Sn4 3.180201 1_455
Dy1 Sn4 3.180201 1_445
Dy1 Sn1 3.230402 1_555
Dy1 Sn1 3.230402 1_455
Dy1 Sn5 3.237746 1_555
Dy1 Sn5 3.237746 1_545
Dy1 Sn7 3.532229 1_555
Dy1 Sn7 3.532229 1_545
Dy2 Sn0 3.180201 1_665
Dy2 Sn0 3.180201 1_565
Dy2 Sn0 3.180201 1_555
Dy2 Sn0 3.180201 1_655
Dy2 Sn6 3.230402 1_655
Dy2 Sn6 3.230402 1_555
Dy2 Sn3 3.237746 1_565
Dy2 Sn3 3.237746 1_555
Dy2 Sn2 3.532229 1_555
Dy2 Sn2 3.532229 1_565
Dy3 Sn7 3.145291 1_645
Dy3 Sn7 3.145291 1_545
Dy3 Sn7 3.145291 1_555
Dy3 Sn7 3.145291 1_655
Dy3 Sn9 3.264517 1_545
Dy3 Sn9 3.264517 1_555
Dy3 Sn8 3.309858 1_654
Dy3 Sn8 3.309858 1_554
Dy3 Sn4 3.402836 1_555
Dy3 Sn4 3.402836 1_545
Sn0 Sn2 2.961329 1_455
Sn0 Sn2 2.961329 1_555
Sn1 Sn3 2.896498 1_555
Sn1 Sn5 3.092459 1_545
Sn1 Sn5 3.092459 1_655
Sn1 Sn5 3.092459 1_555
Sn1 Sn5 3.092459 1_645
Sn3 Sn6 3.092459 1_645
Sn3 Sn6 3.092459 1_545
Sn3 Sn6 3.092459 1_555
Sn3 Sn6 3.092459 1_655
Sn4 Sn7 2.961329 1_555
Sn4 Sn7 2.961329 1_655
Sn5 Sn6 2.896498 1_555
Sn8 Sn9 3.093785 1_556
Sn8 Sn9 3.093785 1_446
Sn8 Sn9 3.093785 1_546
Sn8 Sn9 3.093785 1_456
