# generated using pymatgen
data_ZnS
_symmetry_space_group_name_H-M   'P 1'
_cell_length_a   3.80705855
_cell_length_b   3.80705815
_cell_length_c   56.06641709
_cell_angle_alpha   90.00000000
_cell_angle_beta   90.00000000
_cell_angle_gamma   120.00001221
_symmetry_Int_Tables_number   1
_chemical_formula_structural   ZnS
_chemical_formula_sum   'Zn18 S18'
_cell_volume   703.74034361
_cell_formula_units_Z   18
loop_
 _symmetry_equiv_pos_site_id
 _symmetry_equiv_pos_as_xyz
  1  'x, y, z'
loop_
 _atom_site_type_symbol
 _atom_site_label
 _atom_site_symmetry_multiplicity
 _atom_site_fract_x
 _atom_site_fract_y
 _atom_site_fract_z
 _atom_site_occupancy
  Zn  Zn0  1  0.00000000  -0.00000000  0.16667970  1
  Zn  Zn1  1  0.33333300  0.66666700  0.22223228  1
  Zn  Zn2  1  0.00000000  -0.00000000  0.50004060  1
  Zn  Zn3  1  0.66666700  0.33333300  0.55556899  1
  Zn  Zn4  1  0.66666700  0.33333300  0.27776926  1
  Zn  Zn5  1  0.33333300  0.66666700  0.05558735  1
  Zn  Zn6  1  0.33333300  0.66666700  0.61112906  1
  Zn  Zn7  1  0.66666700  0.33333300  0.77784063  1
  Zn  Zn8  1  0.66666700  0.33333300  0.11113136  1
  Zn  Zn9  1  0.33333300  0.66666700  0.44448065  1
  Zn  Zn10  1  0.00000000  -0.00000000  0.72224964  1
  Zn  Zn11  1  0.66666700  0.33333300  0.38894917  1
  Zn  Zn12  1  0.66666700  0.33333300  0.94446784  1
  Zn  Zn13  1  0.00000000  0.00000000  0.33335311  1
  Zn  Zn14  1  0.33333300  0.66666700  0.83337759  1
  Zn  Zn15  1  -0.00000000  -0.00000000  0.00005769  1
  Zn  Zn16  1  0.66666700  0.33333300  0.66670413  1
  Zn  Zn17  1  -0.00000000  -0.00000000  0.88890680  1
  S  S0  1  0.66666700  0.33333300  0.98612621  1
  S  S1  1  0.66666700  0.33333300  0.70826996  1
  S  S2  1  0.00000000  -0.00000000  0.04165646  1
  S  S3  1  0.33333300  0.66666700  0.48608844  1
  S  S4  1  0.66666700  0.33333300  0.59714327  1
  S  S5  1  0.66666700  0.33333300  0.15274738  1
  S  S6  1  0.00000000  0.00000000  0.54164040  1
  S  S7  1  0.33333300  0.66666700  0.09720121  1
  S  S8  1  0.66666700  0.33333300  0.81943032  1
  S  S9  1  0.00000000  0.00000000  0.37501419  1
  S  S10  1  0.66666700  0.33333300  0.31936296  1
  S  S11  1  0.00000000  -0.00000000  0.93047916  1
  S  S12  1  0.33333300  0.66666700  0.26385054  1
  S  S13  1  0.33333300  0.66666700  0.65278181  1
  S  S14  1  0.00000000  -0.00000000  0.76391145  1
  S  S15  1  0.66666700  0.33333300  0.43054049  1
  S  S16  1  0.00000000  -0.00000000  0.20830580  1
  S  S17  1  0.33333300  0.66666700  0.87497610  1
loop_
_geom_bond_atom_site_label_1
_geom_bond_atom_site_label_2
_geom_bond_distance
_geom_bond_site_symmetry_2
S0 Zn15 2.332664 1_656
S0 Zn15 2.332666 1_666
S0 Zn15 2.332667 1_556
S0 Zn12 2.335636 1_555
S1 Zn16 2.330447 1_555
S1 Zn10 2.333570 1_655
S1 Zn10 2.333573 1_665
S1 Zn10 2.333573 1_555
S2 Zn15 2.332294 1_555
S2 Zn5 2.332653 1_545
S2 Zn5 2.332655 1_555
S2 Zn5 2.332656 1_445
S3 Zn9 2.332800 1_555
S3 Zn2 2.333052 1_565
S3 Zn2 2.333055 1_555
S3 Zn2 2.333055 1_665
S4 Zn3 2.330921 1_555
S4 Zn6 2.333685 1_545
S4 Zn6 2.333685 1_655
S4 Zn6 2.333691 1_555
S5 Zn0 2.332680 1_655
S5 Zn0 2.332682 1_665
S5 Zn0 2.332682 1_555
S5 Zn8 2.333261 1_555
S6 Zn2 2.332352 1_555
S6 Zn3 2.332610 1_455
S6 Zn3 2.332612 1_445
S6 Zn3 2.332612 1_555
S7 Zn8 2.332638 1_565
S7 Zn8 2.332639 1_455
S7 Zn8 2.332645 1_555
S7 Zn5 2.333140 1_555
S8 Zn7 2.331785 1_555
S8 Zn14 2.332960 1_545
S8 Zn14 2.332960 1_655
S8 Zn14 2.332967 1_555
S9 Zn11 2.332730 1_455
S9 Zn11 2.332732 1_445
S9 Zn11 2.332732 1_555
S9 Zn13 2.335787 1_555
S10 Zn4 2.332010 1_555
S10 Zn13 2.333767 1_655
S10 Zn13 2.333770 1_665
S10 Zn13 2.333770 1_555
S11 Zn17 2.330813 1_555
S11 Zn12 2.333740 1_455
S11 Zn12 2.333742 1_445
S11 Zn12 2.333743 1_555
S12 Zn4 2.332424 1_565
S12 Zn4 2.332424 1_455
S12 Zn4 2.332431 1_555
S12 Zn1 2.333387 1_555
S13 Zn16 2.332491 1_565
S13 Zn16 2.332492 1_455
S13 Zn16 2.332498 1_555
S13 Zn6 2.335320 1_555
S14 Zn7 2.332621 1_455
S14 Zn7 2.332623 1_445
S14 Zn7 2.332624 1_555
S14 Zn10 2.335828 1_555
S15 Zn11 2.331876 1_555
S15 Zn9 2.332826 1_545
S15 Zn9 2.332827 1_655
S15 Zn9 2.332833 1_555
S16 Zn1 2.332570 1_545
S16 Zn1 2.332573 1_555
S16 Zn1 2.332573 1_445
S16 Zn0 2.333826 1_555
S17 Zn14 2.332279 1_555
S17 Zn17 2.332649 1_565
S17 Zn17 2.332652 1_555
S17 Zn17 2.332652 1_665
