# generated using pymatgen
data_NdGeBO5
_symmetry_space_group_name_H-M   'P 1'
_cell_length_a   7.68111000
_cell_length_b   5.01000500
_cell_length_c   10.14340642
_cell_angle_alpha   88.05925343
_cell_angle_beta   90.00000000
_cell_angle_gamma   90.00000000
_symmetry_Int_Tables_number   1
_chemical_formula_structural   NdGeBO5
_chemical_formula_sum   'Nd4 Ge4 B4 O20'
_cell_volume   390.11871144
_cell_formula_units_Z   4
loop_
 _symmetry_equiv_pos_site_id
 _symmetry_equiv_pos_as_xyz
  1  'x, y, z'
loop_
 _atom_site_type_symbol
 _atom_site_label
 _atom_site_symmetry_multiplicity
 _atom_site_fract_x
 _atom_site_fract_y
 _atom_site_fract_z
 _atom_site_occupancy
  Nd  Nd0  1  0.10801400  0.00673700  0.32065800  1
  Nd  Nd1  1  0.60801400  0.99326300  0.17934200  1
  Nd  Nd2  1  0.89198600  0.99326300  0.67934200  1
  Nd  Nd3  1  0.39198600  0.00673700  0.82065800  1
  Ge  Ge0  1  0.76548900  0.47114000  0.42415000  1
  Ge  Ge1  1  0.26548900  0.52886000  0.07585000  1
  Ge  Ge2  1  0.23451100  0.52886000  0.57585000  1
  Ge  Ge3  1  0.73451100  0.47114000  0.92415000  1
  B  B0  1  0.09617400  0.45503400  0.83071900  1
  B  B1  1  0.59617400  0.54496600  0.66928100  1
  B  B2  1  0.90382600  0.54496600  0.16928100  1
  B  B3  1  0.40382600  0.45503400  0.33071900  1
  O  O0  1  0.10318400  0.73379900  0.81049000  1
  O  O1  1  0.60318400  0.26620100  0.68951000  1
  O  O2  1  0.89681600  0.26620100  0.18951000  1
  O  O3  1  0.39681600  0.73379900  0.31049000  1
  O  O4  1  0.21435400  0.33885200  0.93597400  1
  O  O5  1  0.71435400  0.66114800  0.56402600  1
  O  O6  1  0.78564600  0.66114800  0.06402600  1
  O  O7  1  0.28564600  0.33885200  0.43597400  1
  O  O8  1  0.16002700  0.29750300  0.70437500  1
  O  O9  1  0.66002700  0.70249700  0.79562500  1
  O  O10  1  0.83997300  0.70249700  0.29562500  1
  O  O11  1  0.33997300  0.29750300  0.20437500  1
  O  O12  1  0.08904600  0.77782300  0.52759200  1
  O  O13  1  0.58904600  0.22217700  0.97240800  1
  O  O14  1  0.91095400  0.22217700  0.47240800  1
  O  O15  1  0.41095400  0.77782300  0.02759200  1
  O  O16  1  0.07895800  0.67112700  0.15004400  1
  O  O17  1  0.57895800  0.32887300  0.34995600  1
  O  O18  1  0.92104200  0.32887300  0.84995600  1
  O  O19  1  0.42104200  0.67112700  0.65004400  1
loop_
_geom_bond_atom_site_label_1
_geom_bond_atom_site_label_2
_geom_bond_distance
_geom_bond_site_symmetry_2
Nd0 O12 2.362061 1_545
Nd0 O14 2.436795 1_455
Nd0 O2 2.444170 1_455
Nd0 O16 2.463541 1_545
Nd0 O7 2.475922 1_555
Nd0 O11 2.563476 1_555
Nd0 O10 2.579318 1_445
Nd0 O3 2.609784 1_545
Nd1 O13 2.362061 1_564
Nd1 O15 2.436795 1_555
Nd1 O3 2.444170 1_555
Nd1 O17 2.463541 1_565
Nd1 O6 2.475922 1_555
Nd1 O10 2.563476 1_555
Nd1 O11 2.579318 1_565
Nd1 O2 2.609784 1_565
Nd2 O14 2.362061 1_565
Nd2 O12 2.436795 1_655
Nd2 O0 2.444170 1_655
Nd2 O18 2.463541 1_565
Nd2 O5 2.475922 1_555
Nd2 O9 2.563476 1_555
Nd2 O8 2.579318 1_665
Nd2 O1 2.609784 1_565
Nd3 O15 2.362061 1_546
Nd3 O13 2.436795 1_555
Nd3 O1 2.444170 1_555
Nd3 O19 2.463541 1_545
Nd3 O4 2.475922 1_555
Nd3 O8 2.563476 1_555
Nd3 O9 2.579318 1_545
Nd3 O0 2.609784 1_545
Ge0 O14 1.732761 1_555
Ge0 O17 1.778637 1_555
Ge0 O5 1.779042 1_555
Ge0 O10 1.807780 1_555
Ge1 O15 1.732761 1_555
Ge1 O16 1.778637 1_555
Ge1 O4 1.779042 1_554
Ge1 O11 1.807780 1_555
Ge2 O12 1.732761 1_555
Ge2 O19 1.778637 1_555
Ge2 O7 1.779042 1_555
Ge2 O8 1.807780 1_555
Ge3 O13 1.732761 1_555
Ge3 O18 1.778637 1_555
Ge3 O6 1.779042 1_556
Ge3 O9 1.807780 1_555
B0 O0 1.405747 1_555
B0 O18 1.496267 1_455
B0 O4 1.503528 1_555
B0 O8 1.604474 1_555
B1 O1 1.405747 1_555
B1 O19 1.496267 1_555
B1 O5 1.503528 1_555
B1 O9 1.604474 1_555
B2 O2 1.405747 1_555
B2 O16 1.496267 1_655
B2 O6 1.503528 1_555
B2 O10 1.604474 1_555
B3 O3 1.405747 1_555
B3 O17 1.496267 1_555
B3 O7 1.503528 1_555
B3 O11 1.604474 1_555
