# generated using pymatgen
data_LaCN2Cl
_symmetry_space_group_name_H-M   'P 1'
_cell_length_a   4.03845900
_cell_length_b   5.36357200
_cell_length_c   7.62975226
_cell_angle_alpha   79.65845808
_cell_angle_beta   90.00000000
_cell_angle_gamma   90.00000000
_symmetry_Int_Tables_number   1
_chemical_formula_structural   LaCN2Cl
_chemical_formula_sum   'La2 C2 N4 Cl2'
_cell_volume   162.58004668
_cell_formula_units_Z   2
loop_
 _symmetry_equiv_pos_site_id
 _symmetry_equiv_pos_as_xyz
  1  'x, y, z'
loop_
 _atom_site_type_symbol
 _atom_site_label
 _atom_site_symmetry_multiplicity
 _atom_site_fract_x
 _atom_site_fract_y
 _atom_site_fract_z
 _atom_site_occupancy
  La  La0  1  0.75000000  0.82277200  0.73591800  1
  La  La1  1  0.25000000  0.17722800  0.26408200  1
  C  C0  1  0.75000000  0.65308400  0.35824900  1
  C  C1  1  0.25000000  0.34691600  0.64175100  1
  N  N0  1  0.25000000  0.56823800  0.66077100  1
  N  N1  1  0.25000000  0.12260900  0.61845100  1
  N  N2  1  0.75000000  0.87739100  0.38154900  1
  N  N3  1  0.75000000  0.43176200  0.33922900  1
  Cl  Cl0  1  0.75000000  0.25478300  0.95800700  1
  Cl  Cl1  1  0.25000000  0.74521700  0.04199300  1
loop_
_geom_bond_atom_site_label_1
_geom_bond_atom_site_label_2
_geom_bond_distance
_geom_bond_site_symmetry_2
La0 N0 2.559464 1_555
La0 N0 2.559464 1_655
La0 N1 2.636163 1_565
La0 N1 2.636163 1_665
La0 N2 2.666776 1_555
La1 N3 2.559464 1_555
La1 N3 2.559464 1_455
La1 N2 2.636163 1_445
La1 N2 2.636163 1_545
La1 N1 2.666776 1_555
C0 N3 1.221499 1_555
C0 N2 1.247321 1_555
C1 N0 1.221499 1_555
C1 N1 1.247321 1_555
Cl0 La1 3.058606 1_656
Cl0 La1 3.058606 1_556
Cl0 La0 3.106446 1_545
Cl0 La0 3.209168 1_555
Cl1 La0 3.058606 1_454
Cl1 La0 3.058606 1_554
Cl1 La1 3.106446 1_565
Cl1 La1 3.209168 1_555
