# generated using pymatgen
data_PrZn11
_symmetry_space_group_name_H-M   'P 1'
_cell_length_a   6.76217886
_cell_length_b   8.16795081
_cell_length_c   8.16795009
_cell_angle_alpha   80.13362056
_cell_angle_beta   65.54706469
_cell_angle_gamma   65.54705883
_symmetry_Int_Tables_number   1
_chemical_formula_structural   PrZn11
_chemical_formula_sum   'Pr2 Zn22'
_cell_volume   373.83799716
_cell_formula_units_Z   2
loop_
 _symmetry_equiv_pos_site_id
 _symmetry_equiv_pos_as_xyz
  1  'x, y, z'
loop_
 _atom_site_type_symbol
 _atom_site_label
 _atom_site_symmetry_multiplicity
 _atom_site_fract_x
 _atom_site_fract_y
 _atom_site_fract_z
 _atom_site_occupancy
  Pr  Pr0  1  0.37500000  0.25000000  0.75000000  1
  Pr  Pr1  1  0.62500000  0.75000000  0.25000000  1
  Zn  Zn0  1  0.72290417  0.83319514  0.57784996  1
  Zn  Zn1  1  -0.00000000  0.00000000  -0.00000000  1
  Zn  Zn2  1  0.19924387  0.07784996  0.16680486  1
  Zn  Zn3  1  0.13395026  0.42215004  0.16680486  1
  Zn  Zn4  1  0.19924387  0.66680486  0.57784996  1
  Zn  Zn5  1  0.86604974  0.57784996  0.83319514  1
  Zn  Zn6  1  0.13395026  0.66680486  0.92215004  1
  Zn  Zn7  1  0.12500000  0.75000000  0.25000000  1
  Zn  Zn8  1  0.86604974  0.33319514  0.07784996  1
  Zn  Zn9  1  0.87500000  0.25000000  0.75000000  1
  Zn  Zn10  1  0.55609930  0.57784996  0.66680486  1
  Zn  Zn11  1  0.50000000  0.50000000  -0.00000000  1
  Zn  Zn12  1  0.27709583  0.16680486  0.42215004  1
  Zn  Zn13  1  0.80075613  0.33319514  0.42215004  1
  Zn  Zn14  1  0.72290417  0.07784996  0.33319514  1
  Zn  Zn15  1  0.44390070  0.42215004  0.33319514  1
  Zn  Zn16  1  0.55609930  0.16680486  0.07784996  1
  Zn  Zn17  1  0.27709583  0.92215004  0.66680486  1
  Zn  Zn18  1  0.80075613  0.92215004  0.83319514  1
  Zn  Zn19  1  0.44390070  0.83319514  0.92215004  1
  Zn  Zn20  1  -0.00000000  0.00000000  0.50000000  1
  Zn  Zn21  1  -0.00000000  0.50000000  0.50000000  1
loop_
_geom_bond_atom_site_label_1
_geom_bond_atom_site_label_2
_geom_bond_distance
_geom_bond_site_symmetry_2
Pr0 Zn12 3.245739 1_555
Pr0 Zn16 3.245740 1_556
Pr0 Zn17 3.245740 1_545
Pr0 Zn10 3.245740 1_555
Pr0 Zn5 3.245745 1_455
Pr0 Zn8 3.245745 1_456
Pr0 Zn18 3.245749 1_545
Pr0 Zn13 3.245749 1_555
Pr0 Zn15 3.372405 1_555
Pr0 Zn19 3.372405 1_545
Pr0 Zn14 3.372405 1_555
Pr0 Zn0 3.372405 1_545
Pr0 Zn3 3.372406 1_556
Pr0 Zn6 3.372406 1_555
Pr0 Zn2 3.372407 1_556
Pr0 Zn4 3.372407 1_555
Pr0 Zn9 3.381089 1_555
Pr0 Zn9 3.381089 1_455
Pr1 Zn0 3.245739 1_555
Pr1 Zn19 3.245740 1_554
Pr1 Zn14 3.245740 1_565
Pr1 Zn15 3.245740 1_555
Pr1 Zn3 3.245745 1_655
Pr1 Zn6 3.245745 1_654
Pr1 Zn2 3.245749 1_565
Pr1 Zn4 3.245749 1_555
Pr1 Zn10 3.372405 1_555
Pr1 Zn16 3.372405 1_565
Pr1 Zn17 3.372405 1_555
Pr1 Zn12 3.372405 1_565
Pr1 Zn5 3.372406 1_554
Pr1 Zn8 3.372406 1_555
Pr1 Zn18 3.372407 1_554
Pr1 Zn13 3.372407 1_555
Pr1 Zn7 3.381089 1_555
Pr1 Zn7 3.381089 1_655
Zn0 Zn20 2.569409 1_665
Zn0 Zn14 2.572570 1_565
Zn0 Zn17 2.588050 1_555
Zn0 Zn21 2.589756 1_655
Zn0 Zn10 2.626777 1_555
Zn0 Zn18 2.626785 1_555
Zn0 Zn19 2.659993 1_555
Zn0 Zn7 2.844606 1_655
Zn0 Zn5 2.854136 1_555
Zn0 Zn4 2.932280 1_655
Zn1 Zn2 2.569398 1_555
Zn1 Zn18 2.569398 1_444
Zn1 Zn19 2.569410 1_544
Zn1 Zn16 2.569410 1_455
Zn1 Zn6 2.589755 1_544
Zn1 Zn8 2.589755 1_455
Zn1 Zn17 2.589756 1_544
Zn1 Zn14 2.589756 1_455
Zn1 Zn7 2.761330 1_545
Zn1 Zn9 2.761330 1_454
Zn2 Zn20 2.589754 1_555
Zn2 Zn8 2.626773 1_455
Zn2 Zn3 2.659998 1_555
Zn2 Zn7 2.844599 1_545
Zn3 Zn6 2.572570 1_554
Zn3 Zn8 2.588062 1_455
Zn3 Zn7 2.844602 1_555
Zn4 Zn5 2.626773 1_455
Zn4 Zn6 2.659998 1_555
Zn4 Zn7 2.844599 1_555
Zn5 Zn8 2.572570 1_556
Zn5 Zn6 2.588062 1_655
Zn5 Zn9 2.844602 1_555
Zn6 Zn7 2.844602 1_556
Zn8 Zn9 2.844602 1_554
Zn10 Zn21 2.569410 1_655
Zn10 Zn13 2.572570 1_555
Zn10 Zn4 2.588062 1_555
Zn10 Zn11 2.589756 1_556
Zn10 Zn6 2.626773 1_555
Zn10 Zn17 2.659993 1_555
Zn10 Zn9 2.844606 1_555
Zn10 Zn19 2.854139 1_555
Zn10 Zn5 2.932286 1_555
Zn11 Zn6 2.569404 1_554
Zn11 Zn8 2.569404 1_555
Zn11 Zn3 2.569404 1_555
Zn11 Zn5 2.569404 1_554
Zn11 Zn15 2.589756 1_555
Zn11 Zn19 2.589756 1_554
Zn11 Zn16 2.589756 1_555
Zn11 Zn7 2.761330 1_555
Zn11 Zn9 2.761330 1_554
Zn12 Zn20 2.569409 1_555
Zn12 Zn17 2.572570 1_545
Zn12 Zn14 2.588050 1_555
Zn12 Zn21 2.589756 1_555
Zn12 Zn15 2.626777 1_555
Zn12 Zn2 2.626785 1_555
Zn12 Zn16 2.659993 1_555
Zn12 Zn9 2.844606 1_455
Zn12 Zn3 2.854136 1_555
Zn12 Zn13 2.932280 1_455
Zn13 Zn21 2.569398 1_655
Zn13 Zn15 2.588062 1_555
Zn13 Zn20 2.589754 1_655
Zn13 Zn3 2.626773 1_655
Zn13 Zn14 2.626786 1_555
Zn13 Zn8 2.659998 1_555
Zn13 Zn9 2.844599 1_555
Zn13 Zn2 2.854130 1_655
Zn14 Zn20 2.569409 1_655
Zn14 Zn16 2.626777 1_555
Zn14 Zn15 2.659993 1_555
Zn14 Zn7 2.844606 1_645
Zn14 Zn8 2.854137 1_555
Zn14 Zn2 2.932280 1_655
Zn15 Zn21 2.569410 1_555
Zn15 Zn4 2.572570 1_555
Zn15 Zn8 2.626773 1_555
Zn15 Zn7 2.844606 1_555
Zn15 Zn16 2.854139 1_555
Zn15 Zn3 2.932286 1_555
Zn16 Zn18 2.572570 1_544
Zn16 Zn2 2.588062 1_555
Zn16 Zn3 2.626773 1_555
Zn16 Zn9 2.844606 1_554
Zn16 Zn8 2.932286 1_555
Zn17 Zn20 2.569409 1_565
Zn17 Zn19 2.626777 1_555
Zn17 Zn4 2.626786 1_555
Zn17 Zn9 2.844606 1_465
Zn17 Zn6 2.854137 1_555
Zn17 Zn18 2.932280 1_455
Zn18 Zn19 2.588062 1_555
Zn18 Zn20 2.589754 1_665
Zn18 Zn6 2.626773 1_655
Zn18 Zn5 2.659998 1_555
Zn18 Zn9 2.844599 1_565
Zn18 Zn4 2.854130 1_655
Zn19 Zn2 2.572570 1_566
Zn19 Zn5 2.626773 1_555
Zn19 Zn7 2.844606 1_556
Zn19 Zn6 2.932286 1_555
Zn20 Zn4 2.589754 1_545
Zn20 Zn7 2.761330 1_545
Zn20 Zn9 2.761330 1_455
Zn21 Zn4 2.569398 1_555
Zn21 Zn5 2.589755 1_455
Zn21 Zn3 2.589755 1_555
Zn21 Zn7 2.761330 1_555
Zn21 Zn9 2.761330 1_455
