# generated using pymatgen
data_Ga2BiS4
_symmetry_space_group_name_H-M   'P 1'
_cell_length_a   7.58287285
_cell_length_b   7.58287285
_cell_length_c   12.11930352
_cell_angle_alpha   90.00000000
_cell_angle_beta   90.00000000
_cell_angle_gamma   90.00000000
_symmetry_Int_Tables_number   1
_chemical_formula_structural   Ga2BiS4
_chemical_formula_sum   'Ga8 Bi4 S16'
_cell_volume   696.85947562
_cell_formula_units_Z   4
loop_
 _symmetry_equiv_pos_site_id
 _symmetry_equiv_pos_as_xyz
  1  'x, y, z'
loop_
 _atom_site_type_symbol
 _atom_site_label
 _atom_site_symmetry_multiplicity
 _atom_site_fract_x
 _atom_site_fract_y
 _atom_site_fract_z
 _atom_site_occupancy
  Ga  Ga0  1  0.00000000  0.50000000  0.25000000  1
  Ga  Ga1  1  0.00000000  0.50000000  0.00000000  1
  Ga  Ga2  1  0.00000000  0.50000000  0.75000000  1
  Ga  Ga3  1  0.50000000  -0.00000000  0.50000000  1
  Ga  Ga4  1  0.50000000  -0.00000000  0.00000000  1
  Ga  Ga5  1  0.50000000  -0.00000000  0.75000000  1
  Ga  Ga6  1  0.00000000  0.50000000  0.50000000  1
  Ga  Ga7  1  0.50000000  -0.00000000  0.25000000  1
  Bi  Bi0  1  0.00000000  -0.00000000  0.13010074  1
  Bi  Bi1  1  0.50000000  0.50000000  0.36989926  1
  Bi  Bi2  1  0.50000000  0.50000000  0.63010074  1
  Bi  Bi3  1  0.00000000  -0.00000000  0.86989926  1
  S  S0  1  0.66022297  0.16081545  0.62476427  1
  S  S1  1  0.33977703  0.16081545  0.37523573  1
  S  S2  1  0.66022297  0.83918455  0.37523573  1
  S  S3  1  0.83977703  0.33918455  0.87523573  1
  S  S4  1  0.83918455  0.66022297  0.62476427  1
  S  S5  1  0.66081545  0.83977703  0.87523573  1
  S  S6  1  0.83918455  0.33977703  0.37523573  1
  S  S7  1  0.83977703  0.66081545  0.12476427  1
  S  S8  1  0.16081545  0.66022297  0.37523573  1
  S  S9  1  0.16022297  0.33918455  0.12476427  1
  S  S10  1  0.16081545  0.33977703  0.62476427  1
  S  S11  1  0.33918455  0.83977703  0.12476427  1
  S  S12  1  0.33977703  0.83918455  0.62476427  1
  S  S13  1  0.16022297  0.66081545  0.87523573  1
  S  S14  1  0.33918455  0.16022297  0.87523573  1
  S  S15  1  0.66081545  0.16022297  0.12476427  1
loop_
_geom_bond_atom_site_label_1
_geom_bond_atom_site_label_2
_geom_bond_distance
_geom_bond_site_symmetry_2
Ga0 S9 2.294945 1_555
Ga0 S8 2.294945 1_555
Ga0 S6 2.294945 1_455
Ga0 S7 2.294945 1_455
Ga1 S9 2.291170 1_555
Ga1 S3 2.291170 1_454
Ga1 S13 2.291170 1_554
Ga1 S7 2.291170 1_455
Ga2 S10 2.294945 1_555
Ga2 S4 2.294945 1_455
Ga2 S3 2.294945 1_455
Ga2 S13 2.294945 1_555
Ga3 S12 2.291170 1_545
Ga3 S0 2.291170 1_555
Ga3 S2 2.291170 1_545
Ga3 S1 2.291170 1_555
Ga4 S5 2.291170 1_544
Ga4 S11 2.291170 1_545
Ga4 S14 2.291170 1_554
Ga4 S15 2.291170 1_555
Ga5 S12 2.294945 1_545
Ga5 S0 2.294945 1_555
Ga5 S14 2.294945 1_555
Ga5 S5 2.294945 1_545
Ga6 S4 2.291170 1_455
Ga6 S8 2.291170 1_555
Ga6 S6 2.291170 1_455
Ga6 S10 2.291170 1_555
Ga7 S1 2.294945 1_555
Ga7 S11 2.294945 1_545
Ga7 S2 2.294945 1_545
Ga7 S15 2.294945 1_555
Bi0 S7 2.845248 1_445
Bi0 S11 2.845248 1_545
Bi0 S9 2.845248 1_555
Bi0 S15 2.845248 1_455
Bi1 S8 2.845248 1_555
Bi1 S2 2.845248 1_555
Bi1 S1 2.845248 1_555
Bi1 S6 2.845248 1_555
Bi2 S4 2.845248 1_555
Bi2 S0 2.845248 1_555
Bi2 S12 2.845248 1_555
Bi2 S10 2.845248 1_555
Bi3 S3 2.845248 1_455
Bi3 S14 2.845248 1_555
Bi3 S13 2.845248 1_545
Bi3 S5 2.845248 1_445
