# generated using pymatgen
data_Sb2SNF11
_symmetry_space_group_name_H-M   'P 1'
_cell_length_a   12.05195500
_cell_length_b   8.30907300
_cell_length_c   10.47766784
_cell_angle_alpha   87.41186388
_cell_angle_beta   90.00000000
_cell_angle_gamma   90.00000000
_symmetry_Int_Tables_number   1
_chemical_formula_structural   Sb2SNF11
_chemical_formula_sum   'Sb8 S4 N4 F44'
_cell_volume   1048.16938407
_cell_formula_units_Z   4
loop_
 _symmetry_equiv_pos_site_id
 _symmetry_equiv_pos_as_xyz
  1  'x, y, z'
loop_
 _atom_site_type_symbol
 _atom_site_label
 _atom_site_symmetry_multiplicity
 _atom_site_fract_x
 _atom_site_fract_y
 _atom_site_fract_z
 _atom_site_occupancy
  Sb  Sb0  1  0.22230800  0.82216500  0.95820400  1
  Sb  Sb1  1  0.27769200  0.82216500  0.45820400  1
  Sb  Sb2  1  0.77769200  0.17783500  0.04179600  1
  Sb  Sb3  1  0.55045900  0.68118600  0.27352900  1
  Sb  Sb4  1  0.44954100  0.31881400  0.72647100  1
  Sb  Sb5  1  0.94954100  0.68118600  0.77352900  1
  Sb  Sb6  1  0.05045900  0.31881400  0.22647100  1
  Sb  Sb7  1  0.72230800  0.17783500  0.54179600  1
  S  S0  1  0.45209700  0.20775700  0.23874600  1
  S  S1  1  0.95209700  0.79224300  0.26125400  1
  S  S2  1  0.04790300  0.20775700  0.73874600  1
  S  S3  1  0.54790300  0.79224300  0.76125400  1
  N  N0  1  0.39342600  0.24884600  0.12308300  1
  N  N1  1  0.89342600  0.75115400  0.37691700  1
  N  N2  1  0.60657400  0.75115400  0.87691700  1
  N  N3  1  0.10657400  0.24884600  0.62308300  1
  F  F0  1  0.17490400  0.92807800  0.56209100  1
  F  F1  1  0.11138800  0.71192200  0.83839100  1
  F  F2  1  0.90201900  0.13162200  0.93753400  1
  F  F3  1  0.33147300  0.76996400  0.83403500  1
  F  F4  1  0.09798100  0.86837800  0.06246600  1
  F  F5  1  0.23909500  0.61661400  0.04008900  1
  F  F6  1  0.01678100  0.63200600  0.61665200  1
  F  F7  1  0.90276700  0.72790900  0.94029700  1
  F  F8  1  0.68821800  0.98594000  0.64339400  1
  F  F9  1  0.66852700  0.23003600  0.16596500  1
  F  F10  1  0.88861200  0.28807800  0.16160900  1
  F  F11  1  0.83147300  0.23003600  0.66596500  1
  F  F12  1  0.45457600  0.09377600  0.77411200  1
  F  F13  1  0.97470400  0.46000300  0.83062900  1
  F  F14  1  0.51678100  0.36799400  0.88334800  1
  F  F15  1  0.81178200  0.98594000  0.14339400  1
  F  F16  1  0.47470400  0.53999700  0.66937100  1
  F  F17  1  0.69655400  0.64853100  0.21410800  1
  F  F18  1  0.40201900  0.86837800  0.56246600  1
  F  F19  1  0.31178200  0.01406000  0.35660600  1
  F  F20  1  0.54542400  0.90622400  0.22588800  1
  F  F21  1  0.30344600  0.35146900  0.78589200  1
  F  F22  1  0.19655400  0.35146900  0.28589200  1
  F  F23  1  0.52529600  0.46000300  0.33062900  1
  F  F24  1  0.67490400  0.07192200  0.93790900  1
  F  F25  1  0.61138800  0.28807800  0.66160900  1
  F  F26  1  0.04542400  0.09377600  0.27411200  1
  F  F27  1  0.59723300  0.72790900  0.44029700  1
  F  F28  1  0.32509600  0.92807800  0.06209100  1
  F  F29  1  0.16852700  0.76996400  0.33403500  1
  F  F30  1  0.02529600  0.53999700  0.16937100  1
  F  F31  1  0.38861200  0.71192200  0.33839100  1
  F  F32  1  0.40276700  0.27209100  0.55970300  1
  F  F33  1  0.09723300  0.27209100  0.05970300  1
  F  F34  1  0.18821800  0.01406000  0.85660600  1
  F  F35  1  0.98321900  0.36799400  0.38334800  1
  F  F36  1  0.80344600  0.64853100  0.71410800  1
  F  F37  1  0.73909500  0.38338600  0.45991100  1
  F  F38  1  0.26090500  0.61661400  0.54008900  1
  F  F39  1  0.82509600  0.07192200  0.43790900  1
  F  F40  1  0.48321900  0.63200600  0.11665200  1
  F  F41  1  0.59798100  0.13162200  0.43753400  1
  F  F42  1  0.76090500  0.38338600  0.95991100  1
  F  F43  1  0.95457600  0.90622400  0.72588800  1
loop_
_geom_bond_atom_site_label_1
_geom_bond_atom_site_label_2
_geom_bond_distance
_geom_bond_site_symmetry_2
N0 S0 1.431026 1_555
N1 S1 1.431026 1_555
N2 S3 1.431026 1_555
N3 S2 1.431026 1_555
F0 Sb1 1.892198 1_555
F1 Sb0 2.075069 1_555
F1 Sb5 2.085064 1_455
F2 Sb2 1.903647 1_556
F3 Sb0 1.913802 1_555
F4 Sb0 1.903647 1_554
F5 Sb0 1.887259 1_554
F6 Sb5 1.893705 1_455
F7 Sb5 1.892870 1_555
F8 Sb7 1.921204 1_565
F9 Sb2 1.913802 1_555
F10 Sb2 2.075069 1_555
F10 Sb6 2.085064 1_655
F11 Sb7 1.913802 1_555
F12 Sb4 1.914398 1_555
F13 Sb5 1.930856 1_555
F14 Sb4 1.893705 1_555
F15 Sb2 1.921204 1_565
F16 Sb4 1.930856 1_555
F17 Sb3 1.891209 1_555
F18 Sb1 1.903647 1_555
F19 Sb1 1.921204 1_545
F20 Sb3 1.914398 1_555
F21 Sb4 1.891209 1_555
F22 Sb6 1.891209 1_555
F23 Sb3 1.930856 1_555
F24 Sb2 1.892198 1_556
F25 Sb7 2.075069 1_555
F25 Sb4 2.085064 1_555
F26 Sb6 1.914398 1_555
F27 Sb3 1.892870 1_555
F28 Sb0 1.892198 1_554
F29 Sb1 1.913802 1_555
F30 Sb6 1.930856 1_555
F31 Sb1 2.075069 1_555
F31 Sb3 2.085064 1_555
F32 Sb4 1.892870 1_555
F33 Sb6 1.892870 1_555
F34 Sb0 1.921204 1_545
F35 Sb6 1.893705 1_655
F36 Sb5 1.891209 1_555
F37 Sb7 1.887259 1_555
F38 Sb1 1.887259 1_555
F39 Sb7 1.892198 1_555
F40 Sb3 1.893705 1_555
F41 Sb7 1.903647 1_555
F42 Sb2 1.887259 1_556
F43 Sb5 1.914398 1_555
