# generated using pymatgen
data_BaNpPH2O7
_symmetry_space_group_name_H-M   'P 1'
_cell_length_a   7.11851500
_cell_length_b   6.97876700
_cell_length_c   13.31347900
_cell_angle_alpha   77.76524565
_cell_angle_beta   90.00000000
_cell_angle_gamma   90.00000000
_symmetry_Int_Tables_number   1
_chemical_formula_structural   BaNpPH2O7
_chemical_formula_sum   'Ba4 Np4 P4 H8 O28'
_cell_volume   646.37123027
_cell_formula_units_Z   4
loop_
 _symmetry_equiv_pos_site_id
 _symmetry_equiv_pos_as_xyz
  1  'x, y, z'
loop_
 _atom_site_type_symbol
 _atom_site_label
 _atom_site_symmetry_multiplicity
 _atom_site_fract_x
 _atom_site_fract_y
 _atom_site_fract_z
 _atom_site_occupancy
  Ba  Ba0  1  0.44777600  0.07067300  0.14700000  1
  Ba  Ba1  1  0.94777600  0.92932700  0.35300000  1
  Ba  Ba2  1  0.55222400  0.92932700  0.85300000  1
  Ba  Ba3  1  0.05222400  0.07067300  0.64700000  1
  Np  Np0  1  0.76932200  0.52563200  0.17858900  1
  Np  Np1  1  0.26932200  0.47436800  0.32141100  1
  Np  Np2  1  0.23067800  0.47436800  0.82141100  1
  Np  Np3  1  0.73067800  0.52563200  0.67858900  1
  P  P0  1  0.78350600  0.41755900  0.42261500  1
  P  P1  1  0.28350600  0.58244100  0.07738500  1
  P  P2  1  0.21649400  0.58244100  0.57738500  1
  P  P3  1  0.71649400  0.41755900  0.92261500  1
  H  H0  1  0.96212800  0.15415400  0.12457700  1
  H  H1  1  0.46212800  0.84584600  0.37542300  1
  H  H2  1  0.03787200  0.84584600  0.87542300  1
  H  H3  1  0.53787200  0.15415400  0.62457700  1
  H  H4  1  0.06646600  0.10677600  0.02971600  1
  H  H5  1  0.56646600  0.89322400  0.47028400  1
  H  H6  1  0.93353400  0.89322400  0.97028400  1
  H  H7  1  0.43353400  0.10677600  0.52971600  1
  O  O0  1  0.10422000  0.56903000  0.14660700  1
  O  O1  1  0.60422000  0.43097000  0.35339300  1
  O  O2  1  0.89578000  0.43097000  0.85339300  1
  O  O3  1  0.39578000  0.56903000  0.64660700  1
  O  O4  1  0.43550300  0.47673600  0.15891100  1
  O  O5  1  0.93550300  0.52326400  0.34108900  1
  O  O6  1  0.56449700  0.52326400  0.84108900  1
  O  O7  1  0.06449700  0.47673600  0.65891100  1
  O  O8  1  0.34453500  0.79235000  0.03100700  1
  O  O9  1  0.84453500  0.20765000  0.46899300  1
  O  O10  1  0.65546500  0.20765000  0.96899300  1
  O  O11  1  0.15546500  0.79235000  0.53100700  1
  O  O12  1  0.70406300  0.24908200  0.69553700  1
  O  O13  1  0.20406300  0.75091800  0.80446300  1
  O  O14  1  0.29593700  0.75091800  0.30446300  1
  O  O15  1  0.79593700  0.24908200  0.19553700  1
  O  O16  1  0.73970900  0.54769900  0.00236200  1
  O  O17  1  0.23970900  0.45230100  0.49763800  1
  O  O18  1  0.26029100  0.45230100  0.99763800  1
  O  O19  1  0.76029100  0.54769900  0.50236200  1
  O  O20  1  0.73226000  0.79422200  0.17183300  1
  O  O21  1  0.23226000  0.20577800  0.32816700  1
  O  O22  1  0.26774000  0.20577800  0.82816700  1
  O  O23  1  0.76774000  0.79422200  0.67183300  1
  O  O24  1  0.06666000  0.07523900  0.10464200  1
  O  O25  1  0.56666000  0.92476100  0.39535800  1
  O  O26  1  0.93334000  0.92476100  0.89535800  1
  O  O27  1  0.43334000  0.07523900  0.60464200  1
loop_
_geom_bond_atom_site_label_1
_geom_bond_atom_site_label_2
_geom_bond_distance
_geom_bond_site_symmetry_2
Ba0 O20 2.768060 1_545
Ba0 O24 2.769780 1_555
Ba0 O10 2.784922 1_554
Ba0 O8 2.822926 1_545
Ba0 O4 2.872938 1_555
Ba0 O15 2.907094 1_555
Ba0 O14 2.925736 1_545
Ba0 O21 3.166080 1_555
Ba1 O21 2.768060 1_665
Ba1 O25 2.769780 1_555
Ba1 O11 2.784922 1_655
Ba1 O9 2.822926 1_565
Ba1 O5 2.872938 1_555
Ba1 O14 2.907094 1_655
Ba1 O15 2.925736 1_565
Ba1 O20 3.166080 1_555
Ba2 O22 2.768060 1_565
Ba2 O26 2.769780 1_555
Ba2 O8 2.784922 1_556
Ba2 O10 2.822926 1_565
Ba2 O6 2.872938 1_555
Ba2 O13 2.907094 1_555
Ba2 O12 2.925736 1_565
Ba2 O23 3.166080 1_555
Ba3 O23 2.768060 1_445
Ba3 O27 2.769780 1_555
Ba3 O9 2.784922 1_455
Ba3 O11 2.822926 1_545
Ba3 O7 2.872938 1_555
Ba3 O12 2.907094 1_455
Ba3 O13 2.925736 1_545
Ba3 O22 3.166080 1_555
Np0 O20 1.876090 1_555
Np0 O15 1.904482 1_555
Np0 O16 2.328013 1_555
Np0 O4 2.422756 1_555
Np0 O0 2.429344 1_655
Np0 O5 2.462721 1_555
Np0 O1 2.565576 1_555
Np1 O21 1.876090 1_555
Np1 O14 1.904482 1_555
Np1 O17 2.328013 1_555
Np1 O5 2.422756 1_455
Np1 O1 2.429344 1_555
Np1 O4 2.462721 1_555
Np1 O0 2.565576 1_555
Np2 O22 1.876090 1_555
Np2 O13 1.904482 1_555
Np2 O18 2.328013 1_555
Np2 O6 2.422756 1_555
Np2 O2 2.429344 1_455
Np2 O7 2.462721 1_555
Np2 O3 2.565576 1_555
Np3 O23 1.876090 1_555
Np3 O12 1.904482 1_555
Np3 O19 2.328013 1_555
Np3 O7 2.422756 1_655
Np3 O3 2.429344 1_555
Np3 O6 2.462721 1_555
Np3 O2 2.565576 1_555
H0 O24 0.994684 1_655
H1 O25 0.994684 1_555
H2 O26 0.994684 1_455
H3 O27 0.994684 1_555
H4 O24 0.974909 1_555
H5 O25 0.974909 1_555
H6 O26 0.974909 1_555
H7 O27 0.974909 1_555
O0 P1 1.565355 1_555
O1 P0 1.565355 1_555
O2 P3 1.565355 1_555
O3 P2 1.565355 1_555
O4 P1 1.598005 1_555
O5 P0 1.598005 1_555
O6 P3 1.598005 1_555
O7 P2 1.598005 1_555
O8 P1 1.527275 1_555
O9 P0 1.527275 1_555
O10 P3 1.527275 1_555
O11 P2 1.527275 1_555
O16 P3 1.545343 1_554
O17 P2 1.545343 1_555
O18 P1 1.545343 1_556
O19 P0 1.545343 1_555
