# generated using pymatgen
data_Ba3Cr2MoO9
_symmetry_space_group_name_H-M   'P 1'
_cell_length_a   5.79718450
_cell_length_b   5.79719097
_cell_length_c   14.24342200
_cell_angle_alpha   90.00000000
_cell_angle_beta   90.00000000
_cell_angle_gamma   119.99976874
_symmetry_Int_Tables_number   1
_chemical_formula_structural   Ba3Cr2MoO9
_chemical_formula_sum   'Ba6 Cr4 Mo2 O18'
_cell_volume   414.55362290
_cell_formula_units_Z   2
loop_
 _symmetry_equiv_pos_site_id
 _symmetry_equiv_pos_as_xyz
  1  'x, y, z'
loop_
 _atom_site_type_symbol
 _atom_site_label
 _atom_site_symmetry_multiplicity
 _atom_site_fract_x
 _atom_site_fract_y
 _atom_site_fract_z
 _atom_site_occupancy
  Ba  Ba0  1  0.00000400  0.99999700  0.75000400  1
  Ba  Ba1  1  0.99999500  0.00000200  0.25000500  1
  Ba  Ba2  1  0.66667400  0.33332700  0.60219100  1
  Ba  Ba3  1  0.33332600  0.66667000  0.39782100  1
  Ba  Ba4  1  0.33333000  0.66667400  0.10219000  1
  Ba  Ba5  1  0.66667200  0.33333300  0.89781900  1
  Cr  Cr0  1  0.33333800  0.66666200  0.65935200  1
  Cr  Cr1  1  0.66666200  0.33333600  0.15935400  1
  Cr  Cr2  1  0.66666600  0.33333600  0.34062900  1
  Cr  Cr3  1  0.33333500  0.66667000  0.84063300  1
  Mo  Mo0  1  0.00000200  0.99999800  0.50000100  1
  Mo  Mo1  1  0.99999900  0.00000100  0.99999800  1
  O  O0  1  0.48464500  0.96927500  0.74999600  1
  O  O1  1  0.48464900  0.51535100  0.74999900  1
  O  O2  1  0.03072400  0.51535600  0.74999700  1
  O  O3  1  0.51535700  0.03072400  0.24999400  1
  O  O4  1  0.51535100  0.48464500  0.24999400  1
  O  O5  1  0.96927500  0.48464300  0.24999400  1
  O  O6  1  0.83955200  0.67910600  0.42172400  1
  O  O7  1  0.83955000  0.16045000  0.42172500  1
  O  O8  1  0.32089500  0.16045000  0.42172500  1
  O  O9  1  0.16044900  0.32089100  0.57828200  1
  O  O10  1  0.16044700  0.83955300  0.57828100  1
  O  O11  1  0.67910900  0.83955300  0.57828100  1
  O  O12  1  0.16044700  0.32089500  0.92172500  1
  O  O13  1  0.16044700  0.83955000  0.92172400  1
  O  O14  1  0.67910300  0.83955300  0.92172500  1
  O  O15  1  0.83955200  0.67910700  0.07828000  1
  O  O16  1  0.83955300  0.16044800  0.07828000  1
  O  O17  1  0.32089200  0.16044600  0.07828000  1
loop_
_geom_bond_atom_site_label_1
_geom_bond_atom_site_label_2
_geom_bond_distance
_geom_bond_site_symmetry_2
Ba0 O0 2.902682 1_455
Ba0 O2 2.902691 1_565
Ba0 O1 2.902699 1_565
Ba0 O2 2.902701 1_555
Ba0 O1 2.902704 1_455
Ba0 O0 2.902704 1_555
Ba0 O13 2.928779 1_555
Ba0 O10 2.928807 1_555
Ba0 O12 2.928817 1_565
Ba0 O9 2.928818 1_565
Ba0 O14 2.928824 1_455
Ba0 O11 2.928832 1_455
Ba1 O3 2.902687 1_555
Ba1 O5 2.902691 1_545
Ba1 O4 2.902699 1_655
Ba1 O3 2.902699 1_655
Ba1 O5 2.902701 1_555
Ba1 O4 2.902705 1_545
Ba1 O6 2.928788 1_545
Ba1 O7 2.928788 1_555
Ba1 O8 2.928810 1_655
Ba1 O16 2.928833 1_555
Ba1 O15 2.928856 1_545
Ba1 O17 2.928861 1_655
Ba2 O0 2.787953 1_545
Ba2 O2 2.787955 1_655
Ba2 O1 2.787970 1_555
Ba2 O11 2.919152 1_545
Ba2 O9 2.919156 1_655
Ba2 O10 2.919209 1_655
Ba2 O10 2.919214 1_545
Ba2 O9 2.919237 1_555
Ba2 O11 2.919250 1_555
Ba2 O7 3.101681 1_555
Ba2 O8 3.101757 1_555
Ba2 O6 3.101770 1_555
Ba3 O4 2.788178 1_555
Ba3 O5 2.788185 1_455
Ba3 O3 2.788196 1_565
Ba3 O6 2.919140 1_455
Ba3 O8 2.919164 1_565
Ba3 O7 2.919189 1_455
Ba3 O7 2.919212 1_565
Ba3 O8 2.919217 1_555
Ba3 O6 2.919233 1_555
Ba3 O10 3.101635 1_555
Ba3 O11 3.101697 1_555
Ba3 O9 3.101699 1_555
Ba4 O4 2.787930 1_555
Ba4 O3 2.787935 1_565
Ba4 O5 2.787950 1_455
Ba4 O17 2.919149 1_565
Ba4 O15 2.919166 1_455
Ba4 O16 2.919202 1_565
Ba4 O16 2.919220 1_455
Ba4 O15 2.919229 1_555
Ba4 O17 2.919253 1_555
Ba4 O13 3.101698 1_554
Ba4 O14 3.101728 1_554
Ba4 O12 3.101746 1_554
Ba5 O1 2.788073 1_555
Ba5 O2 2.788134 1_655
Ba5 O0 2.788166 1_545
Ba5 O12 2.919157 1_655
Ba5 O14 2.919168 1_545
Ba5 O13 2.919179 1_655
Ba5 O14 2.919220 1_555
Ba5 O13 2.919225 1_545
Ba5 O12 2.919226 1_555
Ba5 O16 3.101658 1_556
Ba5 O15 3.101685 1_556
Ba5 O17 3.101700 1_556
Cr0 O0 1.993763 1_555
Cr0 O2 1.993775 1_555
Cr0 O1 1.993820 1_555
Cr0 O9 2.084921 1_555
Cr0 O11 2.084927 1_555
Cr0 O10 2.084969 1_555
Cr1 O3 1.993722 1_555
Cr1 O5 1.993725 1_555
Cr1 O4 1.993748 1_555
Cr1 O17 2.084947 1_555
Cr1 O15 2.084953 1_555
Cr1 O16 2.084980 1_555
Cr2 O5 1.993663 1_555
Cr2 O3 1.993676 1_555
Cr2 O4 1.993717 1_555
Cr2 O6 2.085114 1_555
Cr2 O7 2.085116 1_555
Cr2 O8 2.085125 1_555
Cr3 O0 1.993668 1_555
Cr3 O2 1.993680 1_555
Cr3 O1 1.993743 1_555
Cr3 O13 2.085068 1_555
Cr3 O14 2.085080 1_555
Cr3 O12 2.085111 1_555
Mo0 O8 1.959215 1_565
Mo0 O6 1.959221 1_455
Mo0 O10 1.959231 1_555
Mo0 O11 1.959248 1_455
Mo0 O7 1.959257 1_465
Mo0 O9 1.959257 1_565
Mo1 O12 1.959197 1_655
Mo1 O14 1.959203 1_545
Mo1 O13 1.959220 1_645
Mo1 O16 1.959260 1_556
Mo1 O17 1.959264 1_656
Mo1 O15 1.959269 1_546
