# generated using pymatgen
data_Al6C3N2
_symmetry_space_group_name_H-M   'P 1'
_cell_length_a   13.63915494
_cell_length_b   13.63915494
_cell_length_c   13.63915545
_cell_angle_alpha   13.79483858
_cell_angle_beta   13.79483858
_cell_angle_gamma   13.79483796
_symmetry_Int_Tables_number   1
_chemical_formula_structural   Al6C3N2
_chemical_formula_sum   'Al6 C3 N2'
_cell_volume   125.53526966
_cell_formula_units_Z   1
loop_
 _symmetry_equiv_pos_site_id
 _symmetry_equiv_pos_as_xyz
  1  'x, y, z'
loop_
 _atom_site_type_symbol
 _atom_site_label
 _atom_site_symmetry_multiplicity
 _atom_site_fract_x
 _atom_site_fract_y
 _atom_site_fract_z
 _atom_site_occupancy
  Al  Al0  1  0.30836900  0.30836900  0.30836900  1
  Al  Al1  1  0.91241900  0.91241900  0.91241900  1
  Al  Al2  1  0.18911400  0.18911400  0.18911400  1
  Al  Al3  1  0.81088600  0.81088600  0.81088600  1
  Al  Al4  1  0.08758100  0.08758100  0.08758100  1
  Al  Al5  1  0.69163100  0.69163100  0.69163100  1
  C  C0  1  0.00000000  0.00000000  0.00000000  1
  C  C1  1  0.13457900  0.13457900  0.13457900  1
  C  C2  1  0.86542100  0.86542100  0.86542100  1
  N  N0  1  0.73608200  0.73608200  0.73608200  1
  N  N1  1  0.26391800  0.26391800  0.26391800  1
loop_
_geom_bond_atom_site_label_1
_geom_bond_atom_site_label_2
_geom_bond_distance
_geom_bond_site_symmetry_2
Al0 N1 1.801250 1_555
Al0 C0 2.144888 1_655
Al0 C0 2.144888 1_565
Al0 C0 2.144889 1_556
Al1 C2 1.904460 1_555
Al1 N1 2.029546 1_665
Al1 N1 2.029546 1_656
Al1 N1 2.029546 1_566
Al2 C2 1.931269 1_454
Al2 C2 1.931269 1_544
Al2 C2 1.931269 1_445
Al2 C1 2.209875 1_555
Al3 C1 1.931269 1_566
Al3 C1 1.931269 1_656
Al3 C1 1.931269 1_665
Al3 C2 2.209875 1_555
Al4 C1 1.904460 1_555
Al4 N0 2.029546 1_445
Al4 N0 2.029546 1_454
Al4 N0 2.029546 1_544
Al5 N0 1.801250 1_555
Al5 C0 2.144888 1_566
Al5 C0 2.144888 1_656
Al5 C0 2.144889 1_665
