# generated using pymatgen
data_Na2Zr(CuS2)2
_symmetry_space_group_name_H-M   'P 1'
_cell_length_a   7.12221657
_cell_length_b   7.12221657
_cell_length_c   7.08947700
_cell_angle_alpha   68.49669708
_cell_angle_beta   68.49669708
_cell_angle_gamma   30.44773440
_symmetry_Int_Tables_number   1
_chemical_formula_structural   Na2Zr(CuS2)2
_chemical_formula_sum   'Na2 Zr1 Cu2 S4'
_cell_volume   168.57668574
_cell_formula_units_Z   1
loop_
 _symmetry_equiv_pos_site_id
 _symmetry_equiv_pos_as_xyz
  1  'x, y, z'
loop_
 _atom_site_type_symbol
 _atom_site_label
 _atom_site_symmetry_multiplicity
 _atom_site_fract_x
 _atom_site_fract_y
 _atom_site_fract_z
 _atom_site_occupancy
  Na  Na0  1  0.86147500  0.86147500  0.55959400  1
  Na  Na1  1  0.13852500  0.13852500  0.44040600  1
  Zr  Zr0  1  0.00000000  0.00000000  0.00000000  1
  Cu  Cu0  1  0.32125100  0.32125100  0.98638100  1
  Cu  Cu1  1  0.67874900  0.67874900  0.01361900  1
  S  S0  1  0.79580600  0.79580600  0.20115900  1
  S  S1  1  0.20419400  0.20419400  0.79884100  1
  S  S2  1  0.49012000  0.49012000  0.75121800  1
  S  S3  1  0.50988000  0.50988000  0.24878200  1
loop_
_geom_bond_atom_site_label_1
_geom_bond_atom_site_label_2
_geom_bond_distance
_geom_bond_site_symmetry_2
Na0 S1 2.874375 1_565
Na0 S1 2.874375 1_655
Na0 S0 3.002424 1_555
Na0 S3 3.016439 1_565
Na0 S3 3.016439 1_655
Na0 S2 3.208548 1_565
Na0 S2 3.208548 1_655
Na1 S0 2.874375 1_545
Na1 S0 2.874375 1_455
Na1 S1 3.002424 1_555
Na1 S2 3.016439 1_545
Na1 S2 3.016439 1_455
Na1 S3 3.208548 1_455
Na1 S3 3.208548 1_545
Cu0 S2 2.286192 1_555
Cu0 S0 2.352442 1_546
Cu0 S0 2.352442 1_456
Cu0 S1 2.445716 1_555
Cu1 S3 2.286192 1_555
Cu1 S1 2.352442 1_654
Cu1 S1 2.352442 1_564
Cu1 S0 2.445716 1_555
S0 Zr0 2.620990 1_665
S1 Zr0 2.620990 1_556
S2 Zr0 2.609394 1_656
S2 Zr0 2.609394 1_566
S3 Zr0 2.609394 1_565
S3 Zr0 2.609394 1_655
