# generated using pymatgen
data_Bi2WO6
_symmetry_space_group_name_H-M   'P 1'
_cell_length_a   8.31958214
_cell_length_b   8.31958214
_cell_length_c   8.24255817
_cell_angle_alpha   78.15407661
_cell_angle_beta   78.15407661
_cell_angle_gamma   26.49691594
_symmetry_Int_Tables_number   1
_chemical_formula_structural   Bi2WO6
_chemical_formula_sum   'Bi4 W2 O12'
_cell_volume   248.80917461
_cell_formula_units_Z   2
loop_
 _symmetry_equiv_pos_site_id
 _symmetry_equiv_pos_as_xyz
  1  'x, y, z'
loop_
 _atom_site_type_symbol
 _atom_site_label
 _atom_site_symmetry_multiplicity
 _atom_site_fract_x
 _atom_site_fract_y
 _atom_site_fract_z
 _atom_site_occupancy
  Bi  Bi0  1  0.32019372  0.32019372  0.60351506  1
  Bi  Bi1  1  0.67980628  0.67980628  0.39648494  1
  Bi  Bi2  1  0.66701211  0.66701211  0.92869777  1
  Bi  Bi3  1  0.33298789  0.33298789  0.07130223  1
  W  W0  1  0.99671984  0.99671984  0.70367434  1
  W  W1  1  0.00328016  0.00328016  0.29632566  1
  O  O0  1  0.24835049  0.24835049  0.88092941  1
  O  O1  1  0.26779183  0.26779183  0.36464634  1
  O  O2  1  0.07838260  0.07838260  0.48659471  1
  O  O3  1  0.73220817  0.73220817  0.63535366  1
  O  O4  1  0.92603437  0.92603437  0.17119889  1
  O  O5  1  0.10753411  0.10753411  0.15657123  1
  O  O6  1  0.92161740  0.92161740  0.51340529  1
  O  O7  1  0.89246589  0.89246589  0.84342877  1
  O  O8  1  0.75164951  0.75164951  0.11907059  1
  O  O9  1  0.07396563  0.07396563  0.82880111  1
  O  O10  1  0.49396816  0.49396816  0.68456479  1
  O  O11  1  0.50603184  0.50603184  0.31543521  1
loop_
_geom_bond_atom_site_label_1
_geom_bond_atom_site_label_2
_geom_bond_distance
_geom_bond_site_symmetry_2
Bi0 O1 2.302535 1_555
Bi0 O0 2.336722 1_555
Bi0 O3 2.361595 1_545
Bi0 O3 2.361595 1_455
Bi0 O6 2.524029 1_545
Bi0 O6 2.524029 1_455
Bi1 O3 2.302535 1_555
Bi1 O8 2.336722 1_555
Bi1 O1 2.361595 1_565
Bi1 O1 2.361595 1_655
Bi1 O2 2.524029 1_565
Bi1 O2 2.524029 1_655
Bi2 O8 2.290997 1_556
Bi2 O0 2.303691 1_655
Bi2 O0 2.303691 1_565
Bi2 O3 2.425775 1_555
Bi2 O9 2.666029 1_565
Bi2 O9 2.666029 1_655
Bi2 O5 2.707016 1_566
Bi2 O5 2.707016 1_656
Bi3 O0 2.290997 1_554
Bi3 O8 2.303691 1_455
Bi3 O8 2.303691 1_545
Bi3 O1 2.425775 1_555
Bi3 O4 2.666029 1_545
Bi3 O4 2.666029 1_455
Bi3 O7 2.707016 1_544
Bi3 O7 2.707016 1_454
O2 W0 1.988149 1_445
O2 W1 2.178024 1_555
O4 W1 1.781349 1_665
O5 W1 1.832397 1_555
O6 W1 1.988149 1_665
O6 W0 2.178024 1_555
O7 W0 1.832397 1_555
O9 W0 1.781349 1_445
O10 W0 1.914421 1_455
O10 W0 1.914421 1_545
O11 W1 1.914421 1_565
O11 W1 1.914421 1_655
