# generated using pymatgen
data_SrMg4
_symmetry_space_group_name_H-M   'P 1'
_cell_length_a   10.46322058
_cell_length_b   10.46322058
_cell_length_c   27.91652200
_cell_angle_alpha   90.00000000
_cell_angle_beta   90.00000000
_cell_angle_gamma   120.00000369
_symmetry_Int_Tables_number   1
_chemical_formula_structural   SrMg4
_chemical_formula_sum   'Sr18 Mg72'
_cell_volume   2646.80952141
_cell_formula_units_Z   18
loop_
 _symmetry_equiv_pos_site_id
 _symmetry_equiv_pos_as_xyz
  1  'x, y, z'
loop_
 _atom_site_type_symbol
 _atom_site_label
 _atom_site_symmetry_multiplicity
 _atom_site_fract_x
 _atom_site_fract_y
 _atom_site_fract_z
 _atom_site_occupancy
  Sr  Sr0  1  0.13565900  0.86434100  0.06159700  1
  Sr  Sr1  1  0.86434100  0.13565900  0.93840300  1
  Sr  Sr2  1  0.94035300  0.47017600  0.25000000  1
  Sr  Sr3  1  0.13565900  0.27131800  0.06159700  1
  Sr  Sr4  1  0.47017600  0.52982400  0.75000000  1
  Sr  Sr5  1  0.86434100  0.72868200  0.93840300  1
  Sr  Sr6  1  0.86434100  0.72868200  0.56159700  1
  Sr  Sr7  1  0.52982400  0.47017600  0.25000000  1
  Sr  Sr8  1  0.72868200  0.86434100  0.06159700  1
  Sr  Sr9  1  0.13565900  0.27131800  0.43840300  1
  Sr  Sr10  1  0.27131800  0.13565900  0.93840300  1
  Sr  Sr11  1  0.72868200  0.86434100  0.43840300  1
  Sr  Sr12  1  0.13565900  0.86434100  0.43840300  1
  Sr  Sr13  1  0.52982400  0.05964700  0.25000000  1
  Sr  Sr14  1  0.86434100  0.13565900  0.56159700  1
  Sr  Sr15  1  0.27131800  0.13565900  0.56159700  1
  Sr  Sr16  1  0.47017600  0.94035300  0.75000000  1
  Sr  Sr17  1  0.05964700  0.52982400  0.75000000  1
  Mg  Mg0  1  0.00000000  0.00000000  0.34155100  1
  Mg  Mg1  1  0.83226700  0.66453400  0.34660800  1
  Mg  Mg2  1  0.23387300  0.76612700  0.94540200  1
  Mg  Mg3  1  0.83226700  0.66453400  0.15339200  1
  Mg  Mg4  1  0.64778800  0.82389400  0.18807800  1
  Mg  Mg5  1  0.33333300  0.66666700  0.85158500  1
  Mg  Mg6  1  0.66666700  0.33333300  0.35158500  1
  Mg  Mg7  1  0.17610600  0.82389400  0.18807800  1
  Mg  Mg8  1  0.00000000  0.00000000  0.65844900  1
  Mg  Mg9  1  0.83226700  0.16773300  0.34660800  1
  Mg  Mg10  1  0.76612700  0.23387300  0.44540200  1
  Mg  Mg11  1  0.51151800  0.48848200  0.88140400  1
  Mg  Mg12  1  0.53225500  0.76612700  0.55459800  1
  Mg  Mg13  1  0.82389400  0.17610600  0.68807800  1
  Mg  Mg14  1  0.76612700  0.53225500  0.05459800  1
  Mg  Mg15  1  0.16773300  0.33546600  0.65339200  1
  Mg  Mg16  1  0.16773300  0.33546600  0.84660800  1
  Mg  Mg17  1  0.33546600  0.16773300  0.15339200  1
  Mg  Mg18  1  0.02303700  0.51151800  0.38140400  1
  Mg  Mg19  1  0.17610600  0.35221200  0.31192200  1
  Mg  Mg20  1  0.53225500  0.76612700  0.94540200  1
  Mg  Mg21  1  0.33333300  0.66666700  0.64841500  1
  Mg  Mg22  1  0.33333300  0.66666700  0.04596700  1
  Mg  Mg23  1  0.00000000  0.00000000  0.84155100  1
  Mg  Mg24  1  0.50000000  0.00000000  0.50000000  1
  Mg  Mg25  1  0.90100500  0.80201000  0.25000000  1
  Mg  Mg26  1  0.33546600  0.16773300  0.34660800  1
  Mg  Mg27  1  0.51151800  0.02303700  0.61859600  1
  Mg  Mg28  1  0.76612700  0.53225500  0.44540200  1
  Mg  Mg29  1  0.51151800  0.48848200  0.61859600  1
  Mg  Mg30  1  0.23387300  0.76612700  0.55459800  1
  Mg  Mg31  1  0.66666700  0.33333300  0.14841500  1
  Mg  Mg32  1  0.76612700  0.23387300  0.05459800  1
  Mg  Mg33  1  0.23387300  0.46774500  0.94540200  1
  Mg  Mg34  1  0.35221200  0.17610600  0.68807800  1
  Mg  Mg35  1  0.00000000  0.00000000  0.15844900  1
  Mg  Mg36  1  0.00000000  0.50000000  0.50000000  1
  Mg  Mg37  1  0.80201000  0.90100500  0.75000000  1
  Mg  Mg38  1  0.66666700  0.33333300  0.95403300  1
  Mg  Mg39  1  0.97696300  0.48848200  0.88140400  1
  Mg  Mg40  1  0.46774500  0.23387300  0.05459800  1
  Mg  Mg41  1  0.97696300  0.48848200  0.61859600  1
  Mg  Mg42  1  0.48848200  0.97696300  0.38140400  1
  Mg  Mg43  1  0.16773300  0.83226700  0.84660800  1
  Mg  Mg44  1  0.48848200  0.51151800  0.11859600  1
  Mg  Mg45  1  0.82389400  0.17610600  0.81192200  1
  Mg  Mg46  1  0.82389400  0.64778800  0.68807800  1
  Mg  Mg47  1  0.17610600  0.35221200  0.18807800  1
  Mg  Mg48  1  0.50000000  0.50000000  0.50000000  1
  Mg  Mg49  1  0.66453400  0.83226700  0.84660800  1
  Mg  Mg50  1  0.48848200  0.97696300  0.11859600  1
  Mg  Mg51  1  0.00000000  0.50000000  0.00000000  1
  Mg  Mg52  1  0.50000000  0.50000000  0.00000000  1
  Mg  Mg53  1  0.09899500  0.90100500  0.75000000  1
  Mg  Mg54  1  0.33333300  0.66666700  0.45403300  1
  Mg  Mg55  1  0.66453400  0.83226700  0.65339200  1
  Mg  Mg56  1  0.19799000  0.09899500  0.25000000  1
  Mg  Mg57  1  0.90100500  0.09899500  0.25000000  1
  Mg  Mg58  1  0.02303700  0.51151800  0.11859600  1
  Mg  Mg59  1  0.82389400  0.64778800  0.81192200  1
  Mg  Mg60  1  0.16773300  0.83226700  0.65339200  1
  Mg  Mg61  1  0.83226700  0.16773300  0.15339200  1
  Mg  Mg62  1  0.64778800  0.82389400  0.31192200  1
  Mg  Mg63  1  0.50000000  0.00000000  0.00000000  1
  Mg  Mg64  1  0.09899500  0.19799000  0.75000000  1
  Mg  Mg65  1  0.51151800  0.02303700  0.88140400  1
  Mg  Mg66  1  0.17610600  0.82389400  0.31192200  1
  Mg  Mg67  1  0.66666700  0.33333300  0.54596700  1
  Mg  Mg68  1  0.46774500  0.23387300  0.44540200  1
  Mg  Mg69  1  0.48848200  0.51151800  0.38140400  1
  Mg  Mg70  1  0.35221200  0.17610600  0.81192200  1
  Mg  Mg71  1  0.23387300  0.46774500  0.55459800  1
loop_
_geom_bond_atom_site_label_1
_geom_bond_atom_site_label_2
_geom_bond_distance
_geom_bond_site_symmetry_2
Sr0 Sr5 4.227539 1_454
Sr0 Sr10 4.227539 1_564
Sr0 Sr3 4.258290 1_565
Sr0 Sr8 4.258290 1_455
Sr1 Sr3 4.227539 1_656
Sr1 Sr8 4.227539 1_546
Sr1 Sr5 4.258290 1_545
Sr1 Sr10 4.258290 1_655
Sr2 Sr7 4.295455 1_555
Sr3 Sr8 4.258290 1_445
Sr5 Sr8 4.227539 1_556
Sr10 Sr3 4.227539 1_556
Sr10 Sr5 4.258290 1_445
Sr11 Sr14 4.227539 1_565
Sr11 Sr6 4.227539 1_555
Sr11 Sr9 4.258290 1_665
Sr11 Sr12 4.258290 1_655
Sr12 Sr6 4.227539 1_455
Sr12 Sr15 4.227539 1_565
Sr12 Sr9 4.258290 1_565
Sr13 Sr2 4.295455 1_555
Sr13 Sr7 4.295455 1_555
Sr14 Sr9 4.227539 1_655
Sr14 Sr15 4.258290 1_655
Sr14 Sr6 4.258290 1_545
Sr15 Sr9 4.227539 1_555
Sr15 Sr6 4.258290 1_445
Sr16 Sr17 4.295455 1_555
Sr16 Sr4 4.295455 1_555
Sr17 Sr4 4.295455 1_555
Mg0 Mg26 3.043073 1_555
Mg0 Mg1 3.043073 1_445
Mg0 Mg9 3.043073 1_455
Mg0 Mg25 3.122615 1_445
Mg0 Mg56 3.122615 1_555
Mg0 Mg57 3.122615 1_455
Mg0 Mg19 3.296980 1_555
Mg0 Mg62 3.296980 1_445
Mg0 Mg66 3.296980 1_545
Mg0 Sr9 3.654411 1_555
Mg0 Sr11 3.654411 1_445
Mg0 Sr12 3.654411 1_545
Mg1 Mg25 2.970762 1_555
Mg1 Mg6 3.004364 1_555
Mg1 Mg28 3.007192 1_555
Mg1 Mg66 3.265315 1_655
Mg1 Mg62 3.265315 1_555
Mg1 Mg69 3.269087 1_555
Mg1 Mg18 3.269096 1_655
Mg1 Sr12 3.791859 1_655
Mg1 Sr11 3.791859 1_555
Mg1 Sr7 3.871431 1_555
Mg1 Sr2 3.871437 1_555
Mg2 Mg43 3.007196 1_555
Mg2 Mg51 3.041546 1_556
Mg2 Mg63 3.041546 1_566
Mg2 Mg20 3.122037 1_555
Mg2 Mg33 3.122037 1_555
Mg2 Mg5 3.179369 1_555
Mg2 Mg65 3.323872 1_565
Mg2 Mg39 3.323872 1_455
Mg2 Mg22 3.336260 1_556
Mg2 Sr10 3.691421 1_565
Mg2 Sr5 3.691421 1_455
Mg2 Sr0 3.700011 1_556
Mg3 Mg31 3.004364 1_555
Mg3 Mg35 3.043073 1_665
Mg3 Mg7 3.265315 1_655
Mg3 Mg4 3.265315 1_555
Mg3 Mg44 3.269087 1_555
Mg3 Mg58 3.269096 1_655
Mg3 Sr0 3.791859 1_655
Mg3 Sr8 3.791859 1_555
Mg3 Sr7 3.871431 1_555
Mg3 Sr2 3.871437 1_555
Mg4 Mg61 3.265315 1_565
Mg4 Mg57 3.266035 1_565
Mg4 Mg50 3.431552 1_555
Mg4 Mg44 3.431560 1_555
Mg4 Mg62 3.457294 1_555
Mg4 Sr8 3.606194 1_555
Mg4 Sr13 3.693387 1_565
Mg4 Sr7 3.693396 1_555
Mg5 Mg65 3.334786 1_565
Mg5 Sr16 3.767312 1_555
Mg5 Sr17 3.767312 1_555
Mg5 Sr4 3.767312 1_555
Mg6 Mg9 3.004355 1_555
Mg6 Mg68 3.179379 1_555
Mg6 Mg69 3.334786 1_555
Mg6 Sr13 3.767312 1_555
Mg6 Sr2 3.767312 1_555
Mg6 Sr7 3.767312 1_555
Mg7 Sr0 3.606194 1_555
Mg7 Sr2 3.693394 1_455
Mg7 Sr13 3.693394 1_565
Mg8 Sr15 3.654411 1_555
Mg8 Sr6 3.654411 1_445
Mg8 Sr14 3.654411 1_455
Mg9 Sr9 3.791859 1_655
Mg9 Sr11 3.791859 1_545
Mg9 Sr13 3.871430 1_555
Mg9 Sr2 3.871430 1_555
Mg10 Mg9 3.007196 1_555
Mg10 Mg36 3.041546 1_655
Mg10 Mg24 3.041546 1_555
Mg10 Mg28 3.122037 1_555
Mg10 Mg68 3.122037 1_555
Mg10 Mg6 3.179369 1_555
Mg10 Mg18 3.323872 1_655
Mg10 Mg42 3.323872 1_545
Mg10 Mg67 3.336260 1_555
Mg10 Sr9 3.691421 1_655
Mg10 Sr11 3.691421 1_545
Mg10 Sr14 3.700011 1_555
Mg11 Mg16 3.269087 1_555
Mg11 Mg49 3.269087 1_555
Mg11 Mg52 3.317362 1_556
Mg11 Mg33 3.323864 1_555
Mg11 Mg20 3.323864 1_555
Mg11 Mg5 3.334786 1_555
Mg11 Mg59 3.431560 1_555
Mg11 Mg70 3.431560 1_555
Mg11 Mg38 3.466530 1_555
Mg11 Sr5 3.633004 1_555
Mg11 Sr10 3.633004 1_555
Mg11 Sr4 3.744074 1_555
Mg12 Mg55 3.007192 1_555
Mg12 Mg48 3.041542 1_555
Mg12 Mg24 3.041551 1_565
Mg12 Mg71 3.122037 1_555
Mg12 Mg30 3.122037 1_555
Mg12 Mg21 3.179379 1_555
Mg12 Mg29 3.323864 1_555
Mg12 Mg27 3.323882 1_565
Mg12 Mg54 3.336270 1_555
Mg12 Sr6 3.691410 1_555
Mg12 Sr14 3.691416 1_565
Mg12 Sr11 3.700006 1_555
Mg13 Mg55 3.265315 1_545
Mg13 Mg15 3.265315 1_655
Mg13 Mg37 3.266035 1_545
Mg13 Mg64 3.266035 1_655
Mg13 Mg8 3.296980 1_655
Mg13 Mg27 3.431560 1_555
Mg13 Mg41 3.431560 1_555
Mg13 Mg45 3.457294 1_555
Mg13 Sr14 3.606194 1_555
Mg13 Sr16 3.693394 1_545
Mg13 Sr17 3.693394 1_655
Mg14 Mg3 3.007192 1_555
Mg14 Mg52 3.041542 1_555
Mg14 Mg51 3.041551 1_655
Mg14 Mg40 3.122037 1_555
Mg14 Mg32 3.122037 1_555
Mg14 Mg31 3.179379 1_555
Mg14 Mg44 3.323864 1_555
Mg14 Mg58 3.323882 1_655
Mg14 Mg38 3.336270 1_554
Mg14 Sr8 3.691410 1_555
Mg14 Sr0 3.691416 1_655
Mg14 Sr5 3.700006 1_554
Mg15 Mg64 2.970762 1_555
Mg15 Mg21 3.004364 1_555
Mg15 Mg71 3.007192 1_555
Mg15 Mg8 3.043073 1_555
Mg15 Mg34 3.265315 1_555
Mg15 Mg29 3.269087 1_555
Mg15 Mg41 3.269096 1_455
Mg15 Sr14 3.791859 1_455
Mg15 Sr15 3.791859 1_555
Mg15 Sr4 3.871431 1_555
Mg15 Sr17 3.871437 1_555
Mg16 Mg64 2.970762 1_555
Mg16 Mg5 3.004364 1_555
Mg16 Mg33 3.007192 1_555
Mg16 Mg23 3.043073 1_555
Mg16 Mg45 3.265315 1_455
Mg16 Mg70 3.265315 1_555
Mg16 Mg39 3.269096 1_455
Mg16 Sr1 3.791859 1_455
Mg16 Sr10 3.791859 1_555
Mg16 Sr4 3.871431 1_555
Mg16 Sr17 3.871437 1_555
Mg17 Mg56 2.970762 1_555
Mg17 Mg31 3.004364 1_555
Mg17 Mg40 3.007192 1_555
Mg17 Mg35 3.043073 1_555
Mg17 Mg7 3.265315 1_545
Mg17 Mg47 3.265315 1_555
Mg17 Mg44 3.269087 1_555
Mg17 Mg50 3.269096 1_545
Mg17 Sr0 3.791859 1_545
Mg17 Sr3 3.791859 1_555
Mg17 Sr7 3.871431 1_555
Mg17 Sr13 3.871437 1_555
Mg18 Mg9 3.269088 1_455
Mg18 Mg36 3.317362 1_555
Mg18 Mg28 3.323882 1_455
Mg18 Mg6 3.334786 1_455
Mg18 Mg19 3.431552 1_555
Mg18 Mg66 3.431560 1_555
Mg18 Mg54 3.466515 1_555
Mg18 Sr9 3.632997 1_555
Mg18 Sr12 3.633006 1_555
Mg18 Sr2 3.744074 1_455
Mg19 Mg9 3.265315 1_455
Mg19 Mg26 3.265315 1_555
Mg19 Mg57 3.266035 1_455
Mg19 Mg56 3.266035 1_555
Mg19 Mg69 3.431560 1_555
Mg19 Mg47 3.457294 1_555
Mg19 Sr9 3.606194 1_555
Mg19 Sr2 3.693387 1_455
Mg19 Sr7 3.693396 1_555
Mg20 Mg49 3.007192 1_555
Mg20 Mg52 3.041542 1_556
Mg20 Mg63 3.041551 1_566
Mg20 Mg33 3.122037 1_555
Mg20 Mg5 3.179379 1_555
Mg20 Mg65 3.323882 1_565
Mg20 Mg22 3.336270 1_556
Mg20 Sr5 3.691410 1_555
Mg20 Sr1 3.691416 1_565
Mg20 Sr8 3.700006 1_556
Mg21 Mg60 3.004355 1_555
Mg21 Mg55 3.004364 1_555
Mg21 Mg30 3.179369 1_555
Mg21 Mg71 3.179379 1_555
Mg21 Mg27 3.334786 1_565
Mg21 Mg41 3.334786 1_455
Mg21 Mg29 3.334786 1_555
Mg21 Sr16 3.767312 1_555
Mg21 Sr17 3.767312 1_555
Mg21 Sr4 3.767312 1_555
Mg22 Mg63 3.281757 1_565
Mg22 Mg51 3.281757 1_555
Mg22 Mg52 3.281766 1_555
Mg22 Mg33 3.336270 1_554
Mg22 Mg50 3.466515 1_555
Mg22 Mg58 3.466515 1_555
Mg22 Mg44 3.466530 1_555
Mg22 Sr0 3.608887 1_555
Mg22 Sr8 3.608896 1_555
Mg22 Sr3 3.608896 1_555
Mg23 Mg49 3.043073 1_445
Mg23 Mg43 3.043073 1_545
Mg23 Mg37 3.122615 1_445
Mg23 Mg64 3.122615 1_555
Mg23 Mg53 3.122615 1_545
Mg23 Mg70 3.296980 1_555
Mg23 Mg59 3.296980 1_445
Mg23 Mg45 3.296980 1_455
Mg23 Sr10 3.654411 1_555
Mg23 Sr5 3.654411 1_445
Mg23 Sr1 3.654411 1_455
Mg24 Mg30 3.041546 1_545
Mg24 Mg68 3.041551 1_555
Mg24 Mg67 3.281757 1_555
Mg24 Mg54 3.281757 1_545
Mg24 Mg27 3.317362 1_555
Mg24 Mg42 3.317362 1_545
Mg24 Sr14 3.754106 1_555
Mg24 Sr12 3.754106 1_545
Mg24 Sr11 3.754106 1_545
Mg24 Sr15 3.754106 1_555
Mg25 Mg3 2.970762 1_555
Mg25 Mg56 3.107419 1_665
Mg25 Mg57 3.107420 1_565
Mg25 Mg35 3.122615 1_665
Mg25 Mg66 3.266035 1_655
Mg25 Mg7 3.266035 1_655
Mg25 Mg62 3.266035 1_555
Mg25 Mg4 3.266035 1_555
Mg25 Sr7 3.695142 1_555
Mg25 Sr2 3.695148 1_555
Mg26 Mg56 2.970762 1_555
Mg26 Mg6 3.004364 1_555
Mg26 Mg68 3.007192 1_555
Mg26 Mg66 3.265315 1_545
Mg26 Mg69 3.269087 1_555
Mg26 Mg42 3.269096 1_545
Mg26 Sr12 3.791859 1_545
Mg26 Sr9 3.791859 1_555
Mg26 Sr7 3.871431 1_555
Mg26 Sr13 3.871437 1_555
Mg27 Mg60 3.269088 1_545
Mg27 Mg55 3.269096 1_545
Mg27 Mg30 3.323872 1_545
Mg27 Mg34 3.431552 1_555
Mg27 Mg67 3.466515 1_555
Mg27 Sr15 3.632997 1_555
Mg27 Sr14 3.633006 1_555
Mg27 Sr16 3.744074 1_545
Mg28 Mg48 3.041542 1_555
Mg28 Mg36 3.041551 1_655
Mg28 Mg68 3.122037 1_555
Mg28 Mg6 3.179379 1_555
Mg28 Mg69 3.323864 1_555
Mg28 Mg67 3.336270 1_555
Mg28 Sr11 3.691410 1_555
Mg28 Sr12 3.691416 1_655
Mg28 Sr6 3.700006 1_555
Mg29 Mg55 3.269087 1_555
Mg29 Mg48 3.317362 1_555
Mg29 Mg71 3.323864 1_555
Mg29 Mg46 3.431560 1_555
Mg29 Mg34 3.431560 1_555
Mg29 Mg67 3.466530 1_555
Mg29 Sr6 3.633004 1_555
Mg29 Sr15 3.633004 1_555
Mg29 Sr4 3.744074 1_555
Mg30 Mg60 3.007196 1_555
Mg30 Mg36 3.041546 1_555
Mg30 Mg71 3.122037 1_555
Mg30 Mg41 3.323872 1_455
Mg30 Mg54 3.336260 1_555
Mg30 Sr15 3.691421 1_565
Mg30 Sr6 3.691421 1_455
Mg30 Sr12 3.700011 1_555
Mg31 Mg61 3.004355 1_555
Mg31 Mg32 3.179369 1_555
Mg31 Mg40 3.179379 1_555
Mg31 Mg58 3.334786 1_655
Mg31 Mg50 3.334786 1_545
Mg31 Mg44 3.334786 1_555
Mg31 Sr2 3.767312 1_555
Mg31 Sr13 3.767312 1_555
Mg31 Sr7 3.767312 1_555
Mg32 Mg61 3.007196 1_555
Mg32 Mg51 3.041546 1_655
Mg32 Mg63 3.041546 1_555
Mg32 Mg40 3.122037 1_555
Mg32 Mg58 3.323872 1_655
Mg32 Mg50 3.323872 1_545
Mg32 Mg38 3.336260 1_554
Mg32 Sr3 3.691421 1_655
Mg32 Sr8 3.691421 1_545
Mg32 Sr1 3.700011 1_554
Mg33 Mg52 3.041542 1_556
Mg33 Mg51 3.041551 1_556
Mg33 Mg5 3.179379 1_555
Mg33 Mg39 3.323882 1_455
Mg33 Sr10 3.691410 1_555
Mg33 Sr1 3.691416 1_455
Mg33 Sr3 3.700006 1_556
Mg34 Mg60 3.265315 1_545
Mg34 Mg53 3.266035 1_545
Mg34 Mg64 3.266035 1_555
Mg34 Mg8 3.296980 1_555
Mg34 Mg70 3.457294 1_555
Mg34 Sr15 3.606194 1_555
Mg34 Sr16 3.693387 1_545
Mg34 Sr4 3.693396 1_555
Mg35 Mg61 3.043073 1_455
Mg35 Mg56 3.122615 1_555
Mg35 Mg57 3.122615 1_455
Mg35 Mg47 3.296980 1_555
Mg35 Mg4 3.296980 1_445
Mg35 Mg7 3.296980 1_545
Mg35 Sr3 3.654411 1_555
Mg35 Sr8 3.654411 1_445
Mg35 Sr0 3.654411 1_545
Mg36 Mg71 3.041551 1_555
Mg36 Mg67 3.281757 1_455
Mg36 Mg54 3.281757 1_555
Mg36 Mg41 3.317362 1_455
Mg36 Sr12 3.754106 1_555
Mg36 Sr14 3.754106 1_455
Mg36 Sr6 3.754106 1_455
Mg36 Sr9 3.754106 1_555
Mg37 Mg49 2.970762 1_555
Mg37 Mg55 2.970762 1_555
Mg37 Mg64 3.107419 1_665
Mg37 Mg53 3.107420 1_655
Mg37 Mg8 3.122615 1_665
Mg37 Mg45 3.266035 1_565
Mg37 Mg59 3.266035 1_555
Mg37 Mg46 3.266035 1_555
Mg37 Sr4 3.695142 1_555
Mg37 Sr16 3.695148 1_555
Mg38 Mg51 3.281757 1_656
Mg38 Mg63 3.281757 1_556
Mg38 Mg52 3.281766 1_556
Mg38 Mg40 3.336270 1_556
Mg38 Mg39 3.466515 1_555
Mg38 Mg65 3.466515 1_555
Mg38 Sr1 3.608887 1_555
Mg38 Sr5 3.608896 1_555
Mg38 Sr10 3.608896 1_555
Mg39 Mg43 3.269088 1_655
Mg39 Mg51 3.317362 1_656
Mg39 Mg5 3.334786 1_655
Mg39 Mg59 3.431552 1_555
Mg39 Mg45 3.431560 1_555
Mg39 Sr5 3.632997 1_555
Mg39 Sr1 3.633006 1_555
Mg39 Sr17 3.744074 1_655
Mg40 Mg52 3.041542 1_555
Mg40 Mg63 3.041551 1_555
Mg40 Mg44 3.323864 1_555
Mg40 Mg50 3.323882 1_545
Mg40 Sr3 3.691410 1_555
Mg40 Sr0 3.691416 1_545
Mg40 Sr10 3.700006 1_554
Mg41 Mg60 3.269088 1_655
Mg41 Mg71 3.323882 1_655
Mg41 Mg46 3.431552 1_555
Mg41 Mg67 3.466515 1_555
Mg41 Sr6 3.632997 1_555
Mg41 Sr14 3.633006 1_555
Mg41 Sr17 3.744074 1_655
Mg42 Mg9 3.269088 1_565
Mg42 Mg68 3.323882 1_565
Mg42 Mg6 3.334786 1_565
Mg42 Mg62 3.431552 1_555
Mg42 Mg66 3.431560 1_555
Mg42 Mg54 3.466515 1_555
Mg42 Sr11 3.632997 1_555
Mg42 Sr12 3.633006 1_555
Mg42 Sr13 3.744074 1_565
Mg43 Mg53 2.970762 1_555
Mg43 Mg5 3.004355 1_555
Mg43 Mg70 3.265315 1_565
Mg43 Mg59 3.265315 1_455
Mg43 Mg65 3.269088 1_565
Mg43 Sr10 3.791859 1_565
Mg43 Sr5 3.791859 1_455
Mg43 Sr16 3.871430 1_555
Mg43 Sr17 3.871430 1_555
Mg44 Mg52 3.317362 1_555
Mg44 Mg47 3.431560 1_555
Mg44 Sr8 3.633004 1_555
Mg44 Sr3 3.633004 1_555
Mg44 Sr7 3.744074 1_555
Mg45 Mg49 3.265315 1_545
Mg45 Mg64 3.266035 1_655
Mg45 Mg65 3.431560 1_555
Mg45 Sr1 3.606194 1_555
Mg45 Sr16 3.693394 1_545
Mg45 Sr17 3.693394 1_655
Mg46 Mg60 3.265315 1_655
Mg46 Mg55 3.265315 1_555
Mg46 Mg53 3.266035 1_655
Mg46 Mg8 3.296980 1_665
Mg46 Mg59 3.457294 1_555
Mg46 Sr6 3.606194 1_555
Mg46 Sr17 3.693387 1_655
Mg46 Sr4 3.693396 1_555
Mg47 Mg61 3.265315 1_455
Mg47 Mg57 3.266035 1_455
Mg47 Mg56 3.266035 1_555
Mg47 Mg58 3.431552 1_555
Mg47 Sr3 3.606194 1_555
Mg47 Sr2 3.693387 1_455
Mg47 Sr7 3.693396 1_555
Mg48 Mg71 3.041542 1_555
Mg48 Mg68 3.041542 1_555
Mg48 Mg67 3.281766 1_555
Mg48 Mg54 3.281766 1_555
Mg48 Mg69 3.317362 1_555
Mg48 Sr6 3.754106 1_555
Mg48 Sr11 3.754106 1_555
Mg48 Sr9 3.754106 1_555
Mg48 Sr15 3.754106 1_555
Mg49 Mg5 3.004364 1_555
Mg49 Mg59 3.265315 1_555
Mg49 Mg65 3.269096 1_565
Mg49 Sr1 3.791859 1_565
Mg49 Sr5 3.791859 1_555
Mg49 Sr4 3.871431 1_555
Mg49 Sr16 3.871437 1_555
Mg50 Mg61 3.269088 1_565
Mg50 Mg63 3.317362 1_565
Mg50 Mg7 3.431560 1_555
Mg50 Sr8 3.632997 1_555
Mg50 Sr0 3.633006 1_555
Mg50 Sr13 3.744074 1_565
Mg51 Mg58 3.317362 1_555
Mg51 Sr0 3.754106 1_555
Mg51 Sr1 3.754106 1_454
Mg51 Sr5 3.754106 1_454
Mg51 Sr3 3.754106 1_555
Mg52 Sr5 3.754106 1_554
Mg52 Sr8 3.754106 1_555
Mg52 Sr3 3.754106 1_555
Mg52 Sr10 3.754106 1_554
Mg53 Mg60 2.970762 1_555
Mg53 Mg64 3.107420 1_565
Mg53 Mg8 3.122615 1_565
Mg53 Mg70 3.266035 1_565
Mg53 Mg59 3.266035 1_455
Mg53 Sr16 3.695137 1_555
Mg53 Sr17 3.695137 1_555
Mg54 Mg71 3.336270 1_555
Mg54 Mg69 3.466530 1_555
Mg54 Sr12 3.608887 1_555
Mg54 Sr11 3.608896 1_555
Mg54 Sr9 3.608896 1_555
Mg55 Mg8 3.043073 1_665
Mg55 Sr14 3.791859 1_565
Mg55 Sr6 3.791859 1_555
Mg55 Sr4 3.871431 1_555
Mg55 Sr16 3.871437 1_555
Mg56 Mg57 3.107420 1_455
Mg56 Mg66 3.266035 1_545
Mg56 Mg7 3.266035 1_545
Mg56 Sr7 3.695142 1_555
Mg56 Sr13 3.695148 1_555
Mg57 Mg9 2.970762 1_555
Mg57 Mg61 2.970762 1_555
Mg57 Mg62 3.266035 1_545
Mg57 Sr2 3.695137 1_555
Mg57 Sr13 3.695137 1_555
Mg58 Mg61 3.269088 1_455
Mg58 Mg7 3.431560 1_555
Mg58 Sr3 3.632997 1_555
Mg58 Sr0 3.633006 1_555
Mg58 Sr2 3.744074 1_455
Mg59 Sr5 3.606194 1_555
Mg59 Sr17 3.693387 1_655
Mg59 Sr4 3.693396 1_555
Mg60 Mg8 3.043073 1_565
Mg60 Sr15 3.791859 1_565
Mg60 Sr6 3.791859 1_455
Mg60 Sr16 3.871430 1_555
Mg60 Sr17 3.871430 1_555
Mg61 Sr3 3.791859 1_655
Mg61 Sr8 3.791859 1_545
Mg61 Sr2 3.871430 1_555
Mg61 Sr13 3.871430 1_555
Mg62 Mg9 3.265315 1_565
Mg62 Mg69 3.431560 1_555
Mg62 Sr11 3.606194 1_555
Mg62 Sr13 3.693387 1_565
Mg62 Sr7 3.693396 1_555
Mg63 Mg65 3.317362 1_554
Mg63 Sr1 3.754106 1_554
Mg63 Sr0 3.754106 1_545
Mg63 Sr8 3.754106 1_545
Mg63 Sr10 3.754106 1_554
Mg64 Mg8 3.122615 1_555
Mg64 Mg70 3.266035 1_555
Mg64 Sr4 3.695142 1_555
Mg64 Sr17 3.695148 1_555
Mg65 Mg70 3.431552 1_555
Mg65 Sr10 3.632997 1_555
Mg65 Sr1 3.633006 1_555
Mg65 Sr16 3.744074 1_545
Mg66 Mg7 3.457294 1_555
Mg66 Sr12 3.606194 1_555
Mg66 Sr2 3.693394 1_455
Mg66 Sr13 3.693394 1_565
Mg67 Mg68 3.336270 1_555
Mg67 Sr14 3.608887 1_555
Mg67 Sr6 3.608896 1_555
Mg67 Sr15 3.608896 1_555
Mg68 Mg69 3.323864 1_555
Mg68 Sr9 3.691410 1_555
Mg68 Sr12 3.691416 1_545
Mg68 Sr15 3.700006 1_555
Mg69 Sr11 3.633004 1_555
Mg69 Sr9 3.633004 1_555
Mg69 Sr7 3.744074 1_555
Mg70 Sr10 3.606194 1_555
Mg70 Sr16 3.693387 1_545
Mg70 Sr4 3.693396 1_555
Mg71 Sr15 3.691410 1_555
Mg71 Sr14 3.691416 1_455
Mg71 Sr9 3.700006 1_555
