# generated using pymatgen
data_CsNiF3
_symmetry_space_group_name_H-M   'P 1'
_cell_length_a   8.34991789
_cell_length_b   8.34991789
_cell_length_c   8.34991858
_cell_angle_alpha   43.78677003
_cell_angle_beta   43.78677003
_cell_angle_gamma   43.78677183
_symmetry_Int_Tables_number   1
_chemical_formula_structural   CsNiF3
_chemical_formula_sum   'Cs3 Ni3 F9'
_cell_volume   253.07704733
_cell_formula_units_Z   3
loop_
 _symmetry_equiv_pos_site_id
 _symmetry_equiv_pos_as_xyz
  1  'x, y, z'
loop_
 _atom_site_type_symbol
 _atom_site_label
 _atom_site_symmetry_multiplicity
 _atom_site_fract_x
 _atom_site_fract_y
 _atom_site_fract_z
 _atom_site_occupancy
  Cs  Cs0  1  0.00000000  0.00000000  0.00000000  1
  Cs  Cs1  1  0.21460300  0.21460300  0.21460300  1
  Cs  Cs2  1  0.78539700  0.78539700  0.78539700  1
  Ni  Ni0  1  0.50000000  0.50000000  0.50000000  1
  Ni  Ni1  1  0.37946600  0.37946600  0.37946600  1
  Ni  Ni2  1  0.62053400  0.62053400  0.62053400  1
  F  F0  1  0.50000000  0.50000000  0.00000000  1
  F  F1  1  0.50000000  0.00000000  0.50000000  1
  F  F2  1  0.00000000  0.50000000  0.50000000  1
  F  F3  1  0.27573600  0.70107200  0.70107200  1
  F  F4  1  0.70107200  0.70107200  0.27573600  1
  F  F5  1  0.70107200  0.27573600  0.70107200  1
  F  F6  1  0.29892800  0.72426400  0.29892800  1
  F  F7  1  0.72426400  0.29892800  0.29892800  1
  F  F8  1  0.29892800  0.29892800  0.72426400  1
loop_
_geom_bond_atom_site_label_1
_geom_bond_atom_site_label_2
_geom_bond_distance
_geom_bond_site_symmetry_2
Cs0 F0 3.113523 1_455
Cs0 F0 3.113523 1_545
Cs0 F1 3.113523 1_554
Cs0 F2 3.113523 1_545
Cs0 F2 3.113523 1_554
Cs0 F1 3.113523 1_455
Cs0 F4 3.187735 1_445
Cs0 F8 3.187735 1_554
Cs0 F3 3.187736 1_544
Cs0 F5 3.187736 1_454
Cs0 F7 3.187736 1_455
Cs0 F6 3.187736 1_545
Cs1 F5 3.135604 1_554
Cs1 F3 3.135604 1_554
Cs1 F4 3.135604 1_455
Cs1 F4 3.135604 1_545
Cs1 F5 3.135604 1_455
Cs1 F3 3.135604 1_545
Cs1 F7 3.185263 1_455
Cs1 F6 3.185263 1_545
Cs1 F8 3.185263 1_554
Cs1 F0 3.230655 1_555
Cs1 F1 3.230656 1_555
Cs1 F2 3.230656 1_555
Cs2 F7 3.135604 1_556
Cs2 F6 3.135604 1_556
Cs2 F8 3.135604 1_565
Cs2 F8 3.135604 1_655
Cs2 F6 3.135604 1_655
Cs2 F7 3.135604 1_565
Cs2 F3 3.185263 1_655
Cs2 F5 3.185263 1_565
Cs2 F4 3.185263 1_556
Cs2 F0 3.230655 1_556
Cs2 F1 3.230656 1_565
Cs2 F2 3.230656 1_655
F0 Ni2 2.078271 1_554
F0 Ni1 2.078271 1_555
F1 Ni2 2.078270 1_545
F1 Ni1 2.078270 1_555
F2 Ni2 2.078270 1_455
F2 Ni1 2.078270 1_555
F3 Ni0 2.033575 1_555
F3 Ni2 2.062864 1_555
F4 Ni0 2.033575 1_555
F4 Ni2 2.062864 1_555
F5 Ni0 2.033575 1_555
F5 Ni2 2.062864 1_555
F6 Ni0 2.033575 1_555
F6 Ni1 2.062864 1_555
F7 Ni0 2.033575 1_555
F7 Ni1 2.062864 1_555
F8 Ni0 2.033575 1_555
F8 Ni1 2.062864 1_555
