# generated using pymatgen
data_Cs4UC3O11
_symmetry_space_group_name_H-M   'P 1'
_cell_length_a   7.64875989
_cell_length_b   7.64875989
_cell_length_c   13.17924530
_cell_angle_alpha   87.62763964
_cell_angle_beta   87.62763964
_cell_angle_gamma   79.41169020
_symmetry_Int_Tables_number   1
_chemical_formula_structural   Cs4UC3O11
_chemical_formula_sum   'Cs8 U2 C6 O22'
_cell_volume   756.80603722
_cell_formula_units_Z   2
loop_
 _symmetry_equiv_pos_site_id
 _symmetry_equiv_pos_as_xyz
  1  'x, y, z'
loop_
 _atom_site_type_symbol
 _atom_site_label
 _atom_site_symmetry_multiplicity
 _atom_site_fract_x
 _atom_site_fract_y
 _atom_site_fract_z
 _atom_site_occupancy
  Cs  Cs0  1  0.77987600  0.43465900  0.46157000  1
  Cs  Cs1  1  0.56534100  0.22012400  0.03843000  1
  Cs  Cs2  1  0.01792000  0.35263500  0.15413500  1
  Cs  Cs3  1  0.98208000  0.64736500  0.84586500  1
  Cs  Cs4  1  0.22012400  0.56534100  0.53843000  1
  Cs  Cs5  1  0.43465900  0.77987600  0.96157000  1
  Cs  Cs6  1  0.35263500  0.01792000  0.65413500  1
  Cs  Cs7  1  0.64736500  0.98208000  0.34586500  1
  U  U0  1  0.81544800  0.18455200  0.75000000  1
  U  U1  1  0.18455200  0.81544800  0.25000000  1
  C  C0  1  0.51715900  0.48284100  0.75000000  1
  C  C1  1  0.15576200  0.07730600  0.40523100  1
  C  C2  1  0.84423800  0.92269400  0.59476900  1
  C  C3  1  0.07730600  0.15576200  0.90523100  1
  C  C4  1  0.48284100  0.51715900  0.25000000  1
  C  C5  1  0.92269400  0.84423800  0.09476900  1
  O  O0  1  0.96570400  0.91548000  0.66381500  1
  O  O1  1  0.32711900  0.95817900  0.18367900  1
  O  O2  1  0.26549600  0.92227800  0.41159600  1
  O  O3  1  0.61260700  0.38739300  0.25000000  1
  O  O4  1  0.95817900  0.32711900  0.68367900  1
  O  O5  1  0.16959500  0.20734000  0.45846500  1
  O  O6  1  0.83040500  0.79266000  0.54153500  1
  O  O7  1  0.67288100  0.04182100  0.81632100  1
  O  O8  1  0.03429600  0.08452000  0.33618500  1
  O  O9  1  0.44747000  0.62860300  0.32497700  1
  O  O10  1  0.07772200  0.73450400  0.08840400  1
  O  O11  1  0.91548000  0.96570400  0.16381500  1
  O  O12  1  0.79266000  0.83040500  0.04153500  1
  O  O13  1  0.37139700  0.55253000  0.17502300  1
  O  O14  1  0.20734000  0.16959500  0.95846500  1
  O  O15  1  0.38739300  0.61260700  0.75000000  1
  O  O16  1  0.73450400  0.07772200  0.58840400  1
  O  O17  1  0.62860300  0.44747000  0.82497700  1
  O  O18  1  0.92227800  0.26549600  0.91159600  1
  O  O19  1  0.04182100  0.67288100  0.31632100  1
  O  O20  1  0.55253000  0.37139700  0.67502300  1
  O  O21  1  0.08452000  0.03429600  0.83618500  1
loop_
_geom_bond_atom_site_label_1
_geom_bond_atom_site_label_2
_geom_bond_distance
_geom_bond_site_symmetry_2
Cs0 O6 3.069148 1_555
Cs0 O5 3.162504 1_655
Cs0 O3 3.176655 1_555
Cs0 O16 3.207888 1_555
Cs0 O9 3.267613 1_555
Cs0 O4 3.290000 1_555
Cs0 O20 3.311091 1_555
Cs0 O19 3.425504 1_655
Cs0 O8 3.445990 1_655
Cs1 O14 3.069148 1_554
Cs1 O12 3.162504 1_545
Cs1 O3 3.176655 1_555
Cs1 O18 3.207888 1_554
Cs1 O13 3.267613 1_555
Cs1 O7 3.290000 1_554
Cs1 O17 3.311091 1_554
Cs1 O1 3.425504 1_545
Cs1 O11 3.445990 1_545
Cs2 O8 3.082360 1_555
Cs2 O10 3.120833 1_555
Cs2 O14 3.154908 1_554
Cs2 O11 3.194021 1_445
Cs2 O3 3.267792 1_455
Cs2 O19 3.351511 1_555
Cs2 O13 3.367325 1_555
Cs2 O18 3.427247 1_454
Cs2 O1 3.493476 1_545
Cs3 O0 3.082360 1_555
Cs3 O18 3.120833 1_555
Cs3 O12 3.154908 1_556
Cs3 O21 3.194021 1_665
Cs3 O15 3.267792 1_655
Cs3 O4 3.351511 1_555
Cs3 O17 3.367325 1_555
Cs3 O10 3.427247 1_656
Cs3 O7 3.493476 1_565
Cs4 O5 3.069148 1_555
Cs4 O6 3.162504 1_455
Cs4 O15 3.176655 1_555
Cs4 O2 3.207888 1_555
Cs4 O20 3.267613 1_555
Cs4 O19 3.290000 1_555
Cs4 O9 3.311091 1_555
Cs4 O4 3.425504 1_455
Cs4 O0 3.445990 1_455
Cs5 O12 3.069148 1_556
Cs5 O14 3.162504 1_565
Cs5 O15 3.176655 1_555
Cs5 O10 3.207888 1_556
Cs5 O17 3.267613 1_555
Cs5 O1 3.290000 1_556
Cs5 O13 3.311091 1_556
Cs5 O7 3.425504 1_565
Cs5 O21 3.445990 1_565
Cs6 O21 3.082360 1_555
Cs6 O16 3.120833 1_555
Cs6 O5 3.154908 1_555
Cs6 O0 3.194021 1_445
Cs6 O15 3.267792 1_545
Cs6 O7 3.351511 1_555
Cs6 O20 3.367325 1_555
Cs6 O2 3.427247 1_545
Cs6 O4 3.493476 1_455
Cs7 O11 3.082360 1_555
Cs7 O2 3.120833 1_555
Cs7 O6 3.154908 1_555
Cs7 O8 3.194021 1_665
Cs7 O3 3.267792 1_565
Cs7 O1 3.351511 1_555
Cs7 O9 3.367325 1_555
Cs7 O16 3.427247 1_565
Cs7 O19 3.493476 1_655
C0 O15 1.268172 1_555
C0 O17 1.318736 1_555
C0 O20 1.318736 1_555
C1 O5 1.263024 1_555
C1 O8 1.319565 1_555
C1 O2 1.322650 1_545
C2 O6 1.263024 1_555
C2 O0 1.319565 1_555
C2 O16 1.322650 1_565
C3 O14 1.263024 1_555
C3 O21 1.319565 1_555
C3 O18 1.322650 1_455
C4 O3 1.268172 1_555
C4 O13 1.318736 1_555
C4 O9 1.318736 1_555
C5 O12 1.263024 1_555
C5 O11 1.319565 1_555
C5 O10 1.322650 1_655
O0 U0 2.462284 1_565
O1 U1 1.850547 1_555
O2 U1 2.454754 1_555
O4 U0 1.850547 1_555
O7 U0 1.850547 1_555
O8 U1 2.462284 1_545
O9 U1 2.460560 1_555
O10 U1 2.454754 1_555
O11 U1 2.462284 1_655
O13 U1 2.460560 1_555
O16 U0 2.454754 1_555
O17 U0 2.460560 1_555
O18 U0 2.454754 1_555
O19 U1 1.850547 1_555
O20 U0 2.460560 1_555
O21 U0 2.462284 1_455
