# generated using pymatgen
data_Ca(GaO2)2
_symmetry_space_group_name_H-M   'P 1'
_cell_length_a   7.83661700
_cell_length_b   9.24074200
_cell_length_c   10.45652200
_cell_angle_alpha   90.00000000
_cell_angle_beta   90.00000000
_cell_angle_gamma   90.00000000
_symmetry_Int_Tables_number   1
_chemical_formula_structural   Ca(GaO2)2
_chemical_formula_sum   'Ca8 Ga16 O32'
_cell_volume   757.22112680
_cell_formula_units_Z   8
loop_
 _symmetry_equiv_pos_site_id
 _symmetry_equiv_pos_as_xyz
  1  'x, y, z'
loop_
 _atom_site_type_symbol
 _atom_site_label
 _atom_site_symmetry_multiplicity
 _atom_site_fract_x
 _atom_site_fract_y
 _atom_site_fract_z
 _atom_site_occupancy
  Ca  Ca0  1  0.50258600  0.07858600  0.88686800  1
  Ca  Ca1  1  0.49593300  0.62695100  0.67912600  1
  Ca  Ca2  1  0.99593300  0.12695100  0.82087400  1
  Ca  Ca3  1  0.00258600  0.57858600  0.61313200  1
  Ca  Ca4  1  0.50406700  0.12695100  0.32087400  1
  Ca  Ca5  1  0.49741400  0.57858600  0.11313200  1
  Ca  Ca6  1  0.99741400  0.07858600  0.38686800  1
  Ca  Ca7  1  0.00406700  0.62695100  0.17912600  1
  Ga  Ga0  1  0.78598300  0.75113400  0.88304500  1
  Ga  Ga1  1  0.74303100  0.42396000  0.84789200  1
  Ga  Ga2  1  0.69370200  0.92373600  0.62862300  1
  Ga  Ga3  1  0.25696900  0.92396000  0.15210800  1
  Ga  Ga4  1  0.28598300  0.25113400  0.61695500  1
  Ga  Ga5  1  0.80629800  0.92373600  0.12862300  1
  Ga  Ga6  1  0.71401700  0.75113400  0.38304500  1
  Ga  Ga7  1  0.30629800  0.42373600  0.37137700  1
  Ga  Ga8  1  0.31267700  0.75095900  0.40620000  1
  Ga  Ga9  1  0.81267700  0.25095900  0.09380000  1
  Ga  Ga10  1  0.68732300  0.25095900  0.59380000  1
  Ga  Ga11  1  0.75696900  0.42396000  0.34789200  1
  Ga  Ga12  1  0.24303100  0.92396000  0.65210800  1
  Ga  Ga13  1  0.19370200  0.42373600  0.87137700  1
  Ga  Ga14  1  0.21401700  0.25113400  0.11695500  1
  Ga  Ga15  1  0.18732300  0.75095900  0.90620000  1
  O  O0  1  0.33799600  0.92417700  0.32080700  1
  O  O1  1  0.67333300  0.27216600  0.95129400  1
  O  O2  1  0.97863100  0.68817300  0.96855200  1
  O  O3  1  0.25028100  0.60121800  0.79545100  1
  O  O4  1  0.26112700  0.43056600  0.04281600  1
  O  O5  1  0.97339700  0.39808700  0.80186000  1
  O  O6  1  0.76112700  0.93056600  0.45718400  1
  O  O7  1  0.82666700  0.27216600  0.45129400  1
  O  O8  1  0.74971900  0.10121800  0.20454900  1
  O  O9  1  0.17333300  0.77216600  0.54870600  1
  O  O10  1  0.52136900  0.68817300  0.46855200  1
  O  O11  1  0.16200400  0.92417700  0.82080700  1
  O  O12  1  0.47339700  0.89808700  0.69814000  1
  O  O13  1  0.23887300  0.43056600  0.54281600  1
  O  O14  1  0.13713300  0.09344700  0.59129500  1
  O  O15  1  0.70453700  0.75703900  0.20333700  1
  O  O16  1  0.02136900  0.18817300  0.03144800  1
  O  O17  1  0.75028100  0.10121800  0.70454900  1
  O  O18  1  0.32666700  0.77216600  0.04870600  1
  O  O19  1  0.24971900  0.60121800  0.29545100  1
  O  O20  1  0.20453700  0.25703900  0.29666300  1
  O  O21  1  0.73887300  0.93056600  0.95718400  1
  O  O22  1  0.52660300  0.39808700  0.30186000  1
  O  O23  1  0.86286700  0.59344700  0.40870500  1
  O  O24  1  0.79546300  0.75703900  0.70333700  1
  O  O25  1  0.29546300  0.25703900  0.79666300  1
  O  O26  1  0.47863100  0.18817300  0.53144800  1
  O  O27  1  0.36286700  0.09344700  0.09129500  1
  O  O28  1  0.83799600  0.42417700  0.17919300  1
  O  O29  1  0.02660300  0.89808700  0.19814000  1
  O  O30  1  0.63713300  0.59344700  0.90870500  1
  O  O31  1  0.66200400  0.42417700  0.67919300  1
loop_
_geom_bond_atom_site_label_1
_geom_bond_atom_site_label_2
_geom_bond_distance
_geom_bond_site_symmetry_2
Ca0 O1 2.333276 1_555
Ca0 O27 2.405625 1_556
Ca0 O21 2.416668 1_545
Ca0 O25 2.498721 1_555
Ca0 O12 2.593997 1_545
Ca0 O17 2.728739 1_555
Ca1 O31 2.281402 1_555
Ca1 O10 2.282111 1_555
Ca1 O3 2.289541 1_555
Ca1 O12 2.519571 1_555
Ca1 O24 2.649337 1_555
Ca1 O30 2.661416 1_555
Ca2 O11 2.281402 1_645
Ca2 O16 2.282111 1_656
Ca2 O17 2.289541 1_555
Ca2 O5 2.519571 1_555
Ca2 O25 2.649337 1_655
Ca2 O14 2.661416 1_655
Ca3 O9 2.333276 1_555
Ca3 O23 2.405625 1_455
Ca3 O13 2.416668 1_555
Ca3 O24 2.498721 1_455
Ca3 O5 2.593997 1_455
Ca3 O3 2.728739 1_555
Ca4 O0 2.281402 1_545
Ca4 O26 2.282111 1_555
Ca4 O8 2.289541 1_555
Ca4 O22 2.519571 1_555
Ca4 O20 2.649337 1_555
Ca4 O27 2.661416 1_555
Ca5 O18 2.333276 1_555
Ca5 O30 2.405625 1_554
Ca5 O4 2.416668 1_555
Ca5 O15 2.498721 1_555
Ca5 O22 2.593997 1_555
Ca5 O19 2.728739 1_555
Ca6 O7 2.333276 1_555
Ca6 O14 2.405625 1_655
Ca6 O6 2.416668 1_545
Ca6 O20 2.498721 1_655
Ca6 O29 2.593997 1_645
Ca6 O8 2.728739 1_555
Ca7 O28 2.281402 1_455
Ca7 O2 2.282111 1_454
Ca7 O19 2.289541 1_555
Ca7 O29 2.519571 1_555
Ca7 O15 2.649337 1_455
Ca7 O23 2.661416 1_455
Ga0 O2 1.848552 1_555
Ga0 O21 1.867226 1_555
Ga0 O24 1.881380 1_555
Ga0 O30 1.885720 1_555
Ga1 O1 1.853353 1_555
Ga1 O31 1.874810 1_555
Ga1 O30 1.883083 1_555
Ga1 O5 1.883592 1_555
Ga2 O6 1.869970 1_555
Ga2 O17 1.875292 1_565
Ga2 O12 1.888170 1_555
Ga2 O24 1.902404 1_555
Ga3 O18 1.853353 1_555
Ga3 O0 1.874810 1_555
Ga3 O27 1.883083 1_565
Ga3 O29 1.883592 1_555
Ga4 O26 1.848552 1_555
Ga4 O13 1.867226 1_555
Ga4 O25 1.881380 1_555
Ga4 O14 1.885720 1_555
Ga5 O21 1.869970 1_554
Ga5 O8 1.875292 1_565
Ga5 O29 1.888170 1_655
Ga5 O15 1.902404 1_555
Ga6 O10 1.848552 1_555
Ga6 O6 1.867226 1_555
Ga6 O15 1.881380 1_555
Ga6 O23 1.885720 1_555
Ga7 O13 1.869970 1_555
Ga7 O19 1.875292 1_555
Ga7 O22 1.888170 1_555
Ga7 O20 1.902404 1_555
Ga8 O0 1.843579 1_555
Ga8 O10 1.853744 1_555
Ga8 O9 1.857763 1_555
Ga8 O19 1.870608 1_555
Ga9 O28 1.843579 1_555
Ga9 O16 1.853744 1_655
Ga9 O1 1.857763 1_554
Ga9 O8 1.870608 1_555
Ga10 O31 1.843579 1_555
Ga10 O26 1.853744 1_555
Ga10 O7 1.857763 1_555
Ga10 O17 1.870608 1_555
Ga11 O7 1.853353 1_555
Ga11 O28 1.874810 1_555
Ga11 O23 1.883083 1_555
Ga11 O22 1.883592 1_555
Ga12 O9 1.853353 1_555
Ga12 O11 1.874810 1_555
Ga12 O14 1.883083 1_565
Ga12 O12 1.883592 1_555
Ga13 O4 1.869970 1_556
Ga13 O3 1.875292 1_555
Ga13 O5 1.888170 1_455
Ga13 O25 1.902404 1_555
Ga14 O16 1.848552 1_555
Ga14 O4 1.867226 1_555
Ga14 O20 1.881380 1_555
Ga14 O27 1.885720 1_555
Ga15 O11 1.843579 1_555
Ga15 O2 1.853744 1_455
Ga15 O18 1.857763 1_556
Ga15 O3 1.870608 1_555
