# generated using pymatgen
data_Cs2Al(NO3)5
_symmetry_space_group_name_H-M   'P 1'
_cell_length_a   11.29777735
_cell_length_b   11.29777735
_cell_length_c   10.17580300
_cell_angle_alpha   90.00000000
_cell_angle_beta   90.00000000
_cell_angle_gamma   119.99999617
_symmetry_Int_Tables_number   1
_chemical_formula_structural   Cs2Al(NO3)5
_chemical_formula_sum   'Cs6 Al3 N15 O45'
_cell_volume   1124.82604075
_cell_formula_units_Z   3
loop_
 _symmetry_equiv_pos_site_id
 _symmetry_equiv_pos_as_xyz
  1  'x, y, z'
loop_
 _atom_site_type_symbol
 _atom_site_label
 _atom_site_symmetry_multiplicity
 _atom_site_fract_x
 _atom_site_fract_y
 _atom_site_fract_z
 _atom_site_occupancy
  Cs  Cs0  1  0.00000000  0.70500600  0.66666700  1
  Cs  Cs1  1  0.45799600  0.45799600  0.50000000  1
  Cs  Cs2  1  0.00000000  0.54200400  0.16666700  1
  Cs  Cs3  1  0.70500600  0.00000000  0.33333300  1
  Cs  Cs4  1  0.54200400  0.00000000  0.83333300  1
  Cs  Cs5  1  0.29499400  0.29499400  0.00000000  1
  Al  Al0  1  0.68609100  0.68609100  0.00000000  1
  Al  Al1  1  0.31390900  0.00000000  0.33333300  1
  Al  Al2  1  0.00000000  0.31390900  0.66666700  1
  N  N0  1  0.74737900  0.65467100  0.27315600  1
  N  N1  1  0.25262100  0.90729200  0.06017800  1
  N  N2  1  0.75732000  0.31638300  0.57881300  1
  N  N3  1  0.90030400  0.90030400  0.00000000  1
  N  N4  1  0.31638300  0.75732000  0.42118700  1
  N  N5  1  0.09969600  0.00000000  0.33333300  1
  N  N6  1  0.24268000  0.55906200  0.75452100  1
  N  N7  1  0.34532900  0.09270800  0.60648900  1
  N  N8  1  0.44093800  0.68361700  0.08785400  1
  N  N9  1  0.09270800  0.34532900  0.39351100  1
  N  N10  1  0.65467100  0.74737900  0.72684400  1
  N  N11  1  0.68361700  0.44093800  0.91214600  1
  N  N12  1  0.00000000  0.09969600  0.66666700  1
  N  N13  1  0.90729200  0.25262100  0.93982200  1
  N  N14  1  0.55906200  0.24268000  0.24547900  1
  O  O0  1  0.18883700  0.37724100  0.31623300  1
  O  O1  1  0.12401400  0.36207800  0.52076800  1
  O  O2  1  0.48962800  0.10780800  0.26369900  1
  O  O3  1  0.00809200  0.00809200  0.00000000  1
  O  O4  1  0.20797200  0.08848500  0.26977900  1
  O  O5  1  0.61074900  0.31582800  0.90107900  1
  O  O6  1  0.08848500  0.20797200  0.73022100  1
  O  O7  1  0.30061100  0.97190200  0.64083900  1
  O  O8  1  0.32870900  0.02809800  0.02582800  1
  O  O9  1  0.36207800  0.12401400  0.47923200  1
  O  O10  1  0.31582800  0.61074900  0.09892100  1
  O  O11  1  0.89219200  0.38182000  0.59703200  1
  O  O12  1  0.63792200  0.76193600  0.85410100  1
  O  O13  1  0.61818000  0.51037200  0.93036600  1
  O  O14  1  0.81159700  0.62275900  0.35043400  1
  O  O15  1  0.37724100  0.18883700  0.68376700  1
  O  O16  1  0.38182000  0.89219200  0.40296800  1
  O  O17  1  0.10780800  0.48962800  0.73630100  1
  O  O18  1  0.97190200  0.30061100  0.35916100  1
  O  O19  1  0.11948700  0.91151500  0.39688800  1
  O  O20  1  0.76193600  0.63792200  0.14589900  1
  O  O21  1  0.81070200  0.50473900  0.90614100  1
  O  O22  1  0.69403700  0.18929800  0.57280800  1
  O  O23  1  0.18929800  0.69403700  0.42719200  1
  O  O24  1  0.69938900  0.67129100  0.69249400  1
  O  O25  1  0.88051300  0.79202800  0.93644500  1
  O  O26  1  0.23806400  0.87598600  0.18743500  1
  O  O27  1  0.29492200  0.68417200  0.76558800  1
  O  O28  1  0.67129100  0.69938900  0.30750600  1
  O  O29  1  0.70507800  0.38925100  0.56774500  1
  O  O30  1  0.51037200  0.61818000  0.06963400  1
  O  O31  1  0.62275900  0.81159700  0.64956600  1
  O  O32  1  0.81116300  0.18840300  0.01710000  1
  O  O33  1  0.00000000  0.99190800  0.66666700  1
  O  O34  1  0.38925100  0.70507800  0.43225500  1
  O  O35  1  0.50473900  0.81070200  0.09385900  1
  O  O36  1  0.87598600  0.23806400  0.81256500  1
  O  O37  1  0.30596300  0.49526100  0.76052500  1
  O  O38  1  0.79202800  0.88051300  0.06355500  1
  O  O39  1  0.18840300  0.81116300  0.98290000  1
  O  O40  1  0.91151500  0.11948700  0.60311200  1
  O  O41  1  0.49526100  0.30596300  0.23947500  1
  O  O42  1  0.68417200  0.29492200  0.23441200  1
  O  O43  1  0.99190800  0.00000000  0.33333300  1
  O  O44  1  0.02809800  0.32870900  0.97417200  1
loop_
_geom_bond_atom_site_label_1
_geom_bond_atom_site_label_2
_geom_bond_distance
_geom_bond_site_symmetry_2
Cs0 O24 3.233409 1_455
Cs0 O7 3.233410 1_555
Cs0 O33 3.241355 1_555
Cs0 O21 3.285177 1_455
Cs0 O23 3.285185 1_555
Cs0 O17 3.297003 1_555
Cs0 O11 3.297006 1_455
Cs0 O25 3.413545 1_455
Cs0 O19 3.413553 1_555
Cs0 O29 3.599288 1_455
Cs0 O27 3.599291 1_555
Cs0 O14 3.710967 1_455
Cs0 O39 3.710968 1_555
Cs1 O24 3.241836 1_555
Cs1 O28 3.241836 1_555
Cs1 O0 3.286623 1_555
Cs1 O15 3.286623 1_555
Cs1 O37 3.298293 1_555
Cs1 O41 3.298293 1_555
Cs1 O29 3.322472 1_555
Cs1 O34 3.322472 1_555
Cs1 O9 3.371573 1_555
Cs1 O1 3.371573 1_555
Cs2 O18 3.241836 1_455
Cs2 O44 3.241842 1_554
Cs2 O14 3.286614 1_455
Cs2 O39 3.286621 1_554
Cs2 O23 3.298293 1_555
Cs2 O21 3.298301 1_454
Cs2 O42 3.322479 1_455
Cs2 O10 3.322485 1_555
Cs2 O20 3.371573 1_455
Cs2 O26 3.371573 1_555
Cs3 O28 3.233409 1_545
Cs3 O18 3.233410 1_555
Cs3 O43 3.241355 1_555
Cs3 O35 3.285177 1_545
Cs3 O22 3.285185 1_555
Cs3 O2 3.297003 1_555
Cs3 O16 3.297006 1_545
Cs3 O38 3.413545 1_545
Cs3 O40 3.413553 1_555
Cs3 O34 3.599288 1_545
Cs3 O42 3.599291 1_555
Cs3 O31 3.710967 1_545
Cs3 O32 3.710968 1_555
Cs4 O7 3.241836 1_545
Cs4 O8 3.241842 1_556
Cs4 O31 3.286614 1_545
Cs4 O32 3.286621 1_556
Cs4 O22 3.298293 1_555
Cs4 O35 3.298301 1_546
Cs4 O27 3.322479 1_545
Cs4 O5 3.322485 1_555
Cs4 O12 3.371573 1_545
Cs4 O36 3.371573 1_555
Cs5 O8 3.233410 1_555
Cs5 O44 3.233410 1_554
Cs5 O3 3.241355 1_555
Cs5 O37 3.285185 1_554
Cs5 O41 3.285185 1_555
Cs5 O30 3.297004 1_555
Cs5 O13 3.297004 1_554
Cs5 O4 3.413553 1_555
Cs5 O6 3.413553 1_554
Cs5 O5 3.599280 1_554
Cs5 O10 3.599280 1_555
Cs5 O15 3.710972 1_554
Cs5 O0 3.710972 1_555
Al0 O30 1.873165 1_555
Al0 O13 1.873165 1_554
Al0 O20 1.923765 1_555
Al0 O12 1.923765 1_554
Al0 O38 2.011604 1_555
Al0 O25 2.011604 1_554
Al1 O2 1.873165 1_555
Al1 O16 1.873169 1_545
Al1 O26 1.923757 1_545
Al1 O9 1.923765 1_555
Al1 O4 2.011600 1_555
Al1 O19 2.011604 1_545
Al2 O17 1.873165 1_555
Al2 O11 1.873169 1_455
Al2 O36 1.923757 1_455
Al2 O1 1.923765 1_555
Al2 O6 2.011600 1_555
Al2 O40 2.011604 1_455
N0 O14 1.239480 1_555
N0 O28 1.245259 1_555
N0 O20 1.330733 1_555
N1 O39 1.239474 1_554
N1 O8 1.245259 1_565
N1 O26 1.330733 1_555
N2 O29 1.234776 1_555
N2 O22 1.244924 1_555
N2 O11 1.332760 1_555
N3 O3 1.217765 1_665
N3 O25 1.300437 1_554
N3 O38 1.300437 1_555
N4 O34 1.234776 1_555
N4 O23 1.244924 1_555
N4 O16 1.332760 1_555
N5 O43 1.217765 1_455
N5 O4 1.300432 1_555
N5 O19 1.300437 1_545
N6 O27 1.234775 1_555
N6 O37 1.244914 1_555
N6 O17 1.332762 1_555
N7 O15 1.239472 1_555
N7 O7 1.245259 1_545
N7 O9 1.330733 1_555
N8 O10 1.234775 1_555
N8 O35 1.244924 1_555
N8 O30 1.332752 1_555
N9 O0 1.239472 1_555
N9 O18 1.245259 1_455
N9 O1 1.330733 1_555
N10 O31 1.239480 1_555
N10 O24 1.245259 1_555
N10 O12 1.330733 1_555
N11 O5 1.234775 1_555
N11 O21 1.244924 1_555
N11 O13 1.332752 1_555
N12 O33 1.217765 1_545
N12 O6 1.300432 1_555
N12 O40 1.300437 1_455
N13 O32 1.239474 1_556
N13 O44 1.245259 1_655
N13 O36 1.330733 1_555
N14 O42 1.234775 1_555
N14 O41 1.244914 1_555
N14 O2 1.332762 1_555
