# generated using pymatgen
data_Ba6CdAg2(SnS4)4
_symmetry_space_group_name_H-M   'P 1'
_cell_length_a   12.94995833
_cell_length_b   12.94995833
_cell_length_c   12.94995833
_cell_angle_alpha   109.39326852
_cell_angle_beta   109.39326852
_cell_angle_gamma   109.62723761
_symmetry_Int_Tables_number   1
_chemical_formula_structural   Ba6CdAg2(SnS4)4
_chemical_formula_sum   'Ba12 Cd2 Ag4 Sn8 S32'
_cell_volume   1671.78647164
_cell_formula_units_Z   2
loop_
 _symmetry_equiv_pos_site_id
 _symmetry_equiv_pos_as_xyz
  1  'x, y, z'
loop_
 _atom_site_type_symbol
 _atom_site_label
 _atom_site_symmetry_multiplicity
 _atom_site_fract_x
 _atom_site_fract_y
 _atom_site_fract_z
 _atom_site_occupancy
  Ba  Ba0  1  0.35750600  0.35750600  0.00000000  1
  Ba  Ba1  1  0.62500000  0.89294600  0.76794600  1
  Ba  Ba2  1  0.10705400  0.87500000  0.73205400  1
  Ba  Ba3  1  0.62500000  0.60593100  0.48093100  1
  Ba  Ba4  1  0.14294600  0.37500000  0.26794600  1
  Ba  Ba5  1  0.64249400  0.64249400  0.00000000  1
  Ba  Ba6  1  0.39406900  0.87500000  0.01906900  1
  Ba  Ba7  1  0.12500000  0.85705400  0.23205400  1
  Ba  Ba8  1  0.89249400  0.39249400  0.50000000  1
  Ba  Ba9  1  0.85593100  0.37500000  0.98093100  1
  Ba  Ba10  1  0.60750600  0.10750600  0.50000000  1
  Ba  Ba11  1  0.12500000  0.14406900  0.51906900  1
  Cd  Cd0  1  0.25000000  0.75000000  0.50000000  1
  Cd  Cd1  1  0.00000000  0.00000000  0.00000000  1
  Ag  Ag0  1  0.62500000  0.25005100  0.12505100  1
  Ag  Ag1  1  0.50005100  0.37500000  0.62505100  1
  Ag  Ag2  1  0.12500000  0.49994900  0.87494900  1
  Ag  Ag3  1  0.74994900  0.87500000  0.37494900  1
  Sn  Sn0  1  0.42078500  0.12715000  0.75354400  1
  Sn  Sn1  1  0.91724100  0.12360600  0.74645600  1
  Sn  Sn2  1  0.87285000  0.62639400  0.29363500  1
  Sn  Sn3  1  0.33275900  0.57921500  0.70636500  1
  Sn  Sn4  1  0.82921500  0.08275900  0.20636500  1
  Sn  Sn5  1  0.87639400  0.62285000  0.79363500  1
  Sn  Sn6  1  0.37715000  0.17078500  0.25354400  1
  Sn  Sn7  1  0.37360600  0.66724100  0.24645600  1
  S  S0  1  0.60200900  0.12339600  0.74897100  1
  S  S1  1  0.85217600  0.27683800  0.20761000  1
  S  S2  1  0.91949900  0.14217300  0.94369800  1
  S  S3  1  0.68367000  0.45036300  0.09925600  1
  S  S4  1  0.10303700  0.12442400  0.75102900  1
  S  S5  1  0.05152500  0.60782700  0.27732600  1
  S  S6  1  0.72316200  0.93077200  0.57533800  1
  S  S7  1  0.39217300  0.66949900  0.44369800  1
  S  S8  1  0.39782400  0.10543400  0.92466200  1
  S  S9  1  0.02419900  0.08050100  0.22267400  1
  S  S10  1  0.85782700  0.80152500  0.77732600  1
  S  S11  1  0.19847500  0.97580100  0.05630200  1
  S  S12  1  0.52683800  0.60217600  0.70761000  1
  S  S13  1  0.14696300  0.39799100  0.52138700  1
  S  S14  1  0.87660400  0.62557600  0.47861300  1
  S  S15  1  0.37339600  0.35200900  0.24897100  1
  S  S16  1  0.33050100  0.77419900  0.72267400  1
  S  S17  1  0.06922800  0.64456600  0.79239000  1
  S  S18  1  0.87557600  0.62660400  0.97861300  1
  S  S19  1  0.64799100  0.89696300  0.02138700  1
  S  S20  1  0.70036300  0.43367000  0.59925600  1
  S  S21  1  0.41558600  0.31633000  0.76669300  1
  S  S22  1  0.35543400  0.14782400  0.42466200  1
  S  S23  1  0.56633000  0.16558600  0.26669300  1
  S  S24  1  0.35110600  0.58441400  0.90074400  1
  S  S25  1  0.89889400  0.29963700  0.73330700  1
  S  S26  1  0.54963700  0.64889400  0.23330700  1
  S  S27  1  0.18077200  0.47316200  0.07533800  1
  S  S28  1  0.22580100  0.94847500  0.55630200  1
  S  S29  1  0.83441400  0.10110600  0.40074400  1
  S  S30  1  0.37442400  0.85303700  0.25102900  1
  S  S31  1  0.89456600  0.81922800  0.29239000  1
loop_
_geom_bond_atom_site_label_1
_geom_bond_atom_site_label_2
_geom_bond_distance
_geom_bond_site_symmetry_2
Ba0 S15 3.188151 1_555
Ba0 S4 3.188159 1_554
Ba0 S21 3.269104 1_554
Ba0 S26 3.269112 1_555
Ba0 S8 3.353881 1_554
Ba0 S27 3.353881 1_555
Ba0 S3 3.590910 1_555
Ba0 S24 3.590913 1_554
Ba1 S19 3.176551 1_556
Ba1 S0 3.176556 1_565
Ba1 S12 3.252074 1_555
Ba1 S6 3.252074 1_555
Ba1 S16 3.351072 1_555
Ba1 S2 3.351072 1_565
Ba1 S7 3.571766 1_555
Ba1 S10 3.571766 1_555
Ba2 S4 3.176548 1_565
Ba2 S14 3.176551 1_455
Ba2 S8 3.252074 1_565
Ba2 S17 3.252074 1_555
Ba2 S10 3.351072 1_455
Ba2 S28 3.351072 1_555
Ba2 S16 3.571766 1_555
Ba2 S11 3.571766 1_556
Ba3 S14 3.192969 1_555
Ba3 S15 3.192973 1_555
Ba3 S10 3.311578 1_555
Ba3 S7 3.311578 1_555
Ba3 S20 3.319078 1_555
Ba3 S26 3.319085 1_555
Ba3 S6 3.573062 1_555
Ba3 S12 3.573062 1_555
Ba4 S13 3.176551 1_555
Ba4 S15 3.176556 1_555
Ba4 S27 3.252074 1_555
Ba4 S1 3.252074 1_455
Ba4 S7 3.351072 1_555
Ba4 S9 3.351072 1_555
Ba4 S2 3.571766 1_454
Ba4 S5 3.571766 1_555
Ba5 S18 3.188164 1_554
Ba5 S19 3.188164 1_555
Ba5 S3 3.269104 1_555
Ba5 S24 3.269117 1_554
Ba5 S12 3.353881 1_554
Ba5 S31 3.353881 1_555
Ba5 S26 3.590909 1_555
Ba5 S21 3.590910 1_554
Ba6 S19 3.192969 1_555
Ba6 S30 3.192982 1_555
Ba6 S11 3.311578 1_555
Ba6 S16 3.311578 1_554
Ba6 S24 3.319073 1_554
Ba6 S23 3.319078 1_565
Ba6 S17 3.573062 1_554
Ba6 S8 3.573062 1_564
Ba7 S30 3.176548 1_555
Ba7 S18 3.176551 1_454
Ba7 S22 3.252074 1_565
Ba7 S31 3.252074 1_455
Ba7 S11 3.351072 1_555
Ba7 S5 3.351072 1_555
Ba7 S9 3.571766 1_565
Ba7 S28 3.571766 1_555
Ba8 S13 3.188164 1_655
Ba8 S14 3.188164 1_555
Ba8 S20 3.269104 1_555
Ba8 S29 3.269117 1_555
Ba8 S1 3.353881 1_555
Ba8 S17 3.353881 1_655
Ba8 S25 3.590909 1_555
Ba8 S23 3.590910 1_555
Ba9 S18 3.192969 1_555
Ba9 S0 3.192973 1_555
Ba9 S5 3.311578 1_656
Ba9 S2 3.311578 1_555
Ba9 S3 3.319078 1_556
Ba9 S25 3.319085 1_555
Ba9 S27 3.573062 1_656
Ba9 S1 3.573062 1_556
Ba10 S0 3.188151 1_555
Ba10 S30 3.188159 1_545
Ba10 S23 3.269104 1_555
Ba10 S25 3.269112 1_555
Ba10 S6 3.353881 1_545
Ba10 S22 3.353881 1_555
Ba10 S20 3.590910 1_555
Ba10 S29 3.590913 1_555
Ba11 S13 3.192969 1_555
Ba11 S4 3.192982 1_555
Ba11 S28 3.311578 1_545
Ba11 S9 3.311578 1_555
Ba11 S29 3.319073 1_455
Ba11 S21 3.319078 1_555
Ba11 S22 3.573062 1_555
Ba11 S31 3.573062 1_445
Cd0 S16 2.585397 1_555
Cd0 S28 2.585397 1_555
Cd0 S7 2.585397 1_555
Cd0 S5 2.585397 1_555
Cd1 S9 2.585397 1_555
Cd1 S11 2.585397 1_545
Cd1 S10 2.585397 1_444
Cd1 S2 2.585397 1_454
Ag0 S3 2.614922 1_555
Ag0 S23 2.614922 1_555
Ag0 S1 2.626326 1_555
Ag0 S8 2.626326 1_554
Ag1 S20 2.614922 1_555
Ag1 S21 2.614922 1_555
Ag1 S12 2.626326 1_555
Ag1 S22 2.626326 1_555
Ag2 S24 2.614910 1_555
Ag2 S25 2.614915 1_455
Ag2 S17 2.626326 1_555
Ag2 S27 2.626326 1_556
Ag3 S29 2.614910 1_565
Ag3 S26 2.614915 1_555
Ag3 S31 2.626326 1_555
Ag3 S6 2.626326 1_555
S0 Sn0 2.383395 1_555
S1 Sn4 2.423486 1_555
S2 Sn1 2.474026 1_555
S3 Sn2 2.424209 1_555
S4 Sn1 2.383387 1_455
S5 Sn2 2.474026 1_455
S6 Sn1 2.423486 1_565
S7 Sn7 2.474026 1_555
S8 Sn0 2.423486 1_555
S9 Sn4 2.474026 1_455
S10 Sn5 2.474026 1_555
S11 Sn6 2.474026 1_565
S12 Sn3 2.423486 1_555
S13 Sn3 2.383391 1_555
S14 Sn2 2.383391 1_555
S15 Sn6 2.383395 1_555
S16 Sn3 2.474026 1_555
S17 Sn5 2.423486 1_455
S18 Sn5 2.383391 1_555
S19 Sn4 2.383391 1_565
S20 Sn5 2.424209 1_555
S21 Sn0 2.424209 1_555
S22 Sn6 2.423486 1_555
S23 Sn6 2.424209 1_555
S24 Sn3 2.424212 1_555
S25 Sn1 2.424204 1_555
S26 Sn7 2.424204 1_555
S27 Sn7 2.423486 1_555
S28 Sn0 2.474026 1_565
S29 Sn4 2.424212 1_555
S30 Sn7 2.383387 1_555
S31 Sn2 2.423486 1_555
