# generated using pymatgen
data_TbMn2BiO6
_symmetry_space_group_name_H-M   'P 1'
_cell_length_a   6.01061270
_cell_length_b   6.01061270
_cell_length_c   6.01061270
_cell_angle_alpha   60.00000000
_cell_angle_beta   60.00000000
_cell_angle_gamma   60.00000000
_symmetry_Int_Tables_number   1
_chemical_formula_structural   TbMn2BiO6
_chemical_formula_sum   'Tb1 Mn2 Bi1 O6'
_cell_volume   153.54696491
_cell_formula_units_Z   1
loop_
 _symmetry_equiv_pos_site_id
 _symmetry_equiv_pos_as_xyz
  1  'x, y, z'
loop_
 _atom_site_type_symbol
 _atom_site_label
 _atom_site_symmetry_multiplicity
 _atom_site_fract_x
 _atom_site_fract_y
 _atom_site_fract_z
 _atom_site_occupancy
  Tb  Tb0  1  0.00000000  0.00000000  0.00000000  1
  Mn  Mn0  1  0.75000000  0.75000000  0.75000000  1
  Mn  Mn1  1  0.25000000  0.25000000  0.25000000  1
  Bi  Bi0  1  0.50000000  0.50000000  0.50000000  1
  O  O0  1  0.25616300  0.74383700  0.25616300  1
  O  O1  1  0.74383700  0.74383700  0.25616300  1
  O  O2  1  0.74383700  0.25616300  0.74383700  1
  O  O3  1  0.25616300  0.25616300  0.74383700  1
  O  O4  1  0.25616300  0.74383700  0.74383700  1
  O  O5  1  0.74383700  0.25616300  0.25616300  1
loop_
_geom_bond_atom_site_label_1
_geom_bond_atom_site_label_2
_geom_bond_distance
_geom_bond_site_symmetry_2
Bi0 O2 2.072685 1_555
Bi0 O4 2.072685 1_555
Bi0 O1 2.072685 1_555
Bi0 O5 2.072685 1_555
Bi0 O3 2.072685 1_555
Bi0 O0 2.072685 1_555
O0 Tb0 2.177460 1_565
O1 Tb0 2.177460 1_665
O2 Tb0 2.177460 1_656
O3 Tb0 2.177460 1_556
O4 Tb0 2.177460 1_566
O5 Tb0 2.177460 1_655
