# generated using pymatgen
data_BaH6F8
_symmetry_space_group_name_H-M   'P 1'
_cell_length_a   7.76837814
_cell_length_b   7.76834509
_cell_length_c   12.38604237
_cell_angle_alpha   90.00027260
_cell_angle_beta   89.99963433
_cell_angle_gamma   120.00015802
_symmetry_Int_Tables_number   1
_chemical_formula_structural   BaH6F8
_chemical_formula_sum   'Ba4 H24 F32'
_cell_volume   647.32349264
_cell_formula_units_Z   4
loop_
 _symmetry_equiv_pos_site_id
 _symmetry_equiv_pos_as_xyz
  1  'x, y, z'
loop_
 _atom_site_type_symbol
 _atom_site_label
 _atom_site_symmetry_multiplicity
 _atom_site_fract_x
 _atom_site_fract_y
 _atom_site_fract_z
 _atom_site_occupancy
  Ba  Ba0  1  0.66666901  0.33332997  0.56166710  1
  Ba  Ba1  1  0.33333537  0.66667761  0.06173653  1
  Ba  Ba2  1  0.33332934  0.66666608  0.43833295  1
  Ba  Ba3  1  0.66666008  0.33332114  0.93826210  1
  H  H0  1  0.62266865  0.72873822  0.66494911  1
  H  H1  1  0.10608255  0.37734070  0.83507863  1
  H  H2  1  0.82743170  -0.00000022  0.00000125  1
  H  H3  1  0.89392425  0.27127795  0.16491321  1
  H  H4  1  0.03454661  0.71783505  0.24998028  1
  H  H5  1  0.28214516  0.31669594  0.24997666  1
  H  H6  1  0.72872427  0.62265003  0.16491443  1
  H  H7  1  0.27126618  0.89392519  0.83507993  1
  H  H8  1  0.37732934  0.10608131  0.33505498  1
  H  H9  1  0.27126147  0.89392350  0.66494912  1
  H  H10  1  0.68328584  0.96545687  0.24997935  1
  H  H11  1  0.17256721  0.17257100  0.00000126  1
  H  H12  1  -0.00000004  0.82743301  0.00000237  1
  H  H13  1  0.62266388  0.72873411  0.83508276  1
  H  H14  1  0.96545254  0.68330915  0.75002745  1
  H  H15  1  0.31669559  0.28213854  0.75002488  1
  H  H16  1  0.89391915  0.27127505  0.33505416  1
  H  H17  1  0.82742253  -0.00000280  0.50000341  1
  H  H18  1  0.17258188  0.17258433  0.50000295  1
  H  H19  1  0.37734787  0.10607362  0.16491811  1
  H  H20  1  0.71785953  0.03455014  0.75002436  1
  H  H21  1  0.10607569  0.37733181  0.66494513  1
  H  H22  1  0.72872937  0.62264952  0.33505544  1
  H  H23  1  0.00000202  0.82742025  0.50000284  1
  F  F0  1  0.69658647  0.85253359  0.75007034  1
  F  F1  1  0.43791507  0.06741634  0.10496393  1
  F  F2  1  0.73434669  0.17123876  0.75003445  1
  F  F3  1  0.43787836  0.06743038  0.39503528  1
  F  F4  1  0.62954783  0.56213422  0.39504767  1
  F  F5  1  0.14746594  0.84405676  0.75007026  1
  F  F6  1  0.93259819  0.37049415  0.10494709  1
  F  F7  1  0.93258334  0.37045204  0.39504734  1
  F  F8  1  0.82875657  0.56309940  0.75003151  1
  F  F9  1  0.06742541  0.43787689  0.60496391  1
  F  F10  1  0.15595763  0.30340609  0.75006630  1
  F  F11  1  0.17124785  0.73435277  0.24996952  1
  F  F12  1  0.56208870  0.62950807  0.89504380  1
  F  F13  1  0.00000078  0.69866290  0.50000310  1
  F  F14  1  0.26565311  0.43690792  0.24997231  1
  F  F15  1  0.30133851  0.30133717  0.50000047  1
  F  F16  1  0.37044082  0.93256955  0.60495629  1
  F  F17  1  0.30341402  0.15595509  0.24992834  1
  F  F18  1  0.30131904  0.30131635  0.00000216  1
  F  F19  1  0.56212689  0.62955503  0.60495507  1
  F  F20  1  0.00000193  0.00000161  0.50000295  1
  F  F21  1  0.69868118  -0.00000061  0.00000376  1
  F  F22  1  0.06742494  0.43791994  0.89502306  1
  F  F23  1  0.00000302  0.69868574  0.00000504  1
  F  F24  1  0.84401520  0.14748142  0.24992735  1
  F  F25  1  0.37049779  0.93257315  0.89502931  1
  F  F26  1  0.62950693  0.56210364  0.10494944  1
  F  F27  1  0.85252707  0.69653421  0.24993041  1
  F  F28  1  0.56310432  0.82875443  0.24996834  1
  F  F29  1  0.43690726  0.26565104  0.75003556  1
  F  F30  1  0.69866619  0.00000021  0.50000218  1
  F  F31  1  -0.00000005  0.00000367  -0.00000227  1
loop_
_geom_bond_atom_site_label_1
_geom_bond_atom_site_label_2
_geom_bond_distance
_geom_bond_site_symmetry_2
Ba0 F8 2.822629 1_555
Ba0 F29 2.822639 1_555
Ba0 F2 2.822672 1_555
Ba0 F30 2.827344 1_555
Ba0 F13 2.827373 1_655
Ba0 F15 2.827409 1_555
Ba0 F7 2.830851 1_555
Ba0 F3 2.830912 1_555
Ba0 F4 2.830920 1_555
Ba0 F9 2.847973 1_655
Ba0 F16 2.847998 1_545
Ba0 F19 2.848029 1_555
Ba1 F11 2.821259 1_555
Ba1 F28 2.821267 1_555
Ba1 F14 2.821318 1_555
Ba1 F21 2.827627 1_565
Ba1 F23 2.827651 1_555
Ba1 F18 2.827769 1_555
Ba1 F12 2.831457 1_554
Ba1 F25 2.831468 1_554
Ba1 F22 2.831621 1_554
Ba1 F1 2.847596 1_565
Ba1 F6 2.847604 1_455
Ba1 F26 2.847643 1_555
Ba2 F14 2.822545 1_555
Ba2 F11 2.822623 1_555
Ba2 F28 2.822648 1_555
Ba2 F13 2.827360 1_555
Ba2 F15 2.827393 1_555
Ba2 F30 2.827419 1_565
Ba2 F16 2.830844 1_555
Ba2 F19 2.830883 1_555
Ba2 F9 2.830913 1_555
Ba2 F7 2.847892 1_455
Ba2 F4 2.847926 1_555
Ba2 F3 2.848015 1_565
Ba3 F29 2.821172 1_555
Ba3 F2 2.821218 1_555
Ba3 F8 2.821297 1_555
Ba3 F21 2.827650 1_556
Ba3 F18 2.827685 1_556
Ba3 F23 2.827809 1_656
Ba3 F1 2.831466 1_556
Ba3 F6 2.831479 1_556
Ba3 F26 2.831507 1_556
Ba3 F25 2.847666 1_545
Ba3 F12 2.847748 1_555
Ba3 F22 2.847790 1_655
F0 H20 1.339009 1_565
F0 H13 1.345785 1_555
F0 H0 1.346820 1_555
F1 H19 1.002146 1_555
F2 H20 1.003951 1_555
F3 H8 1.002279 1_555
F4 H22 1.002284 1_555
F5 H14 1.339008 1_455
F5 H7 1.345772 1_555
F5 H9 1.346826 1_555
F6 H3 1.002207 1_555
F7 H16 1.002271 1_555
F8 H14 1.004011 1_555
F9 H21 1.002265 1_555
F10 H15 1.338947 1_555
F10 H1 1.345828 1_555
F10 H21 1.346878 1_555
F11 H4 1.003958 1_555
F12 H13 1.002223 1_555
F13 H23 1.000227 1_555
F14 H5 1.004056 1_555
F15 H18 1.000211 1_555
F16 H9 1.002292 1_555
F17 H5 1.338971 1_555
F17 H19 1.345829 1_555
F17 H8 1.346854 1_555
F18 H11 1.000163 1_555
F19 H0 1.002325 1_555
F20 H17 1.340645 1_455
F20 H18 1.340671 1_555
F20 H23 1.340672 1_545
F21 H2 1.000181 1_555
F22 H1 1.002116 1_555
F23 H12 1.000165 1_555
F24 H10 1.339001 1_545
F24 H3 1.345773 1_555
F24 H16 1.346851 1_555
F25 H7 1.002149 1_555
F26 H6 1.002207 1_555
F27 H4 1.338951 1_655
F27 H6 1.345816 1_555
F27 H22 1.346848 1_555
F28 H10 1.003952 1_555
F29 H15 1.004036 1_555
F30 H17 1.000240 1_555
F31 H2 1.340560 1_455
F31 H11 1.340562 1_555
F31 H12 1.340588 1_545
