# generated using pymatgen
data_Cu10Sn3
_symmetry_space_group_name_H-M   'P 1'
_cell_length_a   7.22479834
_cell_length_b   7.22479834
_cell_length_c   8.78026500
_cell_angle_alpha   90.00000000
_cell_angle_beta   90.00000000
_cell_angle_gamma   120.00000313
_symmetry_Int_Tables_number   1
_chemical_formula_structural   Cu10Sn3
_chemical_formula_sum   'Cu20 Sn6'
_cell_volume   396.90786138
_cell_formula_units_Z   2
loop_
 _symmetry_equiv_pos_site_id
 _symmetry_equiv_pos_as_xyz
  1  'x, y, z'
loop_
 _atom_site_type_symbol
 _atom_site_label
 _atom_site_symmetry_multiplicity
 _atom_site_fract_x
 _atom_site_fract_y
 _atom_site_fract_z
 _atom_site_occupancy
  Cu  Cu0  1  0.31811000  0.00000000  0.55477100  1
  Cu  Cu1  1  0.00000000  0.00000000  0.66124700  1
  Cu  Cu2  1  0.00000000  0.68189000  0.44522900  1
  Cu  Cu3  1  0.00000000  0.31655800  0.23267600  1
  Cu  Cu4  1  0.68344200  0.68344200  0.23267600  1
  Cu  Cu5  1  0.68189000  0.68189000  0.55477100  1
  Cu  Cu6  1  0.00000000  0.00000000  0.33875300  1
  Cu  Cu7  1  0.27202500  0.00000000  0.90855500  1
  Cu  Cu8  1  0.31655800  0.00000000  0.23267600  1
  Cu  Cu9  1  0.00000000  0.27202500  0.90855500  1
  Cu  Cu10  1  0.68189000  0.00000000  0.44522900  1
  Cu  Cu11  1  0.00000000  0.31811000  0.55477100  1
  Cu  Cu12  1  0.31655800  0.31655800  0.76732400  1
  Cu  Cu13  1  0.27202500  0.27202500  0.09144500  1
  Cu  Cu14  1  0.00000000  0.68344200  0.76732400  1
  Cu  Cu15  1  0.68344200  0.00000000  0.76732400  1
  Cu  Cu16  1  0.00000000  0.72797500  0.09144500  1
  Cu  Cu17  1  0.72797500  0.72797500  0.90855500  1
  Cu  Cu18  1  0.31811000  0.31811000  0.44522900  1
  Cu  Cu19  1  0.72797500  0.00000000  0.09144500  1
  Sn  Sn0  1  0.33333300  0.66666700  0.33322700  1
  Sn  Sn1  1  0.33333300  0.66666700  0.66677300  1
  Sn  Sn2  1  0.66666700  0.33333300  0.66677300  1
  Sn  Sn3  1  0.66666700  0.33333300  0.33322700  1
  Sn  Sn4  1  0.66666700  0.33333300  0.00000000  1
  Sn  Sn5  1  0.33333300  0.66666700  0.00000000  1
loop_
_geom_bond_atom_site_label_1
_geom_bond_atom_site_label_2
_geom_bond_distance
_geom_bond_site_symmetry_2
Cu0 Cu1 2.481151 1_555
Cu0 Cu2 2.491419 1_545
Cu0 Cu18 2.491419 1_555
Cu0 Sn1 2.654014 1_545
Cu0 Sn2 2.654017 1_555
Cu1 Cu12 2.469444 1_555
Cu1 Cu15 2.469444 1_455
Cu1 Cu14 2.469444 1_545
Cu1 Cu5 2.481151 1_445
Cu1 Cu11 2.481151 1_555
Cu2 Cu6 2.481151 1_565
Cu2 Cu5 2.491419 1_455
Cu2 Sn0 2.654014 1_555
Cu2 Sn3 2.654017 1_455
Cu3 Cu6 2.469444 1_555
Cu3 Sn3 2.624070 1_455
Cu3 Sn0 2.624074 1_555
Cu3 Sn4 3.206239 1_455
Cu3 Sn5 3.206242 1_555
Cu4 Cu6 2.469444 1_665
Cu4 Sn3 2.624077 1_555
Cu4 Sn0 2.624077 1_555
Cu4 Sn4 3.206244 1_555
Cu4 Sn5 3.206244 1_555
Cu5 Sn2 2.654020 1_555
Cu5 Sn1 2.654020 1_555
Cu6 Cu8 2.469444 1_555
Cu7 Sn5 2.776204 1_546
Cu7 Sn4 2.776208 1_556
Cu8 Sn0 2.624070 1_545
Cu8 Sn3 2.624074 1_555
Cu8 Sn5 3.206239 1_545
Cu8 Sn4 3.206242 1_555
Cu9 Sn4 2.776204 1_456
Cu9 Sn5 2.776208 1_556
Cu10 Cu6 2.481151 1_655
Cu10 Cu11 2.491419 1_655
Cu10 Cu5 2.491419 1_545
Cu10 Sn3 2.654014 1_555
Cu10 Sn0 2.654017 1_545
Cu11 Cu18 2.491419 1_555
Cu11 Sn2 2.654014 1_455
Cu11 Sn1 2.654017 1_555
Cu12 Cu7 2.477108 1_555
Cu12 Cu9 2.477108 1_555
Cu12 Sn1 2.624077 1_555
Cu12 Sn2 2.624077 1_555
Cu12 Sn4 3.206244 1_556
Cu12 Sn5 3.206244 1_556
Cu13 Cu8 2.477108 1_555
Cu13 Cu3 2.477108 1_555
Cu13 Cu9 2.537946 1_554
Cu13 Cu7 2.537946 1_554
Cu13 Sn4 2.776210 1_555
Cu13 Sn5 2.776210 1_555
Cu14 Cu7 2.477108 1_565
Cu14 Cu17 2.477108 1_455
Cu14 Sn1 2.624070 1_555
Cu14 Sn2 2.624074 1_455
Cu14 Sn5 3.206239 1_556
Cu14 Sn4 3.206242 1_456
Cu15 Cu9 2.477108 1_655
Cu15 Cu17 2.477108 1_545
Cu15 Sn2 2.624070 1_555
Cu15 Sn1 2.624074 1_545
Cu15 Sn4 3.206239 1_556
Cu15 Sn5 3.206242 1_546
Cu16 Cu8 2.477108 1_565
Cu16 Cu4 2.477108 1_455
Cu16 Cu7 2.537946 1_564
Cu16 Cu17 2.537946 1_454
Cu16 Sn5 2.776204 1_555
Cu16 Sn4 2.776208 1_455
Cu17 Cu19 2.537946 1_566
Cu17 Sn4 2.776210 1_556
Cu17 Sn5 2.776210 1_556
Cu18 Cu6 2.481151 1_555
Cu18 Sn0 2.654020 1_555
Cu18 Sn3 2.654020 1_555
Cu19 Cu3 2.477108 1_655
Cu19 Cu4 2.477108 1_545
Cu19 Cu9 2.537946 1_654
Cu19 Sn4 2.776204 1_555
Cu19 Sn5 2.776208 1_545
Sn0 Sn5 2.925821 1_555
Sn1 Sn5 2.925821 1_556
Sn2 Sn4 2.925821 1_556
Sn3 Sn4 2.925821 1_555
