# generated using pymatgen
data_Fe3P2H3O11
_symmetry_space_group_name_H-M   'P 1'
_cell_length_a   8.13736100
_cell_length_b   9.61858800
_cell_length_c   9.89886800
_cell_angle_alpha   90.00000000
_cell_angle_beta   90.00000000
_cell_angle_gamma   90.00000000
_symmetry_Int_Tables_number   1
_chemical_formula_structural   Fe3P2H3O11
_chemical_formula_sum   'Fe12 P8 H12 O44'
_cell_volume   774.78363482
_cell_formula_units_Z   4
loop_
 _symmetry_equiv_pos_site_id
 _symmetry_equiv_pos_as_xyz
  1  'x, y, z'
loop_
 _atom_site_type_symbol
 _atom_site_label
 _atom_site_symmetry_multiplicity
 _atom_site_fract_x
 _atom_site_fract_y
 _atom_site_fract_z
 _atom_site_occupancy
  Fe  Fe0  1  0.00000000  0.00000000  0.00000000  1
  Fe  Fe1  1  0.50000000  0.50000000  0.00000000  1
  Fe  Fe2  1  0.00000000  0.00000000  0.50000000  1
  Fe  Fe3  1  0.50000000  0.50000000  0.50000000  1
  Fe  Fe4  1  0.63703300  0.04934400  0.11241100  1
  Fe  Fe5  1  0.13703300  0.45065600  0.88758900  1
  Fe  Fe6  1  0.36296700  0.04934400  0.38758900  1
  Fe  Fe7  1  0.86296700  0.45065600  0.61241100  1
  Fe  Fe8  1  0.36296700  0.95065600  0.88758900  1
  Fe  Fe9  1  0.86296700  0.54934400  0.11241100  1
  Fe  Fe10  1  0.63703300  0.95065600  0.61241100  1
  Fe  Fe11  1  0.13703300  0.54934400  0.38758900  1
  P  P0  1  0.28578800  0.20869300  0.10498300  1
  P  P1  1  0.78578800  0.29130700  0.89501700  1
  P  P2  1  0.71421200  0.20869300  0.39501700  1
  P  P3  1  0.21421200  0.29130700  0.60498300  1
  P  P4  1  0.71421200  0.79130700  0.89501700  1
  P  P5  1  0.21421200  0.70869300  0.10498300  1
  P  P6  1  0.28578800  0.79130700  0.60498300  1
  P  P7  1  0.78578800  0.70869300  0.39501700  1
  H  H0  1  0.50000000  0.84732800  0.25000000  1
  H  H1  1  0.00000000  0.65267200  0.75000000  1
  H  H2  1  0.50000000  0.15267200  0.75000000  1
  H  H3  1  0.00000000  0.34732800  0.25000000  1
  H  H4  1  0.15546100  0.87022000  0.31065000  1
  H  H5  1  0.65546100  0.62978000  0.68935000  1
  H  H6  1  0.84453900  0.87022000  0.18935000  1
  H  H7  1  0.34453900  0.62978000  0.81065000  1
  H  H8  1  0.84453900  0.12978000  0.68935000  1
  H  H9  1  0.34453900  0.37022000  0.31065000  1
  H  H10  1  0.15546100  0.12978000  0.81065000  1
  H  H11  1  0.65546100  0.37022000  0.18935000  1
  O  O0  1  0.33201100  0.21160300  0.25753900  1
  O  O1  1  0.83201100  0.28839700  0.74246100  1
  O  O2  1  0.66798900  0.21160300  0.24246100  1
  O  O3  1  0.16798900  0.28839700  0.75753900  1
  O  O4  1  0.66798900  0.78839700  0.74246100  1
  O  O5  1  0.16798900  0.71160300  0.25753900  1
  O  O6  1  0.33201100  0.78839700  0.75753900  1
  O  O7  1  0.83201100  0.71160300  0.24246100  1
  O  O8  1  0.41394000  0.11217200  0.03006000  1
  O  O9  1  0.91394000  0.38782800  0.96994000  1
  O  O10  1  0.58606000  0.11217200  0.46994000  1
  O  O11  1  0.08606000  0.38782800  0.53006000  1
  O  O12  1  0.58606000  0.88782800  0.96994000  1
  O  O13  1  0.08606000  0.61217200  0.03006000  1
  O  O14  1  0.41394000  0.88782800  0.53006000  1
  O  O15  1  0.91394000  0.61217200  0.46994000  1
  O  O16  1  0.29748000  0.35841400  0.04339700  1
  O  O17  1  0.79748000  0.14158600  0.95660300  1
  O  O18  1  0.70252000  0.35841400  0.45660300  1
  O  O19  1  0.20252000  0.14158600  0.54339700  1
  O  O20  1  0.70252000  0.64158600  0.95660300  1
  O  O21  1  0.20252000  0.85841400  0.04339700  1
  O  O22  1  0.29748000  0.64158600  0.54339700  1
  O  O23  1  0.79748000  0.85841400  0.45660300  1
  O  O24  1  0.11016300  0.15687600  0.08912800  1
  O  O25  1  0.61016300  0.34312400  0.91087200  1
  O  O26  1  0.88983700  0.15687600  0.41087200  1
  O  O27  1  0.38983700  0.34312400  0.58912800  1
  O  O28  1  0.88983700  0.84312400  0.91087200  1
  O  O29  1  0.38983700  0.65687600  0.08912800  1
  O  O30  1  0.11016300  0.84312400  0.58912800  1
  O  O31  1  0.61016300  0.65687600  0.41087200  1
  O  O32  1  0.50000000  0.94896200  0.25000000  1
  O  O33  1  0.00000000  0.55103800  0.75000000  1
  O  O34  1  0.50000000  0.05103800  0.75000000  1
  O  O35  1  0.00000000  0.44896200  0.25000000  1
  O  O36  1  0.15156700  0.96776000  0.34552300  1
  O  O37  1  0.65156700  0.53224000  0.65447700  1
  O  O38  1  0.84843300  0.96776000  0.15447700  1
  O  O39  1  0.34843300  0.53224000  0.84552300  1
  O  O40  1  0.84843300  0.03224000  0.65447700  1
  O  O41  1  0.34843300  0.46776000  0.34552300  1
  O  O42  1  0.15156700  0.03224000  0.84552300  1
  O  O43  1  0.65156700  0.46776000  0.15447700  1
loop_
_geom_bond_atom_site_label_1
_geom_bond_atom_site_label_2
_geom_bond_distance
_geom_bond_site_symmetry_2
Fe0 O28 1.964395 1_444
Fe0 O24 1.964395 1_555
Fe0 O42 1.988874 1_554
Fe0 O38 1.988874 1_445
Fe0 O21 2.180603 1_545
Fe0 O17 2.180603 1_454
Fe1 O25 1.964395 1_554
Fe1 O29 1.964395 1_555
Fe1 O39 1.988874 1_554
Fe1 O43 1.988874 1_555
Fe1 O16 2.180603 1_555
Fe1 O20 2.180603 1_554
Fe2 O26 1.964395 1_455
Fe2 O30 1.964395 1_545
Fe2 O40 1.988874 1_455
Fe2 O36 1.988874 1_545
Fe2 O19 2.180603 1_555
Fe2 O23 2.180603 1_445
Fe3 O27 1.964395 1_555
Fe3 O31 1.964395 1_555
Fe3 O41 1.988874 1_555
Fe3 O37 1.988874 1_555
Fe3 O22 2.180603 1_555
Fe3 O18 2.180603 1_555
Fe4 O38 1.936079 1_545
Fe4 O32 2.007648 1_545
Fe4 O2 2.038752 1_555
Fe4 O8 2.079749 1_555
Fe4 O12 2.138816 1_544
Fe4 O17 2.206939 1_554
Fe5 O39 1.936079 1_555
Fe5 O33 2.007648 1_555
Fe5 O3 2.038752 1_555
Fe5 O9 2.079749 1_455
Fe5 O13 2.138816 1_556
Fe5 O16 2.206939 1_556
Fe6 O36 1.936079 1_545
Fe6 O32 2.007648 1_545
Fe6 O0 2.038752 1_555
Fe6 O10 2.079749 1_555
Fe6 O14 2.138816 1_545
Fe6 O19 2.206939 1_555
Fe7 O37 1.936079 1_555
Fe7 O33 2.007648 1_655
Fe7 O1 2.038752 1_555
Fe7 O11 2.079749 1_655
Fe7 O15 2.138816 1_555
Fe7 O18 2.206939 1_555
Fe8 O42 1.936079 1_565
Fe8 O34 2.007648 1_565
Fe8 O6 2.038752 1_555
Fe8 O12 2.079749 1_555
Fe8 O8 2.138816 1_566
Fe8 O21 2.206939 1_556
Fe9 O43 1.936079 1_555
Fe9 O35 2.007648 1_655
Fe9 O7 2.038752 1_555
Fe9 O13 2.079749 1_655
Fe9 O9 2.138816 1_554
Fe9 O20 2.206939 1_554
Fe10 O40 1.936079 1_565
Fe10 O34 2.007648 1_565
Fe10 O4 2.038752 1_555
Fe10 O14 2.079749 1_555
Fe10 O10 2.138816 1_565
Fe10 O23 2.206939 1_555
Fe11 O41 1.936079 1_555
Fe11 O35 2.007648 1_555
Fe11 O5 2.038752 1_555
Fe11 O15 2.079749 1_455
Fe11 O11 2.138816 1_555
Fe11 O22 2.206939 1_555
H0 O32 0.977576 1_555
H1 O33 0.977576 1_555
H2 O34 0.977576 1_555
H3 O35 0.977576 1_555
H4 O36 1.000192 1_555
H4 O5 1.616932 1_555
H5 O37 1.000192 1_555
H5 O4 1.616932 1_555
H6 O38 1.000192 1_555
H6 O7 1.616932 1_555
H7 O39 1.000192 1_555
H7 O6 1.616932 1_555
H8 O40 1.000192 1_555
H8 O1 1.616932 1_555
H9 O41 1.000192 1_555
H9 O0 1.616932 1_555
H10 O42 1.000192 1_555
H10 O3 1.616932 1_555
H11 O43 1.000192 1_555
H11 O2 1.616932 1_555
O0 P0 1.556521 1_555
O1 P1 1.556521 1_555
O2 P2 1.556521 1_555
O3 P3 1.556521 1_555
O4 P4 1.556521 1_555
O5 P5 1.556521 1_555
O6 P6 1.556521 1_555
O7 P7 1.556521 1_555
O8 P0 1.580962 1_555
O9 P1 1.580962 1_555
O10 P2 1.580962 1_555
O11 P3 1.580962 1_555
O12 P4 1.580962 1_555
O13 P5 1.580962 1_555
O14 P6 1.580962 1_555
O15 P7 1.580962 1_555
O16 P0 1.566718 1_555
O17 P1 1.566718 1_555
O18 P2 1.566718 1_555
O19 P3 1.566718 1_555
O20 P4 1.566718 1_555
O21 P5 1.566718 1_555
O22 P6 1.566718 1_555
O23 P7 1.566718 1_555
O24 P0 1.521656 1_555
O25 P1 1.521656 1_555
O26 P2 1.521656 1_555
O27 P3 1.521656 1_555
O28 P4 1.521656 1_555
O29 P5 1.521656 1_555
O30 P6 1.521656 1_555
O31 P7 1.521656 1_555
