# generated using pymatgen
data_K3FeSe3
_symmetry_space_group_name_H-M   'P 1'
_cell_length_a   12.96895188
_cell_length_b   8.05261049
_cell_length_c   10.54066596
_cell_angle_alpha   52.50520681
_cell_angle_beta   90.00000000
_cell_angle_gamma   90.00000000
_symmetry_Int_Tables_number   1
_chemical_formula_structural   K3FeSe3
_chemical_formula_sum   'K12 Fe4 Se12'
_cell_volume   873.38666734
_cell_formula_units_Z   4
loop_
 _symmetry_equiv_pos_site_id
 _symmetry_equiv_pos_as_xyz
  1  'x, y, z'
loop_
 _atom_site_type_symbol
 _atom_site_label
 _atom_site_symmetry_multiplicity
 _atom_site_fract_x
 _atom_site_fract_y
 _atom_site_fract_z
 _atom_site_occupancy
  K  K0  1  0.19021725  0.12903502  0.58307001  1
  K  K1  1  0.08058015  0.64846502  0.60723469  1
  K  K2  1  0.62581115  0.37482380  0.47554669  1
  K  K3  1  0.37418885  0.62517620  0.52445331  1
  K  K4  1  0.87418885  0.37482380  0.97554669  1
  K  K5  1  0.58058015  0.35153498  0.89276531  1
  K  K6  1  0.12581115  0.62517620  0.02445331  1
  K  K7  1  0.91941985  0.35153498  0.39276531  1
  K  K8  1  0.30978275  0.12903502  0.08307001  1
  K  K9  1  0.41941985  0.64846502  0.10723469  1
  K  K10  1  0.80978275  0.87096498  0.41692999  1
  K  K11  1  0.69021725  0.87096498  0.91692999  1
  Fe  Fe0  1  0.44042740  0.93673255  0.66174750  1
  Fe  Fe1  1  0.94042740  0.06326745  0.83825250  1
  Fe  Fe2  1  0.55957260  0.06326745  0.33825250  1
  Fe  Fe3  1  0.05957260  0.93673255  0.16174750  1
  Se  Se0  1  0.61244071  0.84882200  0.62262010  1
  Se  Se1  1  0.45076317  0.12845031  0.76347971  1
  Se  Se2  1  0.82547768  0.35181799  0.68536725  1
  Se  Se3  1  0.38755929  0.15117800  0.37737990  1
  Se  Se4  1  0.11244071  0.15117800  0.87737990  1
  Se  Se5  1  0.17452232  0.64818201  0.31463275  1
  Se  Se6  1  0.54923683  0.87154969  0.23652029  1
  Se  Se7  1  0.32547768  0.64818201  0.81463275  1
  Se  Se8  1  0.88755929  0.84882200  0.12262010  1
  Se  Se9  1  0.95076317  0.87154969  0.73652029  1
  Se  Se10  1  0.04923683  0.12845031  0.26347971  1
  Se  Se11  1  0.67452232  0.35181799  0.18536725  1
loop_
_geom_bond_atom_site_label_1
_geom_bond_atom_site_label_2
_geom_bond_distance
_geom_bond_site_symmetry_2
K0 Se3 3.288158 1_555
K0 Se5 3.335265 1_555
K0 Se4 3.368443 1_555
K0 Se9 3.532211 1_445
K0 Se7 3.538710 1_545
K0 Se10 3.835409 1_555
K0 Se1 3.875957 1_555
K1 Se4 3.230060 1_555
K1 Se9 3.301351 1_455
K1 Se5 3.317424 1_555
K1 Se10 3.344285 1_565
K1 Se7 3.854921 1_555
K1 Se2 3.864603 1_455
K2 Se11 3.237094 1_555
K2 Se1 3.312231 1_555
K2 Se6 3.326420 1_555
K2 Se2 3.336503 1_555
K2 Se0 3.518611 1_545
K3 Se7 3.237094 1_555
K3 Se6 3.312231 1_555
K3 Se1 3.326420 1_555
K3 Se5 3.336503 1_555
K3 Se3 3.518611 1_565
K4 Se2 3.237094 1_555
K4 Se10 3.312231 1_656
K4 Se9 3.326420 1_555
K4 Se11 3.336503 1_556
K4 Se8 3.518611 1_546
K5 Se0 3.230060 1_555
K5 Se1 3.301351 1_555
K5 Se11 3.317424 1_556
K5 Se6 3.344285 1_546
K5 Se2 3.854921 1_555
K5 Se7 3.864603 1_555
K6 Se5 3.237094 1_555
K6 Se9 3.312231 1_454
K6 Se10 3.326420 1_555
K6 Se7 3.336503 1_554
K6 Se4 3.518611 1_564
K7 Se8 3.230060 1_555
K7 Se10 3.301351 1_655
K7 Se2 3.317424 1_555
K7 Se9 3.344285 1_545
K7 Se11 3.854921 1_555
K7 Se5 3.864603 1_655
K8 Se4 3.288158 1_554
K8 Se7 3.335265 1_554
K8 Se3 3.368443 1_555
K8 Se6 3.532211 1_545
K8 Se5 3.538710 1_545
K8 Se1 3.835409 1_554
K8 Se10 3.875957 1_555
K9 Se3 3.230060 1_555
K9 Se6 3.301351 1_555
K9 Se7 3.317424 1_554
K9 Se1 3.344285 1_564
K9 Se5 3.854921 1_555
K9 Se11 3.864603 1_555
K10 Se0 3.288158 1_555
K10 Se2 3.335265 1_555
K10 Se8 3.368443 1_555
K10 Se10 3.532211 1_665
K10 Se11 3.538710 1_565
K10 Se9 3.835409 1_555
K10 Se6 3.875957 1_555
K11 Se8 3.288158 1_556
K11 Se11 3.335265 1_556
K11 Se0 3.368443 1_555
K11 Se1 3.532211 1_565
K11 Se2 3.538710 1_565
K11 Se6 3.835409 1_556
K11 Se9 3.875957 1_555
Fe0 Se1 2.359366 1_565
Fe0 Se7 2.379071 1_555
Fe0 Se0 2.450158 1_555
Fe0 Se3 2.476973 1_565
Fe0 K0 3.471618 1_565
Fe1 Se9 2.359366 1_545
Fe1 Se2 2.379071 1_555
Fe1 Se4 2.450158 1_655
Fe1 Se8 2.476973 1_546
Fe1 K11 3.471618 1_545
Fe2 Se6 2.359366 1_545
Fe2 Se11 2.379071 1_555
Fe2 Se3 2.450158 1_555
Fe2 Se0 2.476973 1_545
Fe2 K10 3.471618 1_545
Fe3 Se10 2.359366 1_565
Fe3 Se5 2.379071 1_555
Fe3 Se8 2.450158 1_455
Fe3 Se4 2.476973 1_564
Fe3 K8 3.471618 1_565
