# generated using pymatgen
data_GdMg2Ni9
_symmetry_space_group_name_H-M   'P 1'
_cell_length_a   8.32421430
_cell_length_b   8.32421430
_cell_length_c   8.32421500
_cell_angle_alpha   33.91320068
_cell_angle_beta   33.91320068
_cell_angle_gamma   33.91319749
_symmetry_Int_Tables_number   1
_chemical_formula_structural   GdMg2Ni9
_chemical_formula_sum   'Gd1 Mg2 Ni9'
_cell_volume   160.02851663
_cell_formula_units_Z   1
loop_
 _symmetry_equiv_pos_site_id
 _symmetry_equiv_pos_as_xyz
  1  'x, y, z'
loop_
 _atom_site_type_symbol
 _atom_site_label
 _atom_site_symmetry_multiplicity
 _atom_site_fract_x
 _atom_site_fract_y
 _atom_site_fract_z
 _atom_site_occupancy
  Gd  Gd0  1  0.00000000  0.00000000  0.00000000  1
  Mg  Mg0  1  0.14385400  0.14385400  0.14385400  1
  Mg  Mg1  1  0.85614600  0.85614600  0.85614600  1
  Ni  Ni0  1  0.91761300  0.41393800  0.41393800  1
  Ni  Ni1  1  0.58606200  0.58606200  0.08238700  1
  Ni  Ni2  1  0.58606200  0.08238700  0.58606200  1
  Ni  Ni3  1  0.41393800  0.41393800  0.91761300  1
  Ni  Ni4  1  0.33346800  0.33346800  0.33346800  1
  Ni  Ni5  1  0.08238700  0.58606200  0.58606200  1
  Ni  Ni6  1  0.50000000  0.50000000  0.50000000  1
  Ni  Ni7  1  0.66653200  0.66653200  0.66653200  1
  Ni  Ni8  1  0.41393800  0.91761300  0.41393800  1
loop_
_geom_bond_atom_site_label_1
_geom_bond_atom_site_label_2
_geom_bond_distance
_geom_bond_site_symmetry_2
Gd0 Ni4 2.803308 1_545
Gd0 Ni4 2.803308 1_455
Gd0 Ni7 2.803308 1_544
Gd0 Ni7 2.803308 1_454
Gd0 Ni4 2.803308 1_554
Gd0 Ni7 2.803308 1_445
Gd0 Ni1 3.142203 1_455
Gd0 Ni1 3.142203 1_545
Gd0 Ni3 3.142203 1_544
Gd0 Ni3 3.142203 1_454
Gd0 Ni5 3.142203 1_554
Gd0 Ni2 3.142203 1_554
Gd0 Ni0 3.142203 1_445
Gd0 Ni8 3.142203 1_445
Gd0 Ni5 3.142203 1_545
Gd0 Ni2 3.142203 1_455
Gd0 Ni0 3.142203 1_454
Gd0 Ni8 3.142203 1_544
Mg0 Ni1 2.796386 1_545
Mg0 Ni1 2.796386 1_455
Mg0 Ni5 2.796386 1_545
Mg0 Ni2 2.796386 1_455
Mg0 Ni5 2.796386 1_554
Mg0 Ni2 2.796386 1_554
Mg0 Ni3 2.826692 1_554
Mg0 Ni0 2.826692 1_455
Mg0 Ni8 2.826692 1_545
Mg0 Ni6 2.854166 1_545
Mg0 Ni6 2.854166 1_455
Mg0 Ni6 2.854167 1_554
Mg1 Ni3 2.796386 1_565
Mg1 Ni3 2.796386 1_655
Mg1 Ni0 2.796386 1_565
Mg1 Ni8 2.796386 1_655
Mg1 Ni8 2.796386 1_556
Mg1 Ni0 2.796386 1_556
Mg1 Ni1 2.826692 1_556
Mg1 Ni5 2.826692 1_655
Mg1 Ni2 2.826692 1_565
Mg1 Ni6 2.854166 1_565
Mg1 Ni6 2.854166 1_655
Mg1 Ni6 2.854167 1_556
Ni0 Ni6 2.386615 1_555
Ni0 Ni8 2.409890 1_645
Ni0 Ni3 2.409890 1_654
Ni0 Ni4 2.434736 1_655
Ni0 Ni7 2.441400 1_555
Ni0 Ni8 2.445578 1_555
Ni0 Ni3 2.445578 1_555
Ni1 Ni6 2.386615 1_555
Ni1 Ni2 2.409890 1_564
Ni1 Ni5 2.409890 1_654
Ni1 Ni7 2.434737 1_554
Ni1 Ni4 2.441400 1_555
Ni1 Ni2 2.445578 1_555
Ni1 Ni5 2.445578 1_555
Ni2 Ni6 2.386615 1_555
Ni2 Ni5 2.409890 1_645
Ni2 Ni7 2.434736 1_545
Ni2 Ni4 2.441400 1_555
Ni2 Ni5 2.445578 1_555
Ni3 Ni6 2.386615 1_555
Ni3 Ni8 2.409890 1_546
Ni3 Ni4 2.434737 1_556
Ni3 Ni7 2.441400 1_555
Ni3 Ni8 2.445578 1_555
Ni4 Ni8 2.434736 1_545
Ni4 Ni5 2.441400 1_555
Ni4 Ni7 2.803313 1_545
Ni4 Ni7 2.803313 1_455
Ni4 Ni7 2.803313 1_554
Ni5 Ni6 2.386615 1_555
Ni5 Ni7 2.434736 1_455
Ni6 Ni8 2.386615 1_555
Ni7 Ni8 2.441400 1_555
