# generated using pymatgen
data_CaNiAsHO5
_symmetry_space_group_name_H-M   'P 1'
_cell_length_a   5.99951800
_cell_length_b   7.52679700
_cell_length_c   9.01506200
_cell_angle_alpha   90.00000000
_cell_angle_beta   90.00000000
_cell_angle_gamma   90.00000000
_symmetry_Int_Tables_number   1
_chemical_formula_structural   CaNiAsHO5
_chemical_formula_sum   'Ca4 Ni4 As4 H4 O20'
_cell_volume   407.09454381
_cell_formula_units_Z   4
loop_
 _symmetry_equiv_pos_site_id
 _symmetry_equiv_pos_as_xyz
  1  'x, y, z'
loop_
 _atom_site_type_symbol
 _atom_site_label
 _atom_site_symmetry_multiplicity
 _atom_site_fract_x
 _atom_site_fract_y
 _atom_site_fract_z
 _atom_site_occupancy
  Ca  Ca0  1  0.47478900  0.37244200  0.17327400  1
  Ca  Ca1  1  0.97478900  0.12755800  0.82672600  1
  Ca  Ca2  1  0.52521100  0.87244200  0.32672600  1
  Ca  Ca3  1  0.02521100  0.62755800  0.67327400  1
  Ni  Ni0  1  0.25668400  0.24252000  0.50360200  1
  Ni  Ni1  1  0.75668400  0.25748000  0.49639800  1
  Ni  Ni2  1  0.74331600  0.74252000  0.99639800  1
  Ni  Ni3  1  0.24331600  0.75748000  0.00360200  1
  As  As0  1  0.01669100  0.12068100  0.17952900  1
  As  As1  1  0.51669100  0.37931900  0.82047100  1
  As  As2  1  0.98330900  0.62068100  0.32047100  1
  As  As3  1  0.48330900  0.87931900  0.67952900  1
  H  H0  1  0.01183700  0.48969000  0.98150300  1
  H  H1  1  0.51183700  0.01031000  0.01849700  1
  H  H2  1  0.98816300  0.98969000  0.51849700  1
  H  H3  1  0.48816300  0.51031000  0.48150300  1
  O  O0  1  0.98997500  0.93928800  0.05998200  1
  O  O1  1  0.48997500  0.56071200  0.94001800  1
  O  O2  1  0.01002500  0.43928800  0.44001800  1
  O  O3  1  0.51002500  0.06071200  0.55998200  1
  O  O4  1  0.08688300  0.28893700  0.05925100  1
  O  O5  1  0.58688300  0.21106300  0.94074900  1
  O  O6  1  0.91311700  0.78893700  0.44074900  1
  O  O7  1  0.41311700  0.71106300  0.55925100  1
  O  O8  1  0.76759400  0.14811200  0.27351100  1
  O  O9  1  0.26759400  0.35188800  0.72648900  1
  O  O10  1  0.23240600  0.64811200  0.22648900  1
  O  O11  1  0.73240600  0.85188800  0.77351100  1
  O  O12  1  0.24684200  0.10842300  0.29499200  1
  O  O13  1  0.74684200  0.39157700  0.70500800  1
  O  O14  1  0.75315800  0.60842300  0.20500800  1
  O  O15  1  0.25315800  0.89157700  0.79499200  1
  O  O16  1  0.49862600  0.39638300  0.42702200  1
  O  O17  1  0.99862600  0.10361700  0.57297800  1
  O  O18  1  0.50137400  0.89638300  0.07297800  1
  O  O19  1  0.00137400  0.60361700  0.92702200  1
loop_
_geom_bond_atom_site_label_1
_geom_bond_atom_site_label_2
_geom_bond_distance
_geom_bond_site_symmetry_2
Ca0 O16 2.299093 1_555
Ca0 O14 2.454757 1_555
Ca0 O5 2.514330 1_554
Ca0 O1 2.537367 1_554
Ca0 O10 2.578769 1_555
Ca0 O8 2.598752 1_555
Ca0 O4 2.620641 1_555
Ca0 O12 2.650159 1_555
Ca1 O17 2.299093 1_555
Ca1 O15 2.454757 1_645
Ca1 O4 2.514330 1_656
Ca1 O0 2.537367 1_546
Ca1 O11 2.578769 1_545
Ca1 O9 2.598752 1_655
Ca1 O5 2.620641 1_555
Ca1 O13 2.650159 1_555
Ca2 O18 2.299093 1_555
Ca2 O12 2.454757 1_565
Ca2 O7 2.514330 1_555
Ca2 O3 2.537367 1_565
Ca2 O8 2.578769 1_565
Ca2 O10 2.598752 1_555
Ca2 O6 2.620641 1_555
Ca2 O14 2.650159 1_555
Ca3 O19 2.299093 1_555
Ca3 O13 2.454757 1_455
Ca3 O6 2.514330 1_455
Ca3 O2 2.537367 1_555
Ca3 O9 2.578769 1_555
Ca3 O11 2.598752 1_455
Ca3 O7 2.620641 1_555
Ca3 O15 2.650159 1_555
Ni0 O17 1.970080 1_455
Ni0 O16 1.981100 1_555
Ni0 O3 2.107395 1_555
Ni0 O12 2.135180 1_555
Ni0 O2 2.170701 1_555
Ni0 O9 2.172412 1_555
Ni1 O16 1.970080 1_555
Ni1 O17 1.981100 1_555
Ni1 O2 2.107395 1_655
Ni1 O13 2.135180 1_555
Ni1 O3 2.170701 1_555
Ni1 O8 2.172412 1_555
Ni2 O19 1.970080 1_655
Ni2 O18 1.981100 1_556
Ni2 O1 2.107395 1_555
Ni2 O14 2.135180 1_556
Ni2 O0 2.170701 1_556
Ni2 O11 2.172412 1_555
Ni3 O18 1.970080 1_555
Ni3 O19 1.981100 1_554
Ni3 O0 2.107395 1_455
Ni3 O15 2.135180 1_554
Ni3 O1 2.170701 1_554
Ni3 O10 2.172412 1_555
As0 O4 1.719569 1_555
As0 O8 1.730284 1_455
As0 O12 1.731645 1_555
As0 O0 1.746781 1_445
As1 O5 1.719569 1_555
As1 O9 1.730284 1_555
As1 O13 1.731645 1_555
As1 O1 1.746781 1_555
As2 O6 1.719569 1_555
As2 O10 1.730284 1_655
As2 O14 1.731645 1_555
As2 O2 1.746781 1_655
As3 O7 1.719569 1_555
As3 O11 1.730284 1_555
As3 O15 1.731645 1_555
As3 O3 1.746781 1_565
H0 O19 0.990194 1_555
H0 O4 1.725452 1_556
H1 O18 0.990194 1_545
H1 O5 1.725452 1_554
H2 O17 0.990194 1_565
H2 O6 1.725452 1_555
H3 O16 0.990194 1_555
H3 O7 1.725452 1_555
