# generated using pymatgen
data_Yb3Ag2
_symmetry_space_group_name_H-M   'P 1'
_cell_length_a   4.15793000
_cell_length_b   8.20910200
_cell_length_c   8.20910200
_cell_angle_alpha   90.00000000
_cell_angle_beta   90.00000000
_cell_angle_gamma   90.00000000
_symmetry_Int_Tables_number   1
_chemical_formula_structural   Yb3Ag2
_chemical_formula_sum   'Yb6 Ag4'
_cell_volume   280.20022352
_cell_formula_units_Z   2
loop_
 _symmetry_equiv_pos_site_id
 _symmetry_equiv_pos_as_xyz
  1  'x, y, z'
loop_
 _atom_site_type_symbol
 _atom_site_label
 _atom_site_symmetry_multiplicity
 _atom_site_fract_x
 _atom_site_fract_y
 _atom_site_fract_z
 _atom_site_occupancy
  Yb  Yb0  1  0.50000000  0.33791600  0.83791600  1
  Yb  Yb1  1  0.50000000  0.83791600  0.66208400  1
  Yb  Yb2  1  0.00000000  0.00000000  0.00000000  1
  Yb  Yb3  1  0.50000000  0.66208400  0.16208400  1
  Yb  Yb4  1  0.50000000  0.16208400  0.33791600  1
  Yb  Yb5  1  0.00000000  0.50000000  0.50000000  1
  Ag  Ag0  1  0.00000000  0.87072600  0.37072600  1
  Ag  Ag1  1  0.00000000  0.12927400  0.62927400  1
  Ag  Ag2  1  0.00000000  0.37072600  0.12927400  1
  Ag  Ag3  1  0.00000000  0.62927400  0.87072600  1
loop_
_geom_bond_atom_site_label_1
_geom_bond_atom_site_label_2
_geom_bond_distance
_geom_bond_site_symmetry_2
Ag0 Ag1 3.001593 1_565
Ag0 Yb1 3.180454 1_455
Ag0 Yb1 3.180454 1_555
Ag0 Yb4 3.180454 1_465
Ag0 Yb4 3.180454 1_565
Ag0 Yb3 3.192055 1_455
Ag0 Yb3 3.192055 1_555
Ag0 Yb5 3.223048 1_555
Ag0 Yb2 3.223048 1_565
Ag1 Yb1 3.180454 1_445
Ag1 Yb4 3.180454 1_455
Ag1 Yb4 3.180454 1_555
Ag1 Yb1 3.180454 1_545
Ag1 Yb0 3.192055 1_455
Ag1 Yb0 3.192055 1_555
Ag1 Yb5 3.223048 1_555
Ag1 Yb2 3.223048 1_556
Ag2 Ag3 3.001593 1_554
Ag2 Yb0 3.180454 1_454
Ag2 Yb3 3.180454 1_555
Ag2 Yb0 3.180454 1_554
Ag2 Yb3 3.180454 1_455
Ag2 Yb4 3.192055 1_455
Ag2 Yb4 3.192055 1_555
Ag2 Yb5 3.223048 1_555
Ag2 Yb2 3.223048 1_555
Ag3 Yb0 3.180454 1_455
Ag3 Yb0 3.180454 1_555
Ag3 Yb3 3.180454 1_556
Ag3 Yb3 3.180454 1_456
Ag3 Yb1 3.192055 1_455
Ag3 Yb1 3.192055 1_555
Ag3 Yb5 3.223048 1_555
Ag3 Yb2 3.223048 1_566
