# generated using pymatgen
data_Dy4InRh
_symmetry_space_group_name_H-M   'P 1'
_cell_length_a   9.61159853
_cell_length_b   9.61158567
_cell_length_c   9.61159025
_cell_angle_alpha   59.99987146
_cell_angle_beta   59.99989616
_cell_angle_gamma   59.99988662
_symmetry_Int_Tables_number   1
_chemical_formula_structural   Dy4InRh
_chemical_formula_sum   'Dy16 In4 Rh4'
_cell_volume   627.87006724
_cell_formula_units_Z   4
loop_
 _symmetry_equiv_pos_site_id
 _symmetry_equiv_pos_as_xyz
  1  'x, y, z'
loop_
 _atom_site_type_symbol
 _atom_site_label
 _atom_site_symmetry_multiplicity
 _atom_site_fract_x
 _atom_site_fract_y
 _atom_site_fract_z
 _atom_site_occupancy
  Dy  Dy0  1  0.68922511  0.31078903  0.31078610  1
  Dy  Dy1  1  0.68923580  0.68918934  0.31078804  1
  Dy  Dy2  1  0.31078447  0.68920171  0.31079102  1
  Dy  Dy3  1  0.93855291  0.93856041  0.56144278  1
  Dy  Dy4  1  0.15067794  0.15071178  0.54791250  1
  Dy  Dy5  1  0.56145374  0.93855282  0.56144380  1
  Dy  Dy6  1  0.15067642  0.15071002  0.15069887  1
  Dy  Dy7  1  0.31078303  0.31079262  0.68920938  1
  Dy  Dy8  1  0.93855854  0.56143693  0.56144234  1
  Dy  Dy9  1  0.56145297  0.56143828  0.93855528  1
  Dy  Dy10  1  0.56145317  0.93855218  0.93854992  1
  Dy  Dy11  1  0.93855750  0.56143705  0.93856249  1
  Dy  Dy12  1  0.15068312  0.54790899  0.15070525  1
  Dy  Dy13  1  0.31078533  0.68920433  0.68921976  1
  Dy  Dy14  1  0.68922782  0.31078985  0.68919718  1
  Dy  Dy15  1  0.54792128  0.15070168  0.15068988  1
  In  In0  1  0.91710914  0.91710318  0.24868172  1
  In  In1  1  0.24867511  0.91710684  0.91710858  1
  In  In2  1  0.91710776  0.24868439  0.91710358  1
  In  In3  1  0.91711041  0.91710454  0.91710616  1
  Rh  Rh0  1  0.35781624  0.35783370  0.35782718  1
  Rh  Rh1  1  0.92651977  0.35783066  0.35782470  1
  Rh  Rh2  1  0.35781638  0.35783373  0.92652243  1
  Rh  Rh3  1  0.35781802  0.92652394  0.35782905  1
loop_
_geom_bond_atom_site_label_1
_geom_bond_atom_site_label_2
_geom_bond_distance
_geom_bond_site_symmetry_2
Dy0 Rh1 2.806716 1_555
Dy0 Rh0 2.807015 1_555
Dy0 In2 3.483544 1_554
Dy0 In0 3.483569 1_545
Dy1 Rh1 2.806573 1_555
Dy1 Rh3 2.807102 1_555
Dy1 In0 3.483542 1_555
Dy1 In3 3.483549 1_554
Dy2 Rh0 2.806684 1_555
Dy2 Rh3 2.806918 1_555
Dy2 In0 3.483505 1_455
Dy2 In1 3.483561 1_554
Dy3 In0 3.225511 1_555
Dy3 In3 3.225533 1_555
Dy3 Rh3 3.457806 1_655
Dy3 Rh1 3.457852 1_565
Dy4 Rh1 2.820145 1_455
Dy4 Rh0 2.820248 1_555
Dy4 Rh3 2.820326 1_545
Dy4 In2 3.432167 1_455
Dy4 In3 3.432223 1_445
Dy4 In1 3.432316 1_545
Dy5 In0 3.225475 1_555
Dy5 In1 3.225594 1_555
Dy5 Rh3 3.457948 1_555
Dy5 Rh0 3.457956 1_565
Dy6 Rh1 2.820147 1_455
Dy6 Rh2 2.820270 1_554
Dy6 Rh3 2.820328 1_545
Dy6 In2 3.432167 1_454
Dy6 In0 3.432218 1_445
Dy6 In1 3.432316 1_544
Dy7 Rh0 2.806798 1_555
Dy7 Rh2 2.806851 1_555
Dy7 In2 3.483501 1_455
Dy7 In1 3.483582 1_545
Dy8 In2 3.225463 1_555
Dy8 In0 3.225524 1_555
Dy8 Rh0 3.457734 1_655
Dy8 Rh1 3.457782 1_555
Dy9 In2 3.225437 1_555
Dy9 In1 3.225610 1_555
Dy9 Rh0 3.457872 1_556
Dy9 Rh2 3.457893 1_555
Dy10 In3 3.225506 1_555
Dy10 In1 3.225599 1_555
Dy10 Rh3 3.457941 1_556
Dy10 Rh2 3.457961 1_565
Dy11 In2 3.225470 1_555
Dy11 In3 3.225550 1_555
Dy11 Rh2 3.457745 1_655
Dy11 Rh1 3.457775 1_556
Dy12 Rh1 2.820120 1_455
Dy12 Rh0 2.820217 1_555
Dy12 Rh2 2.820237 1_554
Dy12 In0 3.432208 1_455
Dy12 In3 3.432216 1_454
Dy12 In1 3.432306 1_554
Dy13 Rh2 2.806705 1_555
Dy13 Rh3 2.806884 1_555
Dy13 In3 3.483508 1_455
Dy13 In1 3.483558 1_555
Dy14 Rh1 2.806686 1_555
Dy14 Rh2 2.807034 1_555
Dy14 In2 3.483540 1_555
Dy14 In3 3.483570 1_545
Dy15 Rh0 2.820300 1_555
Dy15 Rh2 2.820322 1_554
Dy15 Rh3 2.820384 1_545
Dy15 In2 3.432177 1_554
Dy15 In0 3.432228 1_545
Dy15 In3 3.432235 1_544
In0 In1 3.186907 1_654
In0 In3 3.186956 1_554
In0 In2 3.187001 1_564
In1 In3 3.186889 1_455
In1 In2 3.186934 1_465
In2 In3 3.186983 1_545
