# generated using pymatgen
data_Pr5Sn3
_symmetry_space_group_name_H-M   'P 1'
_cell_length_a   6.39402158
_cell_length_b   9.48942804
_cell_length_c   9.48967249
_cell_angle_alpha   83.48181490
_cell_angle_beta   70.31104161
_cell_angle_gamma   70.31048446
_symmetry_Int_Tables_number   1
_chemical_formula_structural   Pr5Sn3
_chemical_formula_sum   'Pr10 Sn6'
_cell_volume   510.43122870
_cell_formula_units_Z   2
loop_
 _symmetry_equiv_pos_site_id
 _symmetry_equiv_pos_as_xyz
  1  'x, y, z'
loop_
 _atom_site_type_symbol
 _atom_site_label
 _atom_site_symmetry_multiplicity
 _atom_site_fract_x
 _atom_site_fract_y
 _atom_site_fract_z
 _atom_site_occupancy
  Pr  Pr0  1  0.58270617  0.70182715  0.13288154  1
  Pr  Pr1  1  0.41729383  0.29817285  0.86711846  1
  Pr  Pr2  1  0.28461788  0.13277668  0.29817978  1
  Pr  Pr3  1  0.91726851  0.86715685  0.29817655  1
  Pr  Pr4  1  0.78459106  0.29819176  0.13281347  1
  Pr  Pr5  1  0.75001558  0.50002295  0.49997539  1
  Pr  Pr6  1  0.24998442  0.49997705  0.50002461  1
  Pr  Pr7  1  0.08273149  0.13284315  0.70182345  1
  Pr  Pr8  1  0.71538212  0.86722332  0.70182022  1
  Pr  Pr9  1  0.21540894  0.70180824  0.86718653  1
  Sn  Sn0  1  0.34007037  0.81995713  0.50002967  1
  Sn  Sn1  1  0.15993894  0.49997024  0.18002231  1
  Sn  Sn2  1  0.24999266  0.00000232  -0.00000182  1
  Sn  Sn3  1  0.84006206  0.50002976  0.81997769  1
  Sn  Sn4  1  0.65992963  0.18004287  0.49997033  1
  Sn  Sn5  1  0.75000734  -0.00000232  0.00000182  1
loop_
_geom_bond_atom_site_label_1
_geom_bond_atom_site_label_2
_geom_bond_distance
_geom_bond_site_symmetry_2
Pr0 Sn5 3.325789 1_565
Pr0 Sn2 3.326174 1_565
Pr0 Sn3 3.326713 1_554
Pr0 Sn0 3.446033 1_555
Pr0 Pr4 3.606322 1_555
Pr0 Sn1 3.693997 1_655
Pr0 Sn1 3.695436 1_555
Pr0 Pr3 3.818295 1_555
Pr0 Pr3 3.819529 1_455
Pr0 Pr9 3.981191 1_654
Pr0 Pr9 3.982856 1_554
Pr0 Pr5 4.069796 1_555
Pr0 Pr6 4.070612 1_555
Pr0 Pr2 4.123910 1_565
Pr0 Pr8 4.125232 1_554
Pr1 Sn2 3.325789 1_556
Pr1 Sn5 3.326174 1_556
Pr1 Sn1 3.326713 1_556
Pr1 Sn4 3.446033 1_555
Pr1 Pr9 3.606322 1_555
Pr1 Sn3 3.693991 1_455
Pr1 Sn3 3.695442 1_555
Pr1 Pr7 3.818295 1_555
Pr1 Pr7 3.819529 1_655
Pr1 Pr4 3.981191 1_456
Pr1 Pr4 3.982856 1_556
Pr1 Pr6 4.069796 1_555
Pr1 Pr5 4.070612 1_555
Pr1 Pr8 4.123910 1_545
Pr1 Pr2 4.125232 1_556
Pr2 Sn5 3.325416 1_555
Pr2 Sn2 3.326098 1_555
Pr2 Sn0 3.326279 1_545
Pr2 Sn1 3.446403 1_555
Pr2 Pr7 3.606501 1_555
Pr2 Sn4 3.693738 1_555
Pr2 Sn4 3.695425 1_455
Pr2 Pr4 3.819435 1_555
Pr2 Pr4 3.819460 1_455
Pr2 Pr3 3.980714 1_545
Pr2 Pr3 3.982449 1_445
Pr2 Pr6 4.070553 1_555
Pr2 Pr5 4.071084 1_455
Pr3 Sn5 3.325688 1_565
Pr3 Sn2 3.326097 1_665
Pr3 Sn4 3.326522 1_565
Pr3 Sn1 3.446345 1_655
Pr3 Pr8 3.606501 1_555
Pr3 Sn0 3.694048 1_555
Pr3 Sn0 3.695521 1_655
Pr3 Pr5 4.069925 1_555
Pr3 Pr6 4.070750 1_655
Pr3 Pr9 4.124499 1_654
Pr3 Pr4 4.124816 1_565
Pr4 Sn2 3.325527 1_655
Pr4 Sn5 3.326205 1_555
Pr4 Sn3 3.326383 1_554
Pr4 Sn4 3.446149 1_555
Pr4 Sn1 3.693611 1_655
Pr4 Sn1 3.695281 1_555
Pr4 Pr5 4.070356 1_555
Pr4 Pr6 4.070913 1_555
Pr4 Pr7 4.124499 1_654
Pr5 Pr6 3.196822 1_655
Pr5 Pr6 3.197199 1_555
Pr5 Sn0 3.274897 1_555
Pr5 Sn1 3.275023 1_655
Pr5 Sn4 3.275714 1_555
Pr5 Sn3 3.275874 1_555
Pr5 Pr8 4.070553 1_555
Pr5 Pr7 4.070750 1_655
Pr5 Pr9 4.070913 1_555
Pr6 Sn4 3.274897 1_555
Pr6 Sn3 3.275020 1_455
Pr6 Sn0 3.275714 1_555
Pr6 Sn1 3.275871 1_555
Pr6 Pr7 4.069925 1_555
Pr6 Pr9 4.070356 1_555
Pr6 Pr8 4.071084 1_455
Pr7 Sn2 3.325688 1_556
Pr7 Sn5 3.326097 1_456
Pr7 Sn0 3.326522 1_545
Pr7 Sn3 3.446345 1_455
Pr7 Sn4 3.694048 1_555
Pr7 Sn4 3.695521 1_455
Pr7 Pr8 3.980714 1_545
Pr7 Pr8 3.982449 1_445
Pr7 Pr9 4.124816 1_545
Pr8 Sn2 3.325416 1_566
Pr8 Sn5 3.326098 1_566
Pr8 Sn4 3.326279 1_565
Pr8 Sn3 3.446403 1_555
Pr8 Sn0 3.693738 1_555
Pr8 Sn0 3.695425 1_655
Pr8 Pr9 3.819435 1_555
Pr8 Pr9 3.819460 1_655
Pr9 Sn5 3.325527 1_466
Pr9 Sn2 3.326205 1_566
Pr9 Sn1 3.326383 1_556
Pr9 Sn0 3.446149 1_555
Pr9 Sn3 3.693606 1_455
Pr9 Sn3 3.695286 1_555
Sn2 Sn5 3.196920 1_455
Sn2 Sn5 3.197101 1_555
