# generated using pymatgen
data_Ca5As3O12F
_symmetry_space_group_name_H-M   'P 1'
_cell_length_a   7.04169900
_cell_length_b   9.78123932
_cell_length_c   9.83988384
_cell_angle_alpha   119.69218237
_cell_angle_beta   91.32335718
_cell_angle_gamma   89.35367455
_symmetry_Int_Tables_number   1
_chemical_formula_structural   Ca5As3O12F
_chemical_formula_sum   'Ca10 As6 O24 F2'
_cell_volume   588.59264475
_cell_formula_units_Z   2
loop_
 _symmetry_equiv_pos_site_id
 _symmetry_equiv_pos_as_xyz
  1  'x, y, z'
loop_
 _atom_site_type_symbol
 _atom_site_label
 _atom_site_symmetry_multiplicity
 _atom_site_fract_x
 _atom_site_fract_y
 _atom_site_fract_z
 _atom_site_occupancy
  Ca  Ca0  1  0.99701600  0.35178000  0.69111200  1
  Ca  Ca1  1  0.00298400  0.64822000  0.30888800  1
  Ca  Ca2  1  0.76012500  0.23650700  0.00144000  1
  Ca  Ca3  1  0.26118400  0.24502400  0.24598800  1
  Ca  Ca4  1  0.73881600  0.75497600  0.75401200  1
  Ca  Ca5  1  0.49744700  0.68502500  0.34651500  1
  Ca  Ca6  1  0.50255300  0.31497500  0.65348500  1
  Ca  Ca7  1  0.74825800  0.00066200  0.24196300  1
  Ca  Ca8  1  0.25174200  0.99933800  0.75803700  1
  Ca  Ca9  1  0.23987500  0.76349300  0.99856000  1
  As  As0  1  0.24159900  0.02596100  0.39668500  1
  As  As1  1  0.24029100  0.60638700  0.62879900  1
  As  As2  1  0.26743700  0.37130600  0.97345200  1
  As  As3  1  0.73256300  0.62869400  0.02654800  1
  As  As4  1  0.75840100  0.97403900  0.60331500  1
  As  As5  1  0.75970900  0.39361300  0.37120100  1
  O  O0  1  0.07056800  0.07758300  0.30361400  1
  O  O1  1  0.93992400  0.73580500  0.08812100  1
  O  O2  1  0.54875400  0.90267200  0.63181000  1
  O  O3  1  0.58441500  0.29568500  0.23292300  1
  O  O4  1  0.72573900  0.51349300  0.82673900  1
  O  O5  1  0.27426100  0.48650700  0.17326100  1
  O  O6  1  0.75390000  0.17403600  0.68302500  1
  O  O7  1  0.04087400  0.63636100  0.73942100  1
  O  O8  1  0.92943200  0.92241700  0.69638600  1
  O  O9  1  0.22813900  0.68261000  0.50530700  1
  O  O10  1  0.06007600  0.26419500  0.91187900  1
  O  O11  1  0.95912600  0.36363900  0.26057900  1
  O  O12  1  0.41558500  0.70431500  0.76707700  1
  O  O13  1  0.45124600  0.09732800  0.36819000  1
  O  O14  1  0.78539500  0.87307000  0.40259100  1
  O  O15  1  0.55278800  0.76561800  0.09720100  1
  O  O16  1  0.27624200  0.40537500  0.53026600  1
  O  O17  1  0.44721200  0.23438200  0.90279900  1
  O  O18  1  0.24610000  0.82596400  0.31697500  1
  O  O19  1  0.72375800  0.59462500  0.46973400  1
  O  O20  1  0.72622700  0.52406800  0.12574500  1
  O  O21  1  0.27377300  0.47593200  0.87425500  1
  O  O22  1  0.21460500  0.12693000  0.59740900  1
  O  O23  1  0.77186100  0.31739000  0.49469300  1
  F  F0  1  0.75377900  0.99068400  0.99734900  1
  F  F1  1  0.24622100  0.00931600  0.00265100  1
loop_
_geom_bond_atom_site_label_1
_geom_bond_atom_site_label_2
_geom_bond_distance
_geom_bond_site_symmetry_2
Ca0 O23 2.364061 1_555
Ca0 O6 2.425589 1_555
Ca0 O4 2.427007 1_555
Ca0 O22 2.452557 1_655
Ca0 O21 2.498678 1_655
Ca0 O7 2.602170 1_655
Ca0 O10 2.727747 1_655
Ca0 O16 2.763109 1_655
Ca1 O9 2.364061 1_555
Ca1 O18 2.425589 1_555
Ca1 O5 2.427007 1_555
Ca1 O14 2.452557 1_455
Ca1 O20 2.498678 1_455
Ca1 O11 2.602170 1_455
Ca1 O1 2.727747 1_455
Ca1 O19 2.763109 1_455
Ca2 O10 2.376246 1_654
Ca2 O17 2.383261 1_554
Ca2 F0 2.385679 1_544
Ca2 O3 2.421162 1_555
Ca2 O20 2.460572 1_555
Ca2 O11 2.597104 1_555
Ca2 O6 2.879172 1_554
Ca3 O3 2.354731 1_555
Ca3 F1 2.363181 1_555
Ca3 O11 2.384162 1_455
Ca3 O0 2.410454 1_555
Ca3 O16 2.437114 1_555
Ca3 O13 2.631937 1_555
Ca3 O5 2.789653 1_555
Ca4 O12 2.354731 1_555
Ca4 F0 2.363181 1_555
Ca4 O7 2.384162 1_655
Ca4 O8 2.410454 1_555
Ca4 O19 2.437114 1_555
Ca4 O2 2.631937 1_555
Ca4 O4 2.789653 1_555
Ca5 O18 2.331449 1_555
Ca5 O19 2.394280 1_555
Ca5 O5 2.410880 1_555
Ca5 O9 2.492522 1_555
Ca5 O20 2.551329 1_555
Ca5 O2 2.567733 1_555
Ca5 O14 2.612641 1_555
Ca5 O15 2.959478 1_555
Ca6 O6 2.331449 1_555
Ca6 O16 2.394280 1_555
Ca6 O4 2.410880 1_555
Ca6 O23 2.492522 1_555
Ca6 O21 2.551329 1_555
Ca6 O13 2.567733 1_555
Ca6 O22 2.612641 1_555
Ca6 O17 2.959478 1_555
Ca7 F0 2.361370 1_544
Ca7 O0 2.368117 1_655
Ca7 O13 2.392255 1_555
Ca7 O15 2.438371 1_545
Ca7 O14 2.460040 1_545
Ca7 O1 2.637206 1_545
Ca7 O23 2.858261 1_555
Ca8 F1 2.361370 1_566
Ca8 O8 2.368117 1_455
Ca8 O2 2.392255 1_555
Ca8 O17 2.438371 1_565
Ca8 O22 2.460040 1_565
Ca8 O10 2.637206 1_565
Ca8 O9 2.858261 1_555
Ca9 O1 2.376246 1_456
Ca9 O15 2.383261 1_556
Ca9 F1 2.385679 1_566
Ca9 O12 2.421162 1_555
Ca9 O21 2.460572 1_555
Ca9 O7 2.597104 1_555
Ca9 O18 2.879172 1_556
As0 O18 1.709589 1_545
As0 O0 1.713929 1_555
As0 O13 1.726716 1_555
As0 O22 1.730082 1_555
As1 O9 1.712025 1_555
As1 O12 1.717684 1_555
As1 O16 1.726686 1_555
As1 O7 1.728536 1_555
As2 O5 1.714536 1_556
As2 O17 1.720336 1_555
As2 O10 1.720937 1_555
As2 O21 1.730508 1_555
As3 O4 1.714536 1_554
As3 O15 1.720336 1_555
As3 O1 1.720937 1_555
As3 O20 1.730508 1_555
As4 O6 1.709589 1_565
As4 O8 1.713929 1_555
As4 O2 1.726716 1_555
As4 O14 1.730082 1_555
As5 O23 1.712025 1_555
As5 O3 1.717684 1_555
As5 O19 1.726686 1_555
As5 O11 1.728536 1_555
