# generated using pymatgen
data_SrGaBO4
_symmetry_space_group_name_H-M   'P 1'
_cell_length_a   5.98458900
_cell_length_b   9.12746600
_cell_length_c   15.56912600
_cell_angle_alpha   90.00000000
_cell_angle_beta   90.00000000
_cell_angle_gamma   90.00000000
_symmetry_Int_Tables_number   1
_chemical_formula_structural   SrGaBO4
_chemical_formula_sum   'Sr8 Ga8 B8 O32'
_cell_volume   850.45000342
_cell_formula_units_Z   8
loop_
 _symmetry_equiv_pos_site_id
 _symmetry_equiv_pos_as_xyz
  1  'x, y, z'
loop_
 _atom_site_type_symbol
 _atom_site_label
 _atom_site_symmetry_multiplicity
 _atom_site_fract_x
 _atom_site_fract_y
 _atom_site_fract_z
 _atom_site_occupancy
  Sr  Sr0  1  0.00000000  0.71380100  0.47909600  1
  Sr  Sr1  1  0.00000000  0.21380100  0.02090400  1
  Sr  Sr2  1  0.00000000  0.28619900  0.52090400  1
  Sr  Sr3  1  0.50000000  0.92655100  0.12092300  1
  Sr  Sr4  1  0.00000000  0.78619900  0.97909600  1
  Sr  Sr5  1  0.50000000  0.07344900  0.87907700  1
  Sr  Sr6  1  0.50000000  0.42655100  0.37907700  1
  Sr  Sr7  1  0.50000000  0.57344900  0.62092300  1
  Ga  Ga0  1  0.24796800  0.53636000  0.15331600  1
  Ga  Ga1  1  0.24796800  0.46364000  0.84668400  1
  Ga  Ga2  1  0.75203200  0.53636000  0.15331600  1
  Ga  Ga3  1  0.24796800  0.03636000  0.34668400  1
  Ga  Ga4  1  0.75203200  0.03636000  0.34668400  1
  Ga  Ga5  1  0.24796800  0.96364000  0.65331600  1
  Ga  Ga6  1  0.75203200  0.46364000  0.84668400  1
  Ga  Ga7  1  0.75203200  0.96364000  0.65331600  1
  B  B0  1  0.50000000  0.79294100  0.42457200  1
  B  B1  1  0.00000000  0.48086600  0.31315400  1
  B  B2  1  0.50000000  0.20705900  0.57542800  1
  B  B3  1  0.00000000  0.01913400  0.81315400  1
  B  B4  1  0.00000000  0.51913400  0.68684600  1
  B  B5  1  0.00000000  0.98086600  0.18684600  1
  B  B6  1  0.50000000  0.70705900  0.92457200  1
  B  B7  1  0.50000000  0.29294100  0.07542800  1
  O  O0  1  0.50000000  0.15393900  0.35378500  1
  O  O1  1  0.00000000  0.62209800  0.10783400  1
  O  O2  1  0.00000000  0.03005100  0.90113100  1
  O  O3  1  0.79671300  0.01575000  0.76896600  1
  O  O4  1  0.79671300  0.98425000  0.23103400  1
  O  O5  1  0.70086800  0.35768600  0.09826700  1
  O  O6  1  0.70086800  0.64231400  0.90173300  1
  O  O7  1  0.00000000  0.87790200  0.60783400  1
  O  O8  1  0.79671300  0.51575000  0.73103400  1
  O  O9  1  0.20328700  0.01575000  0.76896600  1
  O  O10  1  0.00000000  0.96994900  0.09886900  1
  O  O11  1  0.29913200  0.64231400  0.90173300  1
  O  O12  1  0.29913200  0.85768600  0.40173300  1
  O  O13  1  0.50000000  0.34606100  0.85378500  1
  O  O14  1  0.20328700  0.98425000  0.23103400  1
  O  O15  1  0.79671300  0.48425000  0.26896600  1
  O  O16  1  0.00000000  0.46994900  0.40113100  1
  O  O17  1  0.50000000  0.33934400  0.53322700  1
  O  O18  1  0.70086800  0.14231400  0.59826700  1
  O  O19  1  0.70086800  0.85768600  0.40173300  1
  O  O20  1  0.50000000  0.16065600  0.03322700  1
  O  O21  1  0.00000000  0.53005100  0.59886900  1
  O  O22  1  0.50000000  0.66065600  0.46677300  1
  O  O23  1  0.29913200  0.14231400  0.59826700  1
  O  O24  1  0.20328700  0.48425000  0.26896600  1
  O  O25  1  0.00000000  0.12209800  0.39216600  1
  O  O26  1  0.00000000  0.37790200  0.89216600  1
  O  O27  1  0.50000000  0.84606100  0.64621500  1
  O  O28  1  0.50000000  0.65393900  0.14621500  1
  O  O29  1  0.50000000  0.83934400  0.96677300  1
  O  O30  1  0.29913200  0.35768600  0.09826700  1
  O  O31  1  0.20328700  0.51575000  0.73103400  1
loop_
_geom_bond_atom_site_label_1
_geom_bond_atom_site_label_2
_geom_bond_distance
_geom_bond_site_symmetry_2
Ga0 O1 1.821005 1_555
Ga0 O28 1.854446 1_555
Ga0 O30 1.867607 1_555
Ga0 O24 1.881430 1_555
Ga1 O26 1.821005 1_555
Ga1 O13 1.854446 1_555
Ga1 O11 1.867607 1_555
Ga1 O31 1.881430 1_555
Ga2 O1 1.821005 1_655
Ga2 O28 1.854446 1_555
Ga2 O5 1.867607 1_555
Ga2 O15 1.881430 1_555
Ga3 O25 1.821005 1_555
Ga3 O0 1.854446 1_555
Ga3 O12 1.867607 1_545
Ga3 O14 1.881430 1_545
Ga4 O25 1.821005 1_655
Ga4 O0 1.854446 1_555
Ga4 O19 1.867607 1_545
Ga4 O4 1.881430 1_545
Ga5 O7 1.821005 1_555
Ga5 O27 1.854446 1_555
Ga5 O23 1.867607 1_565
Ga5 O9 1.881430 1_565
Ga6 O26 1.821005 1_655
Ga6 O13 1.854446 1_555
Ga6 O6 1.867607 1_555
Ga6 O8 1.881430 1_555
Ga7 O7 1.821005 1_655
Ga7 O27 1.854446 1_555
Ga7 O18 1.867607 1_565
Ga7 O3 1.881430 1_565
B0 O22 1.374617 1_555
B0 O12 1.385909 1_555
B0 O19 1.385909 1_555
B1 O16 1.373345 1_555
B1 O15 1.397978 1_455
B1 O24 1.397978 1_555
B2 O17 1.374617 1_555
B2 O23 1.385909 1_555
B2 O18 1.385909 1_555
B3 O2 1.373345 1_555
B3 O3 1.397978 1_455
B3 O9 1.397978 1_555
B4 O21 1.373345 1_555
B4 O8 1.397978 1_455
B4 O31 1.397978 1_555
B5 O10 1.373345 1_555
B5 O4 1.397978 1_455
B5 O14 1.397978 1_555
B6 O29 1.374617 1_555
B6 O11 1.385909 1_555
B6 O6 1.385909 1_555
B7 O20 1.374617 1_555
B7 O30 1.385909 1_555
B7 O5 1.385909 1_555
O0 Sr6 2.519222 1_555
O1 Sr4 2.502170 1_554
O2 Sr1 2.508035 1_556
O2 Sr4 2.535230 1_545
O2 Sr5 3.037866 1_455
O2 Sr5 3.037866 1_555
O3 Sr5 2.523771 1_555
O4 Sr3 2.523771 1_555
O5 Sr1 2.525922 1_655
O6 Sr4 2.525922 1_655
O7 Sr0 2.502170 1_555
O8 Sr7 2.523771 1_555
O9 Sr5 2.523771 1_555
O10 Sr4 2.508035 1_554
O10 Sr1 2.535230 1_565
O10 Sr3 3.037866 1_455
O10 Sr3 3.037866 1_555
O11 Sr4 2.525922 1_555
O12 Sr0 2.525922 1_555
O13 Sr5 2.519222 1_555
O14 Sr3 2.523771 1_555
O15 Sr6 2.523771 1_555
O16 Sr2 2.508035 1_555
O16 Sr0 2.535230 1_555
O16 Sr6 3.037866 1_455
O16 Sr6 3.037866 1_555
O17 Sr6 2.528535 1_555
O17 Sr7 2.535751 1_555
O17 Sr2 3.037423 1_555
O17 Sr2 3.037423 1_655
O18 Sr2 2.525922 1_655
O19 Sr0 2.525922 1_655
O20 Sr5 2.528535 1_554
O20 Sr3 2.535751 1_545
O20 Sr1 3.037423 1_655
O20 Sr1 3.037423 1_555
O21 Sr0 2.508035 1_555
O21 Sr2 2.535230 1_555
O21 Sr7 3.037866 1_555
O21 Sr7 3.037866 1_455
O22 Sr7 2.528535 1_555
O22 Sr6 2.535751 1_555
O22 Sr0 3.037423 1_555
O22 Sr0 3.037423 1_655
O23 Sr2 2.525922 1_555
O24 Sr6 2.523771 1_555
O25 Sr2 2.502170 1_555
O26 Sr1 2.502170 1_556
O27 Sr7 2.519222 1_555
O28 Sr3 2.519222 1_555
O29 Sr3 2.528535 1_556
O29 Sr5 2.535751 1_565
O29 Sr4 3.037423 1_655
O29 Sr4 3.037423 1_555
O30 Sr1 2.525922 1_555
O31 Sr7 2.523771 1_555
