# generated using pymatgen
data_Cr(AgO2)2
_symmetry_space_group_name_H-M   'P 1'
_cell_length_a   5.69394900
_cell_length_b   7.03021000
_cell_length_c   10.24827600
_cell_angle_alpha   90.00000000
_cell_angle_beta   90.00000000
_cell_angle_gamma   90.00000000
_symmetry_Int_Tables_number   1
_chemical_formula_structural   Cr(AgO2)2
_chemical_formula_sum   'Cr4 Ag8 O16'
_cell_volume   410.23497516
_cell_formula_units_Z   4
loop_
 _symmetry_equiv_pos_site_id
 _symmetry_equiv_pos_as_xyz
  1  'x, y, z'
loop_
 _atom_site_type_symbol
 _atom_site_label
 _atom_site_symmetry_multiplicity
 _atom_site_fract_x
 _atom_site_fract_y
 _atom_site_fract_z
 _atom_site_occupancy
  Cr  Cr0  1  0.04056000  0.75000000  0.31751500  1
  Cr  Cr1  1  0.54056000  0.25000000  0.18248500  1
  Cr  Cr2  1  0.95944000  0.25000000  0.68248500  1
  Cr  Cr3  1  0.45944000  0.75000000  0.81751500  1
  Ag  Ag0  1  0.50000000  0.50000000  0.50000000  1
  Ag  Ag1  1  0.00000000  0.50000000  0.00000000  1
  Ag  Ag2  1  0.50000000  0.00000000  0.50000000  1
  Ag  Ag3  1  0.00000000  0.00000000  0.00000000  1
  Ag  Ag4  1  0.51959600  0.75000000  0.14439100  1
  Ag  Ag5  1  0.01959600  0.25000000  0.35560900  1
  Ag  Ag6  1  0.48040400  0.25000000  0.85560900  1
  Ag  Ag7  1  0.98040400  0.75000000  0.64439100  1
  O  O0  1  0.10131400  0.75000000  0.15461700  1
  O  O1  1  0.60131400  0.25000000  0.34538300  1
  O  O2  1  0.89868600  0.25000000  0.84538300  1
  O  O3  1  0.39868600  0.75000000  0.65461700  1
  O  O4  1  0.75152300  0.75000000  0.34486000  1
  O  O5  1  0.25152300  0.25000000  0.15514000  1
  O  O6  1  0.24847700  0.25000000  0.65514000  1
  O  O7  1  0.74847700  0.75000000  0.84486000  1
  O  O8  1  0.16055100  0.55524700  0.38609600  1
  O  O9  1  0.66055100  0.44475300  0.11390400  1
  O  O10  1  0.83944900  0.05524700  0.61390400  1
  O  O11  1  0.33944900  0.94475300  0.88609600  1
  O  O12  1  0.83944900  0.44475300  0.61390400  1
  O  O13  1  0.33944900  0.55524700  0.88609600  1
  O  O14  1  0.16055100  0.94475300  0.38609600  1
  O  O15  1  0.66055100  0.05524700  0.11390400  1
loop_
_geom_bond_atom_site_label_1
_geom_bond_atom_site_label_2
_geom_bond_distance
_geom_bond_site_symmetry_2
Cr0 O4 1.669451 1_455
Cr0 O8 1.683852 1_555
Cr0 O14 1.683852 1_555
Cr0 O0 1.704888 1_555
Cr1 O5 1.669451 1_555
Cr1 O15 1.683852 1_555
Cr1 O9 1.683852 1_555
Cr1 O1 1.704888 1_555
Cr2 O6 1.669451 1_655
Cr2 O10 1.683852 1_555
Cr2 O12 1.683852 1_555
Cr2 O2 1.704888 1_555
Cr3 O7 1.669451 1_555
Cr3 O11 1.683852 1_555
Cr3 O13 1.683852 1_555
Cr3 O3 1.704888 1_555
Ag0 O12 2.291119 1_555
Ag0 O8 2.291119 1_555
Ag0 O1 2.435693 1_555
Ag0 O3 2.435693 1_555
Ag0 O6 2.769099 1_555
Ag0 O4 2.769099 1_555
Ag1 O13 2.291119 1_554
Ag1 O9 2.291119 1_455
Ag1 O0 2.435693 1_555
Ag1 O2 2.435693 1_454
Ag1 O7 2.769099 1_454
Ag1 O5 2.769099 1_555
Ag2 O10 2.291119 1_555
Ag2 O14 2.291119 1_545
Ag2 O1 2.435693 1_555
Ag2 O3 2.435693 1_545
Ag2 O6 2.769099 1_555
Ag2 O4 2.769099 1_545
Ag3 O15 2.291119 1_455
Ag3 O11 2.291119 1_544
Ag3 O0 2.435693 1_545
Ag3 O2 2.435693 1_454
Ag3 O7 2.769099 1_444
Ag3 O5 2.769099 1_555
Ag4 O9 2.312331 1_555
Ag4 O15 2.312331 1_565
Ag4 O0 2.383981 1_555
Ag4 O4 2.442283 1_555
Ag5 O8 2.312331 1_555
Ag5 O14 2.312331 1_545
Ag5 O1 2.383981 1_455
Ag5 O5 2.442283 1_555
Ag6 O13 2.312331 1_555
Ag6 O11 2.312331 1_545
Ag6 O2 2.383981 1_555
Ag6 O6 2.442283 1_555
Ag7 O12 2.312331 1_555
Ag7 O10 2.312331 1_565
Ag7 O3 2.383981 1_655
Ag7 O7 2.442283 1_555
