# generated using pymatgen
data_Ni3Mo3N
_symmetry_space_group_name_H-M   'P 1'
_cell_length_a   7.80349750
_cell_length_b   7.80349750
_cell_length_c   7.80349750
_cell_angle_alpha   60.00000000
_cell_angle_beta   60.00000000
_cell_angle_gamma   60.00000000
_symmetry_Int_Tables_number   1
_chemical_formula_structural   Ni3Mo3N
_chemical_formula_sum   'Ni12 Mo12 N4'
_cell_volume   336.01053110
_cell_formula_units_Z   4
loop_
 _symmetry_equiv_pos_site_id
 _symmetry_equiv_pos_as_xyz
  1  'x, y, z'
loop_
 _atom_site_type_symbol
 _atom_site_label
 _atom_site_symmetry_multiplicity
 _atom_site_fract_x
 _atom_site_fract_y
 _atom_site_fract_z
 _atom_site_occupancy
  Ni  Ni0  1  0.99504800  0.33498400  0.33498400  1
  Ni  Ni1  1  0.91501600  0.91501600  0.91501600  1
  Ni  Ni2  1  0.12500000  0.12500000  0.62500000  1
  Ni  Ni3  1  0.33498400  0.33498400  0.99504800  1
  Ni  Ni4  1  0.91501600  0.91501600  0.25495200  1
  Ni  Ni5  1  0.25495200  0.91501600  0.91501600  1
  Ni  Ni6  1  0.33498400  0.99504800  0.33498400  1
  Ni  Ni7  1  0.91501600  0.25495200  0.91501600  1
  Ni  Ni8  1  0.12500000  0.12500000  0.12500000  1
  Ni  Ni9  1  0.33498400  0.33498400  0.33498400  1
  Ni  Ni10  1  0.62500000  0.12500000  0.12500000  1
  Ni  Ni11  1  0.12500000  0.62500000  0.12500000  1
  Mo  Mo0  1  0.29508600  0.70491400  0.70491400  1
  Mo  Mo1  1  0.54508600  0.54508600  0.95491400  1
  Mo  Mo2  1  0.29508600  0.70491400  0.29508600  1
  Mo  Mo3  1  0.29508600  0.29508600  0.70491400  1
  Mo  Mo4  1  0.70491400  0.29508600  0.29508600  1
  Mo  Mo5  1  0.95491400  0.95491400  0.54508600  1
  Mo  Mo6  1  0.95491400  0.54508600  0.95491400  1
  Mo  Mo7  1  0.95491400  0.54508600  0.54508600  1
  Mo  Mo8  1  0.54508600  0.95491400  0.95491400  1
  Mo  Mo9  1  0.70491400  0.70491400  0.29508600  1
  Mo  Mo10  1  0.70491400  0.29508600  0.70491400  1
  Mo  Mo11  1  0.54508600  0.95491400  0.54508600  1
  N  N0  1  0.62500000  0.12500000  0.62500000  1
  N  N1  1  0.62500000  0.62500000  0.12500000  1
  N  N2  1  0.12500000  0.62500000  0.62500000  1
  N  N3  1  0.62500000  0.62500000  0.62500000  1
loop_
_geom_bond_atom_site_label_1
_geom_bond_atom_site_label_2
_geom_bond_distance
_geom_bond_site_symmetry_2
Ni0 Ni8 2.400025 1_655
Ni0 Ni2 2.400025 1_655
Ni0 Ni11 2.400025 1_655
Ni0 Ni6 2.652690 1_645
Ni0 Ni9 2.652690 1_655
Ni0 Ni3 2.652690 1_654
Ni1 Ni2 2.400025 1_665
Ni1 Ni11 2.400025 1_656
Ni1 Ni10 2.400025 1_566
Ni1 Ni7 2.652690 1_565
Ni1 Ni5 2.652690 1_655
Ni1 Ni4 2.652690 1_556
Ni2 Ni5 2.400025 1_545
Ni2 Ni7 2.400025 1_455
Ni2 Ni9 2.400025 1_555
Ni2 Ni6 2.400025 1_545
Ni3 Ni8 2.400025 1_556
Ni3 Ni6 2.652690 1_546
Ni3 Ni9 2.652690 1_556
Ni4 Ni8 2.400025 1_665
Ni4 Ni7 2.652690 1_564
Ni4 Ni5 2.652690 1_654
Ni5 Ni8 2.400025 1_566
Ni5 Ni7 2.652690 1_465
Ni6 Ni8 2.400025 1_565
Ni6 Ni9 2.652690 1_565
Ni7 Ni8 2.400025 1_656
Ni10 Ni7 2.400025 1_554
Ni10 Ni4 2.400025 1_545
Ni10 Ni9 2.400025 1_555
Ni10 Ni3 2.400025 1_554
Ni10 Ni6 2.400025 1_545
Ni11 Ni4 2.400025 1_455
Ni11 Ni5 2.400025 1_554
Ni11 Ni9 2.400025 1_555
Ni11 Ni3 2.400025 1_554
Mo0 N2 2.140955 1_555
Mo0 N3 2.140955 1_555
Mo0 Ni3 2.612772 1_555
Mo0 Ni6 2.612772 1_555
Mo0 Ni1 2.671200 1_455
Mo0 Ni5 2.671200 1_555
Mo0 Ni2 2.707246 1_565
Mo0 Ni11 2.707246 1_556
Mo1 N3 2.140955 1_555
Mo1 N1 2.140955 1_556
Mo1 Ni5 2.612772 1_555
Mo1 Ni7 2.612772 1_555
Mo1 Ni3 2.671200 1_555
Mo1 Ni9 2.671200 1_556
Mo1 Ni10 2.707246 1_556
Mo1 Ni11 2.707246 1_556
Mo2 N1 2.140955 1_555
Mo2 N2 2.140955 1_555
Mo2 Ni9 2.612772 1_555
Mo2 Ni6 2.612772 1_555
Mo2 Ni4 2.671200 1_455
Mo2 Ni5 2.671200 1_554
Mo2 Ni11 2.707246 1_555
Mo2 Ni8 2.707246 1_565
Mo3 N2 2.140955 1_555
Mo3 N0 2.140955 1_555
Mo3 Ni9 2.612772 1_555
Mo3 Ni3 2.612772 1_555
Mo3 Ni7 2.671200 1_455
Mo3 Ni5 2.671200 1_545
Mo3 Ni2 2.707246 1_555
Mo3 Ni8 2.707246 1_556
Mo4 N1 2.140955 1_555
Mo4 N0 2.140955 1_555
Mo4 Ni9 2.612772 1_555
Mo4 Ni0 2.612772 1_555
Mo4 Ni7 2.671200 1_554
Mo4 Ni4 2.671200 1_545
Mo4 Ni10 2.707246 1_555
Mo4 Ni8 2.707246 1_655
Mo5 N0 2.140955 1_565
Mo5 N2 2.140955 1_655
Mo5 Ni1 2.612772 1_555
Mo5 Ni4 2.612772 1_555
Mo5 Ni0 2.671200 1_565
Mo5 Ni6 2.671200 1_655
Mo5 Ni8 2.707246 1_665
Mo5 Ni2 2.707246 1_665
Mo6 N1 2.140955 1_556
Mo6 N2 2.140955 1_655
Mo6 Ni1 2.612772 1_555
Mo6 Ni7 2.612772 1_555
Mo6 Ni3 2.671200 1_655
Mo6 Ni0 2.671200 1_556
Mo6 Ni8 2.707246 1_656
Mo6 Ni11 2.707246 1_656
Mo7 N3 2.140955 1_555
Mo7 N2 2.140955 1_655
Mo7 Ni7 2.612772 1_555
Mo7 Ni4 2.612772 1_555
Mo7 Ni0 2.671200 1_555
Mo7 Ni9 2.671200 1_655
Mo7 Ni11 2.707246 1_655
Mo7 Ni2 2.707246 1_655
Mo8 N0 2.140955 1_565
Mo8 N1 2.140955 1_556
Mo8 Ni1 2.612772 1_555
Mo8 Ni5 2.612772 1_555
Mo8 Ni6 2.671200 1_556
Mo8 Ni3 2.671200 1_565
Mo8 Ni8 2.707246 1_566
Mo8 Ni10 2.707246 1_566
Mo9 N1 2.140955 1_555
Mo9 N3 2.140955 1_555
Mo9 Ni0 2.612772 1_555
Mo9 Ni6 2.612772 1_555
Mo9 Ni1 2.671200 1_554
Mo9 Ni4 2.671200 1_555
Mo9 Ni11 2.707246 1_655
Mo9 Ni10 2.707246 1_565
Mo10 N0 2.140955 1_555
Mo10 N3 2.140955 1_555
Mo10 Ni3 2.612772 1_555
Mo10 Ni0 2.612772 1_555
Mo10 Ni1 2.671200 1_545
Mo10 Ni7 2.671200 1_555
Mo10 Ni10 2.707246 1_556
Mo10 Ni2 2.707246 1_655
Mo11 N3 2.140955 1_555
Mo11 N0 2.140955 1_565
Mo11 Ni5 2.612772 1_555
Mo11 Ni4 2.612772 1_555
Mo11 Ni6 2.671200 1_555
Mo11 Ni9 2.671200 1_565
Mo11 Ni10 2.707246 1_565
Mo11 Ni2 2.707246 1_565
