# generated using pymatgen
data_KCdCu7Se2Cl9O8
_symmetry_space_group_name_H-M   'P 1'
_cell_length_a   8.87448436
_cell_length_b   8.87448436
_cell_length_c   15.76323700
_cell_angle_alpha   90.00000000
_cell_angle_beta   90.00000000
_cell_angle_gamma   120.00000265
_symmetry_Int_Tables_number   1
_chemical_formula_structural   KCdCu7Se2Cl9O8
_chemical_formula_sum   'K2 Cd2 Cu14 Se4 Cl18 O16'
_cell_volume   1075.13322120
_cell_formula_units_Z   2
loop_
 _symmetry_equiv_pos_site_id
 _symmetry_equiv_pos_as_xyz
  1  'x, y, z'
loop_
 _atom_site_type_symbol
 _atom_site_label
 _atom_site_symmetry_multiplicity
 _atom_site_fract_x
 _atom_site_fract_y
 _atom_site_fract_z
 _atom_site_occupancy
  K  K0  1  0.00000000  0.00000000  0.25000000  1
  K  K1  1  0.00000000  0.00000000  0.75000000  1
  Cd  Cd0  1  0.00000000  0.00000000  0.50000000  1
  Cd  Cd1  1  0.00000000  0.00000000  0.00000000  1
  Cu  Cu0  1  0.90476500  0.45238300  0.09216300  1
  Cu  Cu1  1  0.54761700  0.09523500  0.40783700  1
  Cu  Cu2  1  0.09523500  0.54761700  0.59216300  1
  Cu  Cu3  1  0.45238300  0.54761700  0.59216300  1
  Cu  Cu4  1  0.54761700  0.45238300  0.40783700  1
  Cu  Cu5  1  0.45238300  0.90476500  0.59216300  1
  Cu  Cu6  1  0.45238300  0.90476500  0.90783700  1
  Cu  Cu7  1  0.45238300  0.54761700  0.90783700  1
  Cu  Cu8  1  0.90476500  0.45238300  0.40783700  1
  Cu  Cu9  1  0.09523500  0.54761700  0.90783700  1
  Cu  Cu10  1  0.54761700  0.09523500  0.09216300  1
  Cu  Cu11  1  0.54761700  0.45238300  0.09216300  1
  Cu  Cu12  1  0.66666700  0.33333300  0.25000000  1
  Cu  Cu13  1  0.33333300  0.66666700  0.75000000  1
  Se  Se0  1  0.66666700  0.33333300  0.59858200  1
  Se  Se1  1  0.33333300  0.66666700  0.09858200  1
  Se  Se2  1  0.66666700  0.33333300  0.90141800  1
  Se  Se3  1  0.33333300  0.66666700  0.40141800  1
  Cl  Cl0  1  0.50906400  0.01812800  0.25000000  1
  Cl  Cl1  1  0.27761300  0.13880700  0.39917100  1
  Cl  Cl2  1  0.72238700  0.86119300  0.89917100  1
  Cl  Cl3  1  0.50906400  0.49093600  0.25000000  1
  Cl  Cl4  1  0.13880700  0.86119300  0.89917100  1
  Cl  Cl5  1  0.13880700  0.27761300  0.89917100  1
  Cl  Cl6  1  0.86119300  0.72238700  0.10082900  1
  Cl  Cl7  1  0.01812800  0.50906400  0.75000000  1
  Cl  Cl8  1  0.86119300  0.72238700  0.39917100  1
  Cl  Cl9  1  0.49093600  0.50906400  0.75000000  1
  Cl  Cl10  1  0.98187200  0.49093600  0.25000000  1
  Cl  Cl11  1  0.13880700  0.27761300  0.60082900  1
  Cl  Cl12  1  0.72238700  0.86119300  0.60082900  1
  Cl  Cl13  1  0.49093600  0.98187200  0.75000000  1
  Cl  Cl14  1  0.27761300  0.13880700  0.10082900  1
  Cl  Cl15  1  0.13880700  0.86119300  0.60082900  1
  Cl  Cl16  1  0.86119300  0.13880700  0.39917100  1
  Cl  Cl17  1  0.86119300  0.13880700  0.10082900  1
  O  O0  1  0.56780200  0.13560400  0.54506700  1
  O  O1  1  0.66666700  0.33333300  0.12808400  1
  O  O2  1  0.86439600  0.43219800  0.54506700  1
  O  O3  1  0.56780200  0.43219800  0.95493300  1
  O  O4  1  0.33333300  0.66666700  0.62808400  1
  O  O5  1  0.56780200  0.13560400  0.95493300  1
  O  O6  1  0.13560400  0.56780200  0.45493300  1
  O  O7  1  0.13560400  0.56780200  0.04506700  1
  O  O8  1  0.43219800  0.56780200  0.04506700  1
  O  O9  1  0.33333300  0.66666700  0.87191600  1
  O  O10  1  0.43219800  0.86439600  0.04506700  1
  O  O11  1  0.56780200  0.43219800  0.54506700  1
  O  O12  1  0.86439600  0.43219800  0.95493300  1
  O  O13  1  0.66666700  0.33333300  0.37191600  1
  O  O14  1  0.43219800  0.56780200  0.45493300  1
  O  O15  1  0.43219800  0.86439600  0.45493300  1
loop_
_geom_bond_atom_site_label_1
_geom_bond_atom_site_label_2
_geom_bond_distance
_geom_bond_site_symmetry_2
Cd0 Cl11 2.660531 1_555
Cd0 Cl12 2.660531 1_445
Cd0 Cl8 2.660531 1_445
Cd0 Cl1 2.660531 1_555
Cd0 Cl15 2.660537 1_545
Cd0 Cl16 2.660537 1_455
Cd1 Cl5 2.660531 1_554
Cd1 Cl2 2.660531 1_444
Cd1 Cl6 2.660531 1_445
Cd1 Cl14 2.660531 1_555
Cd1 Cl4 2.660537 1_544
Cd1 Cl17 2.660537 1_455
Cu0 O1 1.915512 1_555
Cu0 O7 1.923184 1_655
Cu0 O12 2.185325 1_554
Cu1 O13 1.915512 1_555
Cu1 O15 1.923184 1_545
Cu1 O0 2.185325 1_555
Cu2 O4 1.915512 1_555
Cu2 O2 1.923184 1_455
Cu2 O6 2.185325 1_555
Cu3 O4 1.915526 1_555
Cu3 O11 1.923177 1_555
Cu3 O14 2.185326 1_555
Cu4 O13 1.915526 1_555
Cu4 O14 1.923177 1_555
Cu4 O11 2.185326 1_555
Cu5 O4 1.915512 1_555
Cu5 O0 1.923184 1_565
Cu5 O15 2.185325 1_555
Cu6 O9 1.915512 1_555
Cu6 O5 1.923184 1_565
Cu6 O10 2.185325 1_556
Cu7 O9 1.915526 1_555
Cu7 O3 1.923177 1_555
Cu7 O8 2.185326 1_556
Cu8 O13 1.915512 1_555
Cu8 O6 1.923184 1_655
Cu8 O2 2.185325 1_555
Cu9 O9 1.915512 1_555
Cu9 O12 1.923184 1_455
Cu9 O7 2.185325 1_556
Cu10 O1 1.915512 1_555
Cu10 O10 1.923184 1_545
Cu10 O5 2.185325 1_554
Cu11 O1 1.915526 1_555
Cu11 O8 1.923177 1_555
Cu11 O3 2.185326 1_554
Cu12 O1 1.921791 1_555
Cu12 O13 1.921791 1_555
Cu13 O9 1.921791 1_555
Cu13 O4 1.921791 1_555
Cl0 Cu12 2.422517 1_555
Cl0 Cu10 2.557624 1_555
Cl0 Cu1 2.557624 1_555
Cl1 Cu4 2.614620 1_555
Cl1 Cu1 2.614620 1_555
Cl1 K0 3.175126 1_555
Cl2 Cu7 2.614620 1_555
Cl2 Cu6 2.614620 1_555
Cl2 K1 3.175126 1_665
Cl3 Cu12 2.422525 1_555
Cl3 Cu11 2.557622 1_555
Cl3 Cu4 2.557622 1_555
Cl4 Cu9 2.614620 1_555
Cl4 Cu6 2.614620 1_555
Cl4 K1 3.175131 1_565
Cl5 Cu7 2.614620 1_555
Cl5 Cu9 2.614620 1_555
Cl5 K1 3.175126 1_555
Cl6 Cu11 2.614620 1_555
Cl6 Cu0 2.614620 1_555
Cl6 K0 3.175126 1_665
Cl7 Cu13 2.422517 1_555
Cl7 Cu9 2.557624 1_555
Cl7 Cu2 2.557624 1_555
Cl8 Cu4 2.614620 1_555
Cl8 Cu8 2.614620 1_555
Cl8 K0 3.175126 1_665
Cl9 Cu13 2.422525 1_555
Cl9 Cu7 2.557622 1_555
Cl9 Cu3 2.557622 1_555
Cl10 Cu12 2.422517 1_555
Cl10 Cu8 2.557624 1_555
Cl10 Cu0 2.557624 1_555
Cl11 Cu3 2.614620 1_555
Cl11 Cu2 2.614620 1_555
Cl11 K1 3.175126 1_555
Cl12 Cu3 2.614620 1_555
Cl12 Cu5 2.614620 1_555
Cl12 K1 3.175126 1_665
Cl13 Cu13 2.422517 1_555
Cl13 Cu6 2.557624 1_555
Cl13 Cu5 2.557624 1_555
Cl14 Cu11 2.614620 1_555
Cl14 Cu10 2.614620 1_555
Cl14 K0 3.175126 1_555
Cl15 Cu2 2.614620 1_555
Cl15 Cu5 2.614620 1_555
Cl15 K1 3.175131 1_565
Cl16 Cu8 2.614620 1_555
Cl16 Cu1 2.614620 1_555
Cl16 K0 3.175131 1_655
Cl17 Cu0 2.614620 1_555
Cl17 Cu10 2.614620 1_555
Cl17 K0 3.175131 1_655
O0 Se0 1.738088 1_555
O2 Se0 1.738088 1_555
O3 Se2 1.738095 1_555
O5 Se2 1.738088 1_555
O6 Se3 1.738088 1_555
O7 Se1 1.738088 1_555
O8 Se1 1.738095 1_555
O10 Se1 1.738088 1_555
O11 Se0 1.738095 1_555
O12 Se2 1.738088 1_555
O14 Se3 1.738095 1_555
O15 Se3 1.738088 1_555
