# generated using pymatgen
data_Ba5Ta4O15
_symmetry_space_group_name_H-M   'P 1'
_cell_length_a   5.81978595
_cell_length_b   5.81978595
_cell_length_c   11.88463337
_cell_angle_alpha   90.00003437
_cell_angle_beta   89.99996100
_cell_angle_gamma   119.99998843
_symmetry_Int_Tables_number   1
_chemical_formula_structural   Ba5Ta4O15
_chemical_formula_sum   'Ba5 Ta4 O15'
_cell_volume   348.60249794
_cell_formula_units_Z   1
loop_
 _symmetry_equiv_pos_site_id
 _symmetry_equiv_pos_as_xyz
  1  'x, y, z'
loop_
 _atom_site_type_symbol
 _atom_site_label
 _atom_site_symmetry_multiplicity
 _atom_site_fract_x
 _atom_site_fract_y
 _atom_site_fract_z
 _atom_site_occupancy
  Ba  Ba0  1  0.33333316  0.66666668  0.78904664  1
  Ba  Ba1  1  0.00000005  0.00000005  0.00000005  1
  Ba  Ba2  1  0.66666614  0.33333346  0.56885379  1
  Ba  Ba3  1  0.33333383  0.66666655  0.43114609  1
  Ba  Ba4  1  0.66666698  0.33333344  0.21095338  1
  Ta  Ta0  1  0.66666675  0.33333319  0.89621845  1
  Ta  Ta1  1  0.33333335  0.66666691  0.10378159  1
  Ta  Ta2  1  -0.00000014  -0.00000013  0.68623514  1
  Ta  Ta3  1  0.00000028  0.00000008  0.31376480  1
  O  O0  1  0.32597190  0.16298607  0.38612691  1
  O  O1  1  0.83074769  0.66149511  0.80919521  1
  O  O2  1  0.83701433  0.16298609  0.38612691  1
  O  O3  1  0.83074778  0.16925202  0.80919525  1
  O  O4  1  0.16298618  0.32597163  0.61387297  1
  O  O5  1  0.50000015  0.50000010  0.00000006  1
  O  O6  1  -0.00000004  0.49999990  0.00000005  1
  O  O7  1  0.83701365  0.67402826  0.38612692  1
  O  O8  1  0.49999997  -0.00000004  0.00000006  1
  O  O9  1  0.66149515  0.83074772  0.19080488  1
  O  O10  1  0.33850504  0.16925259  0.80919529  1
  O  O11  1  0.16925203  0.83074772  0.19080481  1
  O  O12  1  0.16925261  0.33850490  0.19080481  1
  O  O13  1  0.16298596  0.83701408  0.61387298  1
  O  O14  1  0.67402821  0.83701359  0.61387299  1
loop_
_geom_bond_atom_site_label_1
_geom_bond_atom_site_label_2
_geom_bond_distance
_geom_bond_site_symmetry_2
Ba0 O14 2.698655 1_555
Ba0 O13 2.698655 1_555
Ba0 O4 2.698655 1_555
Ba0 O1 2.919843 1_455
Ba0 O10 2.919845 1_565
Ba0 O10 2.919846 1_555
Ba0 O3 2.919846 1_565
Ba0 O3 2.919846 1_455
Ba0 O1 2.919847 1_555
Ba0 O6 3.017956 1_556
Ba0 O8 3.017956 1_566
Ba0 O5 3.017958 1_556
Ba1 O11 2.837774 1_545
Ba1 O3 2.837774 1_454
Ba1 O12 2.837774 1_555
Ba1 O10 2.837774 1_554
Ba1 O9 2.837775 1_445
Ba1 O1 2.837775 1_444
Ba1 O6 2.909892 1_555
Ba1 O8 2.909893 1_555
Ba1 O5 2.909893 1_445
Ba1 O8 2.909893 1_455
Ba1 O6 2.909894 1_545
Ba1 O5 2.909894 1_555
Ba2 O0 2.768494 1_555
Ba2 O7 2.768495 1_555
Ba2 O2 2.768496 1_555
Ba2 O4 2.958899 1_555
Ba2 O14 2.958899 1_555
Ba2 O13 2.958904 1_545
Ba2 O13 2.958907 1_655
Ba2 O14 2.958910 1_545
Ba2 O4 2.958911 1_655
Ba2 O10 3.300671 1_555
Ba2 O1 3.300672 1_555
Ba2 O3 3.300677 1_555
Ba3 O14 2.768494 1_555
Ba3 O4 2.768496 1_555
Ba3 O13 2.768496 1_555
Ba3 O7 2.958899 1_555
Ba3 O0 2.958902 1_555
Ba3 O2 2.958905 1_455
Ba3 O2 2.958905 1_565
Ba3 O0 2.958908 1_565
Ba3 O7 2.958911 1_455
Ba3 O9 3.300669 1_555
Ba3 O12 3.300670 1_555
Ba3 O11 3.300675 1_555
Ba4 O7 2.698653 1_555
Ba4 O0 2.698654 1_555
Ba4 O2 2.698654 1_555
Ba4 O11 2.919844 1_655
Ba4 O9 2.919844 1_545
Ba4 O12 2.919845 1_655
Ba4 O12 2.919846 1_555
Ba4 O9 2.919847 1_555
Ba4 O11 2.919848 1_545
Ba4 O6 3.017954 1_655
Ba4 O8 3.017956 1_555
Ba4 O5 3.017957 1_555
O0 Ta3 1.854399 1_555
O1 Ta0 1.950704 1_555
O1 Ta2 2.246387 1_665
O2 Ta3 1.854399 1_655
O3 Ta0 1.950704 1_555
O3 Ta2 2.246384 1_655
O4 Ta2 1.854400 1_555
O5 Ta1 2.084174 1_555
O5 Ta0 2.084174 1_554
O6 Ta0 2.084175 1_454
O6 Ta1 2.084175 1_555
O7 Ta3 1.854400 1_665
O8 Ta1 2.084173 1_545
O8 Ta0 2.084175 1_554
O9 Ta1 1.950704 1_555
O9 Ta3 2.246387 1_665
O10 Ta0 1.950703 1_555
O10 Ta2 2.246389 1_555
O11 Ta1 1.950704 1_555
O11 Ta3 2.246382 1_565
O12 Ta1 1.950704 1_555
O12 Ta3 2.246386 1_555
O13 Ta2 1.854399 1_565
O14 Ta2 1.854399 1_665
