# generated using pymatgen
data_Eu(SbPd)2
_symmetry_space_group_name_H-M   'P 1'
_cell_length_a   4.63491600
_cell_length_b   4.63491600
_cell_length_c   10.69171716
_cell_angle_alpha   90.00000000
_cell_angle_beta   90.00000000
_cell_angle_gamma   90.00000000
_symmetry_Int_Tables_number   1
_chemical_formula_structural   Eu(SbPd)2
_chemical_formula_sum   'Eu2 Sb4 Pd4'
_cell_volume   229.68424003
_cell_formula_units_Z   2
loop_
 _symmetry_equiv_pos_site_id
 _symmetry_equiv_pos_as_xyz
  1  'x, y, z'
loop_
 _atom_site_type_symbol
 _atom_site_label
 _atom_site_symmetry_multiplicity
 _atom_site_fract_x
 _atom_site_fract_y
 _atom_site_fract_z
 _atom_site_occupancy
  Eu  Eu0  1  0.25000000  0.25000000  0.24118084  1
  Eu  Eu1  1  0.75000000  0.75000000  0.75881916  1
  Sb  Sb0  1  0.75000000  0.25000000  0.50000000  1
  Sb  Sb1  1  0.25000000  0.75000000  0.50000000  1
  Sb  Sb2  1  0.25000000  0.25000000  0.87231459  1
  Sb  Sb3  1  0.75000000  0.75000000  0.12768541  1
  Pd  Pd0  1  0.75000000  0.25000000  0.00000000  1
  Pd  Pd1  1  0.25000000  0.75000000  0.00000000  1
  Pd  Pd2  1  0.25000000  0.25000000  0.62805589  1
  Pd  Pd3  1  0.75000000  0.75000000  0.37194411  1
loop_
_geom_bond_atom_site_label_1
_geom_bond_atom_site_label_2
_geom_bond_distance
_geom_bond_site_symmetry_2
Eu0 Pd1 3.466985 1_545
Eu0 Pd0 3.466985 1_455
Eu0 Pd0 3.466985 1_555
Eu0 Pd1 3.466985 1_555
Eu0 Sb3 3.494812 1_555
Eu0 Sb3 3.494812 1_545
Eu0 Sb3 3.494812 1_445
Eu0 Sb3 3.494812 1_455
Eu0 Pd3 3.563125 1_455
Eu0 Pd3 3.563125 1_445
Eu0 Pd3 3.563125 1_545
Eu0 Pd3 3.563125 1_555
Eu0 Sb0 3.609449 1_455
Eu0 Sb1 3.609449 1_545
Eu0 Sb0 3.609449 1_555
Eu0 Sb1 3.609449 1_555
Eu1 Pd1 3.466985 1_556
Eu1 Pd1 3.466985 1_656
Eu1 Pd0 3.466985 1_566
Eu1 Pd0 3.466985 1_556
Eu1 Sb2 3.494812 1_555
Eu1 Sb2 3.494812 1_565
Eu1 Sb2 3.494812 1_655
Eu1 Sb2 3.494812 1_665
Eu1 Pd2 3.563125 1_655
Eu1 Pd2 3.563125 1_555
Eu1 Pd2 3.563125 1_565
Eu1 Pd2 3.563125 1_665
Eu1 Sb1 3.609449 1_655
Eu1 Sb0 3.609449 1_555
Eu1 Sb1 3.609449 1_555
Eu1 Sb0 3.609449 1_565
Pd0 Sb3 2.689669 1_555
Pd0 Sb2 2.689669 1_654
Pd0 Sb3 2.689669 1_545
Pd0 Sb2 2.689669 1_554
Pd1 Sb2 2.689669 1_564
Pd1 Sb3 2.689669 1_555
Pd1 Sb2 2.689669 1_554
Pd1 Sb3 2.689669 1_455
Pd2 Sb2 2.611545 1_555
Pd2 Sb1 2.691681 1_555
Pd2 Sb0 2.691681 1_455
Pd2 Sb0 2.691681 1_555
Pd2 Sb1 2.691681 1_545
Pd3 Sb3 2.611545 1_555
Pd3 Sb1 2.691681 1_555
Pd3 Sb0 2.691681 1_565
Pd3 Sb1 2.691681 1_655
Pd3 Sb0 2.691681 1_555
