# generated using pymatgen
data_KNa2LiTi2Fe2(SiO3)8
_symmetry_space_group_name_H-M   'P 1'
_cell_length_a   10.47850126
_cell_length_b   10.47850126
_cell_length_c   10.09955815
_cell_angle_alpha   70.17293393
_cell_angle_beta   70.17293393
_cell_angle_gamma   75.35930327
_symmetry_Int_Tables_number   1
_chemical_formula_structural   KNa2LiTi2Fe2(SiO3)8
_chemical_formula_sum   'K2 Na4 Li2 Ti4 Fe4 Si16 O48'
_cell_volume   969.39088618
_cell_formula_units_Z   2
loop_
 _symmetry_equiv_pos_site_id
 _symmetry_equiv_pos_as_xyz
  1  'x, y, z'
loop_
 _atom_site_type_symbol
 _atom_site_label
 _atom_site_symmetry_multiplicity
 _atom_site_fract_x
 _atom_site_fract_y
 _atom_site_fract_z
 _atom_site_occupancy
  K  K0  1  0.58401900  0.41817200  0.25487100  1
  K  K1  1  0.41817200  0.58401900  0.75487100  1
  Na  Na0  1  0.53490300  0.93824700  0.31195400  1
  Na  Na1  1  0.93824700  0.53490300  0.81195400  1
  Na  Na2  1  0.46302100  0.05892200  0.71054700  1
  Na  Na3  1  0.05892200  0.46302100  0.21054700  1
  Li  Li0  1  0.06145400  0.93307600  0.26507400  1
  Li  Li1  1  0.93307600  0.06145400  0.76507400  1
  Ti  Ti0  1  0.33080500  0.98320700  0.11037400  1
  Ti  Ti1  1  0.98320700  0.33080500  0.61037400  1
  Ti  Ti2  1  0.86019800  0.96215300  0.12230700  1
  Ti  Ti3  1  0.96215300  0.86019800  0.62230700  1
  Fe  Fe0  1  0.65633700  0.02096700  0.90721800  1
  Fe  Fe1  1  0.02096700  0.65633700  0.40721800  1
  Fe  Fe2  1  0.14790100  0.02942000  0.89275300  1
  Fe  Fe3  1  0.02942000  0.14790100  0.39275300  1
  Si  Si0  1  0.44825700  0.26024900  0.06639300  1
  Si  Si1  1  0.26024900  0.44825700  0.56639300  1
  Si  Si2  1  0.54877200  0.74060100  0.94758300  1
  Si  Si3  1  0.74060100  0.54877200  0.44758300  1
  Si  Si4  1  0.24895200  0.70516200  0.08823400  1
  Si  Si5  1  0.70516200  0.24895200  0.58823400  1
  Si  Si6  1  0.75412600  0.28950800  0.92158900  1
  Si  Si7  1  0.28950800  0.75412600  0.42158900  1
  Si  Si8  1  0.75690900  0.70345000  0.11644200  1
  Si  Si9  1  0.70345000  0.75690900  0.61644200  1
  Si  Si10  1  0.24892800  0.29445400  0.89519300  1
  Si  Si11  1  0.29445400  0.24892800  0.39519300  1
  Si  Si12  1  0.95897800  0.25385400  0.08463700  1
  Si  Si13  1  0.25385400  0.95897800  0.58463700  1
  Si  Si14  1  0.04056600  0.74886600  0.92288000  1
  Si  Si15  1  0.74886600  0.04056600  0.42288000  1
  O  O0  1  0.99274700  0.09304000  0.07720000  1
  O  O1  1  0.09304000  0.99274700  0.57720000  1
  O  O2  1  0.99266500  0.90640400  0.93530800  1
  O  O3  1  0.90640400  0.99266500  0.43530800  1
  O  O4  1  0.22228600  0.87080100  0.07553900  1
  O  O5  1  0.87080100  0.22228600  0.57553900  1
  O  O6  1  0.78718200  0.12552900  0.93885000  1
  O  O7  1  0.12552900  0.78718200  0.43885000  1
  O  O8  1  0.72831800  0.05524800  0.26477500  1
  O  O9  1  0.05524800  0.72831800  0.76477500  1
  O  O10  1  0.27933000  0.94521500  0.73656400  1
  O  O11  1  0.94521500  0.27933000  0.23656400  1
  O  O12  1  0.19744800  0.06043600  0.22928100  1
  O  O13  1  0.06043600  0.19744800  0.72928100  1
  O  O14  1  0.82634700  0.92883600  0.74705700  1
  O  O15  1  0.92883600  0.82634700  0.24705700  1
  O  O16  1  0.72230900  0.86640400  0.10648800  1
  O  O17  1  0.86640400  0.72230900  0.60648800  1
  O  O18  1  0.29040800  0.13085800  0.91422600  1
  O  O19  1  0.13085800  0.29040800  0.41422600  1
  O  O20  1  0.92148200  0.65330800  0.04427800  1
  O  O21  1  0.65330800  0.92148200  0.54427800  1
  O  O22  1  0.08211200  0.34009500  0.95659700  1
  O  O23  1  0.34009500  0.08211200  0.45659700  1
  O  O24  1  0.47548900  0.09584200  0.08423800  1
  O  O25  1  0.09584200  0.47548900  0.58423800  1
  O  O26  1  0.51096000  0.90142800  0.93952600  1
  O  O27  1  0.90142800  0.51096000  0.43952600  1
  O  O28  1  0.67046600  0.66245900  0.03133400  1
  O  O29  1  0.66245900  0.67046600  0.53133400  1
  O  O30  1  0.32889800  0.34301700  0.98147300  1
  O  O31  1  0.34301700  0.32889800  0.48147300  1
  O  O32  1  0.39252800  0.29211600  0.22667100  1
  O  O33  1  0.29211600  0.39252800  0.72667100  1
  O  O34  1  0.60729800  0.71314400  0.78467300  1
  O  O35  1  0.71314400  0.60729800  0.28467300  1
  O  O36  1  0.38710400  0.82069700  0.25792600  1
  O  O37  1  0.82069700  0.38710400  0.75792600  1
  O  O38  1  0.60658100  0.18581900  0.74569900  1
  O  O39  1  0.18581900  0.60658100  0.24569900  1
  O  O40  1  0.41766200  0.65676800  0.02797500  1
  O  O41  1  0.65676800  0.41766200  0.52797500  1
  O  O42  1  0.58520700  0.33606300  0.98023100  1
  O  O43  1  0.33606300  0.58520700  0.48023100  1
  O  O44  1  0.81827200  0.32995300  0.03029100  1
  O  O45  1  0.32995300  0.81827200  0.53029100  1
  O  O46  1  0.18459200  0.67999700  0.96890500  1
  O  O47  1  0.67999700  0.18459200  0.46890500  1
loop_
_geom_bond_atom_site_label_1
_geom_bond_atom_site_label_2
_geom_bond_distance
_geom_bond_site_symmetry_2
K0 O32 2.799055 1_555
K0 O35 2.808030 1_555
K0 O31 2.882943 1_555
K0 O47 2.883764 1_555
K0 O28 2.886935 1_555
K0 O44 2.919372 1_555
K0 O41 3.098908 1_555
K0 O42 3.166088 1_554
K0 O40 3.340762 1_555
K0 O43 3.374380 1_555
K1 O33 2.799055 1_555
K1 O34 2.808030 1_555
K1 O30 2.882943 1_555
K1 O46 2.883764 1_555
K1 O29 2.886935 1_555
K1 O45 2.919372 1_555
K1 O40 3.098908 1_556
K1 O43 3.166088 1_555
K1 O41 3.340762 1_555
K1 O42 3.374380 1_555
Na0 O8 2.458109 1_565
Na0 O36 2.491383 1_555
Na0 O16 2.505427 1_555
Na0 O24 2.505804 1_565
Na0 O23 2.547326 1_565
Na0 O45 2.706803 1_555
Na0 O21 2.942906 1_555
Na1 O9 2.458109 1_655
Na1 O37 2.491383 1_555
Na1 O17 2.505427 1_555
Na1 O25 2.505804 1_655
Na1 O22 2.547326 1_655
Na1 O44 2.706803 1_556
Na1 O20 2.942906 1_556
Na2 O10 2.407780 1_545
Na2 O38 2.418818 1_555
Na2 O18 2.431025 1_555
Na2 O26 2.470608 1_545
Na2 O21 2.605232 1_545
Na2 O47 2.903201 1_555
Na3 O11 2.407780 1_455
Na3 O39 2.418818 1_555
Na3 O19 2.431025 1_555
Na3 O27 2.470608 1_455
Na3 O20 2.605232 1_455
Na3 O46 2.903201 1_554
Li0 O12 2.055964 1_565
Li0 O3 2.075088 1_455
Li0 O15 2.076088 1_455
Li0 O7 2.080508 1_555
Li0 O4 2.243491 1_555
Li0 O0 2.255514 1_465
Li1 O13 2.055964 1_655
Li1 O2 2.075088 1_545
Li1 O14 2.076088 1_545
Li1 O6 2.080508 1_555
Li1 O5 2.243491 1_555
Li1 O1 2.255514 1_645
Fe0 O38 2.031483 1_555
Fe0 O26 2.084736 1_545
Fe0 O6 2.115723 1_555
Fe0 O14 2.226478 1_545
Fe0 O24 2.303179 1_556
Fe0 O16 2.306065 1_546
Fe1 O39 2.031483 1_555
Fe1 O27 2.084736 1_455
Fe1 O7 2.115723 1_555
Fe1 O15 2.226478 1_455
Fe1 O25 2.303179 1_555
Fe1 O17 2.306065 1_455
Fe2 O10 2.004914 1_545
Fe2 O18 2.141276 1_555
Fe2 O2 2.168441 1_445
Fe2 O0 2.190387 1_456
Fe2 O13 2.214626 1_555
Fe2 O4 2.240038 1_546
Fe3 O11 2.004914 1_455
Fe3 O19 2.141276 1_555
Fe3 O3 2.168441 1_445
Fe3 O1 2.190387 1_545
Fe3 O12 2.214626 1_555
Fe3 O5 2.240038 1_455
O0 Si12 1.654324 1_555
O0 Ti2 2.031628 1_545
O1 Si13 1.654324 1_555
O1 Ti3 2.031628 1_455
O2 Si14 1.634525 1_655
O2 Ti2 2.096419 1_556
O3 Si15 1.634525 1_565
O3 Ti3 2.096419 1_555
O4 Si4 1.653836 1_555
O4 Ti0 2.008403 1_555
O5 Si5 1.653836 1_555
O5 Ti1 2.008403 1_555
O6 Si6 1.624705 1_555
O6 Ti2 2.257631 1_546
O7 Si7 1.624705 1_555
O7 Ti3 2.257631 1_455
O8 Si15 1.633892 1_555
O8 Ti2 1.963019 1_545
O9 Si14 1.633892 1_555
O9 Ti3 1.963019 1_455
O10 Si13 1.598349 1_555
O11 Si12 1.598349 1_555
O12 Ti0 1.731750 1_545
O13 Ti1 1.731750 1_455
O14 Ti3 1.735166 1_555
O15 Ti2 1.735166 1_555
O16 Si8 1.628646 1_555
O16 Ti2 2.029272 1_555
O17 Si9 1.628646 1_555
O17 Ti3 2.029272 1_555
O18 Si10 1.618944 1_555
O18 Ti0 2.157758 1_546
O19 Si11 1.618944 1_555
O19 Ti1 2.157758 1_455
O20 Si8 1.652336 1_555
O20 Si14 1.680440 1_654
O21 Si9 1.652336 1_555
O21 Si15 1.680440 1_565
O22 Si10 1.646813 1_555
O22 Si12 1.678830 1_456
O23 Si11 1.646813 1_555
O23 Si13 1.678830 1_545
O24 Si0 1.630184 1_555
O24 Ti0 2.045203 1_545
O25 Si1 1.630184 1_555
O25 Ti1 2.045203 1_455
O26 Si2 1.610870 1_555
O26 Ti0 2.291483 1_556
O27 Si3 1.610870 1_555
O27 Ti1 2.291483 1_555
O28 Si8 1.648960 1_555
O28 Si2 1.657109 1_554
O29 Si9 1.648960 1_555
O29 Si3 1.657109 1_555
O30 Si0 1.651287 1_556
O30 Si10 1.652922 1_555
O31 Si1 1.651287 1_555
O31 Si11 1.652922 1_555
O32 Si11 1.638223 1_555
O32 Si0 1.643070 1_555
O33 Si10 1.638223 1_555
O33 Si1 1.643070 1_555
O34 Si9 1.629714 1_555
O34 Si2 1.647237 1_555
O35 Si8 1.629714 1_555
O35 Si3 1.647237 1_555
O36 Si7 1.642055 1_555
O36 Ti0 1.958465 1_555
O37 Si6 1.642055 1_555
O37 Ti1 1.958465 1_555
O38 Si5 1.597243 1_555
O39 Si4 1.597243 1_555
O40 Si2 1.639473 1_554
O40 Si4 1.667059 1_555
O41 Si3 1.639473 1_555
O41 Si5 1.667059 1_555
O42 Si0 1.645563 1_556
O42 Si6 1.664354 1_555
O43 Si1 1.645563 1_555
O43 Si7 1.664354 1_555
O44 Si12 1.663933 1_555
O44 Si6 1.672381 1_554
O45 Si13 1.663933 1_555
O45 Si7 1.672381 1_555
O46 Si14 1.646886 1_555
O46 Si4 1.683331 1_556
O47 Si15 1.646886 1_555
O47 Si5 1.683331 1_555
