# generated using pymatgen
data_K2NaAl3F12
_symmetry_space_group_name_H-M   'P 1'
_cell_length_a   6.84497315
_cell_length_b   6.93377407
_cell_length_c   9.55250590
_cell_angle_alpha   90.00000000
_cell_angle_beta   89.61596895
_cell_angle_gamma   90.00000000
_symmetry_Int_Tables_number   1
_chemical_formula_structural   K2NaAl3F12
_chemical_formula_sum   'K4 Na2 Al6 F24'
_cell_volume   453.36604926
_cell_formula_units_Z   2
loop_
 _symmetry_equiv_pos_site_id
 _symmetry_equiv_pos_as_xyz
  1  'x, y, z'
loop_
 _atom_site_type_symbol
 _atom_site_label
 _atom_site_symmetry_multiplicity
 _atom_site_fract_x
 _atom_site_fract_y
 _atom_site_fract_z
 _atom_site_occupancy
  K  K0  1  0.46197142  0.75000000  0.35536968  1
  K  K1  1  0.01696985  0.75000000  0.10425566  1
  K  K2  1  0.53802858  0.25000000  0.64463032  1
  K  K3  1  0.98303015  0.25000000  0.89574434  1
  Na  Na0  1  0.20677154  0.25000000  0.23869584  1
  Na  Na1  1  0.79322846  0.75000000  0.76130416  1
  Al  Al0  1  0.50000000  -0.00000000  -0.00000000  1
  Al  Al1  1  0.31378231  0.75000000  0.71571869  1
  Al  Al2  1  0.68621769  0.25000000  0.28428131  1
  Al  Al3  1  -0.00000000  0.50000000  0.50000000  1
  Al  Al4  1  0.50000000  0.50000000  -0.00000000  1
  Al  Al5  1  -0.00000000  -0.00000000  0.50000000  1
  F  F0  1  0.21863831  0.56158665  0.60086765  1
  F  F1  1  0.13046179  0.95841715  0.34342138  1
  F  F2  1  0.74291020  0.54810344  0.95228210  1
  F  F3  1  0.86953821  0.04158285  0.65657862  1
  F  F4  1  0.78136169  0.06158665  0.39913235  1
  F  F5  1  0.46607795  0.75000000  0.05815233  1
  F  F6  1  0.42419997  0.55962921  0.82306847  1
  F  F7  1  0.92042818  0.75000000  0.50492881  1
  F  F8  1  0.25708980  0.04810344  0.04771790  1
  F  F9  1  0.53096834  0.75000000  0.61724920  1
  F  F10  1  0.74291020  0.95189656  0.95228210  1
  F  F11  1  0.57580003  0.44037079  0.17693153  1
  F  F12  1  0.57580003  0.05962921  0.17693153  1
  F  F13  1  0.53392205  0.25000000  0.94184767  1
  F  F14  1  0.21863831  0.93841335  0.60086765  1
  F  F15  1  0.10596395  0.75000000  0.82107585  1
  F  F16  1  0.89403605  0.25000000  0.17892415  1
  F  F17  1  0.13046179  0.54158285  0.34342138  1
  F  F18  1  0.46903166  0.25000000  0.38275080  1
  F  F19  1  0.86953821  0.45841715  0.65657862  1
  F  F20  1  0.78136169  0.43841335  0.39913235  1
  F  F21  1  0.42419997  0.94037079  0.82306847  1
  F  F22  1  0.07957182  0.25000000  0.49507119  1
  F  F23  1  0.25708980  0.45189656  0.04771790  1
loop_
_geom_bond_atom_site_label_1
_geom_bond_atom_site_label_2
_geom_bond_distance
_geom_bond_site_symmetry_2
Al0 F10 1.753135 1_544
Al0 F8 1.753135 1_555
Al0 F21 1.818922 1_544
Al0 F12 1.818922 1_555
Al0 F13 1.834555 1_554
Al0 F5 1.834555 1_545
Al1 F15 1.737020 1_555
Al1 F9 1.753886 1_555
Al1 F14 1.828688 1_555
Al1 F0 1.828688 1_555
Al1 F6 1.837272 1_555
Al1 F21 1.837272 1_555
Al2 F16 1.737020 1_555
Al2 F18 1.753886 1_555
Al2 F20 1.828688 1_555
Al2 F4 1.828688 1_555
Al2 F12 1.837272 1_555
Al2 F11 1.837272 1_555
Al3 F17 1.760643 1_555
Al3 F19 1.760643 1_455
Al3 F22 1.817515 1_555
Al3 F7 1.817515 1_455
Al3 F0 1.835707 1_555
Al3 F20 1.835707 1_455
Al4 F2 1.753135 1_554
Al4 F23 1.753135 1_555
Al4 F6 1.818922 1_554
Al4 F11 1.818922 1_555
Al4 F13 1.834555 1_554
Al4 F5 1.834555 1_555
Al5 F1 1.760643 1_545
Al5 F3 1.760643 1_455
Al5 F22 1.817515 1_555
Al5 F7 1.817515 1_445
Al5 F4 1.835707 1_455
Al5 F14 1.835707 1_545
F0 K2 3.103900 1_555
F0 K0 3.150905 1_555
F1 Na0 2.313907 1_565
F1 K0 2.693328 1_555
F1 K1 2.816948 1_555
F2 Na1 2.323376 1_555
F2 K3 2.693263 1_555
F2 K1 2.760955 1_656
F3 Na1 2.313907 1_545
F3 K2 2.693328 1_555
F3 K3 2.816948 1_555
F4 K0 3.103900 1_545
F4 K2 3.150905 1_555
F5 K0 2.839121 1_555
F5 K1 3.102595 1_555
F6 K2 2.846731 1_555
F7 Na1 2.593691 1_555
F8 Na0 2.323376 1_555
F8 K1 2.693263 1_545
F8 K3 2.760955 1_454
F9 Na1 2.269215 1_555
F9 K0 2.548905 1_555
F10 Na1 2.323376 1_555
F10 K3 2.693263 1_565
F10 K1 2.760955 1_656
F11 K0 2.846731 1_555
F12 K0 2.846731 1_545
F13 K2 2.839121 1_555
F13 K3 3.102595 1_555
F14 K2 3.103900 1_565
F14 K0 3.150905 1_555
F15 Na1 2.219198 1_455
F15 K1 2.768832 1_556
F16 Na0 2.219198 1_655
F16 K3 2.768832 1_554
F17 Na0 2.313907 1_555
F17 K0 2.693328 1_555
F17 K1 2.816948 1_555
F18 Na0 2.269215 1_555
F18 K2 2.548905 1_555
F19 Na1 2.313907 1_555
F19 K2 2.693328 1_555
F19 K3 2.816948 1_555
F20 K0 3.103900 1_555
F20 K2 3.150905 1_555
F21 K2 2.846731 1_565
F22 Na0 2.593691 1_555
F23 Na0 2.323376 1_555
F23 K1 2.693263 1_555
F23 K3 2.760955 1_454
