# generated using pymatgen
data_KSrLa4Mn6O18
_symmetry_space_group_name_H-M   'P 1'
_cell_length_a   5.48531731
_cell_length_b   10.95943808
_cell_length_c   19.71581866
_cell_angle_alpha   46.43495857
_cell_angle_beta   56.67221116
_cell_angle_gamma   60.51328842
_symmetry_Int_Tables_number   1
_chemical_formula_structural   KSrLa4Mn6O18
_chemical_formula_sum   'K2 Sr2 La8 Mn12 O36'
_cell_volume   704.83567537
_cell_formula_units_Z   2
loop_
 _symmetry_equiv_pos_site_id
 _symmetry_equiv_pos_as_xyz
  1  'x, y, z'
loop_
 _atom_site_type_symbol
 _atom_site_label
 _atom_site_symmetry_multiplicity
 _atom_site_fract_x
 _atom_site_fract_y
 _atom_site_fract_z
 _atom_site_occupancy
  K  K0  1  0.25612200  0.41292500  0.41698500  1
  K  K1  1  0.74387800  0.42040900  0.91634900  1
  Sr  Sr0  1  0.25953600  0.91248000  0.41642400  1
  Sr  Sr1  1  0.74046400  0.92085400  0.91691000  1
  La  La0  1  0.24706400  0.08892800  0.08113200  1
  La  La1  1  0.24766700  0.58265400  0.08354500  1
  La  La2  1  0.75233300  0.25067900  0.24978800  1
  La  La3  1  0.24410000  0.25181900  0.75149900  1
  La  La4  1  0.75245500  0.08323200  0.58280100  1
  La  La5  1  0.75293600  0.74440500  0.25220100  1
  La  La6  1  0.24754500  0.75010100  0.75053200  1
  La  La7  1  0.75590000  0.58151400  0.58183400  1
  Mn  Mn0  1  0.99825600  0.00316000  0.99876600  1
  Mn  Mn1  1  0.00047300  0.50226900  0.99768400  1
  Mn  Mn2  1  0.49987900  0.16747500  0.16614300  1
  Mn  Mn3  1  0.50012100  0.66585900  0.16719100  1
  Mn  Mn4  1  0.50228200  0.00141400  0.49834900  1
  Mn  Mn5  1  0.50508500  0.49947700  0.49805300  1
  Mn  Mn6  1  0.99952700  0.33106400  0.33564900  1
  Mn  Mn7  1  0.49491500  0.33385600  0.83528000  1
  Mn  Mn8  1  0.00133500  0.16737900  0.66638100  1
  Mn  Mn9  1  0.00174400  0.83017300  0.33456700  1
  Mn  Mn10  1  0.49771800  0.83191900  0.83498400  1
  Mn  Mn11  1  0.99866500  0.66595500  0.66695300  1
  O  O0  1  0.20134400  0.02630200  0.24790400  1
  O  O1  1  0.26034200  0.34071300  0.07932000  1
  O  O2  1  0.26504700  0.27851700  0.23504000  1
  O  O3  1  0.73719700  0.04834100  0.10160200  1
  O  O4  1  0.20545400  0.52688100  0.24412800  1
  O  O5  1  0.27700100  0.84204400  0.07372200  1
  O  O6  1  0.30181500  0.16601000  0.40190400  1
  O  O7  1  0.79454600  0.30645200  0.08920500  1
  O  O8  1  0.26280300  0.78499200  0.23173100  1
  O  O9  1  0.25885400  0.08878200  0.58021000  1
  O  O10  1  0.73495300  0.55481600  0.09829300  1
  O  O11  1  0.20136400  0.35316700  0.58990200  1
  O  O12  1  0.73965800  0.49262000  0.25401300  1
  O  O13  1  0.29774200  0.67773700  0.40137300  1
  O  O14  1  0.29645000  0.01658900  0.73413200  1
  O  O15  1  0.79607100  0.14217400  0.41766700  1
  O  O16  1  0.79865600  0.80703100  0.08542900  1
  O  O17  1  0.25850500  0.60232600  0.57332400  1
  O  O18  1  0.75394500  0.38467500  0.43153500  1
  O  O19  1  0.20102700  0.85602500  0.58408700  1
  O  O20  1  0.22141400  0.17971000  0.91741600  1
  O  O21  1  0.72299900  0.99128900  0.25961100  1
  O  O22  1  0.70204500  0.31897500  0.60098500  1
  O  O23  1  0.29795500  0.51435800  0.73234800  1
  O  O24  1  0.77858600  0.65362400  0.41591800  1
  O  O25  1  0.24605500  0.44865900  0.90179900  1
  O  O26  1  0.74149500  0.23100700  0.76000900  1
  O  O27  1  0.75605200  0.88394100  0.43182300  1
  O  O28  1  0.20392900  0.69116000  0.91566700  1
  O  O29  1  0.70225800  0.15559700  0.93196100  1
  O  O30  1  0.70355000  0.81674400  0.59920100  1
  O  O31  1  0.79863600  0.48016600  0.74343100  1
  O  O32  1  0.24394800  0.94939300  0.90151100  1
  O  O33  1  0.74114600  0.74455100  0.75312300  1
  O  O34  1  0.69818500  0.66732400  0.93143000  1
  O  O35  1  0.79897300  0.97730800  0.74924600  1
loop_
_geom_bond_atom_site_label_1
_geom_bond_atom_site_label_2
_geom_bond_distance
_geom_bond_site_symmetry_2
K0 O24 2.646171 1_455
K0 O12 2.677597 1_555
K0 O9 2.686873 1_555
K0 O18 2.746096 1_555
K0 O18 2.759493 1_455
K0 O6 2.798816 1_555
K0 O13 2.813063 1_555
K0 O4 2.843248 1_555
K0 O11 2.851789 1_555
K0 O15 2.985659 1_555
K0 O22 3.045375 1_455
K0 O8 3.072546 1_555
K1 O20 2.646171 1_655
K1 O1 2.677589 1_556
K1 O33 2.686873 1_555
K1 O25 2.746096 1_555
K1 O25 2.759493 1_655
K1 O34 2.798816 1_555
K1 O29 2.813063 1_555
K1 O7 2.843224 1_556
K1 O31 2.851814 1_555
K1 O28 2.985659 1_555
K1 O23 3.045383 1_655
K1 O3 3.072546 1_556
La0 O7 2.476558 1_455
La0 O29 2.486493 1_554
La0 O8 2.507019 1_545
La0 O3 2.712295 1_555
La0 O20 2.713505 1_554
La0 O5 2.729516 1_545
La0 O0 2.738240 1_555
La0 O1 2.771301 1_555
La0 O3 2.814189 1_455
La0 O21 2.917830 1_445
La0 O25 2.971666 1_554
La0 O16 3.070038 1_545
La1 O16 2.485465 1_455
La1 O34 2.498001 1_554
La1 O2 2.513563 1_555
La1 O4 2.667829 1_555
La1 O1 2.675633 1_555
La1 O10 2.692784 1_555
La1 O28 2.755607 1_554
La1 O5 2.793194 1_555
La1 O12 2.806941 1_455
La1 O10 2.812654 1_455
La1 O7 3.022775 1_555
La1 O32 3.025306 1_554
La2 O0 2.485465 1_655
La2 O6 2.498008 1_555
La2 O10 2.513563 1_555
La2 O7 2.667829 1_555
La2 O12 2.675633 1_555
La2 O2 2.692784 1_555
La2 O15 2.755631 1_555
La2 O21 2.793194 1_545
La2 O1 2.806941 1_655
La2 O2 2.812654 1_655
La2 O4 3.022775 1_555
La2 O27 3.025306 1_545
La3 O31 2.473329 1_455
La3 O32 2.494225 1_545
La3 O22 2.505236 1_555
La3 O11 2.669467 1_555
La3 O14 2.688049 1_555
La3 O26 2.713268 1_555
La3 O20 2.725246 1_555
La3 O23 2.779447 1_555
La3 O26 2.781895 1_455
La3 O17 2.914882 1_555
La3 O29 2.983051 1_455
La3 O35 3.055828 1_545
La4 O19 2.491045 1_645
La4 O18 2.495577 1_555
La4 O14 2.507215 1_555
La4 O9 2.706059 1_555
La4 O22 2.710077 1_555
La4 O15 2.733459 1_555
La4 O35 2.749417 1_545
La4 O9 2.779996 1_655
La4 O33 2.806250 1_545
La4 O30 2.842625 1_545
La4 O6 3.007562 1_655
La4 O11 3.035045 1_555
La5 O4 2.476558 1_655
La5 O13 2.486502 1_555
La5 O3 2.507019 1_565
La5 O8 2.712295 1_555
La5 O24 2.713530 1_555
La5 O21 2.729516 1_555
La5 O16 2.738240 1_555
La5 O12 2.771301 1_555
La5 O8 2.814189 1_655
La5 O5 2.917830 1_655
La5 O18 2.971666 1_555
La5 O0 3.070038 1_565
La6 O35 2.491045 1_455
La6 O25 2.495577 1_555
La6 O30 2.507215 1_555
La6 O33 2.706059 1_555
La6 O23 2.710077 1_555
La6 O28 2.733485 1_555
La6 O19 2.749417 1_555
La6 O33 2.779996 1_455
La6 O9 2.806250 1_565
La6 O14 2.842625 1_565
La6 O34 3.007571 1_455
La6 O31 3.035045 1_555
La7 O11 2.473329 1_655
La7 O27 2.494225 1_555
La7 O23 2.505236 1_555
La7 O31 2.669467 1_555
La7 O30 2.688049 1_555
La7 O17 2.713268 1_555
La7 O24 2.725221 1_555
La7 O22 2.779447 1_555
La7 O17 2.781895 1_655
La7 O26 2.914882 1_555
La7 O13 2.983043 1_655
La7 O19 3.055828 1_555
Mn0 O20 1.926497 1_655
Mn0 O32 1.943229 1_645
Mn0 O29 1.951586 1_555
Mn0 O5 1.966734 1_646
Mn0 O3 1.975321 1_556
Mn0 O16 1.984253 1_546
Mn1 O25 1.920182 1_555
Mn1 O28 1.955272 1_555
Mn1 O1 1.966197 1_556
Mn1 O34 1.974409 1_455
Mn1 O7 1.986599 1_456
Mn1 O10 1.990414 1_456
Mn2 O7 1.943763 1_555
Mn2 O1 1.948683 1_555
Mn2 O2 1.948844 1_555
Mn2 O3 1.953222 1_555
Mn2 O0 1.956963 1_555
Mn2 O21 1.967110 1_545
Mn3 O4 1.943775 1_555
Mn3 O12 1.948672 1_555
Mn3 O10 1.948867 1_555
Mn3 O8 1.953199 1_555
Mn3 O16 1.956952 1_555
Mn3 O5 1.967122 1_555
Mn4 O6 1.922467 1_555
Mn4 O15 1.937846 1_555
Mn4 O9 1.951394 1_555
Mn4 O27 1.967873 1_545
Mn4 O30 1.983518 1_545
Mn4 O19 1.984201 1_545
Mn5 O24 1.944654 1_555
Mn5 O18 1.944909 1_555
Mn5 O13 1.950788 1_555
Mn5 O17 1.975196 1_555
Mn5 O11 1.984522 1_555
Mn5 O22 1.992679 1_555
Mn6 O18 1.920205 1_555
Mn6 O15 1.955259 1_555
Mn6 O12 1.966197 1_555
Mn6 O6 1.974418 1_655
Mn6 O4 1.986599 1_655
Mn6 O2 1.990414 1_655
Mn7 O20 1.944643 1_555
Mn7 O25 1.944932 1_555
Mn7 O29 1.950799 1_555
Mn7 O26 1.975196 1_555
Mn7 O31 1.984522 1_555
Mn7 O23 1.992679 1_555
Mn8 O11 1.942391 1_555
Mn8 O9 1.950868 1_555
Mn8 O22 1.950923 1_455
Mn8 O26 1.957034 1_455
Mn8 O35 1.957839 1_445
Mn8 O14 1.958484 1_555
Mn9 O24 1.926485 1_455
Mn9 O27 1.943252 1_455
Mn9 O13 1.951597 1_555
Mn9 O21 1.966734 1_455
Mn9 O8 1.975321 1_555
Mn9 O0 1.984253 1_565
Mn10 O34 1.922481 1_555
Mn10 O28 1.937835 1_555
Mn10 O33 1.951394 1_555
Mn10 O32 1.967896 1_555
Mn10 O14 1.983518 1_565
Mn10 O35 1.984201 1_555
Mn11 O31 1.942404 1_555
Mn11 O33 1.950845 1_555
Mn11 O23 1.950912 1_655
Mn11 O17 1.957057 1_655
Mn11 O19 1.957827 1_655
Mn11 O30 1.958495 1_555
O0 Sr0 2.785270 1_545
O2 Sr0 3.018135 1_545
O5 Sr1 2.571310 1_554
O6 Sr0 2.705750 1_545
O10 Sr1 3.018135 1_554
O13 Sr0 2.683964 1_555
O14 Sr1 3.041363 1_445
O15 Sr0 2.552843 1_645
O16 Sr1 2.785247 1_554
O17 Sr0 2.574819 1_555
O19 Sr0 2.761075 1_555
O20 Sr1 2.865448 1_545
O21 Sr0 2.571319 1_555
O24 Sr0 2.865448 1_555
O26 Sr1 2.574819 1_545
O27 Sr0 2.747154 1_555
O27 Sr0 2.759615 1_655
O28 Sr1 2.552843 1_455
O29 Sr1 2.683964 1_545
O30 Sr0 3.041355 1_655
O32 Sr1 2.747154 1_555
O32 Sr1 2.759615 1_455
O34 Sr1 2.705750 1_555
O35 Sr1 2.761100 1_555
