# generated using pymatgen
data_BaEu2Mn2O7
_symmetry_space_group_name_H-M   'P 1'
_cell_length_a   10.43084104
_cell_length_b   10.43084104
_cell_length_c   5.59831800
_cell_angle_alpha   90.00000000
_cell_angle_beta   90.00000000
_cell_angle_gamma   148.53083121
_symmetry_Int_Tables_number   1
_chemical_formula_structural   BaEu2Mn2O7
_chemical_formula_sum   'Ba2 Eu4 Mn4 O14'
_cell_volume   317.97994611
_cell_formula_units_Z   2
loop_
 _symmetry_equiv_pos_site_id
 _symmetry_equiv_pos_as_xyz
  1  'x, y, z'
loop_
 _atom_site_type_symbol
 _atom_site_label
 _atom_site_symmetry_multiplicity
 _atom_site_fract_x
 _atom_site_fract_y
 _atom_site_fract_z
 _atom_site_occupancy
  Ba  Ba0  1  0.74758300  0.74758300  0.75000000  1
  Ba  Ba1  1  0.25241700  0.25241700  0.25000000  1
  Eu  Eu0  1  0.44783800  0.08251700  0.25000000  1
  Eu  Eu1  1  0.08251700  0.44783800  0.25000000  1
  Eu  Eu2  1  0.91748300  0.55216200  0.75000000  1
  Eu  Eu3  1  0.55216200  0.91748300  0.75000000  1
  Mn  Mn0  1  0.65171200  0.85116300  0.25000000  1
  Mn  Mn1  1  0.34828800  0.14883700  0.75000000  1
  Mn  Mn2  1  0.14883700  0.34828800  0.75000000  1
  Mn  Mn3  1  0.85116300  0.65171200  0.25000000  1
  O  O0  1  0.39895100  0.60104900  0.00000000  1
  O  O1  1  0.60104900  0.39895100  0.50000000  1
  O  O2  1  0.91644100  0.51373700  0.25000000  1
  O  O3  1  0.08355900  0.48626300  0.75000000  1
  O  O4  1  0.11087600  0.88912400  0.50000000  1
  O  O5  1  0.88912400  0.11087600  0.00000000  1
  O  O6  1  0.76762100  0.76762100  0.25000000  1
  O  O7  1  0.39895100  0.60104900  0.50000000  1
  O  O8  1  0.48626300  0.08355900  0.75000000  1
  O  O9  1  0.88912400  0.11087600  0.50000000  1
  O  O10  1  0.60104900  0.39895100  0.00000000  1
  O  O11  1  0.11087600  0.88912400  0.00000000  1
  O  O12  1  0.51373700  0.91644100  0.25000000  1
  O  O13  1  0.23237900  0.23237900  0.75000000  1
loop_
_geom_bond_atom_site_label_1
_geom_bond_atom_site_label_2
_geom_bond_distance
_geom_bond_site_symmetry_2
Ba0 O13 2.742637 1_665
Ba0 O6 2.801454 1_555
Ba0 O6 2.801454 1_556
Ba0 O7 2.835089 1_555
Ba0 O0 2.835089 1_556
Ba0 O10 2.835089 1_556
Ba0 O1 2.835089 1_555
Ba0 O13 2.914665 1_555
Ba0 O5 2.992457 1_566
Ba0 O4 2.992457 1_655
Ba0 O11 2.992457 1_656
Ba0 O9 2.992457 1_565
Ba1 O6 2.742637 1_445
Ba1 O13 2.801454 1_555
Ba1 O13 2.801454 1_554
Ba1 O0 2.835089 1_555
Ba1 O1 2.835089 1_555
Ba1 O10 2.835089 1_555
Ba1 O7 2.835089 1_555
Ba1 O6 2.914665 1_555
Ba1 O5 2.992457 1_455
Ba1 O9 2.992457 1_455
Ba1 O11 2.992457 1_545
Ba1 O4 2.992457 1_545
Eu0 O12 2.346199 1_545
Eu0 O11 2.507411 1_545
Eu0 O4 2.507411 1_545
Eu0 O10 2.531631 1_555
Eu0 O1 2.531631 1_555
Eu0 O2 2.572809 1_555
Eu0 O8 2.826415 1_554
Eu0 O8 2.826415 1_555
Eu0 O2 3.134568 1_445
Eu1 O2 2.346199 1_455
Eu1 O9 2.507411 1_455
Eu1 O5 2.507411 1_455
Eu1 O0 2.531631 1_555
Eu1 O7 2.531631 1_555
Eu1 O12 2.572809 1_555
Eu1 O3 2.826415 1_554
Eu1 O3 2.826415 1_555
Eu1 O12 3.134568 1_445
Eu2 O3 2.346199 1_655
Eu2 O4 2.507411 1_655
Eu2 O11 2.507411 1_656
Eu2 O10 2.531631 1_556
Eu2 O1 2.531631 1_555
Eu2 O8 2.572809 1_555
Eu2 O2 2.826415 1_555
Eu2 O2 2.826415 1_556
Eu2 O8 3.134568 1_665
Eu3 O8 2.346199 1_565
Eu3 O5 2.507411 1_566
Eu3 O9 2.507411 1_565
Eu3 O0 2.531631 1_556
Eu3 O7 2.531631 1_555
Eu3 O3 2.572809 1_555
Eu3 O12 2.826415 1_556
Eu3 O12 2.826415 1_555
Eu3 O3 3.134568 1_665
Mn0 O0 1.995724 1_555
Mn0 O7 1.995724 1_555
Mn0 O9 1.996581 1_565
Mn0 O5 1.996581 1_565
Mn0 O6 2.004576 1_555
Mn0 O12 2.050990 1_555
Mn1 O10 1.995724 1_556
Mn1 O1 1.995724 1_555
Mn1 O4 1.996581 1_545
Mn1 O11 1.996581 1_546
Mn1 O13 2.004576 1_555
Mn1 O8 2.050990 1_555
Mn2 O0 1.995724 1_556
Mn2 O7 1.995724 1_555
Mn2 O9 1.996581 1_455
Mn2 O5 1.996581 1_456
Mn2 O13 2.004576 1_555
Mn2 O3 2.050990 1_555
Mn3 O10 1.995724 1_555
Mn3 O1 1.995724 1_555
Mn3 O4 1.996581 1_655
Mn3 O11 1.996581 1_655
Mn3 O6 2.004576 1_555
Mn3 O2 2.050990 1_555
