# generated using pymatgen
data_MnF2
_symmetry_space_group_name_H-M   'P 1'
_cell_length_a   3.31042523
_cell_length_b   4.87305925
_cell_length_c   4.87305925
_cell_angle_alpha   90.00000000
_cell_angle_beta   90.00000000
_cell_angle_gamma   90.00000000
_symmetry_Int_Tables_number   1
_chemical_formula_structural   MnF2
_chemical_formula_sum   'Mn2 F4'
_cell_volume   78.61169617
_cell_formula_units_Z   2
loop_
 _symmetry_equiv_pos_site_id
 _symmetry_equiv_pos_as_xyz
  1  'x, y, z'
loop_
 _atom_site_type_symbol
 _atom_site_label
 _atom_site_symmetry_multiplicity
 _atom_site_fract_x
 _atom_site_fract_y
 _atom_site_fract_z
 _atom_site_occupancy
  Mn  Mn0  1  0.50000000  0.50000000  0.50000000  1
  Mn  Mn1  1  0.00000000  0.00000000  -0.00000000  1
  F  F0  1  -0.00000000  0.69516878  0.69516878  1
  F  F1  1  0.50000000  0.80483122  0.19516878  1
  F  F2  1  0.00000000  0.30483122  0.30483122  1
  F  F3  1  0.50000000  0.19516878  0.80483122  1
loop_
_geom_bond_atom_site_label_1
_geom_bond_atom_site_label_2
_geom_bond_distance
_geom_bond_site_symmetry_2
F0 Mn1 2.100759 1_566
F0 Mn0 2.132790 1_555
F0 Mn0 2.132790 1_455
F1 Mn0 2.100759 1_555
F1 Mn1 2.132790 1_565
F1 Mn1 2.132790 1_665
F2 Mn1 2.100759 1_555
F2 Mn0 2.132790 1_455
F2 Mn0 2.132790 1_555
F3 Mn0 2.100759 1_555
F3 Mn1 2.132790 1_656
F3 Mn1 2.132790 1_556
