# generated using pymatgen
data_Co7(AsO6)2
_symmetry_space_group_name_H-M   'P 1'
_cell_length_a   5.88236321
_cell_length_b   8.46231773
_cell_length_c   10.52243505
_cell_angle_alpha   114.38753206
_cell_angle_beta   106.30775600
_cell_angle_gamma   90.01287928
_symmetry_Int_Tables_number   1
_chemical_formula_structural   Co7(AsO6)2
_chemical_formula_sum   'Co14 As4 O24'
_cell_volume   453.79995448
_cell_formula_units_Z   2
loop_
 _symmetry_equiv_pos_site_id
 _symmetry_equiv_pos_as_xyz
  1  'x, y, z'
loop_
 _atom_site_type_symbol
 _atom_site_label
 _atom_site_symmetry_multiplicity
 _atom_site_fract_x
 _atom_site_fract_y
 _atom_site_fract_z
 _atom_site_occupancy
  Co  Co0  1  0.42714900  0.79778200  0.85475800  1
  Co  Co1  1  0.15628600  0.15555700  0.81776800  1
  Co  Co2  1  0.66088000  0.15572900  0.81764700  1
  Co  Co3  1  0.83745200  0.82586200  0.67520300  1
  Co  Co4  1  0.33912000  0.84427100  0.18235300  1
  Co  Co5  1  0.16254800  0.17413800  0.32479700  1
  Co  Co6  1  0.57285100  0.20221800  0.14524200  1
  Co  Co7  1  0.66359600  0.64939900  0.32895700  1
  Co  Co8  1  0.50000000  0.00000000  0.50000000  1
  Co  Co9  1  0.84371400  0.84444300  0.18223200  1
  Co  Co10  1  0.33640400  0.35060100  0.67104300  1
  Co  Co11  1  0.07355500  0.44753100  0.14770500  1
  Co  Co12  1  0.92644500  0.55246900  0.85229500  1
  Co  Co13  1  0.00000000  0.00000000  0.50000000  1
  As  As0  1  0.74968700  0.37386100  0.49899400  1
  As  As1  1  0.25031300  0.62613900  0.50100600  1
  As  As2  1  0.00000000  0.00000000  0.00000000  1
  As  As3  1  0.50000000  0.50000000  0.00000000  1
  O  O0  1  0.70229600  0.92192800  0.84928400  1
  O  O1  1  0.49562000  0.74403200  0.50203100  1
  O  O2  1  0.00587100  0.74385700  0.50201300  1
  O  O3  1  0.50980500  0.73316200  0.01973900  1
  O  O4  1  0.64554100  0.42538700  0.84858600  1
  O  O5  1  0.99106300  0.21340700  0.98254600  1
  O  O6  1  0.50438000  0.25596800  0.49796900  1
  O  O7  1  0.20311800  0.42501700  0.84838400  1
  O  O8  1  0.14709800  0.92239400  0.84962900  1
  O  O9  1  0.17115800  0.94622200  0.34202200  1
  O  O10  1  0.67127500  0.89334100  0.34193300  1
  O  O11  1  0.35445900  0.57461300  0.15141400  1
  O  O12  1  0.29770400  0.07807200  0.15071600  1
  O  O13  1  0.49019500  0.26683800  0.98026100  1
  O  O14  1  0.82935800  0.56917900  0.65859300  1
  O  O15  1  0.32908500  0.58935300  0.65850200  1
  O  O16  1  0.99412900  0.25614300  0.49798700  1
  O  O17  1  0.17064200  0.43082100  0.34140700  1
  O  O18  1  0.67091500  0.41064700  0.34149800  1
  O  O19  1  0.85290200  0.07760600  0.15037100  1
  O  O20  1  0.82884200  0.05377800  0.65797800  1
  O  O21  1  0.00893700  0.78659300  0.01745400  1
  O  O22  1  0.79688200  0.57498300  0.15161600  1
  O  O23  1  0.32872500  0.10665900  0.65806700  1
loop_
_geom_bond_atom_site_label_1
_geom_bond_atom_site_label_2
_geom_bond_distance
_geom_bond_site_symmetry_2
Co0 O8 1.956156 1_555
Co0 O0 1.956566 1_555
Co0 O3 1.964480 1_556
Co0 O15 2.007719 1_555
Co1 O20 2.064818 1_455
Co1 O23 2.099343 1_555
Co1 O5 2.106221 1_455
Co1 O13 2.109909 1_555
Co1 O8 2.136547 1_545
Co1 O7 2.173127 1_555
Co2 O20 2.068538 1_555
Co2 O23 2.095450 1_555
Co2 O5 2.104489 1_555
Co2 O13 2.111069 1_555
Co2 O0 2.140844 1_545
Co2 O4 2.173577 1_555
Co3 O20 2.009692 1_565
Co3 O0 2.058326 1_555
Co3 O8 2.058488 1_655
Co3 O14 2.105408 1_555
Co3 O1 2.177795 1_555
Co3 O2 2.180367 1_655
Co4 O9 2.068538 1_555
Co4 O10 2.095450 1_555
Co4 O21 2.104489 1_555
Co4 O3 2.111069 1_555
Co4 O12 2.140844 1_565
Co4 O11 2.173577 1_555
Co5 O9 2.009692 1_545
Co5 O12 2.058326 1_555
Co5 O19 2.058488 1_455
Co5 O17 2.105408 1_555
Co5 O6 2.177795 1_555
Co5 O16 2.180367 1_455
Co6 O19 1.956156 1_555
Co6 O12 1.956566 1_555
Co6 O13 1.964480 1_554
Co6 O18 2.007719 1_555
Co7 O10 2.011420 1_555
Co7 O11 2.076700 1_555
Co7 O18 2.078049 1_555
Co7 O22 2.084440 1_555
Co7 O1 2.177342 1_555
Co7 O2 2.178730 1_655
Co8 O9 2.069114 1_545
Co8 O20 2.069114 1_555
Co8 O23 2.073131 1_555
Co8 O10 2.073131 1_545
Co8 O6 2.175212 1_555
Co8 O1 2.175212 1_545
Co9 O9 2.064818 1_655
Co9 O10 2.099343 1_555
Co9 O21 2.106221 1_655
Co9 O3 2.109909 1_555
Co9 O19 2.136547 1_565
Co9 O22 2.173127 1_555
Co10 O23 2.011420 1_555
Co10 O4 2.076700 1_555
Co10 O15 2.078049 1_555
Co10 O7 2.084440 1_555
Co10 O6 2.177342 1_555
Co10 O16 2.178730 1_455
Co11 O22 1.953309 1_455
Co11 O11 1.953640 1_555
Co11 O5 1.965591 1_454
Co11 O17 2.021093 1_555
Co12 O7 1.953309 1_655
Co12 O4 1.953640 1_555
Co12 O21 1.965591 1_656
Co12 O14 2.021093 1_555
Co13 O23 2.067237 1_555
Co13 O10 2.067237 1_445
Co13 O20 2.073511 1_455
Co13 O9 2.073511 1_545
Co13 O2 2.176582 1_545
Co13 O16 2.176582 1_455
As0 O14 1.742764 1_555
As0 O18 1.747256 1_555
As0 O6 1.749100 1_555
As0 O16 1.749426 1_555
As1 O17 1.742764 1_555
As1 O15 1.747256 1_555
As1 O1 1.749100 1_555
As1 O2 1.749426 1_555
As2 O5 1.888479 1_454
As2 O21 1.888479 1_545
As2 O12 1.895476 1_555
As2 O0 1.895476 1_444
As2 O8 1.895944 1_544
As2 O19 1.895944 1_455
As3 O3 1.895876 1_555
As3 O13 1.895876 1_554
As3 O22 1.896444 1_555
As3 O7 1.896444 1_554
As3 O4 1.898832 1_554
As3 O11 1.898832 1_555
