# generated using pymatgen
data_BaGa2B2O7
_symmetry_space_group_name_H-M   'P 1'
_cell_length_a   7.38395731
_cell_length_b   7.38395731
_cell_length_c   5.92739000
_cell_angle_alpha   90.00000000
_cell_angle_beta   90.00000000
_cell_angle_gamma   107.00963449
_symmetry_Int_Tables_number   1
_chemical_formula_structural   BaGa2B2O7
_chemical_formula_sum   'Ba2 Ga4 B4 O14'
_cell_volume   309.04081443
_cell_formula_units_Z   2
loop_
 _symmetry_equiv_pos_site_id
 _symmetry_equiv_pos_as_xyz
  1  'x, y, z'
loop_
 _atom_site_type_symbol
 _atom_site_label
 _atom_site_symmetry_multiplicity
 _atom_site_fract_x
 _atom_site_fract_y
 _atom_site_fract_z
 _atom_site_occupancy
  Ba  Ba0  1  0.80555700  0.80555700  0.25000000  1
  Ba  Ba1  1  0.19444300  0.19444300  0.75000000  1
  Ga  Ga0  1  0.86954700  0.28869100  0.25000000  1
  Ga  Ga1  1  0.71130900  0.13045300  0.75000000  1
  Ga  Ga2  1  0.28869100  0.86954700  0.25000000  1
  Ga  Ga3  1  0.13045300  0.71130900  0.75000000  1
  B  B0  1  0.49765300  0.71906400  0.75000000  1
  B  B1  1  0.50234700  0.28093600  0.25000000  1
  B  B2  1  0.28093600  0.50234700  0.25000000  1
  B  B3  1  0.71906400  0.49765300  0.75000000  1
  O  O0  1  0.86550500  0.13449500  0.50000000  1
  O  O1  1  0.33226900  0.33226900  0.25000000  1
  O  O2  1  0.13449500  0.86550500  0.00000000  1
  O  O3  1  0.67846600  0.41304400  0.25000000  1
  O  O4  1  0.13449500  0.86550500  0.50000000  1
  O  O5  1  0.86550500  0.13449500  0.00000000  1
  O  O6  1  0.66773100  0.66773100  0.75000000  1
  O  O7  1  0.90709300  0.51108500  0.75000000  1
  O  O8  1  0.32153400  0.58695600  0.75000000  1
  O  O9  1  0.48891500  0.09290700  0.25000000  1
  O  O10  1  0.09290700  0.48891500  0.25000000  1
  O  O11  1  0.41304400  0.67846600  0.25000000  1
  O  O12  1  0.58695600  0.32153400  0.75000000  1
  O  O13  1  0.51108500  0.90709300  0.75000000  1
loop_
_geom_bond_atom_site_label_1
_geom_bond_atom_site_label_2
_geom_bond_distance
_geom_bond_site_symmetry_2
Ba0 O0 2.768062 1_565
Ba0 O2 2.768062 1_655
Ba0 O4 2.768062 1_655
Ba0 O5 2.768062 1_565
Ba0 O11 2.772995 1_555
Ba0 O3 2.772995 1_555
Ba0 O6 3.201400 1_555
Ba0 O6 3.201400 1_554
Ba1 O0 2.768062 1_455
Ba1 O4 2.768062 1_545
Ba1 O2 2.768062 1_546
Ba1 O5 2.768062 1_456
Ba1 O8 2.772995 1_555
Ba1 O12 2.772995 1_555
Ba1 O1 3.201400 1_556
Ba1 O1 3.201400 1_555
Ga0 O5 1.863663 1_555
Ga0 O0 1.863663 1_555
Ga0 O10 1.865294 1_655
Ga0 O3 1.895214 1_555
Ga1 O5 1.863663 1_556
Ga1 O0 1.863663 1_555
Ga1 O13 1.865294 1_545
Ga1 O12 1.895214 1_555
Ga2 O2 1.863663 1_555
Ga2 O4 1.863663 1_555
Ga2 O9 1.865294 1_565
Ga2 O11 1.895214 1_555
Ga3 O4 1.863663 1_555
Ga3 O2 1.863663 1_556
Ga3 O7 1.865294 1_455
Ga3 O8 1.895214 1_555
B0 O13 1.362689 1_555
B0 O8 1.378604 1_555
B0 O6 1.413976 1_555
B1 O9 1.362689 1_555
B1 O3 1.378604 1_555
B1 O1 1.413976 1_555
B2 O10 1.362689 1_555
B2 O11 1.378604 1_555
B2 O1 1.413976 1_555
B3 O7 1.362689 1_555
B3 O12 1.378604 1_555
B3 O6 1.413976 1_555
