# generated using pymatgen
data_Mg7Al22O40
_symmetry_space_group_name_H-M   'P 1'
_cell_length_a   5.73179702
_cell_length_b   5.73179702
_cell_length_c   23.64655373
_cell_angle_alpha   82.84891244
_cell_angle_beta   82.84891244
_cell_angle_gamma   60.07024856
_symmetry_Int_Tables_number   1
_chemical_formula_structural   Mg7Al22O40
_chemical_formula_sum   'Mg7 Al22 O40'
_cell_volume   666.26966686
_cell_formula_units_Z   1
loop_
 _symmetry_equiv_pos_site_id
 _symmetry_equiv_pos_as_xyz
  1  'x, y, z'
loop_
 _atom_site_type_symbol
 _atom_site_label
 _atom_site_symmetry_multiplicity
 _atom_site_fract_x
 _atom_site_fract_y
 _atom_site_fract_z
 _atom_site_occupancy
  Mg  Mg0  1  0.12780700  0.12780700  0.62127600  1
  Mg  Mg1  1  0.40392600  0.40392600  0.29606600  1
  Mg  Mg2  1  0.72332100  0.72332100  0.82706400  1
  Mg  Mg3  1  0.87209300  0.87209300  0.37357000  1
  Mg  Mg4  1  0.99863800  0.99863800  0.49862500  1
  Mg  Mg5  1  0.46936700  0.46936700  0.57612100  1
  Mg  Mg6  1  0.07289600  0.07289600  0.77675400  1
  Al  Al0  1  0.32603300  0.32603300  0.02974200  1
  Al  Al1  1  0.94008700  0.94008700  0.22083400  1
  Al  Al2  1  0.98312900  0.98312900  0.00792800  1
  Al  Al3  1  0.30074700  0.79804900  0.10132900  1
  Al  Al4  1  0.61908200  0.61908200  0.19453800  1
  Al  Al5  1  0.53469500  0.53469500  0.42056400  1
  Al  Al6  1  0.79804900  0.30074700  0.10132900  1
  Al  Al7  1  0.90934300  0.40033600  0.29760900  1
  Al  Al8  1  0.40033600  0.90934300  0.29760900  1
  Al  Al9  1  0.26931200  0.26931200  0.17223400  1
  Al  Al10  1  0.20420700  0.20420700  0.39519700  1
  Al  Al11  1  0.50673300  0.99671000  0.49938700  1
  Al  Al12  1  0.79804000  0.79804000  0.59955700  1
  Al  Al13  1  0.99671000  0.50673300  0.49938700  1
  Al  Al14  1  0.09748100  0.59965000  0.70091000  1
  Al  Al15  1  0.39783300  0.39783300  0.80138600  1
  Al  Al16  1  0.59965000  0.09748100  0.70091000  1
  Al  Al17  1  0.59882800  0.59882800  0.70132100  1
  Al  Al18  1  0.69411700  0.19875100  0.90297300  1
  Al  Al19  1  0.19875100  0.69411700  0.90297300  1
  Al  Al20  1  0.19720500  0.19720500  0.90341900  1
  Al  Al21  1  0.66551700  0.66551700  0.98043600  1
  O  O0  1  0.66392400  0.16439700  0.04826700  1
  O  O1  1  0.96537900  0.96537900  0.14508700  1
  O  O2  1  0.16439700  0.66392400  0.04826700  1
  O  O3  1  0.13927600  0.13927600  0.05001900  1
  O  O4  1  0.27876600  0.75788200  0.24728700  1
  O  O5  1  0.45822100  0.45822100  0.14821700  1
  O  O6  1  0.63457700  0.63457700  0.05436900  1
  O  O7  1  0.56351100  0.56351100  0.34244300  1
  O  O8  1  0.75788200  0.27876600  0.24728700  1
  O  O9  1  0.44050500  0.93540000  0.14894100  1
  O  O10  1  0.93540000  0.44050500  0.14894100  1
  O  O11  1  0.75072900  0.75072900  0.24791200  1
  O  O12  1  0.87163500  0.35374000  0.44561700  1
  O  O13  1  0.06834700  0.06834700  0.34319200  1
  O  O14  1  0.05914600  0.51649100  0.34482600  1
  O  O15  1  0.35374000  0.87163500  0.44561700  1
  O  O16  1  0.16355600  0.16355600  0.53742600  1
  O  O17  1  0.24626400  0.24626400  0.24905100  1
  O  O18  1  0.34885200  0.34885200  0.44637700  1
  O  O19  1  0.51649100  0.05914600  0.34482600  1
  O  O20  1  0.48034400  0.92907100  0.65537500  1
  O  O21  1  0.66274900  0.66274900  0.54774500  1
  O  O22  1  0.75134400  0.75134400  0.74453000  1
  O  O23  1  0.65234800  0.11163100  0.55052200  1
  O  O24  1  0.83830700  0.83830700  0.45633100  1
  O  O25  1  0.92907100  0.48034400  0.65537500  1
  O  O26  1  0.11163100  0.65234800  0.55052200  1
  O  O27  1  0.93165900  0.93165900  0.65436600  1
  O  O28  1  0.08304100  0.52710600  0.85737100  1
  O  O29  1  0.26660200  0.26660200  0.75103300  1
  O  O30  1  0.52710600  0.08304100  0.85737100  1
  O  O31  1  0.26671000  0.71186000  0.75100400  1
  O  O32  1  0.44533600  0.44533600  0.66083400  1
  O  O33  1  0.34704900  0.34704900  0.94973400  1
  O  O34  1  0.52741000  0.52741000  0.85707100  1
  O  O35  1  0.71186000  0.26671000  0.75100400  1
  O  O36  1  0.85361500  0.85361500  0.95191800  1
  O  O37  1  0.85720800  0.32939700  0.94974800  1
  O  O38  1  0.04222000  0.04222000  0.86334400  1
  O  O39  1  0.32939700  0.85720800  0.94974800  1
loop_
_geom_bond_atom_site_label_1
_geom_bond_atom_site_label_2
_geom_bond_distance
_geom_bond_site_symmetry_2
Mg0 O16 1.963394 1_555
Mg0 O20 1.977609 1_545
Mg0 O25 1.977609 1_455
Mg0 O27 1.990864 1_445
Mg1 O19 1.999169 1_555
Mg1 O14 1.999169 1_555
Mg1 O4 2.032779 1_555
Mg1 O8 2.032779 1_555
Mg1 O17 2.045594 1_555
Mg1 O7 2.051939 1_555
Mg2 O22 1.931364 1_555
Mg2 O30 1.970513 1_565
Mg2 O28 1.970513 1_655
Mg2 O34 1.971524 1_555
Mg3 O19 1.936167 1_565
Mg3 O14 1.936167 1_655
Mg3 O24 1.937424 1_555
Mg3 O13 1.976632 1_665
Mg4 O16 1.988074 1_665
Mg4 O24 1.997416 1_555
Mg4 O26 2.042984 1_655
Mg4 O23 2.042984 1_565
Mg4 O12 2.087412 1_565
Mg4 O15 2.087412 1_655
Mg5 O26 1.917245 1_555
Mg5 O23 1.917245 1_555
Mg5 O21 1.939872 1_555
Mg5 O32 1.982972 1_555
Mg6 O29 1.931123 1_555
Mg6 O35 1.933525 1_455
Mg6 O31 1.933525 1_545
Mg6 O38 2.026301 1_555
Al0 O0 1.766581 1_555
Al0 O2 1.766581 1_555
Al0 O3 1.846484 1_555
Al0 O33 1.873328 1_554
Al1 O1 1.772553 1_555
Al1 O4 1.834941 1_655
Al1 O8 1.834941 1_565
Al1 O11 1.896170 1_555
Al2 O2 1.803387 1_655
Al2 O0 1.803387 1_565
Al2 O3 1.958468 1_665
Al2 O36 1.973778 1_554
Al2 O39 2.119143 1_654
Al2 O37 2.119143 1_564
Al3 O1 1.896778 1_455
Al3 O9 1.898313 1_555
Al3 O6 1.926986 1_555
Al3 O5 1.948105 1_555
Al3 O2 1.964693 1_555
Al3 O3 2.009093 1_565
Al4 O10 1.853014 1_555
Al4 O9 1.853014 1_555
Al4 O11 1.942699 1_555
Al4 O4 2.021493 1_555
Al4 O8 2.021493 1_555
Al4 O5 2.061846 1_555
Al5 O15 1.813716 1_555
Al5 O12 1.813716 1_555
Al5 O7 1.828208 1_555
Al5 O18 1.857538 1_555
Al6 O1 1.896778 1_545
Al6 O10 1.898313 1_555
Al6 O6 1.926986 1_555
Al6 O5 1.948105 1_555
Al6 O0 1.964693 1_555
Al6 O3 2.009093 1_655
Al7 O14 1.849688 1_655
Al7 O13 1.901784 1_655
Al7 O8 1.929372 1_555
Al7 O7 1.949775 1_555
Al7 O17 1.956089 1_655
Al7 O11 2.024228 1_555
Al8 O19 1.849688 1_565
Al8 O13 1.901784 1_565
Al8 O4 1.929372 1_555
Al8 O7 1.949775 1_555
Al8 O17 1.956089 1_565
Al8 O11 2.024228 1_555
Al9 O10 1.784143 1_455
Al9 O9 1.784143 1_545
Al9 O17 1.797873 1_555
Al9 O5 1.879129 1_555
Al10 O14 1.882714 1_555
Al10 O19 1.882714 1_555
Al10 O13 1.951163 1_555
Al10 O15 1.961644 1_545
Al10 O12 1.961644 1_455
Al10 O18 2.006221 1_555
Al11 O16 1.867981 1_565
Al11 O24 1.870668 1_555
Al11 O23 1.894933 1_565
Al11 O21 1.942398 1_555
Al11 O15 2.007855 1_555
Al11 O18 2.072196 1_565
Al12 O26 1.870019 1_655
Al12 O23 1.870019 1_565
Al12 O21 1.943419 1_555
Al12 O25 1.976315 1_555
Al12 O20 1.976315 1_555
Al12 O27 1.983041 1_555
Al13 O16 1.867981 1_655
Al13 O24 1.870668 1_555
Al13 O26 1.894933 1_655
Al13 O21 1.942398 1_555
Al13 O12 2.007855 1_555
Al13 O18 2.072196 1_655
Al14 O32 1.906367 1_555
Al14 O25 1.913009 1_455
Al14 O27 1.915786 1_455
Al14 O22 1.936112 1_455
Al14 O31 1.963665 1_555
Al14 O29 1.965904 1_555
Al15 O29 1.886753 1_555
Al15 O31 1.887620 1_555
Al15 O35 1.887620 1_555
Al15 O30 1.967895 1_555
Al15 O28 1.967895 1_555
Al15 O34 1.968376 1_555
Al16 O32 1.906367 1_555
Al16 O20 1.913009 1_545
Al16 O27 1.915786 1_545
Al16 O22 1.936112 1_545
Al16 O35 1.963665 1_555
Al16 O29 1.965904 1_555
Al17 O25 1.900930 1_555
Al17 O20 1.900930 1_555
Al17 O32 1.912173 1_555
Al17 O22 1.944153 1_555
Al17 O35 1.955961 1_555
Al17 O31 1.955961 1_555
Al18 O30 1.894107 1_555
Al18 O34 1.895480 1_555
Al18 O38 1.903056 1_655
Al18 O37 1.954526 1_555
Al18 O33 1.975240 1_555
Al18 O36 1.994362 1_545
Al19 O28 1.894107 1_555
Al19 O34 1.895480 1_555
Al19 O38 1.903056 1_565
Al19 O39 1.954526 1_555
Al19 O33 1.975240 1_555
Al19 O36 1.994362 1_455
Al20 O28 1.902495 1_555
Al20 O30 1.902495 1_555
Al20 O38 1.919108 1_555
Al20 O39 1.942610 1_545
Al20 O37 1.942610 1_455
Al20 O33 1.969583 1_555
Al21 O6 1.730987 1_556
Al21 O37 1.866215 1_555
Al21 O39 1.866215 1_555
Al21 O36 1.891404 1_555
