# generated using pymatgen
data_Sm4Se3O4
_symmetry_space_group_name_H-M   'P 1'
_cell_length_a   3.95173701
_cell_length_b   6.67497505
_cell_length_c   8.39192345
_cell_angle_alpha   89.99985545
_cell_angle_beta   90.00000000
_cell_angle_gamma   107.21818888
_symmetry_Int_Tables_number   1
_chemical_formula_structural   Sm4Se3O4
_chemical_formula_sum   'Sm4 Se3 O4'
_cell_volume   211.43965112
_cell_formula_units_Z   1
loop_
 _symmetry_equiv_pos_site_id
 _symmetry_equiv_pos_as_xyz
  1  'x, y, z'
loop_
 _atom_site_type_symbol
 _atom_site_label
 _atom_site_symmetry_multiplicity
 _atom_site_fract_x
 _atom_site_fract_y
 _atom_site_fract_z
 _atom_site_occupancy
  Sm  Sm0  1  0.68185046  0.36370193  0.23783975  1
  Sm  Sm1  1  0.68185146  0.36370193  0.76216025  1
  Sm  Sm2  1  0.01695709  0.03391418  0.50000000  1
  Sm  Sm3  1  0.00181474  0.00362947  -0.00000000  1
  Se  Se0  1  0.31433359  0.62866617  0.00000000  1
  Se  Se1  1  0.35423880  0.70847860  0.64918373  1
  Se  Se2  1  0.35423880  0.70847860  0.35081627  1
  O  O0  1  0.61464059  0.22928317  0.50000000  1
  O  O1  1  0.08673320  0.17346340  0.75556483  1
  O  O2  1  0.58918007  0.17836115  0.00000100  1
  O  O3  1  0.08673320  0.17346340  0.24443617  1
loop_
_geom_bond_atom_site_label_1
_geom_bond_atom_site_label_2
_geom_bond_distance
_geom_bond_site_symmetry_2
Se0 Se1 2.987677 1_554
Se0 Se2 2.987680 1_555
Se0 Sm3 3.101534 1_665
Se0 Sm3 3.101536 1_565
Se0 Sm0 3.277458 1_555
Se0 Sm0 3.277463 1_455
Se0 Sm1 3.277466 1_554
Se0 Sm1 3.277466 1_454
Se1 Se2 2.503877 1_555
Se1 Sm1 3.104055 1_455
Se1 Sm1 3.104060 1_555
Se1 Sm2 3.126770 1_565
Se1 Sm2 3.126772 1_665
Se2 Sm0 3.104061 1_555
Se2 Sm0 3.104061 1_455
Se2 Sm2 3.126774 1_565
Se2 Sm2 3.126777 1_665
O0 Sm2 2.335735 1_555
O0 Sm2 2.335742 1_655
O0 Sm0 2.361063 1_555
O0 Sm1 2.361067 1_555
O1 Sm1 2.319117 1_555
O1 Sm1 2.319123 1_455
O1 Sm3 2.319541 1_556
O1 Sm2 2.321919 1_555
O2 Sm3 2.268299 1_555
O2 Sm3 2.268302 1_655
O2 Sm0 2.319514 1_555
O2 Sm1 2.319523 1_554
O3 Sm0 2.319113 1_555
O3 Sm0 2.319127 1_455
O3 Sm3 2.319553 1_555
O3 Sm2 2.321907 1_555
