# generated using pymatgen
data_KSnPO5
_symmetry_space_group_name_H-M   'P 1'
_cell_length_a   6.63629600
_cell_length_b   10.90101100
_cell_length_c   13.37912800
_cell_angle_alpha   90.00000000
_cell_angle_beta   90.00000000
_cell_angle_gamma   90.00000000
_symmetry_Int_Tables_number   1
_chemical_formula_structural   KSnPO5
_chemical_formula_sum   'K8 Sn8 P8 O40'
_cell_volume   967.87736909
_cell_formula_units_Z   8
loop_
 _symmetry_equiv_pos_site_id
 _symmetry_equiv_pos_as_xyz
  1  'x, y, z'
loop_
 _atom_site_type_symbol
 _atom_site_label
 _atom_site_symmetry_multiplicity
 _atom_site_fract_x
 _atom_site_fract_y
 _atom_site_fract_z
 _atom_site_occupancy
  K  K0  1  0.30618900  0.43995700  0.89080300  1
  K  K1  1  0.22405000  0.19943600  0.62533700  1
  K  K2  1  0.19381100  0.43995700  0.39080300  1
  K  K3  1  0.69381100  0.93995700  0.10919700  1
  K  K4  1  0.77595000  0.69943600  0.37466300  1
  K  K5  1  0.80618900  0.93995700  0.60919700  1
  K  K6  1  0.72405000  0.69943600  0.87466300  1
  K  K7  1  0.27595000  0.19943600  0.12533700  1
  Sn  Sn0  1  0.74512900  0.25046600  0.75157300  1
  Sn  Sn1  1  0.75487100  0.25046600  0.25157300  1
  Sn  Sn2  1  0.99771700  0.50150500  0.12755400  1
  Sn  Sn3  1  0.49771700  0.00150500  0.37244600  1
  Sn  Sn4  1  0.00228300  0.00150500  0.87244600  1
  Sn  Sn5  1  0.50228300  0.50150500  0.62755400  1
  Sn  Sn6  1  0.25487100  0.75046600  0.24842700  1
  Sn  Sn7  1  0.24512900  0.75046600  0.74842700  1
  P  P0  1  0.34166400  0.75171900  0.50123100  1
  P  P1  1  0.49849700  0.99856200  0.82432000  1
  P  P2  1  0.15833600  0.75171900  0.00123100  1
  P  P3  1  0.50150300  0.49856200  0.17568000  1
  P  P4  1  0.99849700  0.49856200  0.67568000  1
  P  P5  1  0.00150300  0.99856200  0.32432000  1
  P  P6  1  0.65833600  0.25171900  0.49876900  1
  P  P7  1  0.84166400  0.25171900  0.99876900  1
  O  O0  1  0.79404100  0.22954300  0.59134200  1
  O  O1  1  0.03427100  0.62576900  0.23693400  1
  O  O2  1  0.47155200  0.88483300  0.75536900  1
  O  O3  1  0.70595900  0.22954300  0.09134200  1
  O  O4  1  0.01395200  0.86395100  0.77145600  1
  O  O5  1  0.20595900  0.72954300  0.40865800  1
  O  O6  1  0.68241600  0.97608500  0.89426000  1
  O  O7  1  0.48739800  0.86325200  0.48695600  1
  O  O8  1  0.46572900  0.62576900  0.73693400  1
  O  O9  1  0.18241600  0.47608500  0.60574000  1
  O  O10  1  0.01260200  0.86325200  0.98695600  1
  O  O11  1  0.81758400  0.97608500  0.39426000  1
  O  O12  1  0.52054500  0.13602600  0.48547000  1
  O  O13  1  0.53427100  0.12576900  0.26306600  1
  O  O14  1  0.96942900  0.10740300  0.25132200  1
  O  O15  1  0.51395200  0.36395100  0.72854400  1
  O  O16  1  0.29404100  0.72954300  0.90865800  1
  O  O17  1  0.03057100  0.60740300  0.74867800  1
  O  O18  1  0.20210500  0.77413800  0.59205700  1
  O  O19  1  0.02844800  0.88483300  0.25536900  1
  O  O20  1  0.31758400  0.47608500  0.10574000  1
  O  O21  1  0.31500500  0.02235700  0.89320800  1
  O  O22  1  0.70210500  0.27413800  0.90794300  1
  O  O23  1  0.96572900  0.12576900  0.76306600  1
  O  O24  1  0.53057100  0.10740300  0.75132200  1
  O  O25  1  0.98739800  0.36325200  0.01304400  1
  O  O26  1  0.02054500  0.63602600  0.01453000  1
  O  O27  1  0.18499500  0.02235700  0.39320800  1
  O  O28  1  0.98604800  0.36395100  0.22854400  1
  O  O29  1  0.68499500  0.52235700  0.10679200  1
  O  O30  1  0.79789500  0.27413800  0.40794300  1
  O  O31  1  0.97945500  0.13602600  0.98547000  1
  O  O32  1  0.46942900  0.60740300  0.24867800  1
  O  O33  1  0.97155200  0.38483300  0.74463100  1
  O  O34  1  0.81500500  0.52235700  0.60679200  1
  O  O35  1  0.52844800  0.38483300  0.24463100  1
  O  O36  1  0.47945500  0.63602600  0.51453000  1
  O  O37  1  0.29789500  0.77413800  0.09205700  1
  O  O38  1  0.51260200  0.36325200  0.51304400  1
  O  O39  1  0.48604800  0.86395100  0.27145600  1
loop_
_geom_bond_atom_site_label_1
_geom_bond_atom_site_label_2
_geom_bond_distance
_geom_bond_site_symmetry_2
K0 O15 2.701896 1_555
K0 O25 2.801728 1_456
K0 O20 2.903498 1_556
K0 O33 3.019504 1_455
K0 O8 3.075994 1_555
K0 O16 3.166832 1_555
K0 O22 3.197389 1_555
K0 O17 3.208288 1_555
K0 O26 3.301795 1_556
K1 O23 2.641819 1_455
K1 O12 2.801986 1_555
K1 O24 2.825860 1_555
K1 O0 2.908263 1_455
K1 O15 2.970551 1_555
K1 O38 3.018774 1_555
K1 O9 3.039713 1_555
K1 O33 3.072407 1_455
K2 O28 2.701896 1_455
K2 O38 2.801728 1_555
K2 O9 2.903498 1_555
K2 O35 3.019504 1_555
K2 O1 3.075994 1_555
K2 O5 3.166832 1_555
K2 O30 3.197389 1_455
K2 O32 3.208288 1_555
K2 O36 3.301795 1_555
K3 O39 2.701896 1_555
K3 O10 2.801728 1_654
K3 O6 2.903498 1_554
K3 O19 3.019504 1_655
K3 O13 3.075994 1_565
K3 O3 3.166832 1_565
K3 O37 3.197389 1_555
K3 O14 3.208288 1_565
K3 O31 3.301795 1_564
K4 O1 2.641819 1_655
K4 O36 2.801986 1_555
K4 O32 2.825860 1_555
K4 O5 2.908263 1_655
K4 O39 2.970551 1_555
K4 O7 3.018774 1_555
K4 O11 3.039713 1_555
K4 O19 3.072407 1_655
K5 O4 2.701896 1_655
K5 O7 2.801728 1_555
K5 O11 2.903498 1_555
K5 O2 3.019504 1_555
K5 O23 3.075994 1_565
K5 O0 3.166832 1_565
K5 O18 3.197389 1_655
K5 O24 3.208288 1_565
K5 O12 3.301795 1_565
K6 O8 2.641819 1_555
K6 O26 2.801986 1_656
K6 O17 2.825860 1_655
K6 O16 2.908263 1_555
K6 O4 2.970551 1_655
K6 O10 3.018774 1_655
K6 O6 3.039713 1_555
K6 O2 3.072407 1_555
K7 O13 2.641819 1_555
K7 O31 2.801986 1_454
K7 O14 2.825860 1_455
K7 O3 2.908263 1_555
K7 O28 2.970551 1_455
K7 O25 3.018774 1_455
K7 O20 3.039713 1_555
K7 O35 3.072407 1_555
O0 P6 1.550315 1_555
O0 Sn0 2.180149 1_555
O1 Sn6 2.003647 1_555
O1 Sn2 2.008821 1_455
O2 P1 1.555634 1_555
O2 Sn7 2.100456 1_555
O3 P7 1.550315 1_554
O3 Sn1 2.180149 1_555
O4 Sn7 1.994742 1_555
O4 Sn4 2.019915 1_565
O5 P0 1.550315 1_555
O5 Sn6 2.180149 1_555
O6 P1 1.557356 1_555
O6 Sn4 2.160545 1_665
O7 P0 1.565263 1_555
O7 Sn3 2.150161 1_565
O8 Sn7 2.003647 1_555
O8 Sn5 2.008821 1_555
O9 P4 1.557356 1_455
O9 Sn5 2.160545 1_555
O10 P2 1.565263 1_556
O10 Sn4 2.150161 1_565
O11 P5 1.557356 1_655
O11 Sn3 2.160545 1_565
O12 P6 1.567921 1_555
O12 Sn3 2.111861 1_555
O13 Sn1 2.003647 1_555
O13 Sn3 2.008821 1_555
O14 P5 1.551412 1_645
O14 Sn1 2.111766 1_555
O15 Sn0 1.994742 1_555
O15 Sn5 2.019915 1_555
O16 P2 1.550315 1_556
O16 Sn7 2.180149 1_555
O17 P4 1.551412 1_455
O17 Sn7 2.111766 1_555
O18 P0 1.547299 1_555
O18 Sn7 2.127197 1_555
O19 P5 1.555634 1_555
O19 Sn6 2.100456 1_555
O20 P3 1.557356 1_555
O20 Sn2 2.160545 1_455
O21 P1 1.549049 1_545
O21 Sn4 2.106126 1_555
O22 P7 1.547299 1_555
O22 Sn0 2.127197 1_555
O23 Sn0 2.003647 1_555
O23 Sn4 2.008821 1_655
O24 P1 1.551412 1_545
O24 Sn0 2.111766 1_555
O25 P7 1.565263 1_554
O25 Sn2 2.150161 1_555
O26 P2 1.567921 1_555
O26 Sn2 2.111861 1_455
O27 P5 1.549049 1_545
O27 Sn3 2.106126 1_555
O28 Sn1 1.994742 1_555
O28 Sn2 2.019915 1_555
O29 P3 1.549049 1_555
O29 Sn2 2.106126 1_555
O30 P6 1.547299 1_555
O30 Sn1 2.127197 1_555
O31 P7 1.567921 1_555
O31 Sn4 2.111861 1_655
O32 P3 1.551412 1_555
O32 Sn6 2.111766 1_555
O33 P4 1.555634 1_555
O33 Sn0 2.100456 1_555
O34 P4 1.549049 1_555
O34 Sn5 2.106126 1_555
O35 P3 1.555634 1_555
O35 Sn1 2.100456 1_555
O36 P0 1.567921 1_555
O36 Sn5 2.111861 1_555
O37 P2 1.547299 1_555
O37 Sn6 2.127197 1_555
O38 P6 1.565263 1_555
O38 Sn5 2.150161 1_555
O39 Sn6 1.994742 1_555
O39 Sn3 2.019915 1_565
