# generated using pymatgen
data_ZnS
_symmetry_space_group_name_H-M   'P 1'
_cell_length_a   37.82495548
_cell_length_b   37.82495546
_cell_length_c   37.82495607
_cell_angle_alpha   5.84754026
_cell_angle_beta   5.84754056
_cell_angle_gamma   5.84754019
_symmetry_Int_Tables_number   1
_chemical_formula_structural   ZnS
_chemical_formula_sum   'Zn12 S12'
_cell_volume   486.89521991
_cell_formula_units_Z   12
loop_
 _symmetry_equiv_pos_site_id
 _symmetry_equiv_pos_as_xyz
  1  'x, y, z'
loop_
 _atom_site_type_symbol
 _atom_site_label
 _atom_site_symmetry_multiplicity
 _atom_site_fract_x
 _atom_site_fract_y
 _atom_site_fract_z
 _atom_site_occupancy
  Zn  Zn0  1  0.08333944  0.08333944  0.08333944  1
  Zn  Zn1  1  0.52778634  0.52778634  0.52778634  1
  Zn  Zn2  1  0.61112046  0.61112046  0.61112046  1
  Zn  Zn3  1  0.16667296  0.16667296  0.16667296  1
  Zn  Zn4  1  0.36112578  0.36112578  0.36112578  1
  Zn  Zn5  1  0.80555324  0.80555324  0.80555324  1
  Zn  Zn6  1  0.88888288  0.88888288  0.88888288  1
  Zn  Zn7  1  0.72222188  0.72222188  0.72222188  1
  Zn  Zn8  1  0.00000226  0.00000226  0.00000226  1
  Zn  Zn9  1  0.30556377  0.30556377  0.30556377  1
  Zn  Zn10  1  0.44445385  0.44445385  0.44445385  1
  Zn  Zn11  1  0.25000551  0.25000551  0.25000551  1
  S  S0  1  0.10416421  0.10416421  0.10416421  1
  S  S1  1  0.90970939  0.90970939  0.90970939  1
  S  S2  1  0.27081533  0.27081533  0.27081533  1
  S  S3  1  0.38193911  0.38193911  0.38193911  1
  S  S4  1  0.46527180  0.46527180  0.46527180  1
  S  S5  1  0.82637960  0.82637960  0.82637960  1
  S  S6  1  0.74304772  0.74304772  0.74304772  1
  S  S7  1  0.54860438  0.54860438  0.54860438  1
  S  S8  1  0.18749738  0.18749738  0.18749738  1
  S  S9  1  0.02084407  0.02084407  0.02084407  1
  S  S10  1  0.63195685  0.63195685  0.63195685  1
  S  S11  1  0.32636778  0.32636778  0.32636778  1
loop_
_geom_bond_atom_site_label_1
_geom_bond_atom_site_label_2
_geom_bond_distance
_geom_bond_site_symmetry_2
S0 Zn0 2.358986 1_555
S0 Zn10 2.363073 1_554
S0 Zn10 2.363073 1_545
S0 Zn10 2.363073 1_455
S1 Zn6 2.359183 1_555
S1 Zn11 2.363318 1_665
S1 Zn11 2.363318 1_656
S1 Zn11 2.363318 1_566
S2 Zn11 2.357292 1_555
S2 Zn2 2.363659 1_554
S2 Zn2 2.363659 1_545
S2 Zn2 2.363659 1_455
S3 Zn4 2.357690 1_555
S3 Zn7 2.362814 1_554
S3 Zn7 2.362814 1_545
S3 Zn7 2.362814 1_455
S4 Zn10 2.358213 1_555
S4 Zn5 2.362763 1_554
S4 Zn5 2.362763 1_545
S4 Zn5 2.362764 1_455
S5 Zn5 2.359166 1_555
S5 Zn3 2.363214 1_665
S5 Zn3 2.363214 1_656
S5 Zn3 2.363214 1_566
S6 Zn7 2.359107 1_555
S6 Zn0 2.363152 1_665
S6 Zn0 2.363152 1_656
S6 Zn0 2.363152 1_566
S7 Zn1 2.358223 1_555
S7 Zn6 2.362653 1_554
S7 Zn6 2.362653 1_545
S7 Zn6 2.362653 1_455
S8 Zn3 2.358946 1_555
S8 Zn1 2.363047 1_554
S8 Zn1 2.363047 1_545
S8 Zn1 2.363047 1_455
S9 Zn8 2.360916 1_555
S9 Zn4 2.362774 1_554
S9 Zn4 2.362774 1_545
S9 Zn4 2.362774 1_455
S10 Zn2 2.360302 1_555
S10 Zn9 2.362467 1_565
S10 Zn9 2.362467 1_655
S10 Zn9 2.362468 1_556
S11 Zn9 2.356634 1_555
S11 Zn8 2.363508 1_565
S11 Zn8 2.363508 1_655
S11 Zn8 2.363508 1_556
