# generated using pymatgen
data_K2Be2Zn2Si3O11
_symmetry_space_group_name_H-M   'P 1'
_cell_length_a   9.64579200
_cell_length_b   9.64579200
_cell_length_c   9.64579200
_cell_angle_alpha   138.54975313
_cell_angle_beta   119.26616332
_cell_angle_gamma   76.20798083
_symmetry_Int_Tables_number   1
_chemical_formula_structural   K2Be2Zn2Si3O11
_chemical_formula_sum   'K4 Be4 Zn4 Si6 O22'
_cell_volume   505.36222693
_cell_formula_units_Z   2
loop_
 _symmetry_equiv_pos_site_id
 _symmetry_equiv_pos_as_xyz
  1  'x, y, z'
loop_
 _atom_site_type_symbol
 _atom_site_label
 _atom_site_symmetry_multiplicity
 _atom_site_fract_x
 _atom_site_fract_y
 _atom_site_fract_z
 _atom_site_occupancy
  K  K0  1  0.38842600  0.13842600  0.25000000  1
  K  K1  1  0.19866700  0.44866700  0.75000000  1
  K  K2  1  0.61157400  0.86157400  0.75000000  1
  K  K3  1  0.80133300  0.55133300  0.25000000  1
  Be  Be0  1  0.00000000  0.17498100  0.17498100  1
  Be  Be1  1  0.50000000  0.82501900  0.32501900  1
  Be  Be2  1  0.00000000  0.82501900  0.82501900  1
  Be  Be3  1  0.50000000  0.17498100  0.67498100  1
  Zn  Zn0  1  0.84923300  0.50000000  0.84923300  1
  Zn  Zn1  1  0.15076700  0.00000000  0.65076700  1
  Zn  Zn2  1  0.84923300  0.00000000  0.34923300  1
  Zn  Zn3  1  0.15076700  0.50000000  0.15076700  1
  Si  Si0  1  0.77666600  0.36696800  0.40969800  1
  Si  Si1  1  0.45726900  0.36696800  0.09030200  1
  Si  Si2  1  0.22333400  0.63303200  0.59030200  1
  Si  Si3  1  0.84731900  0.09731900  0.75000000  1
  Si  Si4  1  0.15268100  0.90268100  0.25000000  1
  Si  Si5  1  0.54273100  0.63303200  0.90969800  1
  O  O0  1  0.07562000  0.96421500  0.11140500  1
  O  O1  1  0.35281000  0.96421500  0.38859500  1
  O  O2  1  0.85642300  0.22190600  0.23519400  1
  O  O3  1  0.42240500  0.67240500  0.75000000  1
  O  O4  1  0.26907100  0.27662500  0.99244600  1
  O  O5  1  0.57759500  0.32759500  0.25000000  1
  O  O6  1  0.08945700  0.64240500  0.05294800  1
  O  O7  1  0.78417900  0.27662500  0.50755400  1
  O  O8  1  0.21582100  0.72337500  0.49244600  1
  O  O9  1  0.51328800  0.77809400  0.13451700  1
  O  O10  1  0.51328800  0.37877100  0.73519400  1
  O  O11  1  0.92438000  0.03578500  0.88859500  1
  O  O12  1  0.85642300  0.62122900  0.63451700  1
  O  O13  1  0.48671200  0.62122900  0.26480600  1
  O  O14  1  0.14357700  0.77809400  0.76480600  1
  O  O15  1  0.48671200  0.22190600  0.86548300  1
  O  O16  1  0.91054300  0.96349100  0.55294800  1
  O  O17  1  0.73092900  0.72337500  0.00755400  1
  O  O18  1  0.91054300  0.35759500  0.94705200  1
  O  O19  1  0.08945700  0.03650900  0.44705200  1
  O  O20  1  0.64719000  0.03578500  0.61140500  1
  O  O21  1  0.14357700  0.37877100  0.36548300  1
loop_
_geom_bond_atom_site_label_1
_geom_bond_atom_site_label_2
_geom_bond_distance
_geom_bond_site_symmetry_2
K0 O5 2.871660 1_555
K0 O10 2.878153 1_555
K0 O9 2.878153 1_545
K0 O14 2.878153 1_544
K0 O21 2.878153 1_555
K0 O0 2.969991 1_545
K0 O1 2.969991 1_545
K0 O7 3.272686 1_555
K0 O4 3.272686 1_554
K1 O19 2.650666 1_555
K1 O6 2.650666 1_556
K1 O10 2.998106 1_555
K1 O9 2.998106 1_556
K1 O14 2.998106 1_555
K1 O21 2.998106 1_555
K2 O3 2.871660 1_555
K2 O15 2.878153 1_565
K2 O2 2.878153 1_566
K2 O12 2.878153 1_555
K2 O13 2.878153 1_555
K2 O11 2.969991 1_565
K2 O20 2.969991 1_565
K2 O8 3.272686 1_555
K2 O17 3.272686 1_556
K3 O16 2.650666 1_555
K3 O18 2.650666 1_554
K3 O12 2.998106 1_555
K3 O15 2.998106 1_554
K3 O13 2.998106 1_555
K3 O2 2.998106 1_555
Be0 O2 1.598023 1_455
Be0 O21 1.598023 1_555
Be0 O0 1.703705 1_545
Be0 O11 1.703705 1_454
Be1 O13 1.598023 1_555
Be1 O9 1.598023 1_555
Be1 O20 1.703705 1_565
Be1 O1 1.703705 1_555
Be2 O12 1.598023 1_455
Be2 O14 1.598023 1_555
Be2 O11 1.703705 1_465
Be2 O0 1.703705 1_556
Be3 O15 1.598023 1_555
Be3 O10 1.598023 1_555
Be3 O1 1.703705 1_545
Be3 O20 1.703705 1_555
O0 Si4 1.643029 1_555
O1 Si4 1.643029 1_555
O2 Si0 1.614060 1_555
O3 Si2 1.668217 1_555
O3 Si5 1.668219 1_555
O4 Si1 1.670810 1_556
O4 Zn1 1.968701 1_555
O4 Zn3 1.968701 1_556
O5 Si0 1.668217 1_555
O5 Si1 1.668219 1_555
O6 Si4 1.652547 1_555
O6 Zn0 2.033910 1_454
O6 Zn3 2.033910 1_555
O7 Si0 1.670819 1_555
O7 Zn0 1.968701 1_555
O7 Zn2 1.968701 1_555
O8 Si2 1.670819 1_555
O8 Zn3 1.968701 1_555
O8 Zn1 1.968701 1_565
O9 Si5 1.614066 1_554
O10 Si5 1.614060 1_555
O11 Si3 1.643029 1_555
O12 Si0 1.614060 1_555
O13 Si1 1.614060 1_555
O14 Si2 1.614060 1_555
O15 Si1 1.614066 1_556
O16 Si3 1.652547 1_565
O16 Zn2 2.033910 1_565
O16 Zn1 2.033910 1_665
O17 Si5 1.670810 1_554
O17 Zn0 1.968701 1_554
O17 Zn2 1.968701 1_565
O18 Si3 1.652547 1_555
O18 Zn0 2.033910 1_555
O18 Zn3 2.033910 1_656
O19 Si4 1.652547 1_545
O19 Zn1 2.033910 1_555
O19 Zn2 2.033910 1_455
O20 Si3 1.643029 1_555
O21 Si2 1.614060 1_555
