# generated using pymatgen
data_RbCO2
_symmetry_space_group_name_H-M   'P 1'
_cell_length_a   10.39254054
_cell_length_b   6.27530399
_cell_length_c   8.24016757
_cell_angle_alpha   81.47197990
_cell_angle_beta   90.00000000
_cell_angle_gamma   90.00000000
_symmetry_Int_Tables_number   1
_chemical_formula_structural   RbCO2
_chemical_formula_sum   'Rb8 C8 O16'
_cell_volume   531.45194650
_cell_formula_units_Z   8
loop_
 _symmetry_equiv_pos_site_id
 _symmetry_equiv_pos_as_xyz
  1  'x, y, z'
loop_
 _atom_site_type_symbol
 _atom_site_label
 _atom_site_symmetry_multiplicity
 _atom_site_fract_x
 _atom_site_fract_y
 _atom_site_fract_z
 _atom_site_occupancy
  Rb  Rb0  1  0.58541630  0.76882555  0.33715786  1
  Rb  Rb1  1  0.70249054  0.28542301  0.02035256  1
  Rb  Rb2  1  0.91458370  0.76882555  0.83715786  1
  Rb  Rb3  1  0.08541630  0.23117445  0.16284214  1
  Rb  Rb4  1  0.20249054  0.71457699  0.47964744  1
  Rb  Rb5  1  0.41458370  0.23117445  0.66284214  1
  Rb  Rb6  1  0.29750946  0.71457699  0.97964744  1
  Rb  Rb7  1  0.79750946  0.28542301  0.52035256  1
  C  C0  1  0.10811638  0.16771661  0.65734196  1
  C  C1  1  0.44458307  0.31315288  0.27437664  1
  C  C2  1  0.55541693  0.68684712  0.72562336  1
  C  C3  1  0.60811638  0.83228339  0.84265804  1
  C  C4  1  0.89188362  0.83228339  0.34265804  1
  C  C5  1  0.94458307  0.68684712  0.22562336  1
  C  C6  1  0.05541693  0.31315288  0.77437664  1
  C  C7  1  0.39188362  0.16771661  0.15734196  1
  O  O0  1  0.44430143  0.72948828  0.66553818  1
  O  O1  1  0.55569857  0.27051172  0.33446182  1
  O  O2  1  0.12843459  0.46278033  0.80618094  1
  O  O3  1  0.15924035  0.99385437  0.72539339  1
  O  O4  1  0.37156541  0.46278033  0.30618094  1
  O  O5  1  0.09968239  0.23197635  0.50510366  1
  O  O6  1  0.34075965  0.99385437  0.22539339  1
  O  O7  1  0.84075965  0.00614563  0.27460661  1
  O  O8  1  0.59968239  0.76802365  0.99489634  1
  O  O9  1  0.90031761  0.76802365  0.49489634  1
  O  O10  1  0.62843459  0.53721967  0.69381906  1
  O  O11  1  0.65924035  0.00614563  0.77460661  1
  O  O12  1  0.87156541  0.53721967  0.19381906  1
  O  O13  1  0.94430143  0.27051172  0.83446182  1
  O  O14  1  0.05569857  0.72948828  0.16553818  1
  O  O15  1  0.40031761  0.23197635  0.00510366  1
loop_
_geom_bond_atom_site_label_1
_geom_bond_atom_site_label_2
_geom_bond_distance
_geom_bond_site_symmetry_2
C0 O5 1.262519 1_555
C0 O3 1.267141 1_545
C1 O4 1.264572 1_555
C1 O1 1.269230 1_555
C2 O10 1.264572 1_555
C2 O0 1.269230 1_555
C3 O8 1.262519 1_555
C3 O11 1.267141 1_565
C4 O9 1.262519 1_555
C4 O7 1.267141 1_565
C5 O12 1.264572 1_555
C5 O14 1.269230 1_655
C6 O2 1.264572 1_555
C6 O13 1.269230 1_455
C7 O15 1.262519 1_555
C7 O6 1.267141 1_545
O0 Rb4 2.951763 1_555
O0 Rb6 2.993921 1_555
O0 Rb0 3.055408 1_555
O0 Rb5 3.145640 1_555
O0 Rb5 3.160143 1_565
O1 Rb7 2.951763 1_555
O1 Rb1 2.993921 1_555
O1 Rb5 3.055408 1_555
O1 Rb0 3.145640 1_555
O1 Rb0 3.160143 1_545
O2 Rb6 2.880488 1_555
O2 Rb2 2.972923 1_455
O2 Rb4 3.011297 1_555
O2 Rb3 3.111719 1_556
O3 Rb4 2.902859 1_555
O3 Rb6 2.904607 1_555
O3 Rb2 2.986868 1_455
O3 Rb5 3.049235 1_565
O4 Rb4 2.880488 1_555
O4 Rb0 2.972923 1_555
O4 Rb6 3.011297 1_554
O4 Rb5 3.111719 1_555
O5 Rb3 2.824936 1_555
O5 Rb7 3.162679 1_455
O5 Rb4 3.188849 1_555
O6 Rb6 2.902859 1_554
O6 Rb4 2.904607 1_555
O6 Rb0 2.986868 1_555
O6 Rb3 3.049235 1_565
O7 Rb7 2.902859 1_555
O7 Rb1 2.904607 1_555
O7 Rb3 2.986868 1_655
O7 Rb0 3.049235 1_545
O8 Rb0 2.824936 1_556
O8 Rb6 3.162679 1_555
O8 Rb1 3.188849 1_556
O9 Rb2 2.824936 1_555
O9 Rb4 3.162679 1_655
O9 Rb7 3.188849 1_555
O10 Rb7 2.880488 1_555
O10 Rb5 2.972923 1_555
O10 Rb1 3.011297 1_556
O10 Rb0 3.111719 1_555
O11 Rb1 2.902859 1_556
O11 Rb7 2.904607 1_555
O11 Rb5 2.986868 1_555
O11 Rb2 3.049235 1_545
O12 Rb1 2.880488 1_555
O12 Rb3 2.972923 1_655
O12 Rb7 3.011297 1_555
O12 Rb2 3.111719 1_554
O13 Rb1 2.951763 1_556
O13 Rb7 2.993921 1_555
O13 Rb3 3.055408 1_656
O13 Rb2 3.145640 1_555
O13 Rb2 3.160143 1_545
O14 Rb6 2.951763 1_554
O14 Rb4 2.993921 1_555
O14 Rb2 3.055408 1_454
O14 Rb3 3.145640 1_555
O14 Rb3 3.160143 1_565
O15 Rb5 2.824936 1_554
O15 Rb1 3.162679 1_555
O15 Rb6 3.188849 1_554
