# generated using pymatgen
data_Yb2Au
_symmetry_space_group_name_H-M   'P 1'
_cell_length_a   4.83761924
_cell_length_b   6.96729147
_cell_length_c   8.69704215
_cell_angle_alpha   90.00000000
_cell_angle_beta   90.00000000
_cell_angle_gamma   90.00000000
_symmetry_Int_Tables_number   1
_chemical_formula_structural   Yb2Au
_chemical_formula_sum   'Yb8 Au4'
_cell_volume   293.13470385
_cell_formula_units_Z   4
loop_
 _symmetry_equiv_pos_site_id
 _symmetry_equiv_pos_as_xyz
  1  'x, y, z'
loop_
 _atom_site_type_symbol
 _atom_site_label
 _atom_site_symmetry_multiplicity
 _atom_site_fract_x
 _atom_site_fract_y
 _atom_site_fract_z
 _atom_site_occupancy
  Yb  Yb0  1  0.75000000  0.14698306  0.07975979  1
  Yb  Yb1  1  0.75000000  0.01502519  0.67630503  1
  Yb  Yb2  1  0.25000000  0.35301694  0.57975979  1
  Yb  Yb3  1  0.25000000  0.48497481  0.17630503  1
  Yb  Yb4  1  0.25000000  0.98497481  0.32369497  1
  Yb  Yb5  1  0.75000000  0.64698306  0.42024021  1
  Yb  Yb6  1  0.25000000  0.85301694  0.92024021  1
  Yb  Yb7  1  0.75000000  0.51502519  0.82369497  1
  Au  Au0  1  0.75000000  0.24267193  0.40170899  1
  Au  Au1  1  0.75000000  0.74267193  0.09829101  1
  Au  Au2  1  0.25000000  0.75732807  0.59829101  1
  Au  Au3  1  0.25000000  0.25732807  0.90170899  1
loop_
_geom_bond_atom_site_label_1
_geom_bond_atom_site_label_2
_geom_bond_distance
_geom_bond_site_symmetry_2
Yb0 Yb7 3.396317 1_554
Yb0 Yb4 3.409628 1_645
Yb0 Yb4 3.409628 1_545
Yb0 Yb6 3.459810 1_644
Yb0 Yb6 3.459810 1_544
Yb0 Yb3 3.478672 1_555
Yb0 Yb3 3.478672 1_655
Yb0 Yb1 3.627312 1_554
Yb1 Yb5 3.396317 1_545
Yb1 Yb6 3.409628 1_545
Yb1 Yb6 3.409628 1_645
Yb1 Yb2 3.478672 1_655
Yb1 Yb2 3.478672 1_555
Yb2 Yb4 3.396317 1_545
Yb2 Yb7 3.409628 1_455
Yb2 Yb7 3.409628 1_555
Yb2 Yb5 3.459810 1_455
Yb2 Yb5 3.459810 1_555
Yb2 Yb3 3.627312 1_555
Yb3 Yb6 3.396317 1_554
Yb3 Yb5 3.409628 1_555
Yb3 Yb5 3.409628 1_455
Yb4 Yb5 3.478672 1_455
Yb4 Yb5 3.478672 1_555
Yb4 Yb6 3.627312 1_554
Yb5 Yb7 3.627312 1_555
Yb6 Yb7 3.478672 1_555
Yb6 Yb7 3.478672 1_455
Au0 Yb5 2.821560 1_555
Au0 Yb1 2.866884 1_555
Au0 Yb0 2.878283 1_555
Au0 Yb2 2.973147 1_655
Au0 Yb2 2.973147 1_555
Au0 Yb4 3.087820 1_545
Au0 Yb4 3.087820 1_645
Au0 Yb3 3.541695 1_555
Au0 Yb3 3.541695 1_655
Au1 Yb0 2.821560 1_565
Au1 Yb7 2.866884 1_554
Au1 Yb5 2.878283 1_555
Au1 Yb6 2.973147 1_654
Au1 Yb6 2.973147 1_554
Au1 Yb3 3.087820 1_555
Au1 Yb3 3.087820 1_655
Au1 Yb4 3.541695 1_555
Au1 Yb4 3.541695 1_655
Au2 Yb2 2.821560 1_555
Au2 Yb4 2.866884 1_555
Au2 Yb6 2.878283 1_555
Au2 Yb5 2.973147 1_455
Au2 Yb5 2.973147 1_555
Au2 Yb1 3.087820 1_465
Au2 Yb1 3.087820 1_565
Au2 Yb7 3.541695 1_455
Au2 Yb7 3.541695 1_555
Au3 Yb6 2.821560 1_545
Au3 Yb3 2.866884 1_556
Au3 Yb2 2.878283 1_555
Au3 Yb0 2.973147 1_456
Au3 Yb0 2.973147 1_556
Au3 Yb7 3.087820 1_555
Au3 Yb7 3.087820 1_455
Au3 Yb1 3.541695 1_455
Au3 Yb1 3.541695 1_555
