# generated using pymatgen
data_ZrCoF6
_symmetry_space_group_name_H-M   'P 1'
_cell_length_a   5.77529464
_cell_length_b   5.77529464
_cell_length_c   5.77529464
_cell_angle_alpha   60.00000000
_cell_angle_beta   60.00000000
_cell_angle_gamma   60.00000000
_symmetry_Int_Tables_number   1
_chemical_formula_structural   ZrCoF6
_chemical_formula_sum   'Zr1 Co1 F6'
_cell_volume   136.20951236
_cell_formula_units_Z   1
loop_
 _symmetry_equiv_pos_site_id
 _symmetry_equiv_pos_as_xyz
  1  'x, y, z'
loop_
 _atom_site_type_symbol
 _atom_site_label
 _atom_site_symmetry_multiplicity
 _atom_site_fract_x
 _atom_site_fract_y
 _atom_site_fract_z
 _atom_site_occupancy
  Zr  Zr0  1  0.50000000  0.50000000  0.50000000  1
  Co  Co0  1  0.00000000  0.00000000  0.00000000  1
  F  F0  1  0.25006400  0.74993600  0.74993600  1
  F  F1  1  0.74993600  0.25006400  0.25006400  1
  F  F2  1  0.25006400  0.25006400  0.74993600  1
  F  F3  1  0.74993600  0.25006400  0.74993600  1
  F  F4  1  0.74993600  0.74993600  0.25006400  1
  F  F5  1  0.25006400  0.74993600  0.25006400  1
loop_
_geom_bond_atom_site_label_1
_geom_bond_atom_site_label_2
_geom_bond_distance
_geom_bond_site_symmetry_2
Co0 F0 2.042398 1_544
Co0 F4 2.042398 1_445
Co0 F3 2.042398 1_454
Co0 F5 2.042398 1_545
Co0 F1 2.042398 1_455
Co0 F2 2.042398 1_554
F0 Zr0 2.041352 1_555
F1 Zr0 2.041352 1_555
F2 Zr0 2.041352 1_555
F3 Zr0 2.041352 1_555
F4 Zr0 2.041352 1_555
F5 Zr0 2.041352 1_555
