# generated using pymatgen
data_Yb(CoSi)2
_symmetry_space_group_name_H-M   'P 1'
_cell_length_a   5.62051672
_cell_length_b   5.62051672
_cell_length_c   5.62051672
_cell_angle_alpha   139.51548759
_cell_angle_beta   139.51548759
_cell_angle_gamma   58.58970575
_symmetry_Int_Tables_number   1
_chemical_formula_structural   Yb(CoSi)2
_chemical_formula_sum   'Yb1 Co2 Si2'
_cell_volume   74.14627319
_cell_formula_units_Z   1
loop_
 _symmetry_equiv_pos_site_id
 _symmetry_equiv_pos_as_xyz
  1  'x, y, z'
loop_
 _atom_site_type_symbol
 _atom_site_label
 _atom_site_symmetry_multiplicity
 _atom_site_fract_x
 _atom_site_fract_y
 _atom_site_fract_z
 _atom_site_occupancy
  Yb  Yb0  1  0.00000000  0.00000000  0.00000000  1
  Co  Co0  1  0.75000000  0.25000000  0.50000000  1
  Co  Co1  1  0.25000000  0.75000000  0.50000000  1
  Si  Si0  1  0.63087900  0.63087900  0.00000000  1
  Si  Si1  1  0.36912100  0.36912100  0.00000000  1
loop_
_geom_bond_atom_site_label_1
_geom_bond_atom_site_label_2
_geom_bond_distance
_geom_bond_site_symmetry_2
Co0 Si1 2.268345 1_656
Co0 Si0 2.268345 1_556
Co0 Si1 2.268345 1_555
Co0 Si0 2.268345 1_545
Co0 Yb0 3.128637 1_555
Co0 Yb0 3.128637 1_666
Co0 Yb0 3.128637 1_655
Co0 Yb0 3.128637 1_656
Co1 Si0 2.268345 1_556
Co1 Si1 2.268345 1_555
Co1 Si0 2.268345 1_455
Co1 Si1 2.268345 1_566
Co1 Yb0 3.128637 1_666
Co1 Yb0 3.128637 1_555
Co1 Yb0 3.128637 1_566
Co1 Yb0 3.128637 1_565
Si0 Si1 2.566133 1_555
Si0 Yb0 3.034722 1_554
Si0 Yb0 3.034722 1_666
Si0 Yb0 3.034722 1_655
Si0 Yb0 3.034722 1_565
Si1 Yb0 3.034722 1_554
Si1 Yb0 3.034722 1_666
Si1 Yb0 3.034722 1_655
Si1 Yb0 3.034722 1_565
