# generated using pymatgen
data_Bi8Te9
_symmetry_space_group_name_H-M   'P 1'
_cell_length_a   34.99192549
_cell_length_b   34.99192533
_cell_length_c   34.99192600
_cell_angle_alpha   7.34525621
_cell_angle_beta   7.34525900
_cell_angle_gamma   7.34525634
_symmetry_Int_Tables_number   1
_chemical_formula_structural   Bi8Te9
_chemical_formula_sum   'Bi8 Te9'
_cell_volume   607.31888906
_cell_formula_units_Z   1
loop_
 _symmetry_equiv_pos_site_id
 _symmetry_equiv_pos_as_xyz
  1  'x, y, z'
loop_
 _atom_site_type_symbol
 _atom_site_label
 _atom_site_symmetry_multiplicity
 _atom_site_fract_x
 _atom_site_fract_y
 _atom_site_fract_z
 _atom_site_occupancy
  Bi  Bi0  1  0.82538800  0.82538800  0.82538800  1
  Bi  Bi1  1  0.11762000  0.11762000  0.11762000  1
  Bi  Bi2  1  0.64749900  0.64749900  0.64749900  1
  Bi  Bi3  1  0.58787500  0.58787500  0.58787500  1
  Bi  Bi4  1  0.41212500  0.41212500  0.41212500  1
  Bi  Bi5  1  0.35250100  0.35250100  0.35250100  1
  Bi  Bi6  1  0.17461200  0.17461200  0.17461200  1
  Bi  Bi7  1  0.88238000  0.88238000  0.88238000  1
  Te  Te0  1  0.70211000  0.70211000  0.70211000  1
  Te  Te1  1  0.53255400  0.53255400  0.53255400  1
  Te  Te2  1  0.93744200  0.93744200  0.93744200  1
  Te  Te3  1  0.29789000  0.29789000  0.29789000  1
  Te  Te4  1  0.46744600  0.46744600  0.46744600  1
  Te  Te5  1  0.76507300  0.76507300  0.76507300  1
  Te  Te6  1  0.00000000  0.00000000  0.00000000  1
  Te  Te7  1  0.23492700  0.23492700  0.23492700  1
  Te  Te8  1  0.06255800  0.06255800  0.06255800  1
loop_
_geom_bond_atom_site_label_1
_geom_bond_atom_site_label_2
_geom_bond_distance
_geom_bond_site_symmetry_2
Bi0 Bi6 3.076705 1_656
Bi0 Bi6 3.076706 1_665
Bi0 Bi6 3.076706 1_566
Bi1 Te4 3.111233 1_545
Bi1 Te4 3.111233 1_554
Bi1 Te4 3.111234 1_455
Bi1 Te5 3.277892 1_454
Bi1 Te5 3.277892 1_445
Bi1 Te5 3.277892 1_544
Bi2 Te3 3.098683 1_565
Bi2 Te3 3.098684 1_556
Bi2 Te3 3.098684 1_655
Bi2 Te6 3.274939 1_656
Bi2 Te6 3.274939 1_665
Bi2 Te6 3.274939 1_566
Bi3 Te2 3.096268 1_545
Bi3 Te2 3.096268 1_554
Bi3 Te2 3.096269 1_455
Bi3 Te7 3.303818 1_565
Bi3 Te7 3.303819 1_556
Bi3 Te7 3.303819 1_655
Bi4 Te8 3.096268 1_565
Bi4 Te8 3.096268 1_556
Bi4 Te8 3.096269 1_655
Bi4 Te5 3.303818 1_545
Bi4 Te5 3.303819 1_554
Bi4 Te5 3.303819 1_455
Bi5 Te0 3.098683 1_545
Bi5 Te0 3.098684 1_554
Bi5 Te0 3.098684 1_455
Bi5 Te6 3.274939 1_565
Bi5 Te6 3.274939 1_556
Bi5 Te6 3.274939 1_655
Bi7 Te1 3.111233 1_565
Bi7 Te1 3.111233 1_556
Bi7 Te1 3.111234 1_655
Bi7 Te7 3.277892 1_656
Bi7 Te7 3.277892 1_665
Bi7 Te7 3.277892 1_566
