# generated using pymatgen
data_BiI3
_symmetry_space_group_name_H-M   'P 1'
_cell_length_a   7.66426615
_cell_length_b   7.66426634
_cell_length_c   7.24033791
_cell_angle_alpha   90.00000000
_cell_angle_beta   90.00000000
_cell_angle_gamma   119.99999467
_symmetry_Int_Tables_number   1
_chemical_formula_structural   BiI3
_chemical_formula_sum   'Bi2 I6'
_cell_volume   368.32454102
_cell_formula_units_Z   2
loop_
 _symmetry_equiv_pos_site_id
 _symmetry_equiv_pos_as_xyz
  1  'x, y, z'
loop_
 _atom_site_type_symbol
 _atom_site_label
 _atom_site_symmetry_multiplicity
 _atom_site_fract_x
 _atom_site_fract_y
 _atom_site_fract_z
 _atom_site_occupancy
  Bi  Bi0  1  0.66666700  0.33333300  0.00000000  1
  Bi  Bi1  1  0.33333300  0.66666700  0.00000000  1
  I  I0  1  0.34153571  -0.00000000  0.75117822  1
  I  I1  1  -0.00000000  0.34153571  0.75117822  1
  I  I2  1  0.00000000  0.65846429  0.24882178  1
  I  I3  1  0.65846429  0.65846429  0.75117822  1
  I  I4  1  0.65846429  0.00000000  0.24882178  1
  I  I5  1  0.34153571  0.34153571  0.24882178  1
loop_
_geom_bond_atom_site_label_1
_geom_bond_atom_site_label_2
_geom_bond_distance
_geom_bond_site_symmetry_2
Bi0 I1 3.100919 1_654
Bi0 I4 3.100919 1_555
Bi0 I2 3.100922 1_655
Bi0 I0 3.100922 1_554
Bi0 I5 3.100925 1_555
Bi0 I3 3.100925 1_554
Bi1 I2 3.100919 1_555
Bi1 I0 3.100919 1_564
Bi1 I1 3.100922 1_554
Bi1 I4 3.100922 1_565
Bi1 I3 3.100925 1_554
Bi1 I5 3.100925 1_555
