# generated using pymatgen
data_SiO2
_symmetry_space_group_name_H-M   'P 1'
_cell_length_a   13.19197800
_cell_length_b   13.19197800
_cell_length_c   13.19197800
_cell_angle_alpha   90.00000000
_cell_angle_beta   90.00000000
_cell_angle_gamma   90.00000000
_symmetry_Int_Tables_number   1
_chemical_formula_structural   SiO2
_chemical_formula_sum   'Si48 O96'
_cell_volume   2295.77728800
_cell_formula_units_Z   48
loop_
 _symmetry_equiv_pos_site_id
 _symmetry_equiv_pos_as_xyz
  1  'x, y, z'
loop_
 _atom_site_type_symbol
 _atom_site_label
 _atom_site_symmetry_multiplicity
 _atom_site_fract_x
 _atom_site_fract_y
 _atom_site_fract_z
 _atom_site_occupancy
  Si  Si0  1  0.63160900  0.38068400  0.88917700  1
  Si  Si1  1  0.11931600  0.86839100  0.61082300  1
  Si  Si2  1  0.11082300  0.63160900  0.38068400  1
  Si  Si3  1  0.38068400  0.11082300  0.63160900  1
  Si  Si4  1  0.86839100  0.61082300  0.88068400  1
  Si  Si5  1  0.63160900  0.38068400  0.11082300  1
  Si  Si6  1  0.61082300  0.88068400  0.86839100  1
  Si  Si7  1  0.11931600  0.86839100  0.38917700  1
  Si  Si8  1  0.38917700  0.88068400  0.13160900  1
  Si  Si9  1  0.61931600  0.11082300  0.36839100  1
  Si  Si10  1  0.11931600  0.13160900  0.61082300  1
  Si  Si11  1  0.88068400  0.86839100  0.61082300  1
  Si  Si12  1  0.86839100  0.61082300  0.11931600  1
  Si  Si13  1  0.38068400  0.88917700  0.36839100  1
  Si  Si14  1  0.61082300  0.88068400  0.13160900  1
  Si  Si15  1  0.88068400  0.13160900  0.38917700  1
  Si  Si16  1  0.38917700  0.88068400  0.86839100  1
  Si  Si17  1  0.13160900  0.38917700  0.88068400  1
  Si  Si18  1  0.61082300  0.11931600  0.13160900  1
  Si  Si19  1  0.63160900  0.61931600  0.11082300  1
  Si  Si20  1  0.38068400  0.11082300  0.36839100  1
  Si  Si21  1  0.63160900  0.61931600  0.88917700  1
  Si  Si22  1  0.36839100  0.38068400  0.88917700  1
  Si  Si23  1  0.11931600  0.13160900  0.38917700  1
  Si  Si24  1  0.61931600  0.88917700  0.36839100  1
  Si  Si25  1  0.38917700  0.11931600  0.86839100  1
  Si  Si26  1  0.13160900  0.38917700  0.11931600  1
  Si  Si27  1  0.36839100  0.38068400  0.11082300  1
  Si  Si28  1  0.36839100  0.61931600  0.11082300  1
  Si  Si29  1  0.61082300  0.11931600  0.86839100  1
  Si  Si30  1  0.36839100  0.61931600  0.88917700  1
  Si  Si31  1  0.86839100  0.38917700  0.11931600  1
  Si  Si32  1  0.88068400  0.86839100  0.38917700  1
  Si  Si33  1  0.88917700  0.63160900  0.38068400  1
  Si  Si34  1  0.11082300  0.36839100  0.61931600  1
  Si  Si35  1  0.38068400  0.88917700  0.63160900  1
  Si  Si36  1  0.13160900  0.61082300  0.11931600  1
  Si  Si37  1  0.38917700  0.11931600  0.13160900  1
  Si  Si38  1  0.61931600  0.11082300  0.63160900  1
  Si  Si39  1  0.86839100  0.38917700  0.88068400  1
  Si  Si40  1  0.88917700  0.36839100  0.38068400  1
  Si  Si41  1  0.11082300  0.63160900  0.61931600  1
  Si  Si42  1  0.13160900  0.61082300  0.88068400  1
  Si  Si43  1  0.88068400  0.13160900  0.61082300  1
  Si  Si44  1  0.88917700  0.36839100  0.61931600  1
  Si  Si45  1  0.61931600  0.88917700  0.63160900  1
  Si  Si46  1  0.11082300  0.36839100  0.38068400  1
  Si  Si47  1  0.88917700  0.63160900  0.61931600  1
  O  O0  1  0.10370500  0.66646100  0.00000000  1
  O  O1  1  0.50000000  0.10024400  0.91208900  1
  O  O2  1  0.39975600  0.00000000  0.58791100  1
  O  O3  1  0.62200700  0.25000000  0.12200700  1
  O  O4  1  0.25000000  0.38574700  0.88574700  1
  O  O5  1  0.25000000  0.87799300  0.37799300  1
  O  O6  1  0.11425300  0.75000000  0.38574700  1
  O  O7  1  0.39975600  0.00000000  0.41208900  1
  O  O8  1  0.62200700  0.75000000  0.12200700  1
  O  O9  1  0.83353900  0.39629500  0.50000000  1
  O  O10  1  0.75000000  0.61425300  0.88574700  1
  O  O11  1  0.25000000  0.61425300  0.11425300  1
  O  O12  1  0.87799300  0.62200700  0.25000000  1
  O  O13  1  0.62200700  0.25000000  0.87799300  1
  O  O14  1  0.58791100  0.39975600  0.00000000  1
  O  O15  1  0.10370500  0.33353900  0.00000000  1
  O  O16  1  0.50000000  0.16646100  0.60370500  1
  O  O17  1  0.25000000  0.87799300  0.62200700  1
  O  O18  1  0.50000000  0.10024400  0.08791100  1
  O  O19  1  0.75000000  0.87799300  0.37799300  1
  O  O20  1  0.60024400  0.00000000  0.41208900  1
  O  O21  1  0.00000000  0.41208900  0.60024400  1
  O  O22  1  0.75000000  0.12200700  0.62200700  1
  O  O23  1  0.25000000  0.12200700  0.37799300  1
  O  O24  1  0.88574700  0.75000000  0.61425300  1
  O  O25  1  0.91208900  0.50000000  0.10024400  1
  O  O26  1  0.62200700  0.75000000  0.87799300  1
  O  O27  1  0.25000000  0.12200700  0.62200700  1
  O  O28  1  0.50000000  0.83353900  0.60370500  1
  O  O29  1  0.12200700  0.37799300  0.75000000  1
  O  O30  1  0.87799300  0.37799300  0.25000000  1
  O  O31  1  0.37799300  0.25000000  0.87799300  1
  O  O32  1  0.12200700  0.37799300  0.25000000  1
  O  O33  1  0.08791100  0.50000000  0.10024400  1
  O  O34  1  0.00000000  0.10370500  0.33353900  1
  O  O35  1  0.89975600  0.91208900  0.50000000  1
  O  O36  1  0.61425300  0.88574700  0.75000000  1
  O  O37  1  0.33353900  0.00000000  0.89629500  1
  O  O38  1  0.12200700  0.62200700  0.75000000  1
  O  O39  1  0.11425300  0.25000000  0.61425300  1
  O  O40  1  0.00000000  0.41208900  0.39975600  1
  O  O41  1  0.66646100  0.00000000  0.89629500  1
  O  O42  1  0.60024400  0.00000000  0.58791100  1
  O  O43  1  0.75000000  0.38574700  0.88574700  1
  O  O44  1  0.50000000  0.83353900  0.39629500  1
  O  O45  1  0.89629500  0.33353900  0.00000000  1
  O  O46  1  0.37799300  0.75000000  0.87799300  1
  O  O47  1  0.37799300  0.25000000  0.12200700  1
  O  O48  1  0.75000000  0.12200700  0.37799300  1
  O  O49  1  0.16646100  0.60370500  0.50000000  1
  O  O50  1  0.88574700  0.25000000  0.38574700  1
  O  O51  1  0.12200700  0.62200700  0.25000000  1
  O  O52  1  0.50000000  0.89975600  0.91208900  1
  O  O53  1  0.00000000  0.89629500  0.33353900  1
  O  O54  1  0.38574700  0.11425300  0.75000000  1
  O  O55  1  0.66646100  0.00000000  0.10370500  1
  O  O56  1  0.38574700  0.11425300  0.25000000  1
  O  O57  1  0.08791100  0.50000000  0.89975600  1
  O  O58  1  0.50000000  0.16646100  0.39629500  1
  O  O59  1  0.58791100  0.60024400  0.00000000  1
  O  O60  1  0.60370500  0.50000000  0.16646100  1
  O  O61  1  0.10024400  0.08791100  0.50000000  1
  O  O62  1  0.11425300  0.25000000  0.38574700  1
  O  O63  1  0.37799300  0.75000000  0.12200700  1
  O  O64  1  0.83353900  0.60370500  0.50000000  1
  O  O65  1  0.88574700  0.75000000  0.38574700  1
  O  O66  1  0.25000000  0.61425300  0.88574700  1
  O  O67  1  0.00000000  0.58791100  0.60024400  1
  O  O68  1  0.91208900  0.50000000  0.89975600  1
  O  O69  1  0.16646100  0.39629500  0.50000000  1
  O  O70  1  0.00000000  0.89629500  0.66646100  1
  O  O71  1  0.39629500  0.50000000  0.83353900  1
  O  O72  1  0.61425300  0.11425300  0.75000000  1
  O  O73  1  0.61425300  0.88574700  0.25000000  1
  O  O74  1  0.61425300  0.11425300  0.25000000  1
  O  O75  1  0.87799300  0.37799300  0.75000000  1
  O  O76  1  0.50000000  0.89975600  0.08791100  1
  O  O77  1  0.87799300  0.62200700  0.75000000  1
  O  O78  1  0.89975600  0.08791100  0.50000000  1
  O  O79  1  0.75000000  0.87799300  0.62200700  1
  O  O80  1  0.38574700  0.88574700  0.75000000  1
  O  O81  1  0.38574700  0.88574700  0.25000000  1
  O  O82  1  0.10024400  0.91208900  0.50000000  1
  O  O83  1  0.41208900  0.39975600  0.00000000  1
  O  O84  1  0.11425300  0.75000000  0.61425300  1
  O  O85  1  0.00000000  0.10370500  0.66646100  1
  O  O86  1  0.75000000  0.38574700  0.11425300  1
  O  O87  1  0.41208900  0.60024400  0.00000000  1
  O  O88  1  0.75000000  0.61425300  0.11425300  1
  O  O89  1  0.33353900  0.00000000  0.10370500  1
  O  O90  1  0.00000000  0.58791100  0.39975600  1
  O  O91  1  0.25000000  0.38574700  0.11425300  1
  O  O92  1  0.60370500  0.50000000  0.83353900  1
  O  O93  1  0.39629500  0.50000000  0.16646100  1
  O  O94  1  0.88574700  0.25000000  0.61425300  1
  O  O95  1  0.89629500  0.66646100  0.00000000  1
loop_
_geom_bond_atom_site_label_1
_geom_bond_atom_site_label_2
_geom_bond_distance
_geom_bond_site_symmetry_2
O0 Si42 1.775315 1_554
O0 Si36 1.775315 1_555
O1 Si25 1.591534 1_555
O1 Si29 1.591534 1_555
O2 Si3 1.591534 1_555
O2 Si35 1.591534 1_545
O3 Si18 1.734913 1_555
O3 Si5 1.734913 1_555
O4 Si17 1.563894 1_555
O4 Si22 1.563894 1_555
O5 Si7 1.734913 1_555
O5 Si13 1.734913 1_555
O6 Si7 1.563894 1_555
O6 Si2 1.563894 1_555
O7 Si20 1.591534 1_555
O7 Si13 1.591534 1_545
O8 Si14 1.734913 1_555
O8 Si19 1.734913 1_555
O9 Si40 1.775315 1_555
O9 Si44 1.775315 1_555
O10 Si4 1.563894 1_555
O10 Si21 1.563894 1_555
O11 Si36 1.563894 1_555
O11 Si28 1.563894 1_555
O12 Si12 1.734913 1_555
O12 Si33 1.734913 1_555
O13 Si29 1.734913 1_555
O13 Si0 1.734913 1_555
O14 Si5 1.591534 1_555
O14 Si0 1.591534 1_554
O15 Si17 1.775315 1_554
O15 Si26 1.775315 1_555
O16 Si38 1.775315 1_555
O16 Si3 1.775315 1_555
O17 Si1 1.734913 1_555
O17 Si35 1.734913 1_555
O18 Si37 1.591534 1_555
O18 Si18 1.591534 1_555
O19 Si32 1.734913 1_555
O19 Si24 1.734913 1_555
O20 Si24 1.591534 1_545
O20 Si9 1.591534 1_555
O21 Si34 1.591534 1_555
O21 Si44 1.591534 1_455
O22 Si43 1.734913 1_555
O22 Si38 1.734913 1_555
O23 Si23 1.734913 1_555
O23 Si20 1.734913 1_555
O24 Si11 1.563894 1_555
O24 Si47 1.563894 1_555
O25 Si31 1.591534 1_555
O25 Si12 1.591534 1_555
O26 Si21 1.734913 1_555
O26 Si6 1.734913 1_555
O27 Si10 1.734913 1_555
O27 Si3 1.734913 1_555
O28 Si45 1.775315 1_555
O28 Si35 1.775315 1_555
O29 Si34 1.734913 1_555
O29 Si17 1.734913 1_555
O30 Si31 1.734913 1_555
O30 Si40 1.734913 1_555
O31 Si25 1.734913 1_555
O31 Si22 1.734913 1_555
O32 Si26 1.734913 1_555
O32 Si46 1.734913 1_555
O33 Si36 1.591534 1_555
O33 Si26 1.591534 1_555
O34 Si15 1.775315 1_455
O34 Si23 1.775315 1_555
O35 Si11 1.591534 1_555
O35 Si32 1.591534 1_555
O36 Si6 1.563894 1_555
O36 Si45 1.563894 1_555
O37 Si16 1.775315 1_545
O37 Si25 1.775315 1_555
O38 Si41 1.734913 1_555
O38 Si42 1.734913 1_555
O39 Si10 1.563894 1_555
O39 Si34 1.563894 1_555
O40 Si40 1.591534 1_455
O40 Si46 1.591534 1_555
O41 Si6 1.775315 1_545
O41 Si29 1.775315 1_555
O42 Si38 1.591534 1_555
O42 Si45 1.591534 1_545
O43 Si0 1.563894 1_555
O43 Si39 1.563894 1_555
O44 Si13 1.775315 1_555
O44 Si24 1.775315 1_555
O45 Si39 1.775315 1_554
O45 Si31 1.775315 1_555
O46 Si30 1.734913 1_555
O46 Si16 1.734913 1_555
O47 Si37 1.734913 1_555
O47 Si27 1.734913 1_555
O48 Si15 1.734913 1_555
O48 Si9 1.734913 1_555
O49 Si2 1.775315 1_555
O49 Si41 1.775315 1_555
O50 Si15 1.563894 1_555
O50 Si40 1.563894 1_555
O51 Si36 1.734913 1_555
O51 Si2 1.734913 1_555
O52 Si6 1.591534 1_555
O52 Si16 1.591534 1_555
O53 Si32 1.775315 1_455
O53 Si7 1.775315 1_555
O54 Si25 1.563894 1_555
O54 Si3 1.563894 1_555
O55 Si14 1.775315 1_545
O55 Si18 1.775315 1_555
O56 Si37 1.563894 1_555
O56 Si20 1.563894 1_555
O57 Si42 1.591534 1_555
O57 Si17 1.591534 1_555
O58 Si20 1.775315 1_555
O58 Si9 1.775315 1_555
O59 Si21 1.591534 1_554
O59 Si19 1.591534 1_555
O60 Si5 1.775315 1_555
O60 Si19 1.775315 1_555
O61 Si23 1.591534 1_555
O61 Si10 1.591534 1_555
O62 Si23 1.563894 1_555
O62 Si46 1.563894 1_555
O63 Si8 1.734913 1_555
O63 Si28 1.734913 1_555
O64 Si33 1.775315 1_555
O64 Si47 1.775315 1_555
O65 Si33 1.563894 1_555
O65 Si32 1.563894 1_555
O66 Si42 1.563894 1_555
O66 Si30 1.563894 1_555
O67 Si47 1.591534 1_455
O67 Si41 1.591534 1_555
O68 Si39 1.591534 1_555
O68 Si4 1.591534 1_555
O69 Si34 1.775315 1_555
O69 Si46 1.775315 1_555
O70 Si11 1.775315 1_455
O70 Si1 1.775315 1_555
O71 Si22 1.775315 1_555
O71 Si30 1.775315 1_555
O72 Si29 1.563894 1_555
O72 Si38 1.563894 1_555
O73 Si14 1.563894 1_555
O73 Si24 1.563894 1_555
O74 Si18 1.563894 1_555
O74 Si9 1.563894 1_555
O75 Si39 1.734913 1_555
O75 Si44 1.734913 1_555
O76 Si8 1.591534 1_555
O76 Si14 1.591534 1_555
O77 Si47 1.734913 1_555
O77 Si4 1.734913 1_555
O78 Si15 1.591534 1_555
O78 Si43 1.591534 1_555
O79 Si45 1.734913 1_555
O79 Si11 1.734913 1_555
O80 Si35 1.563894 1_555
O80 Si16 1.563894 1_555
O81 Si8 1.563894 1_555
O81 Si13 1.563894 1_555
O82 Si1 1.591534 1_555
O82 Si7 1.591534 1_555
O83 Si22 1.591534 1_554
O83 Si27 1.591534 1_555
O84 Si41 1.563894 1_555
O84 Si1 1.563894 1_555
O85 Si43 1.775315 1_455
O85 Si10 1.775315 1_555
O86 Si31 1.563894 1_555
O86 Si5 1.563894 1_555
O87 Si28 1.591534 1_555
O87 Si30 1.591534 1_554
O88 Si12 1.563894 1_555
O88 Si19 1.563894 1_555
O89 Si8 1.775315 1_545
O89 Si37 1.775315 1_555
O90 Si2 1.591534 1_555
O90 Si33 1.591534 1_455
O91 Si26 1.563894 1_555
O91 Si27 1.563894 1_555
O92 Si21 1.775315 1_555
O92 Si0 1.775315 1_555
O93 Si28 1.775315 1_555
O93 Si27 1.775315 1_555
O94 Si43 1.563894 1_555
O94 Si44 1.563894 1_555
O95 Si4 1.775315 1_554
O95 Si12 1.775315 1_555
