# generated using pymatgen
data_CsSiBiS4
_symmetry_space_group_name_H-M   'P 1'
_cell_length_a   7.12732900
_cell_length_b   9.49751900
_cell_length_c   13.10579329
_cell_angle_alpha   71.91188472
_cell_angle_beta   90.00000000
_cell_angle_gamma   90.00000000
_symmetry_Int_Tables_number   1
_chemical_formula_structural   CsSiBiS4
_chemical_formula_sum   'Cs4 Si4 Bi4 S16'
_cell_volume   843.31346391
_cell_formula_units_Z   4
loop_
 _symmetry_equiv_pos_site_id
 _symmetry_equiv_pos_as_xyz
  1  'x, y, z'
loop_
 _atom_site_type_symbol
 _atom_site_label
 _atom_site_symmetry_multiplicity
 _atom_site_fract_x
 _atom_site_fract_y
 _atom_site_fract_z
 _atom_site_occupancy
  Cs  Cs0  1  0.26067900  0.42674900  0.39521500  1
  Cs  Cs1  1  0.76067900  0.57325100  0.10478500  1
  Cs  Cs2  1  0.73932100  0.57325100  0.60478500  1
  Cs  Cs3  1  0.23932100  0.42674900  0.89521500  1
  Si  Si0  1  0.76470500  0.17599100  0.34662100  1
  Si  Si1  1  0.26470500  0.82400900  0.15337900  1
  Si  Si2  1  0.23529500  0.82400900  0.65337900  1
  Si  Si3  1  0.73529500  0.17599100  0.84662100  1
  Bi  Bi0  1  0.15270900  0.94572000  0.37066200  1
  Bi  Bi1  1  0.65270900  0.05428000  0.12933800  1
  Bi  Bi2  1  0.84729100  0.05428000  0.62933800  1
  Bi  Bi3  1  0.34729100  0.94572000  0.87066200  1
  S  S0  1  0.99103700  0.20912600  0.75739600  1
  S  S1  1  0.79402600  0.94354500  0.44163700  1
  S  S2  1  0.51000600  0.21380900  0.73578100  1
  S  S3  1  0.70597400  0.94354500  0.94163700  1
  S  S4  1  0.76869300  0.30619400  0.45229500  1
  S  S5  1  0.00896300  0.79087400  0.24260400  1
  S  S6  1  0.26869300  0.69380600  0.04770500  1
  S  S7  1  0.20597400  0.05645500  0.55836300  1
  S  S8  1  0.73130700  0.30619400  0.95229500  1
  S  S9  1  0.48999400  0.78619100  0.26421900  1
  S  S10  1  0.01000600  0.78619100  0.76421900  1
  S  S11  1  0.23130700  0.69380600  0.54770500  1
  S  S12  1  0.50896300  0.20912600  0.25739600  1
  S  S13  1  0.98999400  0.21380900  0.23578100  1
  S  S14  1  0.49103700  0.79087400  0.74260400  1
  S  S15  1  0.29402600  0.05645500  0.05836300  1
loop_
_geom_bond_atom_site_label_1
_geom_bond_atom_site_label_2
_geom_bond_distance
_geom_bond_site_symmetry_2
Cs0 S7 3.524602 1_555
Cs0 S12 3.603350 1_555
Cs0 S11 3.690348 1_555
Cs0 S9 3.692348 1_555
Cs0 S4 3.692503 1_455
Cs0 S4 3.801156 1_555
Cs0 S13 3.847372 1_455
Cs0 S5 3.857934 1_555
Cs1 S3 3.524602 1_554
Cs1 S5 3.603350 1_655
Cs1 S8 3.690348 1_554
Cs1 S13 3.692348 1_555
Cs1 S6 3.692503 1_555
Cs1 S6 3.801156 1_655
Cs1 S9 3.847372 1_555
Cs1 S12 3.857934 1_555
Cs2 S1 3.524602 1_555
Cs2 S14 3.603350 1_555
Cs2 S4 3.690348 1_555
Cs2 S2 3.692348 1_555
Cs2 S11 3.692503 1_655
Cs2 S11 3.801156 1_555
Cs2 S10 3.847372 1_655
Cs2 S0 3.857934 1_555
Cs3 S15 3.524602 1_556
Cs3 S0 3.603350 1_455
Cs3 S6 3.690348 1_556
Cs3 S10 3.692348 1_555
Cs3 S8 3.692503 1_555
Cs3 S8 3.801156 1_455
Cs3 S2 3.847372 1_555
Cs3 S14 3.857934 1_555
Bi0 S1 2.718305 1_455
Bi0 S5 2.749876 1_555
Bi0 S11 2.823949 1_555
Bi0 S13 2.856210 1_465
Bi0 S7 2.984660 1_565
Bi1 S15 2.718305 1_555
Bi1 S12 2.749876 1_555
Bi1 S8 2.823949 1_554
Bi1 S9 2.856210 1_545
Bi1 S3 2.984660 1_544
Bi2 S7 2.718305 1_655
Bi2 S0 2.749876 1_555
Bi2 S4 2.823949 1_555
Bi2 S10 2.856210 1_645
Bi2 S1 2.984660 1_545
Bi3 S3 2.718305 1_555
Bi3 S14 2.749876 1_555
Bi3 S6 2.823949 1_556
Bi3 S2 2.856210 1_565
Bi3 S15 2.984660 1_566
S0 Si3 2.135505 1_555
S1 Si0 2.181977 1_565
S2 Si3 2.119788 1_555
S3 Si3 2.181977 1_565
S4 Si0 2.124037 1_555
S5 Si1 2.135505 1_555
S6 Si1 2.124037 1_555
S7 Si2 2.181977 1_545
S8 Si3 2.124037 1_555
S9 Si1 2.119788 1_555
S10 Si2 2.119788 1_555
S11 Si2 2.124037 1_555
S12 Si0 2.135505 1_555
S13 Si0 2.119788 1_555
S14 Si2 2.135505 1_555
S15 Si1 2.181977 1_545
