# generated using pymatgen
data_H8C3(NO)3
_symmetry_space_group_name_H-M   'P 1'
_cell_length_a   17.75524000
_cell_length_b   3.99916200
_cell_length_c   9.22597894
_cell_angle_alpha   77.80689451
_cell_angle_beta   90.00000000
_cell_angle_gamma   90.00000000
_symmetry_Int_Tables_number   1
_chemical_formula_structural   H8C3(NO)3
_chemical_formula_sum   'H32 C12 N12 O12'
_cell_volume   640.32240155
_cell_formula_units_Z   4
loop_
 _symmetry_equiv_pos_site_id
 _symmetry_equiv_pos_as_xyz
  1  'x, y, z'
loop_
 _atom_site_type_symbol
 _atom_site_label
 _atom_site_symmetry_multiplicity
 _atom_site_fract_x
 _atom_site_fract_y
 _atom_site_fract_z
 _atom_site_occupancy
  H  H0  1  0.68833600  0.46169400  0.61048100  1
  H  H1  1  0.18833600  0.53830600  0.88951900  1
  H  H2  1  0.31166400  0.53830600  0.38951900  1
  H  H3  1  0.81166400  0.46169400  0.11048100  1
  H  H4  1  0.76498400  0.60672600  0.49418200  1
  H  H5  1  0.26498400  0.39327400  0.00581800  1
  H  H6  1  0.23501600  0.39327400  0.50581800  1
  H  H7  1  0.73501600  0.60672600  0.99418200  1
  H  H8  1  0.55166000  0.93031400  0.36589400  1
  H  H9  1  0.05166000  0.06968600  0.13410600  1
  H  H10  1  0.44834000  0.06968600  0.63410600  1
  H  H11  1  0.94834000  0.93031400  0.86589400  1
  H  H12  1  0.56942100  0.70393400  0.54716800  1
  H  H13  1  0.06942100  0.29606600  0.95283200  1
  H  H14  1  0.43057900  0.29606600  0.45283200  1
  H  H15  1  0.93057900  0.70393400  0.04716800  1
  H  H16  1  0.65515500  0.08342900  0.19853800  1
  H  H17  1  0.15515500  0.91657100  0.30146200  1
  H  H18  1  0.34484500  0.91657100  0.80146200  1
  H  H19  1  0.84484500  0.08342900  0.69853800  1
  H  H20  1  0.74585800  0.96698800  0.26692100  1
  H  H21  1  0.24585800  0.03301200  0.23307900  1
  H  H22  1  0.25414200  0.03301200  0.73307900  1
  H  H23  1  0.75414200  0.96698800  0.76692100  1
  H  H24  1  0.64896000  0.22843900  0.85661300  1
  H  H25  1  0.14896000  0.77156100  0.64338700  1
  H  H26  1  0.35104000  0.77156100  0.14338700  1
  H  H27  1  0.85104000  0.22843900  0.35661300  1
  H  H28  1  0.61030700  0.00471300  0.75570200  1
  H  H29  1  0.11030700  0.99528700  0.74429800  1
  H  H30  1  0.38969300  0.99528700  0.24429800  1
  H  H31  1  0.88969300  0.00471300  0.25570200  1
  C  C0  1  0.49075700  0.36521500  0.10873000  1
  C  C1  1  0.99075700  0.63478500  0.39127000  1
  C  C2  1  0.50924300  0.63478500  0.89127000  1
  C  C3  1  0.00924300  0.36521500  0.60873000  1
  C  C4  1  0.55687700  0.43629900  0.01024200  1
  C  C5  1  0.05687700  0.56370100  0.48975800  1
  C  C6  1  0.44312300  0.56370100  0.98975800  1
  C  C7  1  0.94312300  0.43629900  0.51024200  1
  C  C8  1  0.66188400  0.78533700  0.41241100  1
  C  C9  1  0.16188400  0.21466300  0.08758900  1
  C  C10  1  0.33811600  0.21466300  0.58758900  1
  C  C11  1  0.83811600  0.78533700  0.91241100  1
  N  N0  1  0.70935800  0.62692800  0.51799200  1
  N  N1  1  0.20935800  0.37307200  0.98200800  1
  N  N2  1  0.29064200  0.37307200  0.48200800  1
  N  N3  1  0.79064200  0.62692800  0.01799200  1
  N  N4  1  0.58749100  0.78192200  0.44067900  1
  N  N5  1  0.08749100  0.21807800  0.05932100  1
  N  N6  1  0.41250900  0.21807800  0.55932100  1
  N  N7  1  0.91250900  0.78192200  0.94067900  1
  N  N8  1  0.68850400  0.94091400  0.28031400  1
  N  N9  1  0.18850400  0.05908600  0.21968600  1
  N  N10  1  0.31149600  0.05908600  0.71968600  1
  N  N11  1  0.81149600  0.94091400  0.78031400  1
  O  O0  1  0.47899900  0.19772300  0.23940500  1
  O  O1  1  0.97899900  0.80227700  0.26059500  1
  O  O2  1  0.52100100  0.80227700  0.76059500  1
  O  O3  1  0.02100100  0.19772300  0.73940500  1
  O  O4  1  0.62577500  0.35338800  0.02160800  1
  O  O5  1  0.12577500  0.64661200  0.47839200  1
  O  O6  1  0.37422500  0.64661200  0.97839200  1
  O  O7  1  0.87422500  0.35338800  0.52160800  1
  O  O8  1  0.65682200  0.13724500  0.76531800  1
  O  O9  1  0.15682200  0.86275500  0.73468200  1
  O  O10  1  0.34317800  0.86275500  0.23468200  1
  O  O11  1  0.84317800  0.13724500  0.26531800  1
loop_
_geom_bond_atom_site_label_1
_geom_bond_atom_site_label_2
_geom_bond_distance
_geom_bond_site_symmetry_2
H0 N0 1.032429 1_555
H1 N1 1.032429 1_555
H2 N2 1.032429 1_555
H3 N3 1.032429 1_555
H4 N0 1.018694 1_555
H5 N1 1.018694 1_554
H6 N2 1.018694 1_555
H7 N3 1.018694 1_556
H8 N4 1.029564 1_555
H9 N5 1.029564 1_555
H10 N6 1.029564 1_555
H11 N7 1.029564 1_555
H12 N4 1.017847 1_555
H13 N5 1.017847 1_556
H14 N6 1.017847 1_555
H15 N7 1.017847 1_554
H16 N8 1.031026 1_545
H17 N9 1.031026 1_565
H18 N10 1.031026 1_565
H19 N11 1.031026 1_545
H20 N8 1.028447 1_555
H21 N9 1.028447 1_555
H22 N10 1.028447 1_555
H23 N11 1.028447 1_555
H24 O8 0.995839 1_555
H25 O9 0.995839 1_555
H26 O10 0.995839 1_555
H27 O11 0.995839 1_555
H28 O8 0.995358 1_555
H29 O9 0.995358 1_555
H30 O10 0.995358 1_555
H31 O11 0.995358 1_555
C0 O0 1.266734 1_555
C1 O1 1.266734 1_555
C2 O2 1.266734 1_555
C3 O3 1.266734 1_555
C4 O4 1.265984 1_555
C5 O5 1.265984 1_555
C6 O6 1.265984 1_555
C7 O7 1.265984 1_555
C8 N8 1.332473 1_555
C8 N0 1.341644 1_555
C8 N4 1.345877 1_555
C9 N9 1.332473 1_555
C9 N1 1.341644 1_554
C9 N5 1.345877 1_555
C10 N10 1.332473 1_555
C10 N2 1.341644 1_555
C10 N6 1.345877 1_555
C11 N11 1.332473 1_555
C11 N3 1.341644 1_556
C11 N7 1.345877 1_555
