# generated using pymatgen
data_LiMoAsO6
_symmetry_space_group_name_H-M   'P 1'
_cell_length_a   8.70693900
_cell_length_b   5.23351300
_cell_length_c   10.49866475
_cell_angle_alpha   84.81432494
_cell_angle_beta   90.00000000
_cell_angle_gamma   90.00000000
_symmetry_Int_Tables_number   1
_chemical_formula_structural   LiMoAsO6
_chemical_formula_sum   'Li4 Mo4 As4 O24'
_cell_volume   476.44379327
_cell_formula_units_Z   4
loop_
 _symmetry_equiv_pos_site_id
 _symmetry_equiv_pos_as_xyz
  1  'x, y, z'
loop_
 _atom_site_type_symbol
 _atom_site_label
 _atom_site_symmetry_multiplicity
 _atom_site_fract_x
 _atom_site_fract_y
 _atom_site_fract_z
 _atom_site_occupancy
  Li  Li0  1  0.90618200  0.31103700  0.10294100  1
  Li  Li1  1  0.73554400  0.96558000  0.39015700  1
  Li  Li2  1  0.40618200  0.68896300  0.89705900  1
  Li  Li3  1  0.23554400  0.03442000  0.60984300  1
  Mo  Mo0  1  0.58085300  0.11784800  0.66425900  1
  Mo  Mo1  1  0.56741800  0.67699300  0.15664100  1
  Mo  Mo2  1  0.06741800  0.32300700  0.84335900  1
  Mo  Mo3  1  0.08085300  0.88215200  0.33574100  1
  As  As0  1  0.30196000  0.15799700  0.10622600  1
  As  As1  1  0.92564700  0.37825000  0.53593400  1
  As  As2  1  0.80196000  0.84200300  0.89377400  1
  As  As3  1  0.42564700  0.62175000  0.46406600  1
  O  O0  1  0.42859300  0.93237700  0.73350200  1
  O  O1  1  0.11245500  0.04281800  0.77348500  1
  O  O2  1  0.93451500  0.60787600  0.93108400  1
  O  O3  1  0.43451500  0.39212400  0.06891600  1
  O  O4  1  0.86590600  0.12872200  0.93845800  1
  O  O5  1  0.42294400  0.32248200  0.55059100  1
  O  O6  1  0.06767300  0.17862700  0.49450500  1
  O  O7  1  0.92294400  0.67751800  0.44940900  1
  O  O8  1  0.74610500  0.24396200  0.51685200  1
  O  O9  1  0.36590600  0.87127800  0.06154200  1
  O  O10  1  0.92859300  0.06762300  0.26649800  1
  O  O11  1  0.44604400  0.54097000  0.30859300  1
  O  O12  1  0.56767300  0.82137300  0.50549500  1
  O  O13  1  0.12746200  0.22719100  0.03127100  1
  O  O14  1  0.62746200  0.77280900  0.96872900  1
  O  O15  1  0.73656100  0.50129300  0.17924500  1
  O  O16  1  0.60581500  0.35118300  0.76686900  1
  O  O17  1  0.23656100  0.49870700  0.82075500  1
  O  O18  1  0.25172300  0.10888200  0.26759700  1
  O  O19  1  0.61245500  0.95718200  0.22651500  1
  O  O20  1  0.94604400  0.45903000  0.69140700  1
  O  O21  1  0.75172300  0.89111800  0.73240300  1
  O  O22  1  0.24610500  0.75603800  0.48314800  1
  O  O23  1  0.10581500  0.64881700  0.23313100  1
loop_
_geom_bond_atom_site_label_1
_geom_bond_atom_site_label_2
_geom_bond_distance
_geom_bond_site_symmetry_2
Li0 O15 1.989608 1_555
Li0 O10 2.052812 1_555
Li0 O4 2.076834 1_554
Li0 O13 2.128489 1_655
Li0 O2 2.285379 1_554
Li1 O12 2.001763 1_555
Li1 O19 2.028740 1_555
Li1 O8 2.061700 1_565
Li1 O10 2.161168 1_565
Li1 O7 2.269936 1_555
Li2 O17 1.989608 1_555
Li2 O0 2.052812 1_555
Li2 O9 2.076834 1_556
Li2 O14 2.128489 1_555
Li2 O3 2.285379 1_556
Li3 O6 2.001763 1_555
Li3 O1 2.028740 1_555
Li3 O22 2.061700 1_545
Li3 O0 2.161168 1_545
Li3 O5 2.269936 1_555
Mo0 O16 1.713704 1_555
Mo0 O0 1.760862 1_545
Mo0 O21 1.994941 1_545
Mo0 O5 2.056792 1_555
Mo0 O8 2.171690 1_555
Mo0 O12 2.380422 1_545
Mo1 O15 1.741063 1_555
Mo1 O19 1.742589 1_555
Mo1 O11 1.990794 1_555
Mo1 O14 2.058637 1_554
Mo1 O3 2.158282 1_555
Mo1 O9 2.219378 1_555
Mo2 O17 1.741063 1_555
Mo2 O1 1.742589 1_555
Mo2 O20 1.990794 1_455
Mo2 O13 2.058637 1_556
Mo2 O2 2.158282 1_455
Mo2 O4 2.219378 1_455
Mo3 O23 1.713704 1_555
Mo3 O10 1.760862 1_465
Mo3 O18 1.994941 1_565
Mo3 O7 2.056792 1_455
Mo3 O22 2.171690 1_555
Mo3 O6 2.380422 1_565
As0 O3 1.702970 1_555
As0 O9 1.705569 1_545
As0 O13 1.734152 1_555
As0 O18 1.746117 1_555
As1 O6 1.700585 1_655
As1 O20 1.731842 1_555
As1 O8 1.733002 1_555
As1 O7 1.738277 1_555
As2 O2 1.702970 1_555
As2 O4 1.705569 1_565
As2 O14 1.734152 1_555
As2 O21 1.746117 1_555
As3 O12 1.700585 1_555
As3 O11 1.731842 1_555
As3 O22 1.733002 1_555
As3 O5 1.738277 1_555
