# generated using pymatgen
data_NaW6NCl18
_symmetry_space_group_name_H-M   'P 1'
_cell_length_a   9.02776440
_cell_length_b   9.02776440
_cell_length_c   18.01527255
_cell_angle_alpha   90.00000000
_cell_angle_beta   90.00000000
_cell_angle_gamma   119.99999460
_symmetry_Int_Tables_number   1
_chemical_formula_structural   NaW6NCl18
_chemical_formula_sum   'Na2 W12 N2 Cl36'
_cell_volume   1271.54556025
_cell_formula_units_Z   2
loop_
 _symmetry_equiv_pos_site_id
 _symmetry_equiv_pos_as_xyz
  1  'x, y, z'
loop_
 _atom_site_type_symbol
 _atom_site_label
 _atom_site_symmetry_multiplicity
 _atom_site_fract_x
 _atom_site_fract_y
 _atom_site_fract_z
 _atom_site_occupancy
  Na  Na0  1  0.00000000  0.00000000  0.50000000  1
  Na  Na1  1  0.00000000  0.00000000  0.00000000  1
  W  W0  1  0.18289923  0.48475237  0.83576904  1
  W  W1  1  0.69814686  0.18289923  0.33576904  1
  W  W2  1  0.30185314  0.81710077  0.66423096  1
  W  W3  1  0.51524763  0.69814686  0.83576904  1
  W  W4  1  0.81710077  0.51524763  0.33576904  1
  W  W5  1  0.48475237  0.30185314  0.16423096  1
  W  W6  1  0.51524763  0.69814686  0.66423096  1
  W  W7  1  0.81710077  0.51524763  0.16423096  1
  W  W8  1  0.48475237  0.30185314  0.33576904  1
  W  W9  1  0.18289923  0.48475237  0.66423096  1
  W  W10  1  0.30185314  0.81710077  0.83576904  1
  W  W11  1  0.69814686  0.18289923  0.16423096  1
  N  N0  1  0.33333300  0.66666700  0.75000000  1
  N  N1  1  0.66666700  0.33333300  0.25000000  1
  Cl  Cl0  1  0.77052960  0.74018432  0.60082668  1
  Cl  Cl1  1  0.52362425  0.94620585  0.25000000  1
  Cl  Cl2  1  0.94620585  0.42258160  0.75000000  1
  Cl  Cl3  1  0.03034528  0.77052960  0.39917332  1
  Cl  Cl4  1  0.96965472  0.22947040  0.89917332  1
  Cl  Cl5  1  0.77052960  0.74018432  0.89917332  1
  Cl  Cl6  1  0.42258160  0.47637575  0.25000000  1
  Cl  Cl7  1  0.37136103  0.48108907  0.92786190  1
  Cl  Cl8  1  0.48108907  0.10972804  0.42786190  1
  Cl  Cl9  1  0.89027196  0.37136103  0.42786190  1
  Cl  Cl10  1  0.57741840  0.52362425  0.75000000  1
  Cl  Cl11  1  0.19763673  0.28107524  0.75000000  1
  Cl  Cl12  1  0.25981568  0.03034528  0.89917332  1
  Cl  Cl13  1  0.03034528  0.77052960  0.10082668  1
  Cl  Cl14  1  0.22947040  0.25981568  0.10082668  1
  Cl  Cl15  1  0.62863897  0.51891093  0.42786190  1
  Cl  Cl16  1  0.10972804  0.62863897  0.92786190  1
  Cl  Cl17  1  0.74018432  0.96965472  0.10082668  1
  Cl  Cl18  1  0.74018432  0.96965472  0.39917332  1
  Cl  Cl19  1  0.80236327  0.71892476  0.25000000  1
  Cl  Cl20  1  0.96965472  0.22947040  0.60082668  1
  Cl  Cl21  1  0.51891093  0.89027196  0.57213810  1
  Cl  Cl22  1  0.22947040  0.25981568  0.39917332  1
  Cl  Cl23  1  0.47637575  0.05379415  0.75000000  1
  Cl  Cl24  1  0.25981568  0.03034528  0.60082668  1
  Cl  Cl25  1  0.10972804  0.62863897  0.57213810  1
  Cl  Cl26  1  0.48108907  0.10972804  0.07213810  1
  Cl  Cl27  1  0.91656149  0.19763673  0.25000000  1
  Cl  Cl28  1  0.62863897  0.51891093  0.07213810  1
  Cl  Cl29  1  0.37136103  0.48108907  0.57213810  1
  Cl  Cl30  1  0.08343851  0.80236327  0.75000000  1
  Cl  Cl31  1  0.05379415  0.57741840  0.25000000  1
  Cl  Cl32  1  0.28107524  0.08343851  0.25000000  1
  Cl  Cl33  1  0.89027196  0.37136103  0.07213810  1
  Cl  Cl34  1  0.51891093  0.89027196  0.92786190  1
  Cl  Cl35  1  0.71892476  0.91656149  0.75000000  1
loop_
_geom_bond_atom_site_label_1
_geom_bond_atom_site_label_2
_geom_bond_distance
_geom_bond_site_symmetry_2
N0 W10 2.167626 1_555
N0 W2 2.167626 1_555
N0 W0 2.167630 1_555
N0 W9 2.167630 1_555
N0 W3 2.167632 1_555
N0 W6 2.167632 1_555
N1 W11 2.167626 1_555
N1 W1 2.167626 1_555
N1 W7 2.167630 1_555
N1 W4 2.167630 1_555
N1 W5 2.167632 1_555
N1 W8 2.167632 1_555
Cl0 W6 2.425991 1_555
Cl0 Na0 2.869407 1_665
Cl1 W11 2.463568 1_565
Cl1 W1 2.463568 1_565
Cl2 W0 2.463568 1_655
Cl2 W9 2.463568 1_655
Cl3 W4 2.425991 1_455
Cl3 Na0 2.869406 1_565
Cl4 W0 2.425991 1_655
Cl4 Na1 2.869406 1_656
Cl5 W3 2.425991 1_555
Cl5 Na1 2.869407 1_666
Cl6 W5 2.463568 1_555
Cl6 W8 2.463568 1_555
Cl7 W0 2.388436 1_555
Cl7 W3 2.394639 1_555
Cl8 W8 2.388436 1_555
Cl8 W1 2.394639 1_555
Cl9 W1 2.388436 1_555
Cl9 W4 2.394639 1_555
Cl10 W3 2.463568 1_555
Cl10 W6 2.463568 1_555
Cl11 W9 2.455776 1_555
Cl11 W0 2.455776 1_555
Cl12 W10 2.425991 1_545
Cl12 Na1 2.869406 1_556
Cl13 W7 2.425991 1_455
Cl13 Na1 2.869406 1_565
Cl14 W5 2.425991 1_555
Cl14 Na1 2.869407 1_555
Cl15 W4 2.388436 1_555
Cl15 W8 2.394639 1_555
Cl16 W10 2.388436 1_555
Cl16 W0 2.394639 1_555
Cl17 W11 2.425991 1_565
Cl17 Na1 2.869406 1_665
Cl18 W1 2.425991 1_565
Cl18 Na0 2.869406 1_665
Cl19 W7 2.455776 1_555
Cl19 W4 2.455776 1_555
Cl20 W9 2.425991 1_655
Cl20 Na0 2.869406 1_655
Cl21 W6 2.388436 1_555
Cl21 W2 2.394639 1_555
Cl22 W8 2.425991 1_555
Cl22 Na0 2.869407 1_555
Cl23 W10 2.463568 1_545
Cl23 W2 2.463568 1_545
Cl24 W2 2.425991 1_545
Cl24 Na0 2.869406 1_555
Cl25 W2 2.388436 1_555
Cl25 W9 2.394639 1_555
Cl26 W5 2.388436 1_555
Cl26 W11 2.394639 1_555
Cl27 W11 2.455776 1_555
Cl27 W1 2.455776 1_555
Cl28 W7 2.388436 1_555
Cl28 W5 2.394639 1_555
Cl29 W9 2.388436 1_555
Cl29 W6 2.394639 1_555
Cl30 W10 2.455776 1_555
Cl30 W2 2.455776 1_555
Cl31 W7 2.463568 1_455
Cl31 W4 2.463568 1_455
Cl32 W5 2.455776 1_555
Cl32 W8 2.455776 1_555
Cl33 W11 2.388436 1_555
Cl33 W7 2.394639 1_555
Cl34 W3 2.388436 1_555
Cl34 W10 2.394639 1_555
Cl35 W6 2.455776 1_555
Cl35 W3 2.455776 1_555
