# generated using pymatgen
data_Nb9Co4Ge
_symmetry_space_group_name_H-M   'P 1'
_cell_length_a   9.67643388
_cell_length_b   9.67643388
_cell_length_c   9.67643388
_cell_angle_alpha   93.92136154
_cell_angle_beta   93.92136154
_cell_angle_gamma   149.68069365
_symmetry_Int_Tables_number   1
_chemical_formula_structural   Nb9Co4Ge
_chemical_formula_sum   'Nb18 Co8 Ge2'
_cell_volume   441.46776109
_cell_formula_units_Z   2
loop_
 _symmetry_equiv_pos_site_id
 _symmetry_equiv_pos_as_xyz
  1  'x, y, z'
loop_
 _atom_site_type_symbol
 _atom_site_label
 _atom_site_symmetry_multiplicity
 _atom_site_fract_x
 _atom_site_fract_y
 _atom_site_fract_z
 _atom_site_occupancy
  Nb  Nb0  1  0.56927400  0.79451300  0.36378700  1
  Nb  Nb1  1  0.08697300  0.16590800  0.25288100  1
  Nb  Nb2  1  0.58697300  0.33409200  0.92106400  1
  Nb  Nb3  1  0.66590800  0.58697300  0.25288100  1
  Nb  Nb4  1  0.33409200  0.41302700  0.74711900  1
  Nb  Nb5  1  0.79451300  0.43072600  0.22523900  1
  Nb  Nb6  1  0.41302700  0.66590800  0.07893600  1
  Nb  Nb7  1  0.16590800  0.91302700  0.07893600  1
  Nb  Nb8  1  0.70548700  0.93072600  0.63621300  1
  Nb  Nb9  1  0.43072600  0.20548700  0.63621300  1
  Nb  Nb10  1  0.91302700  0.83409200  0.74711900  1
  Nb  Nb11  1  0.06927400  0.70548700  0.77476100  1
  Nb  Nb12  1  0.20548700  0.56927400  0.77476100  1
  Nb  Nb13  1  0.25000000  0.75000000  0.50000000  1
  Nb  Nb14  1  0.29451300  0.06927400  0.36378700  1
  Nb  Nb15  1  0.75000000  0.25000000  0.50000000  1
  Nb  Nb16  1  0.83409200  0.08697300  0.92106400  1
  Nb  Nb17  1  0.93072600  0.29451300  0.22523900  1
  Co  Co0  1  0.36728500  0.86728500  0.23457000  1
  Co  Co1  1  0.86728500  0.63271500  0.50000000  1
  Co  Co2  1  0.50000000  0.00000000  0.00000000  1
  Co  Co3  1  0.13271500  0.36728500  0.50000000  1
  Co  Co4  1  0.63271500  0.13271500  0.76543000  1
  Co  Co5  1  0.00000000  0.50000000  0.00000000  1
  Co  Co6  1  0.50000000  0.50000000  0.50000000  1
  Co  Co7  1  0.00000000  0.00000000  0.50000000  1
  Ge  Ge0  1  0.75000000  0.75000000  0.00000000  1
  Ge  Ge1  1  0.25000000  0.25000000  0.00000000  1
loop_
_geom_bond_atom_site_label_1
_geom_bond_atom_site_label_2
_geom_bond_distance
_geom_bond_site_symmetry_2
Nb0 Nb8 2.544378 1_555
Nb0 Nb6 2.672921 1_555
Nb0 Nb3 3.023843 1_555
Nb0 Nb1 3.056700 1_555
Nb0 Nb1 3.056700 1_665
Nb0 Nb17 3.122849 1_565
Nb0 Nb17 3.122849 1_455
Nb0 Nb15 3.131231 1_565
Nb0 Nb13 3.131231 1_555
Nb1 Nb17 2.672930 1_455
Nb1 Nb14 3.023843 1_555
Nb2 Nb9 2.672921 1_555
Nb2 Nb5 3.023851 1_556
Nb3 Nb5 2.672930 1_555
Nb4 Nb9 3.023843 1_555
Nb4 Nb8 3.056700 1_555
Nb4 Nb8 3.056700 1_445
Nb5 Nb7 3.056694 1_655
Nb5 Nb7 3.056698 1_545
Nb10 Nb11 2.672930 1_655
Nb10 Nb8 3.023843 1_555
Nb10 Nb9 3.056700 1_555
Nb10 Nb9 3.056700 1_665
Nb11 Nb12 2.544378 1_555
Nb11 Nb7 3.023851 1_556
Nb11 Nb2 3.056694 1_455
Nb11 Nb2 3.056698 1_565
Nb11 Nb9 3.122849 1_565
Nb11 Nb9 3.122849 1_455
Nb11 Nb13 3.131231 1_555
Nb11 Nb15 3.131231 1_455
Nb12 Nb4 2.672930 1_555
Nb12 Nb6 3.023851 1_556
Nb12 Nb16 3.056694 1_455
Nb12 Nb16 3.056698 1_565
Nb12 Nb8 3.122849 1_555
Nb12 Nb8 3.122849 1_445
Nb12 Nb13 3.131231 1_555
Nb12 Nb15 3.131231 1_455
Nb13 Nb15 2.530480 1_455
Nb13 Nb15 2.530480 1_565
Nb13 Nb9 3.131231 1_565
Nb13 Nb17 3.131231 1_455
Nb13 Nb8 3.131231 1_555
Nb13 Nb5 3.131231 1_455
Nb13 Nb14 3.131231 1_565
Nb14 Nb9 2.544378 1_555
Nb14 Nb7 2.672921 1_545
Nb14 Nb3 3.056700 1_555
Nb14 Nb3 3.056700 1_445
Nb14 Nb5 3.122849 1_555
Nb14 Nb5 3.122849 1_445
Nb14 Nb15 3.131231 1_555
Nb15 Nb9 3.131231 1_555
Nb15 Nb17 3.131231 1_555
Nb15 Nb5 3.131231 1_555
Nb15 Nb8 3.131231 1_545
Nb16 Nb8 2.672921 1_545
Nb16 Nb17 3.023851 1_556
Nb17 Nb5 2.544378 1_555
Nb17 Nb6 3.056694 1_655
Nb17 Nb6 3.056698 1_545
Co0 Co5 2.529921 1_555
Co0 Co2 2.529921 1_565
Co0 Nb7 2.727605 1_555
Co0 Nb6 2.727605 1_555
Co0 Nb15 2.783246 1_565
Co0 Nb13 2.783246 1_555
Co0 Nb17 2.833618 1_565
Co0 Nb5 2.833618 1_565
Co0 Nb17 2.833618 1_455
Co0 Nb5 2.833618 1_455
Co0 Nb0 2.835806 1_555
Co0 Nb14 2.835806 1_565
Co1 Co6 2.529921 1_555
Co1 Co7 2.529921 1_665
Co1 Nb10 2.727610 1_555
Co1 Nb3 2.727610 1_555
Co1 Nb15 2.783246 1_555
Co1 Nb13 2.783246 1_655
Co1 Nb9 2.833618 1_555
Co1 Nb9 2.833618 1_665
Co1 Nb14 2.833618 1_555
Co1 Nb14 2.833618 1_665
Co1 Nb11 2.835806 1_655
Co1 Nb5 2.835806 1_555
Co2 Co4 2.529921 1_554
Co2 Co5 2.530480 1_655
Co2 Co5 2.530480 1_545
Co2 Nb7 2.733369 1_545
Co2 Nb16 2.733369 1_554
Co2 Nb2 2.733369 1_554
Co2 Nb6 2.733369 1_545
Co2 Nb17 2.764906 1_555
Co2 Nb5 2.764906 1_555
Co2 Nb12 2.764906 1_544
Co2 Nb11 2.764906 1_544
Co3 Co6 2.529921 1_555
Co3 Co7 2.529921 1_555
Co3 Nb4 2.727610 1_555
Co3 Nb1 2.727610 1_555
Co3 Nb13 2.783246 1_555
Co3 Nb15 2.783246 1_455
Co3 Nb8 2.833618 1_555
Co3 Nb8 2.833618 1_445
Co3 Nb0 2.833618 1_445
Co3 Nb0 2.833618 1_555
Co3 Nb12 2.835806 1_555
Co3 Nb17 2.835806 1_455
Co4 Co5 2.529921 1_656
Co4 Nb2 2.727605 1_555
Co4 Nb16 2.727605 1_555
Co4 Nb13 2.783246 1_545
Co4 Nb15 2.783246 1_555
Co4 Nb11 2.833618 1_545
Co4 Nb12 2.833618 1_545
Co4 Nb11 2.833618 1_655
Co4 Nb12 2.833618 1_655
Co4 Nb9 2.835806 1_555
Co4 Nb8 2.835806 1_545
Co5 Nb7 2.733367 1_555
Co5 Nb2 2.733367 1_454
Co5 Nb16 2.733367 1_454
Co5 Nb6 2.733367 1_555
Co5 Nb17 2.764906 1_455
Co5 Nb5 2.764906 1_455
Co5 Nb11 2.764906 1_554
Co5 Nb12 2.764906 1_554
Co6 Co7 2.530480 1_555
Co6 Co7 2.530480 1_665
Co6 Nb10 2.733365 1_555
Co6 Nb4 2.733365 1_555
Co6 Nb3 2.733365 1_555
Co6 Nb1 2.733365 1_555
Co6 Nb8 2.764906 1_555
Co6 Nb9 2.764906 1_555
Co6 Nb14 2.764906 1_555
Co6 Nb0 2.764906 1_555
Co7 Nb10 2.733365 1_445
Co7 Nb4 2.733365 1_555
Co7 Nb3 2.733365 1_445
Co7 Nb1 2.733365 1_555
Co7 Nb8 2.764906 1_445
Co7 Nb9 2.764906 1_555
Co7 Nb14 2.764906 1_555
Co7 Nb0 2.764906 1_445
Ge0 Ge1 2.530480 1_555
Ge0 Ge1 2.530480 1_665
Ge0 Nb3 2.778956 1_555
Ge0 Nb1 2.778956 1_665
Ge0 Nb10 2.778956 1_554
Ge0 Nb4 2.778956 1_554
Ge0 Nb2 2.778957 1_554
Ge0 Nb7 2.778957 1_655
Ge0 Nb6 2.778960 1_555
Ge0 Nb16 2.778960 1_564
Ge1 Nb3 2.778956 1_555
Ge1 Nb1 2.778956 1_555
Ge1 Nb10 2.778956 1_444
Ge1 Nb4 2.778956 1_554
Ge1 Nb6 2.778957 1_555
Ge1 Nb16 2.778957 1_454
Ge1 Nb2 2.778960 1_554
Ge1 Nb7 2.778960 1_545
