# generated using pymatgen
data_Li11Mn13O32
_symmetry_space_group_name_H-M   'P 1'
_cell_length_a   8.28385936
_cell_length_b   8.28385936
_cell_length_c   10.10544729
_cell_angle_alpha   66.01881983
_cell_angle_beta   66.01881983
_cell_angle_gamma   89.52121435
_symmetry_Int_Tables_number   1
_chemical_formula_structural   Li11Mn13O32
_chemical_formula_sum   'Li11 Mn13 O32'
_cell_volume   568.59839541
_cell_formula_units_Z   1
loop_
 _symmetry_equiv_pos_site_id
 _symmetry_equiv_pos_as_xyz
  1  'x, y, z'
loop_
 _atom_site_type_symbol
 _atom_site_label
 _atom_site_symmetry_multiplicity
 _atom_site_fract_x
 _atom_site_fract_y
 _atom_site_fract_z
 _atom_site_occupancy
  Li  Li0  1  0.42847100  0.42847100  0.88504100  1
  Li  Li1  1  0.92909000  0.92909000  0.88008900  1
  Li  Li2  1  0.17665000  0.68183300  0.37867300  1
  Li  Li3  1  0.75218900  0.24781100  0.00000000  1
  Li  Li4  1  0.82335000  0.31816700  0.62132700  1
  Li  Li5  1  0.00000000  0.00000000  0.50000000  1
  Li  Li6  1  0.68183300  0.17665000  0.37867300  1
  Li  Li7  1  0.07091000  0.07091000  0.11991100  1
  Li  Li8  1  0.24781100  0.75218900  0.00000000  1
  Li  Li9  1  0.31816700  0.82335000  0.62132700  1
  Li  Li10  1  0.57152900  0.57152900  0.11495900  1
  Mn  Mn0  1  0.75105300  0.75105300  0.50292900  1
  Mn  Mn1  1  0.62336800  0.87820800  0.24783500  1
  Mn  Mn2  1  0.50000000  0.50000000  0.50000000  1
  Mn  Mn3  1  0.12179200  0.37663200  0.75216500  1
  Mn  Mn4  1  0.24894700  0.24894700  0.49707100  1
  Mn  Mn5  1  0.12550900  0.37516700  0.24919600  1
  Mn  Mn6  1  0.50000000  0.00000000  0.00000000  1
  Mn  Mn7  1  0.62483300  0.87449100  0.75080400  1
  Mn  Mn8  1  0.37663200  0.12179200  0.75216500  1
  Mn  Mn9  1  0.87820800  0.62336800  0.24783500  1
  Mn  Mn10  1  0.00000000  0.50000000  0.00000000  1
  Mn  Mn11  1  0.87449100  0.62483300  0.75080400  1
  Mn  Mn12  1  0.37516700  0.12550900  0.24919600  1
  O  O0  1  0.85269100  0.85269100  0.26488700  1
  O  O1  1  0.51771700  0.73909800  0.48815800  1
  O  O2  1  0.62828900  0.62828900  0.26703400  1
  O  O3  1  0.37171100  0.37171100  0.73296600  1
  O  O4  1  0.01330600  0.27992800  0.97704900  1
  O  O5  1  0.26090200  0.48228300  0.51184200  1
  O  O6  1  0.14730900  0.14730900  0.73511300  1
  O  O7  1  0.89861800  0.39341900  0.74913500  1
  O  O8  1  0.35771100  0.35771100  0.26084000  1
  O  O9  1  0.03214600  0.26036600  0.48151400  1
  O  O10  1  0.72007200  0.98669400  0.02295100  1
  O  O11  1  0.49326000  0.22009200  0.01996200  1
  O  O12  1  0.14375500  0.14375500  0.25254000  1
  O  O13  1  0.39161000  0.89316300  0.23800600  1
  O  O14  1  0.60839000  0.10683700  0.76199400  1
  O  O15  1  0.85624500  0.85624500  0.74746000  1
  O  O16  1  0.96785400  0.73963400  0.51848600  1
  O  O17  1  0.73963400  0.96785400  0.51848600  1
  O  O18  1  0.50674000  0.77990800  0.98003800  1
  O  O19  1  0.27992800  0.01330600  0.97704900  1
  O  O20  1  0.64228900  0.64228900  0.73916000  1
  O  O21  1  0.39341900  0.89861800  0.74913500  1
  O  O22  1  0.10138200  0.60658100  0.25086500  1
  O  O23  1  0.22009200  0.49326000  0.01996200  1
  O  O24  1  0.73909800  0.51771700  0.48815800  1
  O  O25  1  0.98669400  0.72007200  0.02295100  1
  O  O26  1  0.89316300  0.39161000  0.23800600  1
  O  O27  1  0.10683700  0.60839000  0.76199400  1
  O  O28  1  0.77990800  0.50674000  0.98003800  1
  O  O29  1  0.48228300  0.26090200  0.51184200  1
  O  O30  1  0.60658100  0.10138200  0.25086500  1
  O  O31  1  0.26036600  0.03214600  0.48151400  1
loop_
_geom_bond_atom_site_label_1
_geom_bond_atom_site_label_2
_geom_bond_distance
_geom_bond_site_symmetry_2
Li0 O11 1.947545 1_556
Li0 O23 1.947545 1_556
Li0 O3 1.995571 1_555
Li0 O20 2.062810 1_555
Li1 O10 1.955550 1_556
Li1 O25 1.955550 1_556
Li1 O15 1.961009 1_555
Li1 O6 2.104980 1_665
Li2 O22 1.939343 1_555
Li2 O16 1.940805 1_455
Li2 O5 1.991625 1_555
Li2 O13 2.056186 1_555
Li3 O28 2.076779 1_554
Li3 O11 2.076779 1_555
Li3 O10 2.086875 1_545
Li3 O4 2.086875 1_654
Li3 O30 2.095757 1_555
Li3 O7 2.095757 1_554
Li4 O7 1.939343 1_555
Li4 O9 1.940805 1_655
Li4 O24 1.991625 1_555
Li4 O14 2.056186 1_555
Li5 O15 2.066887 1_445
Li5 O12 2.066887 1_555
Li5 O9 2.097472 1_555
Li5 O16 2.097472 1_445
Li5 O17 2.097472 1_445
Li5 O31 2.097472 1_555
Li6 O30 1.939343 1_555
Li6 O17 1.940805 1_545
Li6 O29 1.991625 1_555
Li6 O26 2.056186 1_555
Li7 O4 1.955550 1_554
Li7 O19 1.955550 1_554
Li7 O12 1.961009 1_555
Li7 O0 2.104980 1_445
Li8 O18 2.076779 1_554
Li8 O23 2.076779 1_555
Li8 O19 2.086875 1_564
Li8 O25 2.086875 1_455
Li8 O21 2.095757 1_554
Li8 O22 2.095757 1_555
Li9 O21 1.939343 1_555
Li9 O31 1.940805 1_565
Li9 O1 1.991625 1_555
Li9 O27 2.056186 1_555
Li10 O28 1.947545 1_554
Li10 O18 1.947545 1_554
Li10 O2 1.995571 1_555
Li10 O8 2.062810 1_555
Mn0 O17 1.863780 1_555
Mn0 O16 1.863780 1_555
Mn0 O20 1.959387 1_555
Mn0 O0 1.980774 1_555
Mn0 O24 2.004501 1_555
Mn0 O1 2.004501 1_555
Mn1 O30 1.864505 1_565
Mn1 O10 1.867063 1_555
Mn1 O13 1.962669 1_555
Mn1 O0 1.978113 1_555
Mn1 O2 2.000983 1_555
Mn1 O1 2.001519 1_555
Mn2 O3 1.937157 1_555
Mn2 O2 1.937157 1_555
Mn2 O5 1.938237 1_555
Mn2 O29 1.938237 1_555
Mn2 O1 1.938237 1_555
Mn2 O24 1.938237 1_555
Mn3 O7 1.864505 1_455
Mn3 O4 1.867063 1_555
Mn3 O27 1.962669 1_555
Mn3 O6 1.978113 1_555
Mn3 O3 2.000983 1_555
Mn3 O5 2.001519 1_555
Mn4 O31 1.863780 1_555
Mn4 O9 1.863780 1_555
Mn4 O8 1.959387 1_555
Mn4 O6 1.980774 1_555
Mn4 O29 2.004501 1_555
Mn4 O5 2.004501 1_555
Mn5 O23 1.905899 1_555
Mn5 O12 1.909311 1_555
Mn5 O22 1.931906 1_555
Mn5 O9 1.932782 1_555
Mn5 O26 1.973806 1_455
Mn5 O8 1.974898 1_555
Mn6 O18 1.912071 1_544
Mn6 O11 1.912071 1_555
Mn6 O19 1.925875 1_554
Mn6 O10 1.925875 1_545
Mn6 O13 1.975293 1_545
Mn6 O14 1.975293 1_554
Mn7 O18 1.905899 1_555
Mn7 O15 1.909311 1_555
Mn7 O21 1.931906 1_555
Mn7 O17 1.932782 1_555
Mn7 O14 1.973806 1_565
Mn7 O20 1.974898 1_555
Mn8 O21 1.864505 1_545
Mn8 O19 1.867063 1_555
Mn8 O14 1.962669 1_555
Mn8 O6 1.978113 1_555
Mn8 O3 2.000983 1_555
Mn8 O29 2.001519 1_555
Mn9 O22 1.864505 1_655
Mn9 O25 1.867063 1_555
Mn9 O26 1.962669 1_555
Mn9 O0 1.978113 1_555
Mn9 O2 2.000983 1_555
Mn9 O24 2.001519 1_555
Mn10 O28 1.912071 1_454
Mn10 O23 1.912071 1_555
Mn10 O25 1.925875 1_455
Mn10 O4 1.925875 1_554
Mn10 O26 1.975293 1_455
Mn10 O27 1.975293 1_554
Mn11 O28 1.905899 1_555
Mn11 O15 1.909311 1_555
Mn11 O7 1.931906 1_555
Mn11 O16 1.932782 1_555
Mn11 O27 1.973806 1_655
Mn11 O20 1.974898 1_555
Mn12 O11 1.905899 1_555
Mn12 O12 1.909311 1_555
Mn12 O30 1.931906 1_555
Mn12 O31 1.932782 1_555
Mn12 O13 1.973806 1_545
Mn12 O8 1.974898 1_555
