# generated using pymatgen
data_Ba5Al5Sn
_symmetry_space_group_name_H-M   'P 1'
_cell_length_a   6.07784319
_cell_length_b   6.07784235
_cell_length_c   11.27941177
_cell_angle_alpha   90.00000000
_cell_angle_beta   90.00000000
_cell_angle_gamma   119.99999342
_symmetry_Int_Tables_number   1
_chemical_formula_structural   Ba5Al5Sn
_chemical_formula_sum   'Ba5 Al5 Sn1'
_cell_volume   360.84112979
_cell_formula_units_Z   1
loop_
 _symmetry_equiv_pos_site_id
 _symmetry_equiv_pos_as_xyz
  1  'x, y, z'
loop_
 _atom_site_type_symbol
 _atom_site_label
 _atom_site_symmetry_multiplicity
 _atom_site_fract_x
 _atom_site_fract_y
 _atom_site_fract_z
 _atom_site_occupancy
  Ba  Ba0  1  0.66666700  0.33333300  0.79967760  1
  Ba  Ba1  1  0.66666700  0.33333300  0.20032240  1
  Ba  Ba2  1  0.00000000  0.00000000  0.67230929  1
  Ba  Ba3  1  0.00000000  0.00000000  0.32769071  1
  Ba  Ba4  1  0.33333300  0.66666700  0.00000000  1
  Al  Al0  1  0.97790922  0.48895461  0.50000000  1
  Al  Al1  1  0.33333300  0.66666700  0.67404743  1
  Al  Al2  1  0.51104539  0.48895461  0.50000000  1
  Al  Al3  1  0.51104539  0.02209078  0.50000000  1
  Al  Al4  1  0.33333300  0.66666700  0.32595257  1
  Sn  Sn0  1  0.00000000  0.00000000  0.00000000  1
loop_
_geom_bond_atom_site_label_1
_geom_bond_atom_site_label_2
_geom_bond_distance
_geom_bond_site_symmetry_2
Ba0 Ba2 3.791741 1_655
Ba0 Ba2 3.791746 1_665
Ba0 Ba2 3.791746 1_555
Ba0 Sn0 4.173582 1_656
Ba0 Ba4 4.173583 1_546
Ba0 Ba4 4.173583 1_656
Ba0 Sn0 4.173587 1_666
Ba0 Sn0 4.173587 1_556
Ba0 Ba4 4.173591 1_556
Ba0 Ba1 4.519038 1_556
Ba1 Ba3 3.791741 1_655
Ba1 Ba3 3.791746 1_665
Ba1 Ba3 3.791746 1_555
Ba1 Sn0 4.173582 1_655
Ba1 Ba4 4.173583 1_545
Ba1 Ba4 4.173583 1_655
Ba1 Sn0 4.173587 1_665
Ba1 Sn0 4.173587 1_555
Ba1 Ba4 4.173591 1_555
Ba2 Sn0 3.696158 1_556
Ba3 Sn0 3.696158 1_555
Ba4 Sn0 3.509041 1_565
Ba4 Sn0 3.509046 1_555
Ba4 Sn0 3.509046 1_665
Al0 Al4 2.711798 1_655
Al0 Al1 2.711798 1_655
Al0 Al2 2.837525 1_555
Al0 Al3 2.837525 1_555
Al0 Ba2 3.609147 1_655
Al0 Ba3 3.609147 1_655
Al0 Ba2 3.609147 1_665
Al0 Ba3 3.609147 1_665
Al0 Ba0 3.756263 1_555
Al0 Ba1 3.756263 1_555
Al1 Al3 2.711798 1_565
Al1 Al2 2.711802 1_555
Al1 Ba2 3.509095 1_565
Al1 Ba2 3.509101 1_555
Al1 Ba2 3.509101 1_665
Al1 Ba4 3.676553 1_556
Al1 Ba0 3.784356 1_565
Al1 Ba0 3.784357 1_455
Al1 Ba0 3.784366 1_555
Al2 Al4 2.711802 1_555
Al2 Al3 2.837525 1_555
Al2 Ba2 3.609147 1_665
Al2 Ba3 3.609147 1_665
Al2 Ba2 3.609147 1_555
Al2 Ba3 3.609147 1_555
Al2 Ba1 3.756265 1_555
Al2 Ba0 3.756265 1_555
Al3 Al4 2.711798 1_545
Al3 Ba2 3.609147 1_655
Al3 Ba3 3.609147 1_655
Al3 Ba2 3.609147 1_555
Al3 Ba3 3.609147 1_555
Al3 Ba1 3.756263 1_555
Al3 Ba0 3.756263 1_555
Al4 Ba3 3.509095 1_565
Al4 Ba3 3.509101 1_555
Al4 Ba3 3.509101 1_665
Al4 Ba4 3.676553 1_555
Al4 Ba1 3.784356 1_565
Al4 Ba1 3.784357 1_455
Al4 Ba1 3.784366 1_555
