# generated using pymatgen
data_Pr8Ga3Co
_symmetry_space_group_name_H-M   'P 1'
_cell_length_a   10.51544641
_cell_length_b   10.51545474
_cell_length_c   7.11233961
_cell_angle_alpha   89.99920930
_cell_angle_beta   90.00009984
_cell_angle_gamma   119.99880931
_symmetry_Int_Tables_number   1
_chemical_formula_structural   Pr8Ga3Co
_chemical_formula_sum   'Pr16 Ga6 Co2'
_cell_volume   681.08936761
_cell_formula_units_Z   2
loop_
 _symmetry_equiv_pos_site_id
 _symmetry_equiv_pos_as_xyz
  1  'x, y, z'
loop_
 _atom_site_type_symbol
 _atom_site_label
 _atom_site_symmetry_multiplicity
 _atom_site_fract_x
 _atom_site_fract_y
 _atom_site_fract_z
 _atom_site_occupancy
  Pr  Pr0  1  0.17051942  0.82946326  0.99220239  1
  Pr  Pr1  1  0.34082632  0.17042008  0.49226447  1
  Pr  Pr2  1  0.82959124  0.65915175  0.49224874  1
  Pr  Pr3  1  0.17053004  0.34106889  0.99220996  1
  Pr  Pr4  1  0.65893852  0.82947151  0.99219044  1
  Pr  Pr5  1  0.82960878  0.17044053  0.49225602  1
  Pr  Pr6  1  0.33331127  0.66665383  0.67064871  1
  Pr  Pr7  1  0.66667302  0.33332939  0.17066069  1
  Pr  Pr8  1  0.46256205  0.53740591  0.28996492  1
  Pr  Pr9  1  0.92516033  0.46257387  0.78990270  1
  Pr  Pr10  1  0.53745006  0.07488255  0.78990564  1
  Pr  Pr11  1  0.46256643  0.92517400  0.28997876  1
  Pr  Pr12  1  0.07479926  0.53739595  0.28995559  1
  Pr  Pr13  1  0.53743840  0.46256400  0.78989963  1
  Pr  Pr14  1  1.00000849  1.00000141  0.27568432  1
  Pr  Pr15  1  1.00000716  0.00000387  0.77595894  1
  Ga  Ga0  1  0.16447082  0.83554366  0.53730712  1
  Ga  Ga1  1  0.32895242  0.16447045  0.03728267  1
  Ga  Ga2  1  0.83552286  0.67106716  0.03728948  1
  Ga  Ga3  1  0.16447854  0.32893071  0.53731013  1
  Ga  Ga4  1  0.67106220  0.83553293  0.53732630  1
  Ga  Ga5  1  0.83552625  0.16444934  0.03727649  1
  Co  Co0  1  0.33330568  0.66666640  0.05820088  1
  Co  Co1  1  0.66668944  0.33334256  0.55807200  1
loop_
_geom_bond_atom_site_label_1
_geom_bond_atom_site_label_2
_geom_bond_distance
_geom_bond_site_symmetry_2
Pr0 Pr11 3.440756 1_556
Pr0 Pr12 3.440770 1_556
Pr0 Pr15 3.465765 1_465
Pr0 Pr9 3.695641 1_455
Pr0 Pr10 3.696014 1_565
Pr0 Pr14 3.702866 1_456
Pr0 Pr6 3.744651 1_555
Pr1 Pr13 3.441225 1_555
Pr1 Pr10 3.441299 1_555
Pr1 Pr14 3.464980 1_445
Pr1 Pr11 3.696031 1_545
Pr1 Pr8 3.696081 1_555
Pr1 Pr15 3.701954 1_455
Pr1 Pr7 3.746653 1_555
Pr2 Pr9 3.441184 1_555
Pr2 Pr8 3.696437 1_555
Pr2 Pr7 3.746449 1_555
Pr3 Pr8 3.440596 1_556
Pr3 Pr9 3.695480 1_455
Pr3 Pr6 3.744566 1_555
Pr4 Pr8 3.440918 1_556
Pr4 Pr6 3.744822 1_555
Pr5 Pr9 3.441145 1_555
Pr5 Pr7 3.746410 1_555
Pr10 Pr5 3.441315 1_555
Pr10 Pr4 3.695671 1_545
Pr11 Pr4 3.441017 1_554
Pr11 Pr5 3.696516 1_565
Pr12 Pr3 3.440661 1_554
Pr12 Pr5 3.695776 1_455
Pr12 Pr2 3.695811 1_455
Pr13 Pr2 3.441271 1_555
Pr13 Pr4 3.695815 1_555
Pr13 Pr3 3.695859 1_555
Pr14 Pr5 3.465080 1_565
Pr14 Pr2 3.465164 1_555
Pr14 Pr15 3.554217 1_564
Pr14 Pr15 3.558123 1_565
Pr14 Pr3 3.702985 1_664
Pr14 Pr4 3.703113 1_554
Pr15 Pr4 3.465909 1_545
Pr15 Pr3 3.465972 1_655
Pr15 Pr5 3.702057 1_555
Pr15 Pr2 3.702304 1_545
Ga0 Pr1 3.067850 1_565
Ga0 Pr2 3.067906 1_455
Ga0 Pr6 3.218462 1_555
Ga0 Pr0 3.237254 1_555
Ga0 Pr11 3.294565 1_555
Ga0 Pr12 3.295042 1_555
Ga0 Pr15 3.442883 1_465
Ga0 Pr14 3.526239 1_455
Ga0 Pr0 3.878544 1_554
Ga0 Pr9 3.882340 1_455
Ga0 Pr10 3.882495 1_565
Ga1 Pr0 3.069117 1_544
Ga1 Pr3 3.069179 1_554
Ga1 Pr7 3.218519 1_555
Ga1 Pr1 3.237792 1_555
Ga1 Pr10 3.294735 1_554
Ga1 Pr13 3.294806 1_554
Ga1 Pr14 3.442189 1_445
Ga1 Pr15 3.525380 1_454
Ga1 Pr1 3.877862 1_554
Ga1 Pr11 3.882165 1_545
Ga1 Pr8 3.882428 1_555
Ga2 Pr4 3.068909 1_554
Ga2 Pr0 3.069027 1_654
Ga2 Pr7 3.218638 1_555
Ga2 Pr2 3.237642 1_555
Ga2 Pr13 3.294840 1_554
Ga2 Pr9 3.295066 1_554
Ga2 Pr14 3.442121 1_555
Ga2 Pr15 3.525308 1_564
Ga2 Pr2 3.878035 1_554
Ga2 Pr12 3.882309 1_655
Ga2 Pr8 3.882516 1_555
Ga3 Pr1 3.067640 1_555
Ga3 Pr5 3.067807 1_455
Ga3 Pr6 3.218469 1_555
Ga3 Pr3 3.237292 1_555
Ga3 Pr8 3.294582 1_555
Ga3 Pr12 3.294943 1_555
Ga3 Pr15 3.442908 1_455
Ga3 Pr14 3.526406 1_445
Ga3 Pr3 3.878511 1_554
Ga3 Pr9 3.882252 1_455
Ga3 Pr13 3.882279 1_555
Ga4 Pr2 3.068135 1_555
Ga4 Pr5 3.068146 1_565
Ga4 Pr6 3.218656 1_555
Ga4 Pr4 3.237031 1_555
Ga4 Pr11 3.294935 1_555
Ga4 Pr8 3.295012 1_555
Ga4 Pr15 3.443024 1_565
Ga4 Pr14 3.526563 1_555
Ga4 Pr4 3.878764 1_554
Ga4 Pr10 3.882265 1_565
Ga4 Pr13 3.882292 1_555
Ga5 Pr4 3.068869 1_544
Ga5 Pr3 3.069086 1_654
Ga5 Pr7 3.218594 1_555
Ga5 Pr5 3.237787 1_555
Ga5 Pr10 3.294696 1_554
Ga5 Pr9 3.294960 1_554
Ga5 Pr14 3.442051 1_545
Ga5 Pr15 3.525171 1_554
Ga5 Pr5 3.877886 1_554
Ga5 Pr12 3.882437 1_655
Ga5 Pr11 3.882575 1_545
Co0 Pr6 2.756403 1_554
Co0 Pr12 2.873839 1_555
Co0 Pr8 2.873917 1_555
Co0 Pr11 2.873972 1_555
Co0 Pr0 3.001876 1_554
Co0 Pr3 3.002062 1_554
Co0 Pr4 3.002390 1_554
Co1 Pr7 2.755401 1_555
Co1 Pr10 2.873804 1_555
Co1 Pr13 2.873869 1_555
Co1 Pr9 2.873900 1_555
Co1 Pr2 3.003766 1_555
Co1 Pr5 3.003825 1_555
Co1 Pr1 3.004241 1_555
