# generated using pymatgen
data_K2CoSiO4
_symmetry_space_group_name_H-M   'P 1'
_cell_length_a   5.50223200
_cell_length_b   11.03760400
_cell_length_c   15.86507500
_cell_angle_alpha   90.00000000
_cell_angle_beta   90.00000000
_cell_angle_gamma   90.00000000
_symmetry_Int_Tables_number   1
_chemical_formula_structural   K2CoSiO4
_chemical_formula_sum   'K16 Co8 Si8 O32'
_cell_volume   963.50913495
_cell_formula_units_Z   8
loop_
 _symmetry_equiv_pos_site_id
 _symmetry_equiv_pos_as_xyz
  1  'x, y, z'
loop_
 _atom_site_type_symbol
 _atom_site_label
 _atom_site_symmetry_multiplicity
 _atom_site_fract_x
 _atom_site_fract_y
 _atom_site_fract_z
 _atom_site_occupancy
  K  K0  1  0.05741000  0.73432300  0.68639300  1
  K  K1  1  0.49661000  0.48647900  0.93816200  1
  K  K2  1  0.50339000  0.51352100  0.43816200  1
  K  K3  1  0.50339000  0.98647900  0.93816200  1
  K  K4  1  0.49661000  0.01352100  0.43816200  1
  K  K5  1  0.44853200  0.23822400  0.81754200  1
  K  K6  1  0.55146800  0.76177600  0.31754200  1
  K  K7  1  0.55146800  0.73822400  0.81754200  1
  K  K8  1  0.44853200  0.26177600  0.31754200  1
  K  K9  1  0.94259000  0.26567700  0.18639300  1
  K  K10  1  0.94259000  0.23432300  0.68639300  1
  K  K11  1  0.05741000  0.76567700  0.18639300  1
  K  K12  1  0.00659100  0.51256600  0.06141700  1
  K  K13  1  0.99340900  0.01256600  0.06141700  1
  K  K14  1  0.99340900  0.48743400  0.56141700  1
  K  K15  1  0.00659100  0.98743400  0.56141700  1
  Co  Co0  1  0.53809700  0.74068700  0.56422900  1
  Co  Co1  1  0.99198200  0.49008100  0.81112100  1
  Co  Co2  1  0.00801800  0.50991900  0.31112100  1
  Co  Co3  1  0.00801800  0.99008100  0.81112100  1
  Co  Co4  1  0.99198200  0.00991900  0.31112100  1
  Co  Co5  1  0.53809700  0.75931300  0.06422900  1
  Co  Co6  1  0.46190300  0.24068700  0.56422900  1
  Co  Co7  1  0.46190300  0.25931300  0.06422900  1
  Si  Si0  1  0.96729600  0.26481900  0.43515200  1
  Si  Si1  1  0.03270400  0.73518100  0.93515200  1
  Si  Si2  1  0.03270400  0.76481900  0.43515200  1
  Si  Si3  1  0.96729600  0.23518100  0.93515200  1
  Si  Si4  1  0.50909000  0.99189400  0.68896600  1
  Si  Si5  1  0.49091000  0.00810600  0.18896600  1
  Si  Si6  1  0.49091000  0.49189400  0.68896600  1
  Si  Si7  1  0.50909000  0.50810600  0.18896600  1
  O  O0  1  0.21747200  0.01182100  0.71083800  1
  O  O1  1  0.78252800  0.98817900  0.21083800  1
  O  O2  1  0.78252800  0.51182100  0.71083800  1
  O  O3  1  0.21747200  0.48817900  0.21083800  1
  O  O4  1  0.56887300  0.84938800  0.66235900  1
  O  O5  1  0.43112700  0.15061200  0.16235900  1
  O  O6  1  0.43112700  0.34938800  0.66235900  1
  O  O7  1  0.56887300  0.65061200  0.16235900  1
  O  O8  1  0.41815600  0.58167200  0.60910700  1
  O  O9  1  0.58184400  0.41832800  0.10910700  1
  O  O10  1  0.58184400  0.08167200  0.60910700  1
  O  O11  1  0.41815600  0.91832800  0.10910700  1
  O  O12  1  0.84488500  0.70229800  0.50424000  1
  O  O13  1  0.15511500  0.29770200  0.00424000  1
  O  O14  1  0.15511500  0.20229800  0.50424000  1
  O  O15  1  0.70256400  0.20463400  0.97966700  1
  O  O16  1  0.32995000  0.97482400  0.27430000  1
  O  O17  1  0.67005000  0.02517600  0.77430000  1
  O  O18  1  0.67005000  0.47482400  0.27430000  1
  O  O19  1  0.32995000  0.52517600  0.77430000  1
  O  O20  1  0.92600500  0.17554200  0.35268100  1
  O  O21  1  0.07399500  0.82445800  0.85268100  1
  O  O22  1  0.07399500  0.67554200  0.35268100  1
  O  O23  1  0.92600500  0.32445800  0.85268100  1
  O  O24  1  0.08844000  0.39446400  0.40302500  1
  O  O25  1  0.91156000  0.60553600  0.90302500  1
  O  O26  1  0.91156000  0.89446400  0.40302500  1
  O  O27  1  0.08844000  0.10553600  0.90302500  1
  O  O28  1  0.70256400  0.29536600  0.47966700  1
  O  O29  1  0.29743600  0.70463400  0.97966700  1
  O  O30  1  0.29743600  0.79536600  0.47966700  1
  O  O31  1  0.84488500  0.79770200  0.00424000  1
loop_
_geom_bond_atom_site_label_1
_geom_bond_atom_site_label_2
_geom_bond_distance
_geom_bond_site_symmetry_2
K0 O21 2.821002 1_555
K0 O8 2.877880 1_555
K0 O2 2.910214 1_455
K0 O4 2.997328 1_455
K0 O19 3.085916 1_555
K0 O4 3.110957 1_555
K0 O12 3.137469 1_455
K0 O0 3.210525 1_565
K1 O25 2.692657 1_555
K1 O29 2.726283 1_555
K1 O19 2.789566 1_555
K1 O9 2.853248 1_556
K1 O13 2.995190 1_556
K2 O24 2.692657 1_555
K2 O28 2.726283 1_555
K2 O18 2.789566 1_555
K2 O8 2.853248 1_555
K2 O12 2.995190 1_555
K3 O27 2.692657 1_565
K3 O15 2.726283 1_565
K3 O17 2.789566 1_565
K3 O11 2.853248 1_556
K3 O31 2.995190 1_556
K4 O26 2.692657 1_545
K4 O30 2.726283 1_545
K4 O16 2.789566 1_545
K4 O10 2.853248 1_555
K4 O14 2.995190 1_555
K5 O17 2.736049 1_555
K5 O6 2.752464 1_555
K5 O27 2.812433 1_555
K5 O23 2.849342 1_555
K5 O15 2.950758 1_555
K5 O23 3.079406 1_455
K5 O0 3.275187 1_555
K5 O19 3.305739 1_555
K6 O16 2.736049 1_555
K6 O7 2.752464 1_555
K6 O26 2.812433 1_555
K6 O22 2.849342 1_555
K6 O30 2.950758 1_555
K6 O22 3.079406 1_655
K6 O1 3.275187 1_555
K6 O18 3.305739 1_555
K7 O19 2.736049 1_555
K7 O4 2.752464 1_555
K7 O25 2.812433 1_555
K7 O21 2.849342 1_555
K7 O29 2.950758 1_555
K7 O21 3.079406 1_655
K7 O2 3.275187 1_555
K7 O17 3.305739 1_565
K8 O18 2.736049 1_555
K8 O5 2.752464 1_555
K8 O24 2.812433 1_555
K8 O20 2.849342 1_555
K8 O28 2.950758 1_555
K8 O20 3.079406 1_455
K8 O3 3.275187 1_555
K8 O16 3.305739 1_545
K9 O20 2.821002 1_555
K9 O9 2.877880 1_555
K9 O3 2.910214 1_655
K9 O5 2.997328 1_655
K9 O18 3.085916 1_555
K9 O5 3.110957 1_555
K9 O13 3.137469 1_655
K9 O1 3.210525 1_545
K10 O23 2.821002 1_555
K10 O10 2.877880 1_555
K10 O0 2.910214 1_655
K10 O6 2.997328 1_655
K10 O17 3.085916 1_555
K10 O6 3.110957 1_555
K10 O14 3.137469 1_655
K10 O2 3.210525 1_555
K11 O22 2.821002 1_555
K11 O11 2.877880 1_555
K11 O1 2.910214 1_455
K11 O7 2.997328 1_455
K11 O16 3.085916 1_555
K11 O7 3.110957 1_555
K11 O31 3.137469 1_455
K11 O3 3.210525 1_555
K12 O3 2.653001 1_555
K12 O13 2.667416 1_555
K12 O9 2.667625 1_455
K12 O25 2.764253 1_454
K12 O29 2.955902 1_554
K13 O1 2.653001 1_545
K13 O31 2.667416 1_545
K13 O11 2.667625 1_645
K13 O27 2.764253 1_654
K13 O15 2.955902 1_554
K14 O2 2.653001 1_555
K14 O12 2.667416 1_555
K14 O8 2.667625 1_655
K14 O24 2.764253 1_655
K14 O28 2.955902 1_555
K15 O0 2.653001 1_565
K15 O14 2.667416 1_565
K15 O10 2.667625 1_465
K15 O26 2.764253 1_455
K15 O30 2.955902 1_555
Co0 O4 1.972800 1_555
Co0 O30 1.979272 1_555
Co0 O12 1.983617 1_555
Co0 O8 2.005740 1_555
Co1 O23 1.976970 1_555
Co1 O2 1.979148 1_555
Co1 O25 1.986383 1_555
Co1 O19 1.987293 1_655
Co2 O22 1.976970 1_555
Co2 O3 1.979148 1_555
Co2 O24 1.986383 1_555
Co2 O18 1.987293 1_455
Co3 O21 1.976970 1_555
Co3 O0 1.979148 1_565
Co3 O27 1.986383 1_565
Co3 O17 1.987293 1_465
Co4 O20 1.976970 1_555
Co4 O1 1.979148 1_545
Co4 O26 1.986383 1_545
Co4 O16 1.987293 1_645
Co5 O7 1.972800 1_555
Co5 O29 1.979272 1_554
Co5 O31 1.983617 1_555
Co5 O11 2.005740 1_555
Co6 O6 1.972800 1_555
Co6 O28 1.979272 1_555
Co6 O14 1.983617 1_555
Co6 O10 2.005740 1_555
Co7 O5 1.972800 1_555
Co7 O15 1.979272 1_554
Co7 O13 1.983617 1_555
Co7 O9 2.005740 1_555
O0 Si4 1.656311 1_545
O1 Si5 1.656311 1_565
O2 Si6 1.656311 1_555
O3 Si7 1.656311 1_555
O4 Si4 1.661470 1_555
O5 Si5 1.661470 1_555
O6 Si6 1.661470 1_555
O7 Si7 1.661470 1_555
O8 Si6 1.657531 1_555
O9 Si7 1.657531 1_555
O10 Si4 1.657531 1_545
O11 Si5 1.657531 1_565
O12 Si2 1.656980 1_655
O13 Si3 1.656980 1_454
O14 Si0 1.656980 1_455
O15 Si3 1.653535 1_555
O16 Si5 1.658964 1_565
O17 Si4 1.658964 1_545
O18 Si7 1.658964 1_555
O19 Si6 1.658964 1_555
O20 Si0 1.653654 1_555
O21 Si1 1.653654 1_555
O22 Si2 1.653654 1_555
O23 Si3 1.653654 1_555
O24 Si0 1.658847 1_455
O25 Si1 1.658847 1_655
O26 Si2 1.658847 1_655
O27 Si3 1.658847 1_455
O28 Si0 1.653535 1_555
O29 Si1 1.653535 1_555
O30 Si2 1.653535 1_555
O31 Si1 1.656980 1_654
