# generated using pymatgen
data_CsCa2Nb3O10
_symmetry_space_group_name_H-M   'P 1'
_cell_length_a   7.82522500
_cell_length_b   7.83452300
_cell_length_c   31.03140600
_cell_angle_alpha   90.00000000
_cell_angle_beta   90.00000000
_cell_angle_gamma   90.00000000
_symmetry_Int_Tables_number   1
_chemical_formula_structural   CsCa2Nb3O10
_chemical_formula_sum   'Cs8 Ca16 Nb24 O80'
_cell_volume   1902.43946719
_cell_formula_units_Z   8
loop_
 _symmetry_equiv_pos_site_id
 _symmetry_equiv_pos_as_xyz
  1  'x, y, z'
loop_
 _atom_site_type_symbol
 _atom_site_label
 _atom_site_symmetry_multiplicity
 _atom_site_fract_x
 _atom_site_fract_y
 _atom_site_fract_z
 _atom_site_occupancy
  Cs  Cs0  1  0.73738200  0.75000000  0.74575400  1
  Cs  Cs1  1  0.25336500  0.75000000  0.25484500  1
  Cs  Cs2  1  0.23738200  0.25000000  0.75424600  1
  Cs  Cs3  1  0.24663500  0.75000000  0.75484500  1
  Cs  Cs4  1  0.26261800  0.25000000  0.25424600  1
  Cs  Cs5  1  0.76261800  0.75000000  0.24575400  1
  Cs  Cs6  1  0.75336500  0.25000000  0.24515500  1
  Cs  Cs7  1  0.74663500  0.25000000  0.74515500  1
  Ca  Ca0  1  0.26199100  0.75000000  0.42423500  1
  Ca  Ca1  1  0.76199100  0.25000000  0.07576500  1
  Ca  Ca2  1  0.27612100  0.75000000  0.56945100  1
  Ca  Ca3  1  0.25736800  0.25000000  0.93184700  1
  Ca  Ca4  1  0.71597400  0.75000000  0.92666600  1
  Ca  Ca5  1  0.74263200  0.75000000  0.06815300  1
  Ca  Ca6  1  0.28402600  0.25000000  0.07333400  1
  Ca  Ca7  1  0.23800900  0.75000000  0.92423500  1
  Ca  Ca8  1  0.78402600  0.75000000  0.42666600  1
  Ca  Ca9  1  0.75736800  0.75000000  0.56815300  1
  Ca  Ca10  1  0.72387900  0.25000000  0.43054900  1
  Ca  Ca11  1  0.21597400  0.25000000  0.57333400  1
  Ca  Ca12  1  0.24263200  0.25000000  0.43184700  1
  Ca  Ca13  1  0.77612100  0.25000000  0.93054900  1
  Ca  Ca14  1  0.22387900  0.75000000  0.06945100  1
  Ca  Ca15  1  0.73800900  0.25000000  0.57576500  1
  Nb  Nb0  1  0.50000000  0.50000000  0.50000000  1
  Nb  Nb1  1  0.48889400  0.49709100  0.63939800  1
  Nb  Nb2  1  0.49671900  0.00412200  0.86048600  1
  Nb  Nb3  1  0.51110600  0.50290900  0.36060200  1
  Nb  Nb4  1  0.50000000  0.50000000  0.00000000  1
  Nb  Nb5  1  0.98889400  0.50290900  0.86060200  1
  Nb  Nb6  1  0.01110600  0.49709100  0.13939800  1
  Nb  Nb7  1  0.50328100  0.99587800  0.13951400  1
  Nb  Nb8  1  0.01110600  0.00290900  0.13939800  1
  Nb  Nb9  1  0.00000000  0.00000000  0.50000000  1
  Nb  Nb10  1  0.51110600  0.99709100  0.36060200  1
  Nb  Nb11  1  0.00000000  0.50000000  0.50000000  1
  Nb  Nb12  1  0.00000000  0.50000000  0.00000000  1
  Nb  Nb13  1  0.99671900  0.99587800  0.63951400  1
  Nb  Nb14  1  0.00328100  0.49587800  0.36048600  1
  Nb  Nb15  1  0.48889400  0.00290900  0.63939800  1
  Nb  Nb16  1  0.98889400  0.99709100  0.86060200  1
  Nb  Nb17  1  0.50328100  0.50412200  0.13951400  1
  Nb  Nb18  1  0.50000000  0.00000000  0.00000000  1
  Nb  Nb19  1  0.00000000  0.00000000  0.00000000  1
  Nb  Nb20  1  0.49671900  0.49587800  0.86048600  1
  Nb  Nb21  1  0.99671900  0.50412200  0.63951400  1
  Nb  Nb22  1  0.00328100  0.00412200  0.36048600  1
  Nb  Nb23  1  0.50000000  0.00000000  0.50000000  1
  O  O0  1  0.98268400  0.02678200  0.30317500  1
  O  O1  1  0.25741800  0.98890400  0.11710700  1
  O  O2  1  0.74258200  0.48890400  0.88289300  1
  O  O3  1  0.25704200  0.98300500  0.36692800  1
  O  O4  1  0.74979800  0.56018100  0.48894400  1
  O  O5  1  0.45247000  0.54748700  0.93893500  1
  O  O6  1  0.07125600  0.75000000  0.99090800  1
  O  O7  1  0.96879700  0.54792000  0.06171400  1
  O  O8  1  0.02193900  0.25000000  0.11716900  1
  O  O9  1  0.04753000  0.95251300  0.43893500  1
  O  O10  1  0.25020200  0.43981900  0.51105600  1
  O  O11  1  0.04753000  0.54748700  0.43893500  1
  O  O12  1  0.51731600  0.02678200  0.80317500  1
  O  O13  1  0.46549400  0.02664300  0.69665200  1
  O  O14  1  0.99674400  0.25000000  0.86547600  1
  O  O15  1  0.25741800  0.51109600  0.11710700  1
  O  O16  1  0.95247000  0.45251300  0.56106500  1
  O  O17  1  0.74295800  0.48300500  0.63307200  1
  O  O18  1  0.01781700  0.25000000  0.38140700  1
  O  O19  1  0.48464500  0.25000000  0.13357600  1
  O  O20  1  0.24979800  0.43981900  0.01105600  1
  O  O21  1  0.01731600  0.97321800  0.69682500  1
  O  O22  1  0.92874400  0.25000000  0.00909200  1
  O  O23  1  0.03450600  0.47335700  0.19665200  1
  O  O24  1  0.54753000  0.04748700  0.06106500  1
  O  O25  1  0.53120300  0.95208000  0.56171400  1
  O  O26  1  0.47806100  0.25000000  0.61716900  1
  O  O27  1  0.96549400  0.97335700  0.80334800  1
  O  O28  1  0.95247000  0.04748700  0.56106500  1
  O  O29  1  0.75704200  0.01699500  0.13307200  1
  O  O30  1  0.03450600  0.02664300  0.19665200  1
  O  O31  1  0.75020200  0.93981900  0.98894400  1
  O  O32  1  0.50325600  0.25000000  0.36547600  1
  O  O33  1  0.49674400  0.75000000  0.63452400  1
  O  O34  1  0.48218300  0.25000000  0.88140700  1
  O  O35  1  0.74258200  0.01109600  0.88289300  1
  O  O36  1  0.75704200  0.48300500  0.13307200  1
  O  O37  1  0.54753000  0.45251300  0.06106500  1
  O  O38  1  0.45767400  0.75000000  0.01669300  1
  O  O39  1  0.46549400  0.47335700  0.69665200  1
  O  O40  1  0.54232600  0.25000000  0.98330700  1
  O  O41  1  0.00325600  0.75000000  0.13452400  1
  O  O42  1  0.98464500  0.75000000  0.36642400  1
  O  O43  1  0.24295800  0.98300500  0.86692800  1
  O  O44  1  0.01731600  0.52678200  0.69682500  1
  O  O45  1  0.75741800  0.48890400  0.38289300  1
  O  O46  1  0.01535500  0.25000000  0.63357600  1
  O  O47  1  0.97806100  0.75000000  0.88283100  1
  O  O48  1  0.53450600  0.52664300  0.30334800  1
  O  O49  1  0.98218300  0.75000000  0.61859300  1
  O  O50  1  0.24258200  0.51109600  0.61710700  1
  O  O51  1  0.48268400  0.52678200  0.19682500  1
  O  O52  1  0.03120300  0.04792000  0.93828600  1
  O  O53  1  0.74979800  0.93981900  0.48894400  1
  O  O54  1  0.46879700  0.04792000  0.43828600  1
  O  O55  1  0.24979800  0.06018100  0.01105600  1
  O  O56  1  0.51535500  0.75000000  0.86642400  1
  O  O57  1  0.74295800  0.01699500  0.63307200  1
  O  O58  1  0.25704200  0.51699500  0.36692800  1
  O  O59  1  0.46879700  0.45208000  0.43828600  1
  O  O60  1  0.04232600  0.75000000  0.51669300  1
  O  O61  1  0.48268400  0.97321800  0.19682500  1
  O  O62  1  0.24295800  0.51699500  0.86692800  1
  O  O63  1  0.52193900  0.75000000  0.38283100  1
  O  O64  1  0.75741800  0.01109600  0.38289300  1
  O  O65  1  0.95767400  0.25000000  0.48330700  1
  O  O66  1  0.98268400  0.47321800  0.30317500  1
  O  O67  1  0.25020200  0.06018100  0.51105600  1
  O  O68  1  0.57125600  0.25000000  0.50909200  1
  O  O69  1  0.51731600  0.47321800  0.80317500  1
  O  O70  1  0.96879700  0.95208000  0.06171400  1
  O  O71  1  0.53120300  0.54792000  0.56171400  1
  O  O72  1  0.51781700  0.75000000  0.11859300  1
  O  O73  1  0.75020200  0.56018100  0.98894400  1
  O  O74  1  0.53450600  0.97335700  0.30334800  1
  O  O75  1  0.45247000  0.95251300  0.93893500  1
  O  O76  1  0.24258200  0.98890400  0.61710700  1
  O  O77  1  0.96549400  0.52664300  0.80334800  1
  O  O78  1  0.42874400  0.75000000  0.49090800  1
  O  O79  1  0.03120300  0.45208000  0.93828600  1
loop_
_geom_bond_atom_site_label_1
_geom_bond_atom_site_label_2
_geom_bond_distance
_geom_bond_site_symmetry_2
Cs0 O27 3.072885 1_555
Cs0 O77 3.072885 1_555
Cs0 O21 3.187815 1_655
Cs0 O44 3.187815 1_655
Cs0 O12 3.292828 1_565
Cs0 O69 3.292828 1_555
Cs0 O13 3.397906 1_565
Cs0 O39 3.397906 1_555
Cs1 O61 3.085458 1_555
Cs1 O51 3.085458 1_555
Cs1 O74 3.188647 1_555
Cs1 O48 3.188647 1_555
Cs1 O30 3.300227 1_565
Cs1 O23 3.300227 1_555
Cs1 O0 3.382005 1_465
Cs1 O66 3.382005 1_455
Cs2 O39 3.072885 1_555
Cs2 O13 3.072885 1_555
Cs2 O69 3.187815 1_555
Cs2 O12 3.187815 1_555
Cs2 O44 3.292828 1_555
Cs2 O21 3.292828 1_545
Cs2 O77 3.397906 1_455
Cs2 O27 3.397906 1_445
Cs3 O21 3.085458 1_555
Cs3 O44 3.085458 1_555
Cs3 O27 3.188647 1_455
Cs3 O77 3.188647 1_455
Cs3 O13 3.300227 1_565
Cs3 O39 3.300227 1_555
Cs3 O12 3.382005 1_565
Cs3 O69 3.382005 1_555
Cs4 O23 3.072885 1_555
Cs4 O30 3.072885 1_555
Cs4 O66 3.187815 1_455
Cs4 O0 3.187815 1_455
Cs4 O51 3.292828 1_555
Cs4 O61 3.292828 1_545
Cs4 O48 3.397906 1_555
Cs4 O74 3.397906 1_545
Cs5 O74 3.072885 1_555
Cs5 O48 3.072885 1_555
Cs5 O61 3.187815 1_555
Cs5 O51 3.187815 1_555
Cs5 O0 3.292828 1_565
Cs5 O66 3.292828 1_555
Cs5 O30 3.397906 1_665
Cs5 O23 3.397906 1_655
Cs6 O66 3.085458 1_555
Cs6 O0 3.085458 1_555
Cs6 O23 3.188647 1_655
Cs6 O30 3.188647 1_655
Cs6 O48 3.300227 1_555
Cs6 O74 3.300227 1_545
Cs6 O51 3.382005 1_555
Cs6 O61 3.382005 1_545
Cs7 O69 3.085458 1_555
Cs7 O12 3.085458 1_555
Cs7 O39 3.188647 1_555
Cs7 O13 3.188647 1_555
Cs7 O77 3.300227 1_555
Cs7 O27 3.300227 1_545
Cs7 O44 3.382005 1_655
Cs7 O21 3.382005 1_645
Ca0 O9 2.354089 1_555
Ca0 O11 2.354089 1_555
Ca0 O63 2.405940 1_555
Ca0 O78 2.446077 1_555
Ca0 O3 2.548784 1_555
Ca0 O58 2.548784 1_555
Ca0 O42 2.815752 1_455
Ca0 O54 2.873476 1_565
Ca0 O59 2.873476 1_555
Ca1 O37 2.354089 1_555
Ca1 O24 2.354089 1_555
Ca1 O8 2.405940 1_655
Ca1 O22 2.446077 1_555
Ca1 O36 2.548784 1_555
Ca1 O29 2.548784 1_555
Ca1 O19 2.815752 1_555
Ca1 O70 2.873476 1_545
Ca1 O7 2.873476 1_555
Ca2 O76 2.399809 1_555
Ca2 O50 2.399809 1_555
Ca2 O60 2.455064 1_555
Ca2 O71 2.558999 1_555
Ca2 O25 2.558999 1_555
Ca2 O33 2.656716 1_555
Ca2 O78 2.714186 1_555
Ca2 O49 2.759721 1_455
Ca2 O67 3.038133 1_565
Ca2 O10 3.038133 1_555
Ca3 O34 2.354742 1_555
Ca3 O52 2.382984 1_555
Ca3 O79 2.382984 1_555
Ca3 O40 2.742680 1_555
Ca3 O5 2.794863 1_555
Ca3 O75 2.794863 1_545
Ca3 O20 2.873447 1_556
Ca3 O55 2.873447 1_556
Ca3 O14 2.898485 1_455
Ca3 O62 2.906299 1_555
Ca3 O43 2.906299 1_545
Ca4 O56 2.441144 1_555
Ca4 O31 2.453196 1_555
Ca4 O73 2.453196 1_555
Ca4 O47 2.460988 1_555
Ca4 O35 2.464297 1_565
Ca4 O2 2.464297 1_555
Ca4 O75 2.629445 1_555
Ca4 O5 2.629445 1_555
Ca5 O72 2.354742 1_555
Ca5 O7 2.382984 1_555
Ca5 O70 2.382984 1_555
Ca5 O38 2.742680 1_555
Ca5 O24 2.794863 1_565
Ca5 O37 2.794863 1_555
Ca5 O31 2.873447 1_554
Ca5 O73 2.873447 1_554
Ca5 O41 2.898485 1_655
Ca5 O29 2.906299 1_565
Ca5 O36 2.906299 1_555
Ca6 O19 2.441144 1_555
Ca6 O20 2.453196 1_555
Ca6 O55 2.453196 1_555
Ca6 O8 2.460988 1_555
Ca6 O15 2.464297 1_555
Ca6 O1 2.464297 1_545
Ca6 O37 2.629445 1_555
Ca6 O24 2.629445 1_555
Ca7 O75 2.354089 1_555
Ca7 O5 2.354089 1_555
Ca7 O47 2.405940 1_455
Ca7 O6 2.446077 1_555
Ca7 O43 2.548784 1_555
Ca7 O62 2.548784 1_555
Ca7 O56 2.815752 1_555
Ca7 O79 2.873476 1_555
Ca7 O52 2.873476 1_565
Ca8 O42 2.441144 1_555
Ca8 O53 2.453196 1_555
Ca8 O4 2.453196 1_555
Ca8 O63 2.460988 1_555
Ca8 O64 2.464297 1_565
Ca8 O45 2.464297 1_555
Ca8 O9 2.629445 1_655
Ca8 O11 2.629445 1_655
Ca9 O49 2.354742 1_555
Ca9 O71 2.382984 1_555
Ca9 O25 2.382984 1_555
Ca9 O60 2.742680 1_655
Ca9 O28 2.794863 1_565
Ca9 O16 2.794863 1_555
Ca9 O53 2.873447 1_555
Ca9 O4 2.873447 1_555
Ca9 O33 2.898485 1_555
Ca9 O57 2.906299 1_565
Ca9 O17 2.906299 1_555
Ca10 O64 2.399809 1_555
Ca10 O45 2.399809 1_555
Ca10 O65 2.455064 1_555
Ca10 O54 2.558999 1_555
Ca10 O59 2.558999 1_555
Ca10 O32 2.656716 1_555
Ca10 O68 2.714186 1_555
Ca10 O18 2.759721 1_655
Ca10 O4 3.038133 1_555
Ca10 O53 3.038133 1_545
Ca11 O46 2.441144 1_555
Ca11 O10 2.453196 1_555
Ca11 O67 2.453196 1_555
Ca11 O26 2.460988 1_555
Ca11 O50 2.464297 1_555
Ca11 O76 2.464297 1_545
Ca11 O16 2.629445 1_455
Ca11 O28 2.629445 1_455
Ca12 O18 2.354742 1_555
Ca12 O59 2.382984 1_555
Ca12 O54 2.382984 1_555
Ca12 O65 2.742680 1_455
Ca12 O11 2.794863 1_555
Ca12 O9 2.794863 1_545
Ca12 O10 2.873447 1_555
Ca12 O67 2.873447 1_555
Ca12 O32 2.898485 1_555
Ca12 O58 2.906299 1_555
Ca12 O3 2.906299 1_545
Ca13 O35 2.399809 1_555
Ca13 O2 2.399809 1_555
Ca13 O40 2.455064 1_555
Ca13 O52 2.558999 1_655
Ca13 O79 2.558999 1_655
Ca13 O14 2.656716 1_555
Ca13 O22 2.714186 1_556
Ca13 O34 2.759721 1_555
Ca13 O73 3.038133 1_555
Ca13 O31 3.038133 1_545
Ca14 O15 2.399809 1_555
Ca14 O1 2.399809 1_555
Ca14 O38 2.455064 1_555
Ca14 O7 2.558999 1_455
Ca14 O70 2.558999 1_455
Ca14 O41 2.656716 1_555
Ca14 O6 2.714186 1_554
Ca14 O72 2.759721 1_555
Ca14 O55 3.038133 1_565
Ca14 O20 3.038133 1_555
Ca15 O16 2.354089 1_555
Ca15 O28 2.354089 1_555
Ca15 O26 2.405940 1_555
Ca15 O68 2.446077 1_555
Ca15 O17 2.548784 1_555
Ca15 O57 2.548784 1_555
Ca15 O46 2.815752 1_655
Ca15 O25 2.873476 1_545
Ca15 O71 2.873476 1_555
Nb0 O71 1.966741 1_555
Nb0 O59 1.966741 1_555
Nb0 O4 2.039843 1_555
Nb0 O10 2.039843 1_555
Nb0 O68 2.055905 1_555
Nb0 O78 2.055905 1_555
Nb1 O39 1.795736 1_555
Nb1 O33 1.988135 1_555
Nb1 O17 2.000822 1_555
Nb1 O50 2.050748 1_555
Nb1 O26 2.056814 1_555
Nb1 O71 2.465643 1_555
Nb2 O12 1.794532 1_555
Nb2 O43 2.002619 1_545
Nb2 O56 2.004745 1_545
Nb2 O34 2.035972 1_555
Nb2 O35 2.046454 1_555
Nb2 O75 2.491907 1_545
Nb3 O48 1.795736 1_555
Nb3 O32 1.988135 1_555
Nb3 O58 2.000822 1_555
Nb3 O45 2.050748 1_555
Nb3 O63 2.056814 1_555
Nb3 O59 2.465643 1_555
Nb4 O37 1.966600 1_555
Nb4 O5 1.966600 1_554
Nb4 O73 2.042873 1_554
Nb4 O20 2.042873 1_555
Nb4 O38 2.052868 1_555
Nb4 O40 2.052868 1_554
Nb5 O77 1.795736 1_555
Nb5 O14 1.988135 1_555
Nb5 O62 2.000822 1_655
Nb5 O2 2.050748 1_555
Nb5 O47 2.056814 1_555
Nb5 O79 2.465643 1_655
Nb6 O23 1.795736 1_555
Nb6 O41 1.988135 1_555
Nb6 O36 2.000822 1_455
Nb6 O15 2.050748 1_555
Nb6 O8 2.056814 1_555
Nb6 O7 2.465643 1_455
Nb7 O61 1.794532 1_555
Nb7 O29 2.002619 1_565
Nb7 O19 2.004745 1_565
Nb7 O72 2.035972 1_555
Nb7 O1 2.046454 1_555
Nb7 O24 2.491907 1_565
Nb8 O30 1.795736 1_555
Nb8 O41 1.988135 1_545
Nb8 O29 2.000822 1_455
Nb8 O1 2.050748 1_545
Nb8 O8 2.056814 1_555
Nb8 O70 2.465643 1_445
Nb9 O28 1.966600 1_455
Nb9 O9 1.966600 1_545
Nb9 O67 2.042873 1_555
Nb9 O53 2.042873 1_445
Nb9 O60 2.052868 1_545
Nb9 O65 2.052868 1_455
Nb10 O74 1.795736 1_555
Nb10 O32 1.988135 1_565
Nb10 O3 2.000822 1_555
Nb10 O64 2.050748 1_565
Nb10 O63 2.056814 1_555
Nb10 O54 2.465643 1_565
Nb11 O16 1.966600 1_455
Nb11 O11 1.966600 1_555
Nb11 O4 2.042873 1_455
Nb11 O10 2.042873 1_555
Nb11 O60 2.052868 1_555
Nb11 O65 2.052868 1_455
Nb12 O79 1.966741 1_554
Nb12 O7 1.966741 1_455
Nb12 O20 2.039843 1_555
Nb12 O73 2.039843 1_454
Nb12 O22 2.055905 1_455
Nb12 O6 2.055905 1_554
Nb13 O21 1.794532 1_655
Nb13 O57 2.002619 1_565
Nb13 O46 2.004745 1_665
Nb13 O49 2.035972 1_555
Nb13 O76 2.046454 1_655
Nb13 O28 2.491907 1_565
Nb14 O66 1.794532 1_455
Nb14 O58 2.002619 1_555
Nb14 O42 2.004745 1_455
Nb14 O18 2.035972 1_555
Nb14 O45 2.046454 1_455
Nb14 O11 2.491907 1_555
Nb15 O13 1.795736 1_555
Nb15 O33 1.988135 1_545
Nb15 O57 2.000822 1_555
Nb15 O76 2.050748 1_545
Nb15 O26 2.056814 1_555
Nb15 O25 2.465643 1_545
Nb16 O27 1.795736 1_555
Nb16 O14 1.988135 1_565
Nb16 O43 2.000822 1_655
Nb16 O35 2.050748 1_565
Nb16 O47 2.056814 1_555
Nb16 O52 2.465643 1_665
Nb17 O51 1.794532 1_555
Nb17 O36 2.002619 1_555
Nb17 O19 2.004745 1_555
Nb17 O72 2.035972 1_555
Nb17 O15 2.046454 1_555
Nb17 O37 2.491907 1_555
Nb18 O24 1.966600 1_555
Nb18 O75 1.966600 1_544
Nb18 O31 2.042873 1_544
Nb18 O55 2.042873 1_555
Nb18 O38 2.052868 1_545
Nb18 O40 2.052868 1_554
Nb19 O52 1.966741 1_554
Nb19 O70 1.966741 1_445
Nb19 O55 2.039843 1_555
Nb19 O31 2.039843 1_444
Nb19 O22 2.055905 1_455
Nb19 O6 2.055905 1_544
Nb20 O69 1.794532 1_555
Nb20 O62 2.002619 1_555
Nb20 O56 2.004745 1_555
Nb20 O34 2.035972 1_555
Nb20 O2 2.046454 1_555
Nb20 O5 2.491907 1_555
Nb21 O44 1.794532 1_655
Nb21 O17 2.002619 1_555
Nb21 O46 2.004745 1_655
Nb21 O49 2.035972 1_555
Nb21 O50 2.046454 1_655
Nb21 O16 2.491907 1_555
Nb22 O0 1.794532 1_455
Nb22 O3 2.002619 1_545
Nb22 O42 2.004745 1_445
Nb22 O18 2.035972 1_555
Nb22 O64 2.046454 1_455
Nb22 O9 2.491907 1_545
Nb23 O25 1.966741 1_545
Nb23 O54 1.966741 1_555
Nb23 O53 2.039843 1_545
Nb23 O67 2.039843 1_555
Nb23 O68 2.055905 1_555
Nb23 O78 2.055905 1_545
