# generated using pymatgen
data_Cs2AgSbS4
_symmetry_space_group_name_H-M   'P 1'
_cell_length_a   7.09673100
_cell_length_b   7.54271203
_cell_length_c   11.28954208
_cell_angle_alpha   73.20390707
_cell_angle_beta   75.56293074
_cell_angle_gamma   72.07257340
_symmetry_Int_Tables_number   1
_chemical_formula_structural   Cs2AgSbS4
_chemical_formula_sum   'Cs4 Ag2 Sb2 S8'
_cell_volume   541.84484993
_cell_formula_units_Z   2
loop_
 _symmetry_equiv_pos_site_id
 _symmetry_equiv_pos_as_xyz
  1  'x, y, z'
loop_
 _atom_site_type_symbol
 _atom_site_label
 _atom_site_symmetry_multiplicity
 _atom_site_fract_x
 _atom_site_fract_y
 _atom_site_fract_z
 _atom_site_occupancy
  Cs  Cs0  1  0.71740000  0.75628100  0.59458200  1
  Cs  Cs1  1  0.28260000  0.24371900  0.40541800  1
  Cs  Cs2  1  0.76446600  0.51051700  0.18840200  1
  Cs  Cs3  1  0.23553400  0.48948300  0.81159800  1
  Ag  Ag0  1  0.62115900  0.09110000  0.07243100  1
  Ag  Ag1  1  0.37884100  0.90890000  0.92756900  1
  Sb  Sb0  1  0.86962900  0.13221700  0.76437100  1
  Sb  Sb1  1  0.13037100  0.86778300  0.23562900  1
  S  S0  1  0.26505300  0.63855300  0.11033800  1
  S  S1  1  0.77152200  0.94832600  0.26938500  1
  S  S2  1  0.75476300  0.26152200  0.57190300  1
  S  S3  1  0.73494700  0.36144700  0.88966200  1
  S  S4  1  0.23838700  0.14876700  0.11795900  1
  S  S5  1  0.24523700  0.73847800  0.42809700  1
  S  S6  1  0.76161300  0.85123300  0.88204100  1
  S  S7  1  0.22847800  0.05167400  0.73061500  1
loop_
_geom_bond_atom_site_label_1
_geom_bond_atom_site_label_2
_geom_bond_distance
_geom_bond_site_symmetry_2
Cs0 S1 3.505756 1_555
Cs0 S6 3.623890 1_555
Cs0 S5 3.729359 1_655
Cs0 S7 3.731376 1_565
Cs0 S2 3.737855 1_555
Cs0 S3 3.771898 1_555
Cs0 S2 3.831846 1_565
Cs1 S7 3.505756 1_555
Cs1 S4 3.623890 1_555
Cs1 S2 3.729359 1_455
Cs1 S1 3.731376 1_545
Cs1 S5 3.737855 1_555
Cs1 S0 3.771898 1_555
Cs1 S5 3.831846 1_545
Cs2 S0 3.637193 1_555
Cs2 S6 3.665141 1_554
Cs2 S1 3.689557 1_555
Cs2 S4 3.695958 1_655
Cs2 S0 3.793268 1_655
Cs2 S3 3.920683 1_554
Cs2 S1 4.058483 1_545
Cs2 S2 4.184328 1_555
Cs2 S5 4.204006 1_555
Cs3 S3 3.637193 1_555
Cs3 S4 3.665141 1_556
Cs3 S7 3.689557 1_555
Cs3 S6 3.695958 1_455
Cs3 S3 3.793268 1_455
Cs3 S0 3.920683 1_556
Cs3 S7 4.058483 1_565
Cs3 S5 4.184328 1_555
Cs3 S2 4.204006 1_555
Ag0 S1 2.516788 1_545
Ag0 S4 2.556949 1_555
Ag0 S3 2.611315 1_554
Ag0 S6 2.992636 1_544
Ag0 Cs2 4.066227 1_545
Ag0 Cs2 4.218393 1_555
Ag1 S7 2.516788 1_565
Ag1 S6 2.556949 1_555
Ag1 S0 2.611315 1_556
Ag1 S4 2.992636 1_566
Ag1 Cs3 4.066227 1_565
Ag1 Cs3 4.218393 1_555
S0 Sb1 2.371859 1_555
S1 Sb1 2.386877 1_655
S2 Sb0 2.346512 1_555
S3 Sb0 2.371859 1_555
S4 Sb1 2.389432 1_545
S5 Sb1 2.346512 1_555
S6 Sb0 2.389432 1_565
S7 Sb0 2.386877 1_455
