# generated using pymatgen
data_BiPd2Pb
_symmetry_space_group_name_H-M   'P 1'
_cell_length_a   5.68693911
_cell_length_b   5.68693958
_cell_length_c   10.65967107
_cell_angle_alpha   90.00000000
_cell_angle_beta   90.00000000
_cell_angle_gamma   100.24715401
_symmetry_Int_Tables_number   1
_chemical_formula_structural   BiPd2Pb
_chemical_formula_sum   'Bi4 Pd8 Pb4'
_cell_volume   339.24851623
_cell_formula_units_Z   4
loop_
 _symmetry_equiv_pos_site_id
 _symmetry_equiv_pos_as_xyz
  1  'x, y, z'
loop_
 _atom_site_type_symbol
 _atom_site_label
 _atom_site_symmetry_multiplicity
 _atom_site_fract_x
 _atom_site_fract_y
 _atom_site_fract_z
 _atom_site_occupancy
  Bi  Bi0  1  0.84819246  0.39724457  0.28686244  1
  Bi  Bi1  1  0.15180754  0.60275543  0.78686244  1
  Bi  Bi2  1  0.39724457  0.84819246  0.28686244  1
  Bi  Bi3  1  0.60275543  0.15180754  0.78686244  1
  Pd  Pd0  1  0.86697457  0.37644994  0.56436507  1
  Pd  Pd1  1  0.91706441  0.91706441  0.23351056  1
  Pd  Pd2  1  0.13302543  0.62355006  0.06436507  1
  Pd  Pd3  1  0.67262107  0.67262107  0.73779663  1
  Pd  Pd4  1  0.32737893  0.32737893  0.23779663  1
  Pd  Pd5  1  0.62355006  0.13302543  0.06436507  1
  Pd  Pd6  1  0.08293559  0.08293559  0.73351056  1
  Pd  Pd7  1  0.37644994  0.86697457  0.56436507  1
  Pb  Pb0  1  0.12093406  0.12093406  0.00219357  1
  Pb  Pb1  1  0.36542557  0.36542557  0.50804620  1
  Pb  Pb2  1  0.63457443  0.63457443  0.00804620  1
  Pb  Pb3  1  0.87906594  0.87906594  0.50219357  1
loop_
_geom_bond_atom_site_label_1
_geom_bond_atom_site_label_2
_geom_bond_distance
_geom_bond_site_symmetry_2
Bi0 Pd4 2.871035 1_655
Bi0 Pd1 2.883471 1_545
Bi0 Pd0 2.963134 1_555
Bi0 Pd4 2.963983 1_555
Bi0 Pd1 2.967139 1_555
Bi0 Pd5 2.971884 1_555
Bi0 Pd2 3.027153 1_655
Bi1 Pd3 2.871035 1_455
Bi1 Pd6 2.883471 1_565
Bi1 Pd2 2.963134 1_556
Bi1 Pd3 2.963983 1_555
Bi1 Pd6 2.967139 1_555
Bi1 Pd7 2.971884 1_555
Bi1 Pd0 3.027153 1_455
Bi2 Pd4 2.871035 1_565
Bi2 Pd1 2.883471 1_455
Bi2 Pd7 2.963134 1_555
Bi2 Pd4 2.963983 1_555
Bi2 Pd1 2.967139 1_555
Bi2 Pd2 2.971884 1_555
Bi2 Pd5 3.027153 1_565
Bi3 Pd3 2.871035 1_545
Bi3 Pd6 2.883471 1_655
Bi3 Pd5 2.963134 1_556
Bi3 Pd3 2.963983 1_555
Bi3 Pd6 2.967139 1_555
Bi3 Pd0 2.971884 1_555
Bi3 Pd7 3.027153 1_545
Pd0 Pd3 2.852832 1_555
Pd0 Pd6 2.876615 1_655
Pd1 Pd5 2.876614 1_565
Pd1 Pd2 2.876615 1_655
Pd1 Pd4 2.992436 1_665
Pd2 Pd4 2.852832 1_555
Pd3 Pd7 2.852832 1_555
Pd3 Pd6 2.992436 1_665
Pd4 Pd5 2.852832 1_555
Pd6 Pd7 2.876614 1_545
Pb0 Pd6 2.877445 1_554
Pb0 Pd1 2.879258 1_445
Pb0 Pd5 2.917889 1_455
Pb0 Pd2 2.917889 1_545
Pb0 Pd5 2.923038 1_555
Pb0 Pd2 2.923038 1_555
Pb0 Pd4 2.928091 1_555
Pb1 Pd4 2.894101 1_555
Pb1 Pd0 2.904515 1_555
Pb1 Pd7 2.904516 1_555
Pb1 Pd0 2.909101 1_455
Pb1 Pd7 2.909101 1_545
Pb1 Pd6 3.165388 1_555
Pb1 Pd3 3.319047 1_555
Pb2 Pd3 2.894101 1_554
Pb2 Pd2 2.904515 1_555
Pb2 Pd5 2.904516 1_555
Pb2 Pd2 2.909101 1_655
Pb2 Pd5 2.909101 1_565
Pb2 Pd1 3.165388 1_555
Pb2 Pd4 3.319047 1_555
Pb3 Pd1 2.877445 1_555
Pb3 Pd6 2.879258 1_665
Pb3 Pd7 2.917889 1_655
Pb3 Pd0 2.917889 1_565
Pb3 Pd7 2.923038 1_555
Pb3 Pd0 2.923038 1_555
Pb3 Pd3 2.928091 1_555
