# generated using pymatgen
data_TePt
_symmetry_space_group_name_H-M   'P 1'
_cell_length_a   4.26287968
_cell_length_b   4.26287968
_cell_length_c   5.66177100
_cell_angle_alpha   90.00000000
_cell_angle_beta   90.00000000
_cell_angle_gamma   119.99999498
_symmetry_Int_Tables_number   1
_chemical_formula_structural   TePt
_chemical_formula_sum   'Te2 Pt2'
_cell_volume   89.10233849
_cell_formula_units_Z   2
loop_
 _symmetry_equiv_pos_site_id
 _symmetry_equiv_pos_as_xyz
  1  'x, y, z'
loop_
 _atom_site_type_symbol
 _atom_site_label
 _atom_site_symmetry_multiplicity
 _atom_site_fract_x
 _atom_site_fract_y
 _atom_site_fract_z
 _atom_site_occupancy
  Te  Te0  1  0.33333300  0.66666700  0.25000000  1
  Te  Te1  1  0.66666700  0.33333300  0.75000000  1
  Pt  Pt0  1  0.00000000  0.00000000  0.00000000  1
  Pt  Pt1  1  0.00000000  0.00000000  0.50000000  1
loop_
_geom_bond_atom_site_label_1
_geom_bond_atom_site_label_2
_geom_bond_distance
_geom_bond_site_symmetry_2
Pt0 Pt1 2.830885 1_554
Pt0 Pt1 2.830885 1_555
Pt0 Te1 2.839163 1_454
Pt0 Te0 2.839163 1_545
Pt0 Te1 2.839166 1_554
Pt0 Te0 2.839166 1_445
Pt0 Te0 2.839166 1_555
Pt0 Te1 2.839166 1_444
Pt1 Te1 2.839163 1_455
Pt1 Te0 2.839163 1_545
Pt1 Te0 2.839166 1_445
Pt1 Te0 2.839166 1_555
Pt1 Te1 2.839166 1_445
Pt1 Te1 2.839166 1_555
