# generated using pymatgen
data_Cs3Mo2I9
_symmetry_space_group_name_H-M   'P 1'
_cell_length_a   8.44487451
_cell_length_b   8.44487451
_cell_length_c   20.45873400
_cell_angle_alpha   90.00000000
_cell_angle_beta   90.00000000
_cell_angle_gamma   120.00000396
_symmetry_Int_Tables_number   1
_chemical_formula_structural   Cs3Mo2I9
_chemical_formula_sum   'Cs6 Mo4 I18'
_cell_volume   1263.55971286
_cell_formula_units_Z   2
loop_
 _symmetry_equiv_pos_site_id
 _symmetry_equiv_pos_as_xyz
  1  'x, y, z'
loop_
 _atom_site_type_symbol
 _atom_site_label
 _atom_site_symmetry_multiplicity
 _atom_site_fract_x
 _atom_site_fract_y
 _atom_site_fract_z
 _atom_site_occupancy
  Cs  Cs0  1  0.66666700  0.33333300  0.93422200  1
  Cs  Cs1  1  0.33333300  0.66666700  0.43422200  1
  Cs  Cs2  1  0.00000000  0.00000000  0.25000000  1
  Cs  Cs3  1  0.66666700  0.33333300  0.56577800  1
  Cs  Cs4  1  0.33333300  0.66666700  0.06577800  1
  Cs  Cs5  1  0.00000000  0.00000000  0.75000000  1
  Mo  Mo0  1  0.33333300  0.66666700  0.67698400  1
  Mo  Mo1  1  0.66666700  0.33333300  0.17698400  1
  Mo  Mo2  1  0.66666700  0.33333300  0.32301600  1
  Mo  Mo3  1  0.33333300  0.66666700  0.82301600  1
  I  I0  1  0.17799600  0.82200400  0.90439600  1
  I  I1  1  0.82200400  0.17799600  0.09560400  1
  I  I2  1  0.17799600  0.35599300  0.59560400  1
  I  I3  1  0.82200400  0.64400700  0.09560400  1
  I  I4  1  0.64400700  0.82200400  0.90439600  1
  I  I5  1  0.49511500  0.50488500  0.75000000  1
  I  I6  1  0.35599300  0.17799600  0.09560400  1
  I  I7  1  0.82200400  0.64400700  0.40439600  1
  I  I8  1  0.49511500  0.99023100  0.75000000  1
  I  I9  1  0.35599300  0.17799600  0.40439600  1
  I  I10  1  0.64400700  0.82200400  0.59560400  1
  I  I11  1  0.99023100  0.49511500  0.25000000  1
  I  I12  1  0.17799600  0.35599300  0.90439600  1
  I  I13  1  0.50488500  0.49511500  0.25000000  1
  I  I14  1  0.50488500  0.00976900  0.25000000  1
  I  I15  1  0.82200400  0.17799600  0.40439600  1
  I  I16  1  0.00976900  0.50488500  0.75000000  1
  I  I17  1  0.17799600  0.82200400  0.59560400  1
loop_
_geom_bond_atom_site_label_1
_geom_bond_atom_site_label_2
_geom_bond_distance
_geom_bond_site_symmetry_2
Cs0 I6 4.007930 1_556
Cs0 I3 4.007930 1_556
Cs0 I1 4.007930 1_556
Cs0 I4 4.269510 1_545
Cs0 I12 4.269510 1_655
Cs0 I0 4.269518 1_655
Cs0 I0 4.269518 1_545
Cs0 I4 4.269527 1_555
Cs0 I12 4.269527 1_555
Cs0 I8 4.527847 1_545
Cs0 I16 4.527847 1_655
Cs0 I5 4.527856 1_555
Cs1 I2 4.007930 1_555
Cs1 I10 4.007930 1_555
Cs1 I17 4.007930 1_555
Cs1 I9 4.269510 1_565
Cs1 I7 4.269510 1_455
Cs1 I15 4.269518 1_455
Cs1 I15 4.269518 1_565
Cs1 I9 4.269527 1_555
Cs1 I7 4.269527 1_555
Cs1 I14 4.527847 1_565
Cs1 I11 4.527847 1_455
Cs1 I13 4.527856 1_555
Cs2 I15 4.093421 1_455
Cs2 I1 4.093421 1_455
Cs2 I6 4.093426 1_555
Cs2 I3 4.093426 1_445
Cs2 I9 4.093426 1_555
Cs2 I7 4.093426 1_445
Cs2 I11 4.223037 1_455
Cs2 I14 4.223037 1_455
Cs2 I13 4.223042 1_555
Cs2 I13 4.223042 1_445
Cs2 I14 4.223046 1_555
Cs2 I11 4.223046 1_445
Cs3 I7 4.007930 1_555
Cs3 I9 4.007930 1_555
Cs3 I15 4.007930 1_555
Cs3 I10 4.269510 1_545
Cs3 I2 4.269510 1_655
Cs3 I17 4.269518 1_545
Cs3 I17 4.269518 1_655
Cs3 I10 4.269527 1_555
Cs3 I2 4.269527 1_555
Cs3 I8 4.527847 1_545
Cs3 I16 4.527847 1_655
Cs3 I5 4.527856 1_555
Cs4 I12 4.007930 1_554
Cs4 I4 4.007930 1_554
Cs4 I0 4.007930 1_554
Cs4 I6 4.269510 1_565
Cs4 I3 4.269510 1_455
Cs4 I1 4.269518 1_565
Cs4 I1 4.269518 1_455
Cs4 I6 4.269527 1_555
Cs4 I3 4.269527 1_555
Cs4 I14 4.527847 1_565
Cs4 I11 4.527847 1_455
Cs4 I13 4.527856 1_555
Cs5 I0 4.093421 1_545
Cs5 I17 4.093421 1_545
Cs5 I4 4.093426 1_445
Cs5 I2 4.093426 1_555
Cs5 I10 4.093426 1_445
Cs5 I12 4.093426 1_555
Cs5 I8 4.223037 1_545
Cs5 I16 4.223037 1_545
Cs5 I5 4.223042 1_555
Cs5 I5 4.223042 1_445
Cs5 I16 4.223046 1_555
Cs5 I8 4.223046 1_445
I0 Mo3 2.816819 1_555
I1 Mo1 2.816819 1_555
I2 Mo0 2.816819 1_555
I3 Mo1 2.816819 1_555
I4 Mo3 2.816819 1_555
I5 Mo3 2.798433 1_555
I5 Mo0 2.798433 1_555
I6 Mo1 2.816819 1_555
I7 Mo2 2.816819 1_555
I8 Mo3 2.798433 1_555
I8 Mo0 2.798433 1_555
I9 Mo2 2.816819 1_555
I10 Mo0 2.816819 1_555
I11 Mo2 2.798433 1_555
I11 Mo1 2.798433 1_555
I12 Mo3 2.816819 1_555
I13 Mo2 2.798433 1_555
I13 Mo1 2.798433 1_555
I14 Mo2 2.798433 1_555
I14 Mo1 2.798433 1_555
I15 Mo2 2.816819 1_555
I16 Mo3 2.798433 1_555
I16 Mo0 2.798433 1_555
I17 Mo0 2.816819 1_555
