# generated using pymatgen
data_K2Hg(PSe3)2
_symmetry_space_group_name_H-M   'P 1'
_cell_length_a   7.44604500
_cell_length_b   13.31263700
_cell_length_c   14.59300517
_cell_angle_alpha   69.57044265
_cell_angle_beta   90.00000000
_cell_angle_gamma   90.00000000
_symmetry_Int_Tables_number   1
_chemical_formula_structural   K2Hg(PSe3)2
_chemical_formula_sum   'K8 Hg4 P8 Se24'
_cell_volume   1355.56818986
_cell_formula_units_Z   4
loop_
 _symmetry_equiv_pos_site_id
 _symmetry_equiv_pos_as_xyz
  1  'x, y, z'
loop_
 _atom_site_type_symbol
 _atom_site_label
 _atom_site_symmetry_multiplicity
 _atom_site_fract_x
 _atom_site_fract_y
 _atom_site_fract_z
 _atom_site_occupancy
  K  K0  1  0.55397100  0.40064700  0.21581700  1
  K  K1  1  0.96002900  0.09799500  0.62056800  1
  K  K2  1  0.94602900  0.40064700  0.71581700  1
  K  K3  1  0.03997100  0.90200500  0.37943200  1
  K  K4  1  0.05397100  0.59935300  0.28418300  1
  K  K5  1  0.44602900  0.59935300  0.78418300  1
  K  K6  1  0.46002900  0.90200500  0.87943200  1
  K  K7  1  0.53997100  0.09799500  0.12056800  1
  Hg  Hg0  1  0.60803400  0.74240400  0.52206400  1
  Hg  Hg1  1  0.89196600  0.74240400  0.02206400  1
  Hg  Hg2  1  0.39196600  0.25759600  0.47793600  1
  Hg  Hg3  1  0.10803400  0.25759600  0.97793600  1
  P  P0  1  0.03748400  0.96078400  0.08247600  1
  P  P1  1  0.61208500  0.51846800  0.44054300  1
  P  P2  1  0.11208500  0.48153200  0.05945700  1
  P  P3  1  0.38791500  0.48153200  0.55945700  1
  P  P4  1  0.96251600  0.03921600  0.91752400  1
  P  P5  1  0.46251600  0.96078400  0.58247600  1
  P  P6  1  0.53748400  0.03921600  0.41752400  1
  P  P7  1  0.88791500  0.51846800  0.94054300  1
  Se  Se0  1  0.16864000  0.40222100  0.50199200  1
  Se  Se1  1  0.01104700  0.38305900  0.20141900  1
  Se  Se2  1  0.99071600  0.90995400  0.85451200  1
  Se  Se3  1  0.00928400  0.09004600  0.14548800  1
  Se  Se4  1  0.72022900  0.36003200  0.44554600  1
  Se  Se5  1  0.19806400  0.88827200  0.60208300  1
  Se  Se6  1  0.83136000  0.59777900  0.49800800  1
  Se  Se7  1  0.81545800  0.84285200  0.14785300  1
  Se  Se8  1  0.80193600  0.11172800  0.39791700  1
  Se  Se9  1  0.98895300  0.61694100  0.79858100  1
  Se  Se10  1  0.33136000  0.40222100  0.00199200  1
  Se  Se11  1  0.30193600  0.88827200  0.10208300  1
  Se  Se12  1  0.68454200  0.84285200  0.64785300  1
  Se  Se13  1  0.31545800  0.15714800  0.35214700  1
  Se  Se14  1  0.66864000  0.59777900  0.99800800  1
  Se  Se15  1  0.51104700  0.61694100  0.29858100  1
  Se  Se16  1  0.49071600  0.09004600  0.64548800  1
  Se  Se17  1  0.48895300  0.38305900  0.70141900  1
  Se  Se18  1  0.18454200  0.15714800  0.85214700  1
  Se  Se19  1  0.50928400  0.90995400  0.35451200  1
  Se  Se20  1  0.22022900  0.63996800  0.05445400  1
  Se  Se21  1  0.27977100  0.63996800  0.55445400  1
  Se  Se22  1  0.69806500  0.11172800  0.89791700  1
  Se  Se23  1  0.77977100  0.36003200  0.94554600  1
loop_
_geom_bond_atom_site_label_1
_geom_bond_atom_site_label_2
_geom_bond_distance
_geom_bond_site_symmetry_2
K0 Se1 3.422938 1_655
K0 Se4 3.434867 1_555
K0 Se14 3.449021 1_554
K0 Se15 3.504270 1_555
K0 Se10 3.526885 1_555
K0 Se13 3.621872 1_555
K1 Se5 3.396334 1_645
K1 Se8 3.400208 1_555
K1 Se2 3.465207 1_545
K1 Se16 3.511166 1_555
K1 Se12 3.867718 1_545
K2 Se17 3.422938 1_555
K2 Se23 3.434867 1_555
K2 Se6 3.449021 1_555
K2 Se9 3.504270 1_555
K2 Se0 3.526885 1_655
K2 Se18 3.621872 1_655
K3 Se8 3.396334 1_465
K3 Se5 3.400208 1_555
K3 Se3 3.465207 1_565
K3 Se19 3.511166 1_555
K3 Se13 3.867718 1_565
K4 Se15 3.422938 1_555
K4 Se20 3.434867 1_555
K4 Se0 3.449021 1_555
K4 Se1 3.504270 1_555
K4 Se6 3.526885 1_455
K4 Se7 3.621872 1_455
K5 Se9 3.422938 1_455
K5 Se21 3.434867 1_555
K5 Se10 3.449021 1_556
K5 Se17 3.504270 1_555
K5 Se14 3.526885 1_555
K5 Se12 3.621872 1_555
K6 Se22 3.396338 1_565
K6 Se11 3.400208 1_556
K6 Se16 3.465207 1_565
K6 Se2 3.511166 1_455
K6 Se18 3.867718 1_565
K7 Se11 3.396334 1_545
K7 Se22 3.400211 1_554
K7 Se19 3.465207 1_545
K7 Se3 3.511166 1_655
K7 Se7 3.867718 1_545
Hg0 Se6 2.658428 1_555
Hg0 Se12 2.682521 1_555
Hg0 Se21 2.758170 1_555
Hg0 Se19 2.772543 1_555
Hg1 Se14 2.658428 1_554
Hg1 Se7 2.682521 1_555
Hg1 Se20 2.758170 1_655
Hg1 Se2 2.772543 1_554
Hg2 Se0 2.658428 1_555
Hg2 Se13 2.682521 1_555
Hg2 Se4 2.758170 1_555
Hg2 Se16 2.772543 1_555
Hg3 Se10 2.658428 1_556
Hg3 Se18 2.682521 1_555
Hg3 Se23 2.758170 1_455
Hg3 Se3 2.772543 1_556
P0 Se11 2.167565 1_555
P0 Se3 2.226097 1_565
P0 Se7 2.250005 1_455
P0 P4 2.332713 1_464
P1 Se15 2.163416 1_555
P1 Se4 2.234944 1_555
P1 Se6 2.258750 1_555
P1 P3 2.333146 1_555
P2 Se1 2.163416 1_555
P2 Se20 2.234944 1_555
P2 Se10 2.258750 1_555
P2 P7 2.333146 1_454
P3 Se17 2.163416 1_555
P3 Se21 2.234944 1_555
P3 Se0 2.258750 1_555
P4 Se22 2.167559 1_555
P4 Se2 2.226097 1_545
P4 Se18 2.250005 1_655
P5 Se5 2.167565 1_555
P5 Se16 2.226097 1_565
P5 Se12 2.250005 1_555
P5 P6 2.332713 1_565
P6 Se8 2.167565 1_555
P6 Se19 2.226097 1_545
P6 Se13 2.250005 1_555
P7 Se9 2.163416 1_555
P7 Se23 2.234944 1_555
P7 Se14 2.258750 1_555
