# generated using pymatgen
data_Pr6RuBr10
_symmetry_space_group_name_H-M   'P 1'
_cell_length_a   7.71272809
_cell_length_b   9.46504591
_cell_length_c   9.56569544
_cell_angle_alpha   109.19165473
_cell_angle_beta   96.95365495
_cell_angle_gamma   106.92719593
_symmetry_Int_Tables_number   1
_chemical_formula_structural   Pr6RuBr10
_chemical_formula_sum   'Pr6 Ru1 Br10'
_cell_volume   612.49778923
_cell_formula_units_Z   1
loop_
 _symmetry_equiv_pos_site_id
 _symmetry_equiv_pos_as_xyz
  1  'x, y, z'
loop_
 _atom_site_type_symbol
 _atom_site_label
 _atom_site_symmetry_multiplicity
 _atom_site_fract_x
 _atom_site_fract_y
 _atom_site_fract_z
 _atom_site_occupancy
  Pr  Pr0  1  0.13014349  0.05049801  0.75549116  1
  Pr  Pr1  1  0.62283566  0.84892148  0.80515839  1
  Pr  Pr2  1  0.86985651  0.94950199  0.24450884  1
  Pr  Pr3  1  0.02695602  0.70398465  0.90510989  1
  Pr  Pr4  1  0.37716434  0.15107852  0.19484161  1
  Pr  Pr5  1  0.97304398  0.29601535  0.09489011  1
  Ru  Ru0  1  0.00000000  0.00000000  0.00000000  1
  Br  Br0  1  0.19515486  0.73742930  0.64248270  1
  Br  Br1  1  0.63881697  0.52999095  0.71727156  1
  Br  Br2  1  0.25381606  0.08006026  0.45571352  1
  Br  Br3  1  0.80484514  0.26257070  0.35751730  1
  Br  Br4  1  0.55200083  0.17604501  0.92027082  1
  Br  Br5  1  0.74618394  0.91993974  0.54428648  1
  Br  Br6  1  0.90317369  0.62631898  0.16776109  1
  Br  Br7  1  0.36118303  0.47000905  0.28272844  1
  Br  Br8  1  0.09682631  0.37368102  0.83223891  1
  Br  Br9  1  0.44799917  0.82395499  0.07972918  1
loop_
_geom_bond_atom_site_label_1
_geom_bond_atom_site_label_2
_geom_bond_distance
_geom_bond_site_symmetry_2
Pr0 Ru0 2.780376 1_556
Pr1 Ru0 2.914335 1_666
Pr2 Ru0 2.780376 1_665
Pr3 Ru0 2.725816 1_566
Pr4 Ru0 2.914335 1_555
Pr5 Ru0 2.725816 1_655
Br0 Pr0 3.015136 1_565
Br0 Pr3 3.027732 1_555
Br0 Pr1 3.172739 1_555
Br1 Pr1 2.899608 1_555
Br1 Pr3 2.963719 1_655
Br2 Pr4 2.981494 1_555
Br2 Pr2 3.026129 1_445
Br2 Pr0 3.200868 1_555
Br3 Pr2 3.015136 1_545
Br3 Pr5 3.027732 1_555
Br3 Pr4 3.172739 1_555
Br4 Pr0 3.123826 1_555
Br4 Pr4 3.138878 1_556
Br4 Pr5 3.149184 1_556
Br4 Pr1 3.160195 1_545
Br5 Pr1 2.981494 1_555
Br5 Pr0 3.026129 1_665
Br5 Pr2 3.200868 1_555
Br6 Pr2 2.998178 1_555
Br6 Pr3 3.024993 1_654
Br6 Pr5 3.192105 1_555
Br7 Pr4 2.899608 1_555
Br7 Pr5 2.963719 1_455
Br8 Pr0 2.998178 1_555
Br8 Pr5 3.024993 1_456
Br8 Pr3 3.192105 1_555
Br9 Pr2 3.123826 1_555
Br9 Pr1 3.138878 1_554
Br9 Pr3 3.149184 1_554
Br9 Pr4 3.160195 1_565
