# generated using pymatgen
data_CoBH18Br2(N3F2)2
_symmetry_space_group_name_H-M   'P 1'
_cell_length_a   7.68383400
_cell_length_b   12.43968000
_cell_length_c   13.97418595
_cell_angle_alpha   70.50359327
_cell_angle_beta   90.00000000
_cell_angle_gamma   90.00000000
_symmetry_Int_Tables_number   1
_chemical_formula_structural   CoBH18Br2(N3F2)2
_chemical_formula_sum   'Co4 B4 H72 Br8 N24 F16'
_cell_volume   1259.12804212
_cell_formula_units_Z   4
loop_
 _symmetry_equiv_pos_site_id
 _symmetry_equiv_pos_as_xyz
  1  'x, y, z'
loop_
 _atom_site_type_symbol
 _atom_site_label
 _atom_site_symmetry_multiplicity
 _atom_site_fract_x
 _atom_site_fract_y
 _atom_site_fract_z
 _atom_site_occupancy
  Co  Co0  1  0.00000000  0.00000000  0.00000000  1
  Co  Co1  1  0.00000000  0.50000000  0.50000000  1
  Co  Co2  1  0.50000000  0.50000000  0.00000000  1
  Co  Co3  1  0.50000000  0.00000000  0.50000000  1
  B  B0  1  0.95690600  0.22651300  0.30460000  1
  B  B1  1  0.54309400  0.72651300  0.30460000  1
  B  B2  1  0.45690600  0.27348700  0.69540000  1
  B  B3  1  0.04309400  0.77348700  0.69540000  1
  H  H0  1  0.62411600  0.84265200  0.65550500  1
  H  H1  1  0.15143900  0.10507600  0.83302300  1
  H  H2  1  0.77913300  0.02561700  0.39669400  1
  H  H3  1  0.15441200  0.81611700  0.09487200  1
  H  H4  1  0.47009100  0.68041500  0.04757000  1
  H  H5  1  0.93067200  0.71422500  0.43696600  1
  H  H6  1  0.57385800  0.43167100  0.84991400  1
  H  H7  1  0.08577800  0.33795700  0.43773800  1
  H  H8  1  0.52990900  0.31958500  0.95243000  1
  H  H9  1  0.79740100  0.41976400  0.07440900  1
  H  H10  1  0.65618600  0.31375200  0.09518200  1
  H  H11  1  0.30289200  0.58812300  0.50208000  1
  H  H12  1  0.79975600  0.46777600  0.65420200  1
  H  H13  1  0.20024400  0.53222400  0.34579800  1
  H  H14  1  0.84856100  0.89492400  0.16697700  1
  H  H15  1  0.69571100  0.08755500  0.95449500  1
  H  H16  1  0.70024400  0.96777600  0.65420200  1
  H  H17  1  0.42614200  0.56832900  0.15008600  1
  H  H18  1  0.24477000  0.35904100  0.50683800  1
  H  H19  1  0.22086700  0.97438300  0.60330600  1
  H  H20  1  0.29856400  0.40791700  0.15238900  1
  H  H21  1  0.15618600  0.18624800  0.90481800  1
  H  H22  1  0.81132300  0.40594500  0.39954100  1
  H  H23  1  0.19710800  0.08812300  0.50208000  1
  H  H24  1  0.56932800  0.21422500  0.43696600  1
  H  H25  1  0.65441200  0.68388300  0.90512800  1
  H  H26  1  0.37139800  0.39860800  0.88653200  1
  H  H27  1  0.62860200  0.60139200  0.11346800  1
  H  H28  1  0.65143900  0.39492400  0.16697700  1
  H  H29  1  0.43067200  0.78577500  0.56303400  1
  H  H30  1  0.00405600  0.57371200  0.30281300  1
  H  H31  1  0.75523000  0.64095900  0.49316200  1
  H  H32  1  0.30428900  0.91244500  0.04550500  1
  H  H33  1  0.79856400  0.09208300  0.84761100  1
  H  H34  1  0.50405600  0.92628800  0.69718700  1
  H  H35  1  0.87588400  0.34265200  0.65550500  1
  H  H36  1  0.19571100  0.41244500  0.04550500  1
  H  H37  1  0.99594400  0.42628800  0.69718700  1
  H  H38  1  0.70259900  0.91976400  0.07440900  1
  H  H39  1  0.49594400  0.07371200  0.30281300  1
  H  H40  1  0.92614200  0.93167100  0.84991400  1
  H  H41  1  0.41422200  0.83795700  0.43773800  1
  H  H42  1  0.02990900  0.18041500  0.04757000  1
  H  H43  1  0.74477000  0.14095900  0.49316200  1
  H  H44  1  0.72086700  0.52561700  0.39669400  1
  H  H45  1  0.87139800  0.10139200  0.11346800  1
  H  H46  1  0.70143600  0.59208300  0.84761100  1
  H  H47  1  0.84558800  0.18388300  0.90512800  1
  H  H48  1  0.27913300  0.47438300  0.60330600  1
  H  H49  1  0.34381400  0.68624800  0.90481800  1
  H  H50  1  0.80289200  0.91187700  0.49792000  1
  H  H51  1  0.29975600  0.03222400  0.34579800  1
  H  H52  1  0.34856100  0.60507600  0.83302300  1
  H  H53  1  0.06932800  0.28577500  0.56303400  1
  H  H54  1  0.18867700  0.59405500  0.60045900  1
  H  H55  1  0.69710800  0.41187700  0.49792000  1
  H  H56  1  0.84381400  0.81375200  0.09518200  1
  H  H57  1  0.91422200  0.66204300  0.56226200  1
  H  H58  1  0.34558800  0.31611700  0.09487200  1
  H  H59  1  0.12411600  0.65734800  0.34449500  1
  H  H60  1  0.25523000  0.85904100  0.50683800  1
  H  H61  1  0.37588400  0.15734800  0.34449500  1
  H  H62  1  0.31132300  0.09405500  0.60045900  1
  H  H63  1  0.68867700  0.90594500  0.39954100  1
  H  H64  1  0.20259900  0.58023600  0.92559100  1
  H  H65  1  0.97009100  0.81958500  0.95243000  1
  H  H66  1  0.12860200  0.89860800  0.88653200  1
  H  H67  1  0.29740100  0.08023600  0.92559100  1
  H  H68  1  0.58577800  0.16204300  0.56226200  1
  H  H69  1  0.07385800  0.06832900  0.15008600  1
  H  H70  1  0.80428900  0.58755500  0.95449500  1
  H  H71  1  0.20143600  0.90791700  0.15238900  1
  Br  Br0  1  0.50928000  0.12974600  0.08863000  1
  Br  Br1  1  0.92778100  0.11777400  0.67685600  1
  Br  Br2  1  0.00928000  0.37025400  0.91137000  1
  Br  Br3  1  0.57221900  0.61777400  0.67685600  1
  Br  Br4  1  0.07221900  0.88222600  0.32314400  1
  Br  Br5  1  0.49072000  0.87025400  0.91137000  1
  Br  Br6  1  0.42778100  0.38222600  0.32314400  1
  Br  Br7  1  0.99072000  0.62974600  0.08863000  1
  N  N0  1  0.50451800  0.59708700  0.08713300  1
  N  N1  1  0.68534300  0.59947300  0.91841600  1
  N  N2  1  0.28561500  0.04439800  0.55624600  1
  N  N3  1  0.59062300  0.92689800  0.64081300  1
  N  N4  1  0.38844600  0.85548100  0.50309500  1
  N  N5  1  0.09062300  0.57310200  0.35918700  1
  N  N6  1  0.82961200  0.89691300  0.09342900  1
  N  N7  1  0.81465700  0.09947300  0.91841600  1
  N  N8  1  0.88844600  0.64451900  0.49690500  1
  N  N9  1  0.49548200  0.40291300  0.91286700  1
  N  N10  1  0.00451800  0.90291300  0.91286700  1
  N  N11  1  0.17038800  0.10308700  0.90657100  1
  N  N12  1  0.18534300  0.90052700  0.08158400  1
  N  N13  1  0.40937700  0.07310200  0.35918700  1
  N  N14  1  0.32961200  0.60308700  0.90657100  1
  N  N15  1  0.31465700  0.40052700  0.08158400  1
  N  N16  1  0.78561500  0.45560200  0.44375400  1
  N  N17  1  0.90937700  0.42689800  0.64081300  1
  N  N18  1  0.71438500  0.95560200  0.44375400  1
  N  N19  1  0.67038800  0.39691300  0.09342900  1
  N  N20  1  0.21438500  0.54439800  0.55624600  1
  N  N21  1  0.61155400  0.14451900  0.49690500  1
  N  N22  1  0.11155400  0.35548100  0.50309500  1
  N  N23  1  0.99548200  0.09708700  0.08713300  1
  F  F0  1  0.79784800  0.18149700  0.28285300  1
  F  F1  1  0.57079000  0.83936500  0.30588200  1
  F  F2  1  0.01056100  0.15736200  0.40493800  1
  F  F3  1  0.41571900  0.72564600  0.23348000  1
  F  F4  1  0.51056100  0.34263800  0.59506200  1
  F  F5  1  0.58428100  0.27435400  0.76652000  1
  F  F6  1  0.91571900  0.77435400  0.76652000  1
  F  F7  1  0.20215200  0.81850300  0.71714700  1
  F  F8  1  0.08428100  0.22564600  0.23348000  1
  F  F9  1  0.70215200  0.68149700  0.28285300  1
  F  F10  1  0.42921000  0.16063500  0.69411800  1
  F  F11  1  0.48943900  0.65736200  0.40493800  1
  F  F12  1  0.07079000  0.66063500  0.69411800  1
  F  F13  1  0.29784800  0.31850300  0.71714700  1
  F  F14  1  0.98943900  0.84263800  0.59506200  1
  F  F15  1  0.92921000  0.33936500  0.30588200  1
loop_
_geom_bond_atom_site_label_1
_geom_bond_atom_site_label_2
_geom_bond_distance
_geom_bond_site_symmetry_2
Co0 N12 1.979262 1_545
Co0 N7 1.979262 1_454
Co0 N23 1.980905 1_455
Co0 N10 1.980905 1_544
Co0 N6 1.986349 1_445
Co0 N11 1.986349 1_554
Co1 N8 1.979059 1_455
Co1 N22 1.979059 1_555
Co1 N20 1.981456 1_555
Co1 N16 1.981456 1_455
Co1 N17 1.997357 1_455
Co1 N5 1.997357 1_555
Co2 N1 1.979262 1_554
Co2 N15 1.979262 1_555
Co2 N0 1.980905 1_555
Co2 N9 1.980905 1_554
Co2 N19 1.986349 1_555
Co2 N14 1.986349 1_554
Co3 N21 1.979059 1_555
Co3 N4 1.979059 1_545
Co3 N18 1.981456 1_545
Co3 N2 1.981456 1_555
Co3 N3 1.997357 1_545
Co3 N13 1.997357 1_555
B0 F8 1.397464 1_655
B0 F0 1.418887 1_555
B0 F15 1.425893 1_555
B0 F2 1.439044 1_655
B1 F3 1.397464 1_555
B1 F9 1.418887 1_555
B1 F1 1.425893 1_555
B1 F11 1.439044 1_555
B2 F5 1.397464 1_555
B2 F13 1.418887 1_555
B2 F10 1.425893 1_555
B2 F4 1.439044 1_555
B3 F6 1.397464 1_455
B3 F7 1.418887 1_555
B3 F12 1.425893 1_555
B3 F14 1.439044 1_455
H0 N3 1.031045 1_555
H1 N11 1.030124 1_555
H2 N18 1.027740 1_545
H3 N12 1.031207 1_555
H4 N0 1.033241 1_555
H5 N8 1.036311 1_555
H6 N9 1.026884 1_555
H7 N22 1.026538 1_555
H8 N9 1.033241 1_555
H9 N19 1.026396 1_555
H10 N19 1.032364 1_555
H11 N20 1.027850 1_555
H12 N17 1.032754 1_555
H13 N5 1.032754 1_555
H14 N6 1.030124 1_555
H15 N7 1.030342 1_555
H16 N3 1.032754 1_555
H17 N0 1.026884 1_555
H18 N22 1.026655 1_555
H19 N2 1.027740 1_565
H20 N15 1.031238 1_555
H21 N11 1.032364 1_555
H22 N16 1.028140 1_555
H23 N2 1.027850 1_555
H24 N21 1.036311 1_555
H25 N1 1.031207 1_555
H26 N9 1.029808 1_555
H27 N0 1.029808 1_555
H28 N19 1.030124 1_555
H29 N4 1.036311 1_555
H30 N5 1.029132 1_555
H31 N8 1.026655 1_555
H32 N12 1.030342 1_555
H33 N7 1.031238 1_555
H34 N3 1.029132 1_555
H35 N17 1.031045 1_555
H36 N15 1.030342 1_555
H37 N17 1.029132 1_555
H38 N6 1.026396 1_555
H39 N13 1.029132 1_555
H40 N10 1.026884 1_655
H41 N4 1.026538 1_555
H42 N23 1.033241 1_455
H43 N21 1.026655 1_555
H44 N16 1.027740 1_555
H45 N23 1.029808 1_555
H46 N1 1.031238 1_555
H47 N7 1.031207 1_555
H48 N20 1.027740 1_555
H49 N14 1.032364 1_555
H50 N18 1.027850 1_555
H51 N13 1.032754 1_555
H52 N14 1.030124 1_555
H53 N22 1.036311 1_555
H54 N20 1.028140 1_555
H55 N16 1.027850 1_555
H56 N6 1.032364 1_555
H57 N8 1.026538 1_555
H58 N15 1.031207 1_555
H59 N5 1.031045 1_555
H60 N4 1.026655 1_555
H61 N13 1.031045 1_555
H62 N2 1.028140 1_555
H63 N18 1.028140 1_555
H64 N14 1.026396 1_555
H65 N10 1.033241 1_655
H66 N10 1.029808 1_555
H67 N11 1.026396 1_555
H68 N21 1.026538 1_555
H69 N23 1.026884 1_455
H70 N1 1.030342 1_555
H71 N12 1.031238 1_555
