# generated using pymatgen
data_K2CdPb
_symmetry_space_group_name_H-M   'P 1'
_cell_length_a   6.65877400
_cell_length_b   7.08519618
_cell_length_c   7.08519618
_cell_angle_alpha   103.96515239
_cell_angle_beta   90.00000000
_cell_angle_gamma   90.00000000
_symmetry_Int_Tables_number   1
_chemical_formula_structural   K2CdPb
_chemical_formula_sum   'K4 Cd2 Pb2'
_cell_volume   324.39034921
_cell_formula_units_Z   2
loop_
 _symmetry_equiv_pos_site_id
 _symmetry_equiv_pos_as_xyz
  1  'x, y, z'
loop_
 _atom_site_type_symbol
 _atom_site_label
 _atom_site_symmetry_multiplicity
 _atom_site_fract_x
 _atom_site_fract_y
 _atom_site_fract_z
 _atom_site_occupancy
  K  K0  1  0.25000000  0.67878100  0.02109600  1
  K  K1  1  0.75000000  0.97890400  0.32121900  1
  K  K2  1  0.25000000  0.03813500  0.67722100  1
  K  K3  1  0.75000000  0.32277900  0.96186500  1
  Cd  Cd0  1  0.00000000  0.50808700  0.49191300  1
  Cd  Cd1  1  0.50000000  0.50808700  0.49191300  1
  Pb  Pb0  1  0.25000000  0.22934700  0.22311800  1
  Pb  Pb1  1  0.75000000  0.77688200  0.77065300  1
loop_
_geom_bond_atom_site_label_1
_geom_bond_atom_site_label_2
_geom_bond_distance
_geom_bond_site_symmetry_2
K0 Pb0 3.793244 1_555
K0 Pb0 3.817145 1_565
K0 Pb1 3.913037 1_454
K0 Pb1 3.913037 1_554
K1 Pb1 3.793244 1_555
K1 Pb1 3.817145 1_554
K1 Pb0 3.913037 1_565
K1 Pb0 3.913037 1_665
K2 Pb0 3.777042 1_556
K2 Pb0 3.780344 1_555
K2 Pb1 3.942180 1_445
K2 Pb1 3.942180 1_545
K3 Pb1 3.777042 1_545
K3 Pb1 3.780344 1_555
K3 Pb0 3.942180 1_556
K3 Pb0 3.942180 1_656
Cd0 Pb1 2.912584 1_455
Cd0 Pb0 2.912584 1_555
Cd0 K0 4.012850 1_556
Cd0 K1 4.012850 1_445
Cd0 K2 4.027265 1_565
Cd0 K3 4.027265 1_454
Cd1 Pb1 2.912584 1_555
Cd1 Pb0 2.912584 1_555
Cd1 K0 4.012850 1_556
Cd1 K1 4.012850 1_545
Cd1 K2 4.027265 1_565
Cd1 K3 4.027265 1_554
