# generated using pymatgen
data_SiPb4(ClO)4
_symmetry_space_group_name_H-M   'P 1'
_cell_length_a   15.89886600
_cell_length_b   8.43866900
_cell_length_c   8.91091381
_cell_angle_alpha   87.89646076
_cell_angle_beta   90.00000000
_cell_angle_gamma   90.00000000
_symmetry_Int_Tables_number   1
_chemical_formula_structural   SiPb4(ClO)4
_chemical_formula_sum   'Si4 Pb16 Cl16 O16'
_cell_volume   1194.72949938
_cell_formula_units_Z   4
loop_
 _symmetry_equiv_pos_site_id
 _symmetry_equiv_pos_as_xyz
  1  'x, y, z'
loop_
 _atom_site_type_symbol
 _atom_site_label
 _atom_site_symmetry_multiplicity
 _atom_site_fract_x
 _atom_site_fract_y
 _atom_site_fract_z
 _atom_site_occupancy
  Si  Si0  1  0.35153700  0.64835300  0.36633200  1
  Si  Si1  1  0.14846300  0.14835300  0.36633200  1
  Si  Si2  1  0.64846300  0.35164700  0.63366800  1
  Si  Si3  1  0.85153700  0.85164700  0.63366800  1
  Pb  Pb0  1  0.20207000  0.49585300  0.56962200  1
  Pb  Pb1  1  0.00835600  0.29555500  0.15571800  1
  Pb  Pb2  1  0.50835600  0.20444500  0.84428200  1
  Pb  Pb3  1  0.75633100  0.07049800  0.89246800  1
  Pb  Pb4  1  0.25633100  0.42950200  0.10753200  1
  Pb  Pb5  1  0.03024200  0.15391600  0.65473400  1
  Pb  Pb6  1  0.96975800  0.84608400  0.34526600  1
  Pb  Pb7  1  0.29793000  0.99585300  0.56962200  1
  Pb  Pb8  1  0.70207000  0.00414700  0.43037800  1
  Pb  Pb9  1  0.49164400  0.79555500  0.15571800  1
  Pb  Pb10  1  0.79793000  0.50414700  0.43037800  1
  Pb  Pb11  1  0.99164400  0.70444500  0.84428200  1
  Pb  Pb12  1  0.53024200  0.34608400  0.34526600  1
  Pb  Pb13  1  0.46975800  0.65391600  0.65473400  1
  Pb  Pb14  1  0.74366900  0.57049800  0.89246800  1
  Pb  Pb15  1  0.24366900  0.92950200  0.10753200  1
  Cl  Cl0  1  0.37583300  0.16908100  0.16118300  1
  Cl  Cl1  1  0.60886200  0.11665400  0.12839000  1
  Cl  Cl2  1  0.65366900  0.61953200  0.27281200  1
  Cl  Cl3  1  0.39113800  0.88334600  0.87161000  1
  Cl  Cl4  1  0.15366900  0.88046800  0.72718800  1
  Cl  Cl5  1  0.34633100  0.38046800  0.72718800  1
  Cl  Cl6  1  0.00000000  0.00000000  0.00000000  1
  Cl  Cl7  1  0.10886200  0.38334600  0.87161000  1
  Cl  Cl8  1  0.12416700  0.66908100  0.16118300  1
  Cl  Cl9  1  0.00000000  0.50000000  0.50000000  1
  Cl  Cl10  1  0.87583300  0.33091900  0.83881700  1
  Cl  Cl11  1  0.62416700  0.83091900  0.83881700  1
  Cl  Cl12  1  0.84633100  0.11953200  0.27281200  1
  Cl  Cl13  1  0.89113800  0.61665400  0.12839000  1
  Cl  Cl14  1  0.50000000  0.00000000  0.50000000  1
  Cl  Cl15  1  0.50000000  0.50000000  0.00000000  1
  O  O0  1  0.82879200  0.76904900  0.47398700  1
  O  O1  1  0.95332900  0.89566100  0.62482900  1
  O  O2  1  0.45332900  0.60433900  0.37517100  1
  O  O3  1  0.54667100  0.39566100  0.62482900  1
  O  O4  1  0.21052400  0.99344500  0.35296400  1
  O  O5  1  0.67120800  0.26904900  0.47398700  1
  O  O6  1  0.28947600  0.49344500  0.35296400  1
  O  O7  1  0.34410500  0.76331200  0.21282200  1
  O  O8  1  0.17120800  0.23095100  0.52601300  1
  O  O9  1  0.71052400  0.50655500  0.64703600  1
  O  O10  1  0.04667100  0.10433900  0.37517100  1
  O  O11  1  0.78947600  0.00655500  0.64703600  1
  O  O12  1  0.84410500  0.73668800  0.78717800  1
  O  O13  1  0.15589500  0.26331200  0.21282200  1
  O  O14  1  0.65589500  0.23668800  0.78717800  1
  O  O15  1  0.32879200  0.73095100  0.52601300  1
loop_
_geom_bond_atom_site_label_1
_geom_bond_atom_site_label_2
_geom_bond_distance
_geom_bond_site_symmetry_2
Cl0 Pb4 2.930990 1_555
Cl0 Pb15 2.966847 1_545
Cl1 Pb12 3.052920 1_555
Cl1 Pb2 3.061675 1_554
Cl1 Pb3 3.182531 1_554
Cl1 Pb8 3.186107 1_555
Cl1 Pb9 3.290317 1_545
Cl2 Pb10 2.842470 1_555
Cl2 Pb12 3.079450 1_555
Cl2 Pb9 3.133240 1_555
Cl3 Pb13 3.052920 1_555
Cl3 Pb9 3.061675 1_556
Cl3 Pb15 3.182531 1_556
Cl3 Pb7 3.186107 1_555
Cl3 Pb2 3.290317 1_565
Cl4 Pb7 2.842470 1_555
Cl4 Pb5 3.079450 1_565
Cl4 Pb11 3.133240 1_455
Cl5 Pb0 2.842470 1_555
Cl5 Pb13 3.079450 1_555
Cl5 Pb2 3.133240 1_555
Cl6 Pb1 2.901310 1_555
Cl6 Pb11 2.901310 1_444
Cl7 Pb5 3.052920 1_555
Cl7 Pb1 3.061675 1_556
Cl7 Pb4 3.182531 1_556
Cl7 Pb0 3.186107 1_555
Cl7 Pb11 3.290317 1_455
Cl8 Pb15 2.930990 1_555
Cl8 Pb4 2.966847 1_555
Cl9 Pb5 3.219622 1_555
Cl9 Pb6 3.219622 1_455
Cl9 Pb10 3.271981 1_455
Cl9 Pb0 3.271981 1_555
Cl10 Pb3 2.930990 1_555
Cl10 Pb14 2.966847 1_555
Cl11 Pb14 2.930990 1_555
Cl11 Pb3 2.966847 1_565
Cl12 Pb8 2.842470 1_555
Cl12 Pb6 3.079450 1_545
Cl12 Pb1 3.133240 1_655
Cl13 Pb6 3.052920 1_555
Cl13 Pb11 3.061675 1_554
Cl13 Pb14 3.182531 1_554
Cl13 Pb10 3.186107 1_555
Cl13 Pb1 3.290317 1_655
Cl14 Pb12 3.219622 1_555
Cl14 Pb13 3.219622 1_545
Cl14 Pb7 3.271981 1_545
Cl14 Pb8 3.271981 1_555
Cl15 Pb2 2.901310 1_554
Cl15 Pb9 2.901310 1_555
O0 Si3 1.647442 1_555
O0 Pb10 2.335089 1_555
O0 Pb6 2.589689 1_555
O1 Si3 1.661672 1_555
O1 Pb5 2.521593 1_665
O1 Pb6 2.554536 1_555
O1 Pb11 2.562666 1_555
O2 Si0 1.661672 1_555
O2 Pb12 2.521593 1_555
O2 Pb13 2.554536 1_555
O2 Pb9 2.562666 1_555
O3 Si2 1.661672 1_555
O3 Pb13 2.521593 1_555
O3 Pb12 2.554536 1_555
O3 Pb2 2.562666 1_555
O4 Si1 1.645605 1_565
O4 Pb15 2.332072 1_555
O4 Pb7 2.379440 1_555
O5 Si2 1.647442 1_555
O5 Pb8 2.335089 1_555
O5 Pb12 2.589689 1_555
O6 Si0 1.645605 1_555
O6 Pb4 2.332072 1_555
O6 Pb0 2.379440 1_555
O7 Si0 1.651917 1_555
O7 Pb15 2.302238 1_555
O7 Pb9 2.413528 1_555
O8 Si1 1.647442 1_555
O8 Pb0 2.335089 1_555
O8 Pb5 2.589689 1_555
O9 Si2 1.645605 1_555
O9 Pb14 2.332072 1_555
O9 Pb10 2.379440 1_555
O10 Si1 1.661672 1_555
O10 Pb6 2.521593 1_445
O10 Pb5 2.554536 1_555
O10 Pb1 2.562666 1_555
O11 Si3 1.645605 1_545
O11 Pb3 2.332072 1_555
O11 Pb8 2.379440 1_555
O12 Si3 1.651917 1_555
O12 Pb14 2.302238 1_555
O12 Pb11 2.413528 1_555
O13 Si1 1.651917 1_555
O13 Pb4 2.302238 1_555
O13 Pb1 2.413528 1_555
O14 Si2 1.651917 1_555
O14 Pb3 2.302238 1_555
O14 Pb2 2.413528 1_555
O15 Si0 1.647442 1_555
O15 Pb7 2.335089 1_555
O15 Pb13 2.589689 1_555
