# generated using pymatgen
data_PH9C(NO)4
_symmetry_space_group_name_H-M   'P 1'
_cell_length_a   6.90614100
_cell_length_b   7.24909841
_cell_length_c   7.46517402
_cell_angle_alpha   86.87737030
_cell_angle_beta   81.05247597
_cell_angle_gamma   78.69700875
_symmetry_Int_Tables_number   1
_chemical_formula_structural   PH9C(NO)4
_chemical_formula_sum   'P2 H18 C2 N8 O8'
_cell_volume   361.91179455
_cell_formula_units_Z   2
loop_
 _symmetry_equiv_pos_site_id
 _symmetry_equiv_pos_as_xyz
  1  'x, y, z'
loop_
 _atom_site_type_symbol
 _atom_site_label
 _atom_site_symmetry_multiplicity
 _atom_site_fract_x
 _atom_site_fract_y
 _atom_site_fract_z
 _atom_site_occupancy
  P  P0  1  0.30214500  0.75829200  0.99187000  1
  P  P1  1  0.69785500  0.24170800  0.00813000  1
  H  H0  1  0.94332600  0.77553800  0.26622100  1
  H  H1  1  0.23010700  0.68927100  0.62403700  1
  H  H2  1  0.50000000  0.00000000  0.00000000  1
  H  H3  1  0.69978900  0.78476200  0.71941100  1
  H  H4  1  0.54436000  0.50337100  0.15722400  1
  H  H5  1  0.60734100  0.92994500  0.35166700  1
  H  H6  1  0.39241400  0.29586900  0.64864200  1
  H  H7  1  0.60758600  0.70413100  0.35135800  1
  H  H8  1  0.30021100  0.21523800  0.28058900  1
  H  H9  1  0.39265900  0.07005500  0.64833300  1
  H  H10  1  0.05667400  0.22446200  0.73377900  1
  H  H11  1  0.07947500  0.24616300  0.18224600  1
  H  H12  1  0.76989300  0.31072900  0.37596300  1
  H  H13  1  0.45564000  0.49662900  0.84277600  1
  H  H14  1  0.23390000  0.70716800  0.38611300  1
  H  H15  1  0.92052500  0.75383700  0.81775400  1
  H  H16  1  0.76610000  0.29283200  0.61388700  1
  H  H17  1  0.00000000  0.00000000  0.00000000  1
  C  C0  1  0.95697700  0.74978300  0.54028400  1
  C  C1  1  0.04302300  0.25021700  0.45971600  1
  N  N0  1  0.84393400  0.27113300  0.48462600  1
  N  N1  1  0.14840500  0.24604900  0.29352400  1
  N  N2  1  0.65337400  0.80438200  0.41697900  1
  N  N3  1  0.13705900  0.23363500  0.60638400  1
  N  N4  1  0.34662600  0.19561800  0.58302100  1
  N  N5  1  0.85159500  0.75395100  0.70647600  1
  N  N6  1  0.86294100  0.76636500  0.39361600  1
  N  N7  1  0.15606600  0.72886700  0.51537400  1
  O  O0  1  0.41886400  0.91285200  0.90997500  1
  O  O1  1  0.33092800  0.60433200  0.84057900  1
  O  O2  1  0.58113600  0.08714800  0.09002500  1
  O  O3  1  0.62692700  0.33538900  0.83528400  1
  O  O4  1  0.07243600  0.83591500  0.02222600  1
  O  O5  1  0.92756400  0.16408500  0.97777400  1
  O  O6  1  0.37307300  0.66461100  0.16471600  1
  O  O7  1  0.66907200  0.39566800  0.15942100  1
loop_
_geom_bond_atom_site_label_1
_geom_bond_atom_site_label_2
_geom_bond_distance
_geom_bond_site_symmetry_2
H0 N6 1.029765 1_555
H1 N7 1.023721 1_555
H2 O2 1.211151 1_555
H2 O0 1.211151 1_544
H3 N5 1.018533 1_555
H4 O7 1.044531 1_555
H4 O6 1.487683 1_555
H5 N2 1.026508 1_555
H6 N4 1.022329 1_555
H7 N2 1.022329 1_555
H8 N1 1.018533 1_555
H9 N4 1.026508 1_555
H10 N3 1.029765 1_555
H11 N1 1.019546 1_555
H12 N0 1.023721 1_555
H13 O1 1.044531 1_555
H13 O3 1.487683 1_555
H14 N7 1.032894 1_555
H15 N5 1.019546 1_555
H16 N0 1.032894 1_555
H17 O5 1.209828 1_454
H17 O4 1.209828 1_545
C0 N5 1.335814 1_555
C0 N7 1.337849 1_655
C0 N6 1.345829 1_555
C1 N1 1.335814 1_555
C1 N0 1.337849 1_455
C1 N3 1.345829 1_555
N2 N6 1.404069 1_555
N3 N4 1.404069 1_555
O0 P0 1.550799 1_555
O1 P0 1.594124 1_555
O2 P1 1.550799 1_555
O3 P1 1.528661 1_556
O4 P0 1.561026 1_554
O5 P1 1.561026 1_556
O6 P0 1.528661 1_554
O7 P1 1.594124 1_555
