# generated using pymatgen
data_CeMo5O8
_symmetry_space_group_name_H-M   'P 1'
_cell_length_a   9.39019900
_cell_length_b   8.46972000
_cell_length_c   10.80961526
_cell_angle_alpha   69.19167420
_cell_angle_beta   90.00000000
_cell_angle_gamma   90.00000000
_symmetry_Int_Tables_number   1
_chemical_formula_structural   CeMo5O8
_chemical_formula_sum   'Ce4 Mo20 O32'
_cell_volume   803.63851153
_cell_formula_units_Z   4
loop_
 _symmetry_equiv_pos_site_id
 _symmetry_equiv_pos_as_xyz
  1  'x, y, z'
loop_
 _atom_site_type_symbol
 _atom_site_label
 _atom_site_symmetry_multiplicity
 _atom_site_fract_x
 _atom_site_fract_y
 _atom_site_fract_z
 _atom_site_occupancy
  Ce  Ce0  1  0.47598200  0.71935100  0.50719700  1
  Ce  Ce1  1  0.97598200  0.28064900  0.99280300  1
  Ce  Ce2  1  0.52401800  0.28064900  0.49280300  1
  Ce  Ce3  1  0.02401800  0.71935100  0.00719700  1
  Mo  Mo0  1  0.14726900  0.39608700  0.48223200  1
  Mo  Mo1  1  0.64726900  0.60391300  0.01776800  1
  Mo  Mo2  1  0.85273100  0.60391300  0.51776800  1
  Mo  Mo3  1  0.35273100  0.39608700  0.98223200  1
  Mo  Mo4  1  0.13119200  0.58672300  0.69506400  1
  Mo  Mo5  1  0.63119200  0.41327700  0.80493600  1
  Mo  Mo6  1  0.86880800  0.41327700  0.30493600  1
  Mo  Mo7  1  0.36880800  0.58672300  0.19506400  1
  Mo  Mo8  1  0.12384700  0.80702000  0.36387000  1
  Mo  Mo9  1  0.62384700  0.19298000  0.13613000  1
  Mo  Mo10  1  0.87615300  0.19298000  0.63613000  1
  Mo  Mo11  1  0.37615300  0.80702000  0.86387000  1
  Mo  Mo12  1  0.14902600  0.20432400  0.27800500  1
  Mo  Mo13  1  0.64902600  0.79567600  0.22199500  1
  Mo  Mo14  1  0.85097400  0.79567600  0.72199500  1
  Mo  Mo15  1  0.35097400  0.20432400  0.77800500  1
  Mo  Mo16  1  0.14671800  0.98832600  0.58826600  1
  Mo  Mo17  1  0.64671800  0.01167400  0.91173400  1
  Mo  Mo18  1  0.85328200  0.01167400  0.41173400  1
  Mo  Mo19  1  0.35328200  0.98832600  0.08826600  1
  O  O0  1  0.99021800  0.59012000  0.85307000  1
  O  O1  1  0.49021800  0.40988000  0.64693000  1
  O  O2  1  0.00978200  0.40988000  0.14693000  1
  O  O3  1  0.50978200  0.59012000  0.35307000  1
  O  O4  1  0.24759300  0.98420400  0.91394800  1
  O  O5  1  0.74759300  0.01579600  0.58605200  1
  O  O6  1  0.75240700  0.01579600  0.08605200  1
  O  O7  1  0.25240700  0.98420400  0.41394800  1
  O  O8  1  0.99907300  0.02700600  0.25391300  1
  O  O9  1  0.49907300  0.97299400  0.24608700  1
  O  O10  1  0.00092700  0.97299400  0.74608700  1
  O  O11  1  0.50092700  0.02700600  0.75391300  1
  O  O12  1  0.25477800  0.60676200  0.01193600  1
  O  O13  1  0.75477800  0.39323800  0.48806400  1
  O  O14  1  0.74522200  0.39323800  0.98806400  1
  O  O15  1  0.24522200  0.60676200  0.51193600  1
  O  O16  1  0.22530700  0.19071600  0.09938700  1
  O  O17  1  0.72530700  0.80928400  0.40061300  1
  O  O18  1  0.77469300  0.80928400  0.90061300  1
  O  O19  1  0.27469300  0.19071600  0.59938700  1
  O  O20  1  0.22635500  0.78287300  0.19793500  1
  O  O21  1  0.72635500  0.21712700  0.30206500  1
  O  O22  1  0.77364500  0.21712700  0.80206500  1
  O  O23  1  0.27364500  0.78287300  0.69793500  1
  O  O24  1  0.21302000  0.36944600  0.83628400  1
  O  O25  1  0.71302000  0.63055400  0.66371600  1
  O  O26  1  0.78698000  0.63055400  0.16371600  1
  O  O27  1  0.28698000  0.36944600  0.33628400  1
  O  O28  1  0.99852800  0.58756300  0.36538200  1
  O  O29  1  0.49852800  0.41243700  0.13461800  1
  O  O30  1  0.00147200  0.41243700  0.63461800  1
  O  O31  1  0.50147200  0.58756300  0.86538200  1
loop_
_geom_bond_atom_site_label_1
_geom_bond_atom_site_label_2
_geom_bond_distance
_geom_bond_site_symmetry_2
Ce0 O3 2.317356 1_555
Ce0 O15 2.360645 1_555
Ce0 O1 2.521270 1_555
Ce0 O17 2.601031 1_555
Ce0 O25 2.734678 1_555
Ce0 O9 2.884543 1_555
Ce0 O7 2.974752 1_555
Ce0 O23 2.989743 1_555
Ce1 O2 2.317356 1_656
Ce1 O14 2.360645 1_555
Ce1 O0 2.521270 1_555
Ce1 O16 2.601031 1_656
Ce1 O24 2.734678 1_655
Ce1 O8 2.884543 1_556
Ce1 O6 2.974752 1_556
Ce1 O22 2.989743 1_555
Ce2 O1 2.317356 1_555
Ce2 O13 2.360645 1_555
Ce2 O3 2.521270 1_555
Ce2 O19 2.601031 1_555
Ce2 O27 2.734678 1_555
Ce2 O11 2.884543 1_555
Ce2 O5 2.974752 1_555
Ce2 O21 2.989743 1_555
Ce3 O0 2.317356 1_454
Ce3 O12 2.360645 1_555
Ce3 O2 2.521270 1_555
Ce3 O18 2.601031 1_454
Ce3 O26 2.734678 1_455
Ce3 O10 2.884543 1_554
Ce3 O4 2.974752 1_554
Ce3 O20 2.989743 1_555
Mo0 O19 2.120385 1_555
Mo0 O27 2.124596 1_555
Mo0 O15 2.130757 1_555
Mo0 O28 2.172764 1_455
Mo0 O30 2.183794 1_555
Mo1 O18 2.120385 1_554
Mo1 O26 2.124596 1_555
Mo1 O14 2.130757 1_554
Mo1 O29 2.172764 1_555
Mo1 O31 2.183794 1_554
Mo2 O17 2.120385 1_555
Mo2 O25 2.124596 1_555
Mo2 O13 2.130757 1_555
Mo2 O30 2.172764 1_655
Mo2 O28 2.183794 1_555
Mo3 O16 2.120385 1_556
Mo3 O24 2.124596 1_555
Mo3 O12 2.130757 1_556
Mo3 O31 2.172764 1_555
Mo3 O29 2.183794 1_556
Mo4 O24 2.076392 1_555
Mo4 O23 2.141721 1_555
Mo4 O0 2.169177 1_455
Mo4 O30 2.185176 1_555
Mo4 O15 2.203458 1_555
Mo5 O25 2.076392 1_555
Mo5 O22 2.141721 1_555
Mo5 O1 2.169177 1_555
Mo5 O31 2.185176 1_555
Mo5 O14 2.203458 1_555
Mo6 O26 2.076392 1_555
Mo6 O21 2.141721 1_555
Mo6 O2 2.169177 1_655
Mo6 O28 2.185176 1_555
Mo6 O13 2.203458 1_555
Mo7 O27 2.076392 1_555
Mo7 O20 2.141721 1_555
Mo7 O3 2.169177 1_555
Mo7 O29 2.185176 1_555
Mo7 O12 2.203458 1_555
Mo8 O20 2.108635 1_555
Mo8 O7 2.140010 1_555
Mo8 O8 2.164177 1_465
Mo8 O15 2.192898 1_555
Mo8 O28 2.195082 1_455
Mo9 O21 2.108635 1_555
Mo9 O6 2.140010 1_555
Mo9 O9 2.164177 1_545
Mo9 O14 2.192898 1_554
Mo9 O29 2.195082 1_555
Mo10 O22 2.108635 1_555
Mo10 O5 2.140010 1_555
Mo10 O10 2.164177 1_645
Mo10 O13 2.192898 1_555
Mo10 O30 2.195082 1_655
Mo11 O23 2.108635 1_555
Mo11 O4 2.140010 1_555
Mo11 O11 2.164177 1_565
Mo11 O12 2.192898 1_556
Mo11 O31 2.195082 1_555
Mo12 O16 2.100578 1_555
Mo12 O8 2.141009 1_455
Mo12 O7 2.152006 1_545
Mo12 O27 2.157972 1_555
Mo12 O2 2.235091 1_555
Mo13 O17 2.100578 1_555
Mo13 O9 2.141009 1_555
Mo13 O6 2.152006 1_565
Mo13 O26 2.157972 1_555
Mo13 O3 2.235091 1_555
Mo14 O18 2.100578 1_555
Mo14 O10 2.141009 1_655
Mo14 O5 2.152006 1_565
Mo14 O25 2.157972 1_555
Mo14 O0 2.235091 1_555
Mo15 O19 2.100578 1_555
Mo15 O11 2.141009 1_555
Mo15 O4 2.152006 1_545
Mo15 O24 2.157972 1_555
Mo15 O1 2.235091 1_555
Mo16 O23 2.094830 1_555
Mo16 O19 2.131526 1_565
Mo16 O7 2.140916 1_555
Mo16 O10 2.155000 1_555
Mo17 O22 2.094830 1_555
Mo17 O18 2.131526 1_545
Mo17 O6 2.140916 1_556
Mo17 O11 2.155000 1_555
Mo18 O21 2.094830 1_555
Mo18 O17 2.131526 1_545
Mo18 O5 2.140916 1_555
Mo18 O8 2.155000 1_555
Mo19 O20 2.094830 1_555
Mo19 O16 2.131526 1_565
Mo19 O4 2.140916 1_554
Mo19 O9 2.155000 1_555
