# generated using pymatgen
data_Pb2CO4
_symmetry_space_group_name_H-M   'P 1'
_cell_length_a   5.15487354
_cell_length_b   9.23428997
_cell_length_c   9.29770003
_cell_angle_alpha   90.00000000
_cell_angle_beta   90.00000000
_cell_angle_gamma   90.00000000
_symmetry_Int_Tables_number   1
_chemical_formula_structural   Pb2CO4
_chemical_formula_sum   'Pb8 C4 O16'
_cell_volume   442.58537011
_cell_formula_units_Z   4
loop_
 _symmetry_equiv_pos_site_id
 _symmetry_equiv_pos_as_xyz
  1  'x, y, z'
loop_
 _atom_site_type_symbol
 _atom_site_label
 _atom_site_symmetry_multiplicity
 _atom_site_fract_x
 _atom_site_fract_y
 _atom_site_fract_z
 _atom_site_occupancy
  Pb  Pb0  1  0.01200046  0.54996270  0.58474799  1
  Pb  Pb1  1  0.51200046  0.95003730  0.41525201  1
  Pb  Pb2  1  0.98799954  0.04996270  0.91525201  1
  Pb  Pb3  1  0.48799954  0.45003730  0.08474799  1
  Pb  Pb4  1  0.95844123  0.24388462  0.34564599  1
  Pb  Pb5  1  0.45844123  0.25611538  0.65435401  1
  Pb  Pb6  1  0.04155877  0.74388462  0.15435401  1
  Pb  Pb7  1  0.54155877  0.75611538  0.84564599  1
  C  C0  1  0.99085682  0.49614125  0.90250404  1
  C  C1  1  0.49085682  0.00385875  0.09749596  1
  C  C2  1  0.00914318  0.99614125  0.59749596  1
  C  C3  1  0.50914318  0.50385875  0.40250404  1
  O  O0  1  0.20862226  0.49177635  0.83609324  1
  O  O1  1  0.70862226  0.00822365  0.16390676  1
  O  O2  1  0.79137774  0.99177635  0.66390676  1
  O  O3  1  0.29137774  0.50822365  0.33609324  1
  O  O4  1  0.72448978  0.49296889  0.33231349  1
  O  O5  1  0.22448978  0.00703111  0.66768651  1
  O  O6  1  0.27551022  0.99296889  0.16768651  1
  O  O7  1  0.77551022  0.50703111  0.83231349  1
  O  O8  1  0.01571768  0.98879646  0.45741155  1
  O  O9  1  0.51571768  0.51120354  0.54258845  1
  O  O10  1  0.98428232  0.48879646  0.04258845  1
  O  O11  1  0.48428232  0.01120354  0.95741155  1
  O  O12  1  0.04321011  0.31489442  0.57138418  1
  O  O13  1  0.54321011  0.18510558  0.42861582  1
  O  O14  1  0.95678989  0.81489442  0.92861582  1
  O  O15  1  0.45678989  0.68510558  0.07138418  1
loop_
_geom_bond_atom_site_label_1
_geom_bond_atom_site_label_2
_geom_bond_distance
_geom_bond_site_symmetry_2
C0 O0 1.281802 1_655
C0 O7 1.291627 1_555
C0 O10 1.304668 1_556
C1 O1 1.281802 1_555
C1 O6 1.291627 1_545
C1 O11 1.304668 1_554
C2 O2 1.281802 1_455
C2 O5 1.291627 1_565
C2 O8 1.304668 1_555
C3 O3 1.281802 1_555
C3 O4 1.291627 1_555
C3 O9 1.304668 1_555
O4 Pb4 2.600060 1_555
O5 Pb5 2.600060 1_555
O6 Pb6 2.600060 1_555
O7 Pb7 2.600060 1_555
O8 Pb4 2.591464 1_465
O9 Pb5 2.591464 1_555
O10 Pb6 2.591464 1_655
O11 Pb7 2.591464 1_545
O12 Pb0 2.180186 1_555
O12 Pb4 2.241891 1_455
O12 Pb5 2.339081 1_555
O13 Pb1 2.180186 1_545
O13 Pb5 2.241891 1_555
O13 Pb4 2.339081 1_555
O14 Pb2 2.180186 1_565
O14 Pb6 2.241891 1_656
O14 Pb7 2.339081 1_555
O15 Pb3 2.180186 1_555
O15 Pb7 2.241891 1_554
O15 Pb6 2.339081 1_555
