# generated using pymatgen
data_Sr5Nb4O15
_symmetry_space_group_name_H-M   'P 1'
_cell_length_a   5.74585644
_cell_length_b   5.74585644
_cell_length_c   11.67169612
_cell_angle_alpha   89.34713984
_cell_angle_beta   89.34713984
_cell_angle_gamma   59.88645047
_symmetry_Int_Tables_number   1
_chemical_formula_structural   Sr5Nb4O15
_chemical_formula_sum   'Sr5 Nb4 O15'
_cell_volume   333.30247361
_cell_formula_units_Z   1
loop_
 _symmetry_equiv_pos_site_id
 _symmetry_equiv_pos_as_xyz
  1  'x, y, z'
loop_
 _atom_site_type_symbol
 _atom_site_label
 _atom_site_symmetry_multiplicity
 _atom_site_fract_x
 _atom_site_fract_y
 _atom_site_fract_z
 _atom_site_occupancy
  Sr  Sr0  1  0.33307400  0.33307400  0.21969000  1
  Sr  Sr1  1  0.66692600  0.66692600  0.78031000  1
  Sr  Sr2  1  0.33011400  0.33011400  0.56117500  1
  Sr  Sr3  1  0.66988600  0.66988600  0.43882500  1
  Sr  Sr4  1  0.00000000  0.00000000  0.00000000  1
  Nb  Nb0  1  0.00240200  0.00240200  0.67958700  1
  Nb  Nb1  1  0.99759800  0.99759800  0.32041300  1
  Nb  Nb2  1  0.33532000  0.33532000  0.89427400  1
  Nb  Nb3  1  0.66468000  0.66468000  0.10572600  1
  O  O0  1  0.65787700  0.16384300  0.39278400  1
  O  O1  1  0.67600800  0.17031700  0.80752400  1
  O  O2  1  0.83615700  0.34212300  0.60721600  1
  O  O3  1  0.16610800  0.16610800  0.39045600  1
  O  O4  1  0.17031700  0.67600800  0.80752400  1
  O  O5  1  0.34212300  0.83615700  0.60721600  1
  O  O6  1  0.00000000  0.50000000  0.00000000  1
  O  O7  1  0.83389200  0.83389200  0.60954400  1
  O  O8  1  0.82827600  0.82827600  0.19658400  1
  O  O9  1  0.50000000  0.00000000  0.00000000  1
  O  O10  1  0.82968300  0.32399200  0.19247600  1
  O  O11  1  0.17172400  0.17172400  0.80341600  1
  O  O12  1  0.32399200  0.82968300  0.19247600  1
  O  O13  1  0.16384300  0.65787700  0.39278400  1
  O  O14  1  0.50000000  0.50000000  0.00000000  1
loop_
_geom_bond_atom_site_label_1
_geom_bond_atom_site_label_2
_geom_bond_distance
_geom_bond_site_symmetry_2
Nb0 O7 1.876184 1_445
Nb0 O5 1.883095 1_545
Nb0 O2 1.883095 1_455
Nb0 O4 2.197997 1_545
Nb0 O1 2.197997 1_455
Nb0 O11 2.235132 1_555
Nb1 O3 1.876184 1_665
Nb1 O0 1.883095 1_565
Nb1 O13 1.883095 1_655
Nb1 O12 2.197997 1_655
Nb1 O10 2.197997 1_565
Nb1 O8 2.235132 1_555
Nb2 O11 1.955467 1_555
Nb2 O4 1.967349 1_555
Nb2 O1 1.967349 1_555
Nb2 O14 2.065209 1_556
Nb2 O9 2.067210 1_556
Nb2 O6 2.067210 1_556
Nb3 O8 1.955467 1_555
Nb3 O10 1.967349 1_555
Nb3 O12 1.967349 1_555
Nb3 O14 2.065209 1_555
Nb3 O6 2.067210 1_655
Nb3 O9 2.067210 1_565
O0 Sr2 2.544669 1_555
O0 Sr0 2.594284 1_555
O0 Sr3 2.849302 1_545
O0 Sr3 2.997622 1_555
O1 Sr4 2.772598 1_656
O1 Sr1 2.841842 1_555
O1 Sr1 2.939802 1_545
O2 Sr3 2.544669 1_555
O2 Sr1 2.594284 1_555
O2 Sr2 2.849302 1_655
O2 Sr2 2.997622 1_555
O3 Sr0 2.578701 1_555
O3 Sr2 2.592895 1_555
O3 Sr3 2.923370 1_455
O3 Sr3 2.923370 1_545
O4 Sr4 2.772598 1_566
O4 Sr1 2.841842 1_555
O4 Sr1 2.939802 1_455
O5 Sr3 2.544669 1_555
O5 Sr1 2.594284 1_555
O5 Sr2 2.849302 1_565
O5 Sr2 2.997622 1_555
O6 Sr4 2.872928 1_555
O6 Sr4 2.872928 1_565
O6 Sr1 3.061265 1_454
O6 Sr0 3.061265 1_555
O7 Sr1 2.578701 1_555
O7 Sr3 2.592895 1_555
O7 Sr2 2.923370 1_655
O7 Sr2 2.923370 1_565
O8 Sr4 2.843498 1_665
O8 Sr0 2.881103 1_565
O8 Sr0 2.881103 1_655
O8 Sr3 3.219366 1_555
O9 Sr4 2.872928 1_555
O9 Sr4 2.872928 1_655
O9 Sr1 3.061265 1_544
O9 Sr0 3.061265 1_555
O10 Sr4 2.772598 1_655
O10 Sr0 2.841842 1_555
O10 Sr0 2.939802 1_655
O11 Sr4 2.843498 1_556
O11 Sr1 2.881103 1_455
O11 Sr1 2.881103 1_545
O11 Sr2 3.219366 1_555
O12 Sr4 2.772598 1_565
O12 Sr0 2.841842 1_555
O12 Sr0 2.939802 1_565
O13 Sr2 2.544669 1_555
O13 Sr0 2.594284 1_555
O13 Sr3 2.849302 1_455
O13 Sr3 2.997622 1_555
O14 Sr4 2.867996 1_565
O14 Sr4 2.867996 1_655
O14 Sr1 3.037394 1_554
O14 Sr0 3.037394 1_555
