# generated using pymatgen
data_BaNbTePO8
_symmetry_space_group_name_H-M   'P 1'
_cell_length_a   6.85295000
_cell_length_b   7.69509100
_cell_length_c   27.85648400
_cell_angle_alpha   90.00000000
_cell_angle_beta   90.00000000
_cell_angle_gamma   90.00000000
_symmetry_Int_Tables_number   1
_chemical_formula_structural   BaNbTePO8
_chemical_formula_sum   'Ba8 Nb8 Te8 P8 O64'
_cell_volume   1468.98588497
_cell_formula_units_Z   8
loop_
 _symmetry_equiv_pos_site_id
 _symmetry_equiv_pos_as_xyz
  1  'x, y, z'
loop_
 _atom_site_type_symbol
 _atom_site_label
 _atom_site_symmetry_multiplicity
 _atom_site_fract_x
 _atom_site_fract_y
 _atom_site_fract_z
 _atom_site_occupancy
  Ba  Ba0  1  0.96952900  0.35773000  0.80103900  1
  Ba  Ba1  1  0.46952900  0.14227000  0.19896100  1
  Ba  Ba2  1  0.53047100  0.64227000  0.30103900  1
  Ba  Ba3  1  0.46952900  0.35773000  0.69896100  1
  Ba  Ba4  1  0.96952900  0.14227000  0.30103900  1
  Ba  Ba5  1  0.03047100  0.85773000  0.69896100  1
  Ba  Ba6  1  0.53047100  0.85773000  0.80103900  1
  Ba  Ba7  1  0.03047100  0.64227000  0.19896100  1
  Nb  Nb0  1  0.23628400  0.58444100  0.43534100  1
  Nb  Nb1  1  0.73628400  0.91555900  0.56465900  1
  Nb  Nb2  1  0.76371600  0.08444100  0.06465900  1
  Nb  Nb3  1  0.76371600  0.41555900  0.56465900  1
  Nb  Nb4  1  0.26371600  0.41555900  0.93534100  1
  Nb  Nb5  1  0.26371600  0.08444100  0.43534100  1
  Nb  Nb6  1  0.23628400  0.91555900  0.93534100  1
  Nb  Nb7  1  0.73628400  0.58444100  0.06465900  1
  Te  Te0  1  0.29277200  0.63855900  0.57250700  1
  Te  Te1  1  0.79277200  0.86144100  0.42749300  1
  Te  Te2  1  0.70722800  0.36144100  0.42749300  1
  Te  Te3  1  0.29277200  0.86144100  0.07250700  1
  Te  Te4  1  0.79277200  0.63855900  0.92749300  1
  Te  Te5  1  0.20722800  0.13855900  0.57250700  1
  Te  Te6  1  0.70722800  0.13855900  0.92749300  1
  Te  Te7  1  0.20722800  0.36144100  0.07250700  1
  P  P0  1  0.03497400  0.82288100  0.82312400  1
  P  P1  1  0.46502600  0.32288100  0.82312400  1
  P  P2  1  0.96502600  0.32288100  0.67687600  1
  P  P3  1  0.46502600  0.17711900  0.32312400  1
  P  P4  1  0.53497400  0.82288100  0.67687600  1
  P  P5  1  0.53497400  0.67711900  0.17687600  1
  P  P6  1  0.96502600  0.17711900  0.17687600  1
  P  P7  1  0.03497400  0.67711900  0.32312400  1
  O  O0  1  0.97253200  0.04921800  0.41723500  1
  O  O1  1  0.82114400  0.85065300  0.06843800  1
  O  O2  1  0.19041300  0.88647200  0.86072100  1
  O  O3  1  0.69041300  0.88647200  0.63927900  1
  O  O4  1  0.02746800  0.95078200  0.58276500  1
  O  O5  1  0.14634200  0.71323600  0.78553400  1
  O  O6  1  0.95882400  0.66717400  0.44043500  1
  O  O7  1  0.52746800  0.54921800  0.41723500  1
  O  O8  1  0.67885600  0.14934700  0.56843800  1
  O  O9  1  0.02746800  0.54921800  0.08276500  1
  O  O10  1  0.71650900  0.40694500  0.49653700  1
  O  O11  1  0.67885600  0.35065300  0.06843800  1
  O  O12  1  0.17885600  0.35065300  0.43156200  1
  O  O13  1  0.45882400  0.66717400  0.05956500  1
  O  O14  1  0.45882400  0.83282600  0.55956500  1
  O  O15  1  0.64634200  0.71323600  0.71446600  1
  O  O16  1  0.28349100  0.59305500  0.50346300  1
  O  O17  1  0.87473900  0.70683200  0.84805400  1
  O  O18  1  0.12526100  0.29316800  0.15194600  1
  O  O19  1  0.93124400  0.52331200  0.29859800  1
  O  O20  1  0.43124400  0.52331200  0.20140200  1
  O  O21  1  0.06875600  0.47668800  0.70140200  1
  O  O22  1  0.32114400  0.85065300  0.43156200  1
  O  O23  1  0.19041300  0.61352800  0.36072100  1
  O  O24  1  0.21650900  0.09305500  0.50346300  1
  O  O25  1  0.28349100  0.90694500  0.00346300  1
  O  O26  1  0.80958700  0.38647200  0.63927900  1
  O  O27  1  0.78349100  0.90694500  0.49653700  1
  O  O28  1  0.62526100  0.20683200  0.84805400  1
  O  O29  1  0.04117600  0.16717400  0.05956500  1
  O  O30  1  0.95882400  0.83282600  0.94043500  1
  O  O31  1  0.54117600  0.16717400  0.44043500  1
  O  O32  1  0.35365800  0.28676400  0.28553400  1
  O  O33  1  0.35365800  0.21323600  0.78553400  1
  O  O34  1  0.37473900  0.70683200  0.65194600  1
  O  O35  1  0.69041300  0.61352800  0.13927900  1
  O  O36  1  0.93124400  0.97668800  0.79859800  1
  O  O37  1  0.47253200  0.04921800  0.08276500  1
  O  O38  1  0.06875600  0.02331200  0.20140200  1
  O  O39  1  0.47253200  0.45078200  0.58276500  1
  O  O40  1  0.82114400  0.64934700  0.56843800  1
  O  O41  1  0.43124400  0.97668800  0.70140200  1
  O  O42  1  0.17885600  0.14934700  0.93156200  1
  O  O43  1  0.80958700  0.11352800  0.13927900  1
  O  O44  1  0.37473900  0.79316800  0.15194600  1
  O  O45  1  0.14634200  0.78676400  0.28553400  1
  O  O46  1  0.32114400  0.64934700  0.93156200  1
  O  O47  1  0.71650900  0.09305500  0.99653700  1
  O  O48  1  0.54117600  0.33282600  0.94043500  1
  O  O49  1  0.78349100  0.59305500  0.99653700  1
  O  O50  1  0.56875600  0.02331200  0.29859800  1
  O  O51  1  0.30958700  0.11352800  0.36072100  1
  O  O52  1  0.52746800  0.95078200  0.91723500  1
  O  O53  1  0.64634200  0.78676400  0.21446600  1
  O  O54  1  0.30958700  0.38647200  0.86072100  1
  O  O55  1  0.85365800  0.21323600  0.71446600  1
  O  O56  1  0.12526100  0.20683200  0.65194600  1
  O  O57  1  0.21650900  0.40694500  0.00346300  1
  O  O58  1  0.62526100  0.29316800  0.34805400  1
  O  O59  1  0.85365800  0.28676400  0.21446600  1
  O  O60  1  0.04117600  0.33282600  0.55956500  1
  O  O61  1  0.97253200  0.45078200  0.91723500  1
  O  O62  1  0.87473900  0.79316800  0.34805400  1
  O  O63  1  0.56875600  0.47668800  0.79859800  1
loop_
_geom_bond_atom_site_label_1
_geom_bond_atom_site_label_2
_geom_bond_distance
_geom_bond_site_symmetry_2
Ba0 O55 2.771777 1_555
Ba0 O54 2.871183 1_655
Ba0 O33 2.890065 1_655
Ba0 O63 2.895808 1_555
Ba0 O28 2.937624 1_555
Ba0 O36 2.944653 1_545
Ba0 O21 3.000657 1_655
Ba0 O5 3.023000 1_655
Ba0 O17 3.058399 1_555
Ba0 O61 3.315131 1_555
Ba1 O32 2.771777 1_555
Ba1 O43 2.871183 1_555
Ba1 O59 2.890065 1_555
Ba1 O38 2.895808 1_555
Ba1 O18 2.937624 1_555
Ba1 O20 2.944653 1_555
Ba1 O50 3.000657 1_555
Ba1 O53 3.023000 1_545
Ba1 O44 3.058399 1_545
Ba1 O37 3.315131 1_555
Ba2 O53 2.771777 1_555
Ba2 O23 2.871183 1_555
Ba2 O45 2.890065 1_555
Ba2 O19 2.895808 1_555
Ba2 O62 2.937624 1_555
Ba2 O50 2.944653 1_565
Ba2 O20 3.000657 1_555
Ba2 O32 3.023000 1_555
Ba2 O58 3.058399 1_555
Ba2 O7 3.315131 1_555
Ba3 O33 2.771777 1_555
Ba3 O26 2.871183 1_555
Ba3 O55 2.890065 1_555
Ba3 O21 2.895808 1_555
Ba3 O56 2.937624 1_555
Ba3 O41 2.944653 1_545
Ba3 O63 3.000657 1_555
Ba3 O15 3.023000 1_555
Ba3 O34 3.058399 1_555
Ba3 O39 3.315131 1_555
Ba4 O59 2.771777 1_555
Ba4 O51 2.871183 1_655
Ba4 O32 2.890065 1_655
Ba4 O50 2.895808 1_555
Ba4 O58 2.937624 1_555
Ba4 O19 2.944653 1_555
Ba4 O38 3.000657 1_655
Ba4 O45 3.023000 1_645
Ba4 O62 3.058399 1_545
Ba4 O0 3.315131 1_555
Ba5 O5 2.771777 1_555
Ba5 O3 2.871183 1_455
Ba5 O15 2.890065 1_455
Ba5 O41 2.895808 1_555
Ba5 O34 2.937624 1_555
Ba5 O21 2.944653 1_555
Ba5 O36 3.000657 1_455
Ba5 O55 3.023000 1_465
Ba5 O56 3.058399 1_565
Ba5 O4 3.315131 1_555
Ba6 O15 2.771777 1_555
Ba6 O2 2.871183 1_555
Ba6 O5 2.890065 1_555
Ba6 O36 2.895808 1_555
Ba6 O17 2.937624 1_555
Ba6 O63 2.944653 1_555
Ba6 O41 3.000657 1_555
Ba6 O33 3.023000 1_565
Ba6 O28 3.058399 1_565
Ba6 O52 3.315131 1_555
Ba7 O45 2.771777 1_555
Ba7 O35 2.871183 1_455
Ba7 O53 2.890065 1_455
Ba7 O20 2.895808 1_555
Ba7 O44 2.937624 1_555
Ba7 O38 2.944653 1_565
Ba7 O19 3.000657 1_455
Ba7 O59 3.023000 1_455
Ba7 O18 3.058399 1_555
Ba7 O9 3.315131 1_555
Nb0 O12 1.844570 1_555
Nb0 O16 1.926158 1_555
Nb0 O6 2.010184 1_455
Nb0 O7 2.075994 1_555
Nb0 O23 2.114168 1_555
Nb0 O22 2.132072 1_555
Nb1 O8 1.844570 1_565
Nb1 O27 1.926158 1_555
Nb1 O14 2.010184 1_555
Nb1 O4 2.075994 1_655
Nb1 O3 2.114168 1_555
Nb1 O40 2.132072 1_555
Nb2 O1 1.844570 1_545
Nb2 O47 1.926158 1_554
Nb2 O29 2.010184 1_655
Nb2 O37 2.075994 1_555
Nb2 O43 2.114168 1_555
Nb2 O11 2.132072 1_555
Nb3 O40 1.844570 1_555
Nb3 O10 1.926158 1_555
Nb3 O60 2.010184 1_655
Nb3 O39 2.075994 1_555
Nb3 O26 2.114168 1_555
Nb3 O8 2.132072 1_555
Nb4 O46 1.844570 1_555
Nb4 O57 1.926158 1_556
Nb4 O48 2.010184 1_555
Nb4 O61 2.075994 1_455
Nb4 O54 2.114168 1_555
Nb4 O42 2.132072 1_555
Nb5 O22 1.844570 1_545
Nb5 O24 1.926158 1_555
Nb5 O31 2.010184 1_555
Nb5 O0 2.075994 1_455
Nb5 O51 2.114168 1_555
Nb5 O12 2.132072 1_555
Nb6 O42 1.844570 1_565
Nb6 O25 1.926158 1_556
Nb6 O30 2.010184 1_455
Nb6 O52 2.075994 1_555
Nb6 O2 2.114168 1_555
Nb6 O46 2.132072 1_555
Nb7 O11 1.844570 1_555
Nb7 O49 1.926158 1_554
Nb7 O13 2.010184 1_555
Nb7 O9 2.075994 1_655
Nb7 O35 2.114168 1_555
Nb7 O1 2.132072 1_555
O0 Te1 1.920185 1_545
O2 P0 1.571947 1_555
O3 P4 1.571947 1_555
O4 Te5 1.920185 1_565
O5 P0 1.546228 1_555
O6 Te1 1.913015 1_555
O7 Te2 1.920185 1_555
O9 Te7 1.920185 1_555
O10 Te2 1.955972 1_555
O13 Te3 1.913015 1_555
O14 Te0 1.913015 1_555
O15 P4 1.546228 1_555
O16 Te0 1.955972 1_555
O17 P0 1.576555 1_655
O17 Te4 2.342738 1_555
O18 P6 1.576555 1_455
O18 Te7 2.342738 1_555
O19 P7 1.540423 1_655
O20 P5 1.540423 1_555
O21 P2 1.540423 1_455
O23 P7 1.571947 1_555
O24 Te5 1.955972 1_555
O25 Te3 1.955972 1_555
O26 P2 1.571947 1_555
O27 Te1 1.955972 1_555
O28 P1 1.576555 1_555
O28 Te6 2.342738 1_555
O29 Te7 1.913015 1_555
O30 Te4 1.913015 1_555
O31 Te2 1.913015 1_555
O32 P3 1.546228 1_555
O33 P1 1.546228 1_555
O34 P4 1.576555 1_555
O34 Te0 2.342738 1_555
O35 P5 1.571947 1_555
O36 P0 1.540423 1_655
O37 Te3 1.920185 1_545
O38 P6 1.540423 1_455
O39 Te0 1.920185 1_555
O41 P4 1.540423 1_555
O43 P6 1.571947 1_555
O44 P5 1.576555 1_555
O44 Te3 2.342738 1_555
O45 P7 1.546228 1_555
O47 Te6 1.955972 1_555
O48 Te6 1.913015 1_555
O49 Te4 1.955972 1_555
O50 P3 1.540423 1_555
O51 P3 1.571947 1_555
O52 Te6 1.920185 1_565
O53 P5 1.546228 1_555
O54 P1 1.571947 1_555
O55 P2 1.546228 1_555
O56 P2 1.576555 1_455
O56 Te5 2.342738 1_555
O57 Te7 1.955972 1_555
O58 P3 1.576555 1_555
O58 Te2 2.342738 1_555
O59 P6 1.546228 1_555
O60 Te5 1.913015 1_555
O61 Te4 1.920185 1_555
O62 P7 1.576555 1_655
O62 Te1 2.342738 1_555
O63 P1 1.540423 1_555
