# generated using pymatgen
data_Na5SiP3
_symmetry_space_group_name_H-M   'P 1'
_cell_length_a   7.27467798
_cell_length_b   7.87677910
_cell_length_c   15.16653843
_cell_angle_alpha   59.26283323
_cell_angle_beta   90.00016692
_cell_angle_gamma   90.00004097
_symmetry_Int_Tables_number   1
_chemical_formula_structural   Na5SiP3
_chemical_formula_sum   'Na20 Si4 P12'
_cell_volume   746.97377728
_cell_formula_units_Z   4
loop_
 _symmetry_equiv_pos_site_id
 _symmetry_equiv_pos_as_xyz
  1  'x, y, z'
loop_
 _atom_site_type_symbol
 _atom_site_label
 _atom_site_symmetry_multiplicity
 _atom_site_fract_x
 _atom_site_fract_y
 _atom_site_fract_z
 _atom_site_occupancy
  Na  Na0  1  0.50726635  0.55491487  0.25699261  1
  Na  Na1  1  0.00726603  0.44508372  0.24300718  1
  Na  Na2  1  0.49273388  0.44508408  0.74300775  1
  Na  Na3  1  0.99273438  0.55491655  0.75699322  1
  Na  Na4  1  0.98424637  0.91292327  0.41197054  1
  Na  Na5  1  0.48424812  0.08707535  0.08803024  1
  Na  Na6  1  0.01575348  0.08707613  0.58802982  1
  Na  Na7  1  0.51575251  0.91292454  0.91196997  1
  Na  Na8  1  0.52880232  0.25751247  0.58138399  1
  Na  Na9  1  0.02880288  0.74248780  0.91861629  1
  Na  Na10  1  0.47119794  0.74248730  0.41861641  1
  Na  Na11  1  0.97119747  0.25751238  0.08138364  1
  Na  Na12  1  0.15368036  0.83759301  0.24152846  1
  Na  Na13  1  0.65368075  0.16240748  0.25847164  1
  Na  Na14  1  0.84631963  0.16240712  0.75847162  1
  Na  Na15  1  0.34631956  0.83759231  0.74152846  1
  Na  Na16  1  0.33669062  0.15932096  0.41874291  1
  Na  Na17  1  0.83669127  0.84067900  0.08125643  1
  Na  Na18  1  0.66330941  0.84067928  0.58125729  1
  Na  Na19  1  0.16330918  0.15932197  0.91874335  1
  Si  Si0  1  0.63920708  0.51135943  0.91627844  1
  Si  Si1  1  0.13920668  0.48863965  0.58372277  1
  Si  Si2  1  0.36079225  0.48863885  0.08372224  1
  Si  Si3  1  0.86079297  0.51136146  0.41627692  1
  P  P0  1  0.74132701  0.24084823  0.42050168  1
  P  P1  1  0.24132537  0.75915203  0.07949892  1
  P  P2  1  0.25867460  0.75915094  0.57949938  1
  P  P3  1  0.75867463  0.24084795  0.92050091  1
  P  P4  1  0.76980216  0.79799818  0.27847533  1
  P  P5  1  0.26980226  0.20200241  0.22152409  1
  P  P6  1  0.23019566  0.20200622  0.72152303  1
  P  P7  1  0.73019781  0.79799759  0.77847615  1
  P  P8  1  0.32005204  0.48130164  0.93463357  1
  P  P9  1  0.82005239  0.51869846  0.56536600  1
  P  P10  1  0.67994805  0.51869768  0.06536665  1
  P  P11  1  0.17994753  0.48130169  0.43463407  1
loop_
_geom_bond_atom_site_label_1
_geom_bond_atom_site_label_2
_geom_bond_distance
_geom_bond_site_symmetry_2
Na0 P4 2.838583 1_555
Na0 P0 2.982924 1_555
Na0 P1 3.025010 1_555
Na0 P10 3.309614 1_555
Na0 P11 3.415836 1_555
Na1 P5 2.838579 1_555
Na1 P1 2.982925 1_555
Na1 P0 3.025016 1_455
Na1 P11 3.309624 1_555
Na1 P10 3.415810 1_455
Na2 P6 2.838577 1_555
Na2 P2 2.982915 1_555
Na2 P3 3.025003 1_555
Na2 P8 3.309614 1_555
Na2 P9 3.415835 1_555
Na3 P7 2.838578 1_555
Na3 P3 2.982924 1_555
Na3 P2 3.025015 1_655
Na3 P9 3.309630 1_555
Na3 P8 3.415805 1_655
Na4 P2 2.960160 1_655
Na4 P9 3.016128 1_555
Na4 P4 3.037403 1_555
Na4 P0 3.186390 1_565
Na4 P5 3.334676 1_665
Na5 P3 2.960165 1_554
Na5 P8 3.016142 1_554
Na5 P5 3.037409 1_555
Na5 P1 3.186392 1_545
Na5 P4 3.334645 1_545
Na6 P0 2.960144 1_455
Na6 P11 3.016133 1_555
Na6 P6 3.037396 1_555
Na6 P2 3.186394 1_545
Na6 P7 3.334673 1_445
Na7 P1 2.960164 1_556
Na7 P10 3.016144 1_556
Na7 P7 3.037406 1_555
Na7 P3 3.186387 1_565
Na7 P6 3.334681 1_565
Na8 P9 2.875713 1_555
Na8 P6 2.911608 1_555
Na8 P0 2.947650 1_555
Na8 P11 3.238975 1_555
Na9 P8 2.875714 1_555
Na9 P7 2.911596 1_455
Na9 P1 2.947639 1_556
Na9 P10 3.238988 1_456
Na10 P11 2.875715 1_555
Na10 P4 2.911607 1_555
Na10 P2 2.947652 1_555
Na10 P9 3.238971 1_555
Na11 P10 2.875712 1_555
Na11 P5 2.911597 1_655
Na11 P3 2.947642 1_554
Na11 P8 3.238983 1_654
Na12 P4 2.833936 1_455
Na12 P11 2.843994 1_555
Na12 P5 2.855607 1_565
Na12 P1 2.894701 1_555
Na13 P5 2.833937 1_555
Na13 P10 2.843986 1_555
Na13 P4 2.855610 1_545
Na13 P0 2.894706 1_555
Na14 P6 2.833924 1_655
Na14 P9 2.843994 1_555
Na14 P7 2.855607 1_545
Na14 P3 2.894696 1_555
Na15 P7 2.833935 1_555
Na15 P8 2.843989 1_555
Na15 P6 2.855639 1_565
Na15 P2 2.894693 1_555
Na16 P5 2.875536 1_555
Na16 P2 2.888990 1_545
Na16 P11 2.900907 1_555
Na16 P0 3.015855 1_555
Na17 P4 2.875543 1_555
Na17 P3 2.888980 1_564
Na17 P10 2.900899 1_555
Na17 P1 3.015837 1_655
Na18 P7 2.875536 1_555
Na18 P0 2.888983 1_565
Na18 P9 2.900909 1_555
Na18 P2 3.015844 1_555
Na19 P6 2.875550 1_555
Na19 P1 2.888984 1_546
Na19 P8 2.900889 1_555
Na19 P3 3.015839 1_455
P0 Si3 2.271570 1_555
P1 Si2 2.271583 1_555
P2 Si1 2.271571 1_555
P3 Si0 2.271578 1_555
P4 Si3 2.253936 1_555
P5 Si2 2.253937 1_555
P6 Si1 2.253910 1_555
P7 Si0 2.253949 1_555
P8 Si2 2.310323 1_556
P8 Si0 2.335959 1_555
P9 Si3 2.310331 1_555
P9 Si1 2.335955 1_655
P10 Si0 2.310322 1_554
P10 Si2 2.335966 1_555
P11 Si1 2.310329 1_555
P11 Si3 2.335957 1_455
