# generated using pymatgen
data_K3B12H12Br
_symmetry_space_group_name_H-M   'P 1'
_cell_length_a   6.95620599
_cell_length_b   6.95620599
_cell_length_c   6.95620621
_cell_angle_alpha   94.26620409
_cell_angle_beta   94.26620409
_cell_angle_gamma   94.26619959
_symmetry_Int_Tables_number   1
_chemical_formula_structural   K3B12H12Br
_chemical_formula_sum   'K3 B12 H12 Br1'
_cell_volume   333.65691523
_cell_formula_units_Z   1
loop_
 _symmetry_equiv_pos_site_id
 _symmetry_equiv_pos_as_xyz
  1  'x, y, z'
loop_
 _atom_site_type_symbol
 _atom_site_label
 _atom_site_symmetry_multiplicity
 _atom_site_fract_x
 _atom_site_fract_y
 _atom_site_fract_z
 _atom_site_occupancy
  K  K0  1  0.50000000  0.50000000  0.00000000  1
  K  K1  1  0.50000000  0.00000000  0.50000000  1
  K  K2  1  0.00000000  0.50000000  0.50000000  1
  B  B0  1  0.76317300  0.93704900  0.93704900  1
  B  B1  1  0.93704900  0.93704900  0.76317300  1
  B  B2  1  0.93704900  0.76317300  0.93704900  1
  B  B3  1  0.06295100  0.23682700  0.06295100  1
  B  B4  1  0.23682700  0.06295100  0.06295100  1
  B  B5  1  0.06295100  0.06295100  0.23682700  1
  B  B6  1  0.84065100  0.12280600  0.12280600  1
  B  B7  1  0.12280600  0.12280600  0.84065100  1
  B  B8  1  0.12280600  0.84065100  0.12280600  1
  B  B9  1  0.87719400  0.15934900  0.87719400  1
  B  B10  1  0.15934900  0.87719400  0.87719400  1
  B  B11  1  0.87719400  0.87719400  0.15934900  1
  H  H0  1  0.40488200  0.10847900  0.10847900  1
  H  H1  1  0.10847900  0.10847900  0.40488200  1
  H  H2  1  0.10847900  0.40488200  0.10847900  1
  H  H3  1  0.89152100  0.59511800  0.89152100  1
  H  H4  1  0.59511800  0.89152100  0.89152100  1
  H  H5  1  0.89152100  0.89152100  0.59511800  1
  H  H6  1  0.72877100  0.21150200  0.21150200  1
  H  H7  1  0.21150200  0.21150200  0.72877100  1
  H  H8  1  0.21150200  0.72877100  0.21150200  1
  H  H9  1  0.78849800  0.27122900  0.78849800  1
  H  H10  1  0.27122900  0.78849800  0.78849800  1
  H  H11  1  0.78849800  0.78849800  0.27122900  1
  Br  Br0  1  0.50000000  0.50000000  0.50000000  1
loop_
_geom_bond_atom_site_label_1
_geom_bond_atom_site_label_2
_geom_bond_distance
_geom_bond_site_symmetry_2
B0 H4 1.200887 1_555
B1 H5 1.200887 1_555
B2 H3 1.200887 1_555
B3 H2 1.200887 1_555
B4 H0 1.200887 1_555
B5 H1 1.200887 1_555
B6 H6 1.205521 1_555
B7 H7 1.205522 1_555
B8 H8 1.205521 1_555
B9 H9 1.205521 1_555
B10 H10 1.205521 1_555
B11 H11 1.205522 1_555
H0 K0 2.921750 1_555
H0 K1 2.921750 1_555
H1 K1 2.921750 1_555
H1 K2 2.921750 1_555
H2 K0 2.921750 1_555
H2 K2 2.921750 1_555
H3 K0 2.921750 1_556
H3 K2 2.921750 1_655
H4 K0 2.921750 1_556
H4 K1 2.921750 1_565
H5 K2 2.921750 1_655
H5 K1 2.921750 1_565
H6 K0 3.048052 1_555
H6 K1 3.048052 1_555
H6 K2 3.144638 1_655
H7 K1 3.048052 1_555
H7 K2 3.048052 1_555
H7 K0 3.144638 1_556
H8 K0 3.048052 1_555
H8 K2 3.048052 1_555
H8 K1 3.144638 1_565
H9 K0 3.048052 1_556
H9 K2 3.048052 1_655
H9 K1 3.144638 1_555
H10 K0 3.048052 1_556
H10 K1 3.048052 1_565
H10 K2 3.144638 1_555
H11 K2 3.048052 1_655
H11 K1 3.048052 1_565
H11 K0 3.144638 1_555
Br0 K1 3.478103 1_565
Br0 K2 3.478103 1_555
Br0 K2 3.478103 1_655
Br0 K1 3.478103 1_555
Br0 K0 3.478103 1_555
Br0 K0 3.478103 1_556
