# generated using pymatgen
data_MoO2
_symmetry_space_group_name_H-M   'P 1'
_cell_length_a   4.63882510
_cell_length_b   5.62416929
_cell_length_c   6.37940089
_cell_angle_alpha   124.54421731
_cell_angle_beta   89.99916123
_cell_angle_gamma   90.00215990
_symmetry_Int_Tables_number   1
_chemical_formula_structural   MoO2
_chemical_formula_sum   'Mo4 O8'
_cell_volume   137.09116041
_cell_formula_units_Z   4
loop_
 _symmetry_equiv_pos_site_id
 _symmetry_equiv_pos_as_xyz
  1  'x, y, z'
loop_
 _atom_site_type_symbol
 _atom_site_label
 _atom_site_symmetry_multiplicity
 _atom_site_fract_x
 _atom_site_fract_y
 _atom_site_fract_z
 _atom_site_occupancy
  Mo  Mo0  1  0.49999952  0.50000517  0.25000233  1
  Mo  Mo1  1  0.99999831  0.00000176  0.24999958  1
  Mo  Mo2  1  0.50000048  0.49999483  0.74999767  1
  Mo  Mo3  1  0.00000169  0.99999824  0.75000042  1
  O  O0  1  0.19480810  0.80421806  0.40209704  1
  O  O1  1  0.69478461  0.69570127  0.09786276  1
  O  O2  1  0.80519190  0.19578194  0.59790296  1
  O  O3  1  0.30521539  0.30429873  0.90213724  1
  O  O4  1  0.80518582  0.19577538  0.09789662  1
  O  O5  1  0.30521333  0.30430135  0.40214337  1
  O  O6  1  0.19481418  0.80422462  0.90210338  1
  O  O7  1  0.69478667  0.69569765  0.59785663  1
loop_
_geom_bond_atom_site_label_1
_geom_bond_atom_site_label_2
_geom_bond_distance
_geom_bond_site_symmetry_2
Mo0 O0 1.997629 1_555
Mo0 O4 1.997667 1_555
Mo0 O1 2.044791 1_555
Mo0 O5 2.044835 1_555
Mo0 O7 2.045081 1_555
Mo0 O3 2.045122 1_554
Mo1 O1 1.997917 1_545
Mo1 O5 1.997918 1_655
Mo1 O4 2.045066 1_555
Mo1 O0 2.045079 1_645
Mo1 O6 2.045319 1_644
Mo1 O2 2.045334 1_555
Mo2 O2 1.997629 1_555
Mo2 O6 1.997667 1_555
Mo2 O3 2.044791 1_555
Mo2 O7 2.044831 1_555
Mo2 O5 2.045080 1_555
Mo2 O1 2.045122 1_556
Mo3 O3 1.997917 1_565
Mo3 O7 1.997922 1_455
Mo3 O6 2.045066 1_555
Mo3 O2 2.045079 1_465
Mo3 O4 2.045319 1_466
Mo3 O0 2.045334 1_555
