# generated using pymatgen
data_K3VH2(CO5)2
_symmetry_space_group_name_H-M   'P 1'
_cell_length_a   7.94824200
_cell_length_b   7.27015500
_cell_length_c   17.78189307
_cell_angle_alpha   81.23396586
_cell_angle_beta   90.00000000
_cell_angle_gamma   90.00000000
_symmetry_Int_Tables_number   1
_chemical_formula_structural   K3VH2(CO5)2
_chemical_formula_sum   'K12 V4 H8 C8 O40'
_cell_volume   1015.52319353
_cell_formula_units_Z   4
loop_
 _symmetry_equiv_pos_site_id
 _symmetry_equiv_pos_as_xyz
  1  'x, y, z'
loop_
 _atom_site_type_symbol
 _atom_site_label
 _atom_site_symmetry_multiplicity
 _atom_site_fract_x
 _atom_site_fract_y
 _atom_site_fract_z
 _atom_site_occupancy
  K  K0  1  0.47576800  0.66403800  0.34437700  1
  K  K1  1  0.52423200  0.33596200  0.65562300  1
  K  K2  1  0.44952500  0.20797400  0.07716500  1
  K  K3  1  0.67994500  0.85637900  0.70253900  1
  K  K4  1  0.32005500  0.14362100  0.29746100  1
  K  K5  1  0.97576800  0.33596200  0.15562300  1
  K  K6  1  0.05047500  0.20797400  0.57716500  1
  K  K7  1  0.02423200  0.66403800  0.84437700  1
  K  K8  1  0.17994500  0.14362100  0.79746100  1
  K  K9  1  0.82005500  0.85637900  0.20253900  1
  K  K10  1  0.94952500  0.79202600  0.42283500  1
  K  K11  1  0.55047500  0.79202600  0.92283500  1
  V  V0  1  0.21841900  0.75152100  0.66434200  1
  V  V1  1  0.71841900  0.24847900  0.83565800  1
  V  V2  1  0.78158100  0.24847900  0.33565800  1
  V  V3  1  0.28158100  0.75152100  0.16434200  1
  H  H0  1  0.74666600  0.60764300  0.05204700  1
  H  H1  1  0.75333400  0.60764300  0.55204700  1
  H  H2  1  0.90833100  0.59106800  0.60995400  1
  H  H3  1  0.25333400  0.39235700  0.94795300  1
  H  H4  1  0.59166900  0.59106800  0.10995400  1
  H  H5  1  0.09166900  0.40893200  0.39004600  1
  H  H6  1  0.40833100  0.40893200  0.89004600  1
  H  H7  1  0.24666600  0.39235700  0.44795300  1
  C  C0  1  0.97226300  0.24818600  0.96433100  1
  C  C1  1  0.02773700  0.75181400  0.03566900  1
  C  C2  1  0.30649800  0.84025900  0.50050600  1
  C  C3  1  0.52773700  0.24818600  0.46433100  1
  C  C4  1  0.19350200  0.84025900  0.00050600  1
  C  C5  1  0.69350200  0.15974100  0.49949400  1
  C  C6  1  0.47226300  0.75181400  0.53566900  1
  C  C7  1  0.80649800  0.15974100  0.99949400  1
  O  O0  1  0.03055100  0.70805400  0.10794000  1
  O  O1  1  0.83930800  0.52141900  0.57837600  1
  O  O2  1  0.33726400  0.84510600  0.74335300  1
  O  O3  1  0.68669200  0.14806900  0.95110700  1
  O  O4  1  0.68614300  0.50056900  0.85699900  1
  O  O5  1  0.29321500  0.89165300  0.43065700  1
  O  O6  1  0.33930800  0.47858100  0.92162400  1
  O  O7  1  0.17280800  0.98857200  0.17572400  1
  O  O8  1  0.79321500  0.10834700  0.06934300  1
  O  O9  1  0.18669200  0.85193100  0.54889300  1
  O  O10  1  0.75561600  0.49043700  0.27958400  1
  O  O11  1  0.25561600  0.50956300  0.22041600  1
  O  O12  1  0.32719200  0.98857200  0.67572400  1
  O  O13  1  0.48077500  0.80609400  0.18201000  1
  O  O14  1  0.51922500  0.19390600  0.81799000  1
  O  O15  1  0.81385700  0.50056900  0.35699900  1
  O  O16  1  0.24438400  0.50956300  0.72041600  1
  O  O17  1  0.20678500  0.89165300  0.93065700  1
  O  O18  1  0.31385700  0.49943100  0.14300100  1
  O  O19  1  0.66069200  0.52141900  0.07837600  1
  O  O20  1  0.18614300  0.49943100  0.64300100  1
  O  O21  1  0.09369400  0.27264400  0.00717100  1
  O  O22  1  0.74438400  0.49043700  0.77958400  1
  O  O23  1  0.98077500  0.19390600  0.31799000  1
  O  O24  1  0.53055100  0.29194600  0.39206000  1
  O  O25  1  0.16273600  0.84510600  0.24335300  1
  O  O26  1  0.66273600  0.15489400  0.25664700  1
  O  O27  1  0.59369400  0.72735600  0.49282900  1
  O  O28  1  0.31330800  0.85193100  0.04889300  1
  O  O29  1  0.40630600  0.27264400  0.50717100  1
  O  O30  1  0.82719200  0.01142800  0.82427600  1
  O  O31  1  0.90630600  0.72735600  0.99282900  1
  O  O32  1  0.83726400  0.15489400  0.75664700  1
  O  O33  1  0.81330800  0.14806900  0.45110700  1
  O  O34  1  0.67280800  0.01142800  0.32427600  1
  O  O35  1  0.46944900  0.70805400  0.60794000  1
  O  O36  1  0.96944900  0.29194600  0.89206000  1
  O  O37  1  0.01922500  0.80609400  0.68201000  1
  O  O38  1  0.16069200  0.47858100  0.42162400  1
  O  O39  1  0.70678500  0.10834700  0.56934300  1
loop_
_geom_bond_atom_site_label_1
_geom_bond_atom_site_label_2
_geom_bond_distance
_geom_bond_site_symmetry_2
K0 O24 2.743598 1_555
K0 O5 2.823358 1_555
K0 O10 2.882893 1_555
K0 O27 2.903299 1_555
K0 O13 2.914657 1_555
K0 O15 2.933017 1_555
K0 O34 2.946845 1_565
K0 O38 3.067851 1_555
K0 O11 3.152211 1_555
K0 O25 3.229484 1_555
K1 O35 2.743598 1_555
K1 O39 2.823358 1_555
K1 O16 2.882893 1_555
K1 O29 2.903299 1_555
K1 O14 2.914657 1_555
K1 O20 2.933017 1_555
K1 O12 2.946845 1_545
K1 O1 3.067851 1_555
K1 O22 3.152211 1_555
K1 O32 3.229484 1_555
K2 O18 2.789136 1_555
K2 O19 2.832908 1_555
K2 O8 2.834965 1_555
K2 O28 2.919221 1_545
K2 O3 3.010853 1_554
K2 O21 3.096881 1_555
K2 O7 3.098571 1_545
K2 O13 3.227026 1_545
K3 O35 2.710077 1_555
K3 O37 2.753119 1_655
K3 O39 2.772801 1_565
K3 O32 2.799228 1_565
K3 O2 2.816719 1_555
K3 O30 2.840795 1_565
K3 O22 2.847159 1_555
K3 O12 2.978663 1_555
K4 O24 2.710077 1_555
K4 O23 2.753119 1_455
K4 O5 2.772801 1_545
K4 O25 2.799228 1_545
K4 O26 2.816719 1_555
K4 O7 2.840795 1_545
K4 O11 2.847159 1_555
K4 O34 2.978663 1_555
K5 O0 2.743598 1_655
K5 O8 2.823358 1_555
K5 O11 2.882893 1_655
K5 O21 2.903299 1_655
K5 O23 2.914657 1_555
K5 O18 2.933017 1_655
K5 O7 2.946845 1_645
K5 O19 3.067851 1_555
K5 O10 3.152211 1_555
K5 O26 3.229484 1_555
K6 O20 2.789136 1_555
K6 O1 2.832908 1_455
K6 O39 2.834965 1_455
K6 O9 2.919221 1_545
K6 O33 3.010853 1_455
K6 O29 3.096881 1_555
K6 O12 3.098571 1_545
K6 O37 3.227026 1_545
K7 O36 2.743598 1_455
K7 O17 2.823358 1_555
K7 O22 2.882893 1_455
K7 O31 2.903299 1_455
K7 O37 2.914657 1_555
K7 O4 2.933017 1_455
K7 O30 2.946845 1_465
K7 O6 3.067851 1_555
K7 O16 3.152211 1_555
K7 O2 3.229484 1_555
K8 O36 2.710077 1_455
K8 O14 2.753119 1_555
K8 O17 2.772801 1_545
K8 O2 2.799228 1_545
K8 O32 2.816719 1_455
K8 O12 2.840795 1_545
K8 O16 2.847159 1_555
K8 O30 2.978663 1_455
K9 O0 2.710077 1_655
K9 O13 2.753119 1_555
K9 O8 2.772801 1_565
K9 O26 2.799228 1_565
K9 O25 2.816719 1_655
K9 O34 2.840795 1_565
K9 O10 2.847159 1_555
K9 O7 2.978663 1_655
K10 O15 2.789136 1_555
K10 O38 2.832908 1_655
K10 O5 2.834965 1_655
K10 O33 2.919221 1_565
K10 O9 3.010853 1_655
K10 O27 3.096881 1_555
K10 O34 3.098571 1_565
K10 O23 3.227026 1_565
K11 O4 2.789136 1_555
K11 O6 2.832908 1_555
K11 O17 2.834965 1_555
K11 O3 2.919221 1_565
K11 O28 3.010853 1_556
K11 O31 3.096881 1_555
K11 O30 3.098571 1_565
K11 O14 3.227026 1_565
H0 O19 0.994812 1_555
H0 K11 2.927271 1_554
H1 O1 0.994812 1_555
H1 K10 2.927271 1_555
H2 O1 0.979458 1_555
H3 O6 0.994812 1_555
H3 K2 2.927271 1_556
H4 O19 0.979458 1_555
H5 O38 0.979458 1_555
H6 O6 0.979458 1_555
H7 O38 0.994812 1_555
H7 K6 2.927271 1_555
C0 O21 1.258867 1_656
C0 O36 1.276173 1_555
C1 O31 1.258867 1_454
C1 O0 1.276173 1_555
C2 O5 1.245787 1_555
C2 O9 1.294812 1_555
C3 O29 1.258867 1_555
C3 O24 1.276173 1_555
C4 O17 1.245787 1_554
C4 O28 1.294812 1_555
C5 O39 1.245787 1_555
C5 O33 1.294812 1_555
C6 O27 1.258867 1_555
C6 O35 1.276173 1_555
C7 O8 1.245787 1_556
C7 O3 1.294812 1_555
O0 V3 2.276698 1_555
O2 V0 1.902758 1_555
O3 V1 2.086652 1_555
O4 V1 1.944406 1_555
O7 V3 1.965917 1_555
O9 V0 2.086652 1_555
O10 O15 1.464790 1_555
O10 V2 1.896451 1_555
O11 O18 1.464790 1_555
O11 V3 1.896451 1_555
O12 O2 1.469070 1_555
O12 V0 1.965917 1_555
O13 V3 1.673549 1_555
O14 V1 1.673549 1_555
O15 V2 1.944406 1_555
O16 O20 1.464790 1_555
O16 V0 1.896451 1_555
O18 V3 1.944406 1_555
O20 V0 1.944406 1_555
O22 O4 1.464790 1_555
O22 V1 1.896451 1_555
O23 V2 1.673549 1_555
O24 V2 2.276698 1_555
O25 O7 1.469070 1_555
O25 V3 1.902758 1_555
O26 O34 1.469070 1_555
O26 V2 1.902758 1_555
O28 V3 2.086652 1_555
O30 O32 1.469070 1_555
O30 V1 1.965917 1_555
O32 V1 1.902758 1_555
O33 V2 2.086652 1_555
O34 V2 1.965917 1_555
O35 V0 2.276698 1_555
O36 V1 2.276698 1_555
O37 V0 1.673549 1_555
