# generated using pymatgen
data_SiO2
_symmetry_space_group_name_H-M   'P 1'
_cell_length_a   19.60776200
_cell_length_b   19.60776200
_cell_length_c   7.49645000
_cell_angle_alpha   90.00000000
_cell_angle_beta   90.00000000
_cell_angle_gamma   90.00000000
_symmetry_Int_Tables_number   1
_chemical_formula_structural   SiO2
_chemical_formula_sum   'Si48 O96'
_cell_volume   2882.11763149
_cell_formula_units_Z   48
loop_
 _symmetry_equiv_pos_site_id
 _symmetry_equiv_pos_as_xyz
  1  'x, y, z'
loop_
 _atom_site_type_symbol
 _atom_site_label
 _atom_site_symmetry_multiplicity
 _atom_site_fract_x
 _atom_site_fract_y
 _atom_site_fract_z
 _atom_site_occupancy
  Si  Si0  1  0.24438700  0.14326700  0.40671900  1
  Si  Si1  1  0.41907600  0.69194000  0.03921100  1
  Si  Si2  1  0.19194000  0.08092400  0.03921100  1
  Si  Si3  1  0.14326700  0.24438700  0.59328100  1
  Si  Si4  1  0.69194000  0.41907600  0.96078900  1
  Si  Si5  1  0.85673300  0.75561300  0.59328100  1
  Si  Si6  1  0.74438700  0.35673300  0.59328100  1
  Si  Si7  1  0.92024900  0.69239000  0.24937200  1
  Si  Si8  1  0.80761000  0.42024900  0.24937200  1
  Si  Si9  1  0.64326700  0.74438700  0.40671900  1
  Si  Si10  1  0.07975100  0.69239000  0.24937200  1
  Si  Si11  1  0.19239000  0.57975100  0.24937200  1
  Si  Si12  1  0.08092400  0.80806000  0.96078900  1
  Si  Si13  1  0.57975100  0.19239000  0.75062800  1
  Si  Si14  1  0.42024900  0.19239000  0.75062800  1
  Si  Si15  1  0.25561300  0.64326700  0.59328100  1
  Si  Si16  1  0.57975100  0.80761000  0.75062800  1
  Si  Si17  1  0.75561300  0.85673300  0.40671900  1
  Si  Si18  1  0.35673300  0.74438700  0.40671900  1
  Si  Si19  1  0.08092400  0.19194000  0.96078900  1
  Si  Si20  1  0.80806000  0.91907600  0.03921100  1
  Si  Si21  1  0.35673300  0.25561300  0.40671900  1
  Si  Si22  1  0.30761000  0.07975100  0.75062800  1
  Si  Si23  1  0.42024900  0.80761000  0.75062800  1
  Si  Si24  1  0.30806000  0.58092400  0.96078900  1
  Si  Si25  1  0.75561300  0.14326700  0.40671900  1
  Si  Si26  1  0.64326700  0.25561300  0.40671900  1
  Si  Si27  1  0.58092400  0.30806000  0.03921100  1
  Si  Si28  1  0.91907600  0.80806000  0.96078900  1
  Si  Si29  1  0.74438700  0.64326700  0.59328100  1
  Si  Si30  1  0.24438700  0.85673300  0.40671900  1
  Si  Si31  1  0.41907600  0.30806000  0.03921100  1
  Si  Si32  1  0.30761000  0.92024900  0.75062800  1
  Si  Si33  1  0.69239000  0.07975100  0.75062800  1
  Si  Si34  1  0.58092400  0.69194000  0.03921100  1
  Si  Si35  1  0.30806000  0.41907600  0.96078900  1
  Si  Si36  1  0.91907600  0.19194000  0.96078900  1
  Si  Si37  1  0.80761000  0.57975100  0.24937200  1
  Si  Si38  1  0.80806000  0.08092400  0.03921100  1
  Si  Si39  1  0.14326700  0.75561300  0.59328100  1
  Si  Si40  1  0.69194000  0.58092400  0.96078900  1
  Si  Si41  1  0.92024900  0.30761000  0.24937200  1
  Si  Si42  1  0.25561300  0.35673300  0.59328100  1
  Si  Si43  1  0.19239000  0.42024900  0.24937200  1
  Si  Si44  1  0.69239000  0.92024900  0.75062800  1
  Si  Si45  1  0.85673300  0.24438700  0.59328100  1
  Si  Si46  1  0.07975100  0.30761000  0.24937200  1
  Si  Si47  1  0.19194000  0.91907600  0.03921100  1
  O  O0  1  0.12150600  0.87849400  0.00000000  1
  O  O1  1  0.12150600  0.12150600  0.00000000  1
  O  O2  1  0.00000000  0.67336100  0.22244300  1
  O  O3  1  0.89716800  0.24835900  0.10962000  1
  O  O4  1  0.70236800  0.79763200  0.34246000  1
  O  O5  1  0.32206600  0.67793400  0.50000000  1
  O  O6  1  0.75164100  0.89716800  0.89038000  1
  O  O7  1  0.25164100  0.39716800  0.10962000  1
  O  O8  1  0.71896800  0.90798800  0.54732800  1
  O  O9  1  0.60283200  0.25164100  0.89038000  1
  O  O10  1  0.90107200  0.22066200  0.76364800  1
  O  O11  1  0.12428200  0.37571800  0.21110600  1
  O  O12  1  0.74835900  0.60283200  0.10962000  1
  O  O13  1  0.40798800  0.78103200  0.54732800  1
  O  O14  1  0.50000000  0.17336100  0.77755700  1
  O  O15  1  0.74835900  0.39716800  0.10962000  1
  O  O16  1  0.29763200  0.79763200  0.34246000  1
  O  O17  1  0.50000000  0.82663900  0.77755700  1
  O  O18  1  0.67622700  0.50000000  0.97248100  1
  O  O19  1  0.50000000  0.67622700  0.02751900  1
  O  O20  1  0.40107200  0.72066200  0.23635200  1
  O  O21  1  0.67793400  0.67793400  0.50000000  1
  O  O22  1  0.82206600  0.17793400  0.50000000  1
  O  O23  1  0.59201200  0.78103200  0.54732800  1
  O  O24  1  0.22066200  0.90107200  0.23635200  1
  O  O25  1  0.62428200  0.87571800  0.78889400  1
  O  O26  1  0.09201200  0.28103200  0.45267200  1
  O  O27  1  0.10283200  0.75164100  0.10962000  1
  O  O28  1  0.09201200  0.71896800  0.45267200  1
  O  O29  1  0.17622700  0.00000000  0.02751900  1
  O  O30  1  0.87849400  0.87849400  0.00000000  1
  O  O31  1  0.59201200  0.21896800  0.54732800  1
  O  O32  1  0.24835900  0.10283200  0.89038000  1
  O  O33  1  0.00000000  0.17622700  0.97248100  1
  O  O34  1  0.00000000  0.32663900  0.22244300  1
  O  O35  1  0.77933800  0.90107200  0.23635200  1
  O  O36  1  0.20236800  0.29763200  0.65754000  1
  O  O37  1  0.67793400  0.32206600  0.50000000  1
  O  O38  1  0.87571800  0.62428200  0.21110600  1
  O  O39  1  0.28103200  0.09201200  0.54732800  1
  O  O40  1  0.37849400  0.37849400  0.00000000  1
  O  O41  1  0.37571800  0.12428200  0.78889400  1
  O  O42  1  0.90798800  0.71896800  0.45267200  1
  O  O43  1  0.39716800  0.74835900  0.89038000  1
  O  O44  1  0.09892800  0.22066200  0.76364800  1
  O  O45  1  0.70236800  0.20236800  0.34246000  1
  O  O46  1  0.75164100  0.10283200  0.89038000  1
  O  O47  1  0.62428200  0.12428200  0.78889400  1
  O  O48  1  0.82206600  0.82206600  0.50000000  1
  O  O49  1  0.39716800  0.25164100  0.89038000  1
  O  O50  1  0.82663900  0.50000000  0.22244300  1
  O  O51  1  0.79763200  0.70236800  0.65754000  1
  O  O52  1  0.82377300  0.00000000  0.02751900  1
  O  O53  1  0.24835900  0.89716800  0.89038000  1
  O  O54  1  0.89716800  0.75164100  0.10962000  1
  O  O55  1  0.32206600  0.32206600  0.50000000  1
  O  O56  1  0.37849400  0.62150600  0.00000000  1
  O  O57  1  0.28103200  0.90798800  0.54732800  1
  O  O58  1  0.72066200  0.40107200  0.76364800  1
  O  O59  1  0.17336100  0.50000000  0.22244300  1
  O  O60  1  0.29763200  0.20236800  0.34246000  1
  O  O61  1  0.27933800  0.59892800  0.76364800  1
  O  O62  1  0.67336100  0.00000000  0.77755700  1
  O  O63  1  0.62150600  0.62150600  0.00000000  1
  O  O64  1  0.00000000  0.82377300  0.97248100  1
  O  O65  1  0.72066200  0.59892800  0.76364800  1
  O  O66  1  0.25164100  0.60283200  0.10962000  1
  O  O67  1  0.21896800  0.59201200  0.45267200  1
  O  O68  1  0.77933800  0.09892800  0.23635200  1
  O  O69  1  0.59892800  0.72066200  0.23635200  1
  O  O70  1  0.21896800  0.40798800  0.45267200  1
  O  O71  1  0.50000000  0.32377300  0.02751900  1
  O  O72  1  0.09892800  0.77933800  0.76364800  1
  O  O73  1  0.87571800  0.37571800  0.21110600  1
  O  O74  1  0.59892800  0.27933800  0.23635200  1
  O  O75  1  0.90107200  0.77933800  0.76364800  1
  O  O76  1  0.10283200  0.24835900  0.10962000  1
  O  O77  1  0.17793400  0.17793400  0.50000000  1
  O  O78  1  0.27933800  0.40107200  0.76364800  1
  O  O79  1  0.22066200  0.09892800  0.23635200  1
  O  O80  1  0.87849400  0.12150600  0.00000000  1
  O  O81  1  0.32377300  0.50000000  0.97248100  1
  O  O82  1  0.90798800  0.28103200  0.45267200  1
  O  O83  1  0.62150600  0.37849400  0.00000000  1
  O  O84  1  0.78103200  0.59201200  0.45267200  1
  O  O85  1  0.79763200  0.29763200  0.65754000  1
  O  O86  1  0.32663900  0.00000000  0.77755700  1
  O  O87  1  0.37571800  0.87571800  0.78889400  1
  O  O88  1  0.71896800  0.09201200  0.54732800  1
  O  O89  1  0.40107200  0.27933800  0.23635200  1
  O  O90  1  0.17793400  0.82206600  0.50000000  1
  O  O91  1  0.40798800  0.21896800  0.54732800  1
  O  O92  1  0.60283200  0.74835900  0.89038000  1
  O  O93  1  0.78103200  0.40798800  0.45267200  1
  O  O94  1  0.12428200  0.62428200  0.21110600  1
  O  O95  1  0.20236800  0.70236800  0.65754000  1
loop_
_geom_bond_atom_site_label_1
_geom_bond_atom_site_label_2
_geom_bond_distance
_geom_bond_site_symmetry_2
O0 Si12 1.620767 1_554
O0 Si47 1.620767 1_555
O1 Si2 1.620767 1_555
O1 Si19 1.620767 1_554
O2 Si7 1.620261 1_455
O2 Si10 1.620261 1_555
O3 Si41 1.628529 1_555
O3 Si36 1.628838 1_554
O4 Si17 1.632459 1_555
O4 Si9 1.632459 1_555
O5 Si15 1.627523 1_555
O5 Si18 1.627523 1_555
O6 Si44 1.628529 1_555
O6 Si20 1.628838 1_556
O7 Si43 1.628529 1_555
O7 Si35 1.628838 1_554
O8 Si17 1.623994 1_555
O8 Si44 1.628509 1_555
O9 Si13 1.628529 1_555
O9 Si27 1.628838 1_556
O10 Si45 1.613489 1_555
O10 Si36 1.620448 1_555
O11 Si46 1.621141 1_555
O11 Si43 1.621141 1_555
O12 Si37 1.628529 1_555
O12 Si40 1.628838 1_554
O13 Si18 1.623994 1_555
O13 Si23 1.628509 1_555
O14 Si14 1.620261 1_555
O14 Si13 1.620261 1_555
O15 Si8 1.628529 1_555
O15 Si4 1.628838 1_554
O16 Si18 1.632459 1_555
O16 Si30 1.632459 1_555
O17 Si16 1.620261 1_555
O17 Si23 1.620261 1_555
O18 Si40 1.618748 1_555
O18 Si4 1.618748 1_555
O19 Si1 1.618748 1_555
O19 Si34 1.618748 1_555
O20 Si18 1.613489 1_555
O20 Si1 1.620448 1_555
O21 Si29 1.627523 1_555
O21 Si9 1.627523 1_555
O22 Si25 1.627523 1_555
O22 Si45 1.627523 1_555
O23 Si9 1.623994 1_555
O23 Si16 1.628509 1_555
O24 Si30 1.613489 1_555
O24 Si47 1.620448 1_555
O25 Si16 1.621141 1_555
O25 Si44 1.621141 1_555
O26 Si3 1.623994 1_555
O26 Si46 1.628509 1_555
O27 Si10 1.628529 1_555
O27 Si12 1.628838 1_554
O28 Si39 1.623994 1_555
O28 Si10 1.628509 1_555
O29 Si47 1.618748 1_545
O29 Si2 1.618748 1_555
O30 Si20 1.620767 1_555
O30 Si28 1.620767 1_554
O31 Si26 1.623994 1_555
O31 Si13 1.628509 1_555
O32 Si22 1.628529 1_555
O32 Si2 1.628838 1_556
O33 Si19 1.618748 1_555
O33 Si36 1.618748 1_455
O34 Si46 1.620261 1_555
O34 Si41 1.620261 1_455
O35 Si17 1.613489 1_555
O35 Si20 1.620448 1_555
O36 Si42 1.632459 1_555
O36 Si3 1.632459 1_555
O37 Si26 1.627523 1_555
O37 Si6 1.627523 1_555
O38 Si37 1.621141 1_555
O38 Si7 1.621141 1_555
O39 Si0 1.623994 1_555
O39 Si22 1.628509 1_555
O40 Si31 1.620767 1_555
O40 Si35 1.620767 1_554
O41 Si22 1.621141 1_555
O41 Si14 1.621141 1_555
O42 Si5 1.623994 1_555
O42 Si7 1.628509 1_555
O43 Si23 1.628529 1_555
O43 Si1 1.628838 1_556
O44 Si3 1.613489 1_555
O44 Si19 1.620448 1_555
O45 Si25 1.632459 1_555
O45 Si26 1.632459 1_555
O46 Si33 1.628529 1_555
O46 Si38 1.628838 1_556
O47 Si33 1.621141 1_555
O47 Si13 1.621141 1_555
O48 Si5 1.627523 1_555
O48 Si17 1.627523 1_555
O49 Si14 1.628529 1_555
O49 Si31 1.628838 1_556
O50 Si8 1.620261 1_555
O50 Si37 1.620261 1_555
O51 Si5 1.632459 1_555
O51 Si29 1.632459 1_555
O52 Si38 1.618748 1_555
O52 Si20 1.618748 1_545
O53 Si32 1.628529 1_555
O53 Si47 1.628838 1_556
O54 Si7 1.628529 1_555
O54 Si28 1.628838 1_554
O55 Si42 1.627523 1_555
O55 Si21 1.627523 1_555
O56 Si24 1.620767 1_554
O56 Si1 1.620767 1_555
O57 Si30 1.623994 1_555
O57 Si32 1.628509 1_555
O58 Si6 1.613489 1_555
O58 Si4 1.620448 1_555
O59 Si43 1.620261 1_555
O59 Si11 1.620261 1_555
O60 Si21 1.632459 1_555
O60 Si0 1.632459 1_555
O61 Si15 1.613489 1_555
O61 Si24 1.620448 1_555
O62 Si33 1.620261 1_555
O62 Si44 1.620261 1_545
O63 Si34 1.620767 1_555
O63 Si40 1.620767 1_554
O64 Si12 1.618748 1_555
O64 Si28 1.618748 1_455
O65 Si29 1.613489 1_555
O65 Si40 1.620448 1_555
O66 Si11 1.628529 1_555
O66 Si24 1.628838 1_554
O67 Si15 1.623994 1_555
O67 Si11 1.628509 1_555
O68 Si25 1.613489 1_555
O68 Si38 1.620448 1_555
O69 Si9 1.613489 1_555
O69 Si34 1.620448 1_555
O70 Si42 1.623994 1_555
O70 Si43 1.628509 1_555
O71 Si27 1.618748 1_555
O71 Si31 1.618748 1_555
O72 Si39 1.613489 1_555
O72 Si12 1.620448 1_555
O73 Si41 1.621141 1_555
O73 Si8 1.621141 1_555
O74 Si26 1.613489 1_555
O74 Si27 1.620448 1_555
O75 Si5 1.613489 1_555
O75 Si28 1.620448 1_555
O76 Si46 1.628529 1_555
O76 Si19 1.628838 1_554
O77 Si3 1.627523 1_555
O77 Si0 1.627523 1_555
O78 Si42 1.613489 1_555
O78 Si35 1.620448 1_555
O79 Si0 1.613489 1_555
O79 Si2 1.620448 1_555
O80 Si38 1.620767 1_555
O80 Si36 1.620767 1_554
O81 Si35 1.618748 1_555
O81 Si24 1.618748 1_555
O82 Si45 1.623994 1_555
O82 Si41 1.628509 1_555
O83 Si27 1.620767 1_555
O83 Si4 1.620767 1_554
O84 Si29 1.623994 1_555
O84 Si37 1.628509 1_555
O85 Si6 1.632459 1_555
O85 Si45 1.632459 1_555
O86 Si22 1.620261 1_555
O86 Si32 1.620261 1_545
O87 Si23 1.621141 1_555
O87 Si32 1.621141 1_555
O88 Si25 1.623994 1_555
O88 Si33 1.628509 1_555
O89 Si21 1.613489 1_555
O89 Si31 1.620448 1_555
O90 Si39 1.627523 1_555
O90 Si30 1.627523 1_555
O91 Si21 1.623994 1_555
O91 Si14 1.628509 1_555
O92 Si16 1.628529 1_555
O92 Si34 1.628838 1_556
O93 Si6 1.623994 1_555
O93 Si8 1.628509 1_555
O94 Si10 1.621141 1_555
O94 Si11 1.621141 1_555
O95 Si39 1.632459 1_555
O95 Si15 1.632459 1_555
