# generated using pymatgen
data_Eu(FeSi)2
_symmetry_space_group_name_H-M   'P 1'
_cell_length_a   5.83422013
_cell_length_b   5.83422013
_cell_length_c   5.83422013
_cell_angle_alpha   140.68029105
_cell_angle_beta   140.68029105
_cell_angle_gamma   56.82181580
_symmetry_Int_Tables_number   1
_chemical_formula_structural   Eu(FeSi)2
_chemical_formula_sum   'Eu1 Fe2 Si2'
_cell_volume   79.08180634
_cell_formula_units_Z   1
loop_
 _symmetry_equiv_pos_site_id
 _symmetry_equiv_pos_as_xyz
  1  'x, y, z'
loop_
 _atom_site_type_symbol
 _atom_site_label
 _atom_site_symmetry_multiplicity
 _atom_site_fract_x
 _atom_site_fract_y
 _atom_site_fract_z
 _atom_site_occupancy
  Eu  Eu0  1  0.00000000  0.00000000  0.00000000  1
  Fe  Fe0  1  0.75000000  0.25000000  0.50000000  1
  Fe  Fe1  1  0.25000000  0.75000000  0.50000000  1
  Si  Si0  1  0.36414815  0.36414815  -0.00000000  1
  Si  Si1  1  0.63585185  0.63585185  0.00000000  1
loop_
_geom_bond_atom_site_label_1
_geom_bond_atom_site_label_2
_geom_bond_distance
_geom_bond_site_symmetry_2
Eu0 Si0 3.106352 1_444
Eu0 Si0 3.106352 1_455
Eu0 Si1 3.106352 1_444
Eu0 Si1 3.106352 1_455
Eu0 Si1 3.106352 1_556
Eu0 Si0 3.106352 1_545
Eu0 Si0 3.106352 1_556
Eu0 Si1 3.106352 1_545
Eu0 Fe1 3.230464 1_544
Eu0 Fe1 3.230464 1_545
Eu0 Fe0 3.230464 1_555
Eu0 Fe1 3.230464 1_555
Eu0 Fe0 3.230464 1_444
Eu0 Fe0 3.230464 1_455
Eu0 Fe0 3.230464 1_454
Eu0 Fe1 3.230464 1_444
Fe0 Si0 2.285864 1_555
Fe0 Si1 2.285864 1_556
Fe0 Si1 2.285864 1_545
Fe0 Si0 2.285864 1_656
Fe1 Si0 2.285864 1_555
Fe1 Si1 2.285864 1_556
Fe1 Si0 2.285864 1_566
Fe1 Si1 2.285864 1_455
Si0 Si1 2.788514 1_555
