# generated using pymatgen
data_SrSm2Nb2O9
_symmetry_space_group_name_H-M   'P 1'
_cell_length_a   12.95737909
_cell_length_b   12.95737909
_cell_length_c   5.66322500
_cell_angle_alpha   90.00000000
_cell_angle_beta   90.00000000
_cell_angle_gamma   155.01436766
_symmetry_Int_Tables_number   1
_chemical_formula_structural   SrSm2Nb2O9
_chemical_formula_sum   'Sr2 Sm4 Nb4 O18'
_cell_volume   401.61764189
_cell_formula_units_Z   2
loop_
 _symmetry_equiv_pos_site_id
 _symmetry_equiv_pos_as_xyz
  1  'x, y, z'
loop_
 _atom_site_type_symbol
 _atom_site_label
 _atom_site_symmetry_multiplicity
 _atom_site_fract_x
 _atom_site_fract_y
 _atom_site_fract_z
 _atom_site_occupancy
  Sr  Sr0  1  0.24776500  0.24776500  0.87534200  1
  Sr  Sr1  1  0.75223500  0.75223500  0.37534200  1
  Sm  Sm0  1  0.98922300  0.57954300  0.51381900  1
  Sm  Sm1  1  0.01077700  0.42045700  0.01381900  1
  Sm  Sm2  1  0.42045700  0.01077700  0.01381900  1
  Sm  Sm3  1  0.57954300  0.98922300  0.51381900  1
  Nb  Nb0  1  0.16244000  0.33015600  0.39032600  1
  Nb  Nb1  1  0.83756000  0.66984400  0.89032600  1
  Nb  Nb2  1  0.66984400  0.83756000  0.89032600  1
  Nb  Nb3  1  0.33015600  0.16244000  0.39032600  1
  O  O0  1  0.31102900  0.31102900  0.41660100  1
  O  O1  1  0.68897100  0.68897100  0.91660100  1
  O  O2  1  0.98494500  0.29450400  0.38726400  1
  O  O3  1  0.01505500  0.70549600  0.88726400  1
  O  O4  1  0.70549600  0.01505500  0.88726400  1
  O  O5  1  0.29450400  0.98494500  0.38726400  1
  O  O6  1  0.25471500  0.73695800  0.75547500  1
  O  O7  1  0.74528500  0.26304200  0.25547500  1
  O  O8  1  0.26304200  0.74528500  0.25547500  1
  O  O9  1  0.73695800  0.25471500  0.75547500  1
  O  O10  1  0.91412400  0.04250700  0.63674900  1
  O  O11  1  0.08587600  0.95749300  0.13674900  1
  O  O12  1  0.95749300  0.08587600  0.13674900  1
  O  O13  1  0.04250700  0.91412400  0.63674900  1
  O  O14  1  0.56518500  0.38413800  0.68533900  1
  O  O15  1  0.43481500  0.61586200  0.18533900  1
  O  O16  1  0.61586200  0.43481500  0.18533900  1
  O  O17  1  0.38413800  0.56518500  0.68533900  1
loop_
_geom_bond_atom_site_label_1
_geom_bond_atom_site_label_2
_geom_bond_distance
_geom_bond_site_symmetry_2
Nb0 O2 1.891319 1_455
Nb0 O15 1.955242 1_555
Nb0 O12 1.973652 1_455
Nb0 O10 2.109959 1_455
Nb0 O17 2.111534 1_555
Nb0 O0 2.157650 1_555
Nb1 O3 1.891319 1_655
Nb1 O14 1.955242 1_555
Nb1 O13 1.973652 1_655
Nb1 O11 2.109959 1_656
Nb1 O16 2.111534 1_556
Nb1 O1 2.157650 1_555
Nb2 O4 1.891319 1_565
Nb2 O17 1.955242 1_555
Nb2 O10 1.973652 1_565
Nb2 O12 2.109959 1_566
Nb2 O15 2.111534 1_556
Nb2 O1 2.157650 1_555
Nb3 O5 1.891319 1_545
Nb3 O16 1.955242 1_555
Nb3 O11 1.973652 1_545
Nb3 O13 2.109959 1_545
Nb3 O14 2.111534 1_555
Nb3 O0 2.157650 1_555
O0 Sr1 2.484329 1_555
O0 Sr0 2.622048 1_555
O1 Sr0 2.484329 1_555
O1 Sr1 2.622048 1_556
O2 Sm3 2.466960 1_545
O2 Sm1 2.501612 1_655
O3 Sm2 2.466960 1_566
O3 Sm0 2.501612 1_455
O4 Sm1 2.466960 1_656
O4 Sm3 2.501612 1_545
O5 Sm0 2.466960 1_455
O5 Sm2 2.501612 1_565
O6 Sm0 2.268782 1_455
O6 Sm3 2.309116 1_555
O6 Sm1 2.334694 1_556
O6 Sm2 2.351133 1_566
O7 Sm1 2.268782 1_655
O7 Sm2 2.309116 1_555
O7 Sm0 2.334694 1_555
O7 Sm3 2.351133 1_545
O8 Sm2 2.268782 1_565
O8 Sm1 2.309116 1_555
O8 Sm3 2.334694 1_555
O8 Sm0 2.351133 1_455
O9 Sm3 2.268782 1_545
O9 Sm0 2.309116 1_555
O9 Sm2 2.334694 1_556
O9 Sm1 2.351133 1_656
O10 Sr1 2.536845 1_545
O10 Sr0 2.597129 1_655
O11 Sr0 2.536845 1_564
O11 Sr1 2.597129 1_455
O12 Sr0 2.536845 1_654
O12 Sr1 2.597129 1_545
O13 Sr1 2.536845 1_455
O13 Sr0 2.597129 1_565
O14 Sr0 2.832203 1_555
O15 Sr1 2.832203 1_555
O16 Sr1 2.832203 1_555
O17 Sr0 2.832203 1_555
