# generated using pymatgen
data_Sr3MgGeN4
_symmetry_space_group_name_H-M   'P 1'
_cell_length_a   5.95141916
_cell_length_b   9.62222621
_cell_length_c   10.33841275
_cell_angle_alpha   90.00000000
_cell_angle_beta   90.00000000
_cell_angle_gamma   90.00000000
_symmetry_Int_Tables_number   1
_chemical_formula_structural   Sr3MgGeN4
_chemical_formula_sum   'Sr12 Mg4 Ge4 N16'
_cell_volume   592.03852546
_cell_formula_units_Z   4
loop_
 _symmetry_equiv_pos_site_id
 _symmetry_equiv_pos_as_xyz
  1  'x, y, z'
loop_
 _atom_site_type_symbol
 _atom_site_label
 _atom_site_symmetry_multiplicity
 _atom_site_fract_x
 _atom_site_fract_y
 _atom_site_fract_z
 _atom_site_occupancy
  Sr  Sr0  1  0.75000000  0.40735237  0.00000000  1
  Sr  Sr1  1  0.11263423  0.90946418  0.84673187  1
  Sr  Sr2  1  0.38736577  0.59053582  0.34673187  1
  Sr  Sr3  1  0.88736577  0.09053582  0.15326813  1
  Sr  Sr4  1  0.88736577  0.40946418  0.34673187  1
  Sr  Sr5  1  0.75000000  0.09264763  0.50000000  1
  Sr  Sr6  1  0.38736577  0.90946418  0.15326813  1
  Sr  Sr7  1  0.61263423  0.40946418  0.65326813  1
  Sr  Sr8  1  0.25000000  0.59264763  -0.00000000  1
  Sr  Sr9  1  0.11263423  0.59053582  0.65326813  1
  Sr  Sr10  1  0.61263423  0.09053582  0.84673187  1
  Sr  Sr11  1  0.25000000  0.90735237  0.50000000  1
  Mg  Mg0  1  0.15770148  0.25000000  0.75000000  1
  Mg  Mg1  1  0.84229852  0.75000000  0.25000000  1
  Mg  Mg2  1  0.34229852  0.25000000  0.25000000  1
  Mg  Mg3  1  0.65770148  0.75000000  0.75000000  1
  Ge  Ge0  1  0.75000000  0.76823250  0.50000000  1
  Ge  Ge1  1  0.75000000  0.73176750  -0.00000000  1
  Ge  Ge2  1  0.25000000  0.26823250  0.00000000  1
  Ge  Ge3  1  0.25000000  0.23176750  0.50000000  1
  N  N0  1  0.98492110  0.66416923  0.41612041  1
  N  N1  1  0.38241562  0.37161926  0.86354827  1
  N  N2  1  0.88241562  0.87161926  0.63645173  1
  N  N3  1  0.01507890  0.16416923  0.91612041  1
  N  N4  1  0.48492110  0.16416923  0.08387959  1
  N  N5  1  0.48492110  0.33583077  0.41612041  1
  N  N6  1  0.98492110  0.83583077  0.08387959  1
  N  N7  1  0.01507890  0.33583077  0.58387959  1
  N  N8  1  0.88241562  0.62838074  0.86354827  1
  N  N9  1  0.51507890  0.66416923  0.58387959  1
  N  N10  1  0.61758438  0.62838074  0.13645173  1
  N  N11  1  0.38241562  0.12838074  0.63645173  1
  N  N12  1  0.61758438  0.87161926  0.36354827  1
  N  N13  1  0.11758438  0.37161926  0.13645173  1
  N  N14  1  0.11758438  0.12838074  0.36354827  1
  N  N15  1  0.51507890  0.83583077  0.91612041  1
loop_
_geom_bond_atom_site_label_1
_geom_bond_atom_site_label_2
_geom_bond_distance
_geom_bond_site_symmetry_2
Mg0 N7 2.086167 1_555
Mg0 N3 2.086167 1_555
Mg0 N11 2.129811 1_555
Mg0 N1 2.129811 1_555
Mg1 N6 2.086167 1_555
Mg1 N0 2.086167 1_555
Mg1 N12 2.129811 1_555
Mg1 N10 2.129811 1_555
Mg2 N5 2.086167 1_555
Mg2 N4 2.086167 1_555
Mg2 N13 2.129811 1_555
Mg2 N14 2.129811 1_555
Mg3 N9 2.086167 1_555
Mg3 N15 2.086167 1_555
Mg3 N8 2.129811 1_555
Mg3 N2 2.129811 1_555
Ge0 N12 1.897563 1_555
Ge0 N2 1.897563 1_555
Ge0 N0 1.925972 1_555
Ge0 N9 1.925972 1_555
Ge1 N10 1.897563 1_555
Ge1 N8 1.897563 1_554
Ge1 N6 1.925972 1_555
Ge1 N15 1.925972 1_554
Ge2 N1 1.897563 1_554
Ge2 N13 1.897563 1_555
Ge2 N4 1.925972 1_555
Ge2 N3 1.925972 1_554
Ge3 N11 1.897563 1_555
Ge3 N14 1.897563 1_555
Ge3 N7 1.925972 1_555
Ge3 N5 1.925972 1_555
N0 Sr2 2.598692 1_655
N0 Sr4 2.618830 1_555
N0 Sr9 2.662836 1_655
N0 Sr11 2.952328 1_655
N1 Sr7 2.595375 1_555
N1 Sr0 2.625659 1_556
N1 Sr8 2.671013 1_556
N1 Sr10 3.036873 1_555
N2 Sr1 2.595375 1_655
N2 Sr11 2.625659 1_655
N2 Sr5 2.671013 1_565
N2 Sr9 3.036873 1_655
N3 Sr10 2.598692 1_455
N3 Sr1 2.618830 1_545
N3 Sr3 2.662836 1_456
N3 Sr0 2.952328 1_456
N4 Sr3 2.598692 1_555
N4 Sr6 2.618830 1_545
N4 Sr10 2.662836 1_554
N4 Sr0 2.952328 1_555
N5 Sr4 2.598692 1_555
N5 Sr2 2.618830 1_555
N5 Sr7 2.662836 1_555
N5 Sr5 2.952328 1_555
N6 Sr6 2.598692 1_655
N6 Sr3 2.618830 1_565
N6 Sr1 2.662836 1_654
N6 Sr8 2.952328 1_655
N7 Sr7 2.598692 1_455
N7 Sr9 2.618830 1_555
N7 Sr4 2.662836 1_455
N7 Sr5 2.952328 1_455
N8 Sr9 2.595375 1_655
N8 Sr8 2.625659 1_656
N8 Sr0 2.671013 1_556
N8 Sr1 3.036873 1_655
N9 Sr9 2.598692 1_555
N9 Sr7 2.618830 1_555
N9 Sr2 2.662836 1_555
N9 Sr11 2.952328 1_555
N10 Sr2 2.595375 1_555
N10 Sr8 2.625659 1_555
N10 Sr0 2.671013 1_555
N10 Sr6 3.036873 1_555
N11 Sr10 2.595375 1_555
N11 Sr5 2.625659 1_555
N11 Sr11 2.671013 1_545
N11 Sr7 3.036873 1_555
N12 Sr6 2.595375 1_555
N12 Sr11 2.625659 1_555
N12 Sr5 2.671013 1_565
N12 Sr2 3.036873 1_555
N13 Sr4 2.595375 1_455
N13 Sr0 2.625659 1_455
N13 Sr8 2.671013 1_555
N13 Sr3 3.036873 1_455
N14 Sr3 2.595375 1_455
N14 Sr5 2.625659 1_455
N14 Sr11 2.671013 1_545
N14 Sr4 3.036873 1_455
N15 Sr1 2.598692 1_555
N15 Sr10 2.618830 1_565
N15 Sr6 2.662836 1_556
N15 Sr8 2.952328 1_556
