# generated using pymatgen
data_Ho3CuSnS7
_symmetry_space_group_name_H-M   'P 1'
_cell_length_a   9.70997027
_cell_length_b   9.70997027
_cell_length_c   6.24845800
_cell_angle_alpha   90.00000000
_cell_angle_beta   90.00000000
_cell_angle_gamma   120.00000183
_symmetry_Int_Tables_number   1
_chemical_formula_structural   Ho3CuSnS7
_chemical_formula_sum   'Ho6 Cu2 Sn2 S14'
_cell_volume   510.19861922
_cell_formula_units_Z   2
loop_
 _symmetry_equiv_pos_site_id
 _symmetry_equiv_pos_as_xyz
  1  'x, y, z'
loop_
 _atom_site_type_symbol
 _atom_site_label
 _atom_site_symmetry_multiplicity
 _atom_site_fract_x
 _atom_site_fract_y
 _atom_site_fract_z
 _atom_site_occupancy
  Ho  Ho0  1  0.79279900  0.64053600  0.27544500  1
  Ho  Ho1  1  0.15226200  0.79279900  0.77544500  1
  Ho  Ho2  1  0.84773800  0.20720100  0.27544500  1
  Ho  Ho3  1  0.20720100  0.35946400  0.77544500  1
  Ho  Ho4  1  0.64053600  0.84773800  0.77544500  1
  Ho  Ho5  1  0.35946400  0.15226200  0.27544500  1
  Cu  Cu0  1  0.00000000  0.00000000  0.15164100  1
  Cu  Cu1  1  0.00000000  0.00000000  0.65164100  1
  Sn  Sn0  1  0.66666700  0.33333300  0.83821900  1
  Sn  Sn1  1  0.33333300  0.66666700  0.33821900  1
  S  S0  1  0.52082400  0.43969500  0.02229300  1
  S  S1  1  0.11681700  0.85392600  0.19359700  1
  S  S2  1  0.56030500  0.08112800  0.02229300  1
  S  S3  1  0.91887200  0.47917600  0.02229300  1
  S  S4  1  0.08112800  0.52082400  0.52229300  1
  S  S5  1  0.73710900  0.88318300  0.19359700  1
  S  S6  1  0.85392600  0.73710900  0.69359700  1
  S  S7  1  0.14607400  0.26289100  0.19359700  1
  S  S8  1  0.47917600  0.56030500  0.52229300  1
  S  S9  1  0.43969500  0.91887200  0.52229300  1
  S  S10  1  0.26289100  0.11681700  0.69359700  1
  S  S11  1  0.88318300  0.14607400  0.69359700  1
  S  S12  1  0.66666700  0.33333300  0.45313400  1
  S  S13  1  0.33333300  0.66666700  0.95313400  1
loop_
_geom_bond_atom_site_label_1
_geom_bond_atom_site_label_2
_geom_bond_distance
_geom_bond_site_symmetry_2
Ho0 S5 2.716469 1_555
Ho0 S6 2.738939 1_555
Ho0 S1 2.816810 1_655
Ho0 S12 2.824408 1_555
Ho0 S0 2.851196 1_555
Ho0 S3 2.893716 1_555
Ho0 S8 3.144399 1_555
Ho1 S6 2.716459 1_455
Ho1 S1 2.738937 1_556
Ho1 S10 2.816808 1_565
Ho1 S13 2.824408 1_555
Ho1 S4 2.851196 1_555
Ho1 S9 2.893715 1_555
Ho1 S3 3.144394 1_456
Ho2 S7 2.716459 1_655
Ho2 S11 2.738937 1_555
Ho2 S5 2.816808 1_545
Ho2 S12 2.824408 1_555
Ho2 S3 2.851196 1_555
Ho2 S2 2.893715 1_555
Ho2 S4 3.144394 1_655
Ho3 S10 2.716469 1_555
Ho3 S7 2.738939 1_556
Ho3 S11 2.816810 1_455
Ho3 S13 2.824408 1_555
Ho3 S8 2.851196 1_555
Ho3 S4 2.893716 1_555
Ho3 S0 3.144399 1_556
Ho4 S11 2.716462 1_565
Ho4 S5 2.738939 1_556
Ho4 S6 2.816817 1_555
Ho4 S13 2.824408 1_555
Ho4 S9 2.851196 1_555
Ho4 S8 2.893715 1_555
Ho4 S2 3.144382 1_566
Ho5 S1 2.716462 1_545
Ho5 S10 2.738939 1_555
Ho5 S7 2.816817 1_555
Ho5 S12 2.824408 1_555
Ho5 S2 2.851196 1_555
Ho5 S0 2.893715 1_555
Ho5 S9 3.144382 1_545
Cu0 S7 2.230689 1_555
Cu0 S5 2.230689 1_445
Cu0 S1 2.230689 1_545
Cu1 S6 2.230689 1_445
Cu1 S10 2.230689 1_555
Cu1 S11 2.230689 1_455
S0 Sn0 2.420227 1_554
S2 Sn0 2.420227 1_554
S3 Sn0 2.420227 1_554
S4 Sn1 2.420227 1_555
S8 Sn1 2.420227 1_555
S9 Sn1 2.420227 1_555
S12 Sn0 2.406187 1_555
S13 Sn1 2.406187 1_556
