# generated using pymatgen
data_Hg(BiS2)2
_symmetry_space_group_name_H-M   'P 1'
_cell_length_a   4.07207408
_cell_length_b   7.51699872
_cell_length_c   12.59876735
_cell_angle_alpha   85.99340725
_cell_angle_beta   80.86977816
_cell_angle_gamma   74.30454442
_symmetry_Int_Tables_number   1
_chemical_formula_structural   Hg(BiS2)2
_chemical_formula_sum   'Hg2 Bi4 S8'
_cell_volume   366.41480010
_cell_formula_units_Z   2
loop_
 _symmetry_equiv_pos_site_id
 _symmetry_equiv_pos_as_xyz
  1  'x, y, z'
loop_
 _atom_site_type_symbol
 _atom_site_label
 _atom_site_symmetry_multiplicity
 _atom_site_fract_x
 _atom_site_fract_y
 _atom_site_fract_z
 _atom_site_occupancy
  Hg  Hg0  1  0.00000000  -0.00000000  -0.00000000  1
  Hg  Hg1  1  0.00000000  0.50000000  0.50000000  1
  Bi  Bi0  1  0.34741829  0.43741072  0.86345410  1
  Bi  Bi1  1  0.77504683  0.07903790  0.36856024  1
  Bi  Bi2  1  0.65258171  0.56258928  0.13654590  1
  Bi  Bi3  1  0.22495317  0.92096210  0.63143976  1
  S  S0  1  0.00223035  0.83174192  0.16722595  1
  S  S1  1  0.69288785  0.67746554  0.93622667  1
  S  S2  1  0.15428162  0.35711031  0.33092218  1
  S  S3  1  0.30711215  0.32253446  0.06377333  1
  S  S4  1  -0.00223035  0.16825808  0.83277405  1
  S  S5  1  0.37033761  0.82993211  0.42726283  1
  S  S6  1  0.84571838  0.64288969  0.66907782  1
  S  S7  1  0.62966239  0.17006789  0.57273717  1
loop_
_geom_bond_atom_site_label_1
_geom_bond_atom_site_label_2
_geom_bond_distance
_geom_bond_site_symmetry_2
Hg0 S4 2.380347 1_554
Hg0 S0 2.380347 1_545
Hg1 S6 2.369798 1_455
Hg1 S2 2.369798 1_555
Bi0 S3 2.604368 1_556
Bi0 S1 2.837976 1_455
Bi0 S1 2.844258 1_555
Bi0 S4 2.848250 1_555
Bi0 S4 2.853361 1_655
Bi1 S7 2.641843 1_555
Bi1 S5 2.801604 1_645
Bi1 S5 2.803314 1_545
Bi1 S2 2.890403 1_655
Bi1 S2 2.892573 1_555
Bi1 S0 3.119190 1_645
Bi2 S1 2.604368 1_554
Bi2 S3 2.837976 1_655
Bi2 S3 2.844258 1_555
Bi2 S0 2.848250 1_655
Bi2 S0 2.853361 1_555
Bi3 S5 2.641843 1_555
Bi3 S7 2.801604 1_465
Bi3 S7 2.803314 1_565
Bi3 S6 2.890403 1_455
Bi3 S6 2.892573 1_555
Bi3 S4 3.119190 1_565
