# generated using pymatgen
data_YMn4(CuO4)3
_symmetry_space_group_name_H-M   'P 1'
_cell_length_a   7.31169040
_cell_length_b   7.44855444
_cell_length_c   7.49269097
_cell_angle_alpha   89.99928509
_cell_angle_beta   90.00512901
_cell_angle_gamma   89.97985176
_symmetry_Int_Tables_number   1
_chemical_formula_structural   YMn4(CuO4)3
_chemical_formula_sum   'Y2 Mn8 Cu6 O24'
_cell_volume   408.06334215
_cell_formula_units_Z   2
loop_
 _symmetry_equiv_pos_site_id
 _symmetry_equiv_pos_as_xyz
  1  'x, y, z'
loop_
 _atom_site_type_symbol
 _atom_site_label
 _atom_site_symmetry_multiplicity
 _atom_site_fract_x
 _atom_site_fract_y
 _atom_site_fract_z
 _atom_site_occupancy
  Y  Y0  1  0.00001700  0.00002700  0.00001400  1
  Y  Y1  1  0.49999200  0.49999900  0.49999200  1
  Mn  Mn0  1  0.24920600  0.75016600  0.74968500  1
  Mn  Mn1  1  0.75064700  0.24988800  0.25030400  1
  Mn  Mn2  1  0.75084600  0.75015100  0.74970300  1
  Mn  Mn3  1  0.24935600  0.24989300  0.25025600  1
  Mn  Mn4  1  0.75086400  0.24985500  0.74964300  1
  Mn  Mn5  1  0.24906600  0.75013700  0.25021600  1
  Mn  Mn6  1  0.24910500  0.24984600  0.74982400  1
  Mn  Mn7  1  0.75089600  0.75017800  0.25020800  1
  Cu  Cu0  1  0.00003900  0.50019000  0.50000200  1
  Cu  Cu1  1  0.00032700  0.99967100  0.50028700  1
  Cu  Cu2  1  0.99980900  0.49984300  0.99993700  1
  Cu  Cu3  1  0.50005200  0.00021800  0.99994300  1
  Cu  Cu4  1  0.50009300  0.50027100  0.00026000  1
  Cu  Cu5  1  0.49984500  0.99988600  0.49980300  1
  O  O0  1  0.32843300  0.80597800  0.49979500  1
  O  O1  1  0.82759200  0.30717100  0.00002400  1
  O  O2  1  0.17226200  0.69263400  0.00006500  1
  O  O3  1  0.67148500  0.19391300  0.49994900  1
  O  O4  1  0.32852300  0.19397300  0.49993400  1
  O  O5  1  0.82767600  0.69263000  0.00004100  1
  O  O6  1  0.00000800  0.17057800  0.70392300  1
  O  O7  1  0.49997300  0.66946800  0.20006300  1
  O  O8  1  0.30339600  0.00003800  0.83287700  1
  O  O9  1  0.80286000  0.50004200  0.33321600  1
  O  O10  1  0.80288800  0.49997400  0.66683400  1
  O  O11  1  0.30345600  0.99995800  0.16702600  1
  O  O12  1  0.99998500  0.17055000  0.29615700  1
  O  O13  1  0.49994200  0.66944000  0.79998100  1
  O  O14  1  0.19709300  0.49998400  0.66685400  1
  O  O15  1  0.69657100  0.99999800  0.16710000  1
  O  O16  1  0.17230600  0.30736200  0.00008200  1
  O  O17  1  0.67150700  0.80605300  0.49984700  1
  O  O18  1  0.50001400  0.33069700  0.80015600  1
  O  O19  1  0.00003200  0.82934700  0.29614500  1
  O  O20  1  0.69666700  0.00003800  0.83280600  1
  O  O21  1  0.19708900  0.50001200  0.33316100  1
  O  O22  1  0.50003400  0.33065800  0.19992700  1
  O  O23  1  0.00004800  0.82928200  0.70396000  1
loop_
_geom_bond_atom_site_label_1
_geom_bond_atom_site_label_2
_geom_bond_distance
_geom_bond_site_symmetry_2
Mn0 O23 1.944894 1_555
Mn0 O13 1.965622 1_555
Mn0 O14 2.000865 1_555
Mn0 O8 2.002510 1_565
Mn0 O0 2.003603 1_555
Mn0 O2 2.004978 1_556
Mn1 O12 1.946796 1_555
Mn1 O22 1.965000 1_555
Mn1 O9 2.000999 1_555
Mn1 O3 2.002003 1_555
Mn1 O15 2.002498 1_545
Mn1 O1 2.003883 1_555
Mn2 O23 1.945698 1_655
Mn2 O13 1.967165 1_555
Mn2 O10 2.000592 1_555
Mn2 O20 2.002154 1_565
Mn2 O17 2.003559 1_555
Mn2 O5 2.004253 1_556
Mn3 O12 1.947544 1_455
Mn3 O22 1.965820 1_555
Mn3 O21 2.000586 1_555
Mn3 O4 2.001977 1_555
Mn3 O11 2.002668 1_545
Mn3 O16 2.003472 1_555
Mn4 O6 1.945215 1_655
Mn4 O18 1.967041 1_555
Mn4 O10 2.000260 1_555
Mn4 O20 2.002080 1_555
Mn4 O3 2.002666 1_555
Mn4 O1 2.004114 1_556
Mn5 O19 1.944587 1_555
Mn5 O7 1.966519 1_555
Mn5 O21 2.000552 1_555
Mn5 O0 2.001680 1_555
Mn5 O11 2.002450 1_555
Mn5 O2 2.002955 1_555
Mn6 O6 1.945443 1_555
Mn6 O18 1.967535 1_555
Mn6 O14 2.000479 1_555
Mn6 O8 2.001616 1_555
Mn6 O16 2.003725 1_556
Mn6 O4 2.004027 1_555
Mn7 O19 1.945534 1_655
Mn7 O7 1.967041 1_555
Mn7 O9 2.000487 1_555
Mn7 O15 2.001876 1_555
Mn7 O17 2.002211 1_555
Mn7 O5 2.003099 1_555
Cu0 O14 1.907486 1_555
Cu0 O21 1.907579 1_555
Cu0 O9 1.907853 1_455
Cu0 O10 1.908094 1_455
Cu1 O23 1.984832 1_555
Cu1 O6 1.987113 1_565
Cu1 O19 1.987251 1_555
Cu1 O12 1.989798 1_465
Cu2 O5 1.909139 1_556
Cu2 O16 1.909183 1_656
Cu2 O1 1.909566 1_556
Cu2 O2 1.911371 1_656
Cu3 O15 1.906034 1_546
Cu3 O11 1.906265 1_546
Cu3 O8 1.906342 1_555
Cu3 O20 1.906634 1_555
Cu4 O7 1.956919 1_555
Cu4 O22 1.958113 1_555
Cu4 O13 1.959490 1_554
Cu4 O18 1.960453 1_554
Cu5 O4 1.912544 1_565
Cu5 O0 1.912633 1_555
Cu5 O17 1.912744 1_555
Cu5 O3 1.914396 1_565
O0 Y1 2.601111 1_555
O1 Y0 2.611765 1_655
O2 Y0 2.612755 1_565
O3 Y1 2.601576 1_555
O4 Y1 2.601873 1_555
O5 Y0 2.613895 1_665
O6 Y0 2.556475 1_556
O7 Y1 2.577513 1_555
O8 Y0 2.547398 1_556
O9 Y1 2.542815 1_555
O10 Y1 2.543041 1_555
O11 Y0 2.547125 1_565
O12 Y0 2.556737 1_655
O13 Y1 2.577831 1_555
O14 Y1 2.543329 1_555
O15 Y0 2.547637 1_665
O16 Y0 2.613307 1_555
O17 Y1 2.602218 1_555
O18 Y1 2.578440 1_555
O19 Y0 2.557213 1_565
O20 Y0 2.547280 1_656
O21 Y1 2.543045 1_555
O22 Y1 2.577963 1_555
O23 Y0 2.556980 1_566
