# generated using pymatgen
data_RbAg2(AsSe2)3
_symmetry_space_group_name_H-M   'P 1'
_cell_length_a   7.73928545
_cell_length_b   10.02875983
_cell_length_c   20.05894407
_cell_angle_alpha   60.25518807
_cell_angle_beta   90.00000000
_cell_angle_gamma   90.00000000
_symmetry_Int_Tables_number   1
_chemical_formula_structural   RbAg2(AsSe2)3
_chemical_formula_sum   'Rb4 Ag8 As12 Se24'
_cell_volume   1351.75450469
_cell_formula_units_Z   4
loop_
 _symmetry_equiv_pos_site_id
 _symmetry_equiv_pos_as_xyz
  1  'x, y, z'
loop_
 _atom_site_type_symbol
 _atom_site_label
 _atom_site_symmetry_multiplicity
 _atom_site_fract_x
 _atom_site_fract_y
 _atom_site_fract_z
 _atom_site_occupancy
  Rb  Rb0  1  0.17792566  0.16135242  0.83217295  1
  Rb  Rb1  1  0.82207434  0.83864758  0.16782705  1
  Rb  Rb2  1  0.32207434  0.16135242  0.33217295  1
  Rb  Rb3  1  0.67792566  0.83864758  0.66782705  1
  Ag  Ag0  1  0.46736438  0.45073855  0.08043136  1
  Ag  Ag1  1  0.48702831  0.35254423  0.49970967  1
  Ag  Ag2  1  0.98702831  0.64745577  0.00029033  1
  Ag  Ag3  1  0.53263562  0.54926145  0.91956864  1
  Ag  Ag4  1  0.96736438  0.54926145  0.41956864  1
  Ag  Ag5  1  0.51297169  0.64745577  0.50029033  1
  Ag  Ag6  1  0.01297169  0.35254423  -0.00029033  1
  Ag  Ag7  1  0.03263562  0.45073855  0.58043136  1
  As  As0  1  0.85018900  0.95334599  0.35395881  1
  As  As1  1  0.37138394  0.65470386  0.27651886  1
  As  As2  1  0.61891430  0.21316085  0.91878422  1
  As  As3  1  0.11891430  0.78683915  0.58121578  1
  As  As4  1  0.14981100  0.04665401  0.64604119  1
  As  As5  1  0.88108570  0.21316085  0.41878422  1
  As  As6  1  0.64981100  0.95334599  0.85395881  1
  As  As7  1  0.87138394  0.34529614  0.22348114  1
  As  As8  1  0.38108570  0.78683915  0.08121578  1
  As  As9  1  0.35018900  0.04665401  0.14604119  1
  As  As10  1  0.12861606  0.65470386  0.77651886  1
  As  As11  1  0.62861606  0.34529614  0.72348114  1
  Se  Se0  1  0.24538748  0.45379936  0.89190687  1
  Se  Se1  1  0.25461252  0.45379936  0.39190687  1
  Se  Se2  1  0.80197428  0.13317629  0.73567473  1
  Se  Se3  1  0.30197428  0.86682371  0.76432527  1
  Se  Se4  1  0.72108383  0.41004429  0.31050354  1
  Se  Se5  1  0.27891617  0.58995571  0.68949646  1
  Se  Se6  1  0.30459377  0.73461881  0.98232679  1
  Se  Se7  1  0.70538091  0.73124894  0.37207528  1
  Se  Se8  1  0.77891617  0.41004429  0.81050354  1
  Se  Se9  1  0.29461909  0.26875106  0.62792472  1
  Se  Se10  1  0.20538091  0.26875106  0.12792472  1
  Se  Se11  1  0.80459377  0.26538119  0.51767321  1
  Se  Se12  1  0.79461909  0.73124894  0.87207528  1
  Se  Se13  1  0.69802572  0.13317629  0.23567473  1
  Se  Se14  1  0.20210444  0.01214953  0.04866853  1
  Se  Se15  1  0.79789556  0.98785047  0.95133147  1
  Se  Se16  1  0.29789556  0.01214953  0.54866853  1
  Se  Se17  1  0.69540623  0.26538119  0.01767321  1
  Se  Se18  1  0.22108383  0.58995571  0.18949646  1
  Se  Se19  1  0.70210444  0.98785047  0.45133147  1
  Se  Se20  1  0.19540623  0.73461881  0.48232679  1
  Se  Se21  1  0.74538748  0.54620064  0.60809313  1
  Se  Se22  1  0.19802572  0.86682371  0.26432527  1
  Se  Se23  1  0.75461252  0.54620064  0.10809313  1
loop_
_geom_bond_atom_site_label_1
_geom_bond_atom_site_label_2
_geom_bond_distance
_geom_bond_site_symmetry_2
Rb0 Se2 3.582607 1_455
Rb0 Se15 3.642013 1_445
Rb0 Se0 3.714444 1_555
Rb0 Se9 3.792422 1_555
Rb0 Se14 3.832096 1_556
Rb0 Se8 3.856119 1_455
Rb0 Se5 3.882120 1_555
Rb0 Se3 3.935409 1_545
Rb0 Se6 3.944297 1_545
Rb1 Se22 3.582607 1_655
Rb1 Se14 3.642013 1_665
Rb1 Se23 3.714444 1_555
Rb1 Se7 3.792422 1_555
Rb1 Se15 3.832096 1_554
Rb1 Se18 3.856119 1_655
Rb1 Se4 3.882120 1_555
Rb1 Se13 3.935409 1_565
Rb1 Se17 3.944297 1_565
Rb2 Se13 3.582607 1_555
Rb2 Se19 3.642013 1_545
Rb2 Se1 3.714444 1_555
Rb2 Se10 3.792422 1_555
Rb2 Se16 3.832096 1_555
Rb2 Se4 3.856119 1_555
Rb2 Se18 3.882120 1_555
Rb2 Se22 3.935409 1_545
Rb2 Se20 3.944297 1_545
Rb3 Se3 3.582607 1_555
Rb3 Se16 3.642013 1_565
Rb3 Se21 3.714444 1_555
Rb3 Se12 3.792422 1_555
Rb3 Se19 3.832096 1_555
Rb3 Se5 3.856119 1_555
Rb3 Se8 3.882120 1_555
Rb3 Se2 3.935409 1_565
Rb3 Se11 3.944297 1_565
Ag0 Se10 2.573776 1_555
Ag0 Se23 2.587216 1_555
Ag0 Se6 2.829393 1_554
Ag0 Se17 3.236834 1_555
Ag1 Se11 2.573294 1_555
Ag1 Se1 2.600718 1_555
Ag1 Se9 2.719105 1_555
Ag1 Se16 3.381421 1_555
Ag2 Se6 2.573294 1_654
Ag2 Se23 2.600718 1_555
Ag2 Se12 2.719105 1_554
Ag2 Se15 3.381421 1_554
Ag3 Se12 2.573776 1_555
Ag3 Se0 2.587216 1_555
Ag3 Se17 2.829393 1_556
Ag3 Se6 3.236834 1_555
Ag4 Se7 2.573776 1_555
Ag4 Se1 2.587216 1_655
Ag4 Se11 2.829393 1_555
Ag4 Se20 3.236834 1_655
Ag5 Se20 2.573294 1_555
Ag5 Se21 2.600718 1_555
Ag5 Se7 2.719105 1_555
Ag5 Se19 3.381421 1_555
Ag6 Se17 2.573294 1_455
Ag6 Se0 2.600718 1_554
Ag6 Se10 2.719105 1_555
Ag6 Se14 3.381421 1_555
Ag7 Se9 2.573776 1_555
Ag7 Se21 2.587216 1_455
Ag7 Se20 2.829393 1_555
Ag7 Se11 3.236834 1_455
As0 Se7 2.354997 1_555
As0 Se19 2.432865 1_555
As0 Se13 2.454152 1_565
As0 Rb2 4.120134 1_665
As1 Se1 2.367703 1_555
As1 Se22 2.422602 1_555
As1 Se18 2.438541 1_555
As1 Rb1 4.041273 1_555
As2 Se17 2.364366 1_556
As2 Se8 2.427781 1_555
As2 Se15 2.446812 1_545
As2 Rb0 3.978959 1_555
As3 Se20 2.364366 1_555
As3 Se5 2.427781 1_555
As3 Se16 2.446812 1_565
As3 Rb3 3.978959 1_455
As4 Se9 2.354997 1_555
As4 Se16 2.432865 1_555
As4 Se3 2.454152 1_545
As4 Rb3 4.120134 1_445
As5 Se11 2.364366 1_555
As5 Se4 2.427781 1_555
As5 Se19 2.446812 1_545
As5 Rb2 3.978959 1_655
As6 Se12 2.354997 1_555
As6 Se15 2.432865 1_555
As6 Se2 2.454152 1_565
As6 Rb0 4.120134 1_565
As7 Se23 2.367703 1_555
As7 Se13 2.422602 1_555
As7 Se4 2.438541 1_555
As7 Rb2 4.041273 1_655
As8 Se6 2.364366 1_554
As8 Se18 2.427781 1_555
As8 Se14 2.446812 1_565
As8 Rb1 3.978959 1_555
As9 Se10 2.354997 1_555
As9 Se14 2.432865 1_555
As9 Se22 2.454152 1_545
As9 Rb1 4.120134 1_545
As10 Se0 2.367703 1_555
As10 Se3 2.422602 1_555
As10 Se5 2.438541 1_555
As10 Rb3 4.041273 1_455
As11 Se21 2.367703 1_555
As11 Se2 2.422602 1_555
As11 Se8 2.438541 1_555
As11 Rb0 4.041273 1_555
