# generated using pymatgen
data_Zn(CN)2
_symmetry_space_group_name_H-M   'P 1'
_cell_length_a   5.94645400
_cell_length_b   5.94645400
_cell_length_c   5.94645400
_cell_angle_alpha   90.00000000
_cell_angle_beta   90.00000000
_cell_angle_gamma   90.00000000
_symmetry_Int_Tables_number   1
_chemical_formula_structural   Zn(CN)2
_chemical_formula_sum   'Zn2 C4 N4'
_cell_volume   210.26848761
_cell_formula_units_Z   2
loop_
 _symmetry_equiv_pos_site_id
 _symmetry_equiv_pos_as_xyz
  1  'x, y, z'
loop_
 _atom_site_type_symbol
 _atom_site_label
 _atom_site_symmetry_multiplicity
 _atom_site_fract_x
 _atom_site_fract_y
 _atom_site_fract_z
 _atom_site_occupancy
  Zn  Zn0  1  0.50000000  0.50000000  0.50000000  1
  Zn  Zn1  1  0.00000000  0.00000000  0.00000000  1
  C  C0  1  0.19551400  0.80448600  0.80448600  1
  C  C1  1  0.80448600  0.80448600  0.19551400  1
  C  C2  1  0.19551400  0.19551400  0.19551400  1
  C  C3  1  0.80448600  0.19551400  0.80448600  1
  N  N0  1  0.69126400  0.69126400  0.30873600  1
  N  N1  1  0.30873600  0.69126400  0.69126400  1
  N  N2  1  0.30873600  0.30873600  0.30873600  1
  N  N3  1  0.69126400  0.30873600  0.69126400  1
loop_
_geom_bond_atom_site_label_1
_geom_bond_atom_site_label_2
_geom_bond_distance
_geom_bond_site_symmetry_2
C0 N1 1.166137 1_555
C0 Zn1 2.013708 1_566
C1 N0 1.166137 1_555
C1 Zn1 2.013708 1_665
C2 N2 1.166137 1_555
C2 Zn1 2.013708 1_555
C3 N3 1.166137 1_555
C3 Zn1 2.013708 1_656
N0 Zn0 1.969935 1_555
N1 Zn0 1.969935 1_555
N2 Zn0 1.969935 1_555
N3 Zn0 1.969935 1_555
