# generated using pymatgen
data_Zr2Cu3H32(O8F7)2
_symmetry_space_group_name_H-M   'P 1'
_cell_length_a   10.15370200
_cell_length_b   10.55483700
_cell_length_c   11.06621887
_cell_angle_alpha   88.11996230
_cell_angle_beta   90.00000000
_cell_angle_gamma   90.00000000
_symmetry_Int_Tables_number   1
_chemical_formula_structural   Zr2Cu3H32(O8F7)2
_chemical_formula_sum   'Zr4 Cu6 H64 O32 F28'
_cell_volume   1185.33568401
_cell_formula_units_Z   2
loop_
 _symmetry_equiv_pos_site_id
 _symmetry_equiv_pos_as_xyz
  1  'x, y, z'
loop_
 _atom_site_type_symbol
 _atom_site_label
 _atom_site_symmetry_multiplicity
 _atom_site_fract_x
 _atom_site_fract_y
 _atom_site_fract_z
 _atom_site_occupancy
  Zr  Zr0  1  0.98637200  0.17560000  0.01883200  1
  Zr  Zr1  1  0.48637200  0.82440000  0.48116800  1
  Zr  Zr2  1  0.51362800  0.17560000  0.51883200  1
  Zr  Zr3  1  0.01362800  0.82440000  0.98116800  1
  Cu  Cu0  1  0.38207900  0.49060500  0.12100200  1
  Cu  Cu1  1  0.88207900  0.50939500  0.37899800  1
  Cu  Cu2  1  0.11792100  0.49060500  0.62100200  1
  Cu  Cu3  1  0.00000000  0.00000000  0.50000000  1
  Cu  Cu4  1  0.61792100  0.50939500  0.87899800  1
  Cu  Cu5  1  0.50000000  0.00000000  0.00000000  1
  H  H0  1  0.31210900  0.20495000  0.92514700  1
  H  H1  1  0.12349400  0.68898600  0.48820300  1
  H  H2  1  0.86278200  0.05405900  0.30578300  1
  H  H3  1  0.60803900  0.45354900  0.23780300  1
  H  H4  1  0.09752500  0.18239600  0.31102400  1
  H  H5  1  0.40247500  0.18239600  0.81102400  1
  H  H6  1  0.13721800  0.94594100  0.69421700  1
  H  H7  1  0.75234900  0.72553300  0.32420900  1
  H  H8  1  0.29111400  0.68393900  0.29282200  1
  H  H9  1  0.36278200  0.94594100  0.19421700  1
  H  H10  1  0.20888600  0.68393900  0.79282200  1
  H  H11  1  0.72277500  0.30517200  0.33423000  1
  H  H12  1  0.79691300  0.60264600  0.01658800  1
  H  H13  1  0.74765100  0.72553300  0.82420900  1
  H  H14  1  0.29691300  0.39735400  0.48341200  1
  H  H15  1  0.61272300  0.72252300  0.74744000  1
  H  H16  1  0.48939700  0.29864800  0.93979400  1
  H  H17  1  0.01288500  0.44886300  0.18866400  1
  H  H18  1  0.56255200  0.12265200  0.19495100  1
  H  H19  1  0.16776400  0.54596900  0.98998800  1
  H  H20  1  0.79111400  0.31606100  0.20717800  1
  H  H21  1  0.39196100  0.54645100  0.76219700  1
  H  H22  1  0.69746200  0.10604300  0.12254600  1
  H  H23  1  0.19746200  0.89395700  0.37745400  1
  H  H24  1  0.37650600  0.68898600  0.98820300  1
  H  H25  1  0.68789100  0.79505000  0.07485300  1
  H  H26  1  0.93744800  0.12265200  0.69495100  1
  H  H27  1  0.73361100  0.00199700  0.91179900  1
  H  H28  1  0.76638900  0.00199700  0.41179900  1
  H  H29  1  0.25234900  0.27446700  0.17579100  1
  H  H30  1  0.33223600  0.54596900  0.48998800  1
  H  H31  1  0.70888600  0.31606100  0.70717800  1
  H  H32  1  0.20308700  0.39735400  0.98341200  1
  H  H33  1  0.66776400  0.45403100  0.51001200  1
  H  H34  1  0.87650600  0.31101400  0.51179700  1
  H  H35  1  0.38727700  0.27747700  0.25256000  1
  H  H36  1  0.26638900  0.99800300  0.08820100  1
  H  H37  1  0.83223600  0.45403100  0.01001200  1
  H  H38  1  0.43744800  0.87734800  0.80504900  1
  H  H39  1  0.18789100  0.20495000  0.42514700  1
  H  H40  1  0.51288500  0.55113700  0.31133600  1
  H  H41  1  0.62349400  0.31101400  0.01179700  1
  H  H42  1  0.11272300  0.27747700  0.75256000  1
  H  H43  1  0.24765100  0.27446700  0.67579100  1
  H  H44  1  0.98939700  0.70135200  0.56020600  1
  H  H45  1  0.81210900  0.79505000  0.57485300  1
  H  H46  1  0.06255200  0.87734800  0.30504900  1
  H  H47  1  0.70308700  0.60264600  0.51658800  1
  H  H48  1  0.51060300  0.70135200  0.06020600  1
  H  H49  1  0.48711500  0.44886300  0.68866400  1
  H  H50  1  0.63721800  0.05405900  0.80578300  1
  H  H51  1  0.22277500  0.69482800  0.16577000  1
  H  H52  1  0.77722500  0.30517200  0.83423000  1
  H  H53  1  0.80253800  0.10604300  0.62254600  1
  H  H54  1  0.30253800  0.89395700  0.87745400  1
  H  H55  1  0.88727700  0.72252300  0.24744000  1
  H  H56  1  0.23361100  0.99800300  0.58820100  1
  H  H57  1  0.10803900  0.54645100  0.26219700  1
  H  H58  1  0.89196100  0.45354900  0.73780300  1
  H  H59  1  0.27722500  0.69482800  0.66577000  1
  H  H60  1  0.98711500  0.55113700  0.81133600  1
  H  H61  1  0.90247500  0.81760400  0.68897600  1
  H  H62  1  0.59752500  0.81760400  0.18897600  1
  H  H63  1  0.01060300  0.29864800  0.43979400  1
  O  O0  1  0.35656600  0.00398700  0.12159600  1
  O  O1  1  0.96906400  0.51316900  0.73220800  1
  O  O2  1  0.05094100  0.63663000  0.52113600  1
  O  O3  1  0.40421800  0.18606200  0.90130800  1
  O  O4  1  0.44905900  0.63663000  0.02113600  1
  O  O5  1  0.33667800  0.32073700  0.18733800  1
  O  O6  1  0.46906400  0.48683100  0.76779200  1
  O  O7  1  0.55094100  0.36337000  0.97886400  1
  O  O8  1  0.83667800  0.67926300  0.31266200  1
  O  O9  1  0.53093600  0.51316900  0.23220800  1
  O  O10  1  0.74232200  0.36607700  0.26534700  1
  O  O11  1  0.24232200  0.63392300  0.23465300  1
  O  O12  1  0.90421800  0.81393800  0.59869200  1
  O  O13  1  0.85656600  0.99601300  0.37840400  1
  O  O14  1  0.25980300  0.48333100  0.49954000  1
  O  O15  1  0.09578200  0.18606200  0.40130800  1
  O  O16  1  0.03093600  0.48683100  0.26779200  1
  O  O17  1  0.25767800  0.63392300  0.73465300  1
  O  O18  1  0.89917400  0.11180100  0.61282700  1
  O  O19  1  0.74019700  0.51666900  0.50046000  1
  O  O20  1  0.75767800  0.36607700  0.76534700  1
  O  O21  1  0.16332200  0.32073700  0.68733800  1
  O  O22  1  0.60082600  0.11180100  0.11282700  1
  O  O23  1  0.14343400  0.00398700  0.62159600  1
  O  O24  1  0.75980300  0.51666900  0.00046000  1
  O  O25  1  0.64343400  0.99601300  0.87840400  1
  O  O26  1  0.24019700  0.48333100  0.99954000  1
  O  O27  1  0.10082600  0.88819900  0.38717300  1
  O  O28  1  0.59578200  0.81393800  0.09869200  1
  O  O29  1  0.66332200  0.67926300  0.81266200  1
  O  O30  1  0.94905900  0.36337000  0.47886400  1
  O  O31  1  0.39917400  0.88819900  0.88717300  1
  F  F0  1  0.00928700  0.83372900  0.17094200  1
  F  F1  1  0.13599300  0.86056100  0.82547800  1
  F  F2  1  0.70364500  0.23234400  0.46234100  1
  F  F3  1  0.03585900  0.63206000  0.93443200  1
  F  F4  1  0.53585900  0.36794000  0.56556800  1
  F  F5  1  0.29635500  0.76765600  0.53765900  1
  F  F6  1  0.79635500  0.23234400  0.96234100  1
  F  F7  1  0.38267900  0.00841800  0.51185700  1
  F  F8  1  0.99071300  0.16627100  0.82905800  1
  F  F9  1  0.63599300  0.13943900  0.67452200  1
  F  F10  1  0.46414100  0.63206000  0.43443200  1
  F  F11  1  0.36400700  0.86056100  0.32547800  1
  F  F12  1  0.88433700  0.81368800  0.82987900  1
  F  F13  1  0.16419000  0.26175000  0.95388900  1
  F  F14  1  0.20364500  0.76765600  0.03765900  1
  F  F15  1  0.61732100  0.99158200  0.48814300  1
  F  F16  1  0.96414100  0.36794000  0.06556800  1
  F  F17  1  0.11566300  0.18631200  0.17012100  1
  F  F18  1  0.11732100  0.00841800  0.01185700  1
  F  F19  1  0.38433700  0.18631200  0.67012100  1
  F  F20  1  0.86400700  0.13943900  0.17452200  1
  F  F21  1  0.88267900  0.99158200  0.98814300  1
  F  F22  1  0.83581000  0.73825000  0.04611100  1
  F  F23  1  0.33581000  0.26175000  0.45388900  1
  F  F24  1  0.50928700  0.16627100  0.32905800  1
  F  F25  1  0.61566300  0.81368800  0.32987900  1
  F  F26  1  0.66419000  0.73825000  0.54611100  1
  F  F27  1  0.49071300  0.83372900  0.67094200  1
loop_
_geom_bond_atom_site_label_1
_geom_bond_atom_site_label_2
_geom_bond_distance
_geom_bond_site_symmetry_2
Cu0 O9 1.968472 1_555
Cu0 O5 1.969678 1_555
Cu0 O26 1.973511 1_554
Cu0 O4 1.986860 1_555
Cu0 O11 2.451238 1_555
Cu1 O16 1.968472 1_655
Cu1 O8 1.969678 1_555
Cu1 O19 1.973511 1_555
Cu1 O30 1.986860 1_555
Cu1 O10 2.451238 1_555
Cu2 O1 1.968472 1_455
Cu2 O21 1.969678 1_555
Cu2 O14 1.973511 1_555
Cu2 O2 1.986860 1_555
Cu2 O17 2.451238 1_555
Cu3 O13 1.984240 1_445
Cu3 O23 1.984240 1_555
Cu3 O18 2.023900 1_455
Cu3 O27 2.023900 1_545
Cu3 O15 2.419631 1_555
Cu3 O12 2.419631 1_445
Cu4 O6 1.968472 1_555
Cu4 O29 1.969678 1_555
Cu4 O24 1.973511 1_556
Cu4 O7 1.986860 1_555
Cu4 O20 2.451238 1_555
Cu5 O0 1.984240 1_555
Cu5 O25 1.984240 1_544
Cu5 O22 2.023900 1_555
Cu5 O31 2.023900 1_544
Cu5 O28 2.419631 1_545
Cu5 O3 2.419631 1_554
H0 O3 0.993719 1_555
H1 O2 0.983708 1_555
H2 O13 0.996431 1_545
H3 O9 1.005073 1_555
H4 O15 1.001276 1_555
H5 O3 1.001276 1_555
H6 O23 0.996431 1_565
H7 O8 0.996041 1_555
H8 O11 0.980199 1_555
H9 O0 0.996431 1_565
H10 O17 0.980199 1_555
H11 O10 1.000774 1_555
H12 O24 1.003977 1_555
H13 O29 0.996041 1_555
H14 O14 1.003977 1_555
H15 O29 0.985778 1_555
H16 O7 1.031251 1_555
H16 O3 1.541018 1_555
H17 O16 0.991955 1_555
H18 O22 0.998447 1_555
H19 O26 0.992266 1_555
H20 O10 0.980199 1_555
H21 O6 1.005073 1_555
H22 O22 0.988742 1_555
H23 O27 0.988742 1_555
H24 O4 0.983708 1_556
H25 O28 0.993719 1_555
H26 O18 0.998447 1_555
H27 O25 0.990188 1_545
H28 O13 0.990188 1_545
H29 O5 0.996041 1_555
H30 O14 0.992266 1_555
H31 O20 0.980199 1_555
H32 O26 1.003977 1_555
H33 O19 0.992266 1_555
H34 O30 0.983708 1_555
H35 O5 0.985778 1_555
H36 O0 0.990188 1_565
H37 O24 0.992266 1_555
H38 O31 0.998447 1_555
H39 O15 0.993719 1_555
H40 O9 0.991955 1_555
H41 O7 0.983708 1_554
H42 O21 0.985778 1_555
H43 O21 0.996041 1_555
H44 O2 1.031251 1_655
H44 O12 1.541018 1_555
H45 O12 0.993719 1_555
H46 O27 0.998447 1_555
H47 O19 1.003977 1_555
H48 O4 1.031251 1_555
H48 O28 1.541018 1_555
H49 O6 0.991955 1_555
H50 O25 0.996431 1_545
H51 O11 1.000774 1_555
H52 O20 1.000774 1_555
H53 O18 0.988742 1_555
H54 O31 0.988742 1_555
H55 O8 0.985778 1_555
H56 O23 0.990188 1_565
H57 O16 1.005073 1_555
H58 O1 1.005073 1_555
H59 O17 1.000774 1_555
H60 O1 0.991955 1_555
H61 O12 1.001276 1_555
H62 O28 1.001276 1_555
H63 O30 1.031251 1_455
H63 O15 1.541018 1_555
F0 H46 1.658831 1_555
F0 Zr3 2.106073 1_554
F1 Zr3 2.148165 1_555
F2 H11 1.602183 1_555
F2 Zr2 2.108895 1_555
F3 Zr3 2.123372 1_555
F4 Zr2 2.123372 1_555
F5 H59 1.602183 1_555
F5 Zr1 2.108895 1_555
F6 H52 1.602183 1_555
F6 Zr0 2.108895 1_556
F7 Zr2 2.212807 1_555
F7 Zr1 2.244905 1_545
F8 H26 1.658831 1_555
F8 Zr0 2.106073 1_556
F9 Zr2 2.148165 1_555
F10 Zr1 2.123372 1_555
F11 Zr1 2.148165 1_555
F12 H61 1.569299 1_555
F12 H13 1.673232 1_555
F12 Zr3 2.133433 1_655
F13 H32 1.530347 1_555
F13 H0 1.651931 1_555
F13 Zr0 2.135488 1_456
F14 H51 1.602183 1_555
F14 Zr3 2.108895 1_554
F15 Zr1 2.212807 1_555
F15 Zr2 2.244905 1_565
F16 Zr0 2.123372 1_555
F17 H4 1.569299 1_555
F17 H29 1.673232 1_555
F17 Zr0 2.133433 1_455
F18 Zr0 2.212807 1_455
F18 Zr3 2.244905 1_544
F19 H5 1.569299 1_555
F19 H43 1.673232 1_555
F19 Zr2 2.133433 1_555
F20 Zr0 2.148165 1_555
F21 Zr3 2.212807 1_655
F21 Zr0 2.244905 1_566
F22 H12 1.530347 1_555
F22 H25 1.651931 1_555
F22 Zr3 2.135488 1_654
F23 H14 1.530347 1_555
F23 H39 1.651931 1_555
F23 Zr2 2.135488 1_555
F24 H18 1.658831 1_555
F24 Zr2 2.106073 1_555
F25 H62 1.569299 1_555
F25 H7 1.673232 1_555
F25 Zr1 2.133433 1_555
F26 H47 1.530347 1_555
F26 H45 1.651931 1_555
F26 Zr1 2.135488 1_555
F27 H38 1.658831 1_555
F27 Zr1 2.106073 1_555
