# generated using pymatgen
data_K3La(PSe4)2
_symmetry_space_group_name_H-M   'P 1'
_cell_length_a   18.07729100
_cell_length_b   9.67543600
_cell_length_c   10.16086909
_cell_angle_alpha   89.53329409
_cell_angle_beta   90.00000000
_cell_angle_gamma   90.00000000
_symmetry_Int_Tables_number   1
_chemical_formula_structural   K3La(PSe4)2
_chemical_formula_sum   'K12 La4 P8 Se32'
_cell_volume   1777.13467860
_cell_formula_units_Z   4
loop_
 _symmetry_equiv_pos_site_id
 _symmetry_equiv_pos_as_xyz
  1  'x, y, z'
loop_
 _atom_site_type_symbol
 _atom_site_label
 _atom_site_symmetry_multiplicity
 _atom_site_fract_x
 _atom_site_fract_y
 _atom_site_fract_z
 _atom_site_occupancy
  K  K0  1  0.20669100  0.12070300  0.37297200  1
  K  K1  1  0.70669100  0.87929700  0.12702800  1
  K  K2  1  0.79330900  0.87929700  0.62702800  1
  K  K3  1  0.29330900  0.12070300  0.87297200  1
  K  K4  1  0.71450600  0.38202500  0.62604200  1
  K  K5  1  0.21450600  0.61797500  0.87395800  1
  K  K6  1  0.28549400  0.61797500  0.37395800  1
  K  K7  1  0.78549400  0.38202500  0.12604200  1
  K  K8  1  0.96777100  0.26965300  0.51313300  1
  K  K9  1  0.46777100  0.73034700  0.98686700  1
  K  K10  1  0.03222900  0.73034700  0.48686700  1
  K  K11  1  0.53222900  0.26965300  0.01313300  1
  La  La0  1  0.01358500  0.22596200  0.97074600  1
  La  La1  1  0.51358500  0.77403800  0.52925400  1
  La  La2  1  0.98641500  0.77403800  0.02925400  1
  La  La3  1  0.48641500  0.22596200  0.47074600  1
  P  P0  1  0.90178800  0.52582400  0.77725100  1
  P  P1  1  0.40178800  0.47417600  0.72274900  1
  P  P2  1  0.09821200  0.47417600  0.22274900  1
  P  P3  1  0.59821200  0.52582400  0.27725100  1
  P  P4  1  0.10258500  0.99340800  0.75413600  1
  P  P5  1  0.60258500  0.00659200  0.74586400  1
  P  P6  1  0.89741500  0.00659200  0.24586400  1
  P  P7  1  0.39741500  0.99340800  0.25413600  1
  Se  Se0  1  0.12546300  0.96485900  0.97015500  1
  Se  Se1  1  0.62546300  0.03514100  0.52984500  1
  Se  Se2  1  0.87453700  0.03514100  0.02984500  1
  Se  Se3  1  0.37453700  0.96485900  0.47015500  1
  Se  Se4  1  0.01809300  0.05722700  0.25282500  1
  Se  Se5  1  0.51809300  0.94277300  0.24717500  1
  Se  Se6  1  0.98190700  0.94277300  0.74717500  1
  Se  Se7  1  0.48190700  0.05722700  0.75282500  1
  Se  Se8  1  0.02360800  0.53787000  0.82114000  1
  Se  Se9  1  0.52360800  0.46213000  0.67886000  1
  Se  Se10  1  0.97639200  0.46213000  0.17886000  1
  Se  Se11  1  0.47639200  0.53787000  0.32114000  1
  Se  Se12  1  0.86912000  0.30886500  0.82715600  1
  Se  Se13  1  0.36912000  0.69113500  0.67284400  1
  Se  Se14  1  0.13088000  0.69113500  0.17284400  1
  Se  Se15  1  0.63088000  0.30886500  0.32715600  1
  Se  Se16  1  0.11469700  0.21910700  0.72170800  1
  Se  Se17  1  0.61469700  0.78089300  0.77829200  1
  Se  Se18  1  0.88530300  0.78089300  0.27829200  1
  Se  Se19  1  0.38530300  0.21910700  0.22170800  1
  Se  Se20  1  0.18007000  0.87429700  0.63385100  1
  Se  Se21  1  0.68007000  0.12570300  0.86614900  1
  Se  Se22  1  0.81993000  0.12570300  0.36614900  1
  Se  Se23  1  0.31993000  0.87429700  0.13385100  1
  Se  Se24  1  0.87414800  0.57061900  0.57080800  1
  Se  Se25  1  0.37414800  0.42938100  0.92919200  1
  Se  Se26  1  0.12585200  0.42938100  0.42919200  1
  Se  Se27  1  0.62585200  0.57061900  0.07080800  1
  Se  Se28  1  0.15824100  0.33032800  0.09035200  1
  Se  Se29  1  0.65824100  0.66967200  0.40964800  1
  Se  Se30  1  0.84175900  0.66967200  0.90964800  1
  Se  Se31  1  0.34175900  0.33032800  0.59035200  1
loop_
_geom_bond_atom_site_label_1
_geom_bond_atom_site_label_2
_geom_bond_distance
_geom_bond_site_symmetry_2
K0 Se26 3.377781 1_555
K0 Se3 3.525740 1_545
K0 Se20 3.583157 1_545
K0 Se28 3.610032 1_555
K0 Se4 3.674691 1_555
K0 Se19 3.697328 1_555
K0 Se31 3.876469 1_555
K1 Se27 3.377781 1_555
K1 Se2 3.525740 1_565
K1 Se21 3.583157 1_564
K1 Se29 3.610032 1_555
K1 Se5 3.674691 1_555
K1 Se18 3.697328 1_555
K1 Se30 3.876469 1_554
K2 Se24 3.377781 1_555
K2 Se1 3.525740 1_565
K2 Se22 3.583157 1_565
K2 Se30 3.610032 1_555
K2 Se6 3.674691 1_555
K2 Se17 3.697328 1_555
K2 Se29 3.876469 1_555
K3 Se25 3.377781 1_555
K3 Se0 3.525740 1_545
K3 Se23 3.583157 1_546
K3 Se31 3.610032 1_555
K3 Se7 3.674691 1_555
K3 Se16 3.697328 1_555
K3 Se28 3.876469 1_556
K4 Se24 3.457791 1_555
K4 Se15 3.470508 1_555
K4 Se21 3.520170 1_555
K4 Se12 3.530637 1_555
K4 Se9 3.578315 1_555
K4 Se29 3.676282 1_555
K4 Se1 3.855422 1_555
K5 Se25 3.457791 1_555
K5 Se14 3.470508 1_556
K5 Se20 3.520170 1_555
K5 Se13 3.530637 1_555
K5 Se8 3.578315 1_555
K5 Se28 3.676282 1_556
K5 Se0 3.855422 1_555
K6 Se26 3.457791 1_555
K6 Se13 3.470508 1_555
K6 Se23 3.520170 1_555
K6 Se14 3.530637 1_555
K6 Se11 3.578315 1_555
K6 Se31 3.676282 1_555
K6 Se3 3.855422 1_555
K7 Se27 3.457791 1_555
K7 Se12 3.470508 1_554
K7 Se22 3.520170 1_555
K7 Se15 3.530637 1_555
K7 Se10 3.578315 1_555
K7 Se30 3.676282 1_554
K7 Se2 3.855422 1_555
K8 Se26 3.355694 1_655
K8 Se22 3.368504 1_555
K8 Se24 3.422752 1_555
K8 Se16 3.430481 1_655
K8 Se4 3.483704 1_655
K8 Se12 3.677613 1_555
K8 Se10 3.863372 1_555
K8 Se6 3.949773 1_545
K9 Se27 3.355694 1_556
K9 Se23 3.368504 1_556
K9 Se25 3.422752 1_555
K9 Se17 3.430481 1_555
K9 Se5 3.483704 1_556
K9 Se13 3.677613 1_555
K9 Se11 3.863372 1_556
K9 Se7 3.949773 1_565
K10 Se24 3.355694 1_455
K10 Se20 3.368504 1_555
K10 Se26 3.422752 1_555
K10 Se18 3.430481 1_455
K10 Se6 3.483704 1_455
K10 Se14 3.677613 1_555
K10 Se8 3.863372 1_555
K10 Se4 3.949773 1_565
K11 Se25 3.355694 1_554
K11 Se21 3.368504 1_554
K11 Se27 3.422752 1_555
K11 Se19 3.430481 1_555
K11 Se7 3.483704 1_554
K11 Se15 3.677613 1_555
K11 Se9 3.863372 1_554
K11 Se5 3.949773 1_545
La0 Se28 3.058559 1_556
La0 Se12 3.094048 1_455
La0 Se16 3.122697 1_555
La0 Se2 3.173250 1_456
La0 Se10 3.197458 1_456
La0 Se0 3.236157 1_545
La0 Se4 3.287957 1_556
La0 Se8 3.372873 1_555
La0 Se6 3.619021 1_445
La1 Se29 3.058559 1_555
La1 Se13 3.094048 1_555
La1 Se17 3.122697 1_555
La1 Se3 3.173250 1_555
La1 Se11 3.197458 1_555
La1 Se1 3.236157 1_565
La1 Se5 3.287957 1_555
La1 Se9 3.372873 1_555
La1 Se7 3.619021 1_565
La2 Se30 3.058559 1_554
La2 Se14 3.094048 1_655
La2 Se18 3.122697 1_555
La2 Se0 3.173250 1_654
La2 Se8 3.197458 1_654
La2 Se2 3.236157 1_565
La2 Se6 3.287957 1_554
La2 Se10 3.372873 1_555
La2 Se4 3.619021 1_665
La3 Se31 3.058559 1_555
La3 Se15 3.094048 1_555
La3 Se19 3.122697 1_555
La3 Se1 3.173250 1_555
La3 Se9 3.197458 1_555
La3 Se3 3.236157 1_545
La3 Se7 3.287957 1_555
La3 Se11 3.372873 1_555
La3 Se5 3.619021 1_545
P0 Se24 2.196084 1_555
P0 Se30 2.225963 1_555
P0 Se12 2.234964 1_555
P0 Se8 2.250084 1_655
P1 Se25 2.196084 1_555
P1 Se31 2.225963 1_555
P1 Se13 2.234964 1_555
P1 Se9 2.250084 1_555
P2 Se26 2.196084 1_555
P2 Se28 2.225963 1_555
P2 Se14 2.234964 1_555
P2 Se10 2.250084 1_455
P3 Se27 2.196084 1_555
P3 Se29 2.225963 1_555
P3 Se15 2.234964 1_555
P3 Se11 2.250084 1_555
P4 Se20 2.192459 1_555
P4 Se16 2.216639 1_565
P4 Se6 2.237111 1_455
P4 Se0 2.248384 1_555
P5 Se21 2.192459 1_555
P5 Se17 2.216639 1_545
P5 Se7 2.237111 1_555
P5 Se1 2.248384 1_555
P6 Se22 2.192459 1_555
P6 Se18 2.216639 1_545
P6 Se4 2.237111 1_655
P6 Se2 2.248384 1_555
P7 Se23 2.192459 1_555
P7 Se19 2.216639 1_565
P7 Se5 2.237111 1_555
P7 Se3 2.248384 1_555
