# generated using pymatgen
data_Al2Tl3(PO4)3
_symmetry_space_group_name_H-M   'P 1'
_cell_length_a   6.22303900
_cell_length_b   10.54622100
_cell_length_c   18.06112000
_cell_angle_alpha   90.00000000
_cell_angle_beta   90.00000000
_cell_angle_gamma   90.00000000
_symmetry_Int_Tables_number   1
_chemical_formula_structural   Al2Tl3(PO4)3
_chemical_formula_sum   'Al8 Tl12 P12 O48'
_cell_volume   1185.34308031
_cell_formula_units_Z   4
loop_
 _symmetry_equiv_pos_site_id
 _symmetry_equiv_pos_as_xyz
  1  'x, y, z'
loop_
 _atom_site_type_symbol
 _atom_site_label
 _atom_site_symmetry_multiplicity
 _atom_site_fract_x
 _atom_site_fract_y
 _atom_site_fract_z
 _atom_site_occupancy
  Al  Al0  1  0.74265200  0.08302700  0.41715700  1
  Al  Al1  1  0.74265200  0.08302700  0.08284300  1
  Al  Al2  1  0.75734800  0.58302700  0.91715700  1
  Al  Al3  1  0.25734800  0.91697300  0.58284300  1
  Al  Al4  1  0.24265200  0.41697300  0.41715700  1
  Al  Al5  1  0.25734800  0.91697300  0.91715700  1
  Al  Al6  1  0.24265200  0.41697300  0.08284300  1
  Al  Al7  1  0.75734800  0.58302700  0.58284300  1
  Tl  Tl0  1  0.26486900  0.84195900  0.35864700  1
  Tl  Tl1  1  0.73414100  0.85947900  0.75000000  1
  Tl  Tl2  1  0.76486900  0.65804100  0.35864700  1
  Tl  Tl3  1  0.76585900  0.35947900  0.25000000  1
  Tl  Tl4  1  0.26486900  0.84195900  0.14135300  1
  Tl  Tl5  1  0.73513100  0.15804100  0.64135300  1
  Tl  Tl6  1  0.73513100  0.15804100  0.85864700  1
  Tl  Tl7  1  0.76486900  0.65804100  0.14135300  1
  Tl  Tl8  1  0.23513100  0.34195900  0.85864700  1
  Tl  Tl9  1  0.26585900  0.14052100  0.25000000  1
  Tl  Tl10  1  0.23513100  0.34195900  0.64135300  1
  Tl  Tl11  1  0.23414100  0.64052100  0.75000000  1
  P  P0  1  0.74868000  0.37271200  0.45969800  1
  P  P1  1  0.74192900  0.49380500  0.75000000  1
  P  P2  1  0.75132000  0.87271200  0.95969800  1
  P  P3  1  0.24868000  0.12728800  0.45969800  1
  P  P4  1  0.75807100  0.99380500  0.25000000  1
  P  P5  1  0.25132000  0.62728800  0.54030200  1
  P  P6  1  0.74868000  0.37271200  0.04030200  1
  P  P7  1  0.24868000  0.12728800  0.04030200  1
  P  P8  1  0.75132000  0.87271200  0.54030200  1
  P  P9  1  0.25807100  0.50619500  0.25000000  1
  P  P10  1  0.24192900  0.00619500  0.75000000  1
  P  P11  1  0.25132000  0.62728800  0.95969800  1
  O  O0  1  0.46041800  0.57461300  0.92198100  1
  O  O1  1  0.73856200  0.22758100  0.47110000  1
  O  O2  1  0.74636800  0.58704500  0.81749000  1
  O  O3  1  0.57042700  0.90955700  0.90695900  1
  O  O4  1  0.53410300  0.41401100  0.75000000  1
  O  O5  1  0.28842200  0.06997000  0.96203000  1
  O  O6  1  0.92957300  0.40955700  0.09304100  1
  O  O7  1  0.05766800  0.58757900  0.25000000  1
  O  O8  1  0.71157800  0.93003000  0.46203000  1
  O  O9  1  0.21157800  0.56997000  0.46203000  1
  O  O10  1  0.75363200  0.08704500  0.31749000  1
  O  O11  1  0.96589700  0.91401100  0.25000000  1
  O  O12  1  0.28842200  0.06997000  0.53797000  1
  O  O13  1  0.03410300  0.08598900  0.75000000  1
  O  O14  1  0.21157800  0.56997000  0.03797000  1
  O  O15  1  0.07042700  0.59044300  0.59304100  1
  O  O16  1  0.96041800  0.92538700  0.57801900  1
  O  O17  1  0.53958200  0.42538700  0.42198100  1
  O  O18  1  0.71157800  0.93003000  0.03797000  1
  O  O19  1  0.57042700  0.90955700  0.59304100  1
  O  O20  1  0.96041800  0.92538700  0.92198100  1
  O  O21  1  0.07042700  0.59044300  0.90695900  1
  O  O22  1  0.44233200  0.08757900  0.75000000  1
  O  O23  1  0.26143800  0.77241900  0.97110000  1
  O  O24  1  0.46041800  0.57461300  0.57801900  1
  O  O25  1  0.76143800  0.72758100  0.97110000  1
  O  O26  1  0.74636800  0.58704500  0.68251000  1
  O  O27  1  0.03958200  0.07461300  0.07801900  1
  O  O28  1  0.23856200  0.27241900  0.02890000  1
  O  O29  1  0.25363200  0.41295500  0.31749000  1
  O  O30  1  0.75363200  0.08704500  0.18251000  1
  O  O31  1  0.73856200  0.22758100  0.02890000  1
  O  O32  1  0.76143800  0.72758100  0.52890000  1
  O  O33  1  0.23856200  0.27241900  0.47110000  1
  O  O34  1  0.03958200  0.07461300  0.42198100  1
  O  O35  1  0.92957300  0.40955700  0.40695900  1
  O  O36  1  0.94233200  0.41242100  0.75000000  1
  O  O37  1  0.46589700  0.58598900  0.25000000  1
  O  O38  1  0.53958200  0.42538700  0.07801900  1
  O  O39  1  0.55766800  0.91242100  0.25000000  1
  O  O40  1  0.24636800  0.91295500  0.68251000  1
  O  O41  1  0.42957300  0.09044300  0.40695900  1
  O  O42  1  0.78842200  0.43003000  0.96203000  1
  O  O43  1  0.26143800  0.77241900  0.52890000  1
  O  O44  1  0.42957300  0.09044300  0.09304100  1
  O  O45  1  0.78842200  0.43003000  0.53797000  1
  O  O46  1  0.24636800  0.91295500  0.81749000  1
  O  O47  1  0.25363200  0.41295500  0.18251000  1
loop_
_geom_bond_atom_site_label_1
_geom_bond_atom_site_label_2
_geom_bond_distance
_geom_bond_site_symmetry_2
Al0 O10 1.801892 1_555
Al0 O1 1.809405 1_555
Al0 O8 1.815970 1_545
Al0 O34 1.851987 1_655
Al0 O41 1.958552 1_555
Al1 O30 1.801892 1_555
Al1 O31 1.809405 1_555
Al1 O18 1.815970 1_545
Al1 O27 1.851987 1_655
Al1 O44 1.958552 1_555
Al2 O2 1.801892 1_555
Al2 O25 1.809405 1_555
Al2 O42 1.815970 1_555
Al2 O0 1.851987 1_555
Al2 O21 1.958552 1_655
Al3 O40 1.801892 1_555
Al3 O43 1.809405 1_555
Al3 O12 1.815970 1_565
Al3 O16 1.851987 1_455
Al3 O19 1.958552 1_555
Al4 O29 1.801892 1_555
Al4 O33 1.809405 1_555
Al4 O9 1.815970 1_555
Al4 O17 1.851987 1_555
Al4 O35 1.958552 1_455
Al5 O46 1.801892 1_555
Al5 O23 1.809405 1_555
Al5 O5 1.815970 1_565
Al5 O20 1.851987 1_455
Al5 O3 1.958552 1_555
Al6 O47 1.801892 1_555
Al6 O28 1.809405 1_555
Al6 O14 1.815970 1_555
Al6 O38 1.851987 1_555
Al6 O6 1.958552 1_455
Al7 O26 1.801892 1_555
Al7 O32 1.809405 1_555
Al7 O45 1.815970 1_555
Al7 O24 1.851987 1_555
Al7 O15 1.958552 1_655
O0 P11 1.570299 1_555
O1 P0 1.545658 1_555
O2 P1 1.566374 1_555
O3 P2 1.524961 1_555
O4 P1 1.542989 1_555
O4 Tl8 2.808824 1_555
O4 Tl10 2.808824 1_555
O5 P7 1.557261 1_556
O6 P6 1.524961 1_555
O7 P9 1.513924 1_555
O7 Tl2 2.778997 1_455
O7 Tl7 2.778997 1_455
O8 P8 1.557261 1_555
O9 P5 1.557261 1_555
O10 P4 1.566374 1_545
O11 P4 1.542989 1_555
O11 Tl4 2.808824 1_655
O11 Tl0 2.808824 1_655
O12 P3 1.557261 1_555
O13 P10 1.542989 1_555
O13 Tl6 2.808824 1_455
O13 Tl5 2.808824 1_455
O14 P11 1.557261 1_554
O15 P5 1.524961 1_555
O16 P8 1.570299 1_555
O17 P0 1.570299 1_555
O18 P2 1.557261 1_554
O19 P8 1.524961 1_555
O20 P2 1.570299 1_555
O21 P11 1.524961 1_555
O22 P10 1.513924 1_555
O22 Tl6 2.778997 1_555
O22 Tl5 2.778997 1_555
O23 P11 1.545658 1_555
O24 P5 1.570299 1_555
O25 P2 1.545658 1_555
O26 P1 1.566374 1_555
O27 P7 1.570299 1_555
O28 P7 1.545658 1_555
O29 P9 1.566374 1_555
O30 P4 1.566374 1_545
O31 P6 1.545658 1_555
O32 P8 1.545658 1_555
O33 P3 1.545658 1_555
O34 P3 1.570299 1_555
O35 P0 1.524961 1_555
O36 P1 1.513924 1_555
O36 Tl8 2.778997 1_655
O36 Tl10 2.778997 1_655
O37 P9 1.542989 1_555
O37 Tl7 2.808824 1_555
O37 Tl2 2.808824 1_555
O38 P6 1.570299 1_555
O39 P4 1.513924 1_555
O39 Tl4 2.778997 1_555
O39 Tl0 2.778997 1_555
O40 P10 1.566374 1_565
O41 P3 1.524961 1_555
O42 P6 1.557261 1_556
O43 P5 1.545658 1_555
O44 P7 1.524961 1_555
O45 P0 1.557261 1_555
O46 P10 1.566374 1_565
O47 P9 1.566374 1_555
