# generated using pymatgen
data_TiMn2O4
_symmetry_space_group_name_H-M   'P 1'
_cell_length_a   6.19214719
_cell_length_b   6.17786039
_cell_length_c   30.60850379
_cell_angle_alpha   60.33739907
_cell_angle_beta   60.36002419
_cell_angle_gamma   58.73274253
_symmetry_Int_Tables_number   1
_chemical_formula_structural   TiMn2O4
_chemical_formula_sum   'Ti10 Mn20 O40'
_cell_volume   823.94959254
_cell_formula_units_Z   10
loop_
 _symmetry_equiv_pos_site_id
 _symmetry_equiv_pos_as_xyz
  1  'x, y, z'
loop_
 _atom_site_type_symbol
 _atom_site_label
 _atom_site_symmetry_multiplicity
 _atom_site_fract_x
 _atom_site_fract_y
 _atom_site_fract_z
 _atom_site_occupancy
  Ti  Ti0  1  0.00860700  0.00009500  0.99953400  1
  Ti  Ti1  1  0.13153100  0.62042800  0.12541500  1
  Ti  Ti2  1  0.62046900  0.13048100  0.12563600  1
  Ti  Ti3  1  0.12560100  0.62566900  0.32485900  1
  Ti  Ti4  1  0.62566200  0.12548800  0.32488500  1
  Ti  Ti5  1  0.12552500  0.62498300  0.52490400  1
  Ti  Ti6  1  0.62550300  0.12524600  0.52491900  1
  Ti  Ti7  1  0.12617700  0.62507600  0.72436100  1
  Ti  Ti8  1  0.62643600  0.12533200  0.72481800  1
  Ti  Ti9  1  0.14336200  0.62486500  0.92089300  1
  Mn  Mn0  1  0.24230700  0.24644200  0.05110400  1
  Mn  Mn1  1  0.24029100  0.24131400  0.25257900  1
  Mn  Mn2  1  0.63150900  0.62538000  0.02446600  1
  Mn  Mn3  1  0.00851600  0.00814100  0.19770600  1
  Mn  Mn4  1  0.62641800  0.62790800  0.12447600  1
  Mn  Mn5  1  0.62664200  0.62614900  0.22465800  1
  Mn  Mn6  1  0.24119300  0.24195300  0.45163700  1
  Mn  Mn7  1  0.00906500  0.00813700  0.39826800  1
  Mn  Mn8  1  0.62534300  0.62535800  0.32498400  1
  Mn  Mn9  1  0.24148200  0.24115400  0.65155400  1
  Mn  Mn10  1  0.00943600  0.00802100  0.59817700  1
  Mn  Mn11  1  0.62542100  0.62531600  0.42490000  1
  Mn  Mn12  1  0.62506900  0.62498700  0.52501600  1
  Mn  Mn13  1  0.23870700  0.25352400  0.84957700  1
  Mn  Mn14  1  0.00771900  0.00116500  0.80080000  1
  Mn  Mn15  1  0.62603500  0.62506500  0.62479000  1
  Mn  Mn16  1  0.62643100  0.62467700  0.72488700  1
  Mn  Mn17  1  0.62649300  0.12807200  0.92536400  1
  Mn  Mn18  1  0.62979100  0.62481800  0.82430200  1
  Mn  Mn19  1  0.62528500  0.62202100  0.92547300  1
  O  O0  1  0.37672500  0.37442700  0.08086900  1
  O  O1  1  0.37162700  0.37233500  0.17040100  1
  O  O2  1  0.36163600  0.83549200  0.08094100  1
  O  O3  1  0.83327000  0.36097400  0.08167300  1
  O  O4  1  0.37350200  0.37308500  0.28121000  1
  O  O5  1  0.41859500  0.88715800  0.16858600  1
  O  O6  1  0.37177000  0.37200400  0.36972300  1
  O  O7  1  0.88829100  0.41879200  0.16829200  1
  O  O8  1  0.88356000  0.88237100  0.07545400  1
  O  O9  1  0.36437700  0.83377400  0.28055000  1
  O  O10  1  0.83341000  0.36485300  0.28051100  1
  O  O11  1  0.87748200  0.87662600  0.16834700  1
  O  O12  1  0.37219900  0.37126900  0.48153100  1
  O  O13  1  0.41721600  0.88474400  0.36968800  1
  O  O14  1  0.37220900  0.37215500  0.56962000  1
  O  O15  1  0.88531100  0.41684900  0.36963900  1
  O  O16  1  0.87911600  0.87891100  0.27985900  1
  O  O17  1  0.36491200  0.83317500  0.48020100  1
  O  O18  1  0.83300100  0.36522100  0.48016500  1
  O  O19  1  0.87749700  0.87782000  0.36858900  1
  O  O20  1  0.37307700  0.36948500  0.68135500  1
  O  O21  1  0.41757500  0.88333200  0.57012500  1
  O  O22  1  0.37632500  0.37362100  0.76817100  1
  O  O23  1  0.88481000  0.41658200  0.56989600  1
  O  O24  1  0.36634900  0.83251900  0.67959300  1
  O  O25  1  0.87809000  0.87766700  0.48027800  1
  O  O26  1  0.83378400  0.36598000  0.67932800  1
  O  O27  1  0.87801300  0.87796200  0.56850200  1
  O  O28  1  0.41976200  0.88060300  0.77093300  1
  O  O29  1  0.35480800  0.39594600  0.87870300  1
  O  O30  1  0.88645200  0.41324700  0.77038700  1
  O  O31  1  0.35456700  0.39531600  0.97050800  1
  O  O32  1  0.87856300  0.87583400  0.68018800  1
  O  O33  1  0.35567800  0.84484400  0.87832800  1
  O  O34  1  0.83928800  0.39303200  0.87473900  1
  O  O35  1  0.88086600  0.88028500  0.76764000  1
  O  O36  1  0.37579300  0.87050300  0.97593300  1
  O  O37  1  0.88696600  0.37473500  0.97459000  1
  O  O38  1  0.87683100  0.85204200  0.88398900  1
  O  O39  1  0.88467400  0.86716300  0.97602200  1
loop_
_geom_bond_atom_site_label_1
_geom_bond_atom_site_label_2
_geom_bond_distance
_geom_bond_site_symmetry_2
Mn0 O31 2.033870 1_554
Mn0 O3 2.059657 1_455
Mn0 O2 2.061730 1_545
Mn0 O0 2.072238 1_555
Mn1 O9 2.042374 1_545
Mn1 O10 2.044598 1_455
Mn1 O4 2.056512 1_555
Mn1 O1 2.070832 1_555
Mn2 O3 2.123546 1_555
Mn2 O2 2.139527 1_555
Mn2 O36 2.148979 1_554
Mn2 O37 2.153854 1_554
Mn2 O39 2.196963 1_554
Mn2 O0 2.251429 1_555
Mn3 O7 2.059749 1_455
Mn3 O5 2.061941 1_545
Mn3 O11 2.062568 1_445
Mn3 O16 2.070425 1_445
Mn4 O5 2.079989 1_555
Mn4 O7 2.087726 1_555
Mn4 O3 2.088668 1_555
Mn4 O2 2.096512 1_555
Mn4 O1 2.270136 1_555
Mn4 O8 2.271251 1_555
Mn5 O10 2.110865 1_555
Mn5 O9 2.114466 1_555
Mn5 O5 2.120536 1_555
Mn5 O7 2.123878 1_555
Mn5 O11 2.232704 1_555
Mn5 O4 2.253685 1_555
Mn6 O17 2.048810 1_545
Mn6 O18 2.051377 1_455
Mn6 O6 2.064217 1_555
Mn6 O12 2.064940 1_555
Mn7 O15 2.048465 1_455
Mn7 O13 2.051124 1_545
Mn7 O25 2.066613 1_445
Mn7 O19 2.067335 1_445
Mn8 O13 2.093642 1_555
Mn8 O10 2.093864 1_555
Mn8 O9 2.097513 1_555
Mn8 O15 2.097597 1_555
Mn8 O6 2.256857 1_555
Mn8 O16 2.257794 1_555
Mn9 O24 2.047708 1_545
Mn9 O26 2.048376 1_455
Mn9 O20 2.060621 1_555
Mn9 O14 2.064676 1_555
Mn10 O23 2.047392 1_455
Mn10 O21 2.050638 1_545
Mn10 O27 2.065210 1_445
Mn10 O32 2.066589 1_445
Mn11 O18 2.100432 1_555
Mn11 O13 2.101429 1_555
Mn11 O17 2.101591 1_555
Mn11 O15 2.102804 1_555
Mn11 O19 2.246305 1_555
Mn11 O12 2.258322 1_555
Mn12 O21 2.098161 1_555
Mn12 O18 2.098854 1_555
Mn12 O23 2.101597 1_555
Mn12 O17 2.102278 1_555
Mn12 O25 2.251138 1_555
Mn12 O14 2.251421 1_555
Mn13 O34 2.003293 1_455
Mn13 O29 2.037820 1_555
Mn13 O33 2.050978 1_545
Mn13 O22 2.052221 1_555
Mn14 O30 2.067073 1_455
Mn14 O28 2.072318 1_545
Mn14 O35 2.086279 1_445
Mn14 O38 2.097911 1_445
Mn15 O26 2.084569 1_555
Mn15 O24 2.088707 1_555
Mn15 O21 2.089860 1_555
Mn15 O23 2.094339 1_555
Mn15 O27 2.247479 1_555
Mn15 O20 2.263469 1_555
Mn16 O28 2.108357 1_555
Mn16 O26 2.110028 1_555
Mn16 O24 2.112867 1_555
Mn16 O30 2.114791 1_555
Mn16 O22 2.233701 1_555
Mn16 O32 2.239992 1_555
Mn17 O38 2.089620 1_545
Mn17 O34 2.127354 1_555
Mn17 O31 2.131031 1_555
Mn17 O29 2.180773 1_555
Mn17 O39 2.204839 1_545
Mn17 O36 2.255534 1_545
Mn18 O34 1.995275 1_555
Mn18 O28 2.066379 1_555
Mn18 O30 2.083754 1_555
Mn18 O33 2.125285 1_555
Mn18 O29 2.244034 1_555
Mn18 O35 2.255373 1_555
Mn19 O34 2.088486 1_555
Mn19 O38 2.147856 1_555
Mn19 O36 2.157202 1_555
Mn19 O37 2.187745 1_555
Mn19 O33 2.189848 1_555
Mn19 O31 2.216410 1_555
O0 Ti2 2.016740 1_555
O0 Ti1 2.020424 1_555
O1 Ti1 2.006485 1_555
O1 Ti2 2.008065 1_555
O2 Ti1 1.976122 1_555
O3 Ti2 1.967766 1_555
O4 Ti3 2.030949 1_555
O4 Ti4 2.031308 1_555
O5 Ti2 1.979820 1_565
O6 Ti4 2.030705 1_555
O6 Ti3 2.031209 1_555
O7 Ti1 1.979148 1_655
O8 Ti0 1.913268 1_664
O8 Ti1 2.146789 1_655
O8 Ti2 2.150786 1_565
O9 Ti3 1.985533 1_555
O10 Ti4 1.986177 1_555
O11 Ti1 2.033705 1_655
O11 Ti2 2.034467 1_565
O12 Ti5 2.030021 1_555
O12 Ti6 2.030203 1_555
O13 Ti4 1.995456 1_565
O14 Ti6 2.029395 1_555
O14 Ti5 2.030140 1_555
O15 Ti3 1.995507 1_655
O16 Ti4 2.034657 1_565
O16 Ti3 2.035203 1_655
O17 Ti5 1.988676 1_555
O18 Ti6 1.987869 1_555
O19 Ti4 2.030496 1_565
O19 Ti3 2.030761 1_655
O20 Ti7 2.030812 1_555
O20 Ti8 2.031737 1_555
O21 Ti6 1.998601 1_565
O22 Ti8 2.007029 1_555
O22 Ti7 2.026187 1_555
O23 Ti5 1.995663 1_655
O24 Ti7 1.989074 1_555
O25 Ti6 2.030802 1_565
O25 Ti5 2.031464 1_655
O26 Ti8 1.990424 1_555
O27 Ti6 2.030905 1_565
O27 Ti5 2.031551 1_655
O28 Ti8 2.006374 1_565
O29 Ti9 1.896077 1_555
O30 Ti7 2.006003 1_655
O31 Ti9 1.983762 1_555
O32 Ti7 2.022500 1_655
O32 Ti8 2.038612 1_565
O33 Ti9 1.918522 1_555
O35 Ti8 2.023498 1_565
O35 Ti7 2.034429 1_655
O36 Ti0 1.841376 1_565
O37 Ti0 1.875411 1_655
O37 Ti9 2.249831 1_655
O38 Ti9 1.959550 1_655
O39 Ti0 1.888576 1_665
O39 Ti9 2.234156 1_655
