# generated using pymatgen
data_CuAs2S4(O2F3)4
_symmetry_space_group_name_H-M   'P 1'
_cell_length_a   13.21465700
_cell_length_b   7.69046000
_cell_length_c   9.19780048
_cell_angle_alpha   74.84796737
_cell_angle_beta   90.00000000
_cell_angle_gamma   90.00000000
_symmetry_Int_Tables_number   1
_chemical_formula_structural   CuAs2S4(O2F3)4
_chemical_formula_sum   'Cu2 As4 S8 O16 F24'
_cell_volume   902.24722434
_cell_formula_units_Z   2
loop_
 _symmetry_equiv_pos_site_id
 _symmetry_equiv_pos_as_xyz
  1  'x, y, z'
loop_
 _atom_site_type_symbol
 _atom_site_label
 _atom_site_symmetry_multiplicity
 _atom_site_fract_x
 _atom_site_fract_y
 _atom_site_fract_z
 _atom_site_occupancy
  Cu  Cu0  1  0.50000000  0.00000000  0.50000000  1
  Cu  Cu1  1  0.00000000  0.00000000  0.00000000  1
  As  As0  1  0.86496700  0.68592600  0.78488200  1
  As  As1  1  0.63503300  0.68592600  0.28488200  1
  As  As2  1  0.13503300  0.31407400  0.21511800  1
  As  As3  1  0.36496700  0.31407400  0.71511800  1
  S  S0  1  0.70706600  0.20412800  0.54852200  1
  S  S1  1  0.45775400  0.27234700  0.16880300  1
  S  S2  1  0.95775400  0.72765300  0.33119700  1
  S  S3  1  0.79293400  0.20412800  0.04852200  1
  S  S4  1  0.20706600  0.79587200  0.95147800  1
  S  S5  1  0.54224600  0.72765300  0.83119700  1
  S  S6  1  0.04224600  0.27234700  0.66880300  1
  S  S7  1  0.29293400  0.79587200  0.45147800  1
  O  O0  1  0.93649500  0.81961400  0.17195400  1
  O  O1  1  0.30902000  0.82901000  0.29221400  1
  O  O2  1  0.56350500  0.81961400  0.67195400  1
  O  O3  1  0.06350500  0.18038600  0.82804600  1
  O  O4  1  0.43649500  0.18038600  0.32804600  1
  O  O5  1  0.55053900  0.22701300  0.10609600  1
  O  O6  1  0.44946100  0.77298700  0.89390400  1
  O  O7  1  0.19098000  0.82901000  0.79221400  1
  O  O8  1  0.86872100  0.13018700  0.96226400  1
  O  O9  1  0.05053900  0.77298700  0.39390400  1
  O  O10  1  0.69098000  0.17099000  0.70778600  1
  O  O11  1  0.36872100  0.86981300  0.53773600  1
  O  O12  1  0.63127900  0.13018700  0.46226400  1
  O  O13  1  0.94946100  0.22701300  0.60609600  1
  O  O14  1  0.80902000  0.17099000  0.20778600  1
  O  O15  1  0.13127900  0.86981300  0.03773600  1
  F  F0  1  0.53983600  0.82607200  0.33719700  1
  F  F1  1  0.77425200  0.54299200  0.73601300  1
  F  F2  1  0.64756400  0.84624300  0.10879300  1
  F  F3  1  0.14756400  0.15375700  0.39120700  1
  F  F4  1  0.85243600  0.84624300  0.60879300  1
  F  F5  1  0.53650900  0.57788800  0.20786200  1
  F  F6  1  0.38240900  0.47269200  0.53687100  1
  F  F7  1  0.03650900  0.42211200  0.29213800  1
  F  F8  1  0.35243600  0.15375700  0.89120700  1
  F  F9  1  0.72574800  0.54299200  0.23601300  1
  F  F10  1  0.11759100  0.47269200  0.03687100  1
  F  F11  1  0.22574800  0.45700800  0.26398700  1
  F  F12  1  0.96016400  0.82607200  0.83719700  1
  F  F13  1  0.96349100  0.57788800  0.70786200  1
  F  F14  1  0.22894200  0.20302400  0.13722000  1
  F  F15  1  0.27425200  0.45700800  0.76398700  1
  F  F16  1  0.46016400  0.17392800  0.66280300  1
  F  F17  1  0.77105800  0.79697600  0.86278000  1
  F  F18  1  0.03983600  0.17392800  0.16280300  1
  F  F19  1  0.61759100  0.52730800  0.46312900  1
  F  F20  1  0.88240900  0.52730800  0.96312900  1
  F  F21  1  0.72894200  0.79697600  0.36278000  1
  F  F22  1  0.27105800  0.20302400  0.63722000  1
  F  F23  1  0.46349100  0.42211200  0.79213800  1
loop_
_geom_bond_atom_site_label_1
_geom_bond_atom_site_label_2
_geom_bond_distance
_geom_bond_site_symmetry_2
Cu0 O12 1.987652 1_555
Cu0 O11 1.987652 1_545
Cu0 O2 1.995794 1_545
Cu0 O4 1.995794 1_555
Cu0 F16 2.314219 1_555
Cu0 F0 2.314219 1_545
Cu1 O15 1.987652 1_545
Cu1 O8 1.987652 1_454
Cu1 O3 1.995794 1_554
Cu1 O0 1.995794 1_445
Cu1 F18 2.314219 1_555
Cu1 F12 2.314219 1_444
As0 F17 1.761425 1_555
As0 F1 1.762293 1_555
As0 F4 1.768280 1_555
As0 F20 1.784255 1_555
As0 F13 1.787451 1_555
As0 F12 1.801895 1_555
As1 F21 1.761425 1_555
As1 F9 1.762293 1_555
As1 F2 1.768280 1_555
As1 F19 1.784255 1_555
As1 F5 1.787451 1_555
As1 F0 1.801895 1_555
As2 F14 1.761425 1_555
As2 F11 1.762293 1_555
As2 F3 1.768280 1_555
As2 F10 1.784255 1_555
As2 F7 1.787451 1_555
As2 F18 1.801895 1_555
As3 F22 1.761425 1_555
As3 F15 1.762293 1_555
As3 F8 1.768280 1_555
As3 F6 1.784255 1_555
As3 F23 1.787451 1_555
As3 F16 1.801895 1_555
O0 S2 1.477458 1_555
O1 S7 1.435564 1_555
O2 S5 1.477458 1_555
O3 S6 1.477458 1_555
O4 S1 1.477458 1_555
O5 S1 1.436211 1_555
O6 S5 1.436211 1_555
O7 S4 1.435564 1_555
O8 S3 1.480424 1_556
O9 S2 1.436211 1_455
O10 S0 1.435564 1_555
O11 S7 1.480424 1_555
O12 S0 1.480424 1_555
O13 S6 1.436211 1_655
O14 S3 1.435564 1_555
O15 S4 1.480424 1_554
