# generated using pymatgen
data_Gd3Sc2(GaO4)3
_symmetry_space_group_name_H-M   'P 1'
_cell_length_a   11.04688322
_cell_length_b   11.04688322
_cell_length_c   11.04688322
_cell_angle_alpha   109.47122063
_cell_angle_beta   109.47122063
_cell_angle_gamma   109.47122063
_symmetry_Int_Tables_number   1
_chemical_formula_structural   Gd3Sc2(GaO4)3
_chemical_formula_sum   'Gd12 Sc8 Ga12 O48'
_cell_volume   1037.76112550
_cell_formula_units_Z   4
loop_
 _symmetry_equiv_pos_site_id
 _symmetry_equiv_pos_as_xyz
  1  'x, y, z'
loop_
 _atom_site_type_symbol
 _atom_site_label
 _atom_site_symmetry_multiplicity
 _atom_site_fract_x
 _atom_site_fract_y
 _atom_site_fract_z
 _atom_site_occupancy
  Gd  Gd0  1  0.25000000  0.12500000  0.87500000  1
  Gd  Gd1  1  0.37500000  0.62500000  0.75000000  1
  Gd  Gd2  1  0.25000000  0.62500000  0.37500000  1
  Gd  Gd3  1  0.62500000  0.75000000  0.37500000  1
  Gd  Gd4  1  0.12500000  0.75000000  0.87500000  1
  Gd  Gd5  1  0.75000000  0.37500000  0.62500000  1
  Gd  Gd6  1  0.75000000  0.87500000  0.12500000  1
  Gd  Gd7  1  0.87500000  0.12500000  0.75000000  1
  Gd  Gd8  1  0.12500000  0.87500000  0.25000000  1
  Gd  Gd9  1  0.37500000  0.25000000  0.62500000  1
  Gd  Gd10  1  0.87500000  0.25000000  0.12500000  1
  Gd  Gd11  1  0.62500000  0.37500000  0.25000000  1
  Sc  Sc0  1  0.50000000  0.50000000  0.50000000  1
  Sc  Sc1  1  0.00000000  0.00000000  0.00000000  1
  Sc  Sc2  1  0.50000000  0.00000000  0.50000000  1
  Sc  Sc3  1  0.50000000  0.50000000  0.00000000  1
  Sc  Sc4  1  0.00000000  0.00000000  0.50000000  1
  Sc  Sc5  1  0.00000000  0.50000000  0.00000000  1
  Sc  Sc6  1  0.50000000  0.00000000  0.00000000  1
  Sc  Sc7  1  0.00000000  0.50000000  0.50000000  1
  Ga  Ga0  1  0.62500000  0.25000000  0.87500000  1
  Ga  Ga1  1  0.25000000  0.37500000  0.12500000  1
  Ga  Ga2  1  0.87500000  0.62500000  0.25000000  1
  Ga  Ga3  1  0.37500000  0.12500000  0.25000000  1
  Ga  Ga4  1  0.75000000  0.62500000  0.87500000  1
  Ga  Ga5  1  0.12500000  0.37500000  0.75000000  1
  Ga  Ga6  1  0.87500000  0.75000000  0.62500000  1
  Ga  Ga7  1  0.25000000  0.87500000  0.62500000  1
  Ga  Ga8  1  0.75000000  0.12500000  0.37500000  1
  Ga  Ga9  1  0.37500000  0.75000000  0.12500000  1
  Ga  Ga10  1  0.62500000  0.87500000  0.75000000  1
  Ga  Ga11  1  0.12500000  0.25000000  0.37500000  1
  O  O0  1  0.94184500  0.77228700  0.88399700  1
  O  O1  1  0.16955900  0.22771300  0.61171100  1
  O  O2  1  0.16955900  0.44184500  0.55784800  1
  O  O3  1  0.11600300  0.05815400  0.22771300  1
  O  O4  1  0.38828900  0.83044100  0.77228700  1
  O  O5  1  0.88828900  0.27228700  0.33044100  1
  O  O6  1  0.88399700  0.94184500  0.77228700  1
  O  O7  1  0.44215200  0.11171100  0.88399700  1
  O  O8  1  0.77228700  0.38828900  0.83044100  1
  O  O9  1  0.94184500  0.66955900  0.05784800  1
  O  O10  1  0.05815500  0.22771300  0.11600300  1
  O  O11  1  0.27228700  0.44184500  0.38399700  1
  O  O12  1  0.55784800  0.16955900  0.44184500  1
  O  O13  1  0.88399700  0.44215200  0.11171100  1
  O  O14  1  0.05784800  0.94184500  0.66955900  1
  O  O15  1  0.77228700  0.88399700  0.94184500  1
  O  O16  1  0.33044100  0.88828900  0.27228700  1
  O  O17  1  0.05784800  0.61600300  0.38828900  1
  O  O18  1  0.94215200  0.38399700  0.61171100  1
  O  O19  1  0.05815500  0.33044100  0.94215200  1
  O  O20  1  0.44215200  0.83044100  0.55815500  1
  O  O21  1  0.55815400  0.44215200  0.83044100  1
  O  O22  1  0.11600300  0.55784800  0.88828900  1
  O  O23  1  0.61600300  0.38828900  0.05784800  1
  O  O24  1  0.72771300  0.66955900  0.11171100  1
  O  O25  1  0.72771300  0.55815500  0.61600300  1
  O  O26  1  0.27228700  0.33044100  0.88828900  1
  O  O27  1  0.44184500  0.55784800  0.16955900  1
  O  O28  1  0.66955900  0.11171100  0.72771300  1
  O  O29  1  0.38399700  0.61171100  0.94215200  1
  O  O30  1  0.33044100  0.94215200  0.05815500  1
  O  O31  1  0.83044100  0.55815400  0.44215200  1
  O  O32  1  0.66955900  0.05784800  0.94184500  1
  O  O33  1  0.11171100  0.88399700  0.44215200  1
  O  O34  1  0.83044100  0.77228700  0.38828900  1
  O  O35  1  0.38828900  0.05784800  0.61600300  1
  O  O36  1  0.61600300  0.72771300  0.55815500  1
  O  O37  1  0.88828900  0.11600300  0.55784800  1
  O  O38  1  0.44184500  0.38399700  0.27228700  1
  O  O39  1  0.61171100  0.94215200  0.38399700  1
  O  O40  1  0.55815500  0.61600300  0.72771300  1
  O  O41  1  0.94215200  0.05815500  0.33044100  1
  O  O42  1  0.11171100  0.72771300  0.66955900  1
  O  O43  1  0.61171100  0.16955900  0.22771300  1
  O  O44  1  0.38399700  0.27228700  0.44184500  1
  O  O45  1  0.22771300  0.61171100  0.16955900  1
  O  O46  1  0.55784800  0.88828900  0.11600300  1
  O  O47  1  0.22771300  0.11600300  0.05815500  1
loop_
_geom_bond_atom_site_label_1
_geom_bond_atom_site_label_2
_geom_bond_distance
_geom_bond_site_symmetry_2
Gd0 O26 2.148025 1_555
Gd0 O7 2.148028 1_555
Gd0 O14 2.148028 1_545
Gd0 O47 2.148033 1_556
Gd1 O4 2.148025 1_555
Gd1 O29 2.148028 1_555
Gd1 O2 2.148028 1_555
Gd1 O40 2.148033 1_555
Gd2 O45 2.148025 1_555
Gd2 O17 2.148028 1_555
Gd2 O20 2.148028 1_555
Gd2 O11 2.148033 1_555
Gd3 O34 2.148025 1_555
Gd3 O39 2.148028 1_555
Gd3 O27 2.148028 1_555
Gd3 O36 2.148033 1_555
Gd4 O42 2.148025 1_555
Gd4 O30 2.148028 1_556
Gd4 O22 2.148028 1_555
Gd4 O0 2.148033 1_455
Gd5 O8 2.148025 1_555
Gd5 O18 2.148028 1_555
Gd5 O12 2.148028 1_555
Gd5 O25 2.148033 1_555
Gd6 O24 2.148025 1_555
Gd6 O41 2.148028 1_565
Gd6 O46 2.148028 1_555
Gd6 O15 2.148033 1_554
Gd7 O28 2.148025 1_555
Gd7 O37 2.148028 1_555
Gd7 O19 2.148028 1_655
Gd7 O6 2.148033 1_545
Gd8 O3 2.148022 1_565
Gd8 O16 2.148025 1_555
Gd8 O9 2.148028 1_455
Gd8 O33 2.148028 1_555
Gd9 O21 2.148025 1_555
Gd9 O1 2.148025 1_555
Gd9 O35 2.148028 1_555
Gd9 O44 2.148033 1_555
Gd10 O5 2.148025 1_555
Gd10 O13 2.148028 1_555
Gd10 O32 2.148028 1_554
Gd10 O10 2.148033 1_655
Gd11 O31 2.148025 1_555
Gd11 O43 2.148025 1_555
Gd11 O23 2.148028 1_555
Gd11 O38 2.148033 1_555
Ga0 O23 2.145119 1_556
Ga0 O7 2.145119 1_555
Ga0 O8 2.145126 1_555
Ga0 O28 2.145126 1_555
Ga1 O19 2.145119 1_554
Ga1 O27 2.145119 1_555
Ga1 O10 2.145124 1_555
Ga1 O38 2.145124 1_555
Ga2 O17 2.145119 1_655
Ga2 O13 2.145119 1_555
Ga2 O34 2.145126 1_555
Ga2 O24 2.145126 1_555
Ga3 O30 2.145119 1_545
Ga3 O12 2.145119 1_555
Ga3 O47 2.145124 1_555
Ga3 O44 2.145124 1_555
Ga4 O9 2.145119 1_556
Ga4 O40 2.145124 1_555
Ga4 O0 2.145124 1_555
Ga4 O21 2.145126 1_555
Ga5 O18 2.145119 1_455
Ga5 O22 2.145119 1_555
Ga5 O26 2.145126 1_555
Ga5 O1 2.145126 1_555
Ga6 O14 2.145119 1_655
Ga6 O6 2.145124 1_555
Ga6 O25 2.145124 1_555
Ga6 O31 2.145126 1_555
Ga7 O35 2.145119 1_565
Ga7 O33 2.145119 1_555
Ga7 O4 2.145126 1_555
Ga7 O42 2.145126 1_555
Ga8 O39 2.145119 1_545
Ga8 O37 2.145119 1_555
Ga8 O5 2.145126 1_555
Ga8 O43 2.145126 1_555
Ga9 O46 2.145119 1_555
Ga9 O29 2.145119 1_554
Ga9 O45 2.145126 1_555
Ga9 O16 2.145126 1_555
Ga10 O32 2.145119 1_565
Ga10 O20 2.145119 1_555
Ga10 O36 2.145124 1_555
Ga10 O15 2.145124 1_555
Ga11 O41 2.145119 1_455
Ga11 O2 2.145119 1_555
Ga11 O11 2.145124 1_555
Ga11 O3 2.145132 1_555
O0 Sc1 2.146503 1_666
O1 Sc4 2.146505 1_555
O2 Sc7 2.146513 1_555
O3 Sc1 2.146506 1_555
O4 Sc6 2.146505 1_566
O5 Sc7 2.146505 1_655
O6 Sc1 2.146503 1_666
O7 Sc6 2.146513 1_556
O8 Sc5 2.146505 1_656
O9 Sc5 2.146513 1_655
O10 Sc1 2.146503 1_555
O11 Sc0 2.146503 1_555
O12 Sc2 2.146513 1_555
O13 Sc5 2.146513 1_655
O14 Sc4 2.146513 1_565
O15 Sc1 2.146503 1_666
O16 Sc2 2.146505 1_565
O17 Sc7 2.146513 1_555
O18 Sc7 2.146513 1_655
O19 Sc5 2.146513 1_556
O20 Sc2 2.146513 1_565
O21 Sc3 2.146505 1_556
O22 Sc5 2.146513 1_556
O23 Sc3 2.146513 1_555
O24 Sc3 2.146505 1_555
O25 Sc0 2.146503 1_555
O26 Sc3 2.146505 1_556
O27 Sc3 2.146513 1_555
O28 Sc2 2.146505 1_555
O29 Sc3 2.146513 1_556
O30 Sc6 2.146513 1_565
O31 Sc7 2.146505 1_655
O32 Sc6 2.146513 1_556
O33 Sc4 2.146513 1_565
O34 Sc4 2.146505 1_665
O35 Sc2 2.146513 1_555
O36 Sc0 2.146503 1_555
O37 Sc4 2.146513 1_655
O38 Sc0 2.146503 1_555
O39 Sc2 2.146513 1_565
O40 Sc0 2.146503 1_555
O41 Sc4 2.146513 1_655
O42 Sc7 2.146505 1_555
O43 Sc6 2.146505 1_555
O44 Sc0 2.146503 1_555
O45 Sc5 2.146505 1_555
O46 Sc6 2.146513 1_565
O47 Sc1 2.146503 1_555
