# generated using pymatgen
data_Mg10Ge3(H2O9)2
_symmetry_space_group_name_H-M   'P 1'
_cell_length_a   5.23150800
_cell_length_b   8.98686000
_cell_length_c   14.34582700
_cell_angle_alpha   90.00000000
_cell_angle_beta   90.00000000
_cell_angle_gamma   90.00000000
_symmetry_Int_Tables_number   1
_chemical_formula_structural   Mg10Ge3(H2O9)2
_chemical_formula_sum   'Mg20 Ge6 H8 O36'
_cell_volume   674.46661740
_cell_formula_units_Z   2
loop_
 _symmetry_equiv_pos_site_id
 _symmetry_equiv_pos_as_xyz
  1  'x, y, z'
loop_
 _atom_site_type_symbol
 _atom_site_label
 _atom_site_symmetry_multiplicity
 _atom_site_fract_x
 _atom_site_fract_y
 _atom_site_fract_z
 _atom_site_occupancy
  Mg  Mg0  1  0.50000000  0.17541900  0.00000000  1
  Mg  Mg1  1  0.33957300  0.00000000  0.17387700  1
  Mg  Mg2  1  0.83957300  0.50000000  0.32612300  1
  Mg  Mg3  1  0.34389800  0.67540500  0.32209600  1
  Mg  Mg4  1  0.00000000  0.32458100  0.50000000  1
  Mg  Mg5  1  0.16042700  0.50000000  0.67387700  1
  Mg  Mg6  1  0.00000000  0.65989400  0.00000000  1
  Mg  Mg7  1  0.65610200  0.32459500  0.67790400  1
  Mg  Mg8  1  0.15610200  0.17540500  0.82209600  1
  Mg  Mg9  1  0.50000000  0.82458100  0.00000000  1
  Mg  Mg10  1  0.00000000  0.34010600  0.00000000  1
  Mg  Mg11  1  0.15610200  0.82459500  0.82209600  1
  Mg  Mg12  1  0.00000000  0.67541900  0.50000000  1
  Mg  Mg13  1  0.84389800  0.82459500  0.17790400  1
  Mg  Mg14  1  0.66042700  0.00000000  0.82612300  1
  Mg  Mg15  1  0.50000000  0.15989400  0.50000000  1
  Mg  Mg16  1  0.34389800  0.32459500  0.32209600  1
  Mg  Mg17  1  0.50000000  0.84010600  0.50000000  1
  Mg  Mg18  1  0.84389800  0.17540500  0.17790400  1
  Mg  Mg19  1  0.65610200  0.67540500  0.67790400  1
  Ge  Ge0  1  0.50000000  0.50000000  0.50000000  1
  Ge  Ge1  1  0.48398800  0.50000000  0.87694400  1
  Ge  Ge2  1  0.00000000  0.00000000  0.00000000  1
  Ge  Ge3  1  0.01601200  0.00000000  0.37694400  1
  Ge  Ge4  1  0.98398800  0.00000000  0.62305600  1
  Ge  Ge5  1  0.51601200  0.50000000  0.12305600  1
  H  H0  1  0.42377100  0.10048400  0.69027400  1
  H  H1  1  0.92377100  0.39951600  0.80972600  1
  H  H2  1  0.92377100  0.60048400  0.80972600  1
  H  H3  1  0.07622900  0.60048400  0.19027400  1
  H  H4  1  0.57622900  0.89951600  0.30972600  1
  H  H5  1  0.07622900  0.39951600  0.19027400  1
  H  H6  1  0.57622900  0.10048400  0.30972600  1
  H  H7  1  0.42377100  0.89951600  0.69027400  1
  O  O0  1  0.68258400  0.00000000  0.08175800  1
  O  O1  1  0.82390400  0.83364200  0.58442900  1
  O  O2  1  0.68866000  0.00000000  0.41475400  1
  O  O3  1  0.82390400  0.16635800  0.58442900  1
  O  O4  1  0.52124300  0.15639400  0.25378300  1
  O  O5  1  0.97875700  0.34360600  0.75378300  1
  O  O6  1  0.01048900  0.00000000  0.25246800  1
  O  O7  1  0.65134600  0.34948300  0.42382000  1
  O  O8  1  0.47875700  0.15639400  0.74621700  1
  O  O9  1  0.32390400  0.66635800  0.91557100  1
  O  O10  1  0.67609600  0.66635800  0.08442900  1
  O  O11  1  0.15134600  0.15051700  0.07618000  1
  O  O12  1  0.31134000  0.00000000  0.58524600  1
  O  O13  1  0.32390400  0.33364200  0.91557100  1
  O  O14  1  0.47875700  0.84360600  0.74621700  1
  O  O15  1  0.02124300  0.65639400  0.24621700  1
  O  O16  1  0.31741600  0.00000000  0.91824200  1
  O  O17  1  0.65134600  0.65051700  0.42382000  1
  O  O18  1  0.34865400  0.65051700  0.57618000  1
  O  O19  1  0.98951100  0.00000000  0.74753200  1
  O  O20  1  0.48951100  0.50000000  0.75246800  1
  O  O21  1  0.18866000  0.50000000  0.08524600  1
  O  O22  1  0.84865400  0.84948300  0.92382000  1
  O  O23  1  0.81741600  0.50000000  0.58175800  1
  O  O24  1  0.81134000  0.50000000  0.91475400  1
  O  O25  1  0.34865400  0.34948300  0.57618000  1
  O  O26  1  0.17609600  0.16635800  0.41557100  1
  O  O27  1  0.18258400  0.50000000  0.41824200  1
  O  O28  1  0.02124300  0.34360600  0.24621700  1
  O  O29  1  0.15134600  0.84948300  0.07618000  1
  O  O30  1  0.17609600  0.83364200  0.41557100  1
  O  O31  1  0.84865400  0.15051700  0.92382000  1
  O  O32  1  0.97875700  0.65639400  0.75378300  1
  O  O33  1  0.52124300  0.84360600  0.25378300  1
  O  O34  1  0.51048900  0.50000000  0.24753200  1
  O  O35  1  0.67609600  0.33364200  0.08442900  1
loop_
_geom_bond_atom_site_label_1
_geom_bond_atom_site_label_2
_geom_bond_distance
_geom_bond_site_symmetry_2
Mg0 O13 2.082688 1_554
Mg0 O35 2.082688 1_555
Mg0 O31 2.138074 1_554
Mg0 O11 2.138074 1_555
Mg0 O16 2.184787 1_554
Mg0 O0 2.184787 1_555
Mg1 O33 2.047614 1_545
Mg1 O4 2.047614 1_555
Mg1 O6 2.057930 1_555
Mg1 O29 2.182593 1_545
Mg1 O11 2.182593 1_555
Mg1 O0 2.228571 1_555
Mg2 O15 2.047614 1_655
Mg2 O28 2.047614 1_655
Mg2 O34 2.057930 1_555
Mg2 O7 2.182593 1_555
Mg2 O17 2.182593 1_555
Mg2 O27 2.228571 1_655
Mg3 O15 2.015781 1_555
Mg3 O33 2.026357 1_555
Mg3 O34 2.094903 1_555
Mg3 O30 2.142682 1_555
Mg3 O17 2.183261 1_555
Mg3 O27 2.258206 1_555
Mg4 O26 2.082688 1_555
Mg4 O3 2.082688 1_455
Mg4 O25 2.138074 1_555
Mg4 O7 2.138074 1_455
Mg4 O27 2.184787 1_555
Mg4 O23 2.184787 1_455
Mg5 O5 2.047614 1_455
Mg5 O32 2.047614 1_455
Mg5 O20 2.057930 1_555
Mg5 O25 2.182593 1_555
Mg5 O18 2.182593 1_555
Mg5 O23 2.228571 1_455
Mg6 O10 2.083685 1_455
Mg6 O9 2.083685 1_554
Mg6 O21 2.129431 1_555
Mg6 O24 2.129431 1_454
Mg6 O29 2.173527 1_555
Mg6 O22 2.173527 1_454
Mg7 O5 2.015781 1_555
Mg7 O8 2.026357 1_555
Mg7 O20 2.094903 1_555
Mg7 O3 2.142682 1_555
Mg7 O25 2.183261 1_555
Mg7 O23 2.258206 1_555
Mg8 O8 2.015781 1_555
Mg8 O5 2.026357 1_455
Mg8 O19 2.094903 1_455
Mg8 O13 2.142682 1_555
Mg8 O31 2.183261 1_455
Mg8 O16 2.258206 1_555
Mg9 O9 2.082688 1_554
Mg9 O10 2.082688 1_555
Mg9 O22 2.138074 1_554
Mg9 O29 2.138074 1_555
Mg9 O0 2.184787 1_565
Mg9 O16 2.184787 1_564
Mg10 O13 2.083685 1_554
Mg10 O35 2.083685 1_455
Mg10 O21 2.129431 1_555
Mg10 O24 2.129431 1_454
Mg10 O11 2.173527 1_555
Mg10 O31 2.173527 1_454
Mg11 O14 2.015781 1_555
Mg11 O32 2.026357 1_455
Mg11 O19 2.094903 1_465
Mg11 O9 2.142682 1_555
Mg11 O22 2.183261 1_455
Mg11 O16 2.258206 1_565
Mg12 O30 2.082688 1_555
Mg12 O1 2.082688 1_455
Mg12 O18 2.138074 1_555
Mg12 O17 2.138074 1_455
Mg12 O27 2.184787 1_555
Mg12 O23 2.184787 1_455
Mg13 O33 2.015781 1_555
Mg13 O15 2.026357 1_655
Mg13 O6 2.094903 1_665
Mg13 O10 2.142682 1_555
Mg13 O29 2.183261 1_655
Mg13 O0 2.258206 1_565
Mg14 O8 2.047614 1_555
Mg14 O14 2.047614 1_545
Mg14 O19 2.057930 1_555
Mg14 O31 2.182593 1_555
Mg14 O22 2.182593 1_545
Mg14 O16 2.228571 1_555
Mg15 O3 2.083685 1_555
Mg15 O26 2.083685 1_555
Mg15 O2 2.129431 1_555
Mg15 O12 2.129431 1_555
Mg15 O7 2.173527 1_555
Mg15 O25 2.173527 1_555
Mg16 O28 2.015781 1_555
Mg16 O4 2.026357 1_555
Mg16 O34 2.094903 1_555
Mg16 O26 2.142682 1_555
Mg16 O7 2.183261 1_555
Mg16 O27 2.258206 1_555
Mg17 O1 2.083685 1_555
Mg17 O30 2.083685 1_555
Mg17 O2 2.129431 1_565
Mg17 O12 2.129431 1_565
Mg17 O18 2.173527 1_555
Mg17 O17 2.173527 1_555
Mg18 O4 2.015781 1_555
Mg18 O28 2.026357 1_655
Mg18 O6 2.094903 1_655
Mg18 O35 2.142682 1_555
Mg18 O11 2.183261 1_655
Mg18 O0 2.258206 1_555
Mg19 O32 2.015781 1_555
Mg19 O14 2.026357 1_555
Mg19 O20 2.094903 1_555
Mg19 O1 2.142682 1_555
Mg19 O18 2.183261 1_555
Mg19 O23 2.258206 1_555
Ge0 O25 1.910754 1_555
Ge0 O18 1.910754 1_555
Ge0 O7 1.910754 1_555
Ge0 O17 1.910754 1_555
Ge0 O27 2.033012 1_555
Ge0 O23 2.033012 1_555
Ge1 O20 1.785945 1_555
Ge1 O24 1.796392 1_555
Ge1 O13 1.800992 1_555
Ge1 O9 1.800992 1_555
Ge2 O29 1.910754 1_545
Ge2 O11 1.910754 1_555
Ge2 O22 1.910754 1_444
Ge2 O31 1.910754 1_454
Ge2 O16 2.033012 1_554
Ge2 O0 2.033012 1_455
Ge3 O6 1.785945 1_555
Ge3 O2 1.796392 1_455
Ge3 O30 1.800992 1_545
Ge3 O26 1.800992 1_555
Ge4 O19 1.785945 1_555
Ge4 O12 1.796392 1_655
Ge4 O3 1.800992 1_555
Ge4 O1 1.800992 1_545
Ge5 O34 1.785945 1_555
Ge5 O21 1.796392 1_555
Ge5 O35 1.800992 1_555
Ge5 O10 1.800992 1_555
H0 O8 0.989593 1_555
H1 O5 0.989593 1_555
H2 O32 0.989593 1_555
H3 O15 0.989593 1_555
H4 O33 0.989593 1_555
H5 O28 0.989593 1_555
H6 O4 0.989593 1_555
H7 O14 0.989593 1_555
