# generated using pymatgen
data_NbCr2
_symmetry_space_group_name_H-M   'P 1'
_cell_length_a   4.89900079
_cell_length_b   4.89900053
_cell_length_c   4.89899951
_cell_angle_alpha   60.00000007
_cell_angle_beta   60.00000179
_cell_angle_gamma   60.00001147
_symmetry_Int_Tables_number   1
_chemical_formula_structural   NbCr2
_chemical_formula_sum   'Nb2 Cr4'
_cell_volume   83.13950557
_cell_formula_units_Z   2
loop_
 _symmetry_equiv_pos_site_id
 _symmetry_equiv_pos_as_xyz
  1  'x, y, z'
loop_
 _atom_site_type_symbol
 _atom_site_label
 _atom_site_symmetry_multiplicity
 _atom_site_fract_x
 _atom_site_fract_y
 _atom_site_fract_z
 _atom_site_occupancy
  Nb  Nb0  1  0.12500000  0.12500000  0.12500000  1
  Nb  Nb1  1  0.87500000  0.87500000  0.87500000  1
  Cr  Cr0  1  0.50000000  0.00000000  0.50000000  1
  Cr  Cr1  1  0.00000000  0.50000000  0.50000000  1
  Cr  Cr2  1  0.50000000  0.50000000  0.50000000  1
  Cr  Cr3  1  0.50000000  0.50000000  0.00000000  1
loop_
_geom_bond_atom_site_label_1
_geom_bond_atom_site_label_2
_geom_bond_distance
_geom_bond_site_symmetry_2
Nb0 Nb1 3.000012 1_445
Nb0 Nb1 3.000013 1_444
Nb0 Nb1 3.000013 1_454
Nb0 Nb1 3.000013 1_544
Cr0 Cr3 2.449500 1_555
Cr0 Cr3 2.449500 1_546
Cr0 Cr2 2.449500 1_555
Cr0 Cr2 2.449500 1_545
Cr0 Cr1 2.449501 1_645
Cr0 Cr1 2.449501 1_555
Cr0 Nb1 2.872293 1_544
Cr0 Nb0 2.872293 1_556
Cr0 Nb1 2.872293 1_545
Cr0 Nb0 2.872293 1_555
Cr0 Nb0 2.872294 1_655
Cr0 Nb1 2.872294 1_445
Cr1 Cr3 2.449500 1_555
Cr1 Cr3 2.449500 1_456
Cr1 Cr2 2.449500 1_455
Cr1 Cr2 2.449500 1_555
Cr1 Nb0 2.872293 1_556
Cr1 Nb1 2.872293 1_454
Cr1 Nb0 2.872293 1_555
Cr1 Nb1 2.872293 1_455
Cr1 Nb1 2.872294 1_445
Cr1 Nb0 2.872294 1_565
Cr2 Cr3 2.449500 1_555
Cr2 Cr3 2.449500 1_556
Cr2 Nb1 2.872293 1_554
Cr2 Nb0 2.872293 1_556
Cr2 Nb0 2.872294 1_565
Cr2 Nb1 2.872294 1_545
Cr2 Nb1 2.872294 1_455
Cr2 Nb0 2.872294 1_655
Cr3 Nb0 2.872294 1_555
Cr3 Nb1 2.872294 1_554
Cr3 Nb0 2.872294 1_565
Cr3 Nb1 2.872294 1_544
Cr3 Nb1 2.872294 1_454
Cr3 Nb0 2.872294 1_655
