# generated using pymatgen
data_Ti3SiC2
_symmetry_space_group_name_H-M   'P 1'
_cell_length_a   3.06952250
_cell_length_b   3.06952274
_cell_length_c   17.69288488
_cell_angle_alpha   90.00000000
_cell_angle_beta   90.00000000
_cell_angle_gamma   120.00000845
_symmetry_Int_Tables_number   1
_chemical_formula_structural   Ti3SiC2
_chemical_formula_sum   'Ti6 Si2 C4'
_cell_volume   144.36799404
_cell_formula_units_Z   2
loop_
 _symmetry_equiv_pos_site_id
 _symmetry_equiv_pos_as_xyz
  1  'x, y, z'
loop_
 _atom_site_type_symbol
 _atom_site_label
 _atom_site_symmetry_multiplicity
 _atom_site_fract_x
 _atom_site_fract_y
 _atom_site_fract_z
 _atom_site_occupancy
  Ti  Ti0  1  0.66666700  0.33333300  0.36491927  1
  Ti  Ti1  1  0.33333300  0.66666700  0.86491927  1
  Ti  Ti2  1  0.33333300  0.66666700  0.63508073  1
  Ti  Ti3  1  0.66666700  0.33333300  0.13508073  1
  Ti  Ti4  1  0.00000000  -0.00000000  0.50000000  1
  Ti  Ti5  1  0.00000000  -0.00000000  0.00000000  1
  Si  Si0  1  0.00000000  -0.00000000  0.75000000  1
  Si  Si1  1  0.00000000  -0.00000000  0.25000000  1
  C  C0  1  0.33333300  0.66666700  0.42750684  1
  C  C1  1  0.66666700  0.33333300  0.92750684  1
  C  C2  1  0.33333300  0.66666700  0.07249316  1
  C  C3  1  0.66666700  0.33333300  0.57249316  1
loop_
_geom_bond_atom_site_label_1
_geom_bond_atom_site_label_2
_geom_bond_distance
_geom_bond_site_symmetry_2
Si0 Ti2 2.697178 1_545
Si0 Ti1 2.697178 1_545
Si0 Ti2 2.697180 1_445
Si0 Ti1 2.697180 1_445
Si0 Ti1 2.697180 1_555
Si0 Ti2 2.697180 1_555
Si1 Ti3 2.697178 1_455
Si1 Ti0 2.697178 1_455
Si1 Ti0 2.697180 1_555
Si1 Ti3 2.697180 1_555
Si1 Ti0 2.697180 1_445
Si1 Ti3 2.697180 1_445
C0 Ti0 2.089709 1_455
C0 Ti0 2.089709 1_565
C0 Ti0 2.089714 1_555
C0 Ti4 2.187635 1_565
C0 Ti4 2.187637 1_665
C0 Ti4 2.187637 1_555
C1 Ti1 2.089709 1_655
C1 Ti1 2.089709 1_545
C1 Ti1 2.089714 1_555
C1 Ti5 2.187635 1_656
C1 Ti5 2.187637 1_556
C1 Ti5 2.187637 1_666
C2 Ti3 2.089709 1_455
C2 Ti3 2.089709 1_565
C2 Ti3 2.089714 1_555
C2 Ti5 2.187635 1_565
C2 Ti5 2.187637 1_665
C2 Ti5 2.187637 1_555
C3 Ti2 2.089709 1_655
C3 Ti2 2.089709 1_545
C3 Ti2 2.089714 1_555
C3 Ti4 2.187635 1_655
C3 Ti4 2.187637 1_555
C3 Ti4 2.187637 1_665
