# generated using pymatgen
data_BaRuO3
_symmetry_space_group_name_H-M   'P 1'
_cell_length_a   7.93657385
_cell_length_b   7.93765484
_cell_length_c   7.93360130
_cell_angle_alpha   42.71376996
_cell_angle_beta   43.05868620
_cell_angle_gamma   42.71305534
_symmetry_Int_Tables_number   1
_chemical_formula_structural   BaRuO3
_chemical_formula_sum   'Ba3 Ru3 O9'
_cell_volume   209.27383937
_cell_formula_units_Z   3
loop_
 _symmetry_equiv_pos_site_id
 _symmetry_equiv_pos_as_xyz
  1  'x, y, z'
loop_
 _atom_site_type_symbol
 _atom_site_label
 _atom_site_symmetry_multiplicity
 _atom_site_fract_x
 _atom_site_fract_y
 _atom_site_fract_z
 _atom_site_occupancy
  Ba  Ba0  1  0.78223131  0.78187960  0.78223235  1
  Ba  Ba1  1  0.21776869  0.21812040  0.21776765  1
  Ba  Ba2  1  -0.00000000  0.00000000  -0.00000000  1
  Ru  Ru0  1  0.61579654  0.61916830  0.61576122  1
  Ru  Ru1  1  0.38420346  0.38083170  0.38423878  1
  Ru  Ru2  1  0.50000000  0.50000000  0.50000000  1
  O  O0  1  0.71218700  0.24880218  0.71150237  1
  O  O1  1  0.24547714  0.71324042  0.71825441  1
  O  O2  1  0.71838900  0.71267736  0.24539169  1
  O  O3  1  0.28781300  0.75119782  0.28849763  1
  O  O4  1  0.75452286  0.28675958  0.28174559  1
  O  O5  1  0.28161100  0.28732264  0.75460831  1
  O  O6  1  0.50000000  0.50000000  -0.00000000  1
  O  O7  1  -0.00000000  0.50000000  0.50000000  1
  O  O8  1  0.50000000  0.00000000  0.50000000  1
loop_
_geom_bond_atom_site_label_1
_geom_bond_atom_site_label_2
_geom_bond_distance
_geom_bond_site_symmetry_2
Ba0 O5 2.880621 1_655
Ba0 O4 2.882415 1_556
Ba0 O4 2.910714 1_565
Ba0 O5 2.913090 1_565
Ba0 O3 2.915682 1_655
Ba0 O3 2.919748 1_556
Ba0 O0 2.955042 1_565
Ba0 O2 2.963574 1_556
Ba0 O1 2.967740 1_655
Ba0 O8 2.993652 1_565
Ba0 O7 3.005197 1_655
Ba0 O6 3.006285 1_556
Ba1 O2 2.880621 1_455
Ba1 O1 2.882415 1_554
Ba1 O1 2.910714 1_545
Ba1 O2 2.913090 1_545
Ba1 O0 2.915682 1_455
Ba1 O0 2.919748 1_554
Ba1 O3 2.955042 1_545
Ba1 O5 2.963574 1_554
Ba1 O4 2.967740 1_455
Ba1 O8 2.993652 1_555
Ba1 O7 3.005197 1_555
Ba1 O6 3.006285 1_555
Ba2 O7 2.889966 1_545
Ba2 O7 2.889966 1_554
Ba2 O6 2.890461 1_455
Ba2 O6 2.890461 1_545
Ba2 O8 2.912000 1_455
Ba2 O8 2.912000 1_554
Ba2 O1 2.927337 1_544
Ba2 O4 2.927337 1_455
Ba2 O5 2.931620 1_554
Ba2 O2 2.931620 1_445
Ba2 O0 2.953832 1_454
Ba2 O3 2.953832 1_545
O0 Ru2 1.976268 1_555
O0 Ru0 2.016827 1_555
O1 Ru0 2.007919 1_555
O1 Ru2 2.028498 1_555
O2 Ru0 2.008692 1_555
O2 Ru2 2.026552 1_555
O3 Ru2 1.976268 1_555
O3 Ru1 2.016827 1_555
O4 Ru1 2.007919 1_555
O4 Ru2 2.028498 1_555
O5 Ru1 2.008692 1_555
O5 Ru2 2.026552 1_555
O6 Ru0 1.994563 1_554
O6 Ru1 1.994563 1_555
O7 Ru0 1.995466 1_455
O7 Ru1 1.995466 1_555
O8 Ru0 1.974139 1_545
O8 Ru1 1.974139 1_555
