# generated using pymatgen
data_Na6Se2O9
_symmetry_space_group_name_H-M   'P 1'
_cell_length_a   7.92510300
_cell_length_b   14.93984700
_cell_length_c   16.07983700
_cell_angle_alpha   90.00000000
_cell_angle_beta   90.00000000
_cell_angle_gamma   90.00000000
_symmetry_Int_Tables_number   1
_chemical_formula_structural   Na6Se2O9
_chemical_formula_sum   'Na48 Se16 O72'
_cell_volume   1903.84990740
_cell_formula_units_Z   8
loop_
 _symmetry_equiv_pos_site_id
 _symmetry_equiv_pos_as_xyz
  1  'x, y, z'
loop_
 _atom_site_type_symbol
 _atom_site_label
 _atom_site_symmetry_multiplicity
 _atom_site_fract_x
 _atom_site_fract_y
 _atom_site_fract_z
 _atom_site_occupancy
  Na  Na0  1  0.46974000  0.84095400  0.72890000  1
  Na  Na1  1  0.25000000  0.74030800  0.87892700  1
  Na  Na2  1  0.25000000  0.00724600  0.63543900  1
  Na  Na3  1  0.96974000  0.15904600  0.27110000  1
  Na  Na4  1  0.46542600  0.61869000  0.73796500  1
  Na  Na5  1  0.25000000  0.23115700  0.88676100  1
  Na  Na6  1  0.03026000  0.65904600  0.22890000  1
  Na  Na7  1  0.75000000  0.73115700  0.61323900  1
  Na  Na8  1  0.03457400  0.88131000  0.23796500  1
  Na  Na9  1  0.53177100  0.37877800  0.48171900  1
  Na  Na10  1  0.53457400  0.38131000  0.26203500  1
  Na  Na11  1  0.04058400  0.65701300  0.02179800  1
  Na  Na12  1  0.53457400  0.11869000  0.76203500  1
  Na  Na13  1  0.53026000  0.34095400  0.77110000  1
  Na  Na14  1  0.75000000  0.95214500  0.86299200  1
  Na  Na15  1  0.75000000  0.25969200  0.12107300  1
  Na  Na16  1  0.25000000  0.49275400  0.13543900  1
  Na  Na17  1  0.04058400  0.84298700  0.52179800  1
  Na  Na18  1  0.45941600  0.84298700  0.52179800  1
  Na  Na19  1  0.53177100  0.12122200  0.98171900  1
  Na  Na20  1  0.46822900  0.87877800  0.01828100  1
  Na  Na21  1  0.96822900  0.37877800  0.48171900  1
  Na  Na22  1  0.75000000  0.50724600  0.86456100  1
  Na  Na23  1  0.96542600  0.11869000  0.76203500  1
  Na  Na24  1  0.95941600  0.34298700  0.97820200  1
  Na  Na25  1  0.96974000  0.34095400  0.77110000  1
  Na  Na26  1  0.46822900  0.62122200  0.51828100  1
  Na  Na27  1  0.96542600  0.38131000  0.26203500  1
  Na  Na28  1  0.03457400  0.61869000  0.73796500  1
  Na  Na29  1  0.54058400  0.34298700  0.97820200  1
  Na  Na30  1  0.75000000  0.54785500  0.36299200  1
  Na  Na31  1  0.25000000  0.04785500  0.13700800  1
  Na  Na32  1  0.46542600  0.88131000  0.23796500  1
  Na  Na33  1  0.54058400  0.15701300  0.47820200  1
  Na  Na34  1  0.25000000  0.75969200  0.37892700  1
  Na  Na35  1  0.75000000  0.76884300  0.11323900  1
  Na  Na36  1  0.25000000  0.45214500  0.63700800  1
  Na  Na37  1  0.25000000  0.26884300  0.38676100  1
  Na  Na38  1  0.03177100  0.87877800  0.01828100  1
  Na  Na39  1  0.03177100  0.62122200  0.51828100  1
  Na  Na40  1  0.03026000  0.84095400  0.72890000  1
  Na  Na41  1  0.75000000  0.24030800  0.62107300  1
  Na  Na42  1  0.75000000  0.99275400  0.36456100  1
  Na  Na43  1  0.53026000  0.15904600  0.27110000  1
  Na  Na44  1  0.46974000  0.65904600  0.22890000  1
  Na  Na45  1  0.95941600  0.15701300  0.47820200  1
  Na  Na46  1  0.45941600  0.65701300  0.02179800  1
  Na  Na47  1  0.96822900  0.12122200  0.98171900  1
  Se  Se0  1  0.75000000  0.73793700  0.87350200  1
  Se  Se1  1  0.75000000  0.02067000  0.13295300  1
  Se  Se2  1  0.25000000  0.48345200  0.88205800  1
  Se  Se3  1  0.75000000  0.47933000  0.63295300  1
  Se  Se4  1  0.25000000  0.77308600  0.12835200  1
  Se  Se5  1  0.75000000  0.51654800  0.11794200  1
  Se  Se6  1  0.75000000  0.27308600  0.37164800  1
  Se  Se7  1  0.25000000  0.01654800  0.38205800  1
  Se  Se8  1  0.75000000  0.22691400  0.87164800  1
  Se  Se9  1  0.75000000  0.98345200  0.61794200  1
  Se  Se10  1  0.25000000  0.97933000  0.86704700  1
  Se  Se11  1  0.25000000  0.26206300  0.12649800  1
  Se  Se12  1  0.75000000  0.76206300  0.37350200  1
  Se  Se13  1  0.25000000  0.72691400  0.62835200  1
  Se  Se14  1  0.25000000  0.52067000  0.36704700  1
  Se  Se15  1  0.25000000  0.23793700  0.62649800  1
  O  O0  1  0.75000000  0.53764700  0.54379500  1
  O  O1  1  0.75000000  0.96235300  0.04379500  1
  O  O2  1  0.25000000  0.60155500  0.62845700  1
  O  O3  1  0.25000000  0.77298900  0.01276100  1
  O  O4  1  0.75000000  0.35250100  0.87126500  1
  O  O5  1  0.07706600  0.01613900  0.32168800  1
  O  O6  1  0.07787000  0.32755300  0.12521100  1
  O  O7  1  0.07787000  0.17244700  0.62521100  1
  O  O8  1  0.25000000  0.89844500  0.12845700  1
  O  O9  1  0.75000000  0.55007800  0.71426700  1
  O  O10  1  0.75000000  0.27298900  0.48723900  1
  O  O11  1  0.75000000  0.80669100  0.95618100  1
  O  O12  1  0.75000000  0.89048000  0.55881900  1
  O  O13  1  0.07623400  0.91463400  0.86472000  1
  O  O14  1  0.75000000  0.27206200  0.25647900  1
  O  O15  1  0.25000000  0.64749900  0.12873500  1
  O  O16  1  0.98192600  0.27354500  0.37214700  1
  O  O17  1  0.25000000  0.19330900  0.04381900  1
  O  O18  1  0.57706600  0.98386100  0.67831200  1
  O  O19  1  0.25000000  0.30669100  0.54381900  1
  O  O20  1  0.25000000  0.92721700  0.44484100  1
  O  O21  1  0.57787000  0.67244700  0.87478900  1
  O  O22  1  0.25000000  0.57278300  0.94484100  1
  O  O23  1  0.25000000  0.03764700  0.95620500  1
  O  O24  1  0.75000000  0.94992200  0.21426700  1
  O  O25  1  0.75000000  0.60952000  0.05881900  1
  O  O26  1  0.57623400  0.08536600  0.13528000  1
  O  O27  1  0.25000000  0.72701100  0.51276100  1
  O  O28  1  0.25000000  0.44992200  0.28573300  1
  O  O29  1  0.25000000  0.72793800  0.74352100  1
  O  O30  1  0.92293400  0.98386100  0.67831200  1
  O  O31  1  0.75000000  0.22793800  0.75647900  1
  O  O32  1  0.75000000  0.69330900  0.45618100  1
  O  O33  1  0.25000000  0.10952000  0.44118100  1
  O  O34  1  0.25000000  0.46235300  0.45620500  1
  O  O35  1  0.75000000  0.22701100  0.98723900  1
  O  O36  1  0.25000000  0.05007800  0.78573300  1
  O  O37  1  0.92376600  0.08536600  0.13528000  1
  O  O38  1  0.75000000  0.80286300  0.78766000  1
  O  O39  1  0.75000000  0.39844500  0.37154300  1
  O  O40  1  0.42293400  0.01613900  0.32168800  1
  O  O41  1  0.01807400  0.77354500  0.12785300  1
  O  O42  1  0.25000000  0.85250100  0.62873500  1
  O  O43  1  0.25000000  0.30286300  0.71234000  1
  O  O44  1  0.07623400  0.58536600  0.36472000  1
  O  O45  1  0.25000000  0.19713700  0.21234000  1
  O  O46  1  0.92213000  0.82755300  0.37478900  1
  O  O47  1  0.92293400  0.51613900  0.17831200  1
  O  O48  1  0.75000000  0.10155500  0.87154300  1
  O  O49  1  0.75000000  0.14749900  0.37126500  1
  O  O50  1  0.42293400  0.48386100  0.82168800  1
  O  O51  1  0.25000000  0.77206200  0.24352100  1
  O  O52  1  0.51807400  0.22645500  0.87214700  1
  O  O53  1  0.75000000  0.42721700  0.05515900  1
  O  O54  1  0.07706600  0.48386100  0.82168800  1
  O  O55  1  0.01807400  0.72645500  0.62785300  1
  O  O56  1  0.42213000  0.32755300  0.12521100  1
  O  O57  1  0.51807400  0.27354500  0.37214700  1
  O  O58  1  0.42376600  0.58536600  0.36472000  1
  O  O59  1  0.42213000  0.17244700  0.62521100  1
  O  O60  1  0.92213000  0.67244700  0.87478900  1
  O  O61  1  0.98192600  0.22645500  0.87214700  1
  O  O62  1  0.57787000  0.82755300  0.37478900  1
  O  O63  1  0.42376600  0.91463400  0.86472000  1
  O  O64  1  0.57623400  0.41463400  0.63528000  1
  O  O65  1  0.48192600  0.77354500  0.12785300  1
  O  O66  1  0.75000000  0.69713700  0.28766000  1
  O  O67  1  0.92376600  0.41463400  0.63528000  1
  O  O68  1  0.48192600  0.72645500  0.62785300  1
  O  O69  1  0.57706600  0.51613900  0.17831200  1
  O  O70  1  0.25000000  0.39048000  0.94118100  1
  O  O71  1  0.75000000  0.07278300  0.55515900  1
loop_
_geom_bond_atom_site_label_1
_geom_bond_atom_site_label_2
_geom_bond_distance
_geom_bond_site_symmetry_2
Na0 O68 2.361251 1_555
Na0 O42 2.378361 1_555
Na0 O29 2.436965 1_555
Na0 O18 2.437914 1_555
Na0 O63 2.472678 1_555
Na0 O38 2.479884 1_555
Na1 O29 2.185135 1_555
Na1 O3 2.206721 1_556
Na1 O22 2.717969 1_555
Na1 O21 2.789979 1_555
Na1 O60 2.789979 1_455
Na1 O63 2.954919 1_555
Na1 O13 2.954919 1_555
Na2 O42 2.314379 1_545
Na2 O36 2.499986 1_555
Na2 O30 2.704801 1_445
Na2 O18 2.704801 1_545
Na2 O59 2.824775 1_555
Na2 O7 2.824775 1_555
Na3 O16 2.361251 1_555
Na3 O49 2.378361 1_555
Na3 O14 2.436965 1_555
Na3 O5 2.437914 1_655
Na3 O37 2.472678 1_555
Na3 O45 2.479884 1_655
Na4 O29 2.363614 1_555
Na4 O68 2.396693 1_555
Na4 O50 2.446079 1_555
Na4 O2 2.465965 1_555
Na4 O21 2.505911 1_555
Na4 O9 2.506436 1_555
Na5 O52 2.138625 1_555
Na5 O61 2.138625 1_455
Na5 O70 2.536017 1_555
Na5 O17 2.587993 1_556
Na6 O41 2.361251 1_555
Na6 O15 2.378361 1_555
Na6 O51 2.436965 1_555
Na6 O47 2.437914 1_455
Na6 O44 2.472678 1_555
Na6 O66 2.479884 1_455
Na7 O55 2.138625 1_655
Na7 O68 2.138625 1_555
Na7 O12 2.536017 1_555
Na7 O32 2.587993 1_555
Na8 O51 2.363614 1_555
Na8 O41 2.396693 1_555
Na8 O5 2.446079 1_565
Na8 O8 2.465965 1_555
Na8 O46 2.505911 1_455
Na8 O24 2.506436 1_455
Na9 O10 2.344546 1_555
Na9 O57 2.363848 1_555
Na9 O39 2.493204 1_555
Na9 O64 2.551127 1_555
Na9 O34 2.591117 1_555
Na9 O19 2.672743 1_555
Na10 O14 2.363614 1_555
Na10 O57 2.396693 1_555
Na10 O69 2.446079 1_555
Na10 O39 2.465965 1_555
Na10 O56 2.505911 1_555
Na10 O28 2.506436 1_555
Na11 O15 2.394034 1_555
Na11 O3 2.403675 1_555
Na11 O22 2.422652 1_554
Na11 O41 2.443565 1_555
Na11 O25 2.482177 1_455
Na11 O60 2.553893 1_454
Na12 O31 2.363614 1_555
Na12 O52 2.396693 1_555
Na12 O18 2.446079 1_545
Na12 O48 2.465965 1_555
Na12 O59 2.505911 1_555
Na12 O36 2.506436 1_555
Na13 O52 2.361251 1_555
Na13 O4 2.378361 1_555
Na13 O31 2.436965 1_555
Na13 O50 2.437914 1_555
Na13 O64 2.472678 1_555
Na13 O43 2.479884 1_555
Na14 O48 2.236393 1_565
Na14 O38 2.537977 1_555
Na14 O11 2.639619 1_555
Na14 O13 2.645623 1_655
Na14 O63 2.645623 1_555
Na14 O1 2.911280 1_556
Na15 O14 2.185135 1_555
Na15 O35 2.206721 1_554
Na15 O53 2.717969 1_555
Na15 O6 2.789979 1_655
Na15 O56 2.789979 1_555
Na15 O37 2.954919 1_555
Na15 O26 2.954919 1_555
Na16 O15 2.314379 1_555
Na16 O28 2.499986 1_555
Na16 O47 2.704801 1_455
Na16 O69 2.704801 1_555
Na16 O56 2.824775 1_555
Na16 O6 2.824775 1_555
Na17 O42 2.394034 1_555
Na17 O27 2.403675 1_555
Na17 O20 2.422652 1_555
Na17 O55 2.443565 1_555
Na17 O12 2.482177 1_455
Na17 O46 2.553893 1_455
Na18 O42 2.394034 1_555
Na18 O27 2.403675 1_555
Na18 O20 2.422652 1_555
Na18 O68 2.443565 1_555
Na18 O12 2.482177 1_555
Na18 O62 2.553893 1_555
Na19 O35 2.344546 1_555
Na19 O52 2.363848 1_555
Na19 O48 2.493204 1_555
Na19 O26 2.551127 1_556
Na19 O23 2.591117 1_555
Na19 O17 2.672743 1_556
Na20 O3 2.344546 1_555
Na20 O65 2.363848 1_555
Na20 O8 2.493204 1_555
Na20 O63 2.551127 1_554
Na20 O1 2.591117 1_555
Na20 O11 2.672743 1_554
Na21 O10 2.344546 1_555
Na21 O16 2.363848 1_555
Na21 O39 2.493204 1_555
Na21 O67 2.551127 1_555
Na21 O34 2.591117 1_655
Na21 O19 2.672743 1_655
Na22 O4 2.314379 1_555
Na22 O9 2.499986 1_555
Na22 O50 2.704801 1_555
Na22 O54 2.704801 1_655
Na22 O60 2.824775 1_555
Na22 O21 2.824775 1_555
Na23 O31 2.363614 1_555
Na23 O61 2.396693 1_555
Na23 O30 2.446079 1_545
Na23 O48 2.465965 1_555
Na23 O7 2.505911 1_655
Na23 O36 2.506436 1_655
Na24 O4 2.394034 1_555
Na24 O35 2.403675 1_555
Na24 O53 2.422652 1_556
Na24 O61 2.443565 1_555
Na24 O70 2.482177 1_655
Na24 O6 2.553893 1_656
Na25 O61 2.361251 1_555
Na25 O4 2.378361 1_555
Na25 O31 2.436965 1_555
Na25 O54 2.437914 1_655
Na25 O67 2.472678 1_555
Na25 O43 2.479884 1_655
Na26 O27 2.344546 1_555
Na26 O68 2.363848 1_555
Na26 O2 2.493204 1_555
Na26 O58 2.551127 1_555
Na26 O0 2.591117 1_555
Na26 O32 2.672743 1_555
Na27 O14 2.363614 1_555
Na27 O16 2.396693 1_555
Na27 O47 2.446079 1_555
Na27 O39 2.465965 1_555
Na27 O6 2.505911 1_655
Na27 O28 2.506436 1_655
Na28 O29 2.363614 1_555
Na28 O55 2.396693 1_555
Na28 O54 2.446079 1_555
Na28 O2 2.465965 1_555
Na28 O60 2.505911 1_455
Na28 O9 2.506436 1_455
Na29 O4 2.394034 1_555
Na29 O35 2.403675 1_555
Na29 O53 2.422652 1_556
Na29 O52 2.443565 1_555
Na29 O70 2.482177 1_555
Na29 O56 2.553893 1_556
Na30 O39 2.236393 1_555
Na30 O66 2.537977 1_555
Na30 O32 2.639619 1_555
Na30 O44 2.645623 1_655
Na30 O58 2.645623 1_555
Na30 O0 2.911280 1_555
Na31 O8 2.236393 1_545
Na31 O45 2.537977 1_555
Na31 O17 2.639619 1_555
Na31 O26 2.645623 1_555
Na31 O37 2.645623 1_455
Na31 O23 2.911280 1_554
Na32 O51 2.363614 1_555
Na32 O65 2.396693 1_555
Na32 O40 2.446079 1_565
Na32 O8 2.465965 1_555
Na32 O62 2.505911 1_555
Na32 O24 2.506436 1_555
Na33 O49 2.394034 1_555
Na33 O10 2.403675 1_555
Na33 O71 2.422652 1_555
Na33 O57 2.443565 1_555
Na33 O33 2.482177 1_555
Na33 O59 2.553893 1_555
Na34 O51 2.185135 1_555
Na34 O27 2.206721 1_555
Na34 O20 2.717969 1_555
Na34 O62 2.789979 1_555
Na34 O46 2.789979 1_455
Na34 O58 2.954919 1_555
Na34 O44 2.954919 1_555
Na35 O41 2.138625 1_655
Na35 O65 2.138625 1_555
Na35 O25 2.536017 1_555
Na35 O11 2.587993 1_554
Na36 O2 2.236393 1_555
Na36 O43 2.537977 1_555
Na36 O19 2.639619 1_555
Na36 O67 2.645623 1_455
Na36 O64 2.645623 1_555
Na36 O34 2.911280 1_555
Na37 O16 2.138625 1_455
Na37 O57 2.138625 1_555
Na37 O33 2.536017 1_555
Na37 O19 2.587993 1_555
Na38 O3 2.344546 1_555
Na38 O41 2.363848 1_555
Na38 O8 2.493204 1_555
Na38 O13 2.551127 1_554
Na38 O1 2.591117 1_455
Na38 O11 2.672743 1_454
Na39 O27 2.344546 1_555
Na39 O55 2.363848 1_555
Na39 O2 2.493204 1_555
Na39 O44 2.551127 1_555
Na39 O0 2.591117 1_455
Na39 O32 2.672743 1_455
Na40 O55 2.361251 1_555
Na40 O42 2.378361 1_555
Na40 O29 2.436965 1_555
Na40 O30 2.437914 1_455
Na40 O13 2.472678 1_555
Na40 O38 2.479884 1_455
Na41 O31 2.185135 1_555
Na41 O10 2.206721 1_555
Na41 O71 2.717969 1_555
Na41 O7 2.789979 1_655
Na41 O59 2.789979 1_555
Na41 O64 2.954919 1_555
Na41 O67 2.954919 1_555
Na42 O49 2.314379 1_565
Na42 O24 2.499986 1_555
Na42 O40 2.704801 1_565
Na42 O5 2.704801 1_665
Na42 O46 2.824775 1_555
Na42 O62 2.824775 1_555
Na43 O57 2.361251 1_555
Na43 O49 2.378361 1_555
Na43 O14 2.436965 1_555
Na43 O40 2.437914 1_555
Na43 O26 2.472678 1_555
Na43 O45 2.479884 1_555
Na44 O65 2.361251 1_555
Na44 O15 2.378361 1_555
Na44 O51 2.436965 1_555
Na44 O69 2.437914 1_555
Na44 O58 2.472678 1_555
Na44 O66 2.479884 1_555
Na45 O49 2.394034 1_555
Na45 O10 2.403675 1_555
Na45 O71 2.422652 1_555
Na45 O16 2.443565 1_555
Na45 O33 2.482177 1_655
Na45 O7 2.553893 1_655
Na46 O15 2.394034 1_555
Na46 O3 2.403675 1_555
Na46 O22 2.422652 1_554
Na46 O65 2.443565 1_555
Na46 O25 2.482177 1_555
Na46 O21 2.553893 1_554
Na47 O35 2.344546 1_555
Na47 O61 2.363848 1_555
Na47 O48 2.493204 1_555
Na47 O37 2.551127 1_556
Na47 O23 2.591117 1_655
Na47 O17 2.672743 1_656
O0 Se3 1.677621 1_555
O1 Se1 1.677621 1_565
O2 Se13 1.872845 1_555
O3 Se4 1.858685 1_555
O4 Se8 1.876261 1_555
O5 Se7 1.679493 1_555
O6 Se11 1.678873 1_555
O7 Se15 1.678873 1_555
O8 Se4 1.872845 1_555
O9 Se3 1.681300 1_555
O10 Se6 1.858685 1_555
O11 Se0 1.680049 1_555
O12 Se9 1.683180 1_555
O13 Se10 1.682872 1_555
O14 Se6 1.851962 1_555
O15 Se4 1.876261 1_555
O16 Se6 1.838068 1_555
O17 Se11 1.680049 1_555
O18 Se9 1.679493 1_555
O19 Se15 1.680049 1_555
O20 Se7 1.673412 1_565
O21 Se0 1.678873 1_555
O22 Se2 1.673412 1_555
O23 Se10 1.677621 1_545
O24 Se1 1.681300 1_565
O25 Se5 1.683180 1_555
O26 Se1 1.682872 1_555
O27 Se13 1.858685 1_555
O28 Se14 1.681300 1_555
O29 Se13 1.851962 1_555
O30 Se9 1.679493 1_555
O31 Se8 1.851962 1_555
O32 Se12 1.680049 1_555
O33 Se7 1.683180 1_555
O34 Se14 1.677621 1_555
O35 Se8 1.858685 1_555
O36 Se10 1.681300 1_545
O37 Se1 1.682872 1_555
O38 Se0 1.687059 1_555
O39 Se6 1.872845 1_555
O40 Se7 1.679493 1_555
O41 Se4 1.838068 1_555
O42 Se13 1.876261 1_555
O43 Se15 1.687059 1_555
O44 Se14 1.682872 1_555
O45 Se11 1.687059 1_555
O46 Se12 1.678873 1_555
O47 Se5 1.679493 1_555
O48 Se8 1.872845 1_555
O49 Se6 1.876261 1_555
O50 Se2 1.679493 1_555
O51 Se4 1.851962 1_555
O52 Se8 1.838068 1_555
O53 Se5 1.673412 1_555
O54 Se2 1.679493 1_555
O55 Se13 1.838068 1_555
O56 Se11 1.678873 1_555
O57 Se6 1.838068 1_555
O58 Se14 1.682872 1_555
O59 Se15 1.678873 1_555
O60 Se0 1.678873 1_555
O61 Se8 1.838068 1_555
O62 Se12 1.678873 1_555
O63 Se10 1.682872 1_555
O64 Se3 1.682872 1_555
O65 Se4 1.838068 1_555
O66 Se12 1.687059 1_555
O67 Se3 1.682872 1_555
O68 Se13 1.838068 1_555
O69 Se5 1.679493 1_555
O70 Se2 1.683180 1_555
O71 Se9 1.673412 1_545
