# generated using pymatgen
data_NaV3(PO4)3
_symmetry_space_group_name_H-M   'P 1'
_cell_length_a   9.16078611
_cell_length_b   9.16078611
_cell_length_c   9.16078611
_cell_angle_alpha   137.98311874
_cell_angle_beta   108.69638476
_cell_angle_gamma   86.35921864
_symmetry_Int_Tables_number   1
_chemical_formula_structural   NaV3(PO4)3
_chemical_formula_sum   'Na2 V6 P6 O24'
_cell_volume   468.56588584
_cell_formula_units_Z   2
loop_
 _symmetry_equiv_pos_site_id
 _symmetry_equiv_pos_as_xyz
  1  'x, y, z'
loop_
 _atom_site_type_symbol
 _atom_site_label
 _atom_site_symmetry_multiplicity
 _atom_site_fract_x
 _atom_site_fract_y
 _atom_site_fract_z
 _atom_site_occupancy
  Na  Na0  1  0.25000000  0.64938400  0.39938400  1
  Na  Na1  1  0.75000000  0.35061600  0.60061600  1
  V  V0  1  0.38604100  0.88604100  0.00000000  1
  V  V1  1  0.00000000  0.00000000  0.00000000  1
  V  V2  1  0.11395900  0.11395900  0.50000000  1
  V  V3  1  0.61395900  0.11395900  0.00000000  1
  V  V4  1  0.88604100  0.88604100  0.50000000  1
  V  V5  1  0.50000000  0.50000000  0.00000000  1
  P  P0  1  0.67652200  0.67652200  0.50000000  1
  P  P1  1  0.17652200  0.67652200  0.00000000  1
  P  P2  1  0.75000000  0.83343200  0.08343200  1
  P  P3  1  0.25000000  0.16656800  0.91656800  1
  P  P4  1  0.82347800  0.32347800  0.00000000  1
  P  P5  1  0.32347800  0.32347800  0.50000000  1
  O  O0  1  0.36541800  0.71225600  0.06566400  1
  O  O1  1  0.64970700  0.42914900  0.34981200  1
  O  O2  1  0.92066300  0.57085100  0.22055800  1
  O  O3  1  0.34453500  0.39158100  0.04704500  1
  O  O4  1  0.13458200  0.20024500  0.34683700  1
  O  O5  1  0.65546500  0.60841900  0.95295500  1
  O  O6  1  0.85340800  0.20024500  0.06566400  1
  O  O7  1  0.07933700  0.42914900  0.77944200  1
  O  O8  1  0.42066300  0.20010500  0.34981200  1
  O  O9  1  0.86522600  0.98390300  0.34912900  1
  O  O10  1  0.14659200  0.79975500  0.93433600  1
  O  O11  1  0.64659200  0.71225600  0.34683700  1
  O  O12  1  0.35340800  0.28774400  0.65316300  1
  O  O13  1  0.63477400  0.98390300  0.11867700  1
  O  O14  1  0.36522600  0.01609700  0.88132300  1
  O  O15  1  0.15546500  0.20251000  0.04704500  1
  O  O16  1  0.63458200  0.28774400  0.93433600  1
  O  O17  1  0.84453500  0.79749000  0.95295500  1
  O  O18  1  0.86541800  0.79975500  0.65316300  1
  O  O19  1  0.14970700  0.79989500  0.22055800  1
  O  O20  1  0.85029300  0.20010500  0.77944200  1
  O  O21  1  0.35029300  0.57085100  0.65018800  1
  O  O22  1  0.13477400  0.01609700  0.65087100  1
  O  O23  1  0.57933700  0.79989500  0.65018800  1
loop_
_geom_bond_atom_site_label_1
_geom_bond_atom_site_label_2
_geom_bond_distance
_geom_bond_site_symmetry_2
Na0 O15 2.636510 1_555
Na0 O3 2.636511 1_555
Na0 O14 2.704807 1_565
Na0 O22 2.704807 1_565
Na0 O21 2.767542 1_555
Na0 O23 2.767542 1_555
Na0 O2 2.767542 1_455
Na0 O19 2.767542 1_555
Na1 O17 2.636510 1_555
Na1 O5 2.636511 1_555
Na1 O13 2.704807 1_545
Na1 O9 2.704807 1_545
Na1 O20 2.767542 1_555
Na1 O7 2.767542 1_655
Na1 O8 2.767542 1_555
Na1 O1 2.767542 1_555
O0 P1 1.604812 1_555
O0 V5 2.023779 1_555
O0 V0 2.113301 1_555
O1 P0 1.519828 1_555
O1 V3 2.100484 1_555
O2 P4 1.519828 1_555
O2 V4 2.100484 1_555
O3 P3 1.526343 1_554
O3 V5 2.099915 1_555
O4 P5 1.604813 1_555
O4 V1 2.023774 1_555
O4 V2 2.113301 1_555
O5 P2 1.526343 1_556
O5 V5 2.099915 1_556
O6 P4 1.604821 1_555
O6 V1 2.023773 1_655
O6 V3 2.113298 1_555
O7 P1 1.519828 1_556
O7 V2 2.100484 1_555
O8 P5 1.519828 1_555
O8 V0 2.100484 1_545
O9 P2 1.578268 1_555
O9 V2 2.097777 1_665
O9 V4 2.097777 1_555
O10 P1 1.604821 1_556
O10 V1 2.023773 1_566
O10 V0 2.113298 1_556
O11 P0 1.604821 1_555
O11 V5 2.023773 1_555
O11 V4 2.113298 1_555
O12 P5 1.604821 1_555
O12 V5 2.023773 1_556
O12 V2 2.113298 1_555
O13 P2 1.578268 1_555
O13 V0 2.097777 1_555
O13 V3 2.097777 1_565
O14 P3 1.578268 1_555
O14 V3 2.097777 1_556
O14 V0 2.097777 1_546
O15 P3 1.526336 1_554
O15 V1 2.099921 1_555
O16 P4 1.604812 1_556
O16 V5 2.023779 1_556
O16 V3 2.113301 1_556
O17 P2 1.526336 1_556
O17 V1 2.099921 1_666
O18 P0 1.604813 1_555
O18 V1 2.023774 1_666
O18 V4 2.113301 1_555
O19 P1 1.519828 1_555
O19 V2 2.100484 1_565
O20 P4 1.519828 1_556
O20 V4 2.100484 1_545
O21 P5 1.519828 1_555
O21 V0 2.100484 1_556
O22 P3 1.578268 1_555
O22 V2 2.097777 1_555
O22 V4 2.097777 1_445
O23 P0 1.519828 1_555
O23 V3 2.100484 1_566
