# generated using pymatgen
data_BiSeClO3
_symmetry_space_group_name_H-M   'P 1'
_cell_length_a   5.32439831
_cell_length_b   6.90540896
_cell_length_c   11.92095232
_cell_angle_alpha   90.00000000
_cell_angle_beta   90.00000000
_cell_angle_gamma   90.00000000
_symmetry_Int_Tables_number   1
_chemical_formula_structural   BiSeClO3
_chemical_formula_sum   'Bi4 Se4 Cl4 O12'
_cell_volume   438.29941582
_cell_formula_units_Z   4
loop_
 _symmetry_equiv_pos_site_id
 _symmetry_equiv_pos_as_xyz
  1  'x, y, z'
loop_
 _atom_site_type_symbol
 _atom_site_label
 _atom_site_symmetry_multiplicity
 _atom_site_fract_x
 _atom_site_fract_y
 _atom_site_fract_z
 _atom_site_occupancy
  Bi  Bi0  1  0.32269406  0.70438319  0.54611256  1
  Bi  Bi1  1  0.82269406  0.29561681  0.45388744  1
  Bi  Bi2  1  0.32269406  0.79561681  0.04611256  1
  Bi  Bi3  1  0.82269406  0.20438319  0.95388744  1
  Se  Se0  1  0.82297132  0.98795139  0.21057292  1
  Se  Se1  1  0.32297132  0.48795139  0.28942708  1
  Se  Se2  1  0.32297132  0.01204861  0.78942708  1
  Se  Se3  1  0.82297132  0.51204861  0.71057292  1
  Cl  Cl0  1  0.32360933  0.39092821  0.94092074  1
  Cl  Cl1  1  0.32360933  0.10907179  0.44092074  1
  Cl  Cl2  1  0.82360933  0.89092821  0.55907926  1
  Cl  Cl3  1  0.82360933  0.60907179  0.05907926  1
  O  O0  1  0.82298616  0.28950411  0.77084248  1
  O  O1  1  0.08402839  0.97081201  0.88511496  1
  O  O2  1  0.82298616  0.21049589  0.27084248  1
  O  O3  1  0.06231174  0.02920522  0.11511783  1
  O  O4  1  0.06231174  0.47079478  0.61511783  1
  O  O5  1  0.58402839  0.02918799  0.11488504  1
  O  O6  1  0.56231174  0.52920522  0.38488217  1
  O  O7  1  0.56231174  0.97079478  0.88488217  1
  O  O8  1  0.32298616  0.71049589  0.22915752  1
  O  O9  1  0.58402839  0.47081201  0.61488504  1
  O  O10  1  0.08402839  0.52918799  0.38511496  1
  O  O11  1  0.32298616  0.78950411  0.72915752  1
loop_
_geom_bond_atom_site_label_1
_geom_bond_atom_site_label_2
_geom_bond_distance
_geom_bond_site_symmetry_2
Bi0 O11 2.259853 1_555
Bi0 O4 2.280477 1_555
Bi0 O9 2.282480 1_555
Bi0 O10 2.600368 1_555
Bi0 O6 2.604840 1_555
Bi0 Cl2 2.957136 1_455
Bi0 Cl2 2.965898 1_555
Bi0 Cl1 3.062999 1_565
Bi1 O2 2.259853 1_555
Bi1 O6 2.280477 1_555
Bi1 O10 2.282480 1_655
Bi1 O9 2.600368 1_555
Bi1 O4 2.604840 1_655
Bi1 Cl1 2.957136 1_555
Bi1 Cl1 2.965898 1_655
Bi1 Cl2 3.062999 1_545
Bi2 O8 2.259853 1_555
Bi2 O3 2.280477 1_565
Bi2 O5 2.282480 1_565
Bi2 O1 2.600368 1_554
Bi2 O7 2.604840 1_554
Bi2 Cl3 2.957136 1_455
Bi2 Cl3 2.965898 1_555
Bi2 Cl0 3.062999 1_554
Bi3 O0 2.259853 1_555
Bi3 O7 2.280477 1_545
Bi3 O1 2.282480 1_645
Bi3 O5 2.600368 1_556
Bi3 O3 2.604840 1_656
Bi3 Cl0 2.957136 1_555
Bi3 Cl0 2.965898 1_655
Bi3 Cl3 3.062999 1_556
O0 Se3 1.696418 1_555
O1 Se2 1.732288 1_565
O2 Se0 1.696418 1_545
O3 Se0 1.732038 1_445
O4 Se3 1.732038 1_455
O5 Se0 1.732288 1_545
O6 Se1 1.732038 1_555
O7 Se2 1.732038 1_565
O8 Se1 1.696418 1_555
O9 Se3 1.732288 1_555
O10 Se1 1.732288 1_555
O11 Se2 1.696418 1_565
