# generated using pymatgen
data_Tb(PRu)2
_symmetry_space_group_name_H-M   'P 1'
_cell_length_a   4.03774937
_cell_length_b   4.03774988
_cell_length_c   5.56618244
_cell_angle_alpha   111.26634931
_cell_angle_beta   111.26632236
_cell_angle_gamma   90.00001519
_symmetry_Int_Tables_number   1
_chemical_formula_structural   Tb(PRu)2
_chemical_formula_sum   'Tb1 P2 Ru2'
_cell_volume   77.90011537
_cell_formula_units_Z   1
loop_
 _symmetry_equiv_pos_site_id
 _symmetry_equiv_pos_as_xyz
  1  'x, y, z'
loop_
 _atom_site_type_symbol
 _atom_site_label
 _atom_site_symmetry_multiplicity
 _atom_site_fract_x
 _atom_site_fract_y
 _atom_site_fract_z
 _atom_site_occupancy
  Tb  Tb0  1  0.00000000  0.00000000  0.00000000  1
  P  P0  1  0.37395646  0.37395646  0.74791192  1
  P  P1  1  0.62604354  0.62604354  0.25208808  1
  Ru  Ru0  1  0.75000000  0.25000000  0.50000000  1
  Ru  Ru1  1  0.25000000  0.75000000  0.50000000  1
loop_
_geom_bond_atom_site_label_1
_geom_bond_atom_site_label_2
_geom_bond_distance
_geom_bond_site_symmetry_2
P0 Ru0 2.340732 1_555
P0 Ru1 2.340733 1_555
P0 Ru1 2.340735 1_545
P0 Ru0 2.340736 1_455
P0 P1 2.409027 1_556
P0 Tb0 3.098797 1_666
P0 Tb0 3.098800 1_566
P0 Tb0 3.098801 1_656
P0 Tb0 3.098803 1_556
P1 Ru1 2.340732 1_555
P1 Ru0 2.340733 1_555
P1 Ru0 2.340735 1_565
P1 Ru1 2.340736 1_655
P1 Tb0 3.098797 1_555
P1 Tb0 3.098800 1_655
P1 Tb0 3.098801 1_565
P1 Tb0 3.098803 1_665
Ru0 Tb0 3.127862 1_666
Ru0 Tb0 3.127862 1_655
Ru0 Tb0 3.127862 1_555
Ru0 Tb0 3.127863 1_656
Ru1 Tb0 3.127862 1_555
Ru1 Tb0 3.127862 1_566
Ru1 Tb0 3.127862 1_666
Ru1 Tb0 3.127863 1_565
