# generated using pymatgen
data_Nd2Zr2O7
_symmetry_space_group_name_H-M   'P 1'
_cell_length_a   7.55645136
_cell_length_b   7.55645136
_cell_length_c   7.55645136
_cell_angle_alpha   60.00000000
_cell_angle_beta   60.00000000
_cell_angle_gamma   60.00000000
_symmetry_Int_Tables_number   1
_chemical_formula_structural   Nd2Zr2O7
_chemical_formula_sum   'Nd4 Zr4 O14'
_cell_volume   305.09751906
_cell_formula_units_Z   2
loop_
 _symmetry_equiv_pos_site_id
 _symmetry_equiv_pos_as_xyz
  1  'x, y, z'
loop_
 _atom_site_type_symbol
 _atom_site_label
 _atom_site_symmetry_multiplicity
 _atom_site_fract_x
 _atom_site_fract_y
 _atom_site_fract_z
 _atom_site_occupancy
  Nd  Nd0  1  0.12500000  0.12500000  0.12500000  1
  Nd  Nd1  1  0.12500000  0.62500000  0.12500000  1
  Nd  Nd2  1  0.62500000  0.12500000  0.12500000  1
  Nd  Nd3  1  0.12500000  0.12500000  0.62500000  1
  Zr  Zr0  1  0.12500000  0.62500000  0.62500000  1
  Zr  Zr1  1  0.62500000  0.62500000  0.62500000  1
  Zr  Zr2  1  0.62500000  0.62500000  0.12500000  1
  Zr  Zr3  1  0.62500000  0.12500000  0.62500000  1
  O  O0  1  0.25636200  0.74363800  0.25636200  1
  O  O1  1  0.99363800  0.99363800  0.50636200  1
  O  O2  1  0.50636200  0.99363800  0.50636200  1
  O  O3  1  0.74363800  0.74363800  0.25636200  1
  O  O4  1  0.99363800  0.50636200  0.50636200  1
  O  O5  1  0.74363800  0.25636200  0.74363800  1
  O  O6  1  0.25636200  0.25636200  0.74363800  1
  O  O7  1  0.74363800  0.25636200  0.25636200  1
  O  O8  1  0.75000000  0.75000000  0.75000000  1
  O  O9  1  0.25636200  0.74363800  0.74363800  1
  O  O10  1  0.50000000  0.50000000  0.50000000  1
  O  O11  1  0.99363800  0.50636200  0.99363800  1
  O  O12  1  0.50636200  0.50636200  0.99363800  1
  O  O13  1  0.50636200  0.99363800  0.99363800  1
loop_
_geom_bond_atom_site_label_1
_geom_bond_atom_site_label_2
_geom_bond_distance
_geom_bond_site_symmetry_2
Nd0 O6 2.353588 1_554
Nd0 O7 2.353588 1_455
Nd0 O0 2.353588 1_545
Nd0 O11 2.353588 1_454
Nd0 O13 2.353588 1_544
Nd0 O1 2.353588 1_445
Nd1 O3 2.353588 1_455
Nd1 O12 2.353588 1_554
Nd1 O0 2.353588 1_555
Nd1 O4 2.353588 1_455
Nd1 O9 2.353588 1_554
Nd1 O11 2.353588 1_454
Nd2 O12 2.353588 1_554
Nd2 O2 2.353588 1_545
Nd2 O7 2.353588 1_555
Nd2 O3 2.353588 1_545
Nd2 O5 2.353588 1_554
Nd2 O13 2.353588 1_544
Nd3 O6 2.353588 1_555
Nd3 O2 2.353588 1_545
Nd3 O4 2.353588 1_455
Nd3 O5 2.353588 1_455
Nd3 O9 2.353588 1_545
Nd3 O1 2.353588 1_445
O0 Zr0 2.275106 1_555
O0 Zr2 2.275106 1_555
O1 Zr3 2.275106 1_565
O1 Zr0 2.275106 1_655
O2 Zr1 2.275106 1_555
O2 Zr3 2.275106 1_565
O3 Zr2 2.275106 1_555
O3 Zr1 2.275106 1_555
O4 Zr1 2.275106 1_555
O4 Zr0 2.275106 1_655
O5 Zr3 2.275106 1_555
O5 Zr1 2.275106 1_555
O6 Zr0 2.275106 1_555
O6 Zr3 2.275106 1_555
O7 Zr3 2.275106 1_555
O7 Zr2 2.275106 1_555
O8 Zr3 2.313681 1_565
O8 Zr0 2.313681 1_655
O8 Zr2 2.313681 1_556
O8 Zr1 2.313681 1_555
O9 Zr0 2.275106 1_555
O9 Zr1 2.275106 1_555
O10 Zr2 2.313681 1_555
O10 Zr3 2.313681 1_555
O10 Zr0 2.313681 1_555
O10 Zr1 2.313681 1_555
O11 Zr0 2.275106 1_655
O11 Zr2 2.275106 1_556
O12 Zr1 2.275106 1_555
O12 Zr2 2.275106 1_556
O13 Zr3 2.275106 1_565
O13 Zr2 2.275106 1_556
