# generated using pymatgen
data_BaNaNdSi2O7
_symmetry_space_group_name_H-M   'P 1'
_cell_length_a   9.42899700
_cell_length_b   10.64910100
_cell_length_c   14.36834600
_cell_angle_alpha   90.00000000
_cell_angle_beta   90.00000000
_cell_angle_gamma   90.00000000
_symmetry_Int_Tables_number   1
_chemical_formula_structural   BaNaNdSi2O7
_chemical_formula_sum   'Ba8 Na8 Nd8 Si16 O56'
_cell_volume   1442.73052695
_cell_formula_units_Z   8
loop_
 _symmetry_equiv_pos_site_id
 _symmetry_equiv_pos_as_xyz
  1  'x, y, z'
loop_
 _atom_site_type_symbol
 _atom_site_label
 _atom_site_symmetry_multiplicity
 _atom_site_fract_x
 _atom_site_fract_y
 _atom_site_fract_z
 _atom_site_occupancy
  Ba  Ba0  1  0.08330900  0.82104700  0.60473700  1
  Ba  Ba1  1  0.58330900  0.67895300  0.60473700  1
  Ba  Ba2  1  0.91669100  0.67895300  0.10473700  1
  Ba  Ba3  1  0.41669100  0.82104700  0.10473700  1
  Ba  Ba4  1  0.41669100  0.32104700  0.39526300  1
  Ba  Ba5  1  0.91669100  0.17895300  0.39526300  1
  Ba  Ba6  1  0.08330900  0.32104700  0.89526300  1
  Ba  Ba7  1  0.58330900  0.17895300  0.89526300  1
  Na  Na0  1  0.56165800  0.58697700  0.30524800  1
  Na  Na1  1  0.43834200  0.41302300  0.69475200  1
  Na  Na2  1  0.93834200  0.58697700  0.80524800  1
  Na  Na3  1  0.43834200  0.91302300  0.80524800  1
  Na  Na4  1  0.56165800  0.08697700  0.19475200  1
  Na  Na5  1  0.06165800  0.91302300  0.30524800  1
  Na  Na6  1  0.06165800  0.41302300  0.19475200  1
  Na  Na7  1  0.93834200  0.08697700  0.69475200  1
  Nd  Nd0  1  0.89937200  0.08192400  0.10405500  1
  Nd  Nd1  1  0.10062800  0.91807600  0.89594500  1
  Nd  Nd2  1  0.89937200  0.58192400  0.39594500  1
  Nd  Nd3  1  0.60062800  0.08192400  0.60405500  1
  Nd  Nd4  1  0.60062800  0.58192400  0.89594500  1
  Nd  Nd5  1  0.39937200  0.91807600  0.39594500  1
  Nd  Nd6  1  0.39937200  0.41807600  0.10405500  1
  Nd  Nd7  1  0.10062800  0.41807600  0.60405500  1
  Si  Si0  1  0.27941900  0.10608500  0.01688600  1
  Si  Si1  1  0.72058100  0.39391500  0.51688600  1
  Si  Si2  1  0.75289400  0.85223500  0.77714700  1
  Si  Si3  1  0.22058100  0.10608500  0.51688600  1
  Si  Si4  1  0.22058100  0.60608500  0.98311400  1
  Si  Si5  1  0.77941900  0.39391500  0.01688600  1
  Si  Si6  1  0.25289400  0.64776500  0.77714700  1
  Si  Si7  1  0.24710600  0.14776500  0.22285300  1
  Si  Si8  1  0.72058100  0.89391500  0.98311400  1
  Si  Si9  1  0.74710600  0.35223500  0.22285300  1
  Si  Si10  1  0.27941900  0.60608500  0.48311400  1
  Si  Si11  1  0.75289400  0.35223500  0.72285300  1
  Si  Si12  1  0.24710600  0.64776500  0.27714700  1
  Si  Si13  1  0.25289400  0.14776500  0.72285300  1
  Si  Si14  1  0.74710600  0.85223500  0.27714700  1
  Si  Si15  1  0.77941900  0.89391500  0.48311400  1
  O  O0  1  0.10516400  0.59977800  0.49133100  1
  O  O1  1  0.26529800  0.30032800  0.21251500  1
  O  O2  1  0.57996800  0.89184200  0.27039800  1
  O  O3  1  0.15813400  0.98923500  0.45548300  1
  O  O4  1  0.85295100  0.40022400  0.30564600  1
  O  O5  1  0.76529800  0.69967200  0.28748500  1
  O  O6  1  0.67732700  0.42255400  0.62852600  1
  O  O7  1  0.34029300  0.74522800  0.50991500  1
  O  O8  1  0.35295100  0.59977600  0.19435400  1
  O  O9  1  0.92003200  0.89184200  0.77039800  1
  O  O10  1  0.57996800  0.39184200  0.22960200  1
  O  O11  1  0.39483600  0.09977800  0.50866900  1
  O  O12  1  0.34186600  0.48923500  0.54451700  1
  O  O13  1  0.39483600  0.59977800  0.99133100  1
  O  O14  1  0.34029300  0.24522800  0.99008500  1
  O  O15  1  0.67732700  0.92255400  0.87147400  1
  O  O16  1  0.14704900  0.59977600  0.69435400  1
  O  O17  1  0.84029300  0.25477200  0.99008500  1
  O  O18  1  0.15813400  0.48923500  0.04451700  1
  O  O19  1  0.85295100  0.90022400  0.19435400  1
  O  O20  1  0.23470200  0.80032800  0.78748500  1
  O  O21  1  0.26529800  0.80032800  0.28748500  1
  O  O22  1  0.65813400  0.51076500  0.45548300  1
  O  O23  1  0.14704900  0.09977600  0.80564600  1
  O  O24  1  0.84186600  0.51076500  0.95548300  1
  O  O25  1  0.64704900  0.90022400  0.69435400  1
  O  O26  1  0.82267300  0.42255400  0.12852600  1
  O  O27  1  0.73470200  0.69967200  0.78748500  1
  O  O28  1  0.89483600  0.90022200  0.99133100  1
  O  O29  1  0.17732700  0.07744600  0.62852600  1
  O  O30  1  0.10516400  0.09977800  0.00866900  1
  O  O31  1  0.15970700  0.24522800  0.49008500  1
  O  O32  1  0.60516400  0.40022200  0.00866900  1
  O  O33  1  0.32267300  0.07744600  0.12852600  1
  O  O34  1  0.07996800  0.60815800  0.27039800  1
  O  O35  1  0.76529800  0.19967200  0.21251500  1
  O  O36  1  0.73470200  0.19967200  0.71251500  1
  O  O37  1  0.15970700  0.74522800  0.00991500  1
  O  O38  1  0.65813400  0.01076500  0.04451700  1
  O  O39  1  0.32267300  0.57744600  0.37147400  1
  O  O40  1  0.07996800  0.10815800  0.22960200  1
  O  O41  1  0.23470200  0.30032800  0.71251500  1
  O  O42  1  0.64704900  0.40022400  0.80564600  1
  O  O43  1  0.65970700  0.75477200  0.00991500  1
  O  O44  1  0.35295100  0.09977600  0.30564600  1
  O  O45  1  0.65970700  0.25477200  0.49008500  1
  O  O46  1  0.34186600  0.98923500  0.95548300  1
  O  O47  1  0.89483600  0.40022200  0.50866900  1
  O  O48  1  0.92003200  0.39184200  0.72960200  1
  O  O49  1  0.42003200  0.60815800  0.77039800  1
  O  O50  1  0.17732700  0.57744600  0.87147400  1
  O  O51  1  0.60516400  0.90022200  0.49133100  1
  O  O52  1  0.82267300  0.92255400  0.37147400  1
  O  O53  1  0.84186600  0.01076500  0.54451700  1
  O  O54  1  0.42003200  0.10815800  0.72960200  1
  O  O55  1  0.84029300  0.75477200  0.50991500  1
loop_
_geom_bond_atom_site_label_1
_geom_bond_atom_site_label_2
_geom_bond_distance
_geom_bond_site_symmetry_2
Ba0 O16 2.751648 1_555
Ba0 O55 2.757688 1_455
Ba0 O0 2.872250 1_555
Ba0 O3 2.881779 1_555
Ba0 O29 2.891002 1_565
Ba0 O7 2.894746 1_555
Ba0 O9 2.933301 1_455
Ba0 O20 2.996856 1_555
Ba0 O53 3.164355 1_465
Ba1 O25 2.751648 1_555
Ba1 O7 2.757688 1_555
Ba1 O51 2.872250 1_555
Ba1 O22 2.881779 1_555
Ba1 O6 2.891002 1_555
Ba1 O55 2.894746 1_555
Ba1 O49 2.933301 1_555
Ba1 O27 2.996856 1_555
Ba1 O12 3.164355 1_555
Ba2 O19 2.751648 1_555
Ba2 O37 2.757688 1_655
Ba2 O28 2.872250 1_554
Ba2 O24 2.881779 1_554
Ba2 O26 2.891002 1_555
Ba2 O43 2.894746 1_555
Ba2 O34 2.933301 1_655
Ba2 O5 2.996856 1_555
Ba2 O18 3.164355 1_655
Ba3 O8 2.751648 1_555
Ba3 O43 2.757688 1_555
Ba3 O13 2.872250 1_554
Ba3 O46 2.881779 1_554
Ba3 O33 2.891002 1_565
Ba3 O37 2.894746 1_555
Ba3 O2 2.933301 1_555
Ba3 O21 2.996856 1_555
Ba3 O38 3.164355 1_565
Ba4 O44 2.751648 1_555
Ba4 O45 2.757688 1_555
Ba4 O11 2.872250 1_555
Ba4 O12 2.881779 1_555
Ba4 O39 2.891002 1_555
Ba4 O31 2.894746 1_555
Ba4 O10 2.933301 1_555
Ba4 O1 2.996856 1_555
Ba4 O22 3.164355 1_555
Ba5 O4 2.751648 1_555
Ba5 O31 2.757688 1_655
Ba5 O47 2.872250 1_555
Ba5 O53 2.881779 1_555
Ba5 O52 2.891002 1_545
Ba5 O45 2.894746 1_555
Ba5 O40 2.933301 1_655
Ba5 O35 2.996856 1_555
Ba5 O3 3.164355 1_645
Ba6 O23 2.751648 1_555
Ba6 O17 2.757688 1_455
Ba6 O30 2.872250 1_556
Ba6 O18 2.881779 1_556
Ba6 O50 2.891002 1_555
Ba6 O14 2.894746 1_555
Ba6 O48 2.933301 1_455
Ba6 O41 2.996856 1_555
Ba6 O24 3.164355 1_455
Ba7 O42 2.751648 1_555
Ba7 O14 2.757688 1_555
Ba7 O32 2.872250 1_556
Ba7 O38 2.881779 1_556
Ba7 O15 2.891002 1_545
Ba7 O17 2.894746 1_555
Ba7 O54 2.933301 1_555
Ba7 O36 2.996856 1_555
Ba7 O46 3.164355 1_545
Na0 O5 2.278650 1_555
Na0 O10 2.351449 1_555
Na0 O39 2.448168 1_555
Na0 O22 2.479084 1_555
Na0 O8 2.535745 1_555
Na1 O41 2.278650 1_555
Na1 O49 2.351449 1_555
Na1 O6 2.448168 1_555
Na1 O12 2.479084 1_555
Na1 O42 2.535745 1_555
Na2 O27 2.278650 1_555
Na2 O48 2.351449 1_555
Na2 O50 2.448168 1_655
Na2 O24 2.479084 1_555
Na2 O16 2.535745 1_655
Na3 O20 2.278650 1_555
Na3 O54 2.351449 1_565
Na3 O15 2.448168 1_555
Na3 O46 2.479084 1_555
Na3 O25 2.535745 1_555
Na4 O35 2.278650 1_555
Na4 O2 2.351449 1_545
Na4 O33 2.448168 1_555
Na4 O38 2.479084 1_555
Na4 O44 2.535745 1_555
Na5 O21 2.278650 1_555
Na5 O40 2.351449 1_565
Na5 O52 2.448168 1_455
Na5 O3 2.479084 1_555
Na5 O19 2.535745 1_455
Na6 O1 2.278650 1_555
Na6 O34 2.351449 1_555
Na6 O26 2.448168 1_455
Na6 O18 2.479084 1_555
Na6 O4 2.535745 1_455
Na7 O36 2.278650 1_555
Na7 O9 2.351449 1_545
Na7 O29 2.448168 1_655
Na7 O53 2.479084 1_555
Na7 O23 2.535745 1_655
Nd0 O35 2.366228 1_555
Nd0 O19 2.370433 1_545
Nd0 O30 2.383218 1_655
Nd0 O40 2.496352 1_655
Nd0 O28 2.523728 1_544
Nd0 O17 2.525867 1_554
Nd0 O38 2.545584 1_555
Nd1 O20 2.366228 1_555
Nd1 O23 2.370433 1_565
Nd1 O28 2.383218 1_455
Nd1 O9 2.496352 1_455
Nd1 O30 2.523728 1_566
Nd1 O37 2.525867 1_556
Nd1 O46 2.545584 1_555
Nd2 O5 2.366228 1_555
Nd2 O4 2.370433 1_555
Nd2 O0 2.383218 1_655
Nd2 O34 2.496352 1_655
Nd2 O47 2.523728 1_555
Nd2 O55 2.525867 1_555
Nd2 O22 2.545584 1_555
Nd3 O36 2.366228 1_555
Nd3 O25 2.370433 1_545
Nd3 O11 2.383218 1_555
Nd3 O54 2.496352 1_555
Nd3 O51 2.523728 1_545
Nd3 O45 2.525867 1_555
Nd3 O53 2.545584 1_555
Nd4 O27 2.366228 1_555
Nd4 O42 2.370433 1_555
Nd4 O13 2.383218 1_555
Nd4 O49 2.496352 1_555
Nd4 O32 2.523728 1_556
Nd4 O43 2.525867 1_556
Nd4 O24 2.545584 1_555
Nd5 O21 2.366228 1_555
Nd5 O44 2.370433 1_565
Nd5 O51 2.383218 1_555
Nd5 O2 2.496352 1_555
Nd5 O11 2.523728 1_565
Nd5 O7 2.525867 1_555
Nd5 O3 2.545584 1_555
Nd6 O1 2.366228 1_555
Nd6 O8 2.370433 1_555
Nd6 O32 2.383218 1_555
Nd6 O10 2.496352 1_555
Nd6 O13 2.523728 1_554
Nd6 O14 2.525867 1_554
Nd6 O18 2.545584 1_555
Nd7 O41 2.366228 1_555
Nd7 O16 2.370433 1_555
Nd7 O47 2.383218 1_455
Nd7 O48 2.496352 1_455
Nd7 O0 2.523728 1_555
Nd7 O31 2.525867 1_555
Nd7 O12 2.545584 1_555
O0 Si10 1.648655 1_555
O1 Si7 1.640428 1_555
O2 Si14 1.634289 1_555
O3 Si3 1.635079 1_565
O4 Si9 1.634728 1_555
O5 Si14 1.640428 1_555
O6 Si1 1.682982 1_555
O6 Si11 1.704506 1_555
O7 Si10 1.635030 1_555
O8 Si12 1.634728 1_555
O9 Si2 1.634289 1_555
O10 Si9 1.634289 1_555
O11 Si3 1.648655 1_555
O12 Si10 1.635079 1_555
O13 Si4 1.648655 1_555
O14 Si0 1.635030 1_556
O15 Si8 1.682982 1_555
O15 Si2 1.704506 1_555
O16 Si6 1.634728 1_555
O17 Si5 1.635030 1_556
O18 Si4 1.635079 1_554
O19 Si14 1.634728 1_555
O20 Si6 1.640428 1_555
O21 Si12 1.640428 1_555
O22 Si1 1.635079 1_555
O23 Si13 1.634728 1_555
O24 Si5 1.635079 1_556
O25 Si2 1.634728 1_555
O26 Si5 1.682982 1_555
O26 Si9 1.704506 1_555
O27 Si2 1.640428 1_555
O28 Si8 1.648655 1_555
O29 Si3 1.682982 1_555
O29 Si13 1.704506 1_555
O30 Si0 1.648655 1_555
O31 Si3 1.635030 1_555
O32 Si5 1.648655 1_555
O33 Si0 1.682982 1_555
O33 Si7 1.704506 1_555
O34 Si12 1.634289 1_555
O35 Si9 1.640428 1_555
O36 Si11 1.640428 1_555
O37 Si4 1.635030 1_554
O38 Si8 1.635079 1_544
O39 Si10 1.682982 1_555
O39 Si12 1.704506 1_555
O40 Si7 1.634289 1_555
O41 Si13 1.640428 1_555
O42 Si11 1.634728 1_555
O43 Si8 1.635030 1_554
O44 Si7 1.634728 1_555
O45 Si1 1.635030 1_555
O46 Si0 1.635079 1_566
O47 Si1 1.648655 1_555
O48 Si11 1.634289 1_555
O49 Si6 1.634289 1_555
O50 Si4 1.682982 1_555
O50 Si6 1.704506 1_555
O51 Si15 1.648655 1_555
O52 Si15 1.682982 1_555
O52 Si14 1.704506 1_555
O53 Si15 1.635079 1_545
O54 Si13 1.634289 1_555
O55 Si15 1.635030 1_555
