# generated using pymatgen
data_Zn3BPO7
_symmetry_space_group_name_H-M   'P 1'
_cell_length_a   8.14329087
_cell_length_b   8.14329087
_cell_length_c   4.96153750
_cell_angle_alpha   72.44941873
_cell_angle_beta   72.44941873
_cell_angle_gamma   105.49519154
_symmetry_Int_Tables_number   1
_chemical_formula_structural   Zn3BPO7
_chemical_formula_sum   'Zn6 B2 P2 O14'
_cell_volume   274.91573986
_cell_formula_units_Z   2
loop_
 _symmetry_equiv_pos_site_id
 _symmetry_equiv_pos_as_xyz
  1  'x, y, z'
loop_
 _atom_site_type_symbol
 _atom_site_label
 _atom_site_symmetry_multiplicity
 _atom_site_fract_x
 _atom_site_fract_y
 _atom_site_fract_z
 _atom_site_occupancy
  Zn  Zn0  1  0.35225600  0.84977600  0.76996700  1
  Zn  Zn1  1  0.84977600  0.35225600  0.76996700  1
  Zn  Zn2  1  0.79676500  0.06746000  0.46383300  1
  Zn  Zn3  1  0.29995300  0.51838800  0.46379400  1
  Zn  Zn4  1  0.51838800  0.29995300  0.46379400  1
  Zn  Zn5  1  0.06746000  0.79676500  0.46383300  1
  B  B0  1  0.48329400  0.05592300  0.10082900  1
  B  B1  1  0.05592300  0.48329400  0.10082900  1
  P  P0  1  0.06082000  0.06082000  0.85878200  1
  P  P1  1  0.60622400  0.60622400  0.76681400  1
  O  O0  1  0.33731100  0.90031200  0.14685200  1
  O  O1  1  0.80267800  0.60308800  0.72807700  1
  O  O2  1  0.60452700  0.19010600  0.80108400  1
  O  O3  1  0.10881000  0.91094800  0.76031500  1
  O  O4  1  0.19010600  0.60452700  0.80108400  1
  O  O5  1  0.07536000  0.51457800  0.35297900  1
  O  O6  1  0.60308800  0.80267800  0.72807700  1
  O  O7  1  0.98109400  0.98109400  0.22058900  1
  O  O8  1  0.24060600  0.24060600  0.71959200  1
  O  O9  1  0.46156800  0.46156800  0.10056200  1
  O  O10  1  0.90031200  0.33731100  0.14685200  1
  O  O11  1  0.91094800  0.10881000  0.76031500  1
  O  O12  1  0.55529300  0.55529300  0.51620400  1
  O  O13  1  0.51457800  0.07536000  0.35297900  1
loop_
_geom_bond_atom_site_label_1
_geom_bond_atom_site_label_2
_geom_bond_distance
_geom_bond_site_symmetry_2
B0 O0 1.388520 1_545
B0 O2 1.392279 1_554
B0 O13 1.394695 1_555
B1 O10 1.388520 1_455
B1 O4 1.392279 1_554
B1 O5 1.394695 1_555
O0 Zn0 2.008585 1_554
O0 Zn5 2.034502 1_555
O1 P1 1.560849 1_555
O1 Zn5 2.021518 1_655
O1 Zn1 2.138487 1_555
O2 Zn1 2.009476 1_555
O2 Zn4 2.057459 1_555
O3 P0 1.542787 1_565
O3 Zn5 2.024391 1_555
O3 Zn0 2.179697 1_555
O4 Zn0 2.009476 1_555
O4 Zn3 2.057459 1_555
O5 Zn1 2.040420 1_455
O5 Zn3 2.057826 1_555
O6 P1 1.560849 1_555
O6 Zn2 2.021518 1_565
O6 Zn0 2.138487 1_555
O7 P0 1.560285 1_664
O7 Zn2 2.046393 1_565
O7 Zn5 2.046393 1_655
O8 P0 1.548868 1_555
O8 Zn3 2.067792 1_555
O8 Zn4 2.067792 1_555
O9 P1 1.556608 1_554
O9 Zn4 2.142868 1_555
O9 Zn3 2.142868 1_555
O10 Zn1 2.008585 1_554
O10 Zn2 2.034502 1_555
O11 P0 1.542787 1_655
O11 Zn2 2.024391 1_555
O11 Zn1 2.179697 1_555
O12 P1 1.555706 1_555
O12 Zn3 2.126214 1_555
O12 Zn4 2.126214 1_555
O13 Zn0 2.040420 1_545
O13 Zn4 2.057826 1_555
