# generated using pymatgen
data_CeSmI4
_symmetry_space_group_name_H-M   'P 1'
_cell_length_a   8.87436213
_cell_length_b   8.87436213
_cell_length_c   7.50295574
_cell_angle_alpha   70.19587459
_cell_angle_beta   70.19587459
_cell_angle_gamma   110.09678960
_symmetry_Int_Tables_number   1
_chemical_formula_structural   CeSmI4
_chemical_formula_sum   'Ce2 Sm2 I8'
_cell_volume   447.46836212
_cell_formula_units_Z   2
loop_
 _symmetry_equiv_pos_site_id
 _symmetry_equiv_pos_as_xyz
  1  'x, y, z'
loop_
 _atom_site_type_symbol
 _atom_site_label
 _atom_site_symmetry_multiplicity
 _atom_site_fract_x
 _atom_site_fract_y
 _atom_site_fract_z
 _atom_site_occupancy
  Ce  Ce0  1  0.49947159  0.50052841  0.75000000  1
  Ce  Ce1  1  0.50052841  0.49947159  0.25000000  1
  Sm  Sm0  1  0.86715248  0.13284752  0.25000000  1
  Sm  Sm1  1  0.13284752  0.86715248  0.75000000  1
  I  I0  1  0.87299432  0.75476765  0.25408125  1
  I  I1  1  0.24523235  0.12700568  0.24591875  1
  I  I2  1  0.18799597  0.55582072  0.09128822  1
  I  I3  1  0.55582072  0.18799597  0.59128822  1
  I  I4  1  0.44417928  0.81200403  0.40871178  1
  I  I5  1  0.75476765  0.87299432  0.75408125  1
  I  I6  1  0.81200403  0.44417928  0.90871178  1
  I  I7  1  0.12700568  0.24523235  0.74591875  1
loop_
_geom_bond_atom_site_label_1
_geom_bond_atom_site_label_2
_geom_bond_distance
_geom_bond_site_symmetry_2
Ce0 I1 3.276788 1_556
Ce0 I0 3.276788 1_555
Ce0 I5 3.320957 1_555
Ce0 I7 3.320957 1_555
Ce0 I4 3.380181 1_555
Ce0 I2 3.380181 1_556
Ce0 I6 3.485416 1_555
Ce0 I3 3.485416 1_555
Ce1 I5 3.276788 1_554
Ce1 I7 3.276788 1_555
Ce1 I0 3.320957 1_555
Ce1 I1 3.320957 1_555
Ce1 I6 3.380181 1_554
Ce1 I3 3.380181 1_555
Ce1 I4 3.485416 1_555
Ce1 I2 3.485416 1_555
I0 Sm1 3.251208 1_654
I0 Sm0 3.363347 1_565
I1 Sm1 3.251208 1_545
I1 Sm0 3.363347 1_455
I2 Sm0 3.308128 1_455
I2 Sm1 3.378529 1_554
I3 Sm1 3.308128 1_545
I3 Sm0 3.378529 1_555
I4 Sm0 3.308128 1_565
I4 Sm1 3.378529 1_555
I5 Sm0 3.251208 1_565
I5 Sm1 3.363347 1_655
I6 Sm1 3.308128 1_655
I6 Sm0 3.378529 1_556
I7 Sm0 3.251208 1_456
I7 Sm1 3.363347 1_545
