# generated using pymatgen
data_Al2CuO4
_symmetry_space_group_name_H-M   'P 1'
_cell_length_a   19.21543114
_cell_length_b   19.21543114
_cell_length_c   19.21543068
_cell_angle_alpha   17.20443146
_cell_angle_beta   17.20443146
_cell_angle_gamma   17.20443247
_symmetry_Int_Tables_number   1
_chemical_formula_structural   Al2CuO4
_chemical_formula_sum   'Al16 Cu8 O32'
_cell_volume   541.59519318
_cell_formula_units_Z   8
loop_
 _symmetry_equiv_pos_site_id
 _symmetry_equiv_pos_as_xyz
  1  'x, y, z'
loop_
 _atom_site_type_symbol
 _atom_site_label
 _atom_site_symmetry_multiplicity
 _atom_site_fract_x
 _atom_site_fract_y
 _atom_site_fract_z
 _atom_site_occupancy
  Al  Al0  1  0.13023100  0.62226300  0.62226300  1
  Al  Al1  1  0.62226300  0.13023100  0.62226300  1
  Al  Al2  1  0.87228200  0.87228200  0.38000600  1
  Al  Al3  1  0.38000600  0.87228200  0.87228200  1
  Al  Al4  1  0.62226300  0.62226300  0.13023100  1
  Al  Al5  1  0.87228200  0.38000600  0.87228200  1
  Al  Al6  1  0.12377300  0.12377300  0.62669700  1
  Al  Al7  1  0.62669700  0.12377300  0.12377300  1
  Al  Al8  1  0.09446100  0.09446100  0.09446100  1
  Al  Al9  1  0.12377300  0.62669700  0.12377300  1
  Al  Al10  1  0.25014700  0.25014700  0.25014700  1
  Al  Al11  1  0.34474900  0.34474900  0.34474900  1
  Al  Al12  1  0.37401100  0.87746300  0.37401100  1
  Al  Al13  1  0.87746300  0.37401100  0.37401100  1
  Al  Al14  1  0.37401100  0.37401100  0.87746300  1
  Al  Al15  1  0.84387400  0.84387400  0.84387400  1
  Cu  Cu0  1  0.15660000  0.15660000  0.15660000  1
  Cu  Cu1  1  0.49936000  0.49936000  0.49936000  1
  Cu  Cu2  1  0.40606900  0.40606900  0.40606900  1
  Cu  Cu3  1  0.74912400  0.74912400  0.74912400  1
  Cu  Cu4  1  0.65567000  0.65567000  0.65567000  1
  Cu  Cu5  1  0.99884700  0.99884700  0.99884700  1
  Cu  Cu6  1  0.90652100  0.90652100  0.90652100  1
  Cu  Cu7  1  0.59393800  0.59393800  0.59393800  1
  O  O0  1  0.32384500  0.78188900  0.32384500  1
  O  O1  1  0.44075200  0.44075200  0.44075200  1
  O  O2  1  0.78188900  0.32384500  0.32384500  1
  O  O3  1  0.32384500  0.32384500  0.78188900  1
  O  O4  1  0.57407800  0.03125700  0.57407800  1
  O  O5  1  0.93486200  0.93486200  0.44939100  1
  O  O6  1  0.44939100  0.93486200  0.93486200  1
  O  O7  1  0.03125700  0.57407800  0.57407800  1
  O  O8  1  0.69057800  0.69057800  0.69057800  1
  O  O9  1  0.81055400  0.81055400  0.81055400  1
  O  O10  1  0.57407800  0.57407800  0.03125700  1
  O  O11  1  0.93486200  0.44939100  0.93486200  1
  O  O12  1  0.82311400  0.28258200  0.82311400  1
  O  O13  1  0.18427100  0.18427100  0.70124600  1
  O  O14  1  0.70124600  0.18427100  0.18427100  1
  O  O15  1  0.28258200  0.82311400  0.82311400  1
  O  O16  1  0.06122100  0.06122100  0.06122100  1
  O  O17  1  0.94094000  0.94094000  0.94094000  1
  O  O18  1  0.82311400  0.82311400  0.28258200  1
  O  O19  1  0.18427100  0.70124600  0.18427100  1
  O  O20  1  0.08169000  0.52129800  0.08169000  1
  O  O21  1  0.41785500  0.41785500  0.98205800  1
  O  O22  1  0.19126800  0.19126800  0.19126800  1
  O  O23  1  0.52129800  0.08169000  0.08169000  1
  O  O24  1  0.98205800  0.41785500  0.41785500  1
  O  O25  1  0.31242100  0.31242100  0.31242100  1
  O  O26  1  0.08169000  0.08169000  0.52129800  1
  O  O27  1  0.41785500  0.98205800  0.41785500  1
  O  O28  1  0.68704300  0.68704300  0.19345400  1
  O  O29  1  0.19345400  0.68704300  0.68704300  1
  O  O30  1  0.55715900  0.55715900  0.55715900  1
  O  O31  1  0.68704300  0.19345400  0.68704300  1
loop_
_geom_bond_atom_site_label_1
_geom_bond_atom_site_label_2
_geom_bond_distance
_geom_bond_site_symmetry_2
Al0 O3 1.889869 1_555
Al0 O0 1.889869 1_555
Al0 O1 1.911502 1_555
Al0 O5 1.957230 1_455
Al0 O11 1.957230 1_455
Al0 O9 2.000490 1_455
Al1 O3 1.889869 1_555
Al1 O2 1.889869 1_555
Al1 O1 1.911502 1_555
Al1 O5 1.957230 1_545
Al1 O6 1.957230 1_545
Al1 O9 2.000490 1_545
Al2 O4 1.889395 1_565
Al2 O7 1.889395 1_655
Al2 O8 1.915496 1_555
Al2 O14 1.944966 1_565
Al2 O19 1.944966 1_655
Al2 O16 2.022411 1_665
Al3 O10 1.889395 1_556
Al3 O4 1.889395 1_565
Al3 O8 1.915496 1_555
Al3 O13 1.944966 1_565
Al3 O19 1.944966 1_556
Al3 O16 2.022411 1_566
Al4 O0 1.889869 1_555
Al4 O2 1.889869 1_555
Al4 O1 1.911502 1_555
Al4 O11 1.957230 1_554
Al4 O6 1.957230 1_554
Al4 O9 2.000490 1_554
Al5 O10 1.889395 1_556
Al5 O7 1.889395 1_655
Al5 O8 1.915496 1_555
Al5 O13 1.944966 1_655
Al5 O14 1.944966 1_556
Al5 O16 2.022411 1_656
Al6 O15 1.896763 1_545
Al6 O12 1.896763 1_455
Al6 O27 1.898982 1_545
Al6 O24 1.898982 1_455
Al6 O17 1.915374 1_445
Al6 O25 2.051462 1_555
Al7 O18 1.896763 1_545
Al7 O12 1.896763 1_554
Al7 O21 1.898982 1_554
Al7 O27 1.898982 1_545
Al7 O17 1.915374 1_544
Al7 O25 2.051462 1_555
Al8 O5 1.836637 1_445
Al8 O6 1.836638 1_544
Al8 O11 1.836638 1_454
Al8 O16 1.887367 1_555
Al9 O18 1.896763 1_455
Al9 O15 1.896763 1_554
Al9 O21 1.898982 1_554
Al9 O24 1.898982 1_455
Al9 O17 1.915374 1_454
Al9 O25 2.051462 1_555
Al10 O23 1.917745 1_555
Al10 O20 1.917745 1_555
Al10 O26 1.917745 1_555
Al10 O24 1.927580 1_455
Al10 O27 1.927580 1_545
Al10 O21 1.927580 1_554
Al11 O25 1.835584 1_555
Al11 O13 1.842864 1_555
Al11 O19 1.842865 1_555
Al11 O14 1.842865 1_555
Al12 O30 1.883986 1_555
Al12 O22 1.916353 1_565
Al12 O26 1.922256 1_565
Al12 O23 1.922256 1_565
Al12 O28 1.985150 1_555
Al12 O29 1.985150 1_555
Al13 O30 1.883986 1_555
Al13 O22 1.916353 1_655
Al13 O26 1.922256 1_655
Al13 O20 1.922256 1_655
Al13 O28 1.985150 1_555
Al13 O31 1.985150 1_555
Al14 O30 1.883986 1_555
Al14 O22 1.916353 1_556
Al14 O20 1.922256 1_556
Al14 O23 1.922256 1_556
Al14 O29 1.985150 1_555
Al14 O31 1.985150 1_555
Al15 O28 1.812933 1_556
Al15 O29 1.812933 1_655
Al15 O31 1.812933 1_565
Al15 O9 1.891910 1_555
Cu0 O3 1.953079 1_554
Cu0 O2 1.953080 1_455
Cu0 O0 1.953080 1_545
Cu0 O22 1.968449 1_555
Cu1 O0 1.997925 1_555
Cu1 O2 1.997925 1_555
Cu1 O3 1.997925 1_555
Cu1 O31 2.100395 1_555
Cu1 O29 2.100395 1_555
Cu1 O28 2.100395 1_555
Cu2 O10 1.945370 1_555
Cu2 O4 1.945370 1_555
Cu2 O7 1.945370 1_555
Cu2 O1 1.969301 1_555
Cu3 O4 1.989093 1_565
Cu3 O7 1.989093 1_655
Cu3 O10 1.989093 1_556
Cu3 O6 2.107035 1_555
Cu3 O11 2.107035 1_555
Cu3 O5 2.107035 1_555
Cu4 O18 1.934106 1_555
Cu4 O12 1.934107 1_555
Cu4 O15 1.934107 1_555
Cu4 O8 1.982076 1_555
Cu5 O12 1.992114 1_565
Cu5 O15 1.992114 1_655
Cu5 O18 1.992114 1_556
Cu5 O14 2.119344 1_566
Cu5 O19 2.119344 1_656
Cu5 O13 2.119344 1_665
Cu6 O17 1.954311 1_555
Cu6 O26 1.973524 1_665
Cu6 O20 1.973524 1_656
Cu6 O23 1.973524 1_566
Cu7 O21 1.992267 1_555
Cu7 O24 1.992267 1_555
Cu7 O27 1.992267 1_555
Cu7 O30 2.088312 1_555
