# generated using pymatgen
data_Ca4Ti3AlSi4O19F
_symmetry_space_group_name_H-M   'P 1'
_cell_length_a   5.47604500
_cell_length_b   7.11103443
_cell_length_c   19.99135039
_cell_angle_alpha   89.25601138
_cell_angle_beta   96.26319110
_cell_angle_gamma   104.41185981
_symmetry_Int_Tables_number   1
_chemical_formula_structural   Ca4Ti3AlSi4O19F
_chemical_formula_sum   'Ca8 Ti6 Al2 Si8 O38 F2'
_cell_volume   749.39147404
_cell_formula_units_Z   2
loop_
 _symmetry_equiv_pos_site_id
 _symmetry_equiv_pos_as_xyz
  1  'x, y, z'
loop_
 _atom_site_type_symbol
 _atom_site_label
 _atom_site_symmetry_multiplicity
 _atom_site_fract_x
 _atom_site_fract_y
 _atom_site_fract_z
 _atom_site_occupancy
  Ca  Ca0  1  0.41956400  0.33469600  0.41823400  1
  Ca  Ca1  1  0.16081500  0.08199500  0.66477100  1
  Ca  Ca2  1  0.91092000  0.83067500  0.91724800  1
  Ca  Ca3  1  0.66188300  0.58192300  0.16935100  1
  Ca  Ca4  1  0.58043600  0.66530400  0.58176600  1
  Ca  Ca5  1  0.33811700  0.41807700  0.83064900  1
  Ca  Ca6  1  0.08908000  0.16932500  0.08275200  1
  Ca  Ca7  1  0.83918500  0.91800500  0.33522900  1
  Ti  Ti0  1  0.74829100  0.24940300  0.74738700  1
  Ti  Ti1  1  0.74988300  0.75018600  0.74839500  1
  Ti  Ti2  1  0.50000000  0.00000000  0.00000000  1
  Ti  Ti3  1  0.50000000  0.50000000  0.00000000  1
  Ti  Ti4  1  0.25170900  0.75059700  0.25261300  1
  Ti  Ti5  1  0.25011700  0.24981400  0.25160500  1
  Al  Al0  1  0.00000000  0.50000000  0.50000000  1
  Al  Al1  1  0.00000000  0.00000000  0.50000000  1
  Si  Si0  1  0.39732200  0.83119200  0.42465600  1
  Si  Si1  1  0.14404000  0.57652400  0.66620000  1
  Si  Si2  1  0.89860200  0.32916100  0.91918900  1
  Si  Si3  1  0.60267800  0.16880800  0.57534400  1
  Si  Si4  1  0.64952800  0.08063300  0.17147600  1
  Si  Si5  1  0.35047200  0.91936700  0.82852400  1
  Si  Si6  1  0.10139800  0.67083900  0.08081100  1
  Si  Si7  1  0.85596000  0.42347600  0.33380000  1
  O  O0  1  0.30770500  0.03827500  0.55811000  1
  O  O1  1  0.32768900  0.63880700  0.47377800  1
  O  O2  1  0.06428800  0.77543300  0.81123400  1
  O  O3  1  0.15005600  0.49912100  0.58938600  1
  O  O4  1  0.18776100  0.96428400  0.42661800  1
  O  O5  1  0.09098800  0.39203000  0.71838000  1
  O  O6  1  0.81223900  0.03571600  0.57338200  1
  O  O7  1  0.84994400  0.50087900  0.41061400  1
  O  O8  1  0.83828500  0.01477100  0.73111400  1
  O  O9  1  0.81511800  0.52777900  0.06305200  1
  O  O10  1  0.90599800  0.24655100  0.84302400  1
  O  O11  1  0.93676300  0.70957400  0.66852300  1
  O  O12  1  0.84186000  0.14456100  0.97129600  1
  O  O13  1  0.67231100  0.36119300  0.52622200  1
  O  O14  1  0.55862300  0.78661500  0.82698600  1
  O  O15  1  0.59734500  0.24782000  0.65266400  1
  O  O16  1  0.58792900  0.76760900  0.98276400  1
  O  O17  1  0.56874400  0.28116500  0.31526100  1
  O  O18  1  0.69229500  0.96172500  0.44189000  1
  O  O19  1  0.66174900  0.48023100  0.76505200  1
  O  O20  1  0.65591800  0.99779700  0.09525500  1
  O  O21  1  0.69010800  0.46150300  0.92088300  1
  O  O22  1  0.59291700  0.89642500  0.22354400  1
  O  O23  1  0.40708300  0.10357500  0.77645600  1
  O  O24  1  0.30989200  0.53849700  0.07911700  1
  O  O25  1  0.34408200  0.00220300  0.90474500  1
  O  O26  1  0.33825100  0.51976900  0.23494800  1
  O  O27  1  0.43125600  0.71883500  0.68473900  1
  O  O28  1  0.41207100  0.23239100  0.01723600  1
  O  O29  1  0.40265500  0.75218000  0.34733600  1
  O  O30  1  0.44137700  0.21338500  0.17301400  1
  O  O31  1  0.15814000  0.85543900  0.02870400  1
  O  O32  1  0.06323700  0.29042600  0.33147700  1
  O  O33  1  0.09400200  0.75344900  0.15697600  1
  O  O34  1  0.18488200  0.47222100  0.93694800  1
  O  O35  1  0.16171500  0.98522900  0.26888600  1
  O  O36  1  0.90901200  0.60797000  0.28162000  1
  O  O37  1  0.93571200  0.22456700  0.18876600  1
  F  F0  1  0.08116400  0.26649100  0.48209100  1
  F  F1  1  0.91883600  0.73350900  0.51790900  1
loop_
_geom_bond_atom_site_label_1
_geom_bond_atom_site_label_2
_geom_bond_distance
_geom_bond_site_symmetry_2
Ca0 F0 2.313344 1_555
Ca0 O17 2.364748 1_555
Ca0 O7 2.379372 1_555
Ca0 O13 2.416701 1_555
Ca0 O32 2.425826 1_555
Ca0 O1 2.624604 1_555
Ca0 O4 2.635909 1_545
Ca1 O8 2.276256 1_455
Ca1 O0 2.409627 1_555
Ca1 O15 2.424673 1_555
Ca1 O6 2.455968 1_455
Ca1 O23 2.464997 1_555
Ca1 O5 2.593408 1_555
Ca1 O11 2.630960 1_445
Ca2 O16 2.267219 1_555
Ca2 O25 2.420319 1_665
Ca2 O2 2.434251 1_655
Ca2 O14 2.455662 1_555
Ca2 O31 2.462070 1_656
Ca2 O21 2.606365 1_555
Ca2 O12 2.620022 1_565
Ca3 O26 2.271112 1_555
Ca3 O33 2.414851 1_655
Ca3 O9 2.437087 1_555
Ca3 O24 2.454435 1_555
Ca3 O36 2.475151 1_555
Ca3 O30 2.602020 1_555
Ca3 O22 2.625001 1_555
Ca4 F1 2.313344 1_555
Ca4 O27 2.364748 1_555
Ca4 O3 2.379372 1_555
Ca4 O1 2.416701 1_555
Ca4 O11 2.425826 1_555
Ca4 O13 2.624604 1_555
Ca4 O6 2.635909 1_565
Ca5 O19 2.271112 1_555
Ca5 O10 2.414851 1_455
Ca5 O34 2.437087 1_555
Ca5 O21 2.454435 1_555
Ca5 O5 2.475151 1_555
Ca5 O14 2.602020 1_555
Ca5 O23 2.625001 1_555
Ca6 O28 2.267219 1_555
Ca6 O20 2.420319 1_445
Ca6 O37 2.434251 1_455
Ca6 O30 2.455662 1_555
Ca6 O12 2.462070 1_454
Ca6 O24 2.606365 1_555
Ca6 O31 2.620022 1_545
Ca7 O35 2.276256 1_655
Ca7 O18 2.409627 1_555
Ca7 O29 2.424673 1_555
Ca7 O4 2.455968 1_655
Ca7 O22 2.464997 1_555
Ca7 O36 2.593408 1_555
Ca7 O32 2.630960 1_665
Al0 F1 1.870958 1_455
Al0 F0 1.870958 1_555
Al0 O3 1.884228 1_555
Al0 O7 1.884228 1_455
Al0 O13 1.944025 1_455
Al0 O1 1.944025 1_555
Al1 F0 1.874751 1_555
Al1 F1 1.874751 1_445
Al1 O18 1.901495 1_445
Al1 O0 1.901495 1_555
Al1 O4 1.934568 1_545
Al1 O6 1.934568 1_455
O0 Si3 1.652265 1_555
O1 Si0 1.663873 1_555
O2 Si5 1.647906 1_555
O2 Ti1 1.988636 1_455
O3 Si1 1.644437 1_555
O4 Si0 1.663002 1_555
O5 Si1 1.653666 1_555
O5 Ti0 2.039945 1_455
O6 Si3 1.663002 1_555
O7 Si7 1.644437 1_555
O8 Ti1 1.860071 1_545
O8 Ti0 1.894962 1_555
O9 Si6 1.647014 1_655
O9 Ti3 1.991924 1_555
O10 Si2 1.647329 1_555
O10 Ti0 2.012235 1_555
O11 Si1 1.653141 1_655
O11 Ti1 2.048392 1_555
O12 Si2 1.654362 1_555
O12 Ti2 2.037570 1_556
O13 Si3 1.663873 1_555
O14 Si5 1.653891 1_555
O14 Ti1 2.034009 1_555
O15 Si3 1.657224 1_555
O15 Ti0 1.980819 1_555
O16 Ti2 1.878440 1_566
O16 Ti3 1.880148 1_556
O17 Si7 1.650892 1_555
O17 Ti5 2.010667 1_555
O18 Si0 1.652265 1_555
O19 Ti0 1.866110 1_555
O19 Ti1 1.893724 1_555
O20 Si4 1.647803 1_565
O20 Ti2 2.001659 1_565
O21 Si2 1.653613 1_555
O21 Ti3 2.042722 1_556
O22 Si4 1.651762 1_565
O22 Ti4 2.039856 1_555
O23 Si5 1.651762 1_545
O23 Ti0 2.039856 1_555
O24 Si6 1.653613 1_555
O24 Ti3 2.042722 1_555
O25 Si5 1.647803 1_545
O25 Ti2 2.001659 1_556
O26 Ti4 1.866110 1_555
O26 Ti5 1.893724 1_555
O27 Si1 1.650892 1_555
O27 Ti1 2.010667 1_555
O28 Ti2 1.878440 1_555
O28 Ti3 1.880148 1_555
O29 Si0 1.657224 1_555
O29 Ti4 1.980819 1_555
O30 Si4 1.653891 1_555
O30 Ti5 2.034009 1_555
O31 Si6 1.654362 1_555
O31 Ti2 2.037570 1_565
O32 Si7 1.653141 1_455
O32 Ti5 2.048392 1_555
O33 Si6 1.647329 1_555
O33 Ti4 2.012235 1_555
O34 Si2 1.647014 1_455
O34 Ti3 1.991924 1_556
O35 Ti5 1.860071 1_565
O35 Ti4 1.894962 1_555
O36 Si7 1.653666 1_555
O36 Ti4 2.039945 1_655
O37 Si4 1.647906 1_555
O37 Ti5 1.988636 1_655
