# generated using pymatgen
data_K3Pu(PS4)2
_symmetry_space_group_name_H-M   'P 1'
_cell_length_a   17.28054300
_cell_length_b   9.12925800
_cell_length_c   9.62077060
_cell_angle_alpha   89.58398607
_cell_angle_beta   90.00000000
_cell_angle_gamma   90.00000000
_symmetry_Int_Tables_number   1
_chemical_formula_structural   K3Pu(PS4)2
_chemical_formula_sum   'K12 Pu4 P8 S32'
_cell_volume   1517.71867197
_cell_formula_units_Z   4
loop_
 _symmetry_equiv_pos_site_id
 _symmetry_equiv_pos_as_xyz
  1  'x, y, z'
loop_
 _atom_site_type_symbol
 _atom_site_label
 _atom_site_symmetry_multiplicity
 _atom_site_fract_x
 _atom_site_fract_y
 _atom_site_fract_z
 _atom_site_occupancy
  K  K0  1  0.53114500  0.76807000  0.51193900  1
  K  K1  1  0.03114500  0.23193000  0.98806100  1
  K  K2  1  0.46885500  0.23193000  0.48806100  1
  K  K3  1  0.96885500  0.76807000  0.01193900  1
  K  K4  1  0.70808600  0.37773500  0.62766300  1
  K  K5  1  0.20808600  0.62226500  0.87233700  1
  K  K6  1  0.29191400  0.62226500  0.37233700  1
  K  K7  1  0.79191400  0.37773500  0.12766300  1
  K  K8  1  0.78824200  0.88510500  0.63249700  1
  K  K9  1  0.28824200  0.11489500  0.86750300  1
  K  K10  1  0.21175800  0.11489500  0.36750300  1
  K  K11  1  0.71175800  0.88510500  0.13249700  1
  Pu  Pu0  1  0.01187100  0.72051900  0.47534200  1
  Pu  Pu1  1  0.51187100  0.27948100  0.02465800  1
  Pu  Pu2  1  0.98812900  0.27948100  0.52465800  1
  Pu  Pu3  1  0.48812900  0.72051900  0.97534200  1
  P  P0  1  0.90362700  0.02686200  0.28343500  1
  P  P1  1  0.40362700  0.97313800  0.21656500  1
  P  P2  1  0.09637300  0.97313800  0.71656500  1
  P  P3  1  0.59637300  0.02686200  0.78343500  1
  P  P4  1  0.10027600  0.49906400  0.26031900  1
  P  P5  1  0.60027600  0.50093600  0.23968100  1
  P  P6  1  0.89972400  0.50093600  0.73968100  1
  P  P7  1  0.39972400  0.49906400  0.76031900  1
  S  S0  1  0.15206300  0.82905300  0.58686100  1
  S  S1  1  0.65206300  0.17094700  0.91313900  1
  S  S2  1  0.84793700  0.17094700  0.41313900  1
  S  S3  1  0.34793700  0.82905300  0.08686100  1
  S  S4  1  0.87534200  0.81325600  0.33647100  1
  S  S5  1  0.37534200  0.18674400  0.16352900  1
  S  S6  1  0.12465800  0.18674400  0.66352900  1
  S  S7  1  0.62465800  0.81325600  0.83647100  1
  S  S8  1  0.02064600  0.04655800  0.32553000  1
  S  S9  1  0.52064600  0.95344200  0.17447000  1
  S  S10  1  0.97935400  0.95344200  0.67447000  1
  S  S11  1  0.47935400  0.04655800  0.82553000  1
  S  S12  1  0.11989500  0.46629300  0.47128000  1
  S  S13  1  0.61989500  0.53370700  0.02872000  1
  S  S14  1  0.88010500  0.53370700  0.52872000  1
  S  S15  1  0.38010500  0.46629300  0.97128000  1
  S  S16  1  0.10977600  0.72018500  0.23117000  1
  S  S17  1  0.60977600  0.27981500  0.26883000  1
  S  S18  1  0.89022400  0.27981500  0.76883000  1
  S  S19  1  0.39022400  0.72018500  0.73117000  1
  S  S20  1  0.98433800  0.44544300  0.25206100  1
  S  S21  1  0.48433800  0.55455700  0.24793900  1
  S  S22  1  0.01566200  0.55455700  0.74793900  1
  S  S23  1  0.51566200  0.44544300  0.75206100  1
  S  S24  1  0.17525100  0.38511600  0.14114900  1
  S  S25  1  0.67525100  0.61488400  0.35885100  1
  S  S26  1  0.82474900  0.61488400  0.85885100  1
  S  S27  1  0.32474900  0.38511600  0.64114900  1
  S  S28  1  0.87463500  0.06544800  0.08225100  1
  S  S29  1  0.37463500  0.93455200  0.41774900  1
  S  S30  1  0.12536500  0.93455200  0.91774900  1
  S  S31  1  0.62536500  0.06544800  0.58225100  1
loop_
_geom_bond_atom_site_label_1
_geom_bond_atom_site_label_2
_geom_bond_distance
_geom_bond_site_symmetry_2
K0 S25 3.218089 1_555
K0 S29 3.228912 1_555
K0 S31 3.241229 1_565
K0 S19 3.249073 1_555
K0 S21 3.313092 1_555
K0 S7 3.542403 1_555
K0 S9 3.654884 1_555
K0 S23 3.739608 1_555
K1 S24 3.218089 1_556
K1 S28 3.228912 1_456
K1 S30 3.241229 1_545
K1 S18 3.249073 1_455
K1 S20 3.313092 1_456
K1 S6 3.542403 1_555
K1 S8 3.654884 1_556
K1 S22 3.739608 1_555
K2 S27 3.218089 1_555
K2 S31 3.228912 1_555
K2 S29 3.241229 1_545
K2 S17 3.249073 1_555
K2 S23 3.313092 1_555
K2 S5 3.542403 1_555
K2 S11 3.654884 1_555
K2 S21 3.739608 1_555
K3 S26 3.218089 1_554
K3 S30 3.228912 1_654
K3 S28 3.241229 1_565
K3 S16 3.249073 1_655
K3 S22 3.313092 1_654
K3 S4 3.542403 1_555
K3 S10 3.654884 1_554
K3 S20 3.739608 1_555
K4 S31 3.221838 1_555
K4 S25 3.408249 1_555
K4 S14 3.427857 1_555
K4 S1 3.459634 1_555
K4 S18 3.540117 1_555
K4 S23 3.589158 1_555
K4 S2 3.704122 1_555
K4 S26 3.710590 1_555
K5 S30 3.221838 1_555
K5 S24 3.408249 1_556
K5 S15 3.427857 1_555
K5 S0 3.459634 1_555
K5 S19 3.540117 1_555
K5 S22 3.589158 1_555
K5 S3 3.704122 1_556
K5 S27 3.710590 1_555
K6 S29 3.221838 1_555
K6 S27 3.408249 1_555
K6 S12 3.427857 1_555
K6 S3 3.459634 1_555
K6 S16 3.540117 1_555
K6 S21 3.589158 1_555
K6 S0 3.704122 1_555
K6 S24 3.710590 1_555
K7 S28 3.221838 1_555
K7 S26 3.408249 1_554
K7 S13 3.427857 1_555
K7 S2 3.459634 1_555
K7 S17 3.540117 1_555
K7 S20 3.589158 1_555
K7 S1 3.704122 1_554
K7 S25 3.710590 1_555
K8 S4 3.291488 1_555
K8 S31 3.294653 1_565
K8 S26 3.338867 1_555
K8 S10 3.385641 1_555
K8 S2 3.499647 1_565
K8 S7 3.500489 1_555
K8 S14 3.722177 1_555
K9 S5 3.291488 1_556
K9 S30 3.294653 1_545
K9 S27 3.338867 1_555
K9 S11 3.385641 1_555
K9 S3 3.499647 1_546
K9 S6 3.500489 1_555
K9 S15 3.722177 1_555
K10 S6 3.291488 1_555
K10 S29 3.294653 1_545
K10 S24 3.338867 1_555
K10 S8 3.385641 1_555
K10 S0 3.499647 1_545
K10 S5 3.500489 1_555
K10 S12 3.722177 1_555
K11 S7 3.291488 1_554
K11 S28 3.294653 1_565
K11 S25 3.338867 1_555
K11 S9 3.385641 1_555
K11 S1 3.499647 1_564
K11 S4 3.500489 1_555
K11 S13 3.722177 1_555
Pu0 S0 2.831477 1_555
Pu0 S4 2.837540 1_455
Pu0 S14 2.888642 1_455
Pu0 S16 2.894970 1_555
Pu0 S10 2.926891 1_455
Pu0 S12 2.978929 1_555
Pu0 S22 3.019958 1_555
Pu0 S8 3.301148 1_565
Pu0 S20 3.350450 1_455
Pu1 S1 2.831477 1_554
Pu1 S5 2.837540 1_555
Pu1 S15 2.888642 1_554
Pu1 S17 2.894970 1_555
Pu1 S11 2.926891 1_554
Pu1 S13 2.978929 1_555
Pu1 S23 3.019958 1_554
Pu1 S9 3.301148 1_545
Pu1 S21 3.350450 1_555
Pu2 S2 2.831477 1_555
Pu2 S6 2.837540 1_655
Pu2 S12 2.888642 1_655
Pu2 S18 2.894970 1_555
Pu2 S8 2.926891 1_655
Pu2 S14 2.978929 1_555
Pu2 S20 3.019958 1_555
Pu2 S10 3.301148 1_545
Pu2 S22 3.350450 1_655
Pu3 S3 2.831477 1_556
Pu3 S7 2.837540 1_555
Pu3 S13 2.888642 1_556
Pu3 S19 2.894970 1_555
Pu3 S9 2.926891 1_556
Pu3 S15 2.978929 1_555
Pu3 S21 3.019958 1_556
Pu3 S11 3.301148 1_565
Pu3 S23 3.350450 1_555
P0 S28 2.027688 1_555
P0 S2 2.058481 1_555
P0 S8 2.070387 1_655
P0 S4 2.070642 1_545
P1 S29 2.027688 1_555
P1 S3 2.058481 1_555
P1 S9 2.070387 1_555
P1 S5 2.070642 1_565
P2 S30 2.027688 1_555
P2 S0 2.058481 1_555
P2 S10 2.070387 1_455
P2 S6 2.070642 1_565
P3 S31 2.027688 1_555
P3 S1 2.058481 1_555
P3 S11 2.070387 1_555
P3 S7 2.070642 1_545
P4 S24 2.023003 1_555
P4 S16 2.042647 1_555
P4 S20 2.064075 1_455
P4 S12 2.077242 1_555
P5 S25 2.023003 1_555
P5 S17 2.042647 1_555
P5 S21 2.064075 1_555
P5 S13 2.077242 1_555
P6 S26 2.023003 1_555
P6 S18 2.042647 1_555
P6 S22 2.064075 1_655
P6 S14 2.077242 1_555
P7 S27 2.023003 1_555
P7 S19 2.042647 1_555
P7 S23 2.064075 1_555
P7 S15 2.077242 1_555
