# generated using pymatgen
data_NdNiSb3
_symmetry_space_group_name_H-M   'P 1'
_cell_length_a   6.23756530
_cell_length_b   12.72674041
_cell_length_c   18.34531071
_cell_angle_alpha   90.00000000
_cell_angle_beta   90.00000000
_cell_angle_gamma   90.00000000
_symmetry_Int_Tables_number   1
_chemical_formula_structural   NdNiSb3
_chemical_formula_sum   'Nd12 Ni12 Sb36'
_cell_volume   1456.32184056
_cell_formula_units_Z   12
loop_
 _symmetry_equiv_pos_site_id
 _symmetry_equiv_pos_as_xyz
  1  'x, y, z'
loop_
 _atom_site_type_symbol
 _atom_site_label
 _atom_site_symmetry_multiplicity
 _atom_site_fract_x
 _atom_site_fract_y
 _atom_site_fract_z
 _atom_site_occupancy
  Nd  Nd0  1  0.44285407  0.69448942  0.75000000  1
  Nd  Nd1  1  0.97343318  0.70044764  0.91643150  1
  Nd  Nd2  1  0.52656682  0.70044764  0.08356850  1
  Nd  Nd3  1  0.52656682  0.70044764  0.41643150  1
  Nd  Nd4  1  0.47343318  0.29955236  0.58356850  1
  Nd  Nd5  1  0.47343318  0.29955236  0.91643150  1
  Nd  Nd6  1  0.55714593  0.30551058  0.25000000  1
  Nd  Nd7  1  0.05714593  0.69448942  0.25000000  1
  Nd  Nd8  1  0.94285407  0.30551058  0.75000000  1
  Nd  Nd9  1  0.02656682  0.29955236  0.41643150  1
  Nd  Nd10  1  0.97343318  0.70044764  0.58356850  1
  Nd  Nd11  1  0.02656682  0.29955236  0.08356850  1
  Ni  Ni0  1  0.75000000  0.10070338  0.00000000  1
  Ni  Ni1  1  0.25000000  0.89929662  0.50000000  1
  Ni  Ni2  1  0.75000000  0.10070338  0.50000000  1
  Ni  Ni3  1  0.25000000  0.89929662  0.00000000  1
  Ni  Ni4  1  0.32576278  0.09664306  0.17548787  1
  Ni  Ni5  1  0.67423722  0.90335694  0.82451213  1
  Ni  Ni6  1  0.17423722  0.09664306  0.67548787  1
  Ni  Ni7  1  0.32576278  0.09664306  0.32451213  1
  Ni  Ni8  1  0.82576278  0.90335694  0.32451213  1
  Ni  Ni9  1  0.17423722  0.09664306  0.82451213  1
  Ni  Ni10  1  0.67423722  0.90335694  0.67548787  1
  Ni  Ni11  1  0.82576278  0.90335694  0.17548787  1
  Sb  Sb0  1  0.04098360  0.02522424  0.08655094  1
  Sb  Sb1  1  0.79159676  0.50350846  0.16607164  1
  Sb  Sb2  1  0.68123195  0.05695876  0.25000000  1
  Sb  Sb3  1  0.75000000  0.49670355  0.00000000  1
  Sb  Sb4  1  0.94586271  0.78185747  0.75000000  1
  Sb  Sb5  1  0.29159676  0.49649154  0.16607164  1
  Sb  Sb6  1  0.25000000  0.50329645  0.00000000  1
  Sb  Sb7  1  0.20840324  0.49649154  0.83392836  1
  Sb  Sb8  1  0.70840324  0.50350846  0.66607164  1
  Sb  Sb9  1  0.79159676  0.50350846  0.33392836  1
  Sb  Sb10  1  0.05413729  0.21814253  0.25000000  1
  Sb  Sb11  1  0.54098360  0.97477576  0.08655094  1
  Sb  Sb12  1  0.97386224  0.22235916  0.58407885  1
  Sb  Sb13  1  0.95901640  0.97477576  0.58655094  1
  Sb  Sb14  1  0.47386224  0.77764084  0.91592115  1
  Sb  Sb15  1  0.52613776  0.22235916  0.08407885  1
  Sb  Sb16  1  0.97386224  0.22235916  0.91592115  1
  Sb  Sb17  1  0.45901640  0.02522424  0.58655094  1
  Sb  Sb18  1  0.54098360  0.97477576  0.41344906  1
  Sb  Sb19  1  0.44586271  0.21814253  0.75000000  1
  Sb  Sb20  1  0.02613776  0.77764084  0.41592115  1
  Sb  Sb21  1  0.55413729  0.78185747  0.25000000  1
  Sb  Sb22  1  0.81876805  0.05695876  0.75000000  1
  Sb  Sb23  1  0.04098360  0.02522424  0.41344906  1
  Sb  Sb24  1  0.52613776  0.22235916  0.41592115  1
  Sb  Sb25  1  0.25000000  0.50329645  0.50000000  1
  Sb  Sb26  1  0.75000000  0.49670355  0.50000000  1
  Sb  Sb27  1  0.45901640  0.02522424  0.91344906  1
  Sb  Sb28  1  0.47386224  0.77764084  0.58407885  1
  Sb  Sb29  1  0.20840324  0.49649154  0.66607164  1
  Sb  Sb30  1  0.31876805  0.94304124  0.75000000  1
  Sb  Sb31  1  0.70840324  0.50350846  0.83392836  1
  Sb  Sb32  1  0.29159676  0.49649154  0.33392836  1
  Sb  Sb33  1  0.02613776  0.77764084  0.08407885  1
  Sb  Sb34  1  0.95901640  0.97477576  0.91344906  1
  Sb  Sb35  1  0.18123195  0.94304124  0.25000000  1
loop_
_geom_bond_atom_site_label_1
_geom_bond_atom_site_label_2
_geom_bond_distance
_geom_bond_site_symmetry_2
Nd0 Sb28 3.228385 1_555
Nd0 Sb14 3.228385 1_555
Nd0 Sb30 3.256570 1_555
Nd0 Sb4 3.293394 1_455
Nd0 Sb29 3.295300 1_555
Nd0 Sb7 3.295300 1_555
Nd0 Ni5 3.319279 1_555
Nd0 Ni10 3.319279 1_555
Nd0 Sb8 3.319924 1_555
Nd0 Sb31 3.319924 1_555
Nd0 Sb4 3.328748 1_555
Nd1 Sb4 3.228823 1_555
Nd1 Sb33 3.245333 1_656
Nd1 Sb14 3.267316 1_555
Nd1 Sb14 3.272421 1_655
Nd1 Sb3 3.319088 1_556
Nd1 Sb7 3.343137 1_655
Nd1 Sb31 3.362396 1_555
Nd1 Sb6 3.409089 1_656
Nd1 Ni3 3.425024 1_656
Nd1 Sb34 3.492889 1_555
Nd1 Ni5 3.604876 1_555
Nd2 Sb21 3.228823 1_555
Nd2 Sb14 3.245333 1_554
Nd2 Sb33 3.267316 1_655
Nd2 Sb33 3.272421 1_555
Nd2 Sb3 3.319088 1_555
Nd2 Sb5 3.343137 1_555
Nd2 Sb1 3.362396 1_555
Nd2 Sb6 3.409089 1_555
Nd2 Ni3 3.425024 1_555
Nd2 Sb11 3.492889 1_555
Nd2 Ni11 3.604876 1_555
Nd3 Sb21 3.228823 1_555
Nd3 Sb28 3.245333 1_555
Nd3 Sb20 3.267316 1_655
Nd3 Sb20 3.272421 1_555
Nd3 Sb26 3.319088 1_555
Nd3 Sb32 3.343137 1_555
Nd3 Sb9 3.362396 1_555
Nd3 Sb25 3.409089 1_555
Nd3 Ni1 3.425024 1_555
Nd3 Sb18 3.492889 1_555
Nd3 Ni8 3.604876 1_555
Nd4 Sb19 3.228823 1_555
Nd4 Sb24 3.245333 1_555
Nd4 Sb12 3.267316 1_455
Nd4 Sb12 3.272421 1_555
Nd4 Sb25 3.319088 1_555
Nd4 Sb8 3.343137 1_555
Nd4 Sb29 3.362396 1_555
Nd4 Sb26 3.409089 1_555
Nd4 Ni2 3.425024 1_555
Nd4 Sb17 3.492889 1_555
Nd4 Ni6 3.604876 1_555
Nd5 Sb19 3.228823 1_555
Nd5 Sb15 3.245333 1_556
Nd5 Sb16 3.267316 1_455
Nd5 Sb16 3.272421 1_555
Nd5 Sb6 3.319088 1_556
Nd5 Sb31 3.343137 1_555
Nd5 Sb7 3.362396 1_555
Nd5 Sb3 3.409089 1_556
Nd5 Ni0 3.425024 1_556
Nd5 Sb27 3.492889 1_555
Nd5 Ni9 3.604876 1_555
Nd6 Sb15 3.228385 1_555
Nd6 Sb24 3.228385 1_555
Nd6 Sb2 3.256570 1_555
Nd6 Sb10 3.293394 1_655
Nd6 Sb9 3.295300 1_555
Nd6 Sb1 3.295300 1_555
Nd6 Ni4 3.319279 1_555
Nd6 Ni7 3.319279 1_555
Nd6 Sb5 3.319924 1_555
Nd6 Sb32 3.319924 1_555
Nd6 Sb10 3.328748 1_555
Nd7 Sb33 3.228385 1_555
Nd7 Sb20 3.228385 1_555
Nd7 Sb35 3.256570 1_555
Nd7 Sb21 3.293394 1_555
Nd7 Sb32 3.295300 1_555
Nd7 Sb5 3.295300 1_555
Nd7 Ni11 3.319279 1_455
Nd7 Ni8 3.319279 1_455
Nd7 Sb9 3.319924 1_455
Nd7 Sb1 3.319924 1_455
Nd7 Sb21 3.328748 1_455
Nd8 Sb12 3.228385 1_555
Nd8 Sb16 3.228385 1_555
Nd8 Sb22 3.256570 1_555
Nd8 Sb19 3.293394 1_555
Nd8 Sb31 3.295300 1_555
Nd8 Sb8 3.295300 1_555
Nd8 Ni9 3.319279 1_655
Nd8 Ni6 3.319279 1_655
Nd8 Sb29 3.319924 1_655
Nd8 Sb7 3.319924 1_655
Nd8 Sb19 3.328748 1_655
Nd9 Sb10 3.228823 1_555
Nd9 Sb12 3.245333 1_455
Nd9 Sb24 3.267316 1_555
Nd9 Sb24 3.272421 1_455
Nd9 Sb25 3.319088 1_555
Nd9 Sb9 3.343137 1_455
Nd9 Sb32 3.362396 1_555
Nd9 Sb26 3.409089 1_455
Nd9 Ni2 3.425024 1_455
Nd9 Sb23 3.492889 1_555
Nd9 Ni7 3.604876 1_555
Nd10 Sb4 3.228823 1_555
Nd10 Sb20 3.245333 1_655
Nd10 Sb28 3.267316 1_555
Nd10 Sb28 3.272421 1_655
Nd10 Sb26 3.319088 1_555
Nd10 Sb29 3.343137 1_655
Nd10 Sb8 3.362396 1_555
Nd10 Sb25 3.409089 1_655
Nd10 Ni1 3.425024 1_655
Nd10 Sb13 3.492889 1_555
Nd10 Ni10 3.604876 1_555
Nd11 Sb10 3.228823 1_555
Nd11 Sb16 3.245333 1_454
Nd11 Sb15 3.267316 1_555
Nd11 Sb15 3.272421 1_455
Nd11 Sb6 3.319088 1_555
Nd11 Sb1 3.343137 1_455
Nd11 Sb5 3.362396 1_555
Nd11 Sb3 3.409089 1_455
Nd11 Ni0 3.425024 1_455
Nd11 Sb0 3.492889 1_555
Nd11 Ni4 3.604876 1_555
Ni0 Sb16 2.593481 1_554
Ni0 Sb15 2.593481 1_555
Ni0 Sb0 2.595806 1_655
Ni0 Sb27 2.595806 1_554
Ni0 Sb34 2.605643 1_544
Ni0 Sb11 2.605643 1_545
Ni1 Sb20 2.593481 1_555
Ni1 Sb28 2.593481 1_555
Ni1 Sb13 2.595806 1_455
Ni1 Sb18 2.595806 1_555
Ni1 Sb17 2.605643 1_565
Ni1 Sb23 2.605643 1_565
Ni2 Sb24 2.593481 1_555
Ni2 Sb12 2.593481 1_555
Ni2 Sb23 2.595806 1_655
Ni2 Sb17 2.595806 1_555
Ni2 Sb13 2.605643 1_545
Ni2 Sb18 2.605643 1_545
Ni3 Sb14 2.593481 1_554
Ni3 Sb33 2.593481 1_555
Ni3 Sb34 2.595806 1_454
Ni3 Sb11 2.595806 1_555
Ni3 Sb27 2.605643 1_564
Ni3 Sb0 2.605643 1_565
Ni4 Sb35 2.550044 1_545
Ni4 Sb0 2.577505 1_555
Ni4 Sb11 2.621019 1_545
Ni4 Sb15 2.633263 1_555
Ni4 Sb2 2.653276 1_555
Ni4 Sb10 2.670235 1_555
Ni5 Sb22 2.550044 1_565
Ni5 Sb34 2.577505 1_555
Ni5 Sb27 2.621019 1_565
Ni5 Sb14 2.633263 1_555
Ni5 Sb30 2.653276 1_555
Ni5 Sb4 2.670235 1_555
Ni6 Sb30 2.550044 1_545
Ni6 Sb17 2.577505 1_555
Ni6 Sb13 2.621019 1_445
Ni6 Sb12 2.633263 1_455
Ni6 Sb22 2.653276 1_455
Ni6 Sb19 2.670235 1_555
Ni7 Sb35 2.550044 1_545
Ni7 Sb23 2.577505 1_555
Ni7 Sb18 2.621019 1_545
Ni7 Sb24 2.633263 1_555
Ni7 Sb2 2.653276 1_555
Ni7 Sb10 2.670235 1_555
Ni8 Sb2 2.550044 1_565
Ni8 Sb18 2.577505 1_555
Ni8 Sb23 2.621019 1_665
Ni8 Sb20 2.633263 1_655
Ni8 Sb35 2.653276 1_655
Ni8 Sb21 2.670235 1_555
Ni9 Sb30 2.550044 1_545
Ni9 Sb27 2.577505 1_555
Ni9 Sb34 2.621019 1_445
Ni9 Sb16 2.633263 1_455
Ni9 Sb22 2.653276 1_455
Ni9 Sb19 2.670235 1_555
Ni10 Sb22 2.550044 1_565
Ni10 Sb13 2.577505 1_555
Ni10 Sb17 2.621019 1_565
Ni10 Sb28 2.633263 1_555
Ni10 Sb30 2.653276 1_555
Ni10 Sb4 2.670235 1_555
Ni11 Sb2 2.550044 1_565
Ni11 Sb11 2.577505 1_555
Ni11 Sb0 2.621019 1_665
Ni11 Sb33 2.633263 1_655
Ni11 Sb35 2.653276 1_655
Ni11 Sb21 2.670235 1_555
Sb1 Sb3 3.058890 1_555
Sb1 Sb9 3.079384 1_555
Sb1 Sb5 3.120061 1_555
Sb1 Sb5 3.120061 1_655
Sb3 Sb31 3.058890 1_554
Sb3 Sb6 3.119911 1_655
Sb3 Sb6 3.119911 1_555
Sb5 Sb6 3.058890 1_555
Sb6 Sb7 3.058890 1_554
Sb10 Sb2 3.101353 1_455
Sb19 Sb22 3.101353 1_555
Sb21 Sb35 3.101353 1_555
Sb25 Sb29 3.058890 1_555
Sb25 Sb32 3.058890 1_555
Sb25 Sb26 3.119911 1_555
Sb25 Sb26 3.119911 1_455
Sb26 Sb8 3.058890 1_555
Sb26 Sb9 3.058890 1_555
Sb29 Sb7 3.079384 1_555
Sb29 Sb8 3.120061 1_555
Sb29 Sb8 3.120061 1_455
Sb30 Sb4 3.101353 1_455
Sb31 Sb8 3.079384 1_555
Sb31 Sb7 3.120061 1_555
Sb31 Sb7 3.120061 1_655
Sb32 Sb5 3.079384 1_555
Sb32 Sb9 3.120061 1_555
Sb32 Sb9 3.120061 1_455
