# generated using pymatgen
data_Nb2Hg3S(O2F5)2
_symmetry_space_group_name_H-M   'P 1'
_cell_length_a   12.31350464
_cell_length_b   10.48363108
_cell_length_c   9.31479681
_cell_angle_alpha   76.66396845
_cell_angle_beta   55.93823691
_cell_angle_gamma   47.39779465
_symmetry_Int_Tables_number   1
_chemical_formula_structural   Nb2Hg3S(O2F5)2
_chemical_formula_sum   'Nb4 Hg6 S2 O8 F20'
_cell_volume   711.17359352
_cell_formula_units_Z   2
loop_
 _symmetry_equiv_pos_site_id
 _symmetry_equiv_pos_as_xyz
  1  'x, y, z'
loop_
 _atom_site_type_symbol
 _atom_site_label
 _atom_site_symmetry_multiplicity
 _atom_site_fract_x
 _atom_site_fract_y
 _atom_site_fract_z
 _atom_site_occupancy
  Nb  Nb0  1  0.00998500  0.87590800  0.61017500  1
  Nb  Nb1  1  0.50393200  0.61017500  0.87590800  1
  Nb  Nb2  1  0.63982500  0.74606800  0.24001500  1
  Nb  Nb3  1  0.37409200  0.24001500  0.74606800  1
  Hg  Hg0  1  0.99851200  0.50148800  0.50148800  1
  Hg  Hg1  1  0.74851200  0.25148800  0.25148800  1
  Hg  Hg2  1  0.02018000  0.67908800  0.24925900  1
  Hg  Hg3  1  0.05147300  0.24925900  0.67908800  1
  Hg  Hg4  1  0.00074100  0.19852700  0.22982000  1
  Hg  Hg5  1  0.57091200  0.22982000  0.19852700  1
  S  S0  1  0.14510600  0.85489400  0.85489400  1
  S  S1  1  0.39510600  0.10489400  0.10489400  1
  O  O0  1  0.14514100  0.78410700  0.73120000  1
  O  O1  1  0.33955200  0.73120000  0.78410700  1
  O  O2  1  0.51880000  0.91044800  0.10485900  1
  O  O3  1  0.46589300  0.10485900  0.91044800  1
  O  O4  1  0.04251400  0.84990600  0.03900100  1
  O  O5  1  0.06857800  0.03900100  0.84990600  1
  O  O6  1  0.21099900  0.18142200  0.20748600  1
  O  O7  1  0.40009400  0.20748600  0.18142200  1
  F  F0  1  0.89357400  0.96886300  0.49019600  1
  F  F1  1  0.64736800  0.49019600  0.96886300  1
  F  F2  1  0.75980400  0.60263200  0.35642600  1
  F  F3  1  0.28113700  0.35642600  0.60263200  1
  F  F4  1  0.22779700  0.66426600  0.42104300  1
  F  F5  1  0.68689300  0.42104300  0.66426600  1
  F  F6  1  0.82895700  0.56310700  0.02220300  1
  F  F7  1  0.58573400  0.02220300  0.56310700  1
  F  F8  1  0.80287800  0.07176900  0.82183000  1
  F  F9  1  0.30352200  0.82183000  0.07176900  1
  F  F10  1  0.42817000  0.94647800  0.44712200  1
  F  F11  1  0.17823100  0.44712200  0.94647800  1
  F  F12  1  0.93196000  0.75044200  0.72244200  1
  F  F13  1  0.59515700  0.72244200  0.75044200  1
  F  F14  1  0.52755800  0.65484300  0.31804000  1
  F  F15  1  0.49955800  0.31804000  0.65484300  1
  F  F16  1  0.08129000  0.01005200  0.50237000  1
  F  F17  1  0.40628800  0.50237000  0.01005200  1
  F  F18  1  0.74763000  0.84371200  0.16871000  1
  F  F19  1  0.23994800  0.16871000  0.84371200  1
loop_
_geom_bond_atom_site_label_1
_geom_bond_atom_site_label_2
_geom_bond_distance
_geom_bond_site_symmetry_2
Nb0 O0 2.097502 1_555
Nb1 O1 2.097502 1_555
Nb2 O2 2.097502 1_555
Nb3 O3 2.097502 1_555
Hg0 Hg3 2.647662 1_655
Hg0 Hg2 2.647662 1_655
Hg1 Hg4 2.647662 1_655
Hg1 Hg5 2.647662 1_555
Hg2 O4 2.358757 1_555
Hg3 O5 2.358759 1_555
Hg4 O6 2.358764 1_555
Hg5 O7 2.358752 1_555
O0 S0 1.507219 1_555
O1 S0 1.507219 1_555
O2 S1 1.507219 1_565
O3 S1 1.507219 1_556
O4 S0 1.469981 1_554
O5 S0 1.469978 1_545
O6 S1 1.469978 1_555
O7 S1 1.469988 1_555
F0 Nb0 1.911625 1_655
F1 Nb1 1.911634 1_555
F2 Nb2 1.911626 1_555
F3 Nb3 1.911633 1_555
F4 Nb0 1.916792 1_555
F5 Nb1 1.916794 1_555
F6 Nb2 1.916788 1_555
F7 Nb3 1.916789 1_555
F8 Nb0 1.937280 1_645
F9 Nb1 1.937280 1_554
F10 Nb2 1.937284 1_555
F11 Nb3 1.937285 1_555
F12 Nb0 1.922915 1_655
F13 Nb1 1.922923 1_555
F14 Nb2 1.922924 1_555
F15 Nb3 1.922914 1_555
F16 Nb0 1.946672 1_545
F17 Nb1 1.946672 1_554
F18 Nb2 1.946672 1_555
F19 Nb3 1.946672 1_555
