# generated using pymatgen
data_KAuF4
_symmetry_space_group_name_H-M   'P 1'
_cell_length_a   6.00508246
_cell_length_b   6.00508160
_cell_length_c   7.07886101
_cell_angle_alpha   115.09724593
_cell_angle_beta   115.09723800
_cell_angle_gamma   90.00000278
_symmetry_Int_Tables_number   1
_chemical_formula_structural   KAuF4
_chemical_formula_sum   'K2 Au2 F8'
_cell_volume   204.24600048
_cell_formula_units_Z   2
loop_
 _symmetry_equiv_pos_site_id
 _symmetry_equiv_pos_as_xyz
  1  'x, y, z'
loop_
 _atom_site_type_symbol
 _atom_site_label
 _atom_site_symmetry_multiplicity
 _atom_site_fract_x
 _atom_site_fract_y
 _atom_site_fract_z
 _atom_site_occupancy
  K  K0  1  0.25000000  0.25000000  0.50000000  1
  K  K1  1  0.75000000  0.75000000  0.50000000  1
  Au  Au0  1  -0.00000000  0.50000000  0.00000000  1
  Au  Au1  1  0.50000000  0.00000000  0.00000000  1
  F  F0  1  0.95683831  0.45683831  0.23989178  1
  F  F1  1  0.71694653  0.21694653  0.76010822  1
  F  F2  1  0.04316169  0.54316169  0.76010822  1
  F  F3  1  0.21694653  0.04316169  0.76010822  1
  F  F4  1  0.28305347  0.78305347  0.23989178  1
  F  F5  1  0.45683831  0.28305347  0.23989178  1
  F  F6  1  0.78305347  0.95683831  0.23989178  1
  F  F7  1  0.54316169  0.71694653  0.76010822  1
loop_
_geom_bond_atom_site_label_1
_geom_bond_atom_site_label_2
_geom_bond_distance
_geom_bond_site_symmetry_2
Au0 F0 1.940327 1_455
Au0 F2 1.940327 1_554
Au0 F1 1.940327 1_454
Au0 F4 1.940327 1_555
Au1 F5 1.940327 1_555
Au1 F7 1.940327 1_544
Au1 F3 1.940327 1_554
Au1 F6 1.940327 1_545
F0 K1 2.687483 1_555
F0 K0 2.687484 1_655
F1 K1 2.687483 1_545
F1 K0 2.687484 1_555
F2 K0 2.687483 1_555
F2 K1 2.687484 1_455
F3 K0 2.687483 1_555
F3 K1 2.687484 1_445
F4 K0 2.687483 1_565
F4 K1 2.687484 1_555
F5 K0 2.687483 1_555
F5 K1 2.687483 1_555
F6 K1 2.687483 1_555
F6 K0 2.687484 1_665
F7 K1 2.687483 1_555
F7 K0 2.687483 1_555
