# generated using pymatgen
data_K2ReCl5O
_symmetry_space_group_name_H-M   'P 1'
_cell_length_a   6.96726100
_cell_length_b   10.18461700
_cell_length_c   13.54697000
_cell_angle_alpha   90.00000000
_cell_angle_beta   90.00000000
_cell_angle_gamma   90.00000000
_symmetry_Int_Tables_number   1
_chemical_formula_structural   K2ReCl5O
_chemical_formula_sum   'K8 Re4 Cl20 O4'
_cell_volume   961.27788394
_cell_formula_units_Z   4
loop_
 _symmetry_equiv_pos_site_id
 _symmetry_equiv_pos_as_xyz
  1  'x, y, z'
loop_
 _atom_site_type_symbol
 _atom_site_label
 _atom_site_symmetry_multiplicity
 _atom_site_fract_x
 _atom_site_fract_y
 _atom_site_fract_z
 _atom_site_occupancy
  K  K0  1  0.81971000  0.99873100  0.36034600  1
  K  K1  1  0.18029000  0.49873100  0.63965400  1
  K  K2  1  0.31971000  0.00126900  0.13965400  1
  K  K3  1  0.68029000  0.99873100  0.86034600  1
  K  K4  1  0.31971000  0.49873100  0.13965400  1
  K  K5  1  0.68029000  0.50126900  0.86034600  1
  K  K6  1  0.81971000  0.50126900  0.36034600  1
  K  K7  1  0.18029000  0.00126900  0.63965400  1
  Re  Re0  1  0.82382900  0.75000000  0.09778300  1
  Re  Re1  1  0.17617100  0.25000000  0.90221700  1
  Re  Re2  1  0.32382900  0.25000000  0.40221700  1
  Re  Re3  1  0.67617100  0.75000000  0.59778300  1
  Cl  Cl0  1  0.30428000  0.01551000  0.38912000  1
  Cl  Cl1  1  0.69572000  0.98449000  0.61088000  1
  Cl  Cl2  1  0.19572000  0.48449000  0.88912000  1
  Cl  Cl3  1  0.19572000  0.01551000  0.88912000  1
  Cl  Cl4  1  0.43217800  0.75000000  0.72198400  1
  Cl  Cl5  1  0.09876000  0.25000000  0.25536700  1
  Cl  Cl6  1  0.80428000  0.51551000  0.11088000  1
  Cl  Cl7  1  0.06782200  0.75000000  0.22198400  1
  Cl  Cl8  1  0.80428000  0.98449000  0.11088000  1
  Cl  Cl9  1  0.03077200  0.25000000  0.49585400  1
  Cl  Cl10  1  0.46922800  0.25000000  0.99585400  1
  Cl  Cl11  1  0.96922800  0.75000000  0.50414600  1
  Cl  Cl12  1  0.90124000  0.75000000  0.74463300  1
  Cl  Cl13  1  0.40124000  0.25000000  0.75536700  1
  Cl  Cl14  1  0.53077200  0.75000000  0.00414600  1
  Cl  Cl15  1  0.59876000  0.75000000  0.24463300  1
  Cl  Cl16  1  0.56782200  0.25000000  0.27801600  1
  Cl  Cl17  1  0.93217800  0.25000000  0.77801600  1
  Cl  Cl18  1  0.69572000  0.51551000  0.61088000  1
  Cl  Cl19  1  0.30428000  0.48449000  0.38912000  1
  O  O0  1  0.02602400  0.25000000  0.00067700  1
  O  O1  1  0.47397600  0.25000000  0.50067700  1
  O  O2  1  0.52602400  0.75000000  0.49932300  1
  O  O3  1  0.97397600  0.75000000  0.99932300  1
loop_
_geom_bond_atom_site_label_1
_geom_bond_atom_site_label_2
_geom_bond_distance
_geom_bond_site_symmetry_2
Cl0 Re2 2.398643 1_555
Cl0 K2 3.384327 1_555
Cl0 K0 3.402848 1_445
Cl0 K7 3.505194 1_555
Cl0 K0 3.616269 1_545
Cl1 Re3 2.398643 1_555
Cl1 K3 3.384327 1_555
Cl1 K7 3.402848 1_665
Cl1 K0 3.505194 1_555
Cl1 K7 3.616269 1_565
Cl2 Re1 2.398643 1_555
Cl2 K1 3.384327 1_555
Cl2 K5 3.402848 1_555
Cl2 K4 3.505194 1_556
Cl2 K5 3.616269 1_455
Cl3 Re1 2.398643 1_555
Cl3 K7 3.384327 1_555
Cl3 K3 3.402848 1_545
Cl3 K2 3.505194 1_556
Cl3 K3 3.616269 1_445
Cl4 Re3 2.391828 1_555
Cl4 K7 3.297384 1_565
Cl4 K1 3.297384 1_555
Cl4 K3 3.594280 1_555
Cl4 K5 3.594280 1_555
Cl5 Re2 2.533098 1_555
Cl5 K4 3.353253 1_555
Cl5 K2 3.353253 1_555
Cl5 K6 3.514449 1_455
Cl5 K0 3.514449 1_445
Cl6 Re0 2.398643 1_555
Cl6 K6 3.384327 1_555
Cl6 K4 3.402848 1_555
Cl6 K5 3.505194 1_554
Cl6 K4 3.616269 1_655
Cl7 Re0 2.391828 1_455
Cl7 K4 3.297384 1_555
Cl7 K2 3.297384 1_565
Cl7 K6 3.594280 1_455
Cl7 K0 3.594280 1_455
Cl8 Re0 2.398643 1_555
Cl8 K0 3.384327 1_555
Cl8 K2 3.402848 1_565
Cl8 K3 3.505194 1_554
Cl8 K2 3.616269 1_665
Cl9 Re2 2.403758 1_555
Cl9 K1 3.361156 1_555
Cl9 K7 3.361156 1_555
Cl9 K6 3.475802 1_455
Cl9 K0 3.475802 1_445
Cl10 Re1 2.403758 1_555
Cl10 K2 3.361156 1_556
Cl10 K4 3.361156 1_556
Cl10 K5 3.475802 1_555
Cl10 K3 3.475802 1_545
Cl11 Re3 2.403758 1_555
Cl11 K0 3.361156 1_555
Cl11 K6 3.361156 1_555
Cl11 K7 3.475802 1_665
Cl11 K1 3.475802 1_655
Cl12 Re3 2.533098 1_555
Cl12 K5 3.353253 1_555
Cl12 K3 3.353253 1_555
Cl12 K7 3.514449 1_665
Cl12 K1 3.514449 1_655
Cl13 Re1 2.533098 1_555
Cl13 K1 3.353253 1_555
Cl13 K7 3.353253 1_555
Cl13 K3 3.514449 1_545
Cl13 K5 3.514449 1_555
Cl14 Re0 2.403758 1_555
Cl14 K3 3.361156 1_554
Cl14 K5 3.361156 1_554
Cl14 K2 3.475802 1_565
Cl14 K4 3.475802 1_555
Cl15 Re0 2.533098 1_555
Cl15 K0 3.353253 1_555
Cl15 K6 3.353253 1_555
Cl15 K2 3.514449 1_565
Cl15 K4 3.514449 1_555
Cl16 Re2 2.391828 1_555
Cl16 K0 3.297384 1_545
Cl16 K6 3.297384 1_555
Cl16 K4 3.594280 1_555
Cl16 K2 3.594280 1_555
Cl17 Re1 2.391828 1_655
Cl17 K3 3.297384 1_545
Cl17 K5 3.297384 1_555
Cl17 K1 3.594280 1_655
Cl17 K7 3.594280 1_655
Cl18 Re3 2.398643 1_555
Cl18 K5 3.384327 1_555
Cl18 K1 3.402848 1_655
Cl18 K6 3.505194 1_555
Cl18 K1 3.616269 1_555
Cl19 Re2 2.398643 1_555
Cl19 K4 3.384327 1_555
Cl19 K6 3.402848 1_455
Cl19 K1 3.505194 1_555
Cl19 K6 3.616269 1_555
O0 Re1 1.695131 1_554
O1 Re2 1.695131 1_555
O2 Re3 1.695131 1_555
O3 Re0 1.695131 1_556
