# generated using pymatgen
data_Zr7(NO2)4
_symmetry_space_group_name_H-M   'P 1'
_cell_length_a   6.27443600
_cell_length_b   6.29643109
_cell_length_c   6.36884036
_cell_angle_alpha   99.71581874
_cell_angle_beta   99.26143251
_cell_angle_gamma   99.23740174
_symmetry_Int_Tables_number   1
_chemical_formula_structural   Zr7(NO2)4
_chemical_formula_sum   'Zr7 N4 O8'
_cell_volume   240.17047356
_cell_formula_units_Z   1
loop_
 _symmetry_equiv_pos_site_id
 _symmetry_equiv_pos_as_xyz
  1  'x, y, z'
loop_
 _atom_site_type_symbol
 _atom_site_label
 _atom_site_symmetry_multiplicity
 _atom_site_fract_x
 _atom_site_fract_y
 _atom_site_fract_z
 _atom_site_occupancy
  Zr  Zr0  1  0.40029100  0.70006900  0.87038100  1
  Zr  Zr1  1  0.99545100  0.00911300  0.01323000  1
  Zr  Zr2  1  0.13406600  0.59981600  0.31783400  1
  Zr  Zr3  1  0.31147500  0.12711100  0.59230300  1
  Zr  Zr4  1  0.70472500  0.86716500  0.38294000  1
  Zr  Zr5  1  0.85747400  0.38187600  0.70336500  1
  Zr  Zr6  1  0.61560200  0.29167100  0.14352400  1
  N  N0  1  0.58028700  0.17799800  0.43510100  1
  N  N1  1  0.67090500  0.93085000  0.06288800  1
  N  N2  1  0.07396500  0.92297400  0.32466900  1
  N  N3  1  0.93801900  0.33806000  0.07069800  1
  O  O0  1  0.81751600  0.56857800  0.43218500  1
  O  O1  1  0.57449800  0.43913200  0.82417400  1
  O  O2  1  0.17214700  0.41141200  0.57329700  1
  O  O3  1  0.90961000  0.05802200  0.68187600  1
  O  O4  1  0.42472600  0.58086700  0.18224700  1
  O  O5  1  0.42657700  0.80758400  0.58022400  1
  O  O6  1  0.32294000  0.09661500  0.92312200  1
  O  O7  1  0.06959300  0.69082000  0.88604300  1
loop_
_geom_bond_atom_site_label_1
_geom_bond_atom_site_label_2
_geom_bond_distance
_geom_bond_site_symmetry_2
N0 Zr3 2.104313 1_555
N0 Zr6 2.130725 1_555
N0 Zr4 2.214724 1_545
N0 Zr5 2.275578 1_555
N1 Zr1 2.104111 1_565
N1 Zr0 2.105753 1_554
N1 Zr4 2.127135 1_555
N1 Zr6 2.337147 1_565
N2 Zr2 2.122735 1_555
N2 Zr1 2.146045 1_465
N2 Zr3 2.146214 1_565
N2 Zr4 2.384962 1_455
N3 Zr6 2.133295 1_555
N3 Zr2 2.134753 1_655
N3 Zr1 2.140061 1_555
N3 Zr5 2.384691 1_554
O0 Zr4 2.165285 1_555
O0 Zr2 2.214157 1_655
O0 Zr5 2.251265 1_555
O0 Zr6 2.341799 1_555
O1 Zr5 2.103810 1_555
O1 Zr0 2.120761 1_555
O1 Zr6 2.368695 1_556
O1 Zr3 2.441199 1_555
O2 Zr3 2.127149 1_555
O2 Zr2 2.174577 1_555
O2 Zr5 2.253798 1_455
O2 Zr0 2.462650 1_555
O3 Zr5 2.101938 1_555
O3 Zr4 2.159971 1_545
O3 Zr1 2.178350 1_556
O3 Zr3 2.658408 1_655
O4 Zr2 2.151255 1_555
O4 Zr0 2.230248 1_554
O4 Zr4 2.335067 1_555
O4 Zr6 2.335485 1_555
O5 Zr0 2.094026 1_555
O5 Zr3 2.237694 1_565
O5 Zr2 2.318740 1_555
O5 Zr4 2.328084 1_555
O6 Zr3 2.138554 1_555
O6 Zr6 2.171429 1_556
O6 Zr1 2.231132 1_456
O6 Zr0 2.596335 1_545
O7 Zr0 2.085310 1_555
O7 Zr1 2.182132 1_466
O7 Zr5 2.194416 1_455
