# generated using pymatgen
data_TlPb8Br9O4
_symmetry_space_group_name_H-M   'P 1'
_cell_length_a   12.60143900
_cell_length_b   12.60143900
_cell_length_c   8.40530200
_cell_angle_alpha   90.00000000
_cell_angle_beta   90.00000000
_cell_angle_gamma   90.00000000
_symmetry_Int_Tables_number   1
_chemical_formula_structural   TlPb8Br9O4
_chemical_formula_sum   'Tl2 Pb16 Br18 O8'
_cell_volume   1334.73056271
_cell_formula_units_Z   2
loop_
 _symmetry_equiv_pos_site_id
 _symmetry_equiv_pos_as_xyz
  1  'x, y, z'
loop_
 _atom_site_type_symbol
 _atom_site_label
 _atom_site_symmetry_multiplicity
 _atom_site_fract_x
 _atom_site_fract_y
 _atom_site_fract_z
 _atom_site_occupancy
  Tl  Tl0  1  0.50000000  0.00000000  0.66819800  1
  Tl  Tl1  1  0.00000000  0.50000000  0.33180200  1
  Pb  Pb0  1  0.73156700  0.58370600  0.82272900  1
  Pb  Pb1  1  0.36287500  0.44480600  0.35430100  1
  Pb  Pb2  1  0.76843300  0.91629400  0.17727100  1
  Pb  Pb3  1  0.44480600  0.63712500  0.64569900  1
  Pb  Pb4  1  0.55519400  0.36287500  0.64569900  1
  Pb  Pb5  1  0.13712500  0.05519400  0.64569900  1
  Pb  Pb6  1  0.23156700  0.08370600  0.17727100  1
  Pb  Pb7  1  0.91629400  0.23156700  0.82272900  1
  Pb  Pb8  1  0.05519400  0.86287500  0.35430100  1
  Pb  Pb9  1  0.41629400  0.73156700  0.17727100  1
  Pb  Pb10  1  0.26843300  0.41629400  0.82272900  1
  Pb  Pb11  1  0.94480600  0.13712500  0.35430100  1
  Pb  Pb12  1  0.63712500  0.55519400  0.35430100  1
  Pb  Pb13  1  0.58370600  0.26843300  0.17727100  1
  Pb  Pb14  1  0.86287500  0.94480600  0.64569900  1
  Pb  Pb15  1  0.08370600  0.76843300  0.82272900  1
  Br  Br0  1  0.71182500  0.11754500  0.88562000  1
  Br  Br1  1  0.78817500  0.38245500  0.11438000  1
  Br  Br2  1  0.88245500  0.71182500  0.11438000  1
  Br  Br3  1  0.88024200  0.68198400  0.59854600  1
  Br  Br4  1  0.61975800  0.81801600  0.40145400  1
  Br  Br5  1  0.31801600  0.88024200  0.40145400  1
  Br  Br6  1  0.21182500  0.61754500  0.11438000  1
  Br  Br7  1  0.11754500  0.28817500  0.11438000  1
  Br  Br8  1  0.11975800  0.31801600  0.59854600  1
  Br  Br9  1  0.00000000  0.00000000  0.00000000  1
  Br  Br10  1  0.38245500  0.21182500  0.88562000  1
  Br  Br11  1  0.38024200  0.18198400  0.40145400  1
  Br  Br12  1  0.61754500  0.78817500  0.88562000  1
  Br  Br13  1  0.18198400  0.61975800  0.59854600  1
  Br  Br14  1  0.68198400  0.11975800  0.40145400  1
  Br  Br15  1  0.28817500  0.88245500  0.88562000  1
  Br  Br16  1  0.81801600  0.38024200  0.59854600  1
  Br  Br17  1  0.50000000  0.50000000  0.00000000  1
  O  O0  1  0.39176500  0.45428500  0.62824600  1
  O  O1  1  0.54571500  0.39176500  0.37175400  1
  O  O2  1  0.89176500  0.95428500  0.37175400  1
  O  O3  1  0.04571500  0.89176500  0.62824600  1
  O  O4  1  0.95428500  0.10823500  0.62824600  1
  O  O5  1  0.45428500  0.60823500  0.37175400  1
  O  O6  1  0.60823500  0.54571500  0.62824600  1
  O  O7  1  0.10823500  0.04571500  0.37175400  1
loop_
_geom_bond_atom_site_label_1
_geom_bond_atom_site_label_2
_geom_bond_distance
_geom_bond_site_symmetry_2
Br0 Pb7 2.997138 1_555
Br1 Pb13 2.997138 1_555
Br2 Pb2 2.997138 1_555
Br3 Pb0 2.931638 1_555
Br4 Pb2 2.931638 1_555
Br5 Pb9 2.931638 1_555
Br6 Pb9 2.997138 1_555
Br7 Pb6 2.997138 1_555
Br8 Pb10 2.931638 1_555
Br10 Pb10 2.997138 1_555
Br11 Pb6 2.931638 1_555
Br12 Pb0 2.997138 1_555
Br13 Pb15 2.931638 1_555
Br14 Pb13 2.931638 1_555
Br15 Pb15 2.997138 1_555
Br16 Pb7 2.931638 1_555
O0 Pb10 2.305822 1_555
O0 Pb1 2.334251 1_555
O0 Pb4 2.364251 1_555
O0 Pb3 2.403519 1_555
O1 Pb13 2.305822 1_555
O1 Pb4 2.334251 1_555
O1 Pb12 2.364251 1_555
O1 Pb1 2.403519 1_555
O2 Pb2 2.305822 1_555
O2 Pb14 2.334251 1_555
O2 Pb8 2.364251 1_655
O2 Pb11 2.403519 1_565
O3 Pb15 2.305822 1_555
O3 Pb8 2.334251 1_555
O3 Pb5 2.364251 1_565
O3 Pb14 2.403519 1_455
O4 Pb7 2.305822 1_555
O4 Pb11 2.334251 1_555
O4 Pb14 2.364251 1_545
O4 Pb5 2.403519 1_655
O5 Pb9 2.305822 1_555
O5 Pb3 2.334251 1_555
O5 Pb1 2.364251 1_555
O5 Pb12 2.403519 1_555
O6 Pb0 2.305822 1_555
O6 Pb12 2.334251 1_555
O6 Pb3 2.364251 1_555
O6 Pb4 2.403519 1_555
O7 Pb6 2.305822 1_555
O7 Pb5 2.334251 1_555
O7 Pb11 2.364251 1_455
O7 Pb8 2.403519 1_545
