# generated using pymatgen
data_BaCu6(GeS4)2
_symmetry_space_group_name_H-M   'P 1'
_cell_length_a   6.13776900
_cell_length_b   12.05974200
_cell_length_c   17.65606800
_cell_angle_alpha   90.00000000
_cell_angle_beta   90.00000000
_cell_angle_gamma   90.00000000
_symmetry_Int_Tables_number   1
_chemical_formula_structural   BaCu6(GeS4)2
_chemical_formula_sum   'Ba4 Cu24 Ge8 S32'
_cell_volume   1306.90057483
_cell_formula_units_Z   4
loop_
 _symmetry_equiv_pos_site_id
 _symmetry_equiv_pos_as_xyz
  1  'x, y, z'
loop_
 _atom_site_type_symbol
 _atom_site_label
 _atom_site_symmetry_multiplicity
 _atom_site_fract_x
 _atom_site_fract_y
 _atom_site_fract_z
 _atom_site_occupancy
  Ba  Ba0  1  0.92693900  0.77374100  0.25000000  1
  Ba  Ba1  1  0.07306100  0.27374100  0.25000000  1
  Ba  Ba2  1  0.92693900  0.72625900  0.75000000  1
  Ba  Ba3  1  0.07306100  0.22625900  0.75000000  1
  Cu  Cu0  1  0.49794500  0.29477400  0.37476300  1
  Cu  Cu1  1  0.44123700  0.59361800  0.45278200  1
  Cu  Cu2  1  0.49794500  0.20522600  0.87476300  1
  Cu  Cu3  1  0.95135200  0.50559500  0.37156200  1
  Cu  Cu4  1  0.49794500  0.29477400  0.12523700  1
  Cu  Cu5  1  0.55876300  0.40638200  0.95278200  1
  Cu  Cu6  1  0.95135200  0.99440500  0.87156200  1
  Cu  Cu7  1  0.04864800  0.49440500  0.87156200  1
  Cu  Cu8  1  0.44123700  0.90638200  0.95278200  1
  Cu  Cu9  1  0.50205500  0.70522600  0.62523700  1
  Cu  Cu10  1  0.55876300  0.09361800  0.45278200  1
  Cu  Cu11  1  0.55876300  0.40638200  0.54721800  1
  Cu  Cu12  1  0.04864800  0.00559500  0.12843800  1
  Cu  Cu13  1  0.44123700  0.59361800  0.04721800  1
  Cu  Cu14  1  0.50205500  0.70522600  0.87476300  1
  Cu  Cu15  1  0.44123700  0.90638200  0.54721800  1
  Cu  Cu16  1  0.04864800  0.49440500  0.62843800  1
  Cu  Cu17  1  0.95135200  0.99440500  0.62843800  1
  Cu  Cu18  1  0.95135200  0.50559500  0.12843800  1
  Cu  Cu19  1  0.50205500  0.79477400  0.37476300  1
  Cu  Cu20  1  0.50205500  0.79477400  0.12523700  1
  Cu  Cu21  1  0.04864800  0.00559500  0.37156200  1
  Cu  Cu22  1  0.49794500  0.20522600  0.62523700  1
  Cu  Cu23  1  0.55876300  0.09361800  0.04721800  1
  Ge  Ge0  1  0.54149300  0.45662400  0.75000000  1
  Ge  Ge1  1  0.54149300  0.04337600  0.25000000  1
  Ge  Ge2  1  0.45850700  0.95662400  0.75000000  1
  Ge  Ge3  1  0.98959600  0.75000000  0.50000000  1
  Ge  Ge4  1  0.45850700  0.54337600  0.25000000  1
  Ge  Ge5  1  0.98959600  0.75000000  0.00000000  1
  Ge  Ge6  1  0.01040400  0.25000000  0.50000000  1
  Ge  Ge7  1  0.01040400  0.25000000  0.00000000  1
  S  S0  1  0.22378400  0.87171700  0.05504700  1
  S  S1  1  0.77621600  0.37171700  0.44495300  1
  S  S2  1  0.23064700  0.33358600  0.91498700  1
  S  S3  1  0.81449200  0.50635400  0.25000000  1
  S  S4  1  0.23064700  0.33358600  0.58501300  1
  S  S5  1  0.68430800  0.52715600  0.85979200  1
  S  S6  1  0.23064700  0.16641400  0.41498700  1
  S  S7  1  0.81449200  0.99364600  0.75000000  1
  S  S8  1  0.18550800  0.00635400  0.25000000  1
  S  S9  1  0.68430800  0.97284400  0.14020800  1
  S  S10  1  0.77621600  0.12828300  0.55504700  1
  S  S11  1  0.58161000  0.22944500  0.25000000  1
  S  S12  1  0.68430800  0.97284400  0.35979200  1
  S  S13  1  0.22378400  0.87171700  0.44495300  1
  S  S14  1  0.58161000  0.27055500  0.75000000  1
  S  S15  1  0.31569200  0.02715600  0.85979200  1
  S  S16  1  0.22378400  0.62828300  0.94495300  1
  S  S17  1  0.76935300  0.66641400  0.08501300  1
  S  S18  1  0.41839000  0.72944500  0.25000000  1
  S  S19  1  0.76935300  0.83358600  0.58501300  1
  S  S20  1  0.18550800  0.49364600  0.75000000  1
  S  S21  1  0.41839000  0.77055500  0.75000000  1
  S  S22  1  0.76935300  0.83358600  0.91498700  1
  S  S23  1  0.77621600  0.12828300  0.94495300  1
  S  S24  1  0.22378400  0.62828300  0.55504700  1
  S  S25  1  0.77621600  0.37171700  0.05504700  1
  S  S26  1  0.31569200  0.47284400  0.14020800  1
  S  S27  1  0.31569200  0.02715600  0.64020800  1
  S  S28  1  0.31569200  0.47284400  0.35979200  1
  S  S29  1  0.68430800  0.52715600  0.64020800  1
  S  S30  1  0.23064700  0.16641400  0.08501300  1
  S  S31  1  0.76935300  0.66641400  0.41498700  1
loop_
_geom_bond_atom_site_label_1
_geom_bond_atom_site_label_2
_geom_bond_distance
_geom_bond_site_symmetry_2
Ba0 S18 3.063350 1_655
Ba0 S18 3.166739 1_555
Ba0 S8 3.223062 1_665
Ba0 S3 3.297651 1_555
Ba0 S17 3.331145 1_555
Ba0 S31 3.331145 1_555
Ba0 S12 3.426507 1_555
Ba0 S9 3.426507 1_555
Ba1 S11 3.063350 1_455
Ba1 S11 3.166739 1_555
Ba1 S3 3.223062 1_455
Ba1 S8 3.297651 1_555
Ba1 S30 3.331145 1_555
Ba1 S6 3.331145 1_555
Ba1 S26 3.426507 1_555
Ba1 S28 3.426507 1_555
Ba2 S21 3.063350 1_655
Ba2 S21 3.166739 1_555
Ba2 S20 3.223062 1_655
Ba2 S7 3.297651 1_555
Ba2 S19 3.331145 1_555
Ba2 S22 3.331145 1_555
Ba2 S5 3.426507 1_555
Ba2 S29 3.426507 1_555
Ba3 S14 3.063350 1_455
Ba3 S14 3.166739 1_555
Ba3 S7 3.223062 1_445
Ba3 S20 3.297651 1_555
Ba3 S4 3.331145 1_555
Ba3 S2 3.331145 1_555
Ba3 S15 3.426507 1_555
Ba3 S27 3.426507 1_555
Cu0 S1 2.305206 1_555
Cu0 S6 2.364796 1_555
Cu0 S11 2.395171 1_555
Cu0 S28 2.435746 1_555
Cu1 S24 2.283924 1_555
Cu1 S31 2.296042 1_555
Cu1 S28 2.326114 1_555
Cu2 S23 2.305206 1_555
Cu2 S2 2.364796 1_555
Cu2 S14 2.395171 1_555
Cu2 S15 2.435746 1_555
Cu3 S28 2.280336 1_655
Cu3 S3 2.304852 1_555
Cu3 S1 2.332662 1_555
Cu3 S31 2.365820 1_555
Cu4 S25 2.305206 1_555
Cu4 S30 2.364796 1_555
Cu4 S11 2.395171 1_555
Cu4 S26 2.435746 1_555
Cu5 S25 2.283924 1_556
Cu5 S2 2.296042 1_555
Cu5 S5 2.326114 1_555
Cu6 S15 2.280336 1_665
Cu6 S7 2.304852 1_555
Cu6 S23 2.332662 1_565
Cu6 S22 2.365820 1_555
Cu7 S5 2.280336 1_455
Cu7 S20 2.304852 1_555
Cu7 S16 2.332662 1_555
Cu7 S2 2.365820 1_555
Cu8 S0 2.283924 1_556
Cu8 S22 2.296042 1_555
Cu8 S15 2.326114 1_565
Cu9 S24 2.305206 1_555
Cu9 S19 2.364796 1_555
Cu9 S21 2.395171 1_555
Cu9 S29 2.435746 1_555
Cu10 S10 2.283924 1_555
Cu10 S6 2.296042 1_555
Cu10 S12 2.326114 1_545
Cu11 S1 2.283924 1_555
Cu11 S4 2.296042 1_555
Cu11 S29 2.326114 1_555
Cu12 S9 2.280336 1_445
Cu12 S8 2.304852 1_555
Cu12 S0 2.332662 1_545
Cu12 S30 2.365820 1_555
Cu13 S16 2.283924 1_554
Cu13 S17 2.296042 1_555
Cu13 S26 2.326114 1_555
Cu14 S16 2.305206 1_555
Cu14 S22 2.364796 1_555
Cu14 S21 2.395171 1_555
Cu14 S5 2.435746 1_555
Cu15 S13 2.283924 1_555
Cu15 S19 2.296042 1_555
Cu15 S27 2.326114 1_565
Cu16 S29 2.280336 1_455
Cu16 S20 2.304852 1_555
Cu16 S24 2.332662 1_555
Cu16 S4 2.365820 1_555
Cu17 S27 2.280336 1_665
Cu17 S7 2.304852 1_555
Cu17 S10 2.332662 1_565
Cu17 S19 2.365820 1_555
Cu18 S26 2.280336 1_655
Cu18 S3 2.304852 1_555
Cu18 S25 2.332662 1_555
Cu18 S17 2.365820 1_555
Cu19 S13 2.305206 1_555
Cu19 S31 2.364796 1_555
Cu19 S18 2.395171 1_555
Cu19 S12 2.435746 1_555
Cu20 S0 2.305206 1_555
Cu20 S17 2.364796 1_555
Cu20 S18 2.395171 1_555
Cu20 S9 2.435746 1_555
Cu21 S12 2.280336 1_445
Cu21 S8 2.304852 1_555
Cu21 S13 2.332662 1_545
Cu21 S6 2.365820 1_555
Cu22 S10 2.305206 1_555
Cu22 S4 2.364796 1_555
Cu22 S14 2.395171 1_555
Cu22 S27 2.435746 1_555
Cu23 S23 2.283924 1_554
Cu23 S30 2.296042 1_555
Cu23 S9 2.326114 1_545
Ge0 S20 2.230104 1_555
Ge0 S14 2.257413 1_555
Ge0 S29 2.291211 1_555
Ge0 S5 2.291211 1_555
Ge1 S8 2.230104 1_555
Ge1 S11 2.257413 1_555
Ge1 S12 2.291211 1_545
Ge1 S9 2.291211 1_545
Ge2 S7 2.230104 1_555
Ge2 S21 2.257413 1_555
Ge2 S15 2.291211 1_565
Ge2 S27 2.291211 1_565
Ge3 S31 2.257536 1_555
Ge3 S19 2.257536 1_555
Ge3 S24 2.272745 1_655
Ge3 S13 2.272745 1_655
Ge4 S3 2.230104 1_555
Ge4 S18 2.257413 1_555
Ge4 S28 2.291211 1_555
Ge4 S26 2.291211 1_555
Ge5 S22 2.257536 1_554
Ge5 S17 2.257536 1_555
Ge5 S16 2.272745 1_654
Ge5 S0 2.272745 1_655
Ge6 S4 2.257536 1_555
Ge6 S6 2.257536 1_555
Ge6 S10 2.272745 1_455
Ge6 S1 2.272745 1_455
Ge7 S2 2.257536 1_554
Ge7 S30 2.257536 1_555
Ge7 S23 2.272745 1_454
Ge7 S25 2.272745 1_455
