# generated using pymatgen
data_Fe2Te2W(CO)10
_symmetry_space_group_name_H-M   'P 1'
_cell_length_a   7.35932300
_cell_length_b   9.82437056
_cell_length_c   14.23757463
_cell_angle_alpha   81.77250178
_cell_angle_beta   83.13448378
_cell_angle_gamma   85.59705877
_symmetry_Int_Tables_number   1
_chemical_formula_structural   Fe2Te2W(CO)10
_chemical_formula_sum   'Fe4 Te4 W2 C20 O20'
_cell_volume   1009.62043928
_cell_formula_units_Z   2
loop_
 _symmetry_equiv_pos_site_id
 _symmetry_equiv_pos_as_xyz
  1  'x, y, z'
loop_
 _atom_site_type_symbol
 _atom_site_label
 _atom_site_symmetry_multiplicity
 _atom_site_fract_x
 _atom_site_fract_y
 _atom_site_fract_z
 _atom_site_occupancy
  Fe  Fe0  1  0.71618800  0.50213200  0.23007300  1
  Fe  Fe1  1  0.28381200  0.49786800  0.76992700  1
  Fe  Fe2  1  0.64752500  0.16971400  0.13541600  1
  Fe  Fe3  1  0.35247500  0.83028600  0.86458400  1
  Te  Te0  1  0.90886000  0.28166400  0.19603100  1
  Te  Te1  1  0.09114000  0.71833600  0.80396900  1
  Te  Te2  1  0.55097900  0.61646900  0.81975000  1
  Te  Te3  1  0.44902100  0.38353100  0.18025000  1
  W  W0  1  0.60793600  0.22987800  0.33456500  1
  W  W1  1  0.39206400  0.77012200  0.66543500  1
  C  C0  1  0.55771000  0.91300200  0.87298900  1
  C  C1  1  0.44394500  0.37114400  0.72151400  1
  C  C2  1  0.56144300  0.65531300  0.57637800  1
  C  C3  1  0.09930600  0.45335600  0.70946900  1
  C  C4  1  0.44229000  0.08699800  0.12701100  1
  C  C5  1  0.30102900  0.76274600  0.98577800  1
  C  C6  1  0.62038800  0.88271100  0.63721300  1
  C  C7  1  0.78834100  0.01185500  0.14024300  1
  C  C8  1  0.69897100  0.23725400  0.01422200  1
  C  C9  1  0.28055300  0.96845500  0.63621200  1
  C  C10  1  0.22798200  0.40849300  0.88488500  1
  C  C11  1  0.71944700  0.03154500  0.36378800  1
  C  C12  1  0.77626000  0.25157700  0.43644800  1
  C  C13  1  0.43855700  0.34468700  0.42362200  1
  C  C14  1  0.55605500  0.62885600  0.27848600  1
  C  C15  1  0.77201800  0.59150700  0.11511500  1
  C  C16  1  0.90069400  0.54664400  0.29053100  1
  C  C17  1  0.21165900  0.98814500  0.85975700  1
  C  C18  1  0.37961200  0.11728900  0.36278700  1
  C  C19  1  0.22374000  0.74842300  0.56355200  1
  O  O0  1  0.19317100  0.35003000  0.96113000  1
  O  O1  1  0.87906100  0.90990200  0.14226500  1
  O  O2  1  0.73088800  0.28146400  0.93430100  1
  O  O3  1  0.77754100  0.91919300  0.38371300  1
  O  O4  1  0.12874400  0.73663500  0.50624100  1
  O  O5  1  0.54283300  0.28538200  0.69265400  1
  O  O6  1  0.65743100  0.59580400  0.52326900  1
  O  O7  1  0.68856900  0.96653600  0.88176300  1
  O  O8  1  0.80682900  0.64997000  0.03887000  1
  O  O9  1  0.31143100  0.03346400  0.11823700  1
  O  O10  1  0.34256900  0.40419600  0.47673100  1
  O  O11  1  0.97844600  0.42391700  0.67292400  1
  O  O12  1  0.12093900  0.09009800  0.85773500  1
  O  O13  1  0.25091700  0.05273900  0.37915400  1
  O  O14  1  0.26911200  0.71853600  0.06569900  1
  O  O15  1  0.22245900  0.08080700  0.61628700  1
  O  O16  1  0.74908300  0.94726100  0.62084600  1
  O  O17  1  0.02155400  0.57608300  0.32707600  1
  O  O18  1  0.45716700  0.71461800  0.30734600  1
  O  O19  1  0.87125600  0.26336500  0.49375900  1
loop_
_geom_bond_atom_site_label_1
_geom_bond_atom_site_label_2
_geom_bond_distance
_geom_bond_site_symmetry_2
Fe0 Te0 2.569325 1_555
Fe0 Te3 2.578451 1_555
Fe0 W0 2.984466 1_555
Fe1 Te1 2.569325 1_555
Fe1 Te2 2.578451 1_555
Fe1 W1 2.984466 1_555
Fe2 Te3 2.577560 1_555
Fe2 Te0 2.578095 1_555
Fe2 W0 2.954566 1_555
Fe3 Te2 2.577560 1_555
Fe3 Te1 2.578095 1_555
Fe3 W1 2.954566 1_555
Te0 W0 2.809819 1_555
Te1 W1 2.809819 1_555
Te2 W1 2.804926 1_555
Te3 W0 2.804926 1_555
C0 O7 1.159734 1_555
C0 Fe3 1.793173 1_555
C1 O5 1.158363 1_555
C1 Fe1 1.800006 1_555
C2 O6 1.161024 1_555
C2 W1 2.061385 1_555
C3 O11 1.157022 1_455
C3 Fe1 1.803949 1_555
C4 O9 1.159734 1_555
C4 Fe2 1.793173 1_555
C5 O14 1.161425 1_556
C5 Fe3 1.765135 1_555
C6 O16 1.162169 1_555
C6 W1 2.050643 1_555
C7 O1 1.159089 1_545
C7 Fe2 1.795439 1_555
C8 O2 1.161425 1_554
C8 Fe2 1.765135 1_555
C9 O15 1.161262 1_565
C9 W1 2.060897 1_555
C10 O0 1.162576 1_555
C10 Fe1 1.761236 1_555
C11 O3 1.161262 1_545
C11 W0 2.060897 1_555
C12 O19 1.159236 1_555
C12 W0 2.059792 1_555
C13 O10 1.161024 1_555
C13 W0 2.061385 1_555
C14 O18 1.158363 1_555
C14 Fe0 1.800006 1_555
C15 O8 1.162576 1_555
C15 Fe0 1.761236 1_555
C16 O17 1.157022 1_655
C16 Fe0 1.803949 1_555
C17 O12 1.159089 1_565
C17 Fe3 1.795439 1_555
C18 O13 1.162169 1_555
C18 W0 2.050643 1_555
C19 O4 1.159236 1_555
C19 W1 2.059792 1_555
