# generated using pymatgen
data_Er3CuSiS7
_symmetry_space_group_name_H-M   'P 1'
_cell_length_a   9.76887420
_cell_length_b   9.76887419
_cell_length_c   5.67962640
_cell_angle_alpha   90.00000000
_cell_angle_beta   90.00000000
_cell_angle_gamma   119.99999719
_symmetry_Int_Tables_number   1
_chemical_formula_structural   Er3CuSiS7
_chemical_formula_sum   'Er6 Cu2 Si2 S14'
_cell_volume   469.39606735
_cell_formula_units_Z   2
loop_
 _symmetry_equiv_pos_site_id
 _symmetry_equiv_pos_as_xyz
  1  'x, y, z'
loop_
 _atom_site_type_symbol
 _atom_site_label
 _atom_site_symmetry_multiplicity
 _atom_site_fract_x
 _atom_site_fract_y
 _atom_site_fract_z
 _atom_site_occupancy
  Er  Er0  1  0.13115835  0.35765944  0.74454266  1
  Er  Er1  1  0.77349891  0.13115835  0.24454266  1
  Er  Er2  1  0.86884165  0.64234056  0.24454266  1
  Er  Er3  1  0.35765944  0.22650109  0.24454266  1
  Er  Er4  1  0.22650109  0.86884165  0.74454266  1
  Er  Er5  1  0.64234056  0.77349891  0.74454266  1
  Cu  Cu0  1  0.00000000  0.00000000  0.19262781  1
  Cu  Cu1  1  0.00000000  0.00000000  0.69262781  1
  Si  Si0  1  0.66666700  0.33333300  0.83365113  1
  Si  Si1  1  0.33333300  0.66666700  0.33365113  1
  S  S0  1  0.41856900  0.52346349  0.48398182  1
  S  S1  1  0.25896363  0.16150576  0.71029727  1
  S  S2  1  0.47653651  0.89510651  0.48398182  1
  S  S3  1  0.10489349  0.58143100  0.48398182  1
  S  S4  1  0.58143100  0.47653651  0.98398182  1
  S  S5  1  0.74103637  0.83849424  0.21029727  1
  S  S6  1  0.90254113  0.74103637  0.71029727  1
  S  S7  1  0.52346349  0.10489349  0.98398182  1
  S  S8  1  0.83849424  0.09745887  0.71029727  1
  S  S9  1  0.16150576  0.90254113  0.21029727  1
  S  S10  1  0.09745887  0.25896363  0.21029727  1
  S  S11  1  0.89510651  0.41856900  0.98398182  1
  S  S12  1  0.66666700  0.33333300  0.46383280  1
  S  S13  1  0.33333300  0.66666700  0.96383280  1
loop_
_geom_bond_atom_site_label_1
_geom_bond_atom_site_label_2
_geom_bond_distance
_geom_bond_site_symmetry_2
Er0 S8 2.721323 1_455
Er0 S3 2.755968 1_555
Er0 S1 2.767823 1_555
Er0 S10 2.778170 1_556
Er0 S0 2.854640 1_555
Er0 S13 2.932971 1_555
Er0 S11 2.982111 1_455
Er0 S10 3.150812 1_555
Er1 S5 2.721327 1_545
Er1 S7 2.755960 1_554
Er1 S10 2.767832 1_655
Er1 S8 2.778167 1_555
Er1 S11 2.854639 1_554
Er1 S12 2.932964 1_555
Er1 S2 2.982117 1_545
Er1 S8 3.150809 1_554
Er2 S9 2.721323 1_655
Er2 S11 2.755968 1_554
Er2 S5 2.767823 1_555
Er2 S6 2.778170 1_555
Er2 S4 2.854640 1_554
Er2 S12 2.932971 1_555
Er2 S3 2.982111 1_655
Er2 S6 3.150812 1_554
Er3 S10 2.721317 1_555
Er3 S4 2.755963 1_554
Er3 S9 2.767831 1_545
Er3 S1 2.778170 1_555
Er3 S7 2.854646 1_554
Er3 S12 2.932972 1_555
Er3 S0 2.982119 1_555
Er3 S1 3.150811 1_554
Er4 S1 2.721327 1_565
Er4 S2 2.755960 1_555
Er4 S6 2.767832 1_455
Er4 S9 2.778167 1_556
Er4 S3 2.854639 1_555
Er4 S13 2.932964 1_555
Er4 S7 2.982117 1_565
Er4 S9 3.150809 1_555
Er5 S6 2.721317 1_555
Er5 S0 2.755963 1_555
Er5 S8 2.767831 1_565
Er5 S5 2.778170 1_556
Er5 S2 2.854646 1_555
Er5 S13 2.932972 1_555
Er5 S4 2.982119 1_555
Er5 S5 3.150811 1_555
Cu0 S10 2.215352 1_555
Cu0 S5 2.215354 1_445
Cu0 S9 2.215361 1_545
Cu0 Er1 3.075626 1_455
Cu0 Er2 3.075626 1_445
Cu0 Er3 3.075626 1_555
Cu1 S6 2.215352 1_445
Cu1 S1 2.215354 1_555
Cu1 S8 2.215361 1_455
Cu1 Er4 3.075626 1_545
Cu1 Er0 3.075626 1_555
Cu1 Er5 3.075626 1_445
S0 Si1 2.131712 1_555
S2 Si1 2.131713 1_555
S3 Si1 2.131713 1_555
S4 Si0 2.131712 1_555
S7 Si0 2.131713 1_555
S11 Si0 2.131713 1_555
S12 Si0 2.100430 1_555
S13 Si1 2.100430 1_556
