# generated using pymatgen
data_Na8Hg3
_symmetry_space_group_name_H-M   'P 1'
_cell_length_a   18.03742798
_cell_length_b   18.03742798
_cell_length_c   18.03742763
_cell_angle_alpha   29.40812011
_cell_angle_beta   29.40812011
_cell_angle_gamma   29.40812038
_symmetry_Int_Tables_number   1
_chemical_formula_structural   Na8Hg3
_chemical_formula_sum   'Na32 Hg12'
_cell_volume   1252.23045662
_cell_formula_units_Z   4
loop_
 _symmetry_equiv_pos_site_id
 _symmetry_equiv_pos_as_xyz
  1  'x, y, z'
loop_
 _atom_site_type_symbol
 _atom_site_label
 _atom_site_symmetry_multiplicity
 _atom_site_fract_x
 _atom_site_fract_y
 _atom_site_fract_z
 _atom_site_occupancy
  Na  Na0  1  0.20928176  0.85876237  0.48606702  1
  Na  Na1  1  0.85876237  0.48606702  0.20928176  1
  Na  Na2  1  0.48606702  0.20928176  0.85876237  1
  Na  Na3  1  0.64123763  0.29071824  0.01393298  1
  Na  Na4  1  0.29071824  0.01393298  0.64123763  1
  Na  Na5  1  0.01393298  0.64123763  0.29071824  1
  Na  Na6  1  0.79071824  0.14123763  0.51393298  1
  Na  Na7  1  0.14123763  0.51393298  0.79071824  1
  Na  Na8  1  0.51393298  0.79071824  0.14123763  1
  Na  Na9  1  0.35876237  0.70928176  0.98606702  1
  Na  Na10  1  0.70928176  0.98606702  0.35876237  1
  Na  Na11  1  0.98606702  0.35876237  0.70928176  1
  Na  Na12  1  0.63581946  0.87951314  0.14135167  1
  Na  Na13  1  0.87951314  0.14135167  0.63581946  1
  Na  Na14  1  0.14135167  0.63581946  0.87951314  1
  Na  Na15  1  0.62048686  0.86418054  0.35864833  1
  Na  Na16  1  0.86418054  0.35864833  0.62048686  1
  Na  Na17  1  0.35864833  0.62048686  0.86418054  1
  Na  Na18  1  0.36418054  0.12048686  0.85864833  1
  Na  Na19  1  0.12048686  0.85864833  0.36418054  1
  Na  Na20  1  0.85864833  0.36418054  0.12048686  1
  Na  Na21  1  0.37951314  0.13581946  0.64135167  1
  Na  Na22  1  0.13581946  0.64135167  0.37951314  1
  Na  Na23  1  0.64135167  0.37951314  0.13581946  1
  Na  Na24  1  0.56156333  0.56156333  0.56156333  1
  Na  Na25  1  0.93843667  0.93843667  0.93843667  1
  Na  Na26  1  0.43843667  0.43843667  0.43843667  1
  Na  Na27  1  0.06156333  0.06156333  0.06156333  1
  Na  Na28  1  0.21995473  0.21995473  0.21995473  1
  Na  Na29  1  0.28004527  0.28004527  0.28004527  1
  Na  Na30  1  0.78004527  0.78004527  0.78004527  1
  Na  Na31  1  0.71995473  0.71995473  0.71995473  1
  Hg  Hg0  1  0.06602330  0.43397670  0.75000000  1
  Hg  Hg1  1  0.43397670  0.75000000  0.06602330  1
  Hg  Hg2  1  0.75000000  0.06602330  0.43397670  1
  Hg  Hg3  1  0.93397670  0.56602330  0.25000000  1
  Hg  Hg4  1  0.56602330  0.25000000  0.93397670  1
  Hg  Hg5  1  0.25000000  0.93397670  0.56602330  1
  Hg  Hg6  1  0.50000000  0.50000000  0.50000000  1
  Hg  Hg7  1  -0.00000000  0.00000000  -0.00000000  1
  Hg  Hg8  1  0.84197154  0.84197154  0.84197154  1
  Hg  Hg9  1  0.65802846  0.65802846  0.65802846  1
  Hg  Hg10  1  0.15802846  0.15802846  0.15802846  1
  Hg  Hg11  1  0.34197154  0.34197154  0.34197154  1
loop_
_geom_bond_atom_site_label_1
_geom_bond_atom_site_label_2
_geom_bond_distance
_geom_bond_site_symmetry_2
Hg0 Na22 3.198360 1_555
Hg0 Na20 3.198360 1_456
Hg0 Na31 3.284812 1_455
Hg0 Na30 3.284812 1_455
Hg0 Na21 3.287825 1_555
Hg0 Na18 3.287825 1_555
Hg0 Na27 3.330718 1_556
Hg0 Na26 3.330718 1_555
Hg0 Na11 3.383848 1_455
Hg0 Na7 3.383848 1_555
Hg1 Na23 3.198360 1_555
Hg1 Na18 3.198360 1_564
Hg1 Na31 3.284812 1_554
Hg1 Na30 3.284812 1_554
Hg1 Na19 3.287825 1_555
Hg1 Na22 3.287825 1_555
Hg1 Na26 3.330718 1_555
Hg1 Na27 3.330718 1_565
Hg1 Na9 3.383848 1_554
Hg1 Na8 3.383848 1_555
Hg2 Na19 3.198360 1_645
Hg2 Na21 3.198360 1_555
Hg2 Na30 3.284812 1_545
Hg2 Na31 3.284812 1_545
Hg2 Na23 3.287825 1_555
Hg2 Na20 3.287825 1_555
Hg2 Na27 3.330718 1_655
Hg2 Na26 3.330718 1_555
Hg2 Na6 3.383848 1_555
Hg2 Na10 3.383848 1_545
Hg3 Na14 3.198360 1_654
Hg3 Na16 3.198360 1_555
Hg3 Na28 3.284812 1_655
Hg3 Na29 3.284812 1_655
Hg3 Na15 3.287825 1_555
Hg3 Na12 3.287825 1_555
Hg3 Na24 3.330718 1_555
Hg3 Na25 3.330718 1_554
Hg3 Na1 3.383848 1_555
Hg3 Na5 3.383848 1_655
Hg4 Na17 3.198360 1_555
Hg4 Na12 3.198360 1_546
Hg4 Na29 3.284812 1_556
Hg4 Na28 3.284812 1_556
Hg4 Na13 3.287825 1_555
Hg4 Na16 3.287825 1_555
Hg4 Na24 3.330718 1_555
Hg4 Na25 3.330718 1_545
Hg4 Na3 3.383848 1_556
Hg4 Na2 3.383848 1_555
Hg5 Na13 3.198360 1_465
Hg5 Na15 3.198360 1_555
Hg5 Na28 3.284812 1_565
Hg5 Na29 3.284812 1_565
Hg5 Na17 3.287825 1_555
Hg5 Na14 3.287825 1_555
Hg5 Na25 3.330718 1_455
Hg5 Na24 3.330718 1_555
Hg5 Na0 3.383848 1_555
Hg5 Na4 3.383848 1_565
Hg6 Na8 3.126846 1_555
Hg6 Na2 3.126846 1_555
Hg6 Na7 3.126846 1_555
Hg6 Na1 3.126846 1_555
Hg6 Na6 3.126846 1_555
Hg6 Na0 3.126846 1_555
Hg6 Na26 3.185033 1_555
Hg6 Na24 3.185033 1_555
Hg7 Na4 3.126846 1_554
Hg7 Na10 3.126846 1_445
Hg7 Na11 3.126846 1_454
Hg7 Na5 3.126846 1_545
Hg7 Na9 3.126846 1_544
Hg7 Na3 3.126846 1_455
Hg7 Na27 3.185033 1_555
Hg7 Na25 3.185033 1_444
Hg8 Na6 3.192361 1_565
Hg8 Na8 3.192361 1_556
Hg8 Na7 3.192361 1_655
Hg8 Na30 3.203810 1_555
Hg8 Na12 3.231879 1_556
Hg8 Na14 3.231879 1_655
Hg8 Na13 3.231879 1_565
Hg8 Na1 3.347177 1_556
Hg8 Na0 3.347177 1_655
Hg8 Na2 3.347177 1_565
Hg9 Na9 3.192361 1_555
Hg9 Na10 3.192361 1_555
Hg9 Na11 3.192361 1_555
Hg9 Na31 3.203810 1_555
Hg9 Na15 3.231879 1_555
Hg9 Na16 3.231879 1_555
Hg9 Na17 3.231879 1_555
Hg9 Na5 3.347177 1_655
Hg9 Na3 3.347177 1_556
Hg9 Na4 3.347177 1_565
Hg10 Na0 3.192361 1_545
Hg10 Na2 3.192361 1_554
Hg10 Na1 3.192361 1_455
Hg10 Na28 3.203810 1_555
Hg10 Na18 3.231879 1_554
Hg10 Na20 3.231879 1_455
Hg10 Na19 3.231879 1_545
Hg10 Na7 3.347177 1_554
Hg10 Na6 3.347177 1_455
Hg10 Na8 3.347177 1_545
Hg11 Na3 3.192361 1_555
Hg11 Na4 3.192361 1_555
Hg11 Na5 3.192361 1_555
Hg11 Na29 3.203810 1_555
Hg11 Na21 3.231879 1_555
Hg11 Na22 3.231879 1_555
Hg11 Na23 3.231879 1_555
Hg11 Na11 3.347177 1_455
Hg11 Na9 3.347177 1_554
Hg11 Na10 3.347177 1_545
