# generated using pymatgen
data_BaZnPb
_symmetry_space_group_name_H-M   'P 1'
_cell_length_a   4.88677586
_cell_length_b   4.88677586
_cell_length_c   9.86969500
_cell_angle_alpha   90.00000000
_cell_angle_beta   90.00000000
_cell_angle_gamma   119.99999814
_symmetry_Int_Tables_number   1
_chemical_formula_structural   BaZnPb
_chemical_formula_sum   'Ba2 Zn2 Pb2'
_cell_volume   204.11701661
_cell_formula_units_Z   2
loop_
 _symmetry_equiv_pos_site_id
 _symmetry_equiv_pos_as_xyz
  1  'x, y, z'
loop_
 _atom_site_type_symbol
 _atom_site_label
 _atom_site_symmetry_multiplicity
 _atom_site_fract_x
 _atom_site_fract_y
 _atom_site_fract_z
 _atom_site_occupancy
  Ba  Ba0  1  0.00000000  0.00000000  0.00000000  1
  Ba  Ba1  1  0.00000000  0.00000000  0.50000000  1
  Zn  Zn0  1  0.33333300  0.66666700  0.25000000  1
  Zn  Zn1  1  0.66666700  0.33333300  0.75000000  1
  Pb  Pb0  1  0.33333300  0.66666700  0.75000000  1
  Pb  Pb1  1  0.66666700  0.33333300  0.25000000  1
loop_
_geom_bond_atom_site_label_1
_geom_bond_atom_site_label_2
_geom_bond_distance
_geom_bond_site_symmetry_2
Ba0 Pb1 3.748114 1_455
Ba0 Pb0 3.748114 1_544
Ba0 Zn0 3.748114 1_545
Ba0 Zn1 3.748114 1_454
Ba0 Zn0 3.748117 1_445
Ba0 Pb1 3.748117 1_555
Ba0 Pb0 3.748117 1_444
Ba0 Zn1 3.748117 1_554
Ba0 Zn1 3.748117 1_444
Ba0 Pb1 3.748117 1_445
Ba0 Zn0 3.748117 1_555
Ba0 Pb0 3.748117 1_554
Ba1 Pb1 3.748114 1_455
Ba1 Pb0 3.748114 1_545
Ba1 Zn0 3.748114 1_545
Ba1 Zn1 3.748114 1_455
Ba1 Pb0 3.748117 1_445
Ba1 Zn0 3.748117 1_445
Ba1 Pb1 3.748117 1_555
Ba1 Pb0 3.748117 1_555
Ba1 Pb1 3.748117 1_445
Ba1 Zn0 3.748117 1_555
Ba1 Zn1 3.748117 1_445
Ba1 Zn1 3.748117 1_555
Pb0 Zn1 2.821379 1_455
Pb0 Zn1 2.821379 1_565
Pb0 Zn1 2.821387 1_555
Pb1 Zn0 2.821379 1_545
Pb1 Zn0 2.821379 1_655
Pb1 Zn0 2.821387 1_555
