# generated using pymatgen
data_Rb2CdSiO4
_symmetry_space_group_name_H-M   'P 1'
_cell_length_a   8.06843953
_cell_length_b   8.06843953
_cell_length_c   16.93679500
_cell_angle_alpha   90.00000000
_cell_angle_beta   90.00000000
_cell_angle_gamma   92.36527094
_symmetry_Int_Tables_number   1
_chemical_formula_structural   Rb2CdSiO4
_chemical_formula_sum   'Rb16 Cd8 Si8 O32'
_cell_volume   1101.64118563
_cell_formula_units_Z   8
loop_
 _symmetry_equiv_pos_site_id
 _symmetry_equiv_pos_as_xyz
  1  'x, y, z'
loop_
 _atom_site_type_symbol
 _atom_site_label
 _atom_site_symmetry_multiplicity
 _atom_site_fract_x
 _atom_site_fract_y
 _atom_site_fract_z
 _atom_site_occupancy
  Rb  Rb0  1  0.25756900  0.75600000  0.14056000  1
  Rb  Rb1  1  0.95770500  0.95770500  0.00000000  1
  Rb  Rb2  1  0.25782000  0.24835400  0.10942200  1
  Rb  Rb3  1  0.54808900  0.05231000  0.26199300  1
  Rb  Rb4  1  0.24835400  0.25782000  0.89057800  1
  Rb  Rb5  1  0.74218000  0.75164600  0.60942200  1
  Rb  Rb6  1  0.44641200  0.44641200  0.50000000  1
  Rb  Rb7  1  0.74243100  0.24400000  0.64056000  1
  Rb  Rb8  1  0.75600000  0.25756900  0.85944000  1
  Rb  Rb9  1  0.94769000  0.45191100  0.23800700  1
  Rb  Rb10  1  0.45191100  0.94769000  0.76199300  1
  Rb  Rb11  1  0.55358800  0.55358800  0.00000000  1
  Rb  Rb12  1  0.24400000  0.74243100  0.35944000  1
  Rb  Rb13  1  0.05231000  0.54808900  0.73800700  1
  Rb  Rb14  1  0.75164600  0.74218000  0.39057800  1
  Rb  Rb15  1  0.04229500  0.04229500  0.50000000  1
  Cd  Cd0  1  0.73112500  0.22815400  0.09387500  1
  Cd  Cd1  1  0.26887500  0.77184600  0.59387500  1
  Cd  Cd2  1  0.22815400  0.73112500  0.90612500  1
  Cd  Cd3  1  0.77184600  0.26887500  0.40612500  1
  Cd  Cd4  1  0.75249600  0.77133000  0.15655200  1
  Cd  Cd5  1  0.22867000  0.24750400  0.34344800  1
  Cd  Cd6  1  0.24750400  0.22867000  0.65655200  1
  Cd  Cd7  1  0.77133000  0.75249600  0.84344800  1
  Si  Si0  1  0.98715200  0.51692700  0.00459400  1
  Si  Si1  1  0.51692700  0.98715200  0.99540600  1
  Si  Si2  1  0.51761000  0.48239000  0.25000000  1
  Si  Si3  1  0.98959400  0.01040600  0.25000000  1
  Si  Si4  1  0.01284800  0.48307300  0.50459400  1
  Si  Si5  1  0.48307300  0.01284800  0.49540600  1
  Si  Si6  1  0.01040600  0.98959400  0.75000000  1
  Si  Si7  1  0.48239000  0.51761000  0.75000000  1
  O  O0  1  0.44758000  0.31349700  0.74135500  1
  O  O1  1  0.19332100  0.04861300  0.24871300  1
  O  O2  1  0.61143900  0.41599400  0.33030200  1
  O  O3  1  0.68650300  0.55242000  0.75864500  1
  O  O4  1  0.41162500  0.07311300  0.58302700  1
  O  O5  1  0.19309500  0.54011300  0.00487200  1
  O  O6  1  0.09820400  0.91837300  0.66884700  1
  O  O7  1  0.55242000  0.68650300  0.24135500  1
  O  O8  1  0.41599400  0.61143900  0.66969800  1
  O  O9  1  0.06366700  0.68365200  0.51225400  1
  O  O10  1  0.45988700  0.80690500  0.49512800  1
  O  O11  1  0.90783100  0.62227600  0.07797400  1
  O  O12  1  0.09216900  0.37772400  0.57797400  1
  O  O13  1  0.62227600  0.90783100  0.92202600  1
  O  O14  1  0.80690500  0.45988700  0.50487200  1
  O  O15  1  0.90179600  0.08162700  0.16884700  1
  O  O16  1  0.91837300  0.09820400  0.33115300  1
  O  O17  1  0.08162700  0.90179600  0.83115300  1
  O  O18  1  0.95138700  0.80667900  0.25128700  1
  O  O19  1  0.58837500  0.92688700  0.08302700  1
  O  O20  1  0.37772400  0.09216900  0.42202600  1
  O  O21  1  0.54011300  0.19309500  0.99512800  1
  O  O22  1  0.31349700  0.44758000  0.25864500  1
  O  O23  1  0.58400600  0.38856100  0.16969800  1
  O  O24  1  0.92688700  0.58837500  0.91697300  1
  O  O25  1  0.93633300  0.31634800  0.01225400  1
  O  O26  1  0.04861300  0.19332100  0.75128700  1
  O  O27  1  0.07311300  0.41162500  0.41697300  1
  O  O28  1  0.38856100  0.58400600  0.83030200  1
  O  O29  1  0.80667900  0.95138700  0.74871300  1
  O  O30  1  0.68365200  0.06366700  0.48774600  1
  O  O31  1  0.31634800  0.93633300  0.98774600  1
loop_
_geom_bond_atom_site_label_1
_geom_bond_atom_site_label_2
_geom_bond_distance
_geom_bond_site_symmetry_2
Cd0 O23 2.204548 1_555
Cd0 O15 2.245149 1_555
Cd0 O25 2.249779 1_555
Cd0 O21 2.283933 1_554
Cd0 O19 2.652888 1_545
Cd1 O8 2.204548 1_555
Cd1 O6 2.245149 1_555
Cd1 O9 2.249779 1_555
Cd1 O10 2.283933 1_555
Cd1 O4 2.652888 1_565
Cd2 O28 2.204548 1_555
Cd2 O17 2.245149 1_555
Cd2 O31 2.249779 1_555
Cd2 O5 2.283933 1_556
Cd2 O24 2.652888 1_455
Cd3 O2 2.204548 1_555
Cd3 O16 2.245149 1_555
Cd3 O30 2.249779 1_555
Cd3 O14 2.283933 1_555
Cd3 O27 2.652888 1_655
Cd4 O11 2.216464 1_555
Cd4 O19 2.239796 1_555
Cd4 O7 2.246361 1_555
Cd4 O18 2.278860 1_555
Cd5 O20 2.216464 1_555
Cd5 O27 2.239796 1_555
Cd5 O22 2.246361 1_555
Cd5 O1 2.278860 1_555
Cd6 O12 2.216464 1_555
Cd6 O4 2.239796 1_555
Cd6 O0 2.246361 1_555
Cd6 O26 2.278860 1_555
Cd7 O13 2.216464 1_555
Cd7 O24 2.239796 1_555
Cd7 O3 2.246361 1_555
Cd7 O29 2.278860 1_555
O0 Si7 1.665634 1_555
O0 Rb10 2.973755 1_545
O0 Rb7 2.999742 1_555
O0 Rb4 3.018877 1_555
O0 Rb8 3.238628 1_555
O1 Si3 1.660007 1_455
O1 Rb3 2.870175 1_555
O1 Rb2 2.892128 1_555
O1 Rb0 3.049441 1_545
O1 Rb12 3.141733 1_545
O2 Si2 1.656307 1_555
O2 Rb14 3.000437 1_555
O2 Rb9 3.134183 1_555
O2 Rb3 3.175916 1_555
O2 Rb6 3.181322 1_555
O3 Si7 1.665634 1_555
O3 Rb13 2.973755 1_655
O3 Rb8 2.999742 1_555
O3 Rb5 3.018877 1_555
O3 Rb7 3.238628 1_555
O4 Si5 1.671587 1_555
O4 Rb7 3.109798 1_555
O4 Rb10 3.216289 1_545
O4 Rb6 3.325390 1_555
O5 Si0 1.664453 1_455
O5 Rb11 2.907331 1_555
O5 Rb0 2.917412 1_555
O5 Rb2 3.008525 1_555
O5 Rb4 3.036047 1_554
O6 Si6 1.659761 1_555
O6 Rb15 3.068953 1_565
O6 Rb13 3.216162 1_555
O6 Rb10 3.260916 1_555
O6 Rb5 3.279520 1_455
O7 Si2 1.665634 1_555
O7 Rb3 2.973755 1_565
O7 Rb0 2.999742 1_555
O7 Rb14 3.018877 1_555
O7 Rb12 3.238628 1_555
O8 Si7 1.656307 1_555
O8 Rb5 3.000437 1_555
O8 Rb10 3.134183 1_555
O8 Rb13 3.175916 1_555
O8 Rb6 3.181322 1_555
O9 Si4 1.658093 1_555
O9 Rb15 2.913320 1_565
O9 Rb12 2.997278 1_555
O9 Rb5 3.139285 1_455
O9 Rb14 3.302416 1_455
O10 Si5 1.664453 1_565
O10 Rb6 2.907331 1_555
O10 Rb12 2.917412 1_555
O10 Rb14 3.008525 1_555
O10 Rb5 3.036047 1_555
O11 Si0 1.649730 1_555
O11 Rb1 3.023349 1_555
O11 Rb9 3.062009 1_555
O11 Rb0 3.162153 1_655
O11 Rb11 3.176429 1_555
O12 Si4 1.649730 1_555
O12 Rb15 3.023349 1_555
O12 Rb13 3.062009 1_555
O12 Rb7 3.162153 1_455
O12 Rb6 3.176429 1_555
O13 Si1 1.649730 1_555
O13 Rb1 3.023349 1_556
O13 Rb10 3.062009 1_555
O13 Rb8 3.162153 1_565
O13 Rb11 3.176429 1_556
O14 Si4 1.664453 1_655
O14 Rb6 2.907331 1_555
O14 Rb7 2.917412 1_555
O14 Rb5 3.008525 1_555
O14 Rb14 3.036047 1_555
O15 Si3 1.659761 1_555
O15 Rb1 3.068953 1_545
O15 Rb9 3.216162 1_555
O15 Rb3 3.260916 1_555
O15 Rb2 3.279520 1_655
O16 Si3 1.659761 1_555
O16 Rb15 3.068953 1_655
O16 Rb3 3.216162 1_555
O16 Rb9 3.260916 1_555
O16 Rb14 3.279520 1_545
O17 Si6 1.659761 1_555
O17 Rb1 3.068953 1_456
O17 Rb10 3.216162 1_555
O17 Rb13 3.260916 1_555
O17 Rb4 3.279520 1_565
O18 Si3 1.660007 1_565
O18 Rb9 2.870175 1_555
O18 Rb14 2.892128 1_555
O18 Rb12 3.049441 1_655
O18 Rb0 3.141733 1_655
O19 Si1 1.671587 1_554
O19 Rb0 3.109798 1_555
O19 Rb3 3.216289 1_565
O19 Rb11 3.325390 1_555
O20 Si5 1.649730 1_555
O20 Rb15 3.023349 1_555
O20 Rb3 3.062009 1_555
O20 Rb12 3.162153 1_545
O20 Rb6 3.176429 1_555
O21 Si1 1.664453 1_545
O21 Rb11 2.907331 1_556
O21 Rb8 2.917412 1_555
O21 Rb4 3.008525 1_555
O21 Rb2 3.036047 1_556
O22 Si2 1.665634 1_555
O22 Rb9 2.973755 1_455
O22 Rb12 2.999742 1_555
O22 Rb2 3.018877 1_555
O22 Rb0 3.238628 1_555
O23 Si2 1.656307 1_555
O23 Rb2 3.000437 1_555
O23 Rb3 3.134183 1_555
O23 Rb9 3.175916 1_555
O23 Rb11 3.181322 1_555
O24 Si0 1.671587 1_556
O24 Rb8 3.109798 1_555
O24 Rb13 3.216289 1_655
O24 Rb11 3.325390 1_556
O25 Si0 1.658093 1_555
O25 Rb1 2.913320 1_545
O25 Rb8 2.997278 1_554
O25 Rb2 3.139285 1_655
O25 Rb4 3.302416 1_654
O26 Si6 1.660007 1_545
O26 Rb13 2.870175 1_555
O26 Rb4 2.892128 1_555
O26 Rb8 3.049441 1_455
O26 Rb7 3.141733 1_455
O27 Si4 1.671587 1_555
O27 Rb12 3.109798 1_555
O27 Rb9 3.216289 1_455
O27 Rb6 3.325390 1_555
O28 Si7 1.656307 1_555
O28 Rb4 3.000437 1_555
O28 Rb13 3.134183 1_555
O28 Rb10 3.175916 1_555
O28 Rb11 3.181322 1_556
O29 Si6 1.660007 1_655
O29 Rb10 2.870175 1_555
O29 Rb5 2.892128 1_555
O29 Rb7 3.049441 1_565
O29 Rb8 3.141733 1_565
O30 Si5 1.658093 1_555
O30 Rb15 2.913320 1_655
O30 Rb7 2.997278 1_555
O30 Rb14 3.139285 1_545
O30 Rb5 3.302416 1_545
O31 Si1 1.658093 1_555
O31 Rb1 2.913320 1_456
O31 Rb0 2.997278 1_556
O31 Rb4 3.139285 1_565
O31 Rb2 3.302416 1_566
