# generated using pymatgen
data_EuTl(MoO4)2
_symmetry_space_group_name_H-M   'P 1'
_cell_length_a   6.36941600
_cell_length_b   6.36941600
_cell_length_c   9.63802400
_cell_angle_alpha   90.00000000
_cell_angle_beta   90.00000000
_cell_angle_gamma   90.00000000
_symmetry_Int_Tables_number   1
_chemical_formula_structural   EuTl(MoO4)2
_chemical_formula_sum   'Eu2 Tl2 Mo4 O16'
_cell_volume   391.00943089
_cell_formula_units_Z   2
loop_
 _symmetry_equiv_pos_site_id
 _symmetry_equiv_pos_as_xyz
  1  'x, y, z'
loop_
 _atom_site_type_symbol
 _atom_site_label
 _atom_site_symmetry_multiplicity
 _atom_site_fract_x
 _atom_site_fract_y
 _atom_site_fract_z
 _atom_site_occupancy
  Eu  Eu0  1  0.00000000  0.00000000  0.50000000  1
  Eu  Eu1  1  0.50000000  0.50000000  0.00000000  1
  Tl  Tl0  1  0.00000000  0.00000000  0.00000000  1
  Tl  Tl1  1  0.50000000  0.50000000  0.50000000  1
  Mo  Mo0  1  0.00000000  0.50000000  0.75000000  1
  Mo  Mo1  1  0.50000000  0.00000000  0.75000000  1
  Mo  Mo2  1  0.00000000  0.50000000  0.25000000  1
  Mo  Mo3  1  0.50000000  0.00000000  0.25000000  1
  O  O0  1  0.89084900  0.30113500  0.63857500  1
  O  O1  1  0.69886500  0.89084900  0.63857500  1
  O  O2  1  0.30113500  0.10915100  0.63857500  1
  O  O3  1  0.89084900  0.69886500  0.36142500  1
  O  O4  1  0.10915100  0.30113500  0.36142500  1
  O  O5  1  0.10915100  0.69886500  0.63857500  1
  O  O6  1  0.30113500  0.89084900  0.36142500  1
  O  O7  1  0.69886500  0.10915100  0.36142500  1
  O  O8  1  0.60915100  0.19886500  0.86142500  1
  O  O9  1  0.80113500  0.60915100  0.86142500  1
  O  O10  1  0.19886500  0.39084900  0.86142500  1
  O  O11  1  0.60915100  0.80113500  0.13857500  1
  O  O12  1  0.39084900  0.19886500  0.13857500  1
  O  O13  1  0.39084900  0.80113500  0.86142500  1
  O  O14  1  0.19886500  0.60915100  0.13857500  1
  O  O15  1  0.80113500  0.39084900  0.13857500  1
loop_
_geom_bond_atom_site_label_1
_geom_bond_atom_site_label_2
_geom_bond_distance
_geom_bond_site_symmetry_2
Eu0 O6 2.438457 1_545
Eu0 O2 2.438457 1_555
Eu0 O0 2.438457 1_455
Eu0 O4 2.438457 1_555
Eu0 O3 2.438457 1_445
Eu0 O5 2.438457 1_545
Eu0 O7 2.438457 1_455
Eu0 O1 2.438457 1_445
Eu1 O11 2.438457 1_555
Eu1 O9 2.438457 1_554
Eu1 O13 2.438457 1_554
Eu1 O15 2.438457 1_555
Eu1 O12 2.438457 1_555
Eu1 O14 2.438457 1_555
Eu1 O10 2.438457 1_554
Eu1 O8 2.438457 1_554
Mo0 O5 1.800292 1_555
Mo0 O0 1.800292 1_455
Mo0 O10 1.800292 1_555
Mo0 O9 1.800292 1_455
Mo1 O1 1.800292 1_545
Mo1 O2 1.800292 1_555
Mo1 O8 1.800292 1_555
Mo1 O13 1.800292 1_545
Mo2 O3 1.800292 1_455
Mo2 O4 1.800292 1_555
Mo2 O14 1.800292 1_555
Mo2 O15 1.800292 1_455
Mo3 O12 1.800292 1_555
Mo3 O6 1.800292 1_545
Mo3 O7 1.800292 1_555
Mo3 O11 1.800292 1_545
