# generated using pymatgen
data_CsVP2O7
_symmetry_space_group_name_H-M   'P 1'
_cell_length_a   10.20264800
_cell_length_b   7.84044200
_cell_length_c   8.48798905
_cell_angle_alpha   75.05474120
_cell_angle_beta   90.00000000
_cell_angle_gamma   90.00000000
_symmetry_Int_Tables_number   1
_chemical_formula_structural   CsVP2O7
_chemical_formula_sum   'Cs4 V4 P8 O28'
_cell_volume   656.01384729
_cell_formula_units_Z   4
loop_
 _symmetry_equiv_pos_site_id
 _symmetry_equiv_pos_as_xyz
  1  'x, y, z'
loop_
 _atom_site_type_symbol
 _atom_site_label
 _atom_site_symmetry_multiplicity
 _atom_site_fract_x
 _atom_site_fract_y
 _atom_site_fract_z
 _atom_site_occupancy
  Cs  Cs0  1  0.29702100  0.19796400  0.45969300  1
  Cs  Cs1  1  0.20297900  0.19796400  0.95969300  1
  Cs  Cs2  1  0.70297900  0.80203600  0.54030700  1
  Cs  Cs3  1  0.79702100  0.80203600  0.04030700  1
  V  V0  1  0.60177600  0.24082100  0.74107500  1
  V  V1  1  0.89822400  0.24082100  0.24107500  1
  V  V2  1  0.10177600  0.75917900  0.75892500  1
  V  V3  1  0.39822400  0.75917900  0.25892500  1
  P  P0  1  0.87295200  0.42532900  0.81731400  1
  P  P1  1  0.40447200  0.86809500  0.83262300  1
  P  P2  1  0.12704800  0.57467100  0.18268600  1
  P  P3  1  0.09552800  0.86809500  0.33262300  1
  P  P4  1  0.90447200  0.13190500  0.66737700  1
  P  P5  1  0.37295200  0.57467100  0.68268600  1
  P  P6  1  0.59552800  0.13190500  0.16737700  1
  P  P7  1  0.62704800  0.42532900  0.31731400  1
  O  O0  1  0.58403900  0.16021700  0.98428500  1
  O  O1  1  0.08403900  0.83978300  0.51571500  1
  O  O2  1  0.49536700  0.01125300  0.73458600  1
  O  O3  1  0.04926300  0.68385200  0.29494200  1
  O  O4  1  0.95073700  0.31614800  0.70505800  1
  O  O5  1  0.54926300  0.31614800  0.20505800  1
  O  O6  1  0.50463300  0.98874700  0.26541400  1
  O  O7  1  0.43310600  0.38988200  0.72899300  1
  O  O8  1  0.45073700  0.68385200  0.79494200  1
  O  O9  1  0.77164900  0.43678200  0.26638300  1
  O  O10  1  0.56689400  0.61011800  0.27100700  1
  O  O11  1  0.93310600  0.61011800  0.77100700  1
  O  O12  1  0.39903800  0.67682100  0.50670700  1
  O  O13  1  0.76267000  0.09411500  0.73015600  1
  O  O14  1  0.06689400  0.38988200  0.22899300  1
  O  O15  1  0.60096200  0.32317900  0.49329300  1
  O  O16  1  0.22835100  0.56321800  0.73361700  1
  O  O17  1  0.89903800  0.32317900  0.99329300  1
  O  O18  1  0.91596100  0.16021700  0.48428500  1
  O  O19  1  0.27164900  0.56321800  0.23361700  1
  O  O20  1  0.10096200  0.67682100  0.00670700  1
  O  O21  1  0.73733000  0.09411500  0.23015600  1
  O  O22  1  0.99536700  0.98874700  0.76541400  1
  O  O23  1  0.72835100  0.43678200  0.76638300  1
  O  O24  1  0.23733000  0.90588500  0.26984400  1
  O  O25  1  0.26267000  0.90588500  0.76984400  1
  O  O26  1  0.41596100  0.83978300  0.01571500  1
  O  O27  1  0.00463300  0.01125300  0.23458600  1
loop_
_geom_bond_atom_site_label_1
_geom_bond_atom_site_label_2
_geom_bond_distance
_geom_bond_site_symmetry_2
Cs0 O19 3.019260 1_555
Cs0 O25 3.031155 1_545
Cs0 O2 3.149701 1_555
Cs0 O14 3.176715 1_555
Cs0 O24 3.180446 1_545
Cs0 O15 3.287216 1_555
Cs0 O5 3.334681 1_555
Cs0 O7 3.345287 1_555
Cs0 O6 3.360364 1_545
Cs0 O1 3.485070 1_545
Cs1 O16 3.019260 1_555
Cs1 O24 3.031155 1_546
Cs1 O27 3.149701 1_556
Cs1 O7 3.176715 1_555
Cs1 O25 3.180446 1_545
Cs1 O17 3.287216 1_455
Cs1 O4 3.334681 1_455
Cs1 O14 3.345287 1_556
Cs1 O22 3.360364 1_445
Cs1 O26 3.485070 1_546
Cs2 O23 3.019260 1_555
Cs2 O21 3.031155 1_565
Cs2 O6 3.149701 1_555
Cs2 O11 3.176715 1_555
Cs2 O13 3.180446 1_565
Cs2 O12 3.287216 1_555
Cs2 O8 3.334681 1_555
Cs2 O10 3.345287 1_555
Cs2 O2 3.360364 1_565
Cs2 O18 3.485070 1_565
Cs3 O9 3.019260 1_555
Cs3 O13 3.031155 1_564
Cs3 O22 3.149701 1_554
Cs3 O10 3.176715 1_555
Cs3 O21 3.180446 1_565
Cs3 O20 3.287216 1_655
Cs3 O3 3.334681 1_655
Cs3 O11 3.345287 1_554
Cs3 O27 3.360364 1_665
Cs3 O0 3.485070 1_564
O0 P6 1.516659 1_556
O0 V0 2.005199 1_555
O1 P3 1.516659 1_555
O1 V2 2.005199 1_555
O2 P1 1.526612 1_545
O2 V0 2.114829 1_555
O3 P3 1.627920 1_555
O3 P2 1.640484 1_555
O4 P4 1.627920 1_555
O4 P0 1.640484 1_555
O5 P6 1.627920 1_555
O5 P7 1.640484 1_555
O6 P6 1.526612 1_565
O6 V3 2.114829 1_555
O7 P5 1.528571 1_555
O7 V0 2.067848 1_555
O8 P1 1.627920 1_555
O8 P5 1.640484 1_555
O9 P7 1.533452 1_555
O9 V1 2.060263 1_555
O10 P7 1.528571 1_555
O10 V3 2.067848 1_555
O11 P0 1.528571 1_555
O11 V2 2.067848 1_655
O12 P5 1.525251 1_555
O12 V3 2.034668 1_555
O13 P4 1.543827 1_555
O13 V0 2.020222 1_555
O14 P2 1.528571 1_555
O14 V1 2.067848 1_455
O15 P7 1.525251 1_555
O15 V0 2.034668 1_555
O16 P5 1.533452 1_555
O16 V2 2.060263 1_555
O17 P0 1.525251 1_555
O17 V1 2.034668 1_556
O18 P4 1.516659 1_555
O18 V1 2.005199 1_555
O19 P2 1.533452 1_555
O19 V3 2.060263 1_555
O20 P2 1.525251 1_555
O20 V2 2.034668 1_554
O21 P6 1.543827 1_555
O21 V1 2.020222 1_555
O22 P4 1.526612 1_565
O22 V2 2.114829 1_655
O23 P0 1.533452 1_555
O23 V0 2.060263 1_555
O24 P3 1.543827 1_555
O24 V3 2.020222 1_555
O25 P1 1.543827 1_555
O25 V2 2.020222 1_555
O26 P1 1.516659 1_554
O26 V3 2.005199 1_555
O27 P3 1.526612 1_545
O27 V1 2.114829 1_455
