# generated using pymatgen
data_KHgC2
_symmetry_space_group_name_H-M   'P 1'
_cell_length_a   17.91584894
_cell_length_b   17.48690827
_cell_length_c   5.17199230
_cell_angle_alpha   86.33461668
_cell_angle_beta   76.92162255
_cell_angle_gamma   16.74376077
_symmetry_Int_Tables_number   1
_chemical_formula_structural   KHgC2
_chemical_formula_sum   'K4 Hg4 C8'
_cell_volume   381.42388910
_cell_formula_units_Z   4
loop_
 _symmetry_equiv_pos_site_id
 _symmetry_equiv_pos_as_xyz
  1  'x, y, z'
loop_
 _atom_site_type_symbol
 _atom_site_label
 _atom_site_symmetry_multiplicity
 _atom_site_fract_x
 _atom_site_fract_y
 _atom_site_fract_z
 _atom_site_occupancy
  K  K0  1  0.43339001  0.43339001  0.56660999  1
  K  K1  1  0.81660999  0.81660999  0.68339001  1
  K  K2  1  0.68339001  0.68339001  0.81660999  1
  K  K3  1  0.56660999  0.56660999  0.43339001  1
  Hg  Hg0  1  0.84070957  0.15929043  0.84070957  1
  Hg  Hg1  1  0.09070957  0.40929043  0.09070957  1
  Hg  Hg2  1  0.40929043  0.09070957  0.40929043  1
  Hg  Hg3  1  0.15929043  0.84070957  0.15929043  1
  C  C0  1  0.25107946  0.49934837  0.12332843  1
  C  C1  1  0.12375626  0.12667157  0.75065163  1
  C  C2  1  0.99892054  0.75065163  0.12667157  1
  C  C3  1  0.75065163  0.99892054  0.12375626  1
  C  C4  1  0.49934837  0.25107946  0.12624374  1
  C  C5  1  0.12332843  0.12624374  0.25107946  1
  C  C6  1  0.12667157  0.12375626  0.99892054  1
  C  C7  1  0.12624374  0.12332843  0.49934837  1
loop_
_geom_bond_atom_site_label_1
_geom_bond_atom_site_label_2
_geom_bond_distance
_geom_bond_site_symmetry_2
Hg0 Hg3 2.917588 1_646
Hg0 Hg3 2.922726 1_645
Hg0 Hg3 2.922726 1_556
Hg0 K0 3.637917 1_645
Hg0 K3 3.637917 1_645
Hg0 K0 3.637917 1_556
Hg0 K3 3.637917 1_556
Hg0 K3 3.880770 1_555
Hg0 K0 3.880770 1_555
Hg1 Hg2 2.917588 1_555
Hg1 Hg2 2.922726 1_465
Hg1 Hg2 2.922726 1_554
Hg1 K2 3.637917 1_544
Hg1 K1 3.637917 1_455
Hg1 K2 3.637917 1_455
Hg1 K1 3.637917 1_544
Hg1 K1 3.880770 1_454
Hg1 K2 3.880770 1_454
Hg2 K1 3.637917 1_455
Hg2 K2 3.637917 1_544
Hg2 K2 3.637917 1_455
Hg2 K1 3.637917 1_544
Hg2 K2 3.880770 1_545
Hg2 K1 3.880770 1_545
Hg3 K3 3.637917 1_465
Hg3 K0 3.637917 1_465
Hg3 K0 3.637917 1_554
Hg3 K3 3.637917 1_554
Hg3 K3 3.880770 1_555
Hg3 K0 3.880770 1_555
C0 C4 1.292664 1_555
C0 C2 1.293536 1_455
C0 K1 2.983703 1_455
C0 K0 3.040156 1_554
C0 K1 3.426326 1_544
C1 C6 1.292664 1_555
C1 C7 1.293536 1_555
C1 K3 2.983703 1_545
C1 K2 3.040156 1_455
C1 K3 3.426326 1_456
C2 C3 1.292664 1_555
C2 K0 2.983703 1_654
C2 K1 3.040156 1_555
C2 K0 3.426326 1_565
C3 C4 1.293536 1_565
C3 K0 2.983703 1_565
C3 K1 3.040156 1_554
C3 K0 3.426326 1_654
C4 K1 2.983703 1_544
C4 K0 3.040156 1_555
C4 K1 3.426326 1_455
C5 C7 1.292664 1_555
C5 C6 1.293536 1_554
C5 K2 2.983703 1_544
C5 K3 3.040156 1_455
C5 K2 3.426326 1_455
C6 K3 2.983703 1_456
C6 K2 3.040156 1_545
C6 K3 3.426326 1_545
C7 K2 2.983703 1_455
C7 K3 3.040156 1_545
C7 K2 3.426326 1_544
