# generated using pymatgen
data_Ti3O5
_symmetry_space_group_name_H-M   'P 1'
_cell_length_a   5.04623696
_cell_length_b   5.68538181
_cell_length_c   7.20101982
_cell_angle_alpha   109.89590603
_cell_angle_beta   90.00072298
_cell_angle_gamma   116.34815824
_symmetry_Int_Tables_number   1
_chemical_formula_structural   Ti3O5
_chemical_formula_sum   'Ti6 O10'
_cell_volume   171.26315838
_cell_formula_units_Z   2
loop_
 _symmetry_equiv_pos_site_id
 _symmetry_equiv_pos_as_xyz
  1  'x, y, z'
loop_
 _atom_site_type_symbol
 _atom_site_label
 _atom_site_symmetry_multiplicity
 _atom_site_fract_x
 _atom_site_fract_y
 _atom_site_fract_z
 _atom_site_occupancy
  Ti  Ti0  1  0.86145068  0.74093583  0.77904294  1
  Ti  Ti1  1  0.87947124  0.74096975  0.27904692  1
  Ti  Ti2  1  0.11436370  0.25671356  0.71780241  1
  Ti  Ti3  1  0.14230710  0.25665305  0.21776056  1
  Ti  Ti4  1  0.50379718  0.00275764  0.50414414  1
  Ti  Ti5  1  0.49899294  0.00273642  0.00410045  1
  O  O0  1  0.15013805  0.62132560  0.84502861  1
  O  O1  1  0.30976045  -0.00119816  0.25085534  1
  O  O2  1  0.92287833  0.16053093  0.44062003  1
  O  O3  1  0.23763736  0.16048924  0.94056270  1
  O  O4  1  0.84842499  0.37762088  0.15482313  1
  O  O5  1  0.07852203  0.84136132  0.55776630  1
  O  O6  1  0.68909684  -0.00117896  0.75087488  1
  O  O7  1  0.52913781  0.37760807  0.65480117  1
  O  O8  1  0.76279371  0.84131976  0.05773985  1
  O  O9  1  0.47122657  0.62135405  0.34503059  1
loop_
_geom_bond_atom_site_label_1
_geom_bond_atom_site_label_2
_geom_bond_distance
_geom_bond_site_symmetry_2
O0 Ti2 1.882630 1_555
O0 Ti0 1.977299 1_455
O0 Ti5 2.008538 1_566
O1 Ti5 2.019361 1_555
O1 Ti4 2.058759 1_555
O1 Ti3 2.063326 1_555
O1 Ti1 2.069291 1_445
O2 Ti2 2.001189 1_655
O2 Ti4 2.020305 1_555
O2 Ti3 2.039608 1_655
O2 Ti1 2.176898 1_545
O3 Ti3 2.001368 1_556
O3 Ti5 2.020494 1_556
O3 Ti2 2.039299 1_555
O3 Ti0 2.176803 1_445
O4 Ti1 1.883390 1_555
O4 Ti5 1.979757 1_555
O4 Ti3 1.998789 1_655
O5 Ti1 2.018506 1_455
O5 Ti4 2.022322 1_565
O5 Ti0 2.031984 1_455
O5 Ti2 2.169289 1_565
O6 Ti4 2.019197 1_555
O6 Ti5 2.058453 1_556
O6 Ti2 2.063131 1_655
O6 Ti0 2.069201 1_545
O7 Ti0 1.883294 1_555
O7 Ti4 1.979809 1_555
O7 Ti2 1.998591 1_555
O8 Ti0 2.018388 1_554
O8 Ti5 2.022166 1_565
O8 Ti1 2.031953 1_555
O8 Ti3 2.169145 1_665
O9 Ti3 1.883038 1_555
O9 Ti1 1.977024 1_555
O9 Ti4 2.008604 1_565
