# generated using pymatgen
data_LiCrPO4
_symmetry_space_group_name_H-M   'P 1'
_cell_length_a   5.60158100
_cell_length_b   6.31073037
_cell_length_c   9.35155334
_cell_angle_alpha   75.90983904
_cell_angle_beta   83.06743185
_cell_angle_gamma   76.67395917
_symmetry_Int_Tables_number   1
_chemical_formula_structural   LiCrPO4
_chemical_formula_sum   'Li4 Cr4 P4 O16'
_cell_volume   311.26749779
_cell_formula_units_Z   4
loop_
 _symmetry_equiv_pos_site_id
 _symmetry_equiv_pos_as_xyz
  1  'x, y, z'
loop_
 _atom_site_type_symbol
 _atom_site_label
 _atom_site_symmetry_multiplicity
 _atom_site_fract_x
 _atom_site_fract_y
 _atom_site_fract_z
 _atom_site_occupancy
  Li  Li0  1  0.35386700  0.00568700  0.75742300  1
  Li  Li1  1  0.80807600  0.15375300  0.56959100  1
  Li  Li2  1  0.19192400  0.84624700  0.43040900  1
  Li  Li3  1  0.64613300  0.99431300  0.24257700  1
  Cr  Cr0  1  0.69013600  0.34994000  0.89489800  1
  Cr  Cr1  1  0.18602500  0.52993600  0.72573100  1
  Cr  Cr2  1  0.81397500  0.47006400  0.27426900  1
  Cr  Cr3  1  0.30986400  0.65006000  0.10510200  1
  P  P0  1  0.80848000  0.80570200  0.94668400  1
  P  P1  1  0.68376000  0.68254900  0.57032800  1
  P  P2  1  0.31624000  0.31745100  0.42967200  1
  P  P3  1  0.19152000  0.19429800  0.05331600  1
  O  O0  1  0.61612000  0.66749100  0.93117300  1
  O  O1  1  0.06954400  0.71502100  0.88184900  1
  O  O2  1  0.16528700  0.21525300  0.88633300  1
  O  O3  1  0.70285700  0.04450800  0.86219600  1
  O  O4  1  0.86680600  0.82538300  0.58367300  1
  O  O5  1  0.78034800  0.43923200  0.66105400  1
  O  O6  1  0.41434100  0.77135200  0.63013400  1
  O  O7  1  0.33458300  0.31162100  0.59535600  1
  O  O8  1  0.66541700  0.68837900  0.40464400  1
  O  O9  1  0.58565900  0.22864800  0.36986600  1
  O  O10  1  0.21965200  0.56076800  0.33894600  1
  O  O11  1  0.13319400  0.17461700  0.41632700  1
  O  O12  1  0.29714300  0.95549200  0.13780400  1
  O  O13  1  0.83471300  0.78474700  0.11366700  1
  O  O14  1  0.93045600  0.28497900  0.11815100  1
  O  O15  1  0.38388000  0.33250900  0.06882700  1
loop_
_geom_bond_atom_site_label_1
_geom_bond_atom_site_label_2
_geom_bond_distance
_geom_bond_site_symmetry_2
Li0 O2 2.035437 1_555
Li0 O6 2.060929 1_545
Li0 O7 2.134199 1_555
Li0 O3 2.375217 1_555
Li0 O0 2.606843 1_545
Li1 O4 1.995778 1_545
Li1 O5 2.142569 1_555
Li1 O11 2.185585 1_655
Li1 O9 2.263745 1_555
Li2 O11 1.995778 1_565
Li2 O10 2.142569 1_555
Li2 O4 2.185585 1_455
Li2 O6 2.263745 1_555
Li3 O13 2.035437 1_555
Li3 O9 2.060929 1_565
Li3 O8 2.134199 1_555
Li3 O12 2.375217 1_555
Li3 O15 2.606843 1_565
Cr0 O3 2.008054 1_555
Cr0 O0 2.053517 1_555
Cr0 O5 2.149307 1_555
Cr0 O15 2.219666 1_556
Cr0 O14 2.519191 1_556
Cr0 O2 2.598418 1_655
Cr1 O7 2.030152 1_555
Cr1 O1 2.042168 1_555
Cr1 O6 2.171407 1_555
Cr1 O2 2.196562 1_555
Cr1 O4 2.503815 1_455
Cr1 O5 2.637691 1_455
Cr2 O8 2.030152 1_555
Cr2 O14 2.042168 1_555
Cr2 O9 2.171407 1_555
Cr2 O13 2.196562 1_555
Cr2 O11 2.503815 1_655
Cr2 O10 2.637691 1_655
Cr3 O12 2.008054 1_555
Cr3 O15 2.053517 1_555
Cr3 O10 2.149307 1_555
Cr3 O0 2.219666 1_554
Cr3 O1 2.519191 1_554
Cr3 O13 2.598418 1_455
O0 P0 1.573347 1_555
O1 P0 1.550078 1_455
O2 P3 1.556731 1_556
O3 P0 1.538680 1_545
O4 P1 1.546327 1_555
O5 P1 1.569672 1_555
O6 P1 1.569530 1_555
O7 P2 1.556115 1_555
O8 P1 1.556115 1_555
O9 P2 1.569530 1_555
O10 P2 1.569672 1_555
O11 P2 1.546327 1_555
O12 P3 1.538680 1_565
O13 P0 1.556731 1_554
O14 P3 1.550078 1_655
O15 P3 1.573347 1_555
