# generated using pymatgen
data_Pm2O3
_symmetry_space_group_name_H-M   'P 1'
_cell_length_a   3.80505858
_cell_length_b   3.80505988
_cell_length_c   5.97084222
_cell_angle_alpha   90.00000000
_cell_angle_beta   90.00000000
_cell_angle_gamma   119.99998873
_symmetry_Int_Tables_number   1
_chemical_formula_structural   Pm2O3
_chemical_formula_sum   'Pm2 O3'
_cell_volume   74.86677378
_cell_formula_units_Z   1
loop_
 _symmetry_equiv_pos_site_id
 _symmetry_equiv_pos_as_xyz
  1  'x, y, z'
loop_
 _atom_site_type_symbol
 _atom_site_label
 _atom_site_symmetry_multiplicity
 _atom_site_fract_x
 _atom_site_fract_y
 _atom_site_fract_z
 _atom_site_occupancy
  Pm  Pm0  1  0.66666700  0.33333300  0.75186607  1
  Pm  Pm1  1  0.33333300  0.66666700  0.24813293  1
  O  O0  1  0.33333300  0.66666700  0.64544165  1
  O  O1  1  -0.00000000  0.00000000  0.00000000  1
  O  O2  1  0.66666700  0.33333300  0.35455835  1
loop_
_geom_bond_atom_site_label_1
_geom_bond_atom_site_label_2
_geom_bond_distance
_geom_bond_site_symmetry_2
O0 Pm0 2.286905 1_455
O0 Pm0 2.286906 1_565
O0 Pm0 2.286912 1_555
O0 Pm1 2.372268 1_555
O1 Pm1 2.649750 1_545
O1 Pm1 2.649753 1_445
O1 Pm0 2.649754 1_454
O1 Pm1 2.649754 1_555
O1 Pm0 2.649756 1_554
O1 Pm0 2.649757 1_444
O2 Pm1 2.286907 1_655
O2 Pm1 2.286908 1_545
O2 Pm1 2.286913 1_555
O2 Pm0 2.372262 1_555
