# generated using pymatgen
data_CuH12C4(NO)6
_symmetry_space_group_name_H-M   'P 1'
_cell_length_a   9.14677700
_cell_length_b   9.14677700
_cell_length_c   12.77044300
_cell_angle_alpha   90.00000000
_cell_angle_beta   90.00000000
_cell_angle_gamma   90.00000000
_symmetry_Int_Tables_number   1
_chemical_formula_structural   CuH12C4(NO)6
_chemical_formula_sum   'Cu4 H48 C16 N24 O24'
_cell_volume   1068.42033450
_cell_formula_units_Z   4
loop_
 _symmetry_equiv_pos_site_id
 _symmetry_equiv_pos_as_xyz
  1  'x, y, z'
loop_
 _atom_site_type_symbol
 _atom_site_label
 _atom_site_symmetry_multiplicity
 _atom_site_fract_x
 _atom_site_fract_y
 _atom_site_fract_z
 _atom_site_occupancy
  Cu  Cu0  1  0.00000000  0.50000000  0.25000000  1
  Cu  Cu1  1  0.50000000  0.50000000  0.50000000  1
  Cu  Cu2  1  0.00000000  0.00000000  0.00000000  1
  Cu  Cu3  1  0.50000000  0.00000000  0.75000000  1
  H  H0  1  0.68667400  0.82315000  0.04143200  1
  H  H1  1  0.81332600  0.32315000  0.54143200  1
  H  H2  1  0.47174400  0.37385400  0.25188600  1
  H  H3  1  0.37385400  0.52825600  0.74811400  1
  H  H4  1  0.48442400  0.14048000  0.98145600  1
  H  H5  1  0.35952000  0.01557600  0.51854400  1
  H  H6  1  0.80798800  0.80473100  0.68268500  1
  H  H7  1  0.68852100  0.64748100  0.17832000  1
  H  H8  1  0.82242600  0.70012800  0.92016000  1
  H  H9  1  0.18667400  0.67685000  0.54143200  1
  H  H10  1  0.32315000  0.18667400  0.45856800  1
  H  H11  1  0.98442400  0.35952000  0.48145600  1
  H  H12  1  0.81147900  0.14748100  0.67832000  1
  H  H13  1  0.31147900  0.35251900  0.17832000  1
  H  H14  1  0.02825600  0.87385400  0.75188600  1
  H  H15  1  0.17685000  0.68667400  0.95856800  1
  H  H16  1  0.67685000  0.81332600  0.45856800  1
  H  H17  1  0.18852100  0.85251900  0.67832000  1
  H  H18  1  0.87385400  0.97174400  0.24811400  1
  H  H19  1  0.30798800  0.69526900  0.18268500  1
  H  H20  1  0.12614600  0.02825600  0.24811400  1
  H  H21  1  0.32242600  0.79987200  0.42016000  1
  H  H22  1  0.19526900  0.80798800  0.31731500  1
  H  H23  1  0.70012800  0.17757400  0.07984000  1
  H  H24  1  0.14748100  0.18852100  0.32168000  1
  H  H25  1  0.97174400  0.12614600  0.75188600  1
  H  H26  1  0.69201200  0.30473100  0.18268500  1
  H  H27  1  0.67757400  0.20012800  0.42016000  1
  H  H28  1  0.52825600  0.62614600  0.25188600  1
  H  H29  1  0.14048000  0.51557600  0.01854400  1
  H  H30  1  0.85251900  0.81147900  0.32168000  1
  H  H31  1  0.31332600  0.17685000  0.04143200  1
  H  H32  1  0.30473100  0.30798800  0.81731500  1
  H  H33  1  0.82315000  0.31332600  0.95856800  1
  H  H34  1  0.51557600  0.85952000  0.98145600  1
  H  H35  1  0.79987200  0.67757400  0.57984000  1
  H  H36  1  0.35251900  0.68852100  0.82168000  1
  H  H37  1  0.01557600  0.64048000  0.48145600  1
  H  H38  1  0.64748100  0.31147900  0.82168000  1
  H  H39  1  0.69526900  0.69201200  0.81731500  1
  H  H40  1  0.29987200  0.82242600  0.07984000  1
  H  H41  1  0.85952000  0.48442400  0.01854400  1
  H  H42  1  0.64048000  0.98442400  0.51854400  1
  H  H43  1  0.20012800  0.32242600  0.57984000  1
  H  H44  1  0.17757400  0.29987200  0.92016000  1
  H  H45  1  0.80473100  0.19201200  0.31731500  1
  H  H46  1  0.19201200  0.19526900  0.68268500  1
  H  H47  1  0.62614600  0.47174400  0.74811400  1
  C  C0  1  0.75270700  0.49403900  0.87836100  1
  C  C1  1  0.95739700  0.74370400  0.11971300  1
  C  C2  1  0.45739700  0.75629600  0.61971300  1
  C  C3  1  0.24370400  0.45739700  0.38028700  1
  C  C4  1  0.49403900  0.24729300  0.12163900  1
  C  C5  1  0.74370400  0.04260300  0.88028700  1
  C  C6  1  0.74729300  0.99403900  0.37836100  1
  C  C7  1  0.25629600  0.95739700  0.88028700  1
  C  C8  1  0.24729300  0.50596100  0.87836100  1
  C  C9  1  0.99403900  0.25270700  0.62163900  1
  C  C10  1  0.54260300  0.24370400  0.61971300  1
  C  C11  1  0.50596100  0.75270700  0.12163900  1
  C  C12  1  0.04260300  0.25629600  0.11971300  1
  C  C13  1  0.75629600  0.54260300  0.38028700  1
  C  C14  1  0.00596100  0.74729300  0.62163900  1
  C  C15  1  0.25270700  0.00596100  0.37836100  1
  N  N0  1  0.13926400  0.25915500  0.62959300  1
  N  N1  1  0.57481600  0.82406200  0.04471000  1
  N  N2  1  0.42518400  0.17593800  0.04471000  1
  N  N3  1  0.58246700  0.67663400  0.19263400  1
  N  N4  1  0.67663400  0.41753300  0.80736600  1
  N  N5  1  0.07481600  0.67593800  0.54471000  1
  N  N6  1  0.75915500  0.63926400  0.87040700  1
  N  N7  1  0.24084500  0.36073600  0.87040700  1
  N  N8  1  0.91753300  0.17663400  0.69263400  1
  N  N9  1  0.25915500  0.86073600  0.37040700  1
  N  N10  1  0.36073600  0.75915500  0.12959300  1
  N  N11  1  0.74084500  0.13926400  0.37040700  1
  N  N12  1  0.41753300  0.32336600  0.19263400  1
  N  N13  1  0.17663400  0.08246700  0.30736600  1
  N  N14  1  0.86073600  0.74084500  0.62959300  1
  N  N15  1  0.08246700  0.82336600  0.69263400  1
  N  N16  1  0.67593800  0.92518400  0.45529000  1
  N  N17  1  0.17593800  0.57481600  0.95529000  1
  N  N18  1  0.63926400  0.24084500  0.12959300  1
  N  N19  1  0.32336600  0.58246700  0.80736600  1
  N  N20  1  0.92518400  0.32406200  0.54471000  1
  N  N21  1  0.32406200  0.07481600  0.45529000  1
  N  N22  1  0.82406200  0.42518400  0.95529000  1
  N  N23  1  0.82336600  0.91753300  0.30736600  1
  O  O0  1  0.18797000  0.90181900  0.96205600  1
  O  O1  1  0.88655500  0.60027300  0.36174100  1
  O  O2  1  0.68797000  0.59818100  0.46205600  1
  O  O3  1  0.11344500  0.39972700  0.36174100  1
  O  O4  1  0.29825800  0.55662000  0.32355600  1
  O  O5  1  0.59818100  0.31203000  0.53794400  1
  O  O6  1  0.20174200  0.05662000  0.82355600  1
  O  O7  1  0.70174200  0.44338000  0.32355600  1
  O  O8  1  0.09818100  0.18797000  0.03794400  1
  O  O9  1  0.81203000  0.09818100  0.96205600  1
  O  O10  1  0.79825800  0.94338000  0.82355600  1
  O  O11  1  0.94338000  0.20174200  0.17644400  1
  O  O12  1  0.55662000  0.70174200  0.67644400  1
  O  O13  1  0.38655500  0.89972700  0.86174100  1
  O  O14  1  0.44338000  0.29825800  0.67644400  1
  O  O15  1  0.60027300  0.11344500  0.63825900  1
  O  O16  1  0.05662000  0.79825800  0.17644400  1
  O  O17  1  0.61344500  0.10027300  0.86174100  1
  O  O18  1  0.39972700  0.88655500  0.63825900  1
  O  O19  1  0.10027300  0.38655500  0.13825900  1
  O  O20  1  0.40181900  0.68797000  0.53794400  1
  O  O21  1  0.89972700  0.61344500  0.13825900  1
  O  O22  1  0.31203000  0.40181900  0.46205600  1
  O  O23  1  0.90181900  0.81203000  0.03794400  1
loop_
_geom_bond_atom_site_label_1
_geom_bond_atom_site_label_2
_geom_bond_distance
_geom_bond_site_symmetry_2
Cu0 O1 1.988521 1_455
Cu0 O3 1.988521 1_555
Cu0 O21 1.988521 1_455
Cu0 O19 1.988521 1_555
Cu1 O2 1.999334 1_555
Cu1 O5 1.999334 1_555
Cu1 O20 1.999334 1_555
Cu1 O22 1.999334 1_555
Cu2 O23 1.999334 1_445
Cu2 O9 1.999334 1_454
Cu2 O8 1.999334 1_555
Cu2 O0 1.999334 1_544
Cu3 O15 1.988521 1_555
Cu3 O18 1.988521 1_545
Cu3 O17 1.988521 1_555
Cu3 O13 1.988521 1_545
H0 N1 1.024030 1_555
H1 N20 1.024030 1_555
H2 N12 1.015722 1_555
H3 N19 1.015722 1_555
H4 N2 1.025332 1_556
H5 N21 1.025332 1_555
H6 N14 1.016830 1_555
H7 N3 1.022507 1_555
H8 N6 1.023983 1_555
H9 N5 1.024030 1_555
H10 N21 1.024030 1_555
H11 N20 1.025332 1_555
H12 N8 1.022507 1_555
H13 N12 1.022507 1_555
H14 N15 1.015722 1_555
H15 N17 1.024030 1_555
H16 N16 1.024030 1_555
H17 N15 1.022507 1_555
H18 N23 1.015722 1_555
H19 N10 1.016830 1_555
H20 N13 1.015722 1_555
H21 N9 1.023983 1_555
H22 N9 1.016830 1_555
H23 N18 1.023983 1_555
H24 N13 1.022507 1_555
H25 N8 1.015722 1_555
H26 N18 1.016830 1_555
H27 N11 1.023983 1_555
H28 N3 1.015722 1_555
H29 N17 1.025332 1_554
H30 N23 1.022507 1_555
H31 N2 1.024030 1_555
H32 N7 1.016830 1_555
H33 N22 1.024030 1_555
H34 N1 1.025332 1_556
H35 N14 1.023983 1_555
H36 N19 1.022507 1_555
H37 N5 1.025332 1_555
H38 N4 1.022507 1_555
H39 N6 1.016830 1_555
H40 N10 1.023983 1_555
H41 N22 1.025332 1_554
H42 N16 1.025332 1_555
H43 N0 1.023983 1_555
H44 N7 1.023983 1_555
H45 N11 1.016830 1_555
H46 N0 1.016830 1_555
H47 N4 1.015722 1_555
C0 N6 1.333524 1_555
C0 N22 1.337075 1_555
C0 N4 1.340096 1_555
C1 O16 1.263942 1_655
C1 O23 1.318869 1_555
C1 O21 1.324348 1_555
C2 O12 1.263942 1_555
C2 O20 1.318869 1_555
C2 O18 1.324348 1_555
C3 O4 1.263942 1_555
C3 O22 1.318869 1_555
C3 O3 1.324348 1_555
C4 N18 1.333524 1_555
C4 N2 1.337075 1_555
C4 N12 1.340096 1_555
C5 O10 1.263942 1_545
C5 O9 1.318869 1_555
C5 O17 1.324348 1_555
C6 N11 1.333524 1_565
C6 N16 1.337075 1_555
C6 N23 1.340096 1_555
C7 O6 1.263942 1_565
C7 O0 1.318869 1_555
C7 O13 1.324348 1_555
C8 N7 1.333524 1_555
C8 N17 1.337075 1_555
C8 N19 1.340096 1_555
C9 N0 1.333524 1_655
C9 N20 1.337075 1_555
C9 N8 1.340096 1_555
C10 O14 1.263942 1_555
C10 O5 1.318869 1_555
C10 O15 1.324348 1_555
C11 N10 1.333524 1_555
C11 N1 1.337075 1_555
C11 N3 1.340096 1_555
C12 O11 1.263942 1_455
C12 O8 1.318869 1_555
C12 O19 1.324348 1_555
C13 O7 1.263942 1_555
C13 O2 1.318869 1_555
C13 O1 1.324348 1_555
C14 N14 1.333524 1_455
C14 N5 1.337075 1_555
C14 N15 1.340096 1_555
C15 N9 1.333524 1_545
C15 N21 1.337075 1_555
C15 N13 1.340096 1_555
