# generated using pymatgen
data_EuCo8P5
_symmetry_space_group_name_H-M   'P 1'
_cell_length_a   3.54004132
_cell_length_b   9.16918935
_cell_length_c   10.41566028
_cell_angle_alpha   90.00000000
_cell_angle_beta   90.00000000
_cell_angle_gamma   90.00000000
_symmetry_Int_Tables_number   1
_chemical_formula_structural   EuCo8P5
_chemical_formula_sum   'Eu2 Co16 P10'
_cell_volume   338.08513724
_cell_formula_units_Z   2
loop_
 _symmetry_equiv_pos_site_id
 _symmetry_equiv_pos_as_xyz
  1  'x, y, z'
loop_
 _atom_site_type_symbol
 _atom_site_label
 _atom_site_symmetry_multiplicity
 _atom_site_fract_x
 _atom_site_fract_y
 _atom_site_fract_z
 _atom_site_occupancy
  Eu  Eu0  1  0.50000000  0.17505504  0.50000000  1
  Eu  Eu1  1  -0.00000000  0.82494496  0.00000000  1
  Co  Co0  1  -0.00000000  0.51823776  0.16963666  1
  Co  Co1  1  0.00000000  0.45810728  0.50000000  1
  Co  Co2  1  0.50000000  0.88926797  0.25719562  1
  Co  Co3  1  0.50000000  0.48176224  0.33036334  1
  Co  Co4  1  0.50000000  0.84419414  0.50000000  1
  Co  Co5  1  0.50000000  0.30226588  0.14722193  1
  Co  Co6  1  0.50000000  0.54189272  0.00000000  1
  Co  Co7  1  0.00000000  0.69773412  0.64722193  1
  Co  Co8  1  -0.00000000  0.15580586  0.00000000  1
  Co  Co9  1  0.00000000  0.69773412  0.35277807  1
  Co  Co10  1  0.50000000  0.48176224  0.66963666  1
  Co  Co11  1  0.50000000  0.30226588  0.85277807  1
  Co  Co12  1  0.00000000  0.11073203  0.24280438  1
  Co  Co13  1  0.50000000  0.88926797  0.74280438  1
  Co  Co14  1  -0.00000000  0.51823776  0.83036334  1
  Co  Co15  1  0.00000000  0.11073203  0.75719562  1
  P  P0  1  -0.00000000  0.33758750  0.68740834  1
  P  P1  1  0.00000000  0.93607220  0.38137366  1
  P  P2  1  -0.00000000  0.38933769  0.00000000  1
  P  P3  1  0.50000000  0.66241250  0.18740834  1
  P  P4  1  0.50000000  0.06392780  0.11862634  1
  P  P5  1  0.50000000  0.66241250  0.81259166  1
  P  P6  1  -0.00000000  0.93607220  0.61862634  1
  P  P7  1  0.00000000  0.33758750  0.31259166  1
  P  P8  1  0.50000000  0.61066231  0.50000000  1
  P  P9  1  0.50000000  0.06392780  0.88137366  1
loop_
_geom_bond_atom_site_label_1
_geom_bond_atom_site_label_2
_geom_bond_distance
_geom_bond_site_symmetry_2
Eu0 P7 3.027238 1_655
Eu0 P7 3.027238 1_555
Eu0 P0 3.027238 1_655
Eu0 P0 3.027238 1_555
Eu0 P6 3.075925 1_645
Eu0 P1 3.075925 1_645
Eu0 P6 3.075925 1_545
Eu0 P1 3.075925 1_545
Eu1 P5 3.027238 1_554
Eu1 P5 3.027238 1_454
Eu1 P3 3.027238 1_555
Eu1 P3 3.027238 1_455
Eu1 P4 3.075925 1_465
Eu1 P4 3.075925 1_565
Eu1 P9 3.075925 1_464
Eu1 P9 3.075925 1_564
Co0 P2 2.125739 1_555
Co0 P3 2.216941 1_455
Co0 P3 2.216941 1_555
Co0 P7 2.227274 1_555
Co1 P7 2.243080 1_555
Co1 P0 2.243080 1_555
Co1 P8 2.256021 1_555
Co1 P8 2.256021 1_455
Co1 Eu0 3.141475 1_455
Co1 Eu0 3.141475 1_555
Co2 P4 2.155888 1_565
Co2 P3 2.203427 1_555
Co2 P1 2.233836 1_655
Co2 P1 2.233836 1_555
Co2 Eu1 3.264526 1_555
Co2 Eu1 3.264526 1_655
Co3 P8 2.125739 1_555
Co3 P7 2.216941 1_655
Co3 P7 2.216941 1_555
Co3 P3 2.227274 1_555
Co4 P8 2.141298 1_555
Co4 P1 2.317181 1_555
Co4 P1 2.317181 1_655
Co4 P6 2.317181 1_555
Co4 P6 2.317181 1_655
Co4 Eu0 3.033726 1_565
Co5 P4 2.205570 1_555
Co5 P2 2.474215 1_655
Co5 P2 2.474215 1_555
Co5 P7 2.490913 1_655
Co5 P7 2.490913 1_555
Co6 P5 2.243080 1_554
Co6 P3 2.243080 1_555
Co6 P2 2.256021 1_555
Co6 P2 2.256021 1_655
Co6 Eu1 3.141475 1_555
Co6 Eu1 3.141475 1_655
Co7 P6 2.205570 1_555
Co7 P8 2.474215 1_455
Co7 P8 2.474215 1_555
Co7 P5 2.490913 1_555
Co7 P5 2.490913 1_455
Co8 P2 2.141298 1_555
Co8 P9 2.317181 1_454
Co8 P4 2.317181 1_555
Co8 P4 2.317181 1_455
Co8 P9 2.317181 1_554
Co8 Eu1 3.033726 1_545
Co9 P1 2.205570 1_555
Co9 P8 2.474215 1_555
Co9 P8 2.474215 1_455
Co9 P3 2.490913 1_455
Co9 P3 2.490913 1_555
Co10 P8 2.125739 1_555
Co10 P0 2.216941 1_555
Co10 P0 2.216941 1_655
Co10 P5 2.227274 1_555
Co11 P9 2.205570 1_555
Co11 P2 2.474215 1_656
Co11 P2 2.474215 1_556
Co11 P0 2.490913 1_655
Co11 P0 2.490913 1_555
Co12 P1 2.155888 1_545
Co12 P7 2.203427 1_555
Co12 P4 2.233836 1_555
Co12 P4 2.233836 1_455
Co12 Eu0 3.264526 1_455
Co12 Eu0 3.264526 1_555
Co13 P9 2.155888 1_565
Co13 P5 2.203427 1_555
Co13 P6 2.233836 1_655
Co13 P6 2.233836 1_555
Co13 Eu1 3.264526 1_556
Co13 Eu1 3.264526 1_656
Co14 P2 2.125739 1_556
Co14 P5 2.216941 1_455
Co14 P5 2.216941 1_555
Co14 P0 2.227274 1_555
Co15 P6 2.155888 1_545
Co15 P0 2.203427 1_555
Co15 P9 2.233836 1_455
Co15 P9 2.233836 1_555
Co15 Eu0 3.264526 1_455
Co15 Eu0 3.264526 1_555
P1 P6 2.471143 1_555
P4 P9 2.471143 1_554
