# generated using pymatgen
data_CaAl2Si2(H2O5)2
_symmetry_space_group_name_H-M   'P 1'
_cell_length_a   5.93373900
_cell_length_b   8.85402200
_cell_length_c   13.22238000
_cell_angle_alpha   90.00000000
_cell_angle_beta   90.00000000
_cell_angle_gamma   90.00000000
_symmetry_Int_Tables_number   1
_chemical_formula_structural   CaAl2Si2(H2O5)2
_chemical_formula_sum   'Ca4 Al8 Si8 H16 O40'
_cell_volume   694.67020281
_cell_formula_units_Z   4
loop_
 _symmetry_equiv_pos_site_id
 _symmetry_equiv_pos_as_xyz
  1  'x, y, z'
loop_
 _atom_site_type_symbol
 _atom_site_label
 _atom_site_symmetry_multiplicity
 _atom_site_fract_x
 _atom_site_fract_y
 _atom_site_fract_z
 _atom_site_occupancy
  Ca  Ca0  1  0.75000000  0.08244900  0.25150500  1
  Ca  Ca1  1  0.25000000  0.91755100  0.74849500  1
  Ca  Ca2  1  0.25000000  0.58244900  0.24849500  1
  Ca  Ca3  1  0.75000000  0.41755100  0.75150500  1
  Al  Al0  1  0.00000000  0.00000000  0.00000000  1
  Al  Al1  1  0.50000000  0.00000000  0.00000000  1
  Al  Al2  1  0.00000000  0.50000000  0.50000000  1
  Al  Al3  1  0.50000000  0.50000000  0.50000000  1
  Al  Al4  1  0.00000000  0.00000000  0.50000000  1
  Al  Al5  1  0.50000000  0.00000000  0.50000000  1
  Al  Al6  1  0.00000000  0.50000000  0.00000000  1
  Al  Al7  1  0.50000000  0.50000000  0.00000000  1
  Si  Si0  1  0.75000000  0.73011200  0.13102900  1
  Si  Si1  1  0.25000000  0.26988800  0.86897100  1
  Si  Si2  1  0.25000000  0.23011200  0.36897100  1
  Si  Si3  1  0.75000000  0.76988800  0.63102900  1
  Si  Si4  1  0.75000000  0.72730000  0.36503400  1
  Si  Si5  1  0.25000000  0.27270000  0.63496600  1
  Si  Si6  1  0.25000000  0.22730000  0.13496600  1
  Si  Si7  1  0.75000000  0.77270000  0.86503400  1
  H  H0  1  0.75000000  0.38409800  0.17283500  1
  H  H1  1  0.25000000  0.61590200  0.82716500  1
  H  H2  1  0.25000000  0.88409800  0.32716500  1
  H  H3  1  0.75000000  0.11590200  0.67283500  1
  H  H4  1  0.75000000  0.44681400  0.28776700  1
  H  H5  1  0.25000000  0.55318600  0.71223300  1
  H  H6  1  0.25000000  0.94681400  0.21223300  1
  H  H7  1  0.75000000  0.05318600  0.78776700  1
  H  H8  1  0.75000000  0.28170100  0.03132900  1
  H  H9  1  0.25000000  0.71829900  0.96867100  1
  H  H10  1  0.25000000  0.78170100  0.46867100  1
  H  H11  1  0.75000000  0.21829900  0.53132900  1
  H  H12  1  0.75000000  0.31290300  0.40388700  1
  H  H13  1  0.25000000  0.68709700  0.59611300  1
  H  H14  1  0.25000000  0.81290300  0.09611300  1
  H  H15  1  0.75000000  0.18709700  0.90388700  1
  O  O0  1  0.75000000  0.79950000  0.24826300  1
  O  O1  1  0.25000000  0.20050000  0.75173700  1
  O  O2  1  0.25000000  0.29950000  0.25173700  1
  O  O3  1  0.75000000  0.70050000  0.74826300  1
  O  O4  1  0.02743100  0.12000900  0.12136800  1
  O  O5  1  0.52743100  0.87999100  0.87863200  1
  O  O6  1  0.97256900  0.62000900  0.37863200  1
  O  O7  1  0.47256900  0.37999100  0.62136800  1
  O  O8  1  0.97256900  0.87999100  0.87863200  1
  O  O9  1  0.47256900  0.12000900  0.12136800  1
  O  O10  1  0.02743100  0.37999100  0.62136800  1
  O  O11  1  0.52743100  0.62000900  0.37863200  1
  O  O12  1  0.02136900  0.12988700  0.38489100  1
  O  O13  1  0.52136900  0.87011300  0.61510900  1
  O  O14  1  0.97863100  0.62988700  0.11510900  1
  O  O15  1  0.47863100  0.37011300  0.88489100  1
  O  O16  1  0.97863100  0.87011300  0.61510900  1
  O  O17  1  0.47863100  0.12988700  0.38489100  1
  O  O18  1  0.02136900  0.37011300  0.88489100  1
  O  O19  1  0.52136900  0.62988700  0.11510900  1
  O  O20  1  0.75000000  0.88720400  0.06224600  1
  O  O21  1  0.25000000  0.11279600  0.93775400  1
  O  O22  1  0.25000000  0.38720400  0.43775400  1
  O  O23  1  0.75000000  0.61279600  0.56224600  1
  O  O24  1  0.75000000  0.88472900  0.43368000  1
  O  O25  1  0.25000000  0.11527100  0.56632000  1
  O  O26  1  0.25000000  0.38472900  0.06632000  1
  O  O27  1  0.75000000  0.61527100  0.93368000  1
  O  O28  1  0.75000000  0.39018400  0.05176300  1
  O  O29  1  0.25000000  0.60981600  0.94823700  1
  O  O30  1  0.25000000  0.89018400  0.44823700  1
  O  O31  1  0.75000000  0.10981600  0.55176300  1
  O  O32  1  0.75000000  0.37953800  0.46242500  1
  O  O33  1  0.25000000  0.62046200  0.53757500  1
  O  O34  1  0.25000000  0.87953800  0.03757500  1
  O  O35  1  0.75000000  0.12046200  0.96242500  1
  O  O36  1  0.75000000  0.35506400  0.24688300  1
  O  O37  1  0.25000000  0.64493600  0.75311700  1
  O  O38  1  0.25000000  0.85506400  0.25311700  1
  O  O39  1  0.75000000  0.14493600  0.74688300  1
loop_
_geom_bond_atom_site_label_1
_geom_bond_atom_site_label_2
_geom_bond_distance
_geom_bond_site_symmetry_2
Ca0 O4 2.404467 1_655
Ca0 O9 2.404467 1_555
Ca0 O36 2.414513 1_555
Ca0 O12 2.424837 1_655
Ca0 O17 2.424837 1_555
Ca0 O0 2.505603 1_545
Ca1 O5 2.404467 1_555
Ca1 O8 2.404467 1_455
Ca1 O37 2.414513 1_555
Ca1 O16 2.424837 1_455
Ca1 O13 2.424837 1_555
Ca1 O1 2.505603 1_565
Ca2 O11 2.404467 1_555
Ca2 O6 2.404467 1_455
Ca2 O38 2.414513 1_555
Ca2 O14 2.424837 1_455
Ca2 O19 2.424837 1_555
Ca2 O2 2.505603 1_555
Ca3 O7 2.404467 1_555
Ca3 O10 2.404467 1_655
Ca3 O39 2.414513 1_555
Ca3 O18 2.424837 1_655
Ca3 O15 2.424837 1_555
Ca3 O3 2.505603 1_555
Al0 O34 1.893409 1_545
Al0 O35 1.893409 1_454
Al0 O4 1.931536 1_555
Al0 O8 1.931536 1_444
Al0 O20 1.968596 1_445
Al0 O21 1.968596 1_554
Al1 O34 1.893409 1_545
Al1 O35 1.893409 1_554
Al1 O9 1.931536 1_555
Al1 O5 1.931536 1_544
Al1 O20 1.968596 1_545
Al1 O21 1.968596 1_554
Al2 O33 1.893409 1_555
Al2 O32 1.893409 1_455
Al2 O6 1.931536 1_455
Al2 O10 1.931536 1_555
Al2 O22 1.968596 1_555
Al2 O23 1.968596 1_455
Al3 O33 1.893409 1_555
Al3 O32 1.893409 1_555
Al3 O11 1.931536 1_555
Al3 O7 1.931536 1_555
Al3 O22 1.968596 1_555
Al3 O23 1.968596 1_555
Al4 O30 1.901162 1_545
Al4 O31 1.901162 1_455
Al4 O16 1.911847 1_445
Al4 O12 1.911847 1_555
Al4 O24 2.002797 1_445
Al4 O25 2.002797 1_555
Al5 O30 1.901162 1_545
Al5 O31 1.901162 1_555
Al5 O13 1.911847 1_545
Al5 O17 1.911847 1_555
Al5 O25 2.002797 1_555
Al5 O24 2.002797 1_545
Al6 O28 1.901162 1_455
Al6 O29 1.901162 1_554
Al6 O14 1.911847 1_455
Al6 O18 1.911847 1_554
Al6 O26 2.002797 1_555
Al6 O27 2.002797 1_454
Al7 O28 1.901162 1_555
Al7 O29 1.901162 1_554
Al7 O19 1.911847 1_555
Al7 O15 1.911847 1_554
Al7 O26 2.002797 1_555
Al7 O27 2.002797 1_554
H0 O36 1.012276 1_555
H0 O28 1.601767 1_555
H1 O37 1.012276 1_555
H1 O29 1.601767 1_555
H2 O38 1.012276 1_555
H2 O30 1.601767 1_555
H3 O39 1.012276 1_555
H3 O31 1.601767 1_555
H4 O36 0.975784 1_555
H5 O37 0.975784 1_555
H6 O38 0.975784 1_555
H7 O39 0.975784 1_555
H8 O28 0.997788 1_555
H9 O29 0.997788 1_555
H10 O30 0.997788 1_555
H11 O31 0.997788 1_555
H12 O32 0.973232 1_555
H13 O33 0.973232 1_555
H14 O34 0.973232 1_555
H15 O35 0.973232 1_555
O0 Si0 1.667420 1_555
O0 Si4 1.671096 1_555
O1 Si1 1.667420 1_555
O1 Si5 1.671096 1_555
O2 Si2 1.667420 1_555
O2 Si6 1.671096 1_555
O3 Si3 1.667420 1_555
O3 Si7 1.671096 1_555
O4 Si6 1.636736 1_555
O5 Si7 1.636736 1_555
O6 Si4 1.636736 1_555
O7 Si5 1.636736 1_555
O8 Si7 1.636736 1_555
O9 Si6 1.636736 1_555
O10 Si5 1.636736 1_555
O11 Si4 1.636736 1_555
O12 Si2 1.634699 1_555
O13 Si3 1.634699 1_555
O14 Si0 1.634699 1_555
O15 Si1 1.634699 1_555
O16 Si3 1.634699 1_555
O17 Si2 1.634699 1_555
O18 Si1 1.634699 1_555
O19 Si0 1.634699 1_555
O20 Si0 1.661847 1_555
O21 Si1 1.661847 1_555
O22 Si2 1.661847 1_555
O23 Si3 1.661847 1_555
O24 Si4 1.663356 1_555
O25 Si5 1.663356 1_555
O26 Si6 1.663356 1_555
O27 Si7 1.663356 1_555
