# generated using pymatgen
data_K2Co3H6S3O16
_symmetry_space_group_name_H-M   'P 1'
_cell_length_a   9.77423171
_cell_length_b   9.77423171
_cell_length_c   9.91399300
_cell_angle_alpha   90.00000000
_cell_angle_beta   90.00000000
_cell_angle_gamma   133.60482791
_symmetry_Int_Tables_number   1
_chemical_formula_structural   K2Co3H6S3O16
_chemical_formula_sum   'K4 Co6 H12 S6 O32'
_cell_volume   685.83660792
_cell_formula_units_Z   2
loop_
 _symmetry_equiv_pos_site_id
 _symmetry_equiv_pos_as_xyz
  1  'x, y, z'
loop_
 _atom_site_type_symbol
 _atom_site_label
 _atom_site_symmetry_multiplicity
 _atom_site_fract_x
 _atom_site_fract_y
 _atom_site_fract_z
 _atom_site_occupancy
  K  K0  1  0.84935200  0.23489200  0.23029200  1
  K  K1  1  0.15064800  0.76510800  0.73029200  1
  K  K2  1  0.76510800  0.15064800  0.73029200  1
  K  K3  1  0.23489200  0.84935200  0.23029200  1
  Co  Co0  1  0.19807900  0.19807900  0.97084300  1
  Co  Co1  1  0.80192100  0.80192100  0.47084300  1
  Co  Co2  1  0.61883100  0.44793300  0.18574600  1
  Co  Co3  1  0.38116900  0.55206700  0.68574600  1
  Co  Co4  1  0.55206700  0.38116900  0.68574600  1
  Co  Co5  1  0.44793300  0.61883100  0.18574600  1
  H  H0  1  0.90067100  0.57076700  0.02104400  1
  H  H1  1  0.09932900  0.42923300  0.52104400  1
  H  H2  1  0.42923300  0.09932900  0.52104400  1
  H  H3  1  0.57076700  0.90067100  0.02104400  1
  H  H4  1  0.90504100  0.73606400  0.02453900  1
  H  H5  1  0.09495900  0.26393600  0.52453900  1
  H  H6  1  0.26393600  0.09495900  0.52453900  1
  H  H7  1  0.73606400  0.90504100  0.02453900  1
  H  H8  1  0.20316000  0.20316000  0.72313300  1
  H  H9  1  0.79684000  0.79684000  0.22313300  1
  H  H10  1  0.52434000  0.52434000  0.97133300  1
  H  H11  1  0.47566000  0.47566000  0.47133300  1
  S  S0  1  0.48097500  0.13126700  0.95636400  1
  S  S1  1  0.51902500  0.86873300  0.45636400  1
  S  S2  1  0.86873300  0.51902500  0.45636400  1
  S  S3  1  0.13126700  0.48097500  0.95636400  1
  S  S4  1  0.81662400  0.81662400  0.79029500  1
  S  S5  1  0.18337600  0.18337600  0.29029500  1
  O  O0  1  0.88430000  0.64019600  0.08106900  1
  O  O1  1  0.11570000  0.35980400  0.58106900  1
  O  O2  1  0.35980400  0.11570000  0.58106900  1
  O  O3  1  0.64019600  0.88430000  0.08106900  1
  O  O4  1  0.31331500  0.31331500  0.77273600  1
  O  O5  1  0.68668500  0.68668500  0.27273600  1
  O  O6  1  0.45092000  0.45092000  0.05151400  1
  O  O7  1  0.54908000  0.54908000  0.55151400  1
  O  O8  1  0.28224000  0.04867200  0.96345800  1
  O  O9  1  0.71776000  0.95132800  0.46345800  1
  O  O10  1  0.95132800  0.71776000  0.46345800  1
  O  O11  1  0.04867200  0.28224000  0.96345800  1
  O  O12  1  0.57932100  0.22756600  0.08704400  1
  O  O13  1  0.42067900  0.77243400  0.58704400  1
  O  O14  1  0.77243400  0.42067900  0.58704400  1
  O  O15  1  0.22756600  0.57932100  0.08704400  1
  O  O16  1  0.47193200  0.97516400  0.93503000  1
  O  O17  1  0.52806800  0.02483600  0.43503000  1
  O  O18  1  0.02483600  0.52806800  0.43503000  1
  O  O19  1  0.97516400  0.47193200  0.93503000  1
  O  O20  1  0.58495000  0.26596000  0.84207800  1
  O  O21  1  0.41505000  0.73404000  0.34207800  1
  O  O22  1  0.73404000  0.41505000  0.34207800  1
  O  O23  1  0.26596000  0.58495000  0.84207800  1
  O  O24  1  0.91992500  0.91992500  0.91889600  1
  O  O25  1  0.08007500  0.08007500  0.41889600  1
  O  O26  1  0.93606200  0.93606200  0.67166600  1
  O  O27  1  0.06393800  0.06393800  0.17166600  1
  O  O28  1  0.63834300  0.77438300  0.79020900  1
  O  O29  1  0.36165700  0.22561700  0.29020900  1
  O  O30  1  0.22561700  0.36165700  0.29020900  1
  O  O31  1  0.77438300  0.63834300  0.79020900  1
loop_
_geom_bond_atom_site_label_1
_geom_bond_atom_site_label_2
_geom_bond_distance
_geom_bond_site_symmetry_2
K0 O22 2.887374 1_555
K0 O3 2.906474 1_545
K0 O18 2.914407 1_655
K0 O12 2.954223 1_555
K0 O30 3.021273 1_655
K0 O17 3.050157 1_555
K0 O9 3.124495 1_545
K0 O11 3.124757 1_654
K0 O15 3.138453 1_655
K1 O23 2.887374 1_555
K1 O2 2.906474 1_565
K1 O19 2.914407 1_455
K1 O13 2.954223 1_555
K1 O31 3.021273 1_455
K1 O16 3.050157 1_555
K1 O8 3.124495 1_565
K1 O10 3.124757 1_455
K1 O14 3.138453 1_455
K2 O20 2.887374 1_555
K2 O1 2.906474 1_655
K2 O16 2.914407 1_545
K2 O14 2.954223 1_555
K2 O28 3.021273 1_545
K2 O19 3.050157 1_555
K2 O11 3.124495 1_655
K2 O9 3.124757 1_545
K2 O13 3.138453 1_545
K3 O21 2.887374 1_555
K3 O0 2.906474 1_455
K3 O17 2.914407 1_565
K3 O15 2.954223 1_555
K3 O29 3.021273 1_565
K3 O18 3.050157 1_555
K3 O10 3.124495 1_455
K3 O8 3.124757 1_564
K3 O12 3.138453 1_565
Co0 O6 2.104794 1_556
Co0 O8 2.114626 1_555
Co0 O11 2.114626 1_555
Co0 O4 2.155178 1_555
Co0 O24 2.202888 1_445
Co0 O27 2.242949 1_556
Co1 O7 2.104794 1_555
Co1 O9 2.114626 1_555
Co1 O10 2.114626 1_555
Co1 O5 2.155178 1_555
Co1 O25 2.202888 1_665
Co1 O26 2.242949 1_555
Co2 O22 2.067051 1_555
Co2 O5 2.120037 1_555
Co2 O6 2.128720 1_555
Co2 O29 2.139781 1_555
Co2 O12 2.144451 1_555
Co2 O0 2.148316 1_555
Co3 O23 2.067051 1_555
Co3 O4 2.120037 1_555
Co3 O7 2.128720 1_555
Co3 O28 2.139781 1_555
Co3 O13 2.144451 1_555
Co3 O1 2.148316 1_555
Co4 O20 2.067051 1_555
Co4 O4 2.120037 1_555
Co4 O7 2.128720 1_555
Co4 O31 2.139781 1_555
Co4 O14 2.144451 1_555
Co4 O2 2.148316 1_555
Co5 O21 2.067051 1_555
Co5 O5 2.120037 1_555
Co5 O6 2.128720 1_555
Co5 O30 2.139781 1_555
Co5 O15 2.144451 1_555
Co5 O3 2.148316 1_555
H0 O0 0.995004 1_555
H1 O1 0.995004 1_555
H2 O2 0.995004 1_555
H3 O3 0.995004 1_555
H4 O0 0.985494 1_555
H5 O1 0.985494 1_555
H6 O2 0.985494 1_555
H7 O3 0.985494 1_555
H8 O4 0.980460 1_555
H9 O5 0.980460 1_555
H10 O6 0.975452 1_556
H11 O7 0.975452 1_555
O8 S0 1.505605 1_555
O9 S1 1.505605 1_555
O10 S2 1.505605 1_555
O11 S3 1.505605 1_555
O12 S0 1.496803 1_554
O13 S1 1.496803 1_555
O14 S2 1.496803 1_555
O15 S3 1.496803 1_554
O16 S0 1.481401 1_565
O17 S1 1.481401 1_545
O18 S2 1.481401 1_455
O19 S3 1.481401 1_655
O20 S0 1.484684 1_555
O21 S1 1.484684 1_555
O22 S2 1.484684 1_555
O23 S3 1.484684 1_555
O24 S4 1.502737 1_555
O25 S5 1.502737 1_555
O26 S4 1.492991 1_555
O27 S5 1.492991 1_555
O28 S4 1.488150 1_555
O29 S5 1.488150 1_555
O30 S5 1.488150 1_555
O31 S4 1.488150 1_555
