# generated using pymatgen
data_RbSb2Au3S5
_symmetry_space_group_name_H-M   'P 1'
_cell_length_a   7.15820400
_cell_length_b   12.79682700
_cell_length_c   26.64498200
_cell_angle_alpha   90.00000000
_cell_angle_beta   90.00000000
_cell_angle_gamma   90.00000000
_symmetry_Int_Tables_number   1
_chemical_formula_structural   RbSb2Au3S5
_chemical_formula_sum   'Rb8 Sb16 Au24 S40'
_cell_volume   2440.74158720
_cell_formula_units_Z   8
loop_
 _symmetry_equiv_pos_site_id
 _symmetry_equiv_pos_as_xyz
  1  'x, y, z'
loop_
 _atom_site_type_symbol
 _atom_site_label
 _atom_site_symmetry_multiplicity
 _atom_site_fract_x
 _atom_site_fract_y
 _atom_site_fract_z
 _atom_site_occupancy
  Rb  Rb0  1  0.00000000  0.32221000  0.98346800  1
  Rb  Rb1  1  0.00000000  0.67779000  0.01653200  1
  Rb  Rb2  1  0.50000000  0.83858300  0.93071900  1
  Rb  Rb3  1  0.50000000  0.82221000  0.51653200  1
  Rb  Rb4  1  0.00000000  0.33858300  0.56928100  1
  Rb  Rb5  1  0.00000000  0.66141700  0.43071900  1
  Rb  Rb6  1  0.50000000  0.16141700  0.06928100  1
  Rb  Rb7  1  0.50000000  0.17779000  0.48346800  1
  Sb  Sb0  1  0.00000000  0.96716400  0.62537700  1
  Sb  Sb1  1  0.50000000  0.93295200  0.34587800  1
  Sb  Sb2  1  0.00000000  0.95240700  0.11634400  1
  Sb  Sb3  1  0.00000000  0.43295200  0.15412200  1
  Sb  Sb4  1  0.00000000  0.03283600  0.37462300  1
  Sb  Sb5  1  0.00000000  0.04759300  0.88365600  1
  Sb  Sb6  1  0.00000000  0.56704800  0.84587800  1
  Sb  Sb7  1  0.50000000  0.18204200  0.89554400  1
  Sb  Sb8  1  0.50000000  0.81795800  0.10445600  1
  Sb  Sb9  1  0.50000000  0.06704800  0.65412200  1
  Sb  Sb10  1  0.50000000  0.45240700  0.38365600  1
  Sb  Sb11  1  0.50000000  0.54759300  0.61634400  1
  Sb  Sb12  1  0.50000000  0.53283600  0.12537700  1
  Sb  Sb13  1  0.00000000  0.68204200  0.60445600  1
  Sb  Sb14  1  0.00000000  0.31795800  0.39554400  1
  Sb  Sb15  1  0.50000000  0.46716400  0.87462300  1
  Au  Au0  1  0.00000000  0.19362900  0.18088400  1
  Au  Au1  1  0.75086100  0.01418500  0.76661800  1
  Au  Au2  1  0.25346200  0.18569800  0.30619700  1
  Au  Au3  1  0.24653800  0.68569800  0.19380300  1
  Au  Au4  1  0.24913900  0.01418500  0.76661800  1
  Au  Au5  1  0.75086100  0.98581500  0.23338200  1
  Au  Au6  1  0.50000000  0.69362900  0.31911600  1
  Au  Au7  1  0.24913900  0.98581500  0.23338200  1
  Au  Au8  1  0.74653800  0.18569800  0.30619700  1
  Au  Au9  1  0.50000000  0.23137000  0.21276900  1
  Au  Au10  1  0.25346200  0.81430200  0.69380300  1
  Au  Au11  1  0.50000000  0.76863000  0.78723100  1
  Au  Au12  1  0.25086100  0.51418500  0.73338200  1
  Au  Au13  1  0.25086100  0.48581500  0.26661800  1
  Au  Au14  1  0.00000000  0.26863000  0.71276900  1
  Au  Au15  1  0.50000000  0.30637100  0.68088400  1
  Au  Au16  1  0.00000000  0.73137000  0.28723100  1
  Au  Au17  1  0.24653800  0.31430200  0.80619700  1
  Au  Au18  1  0.74653800  0.81430200  0.69380300  1
  Au  Au19  1  0.00000000  0.80637100  0.81911600  1
  Au  Au20  1  0.74913900  0.48581500  0.26661800  1
  Au  Au21  1  0.75346200  0.68569800  0.19380300  1
  Au  Au22  1  0.74913900  0.51418500  0.73338200  1
  Au  Au23  1  0.75346200  0.31430200  0.80619700  1
  S  S0  1  0.25047400  0.08556500  0.58918400  1
  S  S1  1  0.00000000  0.91357800  0.27877500  1
  S  S2  1  0.00000000  0.13936500  0.09721300  1
  S  S3  1  0.24985300  0.59379000  0.55347700  1
  S  S4  1  0.74985300  0.90621000  0.05347700  1
  S  S5  1  0.00000000  0.08642200  0.72122500  1
  S  S6  1  0.50000000  0.75873600  0.23716500  1
  S  S7  1  0.50000000  0.58642200  0.77877500  1
  S  S8  1  0.75047400  0.41443500  0.08918400  1
  S  S9  1  0.24952600  0.58556500  0.91081600  1
  S  S10  1  0.50000000  0.66198300  0.04958500  1
  S  S11  1  0.50000000  0.36063500  0.59721300  1
  S  S12  1  0.00000000  0.25873600  0.26283500  1
  S  S13  1  0.00000000  0.74126400  0.73716500  1
  S  S14  1  0.00000000  0.86063500  0.90278700  1
  S  S15  1  0.74952600  0.91443500  0.41081600  1
  S  S16  1  0.24952600  0.41443500  0.08918400  1
  S  S17  1  0.24985300  0.40621000  0.44652300  1
  S  S18  1  0.50000000  0.13496000  0.35820500  1
  S  S19  1  0.74952600  0.08556500  0.58918400  1
  S  S20  1  0.25014700  0.90621000  0.05347700  1
  S  S21  1  0.50000000  0.94471100  0.81238700  1
  S  S22  1  0.75014700  0.40621000  0.44652300  1
  S  S23  1  0.00000000  0.16198300  0.45041500  1
  S  S24  1  0.75047400  0.58556500  0.91081600  1
  S  S25  1  0.50000000  0.86504000  0.64179500  1
  S  S26  1  0.00000000  0.63496000  0.14179500  1
  S  S27  1  0.75014700  0.59379000  0.55347700  1
  S  S28  1  0.25014700  0.09379000  0.94652300  1
  S  S29  1  0.50000000  0.05528900  0.18761300  1
  S  S30  1  0.74985300  0.09379000  0.94652300  1
  S  S31  1  0.50000000  0.24126400  0.76283500  1
  S  S32  1  0.50000000  0.41357800  0.22122500  1
  S  S33  1  0.00000000  0.83801700  0.54958500  1
  S  S34  1  0.25047400  0.91443500  0.41081600  1
  S  S35  1  0.00000000  0.44471100  0.68761300  1
  S  S36  1  0.50000000  0.63936500  0.40278700  1
  S  S37  1  0.00000000  0.36504000  0.85820500  1
  S  S38  1  0.50000000  0.33801700  0.95041500  1
  S  S39  1  0.00000000  0.55528900  0.31238700  1
loop_
_geom_bond_atom_site_label_1
_geom_bond_atom_site_label_2
_geom_bond_distance
_geom_bond_site_symmetry_2
Rb0 S37 3.382333 1_555
Rb0 S8 3.538018 1_456
Rb0 S16 3.538018 1_556
Rb0 S28 3.566445 1_555
Rb0 S30 3.566445 1_455
Rb0 S38 3.691411 1_455
Rb0 S38 3.691411 1_555
Rb0 S2 3.828861 1_556
Rb1 S26 3.382333 1_555
Rb1 S24 3.538018 1_454
Rb1 S9 3.538018 1_554
Rb1 S20 3.566445 1_555
Rb1 S4 3.566445 1_455
Rb1 S10 3.691411 1_455
Rb1 S10 3.691411 1_555
Rb1 S14 3.828861 1_554
Rb2 S21 3.433010 1_555
Rb2 S14 3.666539 1_555
Rb2 S14 3.666539 1_655
Rb2 S9 3.738905 1_555
Rb2 S24 3.738905 1_555
Rb2 S28 3.747234 1_565
Rb2 S30 3.747234 1_565
Rb2 S4 3.827055 1_556
Rb2 S20 3.827055 1_556
Rb2 S10 3.890794 1_556
Rb3 S25 3.382333 1_555
Rb3 S34 3.538018 1_555
Rb3 S15 3.538018 1_555
Rb3 S27 3.566445 1_555
Rb3 S3 3.566445 1_555
Rb3 S33 3.691411 1_555
Rb3 S33 3.691411 1_655
Rb3 S36 3.828861 1_555
Rb4 S35 3.433010 1_555
Rb4 S11 3.666539 1_555
Rb4 S11 3.666539 1_455
Rb4 S0 3.738905 1_555
Rb4 S19 3.738905 1_455
Rb4 S3 3.747234 1_555
Rb4 S27 3.747234 1_455
Rb4 S22 3.827055 1_455
Rb4 S17 3.827055 1_555
Rb4 S23 3.890794 1_555
Rb5 S39 3.433010 1_555
Rb5 S36 3.666539 1_455
Rb5 S36 3.666539 1_555
Rb5 S15 3.738905 1_455
Rb5 S34 3.738905 1_555
Rb5 S17 3.747234 1_555
Rb5 S22 3.747234 1_455
Rb5 S3 3.827055 1_555
Rb5 S27 3.827055 1_455
Rb5 S33 3.890794 1_555
Rb6 S29 3.433010 1_555
Rb6 S2 3.666539 1_555
Rb6 S2 3.666539 1_655
Rb6 S16 3.738905 1_555
Rb6 S8 3.738905 1_555
Rb6 S4 3.747234 1_545
Rb6 S20 3.747234 1_545
Rb6 S28 3.827055 1_554
Rb6 S30 3.827055 1_554
Rb6 S38 3.890794 1_554
Rb7 S18 3.382333 1_555
Rb7 S0 3.538018 1_555
Rb7 S19 3.538018 1_555
Rb7 S22 3.566445 1_555
Rb7 S17 3.566445 1_555
Rb7 S23 3.691411 1_655
Rb7 S23 3.691411 1_555
Rb7 S11 3.828861 1_555
Au0 S2 2.335055 1_555
Au0 S12 2.337134 1_555
Au0 Sb3 3.144493 1_555
Au1 S5 2.344755 1_655
Au1 S21 2.345679 1_545
Au1 Au18 3.210583 1_545
Au2 S18 2.335871 1_555
Au2 S12 2.345269 1_555
Au2 Au9 3.106936 1_555
Au2 Au7 3.210583 1_545
Au2 Sb4 3.231472 1_555
Au2 Sb14 3.438587 1_555
Au3 S26 2.335871 1_555
Au3 S6 2.345269 1_555
Au3 Sb12 3.231472 1_555
Au3 Sb8 3.438587 1_555
Au4 S5 2.344755 1_555
Au4 S21 2.345679 1_545
Au5 S1 2.344755 1_655
Au5 S29 2.345679 1_565
Au5 Au8 3.210583 1_565
Au6 S36 2.335055 1_555
Au6 S6 2.337134 1_555
Au6 Sb1 3.144493 1_555
Au7 S1 2.344755 1_555
Au7 S29 2.345679 1_565
Au8 S18 2.335871 1_555
Au8 S12 2.345269 1_655
Au8 Au9 3.106936 1_555
Au8 Sb4 3.231472 1_655
Au8 Sb14 3.438587 1_655
Au9 S32 2.342545 1_555
Au9 S29 2.350859 1_555
Au9 Rb6 3.926636 1_555
Au10 S25 2.335871 1_555
Au10 S13 2.345269 1_555
Au10 Au11 3.106936 1_555
Au10 Au4 3.210583 1_565
Au10 Sb0 3.231472 1_555
Au10 Sb13 3.438587 1_555
Au11 S7 2.342545 1_555
Au11 S21 2.350859 1_555
Au11 Au18 3.106936 1_555
Au11 Rb2 3.926636 1_555
Au12 S7 2.344755 1_555
Au12 S35 2.345679 1_555
Au12 Au17 3.210583 1_555
Au13 S32 2.344755 1_555
Au13 S39 2.345679 1_555
Au13 Au3 3.210583 1_555
Au14 S5 2.342545 1_555
Au14 S35 2.350859 1_555
Au14 Au23 3.106936 1_455
Au14 Au17 3.106936 1_555
Au14 Rb4 3.926636 1_555
Au15 S11 2.335055 1_555
Au15 S31 2.337134 1_555
Au15 Sb9 3.144493 1_555
Au16 S1 2.342545 1_555
Au16 S39 2.350859 1_555
Au16 Au3 3.106936 1_555
Au16 Au21 3.106936 1_455
Au16 Rb5 3.926636 1_555
Au17 S37 2.335871 1_555
Au17 S31 2.345269 1_555
Au17 Sb15 3.231472 1_555
Au17 Sb7 3.438587 1_555
Au18 S25 2.335871 1_555
Au18 S13 2.345269 1_655
Au18 Sb0 3.231472 1_655
Au18 Sb13 3.438587 1_655
Au19 S14 2.335055 1_555
Au19 S13 2.337134 1_555
Au19 Sb6 3.144493 1_555
Au20 S32 2.344755 1_555
Au20 S39 2.345679 1_655
Au20 Au21 3.210583 1_555
Au21 S26 2.335871 1_655
Au21 S6 2.345269 1_555
Au21 Sb12 3.231472 1_555
Au21 Sb8 3.438587 1_555
Au22 S7 2.344755 1_555
Au22 S35 2.345679 1_655
Au22 Au23 3.210583 1_555
Au23 S37 2.335871 1_655
Au23 S31 2.345269 1_555
Au23 Sb15 3.231472 1_555
Au23 Sb7 3.438587 1_555
S0 Sb9 2.498069 1_555
S0 Sb0 2.537783 1_545
S1 Sb4 2.975113 1_565
S2 Sb2 2.446170 1_545
S3 Sb13 2.513806 1_555
S3 Sb11 2.522236 1_555
S4 Sb8 2.513806 1_555
S4 Sb2 2.522236 1_655
S5 Sb0 2.975113 1_545
S7 Sb15 2.975113 1_555
S8 Sb3 2.498069 1_655
S8 Sb12 2.537783 1_555
S9 Sb6 2.498069 1_555
S9 Sb15 2.537783 1_555
S10 Sb8 2.474168 1_555
S10 Sb12 2.609523 1_555
S11 Sb11 2.446170 1_555
S14 Sb5 2.446170 1_565
S15 Sb1 2.498069 1_555
S15 Sb4 2.537783 1_665
S16 Sb3 2.498069 1_555
S16 Sb12 2.537783 1_555
S17 Sb14 2.513806 1_555
S17 Sb10 2.522236 1_555
S18 Sb1 2.605844 1_545
S19 Sb9 2.498069 1_555
S19 Sb0 2.537783 1_645
S20 Sb8 2.513806 1_555
S20 Sb2 2.522236 1_555
S22 Sb14 2.513806 1_655
S22 Sb10 2.522236 1_555
S23 Sb14 2.474168 1_555
S23 Sb4 2.609523 1_555
S24 Sb6 2.498069 1_655
S24 Sb15 2.537783 1_555
S25 Sb9 2.605844 1_565
S26 Sb3 2.605844 1_555
S27 Sb13 2.513806 1_655
S27 Sb11 2.522236 1_555
S28 Sb7 2.513806 1_555
S28 Sb5 2.522236 1_555
S30 Sb7 2.513806 1_555
S30 Sb5 2.522236 1_655
S32 Sb12 2.975113 1_555
S33 Sb13 2.474168 1_555
S33 Sb0 2.609523 1_555
S34 Sb1 2.498069 1_555
S34 Sb4 2.537783 1_565
S36 Sb10 2.446170 1_555
S37 Sb6 2.605844 1_555
S38 Sb7 2.474168 1_555
S38 Sb15 2.609523 1_555
