# generated using pymatgen
data_Cr4Si2Cl2O7
_symmetry_space_group_name_H-M   'P 1'
_cell_length_a   12.95704300
_cell_length_b   6.51010400
_cell_length_c   10.64618788
_cell_angle_alpha   87.97829577
_cell_angle_beta   90.00000000
_cell_angle_gamma   90.00000000
_symmetry_Int_Tables_number   1
_chemical_formula_structural   Cr4Si2Cl2O7
_chemical_formula_sum   'Cr16 Si8 Cl8 O28'
_cell_volume   897.46503061
_cell_formula_units_Z   4
loop_
 _symmetry_equiv_pos_site_id
 _symmetry_equiv_pos_as_xyz
  1  'x, y, z'
loop_
 _atom_site_type_symbol
 _atom_site_label
 _atom_site_symmetry_multiplicity
 _atom_site_fract_x
 _atom_site_fract_y
 _atom_site_fract_z
 _atom_site_occupancy
  Cr  Cr0  1  0.23285600  0.54778700  0.92116100  1
  Cr  Cr1  1  0.11365600  0.14840000  0.59499800  1
  Cr  Cr2  1  0.96789000  0.81435300  0.40862200  1
  Cr  Cr3  1  0.12809200  0.18027600  0.10296000  1
  Cr  Cr4  1  0.62723300  0.21772700  0.61334300  1
  Cr  Cr5  1  0.54213700  0.55837300  0.81334900  1
  Cr  Cr6  1  0.87190800  0.18027600  0.60296000  1
  Cr  Cr7  1  0.36208900  0.21471900  0.61580900  1
  Cr  Cr8  1  0.27594100  0.81957700  0.42157700  1
  Cr  Cr9  1  0.63791100  0.21471900  0.11580900  1
  Cr  Cr10  1  0.03211000  0.81435300  0.90862200  1
  Cr  Cr11  1  0.76714400  0.54778700  0.42116100  1
  Cr  Cr12  1  0.72405900  0.81957700  0.92157700  1
  Cr  Cr13  1  0.45786300  0.55837300  0.31334900  1
  Cr  Cr14  1  0.88634400  0.14840000  0.09499800  1
  Cr  Cr15  1  0.37276700  0.21772700  0.11334300  1
  Si  Si0  1  0.73935700  0.05687500  0.35525200  1
  Si  Si1  1  0.26064300  0.05687500  0.85525200  1
  Si  Si2  1  0.50446900  0.06462500  0.87282300  1
  Si  Si3  1  0.00141200  0.32121800  0.35701900  1
  Si  Si4  1  0.23913600  0.32401400  0.36401700  1
  Si  Si5  1  0.76086400  0.32401400  0.86401700  1
  Si  Si6  1  0.49553100  0.06462500  0.37282300  1
  Si  Si7  1  0.99858800  0.32121800  0.85701900  1
  Cl  Cl0  1  0.11663200  0.81467600  0.23356800  1
  Cl  Cl1  1  0.87564300  0.75452200  0.06023900  1
  Cl  Cl2  1  0.12435700  0.75452200  0.56023900  1
  Cl  Cl3  1  0.62715200  0.57280400  0.21117600  1
  Cl  Cl4  1  0.61666400  0.62563800  0.54793700  1
  Cl  Cl5  1  0.38333600  0.62563800  0.04793700  1
  Cl  Cl6  1  0.88336800  0.81467600  0.73356800  1
  Cl  Cl7  1  0.37284800  0.57280400  0.71117600  1
  O  O0  1  0.00092900  0.24954300  0.71239300  1
  O  O1  1  0.50628900  0.15516600  0.01486500  1
  O  O2  1  0.19285400  0.85268200  0.89100500  1
  O  O3  1  0.73741500  0.13001500  0.96766900  1
  O  O4  1  0.07535200  0.50986800  0.89064500  1
  O  O5  1  0.77191400  0.17287900  0.22218400  1
  O  O6  1  0.11936200  0.38602400  0.39652400  1
  O  O7  1  0.57484100  0.86000000  0.85544500  1
  O  O8  1  0.53923600  0.24917600  0.77134700  1
  O  O9  1  0.25220300  0.22424800  0.97063200  1
  O  O10  1  0.01906500  0.12331200  0.96108300  1
  O  O11  1  0.49371100  0.15516600  0.51486500  1
  O  O12  1  0.46076400  0.24917600  0.27134700  1
  O  O13  1  0.24431400  0.25159300  0.22014800  1
  O  O14  1  0.31357700  0.51783500  0.39361900  1
  O  O15  1  0.74779700  0.22424800  0.47063200  1
  O  O16  1  0.22808600  0.17287900  0.72218400  1
  O  O17  1  0.26258500  0.13001500  0.46766900  1
  O  O18  1  0.68642300  0.51783500  0.89361900  1
  O  O19  1  0.92464800  0.50986800  0.39064500  1
  O  O20  1  0.99907100  0.24954300  0.21239300  1
  O  O21  1  0.98093500  0.12331200  0.46108300  1
  O  O22  1  0.42515900  0.86000000  0.35544500  1
  O  O23  1  0.80714600  0.85268200  0.39100500  1
  O  O24  1  0.75568600  0.25159300  0.72014800  1
  O  O25  1  0.61597200  0.00933700  0.33466800  1
  O  O26  1  0.38402800  0.00933700  0.83466800  1
  O  O27  1  0.88063800  0.38602400  0.89652400  1
loop_
_geom_bond_atom_site_label_1
_geom_bond_atom_site_label_2
_geom_bond_distance
_geom_bond_site_symmetry_2
Cr0 O2 2.065568 1_555
Cr0 O4 2.082535 1_555
Cr0 O9 2.167566 1_555
Cr1 O16 2.018015 1_555
Cr1 O0 2.046221 1_555
Cr1 O21 2.243424 1_455
Cr1 O17 2.363684 1_555
Cr1 O6 2.575393 1_555
Cr2 O19 2.075223 1_555
Cr2 O23 2.105245 1_555
Cr2 O21 2.113129 1_565
Cr3 O13 2.020064 1_555
Cr3 O20 2.095810 1_455
Cr3 O10 2.110481 1_554
Cr3 O9 2.150395 1_554
Cr4 O24 2.032079 1_555
Cr4 O8 2.048371 1_555
Cr4 O11 2.070809 1_555
Cr4 O15 2.178516 1_555
Cr5 O18 2.068605 1_555
Cr5 O7 2.073238 1_555
Cr5 O8 2.077657 1_555
Cr6 O24 2.020064 1_555
Cr6 O0 2.095810 1_655
Cr6 O21 2.110481 1_555
Cr6 O15 2.150395 1_555
Cr7 O11 2.059883 1_555
Cr7 O16 2.085578 1_555
Cr7 O17 2.124853 1_555
Cr7 O26 2.660392 1_555
Cr8 O14 2.055823 1_555
Cr8 O22 2.071231 1_555
Cr8 O17 2.103588 1_565
Cr9 O1 2.059883 1_555
Cr9 O5 2.085578 1_555
Cr9 O3 2.124853 1_554
Cr9 O25 2.660392 1_555
Cr10 O4 2.075223 1_555
Cr10 O2 2.105245 1_555
Cr10 O10 2.113129 1_565
Cr11 O23 2.065568 1_555
Cr11 O19 2.082535 1_555
Cr11 O15 2.167566 1_555
Cr12 O18 2.055823 1_555
Cr12 O7 2.071231 1_555
Cr12 O3 2.103588 1_565
Cr13 O14 2.068605 1_555
Cr13 O22 2.073238 1_555
Cr13 O12 2.077657 1_555
Cr14 O5 2.018015 1_555
Cr14 O20 2.046221 1_555
Cr14 O10 2.243424 1_654
Cr14 O3 2.363684 1_554
Cr14 O27 2.575393 1_554
Cr15 O13 2.032079 1_555
Cr15 O12 2.048371 1_555
Cr15 O1 2.070809 1_555
Cr15 O9 2.178516 1_554
Cl0 Cr2 2.680908 1_455
Cl0 Cr3 2.717871 1_565
Cl0 Cr8 2.876222 1_555
Cl1 Cr12 2.484370 1_554
Cl1 Cr14 2.607329 1_565
Cl1 Cr10 2.612080 1_654
Cl2 Cr8 2.484370 1_555
Cl2 Cr1 2.607329 1_565
Cl2 Cr2 2.612080 1_455
Cl3 Cr13 2.448714 1_555
Cl3 Cr9 2.579071 1_555
Cl3 Cr11 2.879000 1_555
Cl4 Cr11 2.434829 1_555
Cl4 Cr4 2.724897 1_555
Cl4 Cr5 3.003514 1_555
Cl5 Cr0 2.434829 1_554
Cl5 Cr15 2.724897 1_555
Cl5 Cr13 3.003514 1_555
Cl6 Cr10 2.680908 1_655
Cl6 Cr6 2.717871 1_565
Cl6 Cr12 2.876222 1_555
Cl7 Cr5 2.448714 1_555
Cl7 Cr7 2.579071 1_555
Cl7 Cr0 2.879000 1_555
O0 Si7 1.624827 1_455
O1 Si2 1.642450 1_554
O2 Si1 1.627193 1_565
O3 Si5 1.675333 1_555
O4 Si7 1.629963 1_455
O5 Si0 1.636990 1_555
O6 Si4 1.643484 1_555
O6 Si3 1.644095 1_555
O7 Si2 1.630212 1_565
O8 Si2 1.649831 1_555
O9 Si1 1.674072 1_555
O10 Si7 1.690278 1_455
O11 Si6 1.642450 1_555
O12 Si6 1.649831 1_555
O13 Si4 1.619786 1_555
O14 Si4 1.627830 1_555
O15 Si0 1.674072 1_555
O16 Si1 1.636990 1_555
O17 Si4 1.675333 1_555
O18 Si5 1.627830 1_555
O19 Si3 1.629963 1_655
O20 Si3 1.624827 1_655
O21 Si3 1.690278 1_655
O22 Si6 1.630212 1_565
O23 Si0 1.627193 1_565
O24 Si5 1.619786 1_555
O25 Si0 1.644518 1_555
O25 Si6 1.655359 1_555
O26 Si1 1.644518 1_555
O26 Si2 1.655359 1_555
O27 Si5 1.643484 1_555
O27 Si7 1.644095 1_555
