# generated using pymatgen
data_NiH8(IO5)2
_symmetry_space_group_name_H-M   'P 1'
_cell_length_a   6.57786600
_cell_length_b   8.37276600
_cell_length_c   8.54555010
_cell_angle_alpha   80.85335286
_cell_angle_beta   90.00000000
_cell_angle_gamma   90.00000000
_symmetry_Int_Tables_number   1
_chemical_formula_structural   NiH8(IO5)2
_chemical_formula_sum   'Ni2 H16 I4 O20'
_cell_volume   464.66120484
_cell_formula_units_Z   2
loop_
 _symmetry_equiv_pos_site_id
 _symmetry_equiv_pos_as_xyz
  1  'x, y, z'
loop_
 _atom_site_type_symbol
 _atom_site_label
 _atom_site_symmetry_multiplicity
 _atom_site_fract_x
 _atom_site_fract_y
 _atom_site_fract_z
 _atom_site_occupancy
  Ni  Ni0  1  0.00000000  0.00000000  0.00000000  1
  Ni  Ni1  1  0.50000000  0.00000000  0.50000000  1
  H  H0  1  0.99436500  0.84522500  0.76258300  1
  H  H1  1  0.49436500  0.15477500  0.73741700  1
  H  H2  1  0.00563500  0.15477500  0.23741700  1
  H  H3  1  0.50563500  0.84522500  0.26258300  1
  H  H4  1  0.87419600  0.00897700  0.69749700  1
  H  H5  1  0.37419600  0.99102300  0.80250300  1
  H  H6  1  0.12580400  0.99102300  0.30250300  1
  H  H7  1  0.62580400  0.00897700  0.19749700  1
  H  H8  1  0.21694200  0.27285900  0.94633500  1
  H  H9  1  0.71694200  0.72714100  0.55366500  1
  H  H10  1  0.78305800  0.72714100  0.05366500  1
  H  H11  1  0.28305800  0.27285900  0.44633500  1
  H  H12  1  0.11007200  0.26366400  0.77808000  1
  H  H13  1  0.61007200  0.73633600  0.72192000  1
  H  H14  1  0.88992800  0.73633600  0.22192000  1
  H  H15  1  0.38992800  0.26366400  0.27808000  1
  I  I0  1  0.67952100  0.33131100  0.97328000  1
  I  I1  1  0.17952100  0.66868900  0.52672000  1
  I  I2  1  0.32047900  0.66868900  0.02672000  1
  I  I3  1  0.82047900  0.33131100  0.47328000  1
  O  O0  1  0.71760500  0.11128100  0.02920800  1
  O  O1  1  0.21760500  0.88871900  0.47079200  1
  O  O2  1  0.28239500  0.88871900  0.97079200  1
  O  O3  1  0.78239500  0.11128100  0.52920800  1
  O  O4  1  0.61915800  0.33615500  0.76374800  1
  O  O5  1  0.11915800  0.66384500  0.73625200  1
  O  O6  1  0.38084200  0.66384500  0.23625200  1
  O  O7  1  0.88084200  0.33615500  0.26374800  1
  O  O8  1  0.07846700  0.33784200  0.55748900  1
  O  O9  1  0.57846700  0.66215800  0.94251100  1
  O  O10  1  0.92153300  0.66215800  0.44251100  1
  O  O11  1  0.42153300  0.33784200  0.05748900  1
  O  O12  1  0.90792700  0.93131900  0.79521200  1
  O  O13  1  0.40792700  0.06868100  0.70478800  1
  O  O14  1  0.09207300  0.06868100  0.20478800  1
  O  O15  1  0.59207300  0.93131900  0.29521200  1
  O  O16  1  0.09229600  0.23761400  0.89458000  1
  O  O17  1  0.59229600  0.76238600  0.60542000  1
  O  O18  1  0.90770400  0.76238600  0.10542000  1
  O  O19  1  0.40770400  0.23761400  0.39458000  1
loop_
_geom_bond_atom_site_label_1
_geom_bond_atom_site_label_2
_geom_bond_distance
_geom_bond_site_symmetry_2
Ni0 O14 2.019906 1_555
Ni0 O12 2.019906 1_444
Ni0 O0 2.110657 1_455
Ni0 O2 2.110657 1_544
Ni0 O16 2.137382 1_554
Ni0 O18 2.137382 1_445
Ni1 O13 2.019906 1_555
Ni1 O15 2.019906 1_545
Ni1 O3 2.110657 1_555
Ni1 O1 2.110657 1_545
Ni1 O17 2.137382 1_545
Ni1 O19 2.137382 1_555
H0 O12 0.992243 1_555
H1 O13 0.992243 1_555
H2 O14 0.992243 1_555
H3 O15 0.992243 1_555
H4 O12 0.998330 1_545
H4 O3 1.665806 1_555
H5 O13 0.998330 1_565
H5 O2 1.665806 1_555
H6 O14 0.998330 1_565
H6 O1 1.665806 1_555
H7 O15 0.998330 1_545
H7 O0 1.665806 1_555
H8 O16 0.998212 1_555
H9 O17 0.998212 1_555
H10 O18 0.998212 1_555
H11 O19 0.998212 1_555
H12 O16 0.991636 1_555
H13 O17 0.991636 1_555
H14 O18 0.991636 1_555
H15 O19 0.991636 1_555
I0 O4 1.828207 1_555
I0 O0 1.845311 1_556
I0 O11 1.847481 1_556
I1 O5 1.828207 1_555
I1 O1 1.845311 1_555
I1 O10 1.847481 1_455
I2 O6 1.828207 1_555
I2 O2 1.845311 1_554
I2 O9 1.847481 1_554
I3 O7 1.828207 1_555
I3 O3 1.845311 1_555
I3 O8 1.847481 1_655
