# generated using pymatgen
data_LaCoO3
_symmetry_space_group_name_H-M   'P 1'
_cell_length_a   5.37951609
_cell_length_b   5.37845795
_cell_length_c   5.45666375
_cell_angle_alpha   60.09469467
_cell_angle_beta   60.28142536
_cell_angle_gamma   61.54033686
_symmetry_Int_Tables_number   1
_chemical_formula_structural   LaCoO3
_chemical_formula_sum   'La2 Co2 O6'
_cell_volume   113.20636656
_cell_formula_units_Z   2
loop_
 _symmetry_equiv_pos_site_id
 _symmetry_equiv_pos_as_xyz
  1  'x, y, z'
loop_
 _atom_site_type_symbol
 _atom_site_label
 _atom_site_symmetry_multiplicity
 _atom_site_fract_x
 _atom_site_fract_y
 _atom_site_fract_z
 _atom_site_occupancy
  La  La0  1  0.74770769  0.75315827  0.25039457  1
  La  La1  1  0.25229004  0.24683845  0.74959791  1
  Co  Co0  1  0.50000627  0.49998415  0.00001616  1
  Co  Co1  1  0.99997459  0.99998763  0.50001341  1
  O  O0  1  0.26590530  0.69603998  0.31725259  1
  O  O1  1  0.73407055  0.30398267  0.68272635  1
  O  O2  1  0.81743776  0.21955570  0.19474876  1
  O  O3  1  0.18255752  0.78042423  0.80528837  1
  O  O4  1  0.70887463  0.78864888  0.75102112  1
  O  O5  1  0.29117666  0.21138105  0.24893977  1
loop_
_geom_bond_atom_site_label_1
_geom_bond_atom_site_label_2
_geom_bond_distance
_geom_bond_site_symmetry_2
La0 O1 2.391968 1_555
La0 O3 2.394025 1_654
La0 O5 2.517267 1_565
La0 O2 2.559271 1_565
La0 O0 2.579698 1_555
La0 O4 2.731059 1_555
La0 O4 2.740978 1_554
La0 O0 2.842331 1_655
La0 O2 2.863483 1_555
La0 O5 2.986484 1_655
La0 O1 3.040540 1_564
La0 O3 3.053416 1_555
La1 O0 2.392074 1_555
La1 O2 2.394155 1_456
La1 O4 2.517323 1_545
La1 O3 2.559260 1_545
La1 O1 2.579625 1_555
La1 O5 2.731005 1_555
La1 O5 2.741043 1_556
La1 O1 2.842430 1_455
La1 O3 2.863520 1_555
La1 O4 2.986427 1_455
La1 O0 3.040428 1_546
La1 O2 3.053289 1_555
Co0 O5 1.887629 1_555
Co0 O4 1.888014 1_554
Co0 O2 2.016487 1_555
Co0 O3 2.016547 1_554
Co0 O0 2.021752 1_555
Co0 O1 2.021807 1_554
Co1 O4 1.907300 1_555
Co1 O5 1.907901 1_665
Co1 O2 1.920556 1_565
Co1 O3 1.920764 1_655
Co1 O0 1.922432 1_655
Co1 O1 1.922463 1_565
