# generated using pymatgen
data_Tl4Pd3Cl10
_symmetry_space_group_name_H-M   'P 1'
_cell_length_a   13.66442109
_cell_length_b   13.66442109
_cell_length_c   13.66442109
_cell_angle_alpha   105.95546999
_cell_angle_beta   105.95546999
_cell_angle_gamma   116.75777611
_symmetry_Int_Tables_number   1
_chemical_formula_structural   Tl4Pd3Cl10
_chemical_formula_sum   'Tl16 Pd12 Cl40'
_cell_volume   1939.93468238
_cell_formula_units_Z   4
loop_
 _symmetry_equiv_pos_site_id
 _symmetry_equiv_pos_as_xyz
  1  'x, y, z'
loop_
 _atom_site_type_symbol
 _atom_site_label
 _atom_site_symmetry_multiplicity
 _atom_site_fract_x
 _atom_site_fract_y
 _atom_site_fract_z
 _atom_site_occupancy
  Tl  Tl0  1  0.62500000  0.13274900  0.00774900  1
  Tl  Tl1  1  0.86725100  0.87500000  0.49225100  1
  Tl  Tl2  1  0.35803400  0.35803400  0.00000000  1
  Tl  Tl3  1  0.89196600  0.39196600  0.50000000  1
  Tl  Tl4  1  0.34547800  0.64878000  0.79186800  1
  Tl  Tl5  1  0.80361000  0.60691200  0.70813200  1
  Tl  Tl6  1  0.35122000  0.14308800  0.69669900  1
  Tl  Tl7  1  0.12500000  0.61725100  0.99225100  1
  Tl  Tl8  1  0.60803400  0.10803400  0.50000000  1
  Tl  Tl9  1  0.90452200  0.19639000  0.80330100  1
  Tl  Tl10  1  0.85691200  0.55361000  0.20813200  1
  Tl  Tl11  1  0.89878000  0.09547800  0.29186800  1
  Tl  Tl12  1  0.44639000  0.65452200  0.30330100  1
  Tl  Tl13  1  0.38274900  0.37500000  0.50774900  1
  Tl  Tl14  1  0.39308800  0.10122000  0.19669900  1
  Tl  Tl15  1  0.64196600  0.64196600  0.00000000  1
  Pd  Pd0  1  0.52368900  0.87500000  0.14868900  1
  Pd  Pd1  1  0.62500000  0.47631100  0.35131100  1
  Pd  Pd2  1  0.12445700  0.74463400  0.59248600  1
  Pd  Pd3  1  0.78197100  0.90214800  0.90751400  1
  Pd  Pd4  1  0.12500000  0.27368900  0.64868900  1
  Pd  Pd5  1  0.25536600  0.84785200  0.37982300  1
  Pd  Pd6  1  0.12554300  0.21802900  0.12017700  1
  Pd  Pd7  1  0.09785200  0.00536600  0.87982300  1
  Pd  Pd8  1  0.72631100  0.37500000  0.85131100  1
  Pd  Pd9  1  0.15214800  0.53197100  0.40751400  1
  Pd  Pd10  1  0.99463400  0.87445700  0.09248600  1
  Pd  Pd11  1  0.46802900  0.87554300  0.62017700  1
  Cl  Cl0  1  0.12500000  0.13220000  0.50720000  1
  Cl  Cl1  1  0.15082700  0.36206000  0.05216000  1
  Cl  Cl2  1  0.61206000  0.90082700  0.55216000  1
  Cl  Cl3  1  0.58424700  0.37500000  0.70924700  1
  Cl  Cl4  1  0.13708000  0.84446200  0.47746700  1
  Cl  Cl5  1  0.90961300  0.11699500  0.02253300  1
  Cl  Cl6  1  0.64372400  0.59472700  0.25368100  1
  Cl  Cl7  1  0.12500000  0.41575300  0.79075300  1
  Cl  Cl8  1  0.91117400  0.64113400  0.49553400  1
  Cl  Cl9  1  0.60995700  0.35627600  0.95100300  1
  Cl  Cl10  1  0.15553800  0.63300500  0.29261800  1
  Cl  Cl11  1  0.64004300  0.09104600  0.24631900  1
  Cl  Cl12  1  0.86780000  0.37500000  0.99280000  1
  Cl  Cl13  1  0.09917300  0.65133300  0.71123400  1
  Cl  Cl14  1  0.10439900  0.10886600  0.77004000  1
  Cl  Cl15  1  0.33882600  0.33435900  0.22996000  1
  Cl  Cl16  1  0.09446200  0.88708000  0.97746700  1
  Cl  Cl17  1  0.34866700  0.05990000  0.44784000  1
  Cl  Cl18  1  0.62500000  0.61780000  0.49280000  1
  Cl  Cl19  1  0.34104600  0.39004300  0.74631900  1
  Cl  Cl20  1  0.63794000  0.69010000  0.78876600  1
  Cl  Cl21  1  0.60627600  0.35995700  0.45100300  1
  Cl  Cl22  1  0.11292000  0.09038700  0.20738200  1
  Cl  Cl23  1  0.14560100  0.41564100  0.50446600  1
  Cl  Cl24  1  0.40527300  0.65895400  0.04899700  1
  Cl  Cl25  1  0.58435900  0.08882600  0.72996000  1
  Cl  Cl26  1  0.84472700  0.39372400  0.75368100  1
  Cl  Cl27  1  0.66575300  0.87500000  0.29075300  1
  Cl  Cl28  1  0.90895400  0.15527300  0.54899700  1
  Cl  Cl29  1  0.89113400  0.66117400  0.99553300  1
  Cl  Cl30  1  0.90133300  0.84917300  0.21123400  1
  Cl  Cl31  1  0.35886600  0.85439900  0.27004000  1
  Cl  Cl32  1  0.34038700  0.86292000  0.70738200  1
  Cl  Cl33  1  0.36699500  0.65961300  0.52253300  1
  Cl  Cl34  1  0.62500000  0.33424700  0.20924700  1
  Cl  Cl35  1  0.94010000  0.38794000  0.28876600  1
  Cl  Cl36  1  0.38220000  0.87500000  0.00720000  1
  Cl  Cl37  1  0.66564100  0.89560100  0.00446600  1
  Cl  Cl38  1  0.30990000  0.09866700  0.94784000  1
  Cl  Cl39  1  0.88300500  0.90553800  0.79261800  1
loop_
_geom_bond_atom_site_label_1
_geom_bond_atom_site_label_2
_geom_bond_distance
_geom_bond_site_symmetry_2
Cl0 Pd4 2.328256 1_555
Cl1 Pd6 2.329487 1_555
Cl1 Tl2 3.123428 1_555
Cl2 Pd11 2.329487 1_555
Cl2 Tl8 3.123428 1_565
Cl3 Pd8 2.337718 1_555
Cl4 Pd2 2.340190 1_555
Cl4 Pd5 2.355211 1_555
Cl5 Pd3 2.340190 1_544
Cl5 Pd6 2.355211 1_655
Cl6 Pd1 2.337738 1_555
Cl7 Pd4 2.337718 1_555
Cl8 Pd2 2.320511 1_655
Cl9 Pd8 2.337738 1_555
Cl10 Pd5 2.340190 1_555
Cl10 Pd9 2.355211 1_555
Cl11 Pd0 2.337738 1_545
Cl12 Pd8 2.328256 1_555
Cl13 Pd2 2.329499 1_555
Cl13 Tl3 3.123433 1_455
Cl14 Pd7 2.320512 1_555
Cl15 Pd6 2.320512 1_555
Cl16 Pd10 2.340190 1_456
Cl16 Pd7 2.355211 1_565
Cl17 Pd5 2.329487 1_545
Cl17 Tl8 3.123428 1_555
Cl18 Pd1 2.328256 1_555
Cl19 Pd4 2.337738 1_555
Cl20 Pd3 2.329489 1_555
Cl20 Tl15 3.123441 1_556
Cl21 Pd1 2.337738 1_555
Cl22 Pd6 2.340190 1_555
Cl22 Pd10 2.355211 1_445
Cl23 Pd9 2.320501 1_555
Cl24 Pd0 2.337738 1_555
Cl25 Pd11 2.320512 1_545
Cl26 Pd8 2.337738 1_555
Cl27 Pd0 2.337718 1_555
Cl28 Pd4 2.337738 1_655
Cl29 Pd10 2.320512 1_556
Cl30 Pd10 2.329499 1_555
Cl30 Tl15 3.123433 1_555
Cl31 Pd5 2.320512 1_555
Cl32 Pd11 2.340190 1_555
Cl32 Pd2 2.355211 1_555
Cl33 Pd9 2.340190 1_555
Cl33 Pd11 2.355211 1_555
Cl34 Pd1 2.337718 1_555
Cl35 Pd9 2.329489 1_655
Cl35 Tl3 3.123441 1_555
Cl36 Pd0 2.328256 1_555
Cl37 Pd3 2.320501 1_554
Cl38 Pd7 2.329487 1_555
Cl38 Tl2 3.123428 1_556
Cl39 Pd7 2.340190 1_665
Cl39 Pd3 2.355211 1_555
