# generated using pymatgen
data_Cu2As4S3Cl2
_symmetry_space_group_name_H-M   'P 1'
_cell_length_a   7.07310400
_cell_length_b   6.27161900
_cell_length_c   11.99361663
_cell_angle_alpha   77.16589988
_cell_angle_beta   90.00000000
_cell_angle_gamma   90.00000000
_symmetry_Int_Tables_number   1
_chemical_formula_structural   Cu2As4S3Cl2
_chemical_formula_sum   'Cu4 As8 S6 Cl4'
_cell_volume   518.74294856
_cell_formula_units_Z   2
loop_
 _symmetry_equiv_pos_site_id
 _symmetry_equiv_pos_as_xyz
  1  'x, y, z'
loop_
 _atom_site_type_symbol
 _atom_site_label
 _atom_site_symmetry_multiplicity
 _atom_site_fract_x
 _atom_site_fract_y
 _atom_site_fract_z
 _atom_site_occupancy
  Cu  Cu0  1  0.02866400  0.56022600  0.80795800  1
  Cu  Cu1  1  0.97133600  0.43977400  0.19204200  1
  Cu  Cu2  1  0.47133600  0.56022600  0.80795800  1
  Cu  Cu3  1  0.52866400  0.43977400  0.19204200  1
  As  As0  1  0.25000000  0.98322100  0.10737100  1
  As  As1  1  0.42800000  0.73548100  0.39504300  1
  As  As2  1  0.25000000  0.07498400  0.40583900  1
  As  As3  1  0.07200000  0.73548100  0.39504300  1
  As  As4  1  0.57200000  0.26451900  0.60495700  1
  As  As5  1  0.75000000  0.01677900  0.89262900  1
  As  As6  1  0.75000000  0.92501600  0.59416100  1
  As  As7  1  0.92800000  0.26451900  0.60495700  1
  S  S0  1  0.00175300  0.79672600  0.20421100  1
  S  S1  1  0.50175300  0.20327400  0.79578900  1
  S  S2  1  0.49824700  0.79672600  0.20421100  1
  S  S3  1  0.75000000  0.74415400  0.78465300  1
  S  S4  1  0.25000000  0.25584600  0.21534700  1
  S  S5  1  0.99824700  0.20327400  0.79578900  1
  Cl  Cl0  1  0.25000000  0.70246200  0.64539300  1
  Cl  Cl1  1  0.75000000  0.39168600  0.05765700  1
  Cl  Cl2  1  0.25000000  0.60831400  0.94234300  1
  Cl  Cl3  1  0.75000000  0.29753800  0.35460700  1
loop_
_geom_bond_atom_site_label_1
_geom_bond_atom_site_label_2
_geom_bond_distance
_geom_bond_site_symmetry_2
Cu0 S3 2.269455 1_455
Cu0 S5 2.285688 1_455
Cu1 S4 2.269455 1_655
Cu1 S0 2.285688 1_655
Cu2 S3 2.269455 1_555
Cu2 S1 2.285688 1_555
Cu3 S4 2.269455 1_555
Cu3 S2 2.285688 1_555
As0 S2 2.279607 1_555
As0 S0 2.279607 1_555
As0 S4 2.363089 1_565
As1 S2 2.289607 1_555
As2 S4 2.314115 1_555
As3 S0 2.289607 1_555
As4 S1 2.289607 1_555
As5 S1 2.279607 1_555
As5 S5 2.279607 1_555
As5 S3 2.363089 1_545
As6 S3 2.314115 1_555
As7 S5 2.289607 1_555
Cl0 Cu2 2.505086 1_555
Cl0 Cu0 2.505086 1_555
Cl1 Cu1 2.314212 1_555
Cl1 Cu3 2.314212 1_555
Cl2 Cu0 2.314212 1_555
Cl2 Cu2 2.314212 1_555
Cl3 Cu3 2.505086 1_555
Cl3 Cu1 2.505086 1_555
