# generated using pymatgen
data_In2(WO4)3
_symmetry_space_group_name_H-M   'P 1'
_cell_length_a   9.86847800
_cell_length_b   9.95459200
_cell_length_c   13.70681900
_cell_angle_alpha   90.00000000
_cell_angle_beta   90.00000000
_cell_angle_gamma   90.00000000
_symmetry_Int_Tables_number   1
_chemical_formula_structural   In2(WO4)3
_chemical_formula_sum   'In8 W12 O48'
_cell_volume   1346.51228434
_cell_formula_units_Z   4
loop_
 _symmetry_equiv_pos_site_id
 _symmetry_equiv_pos_as_xyz
  1  'x, y, z'
loop_
 _atom_site_type_symbol
 _atom_site_label
 _atom_site_symmetry_multiplicity
 _atom_site_fract_x
 _atom_site_fract_y
 _atom_site_fract_z
 _atom_site_occupancy
  In  In0  1  0.25038000  0.96376900  0.11980900  1
  In  In1  1  0.75038000  0.53623100  0.61980900  1
  In  In2  1  0.24962000  0.46376900  0.38019100  1
  In  In3  1  0.74962000  0.03623100  0.88019100  1
  In  In4  1  0.24962000  0.03623100  0.61980900  1
  In  In5  1  0.75038000  0.96376900  0.38019100  1
  In  In6  1  0.25038000  0.53623100  0.88019100  1
  In  In7  1  0.74962000  0.46376900  0.11980900  1
  W  W0  1  0.10411500  0.88493500  0.85526200  1
  W  W1  1  0.89588500  0.38493500  0.85526200  1
  W  W2  1  0.60411500  0.61506500  0.35526200  1
  W  W3  1  0.47113700  0.25000000  0.00000000  1
  W  W4  1  0.52886300  0.75000000  0.00000000  1
  W  W5  1  0.89588500  0.11506500  0.14473800  1
  W  W6  1  0.39588500  0.38493500  0.64473800  1
  W  W7  1  0.97113700  0.25000000  0.50000000  1
  W  W8  1  0.10411500  0.61506500  0.14473800  1
  W  W9  1  0.02886300  0.75000000  0.50000000  1
  W  W10  1  0.60411500  0.88493500  0.64473800  1
  W  W11  1  0.39588500  0.11506500  0.35526200  1
  O  O0  1  0.86652000  0.12999200  0.43573600  1
  O  O1  1  0.86652000  0.37000800  0.56426400  1
  O  O2  1  0.82667000  0.07366600  0.02656800  1
  O  O3  1  0.31976400  0.00677700  0.26429000  1
  O  O4  1  0.13941400  0.79022600  0.17079800  1
  O  O5  1  0.42201300  0.90794200  0.64383700  1
  O  O6  1  0.82667000  0.42633400  0.97343200  1
  O  O7  1  0.63941400  0.79022600  0.32920200  1
  O  O8  1  0.67333000  0.92633400  0.52656800  1
  O  O9  1  0.13348000  0.87000800  0.56426400  1
  O  O10  1  0.68023600  0.99322300  0.73571000  1
  O  O11  1  0.31976400  0.49322300  0.73571000  1
  O  O12  1  0.17333000  0.57366600  0.02656800  1
  O  O13  1  0.81976400  0.00677700  0.23571000  1
  O  O14  1  0.13348000  0.62999200  0.43573600  1
  O  O15  1  0.18023600  0.99322300  0.76429000  1
  O  O16  1  0.36058600  0.29022600  0.32920200  1
  O  O17  1  0.92201300  0.90794200  0.85616300  1
  O  O18  1  0.63941400  0.70977400  0.67079800  1
  O  O19  1  0.63348000  0.62999200  0.06426400  1
  O  O20  1  0.13941400  0.70977400  0.82920200  1
  O  O21  1  0.67333000  0.57366600  0.47343200  1
  O  O22  1  0.18023600  0.50677700  0.23571000  1
  O  O23  1  0.07798700  0.40794200  0.85616300  1
  O  O24  1  0.07798700  0.09205800  0.14383700  1
  O  O25  1  0.42212300  0.83494500  0.08809200  1
  O  O26  1  0.86058600  0.29022600  0.17079800  1
  O  O27  1  0.36652000  0.12999200  0.06426400  1
  O  O28  1  0.63348000  0.87000800  0.93573600  1
  O  O29  1  0.57787700  0.33494500  0.08809200  1
  O  O30  1  0.36058600  0.20977400  0.67079800  1
  O  O31  1  0.32667000  0.42633400  0.52656800  1
  O  O32  1  0.92212300  0.66505500  0.58809200  1
  O  O33  1  0.57798700  0.09205800  0.35616300  1
  O  O34  1  0.81976400  0.49322300  0.76429000  1
  O  O35  1  0.07787700  0.33494500  0.41190800  1
  O  O36  1  0.32667000  0.07366600  0.47343200  1
  O  O37  1  0.92212300  0.83494500  0.41190800  1
  O  O38  1  0.07787700  0.16505500  0.58809200  1
  O  O39  1  0.42201300  0.59205800  0.35616300  1
  O  O40  1  0.57787700  0.16505500  0.91190800  1
  O  O41  1  0.92201300  0.59205800  0.14383700  1
  O  O42  1  0.57798700  0.40794200  0.64383700  1
  O  O43  1  0.36652000  0.37000800  0.93573600  1
  O  O44  1  0.42212300  0.66505500  0.91190800  1
  O  O45  1  0.68023600  0.50677700  0.26429000  1
  O  O46  1  0.86058600  0.20977400  0.82920200  1
  O  O47  1  0.17333000  0.92633400  0.97343200  1
loop_
_geom_bond_atom_site_label_1
_geom_bond_atom_site_label_2
_geom_bond_distance
_geom_bond_site_symmetry_2
In0 O3 2.138694 1_565
In0 O27 2.152027 1_565
In0 O24 2.152589 1_565
In0 O4 2.161493 1_555
In0 O25 2.169335 1_555
In0 O47 2.177732 1_554
In1 O34 2.138694 1_555
In1 O1 2.152027 1_555
In1 O42 2.152589 1_555
In1 O18 2.161493 1_555
In1 O32 2.169335 1_555
In1 O21 2.177732 1_555
In2 O22 2.138694 1_555
In2 O14 2.152027 1_555
In2 O39 2.152589 1_555
In2 O16 2.161493 1_555
In2 O35 2.169335 1_555
In2 O31 2.177732 1_555
In3 O10 2.138694 1_545
In3 O28 2.152027 1_545
In3 O17 2.152589 1_545
In3 O46 2.161493 1_555
In3 O40 2.169335 1_555
In3 O2 2.177732 1_556
In4 O15 2.138694 1_545
In4 O9 2.152027 1_545
In4 O5 2.152589 1_545
In4 O30 2.161493 1_555
In4 O38 2.169335 1_555
In4 O36 2.177732 1_555
In5 O13 2.138694 1_565
In5 O0 2.152027 1_565
In5 O33 2.152589 1_565
In5 O7 2.161493 1_555
In5 O37 2.169335 1_555
In5 O8 2.177732 1_555
In6 O11 2.138694 1_555
In6 O43 2.152027 1_555
In6 O23 2.152589 1_555
In6 O20 2.161493 1_555
In6 O44 2.169335 1_555
In6 O12 2.177732 1_556
In7 O45 2.138694 1_555
In7 O19 2.152027 1_555
In7 O41 2.152589 1_555
In7 O26 2.161493 1_555
In7 O29 2.169335 1_555
In7 O6 2.177732 1_554
O0 W7 1.808015 1_555
O1 W7 1.808015 1_555
O2 W5 1.805527 1_555
O3 W11 1.811396 1_555
O4 W8 1.813636 1_555
O5 W10 1.811647 1_555
O6 W1 1.805527 1_555
O7 W2 1.813636 1_555
O8 W10 1.805527 1_555
O9 W9 1.808015 1_555
O10 W10 1.811396 1_555
O11 W6 1.811396 1_555
O12 W8 1.805527 1_555
O13 W5 1.811396 1_555
O14 W9 1.808015 1_555
O15 W0 1.811396 1_555
O16 W11 1.813636 1_555
O17 W0 1.811647 1_655
O18 W10 1.813636 1_555
O19 W4 1.808015 1_555
O20 W0 1.813636 1_555
O21 W2 1.805527 1_555
O22 W8 1.811396 1_555
O23 W1 1.811647 1_455
O24 W5 1.811647 1_455
O25 W4 1.811784 1_555
O26 W5 1.813636 1_555
O27 W3 1.808015 1_555
O28 W4 1.808015 1_556
O29 W3 1.811784 1_555
O30 W6 1.813636 1_555
O31 W6 1.805527 1_555
O32 W9 1.811784 1_655
O33 W11 1.811647 1_555
O34 W1 1.811396 1_555
O35 W7 1.811784 1_455
O36 W11 1.805527 1_555
O37 W9 1.811784 1_655
O38 W7 1.811784 1_455
O39 W2 1.811647 1_555
O40 W3 1.811784 1_556
O41 W8 1.811647 1_655
O42 W6 1.811647 1_555
O43 W3 1.808015 1_556
O44 W4 1.811784 1_556
O45 W2 1.811396 1_555
O46 W1 1.813636 1_555
O47 W0 1.805527 1_555
