# generated using pymatgen
data_Al2SiO5
_symmetry_space_group_name_H-M   'P 1'
_cell_length_a   5.56527499
_cell_length_b   7.11781131
_cell_length_c   7.84616848
_cell_angle_alpha   105.99384650
_cell_angle_beta   89.99270945
_cell_angle_gamma   101.11058066
_symmetry_Int_Tables_number   1
_chemical_formula_structural   Al2SiO5
_chemical_formula_sum   'Al8 Si4 O20'
_cell_volume   292.71348472
_cell_formula_units_Z   4
loop_
 _symmetry_equiv_pos_site_id
 _symmetry_equiv_pos_as_xyz
  1  'x, y, z'
loop_
 _atom_site_type_symbol
 _atom_site_label
 _atom_site_symmetry_multiplicity
 _atom_site_fract_x
 _atom_site_fract_y
 _atom_site_fract_z
 _atom_site_occupancy
  Al  Al0  1  0.83569444  0.88868150  0.08317298  1
  Al  Al1  1  0.16430556  0.11131850  0.91682702  1
  Al  Al2  1  0.35960480  0.90077653  0.61357842  1
  Al  Al3  1  0.64039520  0.09922347  0.38642158  1
  Al  Al4  1  0.04971069  0.70320934  0.30132555  1
  Al  Al5  1  0.95028931  0.29679066  0.69867445  1
  Al  Al6  1  0.54198946  0.67529487  0.29600461  1
  Al  Al7  1  0.45801054  0.32470513  0.70399539  1
  Si  Si0  1  0.81077440  0.70885584  0.66822442  1
  Si  Si1  1  0.18922560  0.29114416  0.33177558  1
  Si  Si2  1  0.29343003  0.70358915  0.93505643  1
  Si  Si3  1  0.70656997  0.29641085  0.06494357  1
  O  O0  1  0.24398095  0.49809972  0.76881375  1
  O  O1  1  0.75601905  0.50190028  0.23118625  1
  O  O2  1  0.75559381  0.49876321  0.72479919  1
  O  O3  1  0.24440619  0.50123679  0.27520081  1
  O  O4  1  0.53467649  0.70874671  0.05365519  1
  O  O5  1  0.46532351  0.29125329  0.94634481  1
  O  O6  1  0.57088039  0.71772167  0.55439356  1
  O  O7  1  0.42911961  0.28227833  0.44560644  1
  O  O8  1  0.36083507  0.87878451  0.36907910  1
  O  O9  1  0.63916493  0.12121549  0.63092090  1
  O  O10  1  0.33326746  0.89166852  0.84753014  1
  O  O11  1  0.66673254  0.10833148  0.15246986  1
  O  O12  1  0.12852835  0.10930916  0.14666041  1
  O  O13  1  0.87147165  0.89069084  0.85333959  1
  O  O14  1  0.18069989  0.12220084  0.68465669  1
  O  O15  1  0.81930011  0.87779916  0.31534331  1
  O  O16  1  0.95429282  0.27482396  0.45464481  1
  O  O17  1  0.04570718  0.72517604  0.54535519  1
  O  O18  1  0.93563514  0.28323005  0.93523414  1
  O  O19  1  0.06436486  0.71676995  0.06476586  1
loop_
_geom_bond_atom_site_label_1
_geom_bond_atom_site_label_2
_geom_bond_distance
_geom_bond_site_symmetry_2
Al0 O13 1.817912 1_554
Al0 O15 1.846000 1_555
Al0 O4 1.873532 1_555
Al0 O19 1.907986 1_655
Al0 O11 1.929289 1_565
Al0 O12 1.988202 1_665
Al1 O12 1.817912 1_556
Al1 O14 1.846000 1_555
Al1 O5 1.873532 1_555
Al1 O18 1.907986 1_455
Al1 O10 1.929289 1_545
Al1 O13 1.988202 1_445
Al2 O10 1.859315 1_555
Al2 O8 1.881401 1_555
Al2 O6 1.884868 1_555
Al2 O17 1.921077 1_555
Al2 O9 1.960249 1_565
Al2 O14 1.976507 1_565
Al3 O11 1.859315 1_555
Al3 O9 1.881401 1_555
Al3 O7 1.884868 1_555
Al3 O16 1.921077 1_555
Al3 O8 1.960249 1_545
Al3 O15 1.976507 1_545
Al4 O17 1.878129 1_555
Al4 O19 1.885916 1_555
Al4 O8 1.908563 1_555
Al4 O1 1.921086 1_455
Al4 O3 1.928902 1_555
Al4 O15 1.933772 1_455
Al5 O16 1.878129 1_555
Al5 O18 1.885916 1_555
Al5 O9 1.908563 1_555
Al5 O0 1.921086 1_655
Al5 O2 1.928902 1_555
Al5 O14 1.933772 1_655
Al6 O3 1.844498 1_555
Al6 O1 1.849650 1_555
Al6 O15 1.872064 1_555
Al6 O8 1.883619 1_555
Al6 O6 1.967546 1_555
Al6 O4 1.981757 1_555
Al7 O2 1.844498 1_555
Al7 O0 1.849650 1_555
Al7 O14 1.872064 1_555
Al7 O9 1.883619 1_555
Al7 O7 1.967546 1_555
Al7 O5 1.981757 1_555
O0 Si2 1.646218 1_555
O1 Si3 1.646218 1_555
O2 Si0 1.648134 1_555
O3 Si1 1.648134 1_555
O4 Si2 1.622450 1_554
O5 Si3 1.622450 1_556
O6 Si0 1.627248 1_555
O7 Si1 1.627248 1_555
O10 Si2 1.644727 1_555
O11 Si3 1.644727 1_555
O12 Si1 1.641502 1_555
O13 Si0 1.641502 1_555
O16 Si1 1.629483 1_655
O17 Si0 1.629483 1_455
O18 Si3 1.631824 1_556
O19 Si2 1.631824 1_554
