# generated using pymatgen
data_K2CS2(O3F)2
_symmetry_space_group_name_H-M   'P 1'
_cell_length_a   6.15339800
_cell_length_b   10.09605000
_cell_length_c   14.80187284
_cell_angle_alpha   69.98889270
_cell_angle_beta   90.00000000
_cell_angle_gamma   90.00000000
_symmetry_Int_Tables_number   1
_chemical_formula_structural   K2CS2(O3F)2
_chemical_formula_sum   'K8 C4 S8 O24 F8'
_cell_volume   864.04891964
_cell_formula_units_Z   4
loop_
 _symmetry_equiv_pos_site_id
 _symmetry_equiv_pos_as_xyz
  1  'x, y, z'
loop_
 _atom_site_type_symbol
 _atom_site_label
 _atom_site_symmetry_multiplicity
 _atom_site_fract_x
 _atom_site_fract_y
 _atom_site_fract_z
 _atom_site_occupancy
  K  K0  1  0.27559200  0.04043400  0.66503400  1
  K  K1  1  0.26889200  0.27753000  0.34578700  1
  K  K2  1  0.73110800  0.72247000  0.65421300  1
  K  K3  1  0.76889200  0.72247000  0.15421300  1
  K  K4  1  0.22440800  0.04043400  0.16503400  1
  K  K5  1  0.23110800  0.27753000  0.84578700  1
  K  K6  1  0.72440800  0.95956600  0.33496600  1
  K  K7  1  0.77559200  0.95956600  0.83496600  1
  C  C0  1  0.30047600  0.69165500  0.44823800  1
  C  C1  1  0.69952400  0.30834500  0.55176200  1
  C  C2  1  0.19952400  0.69165500  0.94823800  1
  C  C3  1  0.80047600  0.30834500  0.05176200  1
  S  S0  1  0.21249500  0.85431600  0.47294000  1
  S  S1  1  0.74133800  0.30139400  0.67929700  1
  S  S2  1  0.25866200  0.69860600  0.32070300  1
  S  S3  1  0.24133800  0.69860600  0.82070300  1
  S  S4  1  0.78750500  0.14568400  0.52706000  1
  S  S5  1  0.75866200  0.30139400  0.17929700  1
  S  S6  1  0.28750500  0.85431600  0.97294000  1
  S  S7  1  0.71249500  0.14568400  0.02706000  1
  O  O0  1  0.95435200  0.23375800  0.70665600  1
  O  O1  1  0.15968400  0.84963100  0.05722100  1
  O  O2  1  0.94066100  0.21301700  0.23106200  1
  O  O3  1  0.97846100  0.83583800  0.49045900  1
  O  O4  1  0.76935500  0.02948000  0.11549700  1
  O  O5  1  0.04564800  0.76624200  0.29334400  1
  O  O6  1  0.84031600  0.15036900  0.94277900  1
  O  O7  1  0.34031600  0.84963100  0.55722100  1
  O  O8  1  0.45435200  0.76624200  0.79334400  1
  O  O9  1  0.65968400  0.15036900  0.44277900  1
  O  O10  1  0.73064500  0.02948000  0.61549700  1
  O  O11  1  0.23064700  0.55293500  0.82452400  1
  O  O12  1  0.54564800  0.23375800  0.20665600  1
  O  O13  1  0.52153900  0.83583800  0.99045900  1
  O  O14  1  0.47846100  0.16416200  0.00954100  1
  O  O15  1  0.26935300  0.55293500  0.32452400  1
  O  O16  1  0.76935300  0.44706500  0.17547600  1
  O  O17  1  0.73064700  0.44706500  0.67547600  1
  O  O18  1  0.05933900  0.78698300  0.76893800  1
  O  O19  1  0.23064500  0.97052000  0.88450300  1
  O  O20  1  0.26935500  0.97052000  0.38450300  1
  O  O21  1  0.55933900  0.21301700  0.73106200  1
  O  O22  1  0.44066100  0.78698300  0.26893800  1
  O  O23  1  0.02153900  0.16416200  0.50954100  1
  F  F0  1  0.97958200  0.67437500  0.96728600  1
  F  F1  1  0.52041800  0.67437500  0.46728600  1
  F  F2  1  0.80383300  0.42171800  0.48980600  1
  F  F3  1  0.02041800  0.32562500  0.03271400  1
  F  F4  1  0.19616700  0.57828200  0.51019400  1
  F  F5  1  0.30383300  0.57828200  0.01019400  1
  F  F6  1  0.69616700  0.42171800  0.98980600  1
  F  F7  1  0.47958200  0.32562500  0.53271400  1
loop_
_geom_bond_atom_site_label_1
_geom_bond_atom_site_label_2
_geom_bond_distance
_geom_bond_site_symmetry_2
K0 O23 2.708115 1_555
K0 O18 2.826729 1_545
K0 O21 2.864472 1_555
K0 O10 2.906210 1_555
K0 O7 2.918924 1_545
K0 O8 2.980265 1_545
K0 O0 2.986555 1_455
K0 O19 3.091678 1_545
K1 O15 2.689113 1_555
K1 O23 2.757373 1_555
K1 O12 2.821254 1_555
K1 O2 2.853811 1_455
K1 O9 2.868877 1_555
K1 O20 2.952994 1_545
K2 O17 2.689113 1_555
K2 O3 2.757373 1_555
K2 O8 2.821254 1_555
K2 O18 2.853811 1_655
K2 O7 2.868877 1_555
K2 O10 2.952994 1_565
K3 O16 2.689113 1_555
K3 O13 2.757373 1_554
K3 O5 2.821254 1_655
K3 O22 2.853811 1_555
K3 O1 2.868877 1_655
K3 O4 2.952994 1_565
K4 O14 2.708115 1_555
K4 O22 2.826729 1_545
K4 O2 2.864472 1_455
K4 O4 2.906210 1_455
K4 O1 2.918924 1_545
K4 O5 2.980265 1_545
K4 O12 2.986555 1_555
K4 O20 3.091678 1_545
K5 O11 2.689113 1_555
K5 O14 2.757373 1_556
K5 O0 2.821254 1_455
K5 O21 2.853811 1_555
K5 O6 2.868877 1_455
K5 O19 2.952994 1_545
K6 O3 2.708115 1_555
K6 O2 2.826729 1_565
K6 O22 2.864472 1_555
K6 O20 2.906210 1_555
K6 O9 2.918924 1_565
K6 O12 2.980265 1_565
K6 O5 2.986555 1_655
K6 O4 3.091678 1_565
K7 O13 2.708115 1_555
K7 O21 2.826729 1_565
K7 O18 2.864472 1_655
K7 O19 2.906210 1_655
K7 O6 2.918924 1_565
K7 O0 2.980265 1_565
K7 O8 2.986555 1_555
K7 O10 3.091678 1_565
C0 F4 1.358207 1_555
C0 F1 1.381279 1_555
C1 F2 1.358207 1_555
C1 F7 1.381279 1_555
C2 F5 1.358207 1_556
C2 F0 1.381279 1_455
C3 F6 1.358207 1_554
C3 F3 1.381279 1_655
O0 S1 1.469395 1_555
O1 S6 1.461775 1_554
O2 S5 1.472928 1_555
O3 S0 1.463844 1_655
O4 S7 1.470138 1_555
O5 S2 1.469395 1_555
O6 S7 1.461775 1_556
O7 S0 1.461775 1_555
O8 S3 1.469395 1_555
O9 S4 1.461775 1_555
O10 S4 1.470138 1_555
O11 S3 1.453809 1_555
O12 S5 1.469395 1_555
O13 S6 1.463844 1_555
O14 S7 1.463844 1_555
O15 S2 1.453809 1_555
O16 S5 1.453809 1_555
O17 S1 1.453809 1_555
O18 S3 1.472928 1_555
O19 S6 1.470138 1_555
O20 S0 1.470138 1_555
O21 S1 1.472928 1_555
O22 S2 1.472928 1_555
O23 S4 1.463844 1_455
F0 K7 3.137266 1_555
F0 K3 3.239083 1_556
F1 K6 3.137266 1_555
F1 K2 3.239083 1_555
F3 K4 3.137266 1_555
F3 K5 3.239083 1_554
F7 K0 3.137266 1_555
F7 K1 3.239083 1_555
