# generated using pymatgen
data_Na5FeS4
_symmetry_space_group_name_H-M   'P 1'
_cell_length_a   7.13707000
_cell_length_b   12.01690300
_cell_length_c   21.62577700
_cell_angle_alpha   90.00000000
_cell_angle_beta   90.00000000
_cell_angle_gamma   90.00000000
_symmetry_Int_Tables_number   1
_chemical_formula_structural   Na5FeS4
_chemical_formula_sum   'Na40 Fe8 S32'
_cell_volume   1854.74509924
_cell_formula_units_Z   8
loop_
 _symmetry_equiv_pos_site_id
 _symmetry_equiv_pos_as_xyz
  1  'x, y, z'
loop_
 _atom_site_type_symbol
 _atom_site_label
 _atom_site_symmetry_multiplicity
 _atom_site_fract_x
 _atom_site_fract_y
 _atom_site_fract_z
 _atom_site_occupancy
  Na  Na0  1  0.04920100  0.28598300  0.13363000  1
  Na  Na1  1  0.10526200  0.16049800  0.83039200  1
  Na  Na2  1  0.37681300  0.41008200  0.25065100  1
  Na  Na3  1  0.39473800  0.16049800  0.33039200  1
  Na  Na4  1  0.55891800  0.94273600  0.06739200  1
  Na  Na5  1  0.90892600  0.14661100  0.99896500  1
  Na  Na6  1  0.59107400  0.14661100  0.49896500  1
  Na  Na7  1  0.09107400  0.85338900  0.00103500  1
  Na  Na8  1  0.95079900  0.71401700  0.86637000  1
  Na  Na9  1  0.89473800  0.33950200  0.33039200  1
  Na  Na10  1  0.44108200  0.05726400  0.93260800  1
  Na  Na11  1  0.95079900  0.21401700  0.63363000  1
  Na  Na12  1  0.55891800  0.44273600  0.43260800  1
  Na  Na13  1  0.87681300  0.08991800  0.25065100  1
  Na  Na14  1  0.05891800  0.05726400  0.43260800  1
  Na  Na15  1  0.44108200  0.55726400  0.56739200  1
  Na  Na16  1  0.39473800  0.66049800  0.16960800  1
  Na  Na17  1  0.45079900  0.28598300  0.63363000  1
  Na  Na18  1  0.12318700  0.91008200  0.74934900  1
  Na  Na19  1  0.94108200  0.44273600  0.93260800  1
  Na  Na20  1  0.54920100  0.71401700  0.36637000  1
  Na  Na21  1  0.59107400  0.64661100  0.00103500  1
  Na  Na22  1  0.10526200  0.66049800  0.66960800  1
  Na  Na23  1  0.54920100  0.21401700  0.13363000  1
  Na  Na24  1  0.87681300  0.58991800  0.24934900  1
  Na  Na25  1  0.62318700  0.58991800  0.74934900  1
  Na  Na26  1  0.89473800  0.83950200  0.16960800  1
  Na  Na27  1  0.37681300  0.91008200  0.24934900  1
  Na  Na28  1  0.05891800  0.55726400  0.06739200  1
  Na  Na29  1  0.40892600  0.35338900  0.99896500  1
  Na  Na30  1  0.04920100  0.78598300  0.36637000  1
  Na  Na31  1  0.09107400  0.35338900  0.49896500  1
  Na  Na32  1  0.90892600  0.64661100  0.50103500  1
  Na  Na33  1  0.12318700  0.41008200  0.75065100  1
  Na  Na34  1  0.40892600  0.85338900  0.50103500  1
  Na  Na35  1  0.62318700  0.08991800  0.75065100  1
  Na  Na36  1  0.45079900  0.78598300  0.86637000  1
  Na  Na37  1  0.60526200  0.33950200  0.83039200  1
  Na  Na38  1  0.94108200  0.94273600  0.56739200  1
  Na  Na39  1  0.60526200  0.83950200  0.66960800  1
  Fe  Fe0  1  0.33214600  0.54054900  0.87452100  1
  Fe  Fe1  1  0.33214600  0.04054900  0.62547900  1
  Fe  Fe2  1  0.16785400  0.04054900  0.12547900  1
  Fe  Fe3  1  0.66785400  0.45945100  0.12547900  1
  Fe  Fe4  1  0.16785400  0.54054900  0.37452100  1
  Fe  Fe5  1  0.83214600  0.95945100  0.87452100  1
  Fe  Fe6  1  0.83214600  0.45945100  0.62547900  1
  Fe  Fe7  1  0.66785400  0.95945100  0.37452100  1
  S  S0  1  0.79362800  0.86995700  0.45808100  1
  S  S1  1  0.24692700  0.35612200  0.87519700  1
  S  S2  1  0.74692700  0.64387800  0.62480300  1
  S  S3  1  0.74067400  0.86847100  0.78678000  1
  S  S4  1  0.75307300  0.64387800  0.12480300  1
  S  S5  1  0.65142300  0.05559300  0.62074200  1
  S  S6  1  0.24067400  0.13152900  0.71322000  1
  S  S7  1  0.20637200  0.13004300  0.54191900  1
  S  S8  1  0.29362800  0.63004300  0.45808100  1
  S  S9  1  0.79362800  0.36995700  0.04191900  1
  S  S10  1  0.15142300  0.94440700  0.87925800  1
  S  S11  1  0.65142300  0.55559300  0.87925800  1
  S  S12  1  0.29362800  0.13004300  0.04191900  1
  S  S13  1  0.24692700  0.85612200  0.62480300  1
  S  S14  1  0.84857700  0.05559300  0.12074200  1
  S  S15  1  0.75932600  0.86847100  0.28678000  1
  S  S16  1  0.34857700  0.44440700  0.12074200  1
  S  S17  1  0.75307300  0.14387800  0.37519700  1
  S  S18  1  0.70637200  0.36995700  0.54191900  1
  S  S19  1  0.15142300  0.44440700  0.62074200  1
  S  S20  1  0.24067400  0.63152900  0.78678000  1
  S  S21  1  0.84857700  0.55559300  0.37925800  1
  S  S22  1  0.25307300  0.85612200  0.12480300  1
  S  S23  1  0.25932600  0.63152900  0.28678000  1
  S  S24  1  0.74692700  0.14387800  0.87519700  1
  S  S25  1  0.70637200  0.86995700  0.95808100  1
  S  S26  1  0.34857700  0.94440700  0.37925800  1
  S  S27  1  0.74067400  0.36847100  0.71322000  1
  S  S28  1  0.25932600  0.13152900  0.21322000  1
  S  S29  1  0.25307300  0.35612200  0.37519700  1
  S  S30  1  0.75932600  0.36847100  0.21322000  1
  S  S31  1  0.20637200  0.63004300  0.95808100  1
loop_
_geom_bond_atom_site_label_1
_geom_bond_atom_site_label_2
_geom_bond_distance
_geom_bond_site_symmetry_2
Na0 S30 2.867972 1_455
Na0 S16 2.875301 1_555
Na0 S9 2.877324 1_455
Na0 S28 2.942193 1_555
Na0 S14 3.129366 1_455
Na0 S12 3.238577 1_555
Na1 S6 2.734233 1_555
Na1 S1 2.736303 1_555
Na1 S24 2.742143 1_455
Na1 S10 2.822831 1_545
Na2 S16 2.846644 1_555
Na2 S30 2.891073 1_555
Na2 S23 2.897422 1_555
Na2 S29 2.907719 1_555
Na3 S28 2.734233 1_555
Na3 S29 2.736303 1_555
Na3 S17 2.742143 1_555
Na3 S26 2.822831 1_545
Na4 S22 2.718377 1_555
Na4 S14 2.728399 1_565
Na4 S25 2.731410 1_554
Na4 S12 2.992445 1_565
Na5 S14 2.883965 1_556
Na5 S12 2.905355 1_656
Na5 S24 2.915810 1_555
Na5 S9 2.956940 1_556
Na6 S5 2.883965 1_555
Na6 S7 2.905355 1_555
Na6 S17 2.915810 1_555
Na6 S18 2.956940 1_555
Na7 S10 2.883965 1_554
Na7 S25 2.905355 1_454
Na7 S22 2.915810 1_555
Na7 S31 2.956940 1_554
Na8 S20 2.867972 1_655
Na8 S11 2.875301 1_555
Na8 S31 2.877324 1_655
Na8 S3 2.942193 1_555
Na8 S10 3.129366 1_655
Na8 S25 3.238577 1_555
Na9 S30 2.734233 1_555
Na9 S17 2.736303 1_555
Na9 S29 2.742143 1_655
Na9 S21 2.822831 1_555
Na10 S24 2.718377 1_555
Na10 S10 2.728399 1_545
Na10 S12 2.731410 1_556
Na10 S25 2.992445 1_545
Na11 S6 2.867972 1_655
Na11 S5 2.875301 1_555
Na11 S7 2.877324 1_655
Na11 S27 2.942193 1_555
Na11 S19 3.129366 1_655
Na11 S18 3.238577 1_555
Na12 S29 2.718377 1_555
Na12 S21 2.728399 1_555
Na12 S18 2.731410 1_555
Na12 S8 2.992445 1_555
Na13 S14 2.846644 1_555
Na13 S28 2.891073 1_655
Na13 S15 2.897422 1_545
Na13 S17 2.907719 1_555
Na14 S17 2.718377 1_455
Na14 S26 2.728399 1_545
Na14 S7 2.731410 1_555
Na14 S0 2.992445 1_445
Na15 S2 2.718377 1_555
Na15 S19 2.728399 1_555
Na15 S8 2.731410 1_555
Na15 S18 2.992445 1_555
Na16 S23 2.734233 1_555
Na16 S22 2.736303 1_555
Na16 S4 2.742143 1_555
Na16 S16 2.822831 1_555
Na17 S27 2.867972 1_555
Na17 S19 2.875301 1_555
Na17 S18 2.877324 1_555
Na17 S6 2.942193 1_555
Na17 S5 3.129366 1_555
Na17 S7 3.238577 1_555
Na18 S10 2.846644 1_555
Na18 S3 2.891073 1_455
Na18 S6 2.897422 1_565
Na18 S13 2.907719 1_555
Na19 S1 2.718377 1_655
Na19 S11 2.728399 1_555
Na19 S9 2.731410 1_556
Na19 S31 2.992445 1_655
Na20 S23 2.867972 1_555
Na20 S21 2.875301 1_555
Na20 S8 2.877324 1_555
Na20 S15 2.942193 1_555
Na20 S26 3.129366 1_555
Na20 S0 3.238577 1_555
Na21 S11 2.883965 1_554
Na21 S31 2.905355 1_554
Na21 S4 2.915810 1_555
Na21 S25 2.956940 1_554
Na22 S20 2.734233 1_555
Na22 S13 2.736303 1_555
Na22 S2 2.742143 1_455
Na22 S19 2.822831 1_555
Na23 S28 2.867972 1_555
Na23 S14 2.875301 1_555
Na23 S12 2.877324 1_555
Na23 S30 2.942193 1_555
Na23 S16 3.129366 1_555
Na23 S9 3.238577 1_555
Na24 S21 2.846644 1_555
Na24 S23 2.891073 1_655
Na24 S30 2.897422 1_555
Na24 S4 2.907719 1_555
Na25 S11 2.846644 1_555
Na25 S20 2.891073 1_555
Na25 S27 2.897422 1_555
Na25 S2 2.907719 1_555
Na26 S15 2.734233 1_555
Na26 S4 2.736303 1_555
Na26 S22 2.742143 1_655
Na26 S14 2.822831 1_565
Na27 S26 2.846644 1_555
Na27 S15 2.891073 1_555
Na27 S28 2.897422 1_565
Na27 S22 2.907719 1_555
Na28 S4 2.718377 1_455
Na28 S16 2.728399 1_555
Na28 S31 2.731410 1_554
Na28 S9 2.992445 1_455
Na29 S16 2.883965 1_556
Na29 S9 2.905355 1_556
Na29 S1 2.915810 1_555
Na29 S12 2.956940 1_556
Na30 S15 2.867972 1_455
Na30 S26 2.875301 1_555
Na30 S0 2.877324 1_455
Na30 S23 2.942193 1_555
Na30 S21 3.129366 1_455
Na30 S8 3.238577 1_555
Na31 S19 2.883965 1_555
Na31 S18 2.905355 1_455
Na31 S29 2.915810 1_555
Na31 S7 2.956940 1_555
Na32 S21 2.883965 1_555
Na32 S8 2.905355 1_655
Na32 S2 2.915810 1_555
Na32 S0 2.956940 1_555
Na33 S19 2.846644 1_555
Na33 S27 2.891073 1_455
Na33 S20 2.897422 1_555
Na33 S1 2.907719 1_555
Na34 S26 2.883965 1_555
Na34 S0 2.905355 1_555
Na34 S13 2.915810 1_555
Na34 S8 2.956940 1_555
Na35 S5 2.846644 1_555
Na35 S6 2.891073 1_555
Na35 S3 2.897422 1_545
Na35 S24 2.907719 1_555
Na36 S3 2.867972 1_555
Na36 S10 2.875301 1_555
Na36 S25 2.877324 1_555
Na36 S20 2.942193 1_555
Na36 S11 3.129366 1_555
Na36 S31 3.238577 1_555
Na37 S27 2.734233 1_555
Na37 S24 2.736303 1_555
Na37 S1 2.742143 1_555
Na37 S11 2.822831 1_555
Na38 S13 2.718377 1_655
Na38 S5 2.728399 1_565
Na38 S0 2.731410 1_555
Na38 S7 2.992445 1_665
Na39 S3 2.734233 1_555
Na39 S2 2.736303 1_555
Na39 S13 2.742143 1_555
Na39 S5 2.822831 1_565
Fe0 S20 2.285144 1_555
Fe0 S31 2.286436 1_555
Fe0 S11 2.288157 1_555
Fe0 S1 2.298231 1_555
Fe0 Na36 3.073582 1_555
Fe1 S6 2.285144 1_555
Fe1 S7 2.286436 1_555
Fe1 S5 2.288157 1_555
Fe1 S13 2.298231 1_545
Fe1 Na17 3.073582 1_555
Fe2 S28 2.285144 1_555
Fe2 S12 2.286436 1_555
Fe2 S14 2.288157 1_455
Fe2 S22 2.298231 1_545
Fe2 Na0 3.073582 1_555
Fe3 S30 2.285144 1_555
Fe3 S9 2.286436 1_555
Fe3 S16 2.288157 1_555
Fe3 S4 2.298231 1_555
Fe3 Na23 3.073582 1_555
Fe4 S23 2.285144 1_555
Fe4 S8 2.286436 1_555
Fe4 S21 2.288157 1_455
Fe4 S29 2.298231 1_555
Fe4 Na30 3.073582 1_555
Fe5 S3 2.285144 1_555
Fe5 S25 2.286436 1_555
Fe5 S10 2.288157 1_655
Fe5 S24 2.298231 1_565
Fe5 Na8 3.073582 1_555
Fe6 S27 2.285144 1_555
Fe6 S18 2.286436 1_555
Fe6 S19 2.288157 1_655
Fe6 S2 2.298231 1_555
Fe6 Na11 3.073582 1_555
Fe7 S15 2.285144 1_555
Fe7 S0 2.286436 1_555
Fe7 S26 2.288157 1_555
Fe7 S17 2.298231 1_565
Fe7 Na20 3.073582 1_555
