# generated using pymatgen
data_Tb2In16Pt7
_symmetry_space_group_name_H-M   'P 1'
_cell_length_a   11.87147378
_cell_length_b   11.87147378
_cell_length_c   4.46615000
_cell_angle_alpha   90.00000000
_cell_angle_beta   90.00000000
_cell_angle_gamma   117.25660567
_symmetry_Int_Tables_number   1
_chemical_formula_structural   Tb2In16Pt7
_chemical_formula_sum   'Tb2 In16 Pt7'
_cell_volume   559.53456991
_cell_formula_units_Z   1
loop_
 _symmetry_equiv_pos_site_id
 _symmetry_equiv_pos_as_xyz
  1  'x, y, z'
loop_
 _atom_site_type_symbol
 _atom_site_label
 _atom_site_symmetry_multiplicity
 _atom_site_fract_x
 _atom_site_fract_y
 _atom_site_fract_z
 _atom_site_occupancy
  Tb  Tb0  1  0.83118600  0.83118600  0.50000000  1
  Tb  Tb1  1  0.16881400  0.16881400  0.50000000  1
  In  In0  1  0.14129200  0.58830300  0.00000000  1
  In  In1  1  0.36783400  0.36783400  0.00000000  1
  In  In2  1  0.58830300  0.14129200  0.00000000  1
  In  In3  1  0.25653400  0.48285700  0.50000000  1
  In  In4  1  0.74346600  0.51714300  0.50000000  1
  In  In5  1  0.85870800  0.41169700  0.00000000  1
  In  In6  1  0.96166900  0.28722100  0.50000000  1
  In  In7  1  0.28722100  0.96166900  0.50000000  1
  In  In8  1  0.71277900  0.03833100  0.50000000  1
  In  In9  1  0.63216600  0.63216600  0.00000000  1
  In  In10  1  0.48285700  0.25653400  0.50000000  1
  In  In11  1  0.92691400  0.07308600  0.00000000  1
  In  In12  1  0.51714300  0.74346600  0.50000000  1
  In  In13  1  0.03833100  0.71277900  0.50000000  1
  In  In14  1  0.07308600  0.92691400  0.00000000  1
  In  In15  1  0.41169700  0.85870800  0.00000000  1
  Pt  Pt0  1  0.88437200  0.66664000  0.00000000  1
  Pt  Pt1  1  0.66664000  0.88437200  0.00000000  1
  Pt  Pt2  1  0.11562800  0.33336000  0.00000000  1
  Pt  Pt3  1  0.27566500  0.72433500  0.50000000  1
  Pt  Pt4  1  0.72433500  0.27566500  0.50000000  1
  Pt  Pt5  1  0.50000000  0.50000000  0.50000000  1
  Pt  Pt6  1  0.33336000  0.11562800  0.00000000  1
loop_
_geom_bond_atom_site_label_1
_geom_bond_atom_site_label_2
_geom_bond_distance
_geom_bond_site_symmetry_2
In0 Pt3 2.789198 1_555
In0 Pt3 2.789198 1_554
In0 Pt2 2.899694 1_555
In0 In5 3.034360 1_455
In0 In3 3.161320 1_554
In0 In3 3.161320 1_555
In0 In13 3.212270 1_555
In0 In13 3.212270 1_554
In0 In15 3.342285 1_555
In1 Pt5 2.766822 1_555
In1 Pt5 2.766822 1_554
In1 Pt2 2.830109 1_555
In1 Pt6 2.830109 1_555
In1 In10 3.201499 1_555
In1 In3 3.201499 1_554
In1 In10 3.201499 1_554
In1 In3 3.201499 1_555
In1 In9 3.267221 1_555
In1 Tb1 3.322342 1_554
In1 Tb1 3.322342 1_555
In2 Pt4 2.789198 1_554
In2 Pt4 2.789198 1_555
In2 Pt6 2.899694 1_555
In2 In8 3.212270 1_554
In2 In8 3.212270 1_555
In2 In5 3.342285 1_555
In3 Pt3 2.770055 1_555
In3 Pt5 2.802941 1_555
In3 Pt2 2.866230 1_556
In3 Pt2 2.866230 1_555
In3 In6 3.193867 1_455
In3 Tb1 3.380459 1_555
In4 Pt4 2.770055 1_555
In4 Pt5 2.802941 1_555
In4 Pt0 2.866230 1_556
In4 Pt0 2.866230 1_555
In4 In5 3.161320 1_555
In4 In5 3.161320 1_556
In4 In9 3.201499 1_555
In4 In9 3.201499 1_556
In4 Tb0 3.380459 1_555
In5 Pt4 2.789198 1_555
In5 Pt4 2.789198 1_554
In5 Pt0 2.899694 1_555
In5 In6 3.212270 1_554
In5 In6 3.212270 1_555
In6 Pt4 2.757374 1_555
In6 Pt2 2.776730 1_655
In6 Pt2 2.776730 1_656
In6 In8 3.076353 1_555
In6 Tb1 3.345044 1_655
In7 Pt3 2.757374 1_555
In7 Pt6 2.776730 1_566
In7 Pt6 2.776730 1_565
In7 Tb1 3.345044 1_565
In8 Pt4 2.757374 1_555
In8 Pt1 2.776730 1_546
In8 Pt1 2.776730 1_545
In8 Tb0 3.345044 1_545
In9 Pt5 2.766822 1_555
In9 Pt5 2.766822 1_554
In9 Pt1 2.830109 1_555
In9 Pt0 2.830109 1_555
In9 Tb0 3.322342 1_555
In9 Tb0 3.322342 1_554
In10 Pt4 2.770055 1_555
In10 Pt5 2.802941 1_555
In10 Pt6 2.866230 1_556
In10 Pt6 2.866230 1_555
In10 In2 3.161320 1_555
In10 In2 3.161320 1_556
In10 In7 3.193867 1_545
In10 In4 3.221203 1_555
In10 Tb1 3.380459 1_555
In11 Pt1 2.868045 1_545
In11 Pt2 2.868045 1_655
In11 In14 2.963187 1_645
In11 In6 3.264724 1_554
In11 In6 3.264724 1_555
In11 In8 3.264724 1_554
In11 In8 3.264724 1_555
In11 Tb0 3.396410 1_545
In11 Tb0 3.396410 1_544
In11 Tb1 3.396410 1_655
In11 Tb1 3.396410 1_654
In12 Pt3 2.770055 1_555
In12 Pt5 2.802941 1_555
In12 Pt1 2.866230 1_555
In12 Pt1 2.866230 1_556
In12 In15 3.161320 1_556
In12 In15 3.161320 1_555
In12 In8 3.193867 1_565
In12 In9 3.201499 1_555
In12 In9 3.201499 1_556
In12 In3 3.221203 1_555
In12 Tb0 3.380459 1_555
In13 Pt3 2.757374 1_555
In13 Pt0 2.776730 1_456
In13 Pt0 2.776730 1_455
In13 In7 3.076353 1_555
In13 In4 3.193867 1_455
In13 In14 3.264724 1_556
In13 In14 3.264724 1_555
In13 Tb0 3.345044 1_455
In14 Pt0 2.868045 1_455
In14 Pt6 2.868045 1_565
In14 In7 3.264724 1_554
In14 In7 3.264724 1_555
In14 Tb0 3.396410 1_454
In14 Tb0 3.396410 1_455
In14 Tb1 3.396410 1_565
In14 Tb1 3.396410 1_564
In15 Pt3 2.789198 1_555
In15 Pt3 2.789198 1_554
In15 Pt1 2.899694 1_555
In15 In2 3.034360 1_565
In15 In7 3.212270 1_554
In15 In7 3.212270 1_555
Pt0 Tb0 3.214153 1_555
Pt0 Tb0 3.214153 1_554
Pt1 Tb0 3.214153 1_555
Pt1 Tb0 3.214153 1_554
Pt2 Tb1 3.214153 1_554
Pt2 Tb1 3.214153 1_555
Pt6 Tb1 3.214153 1_554
Pt6 Tb1 3.214153 1_555
