# generated using pymatgen
data_AsS
_symmetry_space_group_name_H-M   'P 1'
_cell_length_a   7.34257294
_cell_length_b   10.26176235
_cell_length_c   11.37036161
_cell_angle_alpha   90.00000000
_cell_angle_beta   92.97224936
_cell_angle_gamma   90.00000000
_symmetry_Int_Tables_number   1
_chemical_formula_structural   AsS
_chemical_formula_sum   'As16 S16'
_cell_volume   855.57852979
_cell_formula_units_Z   16
loop_
 _symmetry_equiv_pos_site_id
 _symmetry_equiv_pos_as_xyz
  1  'x, y, z'
loop_
 _atom_site_type_symbol
 _atom_site_label
 _atom_site_symmetry_multiplicity
 _atom_site_fract_x
 _atom_site_fract_y
 _atom_site_fract_z
 _atom_site_occupancy
  As  As0  1  0.19401925  0.84495473  0.49853716  1
  As  As1  1  0.30598075  0.34495473  0.00146284  1
  As  As2  1  0.80598075  0.15504527  0.50146284  1
  As  As3  1  0.69401925  0.65504527  -0.00146284  1
  As  As4  1  0.50209983  0.64974230  0.32398600  1
  As  As5  1  0.99790017  0.14974230  0.17601400  1
  As  As6  1  0.49790017  0.35025770  0.67601400  1
  As  As7  1  0.00209983  0.85025770  0.82398600  1
  As  As8  1  0.04934852  0.62147012  0.25760589  1
  As  As9  1  0.45065148  0.12147012  0.24239411  1
  As  As10  1  0.95065148  0.37852988  0.74239411  1
  As  As11  1  0.54934852  0.87852988  0.75760589  1
  As  As12  1  0.25756346  0.51623637  0.41535520  1
  As  As13  1  0.24243654  0.01623637  0.08464480  1
  As  As14  1  0.74243654  0.48376363  0.58464480  1
  As  As15  1  0.75756346  0.98376363  0.91535520  1
  S  S0  1  0.46862854  0.84013659  0.41913672  1
  S  S1  1  0.03137146  0.34013659  0.08086328  1
  S  S2  1  0.53137146  0.15986341  0.58086328  1
  S  S3  1  0.96862854  0.65986341  0.91913672  1
  S  S4  1  0.30847000  0.66068313  0.16196201  1
  S  S5  1  0.19153000  0.16068313  0.33803799  1
  S  S6  1  0.69153000  0.33931687  0.83803799  1
  S  S7  1  0.80847000  0.83931687  0.66196201  1
  S  S8  1  0.99039409  0.81087290  0.34691208  1
  S  S9  1  0.50960591  0.31087290  0.15308792  1
  S  S10  1  0.00960591  0.18912710  0.65308792  1
  S  S11  1  0.49039409  0.68912710  0.84691208  1
  S  S12  1  0.20063094  0.63701634  0.56874458  1
  S  S13  1  0.29936906  0.13701634  0.93125542  1
  S  S14  1  0.79936906  0.36298366  0.43125542  1
  S  S15  1  0.70063094  0.86298366  0.06874458  1
loop_
_geom_bond_atom_site_label_1
_geom_bond_atom_site_label_2
_geom_bond_distance
_geom_bond_site_symmetry_2
As0 S8 2.250047 1_455
As0 S0 2.252092 1_555
As0 S12 2.277885 1_555
As1 S9 2.250047 1_555
As1 S1 2.252092 1_555
As1 S13 2.277885 1_554
As2 S10 2.250047 1_655
As2 S2 2.252092 1_555
As2 S14 2.277885 1_555
As3 S11 2.250047 1_554
As3 S3 2.252092 1_554
As3 S15 2.277885 1_555
As4 S0 2.252940 1_555
As4 S4 2.270747 1_555
As5 S1 2.252940 1_655
As5 S5 2.270747 1_655
As6 S2 2.252940 1_555
As6 S6 2.270747 1_555
As7 S3 2.252940 1_455
As7 S7 2.270747 1_455
As8 S8 2.245373 1_455
As8 S4 2.275768 1_555
As9 S9 2.245373 1_555
As9 S5 2.275768 1_555
As10 S10 2.245373 1_655
As10 S6 2.275768 1_555
As11 S11 2.245373 1_555
As11 S7 2.275768 1_555
As12 S12 2.197355 1_555
As13 S13 2.197355 1_554
As14 S14 2.197355 1_555
As15 S15 2.197355 1_556
