# generated using pymatgen
data_RbScAs2O7
_symmetry_space_group_name_H-M   'P 1'
_cell_length_a   10.79834300
_cell_length_b   7.97333400
_cell_length_c   8.93610880
_cell_angle_alpha   73.48259286
_cell_angle_beta   90.00000000
_cell_angle_gamma   90.00000000
_symmetry_Int_Tables_number   1
_chemical_formula_structural   RbScAs2O7
_chemical_formula_sum   'Rb4 Sc4 As8 O28'
_cell_volume   737.63817025
_cell_formula_units_Z   4
loop_
 _symmetry_equiv_pos_site_id
 _symmetry_equiv_pos_as_xyz
  1  'x, y, z'
loop_
 _atom_site_type_symbol
 _atom_site_label
 _atom_site_symmetry_multiplicity
 _atom_site_fract_x
 _atom_site_fract_y
 _atom_site_fract_z
 _atom_site_occupancy
  Rb  Rb0  1  0.18023900  0.82765100  0.55004000  1
  Rb  Rb1  1  0.31976100  0.82765100  0.05004000  1
  Rb  Rb2  1  0.81976100  0.17234900  0.44996000  1
  Rb  Rb3  1  0.68023900  0.17234900  0.94996000  1
  Sc  Sc0  1  0.40032900  0.23564800  0.23571000  1
  Sc  Sc1  1  0.59967100  0.76435200  0.76429000  1
  Sc  Sc2  1  0.09967100  0.23564800  0.73571000  1
  Sc  Sc3  1  0.90032900  0.76435200  0.26429000  1
  As  As0  1  0.09208000  0.13818200  0.16531500  1
  As  As1  1  0.86188300  0.55734000  0.69059700  1
  As  As2  1  0.90792000  0.86181800  0.83468500  1
  As  As3  1  0.59208000  0.86181800  0.33468500  1
  As  As4  1  0.36188300  0.44266000  0.80940300  1
  As  As5  1  0.63811700  0.55734000  0.19059700  1
  As  As6  1  0.13811700  0.44266000  0.30940300  1
  As  As7  1  0.40792000  0.13818200  0.66531500  1
  O  O0  1  0.28818700  0.45231700  0.24817400  1
  O  O1  1  0.95053700  0.64885700  0.82016700  1
  O  O2  1  0.89154500  0.69091400  0.50967200  1
  O  O3  1  0.71181300  0.54768300  0.75182600  1
  O  O4  1  0.23525600  0.08607100  0.24537000  1
  O  O5  1  0.76474400  0.91392900  0.75463000  1
  O  O6  1  0.51313000  0.99970400  0.77829200  1
  O  O7  1  0.01313000  0.00029600  0.72170800  1
  O  O8  1  0.54946300  0.64885700  0.32016700  1
  O  O9  1  0.08731300  0.14854100  0.97504600  1
  O  O10  1  0.10845500  0.30908600  0.49032800  1
  O  O11  1  0.73525600  0.91392900  0.25463000  1
  O  O12  1  0.08079700  0.64810600  0.27797700  1
  O  O13  1  0.58079700  0.35189400  0.22202300  1
  O  O14  1  0.91268700  0.85145900  0.02495400  1
  O  O15  1  0.98687000  0.99970400  0.27829200  1
  O  O16  1  0.78818700  0.54768300  0.25182600  1
  O  O17  1  0.21181300  0.45231700  0.74817400  1
  O  O18  1  0.39154500  0.30908600  0.99032800  1
  O  O19  1  0.60845500  0.69091400  0.00967200  1
  O  O20  1  0.41920300  0.64810600  0.77797700  1
  O  O21  1  0.91920300  0.35189400  0.72202300  1
  O  O22  1  0.26474400  0.08607100  0.74537000  1
  O  O23  1  0.41268700  0.14854100  0.47504600  1
  O  O24  1  0.48687000  0.00029600  0.22170800  1
  O  O25  1  0.45053700  0.35114300  0.67983300  1
  O  O26  1  0.04946300  0.35114300  0.17983300  1
  O  O27  1  0.58731300  0.85145900  0.52495400  1
loop_
_geom_bond_atom_site_label_1
_geom_bond_atom_site_label_2
_geom_bond_distance
_geom_bond_site_symmetry_2
As0 O9 1.679440 1_554
As0 O15 1.701535 1_445
As0 O4 1.704613 1_555
As0 O26 1.799195 1_555
As1 O2 1.694613 1_555
As1 O21 1.698158 1_555
As1 O3 1.705107 1_555
As1 O1 1.808298 1_555
As2 O14 1.679440 1_556
As2 O7 1.701535 1_665
As2 O5 1.704613 1_555
As2 O1 1.799195 1_555
As3 O27 1.679440 1_555
As3 O24 1.701535 1_565
As3 O11 1.704613 1_555
As3 O8 1.799195 1_555
As4 O18 1.694613 1_555
As4 O20 1.698158 1_555
As4 O17 1.705107 1_555
As4 O25 1.808298 1_555
As5 O19 1.694613 1_555
As5 O13 1.698158 1_555
As5 O16 1.705107 1_555
As5 O8 1.808298 1_555
As6 O10 1.694613 1_555
As6 O12 1.698158 1_555
As6 O0 1.705107 1_555
As6 O26 1.808298 1_555
As7 O23 1.679440 1_555
As7 O6 1.701535 1_545
As7 O22 1.704613 1_555
As7 O25 1.799195 1_555
O0 Sc0 2.138393 1_555
O0 Rb1 3.032199 1_555
O1 Rb0 3.472003 1_655
O2 Sc3 2.104752 1_555
O2 Rb0 3.355695 1_655
O3 Sc1 2.138393 1_555
O3 Rb3 3.032199 1_555
O4 Sc0 2.132752 1_555
O4 Rb0 2.970025 1_545
O4 Rb1 3.189041 1_545
O5 Sc1 2.132752 1_555
O5 Rb2 2.970025 1_565
O5 Rb3 3.189041 1_565
O6 Sc1 2.131633 1_555
O6 Rb3 2.950451 1_565
O6 Rb1 3.200733 1_556
O7 Sc2 2.131633 1_555
O7 Rb0 2.950451 1_545
O7 Rb2 3.200733 1_455
O8 Rb1 3.472003 1_555
O9 Sc2 2.056631 1_555
O9 Rb1 3.510094 1_546
O10 Sc2 2.104752 1_555
O10 Rb2 3.355695 1_455
O11 Sc3 2.132752 1_555
O11 Rb3 2.970025 1_564
O11 Rb2 3.189041 1_565
O12 Sc3 2.146446 1_455
O12 Rb0 3.330486 1_555
O12 Rb1 3.346453 1_555
O13 Sc0 2.146446 1_555
O13 Rb3 3.330486 1_554
O13 Rb2 3.346453 1_555
O14 Sc3 2.056631 1_555
O14 Rb3 3.510094 1_564
O15 Sc3 2.131633 1_555
O15 Rb2 2.950451 1_565
O15 Rb0 3.200733 1_655
O16 Sc3 2.138393 1_555
O16 Rb2 3.032199 1_555
O17 Sc2 2.138393 1_555
O17 Rb0 3.032199 1_555
O18 Sc0 2.104752 1_556
O18 Rb3 3.355695 1_555
O19 Sc1 2.104752 1_554
O19 Rb1 3.355695 1_555
O20 Sc1 2.146446 1_555
O20 Rb1 3.330486 1_556
O20 Rb0 3.346453 1_555
O21 Sc2 2.146446 1_655
O21 Rb2 3.330486 1_555
O21 Rb3 3.346453 1_555
O22 Sc2 2.132752 1_555
O22 Rb1 2.970025 1_546
O22 Rb0 3.189041 1_545
O23 Sc0 2.056631 1_555
O23 Rb0 3.510094 1_545
O24 Sc0 2.131633 1_555
O24 Rb1 2.950451 1_545
O24 Rb3 3.200733 1_554
O25 Rb3 3.472003 1_555
O26 Rb2 3.472003 1_455
O27 Sc1 2.056631 1_555
O27 Rb2 3.510094 1_565
