# generated using pymatgen
data_Ce4Ru3
_symmetry_space_group_name_H-M   'P 1'
_cell_length_a   7.90465772
_cell_length_b   7.90465772
_cell_length_c   5.92475331
_cell_angle_alpha   76.72602892
_cell_angle_beta   76.72602892
_cell_angle_gamma   114.06481699
_symmetry_Int_Tables_number   1
_chemical_formula_structural   Ce4Ru3
_chemical_formula_sum   'Ce8 Ru6'
_cell_volume   306.45974849
_cell_formula_units_Z   2
loop_
 _symmetry_equiv_pos_site_id
 _symmetry_equiv_pos_as_xyz
  1  'x, y, z'
loop_
 _atom_site_type_symbol
 _atom_site_label
 _atom_site_symmetry_multiplicity
 _atom_site_fract_x
 _atom_site_fract_y
 _atom_site_fract_z
 _atom_site_occupancy
  Ce  Ce0  1  0.88512458  0.61515109  0.15809983  1
  Ce  Ce1  1  0.35259739  0.35259739  0.27111786  1
  Ce  Ce2  1  0.11487542  0.38484891  0.84190017  1
  Ce  Ce3  1  0.38484891  0.11487542  0.84190017  1
  Ce  Ce4  1  0.16386564  0.83613436  0.50000000  1
  Ce  Ce5  1  0.64740261  0.64740261  0.72888214  1
  Ce  Ce6  1  0.83613436  0.16386564  0.50000000  1
  Ce  Ce7  1  0.61515109  0.88512458  0.15809983  1
  Ru  Ru0  1  0.82984545  0.42616021  0.74834592  1
  Ru  Ru1  1  0.98783266  0.98783266  0.25805027  1
  Ru  Ru2  1  0.42616021  0.82984545  0.74834592  1
  Ru  Ru3  1  0.57383979  0.17015455  0.25165408  1
  Ru  Ru4  1  0.01216734  0.01216734  0.74194973  1
  Ru  Ru5  1  0.17015455  0.57383979  0.25165408  1
loop_
_geom_bond_atom_site_label_1
_geom_bond_atom_site_label_2
_geom_bond_distance
_geom_bond_site_symmetry_2
Ce0 Ru5 2.565261 1_655
Ce0 Ru1 2.959665 1_555
Ce0 Ru4 3.110607 1_664
Ce0 Ru0 3.152239 1_554
Ce0 Ru3 3.186618 1_555
Ce0 Ru0 3.319485 1_555
Ce1 Ru5 2.681823 1_555
Ce1 Ru3 2.681823 1_555
Ce1 Ru4 3.076434 1_555
Ce1 Ru1 3.171468 1_445
Ce2 Ru0 2.565261 1_455
Ce2 Ru4 2.959665 1_555
Ce2 Ru1 3.110607 1_446
Ce2 Ru5 3.152239 1_556
Ce2 Ru2 3.186618 1_555
Ce2 Ru5 3.319485 1_555
Ce3 Ru2 2.565261 1_545
Ce3 Ru4 2.959665 1_555
Ce3 Ru1 3.110607 1_446
Ce3 Ru3 3.152239 1_556
Ce3 Ru0 3.186618 1_555
Ce3 Ru3 3.319485 1_555
Ce4 Ru1 2.629908 1_455
Ce4 Ru4 2.629908 1_565
Ce4 Ru5 2.813828 1_555
Ce4 Ru2 2.813828 1_555
Ce4 Ru3 2.947296 1_565
Ce4 Ru0 2.947296 1_455
Ce5 Ru0 2.681823 1_555
Ce5 Ru2 2.681823 1_555
Ce5 Ru1 3.076434 1_555
Ce5 Ru4 3.171468 1_665
Ce6 Ru1 2.629908 1_545
Ce6 Ru4 2.629908 1_655
Ce6 Ru3 2.813828 1_555
Ce6 Ru0 2.813828 1_555
Ce6 Ru5 2.947296 1_655
Ce6 Ru2 2.947296 1_545
Ce7 Ru3 2.565261 1_565
Ce7 Ru1 2.959665 1_555
Ce7 Ru4 3.110607 1_664
Ce7 Ru2 3.152239 1_554
Ce7 Ru5 3.186618 1_555
Ce7 Ru2 3.319485 1_555
