# generated using pymatgen
data_BaWO4
_symmetry_space_group_name_H-M   'P 1'
_cell_length_a   7.29019800
_cell_length_b   7.63204800
_cell_length_c   15.00109912
_cell_angle_alpha   63.82200151
_cell_angle_beta   90.00000000
_cell_angle_gamma   90.00000000
_symmetry_Int_Tables_number   1
_chemical_formula_structural   BaWO4
_chemical_formula_sum   'Ba8 W8 O32'
_cell_volume   749.03659524
_cell_formula_units_Z   8
loop_
 _symmetry_equiv_pos_site_id
 _symmetry_equiv_pos_as_xyz
  1  'x, y, z'
loop_
 _atom_site_type_symbol
 _atom_site_label
 _atom_site_symmetry_multiplicity
 _atom_site_fract_x
 _atom_site_fract_y
 _atom_site_fract_z
 _atom_site_occupancy
  Ba  Ba0  1  0.84076700  0.99721700  0.66000900  1
  Ba  Ba1  1  0.34076700  0.00278300  0.83999100  1
  Ba  Ba2  1  0.15923300  0.00278300  0.33999100  1
  Ba  Ba3  1  0.65923300  0.99721700  0.16000900  1
  Ba  Ba4  1  0.56419300  0.49107000  0.64862600  1
  Ba  Ba5  1  0.06419300  0.50893000  0.85137400  1
  Ba  Ba6  1  0.43580700  0.50893000  0.35137400  1
  Ba  Ba7  1  0.93580700  0.49107000  0.14862600  1
  W  W0  1  0.34039200  0.01300900  0.57782300  1
  W  W1  1  0.84039200  0.98699100  0.92217700  1
  W  W2  1  0.65960800  0.98699100  0.42217700  1
  W  W3  1  0.15960800  0.01300900  0.07782300  1
  W  W4  1  0.05060200  0.58371100  0.57903000  1
  W  W5  1  0.55060200  0.41628900  0.92097000  1
  W  W6  1  0.94939800  0.41628900  0.42097000  1
  W  W7  1  0.44939800  0.58371100  0.07903000  1
  O  O0  1  0.47730900  0.18113900  0.60863200  1
  O  O1  1  0.97730900  0.81886100  0.89136800  1
  O  O2  1  0.52269100  0.81886100  0.39136800  1
  O  O3  1  0.02269100  0.18113900  0.10863200  1
  O  O4  1  0.91295000  0.62129200  0.67221100  1
  O  O5  1  0.41295000  0.37870800  0.82778900  1
  O  O6  1  0.08705000  0.37870800  0.32778900  1
  O  O7  1  0.58705000  0.62129200  0.17221100  1
  O  O8  1  0.86528400  0.41798100  0.55508000  1
  O  O9  1  0.36528400  0.58201900  0.94492000  1
  O  O10  1  0.13471600  0.58201900  0.44492000  1
  O  O11  1  0.63471600  0.41798100  0.05508000  1
  O  O12  1  0.24913500  0.86450700  0.70449400  1
  O  O13  1  0.74913500  0.13549300  0.79550600  1
  O  O14  1  0.75086500  0.13549300  0.29550600  1
  O  O15  1  0.25086500  0.86450700  0.20449400  1
  O  O16  1  0.22381300  0.79002800  0.54450800  1
  O  O17  1  0.72381300  0.20997200  0.95549200  1
  O  O18  1  0.77618700  0.20997200  0.45549200  1
  O  O19  1  0.27618700  0.79002800  0.04450800  1
  O  O20  1  0.19183900  0.38755100  0.66472000  1
  O  O21  1  0.69183900  0.61244900  0.83528000  1
  O  O22  1  0.80816100  0.61244900  0.33528000  1
  O  O23  1  0.30816100  0.38755100  0.16472000  1
  O  O24  1  0.13027300  0.16832200  0.52537300  1
  O  O25  1  0.63027300  0.83167800  0.97462700  1
  O  O26  1  0.86972700  0.83167800  0.47462700  1
  O  O27  1  0.36972700  0.16832200  0.02537300  1
  O  O28  1  0.57299000  0.87309800  0.57545900  1
  O  O29  1  0.07299000  0.12690200  0.92454100  1
  O  O30  1  0.42701000  0.12690200  0.42454100  1
  O  O31  1  0.92701000  0.87309800  0.07545900  1
loop_
_geom_bond_atom_site_label_1
_geom_bond_atom_site_label_2
_geom_bond_distance
_geom_bond_site_symmetry_2
Ba0 O28 2.716065 1_555
Ba0 O13 2.753921 1_565
Ba0 O18 2.806299 1_565
Ba0 O24 2.812794 1_665
Ba0 O4 2.842299 1_555
Ba0 O8 2.891724 1_565
Ba0 O0 2.937796 1_565
Ba0 O12 3.120553 1_655
Ba0 O21 3.146871 1_555
Ba0 O1 3.274256 1_555
Ba1 O29 2.716065 1_555
Ba1 O12 2.753921 1_545
Ba1 O19 2.806299 1_546
Ba1 O25 2.812794 1_545
Ba1 O5 2.842299 1_555
Ba1 O9 2.891724 1_545
Ba1 O1 2.937796 1_445
Ba1 O13 3.120553 1_555
Ba1 O20 3.146871 1_555
Ba1 O0 3.274256 1_555
Ba2 O30 2.716065 1_555
Ba2 O15 2.753921 1_545
Ba2 O16 2.806299 1_545
Ba2 O26 2.812794 1_445
Ba2 O6 2.842299 1_555
Ba2 O10 2.891724 1_545
Ba2 O2 2.937796 1_545
Ba2 O14 3.120553 1_455
Ba2 O23 3.146871 1_555
Ba2 O3 3.274256 1_555
Ba3 O31 2.716065 1_555
Ba3 O14 2.753921 1_565
Ba3 O17 2.806299 1_564
Ba3 O27 2.812794 1_565
Ba3 O7 2.842299 1_555
Ba3 O11 2.891724 1_565
Ba3 O3 2.937796 1_665
Ba3 O15 3.120553 1_555
Ba3 O22 3.146871 1_555
Ba3 O2 3.274256 1_555
Ba4 O28 2.624169 1_555
Ba4 O5 2.672256 1_555
Ba4 O0 2.758339 1_555
Ba4 O8 2.790903 1_555
Ba4 O20 2.807648 1_555
Ba4 O4 2.808474 1_555
Ba4 O13 2.959971 1_555
Ba5 O29 2.624169 1_555
Ba5 O4 2.672256 1_455
Ba5 O1 2.758339 1_455
Ba5 O9 2.790903 1_555
Ba5 O21 2.807648 1_455
Ba5 O5 2.808474 1_555
Ba5 O12 2.959971 1_555
Ba6 O30 2.624169 1_555
Ba6 O7 2.672256 1_555
Ba6 O2 2.758339 1_555
Ba6 O10 2.790903 1_555
Ba6 O22 2.807648 1_555
Ba6 O6 2.808474 1_555
Ba6 O15 2.959971 1_555
Ba7 O31 2.624169 1_555
Ba7 O6 2.672256 1_655
Ba7 O3 2.758339 1_655
Ba7 O11 2.790903 1_555
Ba7 O23 2.807648 1_655
Ba7 O7 2.808474 1_555
Ba7 O14 2.959971 1_555
O0 W0 1.838397 1_555
O1 W1 1.838397 1_555
O2 W2 1.838397 1_555
O3 W3 1.838397 1_555
O4 W4 1.843078 1_655
O5 W5 1.843078 1_555
O6 W6 1.843078 1_455
O7 W7 1.843078 1_555
O8 W4 1.988748 1_655
O8 W6 2.108659 1_555
O9 W5 1.988748 1_555
O9 W7 2.108659 1_556
O10 W6 1.988748 1_455
O10 W4 2.108659 1_555
O11 W7 1.988748 1_555
O11 W5 2.108659 1_554
O12 W0 1.854105 1_565
O13 W1 1.854105 1_545
O14 W2 1.854105 1_545
O15 W3 1.854105 1_565
O16 W4 1.903326 1_555
O16 W0 2.149094 1_565
O17 W5 1.903326 1_555
O17 W1 2.149094 1_545
O18 W6 1.903326 1_555
O18 W2 2.149094 1_545
O19 W7 1.903326 1_555
O19 W3 2.149094 1_565
O20 W4 1.804404 1_555
O21 W5 1.804404 1_555
O22 W6 1.804404 1_555
O23 W7 1.804404 1_555
O24 W0 1.883528 1_555
O24 W6 2.271119 1_455
O25 W1 1.883528 1_555
O25 W7 2.271119 1_556
O26 W2 1.883528 1_555
O26 W4 2.271119 1_655
O27 W3 1.883528 1_555
O27 W5 2.271119 1_554
O28 W0 2.012519 1_565
O28 W2 2.162876 1_555
O29 W1 2.012519 1_445
O29 W3 2.162876 1_556
O30 W2 2.012519 1_545
O30 W0 2.162876 1_555
O31 W3 2.012519 1_665
O31 W1 2.162876 1_554
