# generated using pymatgen
data_Ga
_symmetry_space_group_name_H-M   'P 1'
_cell_length_a   5.11066719
_cell_length_b   8.58102465
_cell_length_c   8.58102360
_cell_angle_alpha   103.94279881
_cell_angle_beta   90.00000000
_cell_angle_gamma   90.00000000
_symmetry_Int_Tables_number   1
_chemical_formula_structural   Ga
_chemical_formula_sum   Ga20
_cell_volume   365.23117286
_cell_formula_units_Z   20
loop_
 _symmetry_equiv_pos_site_id
 _symmetry_equiv_pos_as_xyz
  1  'x, y, z'
loop_
 _atom_site_type_symbol
 _atom_site_label
 _atom_site_symmetry_multiplicity
 _atom_site_fract_x
 _atom_site_fract_y
 _atom_site_fract_z
 _atom_site_occupancy
  Ga  Ga0  1  0.25000000  0.22045980  0.32578942  1
  Ga  Ga1  1  0.50009119  0.39512042  0.60487958  1
  Ga  Ga2  1  0.75000000  0.77954020  0.67421058  1
  Ga  Ga3  1  0.75000000  0.63656014  0.91174280  1
  Ga  Ga4  1  0.25000000  0.91544039  0.33671248  1
  Ga  Ga5  1  0.75000000  0.08455961  0.66328752  1
  Ga  Ga6  1  0.25000000  0.66328752  0.08455961  1
  Ga  Ga7  1  0.25000000  0.01139893  0.98860107  1
  Ga  Ga8  1  0.25000000  0.36343986  0.08825720  1
  Ga  Ga9  1  0.75000000  0.08825720  0.36343986  1
  Ga  Ga10  1  -0.00009119  0.39512042  0.60487958  1
  Ga  Ga11  1  0.75000000  0.78416681  0.21583319  1
  Ga  Ga12  1  0.75000000  0.32578942  0.22045980  1
  Ga  Ga13  1  0.25000000  0.21583319  0.78416681  1
  Ga  Ga14  1  0.00009119  0.60487958  0.39512042  1
  Ga  Ga15  1  0.75000000  0.33671248  0.91544039  1
  Ga  Ga16  1  0.75000000  0.98860107  0.01139893  1
  Ga  Ga17  1  0.25000000  0.67421058  0.77954020  1
  Ga  Ga18  1  0.49990881  0.60487958  0.39512042  1
  Ga  Ga19  1  0.25000000  0.91174280  0.63656014  1
loop_
_geom_bond_atom_site_label_1
_geom_bond_atom_site_label_2
_geom_bond_distance
_geom_bond_site_symmetry_2
Ga0 Ga8 2.620116 1_555
Ga0 Ga4 2.641531 1_545
Ga0 Ga10 2.808137 1_555
Ga0 Ga1 2.808137 1_555
Ga0 Ga9 2.845641 1_555
Ga0 Ga9 2.845641 1_455
Ga0 Ga12 2.925277 1_555
Ga0 Ga12 2.925277 1_455
Ga0 Ga7 3.014755 1_554
Ga1 Ga10 2.554402 1_655
Ga1 Ga10 2.556266 1_555
Ga1 Ga13 2.740074 1_555
Ga1 Ga17 2.808137 1_555
Ga1 Ga18 2.835651 1_555
Ga2 Ga3 2.620116 1_555
Ga2 Ga5 2.641531 1_565
Ga3 Ga6 2.935567 1_656
Ga3 Ga6 2.935567 1_556
Ga4 Ga6 2.665952 1_555
Ga4 Ga9 2.935567 1_465
Ga4 Ga9 2.935567 1_565
Ga5 Ga9 2.580829 1_555
Ga6 Ga8 2.580829 1_555
Ga7 Ga8 2.934628 1_556
Ga10 Ga13 2.740074 1_555
Ga10 Ga17 2.808137 1_555
Ga10 Ga14 2.835651 1_555
Ga11 Ga3 2.611621 1_554
Ga11 Ga9 2.611621 1_565
Ga11 Ga14 2.740074 1_655
Ga11 Ga18 2.740074 1_555
Ga11 Ga16 2.763666 1_555
Ga11 Ga6 2.882966 1_555
Ga11 Ga6 2.882966 1_655
Ga11 Ga4 2.882966 1_655
Ga11 Ga4 2.882966 1_555
Ga12 Ga9 2.620116 1_555
Ga12 Ga15 2.641530 1_554
Ga12 Ga18 2.808137 1_555
Ga12 Ga14 2.808137 1_655
Ga12 Ga8 2.845641 1_555
Ga12 Ga8 2.845641 1_655
Ga12 Ga16 3.014755 1_545
Ga13 Ga8 2.611621 1_556
Ga13 Ga19 2.611621 1_545
Ga13 Ga7 2.763666 1_555
Ga13 Ga15 2.882966 1_455
Ga13 Ga15 2.882966 1_555
Ga13 Ga5 2.882966 1_455
Ga13 Ga5 2.882966 1_555
Ga14 Ga18 2.554402 1_555
Ga14 Ga18 2.556266 1_455
Ga14 Ga2 2.808137 1_455
Ga15 Ga3 2.580829 1_555
Ga15 Ga5 2.665952 1_555
Ga15 Ga8 2.935567 1_656
Ga15 Ga8 2.935567 1_556
Ga16 Ga7 2.573852 1_564
Ga16 Ga7 2.573852 1_664
Ga16 Ga9 2.934628 1_565
Ga16 Ga3 2.934628 1_554
Ga16 Ga2 3.014755 1_554
Ga17 Ga19 2.620116 1_555
Ga17 Ga6 2.641530 1_556
Ga17 Ga3 2.845641 1_455
Ga17 Ga3 2.845641 1_555
Ga17 Ga2 2.925277 1_455
Ga17 Ga2 2.925277 1_555
Ga17 Ga7 3.014755 1_565
Ga18 Ga2 2.808137 1_555
Ga19 Ga4 2.580829 1_555
Ga19 Ga2 2.845641 1_455
Ga19 Ga2 2.845641 1_555
Ga19 Ga7 2.934628 1_565
Ga19 Ga5 2.935567 1_565
Ga19 Ga5 2.935567 1_465
