# generated using pymatgen
data_La4Ru6O19
_symmetry_space_group_name_H-M   'P 1'
_cell_length_a   7.87265243
_cell_length_b   7.87265243
_cell_length_c   7.87265243
_cell_angle_alpha   109.47122063
_cell_angle_beta   109.47122063
_cell_angle_gamma   109.47122063
_symmetry_Int_Tables_number   1
_chemical_formula_structural   La4Ru6O19
_chemical_formula_sum   'La4 Ru6 O19'
_cell_volume   375.61363055
_cell_formula_units_Z   1
loop_
 _symmetry_equiv_pos_site_id
 _symmetry_equiv_pos_as_xyz
  1  'x, y, z'
loop_
 _atom_site_type_symbol
 _atom_site_label
 _atom_site_symmetry_multiplicity
 _atom_site_fract_x
 _atom_site_fract_y
 _atom_site_fract_z
 _atom_site_occupancy
  La  La0  1  0.00000000  0.00000000  0.31900800  1
  La  La1  1  0.00000000  0.31900800  0.00000000  1
  La  La2  1  0.68099200  0.68099200  0.68099200  1
  La  La3  1  0.31900800  0.00000000  0.00000000  1
  Ru  Ru0  1  0.36213400  0.50000000  0.86213400  1
  Ru  Ru1  1  0.86213400  0.36213400  0.50000000  1
  Ru  Ru2  1  0.50000000  0.13786600  0.63786600  1
  Ru  Ru3  1  0.13786600  0.63786600  0.50000000  1
  Ru  Ru4  1  0.50000000  0.86213400  0.36213400  1
  Ru  Ru5  1  0.63786600  0.50000000  0.13786600  1
  O  O0  1  0.32633700  0.00000000  0.32633700  1
  O  O1  1  0.32633700  0.32633700  0.00000000  1
  O  O2  1  0.00000000  0.67366300  0.67366300  1
  O  O3  1  0.67366300  0.67366300  0.00000000  1
  O  O4  1  0.00000000  0.32633700  0.32633700  1
  O  O5  1  0.67366300  0.00000000  0.67366300  1
  O  O6  1  0.00000000  0.00000000  0.00000000  1
  O  O7  1  0.35837000  0.29989000  0.62683000  1
  O  O8  1  0.05848100  0.32694000  0.70011000  1
  O  O9  1  0.73154000  0.37317000  0.67306000  1
  O  O10  1  0.37317000  0.67306000  0.73154000  1
  O  O11  1  0.26846000  0.94151900  0.64163000  1
  O  O12  1  0.62683000  0.35837000  0.29989000  1
  O  O13  1  0.29989000  0.62683000  0.35837000  1
  O  O14  1  0.70011000  0.05848100  0.32694000  1
  O  O15  1  0.94151900  0.64163000  0.26846000  1
  O  O16  1  0.67306000  0.73154000  0.37317000  1
  O  O17  1  0.64163000  0.26846000  0.94151900  1
  O  O18  1  0.32694000  0.70011000  0.05848100  1
loop_
_geom_bond_atom_site_label_1
_geom_bond_atom_site_label_2
_geom_bond_distance
_geom_bond_site_symmetry_2
La0 O6 2.511439 1_555
La0 O3 2.550485 1_445
La0 O4 2.550485 1_555
La0 O0 2.550485 1_555
La0 O15 2.567800 1_445
La0 O7 2.567802 1_555
La0 O14 2.567806 1_455
La0 O8 2.996564 1_555
La0 O16 2.996568 1_445
La0 O11 2.996573 1_545
La1 O6 2.511439 1_555
La1 O4 2.550485 1_555
La1 O5 2.550485 1_454
La1 O1 2.550485 1_555
La1 O17 2.567800 1_454
La1 O13 2.567802 1_555
La1 O8 2.567806 1_554
La1 O18 2.996564 1_555
La1 O9 2.996568 1_454
La1 O15 2.996573 1_455
La2 O6 2.511439 1_666
La2 O5 2.550485 1_565
La2 O3 2.550485 1_556
La2 O2 2.550485 1_655
La2 O9 2.567802 1_555
La2 O10 2.567802 1_555
La2 O16 2.567802 1_555
La2 O13 2.996568 1_555
La2 O7 2.996568 1_555
La2 O12 2.996568 1_555
La3 O6 2.511439 1_555
La3 O2 2.550485 1_544
La3 O0 2.550485 1_555
La3 O1 2.550485 1_555
La3 O11 2.567800 1_544
La3 O12 2.567802 1_555
La3 O18 2.567806 1_545
La3 O14 2.996564 1_555
La3 O10 2.996568 1_544
La3 O17 2.996573 1_554
O0 Ru2 2.015683 1_555
O0 Ru4 2.015683 1_545
O1 Ru0 2.015683 1_554
O1 Ru5 2.015683 1_555
O2 Ru3 2.015683 1_555
O2 Ru1 2.015683 1_455
O3 Ru0 2.015683 1_554
O3 Ru5 2.015683 1_555
O4 Ru1 2.015683 1_455
O4 Ru3 2.015683 1_555
O5 Ru2 2.015683 1_555
O5 Ru4 2.015683 1_545
O7 Ru2 1.958392 1_555
O7 Ru0 1.975117 1_555
O8 Ru0 1.958386 1_555
O8 Ru1 1.975121 1_455
O9 Ru1 1.958392 1_555
O9 Ru2 1.975117 1_555
O10 Ru0 1.958392 1_555
O10 Ru3 1.975117 1_555
O11 Ru3 1.958385 1_555
O11 Ru2 1.975121 1_565
O12 Ru5 1.958392 1_555
O12 Ru1 1.975117 1_555
O13 Ru3 1.958392 1_555
O13 Ru4 1.975117 1_555
O14 Ru1 1.958386 1_555
O14 Ru4 1.975121 1_545
O15 Ru5 1.958385 1_555
O15 Ru3 1.975121 1_655
O16 Ru4 1.958392 1_555
O16 Ru5 1.975117 1_555
O17 Ru2 1.958385 1_555
O17 Ru5 1.975121 1_556
O18 Ru4 1.958386 1_555
O18 Ru0 1.975121 1_554
