# generated using pymatgen
data_Cs2KMn3F12
_symmetry_space_group_name_H-M   'P 1'
_cell_length_a   7.75147351
_cell_length_b   7.75147351
_cell_length_c   12.96440797
_cell_angle_alpha   73.74254500
_cell_angle_beta   73.74254500
_cell_angle_gamma   59.97243775
_symmetry_Int_Tables_number   1
_chemical_formula_structural   Cs2KMn3F12
_chemical_formula_sum   'Cs4 K2 Mn6 F24'
_cell_volume   638.22124592
_cell_formula_units_Z   2
loop_
 _symmetry_equiv_pos_site_id
 _symmetry_equiv_pos_as_xyz
  1  'x, y, z'
loop_
 _atom_site_type_symbol
 _atom_site_label
 _atom_site_symmetry_multiplicity
 _atom_site_fract_x
 _atom_site_fract_y
 _atom_site_fract_z
 _atom_site_occupancy
  Cs  Cs0  1  0.90450300  0.47498100  0.67745100  1
  Cs  Cs1  1  0.09549700  0.52501900  0.32254900  1
  Cs  Cs2  1  0.52501900  0.09549700  0.82254900  1
  Cs  Cs3  1  0.47498100  0.90450300  0.17745100  1
  K  K0  1  0.22792500  0.77207500  0.75000000  1
  K  K1  1  0.77207500  0.22792500  0.25000000  1
  Mn  Mn0  1  0.50000000  0.00000000  0.50000000  1
  Mn  Mn1  1  0.00000000  0.50000000  0.00000000  1
  Mn  Mn2  1  0.00000000  0.00000000  0.50000000  1
  Mn  Mn3  1  0.00000000  0.00000000  0.00000000  1
  Mn  Mn4  1  0.50000000  0.50000000  0.50000000  1
  Mn  Mn5  1  0.50000000  0.50000000  0.00000000  1
  F  F0  1  0.89527600  0.96202100  0.64801800  1
  F  F1  1  0.51347700  0.89260500  0.64763100  1
  F  F2  1  0.26195600  0.41215700  0.02984300  1
  F  F3  1  0.68182100  0.21588800  0.02874900  1
  F  F4  1  0.89260500  0.51347700  0.14763100  1
  F  F5  1  0.10739500  0.48652300  0.85236900  1
  F  F6  1  0.48652300  0.10739500  0.35236900  1
  F  F7  1  0.78411200  0.31817900  0.47125100  1
  F  F8  1  0.10472400  0.03797900  0.35198200  1
  F  F9  1  0.58784300  0.73804400  0.47015700  1
  F  F10  1  0.45387400  0.51145900  0.14678000  1
  F  F11  1  0.41215700  0.26195600  0.52984300  1
  F  F12  1  0.51145900  0.45387400  0.64678000  1
  F  F13  1  0.82147400  0.92910000  0.46384600  1
  F  F14  1  0.17852600  0.07090000  0.53615400  1
  F  F15  1  0.54612600  0.48854100  0.85322000  1
  F  F16  1  0.92910000  0.82147400  0.96384600  1
  F  F17  1  0.48854100  0.54612600  0.35322000  1
  F  F18  1  0.73804400  0.58784300  0.97015700  1
  F  F19  1  0.96202100  0.89527600  0.14801800  1
  F  F20  1  0.07090000  0.17852600  0.03615400  1
  F  F21  1  0.31817900  0.78411200  0.97125100  1
  F  F22  1  0.03797900  0.10472400  0.85198200  1
  F  F23  1  0.21588800  0.68182100  0.52874900  1
loop_
_geom_bond_atom_site_label_1
_geom_bond_atom_site_label_2
_geom_bond_distance
_geom_bond_site_symmetry_2
Cs0 F22 3.021617 1_655
Cs0 F15 3.036156 1_555
Cs0 F5 3.142489 1_655
Cs0 F1 3.154554 1_555
Cs0 F12 3.268132 1_555
Cs0 F23 3.413240 1_655
Cs0 F14 3.471818 1_655
Cs0 F11 3.594886 1_655
Cs0 F9 3.608481 1_555
Cs0 F0 3.652655 1_555
Cs0 F13 3.707637 1_555
Cs0 F7 3.720992 1_555
Cs1 F19 3.021617 1_455
Cs1 F10 3.036156 1_555
Cs1 F4 3.142489 1_455
Cs1 F6 3.154554 1_555
Cs1 F17 3.268132 1_555
Cs1 F7 3.413240 1_455
Cs1 F13 3.471818 1_455
Cs1 F9 3.594886 1_455
Cs1 F11 3.608481 1_555
Cs1 F8 3.652655 1_555
Cs1 F14 3.707637 1_555
Cs1 F23 3.720992 1_555
Cs2 F0 3.021617 1_545
Cs2 F12 3.036156 1_555
Cs2 F1 3.142489 1_545
Cs2 F5 3.154554 1_555
Cs2 F15 3.268132 1_555
Cs2 F21 3.413240 1_545
Cs2 F16 3.471818 1_545
Cs2 F18 3.594886 1_545
Cs2 F2 3.608481 1_556
Cs2 F22 3.652655 1_555
Cs2 F20 3.707637 1_556
Cs2 F3 3.720992 1_556
Cs3 F8 3.021617 1_565
Cs3 F17 3.036156 1_555
Cs3 F6 3.142489 1_565
Cs3 F4 3.154554 1_555
Cs3 F10 3.268132 1_555
Cs3 F3 3.413240 1_565
Cs3 F20 3.471818 1_565
Cs3 F2 3.594886 1_565
Cs3 F18 3.608481 1_554
Cs3 F19 3.652655 1_555
Cs3 F16 3.707637 1_554
Cs3 F21 3.720992 1_554
F0 Mn2 1.865136 1_665
F0 K0 2.753878 1_655
F1 Mn0 1.870809 1_565
F1 K0 2.695230 1_555
F2 Mn1 1.909197 1_555
F2 Mn5 2.174466 1_555
F3 Mn5 1.924428 1_555
F3 Mn3 2.173944 1_655
F3 K1 3.172469 1_555
F4 Mn1 1.870809 1_655
F4 K1 2.695230 1_555
F5 Mn1 1.870809 1_556
F5 K0 2.695230 1_555
F6 Mn0 1.870809 1_555
F6 K1 2.695230 1_555
F7 Mn4 1.924428 1_555
F7 Mn2 2.173944 1_655
F7 K1 3.172469 1_555
F8 Mn2 1.865136 1_555
F8 K1 2.753878 1_455
F9 Mn0 1.909197 1_565
F9 Mn4 2.174466 1_555
F10 Mn5 1.854379 1_555
F10 K1 2.735092 1_555
F11 Mn0 1.909197 1_555
F11 Mn4 2.174466 1_555
F12 Mn4 1.854379 1_555
F12 K0 2.735092 1_555
F13 Mn2 1.924918 1_665
F13 Mn0 2.202478 1_565
F13 K1 3.051106 1_565
F14 Mn2 1.924918 1_555
F14 Mn0 2.202478 1_555
F14 K0 3.051106 1_545
F15 Mn5 1.854379 1_556
F15 K0 2.735092 1_555
F16 Mn3 1.924918 1_666
F16 Mn1 2.202478 1_656
F16 K0 3.051106 1_655
F17 Mn4 1.854379 1_555
F17 K1 2.735092 1_555
F18 Mn1 1.909197 1_656
F18 Mn5 2.174466 1_556
F19 Mn3 1.865136 1_665
F19 K1 2.753878 1_565
F20 Mn3 1.924918 1_555
F20 Mn1 2.202478 1_555
F20 K1 3.051106 1_455
F21 Mn5 1.924428 1_556
F21 Mn3 2.173944 1_566
F21 K0 3.172469 1_555
F22 Mn3 1.865136 1_556
F22 K0 2.753878 1_545
F23 Mn4 1.924428 1_555
F23 Mn2 2.173944 1_565
F23 K0 3.172469 1_555
