# generated using pymatgen
data_TeBrO3F5
_symmetry_space_group_name_H-M   'P 1'
_cell_length_a   6.40319600
_cell_length_b   5.43041600
_cell_length_c   20.17216392
_cell_angle_alpha   89.69923799
_cell_angle_beta   90.00000000
_cell_angle_gamma   90.00000000
_symmetry_Int_Tables_number   1
_chemical_formula_structural   TeBrO3F5
_chemical_formula_sum   'Te4 Br4 O12 F20'
_cell_volume   701.41718328
_cell_formula_units_Z   4
loop_
 _symmetry_equiv_pos_site_id
 _symmetry_equiv_pos_as_xyz
  1  'x, y, z'
loop_
 _atom_site_type_symbol
 _atom_site_label
 _atom_site_symmetry_multiplicity
 _atom_site_fract_x
 _atom_site_fract_y
 _atom_site_fract_z
 _atom_site_occupancy
  Te  Te0  1  0.71827900  0.24762600  0.09069200  1
  Te  Te1  1  0.21827900  0.75237400  0.40930800  1
  Te  Te2  1  0.78172100  0.24762600  0.59069200  1
  Te  Te3  1  0.28172100  0.75237400  0.90930800  1
  Br  Br0  1  0.17021600  0.75385100  0.74111800  1
  Br  Br1  1  0.32978400  0.75385100  0.24111800  1
  Br  Br2  1  0.82978400  0.24614900  0.25888200  1
  Br  Br3  1  0.67021600  0.24614900  0.75888200  1
  O  O0  1  0.18091400  0.60468200  0.18976100  1
  O  O1  1  0.68660900  0.38293000  0.17795200  1
  O  O2  1  0.72684700  0.95275000  0.75809600  1
  O  O3  1  0.31908600  0.60468200  0.68976100  1
  O  O4  1  0.81908600  0.39531800  0.81023900  1
  O  O5  1  0.68091400  0.39531800  0.31023900  1
  O  O6  1  0.22684700  0.04725000  0.74190400  1
  O  O7  1  0.77315300  0.95275000  0.25809600  1
  O  O8  1  0.18660900  0.61707000  0.32204800  1
  O  O9  1  0.27315300  0.04725000  0.24190400  1
  O  O10  1  0.81339100  0.38293000  0.67795200  1
  O  O11  1  0.31339100  0.61707000  0.82204800  1
  F  F0  1  0.75707200  0.11487200  0.50596400  1
  F  F1  1  0.52350900  0.10497500  0.61364900  1
  F  F2  1  0.08288900  0.04703400  0.38364000  1
  F  F3  1  0.85471300  0.53079500  0.05989600  1
  F  F4  1  0.64528700  0.53079500  0.55989600  1
  F  F5  1  0.58288900  0.95296600  0.11636000  1
  F  F6  1  0.91711100  0.95296600  0.61636000  1
  F  F7  1  0.02350900  0.89502500  0.88635100  1
  F  F8  1  0.74292800  0.11487200  0.00596400  1
  F  F9  1  0.14528700  0.46920500  0.94010400  1
  F  F10  1  0.47649100  0.89502500  0.38635100  1
  F  F11  1  0.24292800  0.88512800  0.49403600  1
  F  F12  1  0.54066900  0.61636000  0.93236700  1
  F  F13  1  0.97649100  0.10497500  0.11364900  1
  F  F14  1  0.45933100  0.38364000  0.06763300  1
  F  F15  1  0.41711100  0.04703400  0.88364000  1
  F  F16  1  0.35471300  0.46920500  0.44010400  1
  F  F17  1  0.04066900  0.38364000  0.56763300  1
  F  F18  1  0.95933100  0.61636000  0.43236700  1
  F  F19  1  0.25707200  0.88512800  0.99403600  1
loop_
_geom_bond_atom_site_label_1
_geom_bond_atom_site_label_2
_geom_bond_distance
_geom_bond_site_symmetry_2
Br0 O3 1.626937 1_555
Br0 O6 1.634181 1_565
Br0 O11 2.011128 1_555
Br1 O0 1.626937 1_555
Br1 O9 1.634181 1_565
Br1 O8 2.011128 1_555
Br2 O5 1.626937 1_555
Br2 O7 1.634181 1_545
Br2 O1 2.011128 1_555
Br3 O4 1.626937 1_555
Br3 O2 1.634181 1_545
Br3 O10 2.011128 1_555
O1 Te0 1.921706 1_555
O8 Te1 1.921706 1_555
O10 Te2 1.921706 1_555
O11 Te3 1.921706 1_555
F0 Te2 1.865138 1_555
F1 Te2 1.882671 1_555
F2 Te1 1.889806 1_545
F3 Te0 1.871814 1_555
F4 Te2 1.871814 1_555
F5 Te0 1.889806 1_565
F6 Te2 1.889806 1_565
F7 Te3 1.882671 1_555
F8 Te0 1.865138 1_555
F9 Te3 1.871814 1_555
F10 Te1 1.882671 1_555
F11 Te1 1.865138 1_555
F12 Te3 1.872855 1_555
F13 Te0 1.882671 1_555
F14 Te0 1.872855 1_555
F15 Te3 1.889806 1_545
F16 Te1 1.871814 1_555
F17 Te2 1.872855 1_455
F18 Te1 1.872855 1_655
F19 Te3 1.865138 1_555
