# generated using pymatgen
data_InGaS3
_symmetry_space_group_name_H-M   'P 1'
_cell_length_a   6.77340857
_cell_length_b   6.77236776
_cell_length_c   18.08691207
_cell_angle_alpha   89.99981152
_cell_angle_beta   90.00044285
_cell_angle_gamma   119.98715677
_symmetry_Int_Tables_number   1
_chemical_formula_structural   InGaS3
_chemical_formula_sum   'In6 Ga6 S18'
_cell_volume   718.61959717
_cell_formula_units_Z   6
loop_
 _symmetry_equiv_pos_site_id
 _symmetry_equiv_pos_as_xyz
  1  'x, y, z'
loop_
 _atom_site_type_symbol
 _atom_site_label
 _atom_site_symmetry_multiplicity
 _atom_site_fract_x
 _atom_site_fract_y
 _atom_site_fract_z
 _atom_site_occupancy
  In  In0  1  0.32855828  0.32760340  0.99152873  1
  In  In1  1  0.00086259  0.32863088  0.15825267  1
  In  In2  1  0.32796437  -0.00065701  0.82484597  1
  In  In3  1  0.67203910  0.00066376  0.32484732  1
  In  In4  1  -0.00086404  0.67136535  0.65825142  1
  In  In5  1  0.67143694  0.67239647  0.49152850  1
  Ga  Ga0  1  0.66609062  0.67971553  0.13007203  1
  Ga  Ga1  1  0.98653992  0.66599995  0.29702298  1
  Ga  Ga2  1  0.67972519  0.01378563  0.96370280  1
  Ga  Ga3  1  0.32027179  0.98621457  0.46370106  1
  Ga  Ga4  1  0.01346502  0.33399813  0.79702482  1
  Ga  Ga5  1  0.33390792  0.32028184  0.63007155  1
  S  S0  1  0.36387331  0.32195116  0.13993376  1
  S  S1  1  0.04185150  0.36345771  0.30668367  1
  S  S2  1  0.32178366  0.95792154  0.97331581  1
  S  S3  1  0.67821786  0.04208524  0.47331628  1
  S  S4  1  0.95815099  0.63654334  0.80668445  1
  S  S5  1  0.63612248  0.67804798  0.63993398  1
  S  S6  1  0.96676005  0.33887772  0.01083611  1
  S  S7  1  0.62805386  0.96666628  0.17743724  1
  S  S8  1  0.33867577  0.37206320  0.84416876  1
  S  S9  1  0.66132493  0.62793862  0.34417044  1
  S  S10  1  0.37194844  0.03333216  0.67743645  1
  S  S11  1  0.03323897  0.66112482  0.51083594  1
  S  S12  1  0.00049833  0.70409139  0.16945457  1
  S  S13  1  0.29639218  0.00047095  0.33612896  1
  S  S14  1  0.70435702  0.70355985  0.00261245  1
  S  S15  1  0.29564720  0.29644228  0.50261292  1
  S  S16  1  0.70360376  -0.00047859  0.83613150  1
  S  S17  1  -0.00050102  0.29590588  0.66945384  1
loop_
_geom_bond_atom_site_label_1
_geom_bond_atom_site_label_2
_geom_bond_distance
_geom_bond_site_symmetry_2
In0 S2 2.502780 1_545
In0 S6 2.514022 1_456
In0 S14 2.554150 1_556
In0 S8 2.679269 1_555
In0 S0 2.696793 1_556
In1 S0 2.503762 1_555
In1 S7 2.513642 1_445
In1 S12 2.552047 1_555
In1 S6 2.680186 1_455
In1 S1 2.697154 1_555
In2 S4 2.503426 1_445
In2 S8 2.513150 1_555
In2 S16 2.551930 1_555
In2 S10 2.679875 1_555
In2 S2 2.698123 1_545
In3 S1 2.503412 1_655
In3 S9 2.513173 1_545
In3 S13 2.551930 1_555
In3 S7 2.679885 1_545
In3 S3 2.698108 1_555
In4 S5 2.503782 1_455
In4 S10 2.513660 1_565
In4 S17 2.552035 1_555
In4 S11 2.680168 1_555
In4 S4 2.697190 1_455
In5 S3 2.502802 1_565
In5 S11 2.514033 1_655
In5 S15 2.554114 1_555
In5 S9 2.679235 1_555
In5 S5 2.696805 1_555
Ga0 S7 2.253297 1_555
Ga0 S0 2.266015 1_555
Ga0 S12 2.300309 1_655
Ga0 S14 2.316477 1_555
Ga1 S9 2.253543 1_555
Ga1 S1 2.266345 1_655
Ga1 S13 2.298657 1_665
Ga1 S12 2.318367 1_655
Ga2 S6 2.252802 1_556
Ga2 S2 2.265964 1_545
Ga2 S14 2.299464 1_546
Ga2 S16 2.318421 1_555
Ga3 S11 2.252805 1_555
Ga3 S3 2.265978 1_565
Ga3 S15 2.299467 1_565
Ga3 S13 2.318429 1_565
Ga4 S8 2.253471 1_555
Ga4 S4 2.266375 1_455
Ga4 S16 2.298713 1_455
Ga4 S17 2.318413 1_555
Ga5 S10 2.253296 1_555
Ga5 S5 2.266015 1_555
Ga5 S17 2.300325 1_555
Ga5 S15 2.316454 1_555
