# generated using pymatgen
data_KNa(BH4)2
_symmetry_space_group_name_H-M   'P 1'
_cell_length_a   4.70349015
_cell_length_b   4.70349015
_cell_length_c   7.29443100
_cell_angle_alpha   90.00000000
_cell_angle_beta   90.00000000
_cell_angle_gamma   120.00000211
_symmetry_Int_Tables_number   1
_chemical_formula_structural   KNa(BH4)2
_chemical_formula_sum   'K1 Na1 B2 H8'
_cell_volume   139.75344451
_cell_formula_units_Z   1
loop_
 _symmetry_equiv_pos_site_id
 _symmetry_equiv_pos_as_xyz
  1  'x, y, z'
loop_
 _atom_site_type_symbol
 _atom_site_label
 _atom_site_symmetry_multiplicity
 _atom_site_fract_x
 _atom_site_fract_y
 _atom_site_fract_z
 _atom_site_occupancy
  K  K0  1  0.00000000  0.00000000  0.15857700  1
  Na  Na0  1  0.33333300  0.66666700  0.68949300  1
  B  B0  1  0.33333300  0.66666700  0.33960500  1
  B  B1  1  0.66666700  0.33333300  0.84918600  1
  H  H0  1  0.33333300  0.66666700  0.17116500  1
  H  H1  1  0.66666700  0.33333300  0.01706100  1
  H  H2  1  0.80909100  0.61818100  0.79184600  1
  H  H3  1  0.47590000  0.95180000  0.39444500  1
  H  H4  1  0.80909100  0.19090900  0.79184600  1
  H  H5  1  0.38181900  0.19090900  0.79184600  1
  H  H6  1  0.04820000  0.52410000  0.39444500  1
  H  H7  1  0.47590000  0.52410000  0.39444500  1
loop_
_geom_bond_atom_site_label_1
_geom_bond_atom_site_label_2
_geom_bond_distance
_geom_bond_site_symmetry_2
B0 H3 1.228403 1_555
B0 H6 1.228403 1_555
B0 H7 1.228407 1_555
B0 H0 1.228674 1_555
B1 H1 1.224553 1_556
B1 H5 1.233370 1_555
B1 H2 1.233370 1_555
B1 H4 1.233370 1_555
H0 K0 2.717111 1_565
H0 K0 2.717115 1_665
H0 K0 2.717115 1_555
H1 K0 2.905143 1_655
H1 K0 2.905147 1_665
H1 K0 2.905147 1_555
H2 Na0 2.475300 1_655
H2 Na0 2.475309 1_555
H3 Na0 2.445598 1_555
H3 K0 2.920522 1_665
H3 K0 2.920522 1_565
H4 Na0 2.475304 1_545
H4 Na0 2.475304 1_655
H5 Na0 2.475300 1_545
H5 Na0 2.475309 1_555
H6 Na0 2.445598 1_555
H6 K0 2.920522 1_555
H6 K0 2.920522 1_565
H7 Na0 2.445600 1_555
H7 K0 2.920522 1_665
H7 K0 2.920522 1_555
