# generated using pymatgen
data_UFeO4
_symmetry_space_group_name_H-M   'P 1'
_cell_length_a   4.91505700
_cell_length_b   5.17717400
_cell_length_c   12.07030100
_cell_angle_alpha   90.00000000
_cell_angle_beta   90.00000000
_cell_angle_gamma   90.00000000
_symmetry_Int_Tables_number   1
_chemical_formula_structural   UFeO4
_chemical_formula_sum   'U4 Fe4 O16'
_cell_volume   307.14215036
_cell_formula_units_Z   4
loop_
 _symmetry_equiv_pos_site_id
 _symmetry_equiv_pos_as_xyz
  1  'x, y, z'
loop_
 _atom_site_type_symbol
 _atom_site_label
 _atom_site_symmetry_multiplicity
 _atom_site_fract_x
 _atom_site_fract_y
 _atom_site_fract_z
 _atom_site_occupancy
  U  U0  1  0.00000000  0.75000000  0.17019100  1
  U  U1  1  0.50000000  0.25000000  0.32980900  1
  U  U2  1  0.00000000  0.25000000  0.82980900  1
  U  U3  1  0.50000000  0.75000000  0.67019100  1
  Fe  Fe0  1  0.00000000  0.75000000  0.43794300  1
  Fe  Fe1  1  0.50000000  0.25000000  0.06205700  1
  Fe  Fe2  1  0.00000000  0.25000000  0.56205700  1
  Fe  Fe3  1  0.50000000  0.75000000  0.93794300  1
  O  O0  1  0.23126000  0.42574700  0.44529900  1
  O  O1  1  0.73126000  0.57425300  0.05470100  1
  O  O2  1  0.26874000  0.92574700  0.05470100  1
  O  O3  1  0.76874000  0.07425300  0.44529900  1
  O  O4  1  0.76874000  0.57425300  0.55470100  1
  O  O5  1  0.26874000  0.42574700  0.94529900  1
  O  O6  1  0.73126000  0.07425300  0.94529900  1
  O  O7  1  0.23126000  0.92574700  0.55470100  1
  O  O8  1  0.22149900  0.90721300  0.30957900  1
  O  O9  1  0.72149900  0.09278700  0.19042100  1
  O  O10  1  0.27850100  0.40721300  0.19042100  1
  O  O11  1  0.77850100  0.59278700  0.30957900  1
  O  O12  1  0.77850100  0.09278700  0.69042100  1
  O  O13  1  0.27850100  0.90721300  0.80957900  1
  O  O14  1  0.72149900  0.59278700  0.80957900  1
  O  O15  1  0.22149900  0.40721300  0.69042100  1
loop_
_geom_bond_atom_site_label_1
_geom_bond_atom_site_label_2
_geom_bond_distance
_geom_bond_site_symmetry_2
Fe0 O4 2.026325 1_455
Fe0 O7 2.026325 1_555
Fe0 O3 2.029274 1_465
Fe0 O0 2.029274 1_555
Fe0 O8 2.061142 1_555
Fe0 O11 2.061142 1_455
Fe1 O6 2.026325 1_554
Fe1 O5 2.026325 1_554
Fe1 O2 2.029274 1_545
Fe1 O1 2.029274 1_555
Fe1 O10 2.061142 1_555
Fe1 O9 2.061142 1_555
Fe2 O3 2.026325 1_455
Fe2 O0 2.026325 1_555
Fe2 O4 2.029274 1_455
Fe2 O7 2.029274 1_545
Fe2 O15 2.061142 1_555
Fe2 O12 2.061142 1_455
Fe3 O2 2.026325 1_556
Fe3 O1 2.026325 1_556
Fe3 O6 2.029274 1_565
Fe3 O5 2.029274 1_555
Fe3 O13 2.061142 1_555
Fe3 O14 2.061142 1_555
O0 U1 2.125043 1_555
O1 U0 2.125043 1_655
O2 U0 2.125043 1_555
O3 U1 2.125043 1_555
O4 U3 2.125043 1_555
O5 U2 2.125043 1_555
O6 U2 2.125043 1_655
O7 U3 2.125043 1_555
O8 U0 2.162948 1_555
O8 U1 2.254510 1_565
O9 U1 2.162948 1_555
O9 U0 2.254510 1_645
O10 U1 2.162948 1_555
O10 U0 2.254510 1_555
O11 U0 2.162948 1_655
O11 U1 2.254510 1_555
O12 U2 2.162948 1_655
O12 U3 2.254510 1_545
O13 U3 2.162948 1_555
O13 U2 2.254510 1_565
O14 U3 2.162948 1_555
O14 U2 2.254510 1_655
O15 U2 2.162948 1_555
O15 U3 2.254510 1_555
