# generated using pymatgen
data_CuP(HO)5
_symmetry_space_group_name_H-M   'P 1'
_cell_length_a   6.71423800
_cell_length_b   7.42437100
_cell_length_c   9.07861800
_cell_angle_alpha   90.00000000
_cell_angle_beta   90.00000000
_cell_angle_gamma   90.00000000
_symmetry_Int_Tables_number   1
_chemical_formula_structural   CuP(HO)5
_chemical_formula_sum   'Cu4 P4 H20 O20'
_cell_volume   452.55997325
_cell_formula_units_Z   4
loop_
 _symmetry_equiv_pos_site_id
 _symmetry_equiv_pos_as_xyz
  1  'x, y, z'
loop_
 _atom_site_type_symbol
 _atom_site_label
 _atom_site_symmetry_multiplicity
 _atom_site_fract_x
 _atom_site_fract_y
 _atom_site_fract_z
 _atom_site_occupancy
  Cu  Cu0  1  0.26568400  0.02907200  0.09539400  1
  Cu  Cu1  1  0.76568400  0.47092800  0.90460600  1
  Cu  Cu2  1  0.73431600  0.52907200  0.40460600  1
  Cu  Cu3  1  0.23431600  0.97092800  0.59539400  1
  P  P0  1  0.01337300  0.67828400  0.14883500  1
  P  P1  1  0.51337300  0.82171600  0.85116500  1
  P  P2  1  0.98662700  0.17828400  0.35116500  1
  P  P3  1  0.48662700  0.32171600  0.64883500  1
  H  H0  1  0.17971800  0.36653600  0.03703800  1
  H  H1  1  0.67971800  0.13346400  0.96296200  1
  H  H2  1  0.82028200  0.86653600  0.46296200  1
  H  H3  1  0.32028200  0.63346400  0.53703800  1
  H  H4  1  0.37367500  0.31179700  0.94169800  1
  H  H5  1  0.87367500  0.18820300  0.05830200  1
  H  H6  1  0.62632500  0.81179700  0.55830200  1
  H  H7  1  0.12632500  0.68820300  0.44169800  1
  H  H8  1  0.51971500  0.93760300  0.34027400  1
  H  H9  1  0.01971500  0.56239700  0.65972600  1
  H  H10  1  0.48028500  0.43760300  0.15972600  1
  H  H11  1  0.98028500  0.06239700  0.84027400  1
  H  H12  1  0.56302600  0.14110100  0.32457000  1
  H  H13  1  0.06302600  0.35889900  0.67543000  1
  H  H14  1  0.43697400  0.64110100  0.17543000  1
  H  H15  1  0.93697400  0.85889900  0.82457000  1
  H  H16  1  0.86327400  0.80312400  0.11658500  1
  H  H17  1  0.36327400  0.69687600  0.88341500  1
  H  H18  1  0.13672600  0.30312400  0.38341500  1
  H  H19  1  0.63672600  0.19687600  0.61658500  1
  O  O0  1  0.98472600  0.60986700  0.30928800  1
  O  O1  1  0.48472600  0.89013300  0.69071200  1
  O  O2  1  0.01527400  0.10986700  0.19071200  1
  O  O3  1  0.51527400  0.39013300  0.80928800  1
  O  O4  1  0.21873700  0.77249900  0.14019400  1
  O  O5  1  0.71873700  0.72750100  0.85980600  1
  O  O6  1  0.78126300  0.27249900  0.35980600  1
  O  O7  1  0.28126300  0.22750100  0.64019400  1
  O  O8  1  0.99859200  0.52407000  0.03441100  1
  O  O9  1  0.49859200  0.97593000  0.96558900  1
  O  O10  1  0.00140800  0.02407000  0.46558900  1
  O  O11  1  0.50140800  0.47593000  0.53441100  1
  O  O12  1  0.30194000  0.28792500  0.03743400  1
  O  O13  1  0.80194000  0.21207500  0.96256600  1
  O  O14  1  0.69806000  0.78792500  0.46256600  1
  O  O15  1  0.19806000  0.71207500  0.53743400  1
  O  O16  1  0.45459900  0.05136300  0.31299700  1
  O  O17  1  0.95459900  0.44863700  0.68700300  1
  O  O18  1  0.54540100  0.55136300  0.18700300  1
  O  O19  1  0.04540100  0.94863700  0.81299700  1
loop_
_geom_bond_atom_site_label_1
_geom_bond_atom_site_label_2
_geom_bond_distance
_geom_bond_site_symmetry_2
Cu0 O4 1.973170 1_545
Cu0 O2 1.983803 1_555
Cu0 O9 1.997469 1_544
Cu0 O12 2.007371 1_555
Cu0 O16 2.353511 1_555
Cu1 O5 1.973170 1_555
Cu1 O3 1.983803 1_555
Cu1 O8 1.997469 1_556
Cu1 O13 2.007371 1_555
Cu1 O17 2.353511 1_555
Cu2 O6 1.973170 1_555
Cu2 O0 1.983803 1_555
Cu2 O11 1.997469 1_555
Cu2 O14 2.007371 1_555
Cu2 O18 2.353511 1_555
Cu3 O7 1.973170 1_565
Cu3 O1 1.983803 1_555
Cu3 O10 1.997469 1_565
Cu3 O15 2.007371 1_555
Cu3 O19 2.353511 1_555
H0 O12 1.007013 1_555
H0 O8 1.687444 1_455
H1 O13 1.007013 1_555
H1 O9 1.687444 1_545
H2 O14 1.007013 1_555
H2 O10 1.687444 1_665
H3 O15 1.007013 1_555
H3 O11 1.687444 1_555
H4 O12 1.009365 1_556
H4 O3 1.639263 1_555
H5 O13 1.009365 1_554
H5 O2 1.639263 1_655
H6 O14 1.009365 1_555
H6 O1 1.639263 1_555
H7 O15 1.009365 1_555
H7 O0 1.639263 1_455
H8 O16 0.982759 1_565
H9 O17 0.982759 1_455
H10 O18 0.982759 1_555
H11 O19 0.982759 1_645
H12 O16 0.992430 1_555
H13 O17 0.992430 1_455
H14 O18 0.992430 1_555
H15 O19 0.992430 1_655
H16 P0 1.400161 1_655
H17 P1 1.400161 1_555
H18 P2 1.400161 1_455
H19 P3 1.400161 1_555
O0 P0 1.554658 1_655
O1 P1 1.554658 1_555
O2 P2 1.554658 1_455
O3 P3 1.554658 1_555
O4 P0 1.548128 1_555
O5 P1 1.548128 1_555
O6 P2 1.548128 1_555
O7 P3 1.548128 1_555
O8 P0 1.549152 1_655
O9 P1 1.549152 1_555
O10 P2 1.549152 1_455
O11 P3 1.549152 1_555
