# generated using pymatgen
data_GdAg(PO3)4
_symmetry_space_group_name_H-M   'P 1'
_cell_length_a   13.28863600
_cell_length_b   7.34467700
_cell_length_c   12.31234855
_cell_angle_alpha   53.77385987
_cell_angle_beta   90.00000000
_cell_angle_gamma   90.00000000
_symmetry_Int_Tables_number   1
_chemical_formula_structural   GdAg(PO3)4
_chemical_formula_sum   'Gd4 Ag4 P16 O48'
_cell_volume   969.39572263
_cell_formula_units_Z   4
loop_
 _symmetry_equiv_pos_site_id
 _symmetry_equiv_pos_as_xyz
  1  'x, y, z'
loop_
 _atom_site_type_symbol
 _atom_site_label
 _atom_site_symmetry_multiplicity
 _atom_site_fract_x
 _atom_site_fract_y
 _atom_site_fract_z
 _atom_site_occupancy
  Gd  Gd0  1  0.21875700  0.53360300  0.47829400  1
  Gd  Gd1  1  0.78124300  0.46639700  0.52170600  1
  Gd  Gd2  1  0.71875700  0.46639700  0.02170600  1
  Gd  Gd3  1  0.28124300  0.53360300  0.97829400  1
  Ag  Ag0  1  0.77768300  0.06537600  0.43503600  1
  Ag  Ag1  1  0.27768300  0.93462400  0.06496400  1
  Ag  Ag2  1  0.72231700  0.06537600  0.93503600  1
  Ag  Ag3  1  0.22231700  0.93462400  0.56496400  1
  P  P0  1  0.59116200  0.44110000  0.29552400  1
  P  P1  1  0.90883800  0.44110000  0.79552400  1
  P  P2  1  0.62625800  0.65562600  0.69670300  1
  P  P3  1  0.37374200  0.34437400  0.30329700  1
  P  P4  1  0.10100900  0.00614500  0.74809900  1
  P  P5  1  0.40883800  0.55890000  0.70447600  1
  P  P6  1  0.87374200  0.65562600  0.19670300  1
  P  P7  1  0.60100900  0.99385500  0.75190100  1
  P  P8  1  0.61395400  0.88842400  0.23768900  1
  P  P9  1  0.89899100  0.99385500  0.25190100  1
  P  P10  1  0.11395400  0.11157600  0.26231100  1
  P  P11  1  0.38604600  0.11157600  0.76231100  1
  P  P12  1  0.12625800  0.34437400  0.80329700  1
  P  P13  1  0.09116200  0.55890000  0.20447600  1
  P  P14  1  0.39899100  0.00614500  0.24809900  1
  P  P15  1  0.88604600  0.88842400  0.73768900  1
  O  O0  1  0.13267200  0.51885400  0.65373700  1
  O  O1  1  0.63267200  0.48114600  0.84626300  1
  O  O2  1  0.97994500  0.64064800  0.13924800  1
  O  O3  1  0.60825000  0.80746000  0.90058500  1
  O  O4  1  0.18840100  0.21956900  0.14937800  1
  O  O5  1  0.16551900  0.79923000  0.80307700  1
  O  O6  1  0.88913400  0.38083100  0.70029000  1
  O  O7  1  0.89175000  0.80746000  0.40058500  1
  O  O8  1  0.86732800  0.48114600  0.34626300  1
  O  O9  1  0.61086600  0.38083100  0.20029000  1
  O  O10  1  0.87771700  0.90479500  0.16202500  1
  O  O11  1  0.16176100  0.64608400  0.08784300  1
  O  O12  1  0.52005500  0.64064800  0.63924800  1
  O  O13  1  0.66176100  0.35391600  0.41215700  1
  O  O14  1  0.64421000  0.10254600  0.10520800  1
  O  O15  1  0.11086600  0.61916900  0.29971000  1
  O  O16  1  0.62228300  0.90479500  0.66202500  1
  O  O17  1  0.39175000  0.19254000  0.09941500  1
  O  O18  1  0.58005200  0.71285700  0.20627400  1
  O  O19  1  0.14421000  0.89745400  0.39479200  1
  O  O20  1  0.66551900  0.20077000  0.69692300  1
  O  O21  1  0.81159900  0.78043100  0.85062200  1
  O  O22  1  0.41994800  0.28714300  0.79372600  1
  O  O23  1  0.12228300  0.09520500  0.83797500  1
  O  O24  1  0.29276400  0.33242100  0.39265600  1
  O  O25  1  0.10825000  0.19254000  0.59941500  1
  O  O26  1  0.98689700  0.92318600  0.79437400  1
  O  O27  1  0.47994500  0.35935200  0.36075200  1
  O  O28  1  0.68840100  0.78043100  0.35062200  1
  O  O29  1  0.38913400  0.61916900  0.79971000  1
  O  O30  1  0.02005500  0.35935200  0.86075200  1
  O  O31  1  0.35579000  0.89745400  0.89479200  1
  O  O32  1  0.36732800  0.51885400  0.15373700  1
  O  O33  1  0.85579000  0.10254600  0.60520800  1
  O  O34  1  0.08005200  0.28714300  0.29372600  1
  O  O35  1  0.33448100  0.79923000  0.30307700  1
  O  O36  1  0.31159900  0.21956900  0.64937800  1
  O  O37  1  0.37771700  0.09520500  0.33797500  1
  O  O38  1  0.83823900  0.35391600  0.91215700  1
  O  O39  1  0.70723600  0.66757900  0.60734400  1
  O  O40  1  0.48689700  0.07681400  0.70562600  1
  O  O41  1  0.79276400  0.66757900  0.10734400  1
  O  O42  1  0.51310300  0.92318600  0.29437400  1
  O  O43  1  0.01310300  0.07681400  0.20562600  1
  O  O44  1  0.91994800  0.71285700  0.70627400  1
  O  O45  1  0.83448100  0.20077000  0.19692300  1
  O  O46  1  0.20723600  0.33242100  0.89265600  1
  O  O47  1  0.33823900  0.64608400  0.58784300  1
loop_
_geom_bond_atom_site_label_1
_geom_bond_atom_site_label_2
_geom_bond_distance
_geom_bond_site_symmetry_2
Gd0 O36 2.353003 1_555
Gd0 O15 2.377379 1_555
Gd0 O0 2.389537 1_555
Gd0 O35 2.418784 1_555
Gd0 O19 2.435677 1_555
Gd0 O24 2.470583 1_555
Gd0 O25 2.498007 1_555
Gd0 O47 2.517892 1_555
Gd1 O28 2.353003 1_555
Gd1 O6 2.377379 1_555
Gd1 O8 2.389537 1_555
Gd1 O20 2.418784 1_555
Gd1 O33 2.435677 1_555
Gd1 O39 2.470583 1_555
Gd1 O7 2.498007 1_555
Gd1 O13 2.517892 1_555
Gd2 O21 2.353003 1_554
Gd2 O9 2.377379 1_555
Gd2 O1 2.389537 1_554
Gd2 O45 2.418784 1_555
Gd2 O14 2.435677 1_555
Gd2 O41 2.470583 1_555
Gd2 O3 2.498007 1_554
Gd2 O38 2.517892 1_554
Gd3 O4 2.353003 1_556
Gd3 O29 2.377379 1_555
Gd3 O32 2.389537 1_556
Gd3 O5 2.418784 1_555
Gd3 O31 2.435677 1_555
Gd3 O46 2.470583 1_555
Gd3 O17 2.498007 1_556
Gd3 O11 2.517892 1_556
Ag0 O33 2.493561 1_555
Ag0 O13 2.497574 1_555
Ag0 O39 2.566568 1_545
Ag0 O45 2.589935 1_555
Ag0 O7 2.648712 1_545
Ag0 O8 2.827336 1_555
Ag1 O31 2.493561 1_554
Ag1 O11 2.497574 1_555
Ag1 O46 2.566568 1_564
Ag1 O35 2.589935 1_555
Ag1 O17 2.648712 1_565
Ag1 O32 2.827336 1_555
Ag2 O14 2.493561 1_556
Ag2 O38 2.497574 1_555
Ag2 O41 2.566568 1_546
Ag2 O20 2.589935 1_555
Ag2 O3 2.648712 1_545
Ag2 O1 2.827336 1_555
Ag3 O19 2.493561 1_555
Ag3 O47 2.497574 1_555
Ag3 O24 2.566568 1_565
Ag3 O5 2.589935 1_555
Ag3 O25 2.648712 1_565
Ag3 O0 2.827336 1_555
O0 P12 1.500410 1_555
O1 P2 1.500410 1_555
O2 P6 1.611289 1_555
O2 P13 1.618581 1_655
O3 P7 1.507499 1_555
O4 P10 1.495892 1_555
O5 P4 1.512203 1_565
O6 P1 1.500954 1_555
O7 P9 1.507499 1_555
O8 P6 1.500410 1_555
O9 P0 1.500954 1_555
O10 P9 1.608681 1_555
O10 P6 1.615761 1_555
O11 P13 1.505160 1_555
O12 P2 1.611289 1_555
O12 P5 1.618581 1_555
O13 P0 1.505160 1_555
O14 P8 1.504519 1_545
O15 P13 1.500954 1_555
O16 P7 1.608681 1_555
O16 P2 1.615761 1_555
O17 P14 1.507499 1_555
O18 P8 1.613953 1_555
O18 P0 1.618895 1_555
O19 P10 1.504519 1_565
O20 P7 1.512203 1_545
O21 P15 1.495892 1_555
O22 P11 1.613953 1_555
O22 P5 1.618895 1_555
O23 P4 1.608681 1_555
O23 P12 1.615761 1_555
O24 P3 1.503991 1_555
O25 P4 1.507499 1_555
O26 P15 1.599675 1_555
O26 P4 1.607794 1_665
O27 P3 1.611289 1_555
O27 P0 1.618581 1_555
O28 P8 1.495892 1_555
O29 P5 1.500954 1_555
O30 P12 1.611289 1_555
O30 P1 1.618581 1_455
O31 P11 1.504519 1_565
O32 P3 1.500410 1_555
O33 P15 1.504519 1_545
O34 P10 1.613953 1_555
O34 P13 1.618895 1_555
O35 P14 1.512203 1_565
O36 P11 1.495892 1_555
O37 P14 1.608681 1_555
O37 P3 1.615761 1_555
O38 P1 1.505160 1_555
O39 P2 1.503991 1_555
O40 P11 1.599675 1_555
O40 P7 1.607794 1_545
O41 P6 1.503991 1_555
O42 P8 1.599675 1_555
O42 P14 1.607794 1_565
O43 P10 1.599675 1_555
O43 P9 1.607794 1_445
O44 P15 1.613953 1_555
O44 P1 1.618895 1_555
O45 P9 1.512203 1_545
O46 P12 1.503991 1_555
O47 P5 1.505160 1_555
