# generated using pymatgen
data_DyAgGe
_symmetry_space_group_name_H-M   'P 1'
_cell_length_a   7.11563645
_cell_length_b   7.11563645
_cell_length_c   4.19992623
_cell_angle_alpha   90.00000000
_cell_angle_beta   90.00000000
_cell_angle_gamma   119.99999640
_symmetry_Int_Tables_number   1
_chemical_formula_structural   DyAgGe
_chemical_formula_sum   'Dy3 Ag3 Ge3'
_cell_volume   184.16191075
_cell_formula_units_Z   3
loop_
 _symmetry_equiv_pos_site_id
 _symmetry_equiv_pos_as_xyz
  1  'x, y, z'
loop_
 _atom_site_type_symbol
 _atom_site_label
 _atom_site_symmetry_multiplicity
 _atom_site_fract_x
 _atom_site_fract_y
 _atom_site_fract_z
 _atom_site_occupancy
  Dy  Dy0  1  0.00000000  0.58449472  0.00000000  1
  Dy  Dy1  1  0.58449472  0.00000000  -0.00000000  1
  Dy  Dy2  1  0.41550528  0.41550528  -0.00000000  1
  Ag  Ag0  1  0.74926955  0.74926955  0.50000000  1
  Ag  Ag1  1  0.25073045  0.00000000  0.50000000  1
  Ag  Ag2  1  0.00000000  0.25073045  0.50000000  1
  Ge  Ge0  1  -0.00000000  -0.00000000  0.00000000  1
  Ge  Ge1  1  0.66666700  0.33333300  0.50000000  1
  Ge  Ge2  1  0.33333300  0.66666700  0.50000000  1
loop_
_geom_bond_atom_site_label_1
_geom_bond_atom_site_label_2
_geom_bond_distance
_geom_bond_site_symmetry_2
Dy0 Ge0 2.956585 1_565
Dy0 Ge2 2.998445 1_554
Dy0 Ge2 2.998445 1_555
Dy0 Ge1 2.998446 1_455
Dy0 Ge1 2.998446 1_454
Dy1 Ge0 2.956585 1_655
Dy1 Ge1 2.998445 1_555
Dy1 Ge1 2.998445 1_554
Dy1 Ge2 2.998446 1_544
Dy1 Ge2 2.998446 1_545
Dy2 Ge0 2.956585 1_555
Dy2 Ge1 2.998450 1_555
Dy2 Ge1 2.998450 1_554
Dy2 Ge2 2.998450 1_554
Dy2 Ge2 2.998450 1_555
Ag0 Ge2 2.713932 1_555
Ag0 Ge1 2.713932 1_555
Ag0 Ge0 2.755519 1_665
Ag0 Ge0 2.755519 1_666
Ag0 Ag1 3.090164 1_665
Ag0 Ag2 3.090164 1_665
Ag0 Dy2 3.170207 1_555
Ag0 Dy2 3.170207 1_556
Ag0 Dy1 3.325569 1_565
Ag0 Dy0 3.325569 1_655
Ag0 Dy0 3.325569 1_656
Ag0 Dy1 3.325569 1_566
Ag1 Ge2 2.713925 1_545
Ag1 Ge1 2.713930 1_555
Ag1 Ge0 2.755518 1_555
Ag1 Ge0 2.755518 1_556
Ag1 Ag2 3.090163 1_555
Ag1 Dy1 3.170207 1_556
Ag1 Dy1 3.170207 1_555
Ag1 Dy2 3.325569 1_556
Ag1 Dy2 3.325569 1_555
Ag1 Dy0 3.325569 1_546
Ag1 Dy0 3.325569 1_545
Ag2 Ge1 2.713925 1_455
Ag2 Ge2 2.713930 1_555
Ag2 Ge0 2.755518 1_555
Ag2 Ge0 2.755518 1_556
Ag2 Dy0 3.170207 1_555
Ag2 Dy0 3.170207 1_556
Ag2 Dy2 3.325569 1_555
Ag2 Dy2 3.325569 1_556
Ag2 Dy1 3.325569 1_455
Ag2 Dy1 3.325569 1_456
