# generated using pymatgen
data_TiPt3
_symmetry_space_group_name_H-M   'P 1'
_cell_length_a   5.55110311
_cell_length_b   5.55110219
_cell_length_c   15.85685581
_cell_angle_alpha   90.00000000
_cell_angle_beta   90.00000000
_cell_angle_gamma   120.00000544
_symmetry_Int_Tables_number   1
_chemical_formula_structural   TiPt3
_chemical_formula_sum   'Ti7 Pt21'
_cell_volume   423.16155209
_cell_formula_units_Z   7
loop_
 _symmetry_equiv_pos_site_id
 _symmetry_equiv_pos_as_xyz
  1  'x, y, z'
loop_
 _atom_site_type_symbol
 _atom_site_label
 _atom_site_symmetry_multiplicity
 _atom_site_fract_x
 _atom_site_fract_y
 _atom_site_fract_z
 _atom_site_occupancy
  Ti  Ti0  1  -0.00000000  -0.00000000  0.71981048  1
  Ti  Ti1  1  0.66666700  0.33333300  0.85630057  1
  Ti  Ti2  1  0.33333300  0.66666700  0.14369843  1
  Ti  Ti3  1  -0.00000000  -0.00000000  0.28018952  1
  Ti  Ti4  1  0.66666700  0.33333300  0.43000544  1
  Ti  Ti5  1  -0.00000000  -0.00000000  0.00000000  1
  Ti  Ti6  1  0.33333300  0.66666700  0.56999456  1
  Pt  Pt0  1  0.83321372  0.66642844  0.57103455  1
  Pt  Pt1  1  0.33357156  0.16678628  0.57103455  1
  Pt  Pt2  1  0.16671113  0.33342126  0.85695508  1
  Pt  Pt3  1  0.16678628  0.33357156  0.42896545  1
  Pt  Pt4  1  0.16678628  0.83321372  0.42896545  1
  Pt  Pt5  1  0.50035693  0.00071285  0.71330112  1
  Pt  Pt6  1  0.66642844  0.83321372  0.42896545  1
  Pt  Pt7  1  0.16671113  0.83328887  0.85695508  1
  Pt  Pt8  1  0.66657874  0.83328887  0.85695508  1
  Pt  Pt9  1  0.83328887  0.16671113  0.14304492  1
  Pt  Pt10  1  0.83321372  0.16678628  0.57103455  1
  Pt  Pt11  1  0.50035693  0.49964307  0.71330112  1
  Pt  Pt12  1  0.33342126  0.16671113  0.14304492  1
  Pt  Pt13  1  0.83328887  0.66657874  0.14304492  1
  Pt  Pt14  1  0.49964307  0.50035693  0.28669888  1
  Pt  Pt15  1  0.49964307  0.99928715  0.28669888  1
  Pt  Pt16  1  0.50000000  -0.00000000  0.00000000  1
  Pt  Pt17  1  0.00071285  0.50035693  0.28669888  1
  Pt  Pt18  1  0.99928715  0.49964307  0.71330112  1
  Pt  Pt19  1  0.50000000  0.50000000  0.00000000  1
  Pt  Pt20  1  -0.00000000  0.50000000  0.00000000  1
loop_
_geom_bond_atom_site_label_1
_geom_bond_atom_site_label_2
_geom_bond_distance
_geom_bond_site_symmetry_2
Pt0 Ti4 2.750486 1_555
Pt0 Pt6 2.765234 1_555
Pt0 Pt4 2.765240 1_655
Pt0 Pt11 2.765800 1_555
Pt0 Pt18 2.765805 1_555
Pt0 Pt10 2.773565 1_555
Pt0 Pt1 2.773565 1_555
Pt0 Ti6 2.775601 1_555
Pt0 Ti6 2.775601 1_655
Pt0 Pt10 2.777538 1_565
Pt0 Pt1 2.777538 1_665
Pt0 Ti0 2.852544 1_665
Pt1 Ti4 2.750486 1_555
Pt1 Pt3 2.765234 1_555
Pt1 Pt4 2.765240 1_545
Pt1 Pt11 2.765800 1_555
Pt1 Pt5 2.765805 1_555
Pt1 Pt10 2.773565 1_555
Pt1 Ti6 2.775600 1_545
Pt1 Ti6 2.775600 1_555
Pt1 Pt10 2.777538 1_455
Pt1 Ti0 2.852544 1_555
Pt2 Ti0 2.701572 1_555
Pt2 Pt7 2.774816 1_555
Pt2 Pt8 2.774816 1_555
Pt2 Ti1 2.775571 1_555
Pt2 Ti1 2.775571 1_455
Pt2 Pt7 2.776286 1_545
Pt2 Pt8 2.776286 1_445
Pt2 Pt20 2.777076 1_556
Pt2 Ti5 2.777440 1_556
Pt3 Ti6 2.750486 1_555
Pt3 Pt4 2.773565 1_555
Pt3 Pt6 2.773565 1_555
Pt3 Ti4 2.775601 1_555
Pt3 Ti4 2.775601 1_455
Pt3 Pt4 2.777538 1_545
Pt3 Pt6 2.777538 1_445
Pt3 Ti3 2.852544 1_555
Pt4 Ti6 2.750480 1_555
Pt4 Pt6 2.773565 1_555
Pt4 Ti4 2.775600 1_565
Pt4 Ti4 2.775600 1_455
Pt4 Pt6 2.777538 1_455
Pt4 Ti3 2.852547 1_565
Pt5 Ti1 2.774630 1_555
Pt5 Ti0 2.777469 1_655
Pt5 Ti0 2.777475 1_555
Pt5 Ti6 2.782561 1_545
Pt5 Pt8 2.785956 1_545
Pt5 Pt7 2.785956 1_545
Pt6 Ti6 2.750486 1_555
Pt6 Ti4 2.775600 1_565
Pt6 Ti4 2.775600 1_555
Pt6 Ti3 2.852544 1_665
Pt7 Ti0 2.701575 1_565
Pt7 Pt8 2.774817 1_555
Pt7 Ti1 2.775571 1_565
Pt7 Ti1 2.775571 1_455
Pt7 Pt8 2.776286 1_455
Pt7 Ti5 2.777443 1_566
Pt8 Ti0 2.701572 1_665
Pt8 Ti1 2.775571 1_565
Pt8 Ti1 2.775571 1_555
Pt8 Ti5 2.777440 1_666
Pt9 Ti3 2.701575 1_655
Pt9 Ti2 2.775570 1_545
Pt9 Ti2 2.775570 1_655
Pt9 Ti5 2.777443 1_655
Pt10 Ti4 2.750480 1_555
Pt10 Pt6 2.765240 1_545
Pt10 Pt3 2.765240 1_655
Pt10 Pt18 2.765800 1_555
Pt10 Pt5 2.765800 1_555
Pt10 Ti6 2.775600 1_545
Pt10 Ti6 2.775600 1_655
Pt10 Ti0 2.852547 1_655
Pt11 Pt5 2.769613 1_555
Pt11 Pt18 2.769613 1_555
Pt11 Ti1 2.774630 1_555
Pt11 Ti0 2.777472 1_665
Pt11 Ti0 2.777472 1_555
Pt11 Pt5 2.781490 1_565
Pt11 Pt18 2.781490 1_455
Pt11 Ti6 2.782567 1_555
Pt11 Pt8 2.785956 1_555
Pt11 Pt2 2.785956 1_555
Pt12 Ti3 2.701572 1_555
Pt12 Pt13 2.774816 1_555
Pt12 Pt9 2.774817 1_555
Pt12 Ti2 2.775570 1_545
Pt12 Ti2 2.775570 1_555
Pt12 Pt13 2.776286 1_445
Pt12 Pt9 2.776286 1_455
Pt12 Pt19 2.777073 1_555
Pt12 Pt16 2.777076 1_555
Pt12 Ti5 2.777440 1_555
Pt12 Pt14 2.785956 1_555
Pt12 Pt15 2.785956 1_545
Pt13 Ti3 2.701572 1_665
Pt13 Pt9 2.774816 1_555
Pt13 Ti2 2.775571 1_555
Pt13 Ti2 2.775571 1_655
Pt13 Pt9 2.776286 1_565
Pt13 Pt19 2.777073 1_555
Pt13 Pt20 2.777076 1_655
Pt13 Ti5 2.777440 1_665
Pt13 Pt17 2.785956 1_655
Pt13 Pt14 2.785956 1_555
Pt14 Pt6 2.765800 1_555
Pt14 Pt3 2.765800 1_555
Pt14 Pt15 2.769613 1_555
Pt14 Pt17 2.769613 1_555
Pt14 Ti2 2.774643 1_555
Pt14 Ti3 2.777472 1_555
Pt14 Ti3 2.777472 1_665
Pt14 Pt15 2.781490 1_545
Pt14 Pt17 2.781490 1_655
Pt14 Ti4 2.782567 1_555
Pt15 Pt4 2.765800 1_555
Pt15 Pt6 2.765805 1_555
Pt15 Pt17 2.769613 1_555
Pt15 Ti2 2.774643 1_555
Pt15 Ti3 2.777469 1_565
Pt15 Ti3 2.777475 1_665
Pt15 Pt17 2.781490 1_665
Pt15 Ti4 2.782561 1_565
Pt15 Pt9 2.785956 1_565
Pt16 Pt19 2.775551 1_555
Pt16 Pt19 2.775551 1_545
Pt16 Pt20 2.775551 1_655
Pt16 Pt20 2.775551 1_545
Pt16 Ti5 2.775552 1_555
Pt16 Ti5 2.775552 1_655
Pt16 Pt9 2.777073 1_555
Pt16 Pt7 2.777073 1_544
Pt16 Pt8 2.777076 1_544
Pt16 Ti2 2.785665 1_545
Pt16 Ti1 2.785678 1_554
Pt17 Pt4 2.765800 1_555
Pt17 Pt3 2.765805 1_555
Pt17 Ti2 2.774643 1_555
Pt17 Ti3 2.777469 1_565
Pt17 Ti3 2.777475 1_555
Pt17 Ti4 2.782561 1_455
Pt17 Pt9 2.785956 1_455
Pt18 Pt5 2.769613 1_555
Pt18 Ti1 2.774630 1_555
Pt18 Ti0 2.777469 1_655
Pt18 Ti0 2.777475 1_665
Pt18 Pt5 2.781490 1_665
Pt18 Ti6 2.782561 1_655
Pt18 Pt7 2.785956 1_655
Pt18 Pt2 2.785956 1_655
Pt19 Ti5 2.775551 1_555
Pt19 Ti5 2.775551 1_665
Pt19 Pt20 2.775552 1_555
Pt19 Pt20 2.775552 1_655
Pt19 Pt8 2.777073 1_554
Pt19 Pt2 2.777073 1_554
Pt19 Ti2 2.785668 1_555
Pt19 Ti1 2.785681 1_554
Pt20 Ti5 2.775551 1_565
Pt20 Ti5 2.775551 1_555
Pt20 Pt9 2.777073 1_455
Pt20 Pt7 2.777073 1_554
Pt20 Ti2 2.785665 1_555
Pt20 Ti1 2.785678 1_454
