# generated using pymatgen
data_Nb2Se17Cl12
_symmetry_space_group_name_H-M   'P 1'
_cell_length_a   11.65027340
_cell_length_b   13.40690501
_cell_length_c   13.50491241
_cell_angle_alpha   111.24123910
_cell_angle_beta   99.43795752
_cell_angle_gamma   99.88954844
_symmetry_Int_Tables_number   1
_chemical_formula_structural   Nb2Se17Cl12
_chemical_formula_sum   'Nb4 Se34 Cl24'
_cell_volume   1877.17482683
_cell_formula_units_Z   2
loop_
 _symmetry_equiv_pos_site_id
 _symmetry_equiv_pos_as_xyz
  1  'x, y, z'
loop_
 _atom_site_type_symbol
 _atom_site_label
 _atom_site_symmetry_multiplicity
 _atom_site_fract_x
 _atom_site_fract_y
 _atom_site_fract_z
 _atom_site_occupancy
  Nb  Nb0  1  0.31017685  0.72852315  0.52347824  1
  Nb  Nb1  1  0.68982315  0.27147685  0.47652176  1
  Nb  Nb2  1  0.83652295  0.71848686  0.99874756  1
  Nb  Nb3  1  0.16347705  0.28151314  0.00125244  1
  Se  Se0  1  0.48250162  0.83596681  0.98595986  1
  Se  Se1  1  0.11903229  0.39679815  0.66286540  1
  Se  Se2  1  0.73563401  0.10299553  0.77753264  1
  Se  Se3  1  0.68536556  0.62163149  0.34688435  1
  Se  Se4  1  0.32182881  0.91151561  0.96845097  1
  Se  Se5  1  0.12216185  0.30562932  0.37632271  1
  Se  Se6  1  0.18384390  0.62829893  0.92563185  1
  Se  Se7  1  0.81615610  0.37170107  0.07436815  1
  Se  Se8  1  0.39335775  0.64868180  0.96368221  1
  Se  Se9  1  0.04038170  0.03727973  0.39884361  1
  Se  Se10  1  0.14763264  0.58807624  0.73850782  1
  Se  Se11  1  0.44744059  0.84361563  0.25693420  1
  Se  Se12  1  0.55255941  0.15638437  0.74306580  1
  Se  Se13  1  0.67817119  0.08848439  0.03154903  1
  Se  Se14  1  0.95961830  0.96272027  0.60115639  1
  Se  Se15  1  0.67096332  0.97624461  0.84834099  1
  Se  Se16  1  0.74408281  0.80788530  0.33694480  1
  Se  Se17  1  0.24272140  0.06736412  0.49278067  1
  Se  Se18  1  0.07199154  0.11349511  0.27353496  1
  Se  Se19  1  0.60940826  0.33996881  0.84530260  1
  Se  Se20  1  0.75727860  0.93263588  0.50721933  1
  Se  Se21  1  0.85236736  0.41192376  0.26149218  1
  Se  Se22  1  0.51749838  0.16403319  0.01404014  1
  Se  Se23  1  0.32064398  0.34247233  0.46420300  1
  Se  Se24  1  0.31463444  0.37836851  0.65311565  1
  Se  Se25  1  0.88096771  0.60320185  0.33713460  1
  Se  Se26  1  0.25591719  0.19211470  0.66305520  1
  Se  Se27  1  0.87783815  0.69437068  0.62367729  1
  Se  Se28  1  0.92800846  0.88650489  0.72646504  1
  Se  Se29  1  0.39059174  0.66003119  0.15469740  1
  Se  Se30  1  0.60664225  0.35131820  0.03631779  1
  Se  Se31  1  0.67935602  0.65752767  0.53579700  1
  Se  Se32  1  0.26436599  0.89700447  0.22246736  1
  Se  Se33  1  0.32903668  0.02375539  0.15165901  1
  Cl  Cl0  1  0.02612928  0.27935900  0.85197643  1
  Cl  Cl1  1  0.32206311  0.38844736  0.95396393  1
  Cl  Cl2  1  0.31398831  0.29646330  0.15117454  1
  Cl  Cl3  1  0.76777495  0.15900616  0.33771080  1
  Cl  Cl4  1  0.01610833  0.16886649  0.04169356  1
  Cl  Cl5  1  0.23222505  0.84099384  0.66228920  1
  Cl  Cl6  1  0.98389167  0.83113351  0.95830644  1
  Cl  Cl7  1  0.68601169  0.70353670  0.84882546  1
  Cl  Cl8  1  0.39267580  0.61218667  0.38592977  1
  Cl  Cl9  1  0.60732420  0.38781333  0.61407023  1
  Cl  Cl10  1  0.14935137  0.57335081  0.49069050  1
  Cl  Cl11  1  0.79096560  0.88142898  0.11584166  1
  Cl  Cl12  1  0.20903440  0.11857102  0.88415834  1
  Cl  Cl13  1  0.87966043  0.55561219  0.88383223  1
  Cl  Cl14  1  0.97387072  0.72064100  0.14802357  1
  Cl  Cl15  1  0.12033957  0.44438781  0.11616777  1
  Cl  Cl16  1  0.57039889  0.31511414  0.34638752  1
  Cl  Cl17  1  0.46224878  0.88437837  0.55132183  1
  Cl  Cl18  1  0.67793689  0.61155264  0.04603607  1
  Cl  Cl19  1  0.18591348  0.75947013  0.38482040  1
  Cl  Cl20  1  0.81408652  0.24052987  0.61517960  1
  Cl  Cl21  1  0.85064863  0.42664919  0.50930950  1
  Cl  Cl22  1  0.53775122  0.11562163  0.44867817  1
  Cl  Cl23  1  0.42960111  0.68488586  0.65361248  1
loop_
_geom_bond_atom_site_label_1
_geom_bond_atom_site_label_2
_geom_bond_distance
_geom_bond_site_symmetry_2
Se0 Se4 2.294650 1_555
Se0 Se8 2.434787 1_555
Se1 Se10 2.329724 1_555
Se1 Se24 2.353645 1_555
Se3 Se31 2.434312 1_555
Se6 Se8 2.356792 1_555
Se10 Se6 2.332327 1_555
Se11 Se29 2.254049 1_555
Se11 Se32 2.391310 1_555
Se12 Se19 2.254049 1_555
Se12 Se2 2.391310 1_555
Se13 Se22 2.294650 1_555
Se13 Se15 2.363014 1_544
Se14 Se28 2.317677 1_555
Se14 Se20 2.377154 1_555
Se15 Se2 2.311666 1_565
Se16 Se20 2.262254 1_555
Se16 Se3 2.531333 1_555
Se17 Se26 2.262254 1_555
Se17 Se9 2.377154 1_555
Se18 Se9 2.317677 1_555
Se18 Se5 2.351539 1_555
Se19 Se30 2.534420 1_556
Se21 Se25 2.329724 1_555
Se21 Se7 2.332327 1_555
Se22 Se30 2.434787 1_555
Se23 Se5 2.298352 1_555
Se23 Se24 2.434312 1_555
Se24 Se26 2.531333 1_555
Se25 Se3 2.353645 1_555
Se27 Se31 2.298352 1_555
Se27 Se28 2.351539 1_555
Se29 Se8 2.534420 1_554
Se30 Se7 2.356792 1_555
Se32 Se33 2.311666 1_565
Se33 Se4 2.363014 1_544
Cl0 Nb3 2.347206 1_556
Cl1 Nb3 2.453010 1_556
Cl2 Nb3 2.373847 1_555
Cl3 Nb1 2.364997 1_555
Cl4 Nb3 2.354004 1_555
Cl5 Nb0 2.364997 1_555
Cl6 Nb2 2.354004 1_555
Cl7 Nb2 2.373847 1_555
Cl8 Nb0 2.410022 1_555
Cl9 Nb1 2.410022 1_555
Cl10 Nb0 2.399198 1_555
Cl11 Nb2 2.392702 1_554
Cl12 Nb3 2.392702 1_556
Cl13 Nb2 2.367818 1_555
Cl14 Nb2 2.347206 1_554
Cl15 Nb3 2.367818 1_555
Cl16 Nb1 2.364188 1_555
Cl17 Nb0 2.363676 1_555
Cl18 Nb2 2.453010 1_554
Cl19 Nb0 2.377959 1_555
Cl20 Nb1 2.377959 1_555
Cl21 Nb1 2.399198 1_555
Cl22 Nb1 2.363676 1_555
Cl23 Nb0 2.364188 1_555
