# generated using pymatgen
data_Ca2B5Os3
_symmetry_space_group_name_H-M   'P 1'
_cell_length_a   4.05404441
_cell_length_b   5.61819603
_cell_length_c   6.94687974
_cell_angle_alpha   78.21414897
_cell_angle_beta   73.02852268
_cell_angle_gamma   68.83760014
_symmetry_Int_Tables_number   1
_chemical_formula_structural   Ca2B5Os3
_chemical_formula_sum   'Ca2 B5 Os3'
_cell_volume   140.25868102
_cell_formula_units_Z   1
loop_
 _symmetry_equiv_pos_site_id
 _symmetry_equiv_pos_as_xyz
  1  'x, y, z'
loop_
 _atom_site_type_symbol
 _atom_site_label
 _atom_site_symmetry_multiplicity
 _atom_site_fract_x
 _atom_site_fract_y
 _atom_site_fract_z
 _atom_site_occupancy
  Ca  Ca0  1  0.07352939  0.55697915  0.76117291  1
  Ca  Ca1  1  0.39209093  0.44299241  0.23904134  1
  B  B0  1  0.73438171  0.50001116  0.50003950  1
  B  B1  1  0.47630975  0.93911512  0.12039236  1
  B  B2  1  0.53575220  0.06096285  0.87949902  1
  B  B3  1  0.37361296  0.01684635  0.68903444  1
  B  B4  1  0.07962953  0.98307389  0.31091106  1
  Os  Os0  1  0.01117827  0.00004343  0.99997162  1
  Os  Os1  1  0.87875225  0.13532634  0.59693010  1
  Os  Os2  1  0.61116103  0.86464630  0.40300965  1
loop_
_geom_bond_atom_site_label_1
_geom_bond_atom_site_label_2
_geom_bond_distance
_geom_bond_site_symmetry_2
Ca0 Os0 3.162257 1_565
Ca0 Os0 3.288187 1_555
Ca1 Os0 3.161593 1_654
Ca1 Os0 3.289665 1_564
B0 Os2 1.947873 1_555
B0 Os1 1.947887 1_555
B0 Ca0 2.700863 1_655
B0 Ca1 2.701453 1_655
B0 Ca1 2.709740 1_555
B0 Ca0 2.711411 1_555
B1 B2 1.656158 1_564
B1 B4 1.732935 1_555
B1 Os2 2.110544 1_555
B1 Os0 2.170389 1_564
B1 Os0 2.208809 1_664
B1 Ca1 2.854713 1_555
B1 Ca1 2.983431 1_565
B2 B3 1.733068 1_555
B2 Os1 2.110055 1_555
B2 Os0 2.170176 1_555
B2 Os0 2.209253 1_655
B2 Ca0 2.854111 1_555
B2 Ca0 2.982204 1_645
B3 Os1 2.118597 1_455
B3 Os2 2.142219 1_545
B3 Os0 2.235537 1_555
B3 Os1 2.256433 1_555
B3 Ca0 2.922255 1_555
B3 Ca0 3.129030 1_545
B3 Ca0 3.160009 1_645
B4 Os2 2.118507 1_455
B4 Os1 2.142315 1_465
B4 Os0 2.235769 1_564
B4 Os2 2.256366 1_555
B4 Ca1 2.921508 1_555
B4 Ca1 3.127338 1_465
B4 Ca1 3.161890 1_565
