# generated using pymatgen
data_CsNaB4H12O13
_symmetry_space_group_name_H-M   'P 1'
_cell_length_a   11.54508900
_cell_length_b   8.25072200
_cell_length_c   13.25605485
_cell_angle_alpha   87.58446065
_cell_angle_beta   90.00000000
_cell_angle_gamma   90.00000000
_symmetry_Int_Tables_number   1
_chemical_formula_structural   CsNaB4H12O13
_chemical_formula_sum   'Cs4 Na4 B16 H48 O52'
_cell_volume   1261.58774596
_cell_formula_units_Z   4
loop_
 _symmetry_equiv_pos_site_id
 _symmetry_equiv_pos_as_xyz
  1  'x, y, z'
loop_
 _atom_site_type_symbol
 _atom_site_label
 _atom_site_symmetry_multiplicity
 _atom_site_fract_x
 _atom_site_fract_y
 _atom_site_fract_z
 _atom_site_occupancy
  Cs  Cs0  1  0.38949800  0.04176100  0.36828900  1
  Cs  Cs1  1  0.88949800  0.95823900  0.13171100  1
  Cs  Cs2  1  0.61050200  0.95823900  0.63171100  1
  Cs  Cs3  1  0.11050200  0.04176100  0.86828900  1
  Na  Na0  1  0.08829000  0.13829300  0.53713300  1
  Na  Na1  1  0.58829000  0.86170700  0.96286700  1
  Na  Na2  1  0.91171000  0.86170700  0.46286700  1
  Na  Na3  1  0.41171000  0.13829300  0.03713300  1
  B  B0  1  0.59817100  0.36454800  0.40958300  1
  B  B1  1  0.09817100  0.63545200  0.09041700  1
  B  B2  1  0.40182900  0.63545200  0.59041700  1
  B  B3  1  0.90182900  0.36454800  0.90958300  1
  B  B4  1  0.70338900  0.35640000  0.24886700  1
  B  B5  1  0.20338900  0.64360000  0.25113300  1
  B  B6  1  0.29661100  0.64360000  0.75113300  1
  B  B7  1  0.79661100  0.35640000  0.74886700  1
  B  B8  1  0.82394000  0.59659400  0.29740000  1
  B  B9  1  0.32394000  0.40340600  0.20260000  1
  B  B10  1  0.17606000  0.40340600  0.70260000  1
  B  B11  1  0.67606000  0.59659400  0.79740000  1
  B  B12  1  0.61230400  0.61290600  0.28986500  1
  B  B13  1  0.11230400  0.38709400  0.21013500  1
  B  B14  1  0.38769600  0.38709400  0.71013500  1
  B  B15  1  0.88769600  0.61290600  0.78986500  1
  H  H0  1  0.50833600  0.35659700  0.53909500  1
  H  H1  1  0.00833600  0.64340300  0.96090500  1
  H  H2  1  0.49166400  0.64340300  0.46090500  1
  H  H3  1  0.99166400  0.35659700  0.03909500  1
  H  H4  1  0.70970300  0.28304700  0.10614300  1
  H  H5  1  0.20970300  0.71695300  0.39385700  1
  H  H6  1  0.29029700  0.71695300  0.89385700  1
  H  H7  1  0.79029700  0.28304700  0.60614300  1
  H  H8  1  0.99970600  0.60674300  0.30837400  1
  H  H9  1  0.49970600  0.39325700  0.19162600  1
  H  H10  1  0.00029400  0.39325700  0.69162600  1
  H  H11  1  0.50029400  0.60674300  0.80837400  1
  H  H12  1  0.45077500  0.68400500  0.25421100  1
  H  H13  1  0.95077500  0.31599500  0.24578900  1
  H  H14  1  0.54922500  0.31599500  0.74578900  1
  H  H15  1  0.04922500  0.68400500  0.75421100  1
  H  H16  1  0.18928600  0.40871800  0.39529100  1
  H  H17  1  0.68928600  0.59128200  0.10470900  1
  H  H18  1  0.81071400  0.59128200  0.60470900  1
  H  H19  1  0.31071400  0.40871800  0.89529100  1
  H  H20  1  0.27121600  0.39313400  0.49174000  1
  H  H21  1  0.77121600  0.60686600  0.00826000  1
  H  H22  1  0.72878400  0.60686600  0.50826000  1
  H  H23  1  0.22878400  0.39313400  0.99174000  1
  H  H24  1  0.28466600  0.11503000  0.63671400  1
  H  H25  1  0.78466600  0.88497000  0.86328600  1
  H  H26  1  0.71533400  0.88497000  0.36328600  1
  H  H27  1  0.21533400  0.11503000  0.13671400  1
  H  H28  1  0.29473500  0.92317000  0.62127100  1
  H  H29  1  0.79473500  0.07683000  0.87872900  1
  H  H30  1  0.70526500  0.07683000  0.37872900  1
  H  H31  1  0.20526500  0.92317000  0.12127100  1
  H  H32  1  0.05416600  0.10496300  0.32471600  1
  H  H33  1  0.55416600  0.89503700  0.17528400  1
  H  H34  1  0.94583400  0.89503700  0.67528400  1
  H  H35  1  0.44583400  0.10496300  0.82471600  1
  H  H36  1  0.11238200  0.93006900  0.34752800  1
  H  H37  1  0.61238200  0.06993100  0.15247200  1
  H  H38  1  0.88761800  0.06993100  0.65247200  1
  H  H39  1  0.38761800  0.93006900  0.84752800  1
  H  H40  1  0.87715800  0.32564600  0.40822000  1
  H  H41  1  0.37715800  0.67435400  0.09178000  1
  H  H42  1  0.12284200  0.67435400  0.59178000  1
  H  H43  1  0.62284200  0.32564600  0.90822000  1
  H  H44  1  0.98616400  0.39770700  0.45334300  1
  H  H45  1  0.48616400  0.60229300  0.04665700  1
  H  H46  1  0.01383600  0.60229300  0.54665700  1
  H  H47  1  0.51383600  0.39770700  0.95334300  1
  O  O0  1  0.65882500  0.27291900  0.34293500  1
  O  O1  1  0.15882500  0.72708100  0.15706500  1
  O  O2  1  0.34117500  0.72708100  0.65706500  1
  O  O3  1  0.84117500  0.27291900  0.84293500  1
  O  O4  1  0.81880300  0.43425800  0.27526200  1
  O  O5  1  0.31880300  0.56574200  0.22473800  1
  O  O6  1  0.18119700  0.56574200  0.72473800  1
  O  O7  1  0.68119700  0.43425800  0.77526200  1
  O  O8  1  0.72619300  0.69270800  0.30113700  1
  O  O9  1  0.22619300  0.30729200  0.19886300  1
  O  O10  1  0.27380700  0.30729200  0.69886300  1
  O  O11  1  0.77380700  0.69270800  0.80113700  1
  O  O12  1  0.58061600  0.52890800  0.39115500  1
  O  O13  1  0.08061600  0.47109200  0.10884500  1
  O  O14  1  0.41938400  0.47109200  0.60884500  1
  O  O15  1  0.91938400  0.52890800  0.89115500  1
  O  O16  1  0.62326500  0.48635400  0.21377100  1
  O  O17  1  0.12326500  0.51364600  0.28622900  1
  O  O18  1  0.37673500  0.51364600  0.78622900  1
  O  O19  1  0.87673500  0.48635400  0.71377100  1
  O  O20  1  0.55522700  0.28551800  0.49530100  1
  O  O21  1  0.05522700  0.71448200  0.00469900  1
  O  O22  1  0.44477300  0.71448200  0.50469900  1
  O  O23  1  0.94477300  0.28551800  0.99530100  1
  O  O24  1  0.71809300  0.23381400  0.17388300  1
  O  O25  1  0.21809300  0.76618600  0.32611700  1
  O  O26  1  0.28190700  0.76618600  0.82611700  1
  O  O27  1  0.78190700  0.23381400  0.67388300  1
  O  O28  1  0.92713500  0.67234900  0.31843900  1
  O  O29  1  0.42713500  0.32765100  0.18156100  1
  O  O30  1  0.07286500  0.32765100  0.68156100  1
  O  O31  1  0.57286500  0.67234900  0.81843900  1
  O  O32  1  0.52695600  0.73587000  0.26330600  1
  O  O33  1  0.02695600  0.26413000  0.23669400  1
  O  O34  1  0.47304400  0.26413000  0.73669400  1
  O  O35  1  0.97304400  0.73587000  0.76330600  1
  O  O36  1  0.21666800  0.33371400  0.45096200  1
  O  O37  1  0.71666800  0.66628600  0.04903800  1
  O  O38  1  0.78333200  0.66628600  0.54903800  1
  O  O39  1  0.28333200  0.33371400  0.95096200  1
  O  O40  1  0.26927600  0.02810500  0.58941300  1
  O  O41  1  0.76927600  0.97189500  0.91058700  1
  O  O42  1  0.73072400  0.97189500  0.41058700  1
  O  O43  1  0.23072400  0.02810500  0.08941300  1
  O  O44  1  0.06186000  0.01362600  0.37615100  1
  O  O45  1  0.56186000  0.98637400  0.12384900  1
  O  O46  1  0.93814000  0.98637400  0.62384900  1
  O  O47  1  0.43814000  0.01362600  0.87615100  1
  O  O48  1  0.92360700  0.32188200  0.47046900  1
  O  O49  1  0.42360700  0.67811800  0.02953100  1
  O  O50  1  0.07639300  0.67811800  0.52953100  1
  O  O51  1  0.57639300  0.32188200  0.97046900  1
loop_
_geom_bond_atom_site_label_1
_geom_bond_atom_site_label_2
_geom_bond_distance
_geom_bond_site_symmetry_2
Cs0 O25 3.083072 1_545
Cs0 O40 3.240902 1_555
Cs0 O22 3.249155 1_545
Cs0 O20 3.290280 1_555
Cs0 O36 3.347740 1_555
Cs0 O29 3.374548 1_555
Cs1 O24 3.083072 1_565
Cs1 O41 3.240902 1_554
Cs1 O23 3.249155 1_564
Cs1 O21 3.290280 1_655
Cs1 O37 3.347740 1_555
Cs1 O28 3.374548 1_555
Cs2 O27 3.083072 1_565
Cs2 O42 3.240902 1_555
Cs2 O20 3.249155 1_565
Cs2 O22 3.290280 1_555
Cs2 O38 3.347740 1_555
Cs2 O31 3.374548 1_555
Cs3 O26 3.083072 1_545
Cs3 O43 3.240902 1_556
Cs3 O21 3.249155 1_546
Cs3 O23 3.290280 1_455
Cs3 O39 3.347740 1_555
Cs3 O30 3.374548 1_555
Na0 O40 2.370591 1_555
Na0 O46 2.403340 1_445
Na0 O44 2.426939 1_555
Na0 O36 2.438445 1_555
Na0 O30 2.527893 1_555
Na0 O48 2.564645 1_455
Na1 O41 2.370591 1_555
Na1 O47 2.403340 1_565
Na1 O45 2.426939 1_556
Na1 O37 2.438445 1_556
Na1 O31 2.527893 1_555
Na1 O49 2.564645 1_556
Na2 O42 2.370591 1_555
Na2 O44 2.403340 1_665
Na2 O46 2.426939 1_555
Na2 O38 2.438445 1_555
Na2 O28 2.527893 1_555
Na2 O50 2.564645 1_655
Na3 O43 2.370591 1_555
Na3 O45 2.403340 1_545
Na3 O47 2.426939 1_554
Na3 O39 2.438445 1_554
Na3 O29 2.527893 1_555
Na3 O51 2.564645 1_554
B0 O0 1.377954 1_555
B0 O20 1.378285 1_555
B0 O12 1.382680 1_555
B1 O1 1.377954 1_555
B1 O21 1.378285 1_555
B1 O13 1.382680 1_555
B2 O2 1.377954 1_555
B2 O22 1.378285 1_555
B2 O14 1.382680 1_555
B3 O3 1.377954 1_555
B3 O23 1.378285 1_555
B3 O15 1.382680 1_555
B4 O24 1.457587 1_555
B4 O16 1.476393 1_555
B4 O0 1.490523 1_555
B4 O4 1.526268 1_555
B5 O25 1.457587 1_555
B5 O17 1.476393 1_555
B5 O1 1.490523 1_555
B5 O5 1.526268 1_555
B6 O26 1.457587 1_555
B6 O18 1.476393 1_555
B6 O2 1.490523 1_555
B6 O6 1.526268 1_555
B7 O27 1.457587 1_555
B7 O19 1.476393 1_555
B7 O3 1.490523 1_555
B7 O7 1.526268 1_555
B8 O28 1.379335 1_555
B8 O8 1.381353 1_555
B8 O4 1.384461 1_555
B9 O29 1.379335 1_555
B9 O9 1.381353 1_555
B9 O5 1.384461 1_555
B10 O30 1.379335 1_555
B10 O10 1.381353 1_555
B10 O6 1.384461 1_555
B11 O31 1.379335 1_555
B11 O11 1.381353 1_555
B11 O7 1.384461 1_555
B12 O32 1.447084 1_555
B12 O8 1.480877 1_555
B12 O16 1.487455 1_555
B12 O12 1.529238 1_555
B13 O33 1.447084 1_555
B13 O9 1.480877 1_555
B13 O17 1.487455 1_555
B13 O13 1.529238 1_555
B14 O34 1.447084 1_555
B14 O10 1.480877 1_555
B14 O18 1.487455 1_555
B14 O14 1.529238 1_555
B15 O35 1.447084 1_555
B15 O11 1.480877 1_555
B15 O19 1.487455 1_555
B15 O15 1.529238 1_555
H0 O20 1.001358 1_555
H0 O14 1.695750 1_555
H1 O21 1.001358 1_556
H1 O15 1.695750 1_455
H2 O22 1.001358 1_555
H2 O12 1.695750 1_555
H3 O23 1.001358 1_554
H3 O13 1.695750 1_655
H4 O24 0.974670 1_555
H5 O25 0.974670 1_555
H6 O26 0.974670 1_555
H7 O27 0.974670 1_555
H8 O28 1.009388 1_555
H8 O17 1.652298 1_655
H9 O29 1.009388 1_555
H9 O16 1.652298 1_555
H10 O30 1.009388 1_555
H10 O19 1.652298 1_455
H11 O31 1.009388 1_555
H11 O18 1.652298 1_555
H12 O32 0.987701 1_555
H13 O33 0.987701 1_655
H14 O34 0.987701 1_555
H15 O35 0.987701 1_455
H16 O36 0.994491 1_555
H17 O37 0.994491 1_555
H18 O38 0.994491 1_555
H19 O39 0.994491 1_555
H20 O36 0.975444 1_555
H21 O37 0.975444 1_555
H22 O38 0.975444 1_555
H23 O39 0.975444 1_555
H24 O40 0.988435 1_555
H25 O41 0.988435 1_555
H26 O42 0.988435 1_555
H27 O43 0.988435 1_555
H28 O40 0.991721 1_565
H29 O41 0.991721 1_545
H30 O42 0.991721 1_545
H31 O43 0.991721 1_565
H32 O44 0.998685 1_555
H33 O45 0.998685 1_555
H34 O46 0.998685 1_555
H35 O47 0.998685 1_555
H36 O44 0.990713 1_565
H37 O45 0.990713 1_545
H38 O46 0.990713 1_545
H39 O47 0.990713 1_565
H40 O48 0.983510 1_555
H41 O49 0.983510 1_555
H42 O50 0.983510 1_555
H43 O51 0.983510 1_555
H44 O48 0.975995 1_555
H45 O49 0.975995 1_555
H46 O50 0.975995 1_555
H47 O51 0.975995 1_555
