# generated using pymatgen
data_Zn3(PO4)2
_symmetry_space_group_name_H-M   'P 1'
_cell_length_a   4.97238530
_cell_length_b   4.97237833
_cell_length_c   14.96582187
_cell_angle_alpha   77.74585445
_cell_angle_beta   77.74592323
_cell_angle_gamma   69.11564784
_symmetry_Int_Tables_number   1
_chemical_formula_structural   Zn3(PO4)2
_chemical_formula_sum   'Zn6 P4 O16'
_cell_volume   334.03531505
_cell_formula_units_Z   2
loop_
 _symmetry_equiv_pos_site_id
 _symmetry_equiv_pos_as_xyz
  1  'x, y, z'
loop_
 _atom_site_type_symbol
 _atom_site_label
 _atom_site_symmetry_multiplicity
 _atom_site_fract_x
 _atom_site_fract_y
 _atom_site_fract_z
 _atom_site_occupancy
  Zn  Zn0  1  0.82368838  0.71255442  0.43168410  1
  Zn  Zn1  1  0.74648263  0.25351831  0.24999989  1
  Zn  Zn2  1  0.71255593  0.82368290  0.93168356  1
  Zn  Zn3  1  0.28744546  0.17631260  0.06831560  1
  Zn  Zn4  1  0.25352263  0.74647614  0.74999998  1
  Zn  Zn5  1  0.17631700  0.28744335  0.56831650  1
  P  P0  1  0.91110669  0.77010707  0.12870372  1
  P  P1  1  0.08889033  0.22989301  0.87129630  1
  P  P2  1  0.22989329  0.08889305  0.37129740  1
  P  P3  1  0.77010695  0.91110968  0.62870266  1
  O  O0  1  0.03673218  0.97749752  0.64611928  1
  O  O1  1  0.63015032  0.78774898  0.72072380  1
  O  O2  1  0.57404171  0.18745738  0.57903590  1
  O  O3  1  0.97750003  0.03673213  0.14611895  1
  O  O4  1  0.96326906  0.02250064  0.35388103  1
  O  O5  1  0.78774508  0.63015571  0.22072371  1
  O  O6  1  0.02250310  0.96326546  0.85388143  1
  O  O7  1  0.42595802  0.81254339  0.42096430  1
  O  O8  1  0.21224385  0.36985148  0.77927544  1
  O  O9  1  0.67838698  0.88955605  0.06241698  1
  O  O10  1  0.81254237  0.42595621  0.92096498  1
  O  O11  1  0.32161677  0.11044969  0.93758084  1
  O  O12  1  0.88955387  0.67838352  0.56241836  1
  O  O13  1  0.18745699  0.57404244  0.07903620  1
  O  O14  1  0.11044368  0.32161374  0.43758326  1
  O  O15  1  0.36984572  0.21225513  0.27927683  1
loop_
_geom_bond_atom_site_label_1
_geom_bond_atom_site_label_2
_geom_bond_distance
_geom_bond_site_symmetry_2
O0 P3 1.558781 1_455
O0 Zn5 1.967368 1_565
O0 Zn4 1.992233 1_555
O1 P3 1.515281 1_555
O1 Zn4 1.904933 1_555
O2 P3 1.519884 1_545
O2 Zn5 1.893090 1_555
O3 P0 1.558786 1_545
O3 Zn3 1.967360 1_655
O3 Zn1 1.992222 1_555
O4 P2 1.558787 1_655
O4 Zn0 1.967361 1_545
O4 Zn1 1.992224 1_555
O5 P0 1.515259 1_555
O5 Zn1 1.904956 1_555
O6 P1 1.558779 1_565
O6 Zn2 1.967366 1_455
O6 Zn4 1.992238 1_555
O7 P2 1.519890 1_565
O7 Zn0 1.893117 1_555
O8 P1 1.515268 1_555
O8 Zn4 1.904928 1_555
O9 P0 1.556636 1_555
O9 Zn3 1.955529 1_565
O9 Zn2 2.013810 1_554
O10 P1 1.519895 1_655
O10 Zn2 1.893094 1_555
O11 P1 1.556638 1_555
O11 Zn2 1.955540 1_545
O11 Zn3 2.013810 1_556
O12 P3 1.556634 1_555
O12 Zn5 1.955535 1_655
O12 Zn0 2.013807 1_555
O13 P0 1.519897 1_455
O13 Zn3 1.893115 1_555
O14 P2 1.556630 1_555
O14 Zn0 1.955522 1_455
O14 Zn5 2.013806 1_555
O15 P2 1.515269 1_555
O15 Zn1 1.904958 1_555
