# generated using pymatgen
data_Lu3Fe5O12
_symmetry_space_group_name_H-M   'P 1'
_cell_length_a   10.73695351
_cell_length_b   10.73695351
_cell_length_c   10.73695351
_cell_angle_alpha   109.47122063
_cell_angle_beta   109.47122063
_cell_angle_gamma   109.47122063
_symmetry_Int_Tables_number   1
_chemical_formula_structural   Lu3Fe5O12
_chemical_formula_sum   'Lu12 Fe20 O48'
_cell_volume   952.84295519
_cell_formula_units_Z   4
loop_
 _symmetry_equiv_pos_site_id
 _symmetry_equiv_pos_as_xyz
  1  'x, y, z'
loop_
 _atom_site_type_symbol
 _atom_site_label
 _atom_site_symmetry_multiplicity
 _atom_site_fract_x
 _atom_site_fract_y
 _atom_site_fract_z
 _atom_site_occupancy
  Lu  Lu0  1  0.25000000  0.37500000  0.12500000  1
  Lu  Lu1  1  0.87500000  0.62500000  0.25000000  1
  Lu  Lu2  1  0.37500000  0.12500000  0.25000000  1
  Lu  Lu3  1  0.75000000  0.62500000  0.87500000  1
  Lu  Lu4  1  0.12500000  0.37500000  0.75000000  1
  Lu  Lu5  1  0.87500000  0.75000000  0.62500000  1
  Lu  Lu6  1  0.25000000  0.87500000  0.62500000  1
  Lu  Lu7  1  0.75000000  0.12500000  0.37500000  1
  Lu  Lu8  1  0.37500000  0.75000000  0.12500000  1
  Lu  Lu9  1  0.62500000  0.87500000  0.75000000  1
  Lu  Lu10  1  0.12500000  0.25000000  0.37500000  1
  Lu  Lu11  1  0.62500000  0.25000000  0.87500000  1
  Fe  Fe0  1  0.00000000  0.50000000  0.50000000  1
  Fe  Fe1  1  0.25000000  0.12500000  0.87500000  1
  Fe  Fe2  1  0.37500000  0.62500000  0.75000000  1
  Fe  Fe3  1  0.50000000  0.50000000  0.50000000  1
  Fe  Fe4  1  0.00000000  0.00000000  0.00000000  1
  Fe  Fe5  1  0.25000000  0.62500000  0.37500000  1
  Fe  Fe6  1  0.50000000  0.00000000  0.00000000  1
  Fe  Fe7  1  0.50000000  0.50000000  0.00000000  1
  Fe  Fe8  1  0.62500000  0.75000000  0.37500000  1
  Fe  Fe9  1  0.00000000  0.00000000  0.50000000  1
  Fe  Fe10  1  0.12500000  0.75000000  0.87500000  1
  Fe  Fe11  1  0.75000000  0.37500000  0.62500000  1
  Fe  Fe12  1  0.75000000  0.87500000  0.12500000  1
  Fe  Fe13  1  0.37500000  0.25000000  0.62500000  1
  Fe  Fe14  1  0.87500000  0.12500000  0.75000000  1
  Fe  Fe15  1  0.50000000  0.00000000  0.50000000  1
  Fe  Fe16  1  0.12500000  0.87500000  0.25000000  1
  Fe  Fe17  1  0.87500000  0.25000000  0.12500000  1
  Fe  Fe18  1  0.00000000  0.50000000  0.00000000  1
  Fe  Fe19  1  0.62500000  0.37500000  0.25000000  1
  O  O0  1  0.46476100  0.59246700  0.17640100  1
  O  O1  1  0.96476100  0.67640100  0.09246700  1
  O  O2  1  0.40753300  0.08393400  0.87229400  1
  O  O3  1  0.03523900  0.21164000  0.12770600  1
  O  O4  1  0.40753300  0.82359900  0.53523900  1
  O  O5  1  0.12770600  0.59246700  0.91606600  1
  O  O6  1  0.08393400  0.71164000  0.67640100  1
  O  O7  1  0.09246700  0.96476100  0.67640100  1
  O  O8  1  0.67640100  0.09246700  0.96476100  1
  O  O9  1  0.82359900  0.53523900  0.40753300  1
  O  O10  1  0.46476100  0.37229400  0.28836000  1
  O  O11  1  0.71164000  0.53523900  0.62770600  1
  O  O12  1  0.28836000  0.46476100  0.37229400  1
  O  O13  1  0.53523900  0.62770600  0.71164000  1
  O  O14  1  0.28836000  0.32359900  0.91606600  1
  O  O15  1  0.41606600  0.82359900  0.78836000  1
  O  O16  1  0.82359900  0.78836000  0.41606600  1
  O  O17  1  0.96476100  0.78836000  0.87229400  1
  O  O18  1  0.09246700  0.62770600  0.41606600  1
  O  O19  1  0.32359900  0.91606600  0.28836000  1
  O  O20  1  0.21164000  0.12770600  0.03523900  1
  O  O21  1  0.08393400  0.87229400  0.40753300  1
  O  O22  1  0.17640100  0.46476100  0.59246700  1
  O  O23  1  0.87229400  0.40753300  0.08393400  1
  O  O24  1  0.12770600  0.03523900  0.21164000  1
  O  O25  1  0.91606600  0.28836000  0.32359900  1
  O  O26  1  0.17640100  0.21164000  0.58393400  1
  O  O27  1  0.41606600  0.09246700  0.62770600  1
  O  O28  1  0.37229400  0.28836000  0.46476100  1
  O  O29  1  0.87229400  0.96476100  0.78836000  1
  O  O30  1  0.59246700  0.91606600  0.12770600  1
  O  O31  1  0.62770600  0.71164000  0.53523900  1
  O  O32  1  0.78836000  0.41606600  0.82359900  1
  O  O33  1  0.59246700  0.17640100  0.46476100  1
  O  O34  1  0.90753300  0.37229400  0.58393400  1
  O  O35  1  0.53523900  0.40753300  0.82359900  1
  O  O36  1  0.37229400  0.58393400  0.90753300  1
  O  O37  1  0.58393400  0.90753300  0.37229400  1
  O  O38  1  0.03523900  0.32359900  0.90753300  1
  O  O39  1  0.62770600  0.41606600  0.09246700  1
  O  O40  1  0.67640100  0.08393400  0.71164000  1
  O  O41  1  0.78836000  0.87229400  0.96476100  1
  O  O42  1  0.21164000  0.58393400  0.17640100  1
  O  O43  1  0.58393400  0.17640100  0.21164000  1
  O  O44  1  0.91606600  0.12770600  0.59246700  1
  O  O45  1  0.71164000  0.67640100  0.08393400  1
  O  O46  1  0.32359900  0.90753300  0.03523900  1
  O  O47  1  0.90753300  0.03523900  0.32359900  1
loop_
_geom_bond_atom_site_label_1
_geom_bond_atom_site_label_2
_geom_bond_distance
_geom_bond_site_symmetry_2
Lu0 O14 2.334269 1_554
Lu0 O42 2.334269 1_555
Lu0 O12 2.334269 1_555
Lu0 O20 2.334269 1_555
Lu0 O0 2.403479 1_555
Lu0 O3 2.403479 1_555
Lu0 O10 2.403479 1_555
Lu0 O38 2.403479 1_554
Lu1 O21 2.334269 1_655
Lu1 O1 2.334269 1_555
Lu1 O39 2.334269 1_555
Lu1 O9 2.334269 1_555
Lu1 O45 2.403479 1_555
Lu1 O23 2.403479 1_555
Lu1 O16 2.403479 1_555
Lu1 O18 2.403479 1_655
Lu2 O19 2.334269 1_545
Lu2 O43 2.334269 1_555
Lu2 O10 2.334269 1_555
Lu2 O24 2.334269 1_555
Lu2 O28 2.403479 1_555
Lu2 O46 2.403479 1_545
Lu2 O33 2.403479 1_555
Lu2 O20 2.403479 1_555
Lu3 O45 2.334269 1_556
Lu3 O32 2.334269 1_555
Lu3 O41 2.334269 1_555
Lu3 O11 2.334269 1_555
Lu3 O13 2.403479 1_555
Lu3 O17 2.403479 1_555
Lu3 O1 2.403479 1_556
Lu3 O35 2.403479 1_555
Lu4 O44 2.334269 1_455
Lu4 O22 2.334269 1_555
Lu4 O36 2.334269 1_555
Lu4 O38 2.334269 1_555
Lu4 O34 2.403479 1_455
Lu4 O5 2.403479 1_555
Lu4 O14 2.403479 1_555
Lu4 O26 2.403479 1_555
Lu5 O6 2.334269 1_655
Lu5 O16 2.334269 1_555
Lu5 O31 2.334269 1_555
Lu5 O17 2.334269 1_555
Lu5 O11 2.403479 1_555
Lu5 O9 2.403479 1_555
Lu5 O29 2.403479 1_555
Lu5 O7 2.403479 1_655
Lu6 O2 2.334269 1_565
Lu6 O4 2.334269 1_555
Lu6 O7 2.334269 1_555
Lu6 O18 2.334269 1_555
Lu6 O15 2.403479 1_555
Lu6 O6 2.403479 1_555
Lu6 O21 2.403479 1_555
Lu6 O27 2.403479 1_565
Lu7 O33 2.334269 1_555
Lu7 O47 2.334269 1_555
Lu7 O34 2.334269 1_555
Lu7 O30 2.334269 1_545
Lu7 O25 2.403479 1_555
Lu7 O44 2.403479 1_555
Lu7 O37 2.403479 1_545
Lu7 O43 2.403479 1_555
Lu8 O46 2.334269 1_555
Lu8 O5 2.334269 1_554
Lu8 O37 2.334269 1_555
Lu8 O0 2.334269 1_555
Lu8 O30 2.403479 1_555
Lu8 O36 2.403479 1_554
Lu8 O19 2.403479 1_555
Lu8 O42 2.403479 1_555
Lu9 O40 2.334269 1_565
Lu9 O15 2.334269 1_555
Lu9 O13 2.334269 1_555
Lu9 O29 2.334269 1_555
Lu9 O41 2.403479 1_555
Lu9 O31 2.403479 1_555
Lu9 O4 2.403479 1_555
Lu9 O8 2.403479 1_565
Lu10 O25 2.334269 1_455
Lu10 O26 2.334269 1_555
Lu10 O28 2.334269 1_555
Lu10 O3 2.334269 1_555
Lu10 O47 2.403479 1_455
Lu10 O12 2.403479 1_555
Lu10 O22 2.403479 1_555
Lu10 O24 2.403479 1_555
Lu11 O35 2.334269 1_555
Lu11 O23 2.334269 1_556
Lu11 O27 2.334269 1_555
Lu11 O8 2.334269 1_555
Lu11 O40 2.403479 1_555
Lu11 O32 2.403479 1_555
Lu11 O2 2.403479 1_555
Lu11 O39 2.403479 1_556
Fe0 O34 2.047115 1_455
Fe0 O22 2.047115 1_555
Fe0 O18 2.047115 1_555
Fe0 O25 2.047115 1_455
Fe0 O9 2.047115 1_455
Fe0 O6 2.047115 1_555
Fe1 O2 1.891452 1_555
Fe1 O7 1.891452 1_545
Fe1 O14 1.891452 1_555
Fe1 O20 1.891452 1_556
Fe2 O15 1.891452 1_555
Fe2 O13 1.891452 1_555
Fe2 O22 1.891452 1_555
Fe2 O36 1.891452 1_555
Fe3 O12 2.047115 1_555
Fe3 O10 2.047115 1_555
Fe3 O28 2.047115 1_555
Fe3 O31 2.047115 1_555
Fe3 O13 2.047115 1_555
Fe3 O11 2.047115 1_555
Fe4 O20 2.047115 1_555
Fe4 O24 2.047115 1_555
Fe4 O3 2.047115 1_555
Fe4 O29 2.047115 1_444
Fe4 O17 2.047115 1_444
Fe4 O41 2.047115 1_444
Fe5 O42 1.891452 1_555
Fe5 O4 1.891452 1_555
Fe5 O12 1.891452 1_555
Fe5 O18 1.891452 1_555
Fe6 O30 2.047115 1_545
Fe6 O46 2.047115 1_545
Fe6 O43 2.047115 1_555
Fe6 O2 2.047115 1_554
Fe6 O8 2.047115 1_554
Fe6 O15 2.047115 1_544
Fe7 O36 2.047115 1_554
Fe7 O14 2.047115 1_554
Fe7 O39 2.047115 1_555
Fe7 O0 2.047115 1_555
Fe7 O35 2.047115 1_554
Fe7 O45 2.047115 1_555
Fe8 O16 1.891452 1_555
Fe8 O31 1.891452 1_555
Fe8 O0 1.891452 1_555
Fe8 O37 1.891452 1_555
Fe9 O44 2.047115 1_455
Fe9 O26 2.047115 1_555
Fe9 O21 2.047115 1_545
Fe9 O47 2.047115 1_455
Fe9 O16 2.047115 1_445
Fe9 O7 2.047115 1_545
Fe10 O6 1.891452 1_555
Fe10 O17 1.891452 1_455
Fe10 O46 1.891452 1_556
Fe10 O5 1.891452 1_555
Fe11 O32 1.891452 1_555
Fe11 O11 1.891452 1_555
Fe11 O33 1.891452 1_555
Fe11 O34 1.891452 1_555
Fe12 O45 1.891452 1_555
Fe12 O41 1.891452 1_554
Fe12 O47 1.891452 1_565
Fe12 O30 1.891452 1_555
Fe13 O27 1.891452 1_555
Fe13 O26 1.891452 1_555
Fe13 O35 1.891452 1_555
Fe13 O28 1.891452 1_555
Fe14 O29 1.891452 1_545
Fe14 O40 1.891452 1_555
Fe14 O44 1.891452 1_555
Fe14 O38 1.891452 1_655
Fe15 O37 2.047115 1_545
Fe15 O33 2.047115 1_555
Fe15 O19 2.047115 1_545
Fe15 O4 2.047115 1_545
Fe15 O40 2.047115 1_555
Fe15 O27 2.047115 1_555
Fe16 O21 1.891452 1_555
Fe16 O19 1.891452 1_555
Fe16 O1 1.891452 1_455
Fe16 O24 1.891452 1_565
Fe17 O25 1.891452 1_555
Fe17 O23 1.891452 1_555
Fe17 O8 1.891452 1_554
Fe17 O3 1.891452 1_655
Fe18 O5 2.047115 1_554
Fe18 O38 2.047115 1_554
Fe18 O23 2.047115 1_455
Fe18 O42 2.047115 1_555
Fe18 O1 2.047115 1_455
Fe18 O32 2.047115 1_454
Fe19 O9 1.891452 1_555
Fe19 O39 1.891452 1_555
Fe19 O43 1.891452 1_555
Fe19 O10 1.891452 1_555
