# generated using pymatgen
data_Bi8AsAuCl9
_symmetry_space_group_name_H-M   'P 1'
_cell_length_a   15.13707200
_cell_length_b   10.52038000
_cell_length_c   14.49625970
_cell_angle_alpha   86.47026305
_cell_angle_beta   90.00000000
_cell_angle_gamma   90.00000000
_symmetry_Int_Tables_number   1
_chemical_formula_structural   Bi8AsAuCl9
_chemical_formula_sum   'Bi32 As4 Au4 Cl36'
_cell_volume   2304.11746845
_cell_formula_units_Z   4
loop_
 _symmetry_equiv_pos_site_id
 _symmetry_equiv_pos_as_xyz
  1  'x, y, z'
loop_
 _atom_site_type_symbol
 _atom_site_label
 _atom_site_symmetry_multiplicity
 _atom_site_fract_x
 _atom_site_fract_y
 _atom_site_fract_z
 _atom_site_occupancy
  Bi  Bi0  1  0.07010400  0.61895000  0.67677300  1
  Bi  Bi1  1  0.57010400  0.38105000  0.82322700  1
  Bi  Bi2  1  0.68712900  0.58497600  0.93214200  1
  Bi  Bi3  1  0.86143400  0.54753900  0.64988800  1
  Bi  Bi4  1  0.05248300  0.22142600  0.47418400  1
  Bi  Bi5  1  0.63856600  0.54753900  0.14988800  1
  Bi  Bi6  1  0.48841300  0.32807600  0.44902000  1
  Bi  Bi7  1  0.63990700  0.05843500  0.31194500  1
  Bi  Bi8  1  0.98841300  0.67192400  0.05098000  1
  Bi  Bi9  1  0.01158700  0.32807600  0.94902000  1
  Bi  Bi10  1  0.13990700  0.94156500  0.18805500  1
  Bi  Bi11  1  0.55248300  0.77857400  0.02581600  1
  Bi  Bi12  1  0.85113300  0.30061600  0.52516700  1
  Bi  Bi13  1  0.14886700  0.69938400  0.47483300  1
  Bi  Bi14  1  0.92989600  0.38105000  0.32322700  1
  Bi  Bi15  1  0.94751700  0.77857400  0.52581600  1
  Bi  Bi16  1  0.51158700  0.67192400  0.55098000  1
  Bi  Bi17  1  0.35113300  0.69938400  0.97483300  1
  Bi  Bi18  1  0.36143400  0.45246100  0.85011200  1
  Bi  Bi19  1  0.18712900  0.41502400  0.56785800  1
  Bi  Bi20  1  0.86009300  0.05843500  0.81194500  1
  Bi  Bi21  1  0.42989600  0.61895000  0.17677300  1
  Bi  Bi22  1  0.86218400  0.95796900  0.19331300  1
  Bi  Bi23  1  0.13781600  0.04203100  0.80668700  1
  Bi  Bi24  1  0.81287100  0.58497600  0.43214200  1
  Bi  Bi25  1  0.44751700  0.22142600  0.97418400  1
  Bi  Bi26  1  0.63781600  0.95796900  0.69331300  1
  Bi  Bi27  1  0.36218400  0.04203100  0.30668700  1
  Bi  Bi28  1  0.36009300  0.94156500  0.68805500  1
  Bi  Bi29  1  0.64886700  0.30061600  0.02516700  1
  Bi  Bi30  1  0.13856600  0.45246100  0.35011200  1
  Bi  Bi31  1  0.31287100  0.41502400  0.06785800  1
  As  As0  1  0.00385900  0.21818900  0.78075200  1
  As  As1  1  0.50385900  0.78181100  0.71924800  1
  As  As2  1  0.99614100  0.78181100  0.21924800  1
  As  As3  1  0.49614100  0.21818900  0.28075200  1
  Au  Au0  1  0.49325400  0.36704500  0.13250700  1
  Au  Au1  1  0.50674600  0.63295500  0.86749300  1
  Au  Au2  1  0.00674600  0.36704500  0.63250700  1
  Au  Au3  1  0.99325400  0.63295500  0.36749300  1
  Cl  Cl0  1  0.24229000  0.74448600  0.25137800  1
  Cl  Cl1  1  0.49478400  0.13312800  0.67520400  1
  Cl  Cl2  1  0.74944400  0.77500000  0.26032500  1
  Cl  Cl3  1  0.85606600  0.17145400  0.98377300  1
  Cl  Cl4  1  0.89587000  0.50743200  0.87551600  1
  Cl  Cl5  1  0.24944400  0.22500000  0.23967500  1
  Cl  Cl6  1  0.64393400  0.17145400  0.48377300  1
  Cl  Cl7  1  0.37058700  0.49504900  0.37528400  1
  Cl  Cl8  1  0.84177900  0.83039000  0.02026000  1
  Cl  Cl9  1  0.86346800  0.02302700  0.62780100  1
  Cl  Cl10  1  0.12941300  0.49504900  0.87528400  1
  Cl  Cl11  1  0.87058700  0.50495100  0.12471600  1
  Cl  Cl12  1  0.99478400  0.86687200  0.82479600  1
  Cl  Cl13  1  0.75771000  0.25551400  0.74862200  1
  Cl  Cl14  1  0.87252100  0.00505500  0.37191600  1
  Cl  Cl15  1  0.00521600  0.13312800  0.17520400  1
  Cl  Cl16  1  0.62941300  0.50495100  0.62471600  1
  Cl  Cl17  1  0.37252100  0.99494500  0.12808400  1
  Cl  Cl18  1  0.74229000  0.25551400  0.24862200  1
  Cl  Cl19  1  0.62747900  0.00505500  0.87191600  1
  Cl  Cl20  1  0.34177900  0.16961000  0.47974000  1
  Cl  Cl21  1  0.13653200  0.97697300  0.37219900  1
  Cl  Cl22  1  0.25055600  0.22500000  0.73967500  1
  Cl  Cl23  1  0.63653200  0.02302700  0.12780100  1
  Cl  Cl24  1  0.10413000  0.49256800  0.12448400  1
  Cl  Cl25  1  0.25771000  0.74448600  0.75137800  1
  Cl  Cl26  1  0.36346800  0.97697300  0.87219900  1
  Cl  Cl27  1  0.65822100  0.83039000  0.52026000  1
  Cl  Cl28  1  0.35606600  0.82854600  0.51622700  1
  Cl  Cl29  1  0.12747900  0.99494500  0.62808400  1
  Cl  Cl30  1  0.60413000  0.50743200  0.37551600  1
  Cl  Cl31  1  0.14393400  0.82854600  0.01622700  1
  Cl  Cl32  1  0.39587000  0.49256800  0.62448400  1
  Cl  Cl33  1  0.15822100  0.16961000  0.97974000  1
  Cl  Cl34  1  0.75055600  0.77500000  0.76032500  1
  Cl  Cl35  1  0.50521600  0.86687200  0.32479600  1
loop_
_geom_bond_atom_site_label_1
_geom_bond_atom_site_label_2
_geom_bond_distance
_geom_bond_site_symmetry_2
Bi0 Cl10 3.213122 1_555
Bi1 Cl16 3.213122 1_555
Bi6 Cl7 2.679192 1_555
Bi6 Cl30 2.741591 1_555
Bi6 Cl20 2.795150 1_555
Bi6 Cl6 2.899745 1_555
Bi7 Cl18 2.703489 1_555
Bi7 Cl23 2.718364 1_555
Bi7 Cl6 2.826043 1_555
Bi7 Cl35 2.864749 1_545
Bi8 Cl11 2.679192 1_555
Bi8 Cl24 2.741591 1_655
Bi8 Cl8 2.795150 1_555
Bi8 Cl31 2.899745 1_655
Bi9 Cl10 2.679192 1_555
Bi9 Cl4 2.741591 1_455
Bi9 Cl33 2.795150 1_555
Bi9 Cl3 2.899745 1_455
Bi10 Cl0 2.703489 1_555
Bi10 Cl21 2.718364 1_555
Bi10 Cl31 2.826043 1_555
Bi10 Cl15 2.864749 1_565
Bi12 Cl9 3.200286 1_555
Bi13 Cl21 3.200286 1_555
Bi14 Cl11 3.213122 1_555
Bi16 Cl16 2.679192 1_555
Bi16 Cl32 2.741591 1_555
Bi16 Cl27 2.795150 1_555
Bi16 Cl28 2.899745 1_555
Bi17 Cl26 3.200286 1_555
Bi20 Cl13 2.703489 1_555
Bi20 Cl9 2.718364 1_555
Bi20 Cl3 2.826043 1_555
Bi20 Cl12 2.864749 1_545
Bi21 Cl7 3.213122 1_555
Bi22 Cl14 2.670412 1_565
Bi22 Cl2 2.707581 1_555
Bi22 Cl15 2.844755 1_665
Bi22 Cl8 2.933363 1_555
Bi23 Cl29 2.670412 1_545
Bi23 Cl22 2.707581 1_555
Bi23 Cl12 2.844755 1_445
Bi23 Cl33 2.933363 1_555
Bi26 Cl19 2.670412 1_565
Bi26 Cl34 2.707581 1_555
Bi26 Cl1 2.844755 1_565
Bi26 Cl27 2.933363 1_555
Bi27 Cl17 2.670412 1_545
Bi27 Cl5 2.707581 1_555
Bi27 Cl35 2.844755 1_545
Bi27 Cl20 2.933363 1_555
Bi28 Cl25 2.703489 1_555
Bi28 Cl26 2.718364 1_555
Bi28 Cl28 2.826043 1_555
Bi28 Cl1 2.864749 1_565
Bi29 Cl23 3.200286 1_555
As0 Au2 2.580337 1_555
As0 Bi23 2.757122 1_555
As0 Bi9 2.765382 1_555
As0 Bi20 2.769726 1_455
As1 Au1 2.580337 1_555
As1 Bi26 2.757122 1_555
As1 Bi16 2.765382 1_555
As1 Bi28 2.769726 1_555
As2 Au3 2.580337 1_555
As2 Bi22 2.757122 1_555
As2 Bi8 2.765382 1_555
As2 Bi10 2.769726 1_655
As3 Au0 2.580337 1_555
As3 Bi27 2.757122 1_555
As3 Bi6 2.765382 1_555
As3 Bi7 2.769726 1_555
Au0 Bi25 2.920037 1_554
Au0 Bi31 2.920665 1_555
Au0 Bi21 2.926461 1_555
Au0 Bi5 2.926827 1_555
Au0 Bi29 2.931216 1_555
Au1 Bi11 2.920037 1_556
Au1 Bi2 2.920665 1_555
Au1 Bi1 2.926461 1_555
Au1 Bi18 2.926827 1_555
Au1 Bi17 2.931216 1_555
Au2 Bi4 2.920037 1_555
Au2 Bi19 2.920665 1_555
Au2 Bi0 2.926461 1_555
Au2 Bi3 2.926827 1_455
Au2 Bi12 2.931216 1_455
Au3 Bi15 2.920037 1_555
Au3 Bi24 2.920665 1_555
Au3 Bi14 2.926461 1_555
Au3 Bi30 2.926827 1_655
Au3 Bi13 2.931216 1_655
