# generated using pymatgen
data_Yb3Ga5O12
_symmetry_space_group_name_H-M   'P 1'
_cell_length_a   10.73512620
_cell_length_b   10.73512620
_cell_length_c   10.73512620
_cell_angle_alpha   109.47122063
_cell_angle_beta   109.47122063
_cell_angle_gamma   109.47122063
_symmetry_Int_Tables_number   1
_chemical_formula_structural   Yb3Ga5O12
_chemical_formula_sum   'Yb12 Ga20 O48'
_cell_volume   952.35654722
_cell_formula_units_Z   4
loop_
 _symmetry_equiv_pos_site_id
 _symmetry_equiv_pos_as_xyz
  1  'x, y, z'
loop_
 _atom_site_type_symbol
 _atom_site_label
 _atom_site_symmetry_multiplicity
 _atom_site_fract_x
 _atom_site_fract_y
 _atom_site_fract_z
 _atom_site_occupancy
  Yb  Yb0  1  0.25000000  0.37500000  0.12500000  1
  Yb  Yb1  1  0.87500000  0.62500000  0.25000000  1
  Yb  Yb2  1  0.37500000  0.12500000  0.25000000  1
  Yb  Yb3  1  0.75000000  0.62500000  0.87500000  1
  Yb  Yb4  1  0.12500000  0.37500000  0.75000000  1
  Yb  Yb5  1  0.87500000  0.75000000  0.62500000  1
  Yb  Yb6  1  0.25000000  0.87500000  0.62500000  1
  Yb  Yb7  1  0.75000000  0.12500000  0.37500000  1
  Yb  Yb8  1  0.37500000  0.75000000  0.12500000  1
  Yb  Yb9  1  0.62500000  0.87500000  0.75000000  1
  Yb  Yb10  1  0.12500000  0.25000000  0.37500000  1
  Yb  Yb11  1  0.62500000  0.25000000  0.87500000  1
  Ga  Ga0  1  0.00000000  0.50000000  0.50000000  1
  Ga  Ga1  1  0.25000000  0.12500000  0.87500000  1
  Ga  Ga2  1  0.37500000  0.62500000  0.75000000  1
  Ga  Ga3  1  0.50000000  0.50000000  0.50000000  1
  Ga  Ga4  1  0.00000000  0.00000000  0.00000000  1
  Ga  Ga5  1  0.25000000  0.62500000  0.37500000  1
  Ga  Ga6  1  0.50000000  0.00000000  0.00000000  1
  Ga  Ga7  1  0.50000000  0.50000000  0.00000000  1
  Ga  Ga8  1  0.62500000  0.75000000  0.37500000  1
  Ga  Ga9  1  0.00000000  0.00000000  0.50000000  1
  Ga  Ga10  1  0.12500000  0.75000000  0.87500000  1
  Ga  Ga11  1  0.75000000  0.37500000  0.62500000  1
  Ga  Ga12  1  0.75000000  0.87500000  0.12500000  1
  Ga  Ga13  1  0.37500000  0.25000000  0.62500000  1
  Ga  Ga14  1  0.87500000  0.12500000  0.75000000  1
  Ga  Ga15  1  0.50000000  0.00000000  0.50000000  1
  Ga  Ga16  1  0.12500000  0.87500000  0.25000000  1
  Ga  Ga17  1  0.87500000  0.25000000  0.12500000  1
  Ga  Ga18  1  0.00000000  0.50000000  0.00000000  1
  Ga  Ga19  1  0.62500000  0.37500000  0.25000000  1
  O  O0  1  0.88068000  0.97379300  0.79559300  1
  O  O1  1  0.90688700  0.38068000  0.58508600  1
  O  O2  1  0.58508600  0.90688700  0.38068000  1
  O  O3  1  0.67820000  0.09311300  0.97379300  1
  O  O4  1  0.67820000  0.08508600  0.70440700  1
  O  O5  1  0.88068000  0.40688700  0.08508600  1
  O  O6  1  0.91491400  0.11932000  0.59311300  1
  O  O7  1  0.08508600  0.70440700  0.67820000  1
  O  O8  1  0.38068000  0.29559300  0.47379300  1
  O  O9  1  0.52620700  0.40688700  0.82180000  1
  O  O10  1  0.29559300  0.47379300  0.38068000  1
  O  O11  1  0.40688700  0.82180000  0.52620700  1
  O  O12  1  0.79559300  0.88068000  0.97379300  1
  O  O13  1  0.32180000  0.90688700  0.02620700  1
  O  O14  1  0.97379300  0.67820000  0.09311300  1
  O  O15  1  0.29559300  0.32180000  0.91491400  1
  O  O16  1  0.52620700  0.61932000  0.70440700  1
  O  O17  1  0.97379300  0.79559300  0.88068000  1
  O  O18  1  0.17820000  0.20440700  0.58508600  1
  O  O19  1  0.08508600  0.88068000  0.40688700  1
  O  O20  1  0.32180000  0.91491400  0.29559300  1
  O  O21  1  0.70440700  0.67820000  0.08508600  1
  O  O22  1  0.90688700  0.02620700  0.32180000  1
  O  O23  1  0.11932000  0.02620700  0.20440700  1
  O  O24  1  0.82180000  0.79559300  0.41491400  1
  O  O25  1  0.58508600  0.17820000  0.20440700  1
  O  O26  1  0.47379300  0.38068000  0.29559300  1
  O  O27  1  0.38068000  0.58508600  0.90688700  1
  O  O28  1  0.70440700  0.52620700  0.61932000  1
  O  O29  1  0.02620700  0.32180000  0.90688700  1
  O  O30  1  0.59311300  0.17820000  0.47379300  1
  O  O31  1  0.91491400  0.29559300  0.32180000  1
  O  O32  1  0.61932000  0.41491400  0.09311300  1
  O  O33  1  0.20440700  0.11932000  0.02620700  1
  O  O34  1  0.09311300  0.97379300  0.67820000  1
  O  O35  1  0.82180000  0.52620700  0.40688700  1
  O  O36  1  0.40688700  0.08508600  0.88068000  1
  O  O37  1  0.02620700  0.20440700  0.11932000  1
  O  O38  1  0.17820000  0.47379300  0.59311300  1
  O  O39  1  0.41491400  0.82180000  0.79559300  1
  O  O40  1  0.47379300  0.59311300  0.17820000  1
  O  O41  1  0.11932000  0.59311300  0.91491400  1
  O  O42  1  0.79559300  0.41491400  0.82180000  1
  O  O43  1  0.61932000  0.70440700  0.52620700  1
  O  O44  1  0.20440700  0.58508600  0.17820000  1
  O  O45  1  0.41491400  0.09311300  0.61932000  1
  O  O46  1  0.59311300  0.91491400  0.11932000  1
  O  O47  1  0.09311300  0.61932000  0.41491400  1
loop_
_geom_bond_atom_site_label_1
_geom_bond_atom_site_label_2
_geom_bond_distance
_geom_bond_site_symmetry_2
Ga0 O47 2.002328 1_555
Ga0 O1 2.002328 1_455
Ga0 O38 2.002337 1_555
Ga0 O35 2.002337 1_455
Ga0 O31 2.002340 1_455
Ga0 O7 2.002340 1_555
Ga1 O15 1.858460 1_555
Ga1 O34 1.858463 1_545
Ga1 O33 1.858463 1_556
Ga1 O36 1.858468 1_555
Ga2 O39 1.858460 1_555
Ga2 O16 1.858463 1_555
Ga2 O38 1.858463 1_555
Ga2 O27 1.858468 1_555
Ga3 O16 2.002337 1_555
Ga3 O28 2.002337 1_555
Ga3 O10 2.002337 1_555
Ga3 O26 2.002337 1_555
Ga3 O8 2.002337 1_555
Ga3 O43 2.002337 1_555
Ga4 O33 2.002337 1_555
Ga4 O17 2.002337 1_444
Ga4 O37 2.002337 1_555
Ga4 O12 2.002337 1_444
Ga4 O23 2.002337 1_555
Ga4 O0 2.002337 1_444
Ga5 O44 1.858460 1_555
Ga5 O10 1.858463 1_555
Ga5 O11 1.858463 1_555
Ga5 O47 1.858468 1_555
Ga6 O36 2.002328 1_554
Ga6 O46 2.002328 1_545
Ga6 O13 2.002337 1_545
Ga6 O3 2.002337 1_554
Ga6 O25 2.002340 1_555
Ga6 O39 2.002340 1_544
Ga7 O27 2.002328 1_554
Ga7 O32 2.002328 1_555
Ga7 O40 2.002337 1_555
Ga7 O9 2.002337 1_554
Ga7 O15 2.002340 1_554
Ga7 O21 2.002340 1_555
Ga8 O24 1.858460 1_555
Ga8 O43 1.858463 1_555
Ga8 O40 1.858463 1_555
Ga8 O2 1.858468 1_555
Ga9 O19 2.002328 1_545
Ga9 O6 2.002328 1_455
Ga9 O22 2.002337 1_455
Ga9 O34 2.002337 1_545
Ga9 O18 2.002340 1_555
Ga9 O24 2.002340 1_445
Ga10 O7 1.858460 1_555
Ga10 O13 1.858463 1_556
Ga10 O17 1.858463 1_455
Ga10 O41 1.858468 1_555
Ga11 O42 1.858460 1_555
Ga11 O28 1.858463 1_555
Ga11 O30 1.858463 1_555
Ga11 O1 1.858468 1_555
Ga12 O21 1.858460 1_555
Ga12 O12 1.858463 1_554
Ga12 O22 1.858463 1_565
Ga12 O46 1.858468 1_555
Ga13 O18 1.858460 1_555
Ga13 O9 1.858463 1_555
Ga13 O8 1.858463 1_555
Ga13 O45 1.858468 1_555
Ga14 O4 1.858460 1_555
Ga14 O0 1.858463 1_545
Ga14 O29 1.858463 1_655
Ga14 O6 1.858468 1_555
Ga15 O2 2.002328 1_545
Ga15 O45 2.002328 1_555
Ga15 O30 2.002337 1_555
Ga15 O11 2.002337 1_545
Ga15 O4 2.002340 1_555
Ga15 O20 2.002340 1_545
Ga16 O20 1.858460 1_555
Ga16 O14 1.858463 1_455
Ga16 O23 1.858463 1_565
Ga16 O19 1.858468 1_555
Ga17 O31 1.858460 1_555
Ga17 O3 1.858463 1_554
Ga17 O37 1.858463 1_655
Ga17 O5 1.858468 1_555
Ga18 O5 2.002328 1_455
Ga18 O41 2.002328 1_554
Ga18 O14 2.002337 1_455
Ga18 O29 2.002337 1_554
Ga18 O42 2.002340 1_454
Ga18 O44 2.002340 1_555
Ga19 O25 1.858460 1_555
Ga19 O35 1.858463 1_555
Ga19 O26 1.858463 1_555
Ga19 O32 1.858468 1_555
O0 Yb9 2.390757 1_555
O0 Yb5 2.454390 1_555
O1 Yb7 2.390753 1_555
O1 Yb4 2.454395 1_655
O2 Yb8 2.390753 1_555
O2 Yb7 2.454395 1_565
O3 Yb11 2.390757 1_555
O3 Yb9 2.454390 1_545
O4 Yb9 2.390747 1_545
O4 Yb11 2.454396 1_555
O5 Yb11 2.390753 1_554
O5 Yb1 2.454395 1_555
O6 Yb4 2.390753 1_655
O6 Yb7 2.454395 1_555
O7 Yb5 2.390747 1_455
O7 Yb6 2.454396 1_555
O8 Yb10 2.390757 1_555
O8 Yb2 2.454390 1_555
O9 Yb11 2.390757 1_555
O9 Yb3 2.454390 1_555
O10 Yb0 2.390757 1_555
O10 Yb10 2.454390 1_555
O11 Yb6 2.390757 1_555
O11 Yb9 2.454390 1_555
O12 Yb3 2.390757 1_555
O12 Yb9 2.454390 1_555
O13 Yb8 2.390757 1_555
O13 Yb2 2.454390 1_565
O14 Yb1 2.390757 1_555
O14 Yb3 2.454390 1_554
O15 Yb0 2.390747 1_556
O15 Yb4 2.454396 1_555
O16 Yb9 2.390757 1_555
O16 Yb3 2.454390 1_555
O17 Yb5 2.390757 1_555
O17 Yb3 2.454390 1_555
O18 Yb10 2.390747 1_555
O18 Yb4 2.454396 1_555
O19 Yb1 2.390753 1_455
O19 Yb6 2.454395 1_555
O20 Yb2 2.390747 1_565
O20 Yb8 2.454396 1_555
O21 Yb3 2.390747 1_554
O21 Yb1 2.454396 1_555
O22 Yb7 2.390757 1_555
O22 Yb10 2.454390 1_655
O23 Yb2 2.390757 1_555
O23 Yb10 2.454390 1_555
O24 Yb5 2.390747 1_555
O24 Yb1 2.454396 1_555
O25 Yb2 2.390747 1_555
O25 Yb7 2.454396 1_555
O26 Yb2 2.390757 1_555
O26 Yb0 2.454390 1_555
O27 Yb4 2.390753 1_555
O27 Yb8 2.454395 1_556
O28 Yb3 2.390757 1_555
O28 Yb5 2.454390 1_555
O29 Yb4 2.390757 1_555
O29 Yb0 2.454390 1_556
O30 Yb7 2.390757 1_555
O30 Yb2 2.454390 1_555
O31 Yb10 2.390747 1_655
O31 Yb7 2.454396 1_555
O32 Yb1 2.390753 1_555
O32 Yb11 2.454395 1_554
O33 Yb0 2.390757 1_555
O33 Yb2 2.454390 1_555
O34 Yb6 2.390757 1_555
O34 Yb5 2.454390 1_455
O35 Yb1 2.390757 1_555
O35 Yb5 2.454390 1_555
O36 Yb6 2.390753 1_545
O36 Yb11 2.454395 1_555
O37 Yb10 2.390757 1_555
O37 Yb0 2.454390 1_555
O38 Yb4 2.390757 1_555
O38 Yb10 2.454390 1_555
O39 Yb9 2.390747 1_555
O39 Yb6 2.454396 1_555
O40 Yb8 2.390757 1_555
O40 Yb0 2.454390 1_555
O41 Yb8 2.390753 1_556
O41 Yb4 2.454395 1_555
O42 Yb3 2.390747 1_555
O42 Yb11 2.454396 1_555
O43 Yb5 2.390757 1_555
O43 Yb9 2.454390 1_555
O44 Yb0 2.390747 1_555
O44 Yb8 2.454396 1_555
O45 Yb11 2.390753 1_555
O45 Yb6 2.454395 1_545
O46 Yb7 2.390753 1_565
O46 Yb8 2.454395 1_555
O47 Yb6 2.390753 1_555
O47 Yb1 2.454395 1_455
