# generated using pymatgen
data_Ba7Ca2Mn5O20
_symmetry_space_group_name_H-M   'P 1'
_cell_length_a   17.75532635
_cell_length_b   17.75532635
_cell_length_c   17.75532621
_cell_angle_alpha   19.14672983
_cell_angle_beta   19.14672983
_cell_angle_gamma   19.14673066
_symmetry_Int_Tables_number   1
_chemical_formula_structural   Ba7Ca2Mn5O20
_chemical_formula_sum   'Ba7 Ca2 Mn5 O20'
_cell_volume   526.32708832
_cell_formula_units_Z   1
loop_
 _symmetry_equiv_pos_site_id
 _symmetry_equiv_pos_as_xyz
  1  'x, y, z'
loop_
 _atom_site_type_symbol
 _atom_site_label
 _atom_site_symmetry_multiplicity
 _atom_site_fract_x
 _atom_site_fract_y
 _atom_site_fract_z
 _atom_site_occupancy
  Ba  Ba0  1  0.85433200  0.85433200  0.85433200  1
  Ba  Ba1  1  0.14566800  0.14566800  0.14566800  1
  Ba  Ba2  1  0.00000000  0.00000000  0.00000000  1
  Ba  Ba3  1  0.38792300  0.38792300  0.38792300  1
  Ba  Ba4  1  0.77325000  0.77325000  0.77325000  1
  Ba  Ba5  1  0.22675000  0.22675000  0.22675000  1
  Ba  Ba6  1  0.61207700  0.61207700  0.61207700  1
  Ca  Ca0  1  0.07455000  0.07455000  0.07455000  1
  Ca  Ca1  1  0.92545000  0.92545000  0.92545000  1
  Mn  Mn0  1  0.69701400  0.69701400  0.69701400  1
  Mn  Mn1  1  0.30298600  0.30298600  0.30298600  1
  Mn  Mn2  1  0.54943100  0.54943100  0.54943100  1
  Mn  Mn3  1  0.45056900  0.45056900  0.45056900  1
  Mn  Mn4  1  0.50000000  0.50000000  0.50000000  1
  O  O0  1  0.72292400  0.26222100  0.72292400  1
  O  O1  1  0.39210000  0.86716700  0.86716700  1
  O  O2  1  0.26222100  0.72292400  0.72292400  1
  O  O3  1  0.86716700  0.86716700  0.39210000  1
  O  O4  1  0.73777900  0.27707600  0.27707600  1
  O  O5  1  0.37681600  0.81661000  0.37681600  1
  O  O6  1  0.81661000  0.37681600  0.37681600  1
  O  O7  1  0.62318400  0.18339000  0.62318400  1
  O  O8  1  0.72292400  0.72292400  0.26222100  1
  O  O9  1  0.27707600  0.73777900  0.27707600  1
  O  O10  1  0.66477100  0.66477100  0.66477100  1
  O  O11  1  0.13283300  0.60790000  0.13283300  1
  O  O12  1  0.37681600  0.37681600  0.81661000  1
  O  O13  1  0.86716700  0.39210000  0.86716700  1
  O  O14  1  0.13283300  0.13283300  0.60790000  1
  O  O15  1  0.18339000  0.62318400  0.62318400  1
  O  O16  1  0.60790000  0.13283300  0.13283300  1
  O  O17  1  0.33522900  0.33522900  0.33522900  1
  O  O18  1  0.62318400  0.62318400  0.18339000  1
  O  O19  1  0.27707600  0.27707600  0.73777900  1
loop_
_geom_bond_atom_site_label_1
_geom_bond_atom_site_label_2
_geom_bond_distance
_geom_bond_site_symmetry_2
Ba0 O5 2.962714 1_556
Ba0 O6 2.962714 1_556
Ba0 O6 2.962714 1_565
Ba0 O5 2.962714 1_655
Ba0 O12 2.962714 1_655
Ba0 O12 2.962714 1_565
Ba0 O18 3.006444 1_556
Ba0 O7 3.006444 1_565
Ba0 O15 3.006444 1_655
Ba0 O8 3.125941 1_556
Ba0 O2 3.125942 1_655
Ba0 O0 3.125942 1_565
Ba1 O15 2.962714 1_554
Ba1 O7 2.962714 1_554
Ba1 O7 2.962714 1_455
Ba1 O15 2.962714 1_545
Ba1 O18 2.962714 1_545
Ba1 O18 2.962714 1_455
Ba1 O12 3.006444 1_554
Ba1 O6 3.006444 1_455
Ba1 O5 3.006444 1_545
Ba1 O19 3.125941 1_554
Ba1 O4 3.125942 1_455
Ba1 O9 3.125942 1_545
Ba2 O14 2.838530 1_554
Ba2 O3 2.838530 1_445
Ba2 O11 2.838530 1_545
Ba2 O1 2.838530 1_544
Ba2 O16 2.838530 1_455
Ba2 O13 2.838530 1_454
Ba3 O19 2.730350 1_555
Ba3 O4 2.730350 1_555
Ba3 O9 2.730350 1_555
Ba3 O17 2.754556 1_555
Ba3 O13 3.024903 1_554
Ba3 O1 3.024903 1_554
Ba3 O13 3.024903 1_455
Ba3 O1 3.024903 1_545
Ba3 O3 3.024903 1_455
Ba3 O3 3.024903 1_545
Ba4 O18 2.706111 1_556
Ba4 O15 2.706111 1_655
Ba4 O7 2.706111 1_565
Ba4 O4 2.995416 1_565
Ba4 O9 2.995416 1_655
Ba4 O9 2.995416 1_556
Ba4 O4 2.995416 1_556
Ba4 O19 2.995416 1_655
Ba4 O19 2.995416 1_565
Ba5 O12 2.706111 1_554
Ba5 O5 2.706111 1_545
Ba5 O6 2.706111 1_455
Ba5 O2 2.995416 1_545
Ba5 O0 2.995416 1_455
Ba5 O2 2.995416 1_554
Ba5 O0 2.995416 1_554
Ba5 O8 2.995416 1_545
Ba5 O8 2.995416 1_455
Ba6 O8 2.730350 1_555
Ba6 O2 2.730350 1_555
Ba6 O0 2.730350 1_555
Ba6 O10 2.754556 1_555
Ba6 O11 3.024903 1_556
Ba6 O16 3.024903 1_556
Ba6 O16 3.024903 1_565
Ba6 O11 3.024903 1_655
Ba6 O14 3.024903 1_655
Ba6 O14 3.024903 1_565
Ca0 O19 2.190193 1_554
Ca0 O4 2.190193 1_455
Ca0 O9 2.190193 1_545
Ca0 O3 2.464382 1_445
Ca0 O13 2.464382 1_454
Ca0 O1 2.464382 1_544
Ca1 O8 2.190193 1_556
Ca1 O2 2.190193 1_655
Ca1 O0 2.190193 1_565
Ca1 O14 2.464382 1_665
Ca1 O11 2.464382 1_656
Ca1 O16 2.464382 1_566
Mn0 O10 1.685489 1_555
Mn0 O3 1.733263 1_555
Mn0 O13 1.733263 1_555
Mn0 O1 1.733263 1_555
Mn1 O17 1.685489 1_555
Mn1 O14 1.733263 1_555
Mn1 O11 1.733263 1_555
Mn1 O16 1.733263 1_555
Mn2 O8 1.884812 1_555
Mn2 O0 1.884812 1_555
Mn2 O2 1.884812 1_555
Mn2 O12 2.024446 1_555
Mn2 O5 2.024446 1_555
Mn2 O6 2.024446 1_555
Mn3 O19 1.884812 1_555
Mn3 O4 1.884812 1_555
Mn3 O9 1.884812 1_555
Mn3 O18 2.024446 1_555
Mn3 O7 2.024446 1_555
Mn3 O15 2.024446 1_555
Mn4 O12 1.935660 1_555
Mn4 O18 1.935660 1_555
Mn4 O6 1.935660 1_555
Mn4 O5 1.935660 1_555
Mn4 O7 1.935660 1_555
Mn4 O15 1.935660 1_555
