# generated using pymatgen
data_P4S3I2
_symmetry_space_group_name_H-M   'P 1'
_cell_length_a   7.47404959
_cell_length_b   7.51255246
_cell_length_c   20.33011345
_cell_angle_alpha   85.11554545
_cell_angle_beta   89.50465774
_cell_angle_gamma   89.66312808
_symmetry_Int_Tables_number   1
_chemical_formula_structural   P4S3I2
_chemical_formula_sum   'P16 S12 I8'
_cell_volume   1137.31623487
_cell_formula_units_Z   4
loop_
 _symmetry_equiv_pos_site_id
 _symmetry_equiv_pos_as_xyz
  1  'x, y, z'
loop_
 _atom_site_type_symbol
 _atom_site_label
 _atom_site_symmetry_multiplicity
 _atom_site_fract_x
 _atom_site_fract_y
 _atom_site_fract_z
 _atom_site_occupancy
  P  P0  1  0.60828946  0.72455019  0.45447131  1
  P  P1  1  0.39171054  0.27544981  0.54552869  1
  P  P2  1  0.02559733  0.45159485  0.39555284  1
  P  P3  1  0.97440267  0.54840515  0.60444716  1
  P  P4  1  0.57366064  0.52105843  0.38326392  1
  P  P5  1  0.42633936  0.47894157  0.61673608  1
  P  P6  1  0.94703645  0.70762230  0.34141317  1
  P  P7  1  0.05296355  0.29237770  0.65858683  1
  P  P8  1  0.28439072  0.61811159  0.95446703  1
  P  P9  1  0.71560928  0.38188841  0.04553297  1
  P  P10  1  0.56283746  0.04935669  0.89875203  1
  P  P11  1  0.43716254  0.95064331  0.10124797  1
  P  P12  1  0.50533474  0.60430261  0.88217880  1
  P  P13  1  0.49466526  0.39569739  0.11782120  1
  P  P14  1  0.32021321  0.98526568  0.84382466  1
  P  P15  1  0.67978679  0.01473432  0.15617534  1
  S  S0  1  0.86485774  0.82613522  0.42840444  1
  S  S1  1  0.13514226  0.17386478  0.57159556  1
  S  S2  1  0.77455439  0.34832967  0.42746077  1
  S  S3  1  0.22544561  0.65167033  0.57253923  1
  S  S4  1  0.70431458  0.64115181  0.29965532  1
  S  S5  1  0.29568542  0.35884819  0.70034468  1
  S  S6  1  0.18265106  0.87851056  0.93051012  1
  S  S7  1  0.81734894  0.12148944  0.06948988  1
  S  S8  1  0.66414863  0.79251647  0.92823230  1
  S  S9  1  0.33585137  0.20748353  0.07176770  1
  S  S10  1  0.40242600  0.75631480  0.79994416  1
  S  S11  1  0.59757400  0.24368520  0.20005584  1
  I  I0  1  0.39948978  0.95108817  0.40084652  1
  I  I1  1  0.60051022  0.04891183  0.59915348  1
  I  I2  1  0.09945926  0.28442968  0.29790743  1
  I  I3  1  0.90054074  0.71557032  0.70209257  1
  I  I4  1  0.07227736  0.42133813  0.90080222  1
  I  I5  1  0.92772264  0.57866187  0.09919778  1
  I  I6  1  0.75495638  0.14702802  0.80122253  1
  I  I7  1  0.24504362  0.85297198  0.19877747  1
loop_
_geom_bond_atom_site_label_1
_geom_bond_atom_site_label_2
_geom_bond_distance
_geom_bond_site_symmetry_2
P0 S0 2.114528 1_555
P0 P4 2.210825 1_555
P1 S1 2.114528 1_555
P1 P5 2.210825 1_555
P2 S2 2.110342 1_455
P2 P6 2.212047 1_455
P3 S3 2.110342 1_655
P3 P7 2.212047 1_655
P4 S4 2.092198 1_555
P4 S2 2.132496 1_555
P5 S5 2.092198 1_555
P5 S3 2.132496 1_555
P6 S4 2.090587 1_555
P6 S0 2.130873 1_555
P7 S5 2.090587 1_555
P7 S1 2.130873 1_555
P8 S6 2.114012 1_555
P9 S7 2.114012 1_555
P10 S8 2.109352 1_545
P10 P14 2.214500 1_545
P11 S9 2.109352 1_565
P11 P15 2.214500 1_565
P12 S10 2.092264 1_555
P12 S8 2.132893 1_555
P12 P8 2.208959 1_555
P13 S11 2.092264 1_555
P13 S9 2.132893 1_555
P13 P9 2.208959 1_555
P14 S10 2.090744 1_555
P14 S6 2.131610 1_555
P15 S11 2.090744 1_555
P15 S7 2.131610 1_555
I0 P0 2.490493 1_555
I1 P1 2.490493 1_555
I2 P2 2.494016 1_555
I3 P3 2.494016 1_555
I4 P8 2.494199 1_555
I5 P9 2.494199 1_555
I6 P10 2.499415 1_555
I7 P11 2.499415 1_555
