# generated using pymatgen
data_RbNbAsClO5
_symmetry_space_group_name_H-M   'P 1'
_cell_length_a   6.78440300
_cell_length_b   6.78440300
_cell_length_c   7.88618900
_cell_angle_alpha   90.00000000
_cell_angle_beta   90.00000000
_cell_angle_gamma   90.00000000
_symmetry_Int_Tables_number   1
_chemical_formula_structural   RbNbAsClO5
_chemical_formula_sum   'Rb2 Nb2 As2 Cl2 O10'
_cell_volume   362.98648570
_cell_formula_units_Z   2
loop_
 _symmetry_equiv_pos_site_id
 _symmetry_equiv_pos_as_xyz
  1  'x, y, z'
loop_
 _atom_site_type_symbol
 _atom_site_label
 _atom_site_symmetry_multiplicity
 _atom_site_fract_x
 _atom_site_fract_y
 _atom_site_fract_z
 _atom_site_occupancy
  Rb  Rb0  1  0.50000000  0.50000000  0.50000000  1
  Rb  Rb1  1  0.00000000  0.00000000  0.50000000  1
  Nb  Nb0  1  0.50000000  0.00000000  0.89903400  1
  Nb  Nb1  1  0.00000000  0.50000000  0.10096600  1
  As  As0  1  0.00000000  0.00000000  0.00000000  1
  As  As1  1  0.50000000  0.50000000  0.00000000  1
  Cl  Cl0  1  0.00000000  0.50000000  0.44287800  1
  Cl  Cl1  1  0.50000000  0.00000000  0.55712200  1
  O  O0  1  0.00000000  0.80229300  0.13624600  1
  O  O1  1  0.50000000  0.69770700  0.86375400  1
  O  O2  1  0.00000000  0.19770700  0.13624600  1
  O  O3  1  0.69770700  0.50000000  0.13624600  1
  O  O4  1  0.19770700  0.00000000  0.86375400  1
  O  O5  1  0.80229300  0.00000000  0.86375400  1
  O  O6  1  0.50000000  0.30229300  0.86375400  1
  O  O7  1  0.30229300  0.50000000  0.13624600  1
  O  O8  1  0.00000000  0.50000000  0.87978700  1
  O  O9  1  0.50000000  0.00000000  0.12021300  1
loop_
_geom_bond_atom_site_label_1
_geom_bond_atom_site_label_2
_geom_bond_distance
_geom_bond_site_symmetry_2
Nb0 O9 1.744259 1_556
Nb0 O5 2.069664 1_555
Nb0 O6 2.069664 1_555
Nb0 O4 2.069664 1_555
Nb0 O1 2.069664 1_545
Nb1 O8 1.744259 1_554
Nb1 O0 2.069664 1_555
Nb1 O7 2.069664 1_555
Nb1 O2 2.069664 1_555
Nb1 O3 2.069664 1_455
As0 O2 1.718609 1_555
As0 O4 1.718609 1_554
As0 O0 1.718609 1_545
As0 O5 1.718609 1_454
As1 O3 1.718609 1_555
As1 O7 1.718609 1_555
As1 O1 1.718609 1_554
As1 O6 1.718609 1_554
Cl0 Nb1 2.696383 1_555
Cl0 Rb0 3.421982 1_555
Cl0 Rb1 3.421982 1_555
Cl0 Rb1 3.421982 1_565
Cl0 Rb0 3.421982 1_455
Cl1 Nb0 2.696383 1_555
Cl1 Rb0 3.421982 1_555
Cl1 Rb1 3.421982 1_555
Cl1 Rb0 3.421982 1_545
Cl1 Rb1 3.421982 1_655
O0 Rb1 3.166734 1_565
O1 Rb0 3.166734 1_555
O2 Rb1 3.166734 1_555
O3 Rb0 3.166734 1_555
O4 Rb1 3.166734 1_555
O5 Rb1 3.166734 1_655
O6 Rb0 3.166734 1_555
O7 Rb0 3.166734 1_555
