# generated using pymatgen
data_ScCr2Ag(H2O5)2
_symmetry_space_group_name_H-M   'P 1'
_cell_length_a   5.71643611
_cell_length_b   6.18258299
_cell_length_c   7.31323293
_cell_angle_alpha   110.03740118
_cell_angle_beta   91.54362016
_cell_angle_gamma   116.02018703
_symmetry_Int_Tables_number   1
_chemical_formula_structural   ScCr2Ag(H2O5)2
_chemical_formula_sum   'Sc1 Cr2 Ag1 H4 O10'
_cell_volume   213.34574474
_cell_formula_units_Z   1
loop_
 _symmetry_equiv_pos_site_id
 _symmetry_equiv_pos_as_xyz
  1  'x, y, z'
loop_
 _atom_site_type_symbol
 _atom_site_label
 _atom_site_symmetry_multiplicity
 _atom_site_fract_x
 _atom_site_fract_y
 _atom_site_fract_z
 _atom_site_occupancy
  Sc  Sc0  1  0.00000000  0.00000000  0.00000000  1
  Cr  Cr0  1  0.63620800  0.23425900  0.31633100  1
  Cr  Cr1  1  0.36379200  0.76574100  0.68366900  1
  Ag  Ag0  1  0.00000000  0.00000000  0.50000000  1
  H  H0  1  0.23094100  0.48314600  0.95791900  1
  H  H1  1  0.72371400  0.45443500  0.80152000  1
  H  H2  1  0.76905900  0.51685400  0.04208100  1
  H  H3  1  0.27628600  0.54556500  0.19848000  1
  O  O0  1  0.82671400  0.07715700  0.25182000  1
  O  O1  1  0.32114400  0.04186500  0.17951500  1
  O  O2  1  0.67885600  0.95813500  0.82048500  1
  O  O3  1  0.77404700  0.50770400  0.27950400  1
  O  O4  1  0.62474400  0.30159000  0.55027600  1
  O  O5  1  0.20455700  0.40832400  0.06071900  1
  O  O6  1  0.79544300  0.59167600  0.93928100  1
  O  O7  1  0.17328600  0.92284300  0.74818000  1
  O  O8  1  0.22595300  0.49229600  0.72049600  1
  O  O9  1  0.37525600  0.69841000  0.44972400  1
loop_
_geom_bond_atom_site_label_1
_geom_bond_atom_site_label_2
_geom_bond_distance
_geom_bond_site_symmetry_2
Cr0 O4 1.626857 1_555
Cr0 O3 1.645056 1_555
Cr0 O1 1.693366 1_555
Cr0 O0 1.730220 1_555
Cr1 O9 1.626857 1_555
Cr1 O8 1.645056 1_555
Cr1 O2 1.693366 1_555
Cr1 O7 1.730220 1_555
Ag0 O7 2.326813 1_545
Ag0 O0 2.326813 1_455
Ag0 O3 2.570550 1_445
Ag0 O8 2.570550 1_555
H0 O5 0.992552 1_556
H1 O6 0.994882 1_555
H1 O4 1.695351 1_555
H2 O6 0.992552 1_554
H3 O5 0.994882 1_555
H3 O9 1.695351 1_555
O0 Sc0 2.123964 1_655
O1 Sc0 2.093104 1_555
O2 Sc0 2.093104 1_666
O5 Sc0 2.133413 1_555
O6 Sc0 2.133413 1_666
O7 Sc0 2.123964 1_566
