# generated using pymatgen
data_Ba2FeCoF9
_symmetry_space_group_name_H-M   'P 1'
_cell_length_a   18.01440000
_cell_length_b   5.79558600
_cell_length_c   9.47184875
_cell_angle_alpha   53.38691726
_cell_angle_beta   90.00000000
_cell_angle_gamma   90.00000000
_symmetry_Int_Tables_number   1
_chemical_formula_structural   Ba2FeCoF9
_chemical_formula_sum   'Ba8 Fe4 Co4 F36'
_cell_volume   793.77069965
_cell_formula_units_Z   4
loop_
 _symmetry_equiv_pos_site_id
 _symmetry_equiv_pos_as_xyz
  1  'x, y, z'
loop_
 _atom_site_type_symbol
 _atom_site_label
 _atom_site_symmetry_multiplicity
 _atom_site_fract_x
 _atom_site_fract_y
 _atom_site_fract_z
 _atom_site_occupancy
  Ba  Ba0  1  0.96392400  0.95286200  0.80229800  1
  Ba  Ba1  1  0.46392400  0.04713800  0.69770200  1
  Ba  Ba2  1  0.03607600  0.04713800  0.19770200  1
  Ba  Ba3  1  0.53607600  0.95286200  0.30229800  1
  Ba  Ba4  1  0.71731400  0.21127800  0.57150600  1
  Ba  Ba5  1  0.21731400  0.78872200  0.92849400  1
  Ba  Ba6  1  0.28268600  0.78872200  0.42849400  1
  Ba  Ba7  1  0.78268600  0.21127800  0.07150600  1
  Fe  Fe0  1  0.62570200  0.64715300  0.08768300  1
  Fe  Fe1  1  0.12570200  0.35284700  0.41231700  1
  Fe  Fe2  1  0.37429800  0.35284700  0.91231700  1
  Fe  Fe3  1  0.87429800  0.64715300  0.58768300  1
  Co  Co0  1  0.91285900  0.45975200  0.27147600  1
  Co  Co1  1  0.41285900  0.54024800  0.22852400  1
  Co  Co2  1  0.08714100  0.54024800  0.72852400  1
  Co  Co3  1  0.58714100  0.45975200  0.77147600  1
  F  F0  1  0.58526200  0.89586200  0.60123900  1
  F  F1  1  0.08526200  0.10413800  0.89876100  1
  F  F2  1  0.41473800  0.10413800  0.39876100  1
  F  F3  1  0.91473800  0.89586200  0.10123900  1
  F  F4  1  0.80549300  0.39196300  0.29587900  1
  F  F5  1  0.30549300  0.60803700  0.20412100  1
  F  F6  1  0.19450700  0.60803700  0.70412100  1
  F  F7  1  0.69450700  0.39196300  0.79587900  1
  F  F8  1  0.70927700  0.75471600  0.93526200  1
  F  F9  1  0.20927700  0.24528400  0.56473800  1
  F  F10  1  0.29072300  0.24528400  0.06473800  1
  F  F11  1  0.79072300  0.75471600  0.43526200  1
  F  F12  1  0.53293000  0.51558500  0.24061200  1
  F  F13  1  0.03293000  0.48441500  0.25938800  1
  F  F14  1  0.46707000  0.48441500  0.75938800  1
  F  F15  1  0.96707000  0.51558500  0.74061200  1
  F  F16  1  0.91792300  0.43161800  0.06843100  1
  F  F17  1  0.41792300  0.56838200  0.43156900  1
  F  F18  1  0.08207700  0.56838200  0.93156900  1
  F  F19  1  0.58207700  0.43161800  0.56843100  1
  F  F20  1  0.83463100  0.78869200  0.71285300  1
  F  F21  1  0.33463100  0.21130800  0.78714700  1
  F  F22  1  0.16536900  0.21130800  0.28714700  1
  F  F23  1  0.66536900  0.78869200  0.21285300  1
  F  F24  1  0.66378000  0.26043400  0.25961100  1
  F  F25  1  0.16378000  0.73956600  0.24038900  1
  F  F26  1  0.33622000  0.73956600  0.74038900  1
  F  F27  1  0.83622000  0.26043400  0.75961100  1
  F  F28  1  0.92347000  0.47558300  0.48191600  1
  F  F29  1  0.42347000  0.52441700  0.01808400  1
  F  F30  1  0.07653000  0.52441700  0.51808400  1
  F  F31  1  0.57653000  0.47558300  0.98191600  1
  F  F32  1  0.57103500  0.00800300  0.92770100  1
  F  F33  1  0.07103500  0.99199700  0.57229900  1
  F  F34  1  0.42896500  0.99199700  0.07229900  1
  F  F35  1  0.92896500  0.00800300  0.42770100  1
loop_
_geom_bond_atom_site_label_1
_geom_bond_atom_site_label_2
_geom_bond_distance
_geom_bond_site_symmetry_2
Ba0 F16 2.661501 1_556
Ba0 F1 2.708662 1_665
Ba0 F18 2.782149 1_655
Ba0 F27 2.788126 1_565
Ba0 F3 2.792133 1_556
Ba0 F33 2.816224 1_655
Ba0 F28 2.819888 1_565
Ba0 F20 2.830094 1_555
Ba0 F15 2.921197 1_555
Ba0 F15 2.950898 1_565
Ba1 F17 2.661501 1_555
Ba1 F0 2.708662 1_545
Ba1 F19 2.782149 1_555
Ba1 F26 2.788126 1_545
Ba1 F2 2.792133 1_555
Ba1 F32 2.816224 1_555
Ba1 F29 2.819888 1_546
Ba1 F21 2.830094 1_555
Ba1 F14 2.921197 1_555
Ba1 F14 2.950898 1_545
Ba2 F18 2.661501 1_554
Ba2 F3 2.708662 1_445
Ba2 F16 2.782149 1_455
Ba2 F25 2.788126 1_545
Ba2 F1 2.792133 1_554
Ba2 F35 2.816224 1_455
Ba2 F30 2.819888 1_545
Ba2 F22 2.830094 1_555
Ba2 F13 2.921197 1_555
Ba2 F13 2.950898 1_545
Ba3 F19 2.661501 1_555
Ba3 F2 2.708662 1_565
Ba3 F17 2.782149 1_555
Ba3 F24 2.788126 1_565
Ba3 F0 2.792133 1_555
Ba3 F34 2.816224 1_555
Ba3 F31 2.819888 1_564
Ba3 F23 2.830094 1_555
Ba3 F12 2.921197 1_555
Ba3 F12 2.950898 1_565
Ba4 F4 2.678550 1_555
Ba4 F19 2.742690 1_555
Ba4 F8 2.831770 1_545
Ba4 F20 2.888936 1_545
Ba4 F7 2.904576 1_555
Ba4 F27 2.906773 1_555
Ba4 F0 2.909597 1_545
Ba4 F11 2.913011 1_555
Ba4 F24 2.955457 1_555
Ba4 F23 3.170880 1_555
Ba5 F5 2.678550 1_556
Ba5 F18 2.742690 1_555
Ba5 F9 2.831770 1_565
Ba5 F21 2.888936 1_565
Ba5 F6 2.904576 1_555
Ba5 F26 2.906773 1_555
Ba5 F1 2.909597 1_565
Ba5 F10 2.913011 1_556
Ba5 F25 2.955457 1_556
Ba5 F22 3.170880 1_556
Ba6 F6 2.678550 1_555
Ba6 F17 2.742690 1_555
Ba6 F10 2.831770 1_565
Ba6 F22 2.888936 1_565
Ba6 F5 2.904576 1_555
Ba6 F25 2.906773 1_555
Ba6 F2 2.909597 1_565
Ba6 F9 2.913011 1_555
Ba6 F26 2.955457 1_555
Ba6 F21 3.170880 1_555
Ba7 F7 2.678550 1_554
Ba7 F16 2.742690 1_555
Ba7 F11 2.831770 1_545
Ba7 F23 2.888936 1_545
Ba7 F4 2.904576 1_555
Ba7 F24 2.906773 1_555
Ba7 F3 2.909597 1_545
Ba7 F8 2.913011 1_554
Ba7 F27 2.955457 1_554
Ba7 F20 3.170880 1_554
Co0 F4 1.959677 1_555
Co0 F16 2.026746 1_555
Co0 F3 2.031786 1_555
Co0 F28 2.058196 1_555
Co0 F35 2.123049 1_555
Co0 F13 2.166245 1_655
Co1 F5 1.959677 1_555
Co1 F17 2.026746 1_555
Co1 F2 2.031786 1_555
Co1 F29 2.058196 1_555
Co1 F34 2.123049 1_555
Co1 F12 2.166245 1_555
Co2 F6 1.959677 1_555
Co2 F18 2.026746 1_555
Co2 F1 2.031786 1_555
Co2 F30 2.058196 1_555
Co2 F33 2.123049 1_555
Co2 F15 2.166245 1_455
Co3 F7 1.959677 1_555
Co3 F19 2.026746 1_555
Co3 F0 2.031786 1_555
Co3 F31 2.058196 1_555
Co3 F32 2.123049 1_555
Co3 F14 2.166245 1_555
F8 Fe0 1.914699 1_556
F9 Fe1 1.914699 1_555
F10 Fe2 1.914699 1_554
F11 Fe3 1.914699 1_555
F12 Fe0 2.038423 1_555
F13 Fe1 2.038423 1_555
F14 Fe2 2.038423 1_555
F15 Fe3 2.038423 1_555
F20 Fe3 1.936287 1_555
F21 Fe2 1.936287 1_555
F22 Fe1 1.936287 1_555
F23 Fe0 1.936287 1_555
F24 Fe0 1.947340 1_555
F25 Fe1 1.947340 1_555
F26 Fe2 1.947340 1_555
F27 Fe3 1.947340 1_555
F28 Fe3 1.991286 1_555
F29 Fe2 1.991286 1_554
F30 Fe1 1.991286 1_555
F31 Fe0 1.991286 1_556
F32 Fe0 1.964591 1_546
F33 Fe1 1.964591 1_565
F34 Fe2 1.964591 1_564
F35 Fe3 1.964591 1_545
