# generated using pymatgen
data_KClO3
_symmetry_space_group_name_H-M   'P 1'
_cell_length_a   4.73665900
_cell_length_b   5.71955700
_cell_length_c   13.66505100
_cell_angle_alpha   90.00000000
_cell_angle_beta   90.00000000
_cell_angle_gamma   90.00000000
_symmetry_Int_Tables_number   1
_chemical_formula_structural   KClO3
_chemical_formula_sum   'K4 Cl4 O12'
_cell_volume   370.20797460
_cell_formula_units_Z   4
loop_
 _symmetry_equiv_pos_site_id
 _symmetry_equiv_pos_as_xyz
  1  'x, y, z'
loop_
 _atom_site_type_symbol
 _atom_site_label
 _atom_site_symmetry_multiplicity
 _atom_site_fract_x
 _atom_site_fract_y
 _atom_site_fract_z
 _atom_site_occupancy
  K  K0  1  0.99641900  0.25000000  0.35341200  1
  K  K1  1  0.00358100  0.75000000  0.64658800  1
  K  K2  1  0.49641900  0.75000000  0.14658800  1
  K  K3  1  0.50358100  0.25000000  0.85341200  1
  Cl  Cl0  1  0.53431500  0.75000000  0.41304400  1
  Cl  Cl1  1  0.96568500  0.75000000  0.91304400  1
  Cl  Cl2  1  0.03431500  0.25000000  0.08695600  1
  Cl  Cl3  1  0.46568500  0.25000000  0.58695600  1
  O  O0  1  0.00657600  0.53834500  0.84875600  1
  O  O1  1  0.49342400  0.53834500  0.34875600  1
  O  O2  1  0.16139700  0.25000000  0.55543200  1
  O  O3  1  0.00657600  0.96165500  0.84875600  1
  O  O4  1  0.83860300  0.75000000  0.44456800  1
  O  O5  1  0.50657600  0.03834500  0.65124400  1
  O  O6  1  0.33860300  0.25000000  0.05543200  1
  O  O7  1  0.99342400  0.03834500  0.15124400  1
  O  O8  1  0.66139700  0.75000000  0.94456800  1
  O  O9  1  0.50657600  0.46165500  0.65124400  1
  O  O10  1  0.49342400  0.96165500  0.34875600  1
  O  O11  1  0.99342400  0.46165500  0.15124400  1
loop_
_geom_bond_atom_site_label_1
_geom_bond_atom_site_label_2
_geom_bond_distance
_geom_bond_site_symmetry_2
K0 O2 2.869084 1_655
K0 O10 2.875051 1_645
K0 O1 2.875051 1_655
K0 O10 2.898329 1_545
K0 O1 2.898329 1_555
K0 O7 3.016264 1_555
K0 O11 3.016264 1_555
K0 O4 3.207611 1_555
K0 O4 3.207611 1_545
K1 O4 2.869084 1_455
K1 O9 2.875051 1_455
K1 O5 2.875051 1_465
K1 O9 2.898329 1_555
K1 O5 2.898329 1_565
K1 O0 3.016264 1_555
K1 O3 3.016264 1_555
K1 O2 3.207611 1_565
K1 O2 3.207611 1_555
K2 O8 2.869084 1_554
K2 O11 2.875051 1_555
K2 O7 2.875051 1_565
K2 O11 2.898329 1_455
K2 O7 2.898329 1_465
K2 O1 3.016264 1_555
K2 O10 3.016264 1_555
K2 O6 3.207611 1_565
K2 O6 3.207611 1_555
K3 O6 2.869084 1_556
K3 O0 2.875051 1_555
K3 O3 2.875051 1_545
K3 O3 2.898329 1_645
K3 O0 2.898329 1_655
K3 O5 3.016264 1_555
K3 O9 3.016264 1_555
K3 O8 3.207611 1_545
K3 O8 3.207611 1_555
Cl0 O4 1.504307 1_555
Cl0 O1 1.508231 1_555
Cl0 O10 1.508231 1_555
Cl1 O8 1.504307 1_555
Cl1 O3 1.508231 1_655
Cl1 O0 1.508231 1_655
Cl2 O6 1.504307 1_555
Cl2 O11 1.508231 1_455
Cl2 O7 1.508231 1_455
Cl3 O2 1.504307 1_555
Cl3 O5 1.508231 1_555
Cl3 O9 1.508231 1_555
