# generated using pymatgen
data_FeTe6O13
_symmetry_space_group_name_H-M   'P 1'
_cell_length_a   8.65913285
_cell_length_b   8.65913330
_cell_length_c   8.65913331
_cell_angle_alpha   72.11641944
_cell_angle_beta   72.11641426
_cell_angle_gamma   72.11641726
_symmetry_Int_Tables_number   1
_chemical_formula_structural   FeTe6O13
_chemical_formula_sum   'Fe2 Te12 O26'
_cell_volume   571.58158782
_cell_formula_units_Z   2
loop_
 _symmetry_equiv_pos_site_id
 _symmetry_equiv_pos_as_xyz
  1  'x, y, z'
loop_
 _atom_site_type_symbol
 _atom_site_label
 _atom_site_symmetry_multiplicity
 _atom_site_fract_x
 _atom_site_fract_y
 _atom_site_fract_z
 _atom_site_occupancy
  Fe  Fe0  1  0.74282094  0.74282094  0.74282094  1
  Fe  Fe1  1  0.25717906  0.25717906  0.25717906  1
  Te  Te0  1  0.66703576  0.06004351  0.98625030  1
  Te  Te1  1  0.47140028  0.17538914  0.57989734  1
  Te  Te2  1  0.17538914  0.57989734  0.47140028  1
  Te  Te3  1  0.93995649  0.01374970  0.33296424  1
  Te  Te4  1  0.42010266  0.52859972  0.82461086  1
  Te  Te5  1  0.52859972  0.82461086  0.42010266  1
  Te  Te6  1  0.82461086  0.42010266  0.52859972  1
  Te  Te7  1  0.06004351  0.98625030  0.66703576  1
  Te  Te8  1  0.33296424  0.93995649  0.01374970  1
  Te  Te9  1  0.01374970  0.33296424  0.93995649  1
  Te  Te10  1  0.98625030  0.66703576  0.06004351  1
  Te  Te11  1  0.57989734  0.47140028  0.17538914  1
  O  O0  1  0.38868125  0.69964354  0.62594255  1
  O  O1  1  0.91247285  0.91247285  0.91247285  1
  O  O2  1  0.89704450  0.92117753  0.60226163  1
  O  O3  1  0.37405745  0.61131875  0.30035646  1
  O  O4  1  0.63543413  0.88438264  0.54338068  1
  O  O5  1  0.19992725  0.69622403  0.94689333  1
  O  O6  1  0.39773837  0.10295550  0.07882247  1
  O  O7  1  0.08752715  0.08752715  0.08752715  1
  O  O8  1  0.30377597  0.05310667  0.80007275  1
  O  O9  1  0.45661932  0.36456587  0.11561736  1
  O  O10  1  0.61131875  0.30035646  0.37405745  1
  O  O11  1  0.36456587  0.11561736  0.45661932  1
  O  O12  1  0.88438264  0.54338068  0.63543413  1
  O  O13  1  0.94689333  0.19992725  0.69622403  1
  O  O14  1  0.60226163  0.89704450  0.92117753  1
  O  O15  1  0.92117753  0.60226163  0.89704450  1
  O  O16  1  0.10295550  0.07882247  0.39773837  1
  O  O17  1  0.69622403  0.94689333  0.19992725  1
  O  O18  1  0.69964354  0.62594255  0.38868125  1
  O  O19  1  0.05310667  0.80007275  0.30377597  1
  O  O20  1  0.07882247  0.39773837  0.10295550  1
  O  O21  1  0.54338068  0.63543413  0.88438264  1
  O  O22  1  0.62594255  0.38868125  0.69964354  1
  O  O23  1  0.30035646  0.37405745  0.61131875  1
  O  O24  1  0.80007275  0.30377597  0.05310667  1
  O  O25  1  0.11561736  0.45661932  0.36456587  1
loop_
_geom_bond_atom_site_label_1
_geom_bond_atom_site_label_2
_geom_bond_distance
_geom_bond_site_symmetry_2
Fe0 O21 2.082256 1_555
Fe0 O12 2.082256 1_555
Fe0 O4 2.082256 1_555
Fe0 O14 2.182652 1_555
Fe0 O2 2.182652 1_555
Fe0 O15 2.182652 1_555
Fe1 O9 2.082256 1_555
Fe1 O25 2.082256 1_555
Fe1 O11 2.082256 1_555
Fe1 O6 2.182652 1_555
Fe1 O16 2.182652 1_555
Fe1 O20 2.182652 1_555
O0 Te4 1.924110 1_555
O0 Te5 2.027347 1_555
O1 Te0 2.134794 1_565
O1 Te7 2.134794 1_655
O1 Te10 2.134794 1_556
O2 Te7 1.947562 1_655
O2 Te3 2.172798 1_565
O3 Te2 1.924110 1_555
O3 Te11 2.027347 1_555
O4 Te5 1.871654 1_555
O4 Te1 2.546076 1_565
O5 Te10 1.862534 1_456
O5 Te4 2.206202 1_555
O6 Te8 1.947562 1_545
O6 Te0 2.172798 1_554
O7 Te8 2.134794 1_545
O7 Te3 2.134794 1_455
O7 Te9 2.134794 1_554
O8 Te8 1.862534 1_546
O8 Te1 2.206202 1_555
O9 Te11 1.871654 1_555
O9 Te4 2.546076 1_554
O10 Te11 1.924110 1_555
O10 Te1 2.027347 1_555
O11 Te1 1.871654 1_555
O11 Te5 2.546076 1_545
O12 Te6 1.871654 1_555
O12 Te2 2.546076 1_655
O13 Te7 1.862534 1_645
O13 Te6 2.206202 1_555
O14 Te0 1.947562 1_565
O14 Te8 2.172798 1_556
O15 Te10 1.947562 1_556
O15 Te9 2.172798 1_655
O16 Te3 1.947562 1_455
O16 Te7 2.172798 1_545
O17 Te0 1.862534 1_564
O17 Te5 2.206202 1_555
O18 Te5 1.924110 1_555
O18 Te6 2.027347 1_555
O19 Te3 1.862534 1_465
O19 Te2 2.206202 1_555
O20 Te9 1.947562 1_554
O20 Te10 2.172798 1_455
O21 Te4 1.871654 1_555
O21 Te11 2.546076 1_556
O22 Te6 1.924110 1_555
O22 Te4 2.027347 1_555
O23 Te1 1.924110 1_555
O23 Te2 2.027347 1_555
O24 Te9 1.862534 1_654
O24 Te11 2.206202 1_555
O25 Te2 1.871654 1_555
O25 Te6 2.546076 1_455
