# generated using pymatgen
data_AgH9C7S2(OF)4
_symmetry_space_group_name_H-M   'P 1'
_cell_length_a   6.89607000
_cell_length_b   8.51390236
_cell_length_c   11.14922871
_cell_angle_alpha   87.45032063
_cell_angle_beta   84.33560110
_cell_angle_gamma   83.78697556
_symmetry_Int_Tables_number   1
_chemical_formula_structural   AgH9C7S2(OF)4
_chemical_formula_sum   'Ag2 H18 C14 S4 O8 F8'
_cell_volume   647.19812180
_cell_formula_units_Z   2
loop_
 _symmetry_equiv_pos_site_id
 _symmetry_equiv_pos_as_xyz
  1  'x, y, z'
loop_
 _atom_site_type_symbol
 _atom_site_label
 _atom_site_symmetry_multiplicity
 _atom_site_fract_x
 _atom_site_fract_y
 _atom_site_fract_z
 _atom_site_occupancy
  Ag  Ag0  1  0.17470100  0.98168400  0.07227400  1
  Ag  Ag1  1  0.82529900  0.01831600  0.92772600  1
  H  H0  1  0.71621500  0.69369700  0.24978400  1
  H  H1  1  0.64300300  0.62976000  0.91144300  1
  H  H2  1  0.11328100  0.38597900  0.04247300  1
  H  H3  1  0.97949800  0.35907700  0.62094500  1
  H  H4  1  0.90853700  0.77736100  0.68753700  1
  H  H5  1  0.30809100  0.46773300  0.94768100  1
  H  H6  1  0.69190900  0.53226700  0.05231900  1
  H  H7  1  0.25298900  0.70905400  0.33125200  1
  H  H8  1  0.26140200  0.09874100  0.75641900  1
  H  H9  1  0.73859800  0.90125900  0.24358100  1
  H  H10  1  0.35699700  0.37024000  0.08855700  1
  H  H11  1  0.09146300  0.22263900  0.31246300  1
  H  H12  1  0.74701100  0.29094600  0.66874800  1
  H  H13  1  0.04767600  0.84985500  0.37228900  1
  H  H14  1  0.28378500  0.30630300  0.75021600  1
  H  H15  1  0.88671900  0.61402100  0.95752700  1
  H  H16  1  0.95232400  0.15014500  0.62771100  1
  H  H17  1  0.02050200  0.64092300  0.37905500  1
  C  C0  1  0.46297500  0.78829200  0.59481500  1
  C  C1  1  0.26952400  0.37174000  0.01153900  1
  C  C2  1  0.90584500  0.26388900  0.66938600  1
  C  C3  1  0.78036200  0.24041000  0.21264200  1
  C  C4  1  0.63543800  0.84297800  0.65745000  1
  C  C5  1  0.66287500  0.32405200  0.32401300  1
  C  C6  1  0.73047600  0.62826000  0.98846100  1
  C  C7  1  0.77767600  0.79083800  0.19574300  1
  C  C8  1  0.53702500  0.21170800  0.40518500  1
  C  C9  1  0.09415500  0.73611100  0.33061400  1
  C  C10  1  0.33712500  0.67594800  0.67598700  1
  C  C11  1  0.36456200  0.15702200  0.34255000  1
  C  C12  1  0.22232400  0.20916200  0.80425700  1
  C  C13  1  0.21963800  0.75959000  0.78735800  1
  S  S0  1  0.66047800  0.81663800  0.05780600  1
  S  S1  1  0.95750600  0.25587900  0.82576300  1
  S  S2  1  0.04249400  0.74412100  0.17423700  1
  S  S3  1  0.33952200  0.18336200  0.94219400  1
  O  O0  1  0.68788200  0.23383200  0.12298900  1
  O  O1  1  0.95633000  0.18439600  0.22649300  1
  O  O2  1  0.60854800  0.96107800  0.71848200  1
  O  O3  1  0.31211800  0.76616800  0.87701100  1
  O  O4  1  0.39145200  0.03892200  0.28151800  1
  O  O5  1  0.04367000  0.81560400  0.77350700  1
  O  O6  1  0.79677100  0.74755300  0.63709600  1
  O  O7  1  0.20322900  0.25244700  0.36290400  1
  F  F0  1  0.53055300  0.71453000  0.48955100  1
  F  F1  1  0.46197600  0.54945800  0.71453200  1
  F  F2  1  0.53802400  0.45054200  0.28546800  1
  F  F3  1  0.66218600  0.08094200  0.43450400  1
  F  F4  1  0.78676900  0.38508700  0.39526700  1
  F  F5  1  0.46944700  0.28547000  0.51044900  1
  F  F6  1  0.21323100  0.61491300  0.60473300  1
  F  F7  1  0.33781400  0.91905800  0.56549600  1
loop_
_geom_bond_atom_site_label_1
_geom_bond_atom_site_label_2
_geom_bond_distance
_geom_bond_site_symmetry_2
Ag0 S2 2.490859 1_555
Ag0 S3 2.493799 1_564
Ag0 O1 2.719029 1_465
Ag1 S1 2.490859 1_555
Ag1 S0 2.493799 1_546
Ag1 O5 2.719029 1_645
H4 O6 1.056090 1_555
H4 O5 1.470684 1_655
H11 O7 1.056090 1_555
H11 O1 1.470684 1_455
C0 F0 1.372294 1_555
C0 F7 1.380815 1_555
C1 H2 1.093921 1_555
C1 H10 1.095899 1_555
C1 H5 1.097028 1_554
C1 S3 1.808899 1_554
C2 H12 1.095282 1_555
C2 H16 1.095394 1_555
C2 H3 1.096564 1_555
C2 S1 1.810546 1_555
C3 O0 1.243999 1_555
C3 O1 1.276327 1_555
C4 O2 1.226390 1_555
C4 O6 1.311590 1_555
C5 F4 1.377653 1_555
C5 F2 1.384523 1_555
C6 H15 1.093921 1_555
C6 H1 1.095899 1_555
C6 H6 1.097028 1_556
C6 S0 1.808899 1_556
C7 H9 1.096497 1_555
C7 H0 1.099001 1_555
C7 S0 1.800953 1_555
C7 S2 1.820862 1_655
C8 F5 1.372294 1_555
C8 F3 1.380815 1_555
C9 H7 1.095282 1_555
C9 H13 1.095394 1_555
C9 H17 1.096564 1_555
C9 S2 1.810546 1_555
C10 F6 1.377653 1_555
C10 F1 1.384523 1_555
C11 O4 1.226390 1_555
C11 O7 1.311590 1_555
C12 H8 1.096497 1_555
C12 H14 1.099001 1_555
C12 S3 1.800953 1_555
C12 S1 1.820862 1_455
C13 O3 1.243999 1_555
C13 O5 1.276327 1_555
