# generated using pymatgen
data_YMg4Cu
_symmetry_space_group_name_H-M   'P 1'
_cell_length_a   11.96854182
_cell_length_b   11.96854182
_cell_length_c   4.04653400
_cell_angle_alpha   90.00000000
_cell_angle_beta   90.00000000
_cell_angle_gamma   112.81755074
_symmetry_Int_Tables_number   1
_chemical_formula_structural   YMg4Cu
_chemical_formula_sum   'Y4 Mg16 Cu4'
_cell_volume   534.28894352
_cell_formula_units_Z   4
loop_
 _symmetry_equiv_pos_site_id
 _symmetry_equiv_pos_as_xyz
  1  'x, y, z'
loop_
 _atom_site_type_symbol
 _atom_site_label
 _atom_site_symmetry_multiplicity
 _atom_site_fract_x
 _atom_site_fract_y
 _atom_site_fract_z
 _atom_site_occupancy
  Y  Y0  1  0.69863600  0.69863600  0.00000000  1
  Y  Y1  1  0.30136400  0.30136400  0.00000000  1
  Y  Y2  1  0.63264900  0.36735100  0.00000000  1
  Y  Y3  1  0.36735100  0.63264900  0.00000000  1
  Mg  Mg0  1  0.83529900  0.16470100  0.00000000  1
  Mg  Mg1  1  0.41319900  0.07695500  0.00000000  1
  Mg  Mg2  1  0.21076100  0.05015700  0.50000000  1
  Mg  Mg3  1  0.37514200  0.86486300  0.50000000  1
  Mg  Mg4  1  0.05015700  0.21076100  0.50000000  1
  Mg  Mg5  1  0.58680100  0.92304500  0.00000000  1
  Mg  Mg6  1  0.94984300  0.78923900  0.50000000  1
  Mg  Mg7  1  0.16470100  0.83529900  0.00000000  1
  Mg  Mg8  1  0.62485800  0.13513700  0.50000000  1
  Mg  Mg9  1  0.13513700  0.62485800  0.50000000  1
  Mg  Mg10  1  0.07695500  0.41319900  0.00000000  1
  Mg  Mg11  1  0.86486300  0.37514200  0.50000000  1
  Mg  Mg12  1  0.78923900  0.94984300  0.50000000  1
  Mg  Mg13  1  0.92304500  0.58680100  0.00000000  1
  Mg  Mg14  1  0.00000000  0.00000000  0.00000000  1
  Mg  Mg15  1  0.50000000  0.50000000  0.50000000  1
  Cu  Cu0  1  0.76475700  0.55393300  0.50000000  1
  Cu  Cu1  1  0.55393300  0.76475700  0.50000000  1
  Cu  Cu2  1  0.44606700  0.23524300  0.50000000  1
  Cu  Cu3  1  0.23524300  0.44606700  0.50000000  1
loop_
_geom_bond_atom_site_label_1
_geom_bond_atom_site_label_2
_geom_bond_distance
_geom_bond_site_symmetry_2
Mg0 Mg8 3.141864 1_554
Mg0 Mg8 3.141864 1_555
Mg0 Mg11 3.141864 1_555
Mg0 Mg11 3.141864 1_554
Mg0 Mg12 3.148145 1_545
Mg0 Mg12 3.148145 1_544
Mg0 Mg4 3.148145 1_655
Mg0 Mg4 3.148145 1_654
Mg0 Mg10 3.246400 1_655
Mg0 Mg5 3.246400 1_545
Mg0 Mg14 3.284094 1_655
Mg1 Mg2 3.076386 1_555
Mg1 Mg2 3.076386 1_554
Mg1 Mg8 3.102852 1_555
Mg1 Mg8 3.102852 1_554
Mg1 Mg3 3.138145 1_544
Mg1 Mg3 3.138145 1_545
Mg1 Mg7 3.246400 1_545
Mg1 Mg5 3.267854 1_545
Mg1 Y1 3.434188 1_555
Mg1 Y2 3.449379 1_555
Mg2 Mg7 3.148145 1_546
Mg2 Mg7 3.148145 1_545
Mg2 Mg4 3.202401 1_555
Mg2 Y1 3.432253 1_556
Mg2 Y1 3.432253 1_555
Mg2 Mg6 3.455474 1_445
Mg2 Mg3 3.488963 1_545
Mg3 Mg5 3.102852 1_555
Mg3 Mg5 3.102852 1_556
Mg3 Mg7 3.141864 1_556
Mg3 Mg7 3.141864 1_555
Mg3 Mg9 3.178512 1_555
Mg3 Y3 3.409634 1_556
Mg3 Y3 3.409634 1_555
Mg3 Mg8 3.449345 1_565
Mg4 Y1 3.432253 1_556
Mg4 Y1 3.432253 1_555
Mg5 Mg8 3.138145 1_565
Mg5 Mg8 3.138145 1_564
Mg5 Y0 3.434188 1_555
Mg5 Y3 3.449379 1_555
Mg6 Mg7 3.148145 1_655
Mg6 Mg7 3.148145 1_656
Mg6 Y0 3.432253 1_555
Mg6 Y0 3.432253 1_556
Mg6 Mg9 3.488963 1_655
Mg7 Mg9 3.141864 1_555
Mg7 Mg9 3.141864 1_554
Mg8 Y2 3.409634 1_556
Mg8 Y2 3.409634 1_555
Mg9 Y3 3.409634 1_556
Mg9 Y3 3.409634 1_555
Mg10 Mg4 3.076386 1_554
Mg10 Mg4 3.076386 1_555
Mg10 Mg9 3.102852 1_554
Mg10 Mg9 3.102852 1_555
Mg10 Mg11 3.138145 1_455
Mg10 Mg11 3.138145 1_454
Mg10 Mg13 3.267854 1_455
Mg10 Y1 3.434188 1_555
Mg10 Y3 3.449379 1_555
Mg11 Mg13 3.102852 1_555
Mg11 Mg13 3.102852 1_556
Mg11 Mg8 3.178512 1_555
Mg11 Y2 3.409634 1_556
Mg11 Y2 3.409634 1_555
Mg11 Mg9 3.449345 1_655
Mg11 Mg4 3.488963 1_655
Mg12 Mg5 3.076386 1_555
Mg12 Mg5 3.076386 1_556
Mg12 Mg14 3.105242 1_666
Mg12 Mg14 3.105242 1_665
Mg12 Mg6 3.202401 1_555
Mg12 Y0 3.432253 1_555
Mg12 Y0 3.432253 1_556
Mg12 Mg4 3.455474 1_665
Mg12 Mg8 3.488963 1_565
Mg13 Mg6 3.076386 1_554
Mg13 Mg6 3.076386 1_555
Mg13 Mg9 3.138145 1_654
Mg13 Mg9 3.138145 1_655
Mg13 Mg7 3.246400 1_655
Mg13 Y0 3.434188 1_555
Mg13 Y2 3.449379 1_555
Mg14 Mg4 3.105242 1_555
Mg14 Mg2 3.105242 1_554
Mg14 Mg2 3.105242 1_555
Mg14 Mg4 3.105242 1_554
Mg14 Mg6 3.105242 1_445
Mg14 Mg6 3.105242 1_444
Mg14 Mg7 3.284094 1_545
Mg15 Y0 3.318717 1_556
Mg15 Y0 3.318717 1_555
Mg15 Y1 3.318717 1_556
Mg15 Y1 3.318717 1_555
Mg15 Y2 3.330099 1_556
Mg15 Y3 3.330099 1_556
Mg15 Y2 3.330099 1_555
Mg15 Y3 3.330099 1_555
Cu0 Mg13 2.694325 1_555
Cu0 Mg13 2.694325 1_556
Cu0 Mg6 2.828405 1_555
Cu0 Mg11 2.828961 1_555
Cu0 Y0 2.963495 1_555
Cu0 Y0 2.963495 1_556
Cu0 Y2 2.973531 1_556
Cu0 Y2 2.973531 1_555
Cu0 Mg15 2.978465 1_555
Cu1 Mg5 2.694325 1_555
Cu1 Mg5 2.694325 1_556
Cu1 Mg12 2.828405 1_555
Cu1 Mg3 2.828961 1_555
Cu1 Y0 2.963495 1_555
Cu1 Y0 2.963495 1_556
Cu1 Y3 2.973531 1_555
Cu1 Y3 2.973531 1_556
Cu1 Mg15 2.978465 1_555
Cu2 Mg1 2.694325 1_556
Cu2 Mg1 2.694325 1_555
Cu2 Mg2 2.828405 1_555
Cu2 Mg8 2.828961 1_555
Cu2 Y1 2.963495 1_556
Cu2 Y1 2.963495 1_555
Cu2 Y2 2.973531 1_556
Cu2 Y2 2.973531 1_555
Cu2 Mg15 2.978465 1_555
Cu3 Mg10 2.694325 1_555
Cu3 Mg10 2.694325 1_556
Cu3 Mg4 2.828405 1_555
Cu3 Mg9 2.828961 1_555
Cu3 Y1 2.963495 1_556
Cu3 Y1 2.963495 1_555
Cu3 Y3 2.973531 1_556
Cu3 Y3 2.973531 1_555
Cu3 Mg15 2.978465 1_555
