# generated using pymatgen
data_Ba2ZrF8
_symmetry_space_group_name_H-M   'P 1'
_cell_length_a   5.61719848
_cell_length_b   9.67169465
_cell_length_c   11.96349649
_cell_angle_alpha   90.00000000
_cell_angle_beta   90.00000000
_cell_angle_gamma   90.00000000
_symmetry_Int_Tables_number   1
_chemical_formula_structural   Ba2ZrF8
_chemical_formula_sum   'Ba8 Zr4 F32'
_cell_volume   649.95078541
_cell_formula_units_Z   4
loop_
 _symmetry_equiv_pos_site_id
 _symmetry_equiv_pos_as_xyz
  1  'x, y, z'
loop_
 _atom_site_type_symbol
 _atom_site_label
 _atom_site_symmetry_multiplicity
 _atom_site_fract_x
 _atom_site_fract_y
 _atom_site_fract_z
 _atom_site_occupancy
  Ba  Ba0  1  0.25000000  0.44281046  0.83921260  1
  Ba  Ba1  1  0.75000000  0.55718954  0.16078740  1
  Ba  Ba2  1  0.25000000  0.94281046  0.66078740  1
  Ba  Ba3  1  0.75000000  0.05718954  0.33921260  1
  Ba  Ba4  1  0.25000000  0.86056162  0.05814332  1
  Ba  Ba5  1  0.75000000  0.13943838  0.94185668  1
  Ba  Ba6  1  0.25000000  0.36056162  0.44185668  1
  Ba  Ba7  1  0.75000000  0.63943838  0.55814332  1
  Zr  Zr0  1  0.25000000  0.24302226  0.14145380  1
  Zr  Zr1  1  0.75000000  0.75697774  0.85854620  1
  Zr  Zr2  1  0.25000000  0.74302226  0.35854620  1
  Zr  Zr3  1  0.75000000  0.25697774  0.64145380  1
  F  F0  1  0.25000000  0.13333230  0.30726628  1
  F  F1  1  0.75000000  0.86666770  0.69273372  1
  F  F2  1  0.25000000  0.63333230  0.19273372  1
  F  F3  1  0.75000000  0.36666770  0.80726628  1
  F  F4  1  0.25000000  0.14898003  0.97442771  1
  F  F5  1  0.75000000  0.85101997  0.02557229  1
  F  F6  1  0.25000000  0.64898003  0.52557229  1
  F  F7  1  0.75000000  0.35101997  0.47442771  1
  F  F8  1  0.99098048  0.65879074  0.75361497  1
  F  F9  1  0.49098048  0.34120926  0.24638503  1
  F  F10  1  0.50901952  0.15879074  0.74638503  1
  F  F11  1  0.00901952  0.84120926  0.25361497  1
  F  F12  1  0.01065665  0.40838473  0.63649966  1
  F  F13  1  0.51065665  0.59161527  0.36350034  1
  F  F14  1  0.48934335  0.90838473  0.86350034  1
  F  F15  1  0.98934335  0.09161527  0.13649966  1
  F  F16  1  0.98934335  0.59161527  0.36350034  1
  F  F17  1  0.48934335  0.40838473  0.63649966  1
  F  F18  1  0.51065665  0.09161527  0.13649966  1
  F  F19  1  0.01065665  0.90838473  0.86350034  1
  F  F20  1  0.48510699  0.35818897  0.03890838  1
  F  F21  1  0.98510699  0.64181103  0.96109162  1
  F  F22  1  0.01489301  0.85818897  0.46109162  1
  F  F23  1  0.51489301  0.14181103  0.53890838  1
  F  F24  1  0.51489301  0.64181103  0.96109162  1
  F  F25  1  0.01489301  0.35818897  0.03890838  1
  F  F26  1  0.98510699  0.14181103  0.53890838  1
  F  F27  1  0.48510699  0.85818897  0.46109162  1
  F  F28  1  0.99098048  0.15879074  0.74638503  1
  F  F29  1  0.49098048  0.84120926  0.25361497  1
  F  F30  1  0.50901952  0.65879074  0.75361497  1
  F  F31  1  0.00901952  0.34120926  0.24638503  1
loop_
_geom_bond_atom_site_label_1
_geom_bond_atom_site_label_2
_geom_bond_distance
_geom_bond_site_symmetry_2
Ba0 F30 2.743916 1_555
Ba0 F8 2.743916 1_455
Ba0 F17 2.792804 1_555
Ba0 F12 2.792804 1_555
Ba0 F21 2.836271 1_455
Ba0 F24 2.836271 1_555
Ba0 F20 2.849831 1_556
Ba0 F25 2.849831 1_556
Ba0 F3 2.928588 1_455
Ba0 F3 2.928588 1_555
Ba0 F4 3.269988 1_555
Ba0 F28 3.300904 1_455
Ba0 F10 3.300904 1_555
Ba1 F9 2.743916 1_555
Ba1 F31 2.743916 1_655
Ba1 F16 2.792804 1_555
Ba1 F13 2.792804 1_555
Ba1 F25 2.836271 1_655
Ba1 F20 2.836271 1_555
Ba1 F21 2.849831 1_554
Ba1 F24 2.849831 1_554
Ba1 F2 2.928588 1_655
Ba1 F2 2.928588 1_555
Ba1 F5 3.269988 1_555
Ba1 F29 3.300904 1_555
Ba1 F11 3.300904 1_655
Ba2 F10 2.743916 1_565
Ba2 F28 2.743916 1_465
Ba2 F19 2.792804 1_555
Ba2 F14 2.792804 1_555
Ba2 F26 2.836271 1_465
Ba2 F23 2.836271 1_565
Ba2 F22 2.849831 1_555
Ba2 F27 2.849831 1_555
Ba2 F1 2.928588 1_455
Ba2 F1 2.928588 1_555
Ba2 F6 3.269988 1_555
Ba2 F30 3.300904 1_555
Ba2 F8 3.300904 1_455
Ba3 F29 2.743916 1_545
Ba3 F11 2.743916 1_645
Ba3 F18 2.792804 1_555
Ba3 F15 2.792804 1_555
Ba3 F22 2.836271 1_645
Ba3 F27 2.836271 1_545
Ba3 F26 2.849831 1_555
Ba3 F23 2.849831 1_555
Ba3 F0 2.928588 1_555
Ba3 F0 2.928588 1_655
Ba3 F7 3.269988 1_555
Ba3 F31 3.300904 1_655
Ba3 F9 3.300904 1_555
Ba4 F29 2.708516 1_555
Ba4 F11 2.708516 1_555
Ba4 F2 2.724428 1_555
Ba4 F19 2.728347 1_554
Ba4 F14 2.728347 1_554
Ba4 F18 2.831309 1_565
Ba4 F15 2.831309 1_465
Ba4 F21 2.835182 1_454
Ba4 F24 2.835182 1_554
Ba4 F5 2.837003 1_455
Ba4 F5 2.837003 1_555
Ba4 F4 2.963840 1_564
Ba5 F10 2.708516 1_555
Ba5 F28 2.708516 1_555
Ba5 F3 2.724428 1_555
Ba5 F18 2.728347 1_556
Ba5 F15 2.728347 1_556
Ba5 F14 2.831309 1_545
Ba5 F19 2.831309 1_645
Ba5 F20 2.835182 1_556
Ba5 F25 2.835182 1_656
Ba5 F4 2.837003 1_555
Ba5 F4 2.837003 1_655
Ba5 F5 2.963840 1_546
Ba6 F9 2.708516 1_555
Ba6 F31 2.708516 1_555
Ba6 F0 2.724428 1_555
Ba6 F12 2.728347 1_555
Ba6 F17 2.728347 1_555
Ba6 F16 2.831309 1_455
Ba6 F13 2.831309 1_555
Ba6 F23 2.835182 1_555
Ba6 F26 2.835182 1_455
Ba6 F7 2.837003 1_455
Ba6 F7 2.837003 1_555
Ba6 F6 2.963840 1_555
Ba7 F8 2.708516 1_555
Ba7 F30 2.708516 1_555
Ba7 F1 2.724428 1_555
Ba7 F16 2.728347 1_555
Ba7 F13 2.728347 1_555
Ba7 F17 2.831309 1_555
Ba7 F12 2.831309 1_655
Ba7 F22 2.835182 1_655
Ba7 F27 2.835182 1_555
Ba7 F6 2.837003 1_555
Ba7 F6 2.837003 1_655
Ba7 F7 2.963840 1_555
F0 Zr0 2.249564 1_555
F1 Zr1 2.249564 1_555
F2 Zr2 2.249564 1_555
F3 Zr3 2.249564 1_555
F4 Zr0 2.195483 1_556
F5 Zr1 2.195483 1_554
F6 Zr2 2.195483 1_555
F7 Zr3 2.195483 1_555
F8 Zr1 2.076060 1_555
F9 Zr0 2.076060 1_555
F10 Zr3 2.076060 1_555
F11 Zr2 2.076060 1_555
F12 Zr3 2.071626 1_455
F13 Zr2 2.071626 1_555
F14 Zr1 2.071626 1_555
F15 Zr0 2.071626 1_655
F16 Zr2 2.071626 1_655
F17 Zr3 2.071626 1_555
F18 Zr0 2.071626 1_555
F19 Zr1 2.071626 1_455
F20 Zr0 2.118919 1_555
F21 Zr1 2.118919 1_555
F22 Zr2 2.118919 1_555
F23 Zr3 2.118919 1_555
F24 Zr1 2.118919 1_555
F25 Zr0 2.118919 1_555
F26 Zr3 2.118919 1_555
F27 Zr2 2.118919 1_555
F28 Zr3 2.076060 1_555
F29 Zr2 2.076060 1_555
F30 Zr1 2.076060 1_555
F31 Zr0 2.076060 1_555
