# generated using pymatgen
data_RbLi2Be2F7
_symmetry_space_group_name_H-M   'P 1'
_cell_length_a   5.02450400
_cell_length_b   10.19625500
_cell_length_c   12.58556832
_cell_angle_alpha   89.81259152
_cell_angle_beta   90.00000000
_cell_angle_gamma   90.00000000
_symmetry_Int_Tables_number   1
_chemical_formula_structural   RbLi2Be2F7
_chemical_formula_sum   'Rb4 Li8 Be8 F28'
_cell_volume   644.76936274
_cell_formula_units_Z   4
loop_
 _symmetry_equiv_pos_site_id
 _symmetry_equiv_pos_as_xyz
  1  'x, y, z'
loop_
 _atom_site_type_symbol
 _atom_site_label
 _atom_site_symmetry_multiplicity
 _atom_site_fract_x
 _atom_site_fract_y
 _atom_site_fract_z
 _atom_site_occupancy
  Rb  Rb0  1  0.23285700  0.35967500  0.25006300  1
  Rb  Rb1  1  0.26714300  0.85967500  0.25006300  1
  Rb  Rb2  1  0.76714300  0.64032500  0.74993700  1
  Rb  Rb3  1  0.73285700  0.14032500  0.74993700  1
  Li  Li0  1  0.70708600  0.34786900  0.99932700  1
  Li  Li1  1  0.20708600  0.15213100  0.00067300  1
  Li  Li2  1  0.20994200  0.14959000  0.49900400  1
  Li  Li3  1  0.29291400  0.65213100  0.00067300  1
  Li  Li4  1  0.79005800  0.85041000  0.50099600  1
  Li  Li5  1  0.70994200  0.35041000  0.50099600  1
  Li  Li6  1  0.79291400  0.84786900  0.99932700  1
  Li  Li7  1  0.29005800  0.64959000  0.49900400  1
  Be  Be0  1  0.72476000  0.10095800  0.36590700  1
  Be  Be1  1  0.21385100  0.40270800  0.86778200  1
  Be  Be2  1  0.27524000  0.89904200  0.63409300  1
  Be  Be3  1  0.78614900  0.59729200  0.13221800  1
  Be  Be4  1  0.71385100  0.09729200  0.13221800  1
  Be  Be5  1  0.77524000  0.60095800  0.36590700  1
  Be  Be6  1  0.22476000  0.39904200  0.63409300  1
  Be  Be7  1  0.28614900  0.90270800  0.86778200  1
  F  F0  1  0.12983200  0.80408100  0.55535400  1
  F  F1  1  0.80278100  0.95322400  0.12043300  1
  F  F2  1  0.32385100  0.54106500  0.61836800  1
  F  F3  1  0.67614900  0.45893500  0.38163200  1
  F  F4  1  0.40806300  0.11047900  0.12175700  1
  F  F5  1  0.17614900  0.04106500  0.61836800  1
  F  F6  1  0.69992800  0.64972800  0.24775000  1
  F  F7  1  0.69721900  0.45322400  0.12043300  1
  F  F8  1  0.41950400  0.11045000  0.37960700  1
  F  F9  1  0.30007200  0.35027200  0.75225000  1
  F  F10  1  0.59193700  0.88952100  0.87824300  1
  F  F11  1  0.91950400  0.38955000  0.62039300  1
  F  F12  1  0.85635900  0.18670500  0.04813400  1
  F  F13  1  0.19721900  0.04677600  0.87956700  1
  F  F14  1  0.08049600  0.61045000  0.37960700  1
  F  F15  1  0.35635900  0.31329500  0.95186600  1
  F  F16  1  0.30278100  0.54677600  0.87956700  1
  F  F17  1  0.19992800  0.85027200  0.75225000  1
  F  F18  1  0.87016800  0.19591900  0.44464600  1
  F  F19  1  0.90806300  0.38952100  0.87824300  1
  F  F20  1  0.62983200  0.69591900  0.44464600  1
  F  F21  1  0.82385100  0.95893500  0.38163200  1
  F  F22  1  0.09193700  0.61047900  0.12175700  1
  F  F23  1  0.14364100  0.81329500  0.95186600  1
  F  F24  1  0.37016800  0.30408100  0.55535400  1
  F  F25  1  0.64364100  0.68670500  0.04813400  1
  F  F26  1  0.80007200  0.14972800  0.24775000  1
  F  F27  1  0.58049600  0.88955000  0.62039300  1
loop_
_geom_bond_atom_site_label_1
_geom_bond_atom_site_label_2
_geom_bond_distance
_geom_bond_site_symmetry_2
Be0 F21 1.543432 1_545
Be0 F8 1.546488 1_555
Be0 F18 1.568308 1_555
Be0 F26 1.611527 1_555
Be1 F16 1.543019 1_555
Be1 F19 1.547877 1_455
Be1 F15 1.567619 1_555
Be1 F9 1.610228 1_555
Be2 F5 1.543432 1_565
Be2 F27 1.546488 1_555
Be2 F0 1.568308 1_555
Be2 F17 1.611527 1_555
Be3 F7 1.543019 1_555
Be3 F22 1.547877 1_655
Be3 F25 1.567619 1_555
Be3 F6 1.610228 1_555
Be4 F1 1.543019 1_545
Be4 F4 1.547877 1_555
Be4 F12 1.567619 1_555
Be4 F26 1.610228 1_555
Be5 F3 1.543432 1_555
Be5 F14 1.546488 1_655
Be5 F20 1.568308 1_555
Be5 F6 1.611527 1_555
Be6 F2 1.543432 1_555
Be6 F11 1.546488 1_455
Be6 F24 1.568308 1_555
Be6 F9 1.611527 1_555
Be7 F13 1.543019 1_565
Be7 F10 1.547877 1_555
Be7 F23 1.567619 1_555
Be7 F17 1.610228 1_555
F0 Li4 1.898309 1_455
F0 Li7 1.907808 1_555
F1 Li6 1.868229 1_554
F1 Rb1 3.000850 1_655
F1 Rb1 3.287022 1_555
F2 Li7 1.870615 1_555
F2 Rb2 2.956035 1_555
F3 Li5 1.870615 1_555
F3 Rb0 2.956035 1_555
F4 Li1 1.875674 1_555
F4 Rb1 3.101855 1_545
F4 Rb0 3.140924 1_555
F5 Li2 1.870615 1_555
F5 Rb3 2.956035 1_455
F6 Rb1 3.051609 1_555
F7 Li0 1.868229 1_554
F7 Rb0 3.000850 1_555
F7 Rb0 3.287022 1_655
F8 Li2 1.878810 1_555
F8 Rb1 3.132020 1_545
F8 Rb0 3.157220 1_555
F9 Rb3 3.051609 1_555
F10 Li6 1.875674 1_555
F10 Rb3 3.101855 1_565
F10 Rb2 3.140924 1_555
F11 Li5 1.878810 1_555
F11 Rb2 3.132020 1_555
F11 Rb3 3.157220 1_555
F12 Li1 1.894175 1_655
F12 Li0 1.906196 1_554
F13 Li1 1.868229 1_556
F13 Rb3 3.000850 1_455
F13 Rb3 3.287022 1_555
F14 Li7 1.878810 1_555
F14 Rb0 3.132020 1_555
F14 Rb1 3.157220 1_555
F15 Li0 1.894175 1_555
F15 Li1 1.906196 1_556
F16 Li3 1.868229 1_556
F16 Rb2 3.000850 1_555
F16 Rb2 3.287022 1_455
F17 Rb2 3.051609 1_455
F18 Li2 1.898309 1_655
F18 Li5 1.907808 1_555
F19 Li0 1.875674 1_555
F19 Rb2 3.101855 1_555
F19 Rb3 3.140924 1_555
F20 Li7 1.898309 1_555
F20 Li4 1.907808 1_555
F21 Li4 1.870615 1_555
F21 Rb1 2.956035 1_655
F22 Li3 1.875674 1_555
F22 Rb0 3.101855 1_555
F22 Rb1 3.140924 1_555
F23 Li6 1.894175 1_455
F23 Li3 1.906196 1_556
F24 Li5 1.898309 1_555
F24 Li2 1.907808 1_555
F25 Li3 1.894175 1_555
F25 Li6 1.906196 1_554
F26 Rb0 3.051609 1_655
F27 Li4 1.878810 1_555
F27 Rb3 3.132020 1_565
F27 Rb2 3.157220 1_555
