# generated using pymatgen
data_KFeP2O7
_symmetry_space_group_name_H-M   'P 1'
_cell_length_a   10.04517902
_cell_length_b   7.35040566
_cell_length_c   8.21004398
_cell_angle_alpha   73.47942065
_cell_angle_beta   90.00000000
_cell_angle_gamma   90.00000000
_symmetry_Int_Tables_number   1
_chemical_formula_structural   KFeP2O7
_chemical_formula_sum   'K4 Fe4 P8 O28'
_cell_volume   581.17269228
_cell_formula_units_Z   4
loop_
 _symmetry_equiv_pos_site_id
 _symmetry_equiv_pos_as_xyz
  1  'x, y, z'
loop_
 _atom_site_type_symbol
 _atom_site_label
 _atom_site_symmetry_multiplicity
 _atom_site_fract_x
 _atom_site_fract_y
 _atom_site_fract_z
 _atom_site_occupancy
  K  K0  1  0.67766203  0.17706264  0.94633158  1
  K  K1  1  0.17766203  0.82293736  0.55366842  1
  K  K2  1  0.32233797  0.82293736  0.05366842  1
  K  K3  1  0.82233797  0.17706264  0.44633158  1
  Fe  Fe0  1  0.40087729  0.23519106  0.23884722  1
  Fe  Fe1  1  0.90087729  0.76480894  0.26115278  1
  Fe  Fe2  1  0.59912271  0.76480894  0.76115278  1
  Fe  Fe3  1  0.09912271  0.23519106  0.73884722  1
  P  P0  1  0.36204035  0.44281482  0.80818272  1
  P  P1  1  0.86204035  0.55718518  0.69181728  1
  P  P2  1  0.63795965  0.55718518  0.19181728  1
  P  P3  1  0.13795965  0.44281482  0.30818272  1
  P  P4  1  0.09636044  0.13351569  0.16938979  1
  P  P5  1  0.59636044  0.86648431  0.33061021  1
  P  P6  1  0.90363956  0.86648431  0.83061021  1
  P  P7  1  0.40363956  0.13351569  0.66938979  1
  O  O0  1  0.43824000  0.34175216  0.68411957  1
  O  O1  1  0.93824000  0.65824784  0.81588043  1
  O  O2  1  0.56176000  0.65824784  0.31588043  1
  O  O3  1  0.06176000  0.34175216  0.18411957  1
  O  O4  1  0.26614906  0.07995262  0.74547514  1
  O  O5  1  0.76614906  0.92004738  0.75452486  1
  O  O6  1  0.73385094  0.92004738  0.25452486  1
  O  O7  1  0.23385094  0.07995262  0.24547514  1
  O  O8  1  0.41914000  0.64119390  0.76779380  1
  O  O9  1  0.91914000  0.35880610  0.73220620  1
  O  O10  1  0.58086000  0.35880610  0.23220620  1
  O  O11  1  0.08086000  0.64119390  0.26779380  1
  O  O12  1  0.40952420  0.14384222  0.48516368  1
  O  O13  1  0.90952420  0.85615778  0.01483632  1
  O  O14  1  0.59047580  0.85615778  0.51483632  1
  O  O15  1  0.09047580  0.14384222  0.98516368  1
  O  O16  1  0.39261196  0.32147111  0.98598850  1
  O  O17  1  0.89261196  0.67852889  0.51401150  1
  O  O18  1  0.60738804  0.67852889  0.01401150  1
  O  O19  1  0.10738804  0.32147111  0.48598850  1
  O  O20  1  0.50674299  0.00272357  0.77791535  1
  O  O21  1  0.00674299  0.99727643  0.72208465  1
  O  O22  1  0.49325701  0.99727643  0.22208465  1
  O  O23  1  0.99325701  0.00272357  0.27791535  1
  O  O24  1  0.21565483  0.45280121  0.75817570  1
  O  O25  1  0.71565483  0.54719879  0.74182430  1
  O  O26  1  0.78434517  0.54719879  0.24182430  1
  O  O27  1  0.28434517  0.45280121  0.25817570  1
loop_
_geom_bond_atom_site_label_1
_geom_bond_atom_site_label_2
_geom_bond_distance
_geom_bond_site_symmetry_2
K0 O20 2.740349 1_555
K0 O6 2.751599 1_546
K0 O25 2.787250 1_555
K0 O5 2.920746 1_545
K0 O22 2.932854 1_546
K0 O9 3.069762 1_555
K0 O16 3.102933 1_555
K0 O10 3.165741 1_556
K0 O0 3.225204 1_555
K0 O13 3.248134 1_546
K1 O21 2.740349 1_555
K1 O7 2.751599 1_565
K1 O24 2.787250 1_555
K1 O4 2.920746 1_565
K1 O23 2.932854 1_465
K1 O8 3.069762 1_555
K1 O17 3.102933 1_455
K1 O11 3.165741 1_555
K1 O1 3.225204 1_455
K1 O12 3.248134 1_565
K2 O22 2.740349 1_555
K2 O4 2.751599 1_564
K2 O27 2.787250 1_555
K2 O7 2.920746 1_565
K2 O20 2.932854 1_564
K2 O11 3.069762 1_555
K2 O18 3.102933 1_555
K2 O8 3.165741 1_554
K2 O2 3.225204 1_555
K2 O15 3.248134 1_564
K3 O23 2.740349 1_555
K3 O5 2.751599 1_545
K3 O26 2.787250 1_555
K3 O6 2.920746 1_545
K3 O21 2.932854 1_645
K3 O10 3.069762 1_555
K3 O19 3.102933 1_655
K3 O9 3.165741 1_555
K3 O3 3.225204 1_655
K3 O14 3.248134 1_545
Fe0 O12 1.943122 1_555
Fe0 O16 1.992494 1_554
Fe0 O10 2.017202 1_555
Fe0 O22 2.018696 1_545
Fe0 O7 2.021070 1_555
Fe0 O27 2.024421 1_555
Fe1 O13 1.943122 1_555
Fe1 O17 1.992494 1_555
Fe1 O11 2.017202 1_655
Fe1 O23 2.018696 1_565
Fe1 O6 2.021070 1_555
Fe1 O26 2.024421 1_555
Fe2 O14 1.943122 1_555
Fe2 O18 1.992494 1_556
Fe2 O8 2.017202 1_555
Fe2 O20 2.018696 1_565
Fe2 O5 2.021070 1_555
Fe2 O25 2.024421 1_555
Fe3 O15 1.943122 1_555
Fe3 O19 1.992494 1_555
Fe3 O9 2.017202 1_455
Fe3 O21 2.018696 1_545
Fe3 O4 2.021070 1_555
Fe3 O24 2.024421 1_555
O0 P7 1.607328 1_555
O0 P0 1.614161 1_555
O1 P6 1.607328 1_555
O1 P1 1.614161 1_555
O2 P5 1.607328 1_555
O2 P2 1.614161 1_555
O3 P4 1.607328 1_555
O3 P3 1.614161 1_555
O4 P7 1.520798 1_555
O5 P6 1.520798 1_555
O6 P5 1.520798 1_555
O7 P4 1.520798 1_555
O8 P0 1.513343 1_555
O9 P1 1.513343 1_555
O10 P2 1.513343 1_555
O11 P3 1.513343 1_555
O12 P7 1.493865 1_555
O13 P6 1.493865 1_554
O14 P5 1.493865 1_555
O15 P4 1.493865 1_556
O16 P0 1.510082 1_555
O17 P1 1.510082 1_555
O18 P2 1.510082 1_555
O19 P3 1.510082 1_555
O20 P7 1.517770 1_555
O21 P6 1.517770 1_455
O22 P5 1.517770 1_555
O23 P4 1.517770 1_655
O24 P0 1.522855 1_555
O25 P1 1.522855 1_555
O26 P2 1.522855 1_555
O27 P3 1.522855 1_555
