# generated using pymatgen
data_BaTm2NiO5
_symmetry_space_group_name_H-M   'P 1'
_cell_length_a   5.67570700
_cell_length_b   7.01012200
_cell_length_c   12.24473600
_cell_angle_alpha   90.00000000
_cell_angle_beta   90.00000000
_cell_angle_gamma   90.00000000
_symmetry_Int_Tables_number   1
_chemical_formula_structural   BaTm2NiO5
_chemical_formula_sum   'Ba4 Tm8 Ni4 O20'
_cell_volume   487.18619084
_cell_formula_units_Z   4
loop_
 _symmetry_equiv_pos_site_id
 _symmetry_equiv_pos_as_xyz
  1  'x, y, z'
loop_
 _atom_site_type_symbol
 _atom_site_label
 _atom_site_symmetry_multiplicity
 _atom_site_fract_x
 _atom_site_fract_y
 _atom_site_fract_z
 _atom_site_occupancy
  Ba  Ba0  1  0.25000000  0.92464700  0.90205300  1
  Ba  Ba1  1  0.75000000  0.07535300  0.09794700  1
  Ba  Ba2  1  0.75000000  0.42464700  0.59794700  1
  Ba  Ba3  1  0.25000000  0.57535300  0.40205300  1
  Tm  Tm0  1  0.25000000  0.11943200  0.29150500  1
  Tm  Tm1  1  0.75000000  0.88056800  0.70849500  1
  Tm  Tm2  1  0.75000000  0.61943200  0.20849500  1
  Tm  Tm3  1  0.25000000  0.38056800  0.79150500  1
  Tm  Tm4  1  0.25000000  0.39838800  0.07377000  1
  Tm  Tm5  1  0.75000000  0.60161200  0.92623000  1
  Tm  Tm6  1  0.75000000  0.89838800  0.42623000  1
  Tm  Tm7  1  0.25000000  0.10161200  0.57377000  1
  Ni  Ni0  1  0.25000000  0.69738700  0.65575000  1
  Ni  Ni1  1  0.75000000  0.30261300  0.34425000  1
  Ni  Ni2  1  0.75000000  0.19738700  0.84425000  1
  Ni  Ni3  1  0.25000000  0.80261300  0.15575000  1
  O  O0  1  0.99782500  0.16487900  0.43421000  1
  O  O1  1  0.49782500  0.83512100  0.56579000  1
  O  O2  1  0.00217500  0.66487900  0.06579000  1
  O  O3  1  0.50217500  0.33512100  0.93421000  1
  O  O4  1  0.00217500  0.83512100  0.56579000  1
  O  O5  1  0.50217500  0.16487900  0.43421000  1
  O  O6  1  0.99782500  0.33512100  0.93421000  1
  O  O7  1  0.49782500  0.66487900  0.06579000  1
  O  O8  1  0.49959400  0.36149800  0.22527800  1
  O  O9  1  0.99959400  0.63850200  0.77472200  1
  O  O10  1  0.50040600  0.86149800  0.27472200  1
  O  O11  1  0.00040600  0.13850200  0.72527800  1
  O  O12  1  0.50040600  0.63850200  0.77472200  1
  O  O13  1  0.00040600  0.36149800  0.22527800  1
  O  O14  1  0.49959400  0.13850200  0.72527800  1
  O  O15  1  0.99959400  0.86149800  0.27472200  1
  O  O16  1  0.25000000  0.07549700  0.10358200  1
  O  O17  1  0.75000000  0.92450300  0.89641800  1
  O  O18  1  0.75000000  0.57549700  0.39641800  1
  O  O19  1  0.25000000  0.42450300  0.60358200  1
loop_
_geom_bond_atom_site_label_1
_geom_bond_atom_site_label_2
_geom_bond_distance
_geom_bond_site_symmetry_2
Ba0 O16 2.684707 1_566
Ba0 O17 2.838692 1_455
Ba0 O17 2.838692 1_555
Ba0 O9 2.911096 1_455
Ba0 O12 2.911096 1_555
Ba0 O11 2.989917 1_565
Ba0 O14 2.989917 1_565
Ba0 O7 3.051921 1_556
Ba0 O2 3.051921 1_556
Ba0 O3 3.237813 1_565
Ba0 O6 3.237813 1_465
Ba1 O17 2.684707 1_544
Ba1 O16 2.838692 1_655
Ba1 O16 2.838692 1_555
Ba1 O13 2.911096 1_655
Ba1 O8 2.911096 1_555
Ba1 O10 2.989917 1_545
Ba1 O15 2.989917 1_545
Ba1 O6 3.051921 1_554
Ba1 O3 3.051921 1_554
Ba1 O2 3.237813 1_645
Ba1 O7 3.237813 1_545
Ba2 O18 2.684707 1_555
Ba2 O19 2.838692 1_555
Ba2 O19 2.838692 1_655
Ba2 O14 2.911096 1_555
Ba2 O11 2.911096 1_655
Ba2 O12 2.989917 1_555
Ba2 O9 2.989917 1_555
Ba2 O0 3.051921 1_555
Ba2 O5 3.051921 1_555
Ba2 O4 3.237813 1_655
Ba2 O1 3.237813 1_555
Ba3 O19 2.684707 1_555
Ba3 O18 2.838692 1_455
Ba3 O18 2.838692 1_555
Ba3 O10 2.911096 1_555
Ba3 O15 2.911096 1_455
Ba3 O13 2.989917 1_555
Ba3 O8 2.989917 1_555
Ba3 O1 3.051921 1_555
Ba3 O4 3.051921 1_555
Ba3 O5 3.237813 1_555
Ba3 O0 3.237813 1_455
Ni0 O19 2.016785 1_555
Ni0 O1 2.030790 1_555
Ni0 O4 2.030790 1_555
Ni0 O9 2.076657 1_455
Ni0 O12 2.076657 1_555
Ni1 O18 2.016785 1_555
Ni1 O0 2.030790 1_555
Ni1 O5 2.030790 1_555
Ni1 O13 2.076657 1_655
Ni1 O8 2.076657 1_555
Ni2 O17 2.016785 1_545
Ni2 O6 2.030790 1_555
Ni2 O3 2.030790 1_555
Ni2 O11 2.076657 1_655
Ni2 O14 2.076657 1_555
Ni3 O16 2.016785 1_565
Ni3 O7 2.030790 1_555
Ni3 O2 2.030790 1_555
Ni3 O10 2.076657 1_555
Ni3 O15 2.076657 1_455
O0 Tm7 2.272772 1_655
O0 Tm0 2.281094 1_655
O0 Tm6 2.340501 1_545
O1 Tm6 2.272772 1_555
O1 Tm1 2.281094 1_555
O1 Tm7 2.340501 1_565
O2 Tm5 2.272772 1_454
O2 Tm2 2.281094 1_455
O2 Tm4 2.340501 1_555
O3 Tm4 2.272772 1_556
O3 Tm3 2.281094 1_555
O3 Tm5 2.340501 1_555
O4 Tm6 2.272772 1_455
O4 Tm1 2.281094 1_455
O4 Tm7 2.340501 1_565
O5 Tm7 2.272772 1_555
O5 Tm0 2.281094 1_555
O5 Tm6 2.340501 1_545
O6 Tm4 2.272772 1_656
O6 Tm3 2.281094 1_655
O6 Tm5 2.340501 1_555
O7 Tm5 2.272772 1_554
O7 Tm2 2.281094 1_555
O7 Tm4 2.340501 1_555
O8 Tm2 2.309011 1_555
O8 Tm4 2.348483 1_555
O8 Tm0 2.354557 1_555
O9 Tm3 2.309011 1_655
O9 Tm5 2.348483 1_555
O9 Tm1 2.354557 1_555
O10 Tm0 2.309011 1_565
O10 Tm6 2.348483 1_555
O10 Tm2 2.354557 1_555
O11 Tm1 2.309011 1_445
O11 Tm7 2.348483 1_555
O11 Tm3 2.354557 1_555
O12 Tm3 2.309011 1_555
O12 Tm5 2.348483 1_555
O12 Tm1 2.354557 1_555
O13 Tm2 2.309011 1_455
O13 Tm4 2.348483 1_555
O13 Tm0 2.354557 1_555
O14 Tm1 2.309011 1_545
O14 Tm7 2.348483 1_555
O14 Tm3 2.354557 1_555
O15 Tm0 2.309011 1_665
O15 Tm6 2.348483 1_555
O15 Tm2 2.354557 1_555
O16 Tm4 2.292752 1_555
O16 Tm0 2.321588 1_555
O17 Tm5 2.292752 1_555
O17 Tm1 2.321588 1_555
O18 Tm6 2.292752 1_555
O18 Tm2 2.321588 1_555
O19 Tm7 2.292752 1_555
O19 Tm3 2.321588 1_555
