# generated using pymatgen
data_KBa4Sb3O
_symmetry_space_group_name_H-M   'P 1'
_cell_length_a   10.53640582
_cell_length_b   10.53640582
_cell_length_c   10.53640582
_cell_angle_alpha   129.70994852
_cell_angle_beta   129.70994852
_cell_angle_gamma   73.87088712
_symmetry_Int_Tables_number   1
_chemical_formula_structural   KBa4Sb3O
_chemical_formula_sum   'K2 Ba8 Sb6 O2'
_cell_volume   675.22760102
_cell_formula_units_Z   2
loop_
 _symmetry_equiv_pos_site_id
 _symmetry_equiv_pos_as_xyz
  1  'x, y, z'
loop_
 _atom_site_type_symbol
 _atom_site_label
 _atom_site_symmetry_multiplicity
 _atom_site_fract_x
 _atom_site_fract_y
 _atom_site_fract_z
 _atom_site_occupancy
  K  K0  1  0.50000000  0.50000000  0.00000000  1
  K  K1  1  0.00000000  0.00000000  0.00000000  1
  Ba  Ba0  1  0.81224600  0.99583400  0.50000000  1
  Ba  Ba1  1  0.49583400  0.31224600  0.50000000  1
  Ba  Ba2  1  0.99583400  0.49583400  0.18358900  1
  Ba  Ba3  1  0.18775400  0.00416600  0.50000000  1
  Ba  Ba4  1  0.68775400  0.18775400  0.18358900  1
  Ba  Ba5  1  0.00416600  0.50416600  0.81641100  1
  Ba  Ba6  1  0.31224600  0.81224600  0.81641100  1
  Ba  Ba7  1  0.50416600  0.68775400  0.50000000  1
  Sb  Sb0  1  0.88445100  0.61554900  0.50000000  1
  Sb  Sb1  1  0.25000000  0.25000000  0.00000000  1
  Sb  Sb2  1  0.38445100  0.88445100  0.26890200  1
  Sb  Sb3  1  0.61554900  0.11554900  0.73109800  1
  Sb  Sb4  1  0.11554900  0.38445100  0.50000000  1
  Sb  Sb5  1  0.75000000  0.75000000  0.00000000  1
  O  O0  1  0.25000000  0.75000000  0.50000000  1
  O  O1  1  0.75000000  0.25000000  0.50000000  1
loop_
_geom_bond_atom_site_label_1
_geom_bond_atom_site_label_2
_geom_bond_distance
_geom_bond_site_symmetry_2
K0 Sb0 3.594522 1_555
K0 Sb2 3.594522 1_555
K0 Sb4 3.594522 1_554
K0 Sb3 3.594522 1_554
K1 Sb2 3.594522 1_545
K1 Sb0 3.594522 1_444
K1 Sb4 3.594522 1_555
K1 Sb3 3.594522 1_454
Ba0 O1 2.574093 1_565
Ba0 Sb3 3.589763 1_565
Ba0 Sb2 3.589763 1_555
Ba0 Sb5 3.739729 1_555
Ba0 Sb1 3.739729 1_666
Ba0 Sb0 3.865212 1_555
Ba1 O1 2.574093 1_555
Ba1 Sb3 3.589763 1_555
Ba1 Sb2 3.589763 1_545
Ba1 Sb5 3.739729 1_556
Ba1 Sb1 3.739729 1_555
Ba1 Sb4 3.865212 1_555
Ba2 O0 2.574094 1_655
Ba2 Sb0 3.589753 1_555
Ba2 Sb4 3.589753 1_655
Ba2 Sb1 3.739734 1_655
Ba2 Sb5 3.739734 1_555
Ba2 Sb3 3.865211 1_554
Ba3 O0 2.574093 1_545
Ba3 Sb2 3.589763 1_545
Ba3 Sb3 3.589763 1_555
Ba3 Sb1 3.739729 1_556
Ba3 Sb5 3.739729 1_445
Ba3 Sb4 3.865212 1_555
Ba4 O1 2.574083 1_555
Ba4 Sb4 3.589766 1_655
Ba4 Sb0 3.589766 1_555
Ba4 Sb5 3.739727 1_545
Ba4 Sb1 3.739727 1_555
Ba4 Sb3 3.865222 1_554
Ba5 O1 2.574094 1_455
Ba5 Sb0 3.589753 1_455
Ba5 Sb4 3.589753 1_555
Ba5 Sb5 3.739734 1_456
Ba5 Sb1 3.739734 1_556
Ba5 Sb2 3.865211 1_556
Ba6 O0 2.574083 1_555
Ba6 Sb0 3.589766 1_455
Ba6 Sb4 3.589766 1_555
Ba6 Sb5 3.739727 1_556
Ba6 Sb1 3.739727 1_566
Ba6 Sb2 3.865222 1_556
Ba7 O0 2.574093 1_555
Ba7 Sb2 3.589763 1_555
Ba7 Sb3 3.589763 1_565
Ba7 Sb5 3.739729 1_556
Ba7 Sb1 3.739729 1_555
Ba7 Sb0 3.865212 1_555
Sb0 Sb4 2.926386 1_655
Sb2 Sb3 2.926386 1_565
