# generated using pymatgen
data_Tb3P4Pd7
_symmetry_space_group_name_H-M   'P 1'
_cell_length_a   3.99792147
_cell_length_b   8.17615970
_cell_length_c   7.92674573
_cell_angle_alpha   71.21985801
_cell_angle_beta   75.38486557
_cell_angle_gamma   75.85511599
_symmetry_Int_Tables_number   1
_chemical_formula_structural   Tb3P4Pd7
_chemical_formula_sum   'Tb3 P4 Pd7'
_cell_volume   233.58027013
_cell_formula_units_Z   1
loop_
 _symmetry_equiv_pos_site_id
 _symmetry_equiv_pos_as_xyz
  1  'x, y, z'
loop_
 _atom_site_type_symbol
 _atom_site_label
 _atom_site_symmetry_multiplicity
 _atom_site_fract_x
 _atom_site_fract_y
 _atom_site_fract_z
 _atom_site_occupancy
  Tb  Tb0  1  0.31971474  0.67656212  0.68424650  1
  Tb  Tb1  1  0.68028526  0.32343788  0.31575350  1
  Tb  Tb2  1  -0.00000000  0.00000000  -0.00000000  1
  P  P0  1  0.65906804  0.74661622  0.93552102  1
  P  P1  1  0.34093196  0.25338378  0.06447898  1
  P  P2  1  0.10554985  0.18115334  0.60748122  1
  P  P3  1  0.89445015  0.81884666  0.39251878  1
  Pd  Pd0  1  0.69575861  0.96948759  0.63935402  1
  Pd  Pd1  1  0.30424139  0.03051241  0.36064598  1
  Pd  Pd2  1  0.48996548  0.28386126  0.73551836  1
  Pd  Pd3  1  0.16745103  0.57992561  0.08555374  1
  Pd  Pd4  1  0.51003452  0.71613874  0.26448164  1
  Pd  Pd5  1  0.83254897  0.42007439  0.91444626  1
  Pd  Pd6  1  -0.00000000  0.50000000  0.50000000  1
loop_
_geom_bond_atom_site_label_1
_geom_bond_atom_site_label_2
_geom_bond_distance
_geom_bond_site_symmetry_2
P0 Pd0 2.460865 1_555
P0 Pd4 2.467133 1_556
P0 Pd3 2.494154 1_556
P0 Pd3 2.495022 1_656
P0 Pd5 2.638325 1_555
P0 Tb0 2.934560 1_655
P0 Tb0 2.934964 1_555
P0 Tb2 2.970603 1_666
P0 Tb2 2.971549 1_566
P1 Pd1 2.460865 1_555
P1 Pd2 2.467133 1_554
P1 Pd5 2.494154 1_554
P1 Pd5 2.495022 1_454
P1 Pd3 2.638325 1_555
P1 Tb1 2.934560 1_455
P1 Tb1 2.934964 1_555
P1 Tb2 2.970603 1_555
P1 Tb2 2.971549 1_655
P2 Pd6 2.431823 1_555
P2 Pd2 2.462496 1_555
P2 Pd2 2.463783 1_455
P2 Pd1 2.503081 1_555
P2 Pd0 2.576482 1_445
P2 Pd0 2.578776 1_545
P2 Tb2 2.954367 1_556
P2 Tb1 2.978815 1_555
P2 Tb1 2.979368 1_455
P3 Pd6 2.431823 1_655
P3 Pd4 2.462496 1_555
P3 Pd4 2.463783 1_655
P3 Pd0 2.503081 1_555
P3 Pd1 2.576482 1_665
P3 Pd1 2.578776 1_565
P3 Tb2 2.954367 1_665
P3 Tb0 2.978815 1_555
P3 Tb0 2.979368 1_655
Pd0 Pd2 2.788591 1_565
Pd0 Pd1 2.866864 1_665
Pd0 Pd1 2.869390 1_565
Pd0 Tb0 3.010640 1_555
Pd0 Tb0 3.010743 1_655
Pd0 Tb1 3.189270 1_565
Pd0 Tb2 3.475115 1_666
Pd0 Tb2 3.475493 1_566
Pd1 Pd4 2.788591 1_545
Pd1 Tb1 3.010640 1_555
Pd1 Tb1 3.010743 1_455
Pd1 Tb0 3.189270 1_545
Pd1 Tb2 3.475115 1_555
Pd1 Tb2 3.475493 1_655
Pd2 Pd5 2.804480 1_455
Pd2 Pd5 2.805475 1_555
Pd2 Pd6 2.911129 1_555
Pd2 Pd6 2.912377 1_655
Pd2 Tb0 3.028014 1_555
Pd2 Tb1 3.147138 1_555
Pd2 Tb2 3.261210 1_556
Pd2 Tb2 3.263591 1_656
Pd3 Pd4 2.804480 1_455
Pd3 Pd4 2.805475 1_555
Pd3 Pd5 2.870708 1_554
Pd3 Pd5 2.872903 1_454
Pd3 Tb0 2.958636 1_554
Pd3 Tb1 3.041996 1_555
Pd3 Tb1 3.042966 1_455
Pd3 Pd6 3.064223 1_555
Pd3 Tb2 3.210938 1_565
Pd4 Pd6 2.911129 1_655
Pd4 Pd6 2.912377 1_555
Pd4 Tb1 3.028014 1_555
Pd4 Tb0 3.147138 1_555
Pd4 Tb2 3.261210 1_665
Pd4 Tb2 3.263591 1_565
Pd5 Tb1 2.958636 1_556
Pd5 Tb0 3.041996 1_555
Pd5 Tb0 3.042966 1_655
Pd5 Pd6 3.064223 1_655
Pd5 Tb2 3.210938 1_656
Pd6 Tb0 3.007981 1_455
Pd6 Tb1 3.007981 1_555
Pd6 Tb0 3.008682 1_555
Pd6 Tb1 3.008682 1_455
