# generated using pymatgen
data_Na2LuMoPO8
_symmetry_space_group_name_H-M   'P 1'
_cell_length_a   11.42466396
_cell_length_b   11.42466396
_cell_length_c   11.42466396
_cell_angle_alpha   145.24923695
_cell_angle_beta   116.30724928
_cell_angle_gamma   74.64350721
_symmetry_Int_Tables_number   1
_chemical_formula_structural   Na2LuMoPO8
_chemical_formula_sum   'Na8 Lu4 Mo4 P4 O32'
_cell_volume   747.42132501
_cell_formula_units_Z   4
loop_
 _symmetry_equiv_pos_site_id
 _symmetry_equiv_pos_as_xyz
  1  'x, y, z'
loop_
 _atom_site_type_symbol
 _atom_site_label
 _atom_site_symmetry_multiplicity
 _atom_site_fract_x
 _atom_site_fract_y
 _atom_site_fract_z
 _atom_site_occupancy
  Na  Na0  1  0.90384100  0.85704300  0.06832100  1
  Na  Na1  1  0.40384100  0.33552000  0.04679800  1
  Na  Na2  1  0.71127800  0.16448000  0.56832100  1
  Na  Na3  1  0.78872200  0.35704300  0.45320200  1
  Na  Na4  1  0.28872200  0.83552000  0.43167900  1
  Na  Na5  1  0.59615900  0.66448000  0.95320200  1
  Na  Na6  1  0.21127800  0.64295700  0.54679800  1
  Na  Na7  1  0.09615900  0.14295700  0.93167900  1
  Lu  Lu0  1  0.17845500  0.75000000  0.92845500  1
  Lu  Lu1  1  0.82154500  0.25000000  0.07154500  1
  Lu  Lu2  1  0.67845500  0.75000000  0.42845500  1
  Lu  Lu3  1  0.32154500  0.25000000  0.57154500  1
  Mo  Mo0  1  0.92569400  0.67569400  0.25000000  1
  Mo  Mo1  1  0.57430600  0.82430600  0.75000000  1
  Mo  Mo2  1  0.07430600  0.32430600  0.75000000  1
  Mo  Mo3  1  0.42569400  0.17569400  0.25000000  1
  P  P0  1  0.06839800  0.25000000  0.31839800  1
  P  P1  1  0.43160200  0.75000000  0.18160200  1
  P  P2  1  0.56839800  0.25000000  0.81839800  1
  P  P3  1  0.93160200  0.75000000  0.68160200  1
  O  O0  1  0.42331200  0.17132900  0.73036500  1
  O  O1  1  0.39905100  0.81218900  0.67114300  1
  O  O2  1  0.92331200  0.19294700  0.25198300  1
  O  O3  1  0.65643800  0.07995000  0.72222400  1
  O  O4  1  0.05903600  0.30705300  0.23036500  1
  O  O5  1  0.15643800  0.43421400  0.57648800  1
  O  O6  1  0.84356200  0.56578600  0.42351200  1
  O  O7  1  0.85895300  0.68781100  0.08686100  1
  O  O8  1  0.15558500  0.16703000  0.56013200  1
  O  O9  1  0.65558500  0.09545300  0.98855600  1
  O  O10  1  0.60094900  0.18781100  0.32885700  1
  O  O11  1  0.34356200  0.92005000  0.27777600  1
  O  O12  1  0.07668800  0.80705300  0.74801700  1
  O  O13  1  0.10689800  0.59545300  0.93986800  1
  O  O14  1  0.84441500  0.83297000  0.43986800  1
  O  O15  1  0.85772700  0.93421400  0.77777600  1
  O  O16  1  0.60689800  0.66703000  0.51144400  1
  O  O17  1  0.55903700  0.32867100  0.75198300  1
  O  O18  1  0.14104700  0.31218900  0.91313900  1
  O  O19  1  0.89905100  0.22790800  0.58686100  1
  O  O20  1  0.14227300  0.06578600  0.22222400  1
  O  O21  1  0.94096300  0.69294700  0.76963500  1
  O  O22  1  0.64104700  0.72790800  0.82885700  1
  O  O23  1  0.64227300  0.42005000  0.07648800  1
  O  O24  1  0.89310200  0.40454700  0.06013200  1
  O  O25  1  0.44096300  0.67132900  0.24801700  1
  O  O26  1  0.57668800  0.82867100  0.26963500  1
  O  O27  1  0.10094900  0.77209200  0.41313900  1
  O  O28  1  0.35772700  0.57995000  0.92351200  1
  O  O29  1  0.34441500  0.90454700  0.01144400  1
  O  O30  1  0.39310200  0.33297000  0.48855600  1
  O  O31  1  0.35895300  0.27209200  0.17114300  1
loop_
_geom_bond_atom_site_label_1
_geom_bond_atom_site_label_2
_geom_bond_distance
_geom_bond_site_symmetry_2
Na0 O7 2.310923 1_555
Na0 O21 2.384940 1_554
Na0 O2 2.446539 1_565
Na0 O22 2.666118 1_554
Na0 O20 2.916150 1_665
Na0 O13 2.933490 1_654
Na1 O31 2.310934 1_555
Na1 O25 2.384945 1_555
Na1 O0 2.446539 1_554
Na1 O18 2.666117 1_554
Na1 O23 2.916149 1_555
Na1 O16 2.933486 1_555
Na2 O19 2.310934 1_555
Na2 O26 2.384947 1_545
Na2 O17 2.446529 1_555
Na2 O10 2.666127 1_555
Na2 O3 2.916160 1_555
Na2 O14 2.933490 1_545
Na3 O10 2.310927 1_555
Na3 O2 2.384947 1_555
Na3 O21 2.446534 1_555
Na3 O19 2.666118 1_555
Na3 O6 2.916160 1_555
Na3 O9 2.933482 1_554
Na4 O27 2.310934 1_555
Na4 O0 2.384947 1_565
Na4 O25 2.446529 1_555
Na4 O1 2.666127 1_555
Na4 O11 2.916160 1_555
Na4 O8 2.933490 1_565
Na5 O22 2.310934 1_555
Na5 O17 2.384945 1_555
Na5 O26 2.446539 1_556
Na5 O7 2.666117 1_556
Na5 O28 2.916149 1_555
Na5 O30 2.933486 1_555
Na6 O1 2.310927 1_555
Na6 O12 2.384947 1_555
Na6 O4 2.446539 1_555
Na6 O27 2.666118 1_555
Na6 O5 2.916160 1_555
Na6 O29 2.933482 1_556
Na7 O18 2.310923 1_555
Na7 O4 2.384947 1_556
Na7 O12 2.446539 1_545
Na7 O31 2.666118 1_556
Na7 O15 2.916150 1_445
Na7 O24 2.933490 1_456
Lu0 O5 2.234561 1_555
Lu0 O20 2.234565 1_566
Lu0 O13 2.245030 1_555
Lu0 O29 2.245037 1_556
Lu0 O12 2.389229 1_555
Lu0 O21 2.389239 1_455
Lu0 O11 2.405628 1_556
Lu0 O28 2.405635 1_555
Lu1 O6 2.234561 1_555
Lu1 O15 2.234565 1_544
Lu1 O24 2.245030 1_555
Lu1 O9 2.245037 1_554
Lu1 O4 2.389229 1_655
Lu1 O2 2.389229 1_555
Lu1 O3 2.405628 1_554
Lu1 O23 2.405635 1_555
Lu2 O23 2.234559 1_555
Lu2 O3 2.234561 1_565
Lu2 O16 2.245020 1_555
Lu2 O14 2.245030 1_555
Lu2 O26 2.389229 1_555
Lu2 O25 2.389239 1_555
Lu2 O6 2.405628 1_555
Lu2 O15 2.405631 1_555
Lu3 O28 2.234559 1_555
Lu3 O11 2.234561 1_545
Lu3 O30 2.245020 1_555
Lu3 O8 2.245030 1_555
Lu3 O0 2.389229 1_555
Lu3 O17 2.389239 1_555
Lu3 O5 2.405628 1_555
Lu3 O20 2.405631 1_555
Mo0 O27 1.784021 1_655
Mo0 O7 1.784030 1_555
Mo0 O24 1.814649 1_555
Mo0 O14 1.814649 1_555
Mo1 O1 1.784020 1_555
Mo1 O22 1.784021 1_555
Mo1 O9 1.814647 1_565
Mo1 O16 1.814658 1_555
Mo2 O19 1.784021 1_455
Mo2 O18 1.784030 1_555
Mo2 O8 1.814649 1_555
Mo2 O13 1.814649 1_555
Mo3 O10 1.784020 1_555
Mo3 O31 1.784021 1_555
Mo3 O29 1.814647 1_545
Mo3 O30 1.814658 1_555
O0 P2 1.546873 1_555
O2 P0 1.546873 1_655
O3 P2 1.558880 1_555
O4 P0 1.546873 1_555
O5 P0 1.558880 1_555
O6 P3 1.558880 1_555
O11 P1 1.558880 1_555
O12 P3 1.546873 1_455
O15 P3 1.558874 1_555
O17 P2 1.546876 1_555
O20 P0 1.558874 1_555
O21 P3 1.546877 1_555
O23 P2 1.558879 1_554
O25 P1 1.546876 1_555
O26 P1 1.546873 1_555
O28 P1 1.558879 1_556
