# generated using pymatgen
data_Y(FeSi)2
_symmetry_space_group_name_H-M   'P 1'
_cell_length_a   3.95070383
_cell_length_b   3.95070301
_cell_length_c   5.48285508
_cell_angle_alpha   111.11726952
_cell_angle_beta   111.11727542
_cell_angle_gamma   90.00000757
_symmetry_Int_Tables_number   1
_chemical_formula_structural   Y(FeSi)2
_chemical_formula_sum   'Y1 Fe2 Si2'
_cell_volume   73.63574122
_cell_formula_units_Z   1
loop_
 _symmetry_equiv_pos_site_id
 _symmetry_equiv_pos_as_xyz
  1  'x, y, z'
loop_
 _atom_site_type_symbol
 _atom_site_label
 _atom_site_symmetry_multiplicity
 _atom_site_fract_x
 _atom_site_fract_y
 _atom_site_fract_z
 _atom_site_occupancy
  Y  Y0  1  0.00000000  0.00000000  0.00000000  1
  Fe  Fe0  1  0.25000000  0.75000000  0.50000000  1
  Fe  Fe1  1  0.75000000  0.25000000  0.50000000  1
  Si  Si0  1  0.63734642  0.63734642  0.27469283  1
  Si  Si1  1  0.36265358  0.36265358  0.72530717  1
loop_
_geom_bond_atom_site_label_1
_geom_bond_atom_site_label_2
_geom_bond_distance
_geom_bond_site_symmetry_2
Fe0 Si1 2.243187 1_565
Fe0 Si0 2.243187 1_455
Fe0 Si1 2.243187 1_555
Fe0 Si0 2.243187 1_555
Fe0 Y0 3.076756 1_555
Fe0 Y0 3.076756 1_666
Fe0 Y0 3.076757 1_565
Fe0 Y0 3.076757 1_566
Fe1 Si0 2.243187 1_545
Fe1 Si1 2.243187 1_655
Fe1 Si0 2.243187 1_555
Fe1 Si1 2.243187 1_555
Fe1 Y0 3.076756 1_666
Fe1 Y0 3.076756 1_555
Fe1 Y0 3.076757 1_656
Fe1 Y0 3.076757 1_655
Si0 Si1 2.591893 1_554
Si0 Y0 3.079530 1_555
Si0 Y0 3.079530 1_665
Si0 Y0 3.079530 1_565
Si0 Y0 3.079530 1_655
Si1 Y0 3.079530 1_666
Si1 Y0 3.079530 1_556
Si1 Y0 3.079530 1_656
Si1 Y0 3.079530 1_566
