# generated using pymatgen
data_CsCuO
_symmetry_space_group_name_H-M   'P 1'
_cell_length_a   6.02153551
_cell_length_b   6.02153551
_cell_length_c   4.97147784
_cell_angle_alpha   90.00000000
_cell_angle_beta   90.00000000
_cell_angle_gamma   120.15159580
_symmetry_Int_Tables_number   1
_chemical_formula_structural   CsCuO
_chemical_formula_sum   'Cs2 Cu2 O2'
_cell_volume   155.87095444
_cell_formula_units_Z   2
loop_
 _symmetry_equiv_pos_site_id
 _symmetry_equiv_pos_as_xyz
  1  'x, y, z'
loop_
 _atom_site_type_symbol
 _atom_site_label
 _atom_site_symmetry_multiplicity
 _atom_site_fract_x
 _atom_site_fract_y
 _atom_site_fract_z
 _atom_site_occupancy
  Cs  Cs0  1  0.81597193  0.18402807  0.75000000  1
  Cs  Cs1  1  0.18402807  0.81597193  0.25000000  1
  Cu  Cu0  1  0.50000000  0.50000000  0.00000000  1
  Cu  Cu1  1  0.50000000  0.50000000  0.50000000  1
  O  O0  1  0.37269013  0.62730987  0.75000000  1
  O  O1  1  0.62730987  0.37269013  0.25000000  1
loop_
_geom_bond_atom_site_label_1
_geom_bond_atom_site_label_2
_geom_bond_distance
_geom_bond_site_symmetry_2
Cs0 O0 3.061646 1_545
Cs0 O0 3.061646 1_655
Cs0 O1 3.171204 1_555
Cs0 O1 3.171204 1_556
Cs1 O1 3.061646 1_455
Cs1 O1 3.061646 1_565
Cs1 O0 3.171204 1_554
Cs1 O0 3.171204 1_555
Cu0 O1 1.819463 1_555
Cu0 O0 1.819463 1_554
Cu1 O1 1.819463 1_555
Cu1 O0 1.819463 1_555
