# generated using pymatgen
data_MnP2O7
_symmetry_space_group_name_H-M   'P 1'
_cell_length_a   8.21398500
_cell_length_b   5.05021800
_cell_length_c   13.41954356
_cell_angle_alpha   75.66831798
_cell_angle_beta   90.00000000
_cell_angle_gamma   90.00000000
_symmetry_Int_Tables_number   1
_chemical_formula_structural   MnP2O7
_chemical_formula_sum   'Mn4 P8 O28'
_cell_volume   539.35079103
_cell_formula_units_Z   4
loop_
 _symmetry_equiv_pos_site_id
 _symmetry_equiv_pos_as_xyz
  1  'x, y, z'
loop_
 _atom_site_type_symbol
 _atom_site_label
 _atom_site_symmetry_multiplicity
 _atom_site_fract_x
 _atom_site_fract_y
 _atom_site_fract_z
 _atom_site_occupancy
  Mn  Mn0  1  0.84277700  0.66074200  0.12721700  1
  Mn  Mn1  1  0.34277700  0.33925800  0.37278300  1
  Mn  Mn2  1  0.65722300  0.66074200  0.62721700  1
  Mn  Mn3  1  0.15722300  0.33925800  0.87278300  1
  P  P0  1  0.69768000  0.26277900  0.47498200  1
  P  P1  1  0.45332400  0.54636700  0.19165500  1
  P  P2  1  0.95332400  0.45363300  0.30834500  1
  P  P3  1  0.19768000  0.73722100  0.02501800  1
  P  P4  1  0.80232000  0.26277900  0.97498200  1
  P  P5  1  0.04667600  0.54636700  0.69165500  1
  P  P6  1  0.54667600  0.45363300  0.80834500  1
  P  P7  1  0.30232000  0.73722100  0.52501800  1
  O  O0  1  0.56923200  0.32253500  0.71567700  1
  O  O1  1  0.86724200  0.73242200  0.26410500  1
  O  O2  1  0.32577400  0.46261400  0.49782700  1
  O  O3  1  0.12696000  0.48160900  0.34112400  1
  O  O4  1  0.06123200  0.79283600  0.09536300  1
  O  O5  1  0.23640200  0.97534200  0.93339700  1
  O  O6  1  0.86369100  0.28293100  0.40863200  1
  O  O7  1  0.36369100  0.71706900  0.09136800  1
  O  O8  1  0.56123200  0.20716400  0.40463700  1
  O  O9  1  0.62696000  0.51839100  0.15887600  1
  O  O10  1  0.73640200  0.02465800  0.56660300  1
  O  O11  1  0.36724200  0.26757800  0.23589500  1
  O  O12  1  0.82577400  0.53738600  0.00217300  1
  O  O13  1  0.06923200  0.67746500  0.78432300  1
  O  O14  1  0.93076800  0.32253500  0.21567700  1
  O  O15  1  0.17422600  0.46261400  0.99782700  1
  O  O16  1  0.63275800  0.73242200  0.76410500  1
  O  O17  1  0.26359800  0.97534200  0.43339700  1
  O  O18  1  0.37304000  0.48160900  0.84112400  1
  O  O19  1  0.43876800  0.79283600  0.59536300  1
  O  O20  1  0.63630900  0.28293100  0.90863200  1
  O  O21  1  0.13630900  0.71706900  0.59136800  1
  O  O22  1  0.76359800  0.02465800  0.06660300  1
  O  O23  1  0.93876800  0.20716400  0.90463700  1
  O  O24  1  0.87304000  0.51839100  0.65887600  1
  O  O25  1  0.67422600  0.53738600  0.50217300  1
  O  O26  1  0.13275800  0.26757800  0.73589500  1
  O  O27  1  0.43076800  0.67746500  0.28432300  1
loop_
_geom_bond_atom_site_label_1
_geom_bond_atom_site_label_2
_geom_bond_distance
_geom_bond_site_symmetry_2
Mn0 O9 1.920583 1_555
Mn0 O4 1.925201 1_655
Mn0 O22 1.929311 1_565
Mn0 O12 1.934149 1_555
Mn0 O14 1.960894 1_555
Mn0 O1 1.968531 1_555
Mn1 O3 1.920583 1_555
Mn1 O8 1.925201 1_555
Mn1 O17 1.929311 1_545
Mn1 O2 1.934149 1_555
Mn1 O27 1.960894 1_555
Mn1 O11 1.968531 1_555
Mn2 O24 1.920583 1_555
Mn2 O19 1.925201 1_555
Mn2 O10 1.929311 1_565
Mn2 O25 1.934149 1_555
Mn2 O0 1.960894 1_555
Mn2 O16 1.968531 1_555
Mn3 O18 1.920583 1_555
Mn3 O23 1.925201 1_455
Mn3 O5 1.929311 1_545
Mn3 O15 1.934149 1_555
Mn3 O13 1.960894 1_555
Mn3 O26 1.968531 1_555
O0 P6 1.557793 1_555
O1 P2 1.555927 1_555
O2 P7 1.531035 1_555
O3 P2 1.509435 1_455
O4 P3 1.535393 1_555
O5 P3 1.525460 1_556
O6 P2 1.588099 1_555
O6 P0 1.617938 1_555
O7 P1 1.588099 1_555
O7 P3 1.617938 1_555
O8 P0 1.535393 1_555
O9 P1 1.509435 1_555
O10 P0 1.525460 1_555
O11 P1 1.555927 1_555
O12 P4 1.531035 1_554
O13 P5 1.557793 1_555
O14 P2 1.557793 1_555
O15 P3 1.531035 1_556
O16 P6 1.555927 1_555
O17 P7 1.525460 1_555
O18 P6 1.509435 1_555
O19 P7 1.535393 1_555
O20 P6 1.588099 1_555
O20 P4 1.617938 1_555
O21 P5 1.588099 1_555
O21 P7 1.617938 1_555
O22 P4 1.525460 1_554
O23 P4 1.535393 1_555
O24 P5 1.509435 1_655
O25 P0 1.531035 1_555
O26 P5 1.555927 1_555
O27 P1 1.557793 1_555
