# generated using pymatgen
data_Ba2Ca3Tl2(CuO3)4
_symmetry_space_group_name_H-M   'P 1'
_cell_length_a   3.91530336
_cell_length_b   3.91530340
_cell_length_c   22.08049966
_cell_angle_alpha   95.08650509
_cell_angle_beta   95.08650574
_cell_angle_gamma   90.00000051
_symmetry_Int_Tables_number   1
_chemical_formula_structural   Ba2Ca3Tl2(CuO3)4
_chemical_formula_sum   'Ba2 Ca3 Tl2 Cu4 O12'
_cell_volume   335.81402210
_cell_formula_units_Z   1
loop_
 _symmetry_equiv_pos_site_id
 _symmetry_equiv_pos_as_xyz
  1  'x, y, z'
loop_
 _atom_site_type_symbol
 _atom_site_label
 _atom_site_symmetry_multiplicity
 _atom_site_fract_x
 _atom_site_fract_y
 _atom_site_fract_z
 _atom_site_occupancy
  Ba  Ba0  1  0.84529000  0.84529000  0.69057900  1
  Ba  Ba1  1  0.15471000  0.15471000  0.30942100  1
  Ca  Ca0  1  0.07414100  0.07414100  0.14828300  1
  Ca  Ca1  1  0.92585900  0.92585900  0.85171700  1
  Ca  Ca2  1  0.00000000  0.00000000  0.00000000  1
  Tl  Tl0  1  0.72377500  0.72377500  0.44755000  1
  Tl  Tl1  1  0.27622500  0.27622500  0.55245000  1
  Cu  Cu0  1  0.39117500  0.39117500  0.78235000  1
  Cu  Cu1  1  0.53715100  0.53715100  0.07430200  1
  Cu  Cu2  1  0.60882500  0.60882500  0.21765000  1
  Cu  Cu3  1  0.46284900  0.46284900  0.92569800  1
  O  O0  1  0.46323300  0.96323300  0.92646700  1
  O  O1  1  0.67589600  0.67589600  0.35179200  1
  O  O2  1  0.53676700  0.03676700  0.07353300  1
  O  O3  1  0.96323300  0.46323300  0.92646700  1
  O  O4  1  0.32410400  0.32410400  0.64820800  1
  O  O5  1  0.10964300  0.60964300  0.21928700  1
  O  O6  1  0.75000000  0.25000000  0.50000000  1
  O  O7  1  0.60964300  0.10964300  0.21928700  1
  O  O8  1  0.89035700  0.39035700  0.78071300  1
  O  O9  1  0.03676700  0.53676700  0.07353300  1
  O  O10  1  0.39035700  0.89035700  0.78071300  1
  O  O11  1  0.25000000  0.75000000  0.50000000  1
loop_
_geom_bond_atom_site_label_1
_geom_bond_atom_site_label_2
_geom_bond_distance
_geom_bond_site_symmetry_2
Ba0 O8 2.780475 1_555
Ba0 O10 2.780475 1_555
Ba0 O10 2.780475 1_655
Ba0 O8 2.780475 1_565
Ba0 O4 2.919986 1_665
Ba0 O4 2.919989 1_565
Ba0 O4 2.919989 1_655
Ba0 O4 2.919992 1_555
Ba1 O5 2.780475 1_555
Ba1 O7 2.780475 1_555
Ba1 O7 2.780475 1_455
Ba1 O5 2.780475 1_545
Ba1 O1 2.919986 1_445
Ba1 O1 2.919989 1_545
Ba1 O1 2.919989 1_455
Ba1 O1 2.919992 1_555
Ca0 O5 2.500353 1_545
Ca0 O7 2.500353 1_455
Ca0 O7 2.500353 1_555
Ca0 O5 2.500353 1_555
Ca0 O2 2.552208 1_455
Ca0 O9 2.552208 1_545
Ca0 O9 2.552214 1_555
Ca0 O2 2.552214 1_555
Ca1 O8 2.500353 1_565
Ca1 O10 2.500353 1_655
Ca1 O10 2.500353 1_555
Ca1 O8 2.500353 1_555
Ca1 O0 2.552208 1_655
Ca1 O3 2.552208 1_565
Ca1 O3 2.552214 1_555
Ca1 O0 2.552214 1_555
Ca2 O3 2.535187 1_454
Ca2 O9 2.535187 1_545
Ca2 O0 2.535187 1_544
Ca2 O2 2.535187 1_455
Ca2 O0 2.535190 1_444
Ca2 O2 2.535190 1_555
Ca2 O3 2.535190 1_444
Ca2 O9 2.535190 1_555
Cu0 O8 1.957978 1_455
Cu0 O10 1.957978 1_545
Cu0 O8 1.957982 1_555
Cu0 O10 1.957982 1_555
Cu1 O9 1.957722 1_555
Cu1 O2 1.957722 1_555
Cu1 O9 1.957726 1_655
Cu1 O2 1.957726 1_565
Cu2 O5 1.957978 1_655
Cu2 O7 1.957978 1_565
Cu2 O5 1.957982 1_555
Cu2 O7 1.957982 1_555
Cu3 O3 1.957722 1_555
Cu3 O0 1.957722 1_555
Cu3 O3 1.957726 1_455
Cu3 O0 1.957726 1_545
O1 Tl0 2.097698 1_555
O4 Tl1 2.097698 1_555
O6 Tl1 2.269925 1_555
O6 Tl0 2.269925 1_555
O6 Tl1 2.269925 1_655
O6 Tl0 2.269925 1_545
O11 Tl0 2.269925 1_555
O11 Tl1 2.269925 1_555
O11 Tl0 2.269925 1_455
O11 Tl1 2.269925 1_565
