# generated using pymatgen
data_In3Au7
_symmetry_space_group_name_H-M   'P 1'
_cell_length_a   12.50938012
_cell_length_b   12.50938012
_cell_length_c   8.74973300
_cell_angle_alpha   90.00000000
_cell_angle_beta   90.00000000
_cell_angle_gamma   120.00000062
_symmetry_Int_Tables_number   1
_chemical_formula_structural   In3Au7
_chemical_formula_sum   'In18 Au42'
_cell_volume   1185.76058030
_cell_formula_units_Z   6
loop_
 _symmetry_equiv_pos_site_id
 _symmetry_equiv_pos_as_xyz
  1  'x, y, z'
loop_
 _atom_site_type_symbol
 _atom_site_label
 _atom_site_symmetry_multiplicity
 _atom_site_fract_x
 _atom_site_fract_y
 _atom_site_fract_z
 _atom_site_occupancy
  In  In0  1  0.69075000  0.16581000  0.46089800  1
  In  In1  1  0.52494000  0.69075000  0.53910200  1
  In  In2  1  0.14104100  0.64310100  0.04123600  1
  In  In3  1  0.49794000  0.14104100  0.95876400  1
  In  In4  1  0.83419000  0.52494000  0.46089800  1
  In  In5  1  0.83355200  0.81294900  0.75134000  1
  In  In6  1  0.02060300  0.83355200  0.24866000  1
  In  In7  1  0.35689900  0.49794000  0.04123600  1
  In  In8  1  0.81294900  0.97939700  0.24866000  1
  In  In9  1  0.64310100  0.50206000  0.95876400  1
  In  In10  1  0.16644800  0.18705100  0.24866000  1
  In  In11  1  0.18705100  0.02060300  0.75134000  1
  In  In12  1  0.16581000  0.47506000  0.53910200  1
  In  In13  1  0.30925000  0.83419000  0.53910200  1
  In  In14  1  0.85895900  0.35689900  0.95876400  1
  In  In15  1  0.97939700  0.16644800  0.75134000  1
  In  In16  1  0.50206000  0.85895900  0.04123600  1
  In  In17  1  0.47506000  0.30925000  0.46089800  1
  Au  Au0  1  0.22300000  0.22983900  0.57397200  1
  Au  Au1  1  0.99316100  0.22300000  0.42602800  1
  Au  Au2  1  0.35528600  0.44162800  0.36578300  1
  Au  Au3  1  0.22983900  0.00683900  0.42602800  1
  Au  Au4  1  0.52948300  0.88775500  0.70450000  1
  Au  Au5  1  0.79405100  0.75713100  0.08455800  1
  Au  Au6  1  0.89316500  0.57833700  0.12575600  1
  Au  Au7  1  0.33333300  0.66666700  0.32484700  1
  Au  Au8  1  0.33333300  0.66666700  0.83388100  1
  Au  Au9  1  0.91365800  0.35528600  0.63421700  1
  Au  Au10  1  0.86264900  0.56077500  0.79108100  1
  Au  Au11  1  0.44162800  0.08634200  0.63421700  1
  Au  Au12  1  0.30187400  0.86264900  0.20891900  1
  Au  Au13  1  0.42166300  0.31482800  0.12575600  1
  Au  Au14  1  0.10683500  0.42166300  0.87424400  1
  Au  Au15  1  0.77700000  0.77016100  0.42602800  1
  Au  Au16  1  0.68517200  0.10683500  0.12575600  1
  Au  Au17  1  0.96308000  0.20594900  0.08455800  1
  Au  Au18  1  0.13735100  0.43922500  0.20891900  1
  Au  Au19  1  0.08634200  0.64471400  0.36578300  1
  Au  Au20  1  0.55837200  0.91365800  0.36578300  1
  Au  Au21  1  0.64172800  0.52948300  0.29550000  1
  Au  Au22  1  0.69812600  0.13735100  0.79108100  1
  Au  Au23  1  0.11224500  0.64172800  0.70450000  1
  Au  Au24  1  0.03692000  0.79405100  0.91544200  1
  Au  Au25  1  0.66666700  0.33333300  0.16611900  1
  Au  Au26  1  0.75713100  0.96308000  0.91544200  1
  Au  Au27  1  0.00683900  0.77700000  0.57397200  1
  Au  Au28  1  0.77016100  0.99316100  0.57397200  1
  Au  Au29  1  0.66666700  0.33333300  0.67515300  1
  Au  Au30  1  0.47051700  0.11224500  0.29550000  1
  Au  Au31  1  0.00000000  0.00000000  0.00000000  1
  Au  Au32  1  0.31482800  0.89316500  0.87424400  1
  Au  Au33  1  0.57833700  0.68517200  0.87424400  1
  Au  Au34  1  0.88775500  0.35827200  0.29550000  1
  Au  Au35  1  0.64471400  0.55837200  0.63421700  1
  Au  Au36  1  0.35827200  0.47051700  0.70450000  1
  Au  Au37  1  0.43922500  0.30187400  0.79108100  1
  Au  Au38  1  0.56077500  0.69812600  0.20891900  1
  Au  Au39  1  0.20594900  0.24286900  0.91544200  1
  Au  Au40  1  0.24286900  0.03692000  0.08455800  1
  Au  Au41  1  0.00000000  0.00000000  0.50000000  1
loop_
_geom_bond_atom_site_label_1
_geom_bond_atom_site_label_2
_geom_bond_distance
_geom_bond_site_symmetry_2
Au0 In11 2.878280 1_555
Au0 Au41 2.906322 1_555
Au0 In10 2.917234 1_555
Au0 In17 2.962353 1_555
Au0 In15 3.147537 1_455
Au1 In10 2.878280 1_655
Au1 Au41 2.906322 1_655
Au1 In15 2.917234 1_555
Au1 In12 2.962353 1_655
Au1 In8 3.147537 1_545
Au2 In17 2.856723 1_555
Au2 In7 2.923407 1_555
Au2 In12 3.013951 1_555
Au2 In10 3.041263 1_555
Au2 In1 3.146702 1_555
Au3 In6 2.878280 1_545
Au3 Au41 2.906322 1_555
Au3 In11 2.917234 1_555
Au3 In13 2.962353 1_545
Au3 In10 3.147537 1_555
Au4 In1 2.833875 1_555
Au4 In13 2.878755 1_555
Au4 In16 2.967296 1_556
Au5 In6 2.880623 1_655
Au5 In5 2.981146 1_554
Au5 In9 2.988823 1_554
Au5 In8 3.031655 1_555
Au6 In2 2.882004 1_655
Au6 In6 2.966626 1_655
Au6 In14 2.967475 1_554
Au6 In4 3.016064 1_555
Au6 In9 3.137811 1_554
Au7 In13 2.937358 1_555
Au7 In12 2.937363 1_555
Au7 In1 2.937367 1_555
Au7 In2 3.364809 1_555
Au7 In16 3.364812 1_555
Au7 In7 3.364817 1_555
Au8 In2 2.907865 1_556
Au8 In16 2.907869 1_556
Au8 In7 2.907875 1_556
Au9 In12 2.856723 1_655
Au9 In14 2.923407 1_555
Au9 In0 3.013951 1_555
Au9 In15 3.041263 1_555
Au9 In4 3.146702 1_555
Au10 In9 2.866645 1_555
Au10 In4 2.917961 1_555
Au10 In14 2.922563 1_555
Au10 In5 3.369381 1_555
Au11 In13 2.856723 1_545
Au11 In3 2.923407 1_555
Au11 In17 3.013951 1_555
Au11 In11 3.041263 1_555
Au11 In0 3.146702 1_555
Au12 In2 2.866645 1_555
Au12 In13 2.917961 1_555
Au12 In16 2.922563 1_555
Au12 In6 3.369381 1_555
Au13 In7 2.882004 1_555
Au13 In10 2.966626 1_555
Au13 In9 2.967475 1_554
Au13 In17 3.016064 1_555
Au13 In3 3.137811 1_554
Au14 In14 2.882004 1_455
Au14 In15 2.966626 1_455
Au14 In2 2.967475 1_556
Au14 In12 3.016064 1_555
Au14 In7 3.137811 1_556
Au15 In8 2.878280 1_555
Au15 Au41 2.906322 1_665
Au15 In5 2.917234 1_555
Au15 In1 2.962353 1_555
Au15 In6 3.147537 1_655
Au16 In16 2.882004 1_545
Au16 In8 2.966627 1_545
Au16 In3 2.967475 1_554
Au16 In0 3.016064 1_555
Au16 In14 3.137811 1_554
Au17 In8 2.880623 1_545
Au17 Au31 2.930502 1_655
Au17 In15 2.981146 1_554
Au17 In14 2.988823 1_554
Au17 In10 3.031655 1_655
Au18 In7 2.866645 1_555
Au18 In12 2.917961 1_555
Au18 In2 2.922563 1_555
Au18 In10 3.369381 1_555
Au19 In4 2.856723 1_455
Au19 In2 2.923407 1_555
Au19 In13 3.013951 1_555
Au19 In6 3.041263 1_555
Au19 In12 3.146702 1_555
Au20 In0 2.856723 1_565
Au20 In16 2.923407 1_555
Au20 In1 3.013951 1_555
Au20 In8 3.041263 1_555
Au20 In13 3.146702 1_555
Au21 In4 2.833875 1_555
Au21 In17 2.878755 1_555
Au21 In9 2.967296 1_554
Au22 In14 2.866645 1_555
Au22 In0 2.917961 1_555
Au22 In3 2.922563 1_555
Au22 In15 3.369381 1_555
Au23 In13 2.833875 1_555
Au23 In12 2.878755 1_555
Au23 In2 2.967296 1_556
Au24 In11 2.880623 1_565
Au24 Au31 2.930502 1_566
Au24 In6 2.981146 1_556
Au24 In2 2.988823 1_556
Au24 In5 3.031655 1_455
Au25 In14 2.907865 1_554
Au25 In3 2.907869 1_554
Au25 In9 2.907875 1_554
Au26 In5 2.880623 1_555
Au26 Au31 2.930502 1_666
Au26 In8 2.981146 1_556
Au26 In16 2.988823 1_556
Au26 In15 3.031655 1_565
Au27 In5 2.878280 1_455
Au27 Au41 2.906322 1_565
Au27 In6 2.917234 1_555
Au27 In4 2.962353 1_455
Au27 In11 3.147537 1_565
Au28 In15 2.878280 1_565
Au28 Au41 2.906322 1_665
Au28 In8 2.917234 1_555
Au28 In0 2.962353 1_565
Au28 In5 3.147537 1_555
Au29 In0 2.937358 1_555
Au29 In4 2.937363 1_555
Au29 In17 2.937367 1_555
Au29 In14 3.364809 1_555
Au29 In3 3.364812 1_555
Au29 In9 3.364817 1_555
Au30 In17 2.833875 1_555
Au30 In0 2.878755 1_555
Au30 In3 2.967296 1_554
Au31 Au39 2.930502 1_554
Au31 Au5 2.930502 1_445
Au31 Au40 2.930502 1_555
Au31 In10 3.110011 1_555
Au31 In5 3.110011 1_444
Au31 In11 3.110011 1_554
Au31 In8 3.110011 1_445
Au31 In15 3.110011 1_454
Au31 In6 3.110011 1_545
Au32 In3 2.882004 1_565
Au32 In11 2.966627 1_565
Au32 In16 2.967475 1_556
Au32 In13 3.016064 1_555
Au32 In2 3.137811 1_556
Au33 In9 2.882004 1_555
Au33 In5 2.966626 1_555
Au33 In7 2.967475 1_556
Au33 In1 3.016064 1_555
Au33 In16 3.137811 1_556
Au34 In0 2.833875 1_555
Au34 In4 2.878755 1_555
Au34 In14 2.967296 1_554
Au35 In1 2.856723 1_555
Au35 In9 2.923407 1_555
Au35 In4 3.013951 1_555
Au35 In5 3.041263 1_555
Au35 In17 3.146702 1_555
Au36 In12 2.833875 1_555
Au36 In1 2.878755 1_555
Au36 In7 2.967296 1_556
Au37 In3 2.866645 1_555
Au37 In17 2.917961 1_555
Au37 In9 2.922563 1_555
Au37 In11 3.369381 1_555
Au38 In16 2.866645 1_555
Au38 In1 2.917961 1_555
Au38 In7 2.922563 1_555
Au38 In8 3.369381 1_555
Au39 In15 2.880623 1_455
Au39 In10 2.981146 1_556
Au39 In7 2.988823 1_556
Au39 In11 3.031655 1_555
Au40 In10 2.880623 1_555
Au40 In11 2.981146 1_554
Au40 In3 2.988823 1_554
Au40 In6 3.031655 1_545
Au41 In10 3.126460 1_555
Au41 In5 3.126460 1_445
Au41 In11 3.126460 1_555
Au41 In8 3.126460 1_445
Au41 In15 3.126460 1_455
Au41 In6 3.126460 1_545
