# generated using pymatgen
data_K2MoCl5O
_symmetry_space_group_name_H-M   'P 1'
_cell_length_a   7.12981500
_cell_length_b   10.03862800
_cell_length_c   13.83303000
_cell_angle_alpha   90.00000000
_cell_angle_beta   90.00000000
_cell_angle_gamma   90.00000000
_symmetry_Int_Tables_number   1
_chemical_formula_structural   K2MoCl5O
_chemical_formula_sum   'K8 Mo4 Cl20 O4'
_cell_volume   990.07920952
_cell_formula_units_Z   4
loop_
 _symmetry_equiv_pos_site_id
 _symmetry_equiv_pos_as_xyz
  1  'x, y, z'
loop_
 _atom_site_type_symbol
 _atom_site_label
 _atom_site_symmetry_multiplicity
 _atom_site_fract_x
 _atom_site_fract_y
 _atom_site_fract_z
 _atom_site_occupancy
  K  K0  1  0.67774700  0.50216800  0.85552700  1
  K  K1  1  0.17774700  0.49783200  0.64447300  1
  K  K2  1  0.32225300  0.00216800  0.14447300  1
  K  K3  1  0.32225300  0.49783200  0.14447300  1
  K  K4  1  0.17774700  0.00216800  0.64447300  1
  K  K5  1  0.67774700  0.99783200  0.85552700  1
  K  K6  1  0.82225300  0.99783200  0.35552700  1
  K  K7  1  0.82225300  0.50216800  0.35552700  1
  Mo  Mo0  1  0.31742300  0.25000000  0.40290900  1
  Mo  Mo1  1  0.18257700  0.25000000  0.90290900  1
  Mo  Mo2  1  0.81742300  0.75000000  0.09709100  1
  Mo  Mo3  1  0.68257700  0.75000000  0.59709100  1
  Cl  Cl0  1  0.56373900  0.25000000  0.28008500  1
  Cl  Cl1  1  0.29692300  0.49104300  0.39033800  1
  Cl  Cl2  1  0.97188300  0.75000000  0.50241300  1
  Cl  Cl3  1  0.79692300  0.50895700  0.10966200  1
  Cl  Cl4  1  0.06373900  0.75000000  0.21991500  1
  Cl  Cl5  1  0.29692300  0.00895700  0.39033800  1
  Cl  Cl6  1  0.93626100  0.25000000  0.78008500  1
  Cl  Cl7  1  0.20307700  0.00895700  0.89033800  1
  Cl  Cl8  1  0.70307700  0.99104300  0.60966200  1
  Cl  Cl9  1  0.52811700  0.75000000  0.00241300  1
  Cl  Cl10  1  0.09371400  0.25000000  0.25436800  1
  Cl  Cl11  1  0.90628600  0.75000000  0.74563200  1
  Cl  Cl12  1  0.79692300  0.99104300  0.10966200  1
  Cl  Cl13  1  0.47188300  0.25000000  0.99758700  1
  Cl  Cl14  1  0.43626100  0.75000000  0.71991500  1
  Cl  Cl15  1  0.20307700  0.49104300  0.89033800  1
  Cl  Cl16  1  0.40628600  0.25000000  0.75436800  1
  Cl  Cl17  1  0.70307700  0.50895700  0.60966200  1
  Cl  Cl18  1  0.02811700  0.25000000  0.49758700  1
  Cl  Cl19  1  0.59371400  0.75000000  0.24563200  1
  O  O0  1  0.46622500  0.25000000  0.49960600  1
  O  O1  1  0.03377500  0.25000000  0.99960600  1
  O  O2  1  0.53377500  0.75000000  0.50039400  1
  O  O3  1  0.96622500  0.75000000  0.00039400  1
loop_
_geom_bond_atom_site_label_1
_geom_bond_atom_site_label_2
_geom_bond_distance
_geom_bond_site_symmetry_2
Mo0 O0 1.707273 1_555
Mo1 O1 1.707273 1_555
Mo2 O3 1.707273 1_555
Mo3 O2 1.707273 1_555
Cl0 Mo0 2.443541 1_555
Cl0 K6 3.300667 1_545
Cl0 K7 3.300667 1_555
Cl0 K2 3.559934 1_555
Cl0 K3 3.559934 1_555
Cl1 Mo0 2.430380 1_555
Cl1 K3 3.406531 1_555
Cl1 K7 3.420220 1_455
Cl1 K1 3.617330 1_555
Cl2 Mo3 2.443357 1_555
Cl2 K7 3.384712 1_555
Cl2 K6 3.384712 1_555
Cl2 K4 3.524790 1_665
Cl2 K1 3.524790 1_655
Cl3 Mo2 2.430380 1_555
Cl3 K7 3.406531 1_555
Cl3 K3 3.420220 1_555
Cl3 K0 3.617330 1_554
Cl4 Mo2 2.443541 1_455
Cl4 K2 3.300667 1_565
Cl4 K3 3.300667 1_555
Cl4 K6 3.559934 1_455
Cl4 K7 3.559934 1_455
Cl5 Mo0 2.430380 1_555
Cl5 K2 3.406531 1_555
Cl5 K6 3.420220 1_445
Cl5 K4 3.617330 1_555
Cl6 Mo1 2.443541 1_655
Cl6 K0 3.300667 1_555
Cl6 K5 3.300667 1_545
Cl6 K4 3.559934 1_655
Cl6 K1 3.559934 1_655
Cl7 Mo1 2.430380 1_555
Cl7 K4 3.406531 1_555
Cl7 K5 3.420220 1_545
Cl7 K2 3.617330 1_556
Cl8 Mo3 2.430380 1_555
Cl8 K5 3.406531 1_555
Cl8 K4 3.420220 1_665
Cl8 K6 3.617330 1_555
Cl9 Mo2 2.443357 1_555
Cl9 K5 3.384712 1_554
Cl9 K0 3.384712 1_554
Cl9 K2 3.524790 1_565
Cl9 K3 3.524790 1_555
Cl10 Mo0 2.601178 1_555
Cl10 K3 3.340006 1_555
Cl10 K2 3.340006 1_555
Cl10 K6 3.480268 1_445
Cl10 K7 3.480268 1_455
Cl11 Mo3 2.601178 1_555
Cl11 K0 3.340006 1_555
Cl11 K5 3.340006 1_555
Cl11 K4 3.480268 1_665
Cl11 K1 3.480268 1_655
Cl12 Mo2 2.430380 1_555
Cl12 K6 3.406531 1_555
Cl12 K2 3.420220 1_565
Cl12 K5 3.617330 1_554
Cl13 Mo1 2.443357 1_555
Cl13 K3 3.384712 1_556
Cl13 K2 3.384712 1_556
Cl13 K5 3.524790 1_545
Cl13 K0 3.524790 1_555
Cl14 Mo3 2.443541 1_555
Cl14 K4 3.300667 1_565
Cl14 K1 3.300667 1_555
Cl14 K5 3.559934 1_555
Cl14 K0 3.559934 1_555
Cl15 Mo1 2.430380 1_555
Cl15 K1 3.406531 1_555
Cl15 K0 3.420220 1_555
Cl15 K3 3.617330 1_556
Cl16 Mo1 2.601178 1_555
Cl16 K4 3.340006 1_555
Cl16 K1 3.340006 1_555
Cl16 K5 3.480268 1_545
Cl16 K0 3.480268 1_555
Cl17 Mo3 2.430380 1_555
Cl17 K0 3.406531 1_555
Cl17 K1 3.420220 1_655
Cl17 K7 3.617330 1_555
Cl18 Mo0 2.443357 1_555
Cl18 K4 3.384712 1_555
Cl18 K1 3.384712 1_555
Cl18 K7 3.524790 1_455
Cl18 K6 3.524790 1_445
Cl19 Mo2 2.601178 1_555
Cl19 K6 3.340006 1_555
Cl19 K7 3.340006 1_555
Cl19 K2 3.480268 1_565
Cl19 K3 3.480268 1_555
