# generated using pymatgen
data_RbPr(MoO4)2
_symmetry_space_group_name_H-M   'P 1'
_cell_length_a   6.45721000
_cell_length_b   6.45721000
_cell_length_c   9.75163100
_cell_angle_alpha   90.00000000
_cell_angle_beta   90.00000000
_cell_angle_gamma   90.00000000
_symmetry_Int_Tables_number   1
_chemical_formula_structural   RbPr(MoO4)2
_chemical_formula_sum   'Rb2 Pr2 Mo4 O16'
_cell_volume   406.59972505
_cell_formula_units_Z   2
loop_
 _symmetry_equiv_pos_site_id
 _symmetry_equiv_pos_as_xyz
  1  'x, y, z'
loop_
 _atom_site_type_symbol
 _atom_site_label
 _atom_site_symmetry_multiplicity
 _atom_site_fract_x
 _atom_site_fract_y
 _atom_site_fract_z
 _atom_site_occupancy
  Rb  Rb0  1  0.00000000  0.00000000  0.00000000  1
  Rb  Rb1  1  0.50000000  0.50000000  0.50000000  1
  Pr  Pr0  1  0.00000000  0.00000000  0.50000000  1
  Pr  Pr1  1  0.50000000  0.50000000  0.00000000  1
  Mo  Mo0  1  0.50000000  0.00000000  0.25000000  1
  Mo  Mo1  1  0.00000000  0.50000000  0.75000000  1
  Mo  Mo2  1  0.00000000  0.50000000  0.25000000  1
  Mo  Mo3  1  0.50000000  0.00000000  0.75000000  1
  O  O0  1  0.19613600  0.60866600  0.14161100  1
  O  O1  1  0.39133400  0.80386400  0.85838900  1
  O  O2  1  0.69613600  0.89133400  0.64161100  1
  O  O3  1  0.30386400  0.89133400  0.35838900  1
  O  O4  1  0.10866600  0.30386400  0.35838900  1
  O  O5  1  0.80386400  0.60866600  0.85838900  1
  O  O6  1  0.19613600  0.39133400  0.85838900  1
  O  O7  1  0.10866600  0.69613600  0.64161100  1
  O  O8  1  0.30386400  0.10866600  0.64161100  1
  O  O9  1  0.89133400  0.69613600  0.35838900  1
  O  O10  1  0.80386400  0.39133400  0.14161100  1
  O  O11  1  0.60866600  0.19613600  0.85838900  1
  O  O12  1  0.60866600  0.80386400  0.14161100  1
  O  O13  1  0.89133400  0.30386400  0.64161100  1
  O  O14  1  0.69613600  0.10866600  0.35838900  1
  O  O15  1  0.39133400  0.19613600  0.14161100  1
loop_
_geom_bond_atom_site_label_1
_geom_bond_atom_site_label_2
_geom_bond_distance
_geom_bond_site_symmetry_2
Mo0 O14 1.792635 1_555
Mo0 O3 1.792635 1_545
Mo0 O12 1.792635 1_545
Mo0 O15 1.792635 1_555
Mo1 O5 1.792635 1_455
Mo1 O6 1.792635 1_555
Mo1 O7 1.792635 1_555
Mo1 O13 1.792635 1_455
Mo2 O9 1.792635 1_455
Mo2 O0 1.792635 1_555
Mo2 O4 1.792635 1_555
Mo2 O10 1.792635 1_455
Mo3 O11 1.792635 1_555
Mo3 O2 1.792635 1_545
Mo3 O1 1.792635 1_545
Mo3 O8 1.792635 1_555
O0 Pr1 2.499847 1_555
O0 Rb0 3.145846 1_565
O1 Pr1 2.499847 1_556
O1 Rb0 3.145846 1_566
O2 Pr0 2.499847 1_665
O2 Rb1 3.145846 1_555
O3 Pr0 2.499847 1_565
O3 Rb1 3.145846 1_555
O4 Pr0 2.499847 1_555
O4 Rb1 3.145846 1_555
O5 Pr1 2.499847 1_556
O5 Rb0 3.145846 1_666
O6 Pr1 2.499847 1_556
O6 Rb0 3.145846 1_556
O7 Pr0 2.499847 1_565
O7 Rb1 3.145846 1_555
O8 Pr0 2.499847 1_555
O8 Rb1 3.145846 1_555
O9 Pr0 2.499847 1_665
O9 Rb1 3.145846 1_555
O10 Pr1 2.499847 1_555
O10 Rb0 3.145846 1_655
O11 Pr1 2.499847 1_556
O11 Rb0 3.145846 1_656
O12 Pr1 2.499847 1_555
O12 Rb0 3.145846 1_665
O13 Pr0 2.499847 1_655
O13 Rb1 3.145846 1_555
O14 Pr0 2.499847 1_655
O14 Rb1 3.145846 1_555
O15 Pr1 2.499847 1_555
O15 Rb0 3.145846 1_555
