# generated using pymatgen
data_ThRu2
_symmetry_space_group_name_H-M   'P 1'
_cell_length_a   5.40426263
_cell_length_b   5.40428403
_cell_length_c   5.40426260
_cell_angle_alpha   60.00009838
_cell_angle_beta   59.99997052
_cell_angle_gamma   60.00007613
_symmetry_Int_Tables_number   1
_chemical_formula_structural   ThRu2
_chemical_formula_sum   'Th2 Ru4'
_cell_volume   111.60831051
_cell_formula_units_Z   2
loop_
 _symmetry_equiv_pos_site_id
 _symmetry_equiv_pos_as_xyz
  1  'x, y, z'
loop_
 _atom_site_type_symbol
 _atom_site_label
 _atom_site_symmetry_multiplicity
 _atom_site_fract_x
 _atom_site_fract_y
 _atom_site_fract_z
 _atom_site_occupancy
  Th  Th0  1  0.12500000  0.12499900  0.12500100  1
  Th  Th1  1  0.87500000  0.87500100  0.87499900  1
  Ru  Ru0  1  0.50000000  0.50000000  -0.00000000  1
  Ru  Ru1  1  -0.00000000  0.50000000  0.50000000  1
  Ru  Ru2  1  0.50000000  0.00000000  0.50000000  1
  Ru  Ru3  1  0.50000000  0.50000000  0.50000000  1
loop_
_geom_bond_atom_site_label_1
_geom_bond_atom_site_label_2
_geom_bond_distance
_geom_bond_site_symmetry_2
Ru0 Ru1 2.702130 1_555
Ru0 Ru1 2.702130 1_654
Ru0 Ru3 2.702131 1_555
Ru0 Ru3 2.702131 1_554
Ru0 Ru2 2.702141 1_555
Ru0 Ru2 2.702141 1_564
Ru0 Th0 3.168536 1_655
Ru0 Th1 3.168536 1_454
Ru0 Th1 3.168538 1_554
Ru0 Th0 3.168538 1_555
Ru0 Th0 3.168540 1_565
Ru0 Th1 3.168540 1_544
Ru1 Ru3 2.702131 1_555
Ru1 Ru3 2.702131 1_455
Ru1 Ru2 2.702140 1_555
Ru1 Ru2 2.702140 1_465
Ru1 Th0 3.168535 1_555
Ru1 Th1 3.168535 1_455
Ru1 Th0 3.168538 1_556
Ru1 Th1 3.168538 1_454
Ru1 Th1 3.168539 1_445
Ru1 Th0 3.168539 1_565
Ru2 Ru3 2.702142 1_545
Ru2 Ru3 2.702142 1_555
Ru2 Th1 3.168528 1_445
Ru2 Th0 3.168528 1_655
Ru2 Th0 3.168528 1_555
Ru2 Th1 3.168528 1_545
Ru2 Th0 3.168532 1_556
Ru2 Th1 3.168532 1_544
Ru3 Th1 3.168533 1_455
Ru3 Th0 3.168533 1_655
Ru3 Th1 3.168537 1_545
Ru3 Th0 3.168537 1_565
Ru3 Th0 3.168539 1_556
Ru3 Th1 3.168539 1_554
