# generated using pymatgen
data_V4HgO10
_symmetry_space_group_name_H-M   'P 1'
_cell_length_a   11.63435511
_cell_length_b   11.63435511
_cell_length_c   9.82037924
_cell_angle_alpha   87.77013830
_cell_angle_beta   87.77013830
_cell_angle_gamma   18.20609356
_symmetry_Int_Tables_number   1
_chemical_formula_structural   V4HgO10
_chemical_formula_sum   'V8 Hg2 O20'
_cell_volume   414.98887215
_cell_formula_units_Z   2
loop_
 _symmetry_equiv_pos_site_id
 _symmetry_equiv_pos_as_xyz
  1  'x, y, z'
loop_
 _atom_site_type_symbol
 _atom_site_label
 _atom_site_symmetry_multiplicity
 _atom_site_fract_x
 _atom_site_fract_y
 _atom_site_fract_z
 _atom_site_occupancy
  V  V0  1  0.18809300  0.18809300  0.46565900  1
  V  V1  1  0.60525400  0.60525400  0.05831700  1
  V  V2  1  0.25814500  0.25814500  0.76659700  1
  V  V3  1  0.39474600  0.39474600  0.94168300  1
  V  V4  1  0.81190700  0.81190700  0.53434100  1
  V  V5  1  0.74185500  0.74185500  0.23340300  1
  V  V6  1  0.12285400  0.12285400  0.80259100  1
  V  V7  1  0.87714600  0.87714600  0.19740900  1
  Hg  Hg0  1  0.48249700  0.48249700  0.62690900  1
  Hg  Hg1  1  0.51750300  0.51750300  0.37309100  1
  O  O0  1  0.81926100  0.81926100  0.33317500  1
  O  O1  1  0.22884300  0.22884300  0.28317400  1
  O  O2  1  0.28956800  0.28956800  0.54002300  1
  O  O3  1  0.33799700  0.33799700  0.83903000  1
  O  O4  1  0.66200300  0.66200300  0.16097000  1
  O  O5  1  0.18073900  0.18073900  0.66682500  1
  O  O6  1  0.45657900  0.45657900  0.84097600  1
  O  O7  1  0.10034700  0.10034700  0.00081000  1
  O  O8  1  0.37360000  0.37360000  0.14457800  1
  O  O9  1  0.88064900  0.88064900  0.57037400  1
  O  O10  1  0.21841800  0.21841800  0.90854300  1
  O  O11  1  0.78158200  0.78158200  0.09145700  1
  O  O12  1  0.93657000  0.93657000  0.28376700  1
  O  O13  1  0.06343000  0.06343000  0.71623300  1
  O  O14  1  0.62640000  0.62640000  0.85542200  1
  O  O15  1  0.77115700  0.77115700  0.71682600  1
  O  O16  1  0.71043200  0.71043200  0.45997700  1
  O  O17  1  0.11935100  0.11935100  0.42962600  1
  O  O18  1  0.54342100  0.54342100  0.15902400  1
  O  O19  1  0.89965300  0.89965300  0.99919000  1
loop_
_geom_bond_atom_site_label_1
_geom_bond_atom_site_label_2
_geom_bond_distance
_geom_bond_site_symmetry_2
Hg0 O6 2.162237 1_555
Hg1 O18 2.162237 1_555
O0 V7 1.845706 1_555
O0 V4 1.976094 1_555
O0 V5 2.064032 1_555
O1 V5 1.924799 1_545
O1 V5 1.924799 1_455
O1 V0 1.988937 1_555
O2 V4 1.911120 1_455
O2 V4 1.911120 1_545
O2 V2 2.312022 1_555
O2 V0 2.470460 1_555
O3 V3 1.679240 1_555
O3 V2 1.993683 1_555
O4 V1 1.679240 1_555
O4 V5 1.993683 1_555
O5 V6 1.845706 1_555
O5 V0 1.976094 1_555
O5 V2 2.064032 1_555
O6 V3 1.698709 1_555
O7 V1 1.929963 1_545
O7 V1 1.929963 1_455
O7 V6 1.994310 1_554
O8 V7 1.915004 1_455
O8 V7 1.915004 1_545
O8 V3 2.032199 1_554
O9 V4 1.632097 1_555
O10 V2 1.635842 1_555
O10 V6 2.466479 1_555
O11 V5 1.635842 1_555
O11 V7 2.466479 1_555
O12 V7 1.635399 1_555
O13 V6 1.635399 1_555
O14 V6 1.915004 1_655
O14 V6 1.915004 1_565
O14 V1 2.032199 1_556
O15 V2 1.924799 1_655
O15 V2 1.924799 1_565
O15 V4 1.988937 1_555
O16 V0 1.911120 1_655
O16 V0 1.911120 1_565
O16 V5 2.312022 1_555
O16 V4 2.470460 1_555
O17 V0 1.632097 1_555
O18 V1 1.698709 1_555
O19 V3 1.929963 1_655
O19 V3 1.929963 1_565
O19 V7 1.994310 1_556
