# generated using pymatgen
data_MgAl2O4
_symmetry_space_group_name_H-M   'P 1'
_cell_length_a   2.81448400
_cell_length_b   8.75890600
_cell_length_c   10.03259800
_cell_angle_alpha   90.00000000
_cell_angle_beta   90.00000000
_cell_angle_gamma   90.00000000
_symmetry_Int_Tables_number   1
_chemical_formula_structural   MgAl2O4
_chemical_formula_sum   'Mg4 Al8 O16'
_cell_volume   247.32160735
_cell_formula_units_Z   4
loop_
 _symmetry_equiv_pos_site_id
 _symmetry_equiv_pos_as_xyz
  1  'x, y, z'
loop_
 _atom_site_type_symbol
 _atom_site_label
 _atom_site_symmetry_multiplicity
 _atom_site_fract_x
 _atom_site_fract_y
 _atom_site_fract_z
 _atom_site_occupancy
  Mg  Mg0  1  0.75000000  0.74556000  0.15181800  1
  Mg  Mg1  1  0.25000000  0.25444000  0.84818200  1
  Mg  Mg2  1  0.75000000  0.24556000  0.34818200  1
  Mg  Mg3  1  0.25000000  0.75444000  0.65181800  1
  Al  Al0  1  0.25000000  0.44130300  0.61667000  1
  Al  Al1  1  0.75000000  0.55869700  0.38333000  1
  Al  Al2  1  0.25000000  0.94130300  0.88333000  1
  Al  Al3  1  0.75000000  0.05869700  0.11667000  1
  Al  Al4  1  0.75000000  0.08672300  0.60352300  1
  Al  Al5  1  0.25000000  0.91327700  0.39647700  1
  Al  Al6  1  0.75000000  0.58672300  0.89647700  1
  Al  Al7  1  0.25000000  0.41327700  0.10352300  1
  O  O0  1  0.25000000  0.41181500  0.42966500  1
  O  O1  1  0.75000000  0.58818500  0.57033500  1
  O  O2  1  0.25000000  0.91181500  0.07033500  1
  O  O3  1  0.75000000  0.08818500  0.92966500  1
  O  O4  1  0.25000000  0.53694100  0.78360100  1
  O  O5  1  0.75000000  0.46305900  0.21639900  1
  O  O6  1  0.25000000  0.03694100  0.71639900  1
  O  O7  1  0.75000000  0.96305900  0.28360100  1
  O  O8  1  0.25000000  0.11985000  0.47069100  1
  O  O9  1  0.75000000  0.88015000  0.52930900  1
  O  O10  1  0.25000000  0.61985000  0.02930900  1
  O  O11  1  0.75000000  0.38015000  0.97069100  1
  O  O12  1  0.75000000  0.29933800  0.66836500  1
  O  O13  1  0.25000000  0.70066200  0.33163500  1
  O  O14  1  0.75000000  0.79933800  0.83163500  1
  O  O15  1  0.25000000  0.20066200  0.16836500  1
loop_
_geom_bond_atom_site_label_1
_geom_bond_atom_site_label_2
_geom_bond_distance
_geom_bond_site_symmetry_2
Mg0 O10 2.168723 1_555
Mg0 O10 2.168723 1_655
Mg0 O2 2.183842 1_655
Mg0 O2 2.183842 1_555
Mg0 O7 2.318889 1_555
Mg0 O13 2.321532 1_555
Mg0 O13 2.321532 1_655
Mg0 O5 2.557821 1_555
Mg1 O11 2.168723 1_555
Mg1 O11 2.168723 1_455
Mg1 O3 2.183842 1_555
Mg1 O3 2.183842 1_455
Mg1 O6 2.318889 1_555
Mg1 O12 2.321532 1_455
Mg1 O12 2.321532 1_555
Mg1 O4 2.557821 1_555
Mg2 O8 2.168723 1_555
Mg2 O8 2.168723 1_655
Mg2 O0 2.183842 1_555
Mg2 O0 2.183842 1_655
Mg2 O5 2.318889 1_555
Mg2 O15 2.321532 1_655
Mg2 O15 2.321532 1_555
Mg2 O7 2.557821 1_545
Mg3 O9 2.168723 1_455
Mg3 O9 2.168723 1_555
Mg3 O1 2.183842 1_555
Mg3 O1 2.183842 1_455
Mg3 O4 2.318889 1_555
Mg3 O14 2.321532 1_455
Mg3 O14 2.321532 1_555
Mg3 O6 2.557821 1_565
Al0 O4 1.872567 1_555
Al0 O0 1.893841 1_555
Al0 O12 1.948204 1_555
Al0 O12 1.948204 1_455
Al0 O1 1.962543 1_555
Al0 O1 1.962543 1_455
Al1 O5 1.872567 1_555
Al1 O1 1.893841 1_555
Al1 O13 1.948204 1_555
Al1 O13 1.948204 1_655
Al1 O0 1.962543 1_555
Al1 O0 1.962543 1_655
Al2 O6 1.872567 1_565
Al2 O2 1.893841 1_556
Al2 O14 1.948204 1_455
Al2 O14 1.948204 1_555
Al2 O3 1.962543 1_565
Al2 O3 1.962543 1_465
Al3 O7 1.872567 1_545
Al3 O3 1.893841 1_554
Al3 O15 1.948204 1_655
Al3 O15 1.948204 1_555
Al3 O2 1.962543 1_545
Al3 O2 1.962543 1_645
Al4 O6 1.858192 1_655
Al4 O6 1.858192 1_555
Al4 O9 1.956560 1_545
Al4 O8 1.959713 1_555
Al4 O8 1.959713 1_655
Al4 O12 1.972628 1_555
Al5 O7 1.858192 1_455
Al5 O7 1.858192 1_555
Al5 O8 1.956560 1_565
Al5 O9 1.959713 1_455
Al5 O9 1.959713 1_555
Al5 O13 1.972628 1_555
Al6 O4 1.858192 1_555
Al6 O4 1.858192 1_655
Al6 O11 1.956560 1_555
Al6 O10 1.959713 1_556
Al6 O10 1.959713 1_656
Al6 O14 1.972628 1_555
Al7 O5 1.858192 1_555
Al7 O5 1.858192 1_455
Al7 O10 1.956560 1_555
Al7 O11 1.959713 1_554
Al7 O11 1.959713 1_454
Al7 O15 1.972628 1_555
