# generated using pymatgen
data_Ba2CoReO6
_symmetry_space_group_name_H-M   'P 1'
_cell_length_a   8.18972481
_cell_length_b   10.03299240
_cell_length_c   8.19527166
_cell_angle_alpha   114.04858464
_cell_angle_beta   89.95111893
_cell_angle_gamma   65.93674513
_symmetry_Int_Tables_number   1
_chemical_formula_structural   Ba2CoReO6
_chemical_formula_sum   'Ba8 Co4 Re4 O24'
_cell_volume   550.11621949
_cell_formula_units_Z   4
loop_
 _symmetry_equiv_pos_site_id
 _symmetry_equiv_pos_as_xyz
  1  'x, y, z'
loop_
 _atom_site_type_symbol
 _atom_site_label
 _atom_site_symmetry_multiplicity
 _atom_site_fract_x
 _atom_site_fract_y
 _atom_site_fract_z
 _atom_site_occupancy
  Ba  Ba0  1  0.37541600  0.74960100  0.12501100  1
  Ba  Ba1  1  0.87559300  0.74962800  0.62522500  1
  Ba  Ba2  1  0.62540600  0.24973700  0.37525300  1
  Ba  Ba3  1  0.12551900  0.24971700  0.87507100  1
  Ba  Ba4  1  0.12455700  0.25041500  0.37497100  1
  Ba  Ba5  1  0.62442900  0.25039300  0.87482500  1
  Ba  Ba6  1  0.37452300  0.75026800  0.62491500  1
  Ba  Ba7  1  0.87466500  0.75027000  0.12467400  1
  Co  Co0  1  0.99987900  0.00025400  0.00008300  1
  Co  Co1  1  0.24993100  0.50017600  0.25007600  1
  Co  Co2  1  0.49983900  0.00031900  0.50011600  1
  Co  Co3  1  0.74997600  0.50010000  0.75004200  1
  Re  Re0  1  0.25012200  0.49985000  0.74986700  1
  Re  Re1  1  0.75010000  0.49991400  0.24989800  1
  Re  Re2  1  0.49995600  0.00001300  0.00008400  1
  Re  Re3  1  0.00001100  0.99989200  0.49997500  1
  O  O0  1  0.01189200  0.49972500  0.75019600  1
  O  O1  1  0.51234000  0.49965600  0.25016200  1
  O  O2  1  0.26296600  0.99959700  0.00014900  1
  O  O3  1  0.76294100  0.99952000  0.50011600  1
  O  O4  1  0.36854500  0.26226800  0.63063400  1
  O  O5  1  0.86843300  0.26249200  0.13083500  1
  O  O6  1  0.61818100  0.76269000  0.88109600  1
  O  O7  1  0.11829600  0.76245100  0.38095600  1
  O  O8  1  0.25059600  0.49948300  0.51260800  1
  O  O9  1  0.75058600  0.49960300  0.01289600  1
  O  O10  1  0.50050400  0.99967200  0.76240900  1
  O  O11  1  0.00049800  0.99967700  0.26235200  1
  O  O12  1  0.13134700  0.73752600  0.86931400  1
  O  O13  1  0.63146900  0.73737000  0.36910400  1
  O  O14  1  0.38175000  0.23745000  0.11890100  1
  O  O15  1  0.88188100  0.23726900  0.61875300  1
  O  O16  1  0.24945200  0.50056800  0.98739300  1
  O  O17  1  0.74948400  0.50044100  0.48708500  1
  O  O18  1  0.49952000  0.00030700  0.23765100  1
  O  O19  1  0.99956800  0.00026900  0.73764400  1
  O  O20  1  0.48815900  0.50020000  0.74979200  1
  O  O21  1  0.98771300  0.50024300  0.24981900  1
  O  O22  1  0.73694400  0.00051300  0.00000900  1
  O  O23  1  0.23701300  0.00046500  0.50003800  1
loop_
_geom_bond_atom_site_label_1
_geom_bond_atom_site_label_2
_geom_bond_distance
_geom_bond_site_symmetry_2
Ba0 O6 2.895856 1_554
Ba0 O16 2.895894 1_554
Ba0 O2 2.897597 1_555
Ba0 O12 2.898098 1_554
Ba0 O11 2.898252 1_555
Ba0 O7 2.898467 1_555
Ba0 O1 2.898787 1_555
Ba0 O18 2.899318 1_565
Ba0 O9 2.899678 1_555
Ba0 O20 2.899898 1_554
Ba0 O13 2.900257 1_555
Ba0 O23 2.903205 1_565
Ba1 O7 2.895936 1_655
Ba1 O0 2.897214 1_655
Ba1 O3 2.898052 1_555
Ba1 O19 2.898063 1_565
Ba1 O17 2.898213 1_555
Ba1 O12 2.898468 1_655
Ba1 O6 2.898571 1_555
Ba1 O8 2.899012 1_655
Ba1 O10 2.899108 1_555
Ba1 O13 2.900925 1_555
Ba1 O21 2.901115 1_555
Ba1 O22 2.901933 1_566
Ba2 O4 2.895459 1_555
Ba2 O8 2.896721 1_555
Ba2 O1 2.898072 1_555
Ba2 O5 2.898256 1_555
Ba2 O18 2.898821 1_555
Ba2 O20 2.898943 1_555
Ba2 O11 2.899187 1_645
Ba2 O15 2.899332 1_555
Ba2 O17 2.899389 1_555
Ba2 O14 2.899564 1_555
Ba2 O3 2.899619 1_545
Ba2 O22 2.899863 1_555
Ba3 O4 2.897121 1_555
Ba3 O0 2.897458 1_555
Ba3 O5 2.897636 1_456
Ba3 O9 2.897956 1_456
Ba3 O10 2.898590 1_545
Ba3 O23 2.898736 1_555
Ba3 O19 2.899298 1_455
Ba3 O15 2.899308 1_455
Ba3 O16 2.899706 1_555
Ba3 O14 2.899773 1_556
Ba3 O2 2.900009 1_546
Ba3 O21 2.900482 1_456
Ba4 O15 2.894918 1_455
Ba4 O8 2.896633 1_555
Ba4 O4 2.897370 1_555
Ba4 O21 2.897771 1_455
Ba4 O23 2.898376 1_555
Ba4 O18 2.898595 1_555
Ba4 O14 2.898982 1_555
Ba4 O17 2.899202 1_455
Ba4 O11 2.899347 1_545
Ba4 O0 2.899680 1_555
Ba4 O5 2.900874 1_455
Ba4 O2 2.901895 1_545
Ba5 O14 2.895407 1_556
Ba5 O20 2.896744 1_555
Ba5 O22 2.898419 1_556
Ba5 O10 2.898483 1_545
Ba5 O9 2.898665 1_556
Ba5 O16 2.898968 1_555
Ba5 O5 2.899542 1_556
Ba5 O19 2.899618 1_555
Ba5 O15 2.899624 1_555
Ba5 O4 2.899747 1_555
Ba5 O1 2.900355 1_556
Ba5 O3 2.901425 1_545
Ba6 O13 2.896421 1_555
Ba6 O17 2.897957 1_555
Ba6 O20 2.897997 1_555
Ba6 O19 2.898264 1_465
Ba6 O6 2.898622 1_555
Ba6 O12 2.898926 1_555
Ba6 O8 2.899092 1_555
Ba6 O10 2.899117 1_555
Ba6 O23 2.899522 1_565
Ba6 O2 2.900117 1_556
Ba6 O7 2.900474 1_555
Ba6 O1 2.900753 1_555
Ba7 O12 2.893131 1_654
Ba7 O16 2.896445 1_654
Ba7 O11 2.898341 1_655
Ba7 O22 2.898750 1_565
Ba7 O0 2.898813 1_654
Ba7 O7 2.898984 1_655
Ba7 O9 2.899084 1_555
Ba7 O21 2.899342 1_555
Ba7 O18 2.899402 1_565
Ba7 O6 2.899822 1_554
Ba7 O13 2.900182 1_555
Ba7 O3 2.901035 1_555
Co0 O5 2.149404 1_555
Co0 O19 2.150824 1_554
Co0 O11 2.151736 1_645
Co0 O2 2.151932 1_645
Co0 O22 2.152308 1_555
Co0 O12 2.153421 1_644
Co1 O1 2.146937 1_555
Co1 O21 2.147222 1_455
Co1 O7 2.149709 1_555
Co1 O14 2.153405 1_555
Co1 O8 2.154368 1_555
Co1 O16 2.154368 1_554
Co2 O4 2.147036 1_555
Co2 O18 2.150927 1_555
Co2 O3 2.151477 1_545
Co2 O23 2.151877 1_555
Co2 O10 2.152221 1_545
Co2 O13 2.155231 1_545
Co3 O0 2.143491 1_655
Co3 O20 2.143803 1_555
Co3 O6 2.152291 1_555
Co3 O15 2.154266 1_555
Co3 O9 2.156202 1_556
Co3 O17 2.156405 1_555
O0 Re0 1.951550 1_555
O1 Re1 1.948246 1_555
O2 Re2 1.942589 1_565
O3 Re3 1.943063 1_655
O4 Re0 1.947320 1_555
O5 Re1 1.946007 1_555
O6 Re2 1.945196 1_566
O7 Re3 1.946163 1_555
O8 Re0 1.942902 1_555
O9 Re1 1.941024 1_555
O10 Re2 1.946418 1_566
O11 Re3 1.946506 1_555
O12 Re0 1.948092 1_555
O13 Re1 1.946286 1_555
O14 Re2 1.946129 1_555
O15 Re3 1.945638 1_645
O16 Re0 1.943660 1_555
O17 Re1 1.941660 1_555
O18 Re2 1.945724 1_555
O19 Re3 1.946221 1_645
O20 Re0 1.950892 1_555
O21 Re1 1.947333 1_555
O22 Re2 1.942918 1_555
O23 Re3 1.943332 1_545
