# generated using pymatgen
data_Gd(IO3)3
_symmetry_space_group_name_H-M   'P 1'
_cell_length_a   5.92319429
_cell_length_b   8.74739418
_cell_length_c   16.56534770
_cell_angle_alpha   65.40138671
_cell_angle_beta   90.00000000
_cell_angle_gamma   90.00000000
_symmetry_Int_Tables_number   1
_chemical_formula_structural   Gd(IO3)3
_chemical_formula_sum   'Gd4 I12 O36'
_cell_volume   780.39902599
_cell_formula_units_Z   4
loop_
 _symmetry_equiv_pos_site_id
 _symmetry_equiv_pos_as_xyz
  1  'x, y, z'
loop_
 _atom_site_type_symbol
 _atom_site_label
 _atom_site_symmetry_multiplicity
 _atom_site_fract_x
 _atom_site_fract_y
 _atom_site_fract_z
 _atom_site_occupancy
  Gd  Gd0  1  0.22402323  0.35771851  0.60067712  1
  Gd  Gd1  1  0.72402323  0.64228149  0.89932288  1
  Gd  Gd2  1  0.77597677  0.64228149  0.39932288  1
  Gd  Gd3  1  0.27597677  0.35771851  0.10067712  1
  I  I0  1  0.85363063  0.14178301  0.52164445  1
  I  I1  1  0.35363063  0.85821699  0.97835555  1
  I  I2  1  0.14636937  0.85821699  0.47835555  1
  I  I3  1  0.64636937  0.14178301  0.02164445  1
  I  I4  1  0.90367401  0.08244090  0.79988776  1
  I  I5  1  0.40367401  0.91755910  0.70011224  1
  I  I6  1  0.09632599  0.91755910  0.20011224  1
  I  I7  1  0.59632599  0.08244090  0.29988776  1
  I  I8  1  0.68707658  0.57289140  0.64764629  1
  I  I9  1  0.18707658  0.42710860  0.85235371  1
  I  I10  1  0.31292342  0.42710860  0.35235371  1
  I  I11  1  0.81292342  0.57289140  0.14764629  1
  O  O0  1  0.02812195  0.10163800  0.61892955  1
  O  O1  1  0.52812195  0.89836200  0.88107045  1
  O  O2  1  0.97187805  0.89836200  0.38107045  1
  O  O3  1  0.47187805  0.10163800  0.11892955  1
  O  O4  1  0.10831906  0.63111436  0.51112832  1
  O  O5  1  0.60831906  0.36888564  0.98887168  1
  O  O6  1  0.89168094  0.36888564  0.48887168  1
  O  O7  1  0.39168094  0.63111436  0.01112832  1
  O  O8  1  0.07941542  0.14230434  0.44469194  1
  O  O9  1  0.57941542  0.85769566  0.05530806  1
  O  O10  1  0.92058458  0.85769566  0.55530806  1
  O  O11  1  0.42058458  0.14230434  0.94469194  1
  O  O12  1  0.18211404  0.15617828  0.75528101  1
  O  O13  1  0.68211404  0.84382172  0.74471899  1
  O  O14  1  0.81788596  0.84382172  0.24471899  1
  O  O15  1  0.31788596  0.15617828  0.25528101  1
  O  O16  1  0.91013570  0.16345252  0.88459570  1
  O  O17  1  0.41013570  0.83654748  0.61540430  1
  O  O18  1  0.08986430  0.83654748  0.11540430  1
  O  O19  1  0.58986430  0.16345252  0.38459570  1
  O  O20  1  -0.00461755  0.86626073  0.86596973  1
  O  O21  1  0.49538245  0.13373927  0.63403027  1
  O  O22  1  0.00461755  0.13373927  0.13403027  1
  O  O23  1  0.50461755  0.86626073  0.36596973  1
  O  O24  1  0.44311693  0.44032006  0.69737734  1
  O  O25  1  0.94311693  0.55967994  0.80262266  1
  O  O26  1  0.55688307  0.55967994  0.30262266  1
  O  O27  1  0.05688307  0.44032006  0.19737734  1
  O  O28  1  0.60335358  0.60352075  0.53663394  1
  O  O29  1  0.10335358  0.39647925  0.96336606  1
  O  O30  1  0.39664642  0.39647925  0.46336606  1
  O  O31  1  0.89664642  0.60352075  0.03663394  1
  O  O32  1  0.89226217  0.40385057  0.67040111  1
  O  O33  1  0.39226217  0.59614943  0.82959889  1
  O  O34  1  0.10773783  0.59614943  0.32959889  1
  O  O35  1  0.60773783  0.40385057  0.17040111  1
loop_
_geom_bond_atom_site_label_1
_geom_bond_atom_site_label_2
_geom_bond_distance
_geom_bond_site_symmetry_2
Gd0 O4 2.331534 1_555
Gd0 O30 2.385834 1_555
Gd0 O24 2.394946 1_555
Gd0 O32 2.397176 1_455
Gd0 O21 2.413737 1_555
Gd0 O0 2.427296 1_555
Gd0 O12 2.443325 1_555
Gd0 O6 2.676618 1_455
Gd0 O28 2.982927 1_555
Gd1 O5 2.331534 1_555
Gd1 O31 2.385834 1_556
Gd1 O25 2.394946 1_555
Gd1 O33 2.397176 1_555
Gd1 O20 2.413737 1_655
Gd1 O1 2.427296 1_555
Gd1 O13 2.443325 1_555
Gd1 O7 2.676618 1_556
Gd1 O29 2.982927 1_655
Gd2 O6 2.331534 1_555
Gd2 O28 2.385834 1_555
Gd2 O26 2.394946 1_555
Gd2 O34 2.397176 1_655
Gd2 O23 2.413737 1_555
Gd2 O2 2.427296 1_555
Gd2 O14 2.443325 1_555
Gd2 O4 2.676618 1_655
Gd2 O30 2.982927 1_555
Gd3 O7 2.331534 1_555
Gd3 O29 2.385834 1_554
Gd3 O27 2.394946 1_555
Gd3 O35 2.397176 1_555
Gd3 O22 2.413737 1_555
Gd3 O3 2.427296 1_555
Gd3 O15 2.443325 1_555
Gd3 O5 2.676618 1_554
Gd3 O31 2.982927 1_455
I0 O0 1.821407 1_655
I0 O6 1.842302 1_555
I0 O8 1.846268 1_655
I0 O10 2.343057 1_545
I1 O1 1.821407 1_555
I1 O7 1.842302 1_556
I1 O9 1.846268 1_556
I1 O11 2.343057 1_565
I2 O2 1.821407 1_455
I2 O4 1.842302 1_555
I2 O10 1.846268 1_455
I2 O8 2.343057 1_565
I3 O3 1.821407 1_555
I3 O5 1.842302 1_554
I3 O11 1.846268 1_554
I3 O9 2.343057 1_545
I4 O12 1.812540 1_655
I4 O16 1.816725 1_555
I4 O20 1.829198 1_645
I5 O13 1.812540 1_555
I5 O17 1.816725 1_555
I5 O21 1.829198 1_565
I6 O14 1.812540 1_455
I6 O18 1.816725 1_555
I6 O22 1.829198 1_565
I7 O15 1.812540 1_555
I7 O19 1.816725 1_555
I7 O23 1.829198 1_545
I8 O28 1.813640 1_555
I8 O24 1.821047 1_555
I8 O32 1.828006 1_555
I8 O10 2.699404 1_555
I9 O29 1.813640 1_555
I9 O25 1.821047 1_455
I9 O33 1.828006 1_555
I9 O11 2.699404 1_555
I10 O30 1.813640 1_555
I10 O26 1.821047 1_555
I10 O34 1.828006 1_555
I10 O8 2.699404 1_555
I11 O31 1.813640 1_555
I11 O27 1.821047 1_655
I11 O35 1.828006 1_555
I11 O9 2.699404 1_555
