# generated using pymatgen
data_CdI2
_symmetry_space_group_name_H-M   'P 1'
_cell_length_a   4.28509111
_cell_length_b   4.28509269
_cell_length_c   64.55542355
_cell_angle_alpha   90.00000000
_cell_angle_beta   90.00000000
_cell_angle_gamma   120.00000377
_symmetry_Int_Tables_number   1
_chemical_formula_structural   CdI2
_chemical_formula_sum   'Cd9 I18'
_cell_volume   1026.55832857
_cell_formula_units_Z   9
loop_
 _symmetry_equiv_pos_site_id
 _symmetry_equiv_pos_as_xyz
  1  'x, y, z'
loop_
 _atom_site_type_symbol
 _atom_site_label
 _atom_site_symmetry_multiplicity
 _atom_site_fract_x
 _atom_site_fract_y
 _atom_site_fract_z
 _atom_site_occupancy
  Cd  Cd0  1  -0.00000000  0.00000000  0.80555755  1
  Cd  Cd1  1  0.33333300  0.66666700  0.36070641  1
  Cd  Cd2  1  -0.00000000  -0.00000000  0.69444858  1
  Cd  Cd3  1  0.00000000  -0.00000000  0.91626774  1
  Cd  Cd4  1  0.66666700  0.33333300  0.58373423  1
  Cd  Cd5  1  0.66666700  0.33333300  0.02779898  1
  Cd  Cd6  1  -0.00000000  -0.00000000  0.13930238  1
  Cd  Cd7  1  0.66666700  0.33333300  0.47223432  1
  Cd  Cd8  1  0.66666700  0.33333300  0.24997617  1
  I  I0  1  -0.00000000  -0.00000000  0.22329037  1
  I  I1  1  -0.00000000  -0.00000000  0.55712515  1
  I  I2  1  -0.00000000  -0.00000000  0.44551266  1
  I  I3  1  0.33333300  0.66666700  0.27670846  1
  I  I4  1  0.33333300  0.66666700  0.05448700  1
  I  I5  1  0.33333300  0.66666700  0.61032722  1
  I  I6  1  0.66666700  0.33333300  0.88967145  1
  I  I7  1  0.66666700  0.33333300  0.77884676  1
  I  I8  1  0.33333300  0.66666700  0.94284662  1
  I  I9  1  0.66666700  0.33333300  0.11271677  1
  I  I10  1  -0.00000000  -0.00000000  0.00106898  1
  I  I11  1  0.33333300  0.66666700  0.16588291  1
  I  I12  1  0.66666700  0.33333300  0.38728309  1
  I  I13  1  -0.00000000  -0.00000000  0.33411730  1
  I  I14  1  0.33333300  0.66666700  0.83226483  1
  I  I15  1  0.66666700  0.33333300  0.66773583  1
  I  I16  1  0.33333300  0.66666700  0.49893174  1
  I  I17  1  0.33333300  0.66666700  0.72115352  1
loop_
_geom_bond_atom_site_label_1
_geom_bond_atom_site_label_2
_geom_bond_distance
_geom_bond_site_symmetry_2
Cd0 I14 3.015490 1_545
Cd0 I14 3.015492 1_445
Cd0 I14 3.015493 1_555
Cd0 I7 3.015619 1_455
Cd0 I7 3.015622 1_555
Cd0 I7 3.015623 1_445
Cd1 I12 3.010677 1_455
Cd1 I12 3.010678 1_565
Cd1 I12 3.010683 1_555
Cd1 I13 3.011135 1_565
Cd1 I13 3.011137 1_665
Cd1 I13 3.011138 1_555
Cd2 I17 3.015403 1_545
Cd2 I17 3.015406 1_445
Cd2 I17 3.015407 1_555
Cd2 I15 3.015692 1_455
Cd2 I15 3.015694 1_555
Cd2 I15 3.015695 1_445
Cd3 I8 3.010758 1_545
Cd3 I8 3.010761 1_445
Cd3 I8 3.010762 1_555
Cd3 I6 3.011399 1_455
Cd3 I6 3.011402 1_555
Cd3 I6 3.011402 1_445
Cd4 I5 3.011277 1_655
Cd4 I5 3.011278 1_545
Cd4 I5 3.011284 1_555
Cd4 I1 3.011870 1_655
Cd4 I1 3.011872 1_555
Cd4 I1 3.011873 1_665
Cd5 I4 3.014779 1_655
Cd5 I4 3.014779 1_545
Cd5 I4 3.014785 1_555
Cd5 I10 3.016329 1_655
Cd5 I10 3.016331 1_555
Cd5 I10 3.016332 1_665
Cd6 I11 3.010819 1_545
Cd6 I11 3.010822 1_445
Cd6 I11 3.010822 1_555
Cd6 I9 3.011006 1_455
Cd6 I9 3.011009 1_555
Cd6 I9 3.011009 1_445
Cd7 I16 3.015125 1_655
Cd7 I16 3.015126 1_545
Cd7 I16 3.015132 1_555
Cd7 I2 3.016021 1_655
Cd7 I2 3.016023 1_555
Cd7 I2 3.016024 1_665
Cd8 I0 3.014697 1_655
Cd8 I0 3.014700 1_555
Cd8 I0 3.014701 1_665
Cd8 I3 3.016413 1_655
Cd8 I3 3.016413 1_545
Cd8 I3 3.016419 1_555
