# generated using pymatgen
data_Gd2(Al3Ir)3
_symmetry_space_group_name_H-M   'P 1'
_cell_length_a   7.52057759
_cell_length_b   7.52057759
_cell_length_c   9.46548394
_cell_angle_alpha   90.00000000
_cell_angle_beta   90.00000000
_cell_angle_gamma   119.42692440
_symmetry_Int_Tables_number   1
_chemical_formula_structural   Gd2(Al3Ir)3
_chemical_formula_sum   'Gd4 Al18 Ir6'
_cell_volume   466.28871955
_cell_formula_units_Z   2
loop_
 _symmetry_equiv_pos_site_id
 _symmetry_equiv_pos_as_xyz
  1  'x, y, z'
loop_
 _atom_site_type_symbol
 _atom_site_label
 _atom_site_symmetry_multiplicity
 _atom_site_fract_x
 _atom_site_fract_y
 _atom_site_fract_z
 _atom_site_occupancy
  Gd  Gd0  1  0.00527112  0.32869580  0.75000000  1
  Gd  Gd1  1  0.32869580  0.00527112  0.75000000  1
  Gd  Gd2  1  0.67130420  0.99472888  0.25000000  1
  Gd  Gd3  1  0.99472888  0.67130420  0.25000000  1
  Al  Al0  1  0.99811941  0.66464705  0.57374085  1
  Al  Al1  1  0.00188059  0.33535295  0.07374085  1
  Al  Al2  1  0.33535295  0.00188059  0.42625915  1
  Al  Al3  1  0.66054125  0.45265245  0.75000000  1
  Al  Al4  1  0.66464705  0.99811941  0.57374085  1
  Al  Al5  1  0.66612121  0.66612121  0.04821529  1
  Al  Al6  1  0.33387879  0.33387879  0.95178471  1
  Al  Al7  1  0.66612121  0.66612121  0.45178471  1
  Al  Al8  1  0.13016988  0.13016988  0.25000000  1
  Al  Al9  1  0.33387879  0.33387879  0.54821529  1
  Al  Al10  1  0.45265245  0.66054125  0.75000000  1
  Al  Al11  1  0.54734755  0.33945875  0.25000000  1
  Al  Al12  1  0.66464705  0.99811941  0.92625915  1
  Al  Al13  1  0.33535295  0.00188059  0.07374085  1
  Al  Al14  1  0.00188059  0.33535295  0.42625915  1
  Al  Al15  1  0.86983012  0.86983012  0.75000000  1
  Al  Al16  1  0.33945875  0.54734755  0.25000000  1
  Al  Al17  1  0.99811941  0.66464705  0.92625915  1
  Ir  Ir0  1  0.67167491  0.32832509  0.00000000  1
  Ir  Ir1  1  0.32832509  0.67167491  0.50000000  1
  Ir  Ir2  1  0.00000000  0.00000000  0.00000000  1
  Ir  Ir3  1  0.32832509  0.67167491  0.00000000  1
  Ir  Ir4  1  0.00000000  0.00000000  0.50000000  1
  Ir  Ir5  1  0.67167491  0.32832509  0.50000000  1
loop_
_geom_bond_atom_site_label_1
_geom_bond_atom_site_label_2
_geom_bond_distance
_geom_bond_site_symmetry_2
Gd0 Ir2 3.408180 1_556
Gd0 Ir4 3.408180 1_555
Gd0 Ir0 3.447768 1_456
Gd0 Ir5 3.447768 1_455
Gd0 Ir1 3.463789 1_555
Gd0 Ir3 3.463789 1_556
Gd1 Ir2 3.408180 1_556
Gd1 Ir4 3.408180 1_555
Gd1 Ir3 3.447768 1_546
Gd1 Ir1 3.447768 1_545
Gd1 Ir0 3.463789 1_556
Gd1 Ir5 3.463789 1_555
Gd2 Ir4 3.408180 1_665
Gd2 Ir2 3.408180 1_665
Gd2 Ir0 3.447768 1_565
Gd2 Ir5 3.447768 1_565
Gd2 Ir1 3.463789 1_555
Gd2 Ir3 3.463789 1_555
Gd3 Ir4 3.408180 1_665
Gd3 Ir2 3.408180 1_665
Gd3 Ir3 3.447768 1_655
Gd3 Ir1 3.447768 1_655
Gd3 Ir0 3.463789 1_555
Gd3 Ir5 3.463789 1_555
Al0 Ir1 2.554991 1_655
Al0 Ir5 2.609645 1_555
Al0 Ir4 2.610186 1_665
Al0 Gd1 3.044425 1_665
Al0 Gd0 3.050139 1_655
Al0 Gd3 3.065083 1_555
Al1 Ir0 2.554991 1_455
Al1 Ir3 2.609645 1_555
Al1 Ir2 2.610186 1_555
Al1 Gd2 3.044425 1_445
Al1 Gd3 3.050139 1_455
Al1 Gd0 3.065083 1_554
Al2 Ir1 2.554991 1_545
Al2 Ir5 2.609645 1_555
Al2 Ir4 2.610186 1_555
Al2 Gd3 3.044425 1_445
Al2 Gd2 3.050139 1_545
Al2 Gd1 3.065083 1_555
Al3 Ir5 2.560840 1_555
Al3 Ir0 2.560840 1_556
Al3 Gd1 3.049215 1_555
Al3 Gd0 3.156790 1_655
Al4 Ir5 2.554991 1_565
Al4 Ir1 2.609645 1_555
Al4 Ir4 2.610186 1_665
Al4 Gd0 3.044425 1_665
Al4 Gd1 3.050139 1_565
Al4 Gd2 3.065083 1_555
Al5 Ir2 2.573471 1_665
Al5 Ir0 2.601545 1_555
Al5 Ir3 2.601545 1_555
Al5 Gd3 3.108431 1_555
Al5 Gd2 3.108431 1_555
Al6 Ir2 2.573471 1_556
Al6 Ir3 2.601545 1_556
Al6 Ir0 2.601545 1_556
Al6 Gd0 3.108431 1_555
Al6 Gd1 3.108431 1_555
Al7 Ir4 2.573471 1_665
Al7 Ir1 2.601545 1_555
Al7 Ir5 2.601545 1_555
Al7 Gd3 3.108431 1_555
Al7 Gd2 3.108431 1_555
Al8 Ir4 2.564120 1_555
Al8 Ir2 2.564120 1_555
Al8 Gd3 3.080983 1_445
Al8 Gd2 3.080983 1_445
Al9 Ir4 2.573471 1_555
Al9 Ir5 2.601545 1_555
Al9 Ir1 2.601545 1_555
Al9 Gd0 3.108431 1_555
Al9 Gd1 3.108431 1_555
Al10 Ir1 2.560840 1_555
Al10 Ir3 2.560840 1_556
Al10 Gd0 3.049215 1_555
Al10 Gd1 3.156790 1_565
Al11 Ir5 2.560840 1_555
Al11 Ir0 2.560840 1_555
Al11 Gd3 3.049215 1_555
Al11 Gd2 3.156790 1_545
Al12 Ir0 2.554991 1_566
Al12 Ir3 2.609645 1_556
Al12 Ir2 2.610186 1_666
Al12 Gd0 3.044425 1_665
Al12 Gd1 3.050139 1_565
Al12 Gd2 3.065083 1_556
Al13 Ir3 2.554991 1_545
Al13 Ir0 2.609645 1_555
Al13 Ir2 2.610186 1_555
Al13 Gd3 3.044425 1_445
Al13 Gd2 3.050139 1_545
Al13 Gd1 3.065083 1_554
Al14 Ir5 2.554991 1_455
Al14 Ir1 2.609645 1_555
Al14 Ir4 2.610186 1_555
Al14 Gd2 3.044425 1_445
Al14 Gd3 3.050139 1_455
Al14 Gd0 3.065083 1_555
Al15 Ir2 2.564120 1_666
Al15 Ir4 2.564120 1_665
Al15 Gd1 3.080983 1_665
Al15 Gd0 3.080983 1_665
Al16 Ir1 2.560840 1_555
Al16 Ir3 2.560840 1_555
Al16 Gd2 3.049215 1_555
Al16 Gd3 3.156790 1_455
Al17 Ir3 2.554991 1_656
Al17 Ir0 2.609645 1_556
Al17 Ir2 2.610186 1_666
Al17 Gd1 3.044425 1_665
Al17 Gd0 3.050139 1_655
Al17 Gd3 3.065083 1_556
