# generated using pymatgen
data_Re(CO)5
_symmetry_space_group_name_H-M   'P 1'
_cell_length_a   9.89595995
_cell_length_b   9.89595995
_cell_length_c   15.21149293
_cell_angle_alpha   56.23734418
_cell_angle_beta   56.23734418
_cell_angle_gamma   43.74540215
_symmetry_Int_Tables_number   1
_chemical_formula_structural   Re(CO)5
_chemical_formula_sum   'Re4 C20 O20'
_cell_volume   824.90388316
_cell_formula_units_Z   4
loop_
 _symmetry_equiv_pos_site_id
 _symmetry_equiv_pos_as_xyz
  1  'x, y, z'
loop_
 _atom_site_type_symbol
 _atom_site_label
 _atom_site_symmetry_multiplicity
 _atom_site_fract_x
 _atom_site_fract_y
 _atom_site_fract_z
 _atom_site_occupancy
  Re  Re0  1  0.69647900  0.16268700  0.22347500  1
  Re  Re1  1  0.83731300  0.30352100  0.27652500  1
  Re  Re2  1  0.30352100  0.83731300  0.77652500  1
  Re  Re3  1  0.16268700  0.69647900  0.72347500  1
  C  C0  1  0.59521000  0.07883200  0.20006500  1
  C  C1  1  0.92116800  0.40479000  0.29993500  1
  C  C2  1  0.40479000  0.92116800  0.79993500  1
  C  C3  1  0.07883200  0.59521000  0.70006500  1
  C  C4  1  0.68535700  0.37007100  0.07862500  1
  C  C5  1  0.62992900  0.31464300  0.42137500  1
  C  C6  1  0.31464300  0.62992900  0.92137500  1
  C  C7  1  0.37007100  0.68535700  0.57862500  1
  C  C8  1  0.73166800  0.96411100  0.37105200  1
  C  C9  1  0.03588900  0.26833200  0.12894800  1
  C  C10  1  0.26833200  0.03588900  0.62894800  1
  C  C11  1  0.96411100  0.73166800  0.87105200  1
  C  C12  1  0.98437100  0.96440700  0.15281400  1
  C  C13  1  0.03559300  0.01562900  0.34718600  1
  C  C14  1  0.01562900  0.03559300  0.84718600  1
  C  C15  1  0.96440700  0.98437100  0.65281400  1
  C  C16  1  0.41668100  0.37707800  0.29228500  1
  C  C17  1  0.62292200  0.58331900  0.20771500  1
  C  C18  1  0.58331900  0.62292200  0.70771500  1
  C  C19  1  0.37707800  0.41668100  0.79228500  1
  O  O0  1  0.53267700  0.02780700  0.18782100  1
  O  O1  1  0.97219300  0.46732300  0.31217900  1
  O  O2  1  0.46732300  0.97219300  0.81217900  1
  O  O3  1  0.02780700  0.53267700  0.68782100  1
  O  O4  1  0.68451700  0.48746600  0.99382400  1
  O  O5  1  0.51253400  0.31548300  0.50617600  1
  O  O6  1  0.31548300  0.51253400  0.00617600  1
  O  O7  1  0.48746600  0.68451700  0.49382400  1
  O  O8  1  0.75287500  0.84896000  0.45654100  1
  O  O9  1  0.15104000  0.24712500  0.04345900  1
  O  O10  1  0.24712500  0.15104000  0.54345900  1
  O  O11  1  0.84896000  0.75287500  0.95654100  1
  O  O12  1  0.14957200  0.85273600  0.10804200  1
  O  O13  1  0.14726400  0.85042800  0.39195800  1
  O  O14  1  0.85042800  0.14726400  0.89195800  1
  O  O15  1  0.85273600  0.14957200  0.60804200  1
  O  O16  1  0.25502500  0.50331100  0.33019800  1
  O  O17  1  0.49668900  0.74497500  0.16980200  1
  O  O18  1  0.74497500  0.49668900  0.66980200  1
  O  O19  1  0.50331100  0.25502500  0.83019800  1
loop_
_geom_bond_atom_site_label_1
_geom_bond_atom_site_label_2
_geom_bond_distance
_geom_bond_site_symmetry_2
C0 O0 1.164777 1_555
C0 Re0 1.935560 1_555
C1 O1 1.164777 1_555
C1 Re1 1.935560 1_555
C2 O2 1.164777 1_555
C2 Re2 1.935560 1_555
C3 O3 1.164777 1_555
C3 Re3 1.935560 1_555
C4 O4 1.160151 1_554
C4 Re0 1.998961 1_555
C5 O5 1.160151 1_555
C5 Re1 1.998961 1_555
C6 O6 1.160151 1_556
C6 Re2 1.998961 1_555
C7 O7 1.160151 1_555
C7 Re3 1.998961 1_555
C8 O8 1.159467 1_555
C8 Re0 1.999801 1_565
C9 O9 1.159467 1_555
C9 Re1 1.999801 1_455
C10 O10 1.159467 1_555
C10 Re2 1.999801 1_545
C11 O11 1.159467 1_555
C11 Re3 1.999801 1_655
C12 O12 1.160349 1_655
C12 Re0 1.996422 1_565
C13 O13 1.160349 1_545
C13 Re1 1.996422 1_455
C14 O14 1.160349 1_455
C14 Re2 1.996422 1_545
C15 O15 1.160349 1_565
C15 Re3 1.996422 1_655
C16 O16 1.157671 1_555
C16 Re0 2.005683 1_555
C17 O17 1.157671 1_555
C17 Re1 2.005683 1_555
C18 O18 1.157671 1_555
C18 Re2 2.005683 1_555
C19 O19 1.157671 1_555
C19 Re3 2.005683 1_555
