# generated using pymatgen
data_Cs6Fe2O5
_symmetry_space_group_name_H-M   'P 1'
_cell_length_a   7.32085014
_cell_length_b   14.94094966
_cell_length_c   7.32083986
_cell_angle_alpha   92.66211012
_cell_angle_beta   117.82882151
_cell_angle_gamma   92.66228418
_symmetry_Int_Tables_number   1
_chemical_formula_structural   Cs6Fe2O5
_chemical_formula_sum   'Cs12 Fe4 O10'
_cell_volume   705.27507067
_cell_formula_units_Z   2
loop_
 _symmetry_equiv_pos_site_id
 _symmetry_equiv_pos_as_xyz
  1  'x, y, z'
loop_
 _atom_site_type_symbol
 _atom_site_label
 _atom_site_symmetry_multiplicity
 _atom_site_fract_x
 _atom_site_fract_y
 _atom_site_fract_z
 _atom_site_occupancy
  Cs  Cs0  1  0.64405900  0.40581200  0.64406100  1
  Cs  Cs1  1  0.64406600  0.90581800  0.64406700  1
  Cs  Cs2  1  0.35593700  0.09418100  0.35593700  1
  Cs  Cs3  1  0.35594100  0.59418700  0.35594100  1
  Cs  Cs4  1  0.24169900  0.25000000  0.75830500  1
  Cs  Cs5  1  0.24169800  0.74999700  0.75830200  1
  Cs  Cs6  1  0.75830600  0.25000000  0.24170500  1
  Cs  Cs7  1  0.75830500  0.74999800  0.24170000  1
  Cs  Cs8  1  0.78676600  0.49999900  0.21323100  1
  Cs  Cs9  1  0.78678800  0.00000000  0.21321500  1
  Cs  Cs10  1  0.21321600  0.00000000  0.78678900  1
  Cs  Cs11  1  0.21323400  0.50000100  0.78676700  1
  Fe  Fe0  1  0.80355300  0.65735900  0.80353500  1
  Fe  Fe1  1  0.19644600  0.34264700  0.19644800  1
  Fe  Fe2  1  0.80352000  0.15734900  0.80352100  1
  Fe  Fe3  1  0.19647100  0.84267000  0.19648300  1
  O  O0  1  0.99998000  0.24999500  0.99998100  1
  O  O1  1  0.00001000  0.75000400  0.00001500  1
  O  O2  1  0.16783600  0.38753800  0.42932000  1
  O  O3  1  0.16783500  0.88754600  0.42934100  1
  O  O4  1  0.57066400  0.11244700  0.83216500  1
  O  O5  1  0.57066500  0.61245600  0.83217000  1
  O  O6  1  0.83216500  0.11245100  0.57066400  1
  O  O7  1  0.83216800  0.61245700  0.57067300  1
  O  O8  1  0.42933200  0.38754200  0.16783000  1
  O  O9  1  0.42934000  0.88754600  0.16783200  1
loop_
_geom_bond_atom_site_label_1
_geom_bond_atom_site_label_2
_geom_bond_distance
_geom_bond_site_symmetry_2
Cs0 O2 3.074917 1_555
Cs0 O8 3.074967 1_555
Cs0 O7 3.488192 1_555
Cs0 O5 3.488200 1_555
Cs0 O0 3.713029 1_555
Cs1 O3 3.074972 1_555
Cs1 O9 3.074994 1_555
Cs1 O4 3.487993 1_565
Cs1 O6 3.488046 1_565
Cs1 O1 3.713149 1_656
Cs2 O4 3.074947 1_555
Cs2 O6 3.074952 1_555
Cs2 O3 3.488084 1_545
Cs2 O9 3.488095 1_545
Cs2 O0 3.713211 1_454
Cs3 O7 3.074944 1_555
Cs3 O5 3.074954 1_555
Cs3 O2 3.488207 1_555
Cs3 O8 3.488211 1_555
Cs3 O1 3.713076 1_555
Cs4 O0 3.030669 1_455
Cs4 O2 3.108512 1_555
Cs4 O4 3.108574 1_555
Cs4 O8 3.227806 1_556
Cs4 O6 3.227910 1_455
Cs5 O1 3.030707 1_556
Cs5 O5 3.108449 1_555
Cs5 O3 3.108501 1_555
Cs5 O7 3.227816 1_455
Cs5 O9 3.227890 1_556
Cs6 O0 3.030688 1_554
Cs6 O8 3.108488 1_555
Cs6 O6 3.108495 1_555
Cs6 O2 3.227803 1_655
Cs6 O4 3.227975 1_554
Cs7 O1 3.030638 1_655
Cs7 O7 3.108480 1_555
Cs7 O9 3.108512 1_555
Cs7 O5 3.227830 1_554
Cs7 O3 3.227881 1_655
Cs8 O8 2.916928 1_555
Cs8 O7 2.916983 1_555
Cs8 O5 3.109670 1_554
Cs8 O2 3.109745 1_655
Cs9 O6 2.917030 1_555
Cs9 O9 2.917032 1_545
Cs9 O4 3.109544 1_554
Cs9 O3 3.109598 1_645
Cs10 O4 2.916994 1_555
Cs10 O3 2.917038 1_545
Cs10 O9 3.109572 1_546
Cs10 O6 3.109590 1_455
Cs11 O5 2.916890 1_555
Cs11 O2 2.917062 1_555
Cs11 O7 3.109684 1_455
Cs11 O8 3.109695 1_556
Fe0 O7 1.907975 1_555
Fe0 O5 1.908236 1_555
Fe0 O1 1.937038 1_656
Fe1 O2 1.907971 1_555
Fe1 O8 1.908117 1_555
Fe1 O0 1.937095 1_454
Fe2 O6 1.908041 1_555
Fe2 O4 1.908049 1_555
Fe2 O0 1.937002 1_555
Fe3 O3 1.907909 1_555
Fe3 O9 1.908043 1_555
Fe3 O1 1.937219 1_555
