# generated using pymatgen
data_Cs2U(Cl2O)2
_symmetry_space_group_name_H-M   'P 1'
_cell_length_a   7.27876119
_cell_length_b   7.27876119
_cell_length_c   5.95762553
_cell_angle_alpha   81.55540415
_cell_angle_beta   81.55540415
_cell_angle_gamma   65.22418538
_symmetry_Int_Tables_number   1
_chemical_formula_structural   Cs2U(Cl2O)2
_chemical_formula_sum   'Cs2 U1 Cl4 O2'
_cell_volume   282.19530847
_cell_formula_units_Z   1
loop_
 _symmetry_equiv_pos_site_id
 _symmetry_equiv_pos_as_xyz
  1  'x, y, z'
loop_
 _atom_site_type_symbol
 _atom_site_label
 _atom_site_symmetry_multiplicity
 _atom_site_fract_x
 _atom_site_fract_y
 _atom_site_fract_z
 _atom_site_occupancy
  Cs  Cs0  1  0.66619600  0.66619600  0.67795600  1
  Cs  Cs1  1  0.33380400  0.33380400  0.32204400  1
  U  U0  1  0.00000000  0.00000000  0.00000000  1
  Cl  Cl0  1  0.14833700  0.65302900  0.79885600  1
  Cl  Cl1  1  0.34697100  0.85166300  0.20114400  1
  Cl  Cl2  1  0.85166300  0.34697100  0.20114400  1
  Cl  Cl3  1  0.65302900  0.14833700  0.79885600  1
  O  O0  1  0.11634000  0.11634000  0.76609500  1
  O  O1  1  0.88366000  0.88366000  0.23390500  1
loop_
_geom_bond_atom_site_label_1
_geom_bond_atom_site_label_2
_geom_bond_distance
_geom_bond_site_symmetry_2
Cs0 O1 3.413170 1_555
Cs1 O0 3.413170 1_555
Cl0 U0 2.683924 1_566
Cl0 Cs0 3.644727 1_455
Cl0 Cs1 3.662851 1_556
Cl0 Cs1 3.670698 1_555
Cl0 Cs0 3.771107 1_555
Cl1 U0 2.683924 1_565
Cl1 Cs1 3.644727 1_565
Cl1 Cs0 3.662851 1_554
Cl1 Cs0 3.670698 1_555
Cl1 Cs1 3.771107 1_555
Cl2 U0 2.683924 1_655
Cl2 Cs1 3.644727 1_655
Cl2 Cs0 3.662851 1_554
Cl2 Cs0 3.670698 1_555
Cl2 Cs1 3.771107 1_555
Cl3 U0 2.683924 1_656
Cl3 Cs0 3.644727 1_545
Cl3 Cs1 3.662851 1_556
Cl3 Cs1 3.670698 1_555
Cl3 Cs0 3.771107 1_555
O0 U0 1.812158 1_556
O1 U0 1.812158 1_665
