# generated using pymatgen
data_Pr3Si2S8Br
_symmetry_space_group_name_H-M   'P 1'
_cell_length_a   8.85155028
_cell_length_b   8.85155028
_cell_length_c   11.00527378
_cell_angle_alpha   83.18494078
_cell_angle_beta   83.18494078
_cell_angle_gamma   52.34195839
_symmetry_Int_Tables_number   1
_chemical_formula_structural   Pr3Si2S8Br
_chemical_formula_sum   'Pr6 Si4 S16 Br2'
_cell_volume   676.63520095
_cell_formula_units_Z   2
loop_
 _symmetry_equiv_pos_site_id
 _symmetry_equiv_pos_as_xyz
  1  'x, y, z'
loop_
 _atom_site_type_symbol
 _atom_site_label
 _atom_site_symmetry_multiplicity
 _atom_site_fract_x
 _atom_site_fract_y
 _atom_site_fract_z
 _atom_site_occupancy
  Pr  Pr0  1  0.31811900  0.07423900  0.31607900  1
  Pr  Pr1  1  0.92576100  0.68188100  0.18392100  1
  Pr  Pr2  1  0.61022600  0.38977400  0.25000000  1
  Pr  Pr3  1  0.07423900  0.31811900  0.81607900  1
  Pr  Pr4  1  0.68188100  0.92576100  0.68392100  1
  Pr  Pr5  1  0.38977400  0.61022600  0.75000000  1
  Si  Si0  1  0.30587400  0.37448600  0.52969800  1
  Si  Si1  1  0.69412600  0.62551400  0.47030200  1
  Si  Si2  1  0.37448600  0.30587400  0.02969800  1
  Si  Si3  1  0.62551400  0.69412600  0.97030200  1
  S  S0  1  0.72228800  0.41106000  0.95270100  1
  S  S1  1  0.71158200  0.85447800  0.41470700  1
  S  S2  1  0.10668800  0.60199500  0.64480800  1
  S  S3  1  0.55445500  0.74240100  0.16031400  1
  S  S4  1  0.89331200  0.39800500  0.35519200  1
  S  S5  1  0.58894000  0.27771200  0.54729900  1
  S  S6  1  0.44554500  0.25759900  0.83968600  1
  S  S7  1  0.41106000  0.72228800  0.45270100  1
  S  S8  1  0.39800500  0.89331200  0.85519200  1
  S  S9  1  0.27771200  0.58894000  0.04729900  1
  S  S10  1  0.25759900  0.44554500  0.33968600  1
  S  S11  1  0.14552200  0.28841800  0.08529300  1
  S  S12  1  0.60199500  0.10668800  0.14480800  1
  S  S13  1  0.74240100  0.55445500  0.66031400  1
  S  S14  1  0.28841800  0.14552200  0.58529300  1
  S  S15  1  0.85447800  0.71158200  0.91470700  1
  Br  Br0  1  0.00457700  0.99542300  0.25000000  1
  Br  Br1  1  0.99542300  0.00457700  0.75000000  1
loop_
_geom_bond_atom_site_label_1
_geom_bond_atom_site_label_2
_geom_bond_distance
_geom_bond_site_symmetry_2
Pr0 S11 2.935671 1_555
Pr0 S7 2.948386 1_545
Pr0 S3 2.962817 1_545
Pr0 S10 3.028983 1_555
Pr0 S1 3.034749 1_545
Pr0 S4 3.046105 1_455
Pr0 S14 3.049816 1_555
Pr0 S12 3.094914 1_555
Pr1 S1 2.935671 1_555
Pr1 S9 2.948386 1_655
Pr1 S10 2.962817 1_655
Pr1 S3 3.028983 1_555
Pr1 S11 3.034749 1_655
Pr1 S12 3.046105 1_565
Pr1 S15 3.049816 1_554
Pr1 S4 3.094914 1_555
Pr2 S3 2.908970 1_555
Pr2 S10 2.908970 1_555
Pr2 S12 2.925034 1_555
Pr2 S4 2.925034 1_555
Pr2 S7 3.321428 1_555
Pr2 S9 3.321428 1_555
Pr2 S5 3.322089 1_555
Pr2 S0 3.322089 1_554
Pr3 S14 2.935671 1_555
Pr3 S0 2.948386 1_455
Pr3 S13 2.962817 1_455
Pr3 S6 3.028983 1_555
Pr3 S15 3.034749 1_455
Pr3 S8 3.046105 1_545
Pr3 S11 3.049816 1_556
Pr3 S2 3.094914 1_555
Pr4 S15 2.935671 1_555
Pr4 S5 2.948386 1_565
Pr4 S6 2.962817 1_565
Pr4 S13 3.028983 1_555
Pr4 S14 3.034749 1_565
Pr4 S2 3.046105 1_655
Pr4 S1 3.049816 1_555
Pr4 S8 3.094914 1_555
Pr5 S13 2.908970 1_555
Pr5 S6 2.908970 1_555
Pr5 S8 2.925034 1_555
Pr5 S2 2.925034 1_555
Pr5 S0 3.321428 1_555
Pr5 S5 3.321428 1_555
Pr5 S9 3.322089 1_556
Pr5 S7 3.322089 1_555
S0 Si3 2.121901 1_555
S1 Si1 2.138127 1_555
S2 Si0 2.122677 1_555
S3 Si3 2.126630 1_554
S4 Si1 2.122677 1_555
S5 Si0 2.121901 1_555
S6 Si2 2.126630 1_556
S7 Si1 2.121901 1_555
S8 Si3 2.122677 1_555
S9 Si2 2.121901 1_555
S10 Si0 2.126630 1_555
S11 Si2 2.138127 1_555
S12 Si2 2.122677 1_555
S13 Si1 2.126630 1_555
S14 Si0 2.138127 1_555
S15 Si3 2.138127 1_555
Br0 Pr2 3.079083 1_465
Br0 Pr1 3.418077 1_455
Br0 Pr0 3.418077 1_565
Br1 Pr5 3.079083 1_645
Br1 Pr4 3.418077 1_545
Br1 Pr3 3.418077 1_655
