# generated using pymatgen
data_BaCr4S7
_symmetry_space_group_name_H-M   'P 1'
_cell_length_a   22.94238600
_cell_length_b   6.01299300
_cell_length_c   6.82437934
_cell_angle_alpha   89.96413336
_cell_angle_beta   90.00000000
_cell_angle_gamma   90.00000000
_symmetry_Int_Tables_number   1
_chemical_formula_structural   BaCr4S7
_chemical_formula_sum   'Ba4 Cr16 S28'
_cell_volume   941.43936743
_cell_formula_units_Z   4
loop_
 _symmetry_equiv_pos_site_id
 _symmetry_equiv_pos_as_xyz
  1  'x, y, z'
loop_
 _atom_site_type_symbol
 _atom_site_label
 _atom_site_symmetry_multiplicity
 _atom_site_fract_x
 _atom_site_fract_y
 _atom_site_fract_z
 _atom_site_occupancy
  Ba  Ba0  1  0.17274200  0.89039200  0.62706700  1
  Ba  Ba1  1  0.32725800  0.39039200  0.62706700  1
  Ba  Ba2  1  0.82725800  0.10960800  0.37293300  1
  Ba  Ba3  1  0.67274200  0.60960800  0.37293300  1
  Cr  Cr0  1  0.37452300  0.74452500  0.12842900  1
  Cr  Cr1  1  0.74644600  0.88363300  0.87118400  1
  Cr  Cr2  1  0.62547700  0.25547500  0.87157100  1
  Cr  Cr3  1  0.99894900  0.26432800  0.62455900  1
  Cr  Cr4  1  0.99263700  0.25402100  0.12424400  1
  Cr  Cr5  1  0.50105100  0.76432800  0.62455900  1
  Cr  Cr6  1  0.50736300  0.75402100  0.12424400  1
  Cr  Cr7  1  0.49894900  0.23567200  0.37544100  1
  Cr  Cr8  1  0.49263700  0.24597900  0.87575600  1
  Cr  Cr9  1  0.12547700  0.24452500  0.12842900  1
  Cr  Cr10  1  0.24644600  0.61636700  0.12881600  1
  Cr  Cr11  1  0.87452300  0.75547500  0.87157100  1
  Cr  Cr12  1  0.00105100  0.73567200  0.37544100  1
  Cr  Cr13  1  0.00736300  0.74597900  0.87575600  1
  Cr  Cr14  1  0.75355400  0.38363300  0.87118400  1
  Cr  Cr15  1  0.25355400  0.11636700  0.12881600  1
  S  S0  1  0.94051200  0.43652700  0.87212800  1
  S  S1  1  0.55991400  0.91937000  0.37779800  1
  S  S2  1  0.55948800  0.93652700  0.87212800  1
  S  S3  1  0.16969100  0.88535700  0.12756800  1
  S  S4  1  0.94409800  0.91454900  0.62783300  1
  S  S5  1  0.20072000  0.36422400  0.89907500  1
  S  S6  1  0.94105100  0.90527500  0.12298500  1
  S  S7  1  0.79936700  0.63680700  0.64048300  1
  S  S8  1  0.44409800  0.58545100  0.37216700  1
  S  S9  1  0.05590200  0.08545100  0.37216700  1
  S  S10  1  0.05991400  0.58063000  0.62220200  1
  S  S11  1  0.20063300  0.36319300  0.35951700  1
  S  S12  1  0.55590200  0.41454900  0.62783300  1
  S  S13  1  0.70072000  0.13577600  0.10092500  1
  S  S14  1  0.33030900  0.38535700  0.12756800  1
  S  S15  1  0.83030900  0.11464300  0.87243200  1
  S  S16  1  0.29936700  0.86319300  0.35951700  1
  S  S17  1  0.44008600  0.08063000  0.62220200  1
  S  S18  1  0.44051200  0.06347300  0.12787200  1
  S  S19  1  0.66969100  0.61464300  0.87243200  1
  S  S20  1  0.55894900  0.40527500  0.12298500  1
  S  S21  1  0.44105100  0.59472500  0.87701500  1
  S  S22  1  0.29928000  0.86422400  0.89907500  1
  S  S23  1  0.05894900  0.09472500  0.87701500  1
  S  S24  1  0.94008600  0.41937000  0.37779800  1
  S  S25  1  0.05948800  0.56347300  0.12787200  1
  S  S26  1  0.70063300  0.13680700  0.64048300  1
  S  S27  1  0.79928000  0.63577600  0.10092500  1
loop_
_geom_bond_atom_site_label_1
_geom_bond_atom_site_label_2
_geom_bond_distance
_geom_bond_site_symmetry_2
Ba0 S10 3.189201 1_555
Ba0 S23 3.352227 1_565
Ba0 S9 3.403623 1_565
Ba0 S3 3.409643 1_555
Ba0 S3 3.416441 1_556
Ba0 S16 3.435169 1_555
Ba0 S11 3.437890 1_565
Ba0 S22 3.449360 1_555
Ba0 S5 3.461514 1_565
Ba0 S11 3.714789 1_555
Ba0 S5 3.722952 1_555
Ba1 S17 3.189201 1_555
Ba1 S21 3.352227 1_555
Ba1 S8 3.403623 1_555
Ba1 S14 3.409643 1_555
Ba1 S14 3.416441 1_556
Ba1 S11 3.435169 1_555
Ba1 S16 3.437890 1_555
Ba1 S5 3.449360 1_555
Ba1 S22 3.461514 1_555
Ba1 S16 3.714789 1_545
Ba1 S22 3.722952 1_545
Ba2 S24 3.189201 1_555
Ba2 S6 3.352227 1_545
Ba2 S4 3.403623 1_545
Ba2 S15 3.409643 1_555
Ba2 S15 3.416441 1_554
Ba2 S26 3.435169 1_555
Ba2 S7 3.437890 1_545
Ba2 S13 3.449360 1_555
Ba2 S27 3.461514 1_545
Ba2 S7 3.714789 1_555
Ba2 S27 3.722952 1_555
Ba3 S1 3.189201 1_555
Ba3 S20 3.352227 1_555
Ba3 S12 3.403623 1_555
Ba3 S19 3.409643 1_555
Ba3 S19 3.416441 1_554
Ba3 S7 3.435169 1_555
Ba3 S26 3.437890 1_555
Ba3 S27 3.449360 1_555
Ba3 S13 3.461514 1_555
Ba3 S26 3.714789 1_565
Ba3 S13 3.722952 1_565
Cr0 S14 2.386043 1_555
Cr0 S22 2.438530 1_554
Cr0 S18 2.443382 1_565
Cr0 S16 2.443493 1_555
Cr0 S21 2.467120 1_554
Cr0 S8 2.495515 1_555
Cr1 S15 2.373062 1_565
Cr1 S19 2.391040 1_555
Cr1 S13 2.420804 1_566
Cr1 S26 2.428566 1_565
Cr1 S27 2.479043 1_556
Cr1 S7 2.481631 1_555
Cr2 S19 2.386043 1_555
Cr2 S13 2.438530 1_556
Cr2 S2 2.443382 1_545
Cr2 S26 2.443493 1_555
Cr2 S20 2.467120 1_556
Cr2 S12 2.495515 1_555
Cr3 S24 2.350897 1_555
Cr3 S10 2.360898 1_655
Cr3 S0 2.392941 1_555
Cr3 S9 2.415209 1_655
Cr3 S23 2.429185 1_655
Cr3 S4 2.451035 1_545
Cr4 S24 2.332029 1_555
Cr4 S0 2.364802 1_554
Cr4 S6 2.407950 1_545
Cr4 S25 2.411493 1_655
Cr4 S9 2.448379 1_655
Cr4 S23 2.465888 1_654
Cr5 S1 2.350897 1_555
Cr5 S17 2.360898 1_565
Cr5 S2 2.392941 1_555
Cr5 S8 2.415209 1_555
Cr5 S21 2.429185 1_555
Cr5 S12 2.451035 1_555
Cr6 S1 2.332029 1_555
Cr6 S2 2.364802 1_554
Cr6 S20 2.407950 1_555
Cr6 S18 2.411493 1_565
Cr6 S8 2.448379 1_555
Cr6 S21 2.465888 1_554
Cr7 S17 2.350897 1_555
Cr7 S1 2.360898 1_545
Cr7 S18 2.392941 1_555
Cr7 S12 2.415209 1_555
Cr7 S20 2.429185 1_555
Cr7 S8 2.451035 1_555
Cr8 S17 2.332029 1_555
Cr8 S18 2.364802 1_556
Cr8 S21 2.407950 1_555
Cr8 S2 2.411493 1_545
Cr8 S12 2.448379 1_555
Cr8 S20 2.465888 1_556
Cr9 S3 2.386043 1_545
Cr9 S5 2.438530 1_554
Cr9 S25 2.443382 1_555
Cr9 S11 2.443493 1_555
Cr9 S23 2.467120 1_554
Cr9 S9 2.495515 1_555
Cr10 S14 2.373062 1_555
Cr10 S3 2.391040 1_555
Cr10 S5 2.420804 1_554
Cr10 S11 2.428566 1_555
Cr10 S22 2.479043 1_554
Cr10 S16 2.481631 1_555
Cr11 S15 2.386043 1_565
Cr11 S27 2.438530 1_556
Cr11 S0 2.443382 1_555
Cr11 S7 2.443493 1_555
Cr11 S6 2.467120 1_556
Cr11 S4 2.495515 1_555
Cr12 S10 2.350897 1_555
Cr12 S24 2.360898 1_455
Cr12 S25 2.392941 1_555
Cr12 S4 2.415209 1_455
Cr12 S6 2.429185 1_455
Cr12 S9 2.451035 1_565
Cr13 S10 2.332029 1_555
Cr13 S25 2.364802 1_556
Cr13 S23 2.407950 1_565
Cr13 S0 2.411493 1_455
Cr13 S4 2.448379 1_455
Cr13 S6 2.465888 1_456
Cr14 S19 2.373062 1_555
Cr14 S15 2.391040 1_555
Cr14 S27 2.420804 1_556
Cr14 S7 2.428566 1_555
Cr14 S13 2.479043 1_556
Cr14 S26 2.481631 1_555
Cr15 S3 2.373062 1_545
Cr15 S14 2.391040 1_555
Cr15 S22 2.420804 1_544
Cr15 S16 2.428566 1_545
Cr15 S5 2.479043 1_554
Cr15 S11 2.481631 1_555
