# generated using pymatgen
data_Gd4Si2Se3O7
_symmetry_space_group_name_H-M   'P 1'
_cell_length_a   11.07984551
_cell_length_b   11.07984508
_cell_length_c   11.07984523
_cell_angle_alpha   100.17078143
_cell_angle_beta   114.31221055
_cell_angle_gamma   114.31221189
_symmetry_Int_Tables_number   1
_chemical_formula_structural   Gd4Si2Se3O7
_chemical_formula_sum   'Gd16 Si8 Se12 O28'
_cell_volume   1026.87729696
_cell_formula_units_Z   4
loop_
 _symmetry_equiv_pos_site_id
 _symmetry_equiv_pos_as_xyz
  1  'x, y, z'
loop_
 _atom_site_type_symbol
 _atom_site_label
 _atom_site_symmetry_multiplicity
 _atom_site_fract_x
 _atom_site_fract_y
 _atom_site_fract_z
 _atom_site_occupancy
  Gd  Gd0  1  0.25000000  0.29747015  0.70252985  1
  Gd  Gd1  1  0.48906111  0.82233418  0.33327307  1
  Gd  Gd2  1  0.09494030  0.04747015  0.29747015  1
  Gd  Gd3  1  0.01093889  0.66672693  0.17766582  1
  Gd  Gd4  1  0.40505970  0.70252985  0.95252985  1
  Gd  Gd5  1  0.48906111  0.66672693  0.65578803  1
  Gd  Gd6  1  0.98906111  0.65578803  0.66672693  1
  Gd  Gd7  1  0.25000000  0.95252985  0.04747015  1
  Gd  Gd8  1  0.90505970  0.95252985  0.70252985  1
  Gd  Gd9  1  0.98906111  0.33327307  0.82233418  1
  Gd  Gd10  1  0.01093889  0.34421197  0.33327307  1
  Gd  Gd11  1  0.75000000  0.70252985  0.29747015  1
  Gd  Gd12  1  0.75000000  0.04747015  0.95252985  1
  Gd  Gd13  1  0.51093889  0.33327307  0.34421197  1
  Gd  Gd14  1  0.51093889  0.17766582  0.66672693  1
  Gd  Gd15  1  0.59494030  0.29747015  0.04747015  1
  Si  Si0  1  0.37447019  0.90702260  0.78149278  1
  Si  Si1  1  0.62552981  0.53255241  0.90702260  1
  Si  Si2  1  0.12552981  0.21850722  0.09297740  1
  Si  Si3  1  0.37447019  0.46744759  0.09297740  1
  Si  Si4  1  0.62552981  0.09297740  0.21850722  1
  Si  Si5  1  0.87447019  0.78149278  0.90702260  1
  Si  Si6  1  0.87447019  0.09297740  0.46744759  1
  Si  Si7  1  0.12552981  0.90702260  0.53255241  1
  Se  Se0  1  0.14501603  0.64501603  1.00000000  1
  Se  Se1  1  0.35498397  0.35498397  0.50000000  1
  Se  Se2  1  0.25000000  0.12500000  0.87500000  1
  Se  Se3  1  0.85498397  0.35498397  0.00000000  1
  Se  Se4  1  0.64501603  1.00000000  0.64501603  1
  Se  Se5  1  0.64501603  0.64501603  0.50000000  1
  Se  Se6  1  0.35498397  0.00000000  0.35498397  1
  Se  Se7  1  0.25000000  0.62500000  0.37500000  1
  Se  Se8  1  0.85498397  0.50000000  0.35498397  1
  Se  Se9  1  0.75000000  0.37500000  0.62500000  1
  Se  Se10  1  0.14501603  0.50000000  0.64501603  1
  Se  Se11  1  0.75000000  0.87500000  0.12500000  1
  O  O0  1  0.25000000  0.85787295  0.60787295  1
  O  O1  1  0.48881530  0.56937151  0.83943644  1
  O  O2  1  0.72993508  0.56937151  0.08055622  1
  O  O3  1  0.01118470  0.85062114  0.08055622  1
  O  O4  1  0.77006492  0.91944378  0.43062849  1
  O  O5  1  0.02065841  0.83062181  0.35128022  1
  O  O6  1  0.27006492  0.43062849  0.91944378  1
  O  O7  1  0.51118470  0.08055622  0.85062114  1
  O  O8  1  0.97934159  0.16937819  0.64871978  1
  O  O9  1  0.52065841  0.16937819  0.19003660  1
  O  O10  1  0.77006492  0.85062114  0.83943644  1
  O  O11  1  0.22993508  0.08055622  0.56937151  1
  O  O12  1  0.47934159  0.64871978  0.16937819  1
  O  O13  1  0.27006492  0.83943644  0.85062114  1
  O  O14  1  0.52065841  0.35128022  0.83062181  1
  O  O15  1  0.75000000  0.14212705  0.39212705  1
  O  O16  1  0.47934159  0.83062181  0.80996340  1
  O  O17  1  0.02065841  0.19003660  0.16937819  1
  O  O18  1  0.01118470  0.16056356  0.43062849  1
  O  O19  1  0.97934159  0.80996340  0.83062181  1
  O  O20  1  0.22993508  0.14937886  0.16056356  1
  O  O21  1  0.98881530  0.14937886  0.91944378  1
  O  O22  1  0.51118470  0.43062849  0.16056356  1
  O  O23  1  0.98881530  0.83943644  0.56937151  1
  O  O24  1  0.25000000  0.39212705  0.14212705  1
  O  O25  1  0.48881530  0.91944378  0.14937886  1
  O  O26  1  0.75000000  0.60787295  0.85787295  1
  O  O27  1  0.72993508  0.16056356  0.14937886  1
loop_
_geom_bond_atom_site_label_1
_geom_bond_atom_site_label_2
_geom_bond_distance
_geom_bond_site_symmetry_2
Gd0 O11 2.457648 1_555
Gd0 O6 2.457648 1_555
Gd0 O8 2.467232 1_455
Gd0 O14 2.467232 1_555
Gd0 O1 2.625947 1_555
Gd0 O18 2.625947 1_555
Gd0 Se2 2.931392 1_555
Gd0 Se10 2.972984 1_555
Gd0 Se1 2.972984 1_555
Gd1 O12 2.333291 1_555
Gd1 O25 2.466022 1_555
Gd1 O4 2.466022 1_555
Gd1 Se7 2.933740 1_555
Gd1 Se4 2.945289 1_555
Gd1 Se6 2.945289 1_565
Gd1 Se5 3.421547 1_555
Gd1 Se0 3.421547 1_554
Gd2 O3 2.457648 1_545
Gd2 O18 2.457648 1_555
Gd2 O5 2.467232 1_545
Gd2 O17 2.467232 1_555
Gd2 O11 2.625947 1_555
Gd2 O20 2.625947 1_555
Gd2 Se11 2.931392 1_445
Gd2 Se1 2.972984 1_555
Gd2 Se6 2.972985 1_555
Gd3 O5 2.333291 1_555
Gd3 O3 2.466022 1_555
Gd3 O2 2.466022 1_455
Gd3 Se7 2.933740 1_555
Gd3 Se3 2.945289 1_455
Gd3 Se0 2.945289 1_554
Gd3 Se6 3.421547 1_565
Gd3 Se8 3.421547 1_455
Gd4 O25 2.457648 1_556
Gd4 O1 2.457648 1_555
Gd4 O16 2.467232 1_555
Gd4 O12 2.467232 1_556
Gd4 O6 2.625947 1_555
Gd4 O13 2.625947 1_555
Gd4 Se11 2.931392 1_556
Gd4 Se10 2.972984 1_555
Gd4 Se0 2.972985 1_555
Gd5 O16 2.333291 1_555
Gd5 O10 2.466022 1_555
Gd5 O1 2.466022 1_555
Gd5 Se7 2.933740 1_555
Gd5 Se1 2.945289 1_555
Gd5 Se5 2.945289 1_555
Gd5 Se4 3.421547 1_555
Gd5 Se10 3.421547 1_555
Gd6 O19 2.333291 1_555
Gd6 O13 2.466022 1_655
Gd6 O23 2.466022 1_555
Gd6 Se9 2.933740 1_555
Gd6 Se10 2.945289 1_655
Gd6 Se8 2.945289 1_555
Gd6 Se0 3.421547 1_655
Gd6 Se5 3.421547 1_555
Gd7 O20 2.457648 1_565
Gd7 O13 2.457648 1_554
Gd7 O9 2.467232 1_565
Gd7 O19 2.467232 1_454
Gd7 O3 2.625947 1_555
Gd7 O25 2.625947 1_555
Gd7 Se2 2.931392 1_564
Gd7 Se0 2.972984 1_554
Gd7 Se6 2.972984 1_565
Gd8 O21 2.457648 1_565
Gd8 O23 2.457648 1_555
Gd8 O8 2.467232 1_565
Gd8 O19 2.467232 1_555
Gd8 O4 2.625947 1_555
Gd8 O10 2.625947 1_555
Gd8 Se2 2.931392 1_665
Gd8 Se5 2.972984 1_555
Gd8 Se4 2.972985 1_555
Gd9 O8 2.333291 1_555
Gd9 O21 2.466022 1_555
Gd9 O6 2.466022 1_655
Gd9 Se9 2.933740 1_555
Gd9 Se0 2.945289 1_655
Gd9 Se3 2.945289 1_556
Gd9 Se4 3.421547 1_545
Gd9 Se10 3.421547 1_655
Gd10 O17 2.333291 1_555
Gd10 O27 2.466022 1_455
Gd10 O18 2.466022 1_555
Gd10 Se7 2.933740 1_555
Gd10 Se8 2.945289 1_455
Gd10 Se10 2.945289 1_555
Gd10 Se3 3.421547 1_455
Gd10 Se1 3.421547 1_555
Gd11 O4 2.457648 1_555
Gd11 O2 2.457648 1_555
Gd11 O5 2.467232 1_655
Gd11 O12 2.467232 1_555
Gd11 O22 2.625947 1_555
Gd11 O23 2.625947 1_555
Gd11 Se11 2.931392 1_555
Gd11 Se8 2.972984 1_555
Gd11 Se5 2.972984 1_555
Gd12 O10 2.457648 1_545
Gd12 O27 2.457648 1_556
Gd12 O16 2.467232 1_545
Gd12 O17 2.467232 1_656
Gd12 O21 2.625947 1_555
Gd12 O7 2.625947 1_555
Gd12 Se11 2.931392 1_546
Gd12 Se3 2.972984 1_556
Gd12 Se4 2.972984 1_545
Gd13 O9 2.333291 1_555
Gd13 O20 2.466022 1_555
Gd13 O22 2.466022 1_555
Gd13 Se9 2.933740 1_555
Gd13 Se5 2.945289 1_555
Gd13 Se1 2.945289 1_555
Gd13 Se6 3.421547 1_555
Gd13 Se8 3.421547 1_555
Gd14 O14 2.333291 1_555
Gd14 O7 2.466022 1_555
Gd14 O11 2.466022 1_555
Gd14 Se9 2.933740 1_555
Gd14 Se6 2.945289 1_555
Gd14 Se4 2.945289 1_545
Gd14 Se1 3.421547 1_555
Gd14 Se3 3.421547 1_556
Gd15 O7 2.457648 1_554
Gd15 O22 2.457648 1_555
Gd15 O9 2.467232 1_555
Gd15 O14 2.467232 1_554
Gd15 O2 2.625947 1_555
Gd15 O27 2.625947 1_555
Gd15 Se2 2.931392 1_554
Gd15 Se8 2.972984 1_555
Gd15 Se3 2.972985 1_555
O0 Si0 1.651114 1_555
O0 Si7 1.651114 1_555
O1 Si1 1.644515 1_555
O2 Si1 1.644515 1_554
O3 Si5 1.644515 1_454
O4 Si6 1.644515 1_565
O5 Si7 1.663925 1_555
O6 Si3 1.644515 1_556
O7 Si0 1.644515 1_545
O8 Si6 1.663925 1_555
O9 Si4 1.663925 1_555
O10 Si5 1.644515 1_555
O11 Si7 1.644515 1_545
O12 Si3 1.663925 1_555
O13 Si0 1.644515 1_555
O14 Si1 1.663925 1_555
O15 Si4 1.651114 1_555
O15 Si6 1.651114 1_555
O16 Si0 1.663925 1_555
O17 Si2 1.663925 1_555
O18 Si6 1.644515 1_455
O19 Si5 1.663925 1_555
O20 Si2 1.644515 1_555
O21 Si2 1.644515 1_656
O22 Si3 1.644515 1_555
O23 Si7 1.644515 1_655
O24 Si2 1.651114 1_555
O24 Si3 1.651114 1_555
O25 Si4 1.644515 1_565
O26 Si5 1.651114 1_555
O26 Si1 1.651114 1_555
O27 Si4 1.644515 1_555
