# generated using pymatgen
data_Rh4Pb5
_symmetry_space_group_name_H-M   'P 1'
_cell_length_a   5.73195665
_cell_length_b   5.73195726
_cell_length_c   13.69057818
_cell_angle_alpha   96.13149307
_cell_angle_beta   96.13146721
_cell_angle_gamma   119.41349520
_symmetry_Int_Tables_number   1
_chemical_formula_structural   Rh4Pb5
_chemical_formula_sum   'Rh8 Pb10'
_cell_volume   382.94250881
_cell_formula_units_Z   2
loop_
 _symmetry_equiv_pos_site_id
 _symmetry_equiv_pos_as_xyz
  1  'x, y, z'
loop_
 _atom_site_type_symbol
 _atom_site_label
 _atom_site_symmetry_multiplicity
 _atom_site_fract_x
 _atom_site_fract_y
 _atom_site_fract_z
 _atom_site_occupancy
  Rh  Rh0  1  0.91578686  0.91578630  0.83127436  1
  Rh  Rh1  1  0.08421352  0.08421386  0.16872573  1
  Rh  Rh2  1  0.75005553  0.24994427  0.49999993  1
  Rh  Rh3  1  0.91863154  0.41840528  0.83691881  1
  Rh  Rh4  1  0.08136836  0.58159457  0.16308069  1
  Rh  Rh5  1  0.41840584  0.91863112  0.83691879  1
  Rh  Rh6  1  0.58159414  0.08136835  0.16308072  1
  Rh  Rh7  1  0.24994437  0.75005565  0.49999990  1
  Pb  Pb0  1  0.83609846  0.16390163  -0.00000009  1
  Pb  Pb1  1  0.99830373  0.33446915  0.33192125  1
  Pb  Pb2  1  0.41178753  0.41178729  0.82310906  1
  Pb  Pb3  1  0.16390146  0.83609828  -0.00000029  1
  Pb  Pb4  1  0.58821254  0.58821258  0.17689092  1
  Pb  Pb5  1  0.66553142  0.00169551  0.66807840  1
  Pb  Pb6  1  0.33446864  0.99830437  0.33192140  1
  Pb  Pb7  1  0.00169610  0.66553087  0.66807855  1
  Pb  Pb8  1  0.28591015  0.28590999  0.57158843  1
  Pb  Pb9  1  0.71408981  0.71408993  0.42841145  1
loop_
_geom_bond_atom_site_label_1
_geom_bond_atom_site_label_2
_geom_bond_distance
_geom_bond_site_symmetry_2
Rh0 Rh5 2.865724 1_655
Rh0 Rh3 2.865724 1_565
Rh0 Rh3 2.868223 1_555
Rh0 Rh5 2.868223 1_555
Rh1 Rh6 2.865723 1_455
Rh1 Rh4 2.865724 1_545
Rh1 Rh4 2.868224 1_555
Rh1 Rh6 2.868224 1_555
Rh2 Rh7 2.891347 1_545
Rh2 Rh7 2.891349 1_655
Rh3 Rh5 2.891348 1_545
Rh3 Rh5 2.891349 1_655
Rh4 Rh6 2.891347 1_565
Rh4 Rh6 2.891350 1_455
Pb0 Rh4 2.752266 1_655
Pb0 Rh5 2.752269 1_544
Pb0 Rh6 2.753232 1_555
Pb0 Rh3 2.753234 1_554
Pb0 Rh0 2.780071 1_544
Pb0 Rh1 2.780072 1_655
Pb0 Pb3 3.244784 1_645
Pb0 Pb3 3.356370 1_655
Pb0 Pb3 3.356371 1_545
Pb1 Rh1 2.745209 1_655
Pb1 Rh7 2.791988 1_655
Pb1 Rh2 2.795536 1_555
Pb1 Rh4 2.801512 1_655
Pb1 Rh6 2.802436 1_555
Pb2 Rh3 2.871524 1_455
Pb2 Rh5 2.871526 1_545
Pb2 Rh5 2.872332 1_555
Pb2 Rh3 2.872334 1_555
Pb2 Rh0 2.892867 1_555
Pb2 Rh0 2.893955 1_445
Pb2 Pb8 3.365381 1_555
Pb3 Rh3 2.752268 1_454
Pb3 Rh6 2.752268 1_565
Pb3 Rh4 2.753232 1_555
Pb3 Rh5 2.753233 1_554
Pb3 Rh0 2.780066 1_454
Pb3 Rh1 2.780076 1_565
Pb4 Rh4 2.871524 1_655
Pb4 Rh6 2.871525 1_565
Pb4 Rh6 2.872334 1_555
Pb4 Rh4 2.872335 1_555
Pb4 Rh1 2.892865 1_555
Pb4 Rh1 2.893957 1_665
Pb4 Pb9 3.365380 1_555
Pb5 Rh0 2.745213 1_545
Pb5 Rh7 2.791989 1_545
Pb5 Rh2 2.795536 1_555
Pb5 Rh5 2.801510 1_545
Pb5 Rh3 2.802435 1_555
Pb6 Rh1 2.745210 1_565
Pb6 Rh2 2.791989 1_565
Pb6 Rh7 2.795536 1_555
Pb6 Rh6 2.801514 1_565
Pb6 Rh4 2.802438 1_555
Pb7 Rh0 2.745211 1_455
Pb7 Rh2 2.791988 1_455
Pb7 Rh7 2.795536 1_555
Pb7 Rh3 2.801509 1_455
Pb7 Rh5 2.802434 1_555
Pb8 Rh7 3.021419 1_545
Pb8 Rh2 3.021421 1_455
Pb8 Rh2 3.022199 1_555
Pb8 Rh7 3.022202 1_555
Pb9 Rh2 3.021419 1_565
Pb9 Rh7 3.021420 1_655
Pb9 Rh7 3.022199 1_555
Pb9 Rh2 3.022201 1_555
