# generated using pymatgen
data_MgSiO3
_symmetry_space_group_name_H-M   'P 1'
_cell_length_a   9.06140600
_cell_length_b   5.26334600
_cell_length_c   9.38049770
_cell_angle_alpha   80.60015362
_cell_angle_beta   90.00000000
_cell_angle_gamma   90.00000000
_symmetry_Int_Tables_number   1
_chemical_formula_structural   MgSiO3
_chemical_formula_sum   'Mg8 Si8 O24'
_cell_volume   441.37978701
_cell_formula_units_Z   8
loop_
 _symmetry_equiv_pos_site_id
 _symmetry_equiv_pos_as_xyz
  1  'x, y, z'
loop_
 _atom_site_type_symbol
 _atom_site_label
 _atom_site_symmetry_multiplicity
 _atom_site_fract_x
 _atom_site_fract_y
 _atom_site_fract_z
 _atom_site_occupancy
  Mg  Mg0  1  0.15606900  0.41478500  0.28074100  1
  Mg  Mg1  1  0.34393100  0.91478500  0.28074100  1
  Mg  Mg2  1  0.49132200  0.57942400  0.76756600  1
  Mg  Mg3  1  0.84393100  0.58521500  0.71925900  1
  Mg  Mg4  1  0.65606900  0.08521500  0.71925900  1
  Mg  Mg5  1  0.50867800  0.42057600  0.23243400  1
  Mg  Mg6  1  0.99132200  0.92057600  0.23243400  1
  Mg  Mg7  1  0.00867800  0.07942400  0.76756600  1
  Si  Si0  1  0.66609000  0.82351700  0.43096800  1
  Si  Si1  1  0.71329400  0.80508800  0.98126000  1
  Si  Si2  1  0.33391000  0.17648300  0.56903200  1
  Si  Si3  1  0.21329400  0.69491200  0.01874000  1
  Si  Si4  1  0.78670600  0.30508800  0.98126000  1
  Si  Si5  1  0.28670600  0.19491200  0.01874000  1
  Si  Si6  1  0.83391000  0.32351700  0.43096800  1
  Si  Si7  1  0.16609000  0.67648300  0.56903200  1
  O  O0  1  0.66954100  0.35942200  0.84640500  1
  O  O1  1  0.34281700  0.22350000  0.39247800  1
  O  O2  1  0.55603600  0.83247400  0.89805400  1
  O  O3  1  0.18824800  0.35046800  0.61755200  1
  O  O4  1  0.33045900  0.64057800  0.15359500  1
  O  O5  1  0.84281700  0.27650000  0.60752200  1
  O  O6  1  0.02880700  0.77645900  0.65222900  1
  O  O7  1  0.94396400  0.33247400  0.89805400  1
  O  O8  1  0.47119300  0.27645900  0.65222900  1
  O  O9  1  0.68824800  0.14953200  0.38244800  1
  O  O10  1  0.26766000  0.48188400  0.91284300  1
  O  O11  1  0.83045900  0.85942200  0.84640500  1
  O  O12  1  0.31175200  0.85046800  0.61755200  1
  O  O13  1  0.81175200  0.64953200  0.38244800  1
  O  O14  1  0.73234000  0.51811600  0.08715700  1
  O  O15  1  0.97119300  0.22354100  0.34777100  1
  O  O16  1  0.65718300  0.77650000  0.60752200  1
  O  O17  1  0.15718300  0.72350000  0.39247800  1
  O  O18  1  0.05603600  0.66752600  0.10194600  1
  O  O19  1  0.16954100  0.14057800  0.15359500  1
  O  O20  1  0.76766000  0.01811600  0.08715700  1
  O  O21  1  0.23234000  0.98188400  0.91284300  1
  O  O22  1  0.52880700  0.72354100  0.34777100  1
  O  O23  1  0.44396400  0.16752600  0.10194600  1
loop_
_geom_bond_atom_site_label_1
_geom_bond_atom_site_label_2
_geom_bond_distance
_geom_bond_site_symmetry_2
Mg0 O15 2.002060 1_455
Mg0 O19 2.020557 1_555
Mg0 O17 2.072498 1_555
Mg0 O1 2.151998 1_555
Mg0 O18 2.162269 1_555
Mg0 O4 2.206574 1_555
Mg1 O22 2.002060 1_555
Mg1 O4 2.020557 1_555
Mg1 O1 2.072498 1_565
Mg1 O17 2.151998 1_555
Mg1 O23 2.162269 1_565
Mg1 O19 2.206574 1_565
Mg2 O2 2.036812 1_555
Mg2 O0 2.053289 1_555
Mg2 O8 2.076087 1_555
Mg2 O16 2.253877 1_555
Mg2 O10 2.449420 1_555
Mg2 O12 2.450980 1_555
Mg3 O6 2.002060 1_655
Mg3 O11 2.020557 1_555
Mg3 O5 2.072498 1_555
Mg3 O16 2.151998 1_555
Mg3 O7 2.162269 1_555
Mg3 O0 2.206574 1_555
Mg4 O8 2.002060 1_555
Mg4 O0 2.020557 1_555
Mg4 O16 2.072498 1_545
Mg4 O5 2.151998 1_555
Mg4 O2 2.162269 1_545
Mg4 O11 2.206574 1_545
Mg5 O23 2.036812 1_555
Mg5 O4 2.053289 1_555
Mg5 O22 2.076087 1_555
Mg5 O1 2.253877 1_555
Mg5 O14 2.449420 1_555
Mg5 O9 2.450980 1_555
Mg6 O18 2.036812 1_655
Mg6 O19 2.053289 1_665
Mg6 O15 2.076087 1_565
Mg6 O17 2.253877 1_655
Mg6 O20 2.449420 1_565
Mg6 O13 2.450980 1_555
Mg7 O7 2.036812 1_455
Mg7 O11 2.053289 1_445
Mg7 O6 2.076087 1_545
Mg7 O5 2.253877 1_455
Mg7 O21 2.449420 1_545
Mg7 O3 2.450980 1_555
O0 Si4 1.640433 1_555
O1 Si2 1.636081 1_555
O2 Si1 1.619813 1_555
O3 Si2 1.709978 1_555
O3 Si7 1.713702 1_555
O4 Si3 1.640433 1_555
O5 Si6 1.636081 1_555
O6 Si7 1.602369 1_555
O7 Si4 1.619813 1_555
O8 Si2 1.602369 1_555
O9 Si6 1.709978 1_555
O9 Si0 1.713702 1_545
O10 Si5 1.675668 1_556
O10 Si3 1.688331 1_556
O11 Si1 1.640433 1_555
O12 Si7 1.709978 1_555
O12 Si2 1.713702 1_565
O13 Si0 1.709978 1_555
O13 Si6 1.713702 1_555
O14 Si1 1.675668 1_554
O14 Si4 1.688331 1_554
O15 Si6 1.602369 1_555
O16 Si0 1.636081 1_555
O17 Si7 1.636081 1_555
O18 Si3 1.619813 1_555
O19 Si5 1.640433 1_555
O20 Si4 1.675668 1_554
O20 Si1 1.688331 1_544
O21 Si3 1.675668 1_556
O21 Si5 1.688331 1_566
O22 Si0 1.602369 1_555
O23 Si5 1.619813 1_555
