# generated using pymatgen
data_Cd8Ag5
_symmetry_space_group_name_H-M   'P 1'
_cell_length_a   8.68827240
_cell_length_b   8.68827310
_cell_length_c   8.68827200
_cell_angle_alpha   109.47122052
_cell_angle_beta   109.47122210
_cell_angle_gamma   109.47121411
_symmetry_Int_Tables_number   1
_chemical_formula_structural   Cd8Ag5
_chemical_formula_sum   'Cd16 Ag10'
_cell_volume   504.86869001
_cell_formula_units_Z   2
loop_
 _symmetry_equiv_pos_site_id
 _symmetry_equiv_pos_as_xyz
  1  'x, y, z'
loop_
 _atom_site_type_symbol
 _atom_site_label
 _atom_site_symmetry_multiplicity
 _atom_site_fract_x
 _atom_site_fract_y
 _atom_site_fract_z
 _atom_site_occupancy
  Cd  Cd0  1  0.27869739  0.65159595  0.00000000  1
  Cd  Cd1  1  0.72130261  0.37289956  0.72130261  1
  Cd  Cd2  1  0.27869739  0.00000000  0.65159595  1
  Cd  Cd3  1  0.62710044  0.34840405  0.34840405  1
  Cd  Cd4  1  1.00000000  0.78068825  1.00000000  1
  Cd  Cd5  1  0.21931175  0.21931175  0.21931175  1
  Cd  Cd6  1  0.72130261  0.72130261  0.37289956  1
  Cd  Cd7  1  1.00000000  0.65159595  0.27869739  1
  Cd  Cd8  1  0.65159595  0.27869739  0.00000000  1
  Cd  Cd9  1  0.37289956  0.72130261  0.72130261  1
  Cd  Cd10  1  0.34840405  0.62710044  0.34840405  1
  Cd  Cd11  1  0.00000000  0.27869739  0.65159595  1
  Cd  Cd12  1  0.65159595  1.00000000  0.27869739  1
  Cd  Cd13  1  0.78068825  1.00000000  1.00000000  1
  Cd  Cd14  1  0.00000000  0.00000000  0.78068825  1
  Cd  Cd15  1  0.34840405  0.34840405  0.62710044  1
  Ag  Ag0  1  0.34511934  0.00000000  0.00000000  1
  Ag  Ag1  1  0.35695424  1.00000000  0.35695424  1
  Ag  Ag2  1  0.00000000  0.64304576  0.64304576  1
  Ag  Ag3  1  0.65488066  0.65488066  0.65488066  1
  Ag  Ag4  1  0.00000000  0.34511934  0.00000000  1
  Ag  Ag5  1  0.35695424  0.35695424  1.00000000  1
  Ag  Ag6  1  1.00000000  0.35695424  0.35695424  1
  Ag  Ag7  1  0.64304576  0.00000000  0.64304576  1
  Ag  Ag8  1  1.00000000  1.00000000  0.34511934  1
  Ag  Ag9  1  0.64304576  0.64304576  0.00000000  1
loop_
_geom_bond_atom_site_label_1
_geom_bond_atom_site_label_2
_geom_bond_distance
_geom_bond_site_symmetry_2
Cd0 Cd11 2.977953 1_554
Cd0 Cd12 2.977953 1_555
Cd0 Cd10 2.977956 1_555
Cd0 Cd9 2.977956 1_554
Cd0 Cd4 2.988591 1_454
Cd1 Cd3 2.977948 1_555
Cd1 Cd15 2.977948 1_555
Cd1 Cd8 2.977956 1_556
Cd1 Cd11 2.977956 1_655
Cd1 Cd4 2.988586 1_555
Cd2 Cd8 2.977953 1_556
Cd2 Cd7 2.977953 1_445
Cd2 Cd9 2.977957 1_545
Cd3 Cd6 2.977948 1_555
Cd3 Cd8 2.977956 1_555
Cd3 Cd5 2.988583 1_555
Cd4 Cd7 2.988591 1_556
Cd4 Cd5 3.111571 1_666
Cd6 Cd7 2.977956 1_555
Cd7 Cd8 2.977953 1_555
Cd10 Cd9 2.977948 1_555
Cd10 Cd6 2.977948 1_555
Cd10 Cd7 2.977956 1_455
Cd10 Cd5 2.988583 1_555
Cd11 Cd12 2.977953 1_445
Cd11 Cd15 2.977957 1_555
Cd11 Cd14 2.988591 1_555
Cd12 Cd6 2.977957 1_555
Cd12 Cd3 2.977957 1_565
Cd12 Cd13 2.988591 1_554
Cd13 Cd9 2.988586 1_555
Cd13 Cd8 2.988591 1_566
Cd13 Cd14 3.111571 1_665
Cd13 Cd4 3.111571 1_555
Cd13 Cd5 3.111571 1_666
Cd14 Cd6 2.988586 1_445
Cd14 Cd2 2.988591 1_555
Cd14 Cd5 3.111571 1_556
Cd14 Cd4 3.111571 1_445
Cd15 Cd9 2.977948 1_555
Cd15 Cd2 2.977957 1_555
Cd15 Cd5 2.988583 1_555
Ag0 Cd3 2.886408 1_555
Ag0 Cd2 2.886409 1_554
Ag0 Cd0 2.886410 1_545
Ag0 Cd12 2.941943 1_545
Ag0 Cd8 2.941944 1_555
Ag0 Cd9 2.941949 1_544
Ag0 Cd14 2.968617 1_554
Ag0 Cd5 2.968617 1_555
Ag0 Cd4 2.968617 1_444
Ag0 Ag1 3.068572 1_545
Ag0 Ag5 3.068573 1_554
Ag0 Ag2 3.068573 1_544
Ag1 Cd2 2.859348 1_565
Ag1 Cd12 2.859349 1_555
Ag1 Ag7 2.870171 1_565
Ag1 Cd5 2.928439 1_565
Ag1 Cd4 2.928439 1_454
Ag1 Ag8 3.068572 1_455
Ag1 Cd1 3.191092 1_565
Ag1 Cd10 3.191098 1_555
Ag1 Cd15 3.194835 1_565
Ag1 Cd3 3.194835 1_565
Ag1 Cd0 3.194839 1_555
Ag1 Cd7 3.194839 1_455
Ag2 Cd3 2.859353 1_455
Ag2 Cd9 2.859357 1_555
Ag2 Ag6 2.870171 1_455
Ag2 Cd4 2.928438 1_455
Ag2 Cd14 2.928439 1_565
Ag2 Ag3 3.068572 1_455
Ag2 Cd7 3.191089 1_455
Ag2 Cd11 3.191089 1_555
Ag2 Cd6 3.194834 1_455
Ag2 Cd1 3.194834 1_455
Ag2 Cd0 3.194838 1_556
Ag2 Cd2 3.194839 1_565
Ag3 Cd6 2.886401 1_555
Ag3 Cd9 2.886401 1_555
Ag3 Cd1 2.886401 1_555
Ag3 Cd10 2.941939 1_555
Ag3 Cd3 2.941939 1_555
Ag3 Cd15 2.941939 1_555
Ag3 Cd4 2.968617 1_555
Ag3 Cd13 2.968617 1_555
Ag3 Cd14 2.968617 1_665
Ag3 Ag9 3.068572 1_556
Ag3 Ag7 3.068573 1_565
Ag4 Cd10 2.886408 1_555
Ag4 Cd11 2.886409 1_554
Ag4 Cd8 2.886409 1_455
Ag4 Cd7 2.941944 1_455
Ag4 Cd0 2.941944 1_555
Ag4 Cd1 2.941949 1_454
Ag4 Cd5 2.968617 1_555
Ag4 Cd14 2.968617 1_554
Ag4 Cd13 2.968617 1_444
Ag4 Ag6 3.068572 1_455
Ag4 Ag5 3.068572 1_554
Ag4 Ag7 3.068573 1_454
Ag5 Cd8 2.859348 1_556
Ag5 Cd0 2.859349 1_556
Ag5 Ag9 2.870171 1_556
Ag5 Cd5 2.928439 1_556
Ag5 Cd14 2.928439 1_555
Ag5 Cd6 3.191092 1_556
Ag5 Cd15 3.191097 1_555
Ag5 Cd3 3.194835 1_556
Ag5 Cd10 3.194835 1_556
Ag5 Cd11 3.194838 1_555
Ag5 Cd2 3.194839 1_555
Ag6 Cd11 2.859348 1_655
Ag6 Cd7 2.859349 1_555
Ag6 Cd5 2.928438 1_655
Ag6 Cd13 2.928439 1_544
Ag6 Ag8 3.068573 1_545
Ag6 Cd9 3.191092 1_655
Ag6 Cd3 3.191097 1_555
Ag6 Cd15 3.194835 1_655
Ag6 Cd10 3.194835 1_655
Ag6 Cd8 3.194838 1_555
Ag6 Cd12 3.194839 1_545
Ag7 Cd10 2.859354 1_545
Ag7 Cd1 2.859357 1_555
Ag7 Cd13 2.928438 1_545
Ag7 Cd14 2.928438 1_655
Ag7 Cd12 3.191089 1_545
Ag7 Cd2 3.191089 1_555
Ag7 Cd6 3.194834 1_545
Ag7 Cd9 3.194834 1_545
Ag7 Cd8 3.194839 1_556
Ag7 Cd11 3.194839 1_655
Ag8 Cd15 2.886408 1_665
Ag8 Cd12 2.886409 1_555
Ag8 Cd7 2.886410 1_555
Ag8 Cd2 2.941943 1_665
Ag8 Cd11 2.941944 1_665
Ag8 Cd6 2.941949 1_555
Ag8 Cd13 2.968617 1_554
Ag8 Cd4 2.968617 1_554
Ag8 Cd5 2.968617 1_665
Ag8 Ag9 3.068573 1_555
Ag9 Cd15 2.859353 1_554
Ag9 Cd6 2.859357 1_555
Ag9 Cd4 2.928439 1_554
Ag9 Cd13 2.928439 1_554
Ag9 Cd0 3.191089 1_555
Ag9 Cd8 3.191089 1_555
Ag9 Cd9 3.194834 1_554
Ag9 Cd1 3.194834 1_554
Ag9 Cd7 3.194838 1_555
Ag9 Cd12 3.194839 1_555
