# generated using pymatgen
data_Nd6Mo10O39
_symmetry_space_group_name_H-M   'P 1'
_cell_length_a   11.91670172
_cell_length_b   11.91670172
_cell_length_c   14.16416714
_cell_angle_alpha   84.15847639
_cell_angle_beta   84.15847639
_cell_angle_gamma   115.88540371
_symmetry_Int_Tables_number   1
_chemical_formula_structural   Nd6Mo10O39
_chemical_formula_sum   'Nd12 Mo20 O78'
_cell_volume   1776.03265718
_cell_formula_units_Z   2
loop_
 _symmetry_equiv_pos_site_id
 _symmetry_equiv_pos_as_xyz
  1  'x, y, z'
loop_
 _atom_site_type_symbol
 _atom_site_label
 _atom_site_symmetry_multiplicity
 _atom_site_fract_x
 _atom_site_fract_y
 _atom_site_fract_z
 _atom_site_occupancy
  Nd  Nd0  1  0.52825100  0.21752800  0.64714200  1
  Nd  Nd1  1  0.14653200  0.03021700  0.41577700  1
  Nd  Nd2  1  0.85346800  0.96978300  0.58422300  1
  Nd  Nd3  1  0.21752800  0.52825100  0.14714200  1
  Nd  Nd4  1  0.56103100  0.26425600  0.08545900  1
  Nd  Nd5  1  0.96978300  0.85346800  0.08422300  1
  Nd  Nd6  1  0.47174900  0.78247200  0.35285800  1
  Nd  Nd7  1  0.73574400  0.43896900  0.41454100  1
  Nd  Nd8  1  0.03021700  0.14653200  0.91577700  1
  Nd  Nd9  1  0.43896900  0.73574400  0.91454100  1
  Nd  Nd10  1  0.26425600  0.56103100  0.58545900  1
  Nd  Nd11  1  0.78247200  0.47174900  0.85285800  1
  Mo  Mo0  1  0.11553700  0.49888700  0.88161800  1
  Mo  Mo1  1  0.81601500  0.81527400  0.36107000  1
  Mo  Mo2  1  0.57414100  0.61587500  0.13837700  1
  Mo  Mo3  1  0.88615000  0.32056000  0.63758600  1
  Mo  Mo4  1  0.32056000  0.88615000  0.13758600  1
  Mo  Mo5  1  0.11385000  0.67944000  0.36241400  1
  Mo  Mo6  1  0.18398500  0.18472600  0.63893000  1
  Mo  Mo7  1  0.76002000  0.06943300  0.16039200  1
  Mo  Mo8  1  0.93056700  0.23998000  0.33960800  1
  Mo  Mo9  1  0.67944000  0.11385000  0.86241400  1
  Mo  Mo10  1  0.61587500  0.57414100  0.63837700  1
  Mo  Mo11  1  0.49888700  0.11553700  0.38161800  1
  Mo  Mo12  1  0.38412500  0.42585900  0.36162300  1
  Mo  Mo13  1  0.23998000  0.93056700  0.83960800  1
  Mo  Mo14  1  0.42585900  0.38412500  0.86162300  1
  Mo  Mo15  1  0.06943300  0.76002000  0.66039200  1
  Mo  Mo16  1  0.50111300  0.88446300  0.61838200  1
  Mo  Mo17  1  0.81527400  0.81601500  0.86107000  1
  Mo  Mo18  1  0.88446300  0.50111300  0.11838200  1
  Mo  Mo19  1  0.18472600  0.18398500  0.13893000  1
  O  O0  1  0.47793300  0.79857400  0.73485200  1
  O  O1  1  0.65573500  0.78578500  0.88779500  1
  O  O2  1  0.99398700  0.43632600  0.12418300  1
  O  O3  1  0.92241100  0.91823600  0.43490700  1
  O  O4  1  0.13005600  0.11888900  0.26425500  1
  O  O5  1  0.37083600  0.07908200  0.79834900  1
  O  O6  1  0.70608500  0.18356500  0.13378700  1
  O  O7  1  0.77676900  0.43618100  0.03217600  1
  O  O8  1  0.26563000  0.27541400  0.91328500  1
  O  O9  1  0.87416400  0.12583600  0.25000000  1
  O  O10  1  0.62904900  0.45976100  0.56516300  1
  O  O11  1  0.34426500  0.21421500  0.11220500  1
  O  O12  1  0.17284100  0.89336100  0.14458800  1
  O  O13  1  0.15288700  0.93732900  0.94548400  1
  O  O14  1  0.29391500  0.81643500  0.86621300  1
  O  O15  1  0.32591900  0.17216000  0.61129400  1
  O  O16  1  0.55979100  0.96176100  0.91836000  1
  O  O17  1  0.79857400  0.47793300  0.23485200  1
  O  O18  1  0.82784000  0.67408100  0.88870600  1
  O  O19  1  0.27541400  0.26563000  0.41328500  1
  O  O20  1  0.34011400  0.45329400  0.24512000  1
  O  O21  1  0.97774000  0.66656900  0.07771300  1
  O  O22  1  0.07758900  0.08176400  0.56509300  1
  O  O23  1  0.78578500  0.65573500  0.38779500  1
  O  O24  1  0.08176400  0.07758900  0.06509300  1
  O  O25  1  0.86994400  0.88111100  0.73574500  1
  O  O26  1  0.91823600  0.92241100  0.93490700  1
  O  O27  1  0.56367400  0.00601300  0.37581700  1
  O  O28  1  0.21421500  0.34426500  0.61220500  1
  O  O29  1  0.76548500  0.32557200  0.56984300  1
  O  O30  1  0.35895700  0.85808600  0.25591500  1
  O  O31  1  0.00601300  0.56367400  0.87581700  1
  O  O32  1  0.02226000  0.33343100  0.92228700  1
  O  O33  1  0.33343100  0.02226000  0.42228700  1
  O  O34  1  0.43632600  0.99398700  0.62418300  1
  O  O35  1  0.72458600  0.73437000  0.58671500  1
  O  O36  1  0.73437000  0.72458600  0.08671500  1
  O  O37  1  0.65988600  0.54670600  0.75488000  1
  O  O38  1  0.64104300  0.14191400  0.74408500  1
  O  O39  1  0.92091800  0.62916400  0.70165100  1
  O  O40  1  0.46353500  0.56761400  0.64003400  1
  O  O41  1  0.52206700  0.20142600  0.26514800  1
  O  O42  1  0.11888900  0.13005600  0.76425500  1
  O  O43  1  0.43618100  0.77676900  0.53217600  1
  O  O44  1  0.56761400  0.46353500  0.14003400  1
  O  O45  1  0.10663900  0.82715900  0.35541200  1
  O  O46  1  0.07908200  0.37083600  0.29834900  1
  O  O47  1  0.06267100  0.84711400  0.55451600  1
  O  O48  1  0.14191400  0.64104300  0.24408500  1
  O  O49  1  0.23451500  0.67442800  0.43015700  1
  O  O50  1  0.67442800  0.23451500  0.93015700  1
  O  O51  1  0.32557200  0.76548500  0.06984300  1
  O  O52  1  0.43238600  0.53646500  0.85996600  1
  O  O53  1  0.17216000  0.32591900  0.11129400  1
  O  O54  1  0.96176100  0.55979100  0.41836000  1
  O  O55  1  0.93732900  0.15288700  0.44548400  1
  O  O56  1  0.84711300  0.06267100  0.05451600  1
  O  O57  1  0.89336100  0.17284100  0.64458800  1
  O  O58  1  0.53646500  0.43238600  0.35996600  1
  O  O59  1  0.88111100  0.86994400  0.23574500  1
  O  O60  1  0.44020900  0.03823900  0.08164000  1
  O  O61  1  0.54670600  0.65988600  0.25488000  1
  O  O62  1  0.66656900  0.97774000  0.57771300  1
  O  O63  1  0.56381900  0.22323100  0.46782400  1
  O  O64  1  0.22323100  0.56381900  0.96782400  1
  O  O65  1  0.81643500  0.29391500  0.36621300  1
  O  O66  1  0.20142600  0.52206700  0.76514800  1
  O  O67  1  0.67408100  0.82784000  0.38870600  1
  O  O68  1  0.54023900  0.37095100  0.93483700  1
  O  O69  1  0.85808600  0.35895700  0.75591500  1
  O  O70  1  0.62916400  0.92091800  0.20165100  1
  O  O71  1  0.45329400  0.34011400  0.74512000  1
  O  O72  1  0.82715900  0.10663900  0.85541200  1
  O  O73  1  0.03823900  0.44020900  0.58164000  1
  O  O74  1  0.12583600  0.87416400  0.75000000  1
  O  O75  1  0.45976100  0.62904900  0.06516300  1
  O  O76  1  0.18356500  0.70608500  0.63378700  1
  O  O77  1  0.37095100  0.54023900  0.43483700  1
loop_
_geom_bond_atom_site_label_1
_geom_bond_atom_site_label_2
_geom_bond_distance
_geom_bond_site_symmetry_2
Nd0 O15 2.351713 1_555
Nd0 O38 2.384393 1_555
Nd0 O34 2.470398 1_545
Nd0 O71 2.481425 1_555
Nd0 O63 2.521089 1_555
Nd0 O5 2.566799 1_555
Nd0 O29 2.598752 1_555
Nd0 O10 2.670208 1_555
Nd1 O33 2.280882 1_555
Nd1 O4 2.359346 1_555
Nd1 O3 2.377906 1_445
Nd1 O22 2.424185 1_555
Nd1 O45 2.512343 1_545
Nd1 O19 2.537091 1_555
Nd1 O47 2.538690 1_545
Nd2 O62 2.280882 1_555
Nd2 O25 2.359346 1_555
Nd2 O22 2.377906 1_665
Nd2 O3 2.424185 1_555
Nd2 O57 2.512343 1_565
Nd2 O35 2.537091 1_555
Nd2 O55 2.538697 1_565
Nd3 O53 2.351713 1_555
Nd3 O48 2.384393 1_555
Nd3 O2 2.470398 1_455
Nd3 O20 2.481425 1_555
Nd3 O64 2.521089 1_554
Nd3 O46 2.566799 1_555
Nd3 O51 2.598752 1_555
Nd3 O75 2.670208 1_555
Nd4 O11 2.362530 1_555
Nd4 O6 2.437066 1_555
Nd4 O60 2.447396 1_555
Nd4 O68 2.461715 1_554
Nd4 O7 2.463297 1_555
Nd4 O41 2.514349 1_555
Nd4 O44 2.542927 1_555
Nd4 O50 2.600433 1_554
Nd5 O21 2.280882 1_555
Nd5 O59 2.359346 1_555
Nd5 O24 2.377906 1_665
Nd5 O26 2.424185 1_554
Nd5 O12 2.512343 1_655
Nd5 O36 2.537091 1_555
Nd5 O13 2.538697 1_654
Nd6 O67 2.351713 1_555
Nd6 O30 2.384393 1_555
Nd6 O27 2.470398 1_565
Nd6 O61 2.481425 1_555
Nd6 O43 2.521089 1_555
Nd6 O70 2.566799 1_555
Nd6 O49 2.598752 1_555
Nd6 O77 2.670208 1_555
Nd7 O23 2.362530 1_555
Nd7 O65 2.437066 1_555
Nd7 O54 2.447396 1_555
Nd7 O10 2.461715 1_555
Nd7 O63 2.463297 1_555
Nd7 O17 2.514349 1_555
Nd7 O58 2.542927 1_555
Nd7 O29 2.600433 1_555
Nd8 O32 2.280882 1_555
Nd8 O42 2.359346 1_555
Nd8 O26 2.377906 1_445
Nd8 O24 2.424185 1_556
Nd8 O72 2.512343 1_455
Nd8 O8 2.537091 1_555
Nd8 O56 2.538697 1_456
Nd9 O1 2.362530 1_555
Nd9 O14 2.437066 1_555
Nd9 O16 2.447396 1_555
Nd9 O75 2.461715 1_556
Nd9 O64 2.463297 1_555
Nd9 O0 2.514349 1_555
Nd9 O52 2.542927 1_555
Nd9 O51 2.600433 1_556
Nd10 O28 2.362530 1_555
Nd10 O76 2.437066 1_555
Nd10 O73 2.447396 1_555
Nd10 O77 2.461715 1_555
Nd10 O43 2.463297 1_555
Nd10 O66 2.514349 1_555
Nd10 O40 2.542927 1_555
Nd10 O49 2.600433 1_555
Nd11 O18 2.351713 1_555
Nd11 O69 2.384393 1_555
Nd11 O31 2.470398 1_655
Nd11 O37 2.481425 1_555
Nd11 O7 2.521089 1_556
Nd11 O39 2.566799 1_555
Nd11 O50 2.598752 1_555
Nd11 O68 2.670208 1_555
Mo0 O66 1.778223 1_555
Mo0 O32 1.783196 1_555
Mo0 O31 1.787457 1_555
Mo0 O64 1.838722 1_555
Mo1 O23 1.765019 1_555
Mo1 O67 1.770521 1_555
Mo1 O59 1.794516 1_555
Mo1 O3 1.838362 1_555
Mo2 O44 1.780424 1_555
Mo2 O36 1.795094 1_555
Mo2 O61 1.822380 1_555
Mo2 O75 1.843726 1_555
Mo3 O73 1.779613 1_655
Mo3 O57 1.792828 1_555
Mo3 O69 1.818217 1_555
Mo3 O29 1.826489 1_555
Mo4 O60 1.779613 1_565
Mo4 O12 1.792828 1_555
Mo4 O30 1.818217 1_555
Mo4 O51 1.826489 1_555
Mo5 O54 1.779613 1_455
Mo5 O45 1.792828 1_555
Mo5 O48 1.818217 1_555
Mo5 O49 1.826489 1_555
Mo6 O28 1.765019 1_555
Mo6 O15 1.770521 1_555
Mo6 O42 1.794516 1_555
Mo6 O22 1.838362 1_555
Mo7 O70 1.760585 1_545
Mo7 O6 1.764414 1_555
Mo7 O56 1.764480 1_555
Mo7 O9 1.907797 1_555
Mo8 O46 1.760585 1_655
Mo8 O65 1.764414 1_555
Mo8 O55 1.764480 1_555
Mo8 O9 1.907797 1_555
Mo9 O16 1.779613 1_545
Mo9 O72 1.792828 1_555
Mo9 O38 1.818217 1_555
Mo9 O50 1.826489 1_555
Mo10 O40 1.780424 1_555
Mo10 O35 1.795094 1_555
Mo10 O37 1.822380 1_555
Mo10 O10 1.843726 1_555
Mo11 O41 1.778223 1_555
Mo11 O33 1.783196 1_555
Mo11 O27 1.787457 1_555
Mo11 O63 1.838722 1_555
Mo12 O58 1.780424 1_555
Mo12 O19 1.795094 1_555
Mo12 O20 1.822380 1_555
Mo12 O77 1.843726 1_555
Mo13 O5 1.760585 1_565
Mo13 O14 1.764414 1_555
Mo13 O13 1.764480 1_555
Mo13 O74 1.907797 1_555
Mo14 O52 1.780424 1_555
Mo14 O8 1.795094 1_555
Mo14 O71 1.822380 1_555
Mo14 O68 1.843726 1_555
Mo15 O39 1.760585 1_455
Mo15 O76 1.764414 1_555
Mo15 O47 1.764486 1_555
Mo15 O74 1.907797 1_555
Mo16 O0 1.778223 1_555
Mo16 O62 1.783196 1_555
Mo16 O34 1.787457 1_555
Mo16 O43 1.838722 1_555
Mo17 O1 1.765019 1_555
Mo17 O18 1.770521 1_555
Mo17 O25 1.794516 1_555
Mo17 O26 1.838362 1_555
Mo18 O17 1.778223 1_555
Mo18 O21 1.783196 1_555
Mo18 O2 1.787457 1_555
Mo18 O7 1.838722 1_555
Mo19 O11 1.765019 1_555
Mo19 O53 1.770521 1_555
Mo19 O4 1.794516 1_555
Mo19 O24 1.838362 1_555
