# generated using pymatgen
data_KH3C2S2O
_symmetry_space_group_name_H-M   'P 1'
_cell_length_a   6.64702700
_cell_length_b   10.71511086
_cell_length_c   13.97711986
_cell_angle_alpha   71.62422652
_cell_angle_beta   82.03530508
_cell_angle_gamma   84.19238091
_symmetry_Int_Tables_number   1
_chemical_formula_structural   KH3C2S2O
_chemical_formula_sum   'K6 H18 C12 S12 O6'
_cell_volume   933.87364601
_cell_formula_units_Z   6
loop_
 _symmetry_equiv_pos_site_id
 _symmetry_equiv_pos_as_xyz
  1  'x, y, z'
loop_
 _atom_site_type_symbol
 _atom_site_label
 _atom_site_symmetry_multiplicity
 _atom_site_fract_x
 _atom_site_fract_y
 _atom_site_fract_z
 _atom_site_occupancy
  K  K0  1  0.83663700  0.43359600  0.40261000  1
  K  K1  1  0.23702900  0.44919600  0.12954100  1
  K  K2  1  0.76297100  0.55080400  0.87045900  1
  K  K3  1  0.42422700  0.85997400  0.67613800  1
  K  K4  1  0.16336300  0.56640400  0.59739000  1
  K  K5  1  0.57577300  0.14002600  0.32386200  1
  H  H0  1  0.15934600  0.16744000  0.68442700  1
  H  H1  1  0.76028500  0.05514200  0.10178300  1
  H  H2  1  0.50879900  0.22918800  0.77604400  1
  H  H3  1  0.09351700  0.79529600  0.35410800  1
  H  H4  1  0.01990800  0.98846600  0.09694100  1
  H  H5  1  0.98009200  0.01153400  0.90305900  1
  H  H6  1  0.03502800  0.83916200  0.96292200  1
  H  H7  1  0.23971500  0.94485800  0.89821700  1
  H  H8  1  0.91604400  0.89983200  0.40775800  1
  H  H9  1  0.70781600  0.21412200  0.85552000  1
  H  H10  1  0.90648300  0.20470400  0.64589200  1
  H  H11  1  0.53821300  0.84719100  0.08919800  1
  H  H12  1  0.96497200  0.16083800  0.03707800  1
  H  H13  1  0.08395600  0.10016800  0.59224200  1
  H  H14  1  0.84065400  0.83256000  0.31557300  1
  H  H15  1  0.29218400  0.78587800  0.14448000  1
  H  H16  1  0.46178700  0.15280900  0.91080200  1
  H  H17  1  0.49120100  0.77081200  0.22395600  1
  C  C0  1  0.91924100  0.07468500  0.10115700  1
  C  C1  1  0.93277200  0.81522100  0.37830900  1
  C  C2  1  0.67876600  0.68731600  0.50478700  1
  C  C3  1  0.08075900  0.92531500  0.89884300  1
  C  C4  1  0.06722800  0.18477900  0.62169100  1
  C  C5  1  0.32123400  0.31268400  0.49521300  1
  C  C6  1  0.54361300  0.22927000  0.85055400  1
  C  C7  1  0.89557100  0.86897600  0.78080000  1
  C  C8  1  0.29630300  0.41212900  0.85438300  1
  C  C9  1  0.10442900  0.13102400  0.21920000  1
  C  C10  1  0.45638700  0.77073000  0.14944600  1
  C  C11  1  0.70369700  0.58787100  0.14561700  1
  S  S0  1  0.34942100  0.45067600  0.39424100  1
  S  S1  1  0.07901500  0.16654400  0.33076000  1
  S  S2  1  0.88100200  0.66560900  0.17693200  1
  S  S3  1  0.73872100  0.43772700  0.12579700  1
  S  S4  1  0.50575300  0.19740000  0.54087800  1
  S  S5  1  0.67971300  0.86813200  0.85992200  1
  S  S6  1  0.92098500  0.83345600  0.66924000  1
  S  S7  1  0.65057900  0.54932400  0.60575900  1
  S  S8  1  0.49424700  0.80260000  0.45912200  1
  S  S9  1  0.11899800  0.33439100  0.82306800  1
  S  S10  1  0.26127900  0.56227300  0.87420300  1
  S  S11  1  0.32028700  0.13186800  0.14007800  1
  O  O0  1  0.92537700  0.10007100  0.19646400  1
  O  O1  1  0.87582800  0.69704400  0.45912800  1
  O  O2  1  0.51069700  0.64282200  0.13499800  1
  O  O3  1  0.48930300  0.35717800  0.86500200  1
  O  O4  1  0.12417200  0.30295600  0.54087200  1
  O  O5  1  0.07462300  0.89992900  0.80353600  1
loop_
_geom_bond_atom_site_label_1
_geom_bond_atom_site_label_2
_geom_bond_distance
_geom_bond_site_symmetry_2
K0 O4 2.850174 1_655
K0 O1 3.205050 1_555
K0 S0 3.241426 1_555
K0 S2 3.341188 1_555
K0 S0 3.415733 1_655
K0 S4 3.441259 1_555
K0 S7 3.473624 1_555
K0 S1 3.496107 1_655
K1 O2 2.919136 1_555
K1 S2 3.292397 1_455
K1 S3 3.318316 1_555
K1 S3 3.335179 1_455
K1 S11 3.348938 1_555
K1 S10 3.374127 1_554
K1 S1 3.555340 1_555
K2 O3 2.919136 1_555
K2 S9 3.292397 1_655
K2 S10 3.318316 1_555
K2 S10 3.335179 1_655
K2 S5 3.348938 1_555
K2 S3 3.374127 1_556
K2 S6 3.555340 1_555
K3 O5 2.808341 1_555
K3 S8 3.243732 1_555
K3 S6 3.275999 1_555
K3 S5 3.297078 1_555
K3 S6 3.402717 1_455
K3 S4 3.569734 1_565
K3 S10 3.648695 1_555
K4 O1 2.850174 1_455
K4 O4 3.205050 1_555
K4 S7 3.241426 1_555
K4 S9 3.341188 1_555
K4 S7 3.415733 1_455
K4 S8 3.441259 1_555
K4 S0 3.473624 1_555
K4 S6 3.496107 1_455
K5 O0 2.808341 1_555
K5 S4 3.243732 1_555
K5 S1 3.275999 1_555
K5 S11 3.297078 1_555
K5 S1 3.402717 1_655
K5 S8 3.569734 1_545
K5 S3 3.648695 1_555
C0 H1 1.096065 1_555
C0 H4 1.096813 1_645
C0 H12 1.098547 1_555
C0 O0 1.447742 1_555
C1 H3 1.095833 1_655
C1 H14 1.096082 1_555
C1 H8 1.098154 1_555
C1 O1 1.448933 1_555
C2 O1 1.374026 1_555
C2 S8 1.688440 1_555
C2 S7 1.697123 1_555
C3 H7 1.096065 1_555
C3 H5 1.096813 1_465
C3 H6 1.098547 1_555
C3 O5 1.447742 1_555
C4 H10 1.095833 1_455
C4 H0 1.096082 1_555
C4 H13 1.098154 1_555
C4 O4 1.448933 1_555
C5 O4 1.374026 1_555
C5 S4 1.688440 1_555
C5 S0 1.697123 1_555
C6 H9 1.095669 1_555
C6 H16 1.097472 1_555
C6 H2 1.097972 1_555
C6 O3 1.450405 1_555
C7 O5 1.370631 1_655
C7 S5 1.684747 1_555
C7 S6 1.700865 1_555
C8 O3 1.363558 1_555
C8 S9 1.686979 1_555
C8 S10 1.704858 1_555
C9 O0 1.370631 1_455
C9 S11 1.684747 1_555
C9 S1 1.700865 1_555
C10 H15 1.095669 1_555
C10 H11 1.097472 1_555
C10 H17 1.097972 1_555
C10 O2 1.450405 1_555
C11 O2 1.363558 1_555
C11 S2 1.686979 1_555
C11 S3 1.704858 1_555
