# generated using pymatgen
data_LaSc3(BO3)4
_symmetry_space_group_name_H-M   'P 1'
_cell_length_a   6.23971717
_cell_length_b   6.23971717
_cell_length_c   6.23971714
_cell_angle_alpha   100.91667242
_cell_angle_beta   100.91667242
_cell_angle_gamma   100.91667864
_symmetry_Int_Tables_number   1
_chemical_formula_structural   LaSc3(BO3)4
_chemical_formula_sum   'La1 Sc3 B4 O12'
_cell_volume   227.74279399
_cell_formula_units_Z   1
loop_
 _symmetry_equiv_pos_site_id
 _symmetry_equiv_pos_as_xyz
  1  'x, y, z'
loop_
 _atom_site_type_symbol
 _atom_site_label
 _atom_site_symmetry_multiplicity
 _atom_site_fract_x
 _atom_site_fract_y
 _atom_site_fract_z
 _atom_site_occupancy
  La  La0  1  0.00000000  0.00000000  0.00000000  1
  Sc  Sc0  1  0.50625500  0.49374500  0.00000000  1
  Sc  Sc1  1  0.49374500  0.00000000  0.50625500  1
  Sc  Sc2  1  0.00000000  0.50625500  0.49374500  1
  B  B0  1  0.50000000  0.98845600  0.01154400  1
  B  B1  1  0.98845600  0.01154400  0.50000000  1
  B  B2  1  0.50000000  0.50000000  0.50000000  1
  B  B3  1  0.01154400  0.50000000  0.98845600  1
  O  O0  1  0.17292300  0.37643800  0.00320600  1
  O  O1  1  0.82707700  0.99679400  0.62356200  1
  O  O2  1  0.64473300  0.35526700  0.50000000  1
  O  O3  1  0.37643800  0.00320600  0.17292300  1
  O  O4  1  0.62356200  0.82707700  0.99679400  1
  O  O5  1  0.86722600  0.50000000  0.13277400  1
  O  O6  1  0.13277400  0.86722600  0.50000000  1
  O  O7  1  0.35526700  0.50000000  0.64473300  1
  O  O8  1  0.99679400  0.62356200  0.82707700  1
  O  O9  1  0.00320600  0.17292300  0.37643800  1
  O  O10  1  0.50000000  0.13277400  0.86722600  1
  O  O11  1  0.50000000  0.64473300  0.35526700  1
loop_
_geom_bond_atom_site_label_1
_geom_bond_atom_site_label_2
_geom_bond_distance
_geom_bond_site_symmetry_2
La0 O4 2.386605 1_444
La0 O0 2.386605 1_555
La0 O1 2.386605 1_444
La0 O9 2.386605 1_555
La0 O8 2.386605 1_444
La0 O3 2.386605 1_555
B0 O3 1.379382 1_565
B0 O4 1.379382 1_554
B0 O10 1.388868 1_564
B1 O1 1.379382 1_545
B1 O9 1.379382 1_655
B1 O6 1.388868 1_645
B2 O7 1.392862 1_555
B2 O11 1.392862 1_555
B2 O2 1.392862 1_555
B3 O8 1.379382 1_455
B3 O0 1.379382 1_556
B3 O5 1.388868 1_456
O0 Sc0 2.075287 1_555
O1 Sc1 2.075287 1_565
O2 Sc1 2.249185 1_555
O2 Sc2 2.249185 1_655
O3 Sc1 2.075287 1_555
O4 Sc0 2.075287 1_556
O5 Sc2 2.238008 1_655
O5 Sc0 2.238008 1_555
O6 Sc2 2.238008 1_555
O6 Sc1 2.238008 1_565
O7 Sc0 2.249185 1_556
O7 Sc2 2.249185 1_555
O8 Sc2 2.075287 1_655
O9 Sc2 2.075287 1_555
O10 Sc1 2.238008 1_555
O10 Sc0 2.238008 1_556
O11 Sc0 2.249185 1_555
O11 Sc1 2.249185 1_565
