# generated using pymatgen
data_MnTl2SnTe4
_symmetry_space_group_name_H-M   'P 1'
_cell_length_a   7.09026278
_cell_length_b   7.09026278
_cell_length_c   7.09026278
_cell_angle_alpha   104.52193868
_cell_angle_beta   104.52193868
_cell_angle_gamma   119.90071889
_symmetry_Int_Tables_number   1
_chemical_formula_structural   MnTl2SnTe4
_chemical_formula_sum   'Mn1 Tl2 Sn1 Te4'
_cell_volume   267.46342998
_cell_formula_units_Z   1
loop_
 _symmetry_equiv_pos_site_id
 _symmetry_equiv_pos_as_xyz
  1  'x, y, z'
loop_
 _atom_site_type_symbol
 _atom_site_label
 _atom_site_symmetry_multiplicity
 _atom_site_fract_x
 _atom_site_fract_y
 _atom_site_fract_z
 _atom_site_occupancy
  Mn  Mn0  1  0.50000000  0.50000000  0.00000000  1
  Tl  Tl0  1  0.00000000  0.50000000  0.50000000  1
  Tl  Tl1  1  0.50000000  0.00000000  0.50000000  1
  Sn  Sn0  1  0.00000000  0.00000000  0.00000000  1
  Te  Te0  1  0.57025700  0.92234900  0.00000000  1
  Te  Te1  1  0.07765100  0.07765100  0.64790800  1
  Te  Te2  1  0.92234900  0.57025700  0.00000000  1
  Te  Te3  1  0.42974300  0.42974300  0.35209200  1
loop_
_geom_bond_atom_site_label_1
_geom_bond_atom_site_label_2
_geom_bond_distance
_geom_bond_site_symmetry_2
Mn0 Te2 2.779988 1_555
Mn0 Te1 2.779988 1_554
Mn0 Te0 2.779988 1_555
Mn0 Te3 2.779988 1_555
Sn0 Te0 2.813315 1_445
Sn0 Te1 2.813315 1_554
Sn0 Te2 2.813315 1_445
Sn0 Te3 2.813315 1_555
