# generated using pymatgen
data_LiV2F6
_symmetry_space_group_name_H-M   'P 1'
_cell_length_a   4.65560962
_cell_length_b   4.65548064
_cell_length_c   9.25963519
_cell_angle_alpha   90.00017444
_cell_angle_beta   89.99968857
_cell_angle_gamma   90.00002486
_symmetry_Int_Tables_number   1
_chemical_formula_structural   LiV2F6
_chemical_formula_sum   'Li2 V4 F12'
_cell_volume   200.69426327
_cell_formula_units_Z   2
loop_
 _symmetry_equiv_pos_site_id
 _symmetry_equiv_pos_as_xyz
  1  'x, y, z'
loop_
 _atom_site_type_symbol
 _atom_site_label
 _atom_site_symmetry_multiplicity
 _atom_site_fract_x
 _atom_site_fract_y
 _atom_site_fract_z
 _atom_site_occupancy
  Li  Li0  1  0.50000000  0.50000000  0.50000000  1
  Li  Li1  1  -0.00000000  -0.00000000  -0.00000000  1
  V  V0  1  0.00000100  0.99999900  0.66740244  1
  V  V1  1  0.50000100  0.50000000  0.16740244  1
  V  V2  1  0.49999900  0.50000000  0.83259756  1
  V  V3  1  0.99999900  0.00000100  0.33259756  1
  F  F0  1  0.69848547  0.69842671  0.66788672  1
  F  F1  1  0.30151253  0.30157029  0.66788572  1
  F  F2  1  0.30389246  0.30397703  -0.00000000  1
  F  F3  1  0.19610854  0.80397703  0.50000000  1
  F  F4  1  0.80389146  0.19602297  0.50000000  1
  F  F5  1  0.69610754  0.69602297  0.00000000  1
  F  F6  1  0.30151453  0.30157329  0.33211328  1
  F  F7  1  0.19848647  0.80157029  0.83211528  1
  F  F8  1  0.80151353  0.19842671  0.83211428  1
  F  F9  1  0.80151353  0.19842971  0.16788472  1
  F  F10  1  0.19848647  0.80157329  0.16788572  1
  F  F11  1  0.69848747  0.69842971  0.33211428  1
loop_
_geom_bond_atom_site_label_1
_geom_bond_atom_site_label_2
_geom_bond_distance
_geom_bond_site_symmetry_2
F0 V0 1.985350 1_655
F0 V2 2.008328 1_555
F0 Li0 2.030752 1_555
F1 V0 1.985334 1_545
F1 V2 2.008345 1_555
F1 Li0 2.030752 1_555
F2 Li1 2.001086 1_555
F2 V2 2.017207 1_554
F2 V1 2.017214 1_555
F3 Li0 2.001084 1_555
F3 V0 2.017203 1_555
F3 V3 2.017223 1_465
F4 Li0 2.001084 1_555
F4 V3 2.017203 1_555
F4 V0 2.017223 1_645
F5 Li1 2.001086 1_665
F5 V1 2.017207 1_555
F5 V2 2.017214 1_554
F6 V3 1.985350 1_455
F6 V1 2.008328 1_555
F6 Li0 2.030752 1_555
F7 V2 1.985335 1_555
F7 V0 2.008352 1_555
F7 Li1 2.030739 1_566
F8 V2 1.985351 1_555
F8 V0 2.008336 1_645
F8 Li1 2.030752 1_656
F9 V1 1.985335 1_555
F9 V3 2.008352 1_555
F9 Li1 2.030739 1_655
F10 V1 1.985351 1_555
F10 V3 2.008336 1_465
F10 Li1 2.030752 1_565
F11 V3 1.985334 1_565
F11 V1 2.008345 1_555
F11 Li0 2.030752 1_555
