# generated using pymatgen
data_U3O8
_symmetry_space_group_name_H-M   'P 1'
_cell_length_a   6.74486028
_cell_length_b   6.74510643
_cell_length_c   8.30762631
_cell_angle_alpha   90.00000000
_cell_angle_beta   90.00000000
_cell_angle_gamma   117.17027363
_symmetry_Int_Tables_number   1
_chemical_formula_structural   U3O8
_chemical_formula_sum   'U6 O16'
_cell_volume   336.24788648
_cell_formula_units_Z   2
loop_
 _symmetry_equiv_pos_site_id
 _symmetry_equiv_pos_as_xyz
  1  'x, y, z'
loop_
 _atom_site_type_symbol
 _atom_site_label
 _atom_site_symmetry_multiplicity
 _atom_site_fract_x
 _atom_site_fract_y
 _atom_site_fract_z
 _atom_site_occupancy
  U  U0  1  0.65167006  0.34816928  0.25000000  1
  U  U1  1  0.98808860  0.01201632  0.75000000  1
  U  U2  1  0.66612739  0.33380319  0.75000000  1
  U  U3  1  0.34832994  0.65183072  0.75000000  1
  U  U4  1  0.01191140  0.98798368  0.25000000  1
  U  U5  1  0.33387261  0.66619681  0.25000000  1
  O  O0  1  0.99364549  0.37237345  0.75000000  1
  O  O1  1  0.65229117  0.34754840  0.01770546  1
  O  O2  1  0.66248356  0.70341494  0.25000000  1
  O  O3  1  0.00635451  0.62762655  0.25000000  1
  O  O4  1  0.65229117  0.34754840  0.48229454  1
  O  O5  1  0.16978019  0.83105106  0.75000000  1
  O  O6  1  0.34770883  0.65245160  0.98229454  1
  O  O7  1  0.29620004  0.33750456  0.25000000  1
  O  O8  1  0.37187714  0.99361507  0.25000000  1
  O  O9  1  0.70379996  0.66249544  0.75000000  1
  O  O10  1  -0.00000000  -0.00000000  -0.00000000  1
  O  O11  1  0.34770883  0.65245160  0.51770546  1
  O  O12  1  0.62812286  0.00638493  0.75000000  1
  O  O13  1  0.33751644  0.29658506  0.75000000  1
  O  O14  1  -0.00000000  -0.00000000  0.50000000  1
  O  O15  1  0.83021981  0.16894894  0.25000000  1
loop_
_geom_bond_atom_site_label_1
_geom_bond_atom_site_label_2
_geom_bond_distance
_geom_bond_site_symmetry_2
O0 U2 2.103040 1_555
O0 U3 2.271096 1_655
O0 U1 2.413763 1_555
O1 U0 1.929829 1_555
O1 U2 2.229657 1_554
O2 U5 2.113634 1_555
O2 U4 2.259975 1_655
O2 U0 2.363756 1_555
O3 U5 2.103040 1_555
O3 U0 2.271096 1_455
O3 U4 2.413763 1_555
O4 U0 1.929829 1_555
O4 U2 2.229657 1_555
O5 U3 2.059424 1_555
O5 U1 2.087554 1_465
O6 U3 1.929829 1_555
O6 U5 2.229657 1_556
O7 U5 2.113161 1_555
O7 U4 2.259712 1_545
O7 U0 2.365613 1_555
O8 U5 2.103816 1_555
O8 U0 2.271330 1_565
O8 U4 2.410810 1_555
O9 U2 2.113161 1_555
O9 U1 2.259712 1_565
O9 U3 2.365613 1_555
O10 U4 2.081469 1_545
O10 U1 2.081469 1_454
O11 U3 1.929829 1_555
O11 U5 2.229657 1_555
O12 U2 2.103816 1_555
O12 U3 2.271330 1_545
O12 U1 2.410810 1_555
O13 U2 2.113634 1_555
O13 U1 2.259975 1_455
O13 U3 2.363756 1_555
O14 U4 2.081469 1_545
O14 U1 2.081469 1_455
O15 U0 2.059424 1_555
O15 U4 2.087554 1_645
