# generated using pymatgen
data_Cs3Mn4(PO3)12
_symmetry_space_group_name_H-M   'P 1'
_cell_length_a   9.53006427
_cell_length_b   9.53006394
_cell_length_c   12.38089474
_cell_angle_alpha   59.02044802
_cell_angle_beta   59.02044677
_cell_angle_gamma   63.39470682
_symmetry_Int_Tables_number   1
_chemical_formula_structural   Cs3Mn4(PO3)12
_chemical_formula_sum   'Cs3 Mn4 P12 O36'
_cell_volume   800.54070316
_cell_formula_units_Z   1
loop_
 _symmetry_equiv_pos_site_id
 _symmetry_equiv_pos_as_xyz
  1  'x, y, z'
loop_
 _atom_site_type_symbol
 _atom_site_label
 _atom_site_symmetry_multiplicity
 _atom_site_fract_x
 _atom_site_fract_y
 _atom_site_fract_z
 _atom_site_occupancy
  Cs  Cs0  1  0.00000000  -0.00000000  0.50000000  1
  Cs  Cs1  1  0.78693268  0.21306722  0.99999999  1
  Cs  Cs2  1  0.21306732  0.78693278  0.00000001  1
  Mn  Mn0  1  0.20501129  0.20501104  0.59105286  1
  Mn  Mn1  1  0.79498871  0.79498896  0.40894714  1
  Mn  Mn2  1  0.75073512  0.75073515  0.92540054  1
  Mn  Mn3  1  0.24926488  0.24926485  0.07459946  1
  P  P0  1  0.83488852  0.41873310  0.19954703  1
  P  P1  1  0.58126697  0.16511151  0.80045290  1
  P  P2  1  0.16511148  0.58126690  0.80045297  1
  P  P3  1  0.41873303  0.83488849  0.19954710  1
  P  P4  1  0.60562983  0.19735960  0.37155896  1
  P  P5  1  0.80264040  0.39437022  0.62844103  1
  P  P6  1  0.39437017  0.80264040  0.62844104  1
  P  P7  1  0.19735960  0.60562978  0.37155897  1
  P  P8  1  0.33120901  0.33120904  0.27238048  1
  P  P9  1  0.66879099  0.66879096  0.72761952  1
  P  P10  1  0.76388879  0.76388886  0.17290901  1
  P  P11  1  0.23611121  0.23611114  0.82709099  1
  O  O0  1  0.67643808  0.34931150  0.32787512  1
  O  O1  1  0.65068861  0.32356179  0.67212492  1
  O  O2  1  0.32356192  0.65068850  0.67212488  1
  O  O3  1  0.34931139  0.67643821  0.32787508  1
  O  O4  1  0.99440703  0.29136874  0.21145691  1
  O  O5  1  0.70863121  0.00559301  0.78854312  1
  O  O6  1  0.00559297  0.70863126  0.78854309  1
  O  O7  1  0.29136879  0.99440699  0.21145688  1
  O  O8  1  0.81553694  0.56477342  0.23798343  1
  O  O9  1  0.43522642  0.18446296  0.76201686  1
  O  O10  1  0.18446306  0.43522658  0.76201657  1
  O  O11  1  0.56477358  0.81553704  0.23798314  1
  O  O12  1  0.80289333  0.49203928  0.07276676  1
  O  O13  1  0.50796078  0.19710658  0.92723322  1
  O  O14  1  0.19710667  0.50796072  0.92723324  1
  O  O15  1  0.49203922  0.80289342  0.07276678  1
  O  O16  1  0.75352012  0.05660105  0.34128052  1
  O  O17  1  0.94339899  0.24648001  0.65871941  1
  O  O18  1  0.24647988  0.94339895  0.65871948  1
  O  O19  1  0.05660101  0.75351999  0.34128059  1
  O  O20  1  0.47177645  0.17359427  0.50832198  1
  O  O21  1  0.82640568  0.52822359  0.49167804  1
  O  O22  1  0.52822355  0.82640573  0.49167802  1
  O  O23  1  0.17359432  0.47177641  0.50832196  1
  O  O24  1  0.52224921  0.27280434  0.26099328  1
  O  O25  1  0.72719556  0.47775078  0.73900668  1
  O  O26  1  0.47775079  0.72719566  0.73900672  1
  O  O27  1  0.27280444  0.52224922  0.26099332  1
  O  O28  1  0.33842293  0.33842300  0.14722626  1
  O  O29  1  0.66157707  0.66157700  0.85277374  1
  O  O30  1  0.22771442  0.22771441  0.40763924  1
  O  O31  1  0.77228558  0.77228559  0.59236076  1
  O  O32  1  0.82833025  0.82833041  0.22193209  1
  O  O33  1  0.17166975  0.17166959  0.77806791  1
  O  O34  1  0.82339034  0.82339033  0.02258520  1
  O  O35  1  0.17660966  0.17660967  0.97741480  1
loop_
_geom_bond_atom_site_label_1
_geom_bond_atom_site_label_2
_geom_bond_distance
_geom_bond_site_symmetry_2
Cs0 O31 3.136144 1_445
Cs0 O30 3.136144 1_555
Cs0 O4 3.213544 1_455
Cs0 O6 3.213544 1_545
Cs0 O7 3.213544 1_545
Cs0 O5 3.213544 1_455
Cs0 O16 3.492281 1_455
Cs0 O18 3.492281 1_545
Cs0 O19 3.492281 1_545
Cs0 O17 3.492281 1_455
Cs1 O24 3.056941 1_556
Cs1 O25 3.056942 1_555
Cs1 O32 3.255474 1_546
Cs1 O33 3.255475 1_655
Cs1 O13 3.297287 1_555
Cs1 O12 3.297288 1_556
Cs1 O34 3.444616 1_546
Cs1 O35 3.444617 1_655
Cs1 O28 3.559068 1_556
Cs1 O29 3.559068 1_555
Cs1 O17 3.568262 1_555
Cs1 O16 3.568262 1_556
Cs2 O26 3.056941 1_554
Cs2 O27 3.056942 1_555
Cs2 O33 3.255474 1_564
Cs2 O32 3.255475 1_455
Cs2 O15 3.297287 1_555
Cs2 O14 3.297288 1_554
Cs2 O35 3.444616 1_564
Cs2 O34 3.444617 1_455
Cs2 O29 3.559068 1_554
Cs2 O28 3.559068 1_555
Cs2 O19 3.568262 1_555
Cs2 O18 3.568262 1_554
Mn0 O33 2.034383 1_555
Mn0 O30 2.068961 1_555
Mn0 O18 2.093336 1_545
Mn0 O17 2.093337 1_455
Mn0 O20 2.134297 1_555
Mn0 O23 2.134299 1_555
Mn1 O32 2.034383 1_555
Mn1 O31 2.068961 1_555
Mn1 O16 2.093336 1_565
Mn1 O19 2.093337 1_655
Mn1 O22 2.134297 1_555
Mn1 O21 2.134299 1_555
Mn2 O29 2.114750 1_555
Mn2 O5 2.126387 1_565
Mn2 O6 2.126387 1_655
Mn2 O34 2.133401 1_556
Mn2 O12 2.204409 1_556
Mn2 O15 2.204409 1_556
Mn3 O28 2.114750 1_555
Mn3 O7 2.126387 1_545
Mn3 O4 2.126387 1_455
Mn3 O35 2.133401 1_554
Mn3 O14 2.204409 1_554
Mn3 O13 2.204409 1_554
O0 P4 1.593161 1_555
O0 P0 1.607824 1_555
O1 P5 1.593161 1_555
O1 P1 1.607823 1_555
O2 P6 1.593161 1_555
O2 P2 1.607824 1_555
O3 P7 1.593161 1_555
O3 P3 1.607823 1_555
O4 P0 1.483199 1_555
O5 P1 1.483198 1_555
O6 P2 1.483199 1_555
O7 P3 1.483198 1_555
O8 P10 1.577971 1_555
O8 P0 1.599714 1_555
O9 P11 1.577969 1_555
O9 P1 1.599714 1_555
O10 P11 1.577971 1_555
O10 P2 1.599714 1_555
O11 P10 1.577969 1_555
O11 P3 1.599714 1_555
O12 P0 1.489252 1_555
O13 P1 1.489252 1_555
O14 P2 1.489252 1_555
O15 P3 1.489252 1_555
O16 P4 1.485521 1_555
O17 P5 1.485521 1_555
O18 P6 1.485521 1_555
O19 P7 1.485521 1_555
O20 P4 1.478512 1_555
O21 P5 1.478512 1_555
O22 P6 1.478512 1_555
O23 P7 1.478512 1_555
O24 P8 1.597889 1_555
O24 P4 1.617751 1_555
O25 P9 1.597889 1_555
O25 P5 1.617750 1_555
O26 P9 1.597889 1_555
O26 P6 1.617751 1_555
O27 P8 1.597889 1_555
O27 P7 1.617750 1_555
O28 P8 1.481677 1_555
O29 P9 1.481677 1_555
O30 P8 1.490161 1_555
O31 P9 1.490161 1_555
O32 P10 1.492641 1_555
O33 P11 1.492641 1_555
O34 P10 1.490649 1_555
O35 P11 1.490649 1_555
