# generated using pymatgen
data_K4LiIO6
_symmetry_space_group_name_H-M   'P 1'
_cell_length_a   10.13538900
_cell_length_b   11.45765500
_cell_length_c   13.48230000
_cell_angle_alpha   90.00000000
_cell_angle_beta   90.00000000
_cell_angle_gamma   90.00000000
_symmetry_Int_Tables_number   1
_chemical_formula_structural   K4LiIO6
_chemical_formula_sum   'K32 Li8 I8 O48'
_cell_volume   1565.66970922
_cell_formula_units_Z   8
loop_
 _symmetry_equiv_pos_site_id
 _symmetry_equiv_pos_as_xyz
  1  'x, y, z'
loop_
 _atom_site_type_symbol
 _atom_site_label
 _atom_site_symmetry_multiplicity
 _atom_site_fract_x
 _atom_site_fract_y
 _atom_site_fract_z
 _atom_site_occupancy
  K  K0  1  0.88281200  0.40627900  0.69097000  1
  K  K1  1  0.88281200  0.09372100  0.19097000  1
  K  K2  1  0.06431600  0.55601400  0.89066700  1
  K  K3  1  0.93568400  0.05601400  0.60933300  1
  K  K4  1  0.79359000  0.80962900  0.30986700  1
  K  K5  1  0.83512400  0.97777300  0.93813300  1
  K  K6  1  0.06431600  0.94398600  0.39066700  1
  K  K7  1  0.56431600  0.94398600  0.10933300  1
  K  K8  1  0.43568400  0.05601400  0.89066700  1
  K  K9  1  0.38281200  0.09372100  0.30903000  1
  K  K10  1  0.16487600  0.02222700  0.06186700  1
  K  K11  1  0.29359000  0.80962900  0.19013300  1
  K  K12  1  0.20641000  0.19037100  0.69013300  1
  K  K13  1  0.20641000  0.30962900  0.19013300  1
  K  K14  1  0.43568400  0.44398600  0.39066700  1
  K  K15  1  0.16487600  0.47777300  0.56186700  1
  K  K16  1  0.70641000  0.30962900  0.30986700  1
  K  K17  1  0.56431600  0.55601400  0.60933300  1
  K  K18  1  0.61718800  0.59372100  0.19097000  1
  K  K19  1  0.33512400  0.52222700  0.06186700  1
  K  K20  1  0.70641000  0.19037100  0.80986700  1
  K  K21  1  0.79359000  0.69037100  0.80986700  1
  K  K22  1  0.66487600  0.02222700  0.43813300  1
  K  K23  1  0.11718800  0.59372100  0.30903000  1
  K  K24  1  0.61718800  0.90627900  0.69097000  1
  K  K25  1  0.93568400  0.44398600  0.10933300  1
  K  K26  1  0.33512400  0.97777300  0.56186700  1
  K  K27  1  0.29359000  0.69037100  0.69013300  1
  K  K28  1  0.11718800  0.90627900  0.80903000  1
  K  K29  1  0.38281200  0.40627900  0.80903000  1
  K  K30  1  0.83512400  0.52222700  0.43813300  1
  K  K31  1  0.66487600  0.47777300  0.93813300  1
  Li  Li0  1  0.80106900  0.25209600  0.50956900  1
  Li  Li1  1  0.19893100  0.74790400  0.49043100  1
  Li  Li2  1  0.19893100  0.75209600  0.99043100  1
  Li  Li3  1  0.80106900  0.24790400  0.00956900  1
  Li  Li4  1  0.69893100  0.75209600  0.50956900  1
  Li  Li5  1  0.30106900  0.25209600  0.99043100  1
  Li  Li6  1  0.69893100  0.74790400  0.00956900  1
  Li  Li7  1  0.30106900  0.24790400  0.49043100  1
  I  I0  1  0.54555800  0.25438000  0.60149400  1
  I  I1  1  0.04555800  0.24562000  0.39850600  1
  I  I2  1  0.45444200  0.74562000  0.39850600  1
  I  I3  1  0.54555800  0.24562000  0.10149400  1
  I  I4  1  0.95444200  0.74562000  0.10149400  1
  I  I5  1  0.04555800  0.25438000  0.89850600  1
  I  I6  1  0.95444200  0.75438000  0.60149400  1
  I  I7  1  0.45444200  0.75438000  0.89850600  1
  O  O0  1  0.61338400  0.65141200  0.40542000  1
  O  O1  1  0.79787900  0.65844600  0.60464800  1
  O  O2  1  0.52912900  0.66673100  0.00821300  1
  O  O3  1  0.02912900  0.83326900  0.99178700  1
  O  O4  1  0.63933300  0.14883800  0.00616100  1
  O  O5  1  0.47087100  0.16673100  0.49178700  1
  O  O6  1  0.97087100  0.33326900  0.50821300  1
  O  O7  1  0.70212100  0.34155400  0.10464800  1
  O  O8  1  0.88661600  0.34858800  0.90542000  1
  O  O9  1  0.11338400  0.84858800  0.59458000  1
  O  O10  1  0.39028300  0.85371500  0.79492300  1
  O  O11  1  0.36066700  0.85116200  0.99383900  1
  O  O12  1  0.20212100  0.15844600  0.89535200  1
  O  O13  1  0.53286100  0.84982600  0.30449300  1
  O  O14  1  0.29787900  0.65844600  0.89535200  1
  O  O15  1  0.60971700  0.14628500  0.20507700  1
  O  O16  1  0.70212100  0.15844600  0.60464800  1
  O  O17  1  0.86066700  0.85116200  0.50616100  1
  O  O18  1  0.60971700  0.35371500  0.70507700  1
  O  O19  1  0.61338400  0.84858800  0.90542000  1
  O  O20  1  0.38661600  0.15141200  0.09458000  1
  O  O21  1  0.47087100  0.33326900  0.99178700  1
  O  O22  1  0.10971700  0.35371500  0.79492300  1
  O  O23  1  0.79787900  0.84155400  0.10464800  1
  O  O24  1  0.96713900  0.34982600  0.30449300  1
  O  O25  1  0.89028300  0.85371500  0.70507700  1
  O  O26  1  0.96713900  0.15017400  0.80449300  1
  O  O27  1  0.88661600  0.15141200  0.40542000  1
  O  O28  1  0.13933300  0.35116200  0.99383900  1
  O  O29  1  0.89028300  0.64628500  0.20507700  1
  O  O30  1  0.29787900  0.84155400  0.39535200  1
  O  O31  1  0.02912900  0.66673100  0.49178700  1
  O  O32  1  0.10971700  0.14628500  0.29492300  1
  O  O33  1  0.53286100  0.65017400  0.80449300  1
  O  O34  1  0.46713900  0.34982600  0.19550700  1
  O  O35  1  0.03286100  0.65017400  0.69550700  1
  O  O36  1  0.38661600  0.34858800  0.59458000  1
  O  O37  1  0.97087100  0.16673100  0.00821300  1
  O  O38  1  0.03286100  0.84982600  0.19550700  1
  O  O39  1  0.46713900  0.15017400  0.69550700  1
  O  O40  1  0.52912900  0.83326900  0.50821300  1
  O  O41  1  0.20212100  0.34155400  0.39535200  1
  O  O42  1  0.13933300  0.14883800  0.49383900  1
  O  O43  1  0.86066700  0.64883800  0.00616100  1
  O  O44  1  0.36066700  0.64883800  0.49383900  1
  O  O45  1  0.11338400  0.65141200  0.09458000  1
  O  O46  1  0.39028300  0.64628500  0.29492300  1
  O  O47  1  0.63933300  0.35116200  0.50616100  1
loop_
_geom_bond_atom_site_label_1
_geom_bond_atom_site_label_2
_geom_bond_distance
_geom_bond_site_symmetry_2
K0 O6 2.750922 1_555
K0 O22 2.759698 1_655
K0 O18 2.839066 1_555
K0 O8 2.966127 1_555
K0 O35 3.182078 1_655
K0 O1 3.231598 1_555
K1 O37 2.750922 1_555
K1 O32 2.759698 1_655
K1 O15 2.839066 1_555
K1 O27 2.966127 1_555
K1 O38 3.182078 1_645
K1 O23 3.231598 1_545
K2 O14 2.642968 1_555
K2 O22 2.692688 1_555
K2 O43 2.795732 1_456
K2 O28 2.832306 1_555
K2 O35 2.861609 1_555
K2 O8 2.988591 1_455
K2 O45 3.000042 1_556
K3 O16 2.642968 1_555
K3 O25 2.692688 1_545
K3 O42 2.795732 1_655
K3 O17 2.832306 1_545
K3 O26 2.861609 1_555
K3 O9 2.988591 1_645
K3 O27 3.000042 1_555
K4 O29 2.541482 1_555
K4 O13 2.683403 1_555
K4 O17 2.773551 1_555
K4 O23 2.791237 1_555
K4 O0 2.877816 1_555
K4 O38 2.910414 1_655
K5 O3 2.670383 1_655
K5 O19 2.726956 1_555
K5 O37 2.733674 1_566
K5 O23 2.760161 1_556
K5 O4 2.936109 1_566
K5 O26 2.989741 1_565
K6 O30 2.642968 1_555
K6 O32 2.692688 1_565
K6 O17 2.795732 1_455
K6 O42 2.832306 1_565
K6 O38 2.861609 1_555
K6 O27 2.988591 1_465
K6 O9 3.000042 1_555
K7 O23 2.642968 1_555
K7 O15 2.692688 1_565
K7 O11 2.795732 1_554
K7 O4 2.832306 1_565
K7 O13 2.861609 1_555
K7 O20 2.988591 1_565
K7 O19 3.000042 1_554
K8 O12 2.642968 1_555
K8 O10 2.692688 1_545
K8 O4 2.795732 1_556
K8 O11 2.832306 1_545
K8 O39 2.861609 1_555
K8 O19 2.988591 1_545
K8 O20 3.000042 1_556
K9 O5 2.750922 1_555
K9 O15 2.759698 1_555
K9 O32 2.839066 1_555
K9 O20 2.966127 1_555
K9 O13 3.182078 1_545
K9 O30 3.231598 1_545
K10 O37 2.670383 1_455
K10 O20 2.726956 1_555
K10 O3 2.733674 1_544
K10 O12 2.760161 1_554
K10 O11 2.936109 1_544
K10 O38 2.989741 1_545
K11 O46 2.541482 1_555
K11 O38 2.683403 1_555
K11 O11 2.773551 1_554
K11 O30 2.791237 1_555
K11 O45 2.877816 1_555
K11 O13 2.910414 1_555
K12 O22 2.541482 1_555
K12 O39 2.683403 1_555
K12 O42 2.773551 1_555
K12 O12 2.791237 1_555
K12 O36 2.877816 1_555
K12 O26 2.910414 1_455
K13 O32 2.541482 1_555
K13 O34 2.683403 1_555
K13 O28 2.773551 1_554
K13 O41 2.791237 1_555
K13 O20 2.877816 1_555
K13 O24 2.910414 1_455
K14 O41 2.642968 1_555
K14 O46 2.692688 1_555
K14 O47 2.795732 1_555
K14 O44 2.832306 1_555
K14 O34 2.861609 1_555
K14 O0 2.988591 1_555
K14 O36 3.000042 1_555
K15 O6 2.670383 1_455
K15 O36 2.726956 1_555
K15 O31 2.733674 1_555
K15 O41 2.760161 1_555
K15 O44 2.936109 1_555
K15 O35 2.989741 1_555
K16 O15 2.541482 1_555
K16 O24 2.683403 1_555
K16 O47 2.773551 1_555
K16 O7 2.791237 1_555
K16 O27 2.877816 1_555
K16 O34 2.910414 1_555
K17 O1 2.642968 1_555
K17 O18 2.692688 1_555
K17 O44 2.795732 1_555
K17 O47 2.832306 1_555
K17 O33 2.861609 1_555
K17 O36 2.988591 1_555
K17 O0 3.000042 1_555
K18 O2 2.750922 1_555
K18 O46 2.759698 1_555
K18 O29 2.839066 1_555
K18 O0 2.966127 1_555
K18 O34 3.182078 1_555
K18 O7 3.231598 1_555
K19 O2 2.670383 1_555
K19 O45 2.726956 1_555
K19 O21 2.733674 1_554
K19 O14 2.760161 1_554
K19 O28 2.936109 1_554
K19 O34 2.989741 1_555
K20 O18 2.541482 1_555
K20 O26 2.683403 1_555
K20 O4 2.773551 1_556
K20 O16 2.791237 1_555
K20 O8 2.877816 1_555
K20 O39 2.910414 1_555
K21 O25 2.541482 1_555
K21 O33 2.683403 1_555
K21 O43 2.773551 1_556
K21 O1 2.791237 1_555
K21 O19 2.877816 1_555
K21 O35 2.910414 1_655
K22 O5 2.670383 1_555
K22 O27 2.726956 1_555
K22 O40 2.733674 1_545
K22 O16 2.760161 1_555
K22 O17 2.936109 1_545
K22 O13 2.989741 1_545
K23 O31 2.750922 1_555
K23 O29 2.759698 1_455
K23 O46 2.839066 1_555
K23 O45 2.966127 1_555
K23 O24 3.182078 1_455
K23 O41 3.231598 1_555
K24 O40 2.750922 1_555
K24 O10 2.759698 1_555
K24 O25 2.839066 1_555
K24 O19 2.966127 1_555
K24 O39 3.182078 1_565
K24 O16 3.231598 1_565
K25 O7 2.642968 1_555
K25 O29 2.692688 1_555
K25 O28 2.795732 1_654
K25 O43 2.832306 1_555
K25 O24 2.861609 1_555
K25 O45 2.988591 1_655
K25 O8 3.000042 1_554
K26 O40 2.670383 1_555
K26 O9 2.726956 1_555
K26 O5 2.733674 1_565
K26 O30 2.760161 1_555
K26 O42 2.936109 1_565
K26 O39 2.989741 1_565
K27 O10 2.541482 1_555
K27 O35 2.683403 1_555
K27 O44 2.773551 1_555
K27 O14 2.791237 1_555
K27 O9 2.877816 1_555
K27 O33 2.910414 1_555
K28 O3 2.750922 1_555
K28 O25 2.759698 1_455
K28 O10 2.839066 1_555
K28 O9 2.966127 1_555
K28 O26 3.182078 1_465
K28 O12 3.231598 1_565
K29 O21 2.750922 1_555
K29 O18 2.759698 1_555
K29 O22 2.839066 1_555
K29 O36 2.966127 1_555
K29 O33 3.182078 1_555
K29 O14 3.231598 1_555
K30 O31 2.670383 1_655
K30 O0 2.726956 1_555
K30 O6 2.733674 1_555
K30 O1 2.760161 1_555
K30 O47 2.936109 1_555
K30 O24 2.989741 1_555
K31 O21 2.670383 1_555
K31 O8 2.726956 1_555
K31 O2 2.733674 1_556
K31 O7 2.760161 1_556
K31 O43 2.936109 1_556
K31 O33 2.989741 1_555
Li0 O16 1.949445 1_555
Li0 O6 1.956324 1_555
Li0 O47 1.994404 1_555
Li0 O27 2.013521 1_555
Li1 O30 1.949445 1_555
Li1 O31 1.956324 1_555
Li1 O44 1.994404 1_555
Li1 O9 2.013521 1_555
Li2 O14 1.949445 1_555
Li2 O3 1.956324 1_555
Li2 O11 1.994404 1_555
Li2 O45 2.013521 1_556
Li3 O7 1.949445 1_555
Li3 O37 1.956324 1_555
Li3 O4 1.994404 1_555
Li3 O8 2.013521 1_554
Li4 O1 1.949445 1_555
Li4 O40 1.956324 1_555
Li4 O17 1.994404 1_555
Li4 O0 2.013521 1_555
Li5 O12 1.949445 1_555
Li5 O21 1.956324 1_555
Li5 O28 1.994404 1_555
Li5 O20 2.013521 1_556
Li6 O23 1.949445 1_555
Li6 O2 1.956324 1_555
Li6 O43 1.994404 1_555
Li6 O19 2.013521 1_554
Li7 O41 1.949445 1_555
Li7 O5 1.956324 1_555
Li7 O42 1.994404 1_555
Li7 O36 2.013521 1_555
I0 O39 1.914115 1_555
I0 O18 1.915346 1_555
I0 O16 1.930809 1_555
I0 O36 1.941372 1_555
I0 O5 1.941465 1_555
I0 O47 1.945511 1_555
I1 O24 1.914115 1_455
I1 O32 1.915346 1_555
I1 O41 1.930809 1_555
I1 O27 1.941372 1_455
I1 O6 1.941465 1_455
I1 O42 1.945511 1_555
I2 O13 1.914115 1_555
I2 O46 1.915346 1_555
I2 O30 1.930809 1_555
I2 O0 1.941372 1_555
I2 O40 1.941465 1_555
I2 O44 1.945511 1_555
I3 O34 1.914115 1_555
I3 O15 1.915346 1_555
I3 O7 1.930809 1_555
I3 O20 1.941372 1_555
I3 O21 1.941465 1_554
I3 O4 1.945511 1_555
I4 O38 1.914115 1_655
I4 O29 1.915346 1_555
I4 O23 1.930809 1_555
I4 O45 1.941372 1_655
I4 O3 1.941465 1_654
I4 O43 1.945511 1_555
I5 O26 1.914115 1_455
I5 O22 1.915346 1_555
I5 O12 1.930809 1_555
I5 O8 1.941372 1_455
I5 O37 1.941465 1_456
I5 O28 1.945511 1_555
I6 O35 1.914115 1_655
I6 O25 1.915346 1_555
I6 O1 1.930809 1_555
I6 O9 1.941372 1_655
I6 O31 1.941465 1_655
I6 O17 1.945511 1_555
I7 O33 1.914115 1_555
I7 O10 1.915346 1_555
I7 O14 1.930809 1_555
I7 O19 1.941372 1_555
I7 O2 1.941465 1_556
I7 O11 1.945511 1_555
