# generated using pymatgen
data_Ti4Tl2O9
_symmetry_space_group_name_H-M   'P 1'
_cell_length_a   9.77070006
_cell_length_b   9.77070006
_cell_length_c   12.09408223
_cell_angle_alpha   73.62445914
_cell_angle_beta   73.62445914
_cell_angle_gamma   22.27142203
_symmetry_Int_Tables_number   1
_chemical_formula_structural   Ti4Tl2O9
_chemical_formula_sum   'Ti8 Tl4 O18'
_cell_volume   419.12630342
_cell_formula_units_Z   2
loop_
 _symmetry_equiv_pos_site_id
 _symmetry_equiv_pos_as_xyz
  1  'x, y, z'
loop_
 _atom_site_type_symbol
 _atom_site_label
 _atom_site_symmetry_multiplicity
 _atom_site_fract_x
 _atom_site_fract_y
 _atom_site_fract_z
 _atom_site_occupancy
  Ti  Ti0  1  0.75418348  0.75418348  0.16735688  1
  Ti  Ti1  1  0.24581652  0.24581652  0.83264312  1
  Ti  Ti2  1  0.16461310  0.16461310  0.37655820  1
  Ti  Ti3  1  0.83538690  0.83538690  0.62344180  1
  Ti  Ti4  1  0.12796326  0.12796326  0.13764916  1
  Ti  Ti5  1  0.87203674  0.87203674  0.86235084  1
  Ti  Ti6  1  0.79605345  0.79605345  0.39696631  1
  Ti  Ti7  1  0.20394655  0.20394655  0.60303369  1
  Tl  Tl0  1  0.41738813  0.41738813  0.08680114  1
  Tl  Tl1  1  0.58261187  0.58261187  0.91319886  1
  Tl  Tl2  1  0.48728231  0.48728231  0.32170933  1
  Tl  Tl3  1  0.51271769  0.51271769  0.67829067  1
  O  O0  1  0.23223081  0.23223081  0.20089644  1
  O  O1  1  0.76776919  0.76776919  0.79910356  1
  O  O2  1  0.69436337  0.69436337  0.35814944  1
  O  O3  1  0.30563663  0.30563663  0.64185056  1
  O  O4  1  0.65494246  0.65494246  0.14429094  1
  O  O5  1  0.34505754  0.34505754  0.85570906  1
  O  O6  1  0.26851262  0.26851262  0.42229939  1
  O  O7  1  0.73148738  0.73148738  0.57770061  1
  O  O8  1  0.08923124  0.08923124  0.31757891  1
  O  O9  1  0.91076876  0.91076876  0.68242109  1
  O  O10  1  0.04083400  0.04083400  0.12264493  1
  O  O11  1  0.95916600  0.95916600  0.87735507  1
  O  O12  1  0.87299614  0.87299614  0.46231383  1
  O  O13  1  0.12700386  0.12700386  0.53768617  1
  O  O14  1  0.83460077  0.83460077  0.24216839  1
  O  O15  1  0.16539923  0.16539923  0.75783161  1
  O  O16  1  0.81512657  0.81512657  0.02655321  1
  O  O17  1  0.18487343  0.18487343  0.97344679  1
loop_
_geom_bond_atom_site_label_1
_geom_bond_atom_site_label_2
_geom_bond_distance
_geom_bond_site_symmetry_2
O0 Ti0 1.950523 1_455
O0 Ti0 1.950523 1_545
O0 Ti2 2.147402 1_555
O0 Ti4 2.336792 1_555
O1 Ti1 1.950523 1_565
O1 Ti1 1.950523 1_655
O1 Ti3 2.147402 1_555
O1 Ti5 2.336792 1_555
O2 Ti2 1.965431 1_655
O2 Ti2 1.965431 1_565
O2 Ti6 2.132591 1_555
O2 Ti0 2.262511 1_555
O3 Ti3 1.965431 1_545
O3 Ti3 1.965431 1_455
O3 Ti7 2.132591 1_555
O3 Ti1 2.262511 1_555
O4 Ti4 1.964401 1_655
O4 Ti4 1.964401 1_565
O4 Ti0 2.000874 1_555
O5 Ti5 1.964401 1_545
O5 Ti5 1.964401 1_455
O5 Ti1 2.000874 1_555
O6 Ti6 1.959768 1_455
O6 Ti6 1.959768 1_545
O6 Ti7 2.180657 1_555
O6 Ti2 2.215372 1_555
O7 Ti7 1.959768 1_655
O7 Ti7 1.959768 1_565
O7 Ti6 2.180657 1_555
O7 Ti3 2.215372 1_555
O8 Ti2 1.786129 1_555
O8 Ti4 2.087616 1_555
O8 Tl2 2.707075 1_455
O8 Tl2 2.707075 1_545
O9 Ti3 1.786129 1_555
O9 Ti5 2.087616 1_555
O9 Tl3 2.707075 1_655
O9 Tl3 2.707075 1_565
O10 Ti4 1.731459 1_555
O11 Ti5 1.731459 1_555
O12 Ti6 1.863070 1_555
O12 Ti3 1.873459 1_555
O13 Ti7 1.863070 1_555
O13 Ti2 1.873459 1_555
O14 Ti6 1.804433 1_555
O14 Ti0 1.999432 1_555
O14 Tl0 2.810199 1_565
O14 Tl0 2.810199 1_655
O15 Ti7 1.804433 1_555
O15 Ti1 1.999432 1_555
O15 Tl1 2.810199 1_545
O15 Tl1 2.810199 1_455
O16 Ti0 1.766832 1_555
O16 Ti5 1.972069 1_554
O17 Ti1 1.766832 1_555
O17 Ti4 1.972069 1_556
