# generated using pymatgen
data_Sc2O3
_symmetry_space_group_name_H-M   'P 1'
_cell_length_a   3.20141516
_cell_length_b   6.82539606
_cell_length_c   8.01626019
_cell_angle_alpha   100.25734890
_cell_angle_beta   90.00000000
_cell_angle_gamma   103.56346566
_symmetry_Int_Tables_number   1
_chemical_formula_structural   Sc2O3
_chemical_formula_sum   'Sc6 O9'
_cell_volume   167.39640148
_cell_formula_units_Z   3
loop_
 _symmetry_equiv_pos_site_id
 _symmetry_equiv_pos_as_xyz
  1  'x, y, z'
loop_
 _atom_site_type_symbol
 _atom_site_label
 _atom_site_symmetry_multiplicity
 _atom_site_fract_x
 _atom_site_fract_y
 _atom_site_fract_z
 _atom_site_occupancy
  Sc  Sc0  1  0.96869779  0.93739659  0.18410588  1
  Sc  Sc1  1  0.63593659  0.27187119  0.48633349  1
  Sc  Sc2  1  0.30846107  0.61692213  0.86343612  1
  Sc  Sc3  1  0.03130221  0.06260341  0.81589412  1
  Sc  Sc4  1  0.36406341  0.72812881  0.51366651  1
  Sc  Sc5  1  0.69153893  0.38307787  0.13656388  1
  O  O0  1  0.17373948  0.34747896  0.96505185  1
  O  O1  1  0.82626052  0.65252104  0.03494815  1
  O  O2  1  0.20954599  0.41909298  0.62155380  1
  O  O3  1  0.87414055  0.74828010  0.72038971  1
  O  O4  1  0.50000000  0.00000000  0.00000000  1
  O  O5  1  0.79045401  0.58090702  0.37844620  1
  O  O6  1  0.46694680  0.93389360  0.34170961  1
  O  O7  1  0.12585945  0.25171990  0.27961029  1
  O  O8  1  0.53305320  0.06610640  0.65829039  1
loop_
_geom_bond_atom_site_label_1
_geom_bond_atom_site_label_2
_geom_bond_distance
_geom_bond_site_symmetry_2
O0 Sc3 2.043133 1_555
O0 Sc5 2.095087 1_556
O0 Sc5 2.095087 1_456
O0 Sc2 2.095987 1_555
O1 Sc0 2.043133 1_555
O1 Sc2 2.095087 1_554
O1 Sc2 2.095087 1_654
O1 Sc5 2.095987 1_555
O2 Sc1 2.074486 1_455
O2 Sc1 2.074493 1_555
O2 Sc2 2.133118 1_555
O2 Sc4 2.366867 1_555
O3 Sc3 2.085829 1_665
O3 Sc2 2.236727 1_655
O3 Sc2 2.236729 1_555
O3 Sc4 2.290216 1_655
O3 Sc4 2.290223 1_555
O4 Sc3 2.266603 1_554
O4 Sc0 2.266603 1_545
O4 Sc3 2.266605 1_654
O4 Sc0 2.266605 1_445
O4 Sc2 2.576717 1_544
O4 Sc5 2.576717 1_555
O5 Sc4 2.074486 1_655
O5 Sc4 2.074493 1_555
O5 Sc5 2.133118 1_555
O5 Sc1 2.366867 1_555
O6 Sc0 2.041989 1_555
O6 Sc0 2.041991 1_455
O6 Sc4 2.110336 1_555
O6 Sc1 2.328175 1_565
O7 Sc0 2.085829 1_445
O7 Sc5 2.236727 1_455
O7 Sc5 2.236729 1_555
O7 Sc1 2.290216 1_455
O7 Sc1 2.290223 1_555
O8 Sc3 2.041989 1_555
O8 Sc3 2.041991 1_655
O8 Sc1 2.110336 1_555
O8 Sc4 2.328175 1_545
