# generated using pymatgen
data_Ba21Ge2O5
_symmetry_space_group_name_H-M   'P 1'
_cell_length_a   15.06080451
_cell_length_b   15.06080451
_cell_length_c   15.06080451
_cell_angle_alpha   60.00000000
_cell_angle_beta   60.00000000
_cell_angle_gamma   60.00000000
_symmetry_Int_Tables_number   1
_chemical_formula_structural   Ba21Ge2O5
_chemical_formula_sum   'Ba42 Ge4 O10'
_cell_volume   2415.62500477
_cell_formula_units_Z   2
loop_
 _symmetry_equiv_pos_site_id
 _symmetry_equiv_pos_as_xyz
  1  'x, y, z'
loop_
 _atom_site_type_symbol
 _atom_site_label
 _atom_site_symmetry_multiplicity
 _atom_site_fract_x
 _atom_site_fract_y
 _atom_site_fract_z
 _atom_site_occupancy
  Ba  Ba0  1  0.67077900  0.67077900  0.93127100  1
  Ba  Ba1  1  0.75113800  0.75113800  0.49886200  1
  Ba  Ba2  1  0.87500000  0.87500000  0.87500000  1
  Ba  Ba3  1  0.24886200  0.50113800  0.24886200  1
  Ba  Ba4  1  0.93127100  0.67077900  0.67077900  1
  Ba  Ba5  1  0.50113800  0.24886200  0.50113800  1
  Ba  Ba6  1  0.50000000  0.00000000  0.00000000  1
  Ba  Ba7  1  0.32922100  0.32922100  0.06872900  1
  Ba  Ba8  1  0.22717200  0.67077900  0.67077900  1
  Ba  Ba9  1  0.32922100  0.77282800  0.06872900  1
  Ba  Ba10  1  0.22717200  0.93127100  0.67077900  1
  Ba  Ba11  1  0.06872900  0.32922100  0.32922100  1
  Ba  Ba12  1  0.06872900  0.77282800  0.32922100  1
  Ba  Ba13  1  0.50113800  0.24886200  0.24886200  1
  Ba  Ba14  1  0.67077900  0.93127100  0.67077900  1
  Ba  Ba15  1  0.75113800  0.49886200  0.75113800  1
  Ba  Ba16  1  0.49886200  0.75113800  0.75113800  1
  Ba  Ba17  1  0.67077900  0.22717200  0.93127100  1
  Ba  Ba18  1  0.24886200  0.50113800  0.50113800  1
  Ba  Ba19  1  0.12500000  0.12500000  0.12500000  1
  Ba  Ba20  1  0.93127100  0.67077900  0.22717200  1
  Ba  Ba21  1  0.32922100  0.77282800  0.32922100  1
  Ba  Ba22  1  0.32922100  0.06872900  0.32922100  1
  Ba  Ba23  1  0.77282800  0.32922100  0.06872900  1
  Ba  Ba24  1  0.50113800  0.50113800  0.24886200  1
  Ba  Ba25  1  0.49886200  0.49886200  0.75113800  1
  Ba  Ba26  1  0.67077900  0.22717200  0.67077900  1
  Ba  Ba27  1  0.67077900  0.93127100  0.22717200  1
  Ba  Ba28  1  0.93127100  0.22717200  0.67077900  1
  Ba  Ba29  1  0.49886200  0.75113800  0.49886200  1
  Ba  Ba30  1  0.75113800  0.49886200  0.49886200  1
  Ba  Ba31  1  0.00000000  0.50000000  0.00000000  1
  Ba  Ba32  1  0.77282800  0.32922100  0.32922100  1
  Ba  Ba33  1  0.32922100  0.32922100  0.77282800  1
  Ba  Ba34  1  0.06872900  0.32922100  0.77282800  1
  Ba  Ba35  1  0.77282800  0.06872900  0.32922100  1
  Ba  Ba36  1  0.22717200  0.67077900  0.93127100  1
  Ba  Ba37  1  0.67077900  0.67077900  0.22717200  1
  Ba  Ba38  1  0.32922100  0.06872900  0.77282800  1
  Ba  Ba39  1  0.24886200  0.24886200  0.50113800  1
  Ba  Ba40  1  0.00000000  0.00000000  0.50000000  1
  Ba  Ba41  1  0.00000000  0.00000000  0.00000000  1
  Ge  Ge0  1  0.50000000  0.50000000  0.50000000  1
  Ge  Ge1  1  0.00000000  0.50000000  0.50000000  1
  Ge  Ge2  1  0.50000000  0.50000000  0.00000000  1
  Ge  Ge3  1  0.50000000  0.00000000  0.50000000  1
  O  O0  1  0.65067000  0.28311000  0.28311000  1
  O  O1  1  0.37500000  0.37500000  0.37500000  1
  O  O2  1  0.28311000  0.28311000  0.65067000  1
  O  O3  1  0.62500000  0.62500000  0.62500000  1
  O  O4  1  0.71689000  0.71689000  0.71689000  1
  O  O5  1  0.71689000  0.34933000  0.71689000  1
  O  O6  1  0.71689000  0.71689000  0.34933000  1
  O  O7  1  0.28311000  0.28311000  0.28311000  1
  O  O8  1  0.28311000  0.65067000  0.28311000  1
  O  O9  1  0.34933000  0.71689000  0.71689000  1
loop_
_geom_bond_atom_site_label_1
_geom_bond_atom_site_label_2
_geom_bond_distance
_geom_bond_site_symmetry_2
Ba0 O4 2.717932 1_555
Ba0 Ge2 3.948837 1_556
Ba0 Ba31 4.689237 1_656
Ba0 Ba6 4.689237 1_566
Ba0 Ba2 4.887263 1_555
Ba1 O3 2.686638 1_555
Ba1 O6 2.862383 1_555
Ba1 O4 2.862383 1_555
Ba1 Ge3 3.765279 1_565
Ba1 Ge1 3.765279 1_655
Ba2 Ba41 4.611411 1_666
Ba2 Ba40 4.611411 1_665
Ba2 Ba31 4.611411 1_656
Ba2 Ba6 4.611411 1_566
Ba2 Ba4 4.887263 1_555
Ba2 Ba26 4.887270 1_565
Ba2 Ba37 4.887270 1_556
Ba2 Ba8 4.887270 1_655
Ba2 Ba36 4.887276 1_655
Ba2 Ba20 4.887276 1_556
Ba2 Ba27 4.887276 1_556
Ba2 Ba28 4.887276 1_565
Ba3 O1 2.686638 1_555
Ba3 O7 2.862383 1_555
Ba3 O8 2.862383 1_555
Ba3 Ge2 3.765279 1_555
Ba3 Ge1 3.765279 1_555
Ba4 O4 2.717932 1_555
Ba4 Ge1 3.948837 1_655
Ba4 Ba40 4.689237 1_665
Ba5 O1 2.686638 1_555
Ba5 O2 2.862383 1_555
Ba5 O0 2.862383 1_555
Ba5 Ge3 3.765279 1_555
Ba5 Ge0 3.765279 1_555
Ba6 Ba7 4.689237 1_555
Ba6 Ba9 4.689251 1_545
Ba7 O7 2.717932 1_555
Ba7 Ge2 3.948837 1_555
Ba8 O9 2.717918 1_555
Ba8 Ge0 3.948831 1_555
Ba9 O8 2.717929 1_555
Ba9 Ge2 3.948824 1_555
Ba10 O9 2.717929 1_555
Ba10 Ge3 3.948824 1_565
Ba10 Ba41 4.689239 1_566
Ba10 Ba40 4.689251 1_565
Ba10 Ba2 4.887276 1_455
Ba11 O7 2.717932 1_555
Ba11 Ge1 3.948837 1_555
Ba11 Ba40 4.689237 1_555
Ba11 Ba31 4.689237 1_555
Ba11 Ba19 4.887263 1_555
Ba12 O8 2.717929 1_555
Ba12 Ge1 3.948824 1_555
Ba12 Ba41 4.689239 1_565
Ba12 Ba40 4.689251 1_565
Ba12 Ba19 4.887276 1_565
Ba13 O1 2.686638 1_555
Ba13 O7 2.862383 1_555
Ba13 O0 2.862383 1_555
Ba13 Ge2 3.765279 1_555
Ba13 Ge3 3.765279 1_555
Ba14 O4 2.717932 1_555
Ba14 Ge3 3.948837 1_565
Ba14 Ba40 4.689237 1_665
Ba14 Ba6 4.689237 1_566
Ba14 Ba2 4.887263 1_555
Ba15 O3 2.686638 1_555
Ba15 O5 2.862383 1_555
Ba15 O4 2.862383 1_555
Ba15 Ge2 3.765279 1_556
Ba15 Ge1 3.765279 1_655
Ba16 O3 2.686638 1_555
Ba16 O9 2.862383 1_555
Ba16 O4 2.862383 1_555
Ba16 Ge2 3.765279 1_556
Ba16 Ge3 3.765279 1_565
Ba17 O5 2.717929 1_555
Ba17 Ge2 3.948824 1_556
Ba17 Ba41 4.689239 1_656
Ba17 Ba6 4.689251 1_556
Ba17 Ba2 4.887276 1_545
Ba18 O1 2.686638 1_555
Ba18 O2 2.862383 1_555
Ba18 O8 2.862383 1_555
Ba18 Ge0 3.765279 1_555
Ba18 Ge1 3.765279 1_555
Ba19 Ba40 4.611411 1_555
Ba19 Ba6 4.611411 1_555
Ba19 Ba41 4.611411 1_555
Ba19 Ba31 4.611411 1_555
Ba19 Ba22 4.887263 1_555
Ba19 Ba7 4.887263 1_555
Ba19 Ba32 4.887270 1_455
Ba19 Ba21 4.887270 1_545
Ba19 Ba33 4.887270 1_554
Ba19 Ba34 4.887276 1_554
Ba19 Ba23 4.887276 1_455
Ba19 Ba35 4.887276 1_455
Ba19 Ba38 4.887276 1_554
Ba19 Ba9 4.887276 1_545
Ba20 O6 2.717929 1_555
Ba20 Ge1 3.948824 1_655
Ba20 Ba41 4.689239 1_665
Ba20 Ba31 4.689251 1_655
Ba21 O8 2.717918 1_555
Ba21 Ge0 3.948831 1_555
Ba21 Ba40 4.689245 1_565
Ba21 Ba6 4.689245 1_565
Ba22 O7 2.717932 1_555
Ba22 Ge3 3.948837 1_555
Ba22 Ba40 4.689237 1_555
Ba22 Ba6 4.689237 1_555
Ba23 O0 2.717929 1_555
Ba23 Ge2 3.948824 1_555
Ba23 Ba41 4.689239 1_655
Ba23 Ba31 4.689251 1_655
Ba24 O1 2.686638 1_555
Ba24 O8 2.862383 1_555
Ba24 O0 2.862383 1_555
Ba24 Ge2 3.765279 1_555
Ba24 Ge0 3.765279 1_555
Ba25 O3 2.686638 1_555
Ba25 O5 2.862383 1_555
Ba25 O9 2.862383 1_555
Ba25 Ge0 3.765279 1_555
Ba25 Ge2 3.765279 1_556
Ba26 O5 2.717918 1_555
Ba26 Ge0 3.948831 1_555
Ba26 Ba40 4.689245 1_655
Ba26 Ba6 4.689245 1_556
Ba27 O6 2.717929 1_555
Ba27 Ge3 3.948824 1_565
Ba27 Ba41 4.689239 1_665
Ba27 Ba6 4.689251 1_565
Ba28 O5 2.717929 1_555
Ba28 Ge1 3.948824 1_655
Ba28 Ba41 4.689239 1_656
Ba28 Ba40 4.689251 1_655
Ba29 O3 2.686638 1_555
Ba29 O6 2.862383 1_555
Ba29 O9 2.862383 1_555
Ba29 Ge0 3.765279 1_555
Ba29 Ge3 3.765279 1_565
Ba30 O3 2.686638 1_555
Ba30 O6 2.862383 1_555
Ba30 O5 2.862383 1_555
Ba30 Ge0 3.765279 1_555
Ba30 Ge1 3.765279 1_655
Ba31 Ba7 4.689237 1_555
Ba31 Ba4 4.689237 1_454
Ba31 Ba37 4.689245 1_455
Ba31 Ba8 4.689245 1_554
Ba31 Ba32 4.689245 1_455
Ba31 Ba33 4.689245 1_554
Ba31 Ba36 4.689251 1_554
Ba31 Ba34 4.689251 1_554
Ba32 O0 2.717918 1_555
Ba32 Ge0 3.948831 1_555
Ba32 Ba40 4.689245 1_655
Ba33 O2 2.717918 1_555
Ba33 Ge0 3.948831 1_555
Ba33 Ba6 4.689245 1_556
Ba34 O2 2.717929 1_555
Ba34 Ge1 3.948824 1_555
Ba34 Ba41 4.689239 1_556
Ba35 O0 2.717929 1_555
Ba35 Ge3 3.948824 1_555
Ba35 Ba41 4.689239 1_655
Ba35 Ba40 4.689251 1_655
Ba36 O9 2.717929 1_555
Ba36 Ge2 3.948824 1_556
Ba36 Ba41 4.689239 1_566
Ba37 O6 2.717918 1_555
Ba37 Ge0 3.948831 1_555
Ba37 Ba6 4.689245 1_565
Ba38 O2 2.717929 1_555
Ba38 Ge3 3.948824 1_555
Ba38 Ba41 4.689239 1_556
Ba38 Ba6 4.689251 1_556
Ba39 O1 2.686638 1_555
Ba39 O7 2.862383 1_555
Ba39 O2 2.862383 1_555
Ba39 Ge3 3.765279 1_555
Ba39 Ge1 3.765279 1_555
Ba40 Ba8 4.689245 1_545
Ba41 Ba9 4.689239 1_545
