# generated using pymatgen
data_Al2BiSe4
_symmetry_space_group_name_H-M   'P 1'
_cell_length_a   7.91003783
_cell_length_b   7.91003783
_cell_length_c   12.49724605
_cell_angle_alpha   90.00000000
_cell_angle_beta   90.00000000
_cell_angle_gamma   90.00000000
_symmetry_Int_Tables_number   1
_chemical_formula_structural   Al2BiSe4
_chemical_formula_sum   'Al8 Bi4 Se16'
_cell_volume   781.93641983
_cell_formula_units_Z   4
loop_
 _symmetry_equiv_pos_site_id
 _symmetry_equiv_pos_as_xyz
  1  'x, y, z'
loop_
 _atom_site_type_symbol
 _atom_site_label
 _atom_site_symmetry_multiplicity
 _atom_site_fract_x
 _atom_site_fract_y
 _atom_site_fract_z
 _atom_site_occupancy
  Al  Al0  1  -0.00000000  0.50000000  0.75000000  1
  Al  Al1  1  -0.00000000  0.50000000  -0.00000000  1
  Al  Al2  1  -0.00000000  0.50000000  0.25000000  1
  Al  Al3  1  0.50000000  0.00000000  0.50000000  1
  Al  Al4  1  0.50000000  0.00000000  0.25000000  1
  Al  Al5  1  0.50000000  0.00000000  0.75000000  1
  Al  Al6  1  -0.00000000  0.50000000  0.50000000  1
  Al  Al7  1  0.50000000  0.00000000  -0.00000000  1
  Bi  Bi0  1  -0.00000000  0.00000000  0.87404629  1
  Bi  Bi1  1  0.50000000  0.50000000  0.62595371  1
  Bi  Bi2  1  0.50000000  0.50000000  0.37404629  1
  Bi  Bi3  1  -0.00000000  0.00000000  0.12595371  1
  Se  Se0  1  0.33808450  0.16472837  0.87536871  1
  Se  Se1  1  0.33527163  0.16191550  0.37536871  1
  Se  Se2  1  0.83808450  0.33527163  0.37536871  1
  Se  Se3  1  0.66191550  0.83527163  0.87536871  1
  Se  Se4  1  0.33527163  0.83808450  0.62463129  1
  Se  Se5  1  0.16472837  0.33808450  0.12463129  1
  Se  Se6  1  0.33808450  0.83527163  0.12463129  1
  Se  Se7  1  0.83527163  0.33808450  0.87536871  1
  Se  Se8  1  0.83527163  0.66191550  0.12463129  1
  Se  Se9  1  0.66472837  0.16191550  0.62463129  1
  Se  Se10  1  0.16472837  0.66191550  0.87536871  1
  Se  Se11  1  0.66472837  0.83808450  0.37536871  1
  Se  Se12  1  0.16191550  0.66472837  0.37536871  1
  Se  Se13  1  0.83808450  0.66472837  0.62463129  1
  Se  Se14  1  0.16191550  0.33527163  0.62463129  1
  Se  Se15  1  0.66191550  0.16472837  0.12463129  1
loop_
_geom_bond_atom_site_label_1
_geom_bond_atom_site_label_2
_geom_bond_distance
_geom_bond_site_symmetry_2
Al0 Se13 2.406848 1_455
Al0 Se14 2.406848 1_555
Al0 Se7 2.406848 1_455
Al0 Se10 2.406848 1_555
Al1 Se7 2.400859 1_454
Al1 Se8 2.400859 1_455
Al1 Se10 2.400859 1_554
Al1 Se5 2.400859 1_555
Al2 Se8 2.406848 1_455
Al2 Se12 2.406848 1_555
Al2 Se2 2.406848 1_455
Al2 Se5 2.406848 1_555
Al3 Se1 2.400859 1_555
Al3 Se11 2.400859 1_545
Al3 Se4 2.400859 1_545
Al3 Se9 2.400859 1_555
Al4 Se6 2.406848 1_545
Al4 Se1 2.406848 1_555
Al4 Se15 2.406848 1_555
Al4 Se11 2.406848 1_545
Al5 Se4 2.406848 1_545
Al5 Se9 2.406848 1_555
Al5 Se3 2.406848 1_545
Al5 Se0 2.406848 1_555
Al6 Se2 2.400859 1_455
Al6 Se12 2.400859 1_555
Al6 Se14 2.400859 1_555
Al6 Se13 2.400859 1_455
Al7 Se3 2.400859 1_544
Al7 Se6 2.400859 1_545
Al7 Se15 2.400859 1_555
Al7 Se0 2.400859 1_554
Bi0 Se10 2.974857 1_545
Bi0 Se0 2.974857 1_555
Bi0 Se3 2.974857 1_445
Bi0 Se7 2.974857 1_455
Bi1 Se4 2.974857 1_555
Bi1 Se14 2.974857 1_555
Bi1 Se13 2.974857 1_555
Bi1 Se9 2.974857 1_555
Bi2 Se1 2.974857 1_555
Bi2 Se2 2.974857 1_555
Bi2 Se12 2.974857 1_555
Bi2 Se11 2.974857 1_555
Bi3 Se5 2.974857 1_555
Bi3 Se6 2.974857 1_545
Bi3 Se8 2.974857 1_445
Bi3 Se15 2.974857 1_455
