# generated using pymatgen
data_Mg(AlB14)2
_symmetry_space_group_name_H-M   'P 1'
_cell_length_a   7.15724024
_cell_length_b   7.15960954
_cell_length_c   10.93054543
_cell_angle_alpha   101.40461075
_cell_angle_beta   102.50494673
_cell_angle_gamma   111.37418174
_symmetry_Int_Tables_number   1
_chemical_formula_structural   Mg(AlB14)2
_chemical_formula_sum   'Mg2 Al4 B56'
_cell_volume   485.06703864
_cell_formula_units_Z   2
loop_
 _symmetry_equiv_pos_site_id
 _symmetry_equiv_pos_as_xyz
  1  'x, y, z'
loop_
 _atom_site_type_symbol
 _atom_site_label
 _atom_site_symmetry_multiplicity
 _atom_site_fract_x
 _atom_site_fract_y
 _atom_site_fract_z
 _atom_site_occupancy
  Mg  Mg0  1  0.49941574  0.88809382  0.11092054  1
  Mg  Mg1  1  0.99441599  0.09282206  0.39606117  1
  Al  Al0  1  0.21754484  0.47797000  0.23543587  1
  Al  Al1  1  0.51071367  0.51013443  0.49925066  1
  Al  Al2  1  0.79577451  0.53330492  0.76686337  1
  Al  Al3  1  0.45462260  0.15138929  0.80803036  1
  B  B0  1  0.11890970  0.86918183  0.08629767  1
  B  B1  1  0.13174468  0.25914778  0.04057702  1
  B  B2  1  0.30128960  0.52986267  0.07521749  1
  B  B3  1  0.20404809  0.72376500  0.17288140  1
  B  B4  1  0.27495859  0.09806904  0.04955689  1
  B  B5  1  0.88414697  0.89967736  0.11261672  1
  B  B6  1  0.71024983  0.46375541  0.08581916  1
  B  B7  1  0.54034363  0.53525220  0.16661604  1
  B  B8  1  0.37194333  0.87310908  0.33464918  1
  B  B9  1  0.54008916  0.27335527  0.14127920  1
  B  B10  1  0.80271520  0.72490679  0.20337916  1
  B  B11  1  0.88992858  0.13928743  0.08258843  1
  B  B12  1  0.80654686  0.30704592  0.16639399  1
  B  B13  1  0.96573895  0.58848329  0.20485110  1
  B  B14  1  0.53706724  0.41390307  0.29416079  1
  B  B15  1  0.69819238  0.69524059  0.33576625  1
  B  B16  1  0.61442979  0.86326166  0.41930715  1
  B  B17  1  0.69947924  0.27403569  0.29909919  1
  B  B18  1  0.96226972  0.72481017  0.36091106  1
  B  B19  1  0.12893818  0.12083931  0.16348866  1
  B  B20  1  0.95896421  0.46598837  0.33535567  1
  B  B21  1  0.79330302  0.53700510  0.41755124  1
  B  B22  1  0.62231705  0.87663569  0.58683201  1
  B  B23  1  0.61722763  0.10147529  0.39106906  1
  B  B24  1  0.22482838  0.89658827  0.45219276  1
  B  B25  1  0.29543641  0.27056496  0.32643419  1
  B  B26  1  0.19727736  0.46950603  0.42502562  1
  B  B27  1  0.37101631  0.74211950  0.45709568  1
  B  B28  1  0.62833296  0.25887417  0.54449876  1
  B  B29  1  0.80667142  0.53090395  0.57782382  1
  B  B30  1  0.70662179  0.73060726  0.67669609  1
  B  B31  1  0.77465457  0.10215889  0.54808699  1
  B  B32  1  0.38295587  0.89799205  0.61028272  1
  B  B33  1  0.38051662  0.12258587  0.41532732  1
  B  B34  1  0.21087182  0.46722481  0.58630618  1
  B  B35  1  0.04228156  0.53421209  0.66587387  1
  B  B36  1  0.87075117  0.87785083  0.83784873  1
  B  B37  1  0.03687748  0.27294705  0.63985559  1
  B  B38  1  0.30529562  0.72964644  0.70760851  1
  B  B39  1  0.38584879  0.13480536  0.58221835  1
  B  B40  1  0.30100790  0.30453926  0.66649664  1
  B  B41  1  0.46631451  0.58632538  0.70818120  1
  B  B42  1  0.03220675  0.40676130  0.79541824  1
  B  B43  1  0.19190142  0.68908500  0.83551444  1
  B  B44  1  0.10879564  0.85613515  0.91924215  1
  B  B45  1  0.19433592  0.27170189  0.79721179  1
  B  B46  1  0.46105374  0.72678376  0.86207308  1
  B  B47  1  0.63192518  0.12410675  0.66367691  1
  B  B48  1  0.45753134  0.46876531  0.83584027  1
  B  B49  1  0.28676940  0.53127857  0.91676740  1
  B  B50  1  0.12117903  0.09603101  0.89148487  1
  B  B51  1  0.72711161  0.89880619  0.95376304  1
  B  B52  1  0.79129940  0.27004187  0.82905020  1
  B  B53  1  0.69444928  0.46270166  0.92608003  1
  B  B54  1  0.86881091  0.73871783  0.96219475  1
  B  B55  1  0.88173386  0.12682602  0.91600729  1
loop_
_geom_bond_atom_site_label_1
_geom_bond_atom_site_label_2
_geom_bond_distance
_geom_bond_site_symmetry_2
Al0 B2 2.028253 1_555
Al0 B3 2.035904 1_555
Al0 B25 2.110118 1_555
Al0 B26 2.119589 1_555
Al0 B1 2.186502 1_555
Al0 B13 2.206577 1_455
Al0 B19 2.316312 1_555
Al0 B20 2.328529 1_455
Al0 B14 2.469353 1_555
Al0 B27 2.484887 1_555
Al0 B7 2.501145 1_555
Al0 B8 2.527774 1_555
Al0 B11 2.593496 1_455
Al0 B12 2.601856 1_455
Al1 B29 2.044199 1_555
Al1 B30 2.053741 1_555
Al1 B25 2.101466 1_555
Al1 B26 2.101966 1_555
Al1 B14 2.280944 1_555
Al1 B27 2.298763 1_555
Al1 B28 2.337700 1_555
Al1 B21 2.343443 1_555
Al1 B41 2.358369 1_555
Al1 B22 2.363796 1_555
Al1 B34 2.474815 1_555
Al1 B33 2.479379 1_555
Al2 B30 2.075874 1_555
Al2 B29 2.081517 1_555
Al2 B53 2.106520 1_555
Al2 B52 2.118460 1_555
Al2 B54 2.170074 1_555
Al2 B42 2.186881 1_655
Al2 B36 2.252336 1_555
Al2 B35 2.273595 1_655
Al2 B41 2.491903 1_555
Al2 B44 2.494557 1_655
Al2 B43 2.507596 1_655
Al2 B28 2.517536 1_555
Al2 B48 2.599127 1_555
Al2 B47 2.616604 1_555
Al3 B53 2.166560 1_555
Al3 B52 2.184476 1_555
Al3 B48 2.223903 1_555
Al3 B47 2.250343 1_555
Al3 B45 2.311079 1_555
Al3 B32 2.348893 1_545
Al3 B40 2.370118 1_555
Al3 B39 2.379918 1_555
Al3 B50 2.661017 1_555
Al3 B38 2.700645 1_545
B0 B3 1.718522 1_555
B0 B54 1.773532 1_454
B0 B4 1.792921 1_565
B0 B44 1.794059 1_554
B0 B19 1.800478 1_565
B0 B5 1.845421 1_455
B0 Mg0 2.628102 1_555
B1 B55 1.775530 1_454
B1 B50 1.776227 1_554
B1 B2 1.780159 1_555
B1 B4 1.803652 1_555
B1 B19 1.819134 1_555
B1 B11 1.833072 1_455
B2 B49 1.714732 1_554
B2 B7 1.767310 1_555
B2 B3 1.997799 1_555
B2 Mg0 2.335546 1_555
B3 B8 1.763363 1_555
B3 Mg0 2.331129 1_555
B4 B9 1.767398 1_555
B4 B44 1.797989 1_544
B4 B50 1.830779 1_554
B4 Mg0 2.642593 1_545
B5 B54 1.767421 1_554
B5 B51 1.850325 1_554
B5 Mg0 2.720374 1_555
B6 B9 1.773524 1_555
B6 B7 1.805776 1_555
B7 B9 1.839715 1_555
B7 Mg0 2.812210 1_555
B8 Mg0 2.796935 1_555
B9 Mg0 2.610380 1_545
B10 B5 1.760506 1_555
B10 B7 1.769293 1_555
B10 B13 1.773274 1_555
B10 B15 1.781368 1_555
B10 B6 1.834323 1_555
B10 B18 1.848941 1_555
B10 Mg1 2.679013 1_565
B10 Mg0 2.909357 1_555
B11 B12 1.721042 1_555
B11 B51 1.781388 1_544
B11 B55 1.792342 1_554
B11 B5 1.797012 1_545
B11 B19 1.811501 1_655
B12 B9 1.783919 1_555
B12 B6 1.789169 1_555
B12 B17 1.797797 1_555
B12 B20 1.813108 1_555
B12 B13 1.821866 1_555
B13 B6 1.775947 1_555
B13 B3 1.776852 1_655
B13 B18 1.800186 1_555
B13 B20 1.816613 1_555
B14 B9 1.781027 1_555
B14 B7 1.782502 1_555
B14 B17 1.788750 1_555
B14 B21 1.799935 1_555
B14 B25 1.811675 1_555
B14 B15 1.819734 1_555
B15 B16 1.722994 1_555
B15 B18 1.775688 1_555
B15 B21 1.801431 1_555
B15 B7 1.822495 1_555
B15 Mg1 2.699267 1_565
B16 B31 1.772315 1_565
B16 B23 1.786176 1_565
B16 B22 1.802048 1_555
B16 B8 1.814623 1_555
B16 B27 1.819315 1_555
B16 Mg1 2.714515 1_565
B17 B20 1.760790 1_555
B17 B23 1.760917 1_555
B17 B21 1.846607 1_555
B17 B9 1.848696 1_555
B17 Mg0 2.740294 1_545
B18 B24 1.748595 1_655
B18 B21 1.766898 1_555
B18 B20 1.809118 1_555
B18 Mg1 2.502465 1_565
B19 B5 1.758921 1_445
B19 B25 1.770911 1_555
B19 B4 1.810303 1_555
B20 B26 1.762261 1_655
B20 B21 1.786515 1_555
B21 B29 1.743795 1_555
B22 B30 1.741066 1_555
B22 B47 1.774017 1_565
B22 B31 1.778317 1_565
B22 B27 1.807278 1_555
B22 B32 1.841093 1_555
B23 B8 1.782056 1_545
B23 B28 1.793989 1_555
B23 B33 1.824499 1_555
B23 B31 1.835879 1_555
B23 Mg1 2.711874 1_555
B23 Mg0 2.917988 1_545
B24 B39 1.776606 1_565
B24 B33 1.777697 1_565
B24 B27 1.778575 1_555
B24 B32 1.845244 1_555
B24 B8 1.848548 1_555
B24 Mg1 2.580992 1_465
B25 B33 1.748870 1_555
B25 B26 2.033199 1_555
B25 Mg1 2.436188 1_455
B26 B34 1.748074 1_555
B26 B27 1.802842 1_555
B26 Mg1 2.467934 1_455
B27 B8 1.779500 1_555
B27 B32 1.784919 1_555
B28 B47 1.768983 1_555
B28 B33 1.789055 1_555
B28 B31 1.792580 1_555
B28 B29 1.805877 1_555
B28 B39 1.817152 1_555
B29 B35 1.740563 1_655
B29 B30 2.048267 1_555
B30 B36 1.749570 1_555
B30 B41 1.801548 1_555
B31 B37 1.746600 1_655
B31 B47 1.806103 1_555
B31 Mg1 2.530679 1_555
B32 B39 1.775407 1_565
B32 B38 1.779947 1_555
B32 B47 1.791636 1_565
B33 B39 1.800321 1_555
B33 B8 1.801540 1_545
B33 Mg1 2.650891 1_455
B34 B35 1.775877 1_555
B34 B37 1.789747 1_555
B34 B41 1.789976 1_555
B34 B40 1.802155 1_555
B34 B38 1.856343 1_555
B34 Mg1 2.698748 1_455
B35 B38 1.779137 1_555
B35 B43 1.809980 1_555
B35 B37 1.820295 1_555
B35 B42 1.830334 1_555
B36 B50 1.771539 1_665
B36 B55 1.783284 1_565
B36 B51 1.812748 1_555
B36 B44 1.819288 1_655
B36 B54 1.836670 1_555
B37 B40 1.770203 1_555
B37 B42 1.792766 1_555
B37 B45 1.844581 1_555
B37 Mg1 2.619392 1_455
B38 B43 1.782632 1_555
B38 B41 1.800697 1_555
B38 B46 1.819089 1_555
B39 B40 1.741127 1_555
B39 B47 1.829424 1_555
B40 B45 1.775951 1_555
B40 B41 1.827779 1_555
B40 B48 1.828918 1_555
B41 B48 1.767305 1_555
B41 B46 1.796744 1_555
B42 B45 1.759967 1_555
B42 B49 1.782009 1_555
B42 B52 1.803561 1_455
B42 B43 1.825632 1_555
B43 B44 1.715583 1_555
B43 B46 1.793303 1_555
B43 B49 1.794776 1_555
B44 B50 1.776708 1_565
B44 B54 1.824878 1_455
B45 B50 1.784395 1_555
B45 B48 1.788885 1_555
B45 B49 1.835283 1_555
B46 B51 1.767293 1_555
B46 B48 1.802458 1_555
B46 B49 1.803844 1_555
B46 Mg0 2.647816 1_556
B47 B52 1.775321 1_555
B48 B49 1.785178 1_555
B48 B53 1.787856 1_555
B49 Mg0 2.639988 1_556
B50 B55 1.873081 1_455
B51 B54 1.788674 1_555
B51 B55 1.790950 1_565
B51 Mg0 2.604980 1_556
B52 B55 1.725264 1_555
B52 B53 1.986145 1_555
B53 B6 1.723412 1_556
B53 B54 1.816312 1_555
