# generated using pymatgen
data_Ni(BO2)2
_symmetry_space_group_name_H-M   'P 1'
_cell_length_a   4.42338654
_cell_length_b   8.90105716
_cell_length_c   5.50608775
_cell_angle_alpha   90.00020041
_cell_angle_beta   89.99982949
_cell_angle_gamma   99.73382607
_symmetry_Int_Tables_number   1
_chemical_formula_structural   Ni(BO2)2
_chemical_formula_sum   'Ni4 B8 O16'
_cell_volume   213.66923290
_cell_formula_units_Z   4
loop_
 _symmetry_equiv_pos_site_id
 _symmetry_equiv_pos_as_xyz
  1  'x, y, z'
loop_
 _atom_site_type_symbol
 _atom_site_label
 _atom_site_symmetry_multiplicity
 _atom_site_fract_x
 _atom_site_fract_y
 _atom_site_fract_z
 _atom_site_occupancy
  Ni  Ni0  1  0.25001373  0.00000481  0.35020914  1
  Ni  Ni1  1  0.75001383  -0.00000121  0.64979212  1
  Ni  Ni2  1  0.75001446  0.50000554  0.85021340  1
  Ni  Ni3  1  0.25001453  0.49999843  0.14978868  1
  B  B0  1  0.68563376  0.81581634  0.10750146  1
  B  B1  1  0.18561714  0.31582016  0.60750128  1
  B  B2  1  0.81436244  0.18418466  0.10749687  1
  B  B3  1  0.31437622  0.68418074  0.60749490  1
  B  B4  1  0.31436463  0.18418385  0.89250097  1
  B  B5  1  0.81437804  0.68417985  0.39250258  1
  B  B6  1  0.18563686  0.81581737  0.89249956  1
  B  B7  1  0.68561973  0.31582174  0.39250212  1
  O  O0  1  0.33691942  0.35571647  0.85107385  1
  O  O1  1  0.83692936  0.85571222  0.35107525  1
  O  O2  1  0.66307586  0.64427953  0.14892612  1
  O  O3  1  0.16306554  0.14428372  0.64892440  1
  O  O4  1  0.16307498  0.64428166  0.85107093  1
  O  O5  1  0.66306267  0.14428634  0.35107282  1
  O  O6  1  0.83692091  0.35571767  0.14892939  1
  O  O7  1  0.33693105  0.85571333  0.64892619  1
  O  O8  1  0.60893840  0.13630541  0.90832725  1
  O  O9  1  0.10895029  0.63630211  0.40832434  1
  O  O10  1  0.89105829  0.86369393  0.90832959  1
  O  O11  1  0.39104523  0.36369758  0.40832690  1
  O  O12  1  0.10893287  0.13630379  0.09167218  1
  O  O13  1  0.60894624  0.63630045  0.59167376  1
  O  O14  1  0.39105807  0.86369360  0.09167145  1
  O  O15  1  0.89104345  0.36369690  0.59167452  1
loop_
_geom_bond_atom_site_label_1
_geom_bond_atom_site_label_2
_geom_bond_distance
_geom_bond_site_symmetry_2
Ni0 O14 2.035624 1_545
Ni0 O12 2.035625 1_555
Ni0 O5 2.047954 1_555
Ni0 O1 2.048124 1_445
Ni0 O3 2.160877 1_555
Ni0 O7 2.160925 1_545
Ni1 O10 2.035595 1_545
Ni1 O8 2.035643 1_555
Ni1 O3 2.047978 1_655
Ni1 O7 2.048088 1_545
Ni1 O1 2.160886 1_545
Ni1 O5 2.160954 1_555
Ni2 O15 2.035586 1_555
Ni2 O13 2.035589 1_555
Ni2 O4 2.047971 1_655
Ni2 O0 2.048146 1_555
Ni2 O2 2.160827 1_556
Ni2 O6 2.160887 1_556
Ni3 O11 2.035550 1_555
Ni3 O9 2.035608 1_555
Ni3 O2 2.047995 1_555
Ni3 O6 2.048106 1_455
Ni3 O0 2.160839 1_554
Ni3 O4 2.160909 1_554
B0 O14 1.440432 1_555
B0 O10 1.441878 1_554
B0 O1 1.514028 1_555
B0 O2 1.530282 1_555
B1 O15 1.440420 1_455
B1 O11 1.441897 1_555
B1 O0 1.514035 1_555
B1 O3 1.530281 1_555
B2 O12 1.440422 1_655
B2 O8 1.441872 1_554
B2 O5 1.514048 1_555
B2 O6 1.530254 1_555
B3 O13 1.440416 1_555
B3 O9 1.441879 1_555
B3 O4 1.514052 1_555
B3 O7 1.530251 1_555
B4 O8 1.440427 1_555
B4 O12 1.441898 1_556
B4 O3 1.514054 1_555
B4 O0 1.530249 1_555
B5 O9 1.440417 1_655
B5 O13 1.441897 1_555
B5 O2 1.514059 1_555
B5 O1 1.530249 1_555
B6 O10 1.440441 1_455
B6 O14 1.441869 1_556
B6 O7 1.514022 1_555
B6 O4 1.530273 1_555
B7 O11 1.440419 1_555
B7 O15 1.441876 1_555
B7 O6 1.514031 1_555
B7 O5 1.530273 1_555
