# generated using pymatgen
data_CsVO3
_symmetry_space_group_name_H-M   'P 1'
_cell_length_a   5.45086244
_cell_length_b   5.79445238
_cell_length_c   12.27054304
_cell_angle_alpha   90.00000000
_cell_angle_beta   90.00000000
_cell_angle_gamma   90.00000000
_symmetry_Int_Tables_number   1
_chemical_formula_structural   CsVO3
_chemical_formula_sum   'Cs4 V4 O12'
_cell_volume   387.56219182
_cell_formula_units_Z   4
loop_
 _symmetry_equiv_pos_site_id
 _symmetry_equiv_pos_as_xyz
  1  'x, y, z'
loop_
 _atom_site_type_symbol
 _atom_site_label
 _atom_site_symmetry_multiplicity
 _atom_site_fract_x
 _atom_site_fract_y
 _atom_site_fract_z
 _atom_site_occupancy
  Cs  Cs0  1  0.08310413  0.75000000  0.59739427  1
  Cs  Cs1  1  0.08310413  0.25000000  0.90260573  1
  Cs  Cs2  1  0.91689587  0.25000000  0.40260573  1
  Cs  Cs3  1  0.91689587  0.75000000  0.09739427  1
  V  V0  1  0.54938264  0.75000000  0.82824426  1
  V  V1  1  0.54938264  0.25000000  0.67175574  1
  V  V2  1  0.45061736  0.25000000  0.17175574  1
  V  V3  1  0.45061736  0.75000000  0.32824426  1
  O  O0  1  0.85042624  0.75000000  0.84691146  1
  O  O1  1  0.85042624  0.25000000  0.65308854  1
  O  O2  1  0.14957376  0.25000000  0.15308854  1
  O  O3  1  0.14957376  0.75000000  0.34691146  1
  O  O4  1  0.40876195  0.75000000  0.94719023  1
  O  O5  1  0.40876195  0.25000000  0.55280977  1
  O  O6  1  0.59123705  0.25000000  0.05280977  1
  O  O7  1  0.59123705  0.75000000  0.44719023  1
  O  O8  1  0.45719678  0.00000000  0.75000000  1
  O  O9  1  0.54280322  0.50000000  0.25000000  1
  O  O10  1  0.54280322  -0.00000000  0.25000000  1
  O  O11  1  0.45719678  0.50000000  0.75000000  1
loop_
_geom_bond_atom_site_label_1
_geom_bond_atom_site_label_2
_geom_bond_distance
_geom_bond_site_symmetry_2
Cs0 O3 3.094842 1_555
Cs0 O11 3.124577 1_555
Cs0 O8 3.124577 1_565
Cs0 O1 3.235665 1_465
Cs0 O1 3.235665 1_455
Cs0 O7 3.253499 1_455
Cs0 O0 3.314008 1_455
Cs0 O7 3.326943 1_555
Cs0 O5 3.441547 1_555
Cs0 O5 3.441547 1_565
Cs1 O2 3.094842 1_556
Cs1 O8 3.124577 1_555
Cs1 O11 3.124577 1_555
Cs1 O0 3.235665 1_455
Cs1 O0 3.235665 1_445
Cs1 O6 3.253499 1_456
Cs1 O1 3.314008 1_455
Cs1 O6 3.326943 1_556
Cs1 O4 3.441547 1_555
Cs1 O4 3.441547 1_545
Cs2 O1 3.094842 1_555
Cs2 O10 3.124577 1_555
Cs2 O9 3.124577 1_555
Cs2 O3 3.235665 1_655
Cs2 O3 3.235665 1_645
Cs2 O5 3.253495 1_655
Cs2 O2 3.314008 1_655
Cs2 O5 3.326947 1_555
Cs2 O7 3.441550 1_555
Cs2 O7 3.441550 1_545
Cs3 O0 3.094842 1_554
Cs3 O10 3.124577 1_565
Cs3 O9 3.124577 1_555
Cs3 O2 3.235665 1_655
Cs3 O2 3.235665 1_665
Cs3 O4 3.253495 1_654
Cs3 O3 3.314008 1_655
Cs3 O4 3.326947 1_554
Cs3 O6 3.441550 1_555
Cs3 O6 3.441550 1_565
O0 V0 1.656857 1_555
O1 V1 1.656857 1_555
O2 V2 1.656857 1_555
O3 V3 1.656857 1_555
O4 V0 1.648563 1_555
O5 V1 1.648563 1_555
O6 V2 1.648561 1_555
O7 V3 1.648561 1_555
O8 V1 1.809080 1_555
O8 V0 1.809080 1_545
O9 V3 1.809080 1_555
O9 V2 1.809080 1_555
O10 V3 1.809080 1_545
O10 V2 1.809080 1_555
O11 V1 1.809080 1_555
O11 V0 1.809080 1_555
