# generated using pymatgen
data_TaO2
_symmetry_space_group_name_H-M   'P 1'
_cell_length_a   10.22760131
_cell_length_b   10.22760131
_cell_length_c   10.22760131
_cell_angle_alpha   94.97482101
_cell_angle_beta   94.97482101
_cell_angle_gamma   145.74738885
_symmetry_Int_Tables_number   1
_chemical_formula_structural   TaO2
_chemical_formula_sum   'Ta16 O32'
_cell_volume   575.45423323
_cell_formula_units_Z   16
loop_
 _symmetry_equiv_pos_site_id
 _symmetry_equiv_pos_as_xyz
  1  'x, y, z'
loop_
 _atom_site_type_symbol
 _atom_site_label
 _atom_site_symmetry_multiplicity
 _atom_site_fract_x
 _atom_site_fract_y
 _atom_site_fract_z
 _atom_site_occupancy
  Ta  Ta0  1  0.78340200  0.27585200  0.75718300  1
  Ta  Ta1  1  0.52585200  0.26866900  0.99245000  1
  Ta  Ta2  1  0.27621900  0.53340200  0.00755000  1
  Ta  Ta3  1  0.51866900  0.02621900  0.24281700  1
  Ta  Ta4  1  0.46659800  0.47414800  0.74281700  1
  Ta  Ta5  1  0.72414800  0.48133100  0.50755000  1
  Ta  Ta6  1  0.97378100  0.21659800  0.49245000  1
  Ta  Ta7  1  0.73133100  0.72378100  0.25718300  1
  Ta  Ta8  1  0.21448600  0.72642000  0.74116100  1
  Ta  Ta9  1  0.97642000  0.73525900  0.01193400  1
  Ta  Ta10  1  0.72332500  0.96448600  0.98806600  1
  Ta  Ta11  1  0.98525900  0.47332500  0.25883900  1
  Ta  Ta12  1  0.03551400  0.02358000  0.75883900  1
  Ta  Ta13  1  0.27358000  0.01474100  0.48806600  1
  Ta  Ta14  1  0.52667500  0.78551400  0.51193400  1
  Ta  Ta15  1  0.26474100  0.27667500  0.24116100  1
  O  O0  1  0.39361100  0.75686200  0.88784500  1
  O  O1  1  0.00686200  0.61901800  0.86325100  1
  O  O2  1  0.75576700  0.14361100  0.13674900  1
  O  O3  1  0.86901800  0.50576700  0.11215500  1
  O  O4  1  0.85638900  0.99313800  0.61215500  1
  O  O5  1  0.24313800  0.13098200  0.63674900  1
  O  O6  1  0.49423300  0.60638900  0.36325100  1
  O  O7  1  0.38098200  0.24423300  0.38784500  1
  O  O8  1  0.89852200  0.24898200  0.89906000  1
  O  O9  1  0.49898200  0.09992200  0.85046000  1
  O  O10  1  0.24946200  0.64852200  0.14954000  1
  O  O11  1  0.34992200  0.99946200  0.10094000  1
  O  O12  1  0.35147800  0.50101800  0.60094000  1
  O  O13  1  0.75101800  0.65007800  0.64954000  1
  O  O14  1  0.00053800  0.10147800  0.35046000  1
  O  O15  1  0.90007800  0.75053800  0.39906000  1
  O  O16  1  0.62767500  0.76381000  0.11060700  1
  O  O17  1  0.01381000  0.40320300  0.63613600  1
  O  O18  1  0.76706800  0.37767500  0.36386400  1
  O  O19  1  0.65320300  0.51706800  0.88939300  1
  O  O20  1  0.62232500  0.98619000  0.38939300  1
  O  O21  1  0.23619000  0.34679700  0.86386400  1
  O  O22  1  0.48293200  0.37232500  0.13613600  1
  O  O23  1  0.59679700  0.23293200  0.61060700  1
  O  O24  1  0.09187000  0.24554500  0.09910400  1
  O  O25  1  0.49554500  0.89644100  0.65367400  1
  O  O26  1  0.24276700  0.84187000  0.34632600  1
  O  O27  1  0.14644100  0.99276700  0.90089600  1
  O  O28  1  0.15813000  0.50445500  0.40089600  1
  O  O29  1  0.75445500  0.85355900  0.84632600  1
  O  O30  1  0.00723300  0.90813000  0.15367400  1
  O  O31  1  0.10355900  0.75723300  0.59910400  1
loop_
_geom_bond_atom_site_label_1
_geom_bond_atom_site_label_2
_geom_bond_distance
_geom_bond_site_symmetry_2
O0 Ta10 2.028984 1_555
O0 Ta8 2.050190 1_555
O0 Ta2 2.089924 1_556
O1 Ta8 2.028987 1_555
O1 Ta9 2.050184 1_456
O1 Ta0 2.089931 1_455
O2 Ta11 2.028987 1_555
O2 Ta10 2.050184 1_544
O2 Ta3 2.089931 1_555
O3 Ta9 2.028980 1_555
O3 Ta11 2.050191 1_555
O3 Ta1 2.089928 1_554
O4 Ta14 2.028984 1_555
O4 Ta12 2.050190 1_665
O4 Ta6 2.089924 1_565
O5 Ta12 2.028987 1_555
O5 Ta13 2.050184 1_555
O5 Ta4 2.089931 1_555
O6 Ta15 2.028987 1_555
O6 Ta14 2.050184 1_555
O6 Ta7 2.089931 1_555
O7 Ta13 2.028980 1_555
O7 Ta15 2.050191 1_555
O7 Ta5 2.089928 1_555
O8 Ta0 1.968534 1_555
O8 Ta10 2.151534 1_545
O8 Ta2 2.176216 1_656
O9 Ta1 1.968534 1_555
O9 Ta8 2.151534 1_545
O9 Ta0 2.176216 1_555
O10 Ta2 1.968534 1_555
O10 Ta11 2.151534 1_455
O10 Ta3 2.176216 1_565
O11 Ta3 1.968534 1_565
O11 Ta9 2.151534 1_455
O11 Ta1 2.176216 1_564
O12 Ta4 1.968534 1_555
O12 Ta14 2.151534 1_555
O12 Ta6 2.176216 1_455
O13 Ta5 1.968534 1_555
O13 Ta12 2.151534 1_665
O13 Ta4 2.176216 1_555
O14 Ta6 1.968534 1_455
O14 Ta15 2.151534 1_555
O14 Ta7 2.176216 1_445
O15 Ta7 1.968534 1_555
O15 Ta13 2.151534 1_665
O15 Ta5 2.176216 1_555
O16 Ta10 2.019858 1_554
O16 Ta7 2.021683 1_555
O16 Ta2 2.119911 1_555
O17 Ta8 2.019855 1_555
O17 Ta6 2.021689 1_455
O17 Ta0 2.119904 1_455
O18 Ta11 2.019852 1_555
O18 Ta5 2.021690 1_555
O18 Ta3 2.119908 1_555
O19 Ta9 2.019858 1_556
O19 Ta4 2.021683 1_555
O19 Ta1 2.119911 1_555
O20 Ta14 2.019858 1_555
O20 Ta3 2.021683 1_565
O20 Ta6 2.119911 1_565
O21 Ta12 2.019855 1_555
O21 Ta2 2.021689 1_556
O21 Ta4 2.119904 1_555
O22 Ta15 2.019852 1_555
O22 Ta1 2.021690 1_554
O22 Ta7 2.119908 1_555
O23 Ta13 2.019858 1_555
O23 Ta0 2.021683 1_555
O23 Ta5 2.119911 1_555
O24 Ta15 1.970274 1_555
O24 Ta10 2.130760 1_444
O24 Ta2 2.169632 1_555
O25 Ta14 1.970267 1_555
O25 Ta8 2.130766 1_555
O25 Ta0 2.169634 1_565
O26 Ta13 1.970274 1_565
O26 Ta11 2.130759 1_455
O26 Ta3 2.169632 1_565
O27 Ta12 1.970267 1_565
O27 Ta9 2.130766 1_456
O27 Ta1 2.169634 1_565
O28 Ta11 1.970274 1_455
O28 Ta14 2.130760 1_555
O28 Ta6 2.169632 1_455
O29 Ta10 1.970267 1_555
O29 Ta12 2.130766 1_665
O29 Ta4 2.169634 1_555
O30 Ta9 1.970274 1_455
O30 Ta15 2.130759 1_565
O30 Ta7 2.169632 1_455
O31 Ta8 1.970267 1_555
O31 Ta13 2.130766 1_565
O31 Ta5 2.169634 1_455
