# generated using pymatgen
data_NaPr4I7N2
_symmetry_space_group_name_H-M   'P 1'
_cell_length_a   11.23718700
_cell_length_b   12.19621300
_cell_length_c   14.51525600
_cell_angle_alpha   90.00000000
_cell_angle_beta   90.00000000
_cell_angle_gamma   90.00000000
_symmetry_Int_Tables_number   1
_chemical_formula_structural   NaPr4I7N2
_chemical_formula_sum   'Na4 Pr16 I28 N8'
_cell_volume   1989.33218149
_cell_formula_units_Z   4
loop_
 _symmetry_equiv_pos_site_id
 _symmetry_equiv_pos_as_xyz
  1  'x, y, z'
loop_
 _atom_site_type_symbol
 _atom_site_label
 _atom_site_symmetry_multiplicity
 _atom_site_fract_x
 _atom_site_fract_y
 _atom_site_fract_z
 _atom_site_occupancy
  Na  Na0  1  0.95021200  0.75452800  0.09681800  1
  Na  Na1  1  0.45021200  0.25452800  0.40318200  1
  Na  Na2  1  0.54978800  0.75452800  0.59681800  1
  Na  Na3  1  0.04978800  0.25452800  0.90318200  1
  Pr  Pr0  1  0.89616300  0.55720200  0.58713900  1
  Pr  Pr1  1  0.41683700  0.82088900  0.10139300  1
  Pr  Pr2  1  0.87635200  0.08012100  0.58224200  1
  Pr  Pr3  1  0.62364800  0.08012100  0.08224200  1
  Pr  Pr4  1  0.91683700  0.32088900  0.39860700  1
  Pr  Pr5  1  0.08316300  0.82088900  0.60139300  1
  Pr  Pr6  1  0.12297500  0.31415100  0.58479000  1
  Pr  Pr7  1  0.37635200  0.58012100  0.91775800  1
  Pr  Pr8  1  0.58316300  0.32088900  0.89860700  1
  Pr  Pr9  1  0.37702500  0.31415100  0.08479000  1
  Pr  Pr10  1  0.10383700  0.05720200  0.41286100  1
  Pr  Pr11  1  0.87702500  0.81415100  0.41521000  1
  Pr  Pr12  1  0.39616300  0.05720200  0.91286100  1
  Pr  Pr13  1  0.60383700  0.55720200  0.08713900  1
  Pr  Pr14  1  0.62297500  0.81415100  0.91521000  1
  Pr  Pr15  1  0.12364800  0.58012100  0.41775800  1
  I  I0  1  0.18961600  0.78849800  0.97759200  1
  I  I1  1  0.18831100  0.29287300  0.29551100  1
  I  I2  1  0.87086900  0.09305100  0.27464500  1
  I  I3  1  0.59394800  0.33084000  0.23073400  1
  I  I4  1  0.43387100  0.03479100  0.24603100  1
  I  I5  1  0.18073000  0.11305200  0.04659500  1
  I  I6  1  0.12913100  0.59305100  0.72535500  1
  I  I7  1  0.09394800  0.83084000  0.26926600  1
  I  I8  1  0.65206600  0.95825700  0.48453000  1
  I  I9  1  0.34793400  0.45825700  0.51547000  1
  I  I10  1  0.31038400  0.78849800  0.47759200  1
  I  I11  1  0.62913100  0.09305100  0.77464500  1
  I  I12  1  0.81038400  0.28849800  0.02240800  1
  I  I13  1  0.68073000  0.61305200  0.45340500  1
  I  I14  1  0.40605200  0.83084000  0.76926600  1
  I  I15  1  0.56612900  0.53479100  0.75396900  1
  I  I16  1  0.37086900  0.59305100  0.22535500  1
  I  I17  1  0.68831100  0.79287300  0.20448900  1
  I  I18  1  0.90605200  0.33084000  0.73073400  1
  I  I19  1  0.68961600  0.28849800  0.52240800  1
  I  I20  1  0.31168900  0.29287300  0.79551100  1
  I  I21  1  0.31927000  0.11305200  0.54659500  1
  I  I22  1  0.15206600  0.45825700  0.01547000  1
  I  I23  1  0.84793400  0.95825700  0.98453000  1
  I  I24  1  0.93387100  0.53479100  0.25396900  1
  I  I25  1  0.81927000  0.61305200  0.95340500  1
  I  I26  1  0.06612900  0.03479100  0.74603100  1
  I  I27  1  0.81168900  0.79287300  0.70448900  1
  N  N0  1  0.98468800  0.94345200  0.50311500  1
  N  N1  1  0.49452200  0.19262600  0.99675500  1
  N  N2  1  0.51531200  0.94345200  0.00311500  1
  N  N3  1  0.48468800  0.44345200  0.99688500  1
  N  N4  1  0.01531200  0.44345200  0.49688500  1
  N  N5  1  0.50547800  0.69262600  0.00324500  1
  N  N6  1  0.00547800  0.19262600  0.49675500  1
  N  N7  1  0.99452200  0.69262600  0.50324500  1
loop_
_geom_bond_atom_site_label_1
_geom_bond_atom_site_label_2
_geom_bond_distance
_geom_bond_site_symmetry_2
I0 Pr1 3.147181 1_556
I0 Na0 3.225513 1_456
I0 Pr7 3.408269 1_555
I1 Na1 3.364923 1_555
I1 Pr4 3.415017 1_455
I1 Pr10 3.473340 1_555
I1 Pr9 3.730926 1_555
I1 Pr15 3.993749 1_555
I2 Pr10 3.327099 1_655
I2 Pr4 3.350517 1_555
I2 Pr3 3.942353 1_555
I2 Pr11 3.967131 1_545
I3 Na1 3.121011 1_555
I3 Pr9 3.235896 1_555
I3 Pr13 3.461000 1_555
I3 Pr3 3.755983 1_555
I4 Pr3 3.241246 1_555
I4 Pr1 3.354127 1_545
I4 Na1 3.524097 1_555
I5 Na3 3.078263 1_554
I5 Pr12 3.176907 1_554
I5 Pr9 3.344909 1_555
I6 Pr0 3.327099 1_455
I6 Pr5 3.350517 1_555
I6 Pr7 3.942353 1_555
I6 Pr6 3.967131 1_555
I7 Na0 3.121011 1_455
I7 Pr11 3.235896 1_455
I7 Pr10 3.461000 1_565
I7 Pr15 3.755983 1_555
I8 Na2 3.186112 1_555
I8 Pr11 3.239092 1_555
I8 Pr2 3.251580 1_565
I9 Na1 3.186112 1_555
I9 Pr6 3.239092 1_555
I9 Pr15 3.251580 1_555
I10 Pr5 3.147181 1_555
I10 Na2 3.225513 1_555
I10 Pr15 3.408269 1_555
I11 Pr12 3.327099 1_555
I11 Pr8 3.350517 1_555
I11 Pr2 3.942353 1_555
I11 Pr14 3.967131 1_545
I12 Pr8 3.147181 1_554
I12 Na3 3.225513 1_654
I12 Pr3 3.408269 1_555
I13 Na2 3.078263 1_555
I13 Pr0 3.176907 1_555
I13 Pr11 3.344909 1_555
I14 Na2 3.121011 1_555
I14 Pr14 3.235896 1_555
I14 Pr12 3.461000 1_565
I14 Pr7 3.755983 1_555
I15 Pr7 3.241246 1_555
I15 Pr8 3.354127 1_555
I15 Na2 3.524097 1_555
I16 Pr13 3.327099 1_555
I16 Pr1 3.350517 1_555
I16 Pr15 3.942353 1_555
I16 Pr9 3.967131 1_555
I17 Na0 3.364923 1_555
I17 Pr1 3.415017 1_555
I17 Pr13 3.473340 1_555
I17 Pr11 3.730926 1_555
I17 Pr3 3.993749 1_565
I18 Na3 3.121011 1_655
I18 Pr6 3.235896 1_655
I18 Pr0 3.461000 1_555
I18 Pr2 3.755983 1_555
I19 Pr4 3.147181 1_555
I19 Na1 3.225513 1_555
I19 Pr2 3.408269 1_555
I20 Na3 3.364923 1_555
I20 Pr8 3.415017 1_555
I20 Pr12 3.473340 1_555
I20 Pr6 3.730926 1_555
I20 Pr7 3.993749 1_555
I21 Na1 3.078263 1_555
I21 Pr10 3.176907 1_555
I21 Pr6 3.344909 1_555
I22 Na3 3.186112 1_554
I22 Pr9 3.239092 1_555
I22 Pr7 3.251580 1_554
I23 Na0 3.186112 1_556
I23 Pr14 3.239092 1_555
I23 Pr3 3.251580 1_566
I24 Pr15 3.241246 1_655
I24 Pr4 3.354127 1_555
I24 Na0 3.524097 1_555
I25 Na0 3.078263 1_556
I25 Pr13 3.176907 1_556
I25 Pr14 3.344909 1_555
I26 Pr2 3.241246 1_455
I26 Pr5 3.354127 1_545
I26 Na3 3.524097 1_555
I27 Na2 3.364923 1_555
I27 Pr5 3.415017 1_655
I27 Pr0 3.473340 1_555
I27 Pr14 3.730926 1_555
I27 Pr2 3.993749 1_565
N0 Pr10 2.331001 1_665
N0 Pr5 2.343918 1_655
N0 Pr11 2.361915 1_555
N0 Pr2 2.362113 1_565
N1 Pr12 2.330776 1_555
N1 Pr8 2.338564 1_555
N1 Pr3 2.351157 1_556
N1 Pr9 2.360708 1_556
N2 Pr12 2.331001 1_564
N2 Pr1 2.343918 1_555
N2 Pr14 2.361915 1_554
N2 Pr3 2.362113 1_565
N3 Pr13 2.331001 1_556
N3 Pr8 2.343918 1_555
N3 Pr9 2.361915 1_556
N3 Pr7 2.362113 1_555
N4 Pr0 2.331001 1_455
N4 Pr4 2.343918 1_455
N4 Pr6 2.361915 1_555
N4 Pr15 2.362113 1_555
N5 Pr13 2.330776 1_555
N5 Pr1 2.338564 1_555
N5 Pr7 2.351157 1_554
N5 Pr14 2.360708 1_554
N6 Pr10 2.330776 1_555
N6 Pr4 2.338564 1_455
N6 Pr2 2.351157 1_455
N6 Pr6 2.360708 1_555
N7 Pr0 2.330776 1_555
N7 Pr5 2.338564 1_655
N7 Pr15 2.351157 1_655
N7 Pr11 2.360708 1_555
