# generated using pymatgen
data_SrGaBO4
_symmetry_space_group_name_H-M   'P 1'
_cell_length_a   5.87872900
_cell_length_b   8.99893300
_cell_length_c   15.58093000
_cell_angle_alpha   90.00000000
_cell_angle_beta   90.00000000
_cell_angle_gamma   90.00000000
_symmetry_Int_Tables_number   1
_chemical_formula_structural   SrGaBO4
_chemical_formula_sum   'Sr8 Ga8 B8 O32'
_cell_volume   824.26685234
_cell_formula_units_Z   8
loop_
 _symmetry_equiv_pos_site_id
 _symmetry_equiv_pos_as_xyz
  1  'x, y, z'
loop_
 _atom_site_type_symbol
 _atom_site_label
 _atom_site_symmetry_multiplicity
 _atom_site_fract_x
 _atom_site_fract_y
 _atom_site_fract_z
 _atom_site_occupancy
  Sr  Sr0  1  0.39208800  0.88426300  0.64998800  1
  Sr  Sr1  1  0.60791200  0.38426300  0.14998800  1
  Sr  Sr2  1  0.60791200  0.11573700  0.35001200  1
  Sr  Sr3  1  0.89208800  0.88426300  0.85001200  1
  Sr  Sr4  1  0.10791200  0.38426300  0.35001200  1
  Sr  Sr5  1  0.39208800  0.61573700  0.85001200  1
  Sr  Sr6  1  0.89208800  0.61573700  0.64998800  1
  Sr  Sr7  1  0.10791200  0.11573700  0.14998800  1
  Ga  Ga0  1  0.36753700  0.76071800  0.05053100  1
  Ga  Ga1  1  0.13246300  0.23928200  0.55053100  1
  Ga  Ga2  1  0.86753700  0.73928200  0.05053100  1
  Ga  Ga3  1  0.63246300  0.23928200  0.94946900  1
  Ga  Ga4  1  0.63246300  0.26071800  0.55053100  1
  Ga  Ga5  1  0.86753700  0.76071800  0.44946900  1
  Ga  Ga6  1  0.36753700  0.73928200  0.44946900  1
  Ga  Ga7  1  0.13246300  0.26071800  0.94946900  1
  B  B0  1  0.12828300  0.51914400  0.14323000  1
  B  B1  1  0.37171700  0.01914400  0.85677000  1
  B  B2  1  0.87171700  0.48085600  0.85677000  1
  B  B3  1  0.87171700  0.01914400  0.64323000  1
  B  B4  1  0.62828300  0.51914400  0.35677000  1
  B  B5  1  0.12828300  0.98085600  0.35677000  1
  B  B6  1  0.62828300  0.98085600  0.14323000  1
  B  B7  1  0.37171700  0.48085600  0.64323000  1
  O  O0  1  0.58566100  0.07154100  0.88188500  1
  O  O1  1  0.91433900  0.92845900  0.38188500  1
  O  O2  1  0.32794200  0.90508700  0.37760400  1
  O  O3  1  0.35697900  0.61056000  0.68928300  1
  O  O4  1  0.58566100  0.42845900  0.61811500  1
  O  O5  1  0.67205800  0.09491300  0.62239600  1
  O  O6  1  0.61547100  0.77466700  0.51976800  1
  O  O7  1  0.64302100  0.11056000  0.18928300  1
  O  O8  1  0.17205800  0.40508700  0.62239600  1
  O  O9  1  0.11547100  0.72533300  0.51976800  1
  O  O10  1  0.91433900  0.57154100  0.11811500  1
  O  O11  1  0.88452900  0.22533300  0.01976800  1
  O  O12  1  0.11547100  0.77466700  0.98023200  1
  O  O13  1  0.88452900  0.27466700  0.48023200  1
  O  O14  1  0.85697900  0.88944000  0.68928300  1
  O  O15  1  0.41433900  0.57154100  0.38188500  1
  O  O16  1  0.35697900  0.88944000  0.81071700  1
  O  O17  1  0.14302100  0.11056000  0.31071700  1
  O  O18  1  0.38452900  0.22533300  0.48023200  1
  O  O19  1  0.08566100  0.42845900  0.88188500  1
  O  O20  1  0.17205800  0.09491300  0.87760400  1
  O  O21  1  0.82794200  0.90508700  0.12239600  1
  O  O22  1  0.67205800  0.40508700  0.87760400  1
  O  O23  1  0.85697900  0.61056000  0.81071700  1
  O  O24  1  0.14302100  0.38944000  0.18928300  1
  O  O25  1  0.61547100  0.72533300  0.98023200  1
  O  O26  1  0.08566100  0.07154100  0.61811500  1
  O  O27  1  0.64302100  0.38944000  0.31071700  1
  O  O28  1  0.82794200  0.59491300  0.37760400  1
  O  O29  1  0.32794200  0.59491300  0.12239600  1
  O  O30  1  0.41433900  0.92845900  0.11811500  1
  O  O31  1  0.38452900  0.27466700  0.01976800  1
loop_
_geom_bond_atom_site_label_1
_geom_bond_atom_site_label_2
_geom_bond_distance
_geom_bond_site_symmetry_2
Ga0 O12 1.846972 1_554
Ga0 O25 1.850822 1_554
Ga0 O30 1.860945 1_555
Ga0 O29 1.879955 1_555
Ga1 O18 1.846972 1_555
Ga1 O13 1.850822 1_455
Ga1 O26 1.860945 1_555
Ga1 O8 1.879955 1_555
Ga2 O25 1.846972 1_554
Ga2 O12 1.850822 1_654
Ga2 O10 1.860945 1_555
Ga2 O21 1.879955 1_555
Ga3 O11 1.846972 1_556
Ga3 O31 1.850822 1_556
Ga3 O0 1.860945 1_555
Ga3 O22 1.879955 1_555
Ga4 O13 1.846972 1_555
Ga4 O18 1.850822 1_555
Ga4 O4 1.860945 1_555
Ga4 O5 1.879955 1_555
Ga5 O6 1.846972 1_555
Ga5 O9 1.850822 1_655
Ga5 O1 1.860945 1_555
Ga5 O28 1.879955 1_555
Ga6 O9 1.846972 1_555
Ga6 O6 1.850822 1_555
Ga6 O15 1.860945 1_555
Ga6 O2 1.879955 1_555
Ga7 O31 1.846972 1_556
Ga7 O11 1.850822 1_456
Ga7 O19 1.860945 1_555
Ga7 O20 1.879955 1_555
B0 O24 1.372856 1_555
B0 O29 1.395689 1_555
B0 O10 1.399040 1_455
B1 O16 1.372856 1_545
B1 O20 1.395689 1_555
B1 O0 1.399040 1_555
B2 O23 1.372856 1_555
B2 O22 1.395689 1_555
B2 O19 1.399040 1_655
B3 O14 1.372856 1_545
B3 O5 1.395689 1_555
B3 O26 1.399040 1_655
B4 O27 1.372856 1_555
B4 O28 1.395689 1_555
B4 O15 1.399040 1_555
B5 O17 1.372856 1_565
B5 O2 1.395689 1_555
B5 O1 1.399040 1_455
B6 O7 1.372856 1_565
B6 O21 1.395689 1_555
B6 O30 1.399040 1_555
B7 O3 1.372856 1_555
B7 O8 1.395689 1_555
B7 O4 1.399040 1_555
O0 Sr3 2.516329 1_545
O1 Sr2 2.516329 1_565
O2 Sr2 2.546978 1_565
O3 Sr5 2.513230 1_555
O3 Sr0 2.546369 1_555
O3 Sr6 2.801096 1_455
O3 Sr6 3.205126 1_555
O4 Sr6 2.516329 1_555
O5 Sr0 2.546978 1_545
O6 Sr0 2.610332 1_555
O6 Sr6 2.967573 1_555
O7 Sr2 2.513230 1_555
O7 Sr1 2.546369 1_555
O7 Sr7 2.801096 1_655
O7 Sr7 3.205126 1_555
O8 Sr6 2.546978 1_455
O9 Sr6 2.610332 1_455
O9 Sr0 2.967573 1_555
O10 Sr1 2.516329 1_555
O11 Sr7 2.610332 1_655
O11 Sr1 2.967573 1_555
O12 Sr3 2.610332 1_455
O12 Sr5 2.967573 1_555
O13 Sr4 2.610332 1_655
O13 Sr2 2.967573 1_555
O14 Sr3 2.513230 1_555
O14 Sr6 2.546369 1_555
O14 Sr0 2.801096 1_555
O14 Sr0 3.205126 1_655
O15 Sr4 2.516329 1_555
O16 Sr0 2.513230 1_555
O16 Sr5 2.546369 1_555
O16 Sr3 2.801096 1_455
O16 Sr3 3.205126 1_555
O17 Sr7 2.513230 1_555
O17 Sr4 2.546369 1_555
O17 Sr2 2.801096 1_555
O17 Sr2 3.205126 1_455
O18 Sr2 2.610332 1_555
O18 Sr4 2.967573 1_555
O19 Sr5 2.516329 1_555
O20 Sr3 2.546978 1_445
O21 Sr7 2.546978 1_665
O22 Sr5 2.546978 1_555
O23 Sr6 2.513230 1_555
O23 Sr3 2.546369 1_555
O23 Sr5 2.801096 1_555
O23 Sr5 3.205126 1_655
O24 Sr4 2.513230 1_555
O24 Sr7 2.546369 1_555
O24 Sr1 2.801096 1_555
O24 Sr1 3.205126 1_455
O25 Sr5 2.610332 1_555
O25 Sr3 2.967573 1_555
O26 Sr0 2.516329 1_545
O27 Sr1 2.513230 1_555
O27 Sr2 2.546369 1_555
O27 Sr4 2.801096 1_655
O27 Sr4 3.205126 1_555
O28 Sr4 2.546978 1_655
O29 Sr1 2.546978 1_555
O30 Sr7 2.516329 1_565
O31 Sr1 2.610332 1_555
O31 Sr7 2.967573 1_555
