# generated using pymatgen
data_TmInPd2
_symmetry_space_group_name_H-M   'P 1'
_cell_length_a   4.73191762
_cell_length_b   4.73191769
_cell_length_c   4.73191728
_cell_angle_alpha   59.99999570
_cell_angle_beta   59.99999512
_cell_angle_gamma   60.00000145
_symmetry_Int_Tables_number   1
_chemical_formula_structural   TmInPd2
_chemical_formula_sum   'Tm1 In1 Pd2'
_cell_volume   74.91977727
_cell_formula_units_Z   1
loop_
 _symmetry_equiv_pos_site_id
 _symmetry_equiv_pos_as_xyz
  1  'x, y, z'
loop_
 _atom_site_type_symbol
 _atom_site_label
 _atom_site_symmetry_multiplicity
 _atom_site_fract_x
 _atom_site_fract_y
 _atom_site_fract_z
 _atom_site_occupancy
  Tm  Tm0  1  0.50000000  0.50000000  0.50000000  1
  In  In0  1  -0.00000000  -0.00000000  0.00000000  1
  Pd  Pd0  1  0.25000000  0.25000000  0.25000000  1
  Pd  Pd1  1  0.75000000  0.75000000  0.75000000  1
loop_
_geom_bond_atom_site_label_1
_geom_bond_atom_site_label_2
_geom_bond_distance
_geom_bond_site_symmetry_2
In0 Pd1 2.897695 1_445
In0 Pd0 2.897695 1_554
In0 Pd0 2.897696 1_455
In0 Pd1 2.897696 1_544
In0 Pd1 2.897696 1_444
In0 Pd0 2.897696 1_555
In0 Pd1 2.897696 1_454
In0 Pd0 2.897696 1_545
Pd0 Tm0 2.897695 1_554
Pd0 Tm0 2.897696 1_455
Pd0 Tm0 2.897696 1_555
Pd0 Tm0 2.897696 1_545
Pd1 Tm0 2.897695 1_556
Pd1 Tm0 2.897696 1_655
Pd1 Tm0 2.897696 1_555
Pd1 Tm0 2.897696 1_565
