# generated using pymatgen
data_Fe3RhN
_symmetry_space_group_name_H-M   'P 1'
_cell_length_a   3.83973055
_cell_length_b   3.83963097
_cell_length_c   3.83894589
_cell_angle_alpha   90.00000000
_cell_angle_beta   90.00000000
_cell_angle_gamma   90.00000000
_symmetry_Int_Tables_number   1
_chemical_formula_structural   Fe3RhN
_chemical_formula_sum   'Fe3 Rh1 N1'
_cell_volume   56.59814871
_cell_formula_units_Z   1
loop_
 _symmetry_equiv_pos_site_id
 _symmetry_equiv_pos_as_xyz
  1  'x, y, z'
loop_
 _atom_site_type_symbol
 _atom_site_label
 _atom_site_symmetry_multiplicity
 _atom_site_fract_x
 _atom_site_fract_y
 _atom_site_fract_z
 _atom_site_occupancy
  Fe  Fe0  1  0.00000000  0.50000000  0.50000000  1
  Fe  Fe1  1  0.50000000  0.50000000  0.00000000  1
  Fe  Fe2  1  0.50000000  0.00000000  0.50000000  1
  Rh  Rh0  1  0.00000000  0.00000000  -0.00000000  1
  N  N0  1  0.50000000  0.50000000  0.50000000  1
loop_
_geom_bond_atom_site_label_1
_geom_bond_atom_site_label_2
_geom_bond_distance
_geom_bond_site_symmetry_2
Fe0 N0 1.919865 1_555
Fe0 N0 1.919865 1_455
Fe0 Rh0 2.714787 1_555
Fe0 Rh0 2.714787 1_556
Fe0 Rh0 2.714787 1_565
Fe0 Rh0 2.714787 1_566
Fe1 N0 1.919473 1_555
Fe1 N0 1.919473 1_554
Fe1 Rh0 2.715064 1_565
Fe1 Rh0 2.715064 1_665
Fe1 Rh0 2.715064 1_555
Fe1 Rh0 2.715064 1_655
Fe2 N0 1.919815 1_555
Fe2 N0 1.919815 1_545
Fe2 Rh0 2.714822 1_656
Fe2 Rh0 2.714822 1_655
Fe2 Rh0 2.714822 1_556
Fe2 Rh0 2.714822 1_555
