# generated using pymatgen
data_K9InSe7
_symmetry_space_group_name_H-M   'P 1'
_cell_length_a   8.29699800
_cell_length_b   11.42009300
_cell_length_c   25.32008844
_cell_angle_alpha   77.50345852
_cell_angle_beta   90.00000000
_cell_angle_gamma   90.00000000
_symmetry_Int_Tables_number   1
_chemical_formula_structural   K9InSe7
_chemical_formula_sum   'K36 In4 Se28'
_cell_volume   2342.30350524
_cell_formula_units_Z   4
loop_
 _symmetry_equiv_pos_site_id
 _symmetry_equiv_pos_as_xyz
  1  'x, y, z'
loop_
 _atom_site_type_symbol
 _atom_site_label
 _atom_site_symmetry_multiplicity
 _atom_site_fract_x
 _atom_site_fract_y
 _atom_site_fract_z
 _atom_site_occupancy
  K  K0  1  0.07586800  0.79086400  0.20141200  1
  K  K1  1  0.42413200  0.79086400  0.70141200  1
  K  K2  1  0.45827200  0.66450300  0.43535000  1
  K  K3  1  0.86033600  0.38313700  0.45180900  1
  K  K4  1  0.04172800  0.66450300  0.93535000  1
  K  K5  1  0.41429700  0.14338300  0.45731900  1
  K  K6  1  0.43012200  0.23477900  0.71609600  1
  K  K7  1  0.05710200  0.26424700  0.59072800  1
  K  K8  1  0.57586800  0.20913600  0.29858800  1
  K  K9  1  0.08570300  0.14338300  0.95731900  1
  K  K10  1  0.63966400  0.38313700  0.95180900  1
  K  K11  1  0.05931300  0.92580600  0.57847700  1
  K  K12  1  0.92428100  0.48596600  0.27231900  1
  K  K13  1  0.91429700  0.85661700  0.04268100  1
  K  K14  1  0.55931300  0.07419400  0.92152300  1
  K  K15  1  0.24105100  0.95668300  0.33425900  1
  K  K16  1  0.42428100  0.51403400  0.22768100  1
  K  K17  1  0.54172800  0.33549700  0.56465000  1
  K  K18  1  0.06987800  0.23477900  0.21609600  1
  K  K19  1  0.94289800  0.73575300  0.40927200  1
  K  K20  1  0.92413200  0.20913600  0.79858800  1
  K  K21  1  0.25894900  0.95668300  0.83425900  1
  K  K22  1  0.74105100  0.04331700  0.16574100  1
  K  K23  1  0.13966400  0.61686300  0.54819100  1
  K  K24  1  0.58570300  0.85661700  0.54268100  1
  K  K25  1  0.57571900  0.48596600  0.77231900  1
  K  K26  1  0.95827200  0.33549700  0.06465000  1
  K  K27  1  0.75894900  0.04331700  0.66574100  1
  K  K28  1  0.56987800  0.76522100  0.28390400  1
  K  K29  1  0.36033600  0.61686300  0.04819100  1
  K  K30  1  0.07571900  0.51403400  0.72768100  1
  K  K31  1  0.93012200  0.76522100  0.78390400  1
  K  K32  1  0.44068700  0.92580600  0.07847700  1
  K  K33  1  0.44289800  0.26424700  0.09072800  1
  K  K34  1  0.94068700  0.07419400  0.42152300  1
  K  K35  1  0.55710200  0.73575300  0.90927200  1
  In  In0  1  0.69582600  0.55545400  0.62767200  1
  In  In1  1  0.80417400  0.55545400  0.12767200  1
  In  In2  1  0.30417400  0.44454600  0.37232800  1
  In  In3  1  0.19582600  0.44454600  0.87232800  1
  Se  Se0  1  0.63009100  0.93672200  0.37387800  1
  Se  Se1  1  0.86990900  0.93672200  0.87387800  1
  Se  Se2  1  0.76609600  0.12320800  0.53135700  1
  Se  Se3  1  0.36990900  0.06327800  0.62612200  1
  Se  Se4  1  0.61621800  0.46568600  0.35159400  1
  Se  Se5  1  0.18957400  0.26496400  0.33471500  1
  Se  Se6  1  0.19370400  0.65529800  0.32132700  1
  Se  Se7  1  0.74492100  0.59065500  0.02344100  1
  Se  Se8  1  0.68957400  0.73503600  0.16528500  1
  Se  Se9  1  0.34018600  0.02647900  0.19681000  1
  Se  Se10  1  0.11621800  0.53431400  0.14840600  1
  Se  Se11  1  0.69370400  0.34470200  0.17867300  1
  Se  Se12  1  0.88378200  0.46568600  0.85159400  1
  Se  Se13  1  0.24492100  0.40934500  0.47655900  1
  Se  Se14  1  0.23390400  0.87679200  0.46864300  1
  Se  Se15  1  0.80629600  0.34470200  0.67867300  1
  Se  Se16  1  0.75507900  0.59065500  0.52344100  1
  Se  Se17  1  0.81042600  0.73503600  0.66528500  1
  Se  Se18  1  0.65981400  0.97352100  0.80319000  1
  Se  Se19  1  0.25507900  0.40934500  0.97655900  1
  Se  Se20  1  0.13009100  0.06327800  0.12612200  1
  Se  Se21  1  0.26609600  0.87679200  0.96864300  1
  Se  Se22  1  0.73390400  0.12320800  0.03135700  1
  Se  Se23  1  0.15981400  0.02647900  0.69681000  1
  Se  Se24  1  0.30629600  0.65529800  0.82132700  1
  Se  Se25  1  0.84018600  0.97352100  0.30319000  1
  Se  Se26  1  0.38378200  0.53431400  0.64840600  1
  Se  Se27  1  0.31042600  0.26496400  0.83471500  1
loop_
_geom_bond_atom_site_label_1
_geom_bond_atom_site_label_2
_geom_bond_distance
_geom_bond_site_symmetry_2
K0 Se6 3.246123 1_555
K0 Se20 3.308821 1_565
K0 Se8 3.430475 1_455
K0 Se9 3.453614 1_565
K0 Se10 3.492695 1_555
K1 Se24 3.246123 1_555
K1 Se3 3.308821 1_565
K1 Se17 3.430475 1_555
K1 Se23 3.453614 1_565
K1 Se26 3.492695 1_555
K2 Se16 3.307057 1_555
K2 Se14 3.307273 1_555
K2 Se13 3.376007 1_555
K2 Se0 3.467754 1_555
K2 Se6 3.646386 1_555
K2 Se4 3.667936 1_555
K3 Se4 3.224067 1_555
K3 Se13 3.278005 1_655
K3 Se2 3.300347 1_555
K3 Se16 3.395400 1_555
K4 Se7 3.307057 1_456
K4 Se21 3.307273 1_555
K4 Se19 3.376007 1_555
K4 Se1 3.467754 1_455
K4 Se24 3.646386 1_555
K4 Se12 3.667936 1_455
K5 Se14 3.348665 1_545
K5 Se2 3.449682 1_555
K5 Se13 3.475316 1_555
K5 Se5 3.629866 1_555
K5 Se0 3.923926 1_545
K6 Se27 3.251744 1_555
K6 Se3 3.347601 1_555
K6 Se23 3.380797 1_555
K6 Se15 3.420571 1_555
K6 Se26 3.499920 1_555
K6 Se18 3.814366 1_545
K7 Se15 3.319404 1_455
K7 Se13 3.384928 1_555
K7 Se2 3.425153 1_455
K7 Se3 3.452004 1_555
K7 Se23 3.486776 1_555
K8 Se11 3.246123 1_555
K8 Se0 3.308821 1_545
K8 Se5 3.430475 1_555
K8 Se25 3.453614 1_545
K8 Se4 3.492695 1_555
K9 Se21 3.348665 1_545
K9 Se22 3.449682 1_456
K9 Se19 3.475316 1_555
K9 Se27 3.629866 1_555
K9 Se1 3.923926 1_445
K10 Se12 3.224067 1_555
K10 Se19 3.278005 1_555
K10 Se22 3.300347 1_556
K10 Se7 3.395400 1_556
K11 Se14 3.289279 1_555
K11 Se2 3.355620 1_465
K11 Se3 3.373528 1_565
K11 Se17 3.430667 1_455
K11 Se23 3.533424 1_565
K12 Se4 3.227172 1_555
K12 Se6 3.363750 1_655
K12 Se10 3.454716 1_655
K12 Se5 3.461979 1_655
K12 Se11 3.679694 1_555
K13 Se22 3.348665 1_565
K13 Se21 3.449682 1_654
K13 Se7 3.475316 1_555
K13 Se8 3.629866 1_555
K13 Se20 3.923926 1_665
K14 Se22 3.289279 1_556
K14 Se21 3.355620 1_545
K14 Se1 3.373528 1_545
K14 Se27 3.430667 1_555
K14 Se18 3.533424 1_545
K15 Se14 3.327197 1_555
K15 Se0 3.373193 1_555
K15 Se25 3.413573 1_455
K15 Se9 3.496188 1_565
K15 Se5 3.548908 1_565
K15 Se6 3.549021 1_555
K16 Se10 3.227172 1_555
K16 Se11 3.363750 1_555
K16 Se4 3.454716 1_555
K16 Se8 3.461979 1_555
K16 Se6 3.679694 1_555
K17 Se13 3.307057 1_555
K17 Se2 3.307273 1_555
K17 Se16 3.376007 1_555
K17 Se3 3.467754 1_555
K17 Se15 3.646386 1_555
K17 Se26 3.667936 1_555
K18 Se5 3.251744 1_555
K18 Se20 3.347601 1_555
K18 Se9 3.380797 1_555
K18 Se11 3.420571 1_455
K18 Se10 3.499920 1_555
K18 Se25 3.814366 1_445
K19 Se6 3.319404 1_655
K19 Se16 3.384928 1_555
K19 Se14 3.425153 1_655
K19 Se0 3.452004 1_555
K19 Se25 3.486776 1_555
K20 Se15 3.246123 1_555
K20 Se1 3.308821 1_545
K20 Se27 3.430475 1_655
K20 Se18 3.453614 1_545
K20 Se12 3.492695 1_555
K21 Se21 3.327197 1_555
K21 Se1 3.373193 1_455
K21 Se18 3.413573 1_555
K21 Se23 3.496188 1_565
K21 Se27 3.548908 1_565
K21 Se24 3.549021 1_555
K22 Se22 3.327197 1_555
K22 Se20 3.373193 1_655
K22 Se9 3.413573 1_555
K22 Se25 3.496188 1_545
K22 Se8 3.548908 1_545
K22 Se11 3.549021 1_555
K23 Se26 3.224067 1_555
K23 Se16 3.278005 1_455
K23 Se14 3.300347 1_555
K23 Se13 3.395400 1_555
K24 Se2 3.348665 1_565
K24 Se14 3.449682 1_555
K24 Se16 3.475316 1_555
K24 Se17 3.629866 1_555
K24 Se3 3.923926 1_565
K25 Se12 3.227172 1_555
K25 Se24 3.363750 1_555
K25 Se26 3.454716 1_555
K25 Se27 3.461979 1_555
K25 Se15 3.679694 1_555
K26 Se19 3.307057 1_654
K26 Se22 3.307273 1_555
K26 Se7 3.376007 1_555
K26 Se20 3.467754 1_655
K26 Se11 3.646386 1_555
K26 Se10 3.667936 1_655
K27 Se2 3.327197 1_555
K27 Se3 3.373193 1_555
K27 Se23 3.413573 1_655
K27 Se18 3.496188 1_545
K27 Se17 3.548908 1_545
K27 Se15 3.549021 1_555
K28 Se8 3.251744 1_555
K28 Se0 3.347601 1_555
K28 Se25 3.380797 1_555
K28 Se6 3.420571 1_555
K28 Se4 3.499920 1_555
K28 Se9 3.814366 1_565
K29 Se10 3.224067 1_555
K29 Se7 3.278005 1_555
K29 Se21 3.300347 1_554
K29 Se19 3.395400 1_554
K30 Se26 3.227172 1_555
K30 Se15 3.363750 1_455
K30 Se12 3.454716 1_455
K30 Se17 3.461979 1_455
K30 Se24 3.679694 1_555
K31 Se17 3.251744 1_555
K31 Se1 3.347601 1_555
K31 Se18 3.380797 1_555
K31 Se24 3.420571 1_655
K31 Se12 3.499920 1_555
K31 Se23 3.814366 1_665
K32 Se21 3.289279 1_554
K32 Se22 3.355620 1_565
K32 Se20 3.373528 1_565
K32 Se8 3.430667 1_555
K32 Se9 3.533424 1_565
K33 Se11 3.319404 1_555
K33 Se19 3.384928 1_554
K33 Se22 3.425153 1_555
K33 Se20 3.452004 1_555
K33 Se9 3.486776 1_555
K34 Se2 3.289279 1_555
K34 Se14 3.355620 1_645
K34 Se0 3.373528 1_545
K34 Se5 3.430667 1_655
K34 Se25 3.533424 1_545
K35 Se24 3.319404 1_555
K35 Se7 3.384928 1_556
K35 Se21 3.425153 1_555
K35 Se1 3.452004 1_555
K35 Se18 3.486776 1_555
In0 Se17 2.619598 1_555
In0 Se16 2.628539 1_555
In0 Se15 2.637304 1_555
In0 Se26 2.642369 1_555
In0 K17 3.496494 1_555
In1 Se8 2.619598 1_555
In1 Se7 2.628539 1_555
In1 Se11 2.637304 1_555
In1 Se10 2.642369 1_655
In1 K26 3.496494 1_555
In2 Se5 2.619598 1_555
In2 Se13 2.628539 1_555
In2 Se6 2.637304 1_555
In2 Se4 2.642369 1_555
In2 K2 3.496494 1_555
In3 Se27 2.619598 1_555
In3 Se19 2.628539 1_555
In3 Se24 2.637304 1_555
In3 Se12 2.642369 1_455
In3 K4 3.496494 1_555
Se0 Se25 2.468436 1_555
Se1 Se18 2.468436 1_555
Se20 Se9 2.468436 1_555
Se23 Se3 2.468436 1_555
