# generated using pymatgen
data_Al7(CN)3
_symmetry_space_group_name_H-M   'P 1'
_cell_length_a   3.25136639
_cell_length_b   3.25136639
_cell_length_c   32.07933600
_cell_angle_alpha   90.00000000
_cell_angle_beta   90.00000000
_cell_angle_gamma   120.00000788
_symmetry_Int_Tables_number   1
_chemical_formula_structural   Al7(CN)3
_chemical_formula_sum   'Al14 C6 N6'
_cell_volume   293.68907465
_cell_formula_units_Z   2
loop_
 _symmetry_equiv_pos_site_id
 _symmetry_equiv_pos_as_xyz
  1  'x, y, z'
loop_
 _atom_site_type_symbol
 _atom_site_label
 _atom_site_symmetry_multiplicity
 _atom_site_fract_x
 _atom_site_fract_y
 _atom_site_fract_z
 _atom_site_occupancy
  Al  Al0  1  0.00000000  0.00000000  0.11110600  1
  Al  Al1  1  0.00000000  0.00000000  0.89173400  1
  Al  Al2  1  0.00000000  0.00000000  0.61110600  1
  Al  Al3  1  0.66666700  0.33333300  0.18362400  1
  Al  Al4  1  0.66666700  0.33333300  0.46984700  1
  Al  Al5  1  0.00000000  0.00000000  0.74136800  1
  Al  Al6  1  0.66666700  0.33333300  0.03165400  1
  Al  Al7  1  0.66666700  0.33333300  0.31296100  1
  Al  Al8  1  0.00000000  0.00000000  0.39173400  1
  Al  Al9  1  0.33333300  0.66666700  0.96984700  1
  Al  Al10  1  0.33333300  0.66666700  0.53165400  1
  Al  Al11  1  0.33333300  0.66666700  0.81296100  1
  Al  Al12  1  0.33333300  0.66666700  0.68362400  1
  Al  Al13  1  0.00000000  0.00000000  0.24136800  1
  C  C0  1  0.33333300  0.66666700  0.75197000  1
  C  C1  1  0.00000000  0.00000000  0.99979700  1
  C  C2  1  0.66666700  0.33333300  0.25197000  1
  C  C3  1  0.00000000  0.00000000  0.49979700  1
  C  C4  1  0.00000000  0.00000000  0.17120200  1
  C  C5  1  0.00000000  0.00000000  0.67120200  1
  N  N0  1  0.66666700  0.33333300  0.41212300  1
  N  N1  1  0.33333300  0.66666700  0.91212300  1
  N  N2  1  0.00000000  0.00000000  0.83400800  1
  N  N3  1  0.00000000  0.00000000  0.33400800  1
  N  N4  1  0.33333300  0.66666700  0.58850800  1
  N  N5  1  0.66666700  0.33333300  0.08850800  1
loop_
_geom_bond_atom_site_label_1
_geom_bond_atom_site_label_2
_geom_bond_distance
_geom_bond_site_symmetry_2
Al0 C4 1.927840 1_555
Al0 N5 2.012290 1_455
Al0 N5 2.012292 1_555
Al0 N5 2.012292 1_445
Al1 N2 1.851812 1_555
Al1 N1 1.987861 1_545
Al1 N1 1.987863 1_555
Al1 N1 1.987863 1_445
Al2 C5 1.927840 1_555
Al2 N4 2.012290 1_545
Al2 N4 2.012292 1_445
Al2 N4 2.012292 1_555
Al3 C4 1.919005 1_655
Al3 C4 1.919008 1_555
Al3 C4 1.919008 1_665
Al3 C2 2.192494 1_555
Al4 N0 1.851748 1_555
Al4 C3 2.108762 1_655
Al4 C3 2.108765 1_555
Al4 C3 2.108765 1_665
Al5 C0 1.907737 1_545
Al5 C0 1.907739 1_555
Al5 C0 1.907739 1_445
Al5 C5 2.250879 1_555
Al6 N5 1.823839 1_555
Al6 C1 2.137328 1_654
Al6 C1 2.137331 1_554
Al6 C1 2.137331 1_664
Al7 C2 1.956551 1_555
Al7 N3 1.994905 1_655
Al7 N3 1.994908 1_555
Al7 N3 1.994908 1_665
Al8 N3 1.851812 1_555
Al8 N0 1.987861 1_455
Al8 N0 1.987863 1_445
Al8 N0 1.987863 1_555
Al9 N1 1.851748 1_555
Al9 C1 2.108762 1_565
Al9 C1 2.108765 1_665
Al9 C1 2.108765 1_555
Al10 N4 1.823839 1_555
Al10 C3 2.137328 1_565
Al10 C3 2.137331 1_555
Al10 C3 2.137331 1_665
Al11 C0 1.956551 1_555
Al11 N2 1.994905 1_565
Al11 N2 1.994908 1_555
Al11 N2 1.994908 1_665
Al12 C5 1.919005 1_565
Al12 C5 1.919008 1_665
Al12 C5 1.919008 1_555
Al12 C0 2.192494 1_555
Al13 C2 1.907737 1_455
Al13 C2 1.907739 1_445
Al13 C2 1.907739 1_555
Al13 C4 2.250879 1_555
