# generated using pymatgen
data_CoCN2
_symmetry_space_group_name_H-M   'P 1'
_cell_length_a   3.11078043
_cell_length_b   3.11078043
_cell_length_c   9.56012300
_cell_angle_alpha   90.00000000
_cell_angle_beta   90.00000000
_cell_angle_gamma   120.00000911
_symmetry_Int_Tables_number   1
_chemical_formula_structural   CoCN2
_chemical_formula_sum   'Co2 C2 N4'
_cell_volume   80.11849591
_cell_formula_units_Z   2
loop_
 _symmetry_equiv_pos_site_id
 _symmetry_equiv_pos_as_xyz
  1  'x, y, z'
loop_
 _atom_site_type_symbol
 _atom_site_label
 _atom_site_symmetry_multiplicity
 _atom_site_fract_x
 _atom_site_fract_y
 _atom_site_fract_z
 _atom_site_occupancy
  Co  Co0  1  0.00000000  0.00000000  0.50000000  1
  Co  Co1  1  0.00000000  0.00000000  0.00000000  1
  C  C0  1  0.33333300  0.66666700  0.25000000  1
  C  C1  1  0.66666700  0.33333300  0.75000000  1
  N  N0  1  0.66666700  0.33333300  0.62066000  1
  N  N1  1  0.33333300  0.66666700  0.37934000  1
  N  N2  1  0.66666700  0.33333300  0.87934000  1
  N  N3  1  0.33333300  0.66666700  0.12066000  1
loop_
_geom_bond_atom_site_label_1
_geom_bond_atom_site_label_2
_geom_bond_distance
_geom_bond_site_symmetry_2
Co0 N1 2.134541 1_545
Co0 N0 2.134541 1_455
Co0 N1 2.134543 1_445
Co0 N1 2.134543 1_555
Co0 N0 2.134543 1_445
Co0 N0 2.134543 1_555
Co1 N3 2.134541 1_545
Co1 N2 2.134541 1_454
Co1 N3 2.134543 1_555
Co1 N2 2.134543 1_444
Co1 N3 2.134543 1_445
Co1 N2 2.134543 1_554
C0 N1 1.236506 1_555
C0 N3 1.236506 1_555
C1 N2 1.236506 1_555
C1 N0 1.236506 1_555
