# generated using pymatgen
data_K3VCO8
_symmetry_space_group_name_H-M   'P 1'
_cell_length_a   6.57163935
_cell_length_b   6.57163935
_cell_length_c   5.71178516
_cell_angle_alpha   67.36849994
_cell_angle_beta   67.36849994
_cell_angle_gamma   91.34429933
_symmetry_Int_Tables_number   1
_chemical_formula_structural   K3VCO8
_chemical_formula_sum   'K3 V1 C1 O8'
_cell_volume   205.84238820
_cell_formula_units_Z   1
loop_
 _symmetry_equiv_pos_site_id
 _symmetry_equiv_pos_as_xyz
  1  'x, y, z'
loop_
 _atom_site_type_symbol
 _atom_site_label
 _atom_site_symmetry_multiplicity
 _atom_site_fract_x
 _atom_site_fract_y
 _atom_site_fract_z
 _atom_site_occupancy
  K  K0  1  0.40566900  0.40566900  0.09170000  1
  K  K1  1  0.08183900  0.64822400  0.63761400  1
  K  K2  1  0.64822400  0.08183900  0.63761400  1
  V  V0  1  0.99836600  0.99836600  0.00212800  1
  C  C0  1  0.66167200  0.66167200  0.35084400  1
  O  O0  1  0.75368800  0.75368800  0.07130700  1
  O  O1  1  0.10581100  0.10581100  0.65299700  1
  O  O2  1  0.24967400  0.97000900  0.09129100  1
  O  O3  1  0.76781800  0.18200500  0.06556600  1
  O  O4  1  0.18200500  0.76781800  0.06556600  1
  O  O5  1  0.49623600  0.49623600  0.49473300  1
  O  O6  1  0.75539800  0.75539800  0.45782800  1
  O  O7  1  0.97000900  0.24967400  0.09129100  1
loop_
_geom_bond_atom_site_label_1
_geom_bond_atom_site_label_2
_geom_bond_distance
_geom_bond_site_symmetry_2
K0 O4 2.811810 1_555
K0 O3 2.811810 1_555
K0 O5 2.846070 1_555
K0 O1 2.852776 1_555
K0 O7 3.019433 1_455
K0 O2 3.019433 1_545
K0 O5 3.032253 1_554
K0 O0 3.133584 1_555
K0 O6 3.258358 1_554
K1 O7 2.708426 1_456
K1 O6 2.713367 1_455
K1 O2 2.754817 1_555
K1 O4 2.840975 1_555
K1 O5 2.850327 1_555
K1 O0 2.923583 1_456
K1 O1 3.044164 1_565
K1 O3 3.110965 1_456
K1 O4 3.117443 1_556
K2 O2 2.708426 1_546
K2 O6 2.713367 1_545
K2 O7 2.754817 1_555
K2 O3 2.840975 1_555
K2 O5 2.850327 1_555
K2 O0 2.923583 1_546
K2 O1 3.044164 1_655
K2 O4 3.110965 1_546
K2 O3 3.117443 1_556
C0 O5 1.268319 1_555
C0 O6 1.301414 1_555
C0 O0 1.333181 1_555
O0 V0 2.056160 1_555
O1 V0 1.668267 1_446
O2 O4 1.468903 1_555
O2 V0 1.900069 1_455
O3 O7 1.468903 1_555
O3 V0 1.970525 1_545
O4 V0 1.970525 1_455
O6 V0 2.314566 1_555
O7 V0 1.900069 1_545
