# generated using pymatgen
data_DyZrSb
_symmetry_space_group_name_H-M   'P 1'
_cell_length_a   4.26801202
_cell_length_b   4.26801247
_cell_length_c   8.84037724
_cell_angle_alpha   103.96877308
_cell_angle_beta   103.96877885
_cell_angle_gamma   90.00001313
_symmetry_Int_Tables_number   1
_chemical_formula_structural   DyZrSb
_chemical_formula_sum   'Dy2 Zr2 Sb2'
_cell_volume   151.36143795
_cell_formula_units_Z   2
loop_
 _symmetry_equiv_pos_site_id
 _symmetry_equiv_pos_as_xyz
  1  'x, y, z'
loop_
 _atom_site_type_symbol
 _atom_site_label
 _atom_site_symmetry_multiplicity
 _atom_site_fract_x
 _atom_site_fract_y
 _atom_site_fract_z
 _atom_site_occupancy
  Dy  Dy0  1  0.67633564  0.67633564  0.35267127  1
  Dy  Dy1  1  0.32366436  0.32366436  0.64732873  1
  Zr  Zr0  1  0.00000000  0.50000000  0.00000000  1
  Zr  Zr1  1  0.50000000  0.00000000  0.00000000  1
  Sb  Sb0  1  0.13349452  0.13349452  0.26698803  1
  Sb  Sb1  1  0.86650548  0.86650548  0.73301197  1
loop_
_geom_bond_atom_site_label_1
_geom_bond_atom_site_label_2
_geom_bond_distance
_geom_bond_site_symmetry_2
Dy0 Sb0 3.100781 1_555
Dy0 Sb0 3.100784 1_565
Dy0 Sb0 3.100784 1_655
Dy0 Sb0 3.100787 1_665
Dy0 Sb1 3.160361 1_555
Dy1 Sb1 3.100781 1_555
Dy1 Sb1 3.100784 1_545
Dy1 Sb1 3.100784 1_455
Dy1 Sb1 3.100787 1_445
Dy1 Sb0 3.160361 1_555
Sb0 Zr0 3.078251 1_555
Sb0 Zr1 3.078251 1_555
Sb0 Zr1 3.078254 1_455
Sb0 Zr0 3.078254 1_545
Sb1 Zr0 3.078251 1_656
Sb1 Zr1 3.078251 1_566
Sb1 Zr1 3.078254 1_666
Sb1 Zr0 3.078254 1_666
