# generated using pymatgen
data_LaZn11
_symmetry_space_group_name_H-M   'P 1'
_cell_length_a   6.79476990
_cell_length_b   8.19460059
_cell_length_c   8.19460053
_cell_angle_alpha   80.18766971
_cell_angle_beta   65.56531395
_cell_angle_gamma   65.56533703
_symmetry_Int_Tables_number   1
_chemical_formula_structural   LaZn11
_chemical_formula_sum   'La2 Zn22'
_cell_volume   378.20444714
_cell_formula_units_Z   2
loop_
 _symmetry_equiv_pos_site_id
 _symmetry_equiv_pos_as_xyz
  1  'x, y, z'
loop_
 _atom_site_type_symbol
 _atom_site_label
 _atom_site_symmetry_multiplicity
 _atom_site_fract_x
 _atom_site_fract_y
 _atom_site_fract_z
 _atom_site_occupancy
  La  La0  1  0.37436507  0.25062761  0.75062761  1
  La  La1  1  0.62563493  0.74937239  0.24937239  1
  Zn  Zn0  1  0.72314041  0.83313966  0.57858892  1
  Zn  Zn1  1  -0.00000000  0.00000000  0.00000000  1
  Zn  Zn2  1  0.19743496  0.07845233  0.16721469  1
  Zn  Zn3  1  0.13527349  0.42188840  0.16685411  1
  Zn  Zn4  1  0.19743496  0.66721469  0.57845233  1
  Zn  Zn5  1  0.86472651  0.57811160  0.83314589  1
  Zn  Zn6  1  0.13527349  0.66685411  0.92188840  1
  Zn  Zn7  1  0.12531517  0.74956470  0.24956470  1
  Zn  Zn8  1  0.86472651  0.33314589  0.07811160  1
  Zn  Zn9  1  0.87468383  0.25043530  0.75043530  1
  Zn  Zn10  1  0.55633029  0.57841251  0.66723998  1
  Zn  Zn11  1  0.50000000  0.50000000  0.00000000  1
  Zn  Zn12  1  0.27685959  0.16686034  0.42141108  1
  Zn  Zn13  1  0.80256504  0.33278531  0.42154767  1
  Zn  Zn14  1  0.72314041  0.07858892  0.33313966  1
  Zn  Zn15  1  0.44366971  0.42158749  0.33276002  1
  Zn  Zn16  1  0.55633029  0.16723998  0.07841251  1
  Zn  Zn17  1  0.27685959  0.92141108  0.66686034  1
  Zn  Zn18  1  0.80256504  0.92154767  0.83278531  1
  Zn  Zn19  1  0.44366971  0.83276002  0.92158749  1
  Zn  Zn20  1  -0.00000000  0.00000000  0.50000000  1
  Zn  Zn21  1  -0.00000000  0.50000000  0.50000000  1
loop_
_geom_bond_atom_site_label_1
_geom_bond_atom_site_label_2
_geom_bond_distance
_geom_bond_site_symmetry_2
La0 Zn10 3.260919 1_555
La0 Zn16 3.260919 1_556
La0 Zn8 3.262448 1_456
La0 Zn5 3.262449 1_455
La0 Zn17 3.267171 1_545
La0 Zn12 3.267171 1_555
La0 Zn13 3.271281 1_555
La0 Zn18 3.271282 1_545
La0 Zn3 3.376910 1_556
La0 Zn6 3.376911 1_555
La0 Zn2 3.384676 1_556
La0 Zn4 3.384677 1_555
La0 Zn14 3.388260 1_555
La0 Zn0 3.388261 1_545
La0 Zn15 3.389189 1_555
La0 Zn19 3.389189 1_545
La0 Zn9 3.396523 1_455
La0 Zn9 3.398248 1_555
La1 Zn15 3.260919 1_555
La1 Zn19 3.260919 1_554
La1 Zn6 3.262448 1_654
La1 Zn3 3.262449 1_655
La1 Zn14 3.267171 1_565
La1 Zn0 3.267171 1_555
La1 Zn4 3.271281 1_555
La1 Zn2 3.271282 1_565
La1 Zn5 3.376910 1_554
La1 Zn8 3.376911 1_555
La1 Zn18 3.384676 1_554
La1 Zn13 3.384677 1_555
La1 Zn17 3.388260 1_555
La1 Zn12 3.388261 1_565
La1 Zn10 3.389189 1_555
La1 Zn16 3.389189 1_565
La1 Zn7 3.396517 1_655
La1 Zn7 3.398254 1_555
Zn0 Zn20 2.578553 1_665
Zn0 Zn14 2.590796 1_565
Zn0 Zn21 2.598940 1_655
Zn0 Zn17 2.605907 1_555
Zn0 Zn18 2.631159 1_555
Zn0 Zn10 2.632280 1_555
Zn0 Zn19 2.663160 1_555
Zn0 Zn5 2.855772 1_555
Zn0 Zn7 2.862116 1_655
Zn0 Zn4 2.933775 1_655
Zn1 Zn2 2.573938 1_555
Zn1 Zn18 2.573938 1_444
Zn1 Zn19 2.580438 1_544
Zn1 Zn16 2.580438 1_455
Zn1 Zn6 2.596219 1_544
Zn1 Zn8 2.596219 1_455
Zn1 Zn17 2.598940 1_544
Zn1 Zn14 2.598940 1_455
Zn1 Zn7 2.771906 1_545
Zn1 Zn9 2.771908 1_454
Zn2 Zn20 2.595973 1_555
Zn2 Zn8 2.634870 1_455
Zn2 Zn3 2.667132 1_555
Zn2 Zn7 2.856265 1_545
Zn3 Zn6 2.585692 1_554
Zn3 Zn8 2.613280 1_455
Zn3 Zn7 2.847139 1_555
Zn4 Zn5 2.634869 1_455
Zn4 Zn6 2.667132 1_555
Zn4 Zn7 2.856266 1_555
Zn5 Zn8 2.585692 1_556
Zn5 Zn6 2.613280 1_655
Zn5 Zn9 2.847142 1_555
Zn6 Zn7 2.847139 1_556
Zn8 Zn9 2.847142 1_554
Zn10 Zn21 2.580438 1_655
Zn10 Zn13 2.590874 1_555
Zn10 Zn11 2.595729 1_556
Zn10 Zn4 2.612478 1_555
Zn10 Zn6 2.631706 1_555
Zn10 Zn17 2.663160 1_555
Zn10 Zn19 2.848705 1_555
Zn10 Zn9 2.855369 1_555
Zn10 Zn5 2.931018 1_555
Zn11 Zn5 2.575187 1_554
Zn11 Zn3 2.575187 1_555
Zn11 Zn6 2.575188 1_554
Zn11 Zn8 2.575188 1_555
Zn11 Zn15 2.595729 1_555
Zn11 Zn16 2.595729 1_555
Zn11 Zn19 2.595729 1_554
Zn11 Zn9 2.767116 1_554
Zn11 Zn7 2.767119 1_555
Zn12 Zn20 2.578553 1_555
Zn12 Zn17 2.590796 1_545
Zn12 Zn21 2.598940 1_555
Zn12 Zn14 2.605907 1_555
Zn12 Zn2 2.631159 1_555
Zn12 Zn15 2.632280 1_555
Zn12 Zn16 2.663160 1_555
Zn12 Zn3 2.855772 1_555
Zn12 Zn9 2.862119 1_455
Zn12 Zn13 2.933775 1_455
Zn13 Zn21 2.573938 1_655
Zn13 Zn20 2.595973 1_655
Zn13 Zn15 2.612478 1_555
Zn13 Zn14 2.631159 1_555
Zn13 Zn3 2.634869 1_655
Zn13 Zn8 2.667132 1_555
Zn13 Zn2 2.848548 1_655
Zn13 Zn9 2.856262 1_555
Zn14 Zn20 2.578553 1_655
Zn14 Zn16 2.632280 1_555
Zn14 Zn15 2.663160 1_555
Zn14 Zn8 2.855771 1_555
Zn14 Zn7 2.862117 1_645
Zn14 Zn2 2.933775 1_655
Zn15 Zn21 2.580438 1_555
Zn15 Zn4 2.590874 1_555
Zn15 Zn8 2.631706 1_555
Zn15 Zn16 2.848705 1_555
Zn15 Zn7 2.855372 1_555
Zn15 Zn3 2.931018 1_555
Zn16 Zn18 2.590874 1_544
Zn16 Zn2 2.612477 1_555
Zn16 Zn3 2.631707 1_555
Zn16 Zn9 2.855368 1_554
Zn16 Zn8 2.931018 1_555
Zn17 Zn20 2.578553 1_565
Zn17 Zn4 2.631159 1_555
Zn17 Zn19 2.632280 1_555
Zn17 Zn6 2.855771 1_555
Zn17 Zn9 2.862120 1_465
Zn17 Zn18 2.933775 1_455
Zn18 Zn20 2.595973 1_665
Zn18 Zn19 2.612477 1_555
Zn18 Zn6 2.634870 1_655
Zn18 Zn5 2.667132 1_555
Zn18 Zn4 2.848548 1_655
Zn18 Zn9 2.856262 1_565
Zn19 Zn2 2.590874 1_566
Zn19 Zn5 2.631707 1_555
Zn19 Zn7 2.855371 1_556
Zn19 Zn6 2.931018 1_555
Zn20 Zn4 2.595973 1_545
Zn20 Zn9 2.773510 1_455
Zn20 Zn7 2.773512 1_545
Zn21 Zn4 2.573938 1_555
Zn21 Zn5 2.596219 1_455
Zn21 Zn3 2.596219 1_555
Zn21 Zn7 2.771906 1_555
Zn21 Zn9 2.771908 1_455
