# generated using pymatgen
data_Ti3O
_symmetry_space_group_name_H-M   'P 1'
_cell_length_a   5.13534129
_cell_length_b   5.13534075
_cell_length_c   14.23533773
_cell_angle_alpha   90.00000000
_cell_angle_beta   90.00000000
_cell_angle_gamma   120.00000353
_symmetry_Int_Tables_number   1
_chemical_formula_structural   Ti3O
_chemical_formula_sum   'Ti18 O6'
_cell_volume   325.11497159
_cell_formula_units_Z   6
loop_
 _symmetry_equiv_pos_site_id
 _symmetry_equiv_pos_as_xyz
  1  'x, y, z'
loop_
 _atom_site_type_symbol
 _atom_site_label
 _atom_site_symmetry_multiplicity
 _atom_site_fract_x
 _atom_site_fract_y
 _atom_site_fract_z
 _atom_site_occupancy
  Ti  Ti0  1  0.66173226  0.66127209  0.25553414  1
  Ti  Ti1  1  0.66220732  0.66213178  0.92153973  1
  Ti  Ti2  1  0.66720014  0.99473890  0.41146647  1
  Ti  Ti3  1  0.66720014  0.67246024  0.58853353  1
  Ti  Ti4  1  0.33786822  0.33779268  0.07846027  1
  Ti  Ti5  1  0.66220732  0.00007554  0.07846027  1
  Ti  Ti6  1  0.33786822  0.00007554  0.92153973  1
  Ti  Ti7  1  0.99953983  0.66127209  0.74446586  1
  Ti  Ti8  1  0.00526110  0.67246024  0.41146647  1
  Ti  Ti9  1  0.99953983  0.33826774  0.25553414  1
  Ti  Ti10  1  0.33872791  0.00046017  0.25553414  1
  Ti  Ti11  1  0.00526110  0.33279986  0.58853353  1
  Ti  Ti12  1  0.66173226  0.00046017  0.74446586  1
  Ti  Ti13  1  0.99992446  0.33779268  0.92153973  1
  Ti  Ti14  1  0.99992446  0.66213178  0.07846027  1
  Ti  Ti15  1  0.33872791  0.33826774  0.74446586  1
  Ti  Ti16  1  0.32753976  0.99473890  0.58853353  1
  Ti  Ti17  1  0.32753976  0.33279986  0.41146647  1
  O  O0  1  0.33333300  0.66666700  0.16679080  1
  O  O1  1  0.66666700  0.33333300  0.83305533  1
  O  O2  1  0.66666700  0.33333300  0.16694467  1
  O  O3  1  0.33333300  0.66666700  0.83320920  1
  O  O4  1  0.00000000  -0.00000000  0.50000000  1
  O  O5  1  0.33333300  0.66666700  0.50000000  1
loop_
_geom_bond_atom_site_label_1
_geom_bond_atom_site_label_2
_geom_bond_distance
_geom_bond_site_symmetry_2
O0 Ti14 2.115011 1_455
O0 Ti5 2.115013 1_565
O0 Ti4 2.115015 1_555
O0 Ti10 2.118364 1_565
O0 Ti9 2.118366 1_455
O0 Ti0 2.118368 1_555
O1 Ti12 2.114190 1_555
O1 Ti7 2.114192 1_555
O1 Ti15 2.114194 1_555
O1 Ti13 2.115844 1_555
O1 Ti6 2.115846 1_555
O1 Ti1 2.115848 1_555
O2 Ti9 2.114190 1_555
O2 Ti10 2.114192 1_555
O2 Ti0 2.114194 1_555
O2 Ti5 2.115843 1_555
O2 Ti14 2.115846 1_555
O2 Ti4 2.115848 1_555
O3 Ti6 2.115011 1_565
O3 Ti13 2.115013 1_455
O3 Ti1 2.115016 1_555
O3 Ti7 2.118364 1_455
O3 Ti12 2.118366 1_565
O3 Ti15 2.118368 1_555
O4 Ti11 2.112757 1_555
O4 Ti2 2.112758 1_445
O4 Ti17 2.112759 1_555
O4 Ti3 2.112759 1_445
O4 Ti8 2.112762 1_545
O4 Ti16 2.112762 1_545
O5 Ti16 2.116080 1_555
O5 Ti8 2.116080 1_555
O5 Ti11 2.116084 1_555
O5 Ti2 2.116084 1_555
O5 Ti17 2.116088 1_555
O5 Ti3 2.116088 1_555
