# generated using pymatgen
data_Y2C(NO)2
_symmetry_space_group_name_H-M   'P 1'
_cell_length_a   3.69813776
_cell_length_b   3.69813599
_cell_length_c   16.33782619
_cell_angle_alpha   90.00000000
_cell_angle_beta   90.00000000
_cell_angle_gamma   119.99999823
_symmetry_Int_Tables_number   1
_chemical_formula_structural   Y2C(NO)2
_chemical_formula_sum   'Y4 C2 N4 O4'
_cell_volume   193.50441299
_cell_formula_units_Z   2
loop_
 _symmetry_equiv_pos_site_id
 _symmetry_equiv_pos_as_xyz
  1  'x, y, z'
loop_
 _atom_site_type_symbol
 _atom_site_label
 _atom_site_symmetry_multiplicity
 _atom_site_fract_x
 _atom_site_fract_y
 _atom_site_fract_z
 _atom_site_occupancy
  Y  Y0  1  0.66666700  0.33333300  0.41127649  1
  Y  Y1  1  0.33333300  0.66666700  0.91127749  1
  Y  Y2  1  0.66666700  0.33333300  0.08872351  1
  Y  Y3  1  0.33333300  0.66666700  0.58872251  1
  C  C0  1  0.00000000  -0.00000000  0.25000000  1
  C  C1  1  0.00000000  -0.00000000  0.75000000  1
  N  N0  1  0.00000000  -0.00000000  0.67491932  1
  N  N1  1  0.00000000  -0.00000000  0.17491932  1
  N  N2  1  0.00000000  -0.00000000  0.82508068  1
  N  N3  1  0.00000000  -0.00000000  0.32508068  1
  O  O0  1  0.66666700  0.33333300  0.94834072  1
  O  O1  1  0.33333300  0.66666700  0.05165928  1
  O  O2  1  0.33333300  0.66666700  0.44834072  1
  O  O3  1  0.66666700  0.33333300  0.55165928  1
loop_
_geom_bond_atom_site_label_1
_geom_bond_atom_site_label_2
_geom_bond_distance
_geom_bond_site_symmetry_2
C0 N1 1.226655 1_555
C0 N3 1.226655 1_555
C1 N2 1.226655 1_555
C1 N0 1.226655 1_555
N0 Y3 2.557724 1_545
N0 Y3 2.557726 1_555
N0 Y3 2.557727 1_445
N1 Y2 2.557715 1_455
N1 Y2 2.557717 1_445
N1 Y2 2.557718 1_555
N2 Y1 2.557724 1_545
N2 Y1 2.557726 1_555
N2 Y1 2.557727 1_445
N3 Y0 2.557715 1_455
N3 Y0 2.557717 1_445
N3 Y0 2.557718 1_555
O0 Y1 2.219324 1_545
O0 Y1 2.219325 1_655
O0 Y1 2.219330 1_555
O0 Y2 2.293550 1_556
O1 Y2 2.219328 1_565
O1 Y2 2.219329 1_455
O1 Y2 2.219335 1_555
O1 Y1 2.293533 1_554
O2 Y0 2.219328 1_565
O2 Y0 2.219329 1_455
O2 Y0 2.219335 1_555
O2 Y3 2.293533 1_555
O3 Y3 2.219324 1_545
O3 Y3 2.219325 1_655
O3 Y3 2.219330 1_555
O3 Y0 2.293550 1_555
