# generated using pymatgen
data_Ca3Zn3(TeO6)2
_symmetry_space_group_name_H-M   'P 1'
_cell_length_a   11.24566376
_cell_length_b   11.24566376
_cell_length_c   11.24566376
_cell_angle_alpha   109.47122063
_cell_angle_beta   109.47122063
_cell_angle_gamma   109.47122063
_symmetry_Int_Tables_number   1
_chemical_formula_structural   Ca3Zn3(TeO6)2
_chemical_formula_sum   'Ca12 Zn12 Te8 O48'
_cell_volume   1094.79647887
_cell_formula_units_Z   4
loop_
 _symmetry_equiv_pos_site_id
 _symmetry_equiv_pos_as_xyz
  1  'x, y, z'
loop_
 _atom_site_type_symbol
 _atom_site_label
 _atom_site_symmetry_multiplicity
 _atom_site_fract_x
 _atom_site_fract_y
 _atom_site_fract_z
 _atom_site_occupancy
  Ca  Ca0  1  0.75000000  0.34359300  0.15640700  1
  Ca  Ca1  1  0.68718500  0.59359300  0.34359300  1
  Ca  Ca2  1  0.34359300  0.68718500  0.59359300  1
  Ca  Ca3  1  0.59359300  0.75000000  0.90640700  1
  Ca  Ca4  1  0.15640700  0.75000000  0.34359300  1
  Ca  Ca5  1  0.75000000  0.90640700  0.59359300  1
  Ca  Ca6  1  0.34359300  0.15640700  0.75000000  1
  Ca  Ca7  1  0.59359300  0.34359300  0.68718500  1
  Ca  Ca8  1  0.90640700  0.59359300  0.75000000  1
  Ca  Ca9  1  0.15640700  0.90640700  0.81281500  1
  Ca  Ca10  1  0.81281500  0.15640700  0.90640700  1
  Ca  Ca11  1  0.90640700  0.81281500  0.15640700  1
  Zn  Zn0  1  0.25000000  0.09539700  0.40460300  1
  Zn  Zn1  1  0.19079400  0.84539700  0.09539700  1
  Zn  Zn2  1  0.84539700  0.25000000  0.65460300  1
  Zn  Zn3  1  0.65460300  0.84539700  0.25000000  1
  Zn  Zn4  1  0.09539700  0.40460300  0.25000000  1
  Zn  Zn5  1  0.40460300  0.65460300  0.30920600  1
  Zn  Zn6  1  0.65460300  0.30920600  0.40460300  1
  Zn  Zn7  1  0.09539700  0.19079400  0.84539700  1
  Zn  Zn8  1  0.84539700  0.09539700  0.19079400  1
  Zn  Zn9  1  0.30920600  0.40460300  0.65460300  1
  Zn  Zn10  1  0.40460300  0.25000000  0.09539700  1
  Zn  Zn11  1  0.25000000  0.65460300  0.84539700  1
  Te  Te0  1  0.50000000  0.00000000  0.01471100  1
  Te  Te1  1  0.48528900  0.50000000  0.00000000  1
  Te  Te2  1  0.00000000  0.48528900  0.50000000  1
  Te  Te3  1  0.01471100  0.50000000  0.00000000  1
  Te  Te4  1  0.01471100  0.01471100  0.01471100  1
  Te  Te5  1  0.50000000  0.00000000  0.48528900  1
  Te  Te6  1  0.00000000  0.01471100  0.50000000  1
  Te  Te7  1  0.48528900  0.48528900  0.48528900  1
  O  O0  1  0.31611200  0.31858700  0.93890100  1
  O  O1  1  0.48956400  0.59370100  0.66524800  1
  O  O2  1  0.49752500  0.37721100  0.31611200  1
  O  O3  1  0.37721100  0.56109900  0.87968600  1
  O  O4  1  0.00247500  0.31858700  0.87968600  1
  O  O5  1  0.00247500  0.18388800  0.12278900  1
  O  O6  1  0.18141300  0.18388800  0.56109900  1
  O  O7  1  0.83475200  0.90629900  0.01043600  1
  O  O8  1  0.31858700  0.93890100  0.31611200  1
  O  O9  1  0.83475200  0.42845300  0.82431600  1
  O  O10  1  0.42845300  0.10413800  0.59370100  1
  O  O11  1  0.82431600  0.83475200  0.42845300  1
  O  O12  1  0.31858700  0.87968600  0.00247500  1
  O  O13  1  0.62031400  0.93890100  0.12278900  1
  O  O14  1  0.56109900  0.87968600  0.37721100  1
  O  O15  1  0.59370100  0.42845300  0.10413800  1
  O  O16  1  0.62031400  0.18141300  0.49752500  1
  O  O17  1  0.87968600  0.00247500  0.31858700  1
  O  O18  1  0.59370100  0.66524800  0.48956400  1
  O  O19  1  0.93890100  0.12278900  0.62031400  1
  O  O20  1  0.18388800  0.12278900  0.00247500  1
  O  O21  1  0.10413800  0.59370100  0.42845300  1
  O  O22  1  0.39586200  0.07154700  0.90629900  1
  O  O23  1  0.18388800  0.56109900  0.18141300  1
  O  O24  1  0.07154700  0.66524800  0.67568400  1
  O  O25  1  0.12278900  0.62031400  0.93890100  1
  O  O26  1  0.87968600  0.37721100  0.56109900  1
  O  O27  1  0.56109900  0.18141300  0.18388800  1
  O  O28  1  0.18141300  0.49752500  0.62031400  1
  O  O29  1  0.66524800  0.67568400  0.07154700  1
  O  O30  1  0.90629900  0.39586200  0.07154700  1
  O  O31  1  0.10413800  0.01043600  0.67568400  1
  O  O32  1  0.67568400  0.10413800  0.01043600  1
  O  O33  1  0.07154700  0.90629900  0.39586200  1
  O  O34  1  0.31611200  0.49752500  0.37721100  1
  O  O35  1  0.01043600  0.83475200  0.90629900  1
  O  O36  1  0.12278900  0.00247500  0.18388800  1
  O  O37  1  0.49752500  0.62031400  0.18141300  1
  O  O38  1  0.90629900  0.01043600  0.83475200  1
  O  O39  1  0.37721100  0.31611200  0.49752500  1
  O  O40  1  0.93890100  0.31611200  0.31858700  1
  O  O41  1  0.82431600  0.48956400  0.39586200  1
  O  O42  1  0.39586200  0.82431600  0.48956400  1
  O  O43  1  0.48956400  0.39586200  0.82431600  1
  O  O44  1  0.66524800  0.48956400  0.59370100  1
  O  O45  1  0.01043600  0.67568400  0.10413800  1
  O  O46  1  0.67568400  0.07154700  0.66524800  1
  O  O47  1  0.42845300  0.82431600  0.83475200  1
loop_
_geom_bond_atom_site_label_1
_geom_bond_atom_site_label_2
_geom_bond_distance
_geom_bond_site_symmetry_2
Ca0 O15 2.269163 1_555
Ca0 O30 2.269163 1_555
Ca0 O32 2.298390 1_555
Ca0 O41 2.298390 1_555
Ca0 O27 2.482955 1_555
Ca0 O40 2.482955 1_555
Ca1 O11 2.269166 1_555
Ca1 O41 2.269171 1_555
Ca1 O18 2.298390 1_555
Ca1 O15 2.298393 1_555
Ca1 O37 2.482948 1_555
Ca1 O2 2.482950 1_555
Ca2 O47 2.269166 1_555
Ca2 O42 2.269171 1_555
Ca2 O1 2.298390 1_555
Ca2 O21 2.298393 1_555
Ca2 O28 2.482948 1_555
Ca2 O34 2.482950 1_555
Ca3 O1 2.269165 1_555
Ca3 O7 2.269165 1_556
Ca3 O47 2.298399 1_555
Ca3 O29 2.298399 1_556
Ca3 O3 2.482955 1_555
Ca3 O13 2.482955 1_556
Ca4 O33 2.269163 1_555
Ca4 O21 2.269163 1_555
Ca4 O45 2.298390 1_555
Ca4 O42 2.298390 1_555
Ca4 O8 2.482955 1_555
Ca4 O23 2.482955 1_555
Ca5 O18 2.269165 1_555
Ca5 O38 2.269165 1_565
Ca5 O11 2.298399 1_555
Ca5 O46 2.298399 1_565
Ca5 O14 2.482955 1_555
Ca5 O19 2.482955 1_565
Ca6 O10 2.269163 1_555
Ca6 O22 2.269163 1_555
Ca6 O31 2.298390 1_555
Ca6 O43 2.298390 1_555
Ca6 O0 2.482955 1_555
Ca6 O6 2.482955 1_555
Ca7 O9 2.269166 1_555
Ca7 O43 2.269171 1_555
Ca7 O44 2.298390 1_555
Ca7 O10 2.298393 1_555
Ca7 O16 2.482948 1_555
Ca7 O39 2.482950 1_555
Ca8 O44 2.269165 1_555
Ca8 O35 2.269165 1_655
Ca8 O9 2.298399 1_555
Ca8 O24 2.298399 1_655
Ca8 O26 2.482955 1_555
Ca8 O25 2.482955 1_655
Ca9 O24 2.269166 1_555
Ca9 O31 2.269171 1_565
Ca9 O35 2.298390 1_555
Ca9 O22 2.298393 1_565
Ca9 O12 2.482948 1_556
Ca9 O20 2.482950 1_566
Ca10 O46 2.269166 1_555
Ca10 O32 2.269171 1_556
Ca10 O38 2.298390 1_555
Ca10 O30 2.298393 1_556
Ca10 O4 2.482948 1_655
Ca10 O5 2.482950 1_656
Ca11 O29 2.269166 1_555
Ca11 O45 2.269171 1_655
Ca11 O7 2.298390 1_555
Ca11 O33 2.298393 1_655
Ca11 O17 2.482948 1_565
Ca11 O36 2.482950 1_665
O0 Te1 1.964729 1_556
O0 Zn7 2.050929 1_555
O0 Zn10 2.220711 1_556
O1 Te7 1.958436 1_555
O1 Zn9 2.333078 1_555
O2 Te7 1.964729 1_555
O2 Zn10 2.050929 1_555
O2 Zn6 2.220711 1_555
O3 Te1 1.964729 1_556
O3 Zn11 2.050929 1_555
O3 Zn9 2.220711 1_555
O4 Te3 1.964729 1_556
O4 Zn7 2.050929 1_555
O4 Zn2 2.220711 1_455
O5 Te4 1.964729 1_555
O5 Zn4 2.050929 1_555
O5 Zn8 2.220711 1_455
O6 Te6 1.964729 1_555
O6 Zn9 2.050929 1_555
O6 Zn0 2.220711 1_555
O7 Te4 1.958436 1_665
O7 Zn8 2.333078 1_565
O8 Te5 1.964729 1_565
O8 Zn1 2.050929 1_555
O8 Zn0 2.220711 1_565
O9 Te3 1.958436 1_656
O9 Zn2 2.333078 1_555
O10 Te5 1.958442 1_555
O10 Zn0 2.333072 1_555
O11 Te6 1.958436 1_665
O11 Zn3 2.333078 1_555
O12 Te0 1.964729 1_565
O12 Zn1 2.050929 1_555
O12 Zn11 2.220711 1_554
O13 Te0 1.964729 1_565
O13 Zn3 2.050929 1_555
O13 Zn8 2.220711 1_565
O14 Te5 1.964729 1_565
O14 Zn3 2.050929 1_555
O14 Zn5 2.220711 1_555
O15 Te1 1.958442 1_555
O15 Zn10 2.333072 1_555
O16 Te5 1.964729 1_555
O16 Zn6 2.050929 1_555
O16 Zn2 2.220711 1_555
O17 Te6 1.964729 1_655
O17 Zn8 2.050929 1_555
O17 Zn3 2.220711 1_545
O18 Te7 1.958436 1_555
O18 Zn5 2.333078 1_555
O19 Te6 1.964729 1_655
O19 Zn2 2.050929 1_555
O19 Zn7 2.220711 1_655
O20 Te4 1.964729 1_555
O20 Zn10 2.050929 1_555
O20 Zn7 2.220711 1_554
O21 Te2 1.958442 1_555
O21 Zn4 2.333072 1_555
O22 Te0 1.958442 1_556
O22 Zn10 2.333072 1_556
O23 Te3 1.964729 1_555
O23 Zn5 2.050929 1_555
O23 Zn4 2.220711 1_555
O24 Te2 1.958436 1_555
O24 Zn11 2.333078 1_555
O25 Te3 1.964729 1_556
O25 Zn11 2.050929 1_555
O25 Zn1 2.220711 1_556
O26 Te2 1.964729 1_655
O26 Zn2 2.050929 1_555
O26 Zn6 2.220711 1_555
O27 Te0 1.964729 1_555
O27 Zn6 2.050929 1_555
O27 Zn10 2.220711 1_555
O28 Te2 1.964729 1_555
O28 Zn9 2.050929 1_555
O28 Zn11 2.220711 1_555
O29 Te1 1.958436 1_555
O29 Zn3 2.333078 1_555
O30 Te3 1.958442 1_655
O30 Zn4 2.333072 1_655
O31 Te6 1.958439 1_555
O31 Zn7 2.333084 1_555
O32 Te0 1.958439 1_555
O32 Zn8 2.333084 1_555
O33 Te6 1.958442 1_565
O33 Zn0 2.333072 1_565
O34 Te7 1.964729 1_555
O34 Zn4 2.050929 1_555
O34 Zn5 2.220711 1_555
O35 Te4 1.958436 1_566
O35 Zn1 2.333078 1_556
O36 Te4 1.964729 1_555
O36 Zn0 2.050929 1_555
O36 Zn1 2.220711 1_545
O37 Te1 1.964729 1_555
O37 Zn5 2.050929 1_555
O37 Zn3 2.220711 1_555
O38 Te4 1.958436 1_656
O38 Zn7 2.333078 1_655
O39 Te7 1.964729 1_555
O39 Zn0 2.050929 1_555
O39 Zn9 2.220711 1_555
O40 Te2 1.964729 1_655
O40 Zn8 2.050929 1_555
O40 Zn4 2.220711 1_655
O41 Te2 1.958439 1_655
O41 Zn6 2.333084 1_555
O42 Te5 1.958439 1_565
O42 Zn5 2.333084 1_555
O43 Te1 1.958439 1_556
O43 Zn9 2.333084 1_555
O44 Te7 1.958436 1_555
O44 Zn6 2.333078 1_555
O45 Te3 1.958439 1_555
O45 Zn1 2.333084 1_555
O46 Te5 1.958436 1_555
O46 Zn2 2.333078 1_555
O47 Te0 1.958436 1_566
O47 Zn11 2.333078 1_555
