# generated using pymatgen
data_CuI
_symmetry_space_group_name_H-M   'P 1'
_cell_length_a   4.24369663
_cell_length_b   4.24369663
_cell_length_c   6.98835615
_cell_angle_alpha   90.00000000
_cell_angle_beta   90.00000000
_cell_angle_gamma   119.99999603
_symmetry_Int_Tables_number   1
_chemical_formula_structural   CuI
_chemical_formula_sum   'Cu2 I2'
_cell_volume   108.99192868
_cell_formula_units_Z   2
loop_
 _symmetry_equiv_pos_site_id
 _symmetry_equiv_pos_as_xyz
  1  'x, y, z'
loop_
 _atom_site_type_symbol
 _atom_site_label
 _atom_site_symmetry_multiplicity
 _atom_site_fract_x
 _atom_site_fract_y
 _atom_site_fract_z
 _atom_site_occupancy
  Cu  Cu0  1  0.33333300  0.66666700  0.37267872  1
  Cu  Cu1  1  0.66666700  0.33333300  0.87267872  1
  I  I0  1  0.33333300  0.66666700  0.00232128  1
  I  I1  1  0.66666700  0.33333300  0.50232128  1
loop_
_geom_bond_atom_site_label_1
_geom_bond_atom_site_label_2
_geom_bond_distance
_geom_bond_site_symmetry_2
Cu0 I0 2.588190 1_555
Cu0 I1 2.612239 1_455
Cu0 I1 2.612239 1_565
Cu0 I1 2.612245 1_555
Cu1 I1 2.588190 1_555
Cu1 I0 2.612239 1_546
Cu1 I0 2.612239 1_656
Cu1 I0 2.612245 1_556
