# generated using pymatgen
data_Cs3PO4
_symmetry_space_group_name_H-M   'P 1'
_cell_length_a   6.45160348
_cell_length_b   8.92498976
_cell_length_c   12.26577135
_cell_angle_alpha   90.00000000
_cell_angle_beta   90.00000000
_cell_angle_gamma   90.00000000
_symmetry_Int_Tables_number   1
_chemical_formula_structural   Cs3PO4
_chemical_formula_sum   'Cs12 P4 O16'
_cell_volume   706.26918582
_cell_formula_units_Z   4
loop_
 _symmetry_equiv_pos_site_id
 _symmetry_equiv_pos_as_xyz
  1  'x, y, z'
loop_
 _atom_site_type_symbol
 _atom_site_label
 _atom_site_symmetry_multiplicity
 _atom_site_fract_x
 _atom_site_fract_y
 _atom_site_fract_z
 _atom_site_occupancy
  Cs  Cs0  1  0.35854563  0.25000000  0.57720017  1
  Cs  Cs1  1  0.18111055  0.50751968  0.35480771  1
  Cs  Cs2  1  0.14145437  0.25000000  0.07720017  1
  Cs  Cs3  1  0.68111055  0.00751968  0.14519229  1
  Cs  Cs4  1  0.85854563  0.75000000  0.92279983  1
  Cs  Cs5  1  0.81888945  0.00751968  0.64519229  1
  Cs  Cs6  1  0.81888945  0.49248032  0.64519229  1
  Cs  Cs7  1  0.31888945  0.99248032  0.85480771  1
  Cs  Cs8  1  0.64145437  0.75000000  0.42279983  1
  Cs  Cs9  1  0.68111055  0.49248032  0.14519229  1
  Cs  Cs10  1  0.18111055  0.99248032  0.35480771  1
  Cs  Cs11  1  0.31888945  0.50751968  0.85480771  1
  P  P0  1  0.72889225  0.25000000  0.88703016  1
  P  P1  1  0.22889225  0.75000000  0.61296984  1
  P  P2  1  0.27110775  0.75000000  0.11296984  1
  P  P3  1  0.77110775  0.25000000  0.38703016  1
  O  O0  1  0.63521365  0.10705043  0.39359882  1
  O  O1  1  0.13521365  0.89294957  0.10640118  1
  O  O2  1  0.36478635  0.60705043  0.60640118  1
  O  O3  1  0.86478635  0.39294957  0.89359882  1
  O  O4  1  0.89435776  0.25000000  0.27820112  1
  O  O5  1  0.42879265  0.75000000  0.01699498  1
  O  O6  1  0.57120735  0.25000000  0.98300502  1
  O  O7  1  0.92879265  0.25000000  0.48300502  1
  O  O8  1  0.86478635  0.10705043  0.89359882  1
  O  O9  1  0.13521365  0.60705043  0.10640118  1
  O  O10  1  0.36478635  0.89294957  0.60640118  1
  O  O11  1  0.10564224  0.75000000  0.72179888  1
  O  O12  1  0.63521365  0.39294957  0.39359882  1
  O  O13  1  0.07120735  0.75000000  0.51699498  1
  O  O14  1  0.39435776  0.75000000  0.22179888  1
  O  O15  1  0.60564224  0.25000000  0.77820112  1
loop_
_geom_bond_atom_site_label_1
_geom_bond_atom_site_label_2
_geom_bond_distance
_geom_bond_site_symmetry_2
Cs0 O15 2.935938 1_555
Cs0 O7 3.003695 1_455
Cs0 O0 3.144096 1_555
Cs0 O12 3.144096 1_555
Cs0 O10 3.206990 1_545
Cs0 O2 3.206990 1_555
Cs1 O13 3.023864 1_555
Cs1 O14 3.039394 1_555
Cs1 O4 3.096440 1_455
Cs1 O12 3.139279 1_555
Cs1 O9 3.187532 1_555
Cs1 O7 3.225668 1_455
Cs1 O2 3.422959 1_555
Cs2 O4 2.935938 1_455
Cs2 O6 3.003695 1_554
Cs2 O3 3.144096 1_454
Cs2 O8 3.144096 1_454
Cs2 O9 3.206990 1_555
Cs2 O1 3.206990 1_545
Cs3 O6 3.023864 1_554
Cs3 O4 3.039394 1_555
Cs3 O14 3.096440 1_545
Cs3 O1 3.139279 1_645
Cs3 O0 3.187532 1_555
Cs3 O5 3.225668 1_545
Cs3 O8 3.422959 1_554
Cs4 O11 2.935938 1_655
Cs4 O5 3.003695 1_556
Cs4 O1 3.144096 1_656
Cs4 O9 3.144096 1_656
Cs4 O8 3.206990 1_565
Cs4 O3 3.206990 1_555
Cs5 O7 3.023864 1_555
Cs5 O15 3.039394 1_555
Cs5 O11 3.096440 1_645
Cs5 O10 3.139279 1_545
Cs5 O8 3.187532 1_555
Cs5 O13 3.225668 1_645
Cs5 O0 3.422959 1_555
Cs6 O7 3.023864 1_555
Cs6 O15 3.039394 1_555
Cs6 O11 3.096440 1_655
Cs6 O2 3.139279 1_555
Cs6 O3 3.187532 1_555
Cs6 O13 3.225668 1_655
Cs6 O12 3.422959 1_555
Cs7 O5 3.023864 1_556
Cs7 O11 3.039394 1_555
Cs7 O15 3.096440 1_565
Cs7 O8 3.139279 1_465
Cs7 O10 3.187532 1_555
Cs7 O6 3.225668 1_565
Cs7 O1 3.422959 1_556
Cs8 O14 2.935938 1_555
Cs8 O13 3.003695 1_655
Cs8 O10 3.144096 1_555
Cs8 O2 3.144096 1_555
Cs8 O12 3.206990 1_555
Cs8 O0 3.206990 1_565
Cs9 O6 3.023864 1_554
Cs9 O4 3.039394 1_555
Cs9 O14 3.096440 1_555
Cs9 O9 3.139279 1_655
Cs9 O12 3.187532 1_555
Cs9 O5 3.225668 1_555
Cs9 O3 3.422959 1_554
Cs10 O13 3.023864 1_555
Cs10 O14 3.039394 1_555
Cs10 O4 3.096440 1_465
Cs10 O0 3.139279 1_565
Cs10 O1 3.187532 1_555
Cs10 O7 3.225668 1_465
Cs10 O10 3.422959 1_555
Cs11 O5 3.023864 1_556
Cs11 O11 3.039394 1_555
Cs11 O15 3.096440 1_555
Cs11 O3 3.139279 1_455
Cs11 O2 3.187532 1_555
Cs11 O6 3.225668 1_555
Cs11 O9 3.422959 1_556
O0 P3 1.550123 1_555
O1 P2 1.550123 1_555
O2 P1 1.550123 1_555
O3 P0 1.550123 1_555
O4 P3 1.553758 1_555
O5 P2 1.555877 1_555
O6 P0 1.555877 1_555
O7 P3 1.555877 1_555
O8 P0 1.550123 1_555
O9 P2 1.550123 1_555
O10 P1 1.550123 1_555
O11 P1 1.553758 1_555
O12 P3 1.550123 1_555
O13 P1 1.555877 1_555
O14 P2 1.553758 1_555
O15 P0 1.553758 1_555
