# generated using pymatgen
data_RbAlF4
_symmetry_space_group_name_H-M   'P 1'
_cell_length_a   3.64662476
_cell_length_b   3.64662476
_cell_length_c   6.27332076
_cell_angle_alpha   90.00000000
_cell_angle_beta   90.00000000
_cell_angle_gamma   90.00000000
_symmetry_Int_Tables_number   1
_chemical_formula_structural   RbAlF4
_chemical_formula_sum   'Rb1 Al1 F4'
_cell_volume   83.42181736
_cell_formula_units_Z   1
loop_
 _symmetry_equiv_pos_site_id
 _symmetry_equiv_pos_as_xyz
  1  'x, y, z'
loop_
 _atom_site_type_symbol
 _atom_site_label
 _atom_site_symmetry_multiplicity
 _atom_site_fract_x
 _atom_site_fract_y
 _atom_site_fract_z
 _atom_site_occupancy
  Rb  Rb0  1  -0.00000000  -0.00000000  -0.00000000  1
  Al  Al0  1  0.50000000  0.50000000  0.50000000  1
  F  F0  1  0.50000000  0.50000000  0.78163173  1
  F  F1  1  0.50000000  0.50000000  0.21836827  1
  F  F2  1  0.50000000  -0.00000000  0.50000000  1
  F  F3  1  -0.00000000  0.50000000  0.50000000  1
loop_
_geom_bond_atom_site_label_1
_geom_bond_atom_site_label_2
_geom_bond_distance
_geom_bond_site_symmetry_2
Al0 F0 1.766766 1_555
Al0 F1 1.766766 1_555
Al0 F3 1.823312 1_655
Al0 F2 1.823312 1_555
Al0 F3 1.823312 1_555
Al0 F2 1.823312 1_565
F0 Rb0 2.919854 1_666
F0 Rb0 2.919854 1_656
F0 Rb0 2.919854 1_566
F0 Rb0 2.919854 1_556
F1 Rb0 2.919854 1_565
F1 Rb0 2.919854 1_655
F1 Rb0 2.919854 1_665
F1 Rb0 2.919854 1_555
