# generated using pymatgen
data_GdCuSe2ClO6
_symmetry_space_group_name_H-M   'P 1'
_cell_length_a   7.12605700
_cell_length_b   9.40420244
_cell_length_c   12.11076037
_cell_angle_alpha   97.90363741
_cell_angle_beta   106.95993409
_cell_angle_gamma   109.60788080
_symmetry_Int_Tables_number   1
_chemical_formula_structural   GdCuSe2ClO6
_chemical_formula_sum   'Gd4 Cu4 Se8 Cl4 O24'
_cell_volume   705.89020161
_cell_formula_units_Z   4
loop_
 _symmetry_equiv_pos_site_id
 _symmetry_equiv_pos_as_xyz
  1  'x, y, z'
loop_
 _atom_site_type_symbol
 _atom_site_label
 _atom_site_symmetry_multiplicity
 _atom_site_fract_x
 _atom_site_fract_y
 _atom_site_fract_z
 _atom_site_occupancy
  Gd  Gd0  1  0.66314000  0.38856500  0.42979600  1
  Gd  Gd1  1  0.33686000  0.61143500  0.57020400  1
  Gd  Gd2  1  0.66427300  0.91329400  0.91446700  1
  Gd  Gd3  1  0.33572700  0.08670600  0.08553300  1
  Cu  Cu0  1  0.58019700  0.62135800  0.15843900  1
  Cu  Cu1  1  0.42469500  0.85518300  0.34840700  1
  Cu  Cu2  1  0.41980300  0.37864200  0.84156100  1
  Cu  Cu3  1  0.57530500  0.14481700  0.65159300  1
  Se  Se0  1  0.21675200  0.92784600  0.74715800  1
  Se  Se1  1  0.98393200  0.25913800  0.90163200  1
  Se  Se2  1  0.96499300  0.73316900  0.40538600  1
  Se  Se3  1  0.03500700  0.26683100  0.59461400  1
  Se  Se4  1  0.21936700  0.40613900  0.25083900  1
  Se  Se5  1  0.78324800  0.07215400  0.25284200  1
  Se  Se6  1  0.78063300  0.59386100  0.74916100  1
  Se  Se7  1  0.01606800  0.74086200  0.09836800  1
  Cl  Cl0  1  0.40769800  0.64737900  0.97051700  1
  Cl  Cl1  1  0.36001000  0.12624300  0.46238400  1
  Cl  Cl2  1  0.59230200  0.35262100  0.02948300  1
  Cl  Cl3  1  0.63999000  0.87375700  0.53761600  1
  O  O0  1  0.01544500  0.14448600  0.00144200  1
  O  O1  1  0.64085000  0.18465400  0.27559300  1
  O  O2  1  0.18320800  0.70677500  0.38064200  1
  O  O3  1  0.65312800  0.71995200  0.76449700  1
  O  O4  1  0.01992100  0.35798000  0.47843400  1
  O  O5  1  0.68394100  0.92070100  0.31222100  1
  O  O6  1  0.98455500  0.85551400  0.99855800  1
  O  O7  1  0.73634700  0.11457500  0.80483900  1
  O  O8  1  0.26365300  0.88542500  0.19516100  1
  O  O9  1  0.85841200  0.77375300  0.17444800  1
  O  O10  1  0.81679200  0.29322500  0.61935800  1
  O  O11  1  0.14158800  0.22624700  0.82555200  1
  O  O12  1  0.25863700  0.42894200  0.69573400  1
  O  O13  1  0.70030200  0.46462700  0.83004700  1
  O  O14  1  0.29969800  0.53537300  0.16995300  1
  O  O15  1  0.38870700  0.49766700  0.39830600  1
  O  O16  1  0.98007900  0.64202000  0.52156600  1
  O  O17  1  0.35986800  0.99162400  0.90110100  1
  O  O18  1  0.64013200  0.00837600  0.09889900  1
  O  O19  1  0.34687200  0.28004800  0.23550300  1
  O  O20  1  0.35915000  0.81534600  0.72440700  1
  O  O21  1  0.31605900  0.07929900  0.68777900  1
  O  O22  1  0.74136300  0.57105800  0.30426600  1
  O  O23  1  0.61129300  0.50233300  0.60169400  1
loop_
_geom_bond_atom_site_label_1
_geom_bond_atom_site_label_2
_geom_bond_distance
_geom_bond_site_symmetry_2
Gd0 O23 2.390947 1_555
Gd0 O1 2.414072 1_555
Gd0 O15 2.458010 1_555
Gd0 O22 2.477323 1_555
Gd0 O16 2.492269 1_555
Gd0 O19 2.521835 1_555
Gd0 O4 2.560742 1_655
Gd0 O10 2.651727 1_555
Gd1 O15 2.390947 1_555
Gd1 O20 2.414072 1_555
Gd1 O23 2.458010 1_555
Gd1 O12 2.477323 1_555
Gd1 O4 2.492269 1_555
Gd1 O3 2.521835 1_555
Gd1 O16 2.560742 1_455
Gd1 O2 2.651727 1_555
Gd2 O3 2.349842 1_555
Gd2 O18 2.365651 1_566
Gd2 O20 2.455029 1_555
Gd2 O7 2.458865 1_565
Gd2 O6 2.483952 1_555
Gd2 O17 2.484891 1_555
Gd2 O0 2.505915 1_666
Gd3 O19 2.349842 1_555
Gd3 O17 2.365651 1_544
Gd3 O1 2.455029 1_555
Gd3 O8 2.458865 1_545
Gd3 O0 2.483952 1_555
Gd3 O18 2.484891 1_555
Gd3 O6 2.505915 1_444
Cu0 O14 1.943588 1_555
Cu0 O9 1.953064 1_555
Cu0 O22 2.018126 1_555
Cu1 O5 1.940930 1_555
Cu1 O8 1.990971 1_555
Cu1 O2 1.997855 1_555
Cu2 O13 1.943588 1_555
Cu2 O11 1.953064 1_555
Cu2 O12 2.018126 1_555
Cu3 O21 1.940930 1_555
Cu3 O7 1.990971 1_555
Cu3 O10 1.997855 1_555
Cl0 Cu0 2.339539 1_556
Cl0 Cu2 2.823648 1_555
Cl0 Gd2 2.859983 1_555
Cl1 Cu3 2.300904 1_555
Cl1 Gd0 2.845385 1_555
Cl1 Cu1 2.967811 1_545
Cl2 Cu2 2.339539 1_554
Cl2 Cu0 2.823648 1_555
Cl2 Gd3 2.859983 1_555
Cl3 Cu1 2.300904 1_555
Cl3 Gd1 2.845385 1_555
Cl3 Cu3 2.967811 1_565
O0 Se1 1.742606 1_454
O1 Se5 1.740229 1_555
O2 Se2 1.754974 1_455
O3 Se6 1.739872 1_555
O4 Se3 1.741075 1_555
O5 Se5 1.717162 1_565
O6 Se7 1.742606 1_656
O7 Se1 1.755121 1_555
O8 Se7 1.755121 1_555
O9 Se7 1.722082 1_655
O10 Se3 1.754974 1_655
O11 Se1 1.722082 1_455
O12 Se3 1.755245 1_555
O13 Se6 1.718132 1_555
O14 Se4 1.718132 1_555
O15 Se4 1.734773 1_555
O16 Se2 1.741075 1_555
O17 Se0 1.745955 1_555
O18 Se5 1.745955 1_555
O19 Se4 1.739872 1_555
O20 Se0 1.740229 1_555
O21 Se0 1.717162 1_545
O22 Se2 1.755245 1_555
O23 Se6 1.734773 1_555
