# generated using pymatgen
data_RbVOF3
_symmetry_space_group_name_H-M   'P 1'
_cell_length_a   3.95725600
_cell_length_b   8.78780100
_cell_length_c   11.82595700
_cell_angle_alpha   90.00000000
_cell_angle_beta   90.00000000
_cell_angle_gamma   90.00000000
_symmetry_Int_Tables_number   1
_chemical_formula_structural   RbVOF3
_chemical_formula_sum   'Rb4 V4 O4 F12'
_cell_volume   411.25449285
_cell_formula_units_Z   4
loop_
 _symmetry_equiv_pos_site_id
 _symmetry_equiv_pos_as_xyz
  1  'x, y, z'
loop_
 _atom_site_type_symbol
 _atom_site_label
 _atom_site_symmetry_multiplicity
 _atom_site_fract_x
 _atom_site_fract_y
 _atom_site_fract_z
 _atom_site_occupancy
  Rb  Rb0  1  0.50000000  0.00884700  0.78208400  1
  Rb  Rb1  1  0.50000000  0.99115300  0.21791600  1
  Rb  Rb2  1  0.50000000  0.49115300  0.28208400  1
  Rb  Rb3  1  0.50000000  0.50884700  0.71791600  1
  V  V0  1  0.00000000  0.30822900  0.01697200  1
  V  V1  1  0.00000000  0.80822900  0.48302800  1
  V  V2  1  0.00000000  0.19177100  0.51697200  1
  V  V3  1  0.00000000  0.69177100  0.98302800  1
  O  O0  1  0.00000000  0.15703800  0.93517300  1
  O  O1  1  0.00000000  0.84296200  0.06482700  1
  O  O2  1  0.00000000  0.65703800  0.56482700  1
  O  O3  1  0.00000000  0.34296200  0.43517300  1
  F  F0  1  0.00000000  0.26682600  0.66882400  1
  F  F1  1  0.00000000  0.23317400  0.16882400  1
  F  F2  1  0.50000000  0.83307000  0.46671700  1
  F  F3  1  0.00000000  0.73317400  0.33117600  1
  F  F4  1  0.00000000  0.03084600  0.39731500  1
  F  F5  1  0.50000000  0.16693000  0.53328300  1
  F  F6  1  0.50000000  0.66693000  0.96671700  1
  F  F7  1  0.00000000  0.76682600  0.83117600  1
  F  F8  1  0.00000000  0.46915400  0.89731500  1
  F  F9  1  0.00000000  0.53084600  0.10268500  1
  F  F10  1  0.00000000  0.96915400  0.60268500  1
  F  F11  1  0.50000000  0.33307000  0.03328300  1
loop_
_geom_bond_atom_site_label_1
_geom_bond_atom_site_label_2
_geom_bond_distance
_geom_bond_site_symmetry_2
O0 V0 1.643485 1_556
O0 Rb0 2.981362 1_455
O0 Rb0 2.981362 1_555
O1 V3 1.643485 1_554
O1 Rb1 2.981362 1_455
O1 Rb1 2.981362 1_555
O2 V1 1.643485 1_555
O2 Rb3 2.981362 1_555
O2 Rb3 2.981362 1_455
O3 V2 1.643485 1_555
O3 Rb2 2.981362 1_555
O3 Rb2 2.981362 1_455
F0 V2 1.913089 1_555
F0 Rb3 2.962336 1_455
F0 Rb3 2.962336 1_555
F0 Rb0 3.293718 1_455
F0 Rb0 3.293718 1_555
F1 V0 1.913089 1_555
F1 Rb1 2.962336 1_545
F1 Rb1 2.962336 1_445
F1 Rb2 3.293718 1_555
F1 Rb2 3.293718 1_455
F2 V1 1.999958 1_655
F2 V1 1.999958 1_555
F2 Rb1 3.253778 1_555
F3 V1 1.913089 1_555
F3 Rb2 2.962336 1_555
F3 Rb2 2.962336 1_455
F3 Rb1 3.293718 1_555
F3 Rb1 3.293718 1_455
F4 V2 2.000572 1_555
F4 V1 2.203322 1_545
F4 Rb1 2.921930 1_545
F4 Rb1 2.921930 1_445
F5 V2 1.999958 1_555
F5 V2 1.999958 1_655
F5 Rb0 3.253778 1_555
F6 V3 1.999958 1_555
F6 V3 1.999958 1_655
F6 Rb3 3.253778 1_555
F7 V3 1.913089 1_555
F7 Rb0 2.962336 1_465
F7 Rb0 2.962336 1_565
F7 Rb3 3.293718 1_455
F7 Rb3 3.293718 1_555
F8 V0 2.000572 1_556
F8 V3 2.203322 1_555
F8 Rb3 2.921930 1_555
F8 Rb3 2.921930 1_455
F9 V3 2.000572 1_554
F9 V0 2.203322 1_555
F9 Rb2 2.921930 1_555
F9 Rb2 2.921930 1_455
F10 V1 2.000572 1_555
F10 V2 2.203322 1_565
F10 Rb0 2.921930 1_465
F10 Rb0 2.921930 1_565
F11 V0 1.999958 1_555
F11 V0 1.999958 1_655
F11 Rb2 3.253778 1_555
