# generated using pymatgen
data_ZnS
_symmetry_space_group_name_H-M   'P 1'
_cell_length_a   3.80670824
_cell_length_b   3.80670947
_cell_length_c   62.30255671
_cell_angle_alpha   90.00005405
_cell_angle_beta   89.99996446
_cell_angle_gamma   119.99951247
_symmetry_Int_Tables_number   1
_chemical_formula_structural   ZnS
_chemical_formula_sum   'Zn20 S20'
_cell_volume   781.87613872
_cell_formula_units_Z   20
loop_
 _symmetry_equiv_pos_site_id
 _symmetry_equiv_pos_as_xyz
  1  'x, y, z'
loop_
 _atom_site_type_symbol
 _atom_site_label
 _atom_site_symmetry_multiplicity
 _atom_site_fract_x
 _atom_site_fract_y
 _atom_site_fract_z
 _atom_site_occupancy
  Zn  Zn0  1  0.33333698  0.66666302  0.65005001  1
  Zn  Zn1  1  0.33333268  0.66666832  0.05002253  1
  Zn  Zn2  1  0.99999741  0.00000259  0.60001471  1
  Zn  Zn3  1  0.66666333  0.33333667  0.80005691  1
  Zn  Zn4  1  0.00000289  0.99999711  0.30002099  1
  Zn  Zn5  1  0.66666349  0.33333651  0.95001471  1
  Zn  Zn6  1  0.66666153  0.33333847  0.50001811  1
  Zn  Zn7  1  0.66666387  0.33333613  0.35005335  1
  Zn  Zn8  1  0.66667167  0.33332933  0.10004117  1
  Zn  Zn9  1  0.99999713  0.00000287  0.89999962  1
  Zn  Zn10  1  0.33332945  0.66667055  0.55000473  1
  Zn  Zn11  1  0.00000291  0.99999709  0.00003749  1
  Zn  Zn12  1  0.99999540  0.00000460  0.45001736  1
  Zn  Zn13  1  0.33332941  0.66667059  0.40003521  1
  Zn  Zn14  1  0.00000399  0.99999601  0.15002924  1
  Zn  Zn15  1  0.33332942  0.66667058  0.85003509  1
  Zn  Zn16  1  0.33333886  0.66666114  0.20002785  1
  Zn  Zn17  1  0.66666880  0.33333120  0.70001932  1
  Zn  Zn18  1  0.00000299  0.99999701  0.75002794  1
  Zn  Zn19  1  0.66667185  0.33332915  0.25001378  1
  S  S0  1  0.99999536  0.00000464  0.33751631  1
  S  S1  1  0.33333987  0.66666013  0.68747640  1
  S  S2  1  0.66666107  0.33333893  0.83748474  1
  S  S3  1  0.66667166  0.33332734  0.28743651  1
  S  S4  1  0.33334001  0.66665999  0.23747583  1
  S  S5  1  0.00000131  -0.00000131  0.03746486  1
  S  S6  1  0.66666108  0.33333892  0.38748744  1
  S  S7  1  0.33334182  0.66665818  0.08747985  1
  S  S8  1  0.33332657  0.66667343  0.88746993  1
  S  S9  1  0.66667178  0.33332822  0.98750243  1
  S  S10  1  0.99999409  0.00000591  0.48746458  1
  S  S11  1  0.66667258  0.33332742  0.73743501  1
  S  S12  1  0.66666105  0.33333895  0.53746498  1
  S  S13  1  0.99999445  0.00000455  0.78751129  1
  S  S14  1  0.00000561  0.99999439  0.63750327  1
  S  S15  1  0.33332838  0.66667162  0.58742362  1
  S  S16  1  0.66667293  0.33332707  0.13748779  1
  S  S17  1  0.99999532  0.00000468  0.93741930  1
  S  S18  1  0.33332715  0.66667285  0.43747812  1
  S  S19  1  0.00000686  0.99999314  0.18747962  1
loop_
_geom_bond_atom_site_label_1
_geom_bond_atom_site_label_2
_geom_bond_distance
_geom_bond_site_symmetry_2
S0 Zn7 2.332459 1_555
S0 Zn7 2.332492 1_655
S0 Zn7 2.332493 1_545
S0 Zn4 2.336054 1_645
S1 Zn0 2.331760 1_555
S1 Zn17 2.332567 1_555
S1 Zn17 2.332622 1_455
S1 Zn17 2.332623 1_565
S2 Zn3 2.331850 1_555
S2 Zn15 2.332738 1_555
S2 Zn15 2.332769 1_655
S2 Zn15 2.332770 1_545
S3 Zn19 2.331532 1_555
S3 Zn4 2.333447 1_645
S3 Zn4 2.333484 1_545
S3 Zn4 2.333487 1_655
S4 Zn19 2.332478 1_555
S4 Zn19 2.332510 1_455
S4 Zn19 2.332513 1_565
S4 Zn16 2.333105 1_555
S5 Zn11 2.331821 1_545
S5 Zn1 2.332887 1_545
S5 Zn1 2.332923 1_445
S5 Zn1 2.332926 1_555
S6 Zn7 2.332240 1_555
S6 Zn13 2.332684 1_555
S6 Zn13 2.332715 1_655
S6 Zn13 2.332716 1_545
S7 Zn8 2.332954 1_555
S7 Zn8 2.333004 1_455
S7 Zn8 2.333007 1_565
S7 Zn1 2.333687 1_555
S8 Zn15 2.332286 1_555
S8 Zn9 2.332293 1_465
S8 Zn9 2.332345 1_565
S8 Zn9 2.332346 1_455
S9 Zn11 2.332417 1_646
S9 Zn11 2.332451 1_546
S9 Zn11 2.332452 1_656
S9 Zn5 2.335581 1_555
S10 Zn6 2.332810 1_555
S10 Zn6 2.332833 1_655
S10 Zn6 2.332834 1_545
S10 Zn12 2.333058 1_555
S11 Zn17 2.331093 1_555
S11 Zn18 2.333622 1_645
S11 Zn18 2.333663 1_545
S11 Zn18 2.333664 1_655
S12 Zn10 2.332516 1_555
S12 Zn10 2.332548 1_655
S12 Zn10 2.332549 1_545
S12 Zn6 2.333036 1_555
S13 Zn3 2.332639 1_555
S13 Zn3 2.332670 1_545
S13 Zn3 2.332672 1_655
S13 Zn18 2.335309 1_645
S14 Zn0 2.332662 1_555
S14 Zn0 2.332694 1_455
S14 Zn0 2.332695 1_565
S14 Zn2 2.335633 1_465
S15 Zn10 2.331293 1_555
S15 Zn2 2.333586 1_465
S15 Zn2 2.333623 1_565
S15 Zn2 2.333624 1_455
S16 Zn14 2.332550 1_645
S16 Zn14 2.332585 1_545
S16 Zn14 2.332585 1_655
S16 Zn8 2.333020 1_555
S17 Zn9 2.331342 1_555
S17 Zn5 2.333681 1_555
S17 Zn5 2.333711 1_655
S17 Zn5 2.333712 1_545
S18 Zn12 2.332506 1_465
S18 Zn12 2.332537 1_565
S18 Zn12 2.332538 1_455
S18 Zn13 2.332789 1_555
S19 Zn16 2.332697 1_555
S19 Zn16 2.332724 1_455
S19 Zn16 2.332724 1_565
S19 Zn14 2.333254 1_555
