# generated using pymatgen
data_KY(CO)8
_symmetry_space_group_name_H-M   'P 1'
_cell_length_a   6.28401100
_cell_length_b   6.28401100
_cell_length_c   11.73025400
_cell_angle_alpha   90.00000000
_cell_angle_beta   90.00000000
_cell_angle_gamma   90.00000000
_symmetry_Int_Tables_number   1
_chemical_formula_structural   KY(CO)8
_chemical_formula_sum   'K2 Y2 C16 O16'
_cell_volume   463.21358668
_cell_formula_units_Z   2
loop_
 _symmetry_equiv_pos_site_id
 _symmetry_equiv_pos_as_xyz
  1  'x, y, z'
loop_
 _atom_site_type_symbol
 _atom_site_label
 _atom_site_symmetry_multiplicity
 _atom_site_fract_x
 _atom_site_fract_y
 _atom_site_fract_z
 _atom_site_occupancy
  K  K0  1  0.00000000  0.00000000  0.25000000  1
  K  K1  1  0.00000000  0.00000000  0.75000000  1
  Y  Y0  1  0.50000000  0.50000000  0.25000000  1
  Y  Y1  1  0.50000000  0.50000000  0.75000000  1
  C  C0  1  0.56401500  0.09795500  0.06285500  1
  C  C1  1  0.90204500  0.43598500  0.43714500  1
  C  C2  1  0.56401500  0.90204500  0.43714500  1
  C  C3  1  0.43598500  0.09795500  0.56285500  1
  C  C4  1  0.43598500  0.90204500  0.06285500  1
  C  C5  1  0.43598500  0.09795500  0.43714500  1
  C  C6  1  0.90204500  0.43598500  0.56285500  1
  C  C7  1  0.56401500  0.90204500  0.56285500  1
  C  C8  1  0.09795500  0.56401500  0.56285500  1
  C  C9  1  0.09795500  0.43598500  0.93714500  1
  C  C10  1  0.43598500  0.90204500  0.93714500  1
  C  C11  1  0.90204500  0.56401500  0.06285500  1
  C  C12  1  0.90204500  0.56401500  0.93714500  1
  C  C13  1  0.56401500  0.09795500  0.93714500  1
  C  C14  1  0.09795500  0.43598500  0.06285500  1
  C  C15  1  0.09795500  0.56401500  0.43714500  1
  O  O0  1  0.35513900  0.78481500  0.13893400  1
  O  O1  1  0.35513900  0.21518500  0.36106600  1
  O  O2  1  0.78481500  0.64486100  0.13893400  1
  O  O3  1  0.35513900  0.21518500  0.63893400  1
  O  O4  1  0.35513900  0.78481500  0.86106600  1
  O  O5  1  0.21518500  0.64486100  0.63893400  1
  O  O6  1  0.78481500  0.35513900  0.63893400  1
  O  O7  1  0.64486100  0.78481500  0.63893400  1
  O  O8  1  0.64486100  0.21518500  0.86106600  1
  O  O9  1  0.78481500  0.64486100  0.86106600  1
  O  O10  1  0.78481500  0.35513900  0.36106600  1
  O  O11  1  0.21518500  0.64486100  0.36106600  1
  O  O12  1  0.64486100  0.78481500  0.36106600  1
  O  O13  1  0.21518500  0.35513900  0.13893400  1
  O  O14  1  0.64486100  0.21518500  0.13893400  1
  O  O15  1  0.21518500  0.35513900  0.86106600  1
loop_
_geom_bond_atom_site_label_1
_geom_bond_atom_site_label_2
_geom_bond_distance
_geom_bond_site_symmetry_2
K0 O10 2.916566 1_455
K0 O13 2.916566 1_555
K0 O11 2.916566 1_545
K0 O2 2.916566 1_445
K0 O14 2.916566 1_455
K0 O12 2.916566 1_445
K0 O1 2.916566 1_555
K0 O0 2.916566 1_545
K1 O15 2.916566 1_555
K1 O4 2.916566 1_545
K1 O7 2.916566 1_445
K1 O5 2.916566 1_545
K1 O8 2.916566 1_455
K1 O9 2.916566 1_445
K1 O3 2.916566 1_555
K1 O6 2.916566 1_455
C0 O14 1.263810 1_555
C1 O10 1.263810 1_555
C2 O12 1.263810 1_555
C3 O3 1.263810 1_555
C4 O0 1.263810 1_555
C5 O1 1.263810 1_555
C6 O6 1.263810 1_555
C7 O7 1.263810 1_555
C8 O5 1.263810 1_555
C9 O15 1.263810 1_555
C10 O4 1.263810 1_555
C11 O2 1.263810 1_555
C12 O9 1.263810 1_555
C13 O8 1.263810 1_555
C14 O13 1.263810 1_555
C15 O11 1.263810 1_555
O0 Y0 2.393606 1_555
O1 Y0 2.393606 1_555
O2 Y0 2.393606 1_555
O3 Y1 2.393606 1_555
O4 Y1 2.393606 1_555
O5 Y1 2.393606 1_555
O6 Y1 2.393606 1_555
O7 Y1 2.393606 1_555
O8 Y1 2.393606 1_555
O9 Y1 2.393606 1_555
O10 Y0 2.393606 1_555
O11 Y0 2.393606 1_555
O12 Y0 2.393606 1_555
O13 Y0 2.393606 1_555
O14 Y0 2.393606 1_555
O15 Y1 2.393606 1_555
