# generated using pymatgen
data_Ti3Sb
_symmetry_space_group_name_H-M   'P 1'
_cell_length_a   7.92632374
_cell_length_b   7.92632374
_cell_length_c   7.92632374
_cell_angle_alpha   96.29737223
_cell_angle_beta   96.29737223
_cell_angle_gamma   141.31761094
_symmetry_Int_Tables_number   1
_chemical_formula_structural   Ti3Sb
_chemical_formula_sum   'Ti12 Sb4'
_cell_volume   293.67588287
_cell_formula_units_Z   4
loop_
 _symmetry_equiv_pos_site_id
 _symmetry_equiv_pos_as_xyz
  1  'x, y, z'
loop_
 _atom_site_type_symbol
 _atom_site_label
 _atom_site_symmetry_multiplicity
 _atom_site_fract_x
 _atom_site_fract_y
 _atom_site_fract_z
 _atom_site_occupancy
  Ti  Ti0  1  0.57562100  0.71659200  0.29221400  1
  Ti  Ti1  1  0.71659200  0.42437900  0.14097100  1
  Ti  Ti2  1  0.28340800  0.57562100  0.85902900  1
  Ti  Ti3  1  0.07562100  0.78340800  0.85902900  1
  Ti  Ti4  1  0.25000000  0.25000000  0.00000000  1
  Ti  Ti5  1  0.78340800  0.92437900  0.70778600  1
  Ti  Ti6  1  0.42437900  0.28340800  0.70778600  1
  Ti  Ti7  1  0.75000000  0.75000000  0.00000000  1
  Ti  Ti8  1  0.21659200  0.07562100  0.29221400  1
  Ti  Ti9  1  0.92437900  0.21659200  0.14097100  1
  Ti  Ti10  1  0.25000000  0.75000000  0.50000000  1
  Ti  Ti11  1  0.75000000  0.25000000  0.50000000  1
  Sb  Sb0  1  0.83723600  0.66276400  0.50000000  1
  Sb  Sb1  1  0.33723600  0.83723600  0.17447200  1
  Sb  Sb2  1  0.16276400  0.33723600  0.50000000  1
  Sb  Sb3  1  0.66276400  0.16276400  0.82552800  1
loop_
_geom_bond_atom_site_label_1
_geom_bond_atom_site_label_2
_geom_bond_distance
_geom_bond_site_symmetry_2
Ti0 Ti4 2.758746 1_555
Ti0 Ti7 2.758749 1_555
Ti1 Ti7 2.758742 1_555
Ti1 Ti4 2.758742 1_555
Ti2 Ti4 2.758742 1_556
Ti2 Ti7 2.758742 1_556
Ti3 Ti4 2.758742 1_566
Ti3 Ti7 2.758742 1_456
Ti4 Ti7 2.625142 1_445
Ti4 Ti7 2.625142 1_555
Ti4 Ti9 2.758742 1_455
Ti4 Ti5 2.758746 1_444
Ti4 Ti8 2.758749 1_555
Ti4 Ti6 2.758749 1_554
Ti5 Ti7 2.758749 1_556
Ti6 Ti7 2.758746 1_556
Ti7 Ti9 2.758742 1_565
Ti7 Ti8 2.758746 1_665
Ti10 Ti11 2.625142 1_565
Ti10 Ti11 2.625142 1_455
Sb0 Ti11 2.765902 1_555
Sb0 Ti10 2.765902 1_655
Sb0 Ti5 2.825031 1_555
Sb0 Ti0 2.825031 1_555
Sb0 Ti3 2.825877 1_655
Sb0 Ti1 2.825877 1_555
Sb0 Ti6 3.060905 1_555
Sb0 Ti8 3.060905 1_665
Sb0 Ti6 3.060909 1_665
Sb0 Ti8 3.060909 1_555
Sb1 Ti10 2.765902 1_555
Sb1 Ti11 2.765902 1_565
Sb1 Ti3 2.825035 1_554
Sb1 Ti2 2.825035 1_554
Sb1 Ti0 2.825879 1_555
Sb1 Ti8 2.825879 1_565
Sb1 Ti1 3.060911 1_455
Sb1 Ti1 3.060911 1_565
Sb1 Ti9 3.060911 1_565
Sb1 Ti9 3.060911 1_455
Sb2 Ti11 2.765902 1_455
Sb2 Ti10 2.765902 1_555
Sb2 Ti8 2.825031 1_555
Sb2 Ti6 2.825031 1_555
Sb2 Ti2 2.825877 1_555
Sb2 Ti9 2.825877 1_455
Sb2 Ti5 3.060905 1_445
Sb2 Ti0 3.060905 1_555
Sb2 Ti5 3.060909 1_555
Sb2 Ti0 3.060909 1_445
Sb3 Ti11 2.765902 1_555
Sb3 Ti10 2.765902 1_545
Sb3 Ti1 2.825035 1_556
Sb3 Ti9 2.825035 1_556
Sb3 Ti6 2.825879 1_555
Sb3 Ti5 2.825879 1_545
Sb3 Ti3 3.060911 1_545
Sb3 Ti3 3.060911 1_655
Sb3 Ti2 3.060911 1_655
Sb3 Ti2 3.060911 1_545
