# generated using pymatgen
data_TaCr2
_symmetry_space_group_name_H-M   'P 1'
_cell_length_a   4.86869331
_cell_length_b   4.86869197
_cell_length_c   8.00587071
_cell_angle_alpha   90.00000000
_cell_angle_beta   90.00000000
_cell_angle_gamma   120.00000907
_symmetry_Int_Tables_number   1
_chemical_formula_structural   TaCr2
_chemical_formula_sum   'Ta4 Cr8'
_cell_volume   164.34779465
_cell_formula_units_Z   4
loop_
 _symmetry_equiv_pos_site_id
 _symmetry_equiv_pos_as_xyz
  1  'x, y, z'
loop_
 _atom_site_type_symbol
 _atom_site_label
 _atom_site_symmetry_multiplicity
 _atom_site_fract_x
 _atom_site_fract_y
 _atom_site_fract_z
 _atom_site_occupancy
  Ta  Ta0  1  0.33333300  0.66666700  0.44043109  1
  Ta  Ta1  1  0.66666700  0.33333300  0.94043109  1
  Ta  Ta2  1  0.66666700  0.33333300  0.55956891  1
  Ta  Ta3  1  0.33333300  0.66666700  0.05956891  1
  Cr  Cr0  1  0.16985671  0.33971242  0.75000000  1
  Cr  Cr1  1  0.16985671  0.83014329  0.75000000  1
  Cr  Cr2  1  0.33971242  0.16985671  0.25000000  1
  Cr  Cr3  1  0.83014329  0.66028758  0.25000000  1
  Cr  Cr4  1  -0.00000000  -0.00000000  0.00000000  1
  Cr  Cr5  1  0.66028758  0.83014329  0.75000000  1
  Cr  Cr6  1  0.83014329  0.16985671  0.25000000  1
  Cr  Cr7  1  -0.00000000  -0.00000000  0.50000000  1
loop_
_geom_bond_atom_site_label_1
_geom_bond_atom_site_label_2
_geom_bond_distance
_geom_bond_site_symmetry_2
Ta0 Ta2 2.968351 1_565
Ta0 Ta2 2.968352 1_455
Ta0 Ta2 2.968360 1_555
Ta0 Ta3 3.049133 1_555
Ta1 Ta3 2.968351 1_546
Ta1 Ta3 2.968352 1_656
Ta1 Ta3 2.968360 1_556
Ta1 Ta2 3.049133 1_555
Cr0 Cr1 2.387757 1_555
Cr0 Cr5 2.387757 1_555
Cr0 Cr7 2.461209 1_555
Cr0 Cr4 2.461209 1_556
Cr0 Cr1 2.480935 1_545
Cr0 Cr5 2.480935 1_445
Cr0 Ta0 2.835979 1_555
Cr0 Ta3 2.835979 1_556
Cr0 Ta2 2.872468 1_555
Cr0 Ta1 2.872468 1_555
Cr0 Ta1 2.872468 1_455
Cr0 Ta2 2.872468 1_455
Cr1 Cr5 2.387757 1_555
Cr1 Cr4 2.461211 1_566
Cr1 Cr7 2.461211 1_565
Cr1 Cr5 2.480936 1_455
Cr1 Ta0 2.835976 1_555
Cr1 Ta3 2.835976 1_556
Cr1 Ta1 2.872467 1_565
Cr1 Ta2 2.872467 1_565
Cr1 Ta1 2.872467 1_455
Cr1 Ta2 2.872467 1_455
Cr2 Cr3 2.387757 1_555
Cr2 Cr6 2.387757 1_555
Cr2 Cr7 2.461209 1_555
Cr2 Cr4 2.461209 1_555
Cr2 Cr3 2.480935 1_445
Cr2 Cr6 2.480936 1_455
Cr2 Ta2 2.835980 1_555
Cr2 Ta1 2.835980 1_554
Cr2 Ta3 2.872467 1_545
Cr2 Ta0 2.872467 1_545
Cr2 Ta3 2.872467 1_555
Cr2 Ta0 2.872467 1_555
Cr3 Cr6 2.387757 1_555
Cr3 Cr7 2.461209 1_665
Cr3 Cr4 2.461209 1_665
Cr3 Cr6 2.480935 1_565
Cr3 Ta2 2.835979 1_555
Cr3 Ta1 2.835979 1_554
Cr3 Ta3 2.872468 1_555
Cr3 Ta0 2.872468 1_555
Cr3 Ta3 2.872468 1_655
Cr3 Ta0 2.872468 1_655
Cr4 Cr5 2.461209 1_444
Cr4 Cr6 2.461211 1_455
Cr4 Ta3 2.851107 1_545
Cr4 Ta1 2.851107 1_454
Cr4 Ta3 2.851110 1_555
Cr4 Ta1 2.851110 1_444
Cr4 Ta1 2.851111 1_554
Cr4 Ta3 2.851111 1_445
Cr5 Cr7 2.461209 1_665
Cr5 Ta0 2.835980 1_555
Cr5 Ta3 2.835980 1_556
Cr5 Ta1 2.872467 1_565
Cr5 Ta2 2.872467 1_565
Cr5 Ta1 2.872467 1_555
Cr5 Ta2 2.872467 1_555
Cr6 Cr7 2.461211 1_655
Cr6 Ta2 2.835976 1_555
Cr6 Ta1 2.835976 1_554
Cr6 Ta3 2.872467 1_545
Cr6 Ta0 2.872467 1_545
Cr6 Ta3 2.872467 1_655
Cr6 Ta0 2.872467 1_655
Cr7 Ta0 2.851107 1_545
Cr7 Ta2 2.851107 1_455
Cr7 Ta2 2.851110 1_445
Cr7 Ta0 2.851110 1_555
Cr7 Ta2 2.851111 1_555
Cr7 Ta0 2.851111 1_445
