# generated using pymatgen
data_Te2AsCNF6
_symmetry_space_group_name_H-M   'P 1'
_cell_length_a   10.60263000
_cell_length_b   6.95752400
_cell_length_c   13.51466788
_cell_angle_alpha   64.65224209
_cell_angle_beta   90.00000000
_cell_angle_gamma   90.00000000
_symmetry_Int_Tables_number   1
_chemical_formula_structural   Te2AsCNF6
_chemical_formula_sum   'Te8 As4 C4 N4 F24'
_cell_volume   900.97031629
_cell_formula_units_Z   4
loop_
 _symmetry_equiv_pos_site_id
 _symmetry_equiv_pos_as_xyz
  1  'x, y, z'
loop_
 _atom_site_type_symbol
 _atom_site_label
 _atom_site_symmetry_multiplicity
 _atom_site_fract_x
 _atom_site_fract_y
 _atom_site_fract_z
 _atom_site_occupancy
  Te  Te0  1  0.09347200  0.73534200  0.39691800  1
  Te  Te1  1  0.65420800  0.65256200  0.94578900  1
  Te  Te2  1  0.84579200  0.65256200  0.44578900  1
  Te  Te3  1  0.34579200  0.34743800  0.05421100  1
  Te  Te4  1  0.90652800  0.26465800  0.60308200  1
  Te  Te5  1  0.40652800  0.73534200  0.89691800  1
  Te  Te6  1  0.15420800  0.34743800  0.55421100  1
  Te  Te7  1  0.59347200  0.26465800  0.10308200  1
  As  As0  1  0.05502900  0.68060000  0.78799200  1
  As  As1  1  0.44497100  0.68060000  0.28799200  1
  As  As2  1  0.94497100  0.31940000  0.21200800  1
  As  As3  1  0.55502900  0.31940000  0.71200800  1
  C  C0  1  0.93580900  0.99682100  0.00696200  1
  C  C1  1  0.06419100  0.00317900  0.99303800  1
  C  C2  1  0.56419100  0.99682100  0.50696200  1
  C  C3  1  0.43580900  0.00317900  0.49303800  1
  N  N0  1  0.67350900  0.99127300  0.51890300  1
  N  N1  1  0.32649100  0.00872700  0.48109700  1
  N  N2  1  0.17350900  0.00872700  0.98109700  1
  N  N3  1  0.82649100  0.99127300  0.01890300  1
  F  F0  1  0.81849600  0.43830000  0.24976800  1
  F  F1  1  0.53400800  0.44520700  0.33310900  1
  F  F2  1  0.46599200  0.55479300  0.66689100  1
  F  F3  1  0.48968900  0.22501300  0.84529900  1
  F  F4  1  0.87569500  0.40187800  0.07909800  1
  F  F5  1  0.93166700  0.80826200  0.82687300  1
  F  F6  1  0.51031100  0.77498700  0.15470100  1
  F  F7  1  0.68150400  0.43830000  0.74976800  1
  F  F8  1  0.62430500  0.40187800  0.57909800  1
  F  F9  1  0.56833300  0.80826200  0.32687300  1
  F  F10  1  0.35583100  0.92417900  0.24365500  1
  F  F11  1  0.85583100  0.07582100  0.25634500  1
  F  F12  1  0.37569500  0.59812200  0.42090200  1
  F  F13  1  0.64416900  0.07582100  0.75634500  1
  F  F14  1  0.01031100  0.22501300  0.34529900  1
  F  F15  1  0.96599200  0.44520700  0.83310900  1
  F  F16  1  0.12430500  0.59812200  0.92090200  1
  F  F17  1  0.43166700  0.19173800  0.67312700  1
  F  F18  1  0.06833300  0.19173800  0.17312700  1
  F  F19  1  0.98968900  0.77498700  0.65470100  1
  F  F20  1  0.18150400  0.56170000  0.75023200  1
  F  F21  1  0.31849600  0.56170000  0.25023200  1
  F  F22  1  0.03400800  0.55479300  0.16689100  1
  F  F23  1  0.14416900  0.92417900  0.74365500  1
loop_
_geom_bond_atom_site_label_1
_geom_bond_atom_site_label_2
_geom_bond_distance
_geom_bond_site_symmetry_2
Te0 Te6 2.702795 1_555
Te0 Te2 2.708952 1_455
Te1 Te7 2.702795 1_556
Te1 Te5 2.708952 1_555
Te2 Te4 2.702795 1_555
Te3 Te5 2.702795 1_554
Te3 Te7 2.708952 1_555
Te4 Te6 2.708952 1_655
As0 F15 1.757889 1_455
As0 F20 1.761935 1_555
As0 F19 1.772933 1_455
As0 F5 1.781969 1_455
As0 F16 1.792400 1_555
As0 F23 1.804121 1_555
As1 F1 1.757889 1_555
As1 F21 1.761935 1_555
As1 F6 1.772933 1_555
As1 F9 1.781969 1_555
As1 F12 1.792400 1_555
As1 F10 1.804121 1_555
As2 F22 1.757889 1_655
As2 F0 1.761935 1_555
As2 F14 1.772933 1_655
As2 F18 1.781969 1_655
As2 F4 1.792400 1_555
As2 F11 1.804121 1_555
As3 F2 1.757889 1_555
As3 F7 1.761935 1_555
As3 F3 1.772933 1_555
As3 F17 1.781969 1_555
As3 F8 1.792400 1_555
As3 F13 1.804121 1_555
C0 N3 1.168596 1_555
C0 C1 1.372250 1_664
C1 N2 1.168596 1_555
C2 N0 1.168596 1_555
C2 C3 1.372250 1_565
C3 N1 1.168596 1_555
