# generated using pymatgen
data_Tm8Ga3Co
_symmetry_space_group_name_H-M   'P 1'
_cell_length_a   9.79188764
_cell_length_b   9.79188582
_cell_length_c   6.81296715
_cell_angle_alpha   90.00002603
_cell_angle_beta   89.99999467
_cell_angle_gamma   119.99952651
_symmetry_Int_Tables_number   1
_chemical_formula_structural   Tm8Ga3Co
_chemical_formula_sum   'Tm16 Ga6 Co2'
_cell_volume   565.72029720
_cell_formula_units_Z   2
loop_
 _symmetry_equiv_pos_site_id
 _symmetry_equiv_pos_as_xyz
  1  'x, y, z'
loop_
 _atom_site_type_symbol
 _atom_site_label
 _atom_site_symmetry_multiplicity
 _atom_site_fract_x
 _atom_site_fract_y
 _atom_site_fract_z
 _atom_site_occupancy
  Tm  Tm0  1  0.17329869  0.82670171  0.99001549  1
  Tm  Tm1  1  0.34660312  0.17330264  0.49001300  1
  Tm  Tm2  1  0.82669770  0.65339675  0.49001415  1
  Tm  Tm3  1  0.17329812  0.34659491  0.99001564  1
  Tm  Tm4  1  0.65340488  0.82670178  0.99001567  1
  Tm  Tm5  1  0.82669772  0.17330232  0.49001249  1
  Tm  Tm6  1  0.33333359  0.66666671  0.67087547  1
  Tm  Tm7  1  0.66666663  0.33333336  0.17087276  1
  Tm  Tm8  1  0.46338767  0.53661230  0.29103657  1
  Tm  Tm9  1  0.92676440  0.46338174  0.79103807  1
  Tm  Tm10  1  0.53661803  0.07323577  0.79103785  1
  Tm  Tm11  1  0.46338749  0.92677559  0.29103700  1
  Tm  Tm12  1  0.07322449  0.53661233  0.29103691  1
  Tm  Tm13  1  0.53661774  0.46338200  0.79103826  1
  Tm  Tm14  1  0.00000018  -0.00000012  0.26864486  1
  Tm  Tm15  1  0.00000009  0.00000019  0.76864217  1
  Ga  Ga0  1  0.16366311  0.83633744  0.54085107  1
  Ga  Ga1  1  0.32734974  0.16367355  0.04085752  1
  Ga  Ga2  1  0.83632659  0.67265041  0.04085724  1
  Ga  Ga3  1  0.16366117  0.32732510  0.54085195  1
  Ga  Ga4  1  0.67267499  0.83633883  0.54085198  1
  Ga  Ga5  1  0.83632491  0.16367510  0.04085619  1
  Co  Co0  1  0.33333379  0.66666585  0.05677258  1
  Co  Co1  1  0.66666617  0.33333374  0.55676410  1
loop_
_geom_bond_atom_site_label_1
_geom_bond_atom_site_label_2
_geom_bond_distance
_geom_bond_site_symmetry_2
Tm0 Tm11 3.232852 1_556
Tm0 Tm12 3.232856 1_556
Tm0 Tm15 3.303523 1_565
Tm0 Tm10 3.425446 1_565
Tm0 Tm9 3.425449 1_455
Tm0 Tm6 3.477698 1_555
Tm0 Tm14 3.498866 1_566
Tm1 Tm10 3.232816 1_555
Tm1 Tm13 3.232818 1_555
Tm1 Tm14 3.303570 1_555
Tm1 Tm11 3.425351 1_545
Tm1 Tm8 3.425352 1_555
Tm1 Tm7 3.477673 1_555
Tm1 Tm15 3.498929 1_555
Tm2 Tm9 3.232812 1_555
Tm2 Tm8 3.425358 1_555
Tm2 Tm7 3.477675 1_555
Tm3 Tm8 3.232862 1_556
Tm3 Tm9 3.425429 1_455
Tm3 Tm6 3.477727 1_555
Tm4 Tm8 3.232862 1_556
Tm4 Tm6 3.477723 1_555
Tm5 Tm9 3.232811 1_555
Tm5 Tm7 3.477646 1_555
Tm6 Tm8 3.400303 1_555
Tm6 Tm9 3.543596 1_455
Tm7 Tm9 3.400234 1_554
Tm7 Tm8 3.543480 1_555
Tm10 Tm5 3.232814 1_555
Tm10 Tm7 3.400233 1_556
Tm10 Tm4 3.425432 1_545
Tm10 Tm6 3.543593 1_545
Tm10 Tm11 3.625829 1_546
Tm10 Tm11 3.625839 1_545
Tm11 Tm4 3.232858 1_554
Tm11 Tm6 3.400315 1_555
Tm11 Tm5 3.425365 1_565
Tm11 Tm7 3.543504 1_565
Tm12 Tm3 3.232856 1_554
Tm12 Tm6 3.400316 1_555
Tm12 Tm2 3.425352 1_455
Tm12 Tm5 3.425364 1_455
Tm12 Tm7 3.543505 1_455
Tm12 Tm9 3.625826 1_454
Tm12 Tm9 3.625842 1_455
Tm13 Tm2 3.232818 1_555
Tm13 Tm7 3.400221 1_556
Tm13 Tm3 3.425435 1_555
Tm13 Tm4 3.425435 1_555
Tm13 Tm6 3.543569 1_555
Tm13 Tm8 3.625820 1_556
Tm13 Tm8 3.625843 1_555
Tm14 Tm5 3.303564 1_455
Tm14 Tm2 3.303575 1_445
Tm14 Tm15 3.406465 1_555
Tm14 Tm15 3.406502 1_554
Tm14 Tm3 3.498872 1_554
Tm14 Tm4 3.498873 1_444
Tm15 Tm3 3.303523 1_555
Tm15 Tm4 3.303528 1_445
Tm15 Tm5 3.498923 1_455
Tm15 Tm2 3.498926 1_445
Ga0 Tm1 2.881881 1_565
Ga0 Tm2 2.881882 1_455
Ga0 Tm6 3.010880 1_555
Ga0 Tm0 3.064503 1_555
Ga0 Tm11 3.113747 1_555
Ga0 Tm12 3.113751 1_555
Ga0 Tm15 3.180115 1_565
Ga0 Tm14 3.338250 1_565
Ga0 Tm10 3.626527 1_565
Ga0 Tm9 3.626535 1_455
Ga0 Tm0 3.756381 1_554
Ga1 Tm3 2.881917 1_554
Ga1 Tm0 2.881927 1_544
Ga1 Tm7 3.010684 1_555
Ga1 Tm1 3.064434 1_555
Ga1 Tm10 3.113614 1_554
Ga1 Tm13 3.113645 1_554
Ga1 Tm14 3.180297 1_555
Ga1 Tm15 3.338472 1_554
Ga1 Tm11 3.626352 1_545
Ga1 Tm8 3.626389 1_555
Ga1 Tm1 3.756436 1_554
Ga2 Tm4 2.881918 1_554
Ga2 Tm0 2.881929 1_654
Ga2 Tm7 3.010686 1_555
Ga2 Tm2 3.064444 1_555
Ga2 Tm9 3.113615 1_554
Ga2 Tm13 3.113646 1_554
Ga2 Tm14 3.180296 1_665
Ga2 Tm15 3.338472 1_664
Ga2 Tm12 3.626354 1_655
Ga2 Tm8 3.626393 1_555
Ga2 Tm2 3.756426 1_554
Ga3 Tm1 2.881855 1_555
Ga3 Tm5 2.881866 1_455
Ga3 Tm6 3.010900 1_555
Ga3 Tm3 3.064497 1_555
Ga3 Tm12 3.113739 1_555
Ga3 Tm8 3.113774 1_555
Ga3 Tm15 3.180124 1_555
Ga3 Tm14 3.338267 1_555
Ga3 Tm9 3.626490 1_455
Ga3 Tm13 3.626532 1_555
Ga3 Tm3 3.756386 1_554
Ga4 Tm2 2.881857 1_555
Ga4 Tm5 2.881866 1_565
Ga4 Tm6 3.010900 1_555
Ga4 Tm4 3.064497 1_555
Ga4 Tm11 3.113742 1_555
Ga4 Tm8 3.113773 1_555
Ga4 Tm15 3.180125 1_665
Ga4 Tm14 3.338269 1_665
Ga4 Tm10 3.626493 1_565
Ga4 Tm13 3.626534 1_555
Ga4 Tm4 3.756386 1_554
Ga5 Tm3 2.881939 1_654
Ga5 Tm4 2.881939 1_544
Ga5 Tm7 3.010664 1_555
Ga5 Tm5 3.064440 1_555
Ga5 Tm9 3.113621 1_554
Ga5 Tm10 3.113623 1_554
Ga5 Tm14 3.180291 1_655
Ga5 Tm15 3.338453 1_654
Ga5 Tm12 3.626390 1_655
Ga5 Tm11 3.626393 1_545
Ga5 Tm5 3.756430 1_554
Co0 Tm6 2.629104 1_554
Co0 Tm8 2.722588 1_555
Co0 Tm12 2.722615 1_555
Co0 Tm11 2.722617 1_555
Co0 Tm0 2.752045 1_554
Co0 Tm3 2.752063 1_554
Co0 Tm4 2.752065 1_554
Co1 Tm7 2.629065 1_555
Co1 Tm13 2.722554 1_555
Co1 Tm10 2.722575 1_555
Co1 Tm9 2.722577 1_555
Co1 Tm5 2.751972 1_555
Co1 Tm2 2.751989 1_555
Co1 Tm1 2.751991 1_555
