# generated using pymatgen
data_KMo5O13
_symmetry_space_group_name_H-M   'P 1'
_cell_length_a   5.71129872
_cell_length_b   5.71129872
_cell_length_c   16.94906400
_cell_angle_alpha   90.00000000
_cell_angle_beta   90.00000000
_cell_angle_gamma   106.72961559
_symmetry_Int_Tables_number   1
_chemical_formula_structural   KMo5O13
_chemical_formula_sum   'K2 Mo10 O26'
_cell_volume   529.45992315
_cell_formula_units_Z   2
loop_
 _symmetry_equiv_pos_site_id
 _symmetry_equiv_pos_as_xyz
  1  'x, y, z'
loop_
 _atom_site_type_symbol
 _atom_site_label
 _atom_site_symmetry_multiplicity
 _atom_site_fract_x
 _atom_site_fract_y
 _atom_site_fract_z
 _atom_site_occupancy
  K  K0  1  0.13937900  0.86062100  0.75000000  1
  K  K1  1  0.86062100  0.13937900  0.25000000  1
  Mo  Mo0  1  0.00000000  0.00000000  0.00000000  1
  Mo  Mo1  1  0.00000000  0.00000000  0.50000000  1
  Mo  Mo2  1  0.22789500  0.77210500  0.13749400  1
  Mo  Mo3  1  0.77210500  0.22789500  0.63749400  1
  Mo  Mo4  1  0.77210500  0.22789500  0.86250600  1
  Mo  Mo5  1  0.22789500  0.77210500  0.36250600  1
  Mo  Mo6  1  0.38181600  0.61818400  0.92787600  1
  Mo  Mo7  1  0.61818400  0.38181600  0.42787600  1
  Mo  Mo8  1  0.61818400  0.38181600  0.07212400  1
  Mo  Mo9  1  0.38181600  0.61818400  0.57212400  1
  O  O0  1  0.18482300  0.81517700  0.25000000  1
  O  O1  1  0.81517700  0.18482300  0.75000000  1
  O  O2  1  0.50787900  0.90895900  0.86974600  1
  O  O3  1  0.49212100  0.09104100  0.36974600  1
  O  O4  1  0.90895900  0.50787900  0.13025400  1
  O  O5  1  0.09104100  0.49212100  0.63025400  1
  O  O6  1  0.49212100  0.09104100  0.13025400  1
  O  O7  1  0.50787900  0.90895900  0.63025400  1
  O  O8  1  0.09104100  0.49212100  0.86974600  1
  O  O9  1  0.90895900  0.50787900  0.36974600  1
  O  O10  1  0.69229300  0.69229300  0.00000000  1
  O  O11  1  0.30770700  0.30770700  0.50000000  1
  O  O12  1  0.30770700  0.30770700  0.00000000  1
  O  O13  1  0.69229300  0.69229300  0.50000000  1
  O  O14  1  0.22361600  0.77638400  0.00995500  1
  O  O15  1  0.77638400  0.22361600  0.50995500  1
  O  O16  1  0.77638400  0.22361600  0.99004500  1
  O  O17  1  0.22361600  0.77638400  0.49004500  1
  O  O18  1  0.57270700  0.42729300  0.86165300  1
  O  O19  1  0.42729300  0.57270700  0.36165300  1
  O  O20  1  0.42729300  0.57270700  0.13834700  1
  O  O21  1  0.57270700  0.42729300  0.63834700  1
  O  O22  1  0.00830700  0.99169300  0.11079500  1
  O  O23  1  0.99169300  0.00830700  0.61079500  1
  O  O24  1  0.99169300  0.00830700  0.88920500  1
  O  O25  1  0.00830700  0.99169300  0.38920500  1
loop_
_geom_bond_atom_site_label_1
_geom_bond_atom_site_label_2
_geom_bond_distance
_geom_bond_site_symmetry_2
K0 O24 2.720156 1_465
K0 O23 2.720156 1_465
K0 O2 2.879291 1_555
K0 O8 2.879291 1_555
K0 O7 2.879291 1_555
K0 O5 2.879291 1_555
K0 O1 2.971660 1_465
K1 O25 2.720156 1_645
K1 O22 2.720156 1_645
K1 O9 2.879291 1_555
K1 O3 2.879291 1_555
K1 O4 2.879291 1_555
K1 O6 2.879291 1_555
K1 O0 2.971660 1_645
Mo0 O22 1.879415 1_545
Mo0 O24 1.879415 1_454
Mo0 O14 2.056614 1_545
Mo0 O16 2.056614 1_454
Mo0 O12 2.097352 1_555
Mo0 O10 2.097352 1_445
Mo1 O23 1.879415 1_455
Mo1 O25 1.879415 1_545
Mo1 O15 2.056614 1_455
Mo1 O17 2.056614 1_545
Mo1 O11 2.097352 1_555
Mo1 O13 2.097352 1_445
Mo2 O20 1.827754 1_555
Mo2 O0 1.947313 1_555
Mo2 O4 2.006945 1_455
Mo2 O6 2.006945 1_565
Mo2 O22 2.063003 1_555
Mo2 O14 2.162022 1_555
Mo3 O21 1.827754 1_555
Mo3 O1 1.947313 1_555
Mo3 O7 2.006945 1_545
Mo3 O5 2.006945 1_655
Mo3 O23 2.063003 1_555
Mo3 O15 2.162022 1_555
Mo4 O18 1.827754 1_555
Mo4 O1 1.947313 1_555
Mo4 O2 2.006945 1_545
Mo4 O8 2.006945 1_655
Mo4 O24 2.063003 1_555
Mo4 O16 2.162022 1_555
Mo5 O19 1.827754 1_555
Mo5 O0 1.947313 1_555
Mo5 O9 2.006945 1_455
Mo5 O3 2.006945 1_565
Mo5 O25 2.063003 1_555
Mo5 O17 2.162022 1_555
Mo6 O8 1.886441 1_555
Mo6 O2 1.886441 1_555
Mo6 O14 2.009489 1_556
Mo6 O18 2.078785 1_555
Mo6 O10 2.094215 1_556
Mo6 O12 2.094215 1_556
Mo7 O9 1.886441 1_555
Mo7 O3 1.886441 1_555
Mo7 O15 2.009489 1_555
Mo7 O19 2.078785 1_555
Mo7 O13 2.094215 1_555
Mo7 O11 2.094215 1_555
Mo8 O4 1.886441 1_555
Mo8 O6 1.886441 1_555
Mo8 O16 2.009489 1_554
Mo8 O20 2.078785 1_555
Mo8 O10 2.094215 1_555
Mo8 O12 2.094215 1_555
Mo9 O5 1.886441 1_555
Mo9 O7 1.886441 1_555
Mo9 O17 2.009489 1_555
Mo9 O21 2.078785 1_555
Mo9 O13 2.094215 1_555
Mo9 O11 2.094215 1_555
