# generated using pymatgen
data_KU2F9
_symmetry_space_group_name_H-M   'P 1'
_cell_length_a   7.02675823
_cell_length_b   8.70031775
_cell_length_c   11.38949144
_cell_angle_alpha   89.98340426
_cell_angle_beta   90.00143804
_cell_angle_gamma   90.00588025
_symmetry_Int_Tables_number   1
_chemical_formula_structural   KU2F9
_chemical_formula_sum   'K4 U8 F36'
_cell_volume   696.29686018
_cell_formula_units_Z   4
loop_
 _symmetry_equiv_pos_site_id
 _symmetry_equiv_pos_as_xyz
  1  'x, y, z'
loop_
 _atom_site_type_symbol
 _atom_site_label
 _atom_site_symmetry_multiplicity
 _atom_site_fract_x
 _atom_site_fract_y
 _atom_site_fract_z
 _atom_site_occupancy
  K  K0  1  0.85712478  0.53442104  0.25006469  1
  K  K1  1  0.64287955  0.03462147  0.25009430  1
  K  K2  1  0.14292929  0.46555951  0.74987215  1
  K  K3  1  0.35711240  0.96537278  0.74988434  1
  U  U0  1  0.34694999  0.67472911  0.04889763  1
  U  U1  1  0.15262844  0.17474313  0.45099599  1
  U  U2  1  0.65275590  0.32471769  0.54902681  1
  U  U3  1  0.84698984  0.82532476  0.95115450  1
  U  U4  1  0.65317043  0.32529449  0.95107613  1
  U  U5  1  0.84714288  0.82466219  0.54903390  1
  U  U6  1  0.34729767  0.67475971  0.45096189  1
  U  U7  1  0.15311447  0.17474018  0.04883131  1
  F  F0  1  0.33630343  0.67221139  0.24997492  1
  F  F1  1  0.16334611  0.17179607  0.24995058  1
  F  F2  1  0.66329648  0.32830118  0.75001477  1
  F  F3  1  0.83692243  0.82809458  0.75000346  1
  F  F4  1  0.57307318  0.49641698  0.10108076  1
  F  F5  1  0.92690513  0.99624725  0.39905815  1
  F  F6  1  0.42731222  0.50357919  0.60096068  1
  F  F7  1  0.07296722  0.00371397  0.89885622  1
  F  F8  1  0.42693486  0.50360915  0.89899109  1
  F  F9  1  0.07268462  0.00356405  0.60095149  1
  F  F10  1  0.57312906  0.49635229  0.39906029  1
  F  F11  1  0.92704319  0.99627965  0.10112869  1
  F  F12  1  0.02589532  0.70902743  0.09706712  1
  F  F13  1  0.47364741  0.20926011  0.40294583  1
  F  F14  1  0.97308081  0.29089484  0.59710465  1
  F  F15  1  0.52601148  0.79094021  0.90295167  1
  F  F16  1  0.97406201  0.29088604  0.90280434  1
  F  F17  1  0.52681137  0.79094101  0.59707497  1
  F  F18  1  0.02625795  0.70913262  0.40295012  1
  F  F19  1  0.47405453  0.20923360  0.09707463  1
  F  F20  1  0.64569902  0.78666717  0.10849758  1
  F  F21  1  0.85399846  0.28640862  0.39148306  1
  F  F22  1  0.35397000  0.21363210  0.60851728  1
  F  F23  1  0.14585482  0.71349712  0.89157237  1
  F  F24  1  0.35425544  0.21338245  0.89151189  1
  F  F25  1  0.14612604  0.71366398  0.60841955  1
  F  F26  1  0.64593618  0.78646454  0.39145521  1
  F  F27  1  0.85430884  0.28653896  0.10839300  1
  F  F28  1  0.30221181  0.93391470  0.07663804  1
  F  F29  1  0.19767306  0.43378653  0.42325033  1
  F  F30  1  0.69762318  0.06627282  0.57687076  1
  F  F31  1  0.80230247  0.56617145  0.92313967  1
  F  F32  1  0.69775949  0.06618551  0.92318452  1
  F  F33  1  0.80241866  0.56630815  0.57702008  1
  F  F34  1  0.30232646  0.93377855  0.42332406  1
  F  F35  1  0.19770065  0.43389968  0.07681858  1
loop_
_geom_bond_atom_site_label_1
_geom_bond_atom_site_label_2
_geom_bond_distance
_geom_bond_site_symmetry_2
F0 U6 2.290554 1_555
F0 U0 2.291490 1_555
F1 U1 2.291196 1_555
F1 U7 2.291908 1_555
F2 U2 2.290568 1_555
F2 U4 2.291235 1_555
F3 U5 2.290273 1_555
F3 U3 2.292218 1_555
F4 U0 2.298818 1_555
F4 U4 2.335368 1_554
F4 K0 2.640552 1_555
F5 U1 2.297248 1_665
F5 U5 2.336424 1_555
F5 K1 2.640600 1_565
F6 U2 2.298274 1_555
F6 U6 2.334849 1_555
F6 K2 2.641741 1_555
F7 U3 2.298702 1_445
F7 U7 2.334578 1_556
F7 K3 2.641446 1_545
F8 U4 2.299090 1_555
F8 U0 2.334346 1_556
F8 K2 2.641346 1_555
F9 U5 2.298698 1_445
F9 U1 2.334308 1_555
F9 K3 2.642310 1_545
F10 U6 2.297386 1_555
F10 U2 2.336448 1_555
F10 K0 2.640352 1_555
F11 U7 2.299574 1_665
F11 U3 2.334015 1_554
F11 K1 2.641499 1_565
F12 U3 2.316279 1_454
F12 U0 2.340886 1_555
F12 K0 2.597859 1_455
F13 U2 2.315557 1_555
F13 U1 2.340470 1_555
F13 K1 2.599123 1_555
F14 U1 2.320245 1_655
F14 U2 2.335108 1_555
F14 K2 2.600416 1_655
F15 U0 2.316752 1_556
F15 U3 2.340469 1_555
F15 K3 2.598023 1_555
F16 U7 2.317199 1_656
F16 U4 2.340178 1_555
F16 K2 2.598012 1_655
F17 U6 2.320105 1_555
F17 U5 2.334911 1_555
F17 K3 2.599253 1_555
F18 U5 2.316034 1_455
F18 U6 2.340381 1_555
F18 K0 2.599252 1_455
F19 U4 2.316819 1_554
F19 U7 2.340439 1_555
F19 K1 2.598334 1_555
F20 U3 2.307566 1_554
F20 U0 2.411628 1_555
F20 K1 2.693906 1_565
F21 U2 2.308887 1_555
F21 U1 2.409679 1_655
F21 K0 2.692361 1_555
F21 K1 3.097425 1_555
F22 U1 2.309751 1_555
F22 U2 2.408389 1_555
F22 K3 2.693737 1_545
F22 K2 3.098078 1_555
F23 U0 2.306693 1_556
F23 U3 2.412096 1_455
F23 K2 2.694497 1_555
F24 U7 2.306692 1_556
F24 U4 2.412438 1_555
F24 K3 2.694504 1_545
F25 U6 2.308574 1_555
F25 U5 2.409101 1_455
F25 K2 2.693240 1_555
F25 K3 3.096947 1_555
F26 U5 2.308805 1_555
F26 U6 2.409706 1_555
F26 K1 2.692976 1_565
F27 U4 2.306789 1_554
F27 U7 2.411566 1_655
F27 K0 2.693910 1_555
F28 U0 2.298744 1_555
F28 U7 2.363910 1_565
F29 U1 2.297591 1_555
F29 U6 2.366520 1_555
F30 U2 2.292527 1_555
F30 U5 2.371497 1_545
F31 U3 2.298787 1_555
F31 U4 2.364430 1_555
F32 U4 2.298185 1_555
F32 U3 2.364846 1_545
F33 U5 2.291777 1_555
F33 U2 2.371828 1_555
F34 U6 2.297204 1_555
F34 U1 2.366821 1_565
F35 U7 2.298699 1_555
F35 U0 2.364405 1_555
