# generated using pymatgen
data_Tl4Mo5O17
_symmetry_space_group_name_H-M   'P 1'
_cell_length_a   7.68182617
_cell_length_b   10.73244557
_cell_length_c   10.88442897
_cell_angle_alpha   74.51439783
_cell_angle_beta   80.50619369
_cell_angle_gamma   80.27544933
_symmetry_Int_Tables_number   1
_chemical_formula_structural   Tl4Mo5O17
_chemical_formula_sum   'Tl8 Mo10 O34'
_cell_volume   845.55039836
_cell_formula_units_Z   2
loop_
 _symmetry_equiv_pos_site_id
 _symmetry_equiv_pos_as_xyz
  1  'x, y, z'
loop_
 _atom_site_type_symbol
 _atom_site_label
 _atom_site_symmetry_multiplicity
 _atom_site_fract_x
 _atom_site_fract_y
 _atom_site_fract_z
 _atom_site_occupancy
  Tl  Tl0  1  0.10145741  0.10057062  0.18758606  1
  Tl  Tl1  1  0.25354263  0.57199770  0.91042972  1
  Tl  Tl2  1  0.57729893  0.26677699  0.78576031  1
  Tl  Tl3  1  0.62744157  0.17956571  0.47748176  1
  Tl  Tl4  1  0.42270107  0.73322301  0.21423969  1
  Tl  Tl5  1  0.37255843  0.82043429  0.52251824  1
  Tl  Tl6  1  0.89854259  0.89942938  0.81241394  1
  Tl  Tl7  1  0.74645737  0.42800230  0.08957028  1
  Mo  Mo0  1  0.39808234  0.93483499  0.82452011  1
  Mo  Mo1  1  0.18954081  0.48094524  0.57436594  1
  Mo  Mo2  1  0.92244022  0.75904692  0.17959616  1
  Mo  Mo3  1  0.60191766  0.06516501  0.17547989  1
  Mo  Mo4  1  0.12973604  0.18308806  0.52510085  1
  Mo  Mo5  1  0.87026396  0.81691194  0.47489915  1
  Mo  Mo6  1  0.07755978  0.24095308  0.82040384  1
  Mo  Mo7  1  0.79534727  0.57328983  0.72563603  1
  Mo  Mo8  1  0.81045919  0.51905476  0.42563406  1
  Mo  Mo9  1  0.20465273  0.42671017  0.27436397  1
  O  O0  1  0.02134542  0.39144921  0.45760600  1
  O  O1  1  0.68126725  0.18615215  0.22466479  1
  O  O2  1  0.00945481  0.13527677  0.42923767  1
  O  O3  1  0.97251109  0.41683450  0.72511400  1
  O  O4  1  0.20928307  0.30642719  0.89369747  1
  O  O5  1  0.62193704  0.50486944  0.83120300  1
  O  O6  1  0.78365061  0.92829224  0.15593678  1
  O  O7  1  0.89395432  0.21040428  0.93076198  1
  O  O8  1  0.47455244  0.86282232  0.97061632  1
  O  O9  1  0.09658214  0.36498231  0.18138196  1
  O  O10  1  0.52544756  0.13717768  0.02938368  1
  O  O11  1  0.79071693  0.69357281  0.10630253  1
  O  O12  1  0.21634939  0.07170776  0.84406322  1
  O  O13  1  0.70751029  0.45247166  0.33549108  1
  O  O14  1  0.31873275  0.81384785  0.77533521  1
  O  O15  1  0.58571672  0.98977514  0.72353785  1
  O  O16  1  0.90341786  0.63501769  0.81861804  1
  O  O17  1  0.37806296  0.49513056  0.16879700  1
  O  O18  1  0.74415332  0.69799458  0.36907866  1
  O  O19  1  0.29141073  0.05331359  0.57356279  1
  O  O20  1  0.97870708  0.18065338  0.67373136  1
  O  O21  1  0.69661352  0.72652679  0.62192008  1
  O  O22  1  0.97865458  0.60855079  0.54239400  1
  O  O23  1  0.25584668  0.30200542  0.63092134  1
  O  O24  1  0.29248971  0.54752834  0.66450892  1
  O  O25  1  0.70858927  0.94668641  0.42643721  1
  O  O26  1  0.30338648  0.27347321  0.37807992  1
  O  O27  1  0.10604568  0.78959572  0.06923802  1
  O  O28  1  0.41428328  0.01022486  0.27646215  1
  O  O29  1  0.99054519  0.86472323  0.57076233  1
  O  O30  1  0.02129292  0.81934662  0.32626864  1
  O  O31  1  0.69436527  0.48279399  0.58026188  1
  O  O32  1  0.30563473  0.51720601  0.41973812  1
  O  O33  1  0.02748891  0.58316550  0.27488600  1
loop_
_geom_bond_atom_site_label_1
_geom_bond_atom_site_label_2
_geom_bond_distance
_geom_bond_site_symmetry_2
Mo0 O8 1.723239 1_555
Mo0 O15 1.746926 1_555
Mo0 O14 1.757969 1_555
Mo0 O12 1.878346 1_565
Mo1 O24 1.708806 1_555
Mo1 O32 1.746924 1_555
Mo1 O23 1.862321 1_555
Mo1 O22 1.950137 1_455
Mo1 O3 2.197144 1_455
Mo1 O0 2.412431 1_555
Mo2 O27 1.710754 1_655
Mo2 O11 1.720448 1_555
Mo2 O6 1.920662 1_555
Mo2 O33 2.001538 1_655
Mo2 O30 2.159105 1_655
Mo2 O18 2.282179 1_555
Mo3 O10 1.723239 1_555
Mo3 O28 1.746926 1_555
Mo3 O1 1.757969 1_555
Mo3 O6 1.878346 1_545
Mo4 O2 1.723332 1_555
Mo4 O19 1.732054 1_555
Mo4 O20 1.825474 1_455
Mo4 O26 2.045785 1_555
Mo4 O0 2.220180 1_555
Mo4 O23 2.337680 1_555
Mo5 O29 1.723332 1_555
Mo5 O25 1.732054 1_555
Mo5 O30 1.825474 1_655
Mo5 O21 2.045785 1_555
Mo5 O22 2.220180 1_555
Mo5 O18 2.337680 1_555
Mo6 O7 1.710754 1_455
Mo6 O4 1.720448 1_555
Mo6 O12 1.920662 1_555
Mo6 O3 2.001538 1_455
Mo6 O20 2.159105 1_455
Mo6 O23 2.282179 1_555
Mo7 O16 1.724338 1_555
Mo7 O5 1.734642 1_555
Mo7 O21 1.850416 1_555
Mo7 O3 1.975418 1_555
Mo7 O22 2.225876 1_555
Mo7 O31 2.351353 1_555
Mo8 O13 1.708806 1_555
Mo8 O31 1.746924 1_555
Mo8 O18 1.862321 1_555
Mo8 O0 1.950137 1_655
Mo8 O33 2.197144 1_655
Mo8 O22 2.412431 1_555
Mo9 O9 1.724338 1_555
Mo9 O17 1.734642 1_555
Mo9 O26 1.850416 1_555
Mo9 O33 1.975418 1_555
Mo9 O0 2.225876 1_555
Mo9 O32 2.351353 1_555
O1 Tl3 2.697935 1_555
O1 Tl7 2.703408 1_555
O2 Tl0 2.716137 1_555
O2 Tl3 2.875246 1_455
O8 Tl4 2.644625 1_556
O9 Tl0 2.814531 1_555
O10 Tl2 2.644625 1_554
O13 Tl7 2.721743 1_555
O14 Tl5 2.697935 1_555
O14 Tl1 2.703408 1_555
O15 Tl6 2.670125 1_555
O15 Tl3 2.906672 1_565
O16 Tl6 2.814531 1_555
O19 Tl5 2.654245 1_545
O21 Tl5 2.800315 1_555
O24 Tl1 2.721743 1_555
O25 Tl3 2.654245 1_565
O26 Tl3 2.800315 1_555
O28 Tl0 2.670125 1_555
O28 Tl5 2.906672 1_545
O29 Tl6 2.716137 1_555
O29 Tl5 2.875246 1_655
