# generated using pymatgen
data_Er3(P3Pd10)2
_symmetry_space_group_name_H-M   'P 1'
_cell_length_a   8.60062513
_cell_length_b   8.60063062
_cell_length_c   8.60058829
_cell_angle_alpha   59.99984718
_cell_angle_beta   59.99981259
_cell_angle_gamma   59.99999831
_symmetry_Int_Tables_number   1
_chemical_formula_structural   Er3(P3Pd10)2
_chemical_formula_sum   'Er3 P6 Pd20'
_cell_volume   449.85479431
_cell_formula_units_Z   1
loop_
 _symmetry_equiv_pos_site_id
 _symmetry_equiv_pos_as_xyz
  1  'x, y, z'
loop_
 _atom_site_type_symbol
 _atom_site_label
 _atom_site_symmetry_multiplicity
 _atom_site_fract_x
 _atom_site_fract_y
 _atom_site_fract_z
 _atom_site_occupancy
  Er  Er0  1  0.99999688  -0.00000106  0.00000870  1
  Er  Er1  1  0.75001730  0.75002587  0.74991951  1
  Er  Er2  1  0.25000665  0.24999814  0.24996999  1
  P  P0  1  0.73687538  0.26312455  0.26312602  1
  P  P1  1  0.73687630  0.73687487  0.26312594  1
  P  P2  1  0.73687724  0.26311813  0.73688497  1
  P  P3  1  0.26312462  0.73687544  0.26312625  1
  P  P4  1  0.26311932  0.73687622  0.73688616  1
  P  P5  1  0.26311924  0.26311997  0.73688589  1
  Pd  Pd0  1  0.34519963  -0.00000229  0.00000274  1
  Pd  Pd1  1  -0.00000175  0.65479992  0.34520108  1
  Pd  Pd2  1  0.34519454  -0.00000200  0.65480424  1
  Pd  Pd3  1  -0.00000109  0.65480287  0.00000137  1
  Pd  Pd4  1  0.65480181  0.34519888  -0.00000126  1
  Pd  Pd5  1  0.61604286  0.61604368  0.15187600  1
  Pd  Pd6  1  0.38395770  0.84812270  0.38396800  1
  Pd  Pd7  1  0.15187556  0.61604155  0.61604791  1
  Pd  Pd8  1  0.65479889  -0.00000286  0.34520159  1
  Pd  Pd9  1  -0.00000209  0.34519677  0.65480368  1
  Pd  Pd10  1  0.65480269  -0.00000267  0.00000216  1
  Pd  Pd11  1  0.00000157  -0.00000005  0.34520271  1
  Pd  Pd12  1  0.61604092  0.15187551  0.61604725  1
  Pd  Pd13  1  0.34519832  0.65480124  -0.00000103  1
  Pd  Pd14  1  0.38395598  0.38395637  0.38396488  1
  Pd  Pd15  1  0.61603842  0.61603839  0.61604530  1
  Pd  Pd16  1  0.38395903  0.38396008  0.84812582  1
  Pd  Pd17  1  0.00000162  -0.00000053  0.65480406  1
  Pd  Pd18  1  0.84812395  0.38395711  0.38396637  1
  Pd  Pd19  1  -0.00000248  0.34520020  0.00000270  1
loop_
_geom_bond_atom_site_label_1
_geom_bond_atom_site_label_2
_geom_bond_distance
_geom_bond_site_symmetry_2
Er0 Pd8 2.968882 1_555
Er0 Pd1 2.968887 1_645
Er0 Pd11 2.968896 1_655
Er0 Pd4 2.968915 1_555
Er0 Pd10 2.968921 1_555
Er0 Pd19 2.968925 1_655
Er0 Pd3 2.968927 1_645
Er0 Pd0 2.968929 1_655
Er0 Pd2 2.968930 1_654
Er0 Pd13 2.968933 1_645
Er0 Pd9 2.968936 1_654
Er0 Pd17 2.968940 1_654
Er0 P0 3.200371 1_555
Er0 P5 3.200374 1_654
Er0 P2 3.200375 1_554
Er0 P1 3.200381 1_545
Er0 P4 3.200386 1_644
Er0 P3 3.200386 1_645
Er1 Pd15 2.821877 1_555
Er1 Pd12 2.821941 1_565
Er1 Pd7 2.821999 1_655
Er1 Pd5 2.822672 1_556
Er1 Pd8 3.318931 1_565
Er1 Pd1 3.318962 1_655
Er1 Pd11 3.319010 1_665
Er1 Pd2 3.319314 1_565
Er1 Pd9 3.319363 1_655
Er1 Pd17 3.319459 1_665
Er1 Pd13 3.319700 1_556
Er1 Pd4 3.319726 1_556
Er1 Pd0 3.319740 1_566
Er1 Pd19 3.319802 1_656
Er1 Pd10 3.319814 1_566
Er1 Pd3 3.319853 1_656
Er2 Pd16 2.821884 1_554
Er2 Pd6 2.822122 1_545
Er2 Pd18 2.822171 1_455
Er2 Pd14 2.822311 1_555
Er2 Pd0 3.319258 1_555
Er2 Pd19 3.319290 1_555
Er2 Pd10 3.319333 1_555
Er2 Pd11 3.319385 1_555
Er2 Pd3 3.319395 1_555
Er2 Pd4 3.319434 1_555
Er2 Pd13 3.319460 1_555
Er2 Pd8 3.319539 1_555
Er2 Pd17 3.319589 1_555
Er2 Pd1 3.319607 1_555
Er2 Pd2 3.319662 1_555
Er2 Pd9 3.319698 1_555
P0 Pd19 2.370548 1_655
P0 Pd4 2.370581 1_555
P0 Pd11 2.370587 1_655
P0 Pd8 2.370604 1_555
P0 Pd12 2.478788 1_555
P0 Pd14 2.478789 1_555
P0 Pd5 2.478790 1_555
P0 Pd18 2.478805 1_555
P1 Pd3 2.370550 1_655
P1 Pd10 2.370551 1_565
P1 Pd8 2.370552 1_565
P1 Pd1 2.370553 1_655
P1 Pd5 2.478757 1_555
P1 Pd15 2.478775 1_555
P1 Pd18 2.478780 1_555
P1 Pd6 2.478783 1_555
P2 Pd4 2.370506 1_556
P2 Pd10 2.370522 1_556
P2 Pd9 2.370543 1_655
P2 Pd17 2.370556 1_655
P2 Pd18 2.478769 1_555
P2 Pd12 2.478772 1_555
P2 Pd16 2.478782 1_555
P2 Pd15 2.478798 1_555
P3 Pd0 2.370549 1_565
P3 Pd11 2.370573 1_565
P3 Pd13 2.370586 1_555
P3 Pd1 2.370591 1_555
P3 Pd5 2.478781 1_555
P3 Pd14 2.478789 1_555
P3 Pd7 2.478791 1_555
P3 Pd6 2.478810 1_555
P4 Pd13 2.370490 1_556
P4 Pd3 2.370510 1_556
P4 Pd2 2.370533 1_565
P4 Pd17 2.370551 1_565
P4 Pd6 2.478766 1_555
P4 Pd16 2.478770 1_555
P4 Pd7 2.478772 1_555
P4 Pd15 2.478788 1_555
P5 Pd19 2.370527 1_556
P5 Pd0 2.370531 1_556
P5 Pd9 2.370580 1_555
P5 Pd2 2.370588 1_555
P5 Pd14 2.478786 1_555
P5 Pd16 2.478795 1_555
P5 Pd12 2.478806 1_555
P5 Pd7 2.478808 1_555
Pd0 Pd10 2.662776 1_555
Pd0 Pd11 2.968913 1_555
Pd0 Pd13 2.968929 1_545
Pd0 Pd2 2.968931 1_554
Pd0 Pd19 2.968956 1_555
Pd0 Pd12 3.012328 1_554
Pd0 Pd5 3.012335 1_545
Pd0 Pd16 3.012385 1_554
Pd0 Pd6 3.012391 1_545
Pd1 Pd9 2.662767 1_555
Pd1 Pd3 2.968905 1_555
Pd1 Pd8 2.968922 1_465
Pd1 Pd13 2.968930 1_555
Pd1 Pd11 2.968959 1_565
Pd1 Pd18 3.012329 1_455
Pd1 Pd15 3.012364 1_455
Pd1 Pd14 3.012364 1_555
Pd1 Pd7 3.012402 1_555
Pd2 Pd8 2.662770 1_555
Pd2 Pd9 2.968917 1_555
Pd2 Pd6 3.012283 1_545
Pd3 Pd7 3.012306 1_554
Pd3 Pd5 3.012335 1_455
Pd4 Pd9 2.968883 1_654
Pd4 Pd8 2.968943 1_555
Pd4 Pd5 3.012389 1_555
Pd6 Pd8 3.012311 1_565
Pd7 Pd9 3.012407 1_555
Pd10 Pd3 2.968897 1_645
Pd10 Pd8 2.968901 1_555
Pd10 Pd17 2.968908 1_654
Pd10 Pd4 2.968933 1_555
Pd10 Pd12 3.012318 1_554
Pd10 Pd5 3.012321 1_545
Pd10 Pd6 3.012379 1_545
Pd10 Pd16 3.012381 1_554
Pd11 Pd17 2.662752 1_555
Pd11 Pd19 2.968925 1_555
Pd11 Pd8 2.968976 1_455
Pd11 Pd7 3.012357 1_545
Pd11 Pd6 3.012358 1_545
Pd11 Pd18 3.012361 1_455
Pd11 Pd12 3.012365 1_455
Pd12 Pd17 3.012364 1_655
Pd12 Pd8 3.012401 1_555
Pd12 Pd2 3.012413 1_555
Pd13 Pd4 2.662779 1_555
Pd13 Pd2 2.968887 1_564
Pd13 Pd3 2.968913 1_555
Pd13 Pd15 3.012313 1_554
Pd13 Pd16 3.012325 1_554
Pd13 Pd14 3.012390 1_555
Pd13 Pd5 3.012390 1_555
Pd14 Pd9 3.012340 1_555
Pd14 Pd2 3.012350 1_555
Pd14 Pd8 3.012373 1_555
Pd14 Pd4 3.012391 1_555
Pd15 Pd4 3.012313 1_556
Pd15 Pd8 3.012356 1_565
Pd15 Pd9 3.012360 1_655
Pd15 Pd2 3.012367 1_565
Pd16 Pd4 3.012334 1_556
Pd16 Pd3 3.012363 1_556
Pd16 Pd19 3.012378 1_556
Pd17 Pd2 2.968869 1_555
Pd17 Pd9 2.968897 1_555
Pd17 Pd3 2.968897 1_546
Pd17 Pd6 3.012317 1_545
Pd17 Pd18 3.012334 1_455
Pd17 Pd7 3.012344 1_545
Pd18 Pd9 3.012295 1_655
Pd18 Pd19 3.012376 1_655
Pd18 Pd3 3.012380 1_655
Pd19 Pd3 2.662778 1_555
Pd19 Pd4 2.968922 1_455
Pd19 Pd9 2.968928 1_554
Pd19 Pd7 3.012327 1_554
Pd19 Pd5 3.012337 1_455
