# generated using pymatgen
data_TiHg6P4Cl7
_symmetry_space_group_name_H-M   'P 1'
_cell_length_a   12.04679400
_cell_length_b   12.04679400
_cell_length_c   12.04679400
_cell_angle_alpha   90.00000000
_cell_angle_beta   90.00000000
_cell_angle_gamma   90.00000000
_symmetry_Int_Tables_number   1
_chemical_formula_structural   TiHg6P4Cl7
_chemical_formula_sum   'Ti4 Hg24 P16 Cl28'
_cell_volume   1748.29393889
_cell_formula_units_Z   4
loop_
 _symmetry_equiv_pos_site_id
 _symmetry_equiv_pos_as_xyz
  1  'x, y, z'
loop_
 _atom_site_type_symbol
 _atom_site_label
 _atom_site_symmetry_multiplicity
 _atom_site_fract_x
 _atom_site_fract_y
 _atom_site_fract_z
 _atom_site_occupancy
  Ti  Ti0  1  0.00000000  0.00000000  0.50000000  1
  Ti  Ti1  1  0.50000000  0.00000000  0.00000000  1
  Ti  Ti2  1  0.50000000  0.50000000  0.50000000  1
  Ti  Ti3  1  0.00000000  0.50000000  0.00000000  1
  Hg  Hg0  1  0.04004900  0.69323100  0.30085400  1
  Hg  Hg1  1  0.19323100  0.30085400  0.45995100  1
  Hg  Hg2  1  0.80676900  0.69914600  0.54004900  1
  Hg  Hg3  1  0.45995100  0.19323100  0.30085400  1
  Hg  Hg4  1  0.04004900  0.80676900  0.80085400  1
  Hg  Hg5  1  0.30676900  0.69914600  0.95995100  1
  Hg  Hg6  1  0.69323100  0.30085400  0.04004900  1
  Hg  Hg7  1  0.95995100  0.19323100  0.19914600  1
  Hg  Hg8  1  0.80085400  0.45995100  0.30676900  1
  Hg  Hg9  1  0.95995100  0.30676900  0.69914600  1
  Hg  Hg10  1  0.54004900  0.69323100  0.19914600  1
  Hg  Hg11  1  0.54004900  0.80676900  0.69914600  1
  Hg  Hg12  1  0.80676900  0.80085400  0.04004900  1
  Hg  Hg13  1  0.69914600  0.54004900  0.80676900  1
  Hg  Hg14  1  0.69323100  0.19914600  0.54004900  1
  Hg  Hg15  1  0.30085400  0.45995100  0.19323100  1
  Hg  Hg16  1  0.19323100  0.19914600  0.95995100  1
  Hg  Hg17  1  0.30085400  0.04004900  0.69323100  1
  Hg  Hg18  1  0.80085400  0.04004900  0.80676900  1
  Hg  Hg19  1  0.30676900  0.80085400  0.45995100  1
  Hg  Hg20  1  0.69914600  0.95995100  0.30676900  1
  Hg  Hg21  1  0.19914600  0.54004900  0.69323100  1
  Hg  Hg22  1  0.19914600  0.95995100  0.19323100  1
  Hg  Hg23  1  0.45995100  0.30676900  0.80085400  1
  P  P0  1  0.23135000  0.76865000  0.26865000  1
  P  P1  1  0.66141900  0.16141900  0.33858100  1
  P  P2  1  0.33858100  0.66141900  0.16141900  1
  P  P3  1  0.73135000  0.73135000  0.73135000  1
  P  P4  1  0.23135000  0.73135000  0.76865000  1
  P  P5  1  0.33858100  0.83858100  0.66141900  1
  P  P6  1  0.76865000  0.23135000  0.73135000  1
  P  P7  1  0.83858100  0.66141900  0.33858100  1
  P  P8  1  0.26865000  0.26865000  0.26865000  1
  P  P9  1  0.73135000  0.76865000  0.23135000  1
  P  P10  1  0.66141900  0.33858100  0.83858100  1
  P  P11  1  0.16141900  0.33858100  0.66141900  1
  P  P12  1  0.76865000  0.26865000  0.23135000  1
  P  P13  1  0.83858100  0.83858100  0.83858100  1
  P  P14  1  0.26865000  0.23135000  0.76865000  1
  P  P15  1  0.16141900  0.16141900  0.16141900  1
  Cl  Cl0  1  0.54397300  0.69135800  0.46179800  1
  Cl  Cl1  1  0.30864200  0.96179800  0.95602700  1
  Cl  Cl2  1  0.45602700  0.30864200  0.53820200  1
  Cl  Cl3  1  0.50000000  0.00000000  0.50000000  1
  Cl  Cl4  1  0.53820200  0.45602700  0.30864200  1
  Cl  Cl5  1  0.69135800  0.46179800  0.54397300  1
  Cl  Cl6  1  0.80864200  0.96179800  0.54397300  1
  Cl  Cl7  1  0.95602700  0.19135800  0.46179800  1
  Cl  Cl8  1  0.80864200  0.53820200  0.04397300  1
  Cl  Cl9  1  0.00000000  0.00000000  0.00000000  1
  Cl  Cl10  1  0.45602700  0.19135800  0.03820200  1
  Cl  Cl11  1  0.54397300  0.80864200  0.96179800  1
  Cl  Cl12  1  0.46179800  0.95602700  0.19135800  1
  Cl  Cl13  1  0.96179800  0.54397300  0.80864200  1
  Cl  Cl14  1  0.04397300  0.69135800  0.03820200  1
  Cl  Cl15  1  0.03820200  0.45602700  0.19135800  1
  Cl  Cl16  1  0.53820200  0.04397300  0.80864200  1
  Cl  Cl17  1  0.00000000  0.50000000  0.50000000  1
  Cl  Cl18  1  0.95602700  0.30864200  0.96179800  1
  Cl  Cl19  1  0.30864200  0.53820200  0.45602700  1
  Cl  Cl20  1  0.96179800  0.95602700  0.30864200  1
  Cl  Cl21  1  0.46179800  0.54397300  0.69135800  1
  Cl  Cl22  1  0.50000000  0.50000000  0.00000000  1
  Cl  Cl23  1  0.03820200  0.04397300  0.69135800  1
  Cl  Cl24  1  0.19135800  0.46179800  0.95602700  1
  Cl  Cl25  1  0.04397300  0.80864200  0.53820200  1
  Cl  Cl26  1  0.19135800  0.03820200  0.45602700  1
  Cl  Cl27  1  0.69135800  0.03820200  0.04397300  1
loop_
_geom_bond_atom_site_label_1
_geom_bond_atom_site_label_2
_geom_bond_distance
_geom_bond_site_symmetry_2
Hg0 P7 2.498793 1_455
Hg0 P0 2.507389 1_555
Hg1 P11 2.498793 1_555
Hg1 P8 2.507389 1_555
Hg2 P7 2.498793 1_555
Hg2 P3 2.507389 1_555
Hg3 P1 2.498793 1_555
Hg3 P8 2.507389 1_555
Hg4 P13 2.498793 1_455
Hg4 P4 2.507389 1_555
Hg5 P2 2.498793 1_556
Hg5 P4 2.507389 1_555
Hg6 P10 2.498793 1_554
Hg6 P12 2.507389 1_555
Hg7 P15 2.498793 1_655
Hg7 P12 2.507389 1_555
Hg8 P7 2.498793 1_555
Hg8 P12 2.507389 1_555
Hg9 P11 2.498793 1_655
Hg9 P6 2.507389 1_555
Hg10 P2 2.498793 1_555
Hg10 P9 2.507389 1_555
Hg11 P5 2.498793 1_555
Hg11 P3 2.507389 1_555
Hg12 P13 2.498793 1_554
Hg12 P9 2.507389 1_555
Hg13 P10 2.498793 1_555
Hg13 P3 2.507389 1_555
Hg14 P1 2.498793 1_555
Hg14 P6 2.507389 1_555
Hg15 P2 2.498793 1_555
Hg15 P8 2.507389 1_555
Hg16 P15 2.498793 1_556
Hg16 P14 2.507389 1_555
Hg17 P5 2.498793 1_545
Hg17 P14 2.507389 1_555
Hg18 P13 2.498793 1_545
Hg18 P6 2.507389 1_555
Hg19 P5 2.498793 1_555
Hg19 P0 2.507389 1_555
Hg20 P1 2.498793 1_565
Hg20 P9 2.507389 1_555
Hg21 P11 2.498793 1_555
Hg21 P4 2.507389 1_555
Hg22 P15 2.498793 1_565
Hg22 P0 2.507389 1_555
Hg23 P10 2.498793 1_555
Hg23 P14 2.507389 1_555
P0 P2 2.237446 1_555
P1 P12 2.237446 1_555
P4 P5 2.237446 1_555
P7 P9 2.237446 1_555
P10 P6 2.237446 1_555
P11 P14 2.237446 1_555
P13 P3 2.237446 1_555
P15 P8 2.237446 1_555
Cl0 Ti2 2.409687 1_555
Cl1 Ti1 2.409687 1_566
Cl2 Ti2 2.409687 1_555
Cl4 Ti2 2.409687 1_555
Cl5 Ti2 2.409687 1_555
Cl6 Ti0 2.409687 1_665
Cl7 Ti0 2.409687 1_655
Cl8 Ti3 2.409687 1_655
Cl10 Ti1 2.409687 1_555
Cl11 Ti1 2.409687 1_566
Cl12 Ti1 2.409687 1_565
Cl13 Ti3 2.409687 1_656
Cl14 Ti3 2.409687 1_555
Cl15 Ti3 2.409687 1_555
Cl16 Ti1 2.409687 1_556
Cl18 Ti3 2.409687 1_656
Cl19 Ti2 2.409687 1_555
Cl20 Ti0 2.409687 1_665
Cl21 Ti2 2.409687 1_555
Cl23 Ti0 2.409687 1_555
Cl24 Ti3 2.409687 1_556
Cl25 Ti0 2.409687 1_565
Cl26 Ti0 2.409687 1_555
Cl27 Ti1 2.409687 1_555
