# generated using pymatgen
data_Nd4S3NCl3
_symmetry_space_group_name_H-M   'P 1'
_cell_length_a   9.37166168
_cell_length_b   9.37166168
_cell_length_c   6.88513200
_cell_angle_alpha   90.00000000
_cell_angle_beta   90.00000000
_cell_angle_gamma   119.99999775
_symmetry_Int_Tables_number   1
_chemical_formula_structural   Nd4S3NCl3
_chemical_formula_sum   'Nd8 S6 N2 Cl6'
_cell_volume   523.69221344
_cell_formula_units_Z   2
loop_
 _symmetry_equiv_pos_site_id
 _symmetry_equiv_pos_as_xyz
  1  'x, y, z'
loop_
 _atom_site_type_symbol
 _atom_site_label
 _atom_site_symmetry_multiplicity
 _atom_site_fract_x
 _atom_site_fract_y
 _atom_site_fract_z
 _atom_site_occupancy
  Nd  Nd0  1  0.66666700  0.33333300  0.28656000  1
  Nd  Nd1  1  0.20216200  0.79783800  0.25209000  1
  Nd  Nd2  1  0.79783800  0.59567700  0.75209000  1
  Nd  Nd3  1  0.79783800  0.20216200  0.75209000  1
  Nd  Nd4  1  0.59567700  0.79783800  0.25209000  1
  Nd  Nd5  1  0.33333300  0.66666700  0.78656000  1
  Nd  Nd6  1  0.20216200  0.40432300  0.25209000  1
  Nd  Nd7  1  0.40432300  0.20216200  0.75209000  1
  S  S0  1  0.53258700  0.46741300  0.03037000  1
  S  S1  1  0.53258700  0.06517400  0.03037000  1
  S  S2  1  0.06517400  0.53258700  0.53037000  1
  S  S3  1  0.93482600  0.46741300  0.03037000  1
  S  S4  1  0.46741300  0.93482600  0.53037000  1
  S  S5  1  0.46741300  0.53258700  0.53037000  1
  N  N0  1  0.66666700  0.33333300  0.63101300  1
  N  N1  1  0.33333300  0.66666700  0.13101300  1
  Cl  Cl0  1  0.13132500  0.26264900  0.86248500  1
  Cl  Cl1  1  0.73735100  0.86867500  0.86248500  1
  Cl  Cl2  1  0.26264900  0.13132500  0.36248500  1
  Cl  Cl3  1  0.86867500  0.13132500  0.36248500  1
  Cl  Cl4  1  0.86867500  0.73735100  0.36248500  1
  Cl  Cl5  1  0.13132500  0.86867500  0.86248500  1
loop_
_geom_bond_atom_site_label_1
_geom_bond_atom_site_label_2
_geom_bond_distance
_geom_bond_site_symmetry_2
Nd0 S3 2.801444 1_555
Nd0 S1 2.801444 1_555
Nd0 S0 2.801450 1_555
Nd1 S4 2.882233 1_555
Nd1 S2 2.882233 1_555
Nd1 S3 3.230827 1_455
Nd1 S1 3.230827 1_565
Nd2 S0 2.882233 1_556
Nd2 S3 2.882239 1_556
Nd2 S5 3.230824 1_555
Nd2 S2 3.230832 1_655
Nd3 S3 2.882233 1_556
Nd3 S1 2.882233 1_556
Nd3 S4 3.230827 1_545
Nd3 S2 3.230827 1_655
Nd4 S5 2.882233 1_555
Nd4 S4 2.882239 1_555
Nd4 S0 3.230824 1_555
Nd4 S1 3.230832 1_565
Nd5 S4 2.801444 1_555
Nd5 S2 2.801444 1_555
Nd5 S5 2.801450 1_555
Nd6 S5 2.882233 1_555
Nd6 S2 2.882239 1_555
Nd6 S0 3.230824 1_555
Nd6 S3 3.230832 1_455
Nd7 S0 2.882233 1_556
Nd7 S1 2.882239 1_556
Nd7 S5 3.230824 1_555
Nd7 S4 3.230832 1_545
N0 Nd3 2.286570 1_555
N0 Nd2 2.286586 1_555
N0 Nd7 2.286586 1_555
N0 Nd0 2.371604 1_555
N1 Nd1 2.286570 1_555
N1 Nd4 2.286586 1_555
N1 Nd6 2.286586 1_555
N1 Nd5 2.371604 1_554
Cl0 Nd6 2.918534 1_556
Cl0 Nd7 2.982447 1_555
Cl0 Nd3 2.982465 1_455
Cl0 Nd5 3.320457 1_555
Cl1 Nd4 2.918534 1_556
Cl1 Nd2 2.982447 1_555
Cl1 Nd3 2.982465 1_565
Cl1 Nd5 3.320457 1_555
Cl2 Nd7 2.918534 1_555
Cl2 Nd6 2.982447 1_555
Cl2 Nd1 2.982465 1_545
Cl2 Nd0 3.320457 1_555
Cl3 Nd3 2.918534 1_555
Cl3 Nd6 2.982459 1_655
Cl3 Nd4 2.982459 1_545
Cl3 Nd0 3.320441 1_555
Cl4 Nd2 2.918534 1_555
Cl4 Nd4 2.982447 1_555
Cl4 Nd1 2.982465 1_655
Cl4 Nd0 3.320457 1_555
Cl5 Nd1 2.918534 1_556
Cl5 Nd7 2.982459 1_565
Cl5 Nd2 2.982459 1_455
Cl5 Nd5 3.320441 1_555
