# generated using pymatgen
data_Er3(CuSi)4
_symmetry_space_group_name_H-M   'P 1'
_cell_length_a   7.76229785
_cell_length_b   7.76307908
_cell_length_c   7.76292473
_cell_angle_alpha   149.52023672
_cell_angle_beta   130.64097524
_cell_angle_gamma   59.12436033
_symmetry_Int_Tables_number   1
_chemical_formula_structural   Er3(CuSi)4
_chemical_formula_sum   'Er3 Cu4 Si4'
_cell_volume   178.63464495
_cell_formula_units_Z   1
loop_
 _symmetry_equiv_pos_site_id
 _symmetry_equiv_pos_as_xyz
  1  'x, y, z'
loop_
 _atom_site_type_symbol
 _atom_site_label
 _atom_site_symmetry_multiplicity
 _atom_site_fract_x
 _atom_site_fract_y
 _atom_site_fract_z
 _atom_site_occupancy
  Er  Er0  1  0.87006284  0.87004940  0.00011119  1
  Er  Er1  1  0.12993809  0.12995053  -0.00011061  1
  Er  Er2  1  0.50000068  -0.00000012  0.50000000  1
  Cu  Cu0  1  0.52134691  0.33036454  0.19093067  1
  Cu  Cu1  1  0.86037654  0.66904438  0.19045605  1
  Cu  Cu2  1  0.13962425  0.33095669  0.80954746  1
  Cu  Cu3  1  0.47865000  0.66963446  0.80906525  1
  Si  Si0  1  0.81489713  0.49978667  0.31475563  1
  Si  Si1  1  0.18510347  0.50021303  0.68524436  1
  Si  Si2  1  0.28404496  0.78415699  0.50014208  1
  Si  Si3  1  0.71595513  0.21584344  0.49985791  1
loop_
_geom_bond_atom_site_label_1
_geom_bond_atom_site_label_2
_geom_bond_distance
_geom_bond_site_symmetry_2
Er0 Si3 2.913226 1_565
Er0 Si3 2.914533 1_554
Er0 Si0 2.946378 1_565
Er0 Si1 2.946550 1_654
Er0 Si0 2.947613 1_554
Er0 Si1 2.947735 1_665
Er1 Si2 2.913226 1_544
Er1 Si2 2.914535 1_555
Er1 Si1 2.946377 1_544
Er1 Si0 2.946550 1_455
Er1 Si1 2.947612 1_555
Er1 Si0 2.947736 1_444
Er2 Si0 2.886165 1_556
Er2 Si1 2.886166 1_544
Er2 Si0 2.886824 1_545
Er2 Si1 2.886827 1_555
Er2 Si3 2.916523 1_555
Er2 Si2 2.916527 1_545
Cu0 Si0 2.426848 1_555
Cu0 Si2 2.467036 1_544
Cu0 Si2 2.467703 1_555
Cu0 Cu2 2.475313 1_554
Cu0 Si3 2.530022 1_555
Cu0 Er0 2.909041 1_545
Cu0 Er0 2.909900 1_556
Cu0 Er1 2.975899 1_555
Cu1 Si0 2.426388 1_555
Cu1 Si3 2.466773 1_554
Cu1 Si3 2.468724 1_565
Cu1 Cu3 2.475343 1_554
Cu1 Si2 2.531372 1_655
Cu1 Er1 2.907684 1_655
Cu1 Er1 2.910186 1_666
Cu1 Er0 2.977126 1_555
Cu2 Si1 2.426403 1_555
Cu2 Si2 2.466758 1_556
Cu2 Si2 2.468720 1_545
Cu2 Si3 2.531372 1_455
Cu2 Er0 2.907684 1_456
Cu2 Er0 2.910199 1_445
Cu2 Er1 2.977112 1_556
Cu3 Si1 2.426839 1_555
Cu3 Si3 2.467050 1_566
Cu3 Si3 2.467710 1_555
Cu3 Si2 2.530010 1_555
Cu3 Er1 2.909026 1_566
Cu3 Er1 2.909880 1_555
Cu3 Er0 2.975911 1_556
Si0 Si1 2.399373 1_655
