# generated using pymatgen
data_Y2Si2O7
_symmetry_space_group_name_H-M   'P 1'
_cell_length_a   6.65763100
_cell_length_b   6.70696151
_cell_length_c   36.36485839
_cell_angle_alpha   94.47325077
_cell_angle_beta   91.30608856
_cell_angle_gamma   91.76651547
_symmetry_Int_Tables_number   1
_chemical_formula_structural   Y2Si2O7
_chemical_formula_sum   'Y24 Si24 O84'
_cell_volume   1617.54789616
_cell_formula_units_Z   12
loop_
 _symmetry_equiv_pos_site_id
 _symmetry_equiv_pos_as_xyz
  1  'x, y, z'
loop_
 _atom_site_type_symbol
 _atom_site_label
 _atom_site_symmetry_multiplicity
 _atom_site_fract_x
 _atom_site_fract_y
 _atom_site_fract_z
 _atom_site_occupancy
  Y  Y0  1  0.62216400  0.29989100  0.95516300  1
  Y  Y1  1  0.90701500  0.17886800  0.79255200  1
  Y  Y2  1  0.34954000  0.32950100  0.20129600  1
  Y  Y3  1  0.31435900  0.84236400  0.36955600  1
  Y  Y4  1  0.88248700  0.39789500  0.04859400  1
  Y  Y5  1  0.68564100  0.15763600  0.63044400  1
  Y  Y6  1  0.95332600  0.15622600  0.12867100  1
  Y  Y7  1  0.38158500  0.79057700  0.69651000  1
  Y  Y8  1  0.11751300  0.60210500  0.95140600  1
  Y  Y9  1  0.62362600  0.80925300  0.45429700  1
  Y  Y10  1  0.11725300  0.10969700  0.45199500  1
  Y  Y11  1  0.09298500  0.82113200  0.20744800  1
  Y  Y12  1  0.65046000  0.67049900  0.79870400  1
  Y  Y13  1  0.88274700  0.89030300  0.54800500  1
  Y  Y14  1  0.04885900  0.33147800  0.70630500  1
  Y  Y15  1  0.04667400  0.84377400  0.87132900  1
  Y  Y16  1  0.95014800  0.66433800  0.63058300  1
  Y  Y17  1  0.37783600  0.70010900  0.04483700  1
  Y  Y18  1  0.68002800  0.66514300  0.13301100  1
  Y  Y19  1  0.31997200  0.33485700  0.86698900  1
  Y  Y20  1  0.61841500  0.20942300  0.30349000  1
  Y  Y21  1  0.04985200  0.33566200  0.36941700  1
  Y  Y22  1  0.95114100  0.66852200  0.29369500  1
  Y  Y23  1  0.37637400  0.19074700  0.54570300  1
  Si  Si0  1  0.15748100  0.65598800  0.79079300  1
  Si  Si1  1  0.45787300  0.67639400  0.27664000  1
  Si  Si2  1  0.15178500  0.15349300  0.29007100  1
  Si  Si3  1  0.13392500  0.63811900  0.45942400  1
  Si  Si4  1  0.84821500  0.84650700  0.70992900  1
  Si  Si5  1  0.49138700  0.15291100  0.10752200  1
  Si  Si6  1  0.40104500  0.04293500  0.77822600  1
  Si  Si7  1  0.37592600  0.21670200  0.03144900  1
  Si  Si8  1  0.62561900  0.28951200  0.46928600  1
  Si  Si9  1  0.16080200  0.13691500  0.63054900  1
  Si  Si10  1  0.13721200  0.13586300  0.95974000  1
  Si  Si11  1  0.62407400  0.78329800  0.96855100  1
  Si  Si12  1  0.49593200  0.64654600  0.60607700  1
  Si  Si13  1  0.50406800  0.35345400  0.39392300  1
  Si  Si14  1  0.86278800  0.86413700  0.04026000  1
  Si  Si15  1  0.84195100  0.36069100  0.87141300  1
  Si  Si16  1  0.37438100  0.71048800  0.53071400  1
  Si  Si17  1  0.54212700  0.32360600  0.72336000  1
  Si  Si18  1  0.83919800  0.86308500  0.36945100  1
  Si  Si19  1  0.59895500  0.95706500  0.22177400  1
  Si  Si20  1  0.84251900  0.34401200  0.20920700  1
  Si  Si21  1  0.86607500  0.36188100  0.54057600  1
  Si  Si22  1  0.15804900  0.63930900  0.12858700  1
  Si  Si23  1  0.50861300  0.84708900  0.89247800  1
  O  O0  1  0.32499900  0.25400200  0.26612200  1
  O  O1  1  0.41858100  0.67156300  0.98185400  1
  O  O2  1  0.29631900  0.71252000  0.30915600  1
  O  O3  1  0.22277500  0.06557500  0.67077400  1
  O  O4  1  0.40917200  0.54873300  0.56286100  1
  O  O5  1  0.58141900  0.32843700  0.01814600  1
  O  O6  1  0.04660500  0.21637100  0.52534600  1
  O  O7  1  0.38492200  0.99227700  0.20177000  1
  O  O8  1  0.61507800  0.00772300  0.79823000  1
  O  O9  1  0.93560100  0.56866300  0.56428700  1
  O  O10  1  0.77432700  0.60713000  0.95649400  1
  O  O11  1  0.01457100  0.33065600  0.64041000  1
  O  O12  1  0.02047000  0.19869700  0.19221400  1
  O  O13  1  0.30584000  0.59829500  0.82493100  1
  O  O14  1  0.94175500  0.53475600  0.23390000  1
  O  O15  1  0.72656400  0.42677700  0.50485100  1
  O  O16  1  0.30642900  0.80394100  0.76657800  1
  O  O17  1  0.36472700  0.46333300  0.70884700  1
  O  O18  1  0.28093100  0.07705300  0.99545400  1
  O  O19  1  0.99145100  0.47829600  0.10815300  1
  O  O20  1  0.70311300  0.80250700  0.86791400  1
  O  O21  1  0.58926800  0.94456400  0.93651200  1
  O  O22  1  0.35511600  0.00376200  0.87563400  1
  O  O23  1  0.27181700  0.11540600  0.32984800  1
  O  O24  1  0.98542900  0.66934400  0.35959000  1
  O  O25  1  0.57863200  0.82317700  0.51710400  1
  O  O26  1  0.62906900  0.84355300  0.59544800  1
  O  O27  1  0.25324100  0.17073700  0.80437900  1
  O  O28  1  0.97953000  0.80130300  0.80778600  1
  O  O29  1  0.77438700  0.11377400  0.45619300  1
  O  O30  1  0.29688700  0.19749300  0.13208600  1
  O  O31  1  0.95497600  0.27934000  0.97465900  1
  O  O32  1  0.72818300  0.88459400  0.67015200  1
  O  O33  1  0.37093100  0.15644700  0.40455200  1
  O  O34  1  0.74675900  0.82926300  0.19562100  1
  O  O35  1  0.71945100  0.70723400  0.06232300  1
  O  O36  1  0.64488400  0.99623800  0.12436600  1
  O  O37  1  0.35316700  0.61907200  0.23645500  1
  O  O38  1  0.67500100  0.74599800  0.73387800  1
  O  O39  1  0.02598500  0.68890300  0.69494800  1
  O  O40  1  0.64544600  0.31037000  0.89486500  1
  O  O41  1  0.01239300  0.83029000  0.13904500  1
  O  O42  1  0.70368100  0.28748000  0.69084400  1
  O  O43  1  0.64384200  0.81282800  0.39346200  1
  O  O44  1  0.63024200  0.34815600  0.09774100  1
  O  O45  1  0.06439900  0.43133700  0.43571300  1
  O  O46  1  0.42136800  0.17682300  0.48289600  1
  O  O47  1  0.28054900  0.29276600  0.93767700  1
  O  O48  1  0.36975800  0.65184400  0.90225900  1
  O  O49  1  0.35455400  0.68963000  0.10513500  1
  O  O50  1  0.22567300  0.39287000  0.04350600  1
  O  O51  1  0.69357100  0.19605900  0.23342200  1
  O  O52  1  0.22561300  0.88622600  0.54380700  1
  O  O53  1  0.97401500  0.31109700  0.30505200  1
  O  O54  1  0.27343600  0.57322300  0.49514900  1
  O  O55  1  0.77209000  0.42587700  0.83122000  1
  O  O56  1  0.95339500  0.78362900  0.47465400  1
  O  O57  1  0.69416000  0.40170500  0.17506900  1
  O  O58  1  0.06839500  0.92737100  0.93652700  1
  O  O59  1  0.64683300  0.38092800  0.76354500  1
  O  O60  1  0.22791000  0.57412300  0.16878000  1
  O  O61  1  0.69135300  0.30964100  0.36687200  1
  O  O62  1  0.65178200  0.49344300  0.62288600  1
  O  O63  1  0.58157100  0.89396400  0.26559000  1
  O  O64  1  0.41842900  0.10603600  0.73441000  1
  O  O65  1  0.04846400  0.95367400  0.26673400  1
  O  O66  1  0.99613000  0.97967800  0.60776900  1
  O  O67  1  0.63527300  0.53666700  0.29115300  1
  O  O68  1  0.95153600  0.04632600  0.73326600  1
  O  O69  1  0.93160500  0.07262900  0.06347300  1
  O  O70  1  0.98760700  0.16971000  0.86095500  1
  O  O71  1  0.04502400  0.72066000  0.02534100  1
  O  O72  1  0.00854900  0.52170400  0.89184700  1
  O  O73  1  0.34821800  0.50655700  0.37711400  1
  O  O74  1  0.71980700  0.20263900  0.56164800  1
  O  O75  1  0.41073200  0.05543600  0.06348800  1
  O  O76  1  0.30864700  0.69035900  0.63312800  1
  O  O77  1  0.59082800  0.45126700  0.43713900  1
  O  O78  1  0.35615800  0.18717200  0.60653800  1
  O  O79  1  0.00387000  0.02032200  0.39223100  1
  O  O80  1  0.71906900  0.92294700  0.00454600  1
  O  O81  1  0.05824500  0.46524400  0.76610000  1
  O  O82  1  0.28019300  0.79736100  0.43835200  1
  O  O83  1  0.77722500  0.93442500  0.32922600  1
loop_
_geom_bond_atom_site_label_1
_geom_bond_atom_site_label_2
_geom_bond_distance
_geom_bond_site_symmetry_2
O0 Si2 1.622402 1_555
O0 Y20 2.393808 1_555
O0 Y2 2.457447 1_555
O1 Si11 1.640375 1_555
O1 Y8 2.285040 1_555
O1 Y17 2.306328 1_556
O2 Si1 1.625752 1_555
O2 Y3 2.297893 1_555
O2 Y22 2.357481 1_455
O3 Si9 1.622566 1_555
O3 Y7 2.395820 1_545
O3 Y14 2.454938 1_555
O4 Si16 1.672787 1_555
O4 Si12 1.734416 1_555
O4 Y23 2.435070 1_555
O5 Si7 1.640375 1_555
O5 Y4 2.285040 1_555
O5 Y0 2.306328 1_554
O6 Si21 1.649877 1_455
O6 Y23 2.316614 1_555
O6 Y13 2.612788 1_445
O6 Y10 2.761952 1_555
O7 Si19 1.617322 1_555
O7 Y11 2.248456 1_555
O7 Y2 2.282550 1_565
O8 Si6 1.617322 1_555
O8 Y1 2.248456 1_555
O8 Y12 2.282550 1_545
O9 Si21 1.623839 1_555
O9 Y13 2.316153 1_555
O9 Y16 2.444898 1_555
O10 Si11 1.612767 1_555
O10 Y0 2.264585 1_555
O10 Y8 2.297554 1_655
O11 Si9 1.669159 1_555
O11 Y16 2.344615 1_455
O11 Y14 2.401487 1_555
O11 Y5 2.452578 1_455
O12 Si20 1.657093 1_455
O12 Y6 2.337271 1_455
O12 Y2 2.341318 1_555
O12 Y11 2.689720 1_545
O13 Si0 1.645917 1_555
O13 Y19 2.427974 1_555
O13 Y12 2.551763 1_555
O14 Si20 1.618985 1_555
O14 Y22 2.285394 1_555
O14 Y11 2.416872 1_655
O15 Si8 1.645718 1_555
O15 Si21 1.672726 1_555
O16 Si0 1.690827 1_555
O16 Si6 1.721991 1_565
O16 Y7 2.603080 1_555
O16 Y12 2.753072 1_555
O17 Si17 1.633603 1_555
O17 Y14 2.253146 1_555
O17 Y7 2.274154 1_555
O18 Si7 1.650788 1_556
O18 Si10 1.674616 1_555
O19 Si22 1.646811 1_655
O19 Y4 2.286931 1_555
O19 Y6 2.348076 1_555
O19 Y18 2.599087 1_555
O20 Si23 1.612160 1_555
O20 Y15 2.294872 1_655
O20 Y12 2.614223 1_555
O21 Si11 1.667550 1_555
O21 Si23 1.748066 1_555
O21 Y0 2.428244 1_565
O22 Si23 1.631495 1_545
O22 Y15 2.283864 1_545
O22 Y19 2.285257 1_555
O23 Si2 1.677411 1_555
O23 Y3 2.438174 1_545
O23 Y21 2.517238 1_555
O23 Y20 2.597384 1_555
O24 Si18 1.669159 1_555
O24 Y21 2.344615 1_655
O24 Y22 2.401487 1_555
O24 Y3 2.452578 1_655
O25 Si16 1.640422 1_555
O25 Y9 2.305343 1_555
O25 Y13 2.307799 1_555
O26 Si12 1.644391 1_555
O26 Y5 2.389562 1_565
O26 Y13 2.472197 1_555
O26 Y16 2.814275 1_555
O27 Si6 1.604691 1_555
O27 Y1 2.338246 1_455
O27 Y19 2.475007 1_555
O28 Si0 1.657093 1_655
O28 Y15 2.337271 1_655
O28 Y12 2.341318 1_555
O28 Y1 2.689720 1_565
O29 Si8 1.613339 1_555
O29 Y9 2.243239 1_545
O29 Y10 2.292104 1_655
O30 Si5 1.612160 1_555
O30 Y6 2.294872 1_455
O30 Y2 2.614223 1_555
O31 Si10 1.647088 1_655
O31 Y0 2.322412 1_555
O31 Y8 2.599049 1_655
O31 Y4 2.800581 1_556
O32 Si4 1.677411 1_555
O32 Y5 2.438174 1_565
O32 Y16 2.517238 1_555
O32 Y7 2.597384 1_555
O33 Si13 1.644391 1_555
O33 Y3 2.389562 1_545
O33 Y10 2.472197 1_555
O33 Y21 2.814275 1_555
O34 Si19 1.604691 1_555
O34 Y11 2.338246 1_655
O34 Y18 2.475007 1_555
O35 Si14 1.663277 1_555
O35 Y17 2.345614 1_555
O35 Y4 2.394551 1_555
O35 Y18 2.625974 1_555
O36 Si5 1.631495 1_565
O36 Y6 2.283864 1_565
O36 Y18 2.285257 1_555
O37 Si1 1.618212 1_555
O37 Y2 2.239544 1_555
O37 Y11 2.496836 1_555
O38 Si4 1.622402 1_555
O38 Y7 2.393808 1_555
O38 Y12 2.457447 1_555
O39 Si4 1.682725 1_455
O39 Y16 2.375169 1_455
O39 Y7 2.441593 1_555
O39 Y14 2.472766 1_555
O40 Si15 1.619043 1_555
O40 Y0 2.208140 1_555
O40 Y19 2.386994 1_555
O41 Si22 1.656234 1_555
O41 Y6 2.291421 1_465
O41 Y18 2.441346 1_455
O41 Y11 2.538536 1_555
O42 Si17 1.625752 1_555
O42 Y5 2.297893 1_555
O42 Y14 2.357481 1_655
O43 Si18 1.624270 1_555
O43 Y9 2.221354 1_555
O43 Y3 2.360824 1_555
O44 Si5 1.645877 1_555
O44 Y18 2.405552 1_555
O44 Y4 2.514154 1_555
O45 Si3 1.623839 1_555
O45 Y10 2.316153 1_555
O45 Y21 2.444898 1_555
O46 Si8 1.640422 1_555
O46 Y23 2.305343 1_555
O46 Y10 2.307799 1_555
O47 Si10 1.663277 1_555
O47 Y0 2.345614 1_555
O47 Y8 2.394551 1_555
O47 Y19 2.625974 1_555
O48 Si23 1.645877 1_555
O48 Y19 2.405552 1_555
O48 Y8 2.514154 1_555
O49 Si22 1.619043 1_555
O49 Y17 2.208140 1_555
O49 Y18 2.386994 1_555
O50 Si7 1.612767 1_555
O50 Y17 2.264585 1_555
O50 Y4 2.297554 1_455
O51 Si20 1.690827 1_555
O51 Si19 1.721991 1_545
O51 Y20 2.603080 1_555
O51 Y2 2.753072 1_555
O52 Si16 1.613339 1_555
O52 Y23 2.243239 1_565
O52 Y13 2.292104 1_455
O53 Si2 1.682725 1_655
O53 Y21 2.375169 1_655
O53 Y20 2.441593 1_555
O53 Y22 2.472766 1_555
O54 Si16 1.645718 1_555
O54 Si3 1.672726 1_555
O55 Si15 1.620187 1_555
O55 Y12 2.255341 1_555
O55 Y1 2.305369 1_555
O56 Si3 1.649877 1_655
O56 Y9 2.316614 1_555
O56 Y10 2.612788 1_665
O56 Y13 2.761952 1_555
O57 Si20 1.645917 1_555
O57 Y18 2.427974 1_555
O57 Y2 2.551763 1_555
O58 Si10 1.623760 1_565
O58 Y8 2.319241 1_555
O58 Y15 2.393435 1_555
O59 Si17 1.618212 1_555
O59 Y12 2.239544 1_555
O59 Y1 2.496836 1_555
O60 Si22 1.620187 1_555
O60 Y2 2.255341 1_555
O60 Y11 2.305369 1_555
O61 Si13 1.625465 1_555
O61 Y20 2.384796 1_555
O61 Y21 2.386912 1_655
O62 Si12 1.624608 1_555
O62 Y16 2.263217 1_555
O62 Y5 2.307379 1_555
O63 Si19 1.685789 1_555
O63 Si1 1.732485 1_555
O63 Y20 2.435960 1_565
O64 Si6 1.685789 1_555
O64 Si17 1.732485 1_555
O64 Y7 2.435960 1_545
O65 Si2 1.651844 1_565
O65 Y11 2.296201 1_555
O65 Y22 2.298651 1_455
O66 Si9 1.658720 1_665
O66 Y13 2.312253 1_555
O66 Y16 2.345309 1_555
O66 Y5 2.540430 1_565
O67 Si1 1.633603 1_555
O67 Y22 2.253146 1_555
O67 Y20 2.274154 1_555
O68 Si4 1.651844 1_545
O68 Y1 2.296201 1_555
O68 Y14 2.298651 1_655
O69 Si14 1.623760 1_545
O69 Y4 2.319241 1_555
O69 Y6 2.393435 1_555
O70 Si15 1.656234 1_555
O70 Y15 2.291421 1_645
O70 Y19 2.441346 1_655
O70 Y1 2.538536 1_555
O71 Si14 1.647088 1_455
O71 Y17 2.322412 1_555
O71 Y4 2.599049 1_455
O71 Y8 2.800581 1_554
O72 Si15 1.646811 1_455
O72 Y8 2.286931 1_555
O72 Y15 2.348076 1_555
O72 Y19 2.599087 1_555
O73 Si13 1.624608 1_555
O73 Y21 2.263217 1_555
O73 Y3 2.307379 1_555
O74 Si21 1.665447 1_555
O74 Y23 2.343402 1_555
O74 Y13 2.411169 1_545
O74 Y5 2.557563 1_555
O75 Si7 1.667550 1_555
O75 Si5 1.748066 1_555
O75 Y17 2.428244 1_545
O76 Si12 1.625465 1_555
O76 Y7 2.384796 1_555
O76 Y16 2.386912 1_455
O77 Si8 1.672787 1_555
O77 Si13 1.734416 1_555
O77 Y9 2.435070 1_555
O78 Si9 1.624270 1_555
O78 Y23 2.221354 1_555
O78 Y5 2.360824 1_555
O79 Si18 1.658720 1_445
O79 Y10 2.312253 1_555
O79 Y21 2.345309 1_555
O79 Y3 2.540430 1_545
O80 Si11 1.650788 1_554
O80 Si14 1.674616 1_555
O81 Si0 1.618985 1_555
O81 Y14 2.285394 1_555
O81 Y1 2.416872 1_455
O82 Si3 1.665447 1_555
O82 Y9 2.343402 1_555
O82 Y10 2.411169 1_565
O82 Y3 2.557563 1_555
O83 Si18 1.622566 1_555
O83 Y20 2.395820 1_565
O83 Y22 2.454938 1_555
