# generated using pymatgen
data_Pr23Mg4Ni7
_symmetry_space_group_name_H-M   'P 1'
_cell_length_a   10.03246291
_cell_length_b   10.03246291
_cell_length_c   22.75326000
_cell_angle_alpha   90.00000000
_cell_angle_beta   90.00000000
_cell_angle_gamma   120.00000597
_symmetry_Int_Tables_number   1
_chemical_formula_structural   Pr23Mg4Ni7
_chemical_formula_sum   'Pr46 Mg8 Ni14'
_cell_volume   1983.30433125
_cell_formula_units_Z   2
loop_
 _symmetry_equiv_pos_site_id
 _symmetry_equiv_pos_as_xyz
  1  'x, y, z'
loop_
 _atom_site_type_symbol
 _atom_site_label
 _atom_site_symmetry_multiplicity
 _atom_site_fract_x
 _atom_site_fract_y
 _atom_site_fract_z
 _atom_site_occupancy
  Pr  Pr0  1  0.79281100  0.20718900  0.94833300  1
  Pr  Pr1  1  0.07905400  0.53952700  0.58659100  1
  Pr  Pr2  1  0.41437700  0.20718900  0.94833300  1
  Pr  Pr3  1  0.66666700  0.33333300  0.64532400  1
  Pr  Pr4  1  0.79281100  0.58562300  0.94833300  1
  Pr  Pr5  1  0.92094600  0.46047300  0.08659100  1
  Pr  Pr6  1  0.79325200  0.20674800  0.21989500  1
  Pr  Pr7  1  0.20674800  0.79325200  0.71989500  1
  Pr  Pr8  1  0.21187100  0.42374200  0.99249100  1
  Pr  Pr9  1  0.20674800  0.41349600  0.71989500  1
  Pr  Pr10  1  0.87210300  0.74420600  0.63311300  1
  Pr  Pr11  1  0.12789700  0.87210300  0.13311300  1
  Pr  Pr12  1  0.08619700  0.54309800  0.85654700  1
  Pr  Pr13  1  0.25579400  0.12789700  0.63311300  1
  Pr  Pr14  1  0.00000000  0.00000000  0.99843400  1
  Pr  Pr15  1  0.20718900  0.41437700  0.44833300  1
  Pr  Pr16  1  0.58650400  0.79325200  0.71989500  1
  Pr  Pr17  1  0.57625800  0.78812900  0.99249100  1
  Pr  Pr18  1  0.79325200  0.58650400  0.21989500  1
  Pr  Pr19  1  0.20512200  0.79487800  0.28216700  1
  Pr  Pr20  1  0.79487800  0.20512200  0.78216700  1
  Pr  Pr21  1  0.79487800  0.58975600  0.78216700  1
  Pr  Pr22  1  0.45690200  0.54309800  0.85654700  1
  Pr  Pr23  1  0.00000000  0.00000000  0.49843400  1
  Pr  Pr24  1  0.74420600  0.87210300  0.13311300  1
  Pr  Pr25  1  0.78812900  0.21187100  0.49249100  1
  Pr  Pr26  1  0.12789700  0.25579400  0.13311300  1
  Pr  Pr27  1  0.53952700  0.46047300  0.08659100  1
  Pr  Pr28  1  0.33333300  0.66666700  0.14532400  1
  Pr  Pr29  1  0.45690200  0.91380300  0.85654700  1
  Pr  Pr30  1  0.20718900  0.79281100  0.44833300  1
  Pr  Pr31  1  0.91380300  0.45690200  0.35654700  1
  Pr  Pr32  1  0.42374200  0.21187100  0.49249100  1
  Pr  Pr33  1  0.21187100  0.78812900  0.99249100  1
  Pr  Pr34  1  0.54309800  0.08619700  0.35654700  1
  Pr  Pr35  1  0.46047300  0.92094600  0.58659100  1
  Pr  Pr36  1  0.54309800  0.45690200  0.35654700  1
  Pr  Pr37  1  0.58562300  0.79281100  0.44833300  1
  Pr  Pr38  1  0.46047300  0.53952700  0.58659100  1
  Pr  Pr39  1  0.41349600  0.20674800  0.21989500  1
  Pr  Pr40  1  0.20512200  0.41024400  0.28216700  1
  Pr  Pr41  1  0.41024400  0.20512200  0.78216700  1
  Pr  Pr42  1  0.58975600  0.79487800  0.28216700  1
  Pr  Pr43  1  0.87210300  0.12789700  0.63311300  1
  Pr  Pr44  1  0.78812900  0.57625800  0.49249100  1
  Pr  Pr45  1  0.53952700  0.07905400  0.08659100  1
  Mg  Mg0  1  0.89449900  0.78899800  0.36341800  1
  Mg  Mg1  1  0.00000000  0.00000000  0.74980100  1
  Mg  Mg2  1  0.21100200  0.10550100  0.36341800  1
  Mg  Mg3  1  0.78899800  0.89449900  0.86341800  1
  Mg  Mg4  1  0.89449900  0.10550100  0.36341800  1
  Mg  Mg5  1  0.10550100  0.21100200  0.86341800  1
  Mg  Mg6  1  0.00000000  0.00000000  0.24980100  1
  Mg  Mg7  1  0.10550100  0.89449900  0.86341800  1
  Ni  Ni0  1  0.28539700  0.14269900  0.06361900  1
  Ni  Ni1  1  0.33333300  0.66666700  0.36287900  1
  Ni  Ni2  1  0.47874600  0.52125400  0.21120600  1
  Ni  Ni3  1  0.85730100  0.71460300  0.06361900  1
  Ni  Ni4  1  0.14269900  0.28539700  0.56361900  1
  Ni  Ni5  1  0.04250800  0.52125400  0.21120600  1
  Ni  Ni6  1  0.14269900  0.85730100  0.56361900  1
  Ni  Ni7  1  0.66666700  0.33333300  0.86287900  1
  Ni  Ni8  1  0.85730100  0.14269900  0.06361900  1
  Ni  Ni9  1  0.71460300  0.85730100  0.56361900  1
  Ni  Ni10  1  0.52125400  0.04250800  0.71120600  1
  Ni  Ni11  1  0.95749200  0.47874600  0.71120600  1
  Ni  Ni12  1  0.52125400  0.47874600  0.71120600  1
  Ni  Ni13  1  0.47874600  0.95749200  0.21120600  1
loop_
_geom_bond_atom_site_label_1
_geom_bond_atom_site_label_2
_geom_bond_distance
_geom_bond_site_symmetry_2
Pr0 Pr8 3.777692 1_655
Pr0 Pr17 3.777692 1_545
Pr0 Pr29 3.802989 1_545
Pr0 Pr12 3.802989 1_655
Pr1 Pr25 3.783430 1_455
Pr1 Pr44 3.783431 1_455
Pr2 Pr8 3.777684 1_555
Pr2 Pr33 3.777693 1_545
Pr2 Pr22 3.802983 1_555
Pr2 Pr29 3.802999 1_545
Pr3 Pr32 4.067846 1_555
Pr3 Pr44 4.067846 1_555
Pr5 Pr8 3.783431 1_654
Pr10 Pr44 3.516638 1_555
Pr11 Pr33 3.516638 1_554
Pr12 Pr20 3.604607 1_455
Pr12 Pr21 3.604612 1_455
Pr12 Pr29 3.719084 1_555
Pr12 Pr22 3.719084 1_555
Pr12 Pr8 3.755125 1_555
Pr12 Pr33 3.755129 1_555
Pr12 Pr9 3.793868 1_555
Pr12 Pr7 3.793873 1_555
Pr12 Pr4 3.802999 1_455
Pr13 Pr32 3.516638 1_555
Pr14 Pr17 3.684109 1_445
Pr14 Pr8 3.684109 1_555
Pr14 Pr33 3.684109 1_545
Pr15 Pr32 3.777684 1_555
Pr15 Pr25 3.777693 1_455
Pr15 Pr36 3.802983 1_555
Pr15 Pr31 3.802999 1_455
Pr16 Pr29 3.793868 1_555
Pr16 Pr22 3.793873 1_555
Pr17 Pr24 3.516638 1_556
Pr17 Pr8 3.655699 1_555
Pr17 Pr33 3.655699 1_555
Pr17 Pr29 3.755125 1_555
Pr17 Pr22 3.755130 1_555
Pr17 Pr4 3.777684 1_555
Pr17 Pr27 3.783431 1_556
Pr17 Pr45 3.783431 1_566
Pr17 Pr28 4.067846 1_556
Pr18 Pr31 3.793868 1_555
Pr18 Pr36 3.793873 1_555
Pr19 Pr31 3.604607 1_455
Pr19 Pr34 3.604607 1_565
Pr20 Pr29 3.604607 1_545
Pr21 Pr22 3.604603 1_555
Pr22 Pr41 3.604603 1_555
Pr22 Pr29 3.719084 1_555
Pr22 Pr8 3.755130 1_555
Pr22 Pr9 3.793873 1_555
Pr22 Pr4 3.802983 1_555
Pr23 Pr44 3.684109 1_445
Pr23 Pr32 3.684109 1_555
Pr23 Pr25 3.684109 1_455
Pr25 Pr43 3.516638 1_555
Pr25 Pr32 3.655699 1_555
Pr25 Pr44 3.655699 1_555
Pr25 Pr31 3.755129 1_555
Pr25 Pr34 3.755129 1_555
Pr25 Pr37 3.777693 1_545
Pr25 Pr35 3.783430 1_545
Pr25 Pr3 4.067842 1_555
Pr26 Pr8 3.516638 1_554
Pr27 Pr8 3.783431 1_554
Pr28 Pr33 4.067842 1_554
Pr28 Pr8 4.067846 1_554
Pr29 Pr41 3.604612 1_565
Pr29 Pr33 3.755129 1_555
Pr29 Pr7 3.793873 1_555
Pr30 Pr32 3.777692 1_565
Pr30 Pr44 3.777692 1_455
Pr30 Pr34 3.802989 1_565
Pr30 Pr31 3.802989 1_455
Pr31 Pr40 3.604612 1_655
Pr31 Pr34 3.719084 1_555
Pr31 Pr36 3.719084 1_555
Pr31 Pr44 3.755125 1_555
Pr31 Pr6 3.793873 1_555
Pr32 Pr44 3.655699 1_555
Pr32 Pr34 3.755125 1_555
Pr32 Pr36 3.755130 1_555
Pr32 Pr38 3.783431 1_555
Pr32 Pr35 3.783431 1_545
Pr33 Pr8 3.655699 1_555
Pr33 Pr4 3.777693 1_455
Pr33 Pr5 3.783430 1_456
Pr33 Pr45 3.783430 1_566
Pr34 Pr42 3.604612 1_545
Pr34 Pr36 3.719084 1_555
Pr34 Pr39 3.793868 1_555
Pr34 Pr6 3.793873 1_555
Pr34 Pr37 3.802999 1_545
Pr36 Pr40 3.604603 1_555
Pr36 Pr42 3.604603 1_555
Pr36 Pr44 3.755130 1_555
Pr36 Pr39 3.793873 1_555
Pr36 Pr37 3.802983 1_555
Pr37 Pr44 3.777684 1_555
Pr38 Pr44 3.783431 1_555
Mg0 Mg6 3.169210 1_665
Mg0 Mg2 3.175304 1_665
Mg0 Mg4 3.175305 1_565
Mg0 Pr31 3.436232 1_555
Mg0 Pr36 3.436237 1_555
Mg0 Pr44 3.470076 1_555
Mg0 Pr23 3.577481 1_665
Mg0 Pr19 3.598450 1_655
Mg0 Pr42 3.598450 1_555
Mg0 Pr37 3.668170 1_555
Mg0 Pr30 3.668178 1_655
Mg0 Pr18 3.709385 1_555
Mg1 Mg5 3.169210 1_555
Mg1 Mg3 3.169210 1_445
Mg1 Mg7 3.169210 1_545
Mg1 Pr10 3.462427 1_445
Mg1 Pr13 3.462427 1_555
Mg1 Pr43 3.462427 1_455
Mg1 Pr41 3.639633 1_555
Mg1 Pr21 3.639633 1_445
Mg1 Pr20 3.639633 1_455
Mg1 Pr9 3.656479 1_555
Mg1 Pr16 3.656479 1_445
Mg1 Pr7 3.656479 1_545
Mg2 Mg6 3.169210 1_555
Mg2 Mg4 3.175305 1_455
Mg2 Pr34 3.436232 1_555
Mg2 Pr36 3.436237 1_555
Mg2 Pr32 3.470076 1_555
Mg2 Pr23 3.577481 1_555
Mg2 Pr19 3.598450 1_545
Mg2 Pr40 3.598450 1_555
Mg2 Pr15 3.668170 1_555
Mg2 Pr30 3.668178 1_545
Mg2 Pr39 3.709385 1_555
Mg3 Mg5 3.175304 1_665
Mg3 Mg7 3.175305 1_655
Mg3 Pr29 3.436232 1_555
Mg3 Pr22 3.436237 1_555
Mg3 Pr17 3.470076 1_555
Mg3 Pr14 3.577481 1_665
Mg3 Pr20 3.598450 1_565
Mg3 Pr21 3.598450 1_555
Mg3 Pr4 3.668170 1_555
Mg3 Pr0 3.668178 1_565
Mg3 Pr16 3.709385 1_555
Mg4 Mg6 3.169210 1_655
Mg4 Pr31 3.436242 1_555
Mg4 Pr34 3.436242 1_555
Mg4 Pr25 3.470076 1_555
Mg4 Pr23 3.577481 1_655
Mg4 Pr40 3.598450 1_655
Mg4 Pr42 3.598450 1_545
Mg4 Pr15 3.668174 1_655
Mg4 Pr37 3.668174 1_545
Mg4 Pr6 3.709385 1_555
Mg5 Mg7 3.175305 1_545
Mg5 Pr12 3.436232 1_555
Mg5 Pr22 3.436237 1_555
Mg5 Pr8 3.470076 1_555
Mg5 Pr14 3.577481 1_555
Mg5 Pr20 3.598450 1_455
Mg5 Pr41 3.598450 1_555
Mg5 Pr2 3.668170 1_555
Mg5 Pr0 3.668178 1_455
Mg5 Pr9 3.709385 1_555
Mg6 Pr24 3.462427 1_445
Mg6 Pr26 3.462427 1_555
Mg6 Pr11 3.462427 1_545
Mg6 Pr40 3.639633 1_555
Mg6 Pr42 3.639633 1_445
Mg6 Pr19 3.639633 1_545
Mg6 Pr18 3.656479 1_445
Mg6 Pr39 3.656479 1_555
Mg6 Pr6 3.656479 1_455
Mg7 Pr29 3.436242 1_555
Mg7 Pr12 3.436242 1_555
Mg7 Pr33 3.470076 1_555
Mg7 Pr14 3.577481 1_565
Mg7 Pr41 3.598450 1_565
Mg7 Pr21 3.598450 1_455
Mg7 Pr4 3.668174 1_455
Mg7 Pr2 3.668174 1_565
Mg7 Pr7 3.709385 1_555
Ni0 Pr26 2.842040 1_555
Ni0 Pr11 2.842047 1_545
Ni0 Pr2 2.852477 1_554
Ni0 Pr14 2.889357 1_554
Ni0 Pr27 2.967996 1_555
Ni0 Pr45 2.968002 1_555
Ni0 Pr8 3.632222 1_554
Ni0 Pr33 3.632231 1_544
Ni1 Pr19 2.887227 1_555
Ni1 Pr42 2.887233 1_555
Ni1 Pr40 2.887233 1_555
Ni1 Pr30 2.930062 1_555
Ni1 Pr37 2.930074 1_555
Ni1 Pr15 2.930074 1_555
Ni1 Pr31 3.647877 1_455
Ni1 Pr34 3.647877 1_565
Ni1 Pr36 3.647877 1_555
Ni2 Pr42 2.885428 1_555
Ni2 Pr40 2.885428 1_555
Ni2 Pr18 2.890993 1_555
Ni2 Pr39 2.890993 1_555
Ni2 Pr28 2.937997 1_555
Ni2 Pr27 3.025721 1_555
Ni2 Pr36 3.490925 1_555
Ni2 Pr26 3.642162 1_555
Ni2 Pr24 3.642162 1_555
Ni3 Pr24 2.842040 1_555
Ni3 Pr11 2.842047 1_655
Ni3 Pr4 2.852477 1_554
Ni3 Pr14 2.889357 1_664
Ni3 Pr27 2.967996 1_555
Ni3 Pr5 2.968002 1_555
Ni3 Pr17 3.632222 1_554
Ni3 Pr33 3.632231 1_654
Ni4 Pr13 2.842040 1_555
Ni4 Pr43 2.842047 1_455
Ni4 Pr15 2.852477 1_555
Ni4 Pr23 2.889357 1_555
Ni4 Pr38 2.967996 1_555
Ni4 Pr1 2.968002 1_555
Ni4 Pr32 3.632222 1_555
Ni4 Pr25 3.632231 1_455
Ni5 Pr19 2.885428 1_555
Ni5 Pr40 2.885428 1_555
Ni5 Pr6 2.890993 1_455
Ni5 Pr18 2.890993 1_455
Ni5 Pr28 2.937989 1_555
Ni5 Pr5 3.025721 1_455
Ni5 Pr31 3.490928 1_455
Ni5 Pr11 3.642162 1_555
Ni5 Pr26 3.642162 1_555
Ni6 Pr13 2.842048 1_565
Ni6 Pr10 2.842048 1_455
Ni6 Pr30 2.852477 1_555
Ni6 Pr23 2.889364 1_565
Ni6 Pr35 2.967993 1_555
Ni6 Pr1 2.967993 1_555
Ni6 Pr32 3.632228 1_565
Ni6 Pr44 3.632228 1_455
Ni7 Pr20 2.887227 1_555
Ni7 Pr21 2.887233 1_555
Ni7 Pr41 2.887233 1_555
Ni7 Pr0 2.930062 1_555
Ni7 Pr4 2.930074 1_555
Ni7 Pr2 2.930074 1_555
Ni7 Pr29 3.647877 1_545
Ni7 Pr12 3.647877 1_655
Ni7 Pr22 3.647877 1_555
Ni8 Pr26 2.842048 1_655
Ni8 Pr24 2.842048 1_545
Ni8 Pr0 2.852477 1_554
Ni8 Pr14 2.889364 1_654
Ni8 Pr5 2.967993 1_555
Ni8 Pr45 2.967993 1_555
Ni8 Pr8 3.632228 1_654
Ni8 Pr17 3.632228 1_544
Ni9 Pr10 2.842040 1_555
Ni9 Pr43 2.842047 1_565
Ni9 Pr37 2.852477 1_555
Ni9 Pr23 2.889357 1_665
Ni9 Pr38 2.967996 1_555
Ni9 Pr35 2.968002 1_555
Ni9 Pr44 3.632222 1_555
Ni9 Pr25 3.632231 1_565
Ni10 Pr20 2.885428 1_555
Ni10 Pr41 2.885428 1_555
Ni10 Pr7 2.890993 1_545
Ni10 Pr16 2.890993 1_545
Ni10 Pr3 2.937989 1_555
Ni10 Pr35 3.025721 1_545
Ni10 Pr29 3.490928 1_545
Ni10 Pr43 3.642162 1_555
Ni10 Pr13 3.642162 1_555
Ni11 Pr20 2.885428 1_555
Ni11 Pr21 2.885428 1_555
Ni11 Pr7 2.890993 1_655
Ni11 Pr9 2.890993 1_655
Ni11 Pr3 2.937989 1_555
Ni11 Pr1 3.025721 1_655
Ni11 Pr12 3.490928 1_655
Ni11 Pr43 3.642162 1_555
Ni11 Pr10 3.642162 1_555
Ni12 Pr41 2.885428 1_555
Ni12 Pr21 2.885428 1_555
Ni12 Pr16 2.890993 1_555
Ni12 Pr9 2.890993 1_555
Ni12 Pr3 2.937997 1_555
Ni12 Pr38 3.025721 1_555
Ni12 Pr22 3.490925 1_555
Ni12 Pr13 3.642162 1_555
Ni12 Pr10 3.642162 1_555
Ni13 Pr19 2.885428 1_555
Ni13 Pr42 2.885428 1_555
Ni13 Pr6 2.890993 1_565
Ni13 Pr39 2.890993 1_565
Ni13 Pr28 2.937989 1_555
Ni13 Pr45 3.025721 1_565
Ni13 Pr34 3.490928 1_565
Ni13 Pr11 3.642162 1_555
Ni13 Pr24 3.642162 1_555
