# generated using pymatgen
data_K2Zn(Si2O5)2
_symmetry_space_group_name_H-M   'P 1'
_cell_length_a   7.06343979
_cell_length_b   10.05551609
_cell_length_c   14.03987185
_cell_angle_alpha   90.00000000
_cell_angle_beta   90.00000000
_cell_angle_gamma   90.00000000
_symmetry_Int_Tables_number   1
_chemical_formula_structural   K2Zn(Si2O5)2
_chemical_formula_sum   'K8 Zn4 Si16 O40'
_cell_volume   997.20341368
_cell_formula_units_Z   4
loop_
 _symmetry_equiv_pos_site_id
 _symmetry_equiv_pos_as_xyz
  1  'x, y, z'
loop_
 _atom_site_type_symbol
 _atom_site_label
 _atom_site_symmetry_multiplicity
 _atom_site_fract_x
 _atom_site_fract_y
 _atom_site_fract_z
 _atom_site_occupancy
  K  K0  1  0.23383649  0.40360699  0.12024586  1
  K  K1  1  0.73383649  0.09639301  0.87975414  1
  K  K2  1  0.26616351  0.59639301  0.62024586  1
  K  K3  1  0.76616351  0.90360699  0.37975414  1
  K  K4  1  0.98763389  0.67284701  0.89925801  1
  K  K5  1  0.48763389  0.82715299  0.10074199  1
  K  K6  1  0.01236611  0.17284701  0.60074199  1
  K  K7  1  0.51236611  0.32715299  0.39925801  1
  Zn  Zn0  1  0.48349178  0.80576765  0.85599004  1
  Zn  Zn1  1  0.01650822  0.19423235  0.35599004  1
  Zn  Zn2  1  0.51650822  0.30576765  0.64400996  1
  Zn  Zn3  1  0.98349178  0.69423235  0.14400996  1
  Si  Si0  1  0.26540081  0.93936721  0.40179683  1
  Si  Si1  1  0.76540081  0.56063279  0.59820317  1
  Si  Si2  1  0.23588023  0.34464497  0.82024822  1
  Si  Si3  1  0.53021489  0.51785557  0.92123467  1
  Si  Si4  1  0.17517539  0.90130422  0.72763251  1
  Si  Si5  1  0.46978511  0.01785557  0.57876533  1
  Si  Si6  1  0.82482461  0.40130422  0.77236749  1
  Si  Si7  1  0.67517539  0.59869578  0.27236749  1
  Si  Si8  1  0.26411977  0.65535503  0.32024822  1
  Si  Si9  1  0.03021489  0.98214443  0.07876533  1
  Si  Si10  1  0.73588023  0.15535503  0.17975178  1
  Si  Si11  1  0.32482461  0.09869578  0.22763251  1
  Si  Si12  1  0.76411977  0.84464497  0.67975178  1
  Si  Si13  1  0.96978511  0.48214443  0.42123467  1
  Si  Si14  1  0.23459919  0.06063279  0.90179683  1
  Si  Si15  1  0.73459919  0.43936721  0.09820317  1
  O  O0  1  0.92016939  0.57821966  0.51219155  1
  O  O1  1  0.80966461  0.50779319  0.34010173  1
  O  O2  1  0.10661696  0.00366681  0.81211361  1
  O  O3  1  0.50749282  0.13872054  0.16301242  1
  O  O4  1  0.71741956  0.84768475  0.79042160  1
  O  O5  1  0.02445316  0.82987718  0.04912377  1
  O  O6  1  0.28258044  0.34768475  0.70957840  1
  O  O7  1  0.22627418  0.22917622  0.26839298  1
  O  O8  1  0.19306106  0.79038901  0.37402572  1
  O  O9  1  0.89338304  0.50366681  0.68788639  1
  O  O10  1  0.67457473  0.96839294  0.61880957  1
  O  O11  1  0.07983061  0.07821966  0.98780845  1
  O  O12  1  0.49250718  0.63872054  0.33698758  1
  O  O13  1  0.82542527  0.03160706  0.11880957  1
  O  O14  1  0.59082362  0.46733436  0.57265438  1
  O  O15  1  0.97554684  0.32987718  0.45087623  1
  O  O16  1  0.39338304  0.99633319  0.31211361  1
  O  O17  1  0.80693894  0.29038901  0.12597428  1
  O  O18  1  0.27372582  0.77082378  0.76839298  1
  O  O19  1  0.69306106  0.70961099  0.62597428  1
  O  O20  1  0.90917638  0.53266564  0.07265438  1
  O  O21  1  0.60661696  0.49633319  0.18788639  1
  O  O22  1  0.00749282  0.36127946  0.83698758  1
  O  O23  1  0.69033539  0.49220681  0.84010173  1
  O  O24  1  0.21741956  0.65231525  0.20957840  1
  O  O25  1  0.19033539  0.00779319  0.15989827  1
  O  O26  1  0.57983061  0.42178034  0.01219155  1
  O  O27  1  0.40917638  0.96733436  0.92734562  1
  O  O28  1  0.30966461  0.99220681  0.65989827  1
  O  O29  1  0.47554684  0.17012282  0.54912377  1
  O  O30  1  0.09082362  0.03266564  0.42734562  1
  O  O31  1  0.30693894  0.20961099  0.87402572  1
  O  O32  1  0.52445316  0.67012282  0.95087623  1
  O  O33  1  0.99250718  0.86127946  0.66301242  1
  O  O34  1  0.17457473  0.53160706  0.38119043  1
  O  O35  1  0.77372582  0.72917622  0.23160702  1
  O  O36  1  0.78258044  0.15231525  0.29042160  1
  O  O37  1  0.72627418  0.27082378  0.73160702  1
  O  O38  1  0.32542527  0.46839294  0.88119043  1
  O  O39  1  0.42016939  0.92178034  0.48780845  1
loop_
_geom_bond_atom_site_label_1
_geom_bond_atom_site_label_2
_geom_bond_distance
_geom_bond_site_symmetry_2
K0 O20 2.718357 1_455
K0 O7 2.721323 1_555
K0 O24 2.800171 1_555
K0 O26 2.882288 1_555
K0 O21 2.950344 1_555
K0 O17 3.224128 1_455
K1 O27 2.718357 1_545
K1 O37 2.721323 1_555
K1 O4 2.800171 1_545
K1 O11 2.882288 1_655
K1 O2 2.950344 1_655
K1 O31 3.224128 1_555
K2 O14 2.718357 1_555
K2 O18 2.721323 1_555
K2 O6 2.800171 1_555
K2 O0 2.882288 1_455
K2 O9 2.950344 1_455
K2 O19 3.224128 1_555
K3 O30 2.718357 1_665
K3 O35 2.721323 1_555
K3 O36 2.800171 1_565
K3 O39 2.882288 1_555
K3 O16 2.950344 1_555
K3 O8 3.224128 1_655
K4 O5 2.643513 1_656
K4 O20 2.867174 1_556
K4 O23 2.898106 1_555
K4 O18 2.903448 1_655
K4 O4 3.011430 1_555
K4 O38 3.159728 1_655
K5 O32 2.643513 1_554
K5 O27 2.867174 1_554
K5 O25 2.898106 1_565
K5 O35 2.903448 1_555
K5 O24 3.011430 1_555
K5 O13 3.159728 1_565
K6 O15 2.643513 1_455
K6 O30 2.867174 1_555
K6 O28 2.898106 1_545
K6 O37 2.903448 1_455
K6 O6 3.011430 1_555
K6 O10 3.159728 1_445
K7 O29 2.643513 1_555
K7 O14 2.867174 1_555
K7 O1 2.898106 1_555
K7 O7 2.903448 1_555
K7 O36 3.011430 1_555
K7 O34 3.159728 1_555
O0 Si1 1.638486 1_555
O0 Si13 1.639186 1_555
O1 Si7 1.625518 1_555
O1 Si13 1.625799 1_555
O2 Si4 1.643419 1_545
O2 Si14 1.652504 1_555
O3 Si11 1.627847 1_555
O3 Si10 1.638789 1_555
O4 Si12 1.588713 1_555
O4 Zn0 1.937866 1_555
O5 Si9 1.587197 1_555
O5 Zn3 1.928440 1_455
O6 Si2 1.588713 1_555
O6 Zn2 1.937866 1_555
O7 Si11 1.591706 1_555
O7 Zn1 1.957382 1_555
O8 Si0 1.630115 1_555
O8 Si8 1.632701 1_555
O9 Si6 1.643419 1_555
O9 Si1 1.652504 1_555
O10 Si5 1.629688 1_565
O10 Si12 1.637237 1_555
O11 Si14 1.638486 1_555
O11 Si9 1.639186 1_546
O12 Si7 1.627847 1_555
O12 Si8 1.638789 1_555
O13 Si9 1.629688 1_645
O13 Si10 1.637237 1_555
O14 Si1 1.590406 1_555
O14 Zn2 1.979555 1_555
O15 Si13 1.587197 1_555
O15 Zn1 1.928440 1_655
O16 Si11 1.643419 1_565
O16 Si0 1.652504 1_555
O17 Si15 1.630115 1_555
O17 Si10 1.632701 1_555
O18 Si4 1.591706 1_555
O18 Zn0 1.957382 1_555
O19 Si1 1.630115 1_555
O19 Si12 1.632701 1_555
O20 Si15 1.590406 1_555
O20 Zn3 1.979555 1_555
O21 Si7 1.643419 1_555
O21 Si15 1.652504 1_555
O22 Si6 1.627847 1_455
O22 Si2 1.638789 1_555
O23 Si6 1.625518 1_555
O23 Si3 1.625799 1_555
O24 Si8 1.588713 1_555
O24 Zn3 1.937866 1_455
O25 Si11 1.625518 1_555
O25 Si9 1.625799 1_545
O26 Si15 1.638486 1_555
O26 Si3 1.639186 1_554
O27 Si14 1.590406 1_565
O27 Zn0 1.979555 1_555
O28 Si4 1.625518 1_555
O28 Si5 1.625799 1_565
O29 Si5 1.587197 1_555
O29 Zn2 1.928440 1_555
O30 Si0 1.590406 1_545
O30 Zn1 1.979555 1_555
O31 Si14 1.630115 1_555
O31 Si2 1.632701 1_555
O32 Si3 1.587197 1_555
O32 Zn0 1.928440 1_555
O33 Si4 1.627847 1_655
O33 Si12 1.638789 1_555
O34 Si13 1.629688 1_455
O34 Si8 1.637237 1_555
O35 Si7 1.591706 1_555
O35 Zn3 1.957382 1_555
O36 Si10 1.588713 1_555
O36 Zn1 1.937866 1_655
O37 Si6 1.591706 1_555
O37 Zn2 1.957382 1_555
O38 Si3 1.629688 1_555
O38 Si2 1.637237 1_555
O39 Si0 1.638486 1_555
O39 Si5 1.639186 1_565
