# generated using pymatgen
data_Cs3Li2Ga(MoO4)4
_symmetry_space_group_name_H-M   'P 1'
_cell_length_a   10.82439169
_cell_length_b   10.82439169
_cell_length_c   10.82439169
_cell_angle_alpha   109.35100317
_cell_angle_beta   109.35100317
_cell_angle_gamma   109.71192404
_symmetry_Int_Tables_number   1
_chemical_formula_structural   Cs3Li2Ga(MoO4)4
_chemical_formula_sum   'Cs6 Li4 Ga2 Mo8 O32'
_cell_volume   976.29902334
_cell_formula_units_Z   2
loop_
 _symmetry_equiv_pos_site_id
 _symmetry_equiv_pos_as_xyz
  1  'x, y, z'
loop_
 _atom_site_type_symbol
 _atom_site_label
 _atom_site_symmetry_multiplicity
 _atom_site_fract_x
 _atom_site_fract_y
 _atom_site_fract_z
 _atom_site_occupancy
  Cs  Cs0  1  0.12500000  0.51543800  0.89043800  1
  Cs  Cs1  1  0.62500000  0.23456200  0.10956200  1
  Cs  Cs2  1  0.48456200  0.37500000  0.60956200  1
  Cs  Cs3  1  0.76543800  0.87500000  0.39043800  1
  Cs  Cs4  1  0.25000000  0.75000000  0.50000000  1
  Cs  Cs5  1  0.00000000  0.00000000  0.00000000  1
  Li  Li0  1  0.62500000  0.75065500  0.62565500  1
  Li  Li1  1  0.24934500  0.87500000  0.87434500  1
  Li  Li2  1  0.12500000  0.99934500  0.37434500  1
  Li  Li3  1  0.00065500  0.37500000  0.12565500  1
  Ga  Ga0  1  0.75000000  0.25000000  0.50000000  1
  Ga  Ga1  1  0.50000000  0.50000000  0.00000000  1
  Mo  Mo0  1  0.68141900  0.12594200  0.74715700  1
  Mo  Mo1  1  0.06573800  0.31858100  0.44452300  1
  Mo  Mo2  1  0.87121500  0.62405800  0.05547700  1
  Mo  Mo3  1  0.37878500  0.93426200  0.25284300  1
  Mo  Mo4  1  0.87405800  0.62121500  0.55547700  1
  Mo  Mo5  1  0.56858100  0.81573800  0.94452300  1
  Mo  Mo6  1  0.18426200  0.12878500  0.75284300  1
  Mo  Mo7  1  0.37594200  0.43141900  0.24715700  1
  O  O0  1  0.42935200  0.86578000  0.87765500  1
  O  O1  1  0.24815700  0.05483200  0.86930100  1
  O  O2  1  0.32871200  0.33117400  0.82935900  1
  O  O3  1  0.74818500  0.41882600  0.49753800  1
  O  O4  1  0.01898500  0.12410200  0.74872800  1
  O  O5  1  0.37410200  0.76898500  0.24872800  1
  O  O6  1  0.23101500  0.47974300  0.60511800  1
  O  O7  1  0.50064700  0.67128800  0.00246200  1
  O  O8  1  0.30483200  0.99815700  0.36930100  1
  O  O9  1  0.26187500  0.88422000  0.06357200  1
  O  O10  1  0.94516800  0.81446900  0.19332500  1
  O  O11  1  0.82064800  0.19830300  0.93642800  1
  O  O12  1  0.87462600  0.62589800  0.39488200  1
  O  O13  1  0.80169700  0.73812500  0.62234500  1
  O  O14  1  0.74935300  0.25181500  0.67064100  1
  O  O15  1  0.87589800  0.62462600  0.89488200  1
  O  O16  1  0.13422000  0.01187500  0.56357200  1
  O  O17  1  0.62114400  0.75184300  0.80667500  1
  O  O18  1  0.37537400  0.27025700  0.25127200  1
  O  O19  1  0.44830300  0.57064800  0.43642800  1
  O  O20  1  0.62885600  0.93553100  0.63069900  1
  O  O21  1  0.58117400  0.07871200  0.32935900  1
  O  O22  1  0.11578000  0.17935200  0.37765500  1
  O  O23  1  0.06446900  0.69516800  0.69332500  1
  O  O24  1  0.52025700  0.12537400  0.75127200  1
  O  O25  1  0.66882600  0.49818500  0.99753800  1
  O  O26  1  0.98812500  0.55169700  0.12234500  1
  O  O27  1  0.00184300  0.37114400  0.30667500  1
  O  O28  1  0.92128800  0.25064700  0.50246200  1
  O  O29  1  0.50181500  0.49935300  0.17064100  1
  O  O30  1  0.18553100  0.37885600  0.13069900  1
  O  O31  1  0.72974300  0.98101500  0.10511800  1
loop_
_geom_bond_atom_site_label_1
_geom_bond_atom_site_label_2
_geom_bond_distance
_geom_bond_site_symmetry_2
Cs0 O26 3.294629 1_456
Cs0 O9 3.294629 1_556
Cs0 O15 3.296619 1_455
Cs0 O5 3.296621 1_556
Cs0 O30 3.383902 1_556
Cs0 O23 3.383902 1_555
Cs0 O14 3.405784 1_455
Cs0 O7 3.405784 1_556
Cs0 O2 3.512366 1_555
Cs0 O28 3.512366 1_455
Cs0 O6 3.586289 1_555
Cs0 O4 3.586299 1_555
Cs1 O11 3.294629 1_554
Cs1 O0 3.294629 1_544
Cs1 O24 3.296621 1_554
Cs1 O31 3.296623 1_545
Cs1 O1 3.383902 1_554
Cs1 O27 3.383902 1_655
Cs1 O21 3.405784 1_555
Cs1 O25 3.405784 1_554
Cs1 O29 3.512366 1_555
Cs1 O3 3.512366 1_555
Cs1 O12 3.586297 1_555
Cs1 O18 3.586299 1_555
Cs2 O22 3.294629 1_555
Cs2 O19 3.294629 1_555
Cs2 O18 3.296621 1_555
Cs2 O6 3.296623 1_555
Cs2 O8 3.383902 1_545
Cs2 O17 3.383902 1_555
Cs2 O2 3.405784 1_555
Cs2 O3 3.405784 1_555
Cs2 O25 3.512366 1_555
Cs2 O14 3.512366 1_555
Cs2 O15 3.586297 1_555
Cs2 O24 3.586299 1_555
Cs3 O16 3.294629 1_665
Cs3 O13 3.294629 1_555
Cs3 O12 3.296619 1_555
Cs3 O4 3.296621 1_665
Cs3 O20 3.383902 1_555
Cs3 O10 3.383902 1_555
Cs3 O29 3.405784 1_555
Cs3 O28 3.405784 1_565
Cs3 O21 3.512366 1_565
Cs3 O7 3.512366 1_555
Cs3 O31 3.586289 1_555
Cs3 O5 3.586299 1_555
Cs4 O23 3.401257 1_555
Cs4 O20 3.401257 1_555
Cs4 O8 3.401257 1_555
Cs4 O27 3.401257 1_555
Cs4 O26 3.428501 1_455
Cs4 O19 3.428501 1_555
Cs4 O0 3.428501 1_555
Cs4 O16 3.428501 1_565
Cs4 O12 3.442373 1_455
Cs4 O24 3.442375 1_565
Cs4 O5 3.442375 1_555
Cs4 O6 3.442382 1_555
Cs5 O10 3.401257 1_445
Cs5 O30 3.401257 1_555
Cs5 O17 3.401257 1_444
Cs5 O1 3.401257 1_554
Cs5 O13 3.428501 1_444
Cs5 O11 3.428501 1_454
Cs5 O22 3.428501 1_555
Cs5 O9 3.428501 1_545
Cs5 O15 3.442373 1_444
Cs5 O18 3.442375 1_555
Cs5 O4 3.442375 1_554
Cs5 O31 3.442382 1_445
Li0 O17 1.969554 1_555
Li0 O20 1.969554 1_555
Li0 O19 1.973588 1_555
Li0 O13 1.973588 1_555
Li1 O1 1.969554 1_565
Li1 O23 1.969554 1_555
Li1 O9 1.973588 1_556
Li1 O0 1.973588 1_555
Li2 O8 1.969554 1_555
Li2 O10 1.969554 1_455
Li2 O22 1.973588 1_565
Li2 O16 1.973588 1_565
Li3 O30 1.969554 1_555
Li3 O27 1.969554 1_555
Li3 O11 1.973588 1_454
Li3 O26 1.973588 1_455
Ga0 O21 1.843034 1_555
Ga0 O3 1.843034 1_555
Ga0 O28 1.843034 1_555
Ga0 O14 1.843034 1_555
Ga1 O29 1.843034 1_555
Ga1 O25 1.843034 1_554
Ga1 O2 1.843034 1_554
Ga1 O7 1.843034 1_555
Mo0 O24 1.757747 1_555
Mo0 O20 1.781193 1_545
Mo0 O11 1.782184 1_555
Mo0 O14 1.886455 1_555
Mo1 O6 1.757751 1_555
Mo1 O27 1.781193 1_555
Mo1 O22 1.782184 1_555
Mo1 O28 1.886455 1_455
Mo2 O15 1.757758 1_554
Mo2 O10 1.781193 1_555
Mo2 O26 1.782184 1_555
Mo2 O25 1.886455 1_554
Mo3 O5 1.757747 1_555
Mo3 O8 1.781193 1_555
Mo3 O9 1.782184 1_555
Mo3 O21 1.886455 1_565
Mo4 O12 1.757758 1_555
Mo4 O23 1.781193 1_655
Mo4 O13 1.782184 1_555
Mo4 O3 1.886455 1_555
Mo5 O31 1.757751 1_556
Mo5 O17 1.781193 1_555
Mo5 O0 1.782184 1_555
Mo5 O7 1.886455 1_556
Mo6 O4 1.757747 1_555
Mo6 O1 1.781193 1_555
Mo6 O16 1.782184 1_555
Mo6 O2 1.886455 1_555
Mo7 O18 1.757747 1_555
Mo7 O30 1.781193 1_555
Mo7 O19 1.782184 1_555
Mo7 O29 1.886455 1_555
