# generated using pymatgen
data_Cu5Si2S7
_symmetry_space_group_name_H-M   'P 1'
_cell_length_a   8.70391409
_cell_length_b   8.70391409
_cell_length_c   9.54600395
_cell_angle_alpha   87.93744529
_cell_angle_beta   87.93744529
_cell_angle_gamma   42.44134832
_symmetry_Int_Tables_number   1
_chemical_formula_structural   Cu5Si2S7
_chemical_formula_sum   'Cu10 Si4 S14'
_cell_volume   487.66833615
_cell_formula_units_Z   2
loop_
 _symmetry_equiv_pos_site_id
 _symmetry_equiv_pos_as_xyz
  1  'x, y, z'
loop_
 _atom_site_type_symbol
 _atom_site_label
 _atom_site_symmetry_multiplicity
 _atom_site_fract_x
 _atom_site_fract_y
 _atom_site_fract_z
 _atom_site_occupancy
  Cu  Cu0  1  0.78541437  0.45586432  0.29938294  1
  Cu  Cu1  1  0.45586432  0.78541437  0.79938294  1
  Cu  Cu2  1  0.48209384  0.18984381  0.72723285  1
  Cu  Cu3  1  0.18984381  0.48209384  0.22723285  1
  Cu  Cu4  1  0.07890486  0.73431903  0.87495265  1
  Cu  Cu5  1  0.73431903  0.07890486  0.37495265  1
  Cu  Cu6  1  0.22836750  0.87423910  0.16328160  1
  Cu  Cu7  1  0.87423910  0.22836750  0.66328160  1
  Cu  Cu8  1  0.94126499  0.59326837  0.58021141  1
  Cu  Cu9  1  0.59326837  0.94126499  0.08021141  1
  Si  Si0  1  0.36741218  0.02494719  0.43463997  1
  Si  Si1  1  0.02494719  0.36741218  0.93463997  1
  Si  Si2  1  0.64516270  0.31525112  0.00253287  1
  Si  Si3  1  0.31525112  0.64516270  0.50253287  1
  S  S0  1  0.97009538  0.62273601  0.02934691  1
  S  S1  1  0.62273601  0.97009538  0.52934691  1
  S  S2  1  0.56431595  0.20391378  0.16108051  1
  S  S3  1  0.20391378  0.56431595  0.66108051  1
  S  S4  1  0.83411248  0.49528871  0.74883661  1
  S  S5  1  0.49528871  0.83411248  0.24883661  1
  S  S6  1  0.67124205  0.36117433  0.46223340  1
  S  S7  1  0.36117433  0.67124205  0.96223340  1
  S  S8  1  0.25705813  0.91916153  0.58988322  1
  S  S9  1  0.91916153  0.25705813  0.08988322  1
  S  S10  1  0.11288615  0.77560571  0.32065401  1
  S  S11  1  0.77560571  0.11288615  0.82065401  1
  S  S12  1  0.37684958  0.07880483  0.88623205  1
  S  S13  1  0.07880483  0.37684958  0.38623205  1
loop_
_geom_bond_atom_site_label_1
_geom_bond_atom_site_label_2
_geom_bond_distance
_geom_bond_site_symmetry_2
Cu0 S6 2.255855 1_555
Cu0 S5 2.269662 1_555
Cu0 S13 2.280501 1_655
Cu0 S9 2.336105 1_555
Cu1 S7 2.255855 1_555
Cu1 S4 2.269662 1_555
Cu1 S12 2.280501 1_565
Cu1 S8 2.336105 1_555
Cu2 S12 2.275510 1_555
Cu2 S3 2.280112 1_555
Cu2 S1 2.315842 1_545
Cu2 S11 2.316424 1_555
Cu3 S13 2.275510 1_555
Cu3 S2 2.280112 1_555
Cu3 S0 2.315842 1_455
Cu3 S10 2.316424 1_555
Cu4 S7 2.270533 1_555
Cu4 S0 2.272988 1_456
Cu4 S3 2.285366 1_555
Cu4 S11 2.287350 1_465
Cu5 S6 2.270533 1_555
Cu5 S1 2.272988 1_545
Cu5 S2 2.285366 1_555
Cu5 S10 2.287350 1_645
Cu6 S10 2.253050 1_555
Cu6 S5 2.259419 1_555
Cu6 S7 2.282834 1_554
Cu6 S9 2.359801 1_465
Cu7 S11 2.253050 1_555
Cu7 S4 2.259419 1_555
Cu7 S6 2.282834 1_555
Cu7 S8 2.359801 1_645
Cu8 S3 2.268995 1_655
Cu8 S4 2.270521 1_555
Cu8 S13 2.274542 1_655
Cu8 S1 2.289312 1_555
Cu9 S2 2.268995 1_565
Cu9 S5 2.270521 1_555
Cu9 S12 2.274542 1_564
Cu9 S0 2.289312 1_555
S0 Si1 2.128748 1_654
S1 Si0 2.128748 1_565
S2 Si2 2.132879 1_555
S3 Si3 2.132879 1_555
S4 Si1 2.117793 1_655
S5 Si0 2.117793 1_565
S6 Si3 2.130062 1_555
S7 Si2 2.130062 1_556
S8 Si3 2.229193 1_555
S8 Si0 2.251926 1_565
S9 Si2 2.229193 1_555
S9 Si1 2.251926 1_654
S10 Si3 2.128985 1_555
S11 Si2 2.128985 1_556
S12 Si1 2.128596 1_555
S13 Si0 2.128596 1_555
