# generated using pymatgen
data_OsF5
_symmetry_space_group_name_H-M   'P 1'
_cell_length_a   5.41760323
_cell_length_b   9.87896508
_cell_length_c   12.37680406
_cell_angle_alpha   90.00000000
_cell_angle_beta   99.22762570
_cell_angle_gamma   90.00000000
_symmetry_Int_Tables_number   1
_chemical_formula_structural   OsF5
_chemical_formula_sum   'Os8 F40'
_cell_volume   653.83821719
_cell_formula_units_Z   8
loop_
 _symmetry_equiv_pos_site_id
 _symmetry_equiv_pos_as_xyz
  1  'x, y, z'
loop_
 _atom_site_type_symbol
 _atom_site_label
 _atom_site_symmetry_multiplicity
 _atom_site_fract_x
 _atom_site_fract_y
 _atom_site_fract_z
 _atom_site_occupancy
  Os  Os0  1  0.99580740  0.25706275  0.00185282  1
  Os  Os1  1  0.00418885  0.75708626  0.49814538  1
  Os  Os2  1  0.00418885  0.74291374  0.99814538  1
  Os  Os3  1  0.99580740  0.24293725  0.50185282  1
  Os  Os4  1  0.30992731  0.00262658  0.20325412  1
  Os  Os5  1  0.69008124  0.50263811  0.29674935  1
  Os  Os6  1  0.69008124  0.99736189  0.79674935  1
  Os  Os7  1  0.30992731  0.49737342  0.70325412  1
  F  F0  1  0.20257923  0.09039198  0.05420539  1
  F  F1  1  0.79743923  0.59041113  0.44579422  1
  F  F2  1  0.79743923  0.90958887  0.94579422  1
  F  F3  1  0.20257923  0.40960802  0.55420539  1
  F  F4  1  0.09459616  0.33370470  0.13785966  1
  F  F5  1  0.90537357  0.83372856  0.36213694  1
  F  F6  1  0.90537357  0.66627144  0.86213694  1
  F  F7  1  0.09459616  0.16629530  0.63785966  1
  F  F8  1  0.39277124  0.91348448  0.33472446  1
  F  F9  1  0.60720775  0.41348347  0.16527885  1
  F  F10  1  0.60720775  0.08651653  0.66527885  1
  F  F11  1  0.39277124  0.58651552  0.83472446  1
  F  F12  1  0.49282563  0.15519563  0.24854726  1
  F  F13  1  0.50717828  0.65520886  0.25144877  1
  F  F14  1  0.50717828  0.84479114  0.75144877  1
  F  F15  1  0.49282563  0.34480437  0.74854726  1
  F  F16  1  0.80361598  0.40294700  0.94755386  1
  F  F17  1  0.19636449  0.90297601  0.55243984  1
  F  F18  1  0.19636449  0.59702399  0.05243984  1
  F  F19  1  0.80361598  0.09705300  0.44755386  1
  F  F20  1  0.90447856  0.15917909  0.85615843  1
  F  F21  1  0.09554673  0.65920100  0.64384483  1
  F  F22  1  0.09554673  0.84079900  0.14384483  1
  F  F23  1  0.90447856  0.34082091  0.35615843  1
  F  F24  1  0.72257593  0.16869821  0.04663160  1
  F  F25  1  0.27741981  0.66872986  0.45336311  1
  F  F26  1  0.27741981  0.83127014  0.95336311  1
  F  F27  1  0.72257593  0.33130179  0.54663160  1
  F  F28  1  0.57654892  0.92303316  0.14727896  1
  F  F29  1  0.42347020  0.42305587  0.35274697  1
  F  F30  1  0.42347020  0.07694413  0.85274697  1
  F  F31  1  0.57654892  0.57696684  0.64727896  1
  F  F32  1  0.01997232  0.07713867  0.24411226  1
  F  F33  1  0.98002461  0.57715469  0.25587965  1
  F  F34  1  0.98002461  0.92284531  0.75587965  1
  F  F35  1  0.01997232  0.42286133  0.74411226  1
  F  F36  1  0.27686295  0.32571175  0.95021433  1
  F  F37  1  0.72313960  0.82571693  0.54978294  1
  F  F38  1  0.72313960  0.67428307  0.04978294  1
  F  F39  1  0.27686295  0.17428825  0.45021433  1
loop_
_geom_bond_atom_site_label_1
_geom_bond_atom_site_label_2
_geom_bond_distance
_geom_bond_site_symmetry_2
F0 Os4 2.036904 1_555
F0 Os0 2.037891 1_455
F1 Os5 2.036903 1_555
F1 Os1 2.037862 1_655
F2 Os6 2.036903 1_555
F2 Os2 2.037862 1_655
F3 Os7 2.036904 1_555
F3 Os3 2.037891 1_455
F4 Os0 1.845093 1_455
F5 Os1 1.845132 1_655
F6 Os2 1.845132 1_655
F7 Os3 1.845093 1_455
F8 Os4 1.841318 1_565
F9 Os5 1.841395 1_555
F10 Os6 1.841395 1_545
F11 Os7 1.841318 1_555
F12 Os4 1.841102 1_555
F13 Os5 1.841149 1_555
F14 Os6 1.841149 1_555
F15 Os7 1.841102 1_555
F16 Os0 1.840754 1_556
F17 Os1 1.840738 1_555
F18 Os2 1.840738 1_554
F19 Os3 1.840754 1_555
F20 Os0 2.036020 1_556
F20 Os6 2.042390 1_545
F21 Os1 2.036096 1_555
F21 Os7 2.042424 1_555
F22 Os2 2.036096 1_554
F22 Os4 2.042424 1_565
F23 Os3 2.036020 1_555
F23 Os5 2.042390 1_555
F24 Os0 1.877093 1_555
F25 Os1 1.877072 1_555
F26 Os2 1.877072 1_555
F27 Os3 1.877093 1_555
F28 Os4 1.872327 1_565
F29 Os5 1.872370 1_555
F30 Os6 1.872370 1_545
F31 Os7 1.872327 1_555
F32 Os4 1.876151 1_555
F33 Os5 1.876171 1_555
F34 Os6 1.876171 1_555
F35 Os7 1.876151 1_555
F36 Os0 1.870551 1_456
F37 Os1 1.870451 1_655
F38 Os2 1.870451 1_654
F39 Os3 1.870551 1_455
