# generated using pymatgen
data_LaNbO4
_symmetry_space_group_name_H-M   'P 1'
_cell_length_a   5.23848982
_cell_length_b   5.57906655
_cell_length_c   6.85328616
_cell_angle_alpha   112.35081403
_cell_angle_beta   110.72162921
_cell_angle_gamma   94.01659560
_symmetry_Int_Tables_number   1
_chemical_formula_structural   LaNbO4
_chemical_formula_sum   'La2 Nb2 O8'
_cell_volume   168.34647595
_cell_formula_units_Z   2
loop_
 _symmetry_equiv_pos_site_id
 _symmetry_equiv_pos_as_xyz
  1  'x, y, z'
loop_
 _atom_site_type_symbol
 _atom_site_label
 _atom_site_symmetry_multiplicity
 _atom_site_fract_x
 _atom_site_fract_y
 _atom_site_fract_z
 _atom_site_occupancy
  La  La0  1  0.87949401  0.62943350  0.25886375  1
  La  La1  1  0.12050599  0.37056650  0.74113625  1
  Nb  Nb0  1  0.35439888  0.10437695  0.20905981  1
  Nb  Nb1  1  0.64560112  0.89562305  0.79094019  1
  O  O0  1  0.08348660  0.27093160  0.06457886  1
  O  O1  1  0.48121929  0.79363943  0.06484243  1
  O  O2  1  0.91651340  0.72906840  0.93542114  1
  O  O3  1  0.51878071  0.20636057  0.93515757  1
  O  O4  1  0.69600871  0.35669234  0.41162200  1
  O  O5  1  0.21539560  0.05503125  0.41169667  1
  O  O6  1  0.30399129  0.64330766  0.58837800  1
  O  O7  1  0.78460440  0.94496875  0.58830333  1
loop_
_geom_bond_atom_site_label_1
_geom_bond_atom_site_label_2
_geom_bond_distance
_geom_bond_site_symmetry_2
La0 O5 2.459720 1_665
La0 O4 2.460491 1_555
La0 O1 2.488225 1_555
La0 O0 2.489194 1_655
La0 O7 2.517423 1_555
La0 O6 2.517924 1_655
La0 O2 2.546828 1_554
La0 O3 2.547460 1_554
La1 O7 2.459720 1_445
La1 O6 2.460491 1_555
La1 O3 2.488225 1_555
La1 O2 2.489194 1_455
La1 O5 2.517423 1_555
La1 O4 2.517924 1_455
La1 O0 2.546828 1_556
La1 O1 2.547460 1_556
Nb0 O5 1.874267 1_555
Nb0 O4 1.874557 1_555
Nb0 O1 1.935590 1_545
Nb0 O0 1.935984 1_555
Nb0 O2 2.541548 1_444
Nb0 O3 2.544876 1_554
Nb1 O7 1.874267 1_555
Nb1 O6 1.874557 1_555
Nb1 O3 1.935590 1_565
Nb1 O2 1.935984 1_555
Nb1 O0 2.541548 1_666
Nb1 O1 2.544876 1_556
