# generated using pymatgen
data_KEr(WO4)2
_symmetry_space_group_name_H-M   'P 1'
_cell_length_a   7.60231025
_cell_length_b   7.60231025
_cell_length_c   7.45118120
_cell_angle_alpha   62.09072484
_cell_angle_beta   62.09072484
_cell_angle_gamma   87.90527313
_symmetry_Int_Tables_number   1
_chemical_formula_structural   KEr(WO4)2
_chemical_formula_sum   'K2 Er2 W4 O16'
_cell_volume   326.97491075
_cell_formula_units_Z   2
loop_
 _symmetry_equiv_pos_site_id
 _symmetry_equiv_pos_as_xyz
  1  'x, y, z'
loop_
 _atom_site_type_symbol
 _atom_site_label
 _atom_site_symmetry_multiplicity
 _atom_site_fract_x
 _atom_site_fract_y
 _atom_site_fract_z
 _atom_site_occupancy
  K  K0  1  0.20774300  0.79225700  0.75000000  1
  K  K1  1  0.79225700  0.20774300  0.25000000  1
  Er  Er0  1  0.22426300  0.77573700  0.25000000  1
  Er  Er1  1  0.77573700  0.22426300  0.75000000  1
  W  W0  1  0.69262100  0.70112500  0.28271600  1
  W  W1  1  0.70112500  0.69262100  0.78271600  1
  W  W2  1  0.30737900  0.29887500  0.71728400  1
  W  W3  1  0.29887500  0.30737900  0.21728400  1
  O  O0  1  0.24371400  0.37742400  0.94422400  1
  O  O1  1  0.36457600  0.05523900  0.88055500  1
  O  O2  1  0.03859900  0.22477200  0.81094800  1
  O  O3  1  0.22477200  0.03859900  0.31094800  1
  O  O4  1  0.63542400  0.94476100  0.11944500  1
  O  O5  1  0.59421400  0.37144900  0.96406200  1
  O  O6  1  0.75628600  0.62257600  0.05577600  1
  O  O7  1  0.62257600  0.75628600  0.55577600  1
  O  O8  1  0.37742400  0.24371400  0.44422400  1
  O  O9  1  0.62855100  0.40578600  0.53593800  1
  O  O10  1  0.77522800  0.96140100  0.68905200  1
  O  O11  1  0.05523900  0.36457500  0.38055500  1
  O  O12  1  0.96140100  0.77522800  0.18905200  1
  O  O13  1  0.40578600  0.62855100  0.03593800  1
  O  O14  1  0.94476100  0.63542500  0.61944500  1
  O  O15  1  0.37144900  0.59421400  0.46406200  1
loop_
_geom_bond_atom_site_label_1
_geom_bond_atom_site_label_2
_geom_bond_distance
_geom_bond_site_symmetry_2
K0 O12 2.848197 1_456
K0 O3 2.848197 1_565
K0 O0 2.854781 1_555
K0 O7 2.854781 1_555
K0 O15 2.956129 1_555
K0 O13 2.956129 1_556
K0 O6 2.981006 1_456
K0 O8 2.981006 1_565
K0 O14 3.073380 1_455
K0 O1 3.073384 1_565
K1 O2 2.848197 1_654
K1 O10 2.848197 1_545
K1 O6 2.854781 1_555
K1 O8 2.854781 1_555
K1 O5 2.956129 1_554
K1 O9 2.956129 1_555
K1 O0 2.981006 1_654
K1 O7 2.981006 1_545
K1 O11 3.073380 1_655
K1 O4 3.073384 1_545
Er0 O3 2.247549 1_565
Er0 O12 2.247549 1_455
Er0 O1 2.274152 1_564
Er0 O14 2.274152 1_455
Er0 O15 2.279880 1_555
Er0 O13 2.279880 1_555
Er1 O10 2.247549 1_545
Er1 O2 2.247549 1_655
Er1 O4 2.274152 1_546
Er1 O11 2.274152 1_655
Er1 O5 2.279880 1_555
Er1 O9 2.279880 1_555
O0 W2 1.899533 1_555
O0 W3 2.089796 1_556
O1 W2 1.851120 1_555
O2 W2 1.833248 1_555
O3 W3 1.833248 1_555
O4 W0 1.851120 1_555
O5 W3 2.022922 1_556
O5 W1 2.115766 1_555
O6 W0 1.899533 1_555
O6 W1 2.089796 1_554
O7 W1 1.899533 1_555
O7 W0 2.089796 1_555
O8 W3 1.899533 1_555
O8 W2 2.089796 1_555
O9 W0 2.022922 1_555
O9 W2 2.115766 1_555
O10 W1 1.833248 1_555
O11 W3 1.851116 1_555
O12 W0 1.833248 1_555
O13 W1 2.022922 1_554
O13 W3 2.115766 1_555
O14 W1 1.851116 1_555
O15 W2 2.022922 1_555
O15 W0 2.115766 1_555
