# generated using pymatgen
data_Na2YbC2O6F
_symmetry_space_group_name_H-M   'P 1'
_cell_length_a   9.33085511
_cell_length_b   9.33085511
_cell_length_c   11.50340479
_cell_angle_alpha   85.67852116
_cell_angle_beta   85.67852116
_cell_angle_gamma   38.60839414
_symmetry_Int_Tables_number   1
_chemical_formula_structural   Na2YbC2O6F
_chemical_formula_sum   'Na8 Yb4 C8 O24 F4'
_cell_volume   622.96134109
_cell_formula_units_Z   4
loop_
 _symmetry_equiv_pos_site_id
 _symmetry_equiv_pos_as_xyz
  1  'x, y, z'
loop_
 _atom_site_type_symbol
 _atom_site_label
 _atom_site_symmetry_multiplicity
 _atom_site_fract_x
 _atom_site_fract_y
 _atom_site_fract_z
 _atom_site_occupancy
  Na  Na0  1  0.83391400  0.64802100  0.85932200  1
  Na  Na1  1  0.35197900  0.16608600  0.64067800  1
  Na  Na2  1  0.16608600  0.35197900  0.14067800  1
  Na  Na3  1  0.47820600  0.30494400  0.88246200  1
  Na  Na4  1  0.52179400  0.69505600  0.11753800  1
  Na  Na5  1  0.69505600  0.52179400  0.61753800  1
  Na  Na6  1  0.64802100  0.83391400  0.35932200  1
  Na  Na7  1  0.30494400  0.47820600  0.38246200  1
  Yb  Yb0  1  0.78307600  0.11091600  0.13233700  1
  Yb  Yb1  1  0.21692400  0.88908400  0.86766300  1
  Yb  Yb2  1  0.11091600  0.78307600  0.63233700  1
  Yb  Yb3  1  0.88908400  0.21692400  0.36766300  1
  C  C0  1  0.87791900  0.70334800  0.58193800  1
  C  C1  1  0.36354800  0.77031800  0.38393700  1
  C  C2  1  0.77031800  0.36354800  0.88393700  1
  C  C3  1  0.63645200  0.22968200  0.61606300  1
  C  C4  1  0.70334800  0.87791900  0.08193800  1
  C  C5  1  0.12208100  0.29665200  0.41806200  1
  C  C6  1  0.29665200  0.12208100  0.91806200  1
  C  C7  1  0.22968200  0.63645200  0.11606300  1
  O  O0  1  0.22094100  0.30999400  0.92421300  1
  O  O1  1  0.74670300  0.94127700  0.99889200  1
  O  O2  1  0.25329700  0.05872300  0.00110800  1
  O  O3  1  0.41520500  0.99554800  0.82757300  1
  O  O4  1  0.05872300  0.25329700  0.50110800  1
  O  O5  1  0.99554800  0.41520500  0.32757300  1
  O  O6  1  0.60294400  0.57368700  0.91652200  1
  O  O7  1  0.94127700  0.74670300  0.49889200  1
  O  O8  1  0.58479500  0.00445200  0.17242700  1
  O  O9  1  0.42631300  0.39705600  0.58347800  1
  O  O10  1  0.30999400  0.22094100  0.42421300  1
  O  O11  1  0.00445200  0.58479500  0.67242700  1
  O  O12  1  0.69748900  0.09069300  0.69937300  1
  O  O13  1  0.77905900  0.69000600  0.07578700  1
  O  O14  1  0.21017900  0.80364900  0.43342300  1
  O  O15  1  0.69000600  0.77905900  0.57578700  1
  O  O16  1  0.30251100  0.90930700  0.30062700  1
  O  O17  1  0.09069300  0.69748900  0.19937300  1
  O  O18  1  0.19635100  0.78982100  0.06657700  1
  O  O19  1  0.57368700  0.60294400  0.41652200  1
  O  O20  1  0.80364900  0.21017900  0.93342300  1
  O  O21  1  0.39705600  0.42631300  0.08347800  1
  O  O22  1  0.90930700  0.30251100  0.80062700  1
  O  O23  1  0.78982100  0.19635100  0.56657700  1
  F  F0  1  0.68096600  0.19609500  0.31896200  1
  F  F1  1  0.80390500  0.31903400  0.18103800  1
  F  F2  1  0.31903400  0.80390500  0.68103800  1
  F  F3  1  0.19609500  0.68096600  0.81896200  1
loop_
_geom_bond_atom_site_label_1
_geom_bond_atom_site_label_2
_geom_bond_distance
_geom_bond_site_symmetry_2
Na0 O11 2.389721 1_655
Na0 O0 2.407670 1_655
Na0 O3 2.479770 1_555
Na0 O13 2.501506 1_556
Na0 O6 2.759055 1_555
Na0 O1 2.777156 1_555
Na0 O22 2.838362 1_555
Na1 O3 2.389721 1_545
Na1 O15 2.407670 1_545
Na1 O11 2.479770 1_555
Na1 O10 2.501506 1_555
Na1 O9 2.759055 1_555
Na1 O4 2.777156 1_555
Na1 O12 2.838362 1_555
Na2 O5 2.389721 1_455
Na2 O13 2.407670 1_455
Na2 O8 2.479770 1_555
Na2 O0 2.501506 1_554
Na2 O21 2.759055 1_555
Na2 O2 2.777156 1_555
Na2 O17 2.838362 1_555
Na3 O0 2.376590 1_555
Na3 O21 2.448165 1_556
Na3 O1 2.473752 1_545
Na3 O12 2.492240 1_555
Na3 O20 2.518041 1_555
Na4 O13 2.376590 1_555
Na4 O6 2.448165 1_554
Na4 O2 2.473752 1_565
Na4 O16 2.492240 1_555
Na4 O18 2.518041 1_555
Na5 O15 2.376590 1_555
Na5 O19 2.448165 1_555
Na5 O4 2.473752 1_655
Na5 O22 2.492240 1_555
Na5 O23 2.518041 1_555
Na6 O8 2.389721 1_565
Na6 O10 2.407670 1_565
Na6 O5 2.479770 1_555
Na6 O15 2.501506 1_555
Na6 O19 2.759055 1_555
Na6 O7 2.777156 1_555
Na6 O16 2.838362 1_555
Na7 O10 2.376590 1_555
Na7 O9 2.448165 1_555
Na7 O7 2.473752 1_455
Na7 O17 2.492240 1_555
Na7 O14 2.518041 1_555
C0 O15 1.285976 1_555
C0 O7 1.286929 1_555
C0 O11 1.292939 1_655
C1 O19 1.288760 1_555
C1 O16 1.290469 1_555
C1 O14 1.295010 1_555
C2 O6 1.288760 1_555
C2 O22 1.290469 1_555
C2 O20 1.295010 1_555
C3 O9 1.288760 1_555
C3 O12 1.290469 1_555
C3 O23 1.295010 1_555
C4 O13 1.285976 1_555
C4 O1 1.286929 1_554
C4 O8 1.292939 1_565
C5 O10 1.285976 1_555
C5 O4 1.286929 1_555
C5 O5 1.292939 1_455
C6 O0 1.285976 1_555
C6 O2 1.286929 1_556
C6 O3 1.292939 1_545
C7 O21 1.288760 1_555
C7 O17 1.290469 1_555
C7 O18 1.295010 1_555
O1 Yb0 2.502284 1_566
O2 Yb1 2.502284 1_544
O3 Yb1 2.701350 1_555
O4 Yb3 2.502284 1_455
O5 Yb3 2.701350 1_555
O6 Yb1 2.332318 1_555
O7 Yb2 2.502284 1_655
O8 Yb0 2.701350 1_555
O9 Yb2 2.332318 1_555
O11 Yb2 2.701350 1_555
O12 Yb2 2.508984 1_645
O14 Yb2 2.454139 1_555
O14 Yb3 2.502904 1_465
O16 Yb3 2.508984 1_465
O17 Yb0 2.508984 1_465
O18 Yb1 2.454139 1_554
O18 Yb0 2.502904 1_465
O19 Yb3 2.332318 1_555
O20 Yb0 2.454139 1_556
O20 Yb1 2.502904 1_645
O21 Yb0 2.332318 1_555
O22 Yb1 2.508984 1_645
O23 Yb3 2.454139 1_555
O23 Yb2 2.502904 1_645
F0 Yb3 2.211987 1_555
F0 Yb0 2.216692 1_555
F0 Na7 2.289615 1_555
F1 Yb0 2.211987 1_555
F1 Yb3 2.216692 1_555
F1 Na4 2.289615 1_555
F2 Yb2 2.211987 1_555
F2 Yb1 2.216692 1_555
F2 Na5 2.289615 1_555
F3 Yb1 2.211987 1_555
F3 Yb2 2.216692 1_555
F3 Na3 2.289615 1_555
