# generated using pymatgen
data_Cs2TiV3(PO6)3
_symmetry_space_group_name_H-M   'P 1'
_cell_length_a   13.90710902
_cell_length_b   13.90710902
_cell_length_c   9.68810400
_cell_angle_alpha   90.00000000
_cell_angle_beta   90.00000000
_cell_angle_gamma   120.00000486
_symmetry_Int_Tables_number   1
_chemical_formula_structural   Cs2TiV3(PO6)3
_chemical_formula_sum   'Cs8 Ti4 V12 P12 O72'
_cell_volume   1622.71825208
_cell_formula_units_Z   4
loop_
 _symmetry_equiv_pos_site_id
 _symmetry_equiv_pos_as_xyz
  1  'x, y, z'
loop_
 _atom_site_type_symbol
 _atom_site_label
 _atom_site_symmetry_multiplicity
 _atom_site_fract_x
 _atom_site_fract_y
 _atom_site_fract_z
 _atom_site_occupancy
  Cs  Cs0  1  0.00000000  0.00000000  0.09056600  1
  Cs  Cs1  1  0.50000000  0.50000000  0.54947800  1
  Cs  Cs2  1  0.50000000  0.00000000  0.54947800  1
  Cs  Cs3  1  0.00000000  0.50000000  0.04947800  1
  Cs  Cs4  1  0.50000000  0.00000000  0.04947800  1
  Cs  Cs5  1  0.00000000  0.50000000  0.54947800  1
  Cs  Cs6  1  0.00000000  0.00000000  0.59056600  1
  Cs  Cs7  1  0.50000000  0.50000000  0.04947800  1
  Ti  Ti0  1  0.66666700  0.33333300  0.54310100  1
  Ti  Ti1  1  0.33333300  0.66666700  0.04310100  1
  Ti  Ti2  1  0.66666700  0.33333300  0.04310100  1
  Ti  Ti3  1  0.33333300  0.66666700  0.54310100  1
  V  V0  1  0.23447000  0.97396000  0.34037000  1
  V  V1  1  0.97396000  0.23447000  0.84037000  1
  V  V2  1  0.73949000  0.76553000  0.34037000  1
  V  V3  1  0.23447000  0.26051000  0.84037000  1
  V  V4  1  0.76553000  0.02604000  0.34037000  1
  V  V5  1  0.26051000  0.23447000  0.34037000  1
  V  V6  1  0.26051000  0.02604000  0.84037000  1
  V  V7  1  0.02604000  0.26051000  0.34037000  1
  V  V8  1  0.02604000  0.76553000  0.84037000  1
  V  V9  1  0.76553000  0.73949000  0.84037000  1
  V  V10  1  0.97396000  0.73949000  0.34037000  1
  V  V11  1  0.73949000  0.97396000  0.84037000  1
  P  P0  1  0.47403500  0.19917700  0.29327500  1
  P  P1  1  0.72514100  0.52596500  0.29327500  1
  P  P2  1  0.19917700  0.72514100  0.29327500  1
  P  P3  1  0.80082300  0.52596500  0.79327500  1
  P  P4  1  0.27485900  0.80082300  0.79327500  1
  P  P5  1  0.72514100  0.19917700  0.79327500  1
  P  P6  1  0.47403500  0.27485900  0.79327500  1
  P  P7  1  0.19917700  0.47403500  0.79327500  1
  P  P8  1  0.52596500  0.80082300  0.29327500  1
  P  P9  1  0.52596500  0.72514100  0.79327500  1
  P  P10  1  0.80082300  0.27485900  0.29327500  1
  P  P11  1  0.27485900  0.47403500  0.29327500  1
  O  O0  1  0.32172300  0.77458900  0.92444500  1
  O  O1  1  0.26184200  0.23720500  0.50784300  1
  O  O2  1  0.54713400  0.22541100  0.42444500  1
  O  O3  1  0.32128100  0.39287700  0.29277800  1
  O  O4  1  0.78501500  0.87557700  0.79498200  1
  O  O5  1  0.77458900  0.45286600  0.92444500  1
  O  O6  1  0.12442300  0.21498500  0.29498200  1
  O  O7  1  0.26184200  0.02463600  0.00784300  1
  O  O8  1  0.45286600  0.77458900  0.42444500  1
  O  O9  1  0.22541100  0.67827700  0.42444500  1
  O  O10  1  0.67827700  0.45286600  0.42444500  1
  O  O11  1  0.77458900  0.32172300  0.42444500  1
  O  O12  1  0.90943800  0.78501500  0.79498200  1
  O  O13  1  0.02463600  0.76279500  0.00784300  1
  O  O14  1  0.14647100  0.73306400  0.79197300  1
  O  O15  1  0.09056200  0.87557700  0.29498200  1
  O  O16  1  0.73815800  0.97536400  0.00784300  1
  O  O17  1  0.97536400  0.23720500  0.00784300  1
  O  O18  1  0.54750200  0.22538000  0.16303400  1
  O  O19  1  0.67827700  0.22541100  0.92444500  1
  O  O20  1  0.76279500  0.73815800  0.00784300  1
  O  O21  1  0.73306400  0.58659300  0.79197300  1
  O  O22  1  0.54750200  0.32212200  0.66303400  1
  O  O23  1  0.26693600  0.41340700  0.79197300  1
  O  O24  1  0.77462000  0.32212200  0.16303400  1
  O  O25  1  0.45249800  0.77462000  0.16303400  1
  O  O26  1  0.14647100  0.41340700  0.29197300  1
  O  O27  1  0.87557700  0.78501500  0.29498200  1
  O  O28  1  0.32172300  0.54713400  0.42444500  1
  O  O29  1  0.67787800  0.22538000  0.66303400  1
  O  O30  1  0.60712300  0.92840400  0.29277800  1
  O  O31  1  0.39287700  0.32128100  0.79277800  1
  O  O32  1  0.92840400  0.60712300  0.79277800  1
  O  O33  1  0.32212200  0.77462000  0.66303400  1
  O  O34  1  0.07159600  0.39287700  0.79277800  1
  O  O35  1  0.73815800  0.76279500  0.50784300  1
  O  O36  1  0.22541100  0.54713400  0.92444500  1
  O  O37  1  0.26693600  0.85352900  0.29197300  1
  O  O38  1  0.07159600  0.67871900  0.29277800  1
  O  O39  1  0.39287700  0.07159600  0.29277800  1
  O  O40  1  0.60712300  0.67871900  0.79277800  1
  O  O41  1  0.41340700  0.14647100  0.79197300  1
  O  O42  1  0.09056200  0.21498500  0.79498200  1
  O  O43  1  0.21498500  0.12442300  0.79498200  1
  O  O44  1  0.22538000  0.54750200  0.66303400  1
  O  O45  1  0.97536400  0.73815800  0.50784300  1
  O  O46  1  0.32128100  0.92840400  0.79277800  1
  O  O47  1  0.02463600  0.26184200  0.50784300  1
  O  O48  1  0.58659300  0.85352900  0.79197300  1
  O  O49  1  0.67871900  0.60712300  0.29277800  1
  O  O50  1  0.73306400  0.14647100  0.29197300  1
  O  O51  1  0.67871900  0.07159600  0.79277800  1
  O  O52  1  0.67787800  0.45249800  0.16303400  1
  O  O53  1  0.78501500  0.90943800  0.29498200  1
  O  O54  1  0.23720500  0.26184200  0.00784300  1
  O  O55  1  0.85352900  0.26693600  0.79197300  1
  O  O56  1  0.32212200  0.54750200  0.16303400  1
  O  O57  1  0.54713400  0.32172300  0.92444500  1
  O  O58  1  0.90943800  0.12442300  0.29498200  1
  O  O59  1  0.76279500  0.02463600  0.50784300  1
  O  O60  1  0.45286600  0.67827700  0.92444500  1
  O  O61  1  0.41340700  0.26693600  0.29197300  1
  O  O62  1  0.12442300  0.90943800  0.79498200  1
  O  O63  1  0.85352900  0.58659300  0.29197300  1
  O  O64  1  0.92840400  0.32128100  0.29277800  1
  O  O65  1  0.23720500  0.97536400  0.50784300  1
  O  O66  1  0.22538000  0.67787800  0.16303400  1
  O  O67  1  0.45249800  0.67787800  0.66303400  1
  O  O68  1  0.77462000  0.45249800  0.66303400  1
  O  O69  1  0.58659300  0.73306400  0.29197300  1
  O  O70  1  0.21498500  0.09056200  0.29498200  1
  O  O71  1  0.87557700  0.09056200  0.79498200  1
loop_
_geom_bond_atom_site_label_1
_geom_bond_atom_site_label_2
_geom_bond_distance
_geom_bond_site_symmetry_2
Cs0 O27 3.268287 1_445
Cs0 O6 3.268287 1_555
Cs0 O53 3.268287 1_445
Cs0 O70 3.268287 1_555
Cs0 O15 3.268288 1_545
Cs0 O58 3.268288 1_455
Cs0 O17 3.573825 1_455
Cs0 O13 3.573825 1_545
Cs0 O20 3.573832 1_445
Cs0 O54 3.573832 1_555
Cs0 O7 3.573838 1_555
Cs0 O16 3.573838 1_445
Cs1 O67 3.066018 1_555
Cs1 O22 3.066018 1_555
Cs1 O28 3.109535 1_555
Cs1 O10 3.109535 1_555
Cs1 O40 3.201589 1_555
Cs1 O31 3.201589 1_555
Cs1 O49 3.298338 1_555
Cs1 O3 3.298338 1_555
Cs1 O35 3.519212 1_555
Cs1 O1 3.519212 1_555
Cs1 O23 3.684007 1_555
Cs1 O21 3.684007 1_555
Cs1 O61 3.778402 1_555
Cs1 O69 3.778402 1_555
Cs2 O29 3.066018 1_555
Cs2 O33 3.066018 1_545
Cs2 O2 3.109535 1_555
Cs2 O8 3.109535 1_545
Cs2 O51 3.201589 1_555
Cs2 O46 3.201589 1_545
Cs2 O30 3.298338 1_545
Cs2 O39 3.298338 1_555
Cs2 O59 3.519218 1_555
Cs2 O65 3.519218 1_545
Cs2 O41 3.684007 1_555
Cs2 O48 3.684007 1_545
Cs2 O37 3.778402 1_545
Cs2 O50 3.778402 1_555
Cs3 O24 3.066018 1_455
Cs3 O66 3.066018 1_555
Cs3 O36 3.109535 1_554
Cs3 O5 3.109535 1_454
Cs3 O38 3.201589 1_555
Cs3 O64 3.201589 1_455
Cs3 O32 3.298338 1_454
Cs3 O34 3.298338 1_554
Cs3 O17 3.519218 1_455
Cs3 O13 3.519218 1_555
Cs3 O26 3.684007 1_555
Cs3 O63 3.684007 1_455
Cs3 O55 3.778402 1_454
Cs3 O14 3.778402 1_554
Cs4 O18 3.066018 1_555
Cs4 O25 3.066018 1_545
Cs4 O0 3.109535 1_544
Cs4 O19 3.109535 1_554
Cs4 O30 3.201589 1_545
Cs4 O39 3.201589 1_555
Cs4 O51 3.298338 1_554
Cs4 O46 3.298338 1_544
Cs4 O7 3.519204 1_555
Cs4 O16 3.519204 1_545
Cs4 O37 3.684007 1_545
Cs4 O50 3.684007 1_555
Cs4 O41 3.778402 1_554
Cs4 O48 3.778402 1_544
Cs5 O44 3.066018 1_555
Cs5 O68 3.066018 1_455
Cs5 O11 3.109535 1_455
Cs5 O9 3.109535 1_555
Cs5 O32 3.201589 1_455
Cs5 O34 3.201589 1_555
Cs5 O38 3.298338 1_555
Cs5 O64 3.298338 1_455
Cs5 O47 3.519204 1_555
Cs5 O45 3.519204 1_455
Cs5 O14 3.684007 1_555
Cs5 O55 3.684007 1_455
Cs5 O26 3.778402 1_555
Cs5 O63 3.778402 1_455
Cs6 O4 3.268287 1_445
Cs6 O43 3.268287 1_555
Cs6 O12 3.268287 1_445
Cs6 O42 3.268287 1_555
Cs6 O71 3.268288 1_455
Cs6 O62 3.268288 1_545
Cs6 O59 3.573825 1_455
Cs6 O65 3.573825 1_545
Cs6 O1 3.573832 1_555
Cs6 O35 3.573832 1_445
Cs6 O47 3.573838 1_555
Cs6 O45 3.573838 1_445
Cs7 O52 3.066018 1_555
Cs7 O56 3.066018 1_555
Cs7 O57 3.109535 1_554
Cs7 O60 3.109535 1_554
Cs7 O49 3.201589 1_555
Cs7 O3 3.201589 1_555
Cs7 O40 3.298338 1_554
Cs7 O31 3.298338 1_554
Cs7 O54 3.519212 1_555
Cs7 O20 3.519212 1_555
Cs7 O69 3.684007 1_555
Cs7 O61 3.684007 1_555
Cs7 O23 3.778402 1_554
Cs7 O21 3.778402 1_554
O0 P4 1.552598 1_555
O0 Ti1 1.960236 1_556
O1 V5 1.622830 1_555
O2 P0 1.552606 1_555
O2 Ti0 1.960242 1_555
O3 P11 1.555438 1_555
O3 V5 1.979433 1_555
O4 V11 1.825509 1_555
O4 V9 1.826413 1_555
O5 P3 1.552606 1_555
O5 Ti2 1.960242 1_556
O6 V7 1.825509 1_555
O6 V5 1.826413 1_555
O7 V6 1.622831 1_554
O8 P8 1.552606 1_555
O8 Ti3 1.960242 1_555
O9 P2 1.552598 1_555
O9 Ti3 1.960236 1_555
O10 P1 1.552604 1_555
O10 Ti0 1.960247 1_555
O11 P10 1.552598 1_555
O11 Ti0 1.960236 1_555
O12 V9 1.825509 1_555
O12 V8 1.826413 1_655
O13 V8 1.622830 1_554
O14 P4 1.547139 1_555
O14 V8 1.996252 1_555
O15 V0 1.825509 1_555
O15 V10 1.826413 1_455
O16 V11 1.622831 1_554
O17 V1 1.622830 1_554
O18 P0 1.548057 1_555
O18 Ti2 1.965303 1_555
O19 P5 1.552598 1_555
O19 Ti2 1.960236 1_556
O20 V9 1.622830 1_554
O21 P3 1.547128 1_555
O21 V9 1.996252 1_555
O22 P6 1.548056 1_555
O22 Ti0 1.965308 1_555
O23 P7 1.547128 1_555
O23 V3 1.996252 1_555
O24 P10 1.548050 1_555
O24 Ti2 1.965297 1_555
O25 P8 1.548057 1_555
O25 Ti1 1.965303 1_555
O26 P11 1.547140 1_555
O26 V7 1.996252 1_555
O27 V10 1.825509 1_555
O27 V2 1.826413 1_555
O28 P11 1.552604 1_555
O28 Ti3 1.960247 1_555
O29 P5 1.548050 1_555
O29 Ti0 1.965297 1_555
O30 P8 1.555449 1_555
O30 V4 1.979433 1_565
O31 P6 1.555438 1_555
O31 V3 1.979433 1_555
O32 P3 1.555449 1_555
O32 V8 1.979433 1_655
O33 P4 1.548050 1_555
O33 Ti3 1.965297 1_555
O34 P7 1.555449 1_555
O34 V1 1.979433 1_455
O35 V2 1.622830 1_555
O36 P7 1.552606 1_555
O36 Ti1 1.960242 1_556
O37 P2 1.547139 1_555
O37 V0 1.996252 1_555
O38 P2 1.555451 1_555
O38 V10 1.979433 1_455
O39 P0 1.555449 1_555
O39 V0 1.979433 1_545
O40 P9 1.555438 1_555
O40 V9 1.979433 1_555
O41 P6 1.547140 1_555
O41 V6 1.996252 1_555
O42 V3 1.825509 1_555
O42 V1 1.826413 1_455
O43 V6 1.825509 1_555
O43 V3 1.826413 1_555
O44 P7 1.548057 1_555
O44 Ti3 1.965303 1_555
O45 V10 1.622831 1_555
O46 P4 1.555451 1_555
O46 V6 1.979433 1_565
O47 V7 1.622831 1_555
O48 P9 1.547140 1_555
O48 V11 1.996252 1_555
O49 P1 1.555438 1_555
O49 V2 1.979433 1_555
O50 P10 1.547139 1_555
O50 V4 1.996252 1_555
O51 P5 1.555451 1_555
O51 V11 1.979433 1_545
O52 P1 1.548056 1_555
O52 Ti2 1.965308 1_555
O53 V2 1.825509 1_555
O53 V4 1.826413 1_565
O54 V3 1.622830 1_554
O55 P5 1.547139 1_555
O55 V1 1.996252 1_555
O56 P11 1.548056 1_555
O56 Ti1 1.965308 1_555
O57 P6 1.552604 1_555
O57 Ti2 1.960247 1_556
O58 V4 1.825509 1_555
O58 V7 1.826413 1_655
O59 V4 1.622830 1_555
O60 P9 1.552604 1_555
O60 Ti1 1.960247 1_556
O61 P0 1.547128 1_555
O61 V5 1.996252 1_555
O62 V8 1.825509 1_555
O62 V6 1.826413 1_565
O63 P1 1.547140 1_555
O63 V10 1.996252 1_555
O64 P10 1.555451 1_555
O64 V7 1.979433 1_655
O65 V0 1.622830 1_555
O66 P2 1.548050 1_555
O66 Ti1 1.965297 1_555
O67 P9 1.548056 1_555
O67 Ti3 1.965308 1_555
O68 P3 1.548057 1_555
O68 Ti0 1.965303 1_555
O69 P8 1.547128 1_555
O69 V2 1.996252 1_555
O70 V5 1.825509 1_555
O70 V0 1.826413 1_545
O71 V1 1.825509 1_555
O71 V11 1.826413 1_545
