# generated using pymatgen
data_FeTe2BrO5
_symmetry_space_group_name_H-M   'P 1'
_cell_length_a   6.70159300
_cell_length_b   13.62165800
_cell_length_c   14.55829116
_cell_angle_alpha   72.25758774
_cell_angle_beta   90.00000000
_cell_angle_gamma   90.00000000
_symmetry_Int_Tables_number   1
_chemical_formula_structural   FeTe2BrO5
_chemical_formula_sum   'Fe8 Te16 Br8 O40'
_cell_volume   1265.76854633
_cell_formula_units_Z   8
loop_
 _symmetry_equiv_pos_site_id
 _symmetry_equiv_pos_as_xyz
  1  'x, y, z'
loop_
 _atom_site_type_symbol
 _atom_site_label
 _atom_site_symmetry_multiplicity
 _atom_site_fract_x
 _atom_site_fract_y
 _atom_site_fract_z
 _atom_site_occupancy
  Fe  Fe0  1  0.50097600  0.11643100  0.52306900  1
  Fe  Fe1  1  0.70858100  0.93753900  0.14375500  1
  Fe  Fe2  1  0.79141900  0.93753900  0.64375500  1
  Fe  Fe3  1  0.00097600  0.88356900  0.97693100  1
  Fe  Fe4  1  0.29141900  0.06246100  0.85624500  1
  Fe  Fe5  1  0.20858100  0.06246100  0.35624500  1
  Fe  Fe6  1  0.99902400  0.11643100  0.02306900  1
  Fe  Fe7  1  0.49902400  0.88356900  0.47693100  1
  Te  Te0  1  0.51693100  0.19531600  0.98071600  1
  Te  Te1  1  0.02969200  0.36224400  0.86385200  1
  Te  Te2  1  0.97030800  0.63775600  0.13614800  1
  Te  Te3  1  0.30873700  0.89060600  0.71314600  1
  Te  Te4  1  0.71038100  0.72179800  0.35876100  1
  Te  Te5  1  0.21038100  0.27820200  0.14123900  1
  Te  Te6  1  0.48306900  0.80468400  0.01928400  1
  Te  Te7  1  0.80873700  0.10939400  0.78685400  1
  Te  Te8  1  0.28961900  0.27820200  0.64123900  1
  Te  Te9  1  0.19126300  0.89060600  0.21314600  1
  Te  Te10  1  0.52969200  0.63775600  0.63614800  1
  Te  Te11  1  0.01693100  0.80468400  0.51928400  1
  Te  Te12  1  0.47030800  0.36224400  0.36385200  1
  Te  Te13  1  0.78961900  0.72179800  0.85876100  1
  Te  Te14  1  0.98306900  0.19531600  0.48071600  1
  Te  Te15  1  0.69126300  0.10939400  0.28685400  1
  Br  Br0  1  0.63990500  0.38465500  0.72145400  1
  Br  Br1  1  0.27510300  0.56371600  0.54298500  1
  Br  Br2  1  0.77510300  0.43628400  0.95701500  1
  Br  Br3  1  0.22489700  0.56371600  0.04298500  1
  Br  Br4  1  0.86009500  0.38465500  0.22145400  1
  Br  Br5  1  0.72489700  0.43628400  0.45701500  1
  Br  Br6  1  0.13990500  0.61534500  0.77854600  1
  Br  Br7  1  0.36009500  0.61534500  0.27854600  1
  O  O0  1  0.23443700  0.33451400  0.95623500  1
  O  O1  1  0.25633100  0.01024900  0.74716600  1
  O  O2  1  0.26556300  0.33451400  0.45623500  1
  O  O3  1  0.76556300  0.66548600  0.04376500  1
  O  O4  1  0.75633100  0.98975100  0.75283400  1
  O  O5  1  0.21531300  0.11159300  0.48003200  1
  O  O6  1  0.95055100  0.79075700  0.39199400  1
  O  O7  1  0.22624000  0.20858700  0.77380300  1
  O  O8  1  0.92527600  0.09862000  0.36369100  1
  O  O9  1  0.29832000  0.91185000  0.94869200  1
  O  O10  1  0.72624000  0.79141300  0.72619700  1
  O  O11  1  0.20168000  0.91185000  0.44869200  1
  O  O12  1  0.79832000  0.08815000  0.55130800  1
  O  O13  1  0.51374900  0.03740100  0.39713600  1
  O  O14  1  0.01374900  0.96259900  0.10286400  1
  O  O15  1  0.77376000  0.79141300  0.22619700  1
  O  O16  1  0.98340600  0.81481700  0.87841600  1
  O  O17  1  0.51659400  0.81481700  0.37841600  1
  O  O18  1  0.71531300  0.88840700  0.01996800  1
  O  O19  1  0.42527600  0.90138000  0.13630900  1
  O  O20  1  0.28468700  0.11159300  0.98003200  1
  O  O21  1  0.48625100  0.96259900  0.60286400  1
  O  O22  1  0.74366900  0.98975100  0.25283400  1
  O  O23  1  0.73443700  0.66548600  0.54376500  1
  O  O24  1  0.70168000  0.08815000  0.05130800  1
  O  O25  1  0.48340600  0.18518300  0.62158400  1
  O  O26  1  0.54944900  0.79075700  0.89199400  1
  O  O27  1  0.24366900  0.01024900  0.24716600  1
  O  O28  1  0.07472400  0.90138000  0.63630900  1
  O  O29  1  0.57472400  0.09862000  0.86369100  1
  O  O30  1  0.90630300  0.22879000  0.90996200  1
  O  O31  1  0.01659400  0.18518300  0.12158400  1
  O  O32  1  0.40630300  0.77121000  0.59003800  1
  O  O33  1  0.04944900  0.20924300  0.60800600  1
  O  O34  1  0.98625100  0.03740100  0.89713600  1
  O  O35  1  0.78468700  0.88840700  0.51996800  1
  O  O36  1  0.27376000  0.20858700  0.27380300  1
  O  O37  1  0.09369700  0.77121000  0.09003800  1
  O  O38  1  0.59369700  0.22879000  0.40996200  1
  O  O39  1  0.45055100  0.20924300  0.10800600  1
loop_
_geom_bond_atom_site_label_1
_geom_bond_atom_site_label_2
_geom_bond_distance
_geom_bond_site_symmetry_2
Fe0 O25 1.940750 1_555
Fe0 O38 1.975858 1_555
Fe0 O5 2.021629 1_555
Fe0 O12 2.047354 1_555
Fe0 O21 2.065557 1_545
Fe0 O13 2.393818 1_555
Fe1 O22 1.941964 1_555
Fe1 O19 1.972703 1_555
Fe1 O15 2.034030 1_555
Fe1 O24 2.083170 1_565
Fe1 O18 2.105395 1_555
Fe1 O14 2.128272 1_655
Fe2 O4 1.941964 1_555
Fe2 O28 1.972703 1_655
Fe2 O10 2.034030 1_555
Fe2 O12 2.083170 1_565
Fe2 O35 2.105395 1_555
Fe2 O21 2.128272 1_555
Fe3 O16 1.940750 1_455
Fe3 O37 1.975858 1_556
Fe3 O18 2.021629 1_456
Fe3 O9 2.047354 1_555
Fe3 O34 2.065557 1_465
Fe3 O14 2.393818 1_556
Fe4 O1 1.941964 1_555
Fe4 O29 1.972703 1_555
Fe4 O7 2.034030 1_555
Fe4 O9 2.083170 1_545
Fe4 O20 2.105395 1_555
Fe4 O34 2.128272 1_455
Fe5 O27 1.941964 1_555
Fe5 O8 1.972703 1_455
Fe5 O36 2.034030 1_555
Fe5 O11 2.083170 1_545
Fe5 O5 2.105395 1_555
Fe5 O13 2.128272 1_555
Fe6 O31 1.940750 1_655
Fe6 O30 1.975858 1_554
Fe6 O20 2.021629 1_654
Fe6 O24 2.047354 1_555
Fe6 O14 2.065557 1_645
Fe6 O34 2.393818 1_554
Fe7 O17 1.940750 1_555
Fe7 O32 1.975858 1_555
Fe7 O35 2.021629 1_555
Fe7 O11 2.047354 1_555
Fe7 O13 2.065557 1_565
Fe7 O21 2.393818 1_555
Br0 Te8 3.163723 1_555
Br0 Te1 3.290694 1_655
Br0 Te10 3.371145 1_555
Br1 Te10 2.569309 1_555
Br2 Te1 2.569309 1_655
Br3 Te2 2.569309 1_455
Br4 Te5 3.163723 1_655
Br4 Te12 3.290694 1_555
Br4 Te2 3.371145 1_555
Br5 Te12 2.569309 1_555
Br6 Te13 3.163723 1_455
Br6 Te10 3.290694 1_555
Br6 Te1 3.371145 1_555
Br7 Te4 3.163723 1_555
Br7 Te2 3.290694 1_455
Br7 Te12 3.371145 1_555
O0 Te1 1.877397 1_555
O0 Te5 2.570858 1_556
O0 Te0 2.625725 1_555
O1 Te3 1.875267 1_545
O2 Te12 1.877397 1_555
O2 Te8 2.570858 1_555
O2 Te14 2.625725 1_455
O3 Te2 1.877397 1_555
O3 Te13 2.570858 1_554
O3 Te6 2.625725 1_555
O4 Te7 1.875267 1_565
O5 Te14 1.931330 1_455
O6 Te11 1.970335 1_655
O6 Te4 1.995990 1_555
O7 Te8 1.920617 1_555
O8 Te15 1.905839 1_555
O8 Te14 2.480954 1_555
O9 Te6 1.950820 1_556
O10 Te13 1.920617 1_555
O11 Te11 1.950820 1_555
O12 Te14 1.950820 1_555
O13 Te15 1.998748 1_555
O14 Te9 1.998748 1_555
O15 Te4 1.920617 1_555
O16 Te13 1.896022 1_555
O17 Te4 1.896022 1_555
O18 Te6 1.931330 1_555
O19 Te9 1.905839 1_555
O19 Te6 2.480954 1_555
O20 Te0 1.931330 1_555
O21 Te3 1.998748 1_555
O22 Te15 1.875267 1_565
O23 Te10 1.877397 1_555
O23 Te4 2.570858 1_555
O23 Te11 2.625725 1_655
O24 Te0 1.950820 1_554
O25 Te8 1.896022 1_555
O26 Te6 1.970335 1_556
O26 Te13 1.995990 1_555
O27 Te9 1.875267 1_545
O28 Te3 1.905839 1_555
O28 Te11 2.480954 1_555
O29 Te7 1.905839 1_555
O29 Te0 2.480954 1_555
O30 Te1 1.922310 1_655
O31 Te5 1.896022 1_555
O32 Te10 1.922310 1_555
O33 Te14 1.970335 1_455
O33 Te8 1.995990 1_555
O34 Te7 1.998748 1_555
O35 Te11 1.931330 1_655
O36 Te5 1.920617 1_555
O37 Te2 1.922310 1_455
O38 Te12 1.922310 1_555
O39 Te0 1.970335 1_554
O39 Te5 1.995990 1_555
