# generated using pymatgen
data_Ga(MoSe2)4
_symmetry_space_group_name_H-M   'P 1'
_cell_length_a   7.23971436
_cell_length_b   7.23971488
_cell_length_c   7.23971436
_cell_angle_alpha   60.81956186
_cell_angle_beta   60.81956509
_cell_angle_gamma   60.81956186
_symmetry_Int_Tables_number   1
_chemical_formula_structural   Ga(MoSe2)4
_chemical_formula_sum   'Ga1 Mo4 Se8'
_cell_volume   273.27701100
_cell_formula_units_Z   1
loop_
 _symmetry_equiv_pos_site_id
 _symmetry_equiv_pos_as_xyz
  1  'x, y, z'
loop_
 _atom_site_type_symbol
 _atom_site_label
 _atom_site_symmetry_multiplicity
 _atom_site_fract_x
 _atom_site_fract_y
 _atom_site_fract_z
 _atom_site_occupancy
  Ga  Ga0  1  0.99951100  0.99951100  0.99951100  1
  Mo  Mo0  1  0.19559100  0.60074500  0.60074500  1
  Mo  Mo1  1  0.60074500  0.60074500  0.19559100  1
  Mo  Mo2  1  0.59425400  0.59425400  0.59425400  1
  Mo  Mo3  1  0.60074500  0.19559100  0.60074500  1
  Se  Se0  1  0.85967600  0.40994300  0.85967600  1
  Se  Se1  1  0.35975300  0.35975300  0.90685500  1
  Se  Se2  1  0.85967600  0.85967600  0.40994300  1
  Se  Se3  1  0.40994300  0.85967600  0.85967600  1
  Se  Se4  1  0.36441400  0.36441400  0.36441400  1
  Se  Se5  1  0.86048400  0.86048400  0.86048400  1
  Se  Se6  1  0.90685500  0.35975300  0.35975300  1
  Se  Se7  1  0.35975300  0.90685500  0.35975300  1
loop_
_geom_bond_atom_site_label_1
_geom_bond_atom_site_label_2
_geom_bond_distance
_geom_bond_site_symmetry_2
Ga0 Se5 2.450069 1_555
Ga0 Se3 2.451896 1_655
Ga0 Se2 2.451896 1_556
Ga0 Se0 2.451896 1_565
Mo0 Se4 2.474857 1_555
Mo0 Se1 2.478677 1_555
Mo0 Se7 2.478677 1_555
Mo0 Se5 2.740223 1_455
Mo0 Se2 2.764375 1_455
Mo0 Se0 2.764375 1_455
Mo1 Se4 2.474857 1_555
Mo1 Se6 2.478677 1_555
Mo1 Se7 2.478677 1_555
Mo1 Se5 2.740223 1_554
Mo1 Se3 2.764375 1_554
Mo1 Se0 2.764375 1_554
Mo2 Se7 2.490717 1_555
Mo2 Se1 2.490717 1_555
Mo2 Se6 2.490717 1_555
Mo2 Se0 2.786661 1_555
Mo2 Se3 2.786661 1_555
Mo2 Se2 2.786661 1_555
Mo3 Se4 2.474856 1_555
Mo3 Se1 2.478677 1_555
Mo3 Se6 2.478677 1_555
Mo3 Se5 2.740223 1_545
Mo3 Se2 2.764375 1_545
Mo3 Se3 2.764375 1_545
