# generated using pymatgen
data_MgZn2
_symmetry_space_group_name_H-M   'P 1'
_cell_length_a   4.74107162
_cell_length_b   4.74107162
_cell_length_c   5.28789600
_cell_angle_alpha   90.00000000
_cell_angle_beta   90.00000000
_cell_angle_gamma   116.68701459
_symmetry_Int_Tables_number   1
_chemical_formula_structural   MgZn2
_chemical_formula_sum   'Mg2 Zn4'
_cell_volume   106.19827602
_cell_formula_units_Z   2
loop_
 _symmetry_equiv_pos_site_id
 _symmetry_equiv_pos_as_xyz
  1  'x, y, z'
loop_
 _atom_site_type_symbol
 _atom_site_label
 _atom_site_symmetry_multiplicity
 _atom_site_fract_x
 _atom_site_fract_y
 _atom_site_fract_z
 _atom_site_occupancy
  Mg  Mg0  1  0.62076700  0.37923300  0.75000000  1
  Mg  Mg1  1  0.37923300  0.62076700  0.25000000  1
  Zn  Zn0  1  0.71737700  0.28262300  0.25000000  1
  Zn  Zn1  1  0.00000000  0.00000000  0.50000000  1
  Zn  Zn2  1  0.28262300  0.71737700  0.75000000  1
  Zn  Zn3  1  0.00000000  0.00000000  0.00000000  1
loop_
_geom_bond_atom_site_label_1
_geom_bond_atom_site_label_2
_geom_bond_distance
_geom_bond_site_symmetry_2
Mg0 Zn2 2.729260 1_555
Mg0 Zn0 2.756537 1_555
Mg0 Zn0 2.756537 1_556
Mg0 Zn2 2.810331 1_545
Mg0 Zn2 2.810331 1_655
Mg0 Zn3 2.981452 1_556
Mg0 Zn1 2.981452 1_555
Mg0 Zn3 2.981452 1_666
Mg0 Zn1 2.981452 1_665
Mg1 Zn0 2.729260 1_555
Mg1 Zn2 2.756537 1_554
Mg1 Zn2 2.756537 1_555
Mg1 Zn0 2.810331 1_455
Mg1 Zn0 2.810331 1_565
Mg1 Zn3 2.981452 1_555
Mg1 Zn1 2.981452 1_555
Mg1 Zn3 2.981452 1_665
Mg1 Zn1 2.981452 1_665
Zn0 Zn3 2.636510 1_655
Zn0 Zn1 2.636510 1_655
Zn1 Zn2 2.636510 1_545
Zn1 Zn3 2.643948 1_555
Zn1 Zn3 2.643948 1_556
Zn2 Zn3 2.636510 1_566
