# generated using pymatgen
data_Zr2Nb3Ge4
_symmetry_space_group_name_H-M   'P 1'
_cell_length_a   6.87491700
_cell_length_b   6.98467300
_cell_length_c   13.53529700
_cell_angle_alpha   90.00000000
_cell_angle_beta   90.00000000
_cell_angle_gamma   90.00000000
_symmetry_Int_Tables_number   1
_chemical_formula_structural   Zr2Nb3Ge4
_chemical_formula_sum   'Zr8 Nb12 Ge16'
_cell_volume   649.95206479
_cell_formula_units_Z   4
loop_
 _symmetry_equiv_pos_site_id
 _symmetry_equiv_pos_as_xyz
  1  'x, y, z'
loop_
 _atom_site_type_symbol
 _atom_site_label
 _atom_site_symmetry_multiplicity
 _atom_site_fract_x
 _atom_site_fract_y
 _atom_site_fract_z
 _atom_site_occupancy
  Zr  Zr0  1  0.84819000  0.66606400  0.12376400  1
  Zr  Zr1  1  0.34819000  0.83393600  0.37623600  1
  Zr  Zr2  1  0.65181000  0.16606400  0.87623600  1
  Zr  Zr3  1  0.15181000  0.33393600  0.62376400  1
  Zr  Zr4  1  0.15181000  0.33393600  0.87623600  1
  Zr  Zr5  1  0.65181000  0.16606400  0.62376400  1
  Zr  Zr6  1  0.34819000  0.83393600  0.12376400  1
  Zr  Zr7  1  0.84819000  0.66606400  0.37623600  1
  Nb  Nb0  1  0.02009200  0.17846100  0.09060600  1
  Nb  Nb1  1  0.52009200  0.32153900  0.40939400  1
  Nb  Nb2  1  0.47990800  0.67846100  0.90939400  1
  Nb  Nb3  1  0.97990800  0.82153900  0.59060600  1
  Nb  Nb4  1  0.97990800  0.82153900  0.90939400  1
  Nb  Nb5  1  0.47990800  0.67846100  0.59060600  1
  Nb  Nb6  1  0.52009200  0.32153900  0.09060600  1
  Nb  Nb7  1  0.02009200  0.17846100  0.40939400  1
  Nb  Nb8  1  0.67438800  0.99618700  0.25000000  1
  Nb  Nb9  1  0.17438800  0.50381300  0.25000000  1
  Nb  Nb10  1  0.82561200  0.49618700  0.75000000  1
  Nb  Nb11  1  0.32561200  0.00381300  0.75000000  1
  Ge  Ge0  1  0.81933700  0.34113400  0.25000000  1
  Ge  Ge1  1  0.31933700  0.15886600  0.25000000  1
  Ge  Ge2  1  0.68066300  0.84113400  0.75000000  1
  Ge  Ge3  1  0.18066300  0.65886600  0.75000000  1
  Ge  Ge4  1  0.04444900  0.90278500  0.25000000  1
  Ge  Ge5  1  0.54444900  0.59721500  0.25000000  1
  Ge  Ge6  1  0.45555100  0.40278500  0.75000000  1
  Ge  Ge7  1  0.95555100  0.09721500  0.75000000  1
  Ge  Ge8  1  0.80367700  0.47354300  0.95754400  1
  Ge  Ge9  1  0.30367700  0.02645700  0.54245600  1
  Ge  Ge10  1  0.69632300  0.97354300  0.04245600  1
  Ge  Ge11  1  0.19632300  0.52645700  0.45754400  1
  Ge  Ge12  1  0.19632300  0.52645700  0.04245600  1
  Ge  Ge13  1  0.69632300  0.97354300  0.45754400  1
  Ge  Ge14  1  0.30367700  0.02645700  0.95754400  1
  Ge  Ge15  1  0.80367700  0.47354300  0.54245600  1
loop_
_geom_bond_atom_site_label_1
_geom_bond_atom_site_label_2
_geom_bond_distance
_geom_bond_site_symmetry_2
Nb8 Zr1 3.038576 1_555
Nb8 Zr6 3.038576 1_555
Nb8 Zr7 3.108681 1_555
Nb8 Zr0 3.108681 1_555
Nb9 Zr7 3.038576 1_455
Nb9 Zr0 3.038576 1_455
Nb9 Zr1 3.108681 1_555
Nb9 Zr6 3.108681 1_555
Nb10 Zr3 3.038576 1_655
Nb10 Zr4 3.038576 1_655
Nb10 Zr5 3.108681 1_555
Nb10 Zr2 3.108681 1_555
Nb11 Zr5 3.038576 1_555
Nb11 Zr2 3.038576 1_555
Nb11 Zr4 3.108681 1_555
Nb11 Zr3 3.108681 1_555
Ge0 Ge5 2.602058 1_555
Ge0 Nb8 2.607291 1_545
Ge0 Nb9 2.692453 1_655
Ge0 Nb7 2.801864 1_655
Ge0 Nb0 2.801864 1_655
Ge0 Zr7 2.847731 1_555
Ge0 Zr0 2.847731 1_555
Ge0 Nb1 2.984245 1_555
Ge0 Nb6 2.984245 1_555
Ge1 Ge4 2.602058 1_545
Ge1 Nb9 2.607291 1_555
Ge1 Nb8 2.692453 1_545
Ge1 Nb1 2.801864 1_555
Ge1 Nb6 2.801864 1_555
Ge1 Zr1 2.847731 1_545
Ge1 Zr6 2.847731 1_545
Ge1 Nb7 2.984245 1_555
Ge1 Nb0 2.984245 1_555
Ge2 Ge7 2.602058 1_565
Ge2 Nb10 2.607291 1_555
Ge2 Nb11 2.692453 1_565
Ge2 Nb2 2.801864 1_555
Ge2 Nb5 2.801864 1_555
Ge2 Zr5 2.847731 1_565
Ge2 Zr2 2.847731 1_565
Ge2 Nb4 2.984245 1_555
Ge2 Nb3 2.984245 1_555
Ge3 Ge6 2.602058 1_555
Ge3 Nb11 2.607291 1_565
Ge3 Nb10 2.692453 1_455
Ge3 Nb4 2.801864 1_455
Ge3 Nb3 2.801864 1_455
Ge3 Zr3 2.847731 1_555
Ge3 Zr4 2.847731 1_555
Ge3 Nb2 2.984245 1_555
Ge3 Nb5 2.984245 1_555
Ge4 Nb8 2.626451 1_455
Ge4 Zr7 2.733819 1_455
Ge4 Zr0 2.733819 1_455
Ge4 Zr1 2.740669 1_555
Ge4 Zr6 2.740669 1_555
Ge4 Nb7 2.896582 1_565
Ge4 Nb0 2.896582 1_565
Ge4 Nb9 2.926372 1_555
Ge5 Nb9 2.626451 1_555
Ge5 Zr1 2.733819 1_555
Ge5 Zr6 2.733819 1_555
Ge5 Zr7 2.740669 1_555
Ge5 Zr0 2.740669 1_555
Ge5 Nb1 2.896582 1_555
Ge5 Nb6 2.896582 1_555
Ge5 Nb8 2.926372 1_555
Ge6 Nb10 2.626451 1_555
Ge6 Zr5 2.733819 1_555
Ge6 Zr2 2.733819 1_555
Ge6 Zr4 2.740669 1_555
Ge6 Zr3 2.740669 1_555
Ge6 Nb2 2.896582 1_555
Ge6 Nb5 2.896582 1_555
Ge6 Nb11 2.926372 1_555
Ge7 Nb11 2.626451 1_655
Ge7 Zr3 2.733819 1_655
Ge7 Zr4 2.733819 1_655
Ge7 Zr5 2.740669 1_555
Ge7 Zr2 2.740669 1_555
Ge7 Nb4 2.896582 1_545
Ge7 Nb3 2.896582 1_545
Ge7 Nb10 2.926372 1_555
Ge8 Zr2 2.629374 1_555
Ge8 Zr0 2.638868 1_556
Ge8 Nb2 2.725415 1_555
Ge8 Nb4 2.792966 1_555
Ge8 Zr4 2.808967 1_655
Ge8 Nb10 2.817657 1_555
Ge8 Nb6 2.858663 1_556
Ge8 Nb0 3.115334 1_656
Ge9 Zr3 2.629374 1_555
Ge9 Zr1 2.638868 1_545
Ge9 Nb3 2.725415 1_445
Ge9 Nb5 2.792966 1_545
Ge9 Zr5 2.808967 1_555
Ge9 Nb11 2.817657 1_555
Ge9 Nb7 2.858663 1_555
Ge9 Nb1 3.115334 1_555
Ge10 Zr0 2.629374 1_555
Ge10 Zr2 2.638868 1_564
Ge10 Nb0 2.725415 1_665
Ge10 Nb6 2.792966 1_565
Ge10 Zr6 2.808967 1_555
Ge10 Nb8 2.817657 1_555
Ge10 Nb4 2.858663 1_554
Ge10 Nb2 3.115334 1_554
Ge11 Zr1 2.629374 1_555
Ge11 Zr3 2.638868 1_555
Ge11 Nb1 2.725415 1_555
Ge11 Nb7 2.792966 1_555
Ge11 Zr7 2.808967 1_455
Ge11 Nb9 2.817657 1_555
Ge11 Nb5 2.858663 1_555
Ge11 Nb3 3.115334 1_455
Ge12 Zr6 2.629374 1_555
Ge12 Zr4 2.638868 1_554
Ge12 Nb6 2.725415 1_555
Ge12 Nb0 2.792966 1_555
Ge12 Zr0 2.808967 1_455
Ge12 Nb9 2.817657 1_555
Ge12 Nb2 2.858663 1_554
Ge12 Nb4 3.115334 1_454
Ge13 Zr7 2.629374 1_555
Ge13 Zr5 2.638868 1_565
Ge13 Nb7 2.725415 1_665
Ge13 Nb1 2.792966 1_565
Ge13 Zr1 2.808967 1_555
Ge13 Nb8 2.817657 1_555
Ge13 Nb3 2.858663 1_555
Ge13 Nb5 3.115334 1_555
Ge14 Zr4 2.629374 1_555
Ge14 Zr6 2.638868 1_546
Ge14 Nb4 2.725415 1_445
Ge14 Nb2 2.792966 1_545
Ge14 Zr2 2.808967 1_555
Ge14 Nb11 2.817657 1_555
Ge14 Nb0 2.858663 1_556
Ge14 Nb6 3.115334 1_556
Ge15 Zr5 2.629374 1_555
Ge15 Zr7 2.638868 1_555
Ge15 Nb5 2.725415 1_555
Ge15 Nb3 2.792966 1_555
Ge15 Zr3 2.808967 1_655
Ge15 Nb10 2.817657 1_555
Ge15 Nb1 2.858663 1_555
Ge15 Nb7 3.115334 1_655
