# generated using pymatgen
data_SiO2
_symmetry_space_group_name_H-M   'P 1'
_cell_length_a   12.64948957
_cell_length_b   11.89508923
_cell_length_c   5.84957661
_cell_angle_alpha   83.52176750
_cell_angle_beta   69.12447884
_cell_angle_gamma   27.35375366
_symmetry_Int_Tables_number   1
_chemical_formula_structural   SiO2
_chemical_formula_sum   'Si8 O16'
_cell_volume   332.64645054
_cell_formula_units_Z   8
loop_
 _symmetry_equiv_pos_site_id
 _symmetry_equiv_pos_as_xyz
  1  'x, y, z'
loop_
 _atom_site_type_symbol
 _atom_site_label
 _atom_site_symmetry_multiplicity
 _atom_site_fract_x
 _atom_site_fract_y
 _atom_site_fract_z
 _atom_site_occupancy
  Si  Si0  1  0.99840500  0.36970500  0.20097700  1
  Si  Si1  1  0.36970500  0.99840500  0.43091300  1
  Si  Si2  1  0.25159500  0.88029500  0.04902300  1
  Si  Si3  1  0.04902300  0.81908700  0.25159500  1
  Si  Si4  1  0.88029500  0.25159500  0.81908700  1
  Si  Si5  1  0.20097700  0.43091300  0.99840500  1
  Si  Si6  1  0.81908700  0.04902300  0.88029500  1
  Si  Si7  1  0.43091300  0.20097700  0.36970500  1
  O  O0  1  0.03194500  0.46805500  0.03194500  1
  O  O1  1  0.12500000  0.12500000  0.12500000  1
  O  O2  1  0.29763900  0.29763900  0.20236100  1
  O  O3  1  0.90961400  0.90961400  0.59038600  1
  O  O4  1  0.21805500  0.78194500  0.21805500  1
  O  O5  1  0.95236100  0.95236100  0.04763900  1
  O  O6  1  0.20236100  0.20236100  0.29763900  1
  O  O7  1  0.46805500  0.03194500  0.46805500  1
  O  O8  1  0.78194500  0.21805500  0.78194500  1
  O  O9  1  0.34038600  0.34038600  0.65961400  1
  O  O10  1  0.04763900  0.04763900  0.95236100  1
  O  O11  1  0.59038600  0.59038600  0.90961400  1
  O  O12  1  0.12500000  0.12500000  0.62500000  1
  O  O13  1  0.65961400  0.65961400  0.34038600  1
  O  O14  1  0.12500000  0.62500000  0.12500000  1
  O  O15  1  0.62500000  0.12500000  0.12500000  1
loop_
_geom_bond_atom_site_label_1
_geom_bond_atom_site_label_2
_geom_bond_distance
_geom_bond_site_symmetry_2
O0 Si5 1.687595 1_554
O0 Si0 1.687595 1_455
O1 Si2 1.655051 1_545
O1 Si0 1.655051 1_455
O2 Si7 1.612816 1_555
O2 Si5 1.612816 1_554
O3 Si3 1.677638 1_655
O3 Si6 1.677638 1_565
O4 Si3 1.687595 1_555
O4 Si2 1.687595 1_555
O5 Si6 1.612816 1_564
O5 Si3 1.612816 1_655
O6 Si1 1.612816 1_545
O6 Si0 1.612816 1_455
O7 Si7 1.687595 1_555
O7 Si1 1.687595 1_545
O8 Si6 1.687595 1_555
O8 Si4 1.687595 1_555
O9 Si5 1.677638 1_555
O9 Si7 1.677638 1_555
O10 Si4 1.612816 1_455
O10 Si2 1.612816 1_546
O11 Si2 1.677638 1_556
O11 Si4 1.677638 1_555
O12 Si4 1.655051 1_455
O12 Si1 1.655051 1_545
O13 Si0 1.677638 1_555
O13 Si1 1.677638 1_555
O14 Si3 1.655051 1_555
O14 Si5 1.655051 1_554
O15 Si6 1.655051 1_554
O15 Si7 1.655051 1_555
