# generated using pymatgen
data_EuCd11
_symmetry_space_group_name_H-M   'P 1'
_cell_length_a   7.68226425
_cell_length_b   9.29610449
_cell_length_c   9.29542599
_cell_angle_alpha   80.20266383
_cell_angle_beta   65.56865486
_cell_angle_gamma   65.56723435
_symmetry_Int_Tables_number   1
_chemical_formula_structural   EuCd11
_chemical_formula_sum   'Eu2 Cd22'
_cell_volume   550.26736969
_cell_formula_units_Z   2
loop_
 _symmetry_equiv_pos_site_id
 _symmetry_equiv_pos_as_xyz
  1  'x, y, z'
loop_
 _atom_site_type_symbol
 _atom_site_label
 _atom_site_symmetry_multiplicity
 _atom_site_fract_x
 _atom_site_fract_y
 _atom_site_fract_z
 _atom_site_occupancy
  Eu  Eu0  1  0.37511931  0.24979378  0.74979331  1
  Eu  Eu1  1  0.62488069  0.75020622  0.25020669  1
  Cd  Cd0  1  0.87352961  0.57357334  0.83333279  1
  Cd  Cd1  1  0.00000000  0.00000000  -0.00000000  1
  Cd  Cd2  1  0.44715306  0.83261082  0.92588562  1
  Cd  Cd3  1  0.87304343  0.33277386  0.07417339  1
  Cd  Cd4  1  0.44692420  0.42642470  0.33315931  1
  Cd  Cd5  1  0.79335654  0.92628141  0.83298684  1
  Cd  Cd6  1  0.79418968  0.33243325  0.42574337  1
  Cd  Cd7  1  0.72018149  0.83247057  0.57392720  1
  Cd  Cd8  1  0.12695657  0.66722614  0.92582661  1
  Cd  Cd9  1  0.12492275  0.74984446  0.24984958  1
  Cd  Cd10  1  0.55307580  0.57357530  0.66684069  1
  Cd  Cd11  1  0.87507725  0.25015554  0.75015042  1
  Cd  Cd12  1  0.50000000  0.50000000  -0.00000000  1
  Cd  Cd13  1  0.55284694  0.16738918  0.07411438  1
  Cd  Cd14  1  0.28016070  0.92666917  0.66696882  1
  Cd  Cd15  1  0.12647039  0.42642666  0.16666721  1
  Cd  Cd16  1  0.20581032  0.66756675  0.57425663  1
  Cd  Cd17  1  0.20664346  0.07371859  0.16701316  1
  Cd  Cd18  1  0.71983930  0.07333083  0.33303118  1
  Cd  Cd19  1  0.27981851  0.16752943  0.42607280  1
  Cd  Cd20  1  0.00000000  0.00000000  0.50000000  1
  Cd  Cd21  1  0.00000000  0.50000000  0.50000000  1
loop_
_geom_bond_atom_site_label_1
_geom_bond_atom_site_label_2
_geom_bond_distance
_geom_bond_site_symmetry_2
Cd0 Cd3 2.883961 1_556
Cd0 Cd8 2.886019 1_655
Cd0 Cd12 2.947505 1_556
Cd0 Cd21 2.948481 1_655
Cd0 Cd2 3.019419 1_555
Cd0 Cd16 3.020428 1_655
Cd0 Cd5 3.075291 1_555
Cd0 Cd11 3.223536 1_555
Cd0 Cd7 3.320207 1_555
Cd0 Cd10 3.406931 1_555
Cd0 Eu0 3.638182 1_655
Cd0 Eu1 3.848182 1_556
Cd1 Cd8 2.944496 1_544
Cd1 Cd3 2.944496 1_455
Cd1 Cd18 2.945022 1_455
Cd1 Cd14 2.945022 1_544
Cd1 Cd13 2.946437 1_455
Cd1 Cd2 2.946437 1_544
Cd1 Cd5 2.949674 1_444
Cd1 Cd17 2.949674 1_555
Cd1 Cd11 3.143581 1_454
Cd1 Cd9 3.143581 1_545
Cd2 Cd5 2.887502 1_555
Cd2 Cd7 3.070116 1_555
Cd2 Cd9 3.226288 1_556
Cd2 Cd8 3.397706 1_555
Cd2 Eu1 3.645975 1_556
Cd2 Eu0 3.852179 1_565
Cd3 Cd4 3.017668 1_555
Cd3 Cd6 3.067120 1_555
Cd3 Eu0 3.643302 1_654
Cd3 Eu1 3.851076 1_555
Cd4 Cd6 2.887238 1_555
Cd4 Cd9 3.224584 1_555
Cd4 Eu1 3.642151 1_555
Cd4 Eu0 3.849265 1_555
Cd5 Cd7 3.019165 1_555
Cd5 Cd8 3.021388 1_655
Cd5 Eu0 3.638160 1_565
Cd5 Eu1 3.851623 1_556
Cd6 Eu0 3.642071 1_555
Cd6 Eu1 3.854501 1_555
Cd7 Cd9 3.224331 1_655
Cd7 Eu1 3.639277 1_555
Cd7 Eu0 3.849167 1_565
Cd8 Cd9 3.224942 1_556
Cd8 Eu1 3.643302 1_456
Cd8 Eu0 3.851076 1_555
Cd9 Eu1 3.838694 1_455
Cd9 Eu1 3.843575 1_555
Cd10 Cd6 2.884370 1_555
Cd10 Cd16 2.887238 1_555
Cd10 Cd21 2.945312 1_655
Cd10 Cd12 2.947864 1_556
Cd10 Cd8 3.017668 1_555
Cd10 Cd7 3.019530 1_555
Cd10 Cd14 3.078329 1_555
Cd10 Cd11 3.224584 1_555
Cd10 Cd2 3.315177 1_555
Cd10 Eu0 3.642151 1_555
Cd10 Eu1 3.849265 1_555
Cd11 Cd12 3.139220 1_556
Cd11 Cd21 3.143597 1_655
Cd11 Cd20 3.143845 1_655
Cd11 Cd14 3.222502 1_645
Cd11 Cd19 3.224331 1_655
Cd11 Cd3 3.224942 1_556
Cd11 Cd13 3.226288 1_556
Cd11 Cd5 3.229015 1_545
Cd11 Cd6 3.230529 1_555
Cd11 Eu0 3.838694 1_655
Cd11 Eu0 3.843575 1_555
Cd12 Cd2 2.944110 1_554
Cd12 Cd13 2.944110 1_555
Cd12 Cd15 2.947505 1_555
Cd12 Cd8 2.947741 1_554
Cd12 Cd3 2.947741 1_555
Cd12 Cd4 2.947864 1_555
Cd12 Cd9 3.139220 1_555
Cd13 Cd5 2.884352 1_544
Cd13 Cd17 2.887502 1_555
Cd13 Cd18 3.018715 1_555
Cd13 Cd15 3.019419 1_555
Cd13 Cd19 3.070116 1_555
Cd13 Cd4 3.315177 1_555
Cd13 Cd3 3.397706 1_555
Cd13 Eu0 3.645975 1_554
Cd13 Eu1 3.852179 1_545
Cd14 Cd19 2.884655 1_565
Cd14 Cd7 2.886561 1_555
Cd14 Cd20 2.948767 1_565
Cd14 Cd2 3.018715 1_555
Cd14 Cd16 3.020304 1_555
Cd14 Cd8 3.319999 1_555
Cd14 Cd5 3.406254 1_455
Cd14 Eu0 3.634839 1_565
Cd14 Eu1 3.846347 1_555
Cd15 Cd8 2.883961 1_554
Cd15 Cd3 2.886019 1_455
Cd15 Cd21 2.948481 1_555
Cd15 Cd6 3.020428 1_455
Cd15 Cd17 3.075291 1_555
Cd15 Cd9 3.223536 1_555
Cd15 Cd19 3.320207 1_555
Cd15 Cd4 3.406931 1_555
Cd15 Eu1 3.638182 1_455
Cd15 Eu0 3.848182 1_554
Cd16 Cd4 2.884370 1_555
Cd16 Cd20 2.942999 1_565
Cd16 Cd21 2.951082 1_555
Cd16 Cd8 3.067120 1_555
Cd16 Cd9 3.230529 1_555
Cd16 Cd5 3.311929 1_455
Cd16 Cd7 3.397804 1_455
Cd16 Eu1 3.642071 1_555
Cd16 Eu0 3.854501 1_555
Cd17 Cd2 2.884352 1_544
Cd17 Cd20 2.946829 1_555
Cd17 Cd19 3.019165 1_555
Cd17 Cd3 3.021388 1_455
Cd17 Cd9 3.229015 1_545
Cd17 Cd6 3.311929 1_455
Cd17 Cd18 3.406254 1_455
Cd17 Eu1 3.638160 1_545
Cd17 Eu0 3.851623 1_554
Cd18 Cd7 2.884655 1_545
Cd18 Cd19 2.886561 1_555
Cd18 Cd20 2.948767 1_655
Cd18 Cd6 3.020304 1_555
Cd18 Cd4 3.078329 1_555
Cd18 Cd9 3.222502 1_645
Cd18 Cd3 3.319999 1_555
Cd18 Eu1 3.634839 1_545
Cd18 Eu0 3.846347 1_555
Cd19 Cd21 2.941126 1_555
Cd19 Cd20 2.949893 1_555
Cd19 Cd4 3.019530 1_555
Cd19 Cd6 3.397804 1_455
Cd19 Eu0 3.639277 1_555
Cd19 Eu1 3.849167 1_545
Cd20 Cd6 2.942999 1_455
Cd20 Cd5 2.946829 1_445
Cd20 Cd7 2.949893 1_445
Cd20 Cd9 3.143845 1_545
Cd21 Cd7 2.941126 1_455
Cd21 Cd4 2.945312 1_555
Cd21 Cd6 2.951082 1_455
Cd21 Cd9 3.143597 1_555
