# generated using pymatgen
data_Sr3CuIrO6
_symmetry_space_group_name_H-M   'P 1'
_cell_length_a   6.80375010
_cell_length_b   6.80375010
_cell_length_c   6.76741270
_cell_angle_alpha   89.26991829
_cell_angle_beta   89.26991829
_cell_angle_gamma   91.90865031
_symmetry_Int_Tables_number   1
_chemical_formula_structural   Sr3CuIrO6
_chemical_formula_sum   'Sr6 Cu2 Ir2 O12'
_cell_volume   313.04401271
_cell_formula_units_Z   2
loop_
 _symmetry_equiv_pos_site_id
 _symmetry_equiv_pos_as_xyz
  1  'x, y, z'
loop_
 _atom_site_type_symbol
 _atom_site_label
 _atom_site_symmetry_multiplicity
 _atom_site_fract_x
 _atom_site_fract_y
 _atom_site_fract_z
 _atom_site_occupancy
  Sr  Sr0  1  0.60122500  0.39877500  0.75000000  1
  Sr  Sr1  1  0.39877500  0.60122500  0.25000000  1
  Sr  Sr2  1  0.10806600  0.25821700  0.62031000  1
  Sr  Sr3  1  0.74178300  0.89193400  0.87969000  1
  Sr  Sr4  1  0.89193400  0.74178300  0.37969000  1
  Sr  Sr5  1  0.25821700  0.10806600  0.12031000  1
  Cu  Cu0  1  0.80841000  0.19159000  0.25000000  1
  Cu  Cu1  1  0.19159000  0.80841000  0.75000000  1
  Ir  Ir0  1  0.00000000  0.50000000  0.00000000  1
  Ir  Ir1  1  0.50000000  0.00000000  0.50000000  1
  O  O0  1  0.78286100  0.10190100  0.53679500  1
  O  O1  1  0.89809900  0.21713900  0.96320500  1
  O  O2  1  0.21713900  0.89809900  0.46320500  1
  O  O3  1  0.10190100  0.78286100  0.03679500  1
  O  O4  1  0.60466900  0.97045000  0.21714800  1
  O  O5  1  0.02955000  0.39533100  0.28285200  1
  O  O6  1  0.39533100  0.02955000  0.78285200  1
  O  O7  1  0.97045000  0.60466900  0.71714800  1
  O  O8  1  0.42846000  0.27816600  0.42991000  1
  O  O9  1  0.72183400  0.57154000  0.07009000  1
  O  O10  1  0.57154000  0.72183400  0.57009000  1
  O  O11  1  0.27816600  0.42846000  0.92991000  1
loop_
_geom_bond_atom_site_label_1
_geom_bond_atom_site_label_2
_geom_bond_distance
_geom_bond_site_symmetry_2
Cu0 O5 2.027856 1_655
Cu0 O4 2.027856 1_545
Cu0 O1 2.030684 1_554
Cu0 O0 2.030684 1_555
Cu1 O6 2.027856 1_565
Cu1 O7 2.027856 1_455
Cu1 O2 2.030684 1_555
Cu1 O3 2.030684 1_556
Ir0 O11 2.021905 1_554
Ir0 O9 2.021905 1_455
Ir0 O3 2.043080 1_555
Ir0 O1 2.043080 1_454
Ir0 O7 2.048474 1_454
Ir0 O5 2.048474 1_555
Ir1 O8 2.021905 1_555
Ir1 O10 2.021905 1_545
Ir1 O0 2.043080 1_555
Ir1 O2 2.043080 1_545
Ir1 O6 2.048474 1_555
Ir1 O4 2.048474 1_545
O0 Sr2 2.497325 1_655
O0 Sr3 2.715893 1_545
O0 Sr4 2.802097 1_545
O0 Sr0 2.807836 1_555
O1 Sr3 2.497325 1_545
O1 Sr2 2.715893 1_655
O1 Sr5 2.802097 1_656
O1 Sr0 2.807836 1_555
O2 Sr4 2.497325 1_455
O2 Sr5 2.715893 1_565
O2 Sr2 2.802097 1_565
O2 Sr1 2.807836 1_555
O3 Sr5 2.497325 1_565
O3 Sr4 2.715893 1_455
O3 Sr3 2.802097 1_454
O3 Sr1 2.807836 1_555
O4 Sr3 2.526067 1_554
O4 Sr5 2.652009 1_565
O4 Sr4 2.768426 1_555
O4 Sr1 2.840061 1_555
O5 Sr2 2.526067 1_555
O5 Sr4 2.652009 1_455
O5 Sr5 2.768426 1_555
O5 Sr1 2.840061 1_555
O6 Sr5 2.526067 1_556
O6 Sr3 2.652009 1_545
O6 Sr2 2.768426 1_555
O6 Sr0 2.840061 1_555
O7 Sr4 2.526067 1_555
O7 Sr2 2.652009 1_655
O7 Sr3 2.768426 1_555
O7 Sr0 2.840061 1_555
O8 Sr1 2.514370 1_555
O8 Sr2 2.516909 1_555
O8 Sr0 2.606402 1_555
O8 Sr5 2.665557 1_555
O9 Sr1 2.514370 1_555
O9 Sr3 2.516909 1_554
O9 Sr0 2.606402 1_554
O9 Sr4 2.665557 1_555
O10 Sr0 2.514370 1_555
O10 Sr4 2.516909 1_555
O10 Sr1 2.606402 1_555
O10 Sr3 2.665557 1_555
O11 Sr0 2.514370 1_555
O11 Sr5 2.516909 1_556
O11 Sr1 2.606402 1_556
O11 Sr2 2.665557 1_555
