# generated using pymatgen
data_Sr4B14O25
_symmetry_space_group_name_H-M   'P 1'
_cell_length_a   9.04559893
_cell_length_b   9.04559893
_cell_length_c   14.64515052
_cell_angle_alpha   90.00000000
_cell_angle_beta   90.00000000
_cell_angle_gamma   129.09676547
_symmetry_Int_Tables_number   1
_chemical_formula_structural   Sr4B14O25
_chemical_formula_sum   'Sr8 B28 O50'
_cell_volume   929.98535943
_cell_formula_units_Z   2
loop_
 _symmetry_equiv_pos_site_id
 _symmetry_equiv_pos_as_xyz
  1  'x, y, z'
loop_
 _atom_site_type_symbol
 _atom_site_label
 _atom_site_symmetry_multiplicity
 _atom_site_fract_x
 _atom_site_fract_y
 _atom_site_fract_z
 _atom_site_occupancy
  Sr  Sr0  1  0.56798714  0.43201286  0.24002553  1
  Sr  Sr1  1  0.19421431  0.80578569  0.92139999  1
  Sr  Sr2  1  0.17736993  0.82263007  0.33434183  1
  Sr  Sr3  1  0.05467030  0.94532970  0.65428484  1
  Sr  Sr4  1  0.43201286  0.56798714  0.74002553  1
  Sr  Sr5  1  0.80578569  0.19421431  0.42139999  1
  Sr  Sr6  1  0.82263007  0.17736993  0.83434183  1
  Sr  Sr7  1  0.94532970  0.05467030  0.15428484  1
  B  B0  1  0.55164759  0.98690066  0.05405784  1
  B  B1  1  0.32880795  0.02235380  0.13262920  1
  B  B2  1  0.17614149  0.16670775  0.86637362  1
  B  B3  1  0.44835241  0.01309934  0.55405784  1
  B  B4  1  0.56251972  0.77264939  0.95576049  1
  B  B5  1  0.77694989  0.71835371  0.02682990  1
  B  B6  1  0.82385851  0.83329225  0.36637362  1
  B  B7  1  0.93409119  0.40278152  0.22009276  1
  B  B8  1  0.28164629  0.22305011  0.02682990  1
  B  B9  1  0.77264939  0.56251972  0.45576049  1
  B  B10  1  0.97764620  0.67119205  0.13262920  1
  B  B11  1  0.59721848  0.06590881  0.22009276  1
  B  B12  1  0.22735061  0.43748028  0.95576049  1
  B  B13  1  0.71835371  0.77694989  0.52682990  1
  B  B14  1  0.54727526  0.78261637  0.29109004  1
  B  B15  1  0.21738363  0.45272474  0.29109004  1
  B  B16  1  0.67119205  0.97764620  0.63262920  1
  B  B17  1  0.01309934  0.44835241  0.05405784  1
  B  B18  1  0.40278152  0.93409119  0.72009276  1
  B  B19  1  0.06590881  0.59721848  0.72009276  1
  B  B20  1  0.16670775  0.17614149  0.36637362  1
  B  B21  1  0.22305011  0.28164629  0.52682990  1
  B  B22  1  0.83329225  0.82385851  0.86637362  1
  B  B23  1  0.98690066  0.55164759  0.55405784  1
  B  B24  1  0.78261637  0.54727526  0.79109004  1
  B  B25  1  0.45272474  0.21738363  0.79109004  1
  B  B26  1  0.43748028  0.22735061  0.45576049  1
  B  B27  1  0.02235380  0.32880795  0.63262920  1
  O  O0  1  0.84938087  0.73203763  0.78392017  1
  O  O1  1  0.85217090  0.14782910  0.66525160  1
  O  O2  1  0.77652710  0.22347290  0.26065307  1
  O  O3  1  0.35246639  0.22459304  0.37017128  1
  O  O4  1  0.50022101  0.89816736  0.28730132  1
  O  O5  1  0.36431326  0.99441123  0.63546951  1
  O  O6  1  0.10183264  0.49977899  0.28730132  1
  O  O7  1  0.26112121  0.35879189  0.03362015  1
  O  O8  1  0.00558877  0.63568674  0.63546951  1
  O  O9  1  0.97366264  0.02633736  0.85625984  1
  O  O10  1  0.59744785  0.00994129  0.55198669  1
  O  O11  1  0.69177571  0.83021550  0.60936828  1
  O  O12  1  0.53088834  0.89320871  0.70645850  1
  O  O13  1  0.03303475  0.38590713  0.97250776  1
  O  O14  1  0.64120811  0.73887879  0.03362015  1
  O  O15  1  0.73887879  0.64120811  0.53362015  1
  O  O16  1  0.15061913  0.26796237  0.28392017  1
  O  O17  1  0.99005871  0.40255215  0.55198669  1
  O  O18  1  0.40255215  0.99005871  0.05198669  1
  O  O19  1  0.58726675  0.41273325  0.80148844  1
  O  O20  1  0.10679129  0.46911166  0.70645850  1
  O  O21  1  0.83021550  0.69177571  0.10936828  1
  O  O22  1  0.13021268  0.25235312  0.44627730  1
  O  O23  1  0.35712230  0.64287770  0.95146822  1
  O  O24  1  0.89816736  0.50022101  0.78730132  1
  O  O25  1  0.02633736  0.97366264  0.35625984  1
  O  O26  1  0.22459304  0.35246639  0.87017128  1
  O  O27  1  0.41273325  0.58726675  0.30148844  1
  O  O28  1  0.89320871  0.53088834  0.20645850  1
  O  O29  1  0.73203763  0.84938087  0.28392017  1
  O  O30  1  0.46911166  0.10679129  0.20645850  1
  O  O31  1  0.26796237  0.15061913  0.78392017  1
  O  O32  1  0.64753361  0.77540696  0.87017128  1
  O  O33  1  0.14782910  0.85217090  0.16525160  1
  O  O34  1  0.63568674  0.00558877  0.13546951  1
  O  O35  1  0.00994129  0.59744785  0.05198669  1
  O  O36  1  0.61409287  0.96696525  0.97250776  1
  O  O37  1  0.35879189  0.26112121  0.53362015  1
  O  O38  1  0.99441123  0.36431326  0.13546951  1
  O  O39  1  0.30822429  0.16978450  0.10936828  1
  O  O40  1  0.25235312  0.13021268  0.94627730  1
  O  O41  1  0.38590713  0.03303475  0.47250776  1
  O  O42  1  0.96696525  0.61409287  0.47250776  1
  O  O43  1  0.86978732  0.74764688  0.94627730  1
  O  O44  1  0.16978450  0.30822429  0.60936828  1
  O  O45  1  0.64287770  0.35712230  0.45146822  1
  O  O46  1  0.74764688  0.86978732  0.44627730  1
  O  O47  1  0.22347290  0.77652710  0.76065307  1
  O  O48  1  0.77540696  0.64753361  0.37017128  1
  O  O49  1  0.49977899  0.10183264  0.78730132  1
loop_
_geom_bond_atom_site_label_1
_geom_bond_atom_site_label_2
_geom_bond_distance
_geom_bond_site_symmetry_2
B0 O34 1.365988 1_565
B0 O18 1.367189 1_555
B0 O36 1.380737 1_554
B1 O33 1.448959 1_545
B1 O30 1.463060 1_555
B1 O18 1.473397 1_545
B1 O39 1.497458 1_555
B2 O9 1.433719 1_455
B2 O26 1.445595 1_555
B2 O40 1.496874 1_555
B2 O31 1.523696 1_555
B3 O5 1.365988 1_545
B3 O10 1.367189 1_555
B3 O41 1.380737 1_555
B4 O23 1.443287 1_555
B4 O32 1.462522 1_555
B4 O14 1.474584 1_556
B4 O36 1.527445 1_555
B5 O14 1.356297 1_555
B5 O43 1.373490 1_554
B5 O21 1.377394 1_555
B6 O25 1.433719 1_655
B6 O48 1.445595 1_555
B6 O46 1.496874 1_555
B6 O29 1.523696 1_555
B7 O28 1.435251 1_555
B7 O2 1.448889 1_555
B7 O38 1.481275 1_555
B7 O6 1.536810 1_655
B8 O7 1.356297 1_555
B8 O40 1.373490 1_554
B8 O39 1.377394 1_555
B9 O45 1.443287 1_555
B9 O48 1.462522 1_555
B9 O15 1.474584 1_555
B9 O42 1.527445 1_555
B10 O33 1.448959 1_655
B10 O28 1.463060 1_555
B10 O35 1.473397 1_655
B10 O21 1.497458 1_555
B11 O30 1.435251 1_555
B11 O2 1.448889 1_555
B11 O34 1.481275 1_555
B11 O4 1.536810 1_545
B12 O23 1.443287 1_555
B12 O26 1.462522 1_555
B12 O7 1.474584 1_556
B12 O13 1.527445 1_555
B13 O15 1.356297 1_555
B13 O46 1.373490 1_555
B13 O11 1.377394 1_555
B14 O4 1.355677 1_555
B14 O29 1.376923 1_555
B14 O27 1.383622 1_555
B15 O6 1.355677 1_555
B15 O16 1.376923 1_555
B15 O27 1.383622 1_555
B16 O1 1.448959 1_565
B16 O12 1.463060 1_555
B16 O10 1.473397 1_565
B16 O11 1.497458 1_555
B17 O38 1.365988 1_455
B17 O35 1.367189 1_555
B17 O13 1.380737 1_554
B18 O12 1.435251 1_555
B18 O47 1.448889 1_555
B18 O5 1.481275 1_555
B18 O49 1.536810 1_565
B19 O20 1.435251 1_555
B19 O47 1.448889 1_555
B19 O8 1.481275 1_555
B19 O24 1.536810 1_455
B20 O25 1.433719 1_545
B20 O3 1.445595 1_555
B20 O22 1.496874 1_555
B20 O16 1.523696 1_555
B21 O37 1.356297 1_555
B21 O22 1.373490 1_555
B21 O44 1.377394 1_555
B22 O9 1.433719 1_565
B22 O32 1.445595 1_555
B22 O43 1.496874 1_555
B22 O0 1.523696 1_555
B23 O8 1.365988 1_655
B23 O17 1.367189 1_555
B23 O42 1.380737 1_555
B24 O24 1.355677 1_555
B24 O0 1.376923 1_555
B24 O19 1.383622 1_555
B25 O49 1.355677 1_555
B25 O31 1.376923 1_555
B25 O19 1.383622 1_555
B26 O45 1.443287 1_555
B26 O3 1.462522 1_555
B26 O37 1.474584 1_555
B26 O41 1.527445 1_555
B27 O1 1.448959 1_455
B27 O20 1.463060 1_555
B27 O17 1.473397 1_455
B27 O44 1.497458 1_555
O0 Sr3 2.501271 1_655
O1 Sr6 2.522932 1_555
O2 Sr5 2.402191 1_555
O3 Sr0 2.518002 1_555
O3 Sr2 2.956505 1_545
O4 Sr2 2.636917 1_555
O5 Sr3 2.559239 1_555
O6 Sr2 2.636917 1_555
O7 Sr7 2.989832 1_455
O8 Sr3 2.559239 1_555
O9 Sr6 2.487974 1_555
O10 Sr5 2.454681 1_555
O11 Sr4 2.789146 1_555
O11 Sr3 2.825121 1_655
O12 Sr4 2.525346 1_555
O12 Sr6 2.919483 1_565
O13 Sr6 2.597472 1_455
O14 Sr7 2.989832 1_565
O15 Sr3 2.989832 1_655
O16 Sr7 2.501271 1_455
O17 Sr5 2.454681 1_555
O18 Sr1 2.454681 1_554
O19 Sr4 2.691140 1_555
O20 Sr4 2.525346 1_555
O20 Sr6 2.919483 1_455
O21 Sr0 2.789146 1_555
O21 Sr7 2.825121 1_565
O22 Sr5 2.659861 1_455
O23 Sr1 2.697358 1_555
O24 Sr6 2.636917 1_555
O25 Sr2 2.487974 1_555
O26 Sr4 2.518002 1_555
O26 Sr6 2.956505 1_455
O27 Sr0 2.691140 1_555
O28 Sr0 2.525346 1_555
O28 Sr2 2.919483 1_655
O29 Sr7 2.501271 1_565
O30 Sr0 2.525346 1_555
O30 Sr2 2.919483 1_545
O31 Sr3 2.501271 1_545
O32 Sr4 2.518002 1_555
O32 Sr6 2.956505 1_565
O33 Sr2 2.522932 1_555
O34 Sr7 2.559239 1_555
O35 Sr1 2.454681 1_554
O36 Sr6 2.597472 1_565
O37 Sr3 2.989832 1_545
O38 Sr7 2.559239 1_555
O39 Sr0 2.789146 1_555
O39 Sr7 2.825121 1_455
O40 Sr1 2.659861 1_545
O41 Sr2 2.597472 1_545
O42 Sr2 2.597472 1_655
O43 Sr1 2.659861 1_655
O44 Sr4 2.789146 1_555
O44 Sr3 2.825121 1_545
O45 Sr5 2.697358 1_555
O46 Sr5 2.659861 1_565
O47 Sr1 2.402191 1_555
O48 Sr0 2.518002 1_555
O48 Sr2 2.956505 1_655
O49 Sr6 2.636917 1_555
