# generated using pymatgen
data_Ba2YFe3O8
_symmetry_space_group_name_H-M   'P 1'
_cell_length_a   3.96854300
_cell_length_b   3.96854300
_cell_length_c   12.09296800
_cell_angle_alpha   90.00000000
_cell_angle_beta   90.00000000
_cell_angle_gamma   90.00000000
_symmetry_Int_Tables_number   1
_chemical_formula_structural   Ba2YFe3O8
_chemical_formula_sum   'Ba2 Y1 Fe3 O8'
_cell_volume   190.45618655
_cell_formula_units_Z   1
loop_
 _symmetry_equiv_pos_site_id
 _symmetry_equiv_pos_as_xyz
  1  'x, y, z'
loop_
 _atom_site_type_symbol
 _atom_site_label
 _atom_site_symmetry_multiplicity
 _atom_site_fract_x
 _atom_site_fract_y
 _atom_site_fract_z
 _atom_site_occupancy
  Ba  Ba0  1  0.50000000  0.50000000  0.16239900  1
  Ba  Ba1  1  0.50000000  0.50000000  0.83760100  1
  Y  Y0  1  0.50000000  0.50000000  0.50000000  1
  Fe  Fe0  1  0.00000000  0.00000000  0.33950900  1
  Fe  Fe1  1  0.00000000  0.00000000  0.00000000  1
  Fe  Fe2  1  0.00000000  0.00000000  0.66049100  1
  O  O0  1  0.00000000  0.50000000  0.38372200  1
  O  O1  1  0.50000000  0.00000000  0.38372200  1
  O  O2  1  0.50000000  0.00000000  0.00000000  1
  O  O3  1  0.00000000  0.00000000  0.18464200  1
  O  O4  1  0.00000000  0.50000000  0.61627800  1
  O  O5  1  0.50000000  0.00000000  0.61627800  1
  O  O6  1  0.00000000  0.00000000  0.81535800  1
  O  O7  1  0.00000000  0.50000000  0.00000000  1
loop_
_geom_bond_atom_site_label_1
_geom_bond_atom_site_label_2
_geom_bond_distance
_geom_bond_site_symmetry_2
Ba0 O2 2.791806 1_555
Ba0 O2 2.791806 1_565
Ba0 O7 2.791806 1_555
Ba0 O7 2.791806 1_655
Ba0 O3 2.819046 1_665
Ba0 O3 2.819046 1_555
Ba0 O3 2.819046 1_655
Ba0 O3 2.819046 1_565
Ba0 O1 3.331776 1_555
Ba0 O0 3.331776 1_655
Ba0 O0 3.331776 1_555
Ba0 O1 3.331776 1_565
Ba1 O2 2.791806 1_556
Ba1 O7 2.791806 1_556
Ba1 O2 2.791806 1_566
Ba1 O7 2.791806 1_656
Ba1 O6 2.819046 1_665
Ba1 O6 2.819046 1_555
Ba1 O6 2.819046 1_655
Ba1 O6 2.819046 1_565
Ba1 O4 3.331776 1_555
Ba1 O5 3.331776 1_555
Ba1 O5 3.331776 1_565
Ba1 O4 3.331776 1_655
Fe0 O3 1.872802 1_555
Fe0 O0 2.055043 1_545
Fe0 O1 2.055043 1_455
Fe0 O1 2.055043 1_555
Fe0 O0 2.055043 1_555
Fe1 O7 1.984271 1_555
Fe1 O2 1.984271 1_455
Fe1 O2 1.984271 1_555
Fe1 O7 1.984271 1_545
Fe1 O6 2.232870 1_554
Fe1 O3 2.232870 1_555
Fe2 O6 1.872802 1_555
Fe2 O5 2.055043 1_555
Fe2 O4 2.055043 1_555
Fe2 O5 2.055043 1_455
Fe2 O4 2.055043 1_545
O0 Y0 2.431991 1_455
O0 Y0 2.431991 1_555
O1 Y0 2.431991 1_545
O1 Y0 2.431991 1_555
O4 Y0 2.431991 1_555
O4 Y0 2.431991 1_455
O5 Y0 2.431991 1_545
O5 Y0 2.431991 1_555
