# generated using pymatgen
data_Cs3MnCl5
_symmetry_space_group_name_H-M   'P 1'
_cell_length_a   9.27154694
_cell_length_b   9.27154755
_cell_length_c   9.87591288
_cell_angle_alpha   117.99548646
_cell_angle_beta   117.99548458
_cell_angle_gamma   90.00000537
_symmetry_Int_Tables_number   1
_chemical_formula_structural   Cs3MnCl5
_chemical_formula_sum   'Cs6 Mn2 Cl10'
_cell_volume   634.91153070
_cell_formula_units_Z   2
loop_
 _symmetry_equiv_pos_site_id
 _symmetry_equiv_pos_as_xyz
  1  'x, y, z'
loop_
 _atom_site_type_symbol
 _atom_site_label
 _atom_site_symmetry_multiplicity
 _atom_site_fract_x
 _atom_site_fract_y
 _atom_site_fract_z
 _atom_site_occupancy
  Cs  Cs0  1  0.25000000  0.25000000  0.50000000  1
  Cs  Cs1  1  0.75000000  0.75000000  0.50000000  1
  Cs  Cs2  1  0.16224499  0.66224499  0.00000000  1
  Cs  Cs3  1  0.33775501  0.16224499  0.00000000  1
  Cs  Cs4  1  0.66224499  0.83775501  -0.00000000  1
  Cs  Cs5  1  0.83775501  0.33775501  -0.00000000  1
  Mn  Mn0  1  0.25000000  0.75000000  0.50000000  1
  Mn  Mn1  1  0.75000000  0.25000000  0.50000000  1
  Cl  Cl0  1  -0.00000000  -0.00000000  -0.00000000  1
  Cl  Cl1  1  0.50000000  0.50000000  -0.00000000  1
  Cl  Cl2  1  0.79879351  0.29879351  0.31063314  1
  Cl  Cl3  1  0.01183963  0.79879351  0.31063314  1
  Cl  Cl4  1  0.29879351  0.51183963  0.31063314  1
  Cl  Cl5  1  0.98816037  0.20120649  0.68936686  1
  Cl  Cl6  1  0.70120649  0.48816037  0.68936686  1
  Cl  Cl7  1  0.48816037  0.98816037  0.68936686  1
  Cl  Cl8  1  0.20120649  0.70120649  0.68936686  1
  Cl  Cl9  1  0.51183963  0.01183963  0.31063314  1
loop_
_geom_bond_atom_site_label_1
_geom_bond_atom_site_label_2
_geom_bond_distance
_geom_bond_site_symmetry_2
Cl0 Cs4 3.474071 1_445
Cl0 Cs3 3.474071 1_555
Cl0 Cs2 3.474071 1_545
Cl0 Cs5 3.474071 1_455
Cl0 Cs1 3.692996 1_444
Cl0 Cs0 3.692996 1_555
Cl1 Cs4 3.474071 1_555
Cl1 Cs3 3.474071 1_555
Cl1 Cs5 3.474071 1_555
Cl1 Cs2 3.474071 1_555
Cl1 Cs1 3.692996 1_555
Cl1 Cs0 3.692996 1_554
Cl2 Mn1 2.344227 1_555
Cl2 Cs5 3.428269 1_555
Cl2 Cs3 3.650852 1_555
Cl2 Cs4 3.650852 1_545
Cl2 Cs0 3.827832 1_655
Cl2 Cs1 3.827832 1_555
Cl3 Mn0 2.344228 1_555
Cl3 Cs4 3.428269 1_455
Cl3 Cs2 3.650852 1_555
Cl3 Cs5 3.650852 1_455
Cl3 Cs1 3.827831 1_455
Cl3 Cs0 3.827831 1_565
Cl4 Mn0 2.344228 1_555
Cl4 Cs3 3.428269 1_555
Cl4 Cs5 3.650852 1_455
Cl4 Cs2 3.650852 1_555
Cl4 Cs1 3.827831 1_555
Cl4 Cs0 3.827831 1_555
Cl5 Mn1 2.344228 1_555
Cl5 Cs3 3.428269 1_656
Cl5 Cs5 3.650852 1_556
Cl5 Cs2 3.650852 1_656
Cl5 Cs0 3.827831 1_655
Cl5 Cs1 3.827831 1_545
Cl6 Mn1 2.344228 1_555
Cl6 Cs4 3.428269 1_556
Cl6 Cs2 3.650852 1_656
Cl6 Cs5 3.650852 1_556
Cl6 Cs0 3.827831 1_555
Cl6 Cs1 3.827831 1_555
Cl7 Mn0 2.344227 1_555
Cl7 Cs5 3.428269 1_566
Cl7 Cs3 3.650852 1_566
Cl7 Cs4 3.650852 1_556
Cl7 Cs1 3.827832 1_555
Cl7 Cs0 3.827832 1_565
Cl8 Mn0 2.344227 1_555
Cl8 Cs2 3.428269 1_556
Cl8 Cs4 3.650852 1_556
Cl8 Cs3 3.650852 1_566
Cl8 Cs1 3.827832 1_455
Cl8 Cs0 3.827832 1_555
Cl9 Mn1 2.344227 1_555
Cl9 Cs2 3.428269 1_545
Cl9 Cs4 3.650852 1_545
Cl9 Cs3 3.650852 1_555
Cl9 Cs0 3.827832 1_555
Cl9 Cs1 3.827832 1_545
