# generated using pymatgen
data_LiCa2InGe2
_symmetry_space_group_name_H-M   'P 1'
_cell_length_a   4.45844900
_cell_length_b   7.27825700
_cell_length_c   16.96051200
_cell_angle_alpha   90.00000000
_cell_angle_beta   90.00000000
_cell_angle_gamma   90.00000000
_symmetry_Int_Tables_number   1
_chemical_formula_structural   LiCa2InGe2
_chemical_formula_sum   'Li4 Ca8 In4 Ge8'
_cell_volume   550.36416470
_cell_formula_units_Z   4
loop_
 _symmetry_equiv_pos_site_id
 _symmetry_equiv_pos_as_xyz
  1  'x, y, z'
loop_
 _atom_site_type_symbol
 _atom_site_label
 _atom_site_symmetry_multiplicity
 _atom_site_fract_x
 _atom_site_fract_y
 _atom_site_fract_z
 _atom_site_occupancy
  Li  Li0  1  0.25000000  0.98691900  0.06761300  1
  Li  Li1  1  0.75000000  0.51308100  0.56761300  1
  Li  Li2  1  0.25000000  0.48691900  0.43238700  1
  Li  Li3  1  0.75000000  0.01308100  0.93238700  1
  Ca  Ca0  1  0.75000000  0.15740900  0.43767200  1
  Ca  Ca1  1  0.25000000  0.99101300  0.77921000  1
  Ca  Ca2  1  0.25000000  0.34259100  0.93767200  1
  Ca  Ca3  1  0.75000000  0.65740900  0.06232800  1
  Ca  Ca4  1  0.25000000  0.84259100  0.56232800  1
  Ca  Ca5  1  0.75000000  0.00898700  0.22079000  1
  Ca  Ca6  1  0.75000000  0.50898700  0.27921000  1
  Ca  Ca7  1  0.25000000  0.49101300  0.72079000  1
  In  In0  1  0.25000000  0.34057400  0.15308800  1
  In  In1  1  0.75000000  0.15942600  0.65308800  1
  In  In2  1  0.25000000  0.84057400  0.34691200  1
  In  In3  1  0.75000000  0.65942600  0.84691200  1
  Ge  Ge0  1  0.25000000  0.22463300  0.31460100  1
  Ge  Ge1  1  0.25000000  0.27355800  0.56284600  1
  Ge  Ge2  1  0.75000000  0.72644200  0.43715400  1
  Ge  Ge3  1  0.75000000  0.27536700  0.81460100  1
  Ge  Ge4  1  0.75000000  0.77536700  0.68539900  1
  Ge  Ge5  1  0.75000000  0.22644200  0.06284600  1
  Ge  Ge6  1  0.25000000  0.77355800  0.93715400  1
  Ge  Ge7  1  0.25000000  0.72463300  0.18539900  1
loop_
_geom_bond_atom_site_label_1
_geom_bond_atom_site_label_2
_geom_bond_distance
_geom_bond_site_symmetry_2
Ca0 Ge0 3.092871 1_655
Ca0 Ge0 3.092871 1_555
Ca0 Ge2 3.136701 1_545
Ca0 Ge1 3.192377 1_655
Ca0 Ge1 3.192377 1_555
Ca0 In2 3.557621 1_645
Ca0 In2 3.557621 1_545
Ca0 In1 3.653595 1_555
Ca1 Ge3 3.100482 1_565
Ca1 Ge3 3.100482 1_465
Ca1 Ge6 3.111422 1_555
Ca1 Ge4 3.156644 1_555
Ca1 Ge4 3.156644 1_455
Ca1 In1 3.323798 1_465
Ca1 In1 3.323798 1_565
Ca1 In3 3.480277 1_455
Ca1 In3 3.480277 1_555
Ca2 Ge3 3.092871 1_455
Ca2 Ge3 3.092871 1_555
Ca2 Ge6 3.136701 1_555
Ca2 Ge5 3.192377 1_456
Ca2 Ge5 3.192377 1_556
Ca2 In3 3.557621 1_555
Ca2 In3 3.557621 1_455
Ca2 In0 3.653595 1_556
Ca3 Ge7 3.092871 1_555
Ca3 Ge7 3.092871 1_655
Ca3 Ge5 3.136701 1_555
Ca3 Ge6 3.192377 1_554
Ca3 Ge6 3.192377 1_654
Ca3 In0 3.557621 1_555
Ca3 In0 3.557621 1_655
Ca3 In3 3.653595 1_554
Ca4 Ge4 3.092871 1_555
Ca4 Ge4 3.092871 1_455
Ca4 Ge1 3.136701 1_565
Ca4 Ge2 3.192377 1_555
Ca4 Ge2 3.192377 1_455
Ca4 In1 3.557621 1_465
Ca4 In1 3.557621 1_565
Ca4 In2 3.653595 1_555
Ca5 Ge7 3.100482 1_545
Ca5 Ge7 3.100482 1_645
Ca5 Ge5 3.111422 1_555
Ca5 Ge0 3.156644 1_655
Ca5 Ge0 3.156644 1_555
Ca5 In2 3.323798 1_545
Ca5 In2 3.323798 1_645
Ca5 In0 3.480277 1_555
Ca5 In0 3.480277 1_655
Ca6 Ge0 3.100482 1_655
Ca6 Ge0 3.100482 1_555
Ca6 Ge2 3.111422 1_555
Ca6 Ge7 3.156644 1_655
Ca6 Ge7 3.156644 1_555
Ca6 In0 3.323798 1_655
Ca6 In0 3.323798 1_555
Ca6 In2 3.480277 1_655
Ca6 In2 3.480277 1_555
Ca7 Ge4 3.100482 1_555
Ca7 Ge4 3.100482 1_455
Ca7 Ge1 3.111422 1_555
Ca7 Ge3 3.156644 1_455
Ca7 Ge3 3.156644 1_555
Ca7 In3 3.323798 1_455
Ca7 In3 3.323798 1_555
Ca7 In1 3.480277 1_455
Ca7 In1 3.480277 1_555
In0 Li0 2.954160 1_545
In1 Li1 2.954160 1_555
In2 Li2 2.954160 1_555
In3 Li3 2.954160 1_565
Ge0 Li2 2.763163 1_555
Ge0 In2 2.848492 1_545
Ge0 In0 2.866371 1_555
Ge1 Li2 2.703204 1_555
Ge1 In1 2.828791 1_455
Ge1 In1 2.828791 1_555
Ge1 Li1 2.831097 1_455
Ge1 Li1 2.831097 1_555
Ge2 Li1 2.703204 1_555
Ge2 In2 2.828791 1_655
Ge2 In2 2.828791 1_555
Ge2 Li2 2.831097 1_555
Ge2 Li2 2.831097 1_655
Ge3 Li3 2.763163 1_555
Ge3 In3 2.848492 1_555
Ge3 In1 2.866371 1_555
Ge4 Li1 2.763163 1_555
Ge4 In1 2.848492 1_565
Ge4 In3 2.866371 1_555
Ge5 Li3 2.703204 1_554
Ge5 In0 2.828791 1_655
Ge5 In0 2.828791 1_555
Ge5 Li0 2.831097 1_645
Ge5 Li0 2.831097 1_545
Ge6 Li0 2.703204 1_556
Ge6 In3 2.828791 1_555
Ge6 In3 2.828791 1_455
Ge6 Li3 2.831097 1_565
Ge6 Li3 2.831097 1_465
Ge7 Li0 2.763163 1_555
Ge7 In0 2.848492 1_555
Ge7 In2 2.866371 1_555
