# generated using pymatgen
data_CoCuO2
_symmetry_space_group_name_H-M   'P 1'
_cell_length_a   2.86777831
_cell_length_b   2.86777831
_cell_length_c   5.90270304
_cell_angle_alpha   75.94100327
_cell_angle_beta   75.94100327
_cell_angle_gamma   59.99999292
_symmetry_Int_Tables_number   1
_chemical_formula_structural   CoCuO2
_chemical_formula_sum   'Co1 Cu1 O2'
_cell_volume   40.35317998
_cell_formula_units_Z   1
loop_
 _symmetry_equiv_pos_site_id
 _symmetry_equiv_pos_as_xyz
  1  'x, y, z'
loop_
 _atom_site_type_symbol
 _atom_site_label
 _atom_site_symmetry_multiplicity
 _atom_site_fract_x
 _atom_site_fract_y
 _atom_site_fract_z
 _atom_site_occupancy
  Co  Co0  1  0.50000000  0.50000000  0.50000000  1
  Cu  Cu0  1  0.00000000  0.00000000  0.00000000  1
  O  O0  1  0.89100500  0.89100500  0.32698500  1
  O  O1  1  0.10899500  0.10899500  0.67301500  1
loop_
_geom_bond_atom_site_label_1
_geom_bond_atom_site_label_2
_geom_bond_distance
_geom_bond_site_symmetry_2
Co0 O0 1.924133 1_545
Co0 O0 1.924133 1_455
Co0 O1 1.924133 1_565
Co0 O1 1.924133 1_655
Co0 O1 1.924133 1_555
Co0 O0 1.924133 1_555
Cu0 O1 1.852609 1_554
Cu0 O0 1.852609 1_445
