# generated using pymatgen
data_Y2CrS4
_symmetry_space_group_name_H-M   'P 1'
_cell_length_a   7.52054500
_cell_length_b   12.58420600
_cell_length_c   12.58706000
_cell_angle_alpha   90.00000000
_cell_angle_beta   90.00000000
_cell_angle_gamma   90.00000000
_symmetry_Int_Tables_number   1
_chemical_formula_structural   Y2CrS4
_chemical_formula_sum   'Y16 Cr8 S32'
_cell_volume   1191.24045992
_cell_formula_units_Z   8
loop_
 _symmetry_equiv_pos_site_id
 _symmetry_equiv_pos_as_xyz
  1  'x, y, z'
loop_
 _atom_site_type_symbol
 _atom_site_label
 _atom_site_symmetry_multiplicity
 _atom_site_fract_x
 _atom_site_fract_y
 _atom_site_fract_z
 _atom_site_occupancy
  Y  Y0  1  0.36874100  0.63458900  0.50665400  1
  Y  Y1  1  0.86850900  0.63505800  0.50760300  1
  Y  Y2  1  0.36874100  0.86541100  0.00665400  1
  Y  Y3  1  0.63125900  0.36541100  0.00665400  1
  Y  Y4  1  0.13149100  0.13505800  0.50760300  1
  Y  Y5  1  0.63125900  0.13458900  0.50665400  1
  Y  Y6  1  0.38512500  0.12629500  0.17432600  1
  Y  Y7  1  0.61487500  0.87370500  0.67432600  1
  Y  Y8  1  0.11324500  0.89130900  0.31409200  1
  Y  Y9  1  0.11324500  0.60869100  0.81409200  1
  Y  Y10  1  0.88675500  0.39130900  0.31409200  1
  Y  Y11  1  0.61487500  0.62629500  0.17432600  1
  Y  Y12  1  0.38512500  0.37370500  0.67432600  1
  Y  Y13  1  0.88675500  0.10869100  0.81409200  1
  Y  Y14  1  0.13149100  0.36494200  0.00760300  1
  Y  Y15  1  0.86850900  0.86494200  0.00760300  1
  Cr  Cr0  1  0.11936600  0.62607700  0.17813200  1
  Cr  Cr1  1  0.11936600  0.87392300  0.67813200  1
  Cr  Cr2  1  0.38408300  0.38769900  0.30619700  1
  Cr  Cr3  1  0.88063400  0.12607700  0.17813200  1
  Cr  Cr4  1  0.61591700  0.61230100  0.80619700  1
  Cr  Cr5  1  0.38408300  0.11230100  0.80619700  1
  Cr  Cr6  1  0.61591700  0.88769900  0.30619700  1
  Cr  Cr7  1  0.88063400  0.37392300  0.67813200  1
  S  S0  1  0.14087400  0.23011300  0.72899800  1
  S  S1  1  0.38595100  0.02643300  0.36984200  1
  S  S2  1  0.61786400  0.70978800  0.97588600  1
  S  S3  1  0.11502900  0.99084200  0.12105700  1
  S  S4  1  0.11502900  0.50915800  0.62105700  1
  S  S5  1  0.85912600  0.73011300  0.72899800  1
  S  S6  1  0.37397700  0.47271900  0.13339600  1
  S  S7  1  0.61786400  0.79021200  0.47588600  1
  S  S8  1  0.11791500  0.79188100  0.50410000  1
  S  S9  1  0.61404900  0.97356700  0.86984200  1
  S  S10  1  0.37397700  0.02728100  0.63339600  1
  S  S11  1  0.12401300  0.95055700  0.85921300  1
  S  S12  1  0.38595100  0.47356700  0.86984200  1
  S  S13  1  0.38213600  0.20978800  0.97588600  1
  S  S14  1  0.88497100  0.49084200  0.12105700  1
  S  S15  1  0.88208500  0.29188100  0.50410000  1
  S  S16  1  0.64357500  0.26243900  0.22350300  1
  S  S17  1  0.88497100  0.00915800  0.62105700  1
  S  S18  1  0.87598700  0.04944300  0.35921300  1
  S  S19  1  0.85912600  0.76988700  0.22899800  1
  S  S20  1  0.11791500  0.70811900  0.00410000  1
  S  S21  1  0.38213600  0.29021200  0.47588600  1
  S  S22  1  0.88208500  0.20811900  0.00410000  1
  S  S23  1  0.61404900  0.52643300  0.36984200  1
  S  S24  1  0.14087400  0.26988700  0.22899800  1
  S  S25  1  0.87598700  0.45055700  0.85921300  1
  S  S26  1  0.35642500  0.76243900  0.22350300  1
  S  S27  1  0.35642500  0.73756100  0.72350300  1
  S  S28  1  0.64357500  0.23756100  0.72350300  1
  S  S29  1  0.62602300  0.52728100  0.63339600  1
  S  S30  1  0.62602300  0.97271900  0.13339600  1
  S  S31  1  0.12401300  0.54944300  0.35921300  1
loop_
_geom_bond_atom_site_label_1
_geom_bond_atom_site_label_2
_geom_bond_distance
_geom_bond_site_symmetry_2
Cr0 S20 2.421684 1_555
Cr0 S31 2.475147 1_555
Cr0 S26 2.539536 1_555
Cr0 S14 2.553371 1_455
Cr0 S19 2.741439 1_455
Cr0 S6 2.776339 1_555
Cr1 S8 2.421684 1_555
Cr1 S11 2.475147 1_555
Cr1 S27 2.539536 1_555
Cr1 S17 2.553371 1_465
Cr1 S5 2.741439 1_455
Cr1 S10 2.776339 1_565
Cr2 S6 2.425150 1_555
Cr2 S21 2.463179 1_555
Cr2 S24 2.547098 1_555
Cr2 S23 2.584734 1_555
Cr2 S16 2.715984 1_555
Cr2 S31 2.900632 1_555
Cr3 S22 2.421684 1_555
Cr3 S18 2.475147 1_555
Cr3 S16 2.539536 1_555
Cr3 S3 2.553371 1_645
Cr3 S24 2.741439 1_655
Cr3 S30 2.776339 1_545
Cr4 S29 2.425150 1_555
Cr4 S2 2.463179 1_555
Cr4 S5 2.547098 1_555
Cr4 S12 2.584734 1_555
Cr4 S27 2.715984 1_555
Cr4 S25 2.900632 1_555
Cr5 S10 2.425150 1_555
Cr5 S13 2.463179 1_555
Cr5 S0 2.547098 1_555
Cr5 S9 2.584734 1_545
Cr5 S28 2.715984 1_555
Cr5 S11 2.900632 1_545
Cr6 S30 2.425150 1_555
Cr6 S7 2.463179 1_555
Cr6 S19 2.547098 1_555
Cr6 S1 2.584734 1_565
Cr6 S26 2.715984 1_555
Cr6 S18 2.900632 1_565
Cr7 S15 2.421684 1_555
Cr7 S25 2.475147 1_555
Cr7 S28 2.539536 1_555
Cr7 S4 2.553371 1_655
Cr7 S0 2.741439 1_655
Cr7 S29 2.776339 1_555
S0 Y12 2.667018 1_555
S0 Y13 2.671022 1_455
S0 Y4 3.033417 1_555
S1 Y8 2.755007 1_545
S1 Y6 2.763272 1_555
S1 Y5 2.867306 1_555
S1 Y4 2.921903 1_555
S2 Y11 2.709861 1_556
S2 Y2 2.737780 1_556
S2 Y15 2.743132 1_556
S3 Y8 2.733624 1_555
S3 Y6 2.735174 1_565
S3 Y15 2.826073 1_455
S3 Y2 2.864570 1_555
S4 Y9 2.733624 1_555
S4 Y12 2.735174 1_555
S4 Y1 2.826073 1_455
S4 Y0 2.864570 1_555
S5 Y7 2.667018 1_555
S5 Y9 2.671022 1_655
S5 Y1 3.033417 1_555
S6 Y11 2.698645 1_555
S6 Y14 2.769869 1_555
S6 Y3 2.848227 1_555
S7 Y7 2.709861 1_555
S7 Y0 2.737780 1_555
S7 Y1 2.743132 1_555
S8 Y8 2.699397 1_555
S8 Y1 2.723004 1_455
S8 Y0 2.734474 1_555
S9 Y13 2.755007 1_565
S9 Y7 2.763272 1_555
S9 Y2 2.867306 1_556
S9 Y15 2.921903 1_556
S10 Y7 2.698645 1_545
S10 Y4 2.769869 1_555
S10 Y5 2.848227 1_555
S11 Y13 2.732468 1_465
S11 Y2 2.824831 1_556
S11 Y15 2.888202 1_456
S12 Y9 2.755007 1_555
S12 Y12 2.763272 1_555
S12 Y3 2.867306 1_556
S12 Y14 2.921903 1_556
S13 Y6 2.709861 1_556
S13 Y3 2.737780 1_556
S13 Y14 2.743132 1_556
S14 Y10 2.733624 1_555
S14 Y11 2.735174 1_555
S14 Y14 2.826073 1_655
S14 Y3 2.864570 1_555
S15 Y10 2.699397 1_555
S15 Y4 2.723004 1_655
S15 Y5 2.734474 1_555
S16 Y6 2.663895 1_555
S16 Y10 2.697192 1_555
S16 Y3 3.022888 1_555
S17 Y13 2.733624 1_555
S17 Y7 2.735174 1_545
S17 Y4 2.826073 1_655
S17 Y5 2.864570 1_555
S18 Y8 2.732468 1_645
S18 Y5 2.824831 1_555
S18 Y4 2.888202 1_655
S19 Y11 2.667018 1_555
S19 Y8 2.671022 1_655
S19 Y15 3.033417 1_555
S20 Y9 2.699397 1_554
S20 Y15 2.723004 1_455
S20 Y2 2.734474 1_555
S21 Y12 2.709861 1_555
S21 Y5 2.737780 1_555
S21 Y4 2.743132 1_555
S22 Y13 2.699397 1_554
S22 Y14 2.723004 1_655
S22 Y3 2.734474 1_555
S23 Y10 2.755007 1_555
S23 Y11 2.763272 1_555
S23 Y0 2.867306 1_555
S23 Y1 2.921903 1_555
S24 Y6 2.667018 1_555
S24 Y10 2.671022 1_455
S24 Y14 3.033417 1_555
S25 Y9 2.732468 1_655
S25 Y3 2.824831 1_556
S25 Y14 2.888202 1_656
S26 Y11 2.663895 1_555
S26 Y8 2.697192 1_555
S26 Y2 3.022888 1_555
S27 Y7 2.663895 1_555
S27 Y9 2.697192 1_555
S27 Y0 3.022888 1_555
S28 Y12 2.663895 1_555
S28 Y13 2.697192 1_555
S28 Y5 3.022888 1_555
S29 Y12 2.698645 1_555
S29 Y1 2.769869 1_555
S29 Y0 2.848227 1_555
S30 Y6 2.698645 1_565
S30 Y15 2.769869 1_555
S30 Y2 2.848227 1_555
S31 Y10 2.732468 1_455
S31 Y0 2.824831 1_555
S31 Y1 2.888202 1_455
