# generated using pymatgen
data_LiMnPO4
_symmetry_space_group_name_H-M   'P 1'
_cell_length_a   10.23785899
_cell_length_b   10.23785899
_cell_length_c   16.77392969
_cell_angle_alpha   82.09663781
_cell_angle_beta   82.09663781
_cell_angle_gamma   59.06917418
_symmetry_Int_Tables_number   1
_chemical_formula_structural   LiMnPO4
_chemical_formula_sum   'Li16 Mn16 P16 O64'
_cell_volume   1489.15854664
_cell_formula_units_Z   16
loop_
 _symmetry_equiv_pos_site_id
 _symmetry_equiv_pos_as_xyz
  1  'x, y, z'
loop_
 _atom_site_type_symbol
 _atom_site_label
 _atom_site_symmetry_multiplicity
 _atom_site_fract_x
 _atom_site_fract_y
 _atom_site_fract_z
 _atom_site_occupancy
  Li  Li0  1  0.19800900  0.81504300  0.00311200  1
  Li  Li1  1  0.81504300  0.19800900  0.50311200  1
  Li  Li2  1  0.70421200  0.57494900  0.25246600  1
  Li  Li3  1  0.25731100  0.07339400  0.25103900  1
  Li  Li4  1  0.14076200  0.31505200  0.00172600  1
  Li  Li5  1  0.57494900  0.70421200  0.75246600  1
  Li  Li6  1  0.70030100  0.81302000  0.00376100  1
  Li  Li7  1  0.07339400  0.25731100  0.75103900  1
  Li  Li8  1  0.31505200  0.14076200  0.50172600  1
  Li  Li9  1  0.81302000  0.70030100  0.50376100  1
  Li  Li10  1  0.20508900  0.56748300  0.25209700  1
  Li  Li11  1  0.75754000  0.07907000  0.25341100  1
  Li  Li12  1  0.64012500  0.31491400  0.00299400  1
  Li  Li13  1  0.56748300  0.20508900  0.75209700  1
  Li  Li14  1  0.07907000  0.75754000  0.75341100  1
  Li  Li15  1  0.31491400  0.64012500  0.50299400  1
  Mn  Mn0  1  0.88546100  0.26755000  0.12822300  1
  Mn  Mn1  1  0.44416100  0.76948300  0.12776900  1
  Mn  Mn2  1  0.26755000  0.88546100  0.62822300  1
  Mn  Mn3  1  0.76948300  0.44416100  0.62776900  1
  Mn  Mn4  1  0.00392800  0.32622500  0.37874900  1
  Mn  Mn5  1  0.51085400  0.88033700  0.37839900  1
  Mn  Mn6  1  0.32622500  0.00392800  0.87874900  1
  Mn  Mn7  1  0.88033700  0.51085400  0.87839900  1
  Mn  Mn8  1  0.38323100  0.27058300  0.12751500  1
  Mn  Mn9  1  0.94451100  0.76790900  0.12955900  1
  Mn  Mn10  1  0.27058300  0.38323100  0.62751500  1
  Mn  Mn11  1  0.76790900  0.94451100  0.62955900  1
  Mn  Mn12  1  0.00886400  0.82641400  0.37970400  1
  Mn  Mn13  1  0.50465300  0.38115400  0.37898700  1
  Mn  Mn14  1  0.82641400  0.00886400  0.87970400  1
  Mn  Mn15  1  0.38115400  0.50465300  0.87898700  1
  P  P0  1  0.10048100  0.91376400  0.19091300  1
  P  P1  1  0.91376400  0.10048100  0.69091300  1
  P  P2  1  0.17014800  0.98257100  0.43942500  1
  P  P3  1  0.66658800  0.53632400  0.44089700  1
  P  P4  1  0.98257100  0.17014800  0.93942500  1
  P  P5  1  0.53632400  0.66658800  0.94089700  1
  P  P6  1  0.04530200  0.41520000  0.18898100  1
  P  P7  1  0.60166900  0.91647200  0.19090500  1
  P  P8  1  0.41520000  0.04530200  0.68898100  1
  P  P9  1  0.91647200  0.60166900  0.69090500  1
  P  P10  1  0.16646400  0.48227400  0.43966300  1
  P  P11  1  0.66810200  0.03809400  0.44149700  1
  P  P12  1  0.48227400  0.16646400  0.93966300  1
  P  P13  1  0.03809400  0.66810200  0.94149700  1
  P  P14  1  0.54631600  0.41659900  0.18955600  1
  P  P15  1  0.41659900  0.54631600  0.68955600  1
  O  O0  1  0.95310500  0.07000500  0.20510500  1
  O  O1  1  0.53645900  0.56883900  0.20260600  1
  O  O2  1  0.41621900  0.74800300  0.01153300  1
  O  O3  1  0.50975500  0.55341200  0.43086900  1
  O  O4  1  0.24153000  0.93473600  0.18331100  1
  O  O5  1  0.07000500  0.95310500  0.70510500  1
  O  O6  1  0.98966700  0.24330800  0.01310300  1
  O  O7  1  0.00897300  0.12528700  0.42959400  1
  O  O8  1  0.56883900  0.53645900  0.70260600  1
  O  O9  1  0.74800300  0.41621900  0.51153300  1
  O  O10  1  0.55341200  0.50975500  0.93086900  1
  O  O11  1  0.77234400  0.47740900  0.36218200  1
  O  O12  1  0.27809800  0.98000500  0.36364400  1
  O  O13  1  0.93473600  0.24153000  0.68331100  1
  O  O14  1  0.88394500  0.44611900  0.17649100  1
  O  O15  1  0.24330800  0.98966700  0.51310300  1
  O  O16  1  0.12528700  0.00897300  0.92959400  1
  O  O17  1  0.64307400  0.69311100  0.45734100  1
  O  O18  1  0.60075800  0.84661700  0.11413100  1
  O  O19  1  0.11146900  0.29678900  0.26257500  1
  O  O20  1  0.60925200  0.80283700  0.26485000  1
  O  O21  1  0.47740900  0.77234400  0.86218200  1
  O  O22  1  0.98000500  0.27809800  0.86364400  1
  O  O23  1  0.44611900  0.88394500  0.67649100  1
  O  O24  1  0.15530500  0.34516000  0.11303300  1
  O  O25  1  0.45168100  0.07167800  0.20342000  1
  O  O26  1  0.69311100  0.64307400  0.95734100  1
  O  O27  1  0.14758800  0.33958200  0.45216000  1
  O  O28  1  0.84661700  0.60075800  0.61413100  1
  O  O29  1  0.29678900  0.11146900  0.76257500  1
  O  O30  1  0.80283700  0.60925200  0.76485000  1
  O  O31  1  0.03595100  0.56615900  0.20416200  1
  O  O32  1  0.91854200  0.74528400  0.01305000  1
  O  O33  1  0.34516000  0.15530500  0.61303300  1
  O  O34  1  0.51234500  0.05461100  0.42909000  1
  O  O35  1  0.48656000  0.24526600  0.01177300  1
  O  O36  1  0.07167800  0.45168100  0.70342000  1
  O  O37  1  0.74102300  0.94023400  0.18228300  1
  O  O38  1  0.00716700  0.62834200  0.43110200  1
  O  O39  1  0.33958200  0.14758800  0.95216000  1
  O  O40  1  0.56615900  0.03595100  0.70416200  1
  O  O41  1  0.74528400  0.91854200  0.51305000  1
  O  O42  1  0.05461100  0.51234500  0.92909000  1
  O  O43  1  0.27223400  0.47704500  0.36221200  1
  O  O44  1  0.77850800  0.97885700  0.36431800  1
  O  O45  1  0.24526600  0.48656000  0.51177300  1
  O  O46  1  0.38570200  0.44587600  0.17667700  1
  O  O47  1  0.94023400  0.74102300  0.68228300  1
  O  O48  1  0.62834200  0.00716700  0.93110200  1
  O  O49  1  0.64190300  0.19579500  0.45802600  1
  O  O50  1  0.09700600  0.85019400  0.11233100  1
  O  O51  1  0.10740200  0.79558000  0.26195800  1
  O  O52  1  0.61039600  0.30415600  0.26560800  1
  O  O53  1  0.47704500  0.27223400  0.86221200  1
  O  O54  1  0.97885700  0.77850800  0.86431800  1
  O  O55  1  0.44587600  0.38570200  0.67667700  1
  O  O56  1  0.65720500  0.34162000  0.11480600  1
  O  O57  1  0.19579500  0.64190300  0.95802600  1
  O  O58  1  0.15547700  0.83736000  0.45081300  1
  O  O59  1  0.85019400  0.09700600  0.61233100  1
  O  O60  1  0.79558000  0.10740200  0.76195800  1
  O  O61  1  0.30415600  0.61039600  0.76560800  1
  O  O62  1  0.34162000  0.65720500  0.61480600  1
  O  O63  1  0.83736000  0.15547700  0.95081300  1
loop_
_geom_bond_atom_site_label_1
_geom_bond_atom_site_label_2
_geom_bond_distance
_geom_bond_site_symmetry_2
Li0 O50 1.957780 1_555
Li0 O2 1.991400 1_555
Li0 O16 2.019050 1_564
Li0 O57 2.032039 1_554
Li1 O59 1.957780 1_555
Li1 O9 1.991400 1_555
Li1 O7 2.019050 1_655
Li1 O49 2.032039 1_555
Li2 O11 2.000567 1_555
Li2 O14 2.017927 1_555
Li2 O1 2.042743 1_555
Li2 O20 2.043920 1_555
Li3 O12 1.982885 1_545
Li3 O19 2.007319 1_555
Li3 O4 2.015354 1_545
Li3 O25 2.031985 1_555
Li4 O24 1.971033 1_555
Li4 O6 2.004263 1_455
Li4 O39 2.028045 1_554
Li4 O42 2.032133 1_554
Li5 O21 2.000567 1_555
Li5 O23 2.017927 1_555
Li5 O8 2.042743 1_555
Li5 O30 2.043920 1_555
Li6 O18 1.969837 1_555
Li6 O32 1.992627 1_555
Li6 O48 2.013530 1_564
Li6 O26 2.039335 1_554
Li7 O22 1.982885 1_455
Li7 O29 2.007319 1_555
Li7 O13 2.015354 1_455
Li7 O36 2.031985 1_555
Li8 O33 1.971033 1_555
Li8 O15 2.004263 1_545
Li8 O27 2.028045 1_555
Li8 O34 2.032133 1_555
Li9 O28 1.969837 1_555
Li9 O41 1.992627 1_555
Li9 O38 2.013530 1_655
Li9 O17 2.039335 1_555
Li10 O43 1.991488 1_555
Li10 O46 1.998212 1_555
Li10 O31 2.013750 1_555
Li10 O51 2.034871 1_555
Li11 O44 1.979420 1_545
Li11 O0 2.014288 1_555
Li11 O52 2.024280 1_555
Li11 O37 2.059451 1_545
Li12 O56 1.975675 1_555
Li12 O63 2.006599 1_554
Li12 O10 2.010489 1_554
Li12 O35 2.015377 1_555
Li13 O53 1.991488 1_555
Li13 O55 1.998212 1_555
Li13 O40 2.013750 1_555
Li13 O60 2.034871 1_555
Li14 O54 1.979420 1_455
Li14 O5 2.014288 1_555
Li14 O61 2.024280 1_555
Li14 O47 2.059451 1_455
Li15 O62 1.975675 1_555
Li15 O58 2.006599 1_555
Li15 O3 2.010489 1_555
Li15 O45 2.015377 1_555
Mn0 O6 2.054664 1_555
Mn0 O0 2.078817 1_555
Mn0 O56 2.088676 1_555
Mn0 O14 2.091023 1_555
Mn1 O2 2.065823 1_555
Mn1 O1 2.076045 1_555
Mn1 O4 2.080340 1_555
Mn1 O18 2.096951 1_555
Mn2 O15 2.054664 1_555
Mn2 O5 2.078817 1_555
Mn2 O62 2.088676 1_555
Mn2 O23 2.091023 1_555
Mn3 O9 2.065823 1_555
Mn3 O8 2.076045 1_555
Mn3 O13 2.080340 1_555
Mn3 O28 2.096951 1_555
Mn4 O19 2.081057 1_555
Mn4 O7 2.093421 1_555
Mn4 O11 2.093945 1_455
Mn4 O27 2.109340 1_555
Mn5 O20 2.082873 1_555
Mn5 O34 2.086944 1_565
Mn5 O12 2.091389 1_555
Mn5 O17 2.094632 1_555
Mn6 O29 2.081057 1_555
Mn6 O16 2.093421 1_555
Mn6 O21 2.093945 1_545
Mn6 O39 2.109340 1_555
Mn7 O30 2.082873 1_555
Mn7 O42 2.086944 1_655
Mn7 O22 2.091389 1_555
Mn7 O26 2.094632 1_555
Mn8 O35 2.060873 1_555
Mn8 O25 2.079498 1_555
Mn8 O24 2.088161 1_555
Mn8 O46 2.088239 1_555
Mn9 O32 2.067454 1_555
Mn9 O31 2.081388 1_655
Mn9 O37 2.092561 1_555
Mn9 O50 2.095620 1_655
Mn10 O45 2.060873 1_555
Mn10 O36 2.079498 1_555
Mn10 O33 2.088161 1_555
Mn10 O55 2.088239 1_555
Mn11 O41 2.067454 1_555
Mn11 O40 2.081388 1_565
Mn11 O47 2.092561 1_555
Mn11 O59 2.095620 1_565
Mn12 O51 2.077108 1_555
Mn12 O44 2.082562 1_455
Mn12 O58 2.095310 1_555
Mn12 O38 2.099289 1_555
Mn13 O52 2.092623 1_555
Mn13 O3 2.097492 1_555
Mn13 O43 2.100382 1_555
Mn13 O49 2.100615 1_555
Mn14 O60 2.077108 1_555
Mn14 O54 2.082562 1_545
Mn14 O63 2.095310 1_555
Mn14 O48 2.099289 1_555
Mn15 O61 2.092623 1_555
Mn15 O10 2.097492 1_555
Mn15 O53 2.100382 1_555
Mn15 O57 2.100615 1_555
O0 P0 1.554580 1_645
O1 P14 1.553522 1_555
O2 P5 1.558168 1_554
O3 P3 1.553827 1_555
O4 P0 1.551829 1_555
O5 P1 1.554580 1_465
O6 P4 1.558476 1_554
O7 P2 1.553998 1_545
O8 P15 1.553522 1_555
O9 P3 1.558168 1_555
O10 P5 1.553827 1_555
O11 P3 1.560114 1_555
O12 P2 1.559139 1_555
O13 P1 1.551829 1_555
O14 P6 1.553194 1_655
O15 P2 1.558476 1_555
O16 P4 1.553998 1_455
O17 P3 1.554620 1_555
O18 P7 1.559942 1_555
O19 P6 1.557756 1_555
O20 P7 1.560367 1_555
O21 P5 1.560114 1_555
O22 P4 1.559139 1_555
O23 P8 1.553194 1_565
O24 P6 1.559464 1_555
O25 P7 1.556161 1_545
O26 P5 1.554620 1_555
O27 P10 1.552502 1_555
O28 P9 1.559942 1_555
O29 P8 1.557756 1_555
O30 P9 1.560367 1_555
O31 P6 1.553060 1_555
O32 P13 1.557429 1_654
O33 P8 1.559464 1_555
O34 P11 1.555345 1_555
O35 P12 1.560511 1_554
O36 P9 1.556161 1_455
O37 P7 1.551099 1_555
O38 P10 1.553975 1_555
O39 P12 1.552502 1_555
O40 P8 1.553060 1_555
O41 P11 1.557429 1_565
O42 P13 1.555345 1_555
O43 P10 1.560741 1_555
O44 P11 1.558909 1_565
O45 P10 1.560511 1_555
O46 P14 1.553573 1_555
O47 P9 1.551099 1_555
O48 P12 1.553975 1_555
O49 P11 1.553372 1_555
O50 P0 1.560421 1_555
O51 P0 1.558113 1_555
O52 P14 1.559779 1_555
O53 P12 1.560741 1_555
O54 P13 1.558909 1_655
O55 P15 1.553573 1_555
O56 P14 1.558071 1_555
O57 P13 1.553372 1_555
O58 P2 1.553299 1_555
O59 P1 1.560421 1_555
O60 P1 1.558113 1_555
O61 P15 1.559779 1_555
O62 P15 1.558071 1_555
O63 P4 1.553299 1_555
