# generated using pymatgen
data_Sn4SI6
_symmetry_space_group_name_H-M   'P 1'
_cell_length_a   7.66384538
_cell_length_b   7.66384538
_cell_length_c   25.76732842
_cell_angle_alpha   86.30191539
_cell_angle_beta   86.30191539
_cell_angle_gamma   33.82485316
_symmetry_Int_Tables_number   1
_chemical_formula_structural   Sn4SI6
_chemical_formula_sum   'Sn8 S2 I12'
_cell_volume   840.54437559
_cell_formula_units_Z   2
loop_
 _symmetry_equiv_pos_site_id
 _symmetry_equiv_pos_as_xyz
  1  'x, y, z'
loop_
 _atom_site_type_symbol
 _atom_site_label
 _atom_site_symmetry_multiplicity
 _atom_site_fract_x
 _atom_site_fract_y
 _atom_site_fract_z
 _atom_site_occupancy
  Sn  Sn0  1  0.70467800  0.70467800  0.85643000  1
  Sn  Sn1  1  0.29532200  0.29532200  0.14357000  1
  Sn  Sn2  1  0.77857200  0.77857200  0.41687000  1
  Sn  Sn3  1  0.22142800  0.22142800  0.58313000  1
  Sn  Sn4  1  0.63286400  0.63286400  0.01672100  1
  Sn  Sn5  1  0.36713600  0.36713600  0.98327900  1
  Sn  Sn6  1  0.46446300  0.46446300  0.71633600  1
  Sn  Sn7  1  0.53553700  0.53553700  0.28366400  1
  S  S0  1  0.22400300  0.22400300  0.05143300  1
  S  S1  1  0.77599700  0.77599700  0.94856700  1
  I  I0  1  0.07101300  0.07101300  0.91912500  1
  I  I1  1  0.92898700  0.92898700  0.08087500  1
  I  I2  1  0.85388600  0.85388600  0.52534200  1
  I  I3  1  0.14611400  0.14611400  0.47465800  1
  I  I4  1  0.82346300  0.82346300  0.68163800  1
  I  I5  1  0.17653700  0.17653700  0.31836200  1
  I  I6  1  0.56556400  0.56556400  0.60238200  1
  I  I7  1  0.43443600  0.43443600  0.39761800  1
  I  I8  1  0.09892300  0.09892300  0.75238100  1
  I  I9  1  0.90107700  0.90107700  0.24761900  1
  I  I10  1  0.35731400  0.35731400  0.83418100  1
  I  I11  1  0.64268600  0.64268600  0.16581900  1
loop_
_geom_bond_atom_site_label_1
_geom_bond_atom_site_label_2
_geom_bond_distance
_geom_bond_site_symmetry_2
S0 Sn5 2.644410 1_554
S0 Sn1 2.658028 1_555
S0 Sn4 2.778152 1_545
S0 Sn4 2.778152 1_455
S1 Sn4 2.644410 1_556
S1 Sn0 2.658028 1_555
S1 Sn5 2.778152 1_565
S1 Sn5 2.778152 1_655
I0 Sn0 3.315976 1_455
I0 Sn0 3.315976 1_545
I1 Sn1 3.315976 1_565
I1 Sn1 3.315976 1_655
I2 Sn2 3.073804 1_555
I2 Sn3 3.251316 1_655
I2 Sn3 3.251316 1_565
I3 Sn3 3.073804 1_555
I3 Sn2 3.251316 1_455
I3 Sn2 3.251316 1_545
I4 Sn6 3.208545 1_565
I4 Sn6 3.208545 1_655
I5 Sn7 3.208545 1_455
I5 Sn7 3.208545 1_545
I6 Sn6 3.198907 1_555
I6 Sn3 3.207537 1_565
I6 Sn3 3.207537 1_655
I7 Sn7 3.198907 1_555
I7 Sn2 3.207537 1_545
I7 Sn2 3.207537 1_455
I8 Sn6 3.157257 1_455
I8 Sn6 3.157257 1_545
I9 Sn7 3.157257 1_655
I9 Sn7 3.157257 1_565
I10 Sn0 3.183799 1_545
I10 Sn0 3.183799 1_455
I10 Sn6 3.323606 1_555
I11 Sn1 3.183799 1_655
I11 Sn1 3.183799 1_565
I11 Sn7 3.323606 1_555
