# generated using pymatgen
data_Tb5BiAu2
_symmetry_space_group_name_H-M   'P 1'
_cell_length_a   10.24351106
_cell_length_b   10.24351106
_cell_length_c   10.24351106
_cell_angle_alpha   137.18093589
_cell_angle_beta   137.18093589
_cell_angle_gamma   62.15977814
_symmetry_Int_Tables_number   1
_chemical_formula_structural   Tb5BiAu2
_chemical_formula_sum   'Tb10 Bi2 Au4'
_cell_volume   490.64659094
_cell_formula_units_Z   2
loop_
 _symmetry_equiv_pos_site_id
 _symmetry_equiv_pos_as_xyz
  1  'x, y, z'
loop_
 _atom_site_type_symbol
 _atom_site_label
 _atom_site_symmetry_multiplicity
 _atom_site_fract_x
 _atom_site_fract_y
 _atom_site_fract_z
 _atom_site_occupancy
  Tb  Tb0  1  0.50062800  0.32807400  0.50000000  1
  Tb  Tb1  1  0.82807400  0.00062800  0.50000000  1
  Tb  Tb2  1  0.67192600  0.17192600  0.17255400  1
  Tb  Tb3  1  0.99937200  0.49937200  0.82744600  1
  Tb  Tb4  1  0.32807400  0.82807400  0.82744600  1
  Tb  Tb5  1  0.17192600  0.99937200  0.50000000  1
  Tb  Tb6  1  0.50000000  0.50000000  0.00000000  1
  Tb  Tb7  1  0.49937200  0.67192600  0.50000000  1
  Tb  Tb8  1  0.00062800  0.50062800  0.17255400  1
  Tb  Tb9  1  0.00000000  0.00000000  0.00000000  1
  Bi  Bi0  1  0.75000000  0.75000000  0.00000000  1
  Bi  Bi1  1  0.25000000  0.25000000  0.00000000  1
  Au  Au0  1  0.62662500  0.87337500  0.50000000  1
  Au  Au1  1  0.87337500  0.37337500  0.24675000  1
  Au  Au2  1  0.12662500  0.62662500  0.75325000  1
  Au  Au3  1  0.37337500  0.12662500  0.50000000  1
loop_
_geom_bond_atom_site_label_1
_geom_bond_atom_site_label_2
_geom_bond_distance
_geom_bond_site_symmetry_2
Tb0 Tb1 3.463092 1_555
Tb0 Tb7 3.516262 1_555
Tb0 Tb3 3.876878 1_555
Tb0 Tb2 3.876878 1_555
Tb0 Tb8 3.955613 1_656
Tb0 Tb4 3.955613 1_555
Tb0 Tb4 3.955613 1_544
Tb0 Tb8 3.955613 1_555
Tb0 Tb6 4.017368 1_556
Tb0 Tb9 4.017368 1_555
Tb1 Tb5 3.516262 1_645
Tb1 Tb3 3.876878 1_555
Tb1 Tb2 3.876878 1_555
Tb1 Tb8 3.955613 1_656
Tb1 Tb4 3.955613 1_645
Tb1 Tb4 3.955613 1_544
Tb1 Tb8 3.955613 1_645
Tb1 Tb6 4.017368 1_545
Tb1 Tb9 4.017368 1_656
Tb2 Tb3 3.463092 1_555
Tb2 Tb4 3.516262 1_544
Tb2 Tb5 3.955613 1_544
Tb2 Tb7 3.955613 1_544
Tb2 Tb7 3.955613 1_555
Tb2 Tb5 3.955613 1_645
Tb2 Tb6 4.017368 1_555
Tb2 Tb9 4.017368 1_655
Tb3 Tb8 3.516262 1_656
Tb3 Tb7 3.955613 1_555
Tb3 Tb5 3.955613 1_656
Tb3 Tb7 3.955613 1_656
Tb3 Tb5 3.955613 1_645
Tb3 Tb9 4.017368 1_666
Tb3 Tb6 4.017368 1_656
Tb4 Tb8 3.463092 1_555
Tb4 Tb5 3.876878 1_555
Tb4 Tb7 3.876878 1_555
Tb4 Tb6 4.017368 1_556
Tb4 Tb9 4.017368 1_566
Tb5 Tb7 3.463092 1_555
Tb5 Tb8 3.876878 1_555
Tb5 Tb9 4.017368 1_565
Tb5 Tb6 4.017368 1_566
Tb6 Tb7 4.017368 1_555
Tb6 Tb8 4.017368 1_655
Tb7 Tb8 3.876878 1_555
Tb7 Tb9 4.017368 1_666
Tb8 Tb9 4.017368 1_555
Bi0 Tb3 3.175194 1_554
Bi0 Tb8 3.175194 1_655
Bi0 Tb5 3.175194 1_655
Bi0 Tb1 3.175194 1_565
Bi0 Tb4 3.175194 1_554
Bi0 Tb7 3.175194 1_554
Bi0 Tb0 3.175194 1_554
Bi0 Tb2 3.175194 1_565
Bi1 Tb8 3.175194 1_555
Bi1 Tb5 3.175194 1_544
Bi1 Tb1 3.175194 1_454
Bi1 Tb7 3.175194 1_555
Bi1 Tb4 3.175194 1_544
Bi1 Tb3 3.175194 1_454
Bi1 Tb0 3.175194 1_555
Bi1 Tb2 3.175194 1_555
Au0 Au3 2.678390 1_565
Au0 Tb7 2.910284 1_555
Au0 Tb1 2.910284 1_565
Au0 Tb6 2.948456 1_555
Au0 Tb9 2.948456 1_666
Au1 Au2 2.678390 1_655
Au1 Tb2 2.910284 1_555
Au1 Tb8 2.910284 1_655
Au1 Tb9 2.948456 1_655
Au1 Tb6 2.948456 1_555
Au2 Tb4 2.910284 1_555
Au2 Tb3 2.910284 1_455
Au2 Tb9 2.948456 1_566
Au2 Tb6 2.948456 1_556
Au3 Tb5 2.910284 1_545
Au3 Tb0 2.910284 1_555
Au3 Tb9 2.948456 1_555
Au3 Tb6 2.948456 1_556
