# generated using pymatgen
data_LiMgBi
_symmetry_space_group_name_H-M   'P 1'
_cell_length_a   4.79474792
_cell_length_b   4.79474852
_cell_length_c   4.79474891
_cell_angle_alpha   60.00000431
_cell_angle_beta   60.00000014
_cell_angle_gamma   60.00000430
_symmetry_Int_Tables_number   1
_chemical_formula_structural   LiMgBi
_chemical_formula_sum   'Li1 Mg1 Bi1'
_cell_volume   77.94396843
_cell_formula_units_Z   1
loop_
 _symmetry_equiv_pos_site_id
 _symmetry_equiv_pos_as_xyz
  1  'x, y, z'
loop_
 _atom_site_type_symbol
 _atom_site_label
 _atom_site_symmetry_multiplicity
 _atom_site_fract_x
 _atom_site_fract_y
 _atom_site_fract_z
 _atom_site_occupancy
  Li  Li0  1  0.00000000  0.00000000  -0.00000000  1
  Mg  Mg0  1  0.50000000  0.50000000  0.50000000  1
  Bi  Bi0  1  0.25000000  0.25000000  0.25000000  1
loop_
_geom_bond_atom_site_label_1
_geom_bond_atom_site_label_2
_geom_bond_distance
_geom_bond_site_symmetry_2
Bi0 Li0 2.936172 1_655
Bi0 Mg0 2.936172 1_455
Bi0 Mg0 2.936172 1_555
Bi0 Li0 2.936172 1_555
Bi0 Mg0 2.936172 1_545
Bi0 Li0 2.936172 1_565
Bi0 Li0 2.936172 1_556
Bi0 Mg0 2.936172 1_554
