# generated using pymatgen
data_CaB4O7
_symmetry_space_group_name_H-M   'P 1'
_cell_length_a   9.89362301
_cell_length_b   7.80850471
_cell_length_c   14.40785690
_cell_angle_alpha   58.47597013
_cell_angle_beta   90.00000000
_cell_angle_gamma   90.00000000
_symmetry_Int_Tables_number   1
_chemical_formula_structural   CaB4O7
_chemical_formula_sum   'Ca8 B32 O56'
_cell_volume   948.80450286
_cell_formula_units_Z   8
loop_
 _symmetry_equiv_pos_site_id
 _symmetry_equiv_pos_as_xyz
  1  'x, y, z'
loop_
 _atom_site_type_symbol
 _atom_site_label
 _atom_site_symmetry_multiplicity
 _atom_site_fract_x
 _atom_site_fract_y
 _atom_site_fract_z
 _atom_site_occupancy
  Ca  Ca0  1  0.11710394  0.48384894  0.84707960  1
  Ca  Ca1  1  0.91923240  0.86138581  0.43530020  1
  Ca  Ca2  1  0.88289606  0.51615106  0.15292040  1
  Ca  Ca3  1  0.41923240  0.13861419  0.06469980  1
  Ca  Ca4  1  0.58076760  0.86138581  0.93530020  1
  Ca  Ca5  1  0.38289606  0.48384894  0.34707960  1
  Ca  Ca6  1  0.61710394  0.51615106  0.65292040  1
  Ca  Ca7  1  0.08076760  0.13861419  0.56469980  1
  B  B0  1  0.67242059  0.22452394  0.36740466  1
  B  B1  1  0.56932052  0.41696331  0.18059308  1
  B  B2  1  0.17242059  0.77547606  0.13259534  1
  B  B3  1  0.70991832  0.37528892  0.04956039  1
  B  B4  1  0.20991832  0.62471108  0.45043961  1
  B  B5  1  0.29008168  0.62471108  0.95043961  1
  B  B6  1  0.43067948  0.58303669  0.81940692  1
  B  B7  1  0.91521948  0.20924996  0.03440046  1
  B  B8  1  0.41521948  0.79075004  0.46559954  1
  B  B9  1  0.39214949  0.19782750  0.65293367  1
  B  B10  1  0.06932052  0.58303669  0.31940692  1
  B  B11  1  0.10812695  0.27656449  0.30158221  1
  B  B12  1  0.32099639  0.27479315  0.20902544  1
  B  B13  1  0.39187305  0.27656449  0.80158221  1
  B  B14  1  0.60812695  0.72343551  0.19841779  1
  B  B15  1  0.08478052  0.79075004  0.96559954  1
  B  B16  1  0.32757941  0.77547606  0.63259534  1
  B  B17  1  0.89187305  0.72343551  0.69841779  1
  B  B18  1  0.10785051  0.19782750  0.15293367  1
  B  B19  1  0.67900361  0.72520685  0.79097456  1
  B  B20  1  0.82099639  0.72520685  0.29097456  1
  B  B21  1  0.93067948  0.41696331  0.68059308  1
  B  B22  1  0.79008168  0.37528892  0.54956039  1
  B  B23  1  0.82757941  0.22452394  0.86740466  1
  B  B24  1  0.60785051  0.80217250  0.34706633  1
  B  B25  1  0.70743223  0.06364569  0.04125049  1
  B  B26  1  0.20743223  0.93635431  0.45874951  1
  B  B27  1  0.17900361  0.27479315  0.70902544  1
  B  B28  1  0.58478052  0.20924996  0.53440046  1
  B  B29  1  0.79256777  0.06364569  0.54125049  1
  B  B30  1  0.89214949  0.80217250  0.84706633  1
  B  B31  1  0.29256777  0.93635431  0.95874951  1
  O  O0  1  0.55458433  0.81074958  0.43041717  1
  O  O1  1  0.42337536  0.71915056  0.58452261  1
  O  O2  1  0.71906688  0.11223385  0.92701881  1
  O  O3  1  0.02528448  0.42822820  0.30174133  1
  O  O4  1  0.05458433  0.18925042  0.06958283  1
  O  O5  1  0.74815563  0.81705290  0.33707253  1
  O  O6  1  0.67013495  0.28210321  0.26019176  1
  O  O7  1  0.33560447  0.96818536  0.40777329  1
  O  O8  1  0.65194385  0.37847721  0.54252660  1
  O  O9  1  0.14824899  0.49025640  0.42682449  1
  O  O10  1  0.52528448  0.57177180  0.19825867  1
  O  O11  1  0.03756299  0.23038971  0.22417819  1
  O  O12  1  0.04715492  0.30134214  0.67843892  1
  O  O13  1  0.38974586  0.10009096  0.91022432  1
  O  O14  1  0.74936104  0.65214973  0.73743694  1
  O  O15  1  0.16439553  0.96818536  0.90777329  1
  O  O16  1  0.15194385  0.62152279  0.95747340  1
  O  O17  1  0.25184437  0.18294710  0.66292747  1
  O  O18  1  0.35175101  0.49025640  0.92682449  1
  O  O19  1  0.46243701  0.23038971  0.72417819  1
  O  O20  1  0.47471552  0.42822820  0.80174133  1
  O  O21  1  0.95284508  0.69865786  0.32156108  1
  O  O22  1  0.36276804  0.75857985  0.96245379  1
  O  O23  1  0.24815563  0.18294710  0.16292747  1
  O  O24  1  0.32986505  0.71789679  0.73980824  1
  O  O25  1  0.88974586  0.89990904  0.58977568  1
  O  O26  1  0.78093312  0.11223385  0.42701881  1
  O  O27  1  0.63723196  0.24142015  0.03754621  1
  O  O28  1  0.07662464  0.71915056  0.08452261  1
  O  O29  1  0.45284508  0.30134214  0.17843892  1
  O  O30  1  0.97471552  0.57177180  0.69825867  1
  O  O31  1  0.75063896  0.65214973  0.23743694  1
  O  O32  1  0.83560447  0.03181464  0.09222671  1
  O  O33  1  0.82986505  0.28210321  0.76019176  1
  O  O34  1  0.66439553  0.03181464  0.59222671  1
  O  O35  1  0.96243701  0.76961029  0.77582181  1
  O  O36  1  0.25063896  0.34785027  0.26256306  1
  O  O37  1  0.17013495  0.71789679  0.23980824  1
  O  O38  1  0.57662464  0.28084944  0.41547739  1
  O  O39  1  0.44541567  0.18925042  0.56958283  1
  O  O40  1  0.61025414  0.89990904  0.08977568  1
  O  O41  1  0.11025414  0.10009096  0.41022432  1
  O  O42  1  0.54715492  0.69865786  0.82156108  1
  O  O43  1  0.94541567  0.81074958  0.93041717  1
  O  O44  1  0.92337536  0.28084944  0.91547739  1
  O  O45  1  0.75184437  0.81705290  0.83707253  1
  O  O46  1  0.53756299  0.76961029  0.27582181  1
  O  O47  1  0.34805615  0.62152279  0.45747340  1
  O  O48  1  0.64824899  0.50974360  0.07317551  1
  O  O49  1  0.21906688  0.88776615  0.57298119  1
  O  O50  1  0.85175101  0.50974360  0.57317551  1
  O  O51  1  0.86276804  0.24142015  0.53754621  1
  O  O52  1  0.24936104  0.34785027  0.76256306  1
  O  O53  1  0.13723196  0.75857985  0.46245379  1
  O  O54  1  0.28093312  0.88776615  0.07298119  1
  O  O55  1  0.84805615  0.37847721  0.04252660  1
loop_
_geom_bond_atom_site_label_1
_geom_bond_atom_site_label_2
_geom_bond_distance
_geom_bond_site_symmetry_2
Ca0 O30 2.348204 1_455
Ca0 O44 2.350302 1_455
Ca0 O16 2.364813 1_555
Ca0 O52 2.382216 1_555
Ca0 O35 2.445203 1_455
Ca0 O18 2.602329 1_555
Ca0 O24 2.684388 1_555
Ca0 O4 2.870506 1_556
Ca1 O53 2.262935 1_655
Ca1 O26 2.340668 1_565
Ca1 O5 2.345182 1_555
Ca1 O25 2.414386 1_555
Ca1 O50 2.495486 1_555
Ca1 O41 2.544067 1_665
Ca1 O21 2.566729 1_555
Ca2 O3 2.348204 1_655
Ca2 O28 2.350302 1_655
Ca2 O55 2.364813 1_555
Ca2 O31 2.382216 1_555
Ca2 O11 2.445203 1_655
Ca2 O48 2.602329 1_555
Ca2 O6 2.684388 1_555
Ca2 O43 2.870506 1_554
Ca3 O27 2.262935 1_555
Ca3 O54 2.340668 1_545
Ca3 O23 2.345182 1_555
Ca3 O13 2.414386 1_554
Ca3 O18 2.495486 1_554
Ca3 O40 2.544067 1_545
Ca3 O29 2.566729 1_555
Ca4 O22 2.262935 1_555
Ca4 O2 2.340668 1_565
Ca4 O45 2.345182 1_555
Ca4 O40 2.414386 1_556
Ca4 O48 2.495486 1_556
Ca4 O13 2.544067 1_565
Ca4 O42 2.566729 1_555
Ca5 O10 2.348204 1_555
Ca5 O38 2.350302 1_555
Ca5 O47 2.364813 1_555
Ca5 O36 2.382216 1_555
Ca5 O46 2.445203 1_555
Ca5 O9 2.602329 1_555
Ca5 O37 2.684388 1_555
Ca5 O39 2.870506 1_555
Ca6 O20 2.348204 1_555
Ca6 O1 2.350302 1_555
Ca6 O8 2.364813 1_555
Ca6 O14 2.382216 1_555
Ca6 O19 2.445203 1_555
Ca6 O50 2.602329 1_555
Ca6 O33 2.684388 1_555
Ca6 O0 2.870506 1_555
Ca7 O51 2.262935 1_455
Ca7 O49 2.340668 1_545
Ca7 O17 2.345182 1_555
Ca7 O41 2.414386 1_555
Ca7 O9 2.495486 1_555
Ca7 O25 2.544067 1_445
Ca7 O12 2.566729 1_555
B0 O6 1.364742 1_555
B0 O26 1.368058 1_555
B0 O38 1.374769 1_555
B1 O10 1.427440 1_555
B1 O6 1.468377 1_555
B1 O29 1.474214 1_555
B1 O48 1.535383 1_555
B2 O37 1.364742 1_555
B2 O54 1.368058 1_555
B2 O28 1.374769 1_555
B3 O27 1.352409 1_555
B3 O55 1.369699 1_555
B3 O48 1.401372 1_555
B4 O53 1.352409 1_555
B4 O47 1.369699 1_555
B4 O9 1.401372 1_555
B5 O22 1.352409 1_555
B5 O16 1.369699 1_555
B5 O18 1.401372 1_555
B6 O20 1.427440 1_555
B6 O24 1.468377 1_555
B6 O42 1.474214 1_555
B6 O18 1.535383 1_555
B7 O32 1.423764 1_555
B7 O4 1.449038 1_655
B7 O44 1.501059 1_554
B7 O55 1.537259 1_555
B8 O7 1.423764 1_555
B8 O0 1.449038 1_555
B8 O1 1.501059 1_555
B8 O47 1.537259 1_555
B9 O39 1.344802 1_555
B9 O19 1.369239 1_555
B9 O17 1.394142 1_555
B10 O3 1.427440 1_555
B10 O37 1.468377 1_555
B10 O21 1.474214 1_455
B10 O9 1.535383 1_555
B11 O3 1.441213 1_555
B11 O41 1.447032 1_555
B11 O11 1.510497 1_555
B11 O36 1.512165 1_555
B12 O29 1.357669 1_555
B12 O36 1.365696 1_555
B12 O23 1.404610 1_555
B13 O20 1.441213 1_555
B13 O13 1.447032 1_555
B13 O19 1.510497 1_555
B13 O52 1.512165 1_555
B14 O10 1.441213 1_555
B14 O40 1.447032 1_555
B14 O46 1.510497 1_555
B14 O31 1.512165 1_555
B15 O15 1.423764 1_555
B15 O43 1.449038 1_455
B15 O28 1.501059 1_556
B15 O16 1.537259 1_555
B16 O24 1.364742 1_555
B16 O49 1.368058 1_555
B16 O1 1.374769 1_555
B17 O30 1.441213 1_555
B17 O25 1.447032 1_555
B17 O35 1.510497 1_555
B17 O14 1.512165 1_555
B18 O4 1.344802 1_555
B18 O11 1.369239 1_555
B18 O23 1.394142 1_555
B19 O42 1.357669 1_555
B19 O14 1.365696 1_555
B19 O45 1.404610 1_555
B20 O21 1.357669 1_555
B20 O31 1.365696 1_555
B20 O5 1.404610 1_555
B21 O30 1.427440 1_555
B21 O33 1.468377 1_555
B21 O12 1.474214 1_655
B21 O50 1.535383 1_555
B22 O51 1.352409 1_555
B22 O8 1.369699 1_555
B22 O50 1.401372 1_555
B23 O33 1.364742 1_555
B23 O2 1.368058 1_555
B23 O44 1.374769 1_555
B24 O0 1.344802 1_555
B24 O46 1.369239 1_555
B24 O5 1.394142 1_555
B25 O32 1.420689 1_555
B25 O40 1.453648 1_545
B25 O2 1.487612 1_554
B25 O27 1.527980 1_555
B26 O7 1.420689 1_555
B26 O41 1.453648 1_565
B26 O49 1.487612 1_555
B26 O53 1.527980 1_555
B27 O12 1.357669 1_555
B27 O52 1.365696 1_555
B27 O17 1.404610 1_555
B28 O34 1.423764 1_555
B28 O39 1.449038 1_555
B28 O38 1.501059 1_555
B28 O8 1.537259 1_555
B29 O34 1.420689 1_555
B29 O25 1.453648 1_545
B29 O26 1.487612 1_555
B29 O51 1.527980 1_555
B30 O43 1.344802 1_555
B30 O35 1.369239 1_555
B30 O45 1.394142 1_555
B31 O15 1.420689 1_555
B31 O13 1.453648 1_565
B31 O54 1.487612 1_556
B31 O22 1.527980 1_555
