# generated using pymatgen
data_CsK2CoO2
_symmetry_space_group_name_H-M   'P 1'
_cell_length_a   6.14385599
_cell_length_b   9.65138427
_cell_length_c   9.65693059
_cell_angle_alpha   75.09866503
_cell_angle_beta   99.83114901
_cell_angle_gamma   86.37250289
_symmetry_Int_Tables_number   1
_chemical_formula_structural   CsK2CoO2
_chemical_formula_sum   'Cs4 K8 Co4 O8'
_cell_volume   541.77582599
_cell_formula_units_Z   4
loop_
 _symmetry_equiv_pos_site_id
 _symmetry_equiv_pos_as_xyz
  1  'x, y, z'
loop_
 _atom_site_type_symbol
 _atom_site_label
 _atom_site_symmetry_multiplicity
 _atom_site_fract_x
 _atom_site_fract_y
 _atom_site_fract_z
 _atom_site_occupancy
  Cs  Cs0  1  0.74999046  0.50000244  0.24999034  1
  Cs  Cs1  1  0.50000000  0.00000000  0.50000000  1
  Cs  Cs2  1  0.25000954  0.49999756  0.75000966  1
  Cs  Cs3  1  0.00000000  0.00000000  0.00000000  1
  K  K0  1  0.31260415  0.37504712  0.43751689  1
  K  K1  1  0.06267199  0.87501500  0.68748729  1
  K  K2  1  0.81259202  0.37505094  0.93752660  1
  K  K3  1  0.56267268  0.87501712  0.18748809  1
  K  K4  1  0.18740798  0.62494906  0.06247340  1
  K  K5  1  0.93732801  0.12498500  0.31251271  1
  K  K6  1  0.68739585  0.62495288  0.56248311  1
  K  K7  1  0.43732732  0.12498288  0.81251191  1
  Co  Co0  1  0.12499167  0.75001229  0.37501647  1
  Co  Co1  1  0.87500833  0.24998771  0.62498353  1
  Co  Co2  1  0.37500907  0.24999120  0.12498076  1
  Co  Co3  1  0.62499093  0.75000980  0.87501924  1
  O  O0  1  0.34852656  0.66066040  0.33033480  1
  O  O1  1  0.09854706  0.16058495  0.58034240  1
  O  O2  1  0.84852681  0.66065738  0.83034240  1
  O  O3  1  0.59854535  0.16059066  0.08034003  1
  O  O4  1  0.15147319  0.33934262  0.16965760  1
  O  O5  1  0.90145294  0.83941505  0.41965760  1
  O  O6  1  0.65147344  0.33933960  0.66966520  1
  O  O7  1  0.40145465  0.83940934  0.91965997  1
loop_
_geom_bond_atom_site_label_1
_geom_bond_atom_site_label_2
_geom_bond_distance
_geom_bond_site_symmetry_2
Cs0 O0 3.142989 1_555
Cs0 O4 3.143033 1_655
Cs1 O5 3.142568 1_545
Cs1 O1 3.142568 1_555
Cs2 O6 3.142989 1_555
Cs2 O2 3.143033 1_455
Cs3 O3 3.142593 1_455
Cs3 O7 3.142593 1_544
K0 O6 2.719772 1_555
K0 O0 2.721443 1_555
K0 O1 2.722470 1_555
K0 O4 2.723404 1_555
K1 O7 2.719731 1_555
K1 O1 2.720949 1_565
K1 O2 2.722250 1_455
K1 O5 2.722857 1_455
K2 O4 2.719705 1_656
K2 O2 2.721401 1_555
K2 O3 2.722372 1_556
K2 O6 2.723433 1_555
K3 O5 2.719706 1_555
K3 O3 2.720982 1_565
K3 O0 2.722216 1_555
K3 O7 2.722871 1_554
K4 O2 2.719705 1_454
K4 O4 2.721401 1_555
K4 O7 2.722372 1_554
K4 O0 2.723433 1_555
K5 O3 2.719731 1_555
K5 O5 2.720949 1_545
K5 O4 2.722250 1_655
K5 O1 2.722857 1_655
K6 O0 2.719772 1_555
K6 O6 2.721443 1_555
K6 O5 2.722470 1_555
K6 O2 2.723404 1_555
K7 O1 2.719706 1_555
K7 O7 2.720982 1_545
K7 O6 2.722216 1_555
K7 O3 2.722871 1_556
Co0 O0 1.749249 1_555
Co0 O5 1.749318 1_455
Co1 O6 1.749249 1_555
Co1 O1 1.749318 1_655
Co2 O4 1.749228 1_555
Co2 O3 1.749293 1_555
Co3 O2 1.749232 1_555
Co3 O7 1.749288 1_555
