# generated using pymatgen
data_KBi(PS3)2
_symmetry_space_group_name_H-M   'P 1'
_cell_length_a   7.57116300
_cell_length_b   6.75892600
_cell_length_c   10.05756110
_cell_angle_alpha   87.78096277
_cell_angle_beta   90.00000000
_cell_angle_gamma   90.00000000
_symmetry_Int_Tables_number   1
_chemical_formula_structural   KBi(PS3)2
_chemical_formula_sum   'K2 Bi2 P4 S12'
_cell_volume   514.28892332
_cell_formula_units_Z   2
loop_
 _symmetry_equiv_pos_site_id
 _symmetry_equiv_pos_as_xyz
  1  'x, y, z'
loop_
 _atom_site_type_symbol
 _atom_site_label
 _atom_site_symmetry_multiplicity
 _atom_site_fract_x
 _atom_site_fract_y
 _atom_site_fract_z
 _atom_site_occupancy
  K  K0  1  0.47519500  0.70164600  0.49805600  1
  K  K1  1  0.97519500  0.29835400  0.50194400  1
  Bi  Bi0  1  0.22799500  0.21058900  0.98241900  1
  Bi  Bi1  1  0.72799500  0.78941100  0.01758100  1
  P  P0  1  0.68447100  0.31233300  0.82836700  1
  P  P1  1  0.95922000  0.79608000  0.29771000  1
  P  P2  1  0.18447100  0.68766700  0.17163300  1
  P  P3  1  0.45922000  0.20392000  0.70229000  1
  S  S0  1  0.77190700  0.57223800  0.75001100  1
  S  S1  1  0.53979000  0.17728100  0.51685400  1
  S  S2  1  0.76852900  0.58856600  0.26910400  1
  S  S3  1  0.57013700  0.34469000  0.01396100  1
  S  S4  1  0.37979900  0.95244400  0.80956200  1
  S  S5  1  0.26852900  0.41143400  0.73089600  1
  S  S6  1  0.07013700  0.65531000  0.98603900  1
  S  S7  1  0.87979900  0.04755600  0.19043800  1
  S  S8  1  0.03979000  0.82271900  0.48314600  1
  S  S9  1  0.37184800  0.90875700  0.16994500  1
  S  S10  1  0.87184800  0.09124300  0.83005500  1
  S  S11  1  0.27190700  0.42776200  0.24998900  1
loop_
_geom_bond_atom_site_label_1
_geom_bond_atom_site_label_2
_geom_bond_distance
_geom_bond_site_symmetry_2
K0 S1 3.264477 1_565
K0 S2 3.309860 1_555
K0 S5 3.379967 1_555
K0 S8 3.398484 1_555
K0 S0 3.472949 1_555
K0 S11 3.518258 1_555
K0 S1 3.575471 1_555
K0 S9 3.619953 1_555
K0 S4 3.690800 1_555
K1 S8 3.264477 1_645
K1 S5 3.309860 1_655
K1 S2 3.379967 1_555
K1 S1 3.398484 1_555
K1 S11 3.472949 1_655
K1 S0 3.518258 1_555
K1 S8 3.575471 1_655
K1 S10 3.619953 1_555
K1 S7 3.690800 1_555
Bi0 S4 2.760903 1_545
Bi0 S3 2.766707 1_556
Bi0 S5 2.840857 1_555
Bi0 S9 2.933820 1_546
Bi0 S11 3.132581 1_556
Bi0 S10 3.219552 1_455
Bi0 S6 3.236245 1_555
Bi1 S7 2.760903 1_565
Bi1 S6 2.766707 1_654
Bi1 S2 2.840857 1_555
Bi1 S10 2.933820 1_564
Bi1 S0 3.132581 1_554
Bi1 S9 3.219552 1_555
Bi1 S3 3.236245 1_555
P0 S0 2.009478 1_555
P0 S10 2.060085 1_555
P0 S3 2.076790 1_556
P0 P3 2.263892 1_555
P1 S8 1.977090 1_655
P1 S2 2.040993 1_555
P1 S7 2.067023 1_565
P1 P2 2.263892 1_655
P2 S11 2.009478 1_555
P2 S9 2.060085 1_555
P2 S6 2.076790 1_554
P3 S1 1.977090 1_555
P3 S5 2.040993 1_555
P3 S4 2.067023 1_545
