# generated using pymatgen
data_Sc3Re2Si3
_symmetry_space_group_name_H-M   'P 1'
_cell_length_a   10.08384094
_cell_length_b   10.08384094
_cell_length_c   13.74180467
_cell_angle_alpha   52.76446174
_cell_angle_beta   52.76446174
_cell_angle_gamma   30.35080372
_symmetry_Int_Tables_number   1
_chemical_formula_structural   Sc3Re2Si3
_chemical_formula_sum   'Sc12 Re8 Si12'
_cell_volume   550.05626057
_cell_formula_units_Z   4
loop_
 _symmetry_equiv_pos_site_id
 _symmetry_equiv_pos_as_xyz
  1  'x, y, z'
loop_
 _atom_site_type_symbol
 _atom_site_label
 _atom_site_symmetry_multiplicity
 _atom_site_fract_x
 _atom_site_fract_y
 _atom_site_fract_z
 _atom_site_occupancy
  Sc  Sc0  1  0.20452000  0.06150700  0.52253200  1
  Sc  Sc1  1  0.93849300  0.79548000  0.97746800  1
  Sc  Sc2  1  0.79548000  0.93849300  0.47746800  1
  Sc  Sc3  1  0.06150700  0.20452000  0.02253200  1
  Sc  Sc4  1  0.24877100  0.42785200  0.35392600  1
  Sc  Sc5  1  0.57214800  0.75122900  0.14607400  1
  Sc  Sc6  1  0.95439100  0.18754400  0.35802700  1
  Sc  Sc7  1  0.81245600  0.04560900  0.14197300  1
  Sc  Sc8  1  0.75122900  0.57214800  0.64607400  1
  Sc  Sc9  1  0.42785200  0.24877100  0.85392600  1
  Sc  Sc10  1  0.04560900  0.81245600  0.64197300  1
  Sc  Sc11  1  0.18754400  0.95439100  0.85802700  1
  Re  Re0  1  0.63863400  0.42498100  0.57705800  1
  Re  Re1  1  0.57501900  0.36136600  0.92294200  1
  Re  Re2  1  0.42498100  0.63863400  0.07705800  1
  Re  Re3  1  0.36136600  0.57501900  0.42294200  1
  Re  Re4  1  0.58100300  0.91160500  0.75495600  1
  Re  Re5  1  0.08839500  0.41899700  0.74504400  1
  Re  Re6  1  0.91160500  0.58100300  0.25495600  1
  Re  Re7  1  0.41899700  0.08839500  0.24504400  1
  Si  Si0  1  0.85906200  0.14093800  0.75000000  1
  Si  Si1  1  0.34846500  0.65153500  0.75000000  1
  Si  Si2  1  0.65153500  0.34846500  0.25000000  1
  Si  Si3  1  0.14093800  0.85906200  0.25000000  1
  Si  Si4  1  0.48445400  0.73300200  0.38440900  1
  Si  Si5  1  0.26699800  0.51554600  0.11559100  1
  Si  Si6  1  0.69694900  0.85416500  0.38372000  1
  Si  Si7  1  0.14583500  0.30305100  0.11628000  1
  Si  Si8  1  0.51554600  0.26699800  0.61559100  1
  Si  Si9  1  0.73300200  0.48445400  0.88440900  1
  Si  Si10  1  0.30305100  0.14583500  0.61628000  1
  Si  Si11  1  0.85416500  0.69694900  0.88372000  1
loop_
_geom_bond_atom_site_label_1
_geom_bond_atom_site_label_2
_geom_bond_distance
_geom_bond_site_symmetry_2
Sc0 Si4 2.744203 1_545
Sc0 Si0 2.753917 1_455
Sc0 Si10 2.775399 1_555
Sc0 Si6 2.848233 1_545
Sc0 Si1 2.909308 1_545
Sc1 Si5 2.744203 1_656
Sc1 Si0 2.753917 1_565
Sc1 Si11 2.775399 1_555
Sc1 Si7 2.848233 1_656
Sc1 Si1 2.909308 1_655
Sc2 Si8 2.744203 1_565
Sc2 Si3 2.753917 1_655
Sc2 Si6 2.775399 1_555
Sc2 Si10 2.848233 1_565
Sc2 Si2 2.909308 1_565
Sc3 Si9 2.744203 1_454
Sc3 Si3 2.753917 1_545
Sc3 Si7 2.775399 1_555
Sc3 Si11 2.848233 1_454
Sc3 Si2 2.909308 1_455
Sc4 Si5 2.754899 1_555
Sc4 Si6 2.774738 1_455
Sc4 Si2 2.815724 1_555
Sc4 Si6 2.882463 1_545
Sc4 Si3 2.886715 1_555
Sc4 Si10 2.945940 1_555
Sc5 Si4 2.754899 1_555
Sc5 Si7 2.774738 1_565
Sc5 Si2 2.815724 1_555
Sc5 Si7 2.882463 1_655
Sc5 Si3 2.886715 1_555
Sc5 Si11 2.945940 1_554
Sc6 Si7 2.748888 1_655
Sc6 Si4 2.785831 1_645
Sc6 Si2 2.860382 1_555
Sc6 Si4 2.861808 1_555
Sc6 Si3 2.920846 1_645
Sc6 Si8 3.333148 1_555
Sc7 Si6 2.748888 1_545
Sc7 Si5 2.785831 1_645
Sc7 Si2 2.860382 1_555
Sc7 Si5 2.861808 1_555
Sc7 Si3 2.920846 1_645
Sc7 Si9 3.333148 1_554
Sc8 Si9 2.754899 1_555
Sc8 Si10 2.774738 1_655
Sc8 Si1 2.815724 1_555
Sc8 Si10 2.882463 1_565
Sc8 Si0 2.886715 1_555
Sc8 Si6 2.945940 1_555
Sc9 Si8 2.754899 1_555
Sc9 Si11 2.774738 1_545
Sc9 Si1 2.815724 1_555
Sc9 Si11 2.882463 1_455
Sc9 Si0 2.886715 1_555
Sc9 Si7 2.945940 1_556
Sc10 Si11 2.748888 1_455
Sc10 Si8 2.785831 1_465
Sc10 Si1 2.860382 1_555
Sc10 Si8 2.861808 1_555
Sc10 Si0 2.920846 1_465
Sc10 Si4 3.333148 1_555
Sc11 Si10 2.748888 1_565
Sc11 Si9 2.785831 1_465
Sc11 Si1 2.860382 1_555
Sc11 Si9 2.861808 1_555
Sc11 Si0 2.920846 1_465
Sc11 Si5 3.333148 1_556
Re0 Si4 2.401791 1_555
Re0 Si8 2.440344 1_555
Re0 Si0 2.441224 1_555
Re0 Si1 2.459015 1_555
Re0 Sc0 2.934197 1_655
Re0 Sc6 2.982618 1_555
Re0 Sc10 3.042837 1_555
Re0 Sc10 3.130872 1_645
Re0 Sc8 3.210183 1_555
Re0 Sc0 3.252444 1_565
Re0 Sc9 3.271215 1_555
Re1 Si5 2.401791 1_556
Re1 Si9 2.440344 1_555
Re1 Si0 2.441224 1_555
Re1 Si1 2.459015 1_555
Re1 Sc1 2.934197 1_545
Re1 Sc7 2.982618 1_556
Re1 Sc11 3.042837 1_555
Re1 Sc11 3.130872 1_645
Re1 Sc9 3.210183 1_555
Re1 Sc1 3.252444 1_455
Re1 Sc8 3.271215 1_555
Re2 Si9 2.401791 1_554
Re2 Si5 2.440344 1_555
Re2 Si3 2.441224 1_555
Re2 Si2 2.459015 1_555
Re2 Sc3 2.934197 1_565
Re2 Sc11 2.982618 1_554
Re2 Sc7 3.042837 1_555
Re2 Sc7 3.130872 1_465
Re2 Sc5 3.210183 1_555
Re2 Sc3 3.252444 1_655
Re2 Sc4 3.271215 1_555
Re3 Si8 2.401791 1_555
Re3 Si4 2.440344 1_555
Re3 Si3 2.441224 1_555
Re3 Si2 2.459015 1_555
Re3 Sc2 2.934197 1_455
Re3 Sc10 2.982618 1_555
Re3 Sc6 3.042837 1_555
Re3 Sc6 3.130872 1_465
Re3 Sc4 3.210183 1_555
Re3 Sc2 3.252444 1_545
Re3 Sc5 3.271215 1_555
Re4 Si8 2.467360 1_565
Re4 Si11 2.525201 1_555
Re4 Si10 2.580171 1_565
Re4 Si9 2.588306 1_555
Re4 Re5 2.642475 1_655
Re4 Re5 2.642475 1_565
Re4 Sc11 2.986359 1_555
Re4 Sc2 3.011957 1_555
Re4 Sc9 3.128281 1_565
Re4 Sc8 3.138697 1_555
Re4 Sc10 3.217299 1_655
Re4 Sc3 3.579768 1_566
Re5 Si9 2.467360 1_455
Re5 Si10 2.525201 1_555
Re5 Si11 2.580171 1_455
Re5 Si8 2.588306 1_555
Re5 Sc10 2.986359 1_555
Re5 Sc3 3.011957 1_556
Re5 Sc8 3.128281 1_455
Re5 Sc9 3.138697 1_555
Re5 Sc11 3.217299 1_545
Re5 Sc2 3.579768 1_455
Re6 Si5 2.467360 1_655
Re6 Si6 2.525201 1_555
Re6 Si7 2.580171 1_655
Re6 Si4 2.588306 1_555
Re6 Re7 2.642475 1_565
Re6 Re7 2.642475 1_655
Re6 Sc6 2.986359 1_555
Re6 Sc1 3.011957 1_554
Re6 Sc4 3.128281 1_655
Re6 Sc5 3.138697 1_555
Re6 Sc7 3.217299 1_565
Re6 Sc0 3.579768 1_655
Re7 Si4 2.467360 1_545
Re7 Si7 2.525201 1_555
Re7 Si6 2.580171 1_545
Re7 Si5 2.588306 1_555
Re7 Sc7 2.986359 1_555
Re7 Sc0 3.011957 1_555
Re7 Sc5 3.128281 1_545
Re7 Sc4 3.138697 1_555
Re7 Sc6 3.217299 1_455
Re7 Sc1 3.579768 1_544
Si0 Si1 2.583750 1_645
Si0 Si1 2.695642 1_555
Si2 Si3 2.583750 1_645
Si2 Si3 2.695642 1_555
