# generated using pymatgen
data_CoSeO4
_symmetry_space_group_name_H-M   'P 1'
_cell_length_a   4.83592906
_cell_length_b   6.56917879
_cell_length_c   8.90494383
_cell_angle_alpha   89.99868969
_cell_angle_beta   89.99456325
_cell_angle_gamma   89.99829736
_symmetry_Int_Tables_number   1
_chemical_formula_structural   CoSeO4
_chemical_formula_sum   'Co4 Se4 O16'
_cell_volume   282.89298947
_cell_formula_units_Z   4
loop_
 _symmetry_equiv_pos_site_id
 _symmetry_equiv_pos_as_xyz
  1  'x, y, z'
loop_
 _atom_site_type_symbol
 _atom_site_label
 _atom_site_symmetry_multiplicity
 _atom_site_fract_x
 _atom_site_fract_y
 _atom_site_fract_z
 _atom_site_occupancy
  Co  Co0  1  0.49999752  -0.00000383  0.49999875  1
  Co  Co1  1  -0.00000748  0.00000529  -0.00000073  1
  Co  Co2  1  -0.00000402  0.50000232  -0.00000017  1
  Co  Co3  1  0.49999932  0.50000386  0.50000281  1
  Se  Se0  1  0.96603116  0.74997782  0.31721722  1
  Se  Se1  1  0.46594518  0.24995692  0.18273881  1
  Se  Se2  1  0.53404043  0.75004009  0.81726828  1
  Se  Se3  1  0.03398403  0.25002113  0.68278364  1
  O  O0  1  0.79203485  0.24996560  0.12399160  1
  O  O1  1  0.70789223  0.25002698  0.62404522  1
  O  O2  1  0.29211888  0.74997001  0.37595521  1
  O  O3  1  0.20795564  0.75004312  0.87600777  1
  O  O4  1  0.57807020  0.75002482  0.62733429  1
  O  O5  1  0.42192558  0.24997532  0.37266870  1
  O  O6  1  0.92197950  0.74998791  0.12726053  1
  O  O7  1  0.07803122  0.25001465  0.87273941  1
  O  O8  1  0.81750898  0.96353467  0.37409691  1
  O  O9  1  0.18250013  0.46357692  0.62591168  1
  O  O10  1  0.18249634  0.03646119  0.62589901  1
  O  O11  1  0.68251944  0.96358718  0.87416097  1
  O  O12  1  0.81750235  0.53642230  0.37408556  1
  O  O13  1  0.68252569  0.53645727  0.87416948  1
  O  O14  1  0.31747173  0.46354174  0.12582799  1
  O  O15  1  0.31747908  0.03640673  0.12583606  1
loop_
_geom_bond_atom_site_label_1
_geom_bond_atom_site_label_2
_geom_bond_distance
_geom_bond_site_symmetry_2
Co0 O10 1.916111 1_555
Co0 O8 1.916156 1_545
Co0 O4 2.030957 1_545
Co0 O5 2.030970 1_555
Co0 O2 2.220097 1_545
Co0 O1 2.220168 1_555
Co1 O11 1.915823 1_444
Co1 O15 1.915854 1_555
Co1 O7 2.030730 1_554
Co1 O6 2.030757 1_445
Co1 O0 2.219584 1_455
Co1 O3 2.219602 1_544
Co2 O13 1.915783 1_454
Co2 O14 1.915798 1_555
Co2 O6 2.030612 1_455
Co2 O7 2.030638 1_554
Co2 O0 2.219968 1_455
Co2 O3 2.219986 1_554
Co3 O9 1.916122 1_555
Co3 O12 1.916174 1_555
Co3 O4 2.031258 1_555
Co3 O5 2.031314 1_555
Co3 O2 2.219746 1_555
Co3 O1 2.219802 1_555
O0 Se1 1.661409 1_555
O1 Se3 1.661488 1_655
O2 Se0 1.661468 1_455
O3 Se2 1.661365 1_555
O4 Se2 1.704681 1_555
O5 Se1 1.704639 1_555
O6 Se0 1.704935 1_555
O7 Se3 1.704924 1_555
O8 Se0 1.655427 1_555
O9 Se3 1.655404 1_555
O10 Se3 1.655437 1_555
O11 Se2 1.655395 1_555
O12 Se0 1.655419 1_555
O13 Se2 1.655575 1_555
O14 Se1 1.655587 1_555
O15 Se1 1.655413 1_555
