# generated using pymatgen
data_Dy2Ni7Sn3
_symmetry_space_group_name_H-M   'P 1'
_cell_length_a   12.62326547
_cell_length_b   12.62326547
_cell_length_c   7.55798900
_cell_angle_alpha   90.00000000
_cell_angle_beta   90.00000000
_cell_angle_gamma   140.19054275
_symmetry_Int_Tables_number   1
_chemical_formula_structural   Dy2Ni7Sn3
_chemical_formula_sum   'Dy8 Ni28 Sn12'
_cell_volume   771.06345350
_cell_formula_units_Z   4
loop_
 _symmetry_equiv_pos_site_id
 _symmetry_equiv_pos_as_xyz
  1  'x, y, z'
loop_
 _atom_site_type_symbol
 _atom_site_label
 _atom_site_symmetry_multiplicity
 _atom_site_fract_x
 _atom_site_fract_y
 _atom_site_fract_z
 _atom_site_occupancy
  Dy  Dy0  1  0.70667300  0.70667300  0.50000000  1
  Dy  Dy1  1  0.19355000  0.80645000  0.42706100  1
  Dy  Dy2  1  0.79332700  0.79332700  0.00000000  1
  Dy  Dy3  1  0.80645000  0.19355000  0.57293900  1
  Dy  Dy4  1  0.20667300  0.20667300  0.00000000  1
  Dy  Dy5  1  0.29332700  0.29332700  0.50000000  1
  Dy  Dy6  1  0.30645000  0.69355000  0.92706100  1
  Dy  Dy7  1  0.69355000  0.30645000  0.07293900  1
  Ni  Ni0  1  0.16510700  0.83489300  0.80990500  1
  Ni  Ni1  1  0.12321800  0.35558200  0.40816300  1
  Ni  Ni2  1  0.85558200  0.62321800  0.90816300  1
  Ni  Ni3  1  0.45132800  0.84623200  0.57845300  1
  Ni  Ni4  1  0.54867200  0.15376800  0.42154700  1
  Ni  Ni5  1  0.95132800  0.34623200  0.92154700  1
  Ni  Ni6  1  0.87678200  0.64441800  0.59183700  1
  Ni  Ni7  1  0.65376800  0.04867200  0.92154700  1
  Ni  Ni8  1  0.15376800  0.54867200  0.57845300  1
  Ni  Ni9  1  0.60093500  0.39906500  0.44455900  1
  Ni  Ni10  1  0.10093500  0.89906500  0.05544100  1
  Ni  Ni11  1  0.64441800  0.87678200  0.40816300  1
  Ni  Ni12  1  0.66510700  0.33489300  0.69009500  1
  Ni  Ni13  1  0.34623200  0.95132800  0.07845300  1
  Ni  Ni14  1  0.62321800  0.85558200  0.09183700  1
  Ni  Ni15  1  0.04867200  0.65376800  0.07845300  1
  Ni  Ni16  1  0.14441800  0.37678200  0.09183700  1
  Ni  Ni17  1  0.95355300  0.04644700  0.64672500  1
  Ni  Ni18  1  0.89906500  0.10093500  0.94455900  1
  Ni  Ni19  1  0.83489300  0.16510700  0.19009500  1
  Ni  Ni20  1  0.37678200  0.14441800  0.90816300  1
  Ni  Ni21  1  0.84623200  0.45132800  0.42154700  1
  Ni  Ni22  1  0.39906500  0.60093500  0.55544100  1
  Ni  Ni23  1  0.04644700  0.95355300  0.35327500  1
  Ni  Ni24  1  0.54644700  0.45355300  0.14672500  1
  Ni  Ni25  1  0.45355300  0.54644700  0.85327500  1
  Ni  Ni26  1  0.35558200  0.12321800  0.59183700  1
  Ni  Ni27  1  0.33489300  0.66510700  0.30990500  1
  Sn  Sn0  1  0.03150600  0.46849400  0.25000000  1
  Sn  Sn1  1  0.46849400  0.03150600  0.75000000  1
  Sn  Sn2  1  0.43803500  0.56196500  0.20486600  1
  Sn  Sn3  1  0.35605100  0.14394900  0.25000000  1
  Sn  Sn4  1  0.14394900  0.35605100  0.75000000  1
  Sn  Sn5  1  0.06196500  0.93803500  0.70486600  1
  Sn  Sn6  1  0.64394900  0.85605100  0.75000000  1
  Sn  Sn7  1  0.53150600  0.96849400  0.25000000  1
  Sn  Sn8  1  0.56196500  0.43803500  0.79513400  1
  Sn  Sn9  1  0.93803500  0.06196500  0.29513400  1
  Sn  Sn10  1  0.96849400  0.53150600  0.75000000  1
  Sn  Sn11  1  0.85605100  0.64394900  0.25000000  1
loop_
_geom_bond_atom_site_label_1
_geom_bond_atom_site_label_2
_geom_bond_distance
_geom_bond_site_symmetry_2
Dy0 Ni6 2.881492 1_555
Dy0 Ni11 2.881492 1_555
Dy0 Ni17 2.966840 1_565
Dy0 Ni23 2.966840 1_655
Dy0 Ni9 3.012013 1_555
Dy0 Ni22 3.012013 1_555
Dy0 Sn6 3.169629 1_555
Dy0 Sn11 3.169629 1_555
Dy0 Sn2 3.208589 1_555
Dy0 Sn8 3.208589 1_555
Dy0 Sn5 3.304217 1_655
Dy0 Sn9 3.304217 1_565
Dy0 Ni24 3.391243 1_555
Dy0 Ni25 3.391243 1_555
Dy1 Ni13 2.930187 1_555
Dy1 Ni15 2.930187 1_555
Dy1 Ni0 2.971262 1_555
Dy1 Ni4 3.020571 1_565
Dy1 Ni21 3.020571 1_455
Dy1 Ni26 3.026261 1_565
Dy1 Ni6 3.026261 1_455
Dy1 Ni8 3.104737 1_555
Dy1 Ni3 3.104737 1_555
Dy1 Sn11 3.274540 1_455
Dy1 Sn3 3.274540 1_565
Dy1 Sn0 3.281432 1_555
Dy1 Sn7 3.281432 1_555
Dy1 Sn1 3.305372 1_565
Dy1 Sn10 3.305372 1_455
Dy1 Ni27 3.470116 1_555
Dy2 Ni2 2.881492 1_554
Dy2 Ni14 2.881492 1_555
Dy2 Ni25 2.966840 1_554
Dy2 Ni24 2.966840 1_555
Dy2 Ni10 3.012013 1_655
Dy2 Ni18 3.012013 1_564
Dy2 Sn6 3.169629 1_554
Dy2 Sn11 3.169629 1_555
Dy2 Sn9 3.208589 1_565
Dy2 Sn5 3.208589 1_654
Dy2 Sn2 3.304217 1_555
Dy2 Sn8 3.304217 1_554
Dy2 Ni17 3.391243 1_564
Dy2 Ni23 3.391243 1_655
Dy3 Ni7 2.930187 1_555
Dy3 Ni5 2.930187 1_555
Dy3 Ni19 2.971262 1_555
Dy3 Ni8 3.020571 1_655
Dy3 Ni3 3.020571 1_545
Dy3 Ni11 3.026261 1_545
Dy3 Ni1 3.026261 1_655
Dy3 Ni4 3.104737 1_555
Dy3 Ni21 3.104737 1_555
Dy3 Sn6 3.274540 1_545
Dy3 Sn4 3.274540 1_655
Dy3 Sn1 3.281432 1_555
Dy3 Sn10 3.281432 1_555
Dy3 Sn7 3.305372 1_545
Dy3 Sn0 3.305372 1_655
Dy3 Ni12 3.470116 1_555
Dy4 Ni20 2.881492 1_554
Dy4 Ni16 2.881492 1_555
Dy4 Ni24 2.966840 1_555
Dy4 Ni25 2.966840 1_554
Dy4 Ni10 3.012013 1_545
Dy4 Ni18 3.012013 1_454
Dy4 Sn4 3.169629 1_554
Dy4 Sn3 3.169629 1_555
Dy4 Sn9 3.208589 1_455
Dy4 Sn5 3.208589 1_544
Dy4 Sn2 3.304217 1_555
Dy4 Sn8 3.304217 1_554
Dy4 Ni23 3.391243 1_545
Dy4 Ni17 3.391243 1_454
Dy5 Ni26 2.881492 1_555
Dy5 Ni1 2.881492 1_555
Dy5 Ni17 2.966840 1_455
Dy5 Ni23 2.966840 1_545
Dy5 Ni9 3.012013 1_555
Dy5 Ni22 3.012013 1_555
Dy5 Sn3 3.169629 1_555
Dy5 Sn4 3.169629 1_555
Dy5 Sn2 3.208589 1_555
Dy5 Sn8 3.208589 1_555
Dy5 Sn5 3.304217 1_545
Dy5 Sn9 3.304217 1_455
Dy5 Ni25 3.391243 1_555
Dy5 Ni24 3.391243 1_555
Dy6 Ni3 2.930187 1_555
Dy6 Ni8 2.930187 1_555
Dy6 Ni27 2.971262 1_556
Dy6 Ni7 3.020571 1_565
Dy6 Ni5 3.020571 1_455
Dy6 Ni16 3.026261 1_556
Dy6 Ni14 3.026261 1_556
Dy6 Ni13 3.104737 1_556
Dy6 Ni15 3.104737 1_556
Dy6 Sn6 3.274540 1_555
Dy6 Sn4 3.274540 1_555
Dy6 Sn10 3.281432 1_455
Dy6 Sn1 3.281432 1_565
Dy6 Sn7 3.305372 1_556
Dy6 Sn0 3.305372 1_556
Dy6 Ni0 3.470116 1_555
Dy7 Ni4 2.930187 1_555
Dy7 Ni21 2.930187 1_555
Dy7 Ni12 2.971262 1_554
Dy7 Ni15 3.020571 1_655
Dy7 Ni13 3.020571 1_545
Dy7 Ni20 3.026261 1_554
Dy7 Ni2 3.026261 1_554
Dy7 Ni5 3.104737 1_554
Dy7 Ni7 3.104737 1_554
Dy7 Sn3 3.274540 1_555
Dy7 Sn11 3.274540 1_555
Dy7 Sn0 3.281432 1_655
Dy7 Sn7 3.281432 1_545
Dy7 Sn10 3.305372 1_554
Dy7 Sn1 3.305372 1_554
Dy7 Ni19 3.470116 1_555
Ni0 Ni10 2.400914 1_556
Ni0 Ni13 2.518835 1_556
Ni0 Ni15 2.518835 1_556
Ni0 Sn10 2.535468 1_455
Ni0 Sn1 2.535468 1_565
Ni0 Sn5 2.573906 1_555
Ni0 Ni20 2.630157 1_565
Ni0 Ni2 2.630157 1_455
Ni0 Ni6 2.880887 1_455
Ni0 Ni26 2.880887 1_565
Ni1 Ni16 2.397723 1_555
Ni1 Ni8 2.510405 1_555
Ni1 Ni22 2.527336 1_555
Ni1 Sn9 2.573024 1_455
Ni1 Sn4 2.596368 1_555
Ni1 Ni27 2.630157 1_555
Ni1 Sn0 2.708490 1_555
Ni1 Ni19 2.880887 1_455
Ni1 Sn2 3.005775 1_555
Ni2 Ni6 2.397723 1_555
Ni2 Sn8 2.573024 1_555
Ni2 Sn11 2.596368 1_556
Ni2 Sn10 2.708490 1_555
Ni2 Sn5 3.005775 1_655
Ni3 Sn1 2.533614 1_565
Ni3 Ni8 2.557636 1_555
Ni3 Sn6 2.673126 1_555
Ni3 Sn7 2.677493 1_555
Ni4 Sn7 2.533614 1_545
Ni4 Ni9 2.629637 1_555
Ni4 Sn3 2.673126 1_555
Ni4 Sn1 2.677493 1_555
Ni5 Sn10 2.533614 1_555
Ni5 Ni7 2.557636 1_555
Ni5 Sn4 2.673126 1_655
Ni5 Sn0 2.677493 1_656
Ni6 Ni9 2.527336 1_555
Ni6 Sn5 2.573024 1_655
Ni6 Sn11 2.596368 1_555
Ni6 Sn10 2.708490 1_555
Ni6 Sn8 3.005775 1_555
Ni7 Sn1 2.533614 1_555
Ni7 Sn6 2.673126 1_545
Ni7 Sn7 2.677493 1_546
Ni8 Sn10 2.533614 1_455
Ni8 Sn4 2.673126 1_555
Ni8 Sn0 2.677493 1_555
Ni9 Sn3 2.606638 1_555
Ni9 Sn11 2.606638 1_555
Ni9 Sn8 2.806489 1_555
Ni10 Ni2 2.527336 1_454
Ni10 Ni20 2.527336 1_564
Ni10 Ni23 2.596178 1_555
Ni10 Sn11 2.606638 1_455
Ni10 Sn3 2.606638 1_565
Ni10 Ni15 2.629637 1_555
Ni10 Ni13 2.629637 1_555
Ni10 Sn5 2.806489 1_554
Ni11 Ni14 2.397723 1_555
Ni11 Ni3 2.510405 1_555
Ni11 Ni22 2.527336 1_555
Ni11 Sn9 2.573024 1_565
Ni11 Sn6 2.596368 1_555
Ni11 Ni27 2.630157 1_555
Ni11 Sn7 2.708490 1_555
Ni11 Ni19 2.880887 1_565
Ni11 Sn2 3.005775 1_555
Ni12 Ni9 2.400914 1_555
Ni12 Ni21 2.518835 1_555
Ni12 Ni4 2.518835 1_555
Ni12 Sn10 2.535468 1_555
Ni12 Sn1 2.535468 1_555
Ni12 Sn8 2.573906 1_555
Ni12 Ni26 2.630157 1_555
Ni12 Ni6 2.630157 1_555
Ni12 Ni20 2.880887 1_555
Ni12 Ni2 2.880887 1_555
Ni13 Ni20 2.510405 1_564
Ni13 Sn7 2.533614 1_555
Ni13 Ni15 2.557636 1_555
Ni13 Sn3 2.673126 1_565
Ni13 Sn1 2.677493 1_564
Ni14 Ni7 2.510405 1_564
Ni14 Ni18 2.527336 1_564
Ni14 Sn2 2.573024 1_555
Ni14 Sn6 2.596368 1_554
Ni14 Ni19 2.630157 1_565
Ni14 Sn7 2.708490 1_555
Ni14 Ni27 2.880887 1_555
Ni14 Sn9 3.005775 1_565
Ni15 Ni2 2.510405 1_454
Ni15 Sn0 2.533614 1_555
Ni15 Sn11 2.673126 1_455
Ni15 Sn10 2.677493 1_454
Ni16 Ni5 2.510405 1_454
Ni16 Ni18 2.527336 1_454
Ni16 Sn2 2.573024 1_555
Ni16 Sn4 2.596368 1_554
Ni16 Ni19 2.630157 1_455
Ni16 Sn0 2.708490 1_555
Ni16 Ni27 2.880887 1_555
Ni16 Sn9 3.005775 1_455
Ni17 Ni18 2.596178 1_555
Ni17 Sn5 2.610764 1_645
Ni17 Sn9 2.682732 1_555
Ni17 Sn4 2.688626 1_655
Ni17 Sn6 2.688626 1_545
Ni18 Ni19 2.400914 1_556
Ni18 Sn6 2.606638 1_545
Ni18 Sn4 2.606638 1_655
Ni18 Ni7 2.629637 1_555
Ni18 Ni5 2.629637 1_555
Ni18 Sn9 2.806489 1_556
Ni19 Ni7 2.518835 1_554
Ni19 Ni5 2.518835 1_554
Ni19 Sn0 2.535468 1_655
Ni19 Sn7 2.535468 1_545
Ni19 Sn9 2.573906 1_555
Ni20 Ni26 2.397723 1_555
Ni20 Sn8 2.573024 1_555
Ni20 Sn3 2.596368 1_556
Ni20 Sn1 2.708490 1_555
Ni20 Sn5 3.005775 1_545
Ni21 Ni6 2.510405 1_555
Ni21 Sn0 2.533614 1_655
Ni21 Ni4 2.557636 1_555
Ni21 Ni9 2.629637 1_555
Ni21 Sn11 2.673126 1_555
Ni21 Sn10 2.677493 1_555
Ni22 Ni27 2.400914 1_555
Ni22 Ni25 2.596178 1_555
Ni22 Sn6 2.606638 1_555
Ni22 Sn4 2.606638 1_555
Ni22 Ni3 2.629637 1_555
Ni22 Ni8 2.629637 1_555
Ni22 Sn2 2.806489 1_555
Ni23 Sn9 2.610764 1_465
Ni23 Sn5 2.682732 1_555
Ni23 Sn3 2.688626 1_565
Ni23 Sn11 2.688626 1_455
Ni24 Ni9 2.596178 1_555
Ni24 Sn2 2.610764 1_555
Ni24 Sn8 2.682732 1_554
Ni24 Sn11 2.688626 1_555
Ni24 Sn3 2.688626 1_555
Ni25 Sn8 2.610764 1_555
Ni25 Sn2 2.682732 1_556
Ni25 Sn4 2.688626 1_555
Ni25 Sn6 2.688626 1_555
Ni26 Ni4 2.510405 1_555
Ni26 Ni9 2.527336 1_555
Ni26 Sn5 2.573024 1_545
Ni26 Sn3 2.596368 1_555
Ni26 Sn1 2.708490 1_555
Ni26 Sn8 3.005775 1_555
Ni27 Ni8 2.518835 1_555
Ni27 Ni3 2.518835 1_555
Ni27 Sn7 2.535468 1_555
Ni27 Sn0 2.535468 1_555
Ni27 Sn2 2.573906 1_555
