# generated using pymatgen
data_Ba2Ca(BO3)2
_symmetry_space_group_name_H-M   'P 1'
_cell_length_a   5.57941647
_cell_length_b   5.57941647
_cell_length_c   6.65505233
_cell_angle_alpha   64.42231037
_cell_angle_beta   64.42231037
_cell_angle_gamma   58.68390771
_symmetry_Int_Tables_number   1
_chemical_formula_structural   Ba2Ca(BO3)2
_chemical_formula_sum   'Ba2 Ca1 B2 O6'
_cell_volume   153.75688684
_cell_formula_units_Z   1
loop_
 _symmetry_equiv_pos_site_id
 _symmetry_equiv_pos_as_xyz
  1  'x, y, z'
loop_
 _atom_site_type_symbol
 _atom_site_label
 _atom_site_symmetry_multiplicity
 _atom_site_fract_x
 _atom_site_fract_y
 _atom_site_fract_z
 _atom_site_occupancy
  Ba  Ba0  1  0.21159382  0.21159382  0.31520996  1
  Ba  Ba1  1  0.78840618  0.78840618  0.68479004  1
  Ca  Ca0  1  -0.00000000  0.00000000  0.00000000  1
  B  B0  1  0.56264779  0.56264779  0.24508768  1
  B  B1  1  0.43735221  0.43735221  0.75491232  1
  O  O0  1  0.72242418  0.72242418  0.17523203  1
  O  O1  1  0.73664673  0.29845186  0.72660866  1
  O  O2  1  0.70154814  0.26335327  0.27339134  1
  O  O3  1  0.27757582  0.27757582  0.82476797  1
  O  O4  1  0.29845186  0.73664673  0.72660866  1
  O  O5  1  0.26335327  0.70154814  0.27339134  1
loop_
_geom_bond_atom_site_label_1
_geom_bond_atom_site_label_2
_geom_bond_distance
_geom_bond_site_symmetry_2
Ba0 O2 2.779941 1_555
Ba0 O5 2.779941 1_555
Ba0 O5 2.831846 1_545
Ba0 O2 2.831846 1_455
Ba0 O0 2.873433 1_455
Ba0 O0 2.873433 1_545
Ba0 O4 2.880807 1_545
Ba0 O1 2.880807 1_455
Ba0 O3 2.998339 1_554
Ba1 O1 2.779941 1_555
Ba1 O4 2.779941 1_555
Ba1 O4 2.831846 1_655
Ba1 O1 2.831846 1_565
Ba1 O3 2.873433 1_655
Ba1 O3 2.873433 1_565
Ba1 O2 2.880807 1_565
Ba1 O5 2.880807 1_655
Ba1 O0 2.998339 1_556
Ca0 O4 2.321874 1_544
Ca0 O1 2.321874 1_454
Ca0 O5 2.321874 1_545
Ca0 O2 2.321874 1_455
Ca0 O0 2.351871 1_445
Ca0 O3 2.351871 1_554
B0 O0 1.384170 1_555
B0 O2 1.390604 1_555
B0 O5 1.390604 1_555
B1 O3 1.384170 1_555
B1 O4 1.390604 1_555
B1 O1 1.390604 1_555
