# generated using pymatgen
data_Cs4V2S4O3
_symmetry_space_group_name_H-M   'P 1'
_cell_length_a   8.98696500
_cell_length_b   12.66180100
_cell_length_c   13.58315500
_cell_angle_alpha   90.00000000
_cell_angle_beta   90.00000000
_cell_angle_gamma   90.00000000
_symmetry_Int_Tables_number   1
_chemical_formula_structural   Cs4V2S4O3
_chemical_formula_sum   'Cs16 V8 S16 O12'
_cell_volume   1545.64299683
_cell_formula_units_Z   4
loop_
 _symmetry_equiv_pos_site_id
 _symmetry_equiv_pos_as_xyz
  1  'x, y, z'
loop_
 _atom_site_type_symbol
 _atom_site_label
 _atom_site_symmetry_multiplicity
 _atom_site_fract_x
 _atom_site_fract_y
 _atom_site_fract_z
 _atom_site_occupancy
  Cs  Cs0  1  0.75000000  0.14230000  0.44206900  1
  Cs  Cs1  1  0.75000000  0.85014500  0.58719500  1
  Cs  Cs2  1  0.75000000  0.49042800  0.66519400  1
  Cs  Cs3  1  0.75000000  0.64985500  0.08719500  1
  Cs  Cs4  1  0.25000000  0.35014500  0.91280500  1
  Cs  Cs5  1  0.25000000  0.99042800  0.83480600  1
  Cs  Cs6  1  0.75000000  0.35770000  0.94206900  1
  Cs  Cs7  1  0.25000000  0.50957200  0.33480600  1
  Cs  Cs8  1  0.75000000  0.06497300  0.83631800  1
  Cs  Cs9  1  0.25000000  0.93502700  0.16368200  1
  Cs  Cs10  1  0.25000000  0.64230000  0.05793100  1
  Cs  Cs11  1  0.75000000  0.00957200  0.16519400  1
  Cs  Cs12  1  0.25000000  0.14985500  0.41280500  1
  Cs  Cs13  1  0.75000000  0.43502700  0.33631800  1
  Cs  Cs14  1  0.25000000  0.56497300  0.66368200  1
  Cs  Cs15  1  0.25000000  0.85770000  0.55793100  1
  V  V0  1  0.44563800  0.25164600  0.16630400  1
  V  V1  1  0.94563800  0.75164600  0.33369600  1
  V  V2  1  0.44563800  0.24835400  0.66630400  1
  V  V3  1  0.05436200  0.25164600  0.16630400  1
  V  V4  1  0.05436200  0.24835400  0.66630400  1
  V  V5  1  0.55436200  0.75164600  0.33369600  1
  V  V6  1  0.94563800  0.74835400  0.83369600  1
  V  V7  1  0.55436200  0.74835400  0.83369600  1
  S  S0  1  0.50678200  0.91766700  0.36342100  1
  S  S1  1  0.00678200  0.08233300  0.63657900  1
  S  S2  1  0.49321800  0.41766700  0.13657900  1
  S  S3  1  0.48624900  0.15696100  0.03498400  1
  S  S4  1  0.98624900  0.65696100  0.46501600  1
  S  S5  1  0.48624900  0.34303900  0.53498400  1
  S  S6  1  0.00678200  0.41766700  0.13657900  1
  S  S7  1  0.51375100  0.65696100  0.46501600  1
  S  S8  1  0.99321800  0.91766700  0.36342100  1
  S  S9  1  0.98624900  0.84303900  0.96501600  1
  S  S10  1  0.49321800  0.08233300  0.63657900  1
  S  S11  1  0.99321800  0.58233300  0.86342100  1
  S  S12  1  0.01375100  0.15696100  0.03498400  1
  S  S13  1  0.51375100  0.84303900  0.96501600  1
  S  S14  1  0.01375100  0.34303900  0.53498400  1
  S  S15  1  0.50678200  0.58233300  0.86342100  1
  O  O0  1  0.25000000  0.23704300  0.20217500  1
  O  O1  1  0.04994000  0.79188300  0.73985500  1
  O  O2  1  0.45006000  0.70811700  0.23985500  1
  O  O3  1  0.54994000  0.20811700  0.26014500  1
  O  O4  1  0.45006000  0.79188300  0.73985500  1
  O  O5  1  0.04994000  0.70811700  0.23985500  1
  O  O6  1  0.75000000  0.76295700  0.79782500  1
  O  O7  1  0.95006000  0.20811700  0.26014500  1
  O  O8  1  0.25000000  0.26295700  0.70217500  1
  O  O9  1  0.75000000  0.73704300  0.29782500  1
  O  O10  1  0.54994000  0.29188300  0.76014500  1
  O  O11  1  0.95006000  0.29188300  0.76014500  1
loop_
_geom_bond_atom_site_label_1
_geom_bond_atom_site_label_2
_geom_bond_distance
_geom_bond_site_symmetry_2
Cs0 O3 3.167554 1_555
Cs0 O7 3.167554 1_555
Cs0 S10 3.589211 1_555
Cs0 S1 3.589211 1_655
Cs0 S5 3.697512 1_555
Cs0 S14 3.697512 1_655
Cs0 S8 3.742824 1_545
Cs0 S0 3.742824 1_545
Cs1 O6 3.066620 1_555
Cs1 O4 3.479947 1_555
Cs1 O1 3.479947 1_655
Cs1 S4 3.639396 1_555
Cs1 S7 3.639396 1_555
Cs1 S10 3.797172 1_565
Cs1 S1 3.797172 1_665
Cs1 S8 3.840251 1_555
Cs1 S0 3.840251 1_555
Cs2 O10 3.349008 1_555
Cs2 O11 3.349008 1_555
Cs2 S5 3.497046 1_555
Cs2 S14 3.497046 1_655
Cs2 S11 3.658095 1_555
Cs2 S15 3.658095 1_555
Cs2 S4 4.043175 1_555
Cs2 S7 4.043175 1_555
Cs3 O9 3.066620 1_555
Cs3 O2 3.479947 1_555
Cs3 O5 3.479947 1_655
Cs3 S9 3.639396 1_554
Cs3 S13 3.639396 1_554
Cs3 S2 3.797172 1_555
Cs3 S6 3.797172 1_655
Cs3 S11 3.840251 1_554
Cs3 S15 3.840251 1_554
Cs4 O8 3.066620 1_555
Cs4 O11 3.479947 1_455
Cs4 O10 3.479947 1_555
Cs4 S3 3.639396 1_556
Cs4 S12 3.639396 1_556
Cs4 S15 3.797172 1_555
Cs4 S11 3.797172 1_455
Cs4 S2 3.840251 1_556
Cs4 S6 3.840251 1_556
Cs5 O1 3.349008 1_555
Cs5 O4 3.349008 1_555
Cs5 S13 3.497046 1_555
Cs5 S9 3.497046 1_455
Cs5 S1 3.658095 1_565
Cs5 S10 3.658095 1_565
Cs5 S3 4.043175 1_566
Cs5 S12 4.043175 1_566
Cs6 O10 3.167554 1_555
Cs6 O11 3.167554 1_555
Cs6 S6 3.589211 1_656
Cs6 S2 3.589211 1_556
Cs6 S3 3.697512 1_556
Cs6 S12 3.697512 1_656
Cs6 S11 3.742824 1_555
Cs6 S15 3.742824 1_555
Cs7 O5 3.349008 1_555
Cs7 O2 3.349008 1_555
Cs7 S7 3.497046 1_555
Cs7 S4 3.497046 1_455
Cs7 S6 3.658095 1_555
Cs7 S2 3.658095 1_555
Cs7 S5 4.043175 1_555
Cs7 S14 4.043175 1_555
Cs8 O10 3.543691 1_555
Cs8 O11 3.543691 1_555
Cs8 S10 3.568555 1_555
Cs8 S1 3.568555 1_655
Cs8 S3 3.775843 1_556
Cs8 S12 3.775843 1_656
Cs8 S9 3.931962 1_545
Cs8 S13 3.931962 1_545
Cs9 O5 3.543691 1_555
Cs9 O2 3.543691 1_555
Cs9 S0 3.568555 1_555
Cs9 S8 3.568555 1_455
Cs9 S13 3.775843 1_554
Cs9 S9 3.775843 1_454
Cs9 S3 3.931962 1_565
Cs9 S12 3.931962 1_565
Cs10 O5 3.167554 1_555
Cs10 O2 3.167554 1_555
Cs10 S15 3.589211 1_554
Cs10 S11 3.589211 1_454
Cs10 S13 3.697512 1_554
Cs10 S9 3.697512 1_454
Cs10 S2 3.742824 1_555
Cs10 S6 3.742824 1_555
Cs11 O3 3.349008 1_555
Cs11 O7 3.349008 1_555
Cs11 S3 3.497046 1_555
Cs11 S12 3.497046 1_655
Cs11 S8 3.658095 1_545
Cs11 S0 3.658095 1_545
Cs11 S9 4.043175 1_544
Cs11 S13 4.043175 1_544
Cs12 O0 3.066620 1_555
Cs12 O7 3.479947 1_455
Cs12 O3 3.479947 1_555
Cs12 S14 3.639396 1_555
Cs12 S5 3.639396 1_555
Cs12 S0 3.797172 1_545
Cs12 S8 3.797172 1_445
Cs12 S1 3.840251 1_555
Cs12 S10 3.840251 1_555
Cs13 O3 3.543691 1_555
Cs13 O7 3.543691 1_555
Cs13 S2 3.568555 1_555
Cs13 S6 3.568555 1_655
Cs13 S5 3.775843 1_555
Cs13 S14 3.775843 1_655
Cs13 S4 3.931962 1_555
Cs13 S7 3.931962 1_555
Cs14 O1 3.543691 1_555
Cs14 O4 3.543691 1_555
Cs14 S15 3.568555 1_555
Cs14 S11 3.568555 1_455
Cs14 S7 3.775843 1_555
Cs14 S4 3.775843 1_455
Cs14 S14 3.931962 1_555
Cs14 S5 3.931962 1_555
Cs15 O1 3.167554 1_555
Cs15 O4 3.167554 1_555
Cs15 S0 3.589211 1_555
Cs15 S8 3.589211 1_455
Cs15 S7 3.697512 1_555
Cs15 S4 3.697512 1_455
Cs15 S10 3.742824 1_565
Cs15 S1 3.742824 1_565
S0 V5 2.182840 1_555
S1 V4 2.182840 1_555
S2 V0 2.182840 1_555
S3 V0 2.179966 1_555
S4 V1 2.179966 1_555
S5 V2 2.179966 1_555
S6 V3 2.182840 1_555
S7 V5 2.179966 1_555
S8 V1 2.182840 1_555
S9 V6 2.179966 1_555
S10 V2 2.182840 1_555
S11 V6 2.182840 1_555
S12 V3 2.179966 1_555
S13 V7 2.179966 1_555
S14 V4 2.179966 1_555
S15 V7 2.182840 1_555
O0 V0 1.833802 1_555
O0 V3 1.833802 1_555
O1 V6 1.675459 1_455
O2 V5 1.675459 1_555
O3 V0 1.675459 1_555
O4 V7 1.675459 1_555
O5 V1 1.675459 1_455
O6 V7 1.833802 1_555
O6 V6 1.833802 1_555
O7 V3 1.675459 1_655
O8 V2 1.833802 1_555
O8 V4 1.833802 1_555
O9 V1 1.833802 1_555
O9 V5 1.833802 1_555
O10 V2 1.675459 1_555
O11 V4 1.675459 1_655
