# generated using pymatgen
data_SrTa2Bi2O9
_symmetry_space_group_name_H-M   'P 1'
_cell_length_a   12.88926011
_cell_length_b   12.88926011
_cell_length_c   12.88926011
_cell_angle_alpha   162.43201052
_cell_angle_beta   162.43201052
_cell_angle_gamma   24.94420584
_symmetry_Int_Tables_number   1
_chemical_formula_structural   SrTa2Bi2O9
_chemical_formula_sum   'Sr1 Ta2 Bi2 O9'
_cell_volume   195.03203961
_cell_formula_units_Z   1
loop_
 _symmetry_equiv_pos_site_id
 _symmetry_equiv_pos_as_xyz
  1  'x, y, z'
loop_
 _atom_site_type_symbol
 _atom_site_label
 _atom_site_symmetry_multiplicity
 _atom_site_fract_x
 _atom_site_fract_y
 _atom_site_fract_z
 _atom_site_occupancy
  Sr  Sr0  1  0.00000000  0.00000000  0.00000000  1
  Ta  Ta0  1  0.58503900  0.58503900  0.00000000  1
  Ta  Ta1  1  0.41496100  0.41496100  0.00000000  1
  Bi  Bi0  1  0.20051000  0.20051000  0.00000000  1
  Bi  Bi1  1  0.79949000  0.79949000  0.00000000  1
  O  O0  1  0.57636200  0.07636200  0.50000000  1
  O  O1  1  0.75000000  0.25000000  0.50000000  1
  O  O2  1  0.92363800  0.42363800  0.50000000  1
  O  O3  1  0.50000000  0.50000000  0.00000000  1
  O  O4  1  0.42363800  0.92363800  0.50000000  1
  O  O5  1  0.33934300  0.33934300  0.00000000  1
  O  O6  1  0.07636200  0.57636200  0.50000000  1
  O  O7  1  0.25000000  0.75000000  0.50000000  1
  O  O8  1  0.66065700  0.66065700  0.00000000  1
loop_
_geom_bond_atom_site_label_1
_geom_bond_atom_site_label_2
_geom_bond_distance
_geom_bond_site_symmetry_2
Bi0 O7 2.329371 1_544
Bi0 O1 2.329371 1_555
Bi0 O1 2.329371 1_454
Bi0 O7 2.329371 1_555
Bi1 O7 2.329371 1_655
Bi1 O7 2.329371 1_554
Bi1 O1 2.329371 1_554
Bi1 O1 2.329371 1_565
O0 Ta0 1.980396 1_556
O0 Ta0 1.980396 1_545
O0 Sr0 2.751095 1_555
O0 Sr0 2.751095 1_656
O2 Ta1 1.980396 1_656
O2 Ta1 1.980396 1_555
O2 Sr0 2.751095 1_655
O2 Sr0 2.751095 1_666
O3 Ta0 2.140447 1_555
O3 Ta1 2.140447 1_555
O3 Sr0 2.783619 1_565
O3 Sr0 2.783619 1_666
O3 Sr0 2.783619 1_655
O3 Sr0 2.783619 1_554
O4 Ta1 1.980396 1_566
O4 Ta1 1.980396 1_555
O4 Sr0 2.751095 1_565
O4 Sr0 2.751095 1_666
O5 Ta1 1.903319 1_555
O6 Ta0 1.980396 1_556
O6 Ta0 1.980396 1_455
O6 Sr0 2.751095 1_555
O6 Sr0 2.751095 1_566
O8 Ta0 1.903319 1_555
