# generated using pymatgen
data_TiAs2H4O9
_symmetry_space_group_name_H-M   'P 1'
_cell_length_a   5.17893400
_cell_length_b   8.99587200
_cell_length_c   16.97968850
_cell_angle_alpha   70.80553545
_cell_angle_beta   90.00000000
_cell_angle_gamma   90.00000000
_symmetry_Int_Tables_number   1
_chemical_formula_structural   TiAs2H4O9
_chemical_formula_sum   'Ti4 As8 H16 O36'
_cell_volume   747.09027503
_cell_formula_units_Z   4
loop_
 _symmetry_equiv_pos_site_id
 _symmetry_equiv_pos_as_xyz
  1  'x, y, z'
loop_
 _atom_site_type_symbol
 _atom_site_label
 _atom_site_symmetry_multiplicity
 _atom_site_fract_x
 _atom_site_fract_y
 _atom_site_fract_z
 _atom_site_occupancy
  Ti  Ti0  1  0.75674100  0.24090000  0.01276000  1
  Ti  Ti1  1  0.25674100  0.75910000  0.48724000  1
  Ti  Ti2  1  0.24325900  0.75910000  0.98724000  1
  Ti  Ti3  1  0.74325900  0.24090000  0.51276000  1
  As  As0  1  0.25871400  0.00417500  0.10533400  1
  As  As1  1  0.75871400  0.99582500  0.39466600  1
  As  As2  1  0.74128600  0.99582500  0.89466600  1
  As  As3  1  0.24128600  0.00417500  0.60533400  1
  As  As4  1  0.73842300  0.53686600  0.09617900  1
  As  As5  1  0.23842300  0.46313400  0.40382100  1
  As  As6  1  0.26157700  0.46313400  0.90382100  1
  As  As7  1  0.76157700  0.53686600  0.59617900  1
  H  H0  1  0.77311700  0.58603800  0.72228800  1
  H  H1  1  0.27311700  0.41396200  0.77771200  1
  H  H2  1  0.22688300  0.41396200  0.27771200  1
  H  H3  1  0.72688300  0.58603800  0.22228800  1
  H  H4  1  0.07701100  0.84649600  0.73090600  1
  H  H5  1  0.57701100  0.15350400  0.76909400  1
  H  H6  1  0.92298900  0.15350400  0.26909400  1
  H  H7  1  0.42298900  0.84649600  0.23090600  1
  H  H8  1  0.62255800  0.79869700  0.75318800  1
  H  H9  1  0.12255800  0.20130300  0.74681200  1
  H  H10  1  0.37744200  0.20130300  0.24681200  1
  H  H11  1  0.87744200  0.79869700  0.25318800  1
  H  H12  1  0.30944300  0.30126200  0.67654300  1
  H  H13  1  0.80944300  0.69873800  0.82345700  1
  H  H14  1  0.69055700  0.69873800  0.32345700  1
  H  H15  1  0.19055700  0.30126200  0.17654300  1
  O  O0  1  0.36617500  0.87348700  0.05923200  1
  O  O1  1  0.86617500  0.12651300  0.44076800  1
  O  O2  1  0.63382500  0.12651300  0.94076800  1
  O  O3  1  0.13382500  0.87348700  0.55923200  1
  O  O4  1  0.94324200  0.05737900  0.08637600  1
  O  O5  1  0.44324200  0.94262100  0.41362400  1
  O  O6  1  0.05675800  0.94262100  0.91362400  1
  O  O7  1  0.55675800  0.05737900  0.58637600  1
  O  O8  1  0.45495100  0.16527300  0.08637300  1
  O  O9  1  0.95495100  0.83472700  0.41362700  1
  O  O10  1  0.54504900  0.83472700  0.91362700  1
  O  O11  1  0.04504900  0.16527300  0.58637300  1
  O  O12  1  0.25450400  0.90353700  0.21315400  1
  O  O13  1  0.75450400  0.09646300  0.28684600  1
  O  O14  1  0.74549600  0.09646300  0.78684600  1
  O  O15  1  0.24549600  0.90353700  0.71315400  1
  O  O16  1  0.93280200  0.69699600  0.05446100  1
  O  O17  1  0.43280200  0.30300400  0.44553900  1
  O  O18  1  0.06719800  0.30300400  0.94553900  1
  O  O19  1  0.56719800  0.69699600  0.55446100  1
  O  O20  1  0.42780400  0.57260900  0.06050300  1
  O  O21  1  0.92780400  0.42739100  0.43949700  1
  O  O22  1  0.57219600  0.42739100  0.93949700  1
  O  O23  1  0.07219600  0.57260900  0.56050300  1
  O  O24  1  0.85999100  0.36888500  0.08394300  1
  O  O25  1  0.35999100  0.63111500  0.41605700  1
  O  O26  1  0.14000900  0.63111500  0.91605700  1
  O  O27  1  0.64000900  0.36888500  0.58394300  1
  O  O28  1  0.73886500  0.49039800  0.20410900  1
  O  O29  1  0.23886500  0.50960200  0.29589100  1
  O  O30  1  0.26113500  0.50960200  0.79589100  1
  O  O31  1  0.76113500  0.49039800  0.70410900  1
  O  O32  1  0.21274200  0.25904400  0.23730600  1
  O  O33  1  0.71274200  0.74095600  0.26269400  1
  O  O34  1  0.78725800  0.74095600  0.76269400  1
  O  O35  1  0.28725800  0.25904400  0.73730600  1
loop_
_geom_bond_atom_site_label_1
_geom_bond_atom_site_label_2
_geom_bond_distance
_geom_bond_site_symmetry_2
As0 O4 1.703149 1_455
As0 O0 1.705814 1_545
As0 O8 1.711709 1_555
As0 O12 1.755533 1_545
As1 O5 1.703149 1_555
As1 O1 1.705814 1_565
As1 O9 1.711709 1_555
As1 O13 1.755533 1_565
As2 O6 1.703149 1_655
As2 O2 1.705814 1_565
As2 O10 1.711709 1_555
As2 O14 1.755533 1_565
As3 O7 1.703149 1_555
As3 O3 1.705814 1_545
As3 O11 1.711709 1_555
As3 O15 1.755533 1_545
As4 O16 1.708588 1_555
As4 O24 1.711586 1_555
As4 O20 1.711754 1_555
As4 O28 1.740547 1_555
As5 O17 1.708588 1_555
As5 O25 1.711586 1_555
As5 O21 1.711754 1_455
As5 O29 1.740547 1_555
As6 O18 1.708588 1_555
As6 O26 1.711586 1_555
As6 O22 1.711754 1_555
As6 O30 1.740547 1_555
As7 O19 1.708588 1_555
As7 O27 1.711586 1_555
As7 O23 1.711754 1_655
As7 O31 1.740547 1_555
H0 O31 1.006969 1_555
H1 O30 1.006969 1_555
H2 O29 1.006969 1_555
H3 O28 1.006969 1_555
H4 O15 1.006897 1_555
H5 O14 1.006897 1_555
H6 O13 1.006897 1_555
H7 O12 1.006897 1_555
H8 O34 0.984017 1_555
H9 O35 0.984017 1_555
H10 O32 0.984017 1_555
H11 O33 0.984017 1_555
H12 O35 0.981970 1_555
H13 O34 0.981970 1_555
H14 O33 0.981970 1_555
H15 O32 0.981970 1_555
O0 Ti2 1.945627 1_554
O1 Ti3 1.945627 1_555
O2 Ti0 1.945627 1_556
O3 Ti1 1.945627 1_555
O4 Ti0 1.965705 1_555
O5 Ti1 1.965705 1_555
O6 Ti2 1.965705 1_555
O7 Ti3 1.965705 1_555
O8 Ti0 1.977074 1_555
O9 Ti1 1.977074 1_655
O10 Ti2 1.977074 1_555
O11 Ti3 1.977074 1_455
O16 Ti2 1.944411 1_654
O17 Ti3 1.944411 1_555
O18 Ti0 1.944411 1_456
O19 Ti1 1.944411 1_555
O20 Ti2 1.975643 1_554
O21 Ti3 1.975643 1_555
O22 Ti0 1.975643 1_556
O23 Ti1 1.975643 1_555
O24 Ti0 1.996851 1_555
O25 Ti1 1.996851 1_555
O26 Ti2 1.996851 1_555
O27 Ti3 1.996851 1_555
