# generated using pymatgen
data_KNb(AgSe2)2
_symmetry_space_group_name_H-M   'P 1'
_cell_length_a   10.44310925
_cell_length_b   10.44310925
_cell_length_c   8.32436300
_cell_angle_alpha   90.00000000
_cell_angle_beta   90.00000000
_cell_angle_gamma   145.81601765
_symmetry_Int_Tables_number   1
_chemical_formula_structural   KNb(AgSe2)2
_chemical_formula_sum   'K2 Nb2 Ag4 Se8'
_cell_volume   510.07341630
_cell_formula_units_Z   2
loop_
 _symmetry_equiv_pos_site_id
 _symmetry_equiv_pos_as_xyz
  1  'x, y, z'
loop_
 _atom_site_type_symbol
 _atom_site_label
 _atom_site_symmetry_multiplicity
 _atom_site_fract_x
 _atom_site_fract_y
 _atom_site_fract_z
 _atom_site_occupancy
  K  K0  1  0.46716500  0.83123800  0.25000000  1
  K  K1  1  0.83123800  0.46716500  0.75000000  1
  Nb  Nb0  1  0.77038000  0.99571000  0.75000000  1
  Nb  Nb1  1  0.99571000  0.77038000  0.25000000  1
  Ag  Ag0  1  0.91875000  0.91875000  0.50000000  1
  Ag  Ag1  1  0.91875000  0.91875000  0.00000000  1
  Ag  Ag2  1  0.26831000  0.49749400  0.75000000  1
  Ag  Ag3  1  0.49749400  0.26831000  0.25000000  1
  Se  Se0  1  0.65945100  0.63972600  0.25000000  1
  Se  Se1  1  0.98891100  0.22614900  0.99612600  1
  Se  Se2  1  0.98891100  0.22614900  0.50387400  1
  Se  Se3  1  0.45192300  0.88064300  0.75000000  1
  Se  Se4  1  0.88064300  0.45192300  0.25000000  1
  Se  Se5  1  0.22614900  0.98891100  0.00387400  1
  Se  Se6  1  0.63972600  0.65945100  0.75000000  1
  Se  Se7  1  0.22614900  0.98891100  0.49612600  1
loop_
_geom_bond_atom_site_label_1
_geom_bond_atom_site_label_2
_geom_bond_distance
_geom_bond_site_symmetry_2
K0 Se4 3.614672 1_455
K0 Se2 3.739632 1_565
K0 Se1 3.739632 1_564
K0 Se4 3.788561 1_565
K0 Se0 3.831026 1_555
K1 Se3 3.614672 1_545
K1 Se5 3.739632 1_656
K1 Se7 3.739632 1_655
K1 Se3 3.788561 1_655
K1 Se6 3.831026 1_555
Nb0 Se3 2.427408 1_555
Nb0 Se1 2.472010 1_565
Nb0 Se2 2.472010 1_565
Nb0 Se6 2.503158 1_555
Nb1 Se4 2.427408 1_555
Nb1 Se7 2.472010 1_655
Nb1 Se5 2.472010 1_655
Nb1 Se0 2.503158 1_555
Ag0 Se7 2.636621 1_655
Ag0 Se2 2.636621 1_565
Ag0 Se6 2.664529 1_555
Ag0 Se0 2.664529 1_555
Ag1 Se5 2.636621 1_655
Ag1 Se1 2.636621 1_564
Ag1 Se0 2.664529 1_555
Ag1 Se6 2.664529 1_554
Ag2 Se3 2.644452 1_555
Ag2 Se6 2.655458 1_555
Ag2 Se1 2.657379 1_455
Ag2 Se2 2.657379 1_455
Ag3 Se4 2.644452 1_555
Ag3 Se0 2.655458 1_555
Ag3 Se7 2.657379 1_545
Ag3 Se5 2.657379 1_545
