# generated using pymatgen
data_SiH17C11N
_symmetry_space_group_name_H-M   'P 1'
_cell_length_a   7.66739300
_cell_length_b   8.54634671
_cell_length_c   10.39911177
_cell_angle_alpha   105.04498331
_cell_angle_beta   92.69361688
_cell_angle_gamma   110.21162200
_symmetry_Int_Tables_number   1
_chemical_formula_structural   SiH17C11N
_chemical_formula_sum   'Si2 H34 C22 N2'
_cell_volume   610.49112136
_cell_formula_units_Z   2
loop_
 _symmetry_equiv_pos_site_id
 _symmetry_equiv_pos_as_xyz
  1  'x, y, z'
loop_
 _atom_site_type_symbol
 _atom_site_label
 _atom_site_symmetry_multiplicity
 _atom_site_fract_x
 _atom_site_fract_y
 _atom_site_fract_z
 _atom_site_occupancy
  Si  Si0  1  0.33155700  0.42568800  0.43749900  1
  Si  Si1  1  0.66844300  0.57431200  0.56250100  1
  H  H0  1  0.33112200  0.34748400  0.89824400  1
  H  H1  1  0.29435200  0.64653800  0.33079800  1
  H  H2  1  0.01452800  0.85121500  0.04279000  1
  H  H3  1  0.72014000  0.99884100  0.13644700  1
  H  H4  1  0.69644300  0.14934400  0.45462600  1
  H  H5  1  0.75543200  0.99355800  0.88953800  1
  H  H6  1  0.30355700  0.85065600  0.54537400  1
  H  H7  1  0.92309700  0.47835500  0.62798300  1
  H  H8  1  0.90066600  0.87546900  0.67203300  1
  H  H9  1  0.83846800  0.57115200  0.77079000  1
  H  H10  1  0.77767800  0.86606700  0.51840300  1
  H  H11  1  0.09933400  0.12453100  0.32796700  1
  H  H12  1  0.66887800  0.65251600  0.10175600  1
  H  H13  1  0.07690300  0.52164500  0.37201700  1
  H  H14  1  0.95975100  0.78199500  0.51600300  1
  H  H15  1  0.42486800  0.04099000  0.68114800  1
  H  H16  1  0.78143700  0.73094000  0.27142300  1
  H  H17  1  0.16153200  0.42884800  0.22921000  1
  H  H18  1  0.54362400  0.90530100  0.60093500  1
  H  H19  1  0.16573600  0.80369600  0.14809000  1
  H  H20  1  0.78500100  0.44435400  0.99821200  1
  H  H21  1  0.70564800  0.35346200  0.66920200  1
  H  H22  1  0.22232200  0.13393300  0.48159700  1
  H  H23  1  0.57513200  0.95901000  0.31885200  1
  H  H24  1  0.04024900  0.21800500  0.48399700  1
  H  H25  1  0.53393200  0.63154300  0.23492700  1
  H  H26  1  0.46606800  0.36845700  0.76507300  1
  H  H27  1  0.98547200  0.14878500  0.95721000  1
  H  H28  1  0.24456800  0.00644200  0.11046200  1
  H  H29  1  0.83426400  0.19630400  0.85191000  1
  H  H30  1  0.21856300  0.26906000  0.72857700  1
  H  H31  1  0.27986000  0.00115900  0.86355300  1
  H  H32  1  0.21499900  0.55564600  0.00178800  1
  H  H33  1  0.45637600  0.09469900  0.39906500  1
  C  C0  1  0.41089300  0.90524000  0.63571500  1
  C  C1  1  0.67731500  0.44983200  0.18593700  1
  C  C2  1  0.74541900  0.37405600  0.07299400  1
  C  C3  1  0.20635700  0.51553000  0.33334600  1
  C  C4  1  0.79364300  0.48447000  0.66665400  1
  C  C5  1  0.32268500  0.55016800  0.81406300  1
  C  C6  1  0.33582000  0.37506600  0.80076000  1
  C  C7  1  0.23603900  0.78708300  0.94712700  1
  C  C8  1  0.76396100  0.21291700  0.05287300  1
  C  C9  1  0.16163300  0.86606400  0.06859600  1
  C  C10  1  0.62500100  0.36151100  0.28442400  1
  C  C11  1  0.25458100  0.62594400  0.92700600  1
  C  C12  1  0.83836700  0.13393600  0.93140400  1
  C  C13  1  0.35787900  0.80294800  0.73522000  1
  C  C14  1  0.15891900  0.20478600  0.43254400  1
  C  C15  1  0.66418000  0.62493400  0.19924000  1
  C  C16  1  0.64212100  0.19705200  0.26478000  1
  C  C17  1  0.28937100  0.87319900  0.84969000  1
  C  C18  1  0.84108100  0.79521400  0.56745600  1
  C  C19  1  0.58910700  0.09476000  0.36428500  1
  C  C20  1  0.37499900  0.63848900  0.71557600  1
  C  C21  1  0.71062900  0.12680100  0.15031000  1
  N  N0  1  0.55650000  0.43566600  0.40064800  1
  N  N1  1  0.44350000  0.56433400  0.59935200  1
loop_
_geom_bond_atom_site_label_1
_geom_bond_atom_site_label_2
_geom_bond_distance
_geom_bond_site_symmetry_2
C0 H18 1.095836 1_555
C0 H15 1.097937 1_565
C0 H6 1.100931 1_555
C0 C13 1.504611 1_555
C1 C2 1.402842 1_555
C1 C10 1.417863 1_555
C1 C15 1.505560 1_555
C2 H20 1.093880 1_554
C2 C8 1.396073 1_555
C3 H1 1.097549 1_555
C3 H13 1.100956 1_555
C3 H17 1.101021 1_555
C3 Si0 1.878161 1_555
C4 H21 1.097549 1_555
C4 H7 1.100956 1_555
C4 H9 1.101021 1_555
C4 Si1 1.878161 1_555
C5 C6 1.505560 1_555
C6 H26 1.095979 1_555
C6 H0 1.098259 1_555
C6 H30 1.101471 1_555
C7 C9 1.505942 1_556
C9 H19 1.098350 1_555
C9 H28 1.099502 1_565
C9 H2 1.102394 1_555
C10 C16 1.419648 1_555
C10 N0 1.424883 1_555
C11 H32 1.093880 1_556
C11 C7 1.396073 1_555
C11 C5 1.402842 1_555
C12 H29 1.098350 1_555
C12 H5 1.099502 1_545
C12 H27 1.102394 1_555
C12 C8 1.505942 1_556
C13 C17 1.399661 1_555
C13 C20 1.419648 1_555
C14 H22 1.097117 1_555
C14 H11 1.100625 1_555
C14 H24 1.101073 1_555
C14 Si0 1.880245 1_555
C15 H25 1.095979 1_555
C15 H12 1.098259 1_555
C15 H16 1.101471 1_555
C16 C21 1.399661 1_555
C16 C19 1.504611 1_555
C17 H31 1.093749 1_565
C17 C7 1.397752 1_555
C18 H10 1.097117 1_555
C18 H8 1.100625 1_555
C18 H14 1.101073 1_555
C18 Si1 1.880245 1_555
C19 H33 1.095836 1_555
C19 H23 1.097937 1_545
C19 H4 1.100931 1_555
C20 C5 1.417863 1_555
C20 N1 1.424883 1_555
C21 H3 1.093749 1_545
C21 C8 1.397752 1_555
N0 Si1 1.760606 1_555
N0 Si0 1.762461 1_555
N1 Si0 1.760606 1_555
N1 Si1 1.762461 1_555
