# generated using pymatgen
data_Ti4CoBi2
_symmetry_space_group_name_H-M   'P 1'
_cell_length_a   4.85326002
_cell_length_b   7.85177389
_cell_length_c   7.85177379
_cell_angle_alpha   84.51903681
_cell_angle_beta   71.99771792
_cell_angle_gamma   71.99771259
_symmetry_Int_Tables_number   1
_chemical_formula_structural   Ti4CoBi2
_chemical_formula_sum   'Ti8 Co2 Bi4'
_cell_volume   270.62662380
_cell_formula_units_Z   2
loop_
 _symmetry_equiv_pos_site_id
 _symmetry_equiv_pos_as_xyz
  1  'x, y, z'
loop_
 _atom_site_type_symbol
 _atom_site_label
 _atom_site_symmetry_multiplicity
 _atom_site_fract_x
 _atom_site_fract_y
 _atom_site_fract_z
 _atom_site_occupancy
  Ti  Ti0  1  0.42019310  0.27277458  0.88684122  1
  Ti  Ti1  1  0.69296668  0.88684122  0.72722542  1
  Ti  Ti2  1  0.80703332  0.27277458  0.11315878  1
  Ti  Ti3  1  0.19296668  0.72722542  0.88684122  1
  Ti  Ti4  1  0.07980690  0.11315878  0.72722542  1
  Ti  Ti5  1  0.92019310  0.88684122  0.27277458  1
  Ti  Ti6  1  0.57980690  0.72722542  0.11315878  1
  Ti  Ti7  1  0.30703332  0.11315878  0.27277458  1
  Co  Co0  1  0.25000000  0.00000000  -0.00000000  1
  Co  Co1  1  0.75000000  0.00000000  -0.00000000  1
  Bi  Bi0  1  0.35923503  0.78152894  0.50000000  1
  Bi  Bi1  1  0.85923503  0.50000000  0.78152894  1
  Bi  Bi2  1  0.14076497  0.50000000  0.21847106  1
  Bi  Bi3  1  0.64076497  0.21847106  0.50000000  1
loop_
_geom_bond_atom_site_label_1
_geom_bond_atom_site_label_2
_geom_bond_distance
_geom_bond_site_symmetry_2
Co0 Co1 2.426630 1_455
Co0 Co1 2.426630 1_555
Co0 Ti6 2.516974 1_545
Co0 Ti5 2.516974 1_445
Co0 Ti7 2.516976 1_555
Co0 Ti3 2.516977 1_544
Co0 Ti2 2.516977 1_455
Co0 Ti1 2.516977 1_544
Co0 Ti4 2.516979 1_554
Co0 Ti0 2.516979 1_554
Co1 Ti0 2.516974 1_554
Co1 Ti4 2.516974 1_654
Co1 Ti1 2.516976 1_544
Co1 Ti2 2.516977 1_555
Co1 Ti3 2.516977 1_644
Co1 Ti7 2.516977 1_555
Co1 Ti5 2.516979 1_545
Co1 Ti6 2.516979 1_545
Bi0 Ti3 2.917015 1_555
Bi0 Ti6 2.917015 1_555
Bi0 Ti7 3.001942 1_565
Bi0 Ti4 3.001942 1_565
Bi0 Ti5 3.063657 1_455
Bi0 Ti1 3.063661 1_455
Bi0 Ti1 3.063665 1_555
Bi0 Ti5 3.063669 1_555
Bi1 Ti1 2.917015 1_555
Bi1 Ti4 2.917015 1_655
Bi1 Ti2 3.001942 1_556
Bi1 Ti6 3.001942 1_556
Bi1 Ti0 3.063657 1_555
Bi1 Ti3 3.063661 1_555
Bi1 Ti3 3.063665 1_655
Bi1 Ti0 3.063669 1_655
Bi2 Ti7 2.917015 1_555
Bi2 Ti5 2.917015 1_455
Bi2 Ti3 3.001942 1_554
Bi2 Ti0 3.001942 1_554
Bi2 Ti6 3.063657 1_555
Bi2 Ti2 3.063661 1_555
Bi2 Ti2 3.063665 1_455
Bi2 Ti6 3.063669 1_455
Bi3 Ti2 2.917015 1_555
Bi3 Ti0 2.917015 1_555
Bi3 Ti1 3.001942 1_545
Bi3 Ti5 3.001942 1_545
Bi3 Ti4 3.063657 1_655
Bi3 Ti7 3.063661 1_655
Bi3 Ti7 3.063665 1_555
Bi3 Ti4 3.063669 1_555
