# generated using pymatgen
data_Mo6PbS8
_symmetry_space_group_name_H-M   'P 1'
_cell_length_a   6.60475961
_cell_length_b   6.60475961
_cell_length_c   6.60475991
_cell_angle_alpha   89.12772135
_cell_angle_beta   89.12772135
_cell_angle_gamma   89.12772302
_symmetry_Int_Tables_number   1
_chemical_formula_structural   Mo6PbS8
_chemical_formula_sum   'Mo6 Pb1 S8'
_cell_volume   288.01928699
_cell_formula_units_Z   1
loop_
 _symmetry_equiv_pos_site_id
 _symmetry_equiv_pos_as_xyz
  1  'x, y, z'
loop_
 _atom_site_type_symbol
 _atom_site_label
 _atom_site_symmetry_multiplicity
 _atom_site_fract_x
 _atom_site_fract_y
 _atom_site_fract_z
 _atom_site_occupancy
  Mo  Mo0  1  0.43684800  0.77251400  0.58493200  1
  Mo  Mo1  1  0.22748600  0.41506800  0.56315200  1
  Mo  Mo2  1  0.58493200  0.43684800  0.77251400  1
  Mo  Mo3  1  0.56315200  0.22748600  0.41506800  1
  Mo  Mo4  1  0.41506800  0.56315200  0.22748600  1
  Mo  Mo5  1  0.77251400  0.58493200  0.43684800  1
  Pb  Pb0  1  0.00000000  0.00000000  0.00000000  1
  S  S0  1  0.38473500  0.12594900  0.74073900  1
  S  S1  1  0.75526100  0.75526100  0.75526100  1
  S  S2  1  0.25926100  0.61526500  0.87405100  1
  S  S3  1  0.61526500  0.87405100  0.25926100  1
  S  S4  1  0.87405100  0.25926100  0.61526500  1
  S  S5  1  0.74073900  0.38473500  0.12594900  1
  S  S6  1  0.24473900  0.24473900  0.24473900  1
  S  S7  1  0.12594900  0.74073900  0.38473500  1
loop_
_geom_bond_atom_site_label_1
_geom_bond_atom_site_label_2
_geom_bond_distance
_geom_bond_site_symmetry_2
Mo0 S1 2.400456 1_555
Mo0 S2 2.451398 1_555
Mo0 S7 2.472477 1_555
Mo0 S3 2.523499 1_555
Mo0 S0 2.581578 1_565
Mo1 S6 2.400456 1_555
Mo1 S0 2.451398 1_555
Mo1 S2 2.472477 1_555
Mo1 S7 2.523499 1_555
Mo1 S4 2.581578 1_455
Mo2 S1 2.400456 1_555
Mo2 S4 2.451398 1_555
Mo2 S0 2.472477 1_555
Mo2 S2 2.523499 1_555
Mo2 S5 2.581579 1_556
Mo3 S6 2.400456 1_555
Mo3 S5 2.451398 1_555
Mo3 S4 2.472477 1_555
Mo3 S0 2.523499 1_555
Mo3 S3 2.581578 1_545
Mo4 S6 2.400456 1_555
Mo4 S7 2.451398 1_555
Mo4 S3 2.472477 1_555
Mo4 S5 2.523499 1_555
Mo4 S2 2.581579 1_554
Mo5 S1 2.400456 1_555
Mo5 S3 2.451398 1_555
Mo5 S5 2.472477 1_555
Mo5 S4 2.523499 1_555
Mo5 S7 2.581578 1_655
Pb0 S6 2.842063 1_555
Pb0 S1 2.842063 1_444
Pb0 S0 3.157494 1_554
Pb0 S3 3.157494 1_445
Pb0 S5 3.157494 1_455
Pb0 S2 3.157494 1_544
Pb0 S7 3.157494 1_545
Pb0 S4 3.157494 1_454
