# generated using pymatgen
data_Rb2LiC3S3(OF)9
_symmetry_space_group_name_H-M   'P 1'
_cell_length_a   16.59466200
_cell_length_b   5.42613300
_cell_length_c   20.04586758
_cell_angle_alpha   89.65729856
_cell_angle_beta   90.00000000
_cell_angle_gamma   90.00000000
_symmetry_Int_Tables_number   1
_chemical_formula_structural   Rb2LiC3S3(OF)9
_chemical_formula_sum   'Rb8 Li4 C12 S12 O36 F36'
_cell_volume   1804.99471281
_cell_formula_units_Z   4
loop_
 _symmetry_equiv_pos_site_id
 _symmetry_equiv_pos_as_xyz
  1  'x, y, z'
loop_
 _atom_site_type_symbol
 _atom_site_label
 _atom_site_symmetry_multiplicity
 _atom_site_fract_x
 _atom_site_fract_y
 _atom_site_fract_z
 _atom_site_occupancy
  Rb  Rb0  1  0.12446300  0.97609700  0.98764900  1
  Rb  Rb1  1  0.65823100  0.60243600  0.72343900  1
  Rb  Rb2  1  0.62446300  0.52390300  0.51235100  1
  Rb  Rb3  1  0.87553700  0.02390300  0.01235100  1
  Rb  Rb4  1  0.84176900  0.10243600  0.22343900  1
  Rb  Rb5  1  0.15823100  0.89756400  0.77656100  1
  Rb  Rb6  1  0.34176900  0.39756400  0.27656100  1
  Rb  Rb7  1  0.37553700  0.47609700  0.48764900  1
  Li  Li0  1  0.26772000  0.96917900  0.57498900  1
  Li  Li1  1  0.23228000  0.46917900  0.07498900  1
  Li  Li2  1  0.76772000  0.53082100  0.92501100  1
  Li  Li3  1  0.73228000  0.03082100  0.42501100  1
  C  C0  1  0.41038600  0.95189200  0.09718000  1
  C  C1  1  0.08961400  0.45189200  0.59718000  1
  C  C2  1  0.85862400  0.08307600  0.61022100  1
  C  C3  1  0.91038600  0.54810800  0.40282000  1
  C  C4  1  0.64137600  0.58307600  0.11022100  1
  C  C5  1  0.94809900  0.39523200  0.80612600  1
  C  C6  1  0.44809900  0.10476800  0.69387400  1
  C  C7  1  0.55190100  0.89523200  0.30612600  1
  C  C8  1  0.14137600  0.91692400  0.38977900  1
  C  C9  1  0.35862400  0.41692400  0.88977900  1
  C  C10  1  0.58961400  0.04810800  0.90282000  1
  C  C11  1  0.05190100  0.60476800  0.19387400  1
  S  S0  1  0.74947900  0.04494200  0.58957000  1
  S  S1  1  0.46702400  0.98952800  0.60746900  1
  S  S2  1  0.24947900  0.45505800  0.91043000  1
  S  S3  1  0.25052100  0.95505800  0.41043000  1
  S  S4  1  0.80702900  0.53170600  0.36584300  1
  S  S5  1  0.03297600  0.48952800  0.10746900  1
  S  S6  1  0.75052100  0.54494200  0.08957000  1
  S  S7  1  0.53297600  0.01047200  0.39253100  1
  S  S8  1  0.96702400  0.51047200  0.89253100  1
  S  S9  1  0.19297100  0.46829400  0.63415700  1
  S  S10  1  0.30702900  0.96829400  0.13415700  1
  S  S11  1  0.69297100  0.03170600  0.86584300  1
  O  O0  1  0.31688800  0.86859000  0.20118200  1
  O  O1  1  0.75486000  0.61544000  0.01870300  1
  O  O2  1  0.70733700  0.21480500  0.63337500  1
  O  O3  1  0.99847700  0.29646600  0.92840200  1
  O  O4  1  0.61363900  0.08604000  0.41491800  1
  O  O5  1  0.18311200  0.36859000  0.70118200  1
  O  O6  1  0.25486000  0.88456000  0.48129700  1
  O  O7  1  0.97674400  0.28622300  0.11699800  1
  O  O8  1  0.79266300  0.71480500  0.13337500  1
  O  O9  1  0.74514000  0.11544000  0.51870300  1
  O  O10  1  0.49847700  0.20353400  0.57159800  1
  O  O11  1  0.24288600  0.32121500  0.58903100  1
  O  O12  1  0.26614100  0.21589300  0.39784400  1
  O  O13  1  0.73385900  0.78410700  0.60215600  1
  O  O14  1  0.76614100  0.28410700  0.10215600  1
  O  O15  1  0.38636100  0.91396000  0.58508200  1
  O  O16  1  0.88636100  0.58604000  0.91491800  1
  O  O17  1  0.20733700  0.28519500  0.86662500  1
  O  O18  1  0.11363900  0.41396000  0.08508200  1
  O  O19  1  0.29266300  0.78519500  0.36662500  1
  O  O20  1  0.24514000  0.38456000  0.98129700  1
  O  O21  1  0.81688800  0.63141000  0.29881800  1
  O  O22  1  0.21178900  0.73266900  0.63280800  1
  O  O23  1  0.68311200  0.13141000  0.79881800  1
  O  O24  1  0.00152300  0.70353400  0.07159800  1
  O  O25  1  0.52325600  0.78622300  0.61699800  1
  O  O26  1  0.02325600  0.71377700  0.88300200  1
  O  O27  1  0.78821100  0.26733100  0.36719200  1
  O  O28  1  0.28821100  0.23266900  0.13280800  1
  O  O29  1  0.75711400  0.67878500  0.41096900  1
  O  O30  1  0.50152300  0.79646600  0.42840200  1
  O  O31  1  0.23385900  0.71589300  0.89784400  1
  O  O32  1  0.47674400  0.21377700  0.38300200  1
  O  O33  1  0.74288600  0.17878500  0.91096900  1
  O  O34  1  0.25711400  0.82121500  0.08903100  1
  O  O35  1  0.71178900  0.76733100  0.86719200  1
  F  F0  1  0.46166100  0.08991400  0.13417600  1
  F  F1  1  0.37954500  0.17619100  0.89226100  1
  F  F2  1  0.87954500  0.32380900  0.60773900  1
  F  F3  1  0.87331600  0.99677300  0.67277900  1
  F  F4  1  0.93627300  0.78501400  0.40210000  1
  F  F5  1  0.06372700  0.21498600  0.59790000  1
  F  F6  1  0.08892300  0.53634500  0.53387100  1
  F  F7  1  0.12045500  0.67619100  0.39226100  1
  F  F8  1  0.91107700  0.46365500  0.46612900  1
  F  F9  1  0.53833900  0.91008600  0.86582400  1
  F  F10  1  0.62045500  0.82380900  0.10773900  1
  F  F11  1  0.56372700  0.28501400  0.90210000  1
  F  F12  1  0.37331600  0.50322700  0.82722100  1
  F  F13  1  0.62668400  0.49677300  0.17277900  1
  F  F14  1  0.59512900  0.45623600  0.06682100  1
  F  F15  1  0.90487100  0.95623600  0.56682100  1
  F  F16  1  0.03833900  0.58991400  0.63417600  1
  F  F17  1  0.12668400  0.00322700  0.32722100  1
  F  F18  1  0.51874700  0.17688600  0.72265500  1
  F  F19  1  0.60250300  0.70021800  0.30727800  1
  F  F20  1  0.96166100  0.41008600  0.36582400  1
  F  F21  1  0.89749700  0.20021800  0.80727800  1
  F  F22  1  0.58892300  0.96365500  0.96612900  1
  F  F23  1  0.48125300  0.82311400  0.27734500  1
  F  F24  1  0.43627300  0.71498600  0.09790000  1
  F  F25  1  0.58455500  0.07455800  0.26742600  1
  F  F26  1  0.98125300  0.67688600  0.22265500  1
  F  F27  1  0.10250300  0.79978200  0.19272200  1
  F  F28  1  0.08455500  0.42544200  0.23257400  1
  F  F29  1  0.40487100  0.54376400  0.93317900  1
  F  F30  1  0.39749700  0.29978200  0.69272200  1
  F  F31  1  0.09512900  0.04376400  0.43317900  1
  F  F32  1  0.91544500  0.57455800  0.76742600  1
  F  F33  1  0.01874700  0.32311400  0.77734500  1
  F  F34  1  0.41107700  0.03634500  0.03387100  1
  F  F35  1  0.41544500  0.92544200  0.73257400  1
loop_
_geom_bond_atom_site_label_1
_geom_bond_atom_site_label_2
_geom_bond_distance
_geom_bond_site_symmetry_2
Li0 O6 1.947840 1_555
Li0 O22 1.958056 1_555
Li0 O11 1.975941 1_565
Li0 O15 2.001546 1_555
Li1 O20 1.947840 1_554
Li1 O28 1.958056 1_555
Li1 O34 1.975941 1_555
Li1 O18 2.001546 1_555
Li2 O1 1.947840 1_556
Li2 O35 1.958056 1_555
Li2 O33 1.975941 1_555
Li2 O16 2.001546 1_555
Li3 O9 1.947840 1_555
Li3 O27 1.958056 1_555
Li3 O29 1.975941 1_545
Li3 O4 2.001546 1_555
C0 F34 1.346753 1_565
C0 F24 1.355359 1_555
C0 F0 1.357036 1_565
C1 F6 1.346753 1_555
C1 F5 1.355359 1_555
C1 F16 1.357036 1_555
C2 F15 1.351562 1_545
C2 F2 1.352227 1_555
C2 F3 1.358052 1_545
C3 F8 1.346753 1_555
C3 F4 1.355359 1_555
C3 F20 1.357036 1_555
C4 F14 1.351562 1_555
C4 F10 1.352227 1_555
C4 F13 1.358052 1_555
C5 F21 1.350964 1_555
C5 F32 1.353977 1_555
C5 F33 1.364979 1_655
C6 F30 1.350964 1_555
C6 F35 1.353977 1_545
C6 F18 1.364979 1_555
C7 F19 1.350964 1_555
C7 F25 1.353977 1_565
C7 F23 1.364979 1_555
C8 F31 1.351562 1_565
C8 F7 1.352227 1_555
C8 F17 1.358052 1_565
C9 F29 1.351562 1_555
C9 F1 1.352227 1_555
C9 F12 1.358052 1_555
C10 F22 1.346753 1_545
C10 F11 1.355359 1_555
C10 F9 1.357036 1_545
C11 F27 1.350964 1_555
C11 F28 1.353977 1_555
C11 F26 1.364979 1_455
O0 S10 1.454631 1_555
O0 Rb6 2.989964 1_555
O0 Rb6 3.277823 1_565
O1 S6 1.470745 1_555
O1 Rb3 2.989237 1_565
O2 S0 1.455800 1_555
O2 Rb1 2.897071 1_555
O2 Rb2 3.246742 1_555
O3 S8 1.458747 1_555
O3 Rb0 2.962896 1_645
O3 Rb3 3.025174 1_556
O4 S7 1.470888 1_555
O4 Rb2 3.089887 1_555
O5 S9 1.454631 1_555
O5 Rb5 2.989964 1_545
O5 Rb5 3.277823 1_555
O6 S3 1.470745 1_555
O6 Rb7 2.989237 1_555
O7 S5 1.456605 1_655
O7 Rb3 3.046795 1_555
O7 Rb4 3.246342 1_555
O8 S6 1.455800 1_555
O8 Rb4 2.897071 1_565
O8 Rb3 3.246742 1_565
O9 S0 1.470745 1_555
O9 Rb2 2.989237 1_555
O10 S1 1.458747 1_545
O10 Rb2 2.962896 1_555
O10 Rb7 3.025174 1_555
O11 S9 1.466272 1_555
O11 Rb7 3.108340 1_555
O12 S3 1.459355 1_545
O12 Rb6 2.903274 1_555
O12 Rb7 2.925799 1_555
O13 S0 1.459355 1_565
O13 Rb1 2.903274 1_555
O13 Rb2 2.925799 1_555
O14 S6 1.459355 1_555
O14 Rb4 2.903274 1_555
O14 Rb3 2.925799 1_555
O15 S1 1.470888 1_555
O15 Rb7 3.089887 1_555
O16 S8 1.470888 1_555
O16 Rb3 3.089887 1_566
O17 S2 1.455800 1_555
O17 Rb5 2.897071 1_545
O17 Rb0 3.246742 1_545
O18 S5 1.470888 1_555
O18 Rb0 3.089887 1_544
O19 S3 1.455800 1_555
O19 Rb6 2.897071 1_555
O19 Rb7 3.246742 1_555
O20 S2 1.470745 1_555
O20 Rb0 2.989237 1_545
O21 S4 1.454631 1_555
O21 Rb4 2.989964 1_565
O21 Rb4 3.277823 1_555
O22 S9 1.468221 1_555
O22 Rb5 3.150438 1_555
O23 S11 1.454631 1_555
O23 Rb1 2.989964 1_555
O23 Rb1 3.277823 1_545
O24 S5 1.458747 1_555
O24 Rb3 2.962896 1_465
O24 Rb0 3.025174 1_554
O25 S1 1.456605 1_555
O25 Rb2 3.046795 1_555
O25 Rb1 3.246342 1_555
O26 S8 1.456605 1_455
O26 Rb0 3.046795 1_555
O26 Rb5 3.246342 1_555
O27 S4 1.468221 1_555
O27 Rb4 3.150438 1_555
O28 S10 1.468221 1_545
O28 Rb6 3.150438 1_555
O29 S4 1.466272 1_555
O29 Rb2 3.108340 1_555
O30 S7 1.458747 1_565
O30 Rb7 2.962896 1_555
O30 Rb2 3.025174 1_555
O31 S2 1.459355 1_555
O31 Rb5 2.903274 1_555
O31 Rb0 2.925799 1_555
O32 S7 1.456605 1_555
O32 Rb7 3.046795 1_555
O32 Rb6 3.246342 1_555
O33 S11 1.466272 1_555
O33 Rb3 3.108340 1_556
O34 S10 1.466272 1_555
O34 Rb0 3.108340 1_554
O35 S11 1.468221 1_565
O35 Rb1 3.150438 1_555
F18 Rb1 3.269613 1_555
F23 Rb6 3.269613 1_555
F26 Rb4 3.269613 1_565
F33 Rb5 3.269613 1_545
