# generated using pymatgen
data_Rb2MgP2WO10
_symmetry_space_group_name_H-M   'P 1'
_cell_length_a   10.00743000
_cell_length_b   12.85786500
_cell_length_c   15.68649100
_cell_angle_alpha   90.00000000
_cell_angle_beta   90.00000000
_cell_angle_gamma   90.00000000
_symmetry_Int_Tables_number   1
_chemical_formula_structural   Rb2MgP2WO10
_chemical_formula_sum   'Rb16 Mg8 P16 W8 O80'
_cell_volume   2018.44642826
_cell_formula_units_Z   8
loop_
 _symmetry_equiv_pos_site_id
 _symmetry_equiv_pos_as_xyz
  1  'x, y, z'
loop_
 _atom_site_type_symbol
 _atom_site_label
 _atom_site_symmetry_multiplicity
 _atom_site_fract_x
 _atom_site_fract_y
 _atom_site_fract_z
 _atom_site_occupancy
  Rb  Rb0  1  0.60571200  0.86723100  0.10769300  1
  Rb  Rb1  1  0.10764400  0.17334700  0.34571500  1
  Rb  Rb2  1  0.39235600  0.82665300  0.84571500  1
  Rb  Rb3  1  0.89235600  0.67334700  0.15428500  1
  Rb  Rb4  1  0.60764400  0.17334700  0.15428500  1
  Rb  Rb5  1  0.39428800  0.36723100  0.39230700  1
  Rb  Rb6  1  0.89428800  0.36723100  0.10769300  1
  Rb  Rb7  1  0.60571200  0.63276900  0.60769300  1
  Rb  Rb8  1  0.10764400  0.32665300  0.84571500  1
  Rb  Rb9  1  0.10571200  0.86723100  0.39230700  1
  Rb  Rb10  1  0.39235600  0.67334700  0.34571500  1
  Rb  Rb11  1  0.89428800  0.13276900  0.60769300  1
  Rb  Rb12  1  0.39428800  0.13276900  0.89230700  1
  Rb  Rb13  1  0.60764400  0.32665300  0.65428500  1
  Rb  Rb14  1  0.10571200  0.63276900  0.89230700  1
  Rb  Rb15  1  0.89235600  0.82665300  0.65428500  1
  Mg  Mg0  1  0.00029500  0.87435700  0.00239300  1
  Mg  Mg1  1  0.99970500  0.12564300  0.99760700  1
  Mg  Mg2  1  0.00029500  0.62564300  0.50239300  1
  Mg  Mg3  1  0.99970500  0.37435700  0.49760700  1
  Mg  Mg4  1  0.50029500  0.87435700  0.49760700  1
  Mg  Mg5  1  0.49970500  0.37435700  0.00239300  1
  Mg  Mg6  1  0.50029500  0.62564300  0.99760700  1
  Mg  Mg7  1  0.49970500  0.12564300  0.50239300  1
  P  P0  1  0.07655600  0.99511300  0.83457400  1
  P  P1  1  0.42344400  0.00488700  0.33457400  1
  P  P2  1  0.07655600  0.50488700  0.33457400  1
  P  P3  1  0.25788700  0.74417500  0.59238700  1
  P  P4  1  0.57655600  0.99511300  0.66542600  1
  P  P5  1  0.24211300  0.25582500  0.09238700  1
  P  P6  1  0.75788700  0.74417500  0.90761300  1
  P  P7  1  0.74211300  0.25582500  0.40761300  1
  P  P8  1  0.92344400  0.49511300  0.66542600  1
  P  P9  1  0.42344400  0.49511300  0.83457400  1
  P  P10  1  0.25788700  0.75582500  0.09238700  1
  P  P11  1  0.75788700  0.75582500  0.40761300  1
  P  P12  1  0.24211300  0.24417500  0.59238700  1
  P  P13  1  0.74211300  0.24417500  0.90761300  1
  P  P14  1  0.57655600  0.50488700  0.16542600  1
  P  P15  1  0.92344400  0.00488700  0.16542600  1
  W  W0  1  0.74943600  0.49256900  0.85737800  1
  W  W1  1  0.75056400  0.99256900  0.85737800  1
  W  W2  1  0.25056400  0.99256900  0.64262200  1
  W  W3  1  0.74943600  0.00743100  0.35737800  1
  W  W4  1  0.24943600  0.49256900  0.64262200  1
  W  W5  1  0.75056400  0.50743100  0.35737800  1
  W  W6  1  0.24943600  0.00743100  0.14262200  1
  W  W7  1  0.25056400  0.50743100  0.14262200  1
  O  O0  1  0.72893700  0.35285800  0.34625200  1
  O  O1  1  0.35996800  0.50057400  0.04915600  1
  O  O2  1  0.59199800  0.60543900  0.11320200  1
  O  O3  1  0.59125300  0.97737000  0.90662400  1
  O  O4  1  0.43869000  0.50142000  0.21352900  1
  O  O5  1  0.09199800  0.60543900  0.38679800  1
  O  O6  1  0.56131000  0.00142000  0.28647100  1
  O  O7  1  0.14003200  0.00057400  0.04915600  1
  O  O8  1  0.09125300  0.52263000  0.09337600  1
  O  O9  1  0.37733100  0.25923200  0.04833100  1
  O  O10  1  0.64003200  0.49942600  0.95084400  1
  O  O11  1  0.93869000  0.50142000  0.28647100  1
  O  O12  1  0.62376100  0.24851600  0.46844100  1
  O  O13  1  0.12266900  0.74076800  0.54833100  1
  O  O14  1  0.37623900  0.74851600  0.03155900  1
  O  O15  1  0.09880900  0.09609900  0.88532300  1
  O  O16  1  0.30990800  0.49142000  0.76497600  1
  O  O17  1  0.26660400  0.66278000  0.15817000  1
  O  O18  1  0.62376100  0.25148400  0.96844100  1
  O  O19  1  0.76660400  0.66278000  0.34183000  1
  O  O20  1  0.37733100  0.24076800  0.54833100  1
  O  O21  1  0.80990800  0.00858000  0.23502400  1
  O  O22  1  0.37623900  0.75148400  0.53155900  1
  O  O23  1  0.40119100  0.59609900  0.88532300  1
  O  O24  1  0.27106300  0.64714200  0.65374800  1
  O  O25  1  0.40119100  0.90390100  0.38532300  1
  O  O26  1  0.23339600  0.16278000  0.15817000  1
  O  O27  1  0.77106300  0.85285800  0.34625200  1
  O  O28  1  0.43869000  0.99858000  0.71352900  1
  O  O29  1  0.12376100  0.25148400  0.53155900  1
  O  O30  1  0.27106300  0.85285800  0.15374800  1
  O  O31  1  0.87623900  0.74851600  0.46844100  1
  O  O32  1  0.85996800  0.99942600  0.95084400  1
  O  O33  1  0.73339600  0.16278000  0.34183000  1
  O  O34  1  0.59199800  0.89456100  0.61320200  1
  O  O35  1  0.90874700  0.47737000  0.90662400  1
  O  O36  1  0.40800200  0.39456100  0.88679800  1
  O  O37  1  0.90119100  0.59609900  0.61467700  1
  O  O38  1  0.87733100  0.25923200  0.45166900  1
  O  O39  1  0.30990800  0.00858000  0.26497600  1
  O  O40  1  0.77106300  0.64714200  0.84625200  1
  O  O41  1  0.22893700  0.35285800  0.15374800  1
  O  O42  1  0.80990800  0.49142000  0.73502400  1
  O  O43  1  0.85996800  0.50057400  0.45084400  1
  O  O44  1  0.87733100  0.24076800  0.95166900  1
  O  O45  1  0.19009200  0.50858000  0.26497600  1
  O  O46  1  0.93869000  0.99858000  0.78647100  1
  O  O47  1  0.09199800  0.89456100  0.88679800  1
  O  O48  1  0.23339600  0.33722000  0.65817000  1
  O  O49  1  0.72893700  0.14714200  0.84625200  1
  O  O50  1  0.26660400  0.83722000  0.65817000  1
  O  O51  1  0.64003200  0.00057400  0.45084400  1
  O  O52  1  0.90800200  0.39456100  0.61320200  1
  O  O53  1  0.62266900  0.74076800  0.95166900  1
  O  O54  1  0.73339600  0.33722000  0.84183000  1
  O  O55  1  0.22893700  0.14714200  0.65374800  1
  O  O56  1  0.40874700  0.47737000  0.59337600  1
  O  O57  1  0.62266900  0.75923200  0.45166900  1
  O  O58  1  0.90800200  0.10543900  0.11320200  1
  O  O59  1  0.12376100  0.24851600  0.03155900  1
  O  O60  1  0.90874700  0.02263000  0.40662400  1
  O  O61  1  0.35996800  0.99942600  0.54915600  1
  O  O62  1  0.06131000  0.00142000  0.21352900  1
  O  O63  1  0.40874700  0.02263000  0.09337600  1
  O  O64  1  0.76660400  0.83722000  0.84183000  1
  O  O65  1  0.56131000  0.49858000  0.78647100  1
  O  O66  1  0.40800200  0.10543900  0.38679800  1
  O  O67  1  0.69009200  0.50858000  0.23502400  1
  O  O68  1  0.12266900  0.75923200  0.04833100  1
  O  O69  1  0.06131000  0.49858000  0.71352900  1
  O  O70  1  0.87623900  0.75148400  0.96844100  1
  O  O71  1  0.59880900  0.40390100  0.11467700  1
  O  O72  1  0.14003200  0.49942600  0.54915600  1
  O  O73  1  0.09125300  0.97737000  0.59337600  1
  O  O74  1  0.09880900  0.40390100  0.38532300  1
  O  O75  1  0.69009200  0.99142000  0.73502400  1
  O  O76  1  0.59880900  0.09609900  0.61467700  1
  O  O77  1  0.59125300  0.52263000  0.40662400  1
  O  O78  1  0.90119100  0.90390100  0.11467700  1
  O  O79  1  0.19009200  0.99142000  0.76497600  1
loop_
_geom_bond_atom_site_label_1
_geom_bond_atom_site_label_2
_geom_bond_distance
_geom_bond_site_symmetry_2
Mg0 O47 2.048820 1_554
Mg0 O68 2.051880 1_555
Mg0 O78 2.056757 1_455
Mg0 O70 2.078692 1_454
Mg0 O7 2.264372 1_565
Mg0 O32 2.282984 1_454
Mg1 O58 2.048820 1_556
Mg1 O44 2.051880 1_555
Mg1 O15 2.056757 1_655
Mg1 O59 2.078692 1_656
Mg1 O32 2.264372 1_545
Mg1 O7 2.282984 1_656
Mg2 O5 2.048820 1_555
Mg2 O13 2.051880 1_555
Mg2 O37 2.056757 1_455
Mg2 O31 2.078692 1_455
Mg2 O72 2.264372 1_555
Mg2 O43 2.282984 1_455
Mg3 O52 2.048820 1_555
Mg3 O38 2.051880 1_555
Mg3 O74 2.056757 1_655
Mg3 O29 2.078692 1_655
Mg3 O43 2.264372 1_555
Mg3 O72 2.282984 1_655
Mg4 O34 2.048820 1_555
Mg4 O57 2.051880 1_555
Mg4 O25 2.056757 1_555
Mg4 O22 2.078692 1_555
Mg4 O51 2.264372 1_565
Mg4 O61 2.282984 1_555
Mg5 O36 2.048820 1_554
Mg5 O9 2.051880 1_555
Mg5 O71 2.056757 1_555
Mg5 O18 2.078692 1_554
Mg5 O1 2.264372 1_555
Mg5 O10 2.282984 1_554
Mg6 O2 2.048820 1_556
Mg6 O53 2.051880 1_555
Mg6 O23 2.056757 1_555
Mg6 O14 2.078692 1_556
Mg6 O10 2.264372 1_555
Mg6 O1 2.282984 1_556
Mg7 O66 2.048820 1_555
Mg7 O20 2.051880 1_555
Mg7 O76 2.056757 1_555
Mg7 O12 2.078692 1_555
Mg7 O61 2.264372 1_545
Mg7 O51 2.282984 1_555
O0 P7 1.581286 1_555
O0 W5 2.006832 1_555
O0 Rb5 3.430994 1_555
O1 W7 1.831961 1_555
O2 P14 1.538355 1_555
O2 Rb3 3.195718 1_555
O2 Rb0 3.369991 1_555
O3 W1 1.782334 1_555
O3 Rb12 2.815693 1_565
O3 Rb2 2.937723 1_555
O3 Rb0 3.460428 1_556
O4 P14 1.573178 1_555
O4 W7 2.188046 1_555
O4 Rb10 3.066164 1_555
O4 Rb5 3.322507 1_555
O5 P2 1.538355 1_555
O5 Rb10 3.195718 1_555
O5 Rb9 3.369991 1_555
O6 P1 1.573178 1_555
O6 W3 2.188046 1_555
O6 Rb4 3.066164 1_555
O6 Rb0 3.322507 1_545
O7 W6 1.831961 1_555
O8 W7 1.782334 1_555
O8 Rb6 2.815693 1_455
O8 Rb3 2.937723 1_455
O8 Rb14 3.460428 1_554
O9 P5 1.520074 1_555
O9 Rb12 2.943284 1_554
O9 Rb4 3.048633 1_555
O10 W0 1.831961 1_555
O11 P2 1.573178 1_655
O11 W5 2.188046 1_555
O11 Rb3 3.066164 1_555
O11 Rb6 3.322507 1_555
O12 P7 1.523840 1_555
O12 Rb5 3.004974 1_555
O12 Rb13 3.087720 1_555
O13 P3 1.520074 1_555
O13 Rb9 2.943284 1_555
O13 Rb15 3.048633 1_455
O14 P10 1.523840 1_555
O14 Rb0 3.004974 1_555
O14 Rb2 3.087720 1_554
O15 P0 1.539265 1_545
O15 Rb12 2.996344 1_555
O15 Rb8 3.030132 1_555
O16 P9 1.576429 1_555
O16 W4 2.012506 1_555
O16 Rb8 3.192095 1_555
O16 Rb14 3.386506 1_555
O17 P10 1.582313 1_555
O17 W7 2.018683 1_555
O17 Rb10 3.202667 1_555
O18 P13 1.523840 1_555
O18 Rb12 3.004974 1_555
O18 Rb4 3.087720 1_556
O19 P11 1.582313 1_555
O19 W5 2.018683 1_555
O19 Rb3 3.202667 1_555
O20 P12 1.520074 1_555
O20 Rb5 2.943284 1_555
O20 Rb13 3.048633 1_555
O21 P15 1.576429 1_555
O21 W3 2.012506 1_555
O21 Rb4 3.192095 1_555
O21 Rb0 3.386506 1_545
O22 P3 1.523840 1_555
O22 Rb7 3.004974 1_555
O22 Rb10 3.087720 1_555
O23 P9 1.539265 1_555
O23 Rb14 2.996344 1_555
O23 Rb2 3.030132 1_555
O24 P3 1.581286 1_555
O24 W4 2.006832 1_555
O24 Rb7 3.430994 1_555
O25 P1 1.539265 1_565
O25 Rb9 2.996344 1_555
O25 Rb10 3.030132 1_555
O26 P5 1.582313 1_555
O26 W6 2.018683 1_555
O26 Rb1 3.202667 1_555
O27 P11 1.581286 1_555
O27 W3 2.006832 1_565
O27 Rb9 3.430994 1_655
O28 P4 1.573178 1_555
O28 W2 2.188046 1_555
O28 Rb2 3.066164 1_555
O28 Rb12 3.322507 1_565
O29 P12 1.523840 1_555
O29 Rb11 3.004974 1_455
O29 Rb1 3.087720 1_555
O30 P10 1.581286 1_555
O30 W6 2.006832 1_565
O30 Rb0 3.430994 1_555
O31 P11 1.523840 1_555
O31 Rb9 3.004974 1_655
O31 Rb15 3.087720 1_555
O32 W1 1.831961 1_555
O33 P7 1.582313 1_555
O33 W3 2.018683 1_555
O33 Rb4 3.202667 1_555
O34 P4 1.538355 1_555
O34 Rb15 3.195718 1_555
O34 Rb7 3.369991 1_555
O35 W0 1.782334 1_555
O35 Rb14 2.815693 1_655
O35 Rb8 2.937723 1_655
O35 Rb6 3.460428 1_556
O36 P9 1.538355 1_555
O36 Rb8 3.195718 1_555
O36 Rb12 3.369991 1_555
O37 P8 1.539265 1_555
O37 Rb7 2.996344 1_555
O37 Rb15 3.030132 1_555
O38 P7 1.520074 1_555
O38 Rb11 2.943284 1_555
O38 Rb1 3.048633 1_655
O39 P1 1.576429 1_555
O39 W6 2.012506 1_555
O39 Rb1 3.192095 1_555
O39 Rb9 3.386506 1_545
O40 P6 1.581286 1_555
O40 W0 2.006832 1_555
O40 Rb14 3.430994 1_655
O41 P5 1.581286 1_555
O41 W7 2.006832 1_555
O41 Rb6 3.430994 1_455
O42 P8 1.576429 1_555
O42 W0 2.012506 1_555
O42 Rb13 3.192095 1_555
O42 Rb7 3.386506 1_555
O43 W5 1.831961 1_555
O44 P13 1.520074 1_555
O44 Rb6 2.943284 1_556
O44 Rb8 3.048633 1_655
O45 P2 1.576429 1_555
O45 W7 2.012506 1_555
O45 Rb10 3.192095 1_555
O45 Rb5 3.386506 1_555
O46 P0 1.573178 1_655
O46 W1 2.188046 1_555
O46 Rb15 3.066164 1_555
O46 Rb11 3.322507 1_565
O47 P0 1.538355 1_555
O47 Rb2 3.195718 1_555
O47 Rb14 3.369991 1_555
O48 P12 1.582313 1_555
O48 W4 2.018683 1_555
O48 Rb8 3.202667 1_555
O49 P13 1.581286 1_555
O49 W1 2.006832 1_545
O49 Rb12 3.430994 1_555
O50 P3 1.582313 1_555
O50 W2 2.018683 1_555
O50 Rb2 3.202667 1_555
O51 W3 1.831961 1_555
O52 P8 1.538355 1_555
O52 Rb13 3.195718 1_555
O52 Rb11 3.369991 1_555
O53 P6 1.520074 1_555
O53 Rb0 2.943284 1_556
O53 Rb2 3.048633 1_555
O54 P13 1.582313 1_555
O54 W0 2.018683 1_555
O54 Rb13 3.202667 1_555
O55 P12 1.581286 1_555
O55 W2 2.006832 1_545
O55 Rb11 3.430994 1_455
O56 W4 1.782334 1_555
O56 Rb7 2.815693 1_555
O56 Rb13 2.937723 1_555
O56 Rb5 3.460428 1_555
O57 P11 1.520074 1_555
O57 Rb7 2.943284 1_555
O57 Rb10 3.048633 1_555
O58 P15 1.538355 1_555
O58 Rb4 3.195718 1_555
O58 Rb6 3.369991 1_555
O59 P5 1.523840 1_555
O59 Rb6 3.004974 1_455
O59 Rb8 3.087720 1_554
O60 W3 1.782334 1_555
O60 Rb9 2.815693 1_645
O60 Rb1 2.937723 1_655
O60 Rb11 3.460428 1_555
O61 W2 1.831961 1_555
O62 P15 1.573178 1_455
O62 W6 2.188046 1_555
O62 Rb1 3.066164 1_555
O62 Rb9 3.322507 1_545
O63 W6 1.782334 1_555
O63 Rb0 2.815693 1_545
O63 Rb4 2.937723 1_555
O63 Rb12 3.460428 1_554
O64 P6 1.582313 1_555
O64 W1 2.018683 1_555
O64 Rb15 3.202667 1_555
O65 P9 1.573178 1_555
O65 W0 2.188046 1_555
O65 Rb13 3.066164 1_555
O65 Rb7 3.322507 1_555
O66 P1 1.538355 1_555
O66 Rb1 3.195718 1_555
O66 Rb5 3.369991 1_555
O67 P14 1.576429 1_555
O67 W5 2.012506 1_555
O67 Rb3 3.192095 1_555
O67 Rb6 3.386506 1_555
O68 P10 1.520074 1_555
O68 Rb14 2.943284 1_554
O68 Rb3 3.048633 1_455
O69 P8 1.573178 1_455
O69 W4 2.188046 1_555
O69 Rb8 3.066164 1_555
O69 Rb14 3.322507 1_555
O70 P6 1.523840 1_555
O70 Rb14 3.004974 1_655
O70 Rb3 3.087720 1_556
O71 P14 1.539265 1_555
O71 Rb6 2.996344 1_555
O71 Rb4 3.030132 1_555
O72 W4 1.831961 1_555
O73 W2 1.782334 1_555
O73 Rb11 2.815693 1_465
O73 Rb15 2.937723 1_455
O73 Rb9 3.460428 1_555
O74 P2 1.539265 1_555
O74 Rb5 2.996344 1_555
O74 Rb1 3.030132 1_555
O75 P4 1.576429 1_555
O75 W1 2.012506 1_555
O75 Rb15 3.192095 1_555
O75 Rb11 3.386506 1_565
O76 P4 1.539265 1_545
O76 Rb11 2.996344 1_555
O76 Rb13 3.030132 1_555
O77 W5 1.782334 1_555
O77 Rb5 2.815693 1_555
O77 Rb10 2.937723 1_555
O77 Rb7 3.460428 1_555
O78 P15 1.539265 1_565
O78 Rb0 2.996344 1_555
O78 Rb3 3.030132 1_555
O79 P0 1.576429 1_555
O79 W2 2.012506 1_555
O79 Rb2 3.192095 1_555
O79 Rb12 3.386506 1_565
