# generated using pymatgen
data_Te4As2S(OF6)2
_symmetry_space_group_name_H-M   'P 1'
_cell_length_a   18.90201600
_cell_length_b   9.04877000
_cell_length_c   9.91333735
_cell_angle_alpha   83.23592045
_cell_angle_beta   90.00000000
_cell_angle_gamma   90.00000000
_symmetry_Int_Tables_number   1
_chemical_formula_structural   Te4As2S(OF6)2
_chemical_formula_sum   'Te16 As8 S4 O8 F48'
_cell_volume   1683.77518337
_cell_formula_units_Z   4
loop_
 _symmetry_equiv_pos_site_id
 _symmetry_equiv_pos_as_xyz
  1  'x, y, z'
loop_
 _atom_site_type_symbol
 _atom_site_label
 _atom_site_symmetry_multiplicity
 _atom_site_fract_x
 _atom_site_fract_y
 _atom_site_fract_z
 _atom_site_occupancy
  Te  Te0  1  0.06973200  0.71578000  0.61909700  1
  Te  Te1  1  0.07168600  0.65737300  0.89253900  1
  Te  Te2  1  0.92831400  0.34262700  0.10746100  1
  Te  Te3  1  0.71257500  0.80874700  0.38579500  1
  Te  Te4  1  0.21257500  0.69125300  0.61420500  1
  Te  Te5  1  0.21393400  0.62514900  0.88874700  1
  Te  Te6  1  0.56973200  0.78422000  0.38090300  1
  Te  Te7  1  0.78606600  0.37485100  0.11125300  1
  Te  Te8  1  0.42831400  0.15737300  0.89253900  1
  Te  Te9  1  0.71393400  0.87485100  0.11125300  1
  Te  Te10  1  0.28742500  0.19125300  0.61420500  1
  Te  Te11  1  0.78742500  0.30874700  0.38579500  1
  Te  Te12  1  0.28606600  0.12514900  0.88874700  1
  Te  Te13  1  0.43026800  0.21578000  0.61909700  1
  Te  Te14  1  0.57168600  0.84262700  0.10746100  1
  Te  Te15  1  0.93026800  0.28422000  0.38090300  1
  As  As0  1  0.57606300  0.31979500  0.22757000  1
  As  As1  1  0.07606300  0.18020500  0.77243000  1
  As  As2  1  0.64580900  0.11948900  0.71602100  1
  As  As3  1  0.35419100  0.88051100  0.28397900  1
  As  As4  1  0.14580900  0.38051100  0.28397900  1
  As  As5  1  0.85419100  0.61948900  0.71602100  1
  As  As6  1  0.42393700  0.68020500  0.77243000  1
  As  As7  1  0.92393700  0.81979500  0.22757000  1
  S  S0  1  0.63054700  0.56056600  0.76862700  1
  S  S1  1  0.36945300  0.43943400  0.23137300  1
  S  S2  1  0.13054700  0.93943400  0.23137300  1
  S  S3  1  0.86945300  0.06056600  0.76862700  1
  O  O0  1  0.13333300  0.82581400  0.34829700  1
  O  O1  1  0.36666700  0.32581400  0.34829700  1
  O  O2  1  0.15296500  0.89614300  0.10209400  1
  O  O3  1  0.34703500  0.39614300  0.10209400  1
  O  O4  1  0.63333300  0.67418600  0.65170300  1
  O  O5  1  0.86666700  0.17418600  0.65170300  1
  O  O6  1  0.84703500  0.10385700  0.89790600  1
  O  O7  1  0.65296500  0.60385700  0.89790600  1
  F  F0  1  0.06914300  0.29241900  0.22037800  1
  F  F1  1  0.19939700  0.30013700  0.16650000  1
  F  F2  1  0.80060300  0.69986300  0.83350000  1
  F  F3  1  0.58938100  0.03852900  0.60299800  1
  F  F4  1  0.84085400  0.77784300  0.59606200  1
  F  F5  1  0.97684800  0.96727700  0.14888100  1
  F  F6  1  0.11104800  0.21270800  0.93173200  1
  F  F7  1  0.36746700  0.03779200  0.15875000  1
  F  F8  1  0.71984000  0.02981900  0.65181700  1
  F  F9  1  0.38895200  0.71270800  0.93173200  1
  F  F10  1  0.04253900  0.14428800  0.61263700  1
  F  F11  1  0.65914600  0.27784300  0.59606200  1
  F  F12  1  0.36888900  0.82425400  0.69242300  1
  F  F13  1  0.93085700  0.70758100  0.77962200  1
  F  F14  1  0.35250100  0.55093300  0.75535400  1
  F  F15  1  0.86888900  0.67574600  0.30757700  1
  F  F16  1  0.34085400  0.72215700  0.40393800  1
  F  F17  1  0.88895200  0.78729200  0.06826800  1
  F  F18  1  0.41061900  0.96147100  0.39700200  1
  F  F19  1  0.85250100  0.94906700  0.24464600  1
  F  F20  1  0.13111100  0.32425400  0.69242300  1
  F  F21  1  0.91061900  0.53852900  0.60299800  1
  F  F22  1  0.69939700  0.19986300  0.83350000  1
  F  F23  1  0.30060300  0.80013700  0.16650000  1
  F  F24  1  0.15914600  0.22215700  0.40393800  1
  F  F25  1  0.02315200  0.03272300  0.85111900  1
  F  F26  1  0.45746100  0.64428800  0.61263700  1
  F  F27  1  0.86746700  0.46220800  0.84125000  1
  F  F28  1  0.21984000  0.47018100  0.34818300  1
  F  F29  1  0.54253900  0.35571200  0.38736300  1
  F  F30  1  0.00729300  0.30934300  0.78982000  1
  F  F31  1  0.50729300  0.19065700  0.21018000  1
  F  F32  1  0.43085700  0.79241900  0.22037800  1
  F  F33  1  0.52315200  0.46727700  0.14888100  1
  F  F34  1  0.99270700  0.69065700  0.21018000  1
  F  F35  1  0.47684800  0.53272300  0.85111900  1
  F  F36  1  0.13253300  0.53779200  0.15875000  1
  F  F37  1  0.63253300  0.96220800  0.84125000  1
  F  F38  1  0.56914300  0.20758100  0.77962200  1
  F  F39  1  0.08938100  0.46147100  0.39700200  1
  F  F40  1  0.95746100  0.85571200  0.38736300  1
  F  F41  1  0.49270700  0.80934300  0.78982000  1
  F  F42  1  0.61104800  0.28729200  0.06826800  1
  F  F43  1  0.64749900  0.44906700  0.24464600  1
  F  F44  1  0.78016000  0.52981900  0.65181700  1
  F  F45  1  0.63111100  0.17574600  0.30757700  1
  F  F46  1  0.14749900  0.05093300  0.75535400  1
  F  F47  1  0.28016000  0.97018100  0.34818300  1
loop_
_geom_bond_atom_site_label_1
_geom_bond_atom_site_label_2
_geom_bond_distance
_geom_bond_site_symmetry_2
Te0 Te1 2.700227 1_555
Te0 Te4 2.710029 1_555
Te1 Te5 2.705277 1_555
Te2 Te7 2.705277 1_555
Te3 Te6 2.710029 1_555
Te3 Te9 2.717025 1_555
Te4 Te5 2.717025 1_555
Te10 Te13 2.710029 1_555
Te10 Te12 2.717025 1_555
Te11 Te15 2.710029 1_555
Te11 Te7 2.717025 1_555
Te12 Te8 2.705277 1_555
Te13 Te8 2.700227 1_555
Te14 Te6 2.700227 1_555
Te14 Te9 2.705277 1_555
Te15 Te2 2.700227 1_555
As0 F42 1.768370 1_555
As0 F31 1.769852 1_555
As0 F29 1.771372 1_555
As0 F33 1.773275 1_555
As0 F45 1.779673 1_555
As0 F43 1.807454 1_555
As1 F6 1.768370 1_555
As1 F30 1.769852 1_555
As1 F10 1.771372 1_555
As1 F25 1.773275 1_555
As1 F20 1.779673 1_555
As1 F46 1.807454 1_555
As2 F22 1.763743 1_555
As2 F3 1.767217 1_555
As2 F11 1.769057 1_555
As2 F8 1.772927 1_555
As2 F37 1.792607 1_545
As2 F38 1.803147 1_555
As3 F23 1.763743 1_555
As3 F18 1.767217 1_555
As3 F16 1.769057 1_555
As3 F47 1.772927 1_555
As3 F7 1.792607 1_565
As3 F32 1.803147 1_555
As4 F1 1.763743 1_555
As4 F39 1.767217 1_555
As4 F24 1.769057 1_555
As4 F28 1.772927 1_555
As4 F36 1.792607 1_555
As4 F0 1.803147 1_555
As5 F2 1.763743 1_555
As5 F21 1.767217 1_555
As5 F4 1.769057 1_555
As5 F44 1.772927 1_555
As5 F27 1.792607 1_555
As5 F13 1.803147 1_555
As6 F9 1.768370 1_555
As6 F41 1.769852 1_555
As6 F26 1.771372 1_555
As6 F35 1.773275 1_555
As6 F12 1.779673 1_555
As6 F14 1.807454 1_555
As7 F17 1.768370 1_555
As7 F34 1.769852 1_555
As7 F40 1.771372 1_555
As7 F5 1.773275 1_555
As7 F15 1.779673 1_555
As7 F19 1.807454 1_555
O0 S2 1.456920 1_555
O1 S1 1.456920 1_555
O2 S2 1.446975 1_555
O3 S1 1.446975 1_555
O4 S0 1.456920 1_555
O5 S3 1.456920 1_555
O6 S3 1.446975 1_555
O7 S0 1.446975 1_555
