# generated using pymatgen
data_Ba6Ga2Co11O26
_symmetry_space_group_name_H-M   'P 1'
_cell_length_a   5.81190666
_cell_length_b   5.81190666
_cell_length_c   19.26002400
_cell_angle_alpha   90.00000000
_cell_angle_beta   90.00000000
_cell_angle_gamma   120.00000749
_symmetry_Int_Tables_number   1
_chemical_formula_structural   Ba6Ga2Co11O26
_chemical_formula_sum   'Ba6 Ga2 Co11 O26'
_cell_volume   563.41017285
_cell_formula_units_Z   1
loop_
 _symmetry_equiv_pos_site_id
 _symmetry_equiv_pos_as_xyz
  1  'x, y, z'
loop_
 _atom_site_type_symbol
 _atom_site_label
 _atom_site_symmetry_multiplicity
 _atom_site_fract_x
 _atom_site_fract_y
 _atom_site_fract_z
 _atom_site_occupancy
  Ba  Ba0  1  0.00000000  0.00000000  0.19402900  1
  Ba  Ba1  1  0.33333300  0.66666700  0.33175000  1
  Ba  Ba2  1  0.33333300  0.66666700  0.55334800  1
  Ba  Ba3  1  0.00000000  0.00000000  0.80597100  1
  Ba  Ba4  1  0.66666700  0.33333300  0.66825000  1
  Ba  Ba5  1  0.66666700  0.33333300  0.44665200  1
  Ga  Ga0  1  0.33333300  0.66666700  0.15308600  1
  Ga  Ga1  1  0.66666700  0.33333300  0.84691400  1
  Co  Co0  1  0.66666700  0.33333300  0.12699400  1
  Co  Co1  1  0.00000000  0.00000000  0.00000000  1
  Co  Co2  1  0.00000000  0.00000000  0.37324700  1
  Co  Co3  1  0.66666700  0.33333300  0.27515000  1
  Co  Co4  1  0.00000000  0.00000000  0.62675300  1
  Co  Co5  1  0.33333300  0.66666700  0.87300600  1
  Co  Co6  1  0.50000000  0.00000000  0.00000000  1
  Co  Co7  1  0.33333300  0.66666700  0.72485000  1
  Co  Co8  1  0.00000000  0.50000000  0.00000000  1
  Co  Co9  1  0.00000000  0.00000000  0.50000000  1
  Co  Co10  1  0.50000000  0.50000000  0.00000000  1
  O  O0  1  0.70687200  0.85343600  0.43577000  1
  O  O1  1  0.01390400  0.50695200  0.81166900  1
  O  O2  1  0.98609600  0.49304800  0.18833100  1
  O  O3  1  0.66666700  0.33333300  0.94260600  1
  O  O4  1  0.82669700  0.17330300  0.05922800  1
  O  O5  1  0.17330300  0.34660600  0.94077200  1
  O  O6  1  0.14656400  0.29312800  0.43577000  1
  O  O7  1  0.65339400  0.82669700  0.94077200  1
  O  O8  1  0.85343600  0.70687200  0.56423000  1
  O  O9  1  0.29312800  0.14656400  0.56423000  1
  O  O10  1  0.14656400  0.85343600  0.43577000  1
  O  O11  1  0.16235000  0.83765000  0.68444700  1
  O  O12  1  0.85343600  0.14656400  0.56423000  1
  O  O13  1  0.17330300  0.82669700  0.94077200  1
  O  O14  1  0.49304800  0.50695200  0.81166900  1
  O  O15  1  0.67530100  0.83765000  0.68444700  1
  O  O16  1  0.50695200  0.01390400  0.18833100  1
  O  O17  1  0.83765000  0.67530100  0.31555300  1
  O  O18  1  0.16235000  0.32469900  0.68444700  1
  O  O19  1  0.50695200  0.49304800  0.18833100  1
  O  O20  1  0.82669700  0.65339400  0.05922800  1
  O  O21  1  0.83765000  0.16235000  0.31555300  1
  O  O22  1  0.49304800  0.98609600  0.81166900  1
  O  O23  1  0.34660600  0.17330300  0.05922800  1
  O  O24  1  0.32469900  0.16235000  0.31555300  1
  O  O25  1  0.33333300  0.66666700  0.05739400  1
loop_
_geom_bond_atom_site_label_1
_geom_bond_atom_site_label_2
_geom_bond_distance
_geom_bond_site_symmetry_2
Ba0 O24 2.854666 1_555
Ba0 O17 2.854666 1_445
Ba0 O21 2.854669 1_455
Ba0 O19 2.908866 1_555
Ba0 O19 2.908866 1_445
Ba0 O16 2.908867 1_555
Ba0 O2 2.908867 1_445
Ba0 O16 2.908867 1_455
Ba0 O2 2.908867 1_455
Ba0 O23 3.127955 1_555
Ba0 O20 3.127955 1_445
Ba0 O4 3.127955 1_455
Ba1 O10 2.747462 1_555
Ba1 O0 2.747466 1_555
Ba1 O6 2.747466 1_555
Ba1 O21 2.922972 1_565
Ba1 O21 2.922972 1_455
Ba1 O24 2.922973 1_555
Ba1 O17 2.922973 1_555
Ba1 O17 2.922973 1_455
Ba1 O24 2.922973 1_565
Ba1 O16 3.268733 1_565
Ba1 O2 3.268733 1_455
Ba1 O19 3.268736 1_555
Ba2 O8 2.920518 1_455
Ba2 O9 2.920518 1_565
Ba2 O12 2.920521 1_565
Ba2 O12 2.920521 1_455
Ba2 O9 2.920524 1_555
Ba2 O8 2.920524 1_555
Ba2 O10 2.943304 1_555
Ba2 O0 2.943307 1_555
Ba2 O6 2.943307 1_555
Ba2 O11 3.055816 1_555
Ba2 O15 3.055822 1_555
Ba2 O18 3.055822 1_555
Ba3 O18 2.854666 1_555
Ba3 O15 2.854666 1_445
Ba3 O11 2.854669 1_545
Ba3 O14 2.908866 1_555
Ba3 O14 2.908866 1_445
Ba3 O1 2.908867 1_555
Ba3 O22 2.908867 1_445
Ba3 O22 2.908867 1_545
Ba3 O1 2.908867 1_545
Ba3 O5 3.127955 1_555
Ba3 O7 3.127955 1_445
Ba3 O13 3.127955 1_545
Ba4 O12 2.747462 1_555
Ba4 O8 2.747466 1_555
Ba4 O9 2.747466 1_555
Ba4 O11 2.922972 1_545
Ba4 O11 2.922972 1_655
Ba4 O18 2.922973 1_555
Ba4 O15 2.922973 1_555
Ba4 O15 2.922973 1_545
Ba4 O18 2.922973 1_655
Ba4 O22 3.268733 1_545
Ba4 O1 3.268733 1_655
Ba4 O14 3.268736 1_555
Ba5 O6 2.920518 1_655
Ba5 O0 2.920518 1_545
Ba5 O10 2.920521 1_655
Ba5 O10 2.920521 1_545
Ba5 O0 2.920524 1_555
Ba5 O6 2.920524 1_555
Ba5 O12 2.943304 1_555
Ba5 O8 2.943307 1_555
Ba5 O9 2.943307 1_555
Ba5 O21 3.055816 1_555
Ba5 O17 3.055822 1_555
Ba5 O24 3.055822 1_555
Ga0 O25 1.843030 1_555
Ga0 O16 1.874932 1_565
Ga0 O2 1.874932 1_455
Ga0 O19 1.874936 1_555
Ga1 O3 1.843030 1_555
Ga1 O1 1.874932 1_655
Ga1 O22 1.874932 1_545
Ga1 O14 1.874936 1_555
Co0 O2 1.995122 1_555
Co0 O16 1.995122 1_555
Co0 O19 1.995126 1_555
Co0 O4 2.073312 1_555
Co0 O20 2.073316 1_555
Co0 O23 2.073316 1_555
Co1 O23 2.084407 1_555
Co1 O20 2.084407 1_445
Co1 O5 2.084407 1_554
Co1 O7 2.084407 1_444
Co1 O4 2.084407 1_455
Co1 O13 2.084407 1_544
Co2 O6 1.904431 1_555
Co2 O0 1.904431 1_445
Co2 O10 1.904431 1_545
Co2 O24 1.976273 1_555
Co2 O17 1.976273 1_445
Co2 O21 1.976277 1_455
Co3 O21 1.888936 1_555
Co3 O17 1.888945 1_555
Co3 O24 1.888945 1_555
Co3 O2 2.319689 1_555
Co3 O16 2.319689 1_555
Co3 O19 2.319693 1_555
Co4 O9 1.904431 1_555
Co4 O8 1.904431 1_445
Co4 O12 1.904431 1_455
Co4 O18 1.976273 1_555
Co4 O15 1.976273 1_445
Co4 O11 1.976277 1_545
Co5 O22 1.995122 1_555
Co5 O1 1.995122 1_555
Co5 O14 1.995126 1_555
Co5 O13 2.073312 1_555
Co5 O7 2.073316 1_555
Co5 O5 2.073316 1_555
Co6 O4 2.002126 1_555
Co6 O13 2.002126 1_544
Co6 O23 2.002126 1_555
Co6 O7 2.002126 1_544
Co6 O25 2.009174 1_545
Co6 O3 2.009174 1_554
Co7 O11 1.888936 1_555
Co7 O15 1.888945 1_555
Co7 O18 1.888945 1_555
Co7 O22 2.319689 1_555
Co7 O1 2.319689 1_555
Co7 O14 2.319693 1_555
Co8 O4 2.002126 1_455
Co8 O13 2.002126 1_554
Co8 O20 2.002126 1_455
Co8 O5 2.002126 1_554
Co8 O25 2.009174 1_555
Co8 O3 2.009174 1_454
Co9 O6 1.925388 1_555
Co9 O0 1.925388 1_445
Co9 O9 1.925388 1_555
Co9 O8 1.925388 1_445
Co9 O10 1.925388 1_545
Co9 O12 1.925388 1_455
Co10 O20 2.002126 1_555
Co10 O23 2.002126 1_555
Co10 O7 2.002126 1_554
Co10 O5 2.002126 1_554
Co10 O25 2.009178 1_555
Co10 O3 2.009178 1_554
