# generated using pymatgen
data_BaCuTe2O7
_symmetry_space_group_name_H-M   'P 1'
_cell_length_a   8.74940665
_cell_length_b   8.74940665
_cell_length_c   5.56078000
_cell_angle_alpha   90.00000000
_cell_angle_beta   90.00000000
_cell_angle_gamma   130.70540137
_symmetry_Int_Tables_number   1
_chemical_formula_structural   BaCuTe2O7
_chemical_formula_sum   'Ba2 Cu2 Te4 O14'
_cell_volume   322.70364067
_cell_formula_units_Z   2
loop_
 _symmetry_equiv_pos_site_id
 _symmetry_equiv_pos_as_xyz
  1  'x, y, z'
loop_
 _atom_site_type_symbol
 _atom_site_label
 _atom_site_symmetry_multiplicity
 _atom_site_fract_x
 _atom_site_fract_y
 _atom_site_fract_z
 _atom_site_occupancy
  Ba  Ba0  1  0.79773100  0.21677500  0.75000000  1
  Ba  Ba1  1  0.21677500  0.79773100  0.25000000  1
  Cu  Cu0  1  0.36678300  0.62884000  0.75000000  1
  Cu  Cu1  1  0.62884000  0.36678300  0.25000000  1
  Te  Te0  1  0.17070500  0.32548600  0.25000000  1
  Te  Te1  1  0.67995000  0.82212500  0.25000000  1
  Te  Te2  1  0.82212500  0.67995000  0.75000000  1
  Te  Te3  1  0.32548600  0.17070500  0.75000000  1
  O  O0  1  0.50101500  0.46343600  0.75000000  1
  O  O1  1  0.16181500  0.47529500  0.00231000  1
  O  O2  1  0.16181500  0.47529500  0.49769000  1
  O  O3  1  0.46343600  0.50101500  0.25000000  1
  O  O4  1  0.13788400  0.13788400  0.50000000  1
  O  O5  1  0.47529500  0.16181500  0.99769000  1
  O  O6  1  0.55128300  0.84084200  0.50836700  1
  O  O7  1  0.55128300  0.84084200  0.99163300  1
  O  O8  1  0.87263400  0.13968300  0.25000000  1
  O  O9  1  0.84084200  0.55128300  0.49163300  1
  O  O10  1  0.84084200  0.55128300  0.00836700  1
  O  O11  1  0.47529500  0.16181500  0.50231000  1
  O  O12  1  0.13968300  0.87263400  0.75000000  1
  O  O13  1  0.13788400  0.13788400  0.00000000  1
loop_
_geom_bond_atom_site_label_1
_geom_bond_atom_site_label_2
_geom_bond_distance
_geom_bond_site_symmetry_2
Ba0 O2 2.798938 1_655
Ba0 O1 2.798938 1_656
Ba0 O6 2.832462 1_545
Ba0 O7 2.832462 1_545
Ba0 O5 2.884028 1_555
Ba0 O11 2.884028 1_555
Ba0 O8 3.031765 1_556
Ba0 O8 3.031765 1_555
Ba0 O9 3.054891 1_555
Ba0 O10 3.054891 1_556
Ba1 O11 2.798938 1_565
Ba1 O5 2.798938 1_564
Ba1 O9 2.832462 1_455
Ba1 O10 2.832462 1_455
Ba1 O2 2.884028 1_555
Ba1 O1 2.884028 1_555
Ba1 O12 3.031765 1_554
Ba1 O12 3.031765 1_555
Ba1 O6 3.054891 1_555
Ba1 O7 3.054891 1_554
Cu0 O1 1.961367 1_556
Cu0 O2 1.961367 1_555
Cu0 O6 1.986543 1_555
Cu0 O7 1.986543 1_555
Cu0 O0 2.385499 1_555
Cu1 O11 1.961367 1_555
Cu1 O5 1.961367 1_554
Cu1 O10 1.986543 1_555
Cu1 O9 1.986543 1_555
Cu1 O3 2.385499 1_555
O0 Te3 1.946252 1_555
O0 Te2 2.130727 1_555
O1 Te0 1.937566 1_555
O2 Te0 1.937566 1_555
O3 Te0 1.946252 1_555
O3 Te1 2.130727 1_555
O4 Te3 2.023491 1_555
O4 Te0 2.023491 1_555
O5 Te3 1.937566 1_555
O6 Te1 1.897047 1_555
O7 Te1 1.897047 1_556
O8 Te0 1.978440 1_655
O8 Te1 2.110037 1_545
O9 Te2 1.897047 1_555
O10 Te2 1.897047 1_554
O11 Te3 1.937566 1_555
O12 Te3 1.978440 1_565
O12 Te2 2.110037 1_455
O13 Te3 2.023491 1_554
O13 Te0 2.023491 1_555
