# generated using pymatgen
data_KGd(PO3)4
_symmetry_space_group_name_H-M   'P 1'
_cell_length_a   9.07122300
_cell_length_b   10.52117200
_cell_length_c   12.88876601
_cell_angle_alpha   54.53511104
_cell_angle_beta   90.00000000
_cell_angle_gamma   90.00000000
_symmetry_Int_Tables_number   1
_chemical_formula_structural   KGd(PO3)4
_chemical_formula_sum   'K4 Gd4 P16 O48'
_cell_volume   1001.88309106
_cell_formula_units_Z   4
loop_
 _symmetry_equiv_pos_site_id
 _symmetry_equiv_pos_as_xyz
  1  'x, y, z'
loop_
 _atom_site_type_symbol
 _atom_site_label
 _atom_site_symmetry_multiplicity
 _atom_site_fract_x
 _atom_site_fract_y
 _atom_site_fract_z
 _atom_site_occupancy
  K  K0  1  0.42850000  0.75018000  0.95747500  1
  K  K1  1  0.92850000  0.24982000  0.54252500  1
  K  K2  1  0.57150000  0.24982000  0.04252500  1
  K  K3  1  0.07150000  0.75018000  0.45747500  1
  Gd  Gd0  1  0.22765700  0.18493400  0.81519300  1
  Gd  Gd1  1  0.72765700  0.81506600  0.68480700  1
  Gd  Gd2  1  0.27234300  0.18493400  0.31519300  1
  Gd  Gd3  1  0.77234300  0.81506600  0.18480700  1
  P  P0  1  0.66987400  0.18092400  0.35853000  1
  P  P1  1  0.97676600  0.47995300  0.76960200  1
  P  P2  1  0.60622900  0.69731500  0.48037600  1
  P  P3  1  0.40549100  0.88676100  0.25987100  1
  P  P4  1  0.90549100  0.11323900  0.24012900  1
  P  P5  1  0.47676600  0.52004700  0.73039800  1
  P  P6  1  0.39377100  0.30268500  0.51962400  1
  P  P7  1  0.89377100  0.69731500  0.98037600  1
  P  P8  1  0.09450900  0.88676100  0.75987100  1
  P  P9  1  0.52323400  0.47995300  0.26960200  1
  P  P10  1  0.16987400  0.81907600  0.14147000  1
  P  P11  1  0.02323400  0.52004700  0.23039800  1
  P  P12  1  0.10622900  0.30268500  0.01962400  1
  P  P13  1  0.33012600  0.81907600  0.64147000  1
  P  P14  1  0.83012600  0.18092400  0.85853000  1
  P  P15  1  0.59450900  0.11323900  0.74012900  1
  O  O0  1  0.90934500  0.63942300  0.68802100  1
  O  O1  1  0.53666000  0.92645500  0.17492900  1
  O  O2  1  0.55013800  0.23685500  0.59328600  1
  O  O3  1  0.46968200  0.86164900  0.67705500  1
  O  O4  1  0.09065500  0.36057700  0.31197900  1
  O  O5  1  0.84014700  0.79956400  0.01829200  1
  O  O6  1  0.32017300  0.01789800  0.24551600  1
  O  O7  1  0.20841000  0.77511400  0.74989000  1
  O  O8  1  0.41194200  0.43723800  0.20789200  1
  O  O9  1  0.45362500  0.46371500  0.39307000  1
  O  O10  1  0.96968200  0.13835100  0.82294500  1
  O  O11  1  0.08805800  0.43723800  0.70789200  1
  O  O12  1  0.29214100  0.33791800  0.59181600  1
  O  O13  1  0.76233900  0.07629500  0.98812600  1
  O  O14  1  0.40934500  0.36057700  0.81197900  1
  O  O15  1  0.58805800  0.56276200  0.79210800  1
  O  O16  1  0.65985300  0.79956400  0.51829200  1
  O  O17  1  0.59065500  0.63942300  0.18802100  1
  O  O18  1  0.15985300  0.20043600  0.98170800  1
  O  O19  1  0.34514200  0.64880600  0.66800400  1
  O  O20  1  0.70785900  0.66208200  0.40818400  1
  O  O21  1  0.73766100  0.07629500  0.48812600  1
  O  O22  1  0.04637500  0.46371500  0.89307000  1
  O  O23  1  0.15485800  0.64880600  0.16800400  1
  O  O24  1  0.03031800  0.86164900  0.17705500  1
  O  O25  1  0.23766100  0.92370500  0.01187400  1
  O  O26  1  0.29159000  0.77511400  0.24989000  1
  O  O27  1  0.70841000  0.22488600  0.75011000  1
  O  O28  1  0.05013800  0.76314500  0.90671400  1
  O  O29  1  0.94986200  0.23685500  0.09328600  1
  O  O30  1  0.91194200  0.56276200  0.29210800  1
  O  O31  1  0.67982700  0.98210200  0.75448400  1
  O  O32  1  0.34014700  0.20043600  0.48170800  1
  O  O33  1  0.17982700  0.01789800  0.74551600  1
  O  O34  1  0.46334000  0.07354500  0.82507100  1
  O  O35  1  0.20785900  0.33791800  0.09181600  1
  O  O36  1  0.44986200  0.76314500  0.40671400  1
  O  O37  1  0.79159000  0.22488600  0.25011000  1
  O  O38  1  0.26233900  0.92370500  0.51187400  1
  O  O39  1  0.84514200  0.35119400  0.83199600  1
  O  O40  1  0.53031800  0.13835100  0.32294500  1
  O  O41  1  0.82017300  0.98210200  0.25448400  1
  O  O42  1  0.54637500  0.53628500  0.60693000  1
  O  O43  1  0.96334000  0.92645500  0.67492900  1
  O  O44  1  0.79214100  0.66208200  0.90818400  1
  O  O45  1  0.95362500  0.53628500  0.10693000  1
  O  O46  1  0.65485800  0.35119400  0.33199600  1
  O  O47  1  0.03666000  0.07354500  0.32507100  1
loop_
_geom_bond_atom_site_label_1
_geom_bond_atom_site_label_2
_geom_bond_distance
_geom_bond_site_symmetry_2
K0 O34 2.801734 1_565
K0 O25 2.882180 1_556
K0 O17 2.886707 1_556
K0 O8 2.991483 1_556
K0 O3 3.107929 1_555
K0 O7 3.224699 1_555
K0 O31 3.254030 1_555
K1 O43 2.801734 1_545
K1 O21 2.882180 1_555
K1 O4 2.886707 1_655
K1 O30 2.991483 1_555
K1 O10 3.107929 1_555
K1 O27 3.224699 1_555
K1 O33 3.254030 1_655
K2 O1 2.801734 1_545
K2 O13 2.882180 1_554
K2 O14 2.886707 1_554
K2 O15 2.991483 1_554
K2 O40 3.107929 1_555
K2 O37 3.224699 1_555
K2 O6 3.254030 1_555
K3 O47 2.801734 1_565
K3 O38 2.882180 1_555
K3 O0 2.886707 1_455
K3 O11 2.991483 1_555
K3 O24 3.107929 1_555
K3 O26 3.224699 1_555
K3 O41 3.254030 1_455
Gd0 O18 2.327478 1_555
Gd0 O10 2.381105 1_455
Gd0 O34 2.405676 1_555
Gd0 O12 2.417531 1_555
Gd0 O25 2.429695 1_546
Gd0 O33 2.432007 1_555
Gd0 O14 2.458499 1_555
Gd0 O11 2.510525 1_555
Gd1 O16 2.327478 1_555
Gd1 O3 2.381105 1_555
Gd1 O43 2.405676 1_555
Gd1 O44 2.417531 1_555
Gd1 O21 2.429695 1_565
Gd1 O31 2.432007 1_555
Gd1 O0 2.458499 1_555
Gd1 O15 2.510525 1_555
Gd2 O32 2.327478 1_555
Gd2 O40 2.381105 1_555
Gd2 O47 2.405676 1_555
Gd2 O35 2.417531 1_555
Gd2 O38 2.429695 1_545
Gd2 O6 2.432007 1_555
Gd2 O4 2.458499 1_555
Gd2 O8 2.510525 1_555
Gd3 O5 2.327478 1_555
Gd3 O24 2.381105 1_655
Gd3 O1 2.405676 1_555
Gd3 O20 2.417531 1_555
Gd3 O13 2.429695 1_564
Gd3 O41 2.432007 1_555
Gd3 O17 2.458499 1_555
Gd3 O30 2.510525 1_555
O0 P1 1.499176 1_555
O1 P3 1.502734 1_555
O2 P15 1.605986 1_555
O2 P6 1.621731 1_555
O3 P13 1.500663 1_555
O4 P11 1.499176 1_555
O5 P7 1.497595 1_554
O6 P3 1.496865 1_545
O7 P13 1.623486 1_555
O7 P8 1.624582 1_555
O8 P9 1.506175 1_555
O9 P6 1.618327 1_555
O9 P9 1.626289 1_555
O10 P14 1.500663 1_555
O11 P1 1.506175 1_455
O12 P6 1.501112 1_555
O13 P14 1.498749 1_555
O14 P5 1.499176 1_555
O15 P5 1.506175 1_555
O16 P2 1.497595 1_555
O17 P9 1.499176 1_555
O18 P12 1.497595 1_556
O19 P13 1.622910 1_555
O19 P5 1.625838 1_555
O20 P2 1.501112 1_555
O21 P0 1.498749 1_555
O22 P12 1.618327 1_556
O22 P1 1.626289 1_455
O23 P10 1.622910 1_555
O23 P11 1.625838 1_555
O24 P10 1.500663 1_555
O25 P10 1.498749 1_555
O26 P10 1.623486 1_555
O26 P3 1.624582 1_555
O27 P14 1.623486 1_555
O27 P15 1.624582 1_555
O28 P8 1.605986 1_555
O28 P7 1.621731 1_455
O29 P4 1.605986 1_555
O29 P12 1.621731 1_655
O30 P11 1.506175 1_655
O31 P15 1.496865 1_565
O32 P6 1.497595 1_555
O33 P8 1.496865 1_545
O34 P15 1.502734 1_555
O35 P12 1.501112 1_555
O36 P3 1.605986 1_555
O36 P2 1.621731 1_555
O37 P0 1.623486 1_555
O37 P4 1.624582 1_555
O38 P13 1.498749 1_555
O39 P14 1.622910 1_555
O39 P1 1.625838 1_555
O40 P0 1.500663 1_555
O41 P4 1.496865 1_565
O42 P2 1.618327 1_555
O42 P5 1.626289 1_555
O43 P8 1.502734 1_655
O44 P7 1.501112 1_555
O45 P7 1.618327 1_554
O45 P11 1.626289 1_655
O46 P0 1.622910 1_555
O46 P9 1.625838 1_555
O47 P4 1.502734 1_455
