# generated using pymatgen
data_Zn4P6N12O
_symmetry_space_group_name_H-M   'P 1'
_cell_length_a   7.01382889
_cell_length_b   7.01382889
_cell_length_c   7.01382889
_cell_angle_alpha   109.47122063
_cell_angle_beta   109.47122063
_cell_angle_gamma   109.47122063
_symmetry_Int_Tables_number   1
_chemical_formula_structural   Zn4P6N12O
_chemical_formula_sum   'Zn4 P6 N12 O1'
_cell_volume   265.60950334
_cell_formula_units_Z   1
loop_
 _symmetry_equiv_pos_site_id
 _symmetry_equiv_pos_as_xyz
  1  'x, y, z'
loop_
 _atom_site_type_symbol
 _atom_site_label
 _atom_site_symmetry_multiplicity
 _atom_site_fract_x
 _atom_site_fract_y
 _atom_site_fract_z
 _atom_site_occupancy
  Zn  Zn0  1  0.00000000  0.70120100  0.00000000  1
  Zn  Zn1  1  0.70120100  0.00000000  0.00000000  1
  Zn  Zn2  1  0.00000000  0.00000000  0.70120100  1
  Zn  Zn3  1  0.29879900  0.29879900  0.29879900  1
  P  P0  1  0.50000000  0.25000000  0.75000000  1
  P  P1  1  0.50000000  0.75000000  0.25000000  1
  P  P2  1  0.75000000  0.50000000  0.25000000  1
  P  P3  1  0.25000000  0.75000000  0.50000000  1
  P  P4  1  0.75000000  0.25000000  0.50000000  1
  P  P5  1  0.25000000  0.50000000  0.75000000  1
  N  N0  1  0.00000000  0.73512400  0.45919700  1
  N  N1  1  0.27592600  0.54080300  0.54080300  1
  N  N2  1  0.73512400  0.45919700  0.00000000  1
  N  N3  1  0.26487600  0.72407400  0.26487600  1
  N  N4  1  0.45919700  0.00000000  0.73512400  1
  N  N5  1  0.72407400  0.26487600  0.26487600  1
  N  N6  1  0.54080300  0.27592600  0.54080300  1
  N  N7  1  0.73512400  0.00000000  0.45919700  1
  N  N8  1  0.26487600  0.26487600  0.72407400  1
  N  N9  1  0.45919700  0.73512400  0.00000000  1
  N  N10  1  0.54080300  0.54080300  0.27592600  1
  N  N11  1  0.00000000  0.45919700  0.73512400  1
  O  O0  1  0.00000000  0.00000000  0.00000000  1
loop_
_geom_bond_atom_site_label_1
_geom_bond_atom_site_label_2
_geom_bond_distance
_geom_bond_site_symmetry_2
N0 P2 1.640422 1_455
N0 P3 1.640422 1_555
N0 Zn2 2.056753 1_565
N1 P3 1.640419 1_555
N1 P5 1.640419 1_555
N1 Zn3 2.056758 1_555
N2 P0 1.640422 1_554
N2 P2 1.640422 1_555
N2 Zn0 2.056753 1_655
N3 P1 1.640423 1_555
N3 P3 1.640423 1_555
N3 Zn0 2.056749 1_555
N4 P3 1.640422 1_545
N4 P0 1.640422 1_555
N4 Zn1 2.056753 1_556
N5 P2 1.640423 1_555
N5 P4 1.640423 1_555
N5 Zn1 2.056749 1_555
N6 P0 1.640419 1_555
N6 P4 1.640419 1_555
N6 Zn3 2.056758 1_555
N7 P1 1.640422 1_545
N7 P4 1.640422 1_555
N7 Zn2 2.056753 1_655
N8 P0 1.640423 1_555
N8 P5 1.640423 1_555
N8 Zn2 2.056749 1_555
N9 P1 1.640422 1_555
N9 P5 1.640422 1_554
N9 Zn1 2.056753 1_565
N10 P2 1.640419 1_555
N10 P1 1.640419 1_555
N10 Zn3 2.056758 1_555
N11 P4 1.640422 1_455
N11 P5 1.640422 1_555
N11 Zn0 2.056753 1_556
O0 Zn3 2.095725 1_555
O0 Zn0 2.095725 1_545
O0 Zn1 2.095725 1_455
O0 Zn2 2.095725 1_554
