# generated using pymatgen
data_KTa3CuO9
_symmetry_space_group_name_H-M   'P 1'
_cell_length_a   7.71477400
_cell_length_b   8.96008600
_cell_length_c   10.24384900
_cell_angle_alpha   90.00000000
_cell_angle_beta   90.00000000
_cell_angle_gamma   90.00000000
_symmetry_Int_Tables_number   1
_chemical_formula_structural   KTa3CuO9
_chemical_formula_sum   'K4 Ta12 Cu4 O36'
_cell_volume   708.10645662
_cell_formula_units_Z   4
loop_
 _symmetry_equiv_pos_site_id
 _symmetry_equiv_pos_as_xyz
  1  'x, y, z'
loop_
 _atom_site_type_symbol
 _atom_site_label
 _atom_site_symmetry_multiplicity
 _atom_site_fract_x
 _atom_site_fract_y
 _atom_site_fract_z
 _atom_site_occupancy
  K  K0  1  0.00000000  0.08359400  0.24448800  1
  K  K1  1  0.00000000  0.91640600  0.75551200  1
  K  K2  1  0.50000000  0.91640600  0.74448800  1
  K  K3  1  0.50000000  0.08359400  0.25551200  1
  Ta  Ta0  1  0.75000000  0.43023700  0.25000000  1
  Ta  Ta1  1  0.75000000  0.56976300  0.75000000  1
  Ta  Ta2  1  0.25000000  0.56976300  0.75000000  1
  Ta  Ta3  1  0.25000000  0.43023700  0.25000000  1
  Ta  Ta4  1  0.75289400  0.79890500  0.43776700  1
  Ta  Ta5  1  0.75289400  0.20109500  0.56223300  1
  Ta  Ta6  1  0.25289400  0.20109500  0.93776700  1
  Ta  Ta7  1  0.25289400  0.79890500  0.06223300  1
  Ta  Ta8  1  0.74710600  0.79890500  0.06223300  1
  Ta  Ta9  1  0.74710600  0.20109500  0.93776700  1
  Ta  Ta10  1  0.24710600  0.20109500  0.56223300  1
  Ta  Ta11  1  0.24710600  0.79890500  0.43776700  1
  Cu  Cu0  1  0.00000000  0.50000000  0.00000000  1
  Cu  Cu1  1  0.50000000  0.50000000  0.50000000  1
  Cu  Cu2  1  0.50000000  0.50000000  0.00000000  1
  Cu  Cu3  1  0.00000000  0.50000000  0.50000000  1
  O  O0  1  0.80856800  0.00000000  0.00000000  1
  O  O1  1  0.30856800  0.00000000  0.50000000  1
  O  O2  1  0.19143200  0.00000000  0.00000000  1
  O  O3  1  0.69143200  0.00000000  0.50000000  1
  O  O4  1  0.71336500  0.27518200  0.12059700  1
  O  O5  1  0.71336500  0.72481800  0.87940300  1
  O  O6  1  0.21336500  0.72481800  0.62059700  1
  O  O7  1  0.21336500  0.27518200  0.37940300  1
  O  O8  1  0.78663500  0.27518200  0.37940300  1
  O  O9  1  0.78663500  0.72481800  0.62059700  1
  O  O10  1  0.28663500  0.72481800  0.87940300  1
  O  O11  1  0.28663500  0.27518200  0.12059700  1
  O  O12  1  0.81730700  0.58427200  0.38529400  1
  O  O13  1  0.81730700  0.41572800  0.61470600  1
  O  O14  1  0.31730700  0.41572800  0.88529400  1
  O  O15  1  0.31730700  0.58427200  0.11470600  1
  O  O16  1  0.18269300  0.58427200  0.38529400  1
  O  O17  1  0.18269300  0.41572800  0.61470600  1
  O  O18  1  0.68269300  0.41572800  0.88529400  1
  O  O19  1  0.68269300  0.58427200  0.11470600  1
  O  O20  1  0.75000000  0.85158200  0.25000000  1
  O  O21  1  0.75000000  0.14841800  0.75000000  1
  O  O22  1  0.25000000  0.14841800  0.75000000  1
  O  O23  1  0.25000000  0.85158200  0.25000000  1
  O  O24  1  0.00000000  0.44273900  0.18664800  1
  O  O25  1  0.00000000  0.55726100  0.81335200  1
  O  O26  1  0.50000000  0.55726100  0.68664800  1
  O  O27  1  0.50000000  0.44273900  0.31335200  1
  O  O28  1  0.00000000  0.15042800  0.55889300  1
  O  O29  1  0.00000000  0.84957200  0.44110700  1
  O  O30  1  0.50000000  0.84957200  0.05889300  1
  O  O31  1  0.50000000  0.15042800  0.94110700  1
  O  O32  1  0.50000000  0.27279700  0.55279200  1
  O  O33  1  0.50000000  0.72720300  0.44720800  1
  O  O34  1  0.00000000  0.72720300  0.05279200  1
  O  O35  1  0.00000000  0.27279700  0.94720800  1
loop_
_geom_bond_atom_site_label_1
_geom_bond_atom_site_label_2
_geom_bond_distance
_geom_bond_site_symmetry_2
K0 O7 2.750718 1_555
K0 O8 2.750718 1_455
K0 O23 2.836310 1_545
K0 O20 2.836310 1_445
K0 O29 2.907499 1_545
K0 O2 3.002437 1_555
K0 O0 3.002437 1_455
K0 O11 3.073677 1_555
K0 O4 3.073677 1_455
K1 O6 2.750718 1_555
K1 O9 2.750718 1_455
K1 O22 2.836310 1_565
K1 O21 2.836310 1_465
K1 O28 2.907499 1_565
K1 O2 3.002437 1_566
K1 O0 3.002437 1_466
K1 O5 3.073677 1_455
K1 O10 3.073677 1_555
K2 O10 2.750718 1_555
K2 O5 2.750718 1_555
K2 O21 2.836310 1_565
K2 O22 2.836310 1_565
K2 O31 2.907499 1_565
K2 O1 3.002437 1_565
K2 O3 3.002437 1_565
K2 O6 3.073677 1_555
K2 O9 3.073677 1_555
K3 O11 2.750718 1_555
K3 O4 2.750718 1_555
K3 O23 2.836310 1_545
K3 O20 2.836310 1_545
K3 O30 2.907499 1_545
K3 O3 3.002437 1_555
K3 O1 3.002437 1_555
K3 O8 3.073677 1_555
K3 O7 3.073677 1_555
Cu0 O24 1.979635 1_555
Cu0 O25 1.979635 1_554
Cu0 O35 2.106364 1_554
Cu0 O34 2.106364 1_555
Cu1 O27 1.979635 1_555
Cu1 O26 1.979635 1_555
Cu1 O32 2.106364 1_555
Cu1 O33 2.106364 1_555
Cu2 O14 1.984278 1_554
Cu2 O18 1.984278 1_554
Cu2 O19 1.984278 1_555
Cu2 O15 1.984278 1_555
Cu3 O17 1.984278 1_555
Cu3 O16 1.984278 1_555
Cu3 O13 1.984278 1_455
Cu3 O12 1.984278 1_455
O0 Ta9 1.969221 1_554
O0 Ta8 1.969221 1_545
O1 Ta10 1.969221 1_555
O1 Ta11 1.969221 1_545
O2 Ta6 1.969221 1_554
O2 Ta7 1.969221 1_545
O3 Ta5 1.969221 1_555
O3 Ta4 1.969221 1_545
O4 Ta0 1.940934 1_555
O4 Ta9 2.004024 1_554
O5 Ta1 1.940934 1_555
O5 Ta8 2.004024 1_556
O6 Ta2 1.940934 1_555
O6 Ta11 2.004024 1_555
O7 Ta3 1.940934 1_555
O7 Ta10 2.004024 1_555
O8 Ta0 1.940934 1_555
O8 Ta5 2.004024 1_555
O9 Ta1 1.940934 1_555
O9 Ta4 2.004024 1_555
O10 Ta2 1.940934 1_555
O10 Ta7 2.004024 1_556
O11 Ta3 1.940934 1_555
O11 Ta6 2.004024 1_554
O12 Ta0 2.023684 1_555
O12 Ta4 2.057743 1_555
O13 Ta1 2.023684 1_555
O13 Ta5 2.057743 1_555
O14 Ta2 2.023684 1_555
O14 Ta6 2.057743 1_555
O15 Ta3 2.023684 1_555
O15 Ta7 2.057743 1_555
O16 Ta3 2.023684 1_555
O16 Ta11 2.057743 1_555
O17 Ta2 2.023684 1_555
O17 Ta10 2.057743 1_555
O18 Ta1 2.023684 1_555
O18 Ta9 2.057743 1_555
O19 Ta0 2.023684 1_555
O19 Ta8 2.057743 1_555
O20 Ta8 1.980646 1_555
O20 Ta4 1.980646 1_555
O21 Ta9 1.980646 1_555
O21 Ta5 1.980646 1_555
O22 Ta10 1.980646 1_555
O22 Ta6 1.980646 1_555
O23 Ta7 1.980646 1_555
O23 Ta11 1.980646 1_555
O24 Ta3 2.038030 1_555
O24 Ta0 2.038030 1_455
O25 Ta1 2.038030 1_455
O25 Ta2 2.038030 1_555
O26 Ta1 2.038030 1_555
O26 Ta2 2.038030 1_555
O27 Ta0 2.038030 1_555
O27 Ta3 2.038030 1_555
O28 Ta10 1.959976 1_555
O28 Ta5 1.959976 1_455
O29 Ta11 1.959976 1_555
O29 Ta4 1.959976 1_455
O30 Ta7 1.959976 1_555
O30 Ta8 1.959976 1_555
O31 Ta6 1.959976 1_555
O31 Ta9 1.959976 1_555
O32 Ta5 2.056352 1_555
O32 Ta10 2.056352 1_555
O33 Ta4 2.056352 1_555
O33 Ta11 2.056352 1_555
O34 Ta8 2.056352 1_455
O34 Ta7 2.056352 1_555
O35 Ta9 2.056352 1_455
O35 Ta6 2.056352 1_555
