# generated using pymatgen
data_NiAs2S6(OF)12
_symmetry_space_group_name_H-M   'P 1'
_cell_length_a   8.94998500
_cell_length_b   8.09283800
_cell_length_c   15.43177377
_cell_angle_alpha   87.03682795
_cell_angle_beta   90.00000000
_cell_angle_gamma   90.00000000
_symmetry_Int_Tables_number   1
_chemical_formula_structural   NiAs2S6(OF)12
_chemical_formula_sum   'Ni2 As4 S12 O24 F24'
_cell_volume   1116.24094340
_cell_formula_units_Z   2
loop_
 _symmetry_equiv_pos_site_id
 _symmetry_equiv_pos_as_xyz
  1  'x, y, z'
loop_
 _atom_site_type_symbol
 _atom_site_label
 _atom_site_symmetry_multiplicity
 _atom_site_fract_x
 _atom_site_fract_y
 _atom_site_fract_z
 _atom_site_occupancy
  Ni  Ni0  1  0.00000000  0.00000000  0.00000000  1
  Ni  Ni1  1  0.50000000  0.00000000  0.50000000  1
  As  As0  1  0.99621400  0.25856100  0.35769500  1
  As  As1  1  0.00378600  0.74143900  0.64230500  1
  As  As2  1  0.50378600  0.25856100  0.85769500  1
  As  As3  1  0.49621400  0.74143900  0.14230500  1
  S  S0  1  0.75572500  0.75906200  0.40498900  1
  S  S1  1  0.25572500  0.24093800  0.09501100  1
  S  S2  1  0.24228200  0.77613100  0.88413900  1
  S  S3  1  0.75771800  0.22386900  0.11586100  1
  S  S4  1  0.50553400  0.29735100  0.34189000  1
  S  S5  1  0.74228200  0.22386900  0.61586100  1
  S  S6  1  0.24427500  0.24093800  0.59501100  1
  S  S7  1  0.74427500  0.75906200  0.90498900  1
  S  S8  1  0.49446600  0.70264900  0.65811000  1
  S  S9  1  0.25771800  0.77613100  0.38413900  1
  S  S10  1  0.99446600  0.29735100  0.84189000  1
  S  S11  1  0.00553400  0.70264900  0.15811000  1
  O  O0  1  0.83164200  0.38106900  0.10402900  1
  O  O1  1  0.32612600  0.09183200  0.57203300  1
  O  O2  1  0.31622200  0.39767600  0.57702000  1
  O  O3  1  0.17387400  0.09183200  0.07203300  1
  O  O4  1  0.33426000  0.92044000  0.41739700  1
  O  O5  1  0.53568200  0.81329800  0.72418100  1
  O  O6  1  0.16835800  0.61893100  0.89597100  1
  O  O7  1  0.16574000  0.92044000  0.91739700  1
  O  O8  1  0.01872200  0.77554700  0.06924200  1
  O  O9  1  0.81622200  0.60232400  0.92298000  1
  O  O10  1  0.67387400  0.90816800  0.42796700  1
  O  O11  1  0.98127800  0.22445300  0.93075800  1
  O  O12  1  0.82612600  0.90816800  0.92796700  1
  O  O13  1  0.48127800  0.77554700  0.56924200  1
  O  O14  1  0.33164200  0.61893100  0.39597100  1
  O  O15  1  0.51872200  0.22445300  0.43075800  1
  O  O16  1  0.18377800  0.39767600  0.07702000  1
  O  O17  1  0.46431800  0.18670200  0.27581900  1
  O  O18  1  0.03568200  0.18670200  0.77581900  1
  O  O19  1  0.96431800  0.81329800  0.22418100  1
  O  O20  1  0.66574000  0.07956000  0.58260300  1
  O  O21  1  0.83426000  0.07956000  0.08260300  1
  O  O22  1  0.68377800  0.60232400  0.42298000  1
  O  O23  1  0.66835800  0.38106900  0.60402900  1
  F  F0  1  0.17613400  0.27443400  0.40555800  1
  F  F1  1  0.49443600  0.52499400  0.16667600  1
  F  F2  1  0.57958300  0.77207200  0.24481700  1
  F  F3  1  0.00309600  0.95746400  0.61858100  1
  F  F4  1  0.50556400  0.47500600  0.83332400  1
  F  F5  1  0.42041700  0.22792800  0.75518300  1
  F  F6  1  0.67613400  0.72556600  0.09444200  1
  F  F7  1  0.92041700  0.77207200  0.74481700  1
  F  F8  1  0.81509900  0.24281100  0.30890700  1
  F  F9  1  0.31509900  0.75718900  0.19109300  1
  F  F10  1  0.07958300  0.22792800  0.25518300  1
  F  F11  1  0.18490100  0.75718900  0.69109300  1
  F  F12  1  0.58801200  0.28928300  0.95991500  1
  F  F13  1  0.08801200  0.71071700  0.54008500  1
  F  F14  1  0.68490100  0.24281100  0.80890700  1
  F  F15  1  0.41198800  0.71071700  0.04008500  1
  F  F16  1  0.99690400  0.04253600  0.38141900  1
  F  F17  1  0.99443600  0.47500600  0.33332400  1
  F  F18  1  0.91198800  0.28928300  0.45991500  1
  F  F19  1  0.50309600  0.04253600  0.88141900  1
  F  F20  1  0.49690400  0.95746400  0.11858100  1
  F  F21  1  0.32386600  0.27443400  0.90555800  1
  F  F22  1  0.82386600  0.72556600  0.59444200  1
  F  F23  1  0.00556400  0.52499400  0.66667600  1
loop_
_geom_bond_atom_site_label_1
_geom_bond_atom_site_label_2
_geom_bond_distance
_geom_bond_site_symmetry_2
Ni0 O11 2.066081 1_454
Ni0 O8 2.066081 1_545
Ni0 O3 2.072448 1_555
Ni0 O12 2.072448 1_444
Ni0 O21 2.079590 1_455
Ni0 O7 2.079590 1_544
Ni1 O15 2.066081 1_555
Ni1 O13 2.066081 1_545
Ni1 O10 2.072448 1_545
Ni1 O1 2.072448 1_555
Ni1 O20 2.079590 1_555
Ni1 O4 2.079590 1_545
As0 F16 1.767567 1_555
As0 F17 1.772534 1_555
As0 F18 1.777334 1_555
As0 F10 1.778001 1_655
As0 F0 1.779006 1_655
As0 F8 1.794595 1_555
As1 F3 1.767567 1_555
As1 F23 1.772534 1_555
As1 F13 1.777334 1_555
As1 F7 1.778001 1_455
As1 F22 1.779006 1_455
As1 F11 1.794595 1_555
As2 F19 1.767567 1_555
As2 F4 1.772534 1_555
As2 F12 1.777334 1_555
As2 F5 1.778001 1_555
As2 F21 1.779006 1_555
As2 F14 1.794595 1_555
As3 F20 1.767567 1_555
As3 F1 1.772534 1_555
As3 F15 1.777334 1_555
As3 F2 1.778001 1_555
As3 F6 1.779006 1_555
As3 F9 1.794595 1_555
O0 S3 1.437199 1_555
O1 S6 1.470621 1_555
O2 S6 1.436763 1_555
O3 S1 1.470621 1_555
O4 S9 1.469213 1_555
O5 S8 1.439408 1_555
O6 S2 1.437199 1_555
O7 S2 1.469213 1_555
O8 S11 1.469368 1_555
O9 S7 1.436763 1_555
O10 S0 1.470621 1_555
O11 S10 1.469368 1_555
O12 S7 1.470621 1_555
O13 S8 1.469368 1_555
O14 S9 1.437199 1_555
O15 S4 1.469368 1_555
O16 S1 1.436763 1_555
O17 S4 1.439408 1_555
O18 S10 1.439408 1_455
O19 S11 1.439408 1_655
O20 S5 1.469213 1_555
O21 S3 1.469213 1_555
O22 S0 1.436763 1_555
O23 S5 1.437199 1_555
