# generated using pymatgen
data_Y4CoB13
_symmetry_space_group_name_H-M   'P 1'
_cell_length_a   7.32419200
_cell_length_b   7.32419200
_cell_length_c   6.91986200
_cell_angle_alpha   90.00000000
_cell_angle_beta   90.00000000
_cell_angle_gamma   90.00000000
_symmetry_Int_Tables_number   1
_chemical_formula_structural   Y4CoB13
_chemical_formula_sum   'Y8 Co2 B26'
_cell_volume   371.20761325
_cell_formula_units_Z   2
loop_
 _symmetry_equiv_pos_site_id
 _symmetry_equiv_pos_as_xyz
  1  'x, y, z'
loop_
 _atom_site_type_symbol
 _atom_site_label
 _atom_site_symmetry_multiplicity
 _atom_site_fract_x
 _atom_site_fract_y
 _atom_site_fract_z
 _atom_site_occupancy
  Y  Y0  1  0.68081800  0.18478100  0.00000000  1
  Y  Y1  1  0.18478100  0.31918200  0.00000000  1
  Y  Y2  1  0.81521900  0.68081800  0.00000000  1
  Y  Y3  1  0.81918200  0.68478100  0.50000000  1
  Y  Y4  1  0.18081800  0.31521900  0.50000000  1
  Y  Y5  1  0.31918200  0.81521900  0.00000000  1
  Y  Y6  1  0.68478100  0.18081800  0.50000000  1
  Y  Y7  1  0.31521900  0.81918200  0.50000000  1
  Co  Co0  1  0.00000000  0.00000000  0.00000000  1
  Co  Co1  1  0.50000000  0.50000000  0.50000000  1
  B  B0  1  0.00000000  0.00000000  0.50000000  1
  B  B1  1  0.50000000  0.50000000  0.00000000  1
  B  B2  1  0.90904300  0.40904300  0.25000000  1
  B  B3  1  0.40904300  0.09095700  0.25000000  1
  B  B4  1  0.59095700  0.90904300  0.25000000  1
  B  B5  1  0.09095700  0.59095700  0.25000000  1
  B  B6  1  0.09095700  0.59095700  0.75000000  1
  B  B7  1  0.59095700  0.90904300  0.75000000  1
  B  B8  1  0.40904300  0.09095700  0.75000000  1
  B  B9  1  0.90904300  0.40904300  0.75000000  1
  B  B10  1  0.16959900  0.03925500  0.25363100  1
  B  B11  1  0.03925500  0.83040100  0.25363100  1
  B  B12  1  0.96074500  0.16959900  0.25363100  1
  B  B13  1  0.33040100  0.53925500  0.24636900  1
  B  B14  1  0.66959900  0.46074500  0.24636900  1
  B  B15  1  0.83040100  0.96074500  0.25363100  1
  B  B16  1  0.53925500  0.66959900  0.24636900  1
  B  B17  1  0.46074500  0.33040100  0.24636900  1
  B  B18  1  0.83040100  0.96074500  0.74636900  1
  B  B19  1  0.96074500  0.16959900  0.74636900  1
  B  B20  1  0.03925500  0.83040100  0.74636900  1
  B  B21  1  0.66959900  0.46074500  0.75363100  1
  B  B22  1  0.33040100  0.53925500  0.75363100  1
  B  B23  1  0.16959900  0.03925500  0.74636900  1
  B  B24  1  0.46074500  0.33040100  0.75363100  1
  B  B25  1  0.53925500  0.66959900  0.75363100  1
loop_
_geom_bond_atom_site_label_1
_geom_bond_atom_site_label_2
_geom_bond_distance
_geom_bond_site_symmetry_2
Co0 Y1 2.701239 1_555
Co0 Y5 2.701239 1_545
Co0 Y0 2.701239 1_455
Co0 Y2 2.701239 1_445
Co1 Y3 2.701239 1_555
Co1 Y7 2.701239 1_555
Co1 Y6 2.701239 1_555
Co1 Y4 2.701239 1_555
B0 B23 2.128882 1_555
B0 B19 2.128882 1_455
B0 B18 2.128882 1_445
B0 B10 2.128882 1_555
B0 B11 2.128882 1_545
B0 B12 2.128882 1_455
B0 B20 2.128882 1_545
B0 B15 2.128882 1_445
B0 Y4 2.661597 1_555
B0 Y7 2.661597 1_545
B0 Y6 2.661597 1_455
B0 Y3 2.661597 1_445
B1 B16 2.128882 1_555
B1 B14 2.128882 1_555
B1 B13 2.128882 1_555
B1 B17 2.128882 1_555
B1 B25 2.128882 1_554
B1 B21 2.128882 1_554
B1 B22 2.128882 1_554
B1 B24 2.128882 1_554
B1 Y2 2.661597 1_555
B1 Y0 2.661597 1_555
B1 Y5 2.661597 1_555
B1 Y1 2.661597 1_555
B2 B5 1.884260 1_655
B2 Y2 2.725293 1_555
B2 Y4 2.725293 1_655
B2 Y3 2.739447 1_555
B2 Y1 2.739447 1_655
B2 Y0 2.912874 1_555
B2 Y6 2.912874 1_555
B3 B4 1.884260 1_545
B3 Y0 2.725293 1_555
B3 Y7 2.725293 1_545
B3 Y6 2.739447 1_555
B3 Y5 2.739447 1_545
B3 Y1 2.912874 1_555
B3 Y4 2.912874 1_555
B4 Y6 2.725293 1_565
B4 Y5 2.725293 1_555
B4 Y7 2.739447 1_555
B4 Y0 2.739447 1_565
B4 Y3 2.912874 1_555
B4 Y2 2.912874 1_555
B5 Y3 2.725293 1_455
B5 Y1 2.725293 1_555
B5 Y4 2.739447 1_555
B5 Y2 2.739447 1_455
B5 Y5 2.912874 1_555
B5 Y7 2.912874 1_555
B6 B9 1.884260 1_455
B6 Y3 2.725293 1_455
B6 Y1 2.725293 1_556
B6 Y4 2.739447 1_555
B6 Y2 2.739447 1_456
B6 Y5 2.912874 1_556
B6 Y7 2.912874 1_555
B7 B8 1.884260 1_565
B7 Y6 2.725293 1_565
B7 Y5 2.725293 1_556
B7 Y7 2.739447 1_555
B7 Y0 2.739447 1_566
B7 Y3 2.912874 1_555
B7 Y2 2.912874 1_556
B8 Y0 2.725293 1_556
B8 Y7 2.725293 1_545
B8 Y6 2.739447 1_555
B8 Y5 2.739447 1_546
B8 Y1 2.912874 1_556
B8 Y4 2.912874 1_555
B9 Y2 2.725293 1_556
B9 Y4 2.725293 1_655
B9 Y3 2.739447 1_555
B9 Y1 2.739447 1_656
B9 Y0 2.912874 1_556
B9 Y6 2.912874 1_555
B10 B3 1.794327 1_555
B10 B11 1.803143 1_545
B10 B12 1.803143 1_455
B10 Co0 2.169334 1_555
B10 Y7 2.577225 1_545
B10 Y5 2.640668 1_545
B10 Y4 2.645474 1_555
B10 Y1 2.701146 1_555
B11 B5 1.794327 1_555
B11 B15 1.803143 1_455
B11 Co0 2.169334 1_565
B11 Y3 2.577225 1_455
B11 Y2 2.640668 1_455
B11 Y7 2.645474 1_555
B11 Y5 2.701146 1_555
B12 B2 1.794327 1_555
B12 B15 1.803143 1_545
B12 Co0 2.169334 1_655
B12 Y4 2.577225 1_655
B12 Y1 2.640668 1_655
B12 Y6 2.645474 1_555
B12 Y0 2.701146 1_555
B13 B5 1.794327 1_555
B13 B17 1.803143 1_555
B13 B16 1.803143 1_555
B13 Co1 2.169334 1_555
B13 Y1 2.577225 1_555
B13 Y4 2.640668 1_555
B13 Y5 2.645474 1_555
B13 Y7 2.701146 1_555
B14 B2 1.794327 1_555
B14 B17 1.803143 1_555
B14 B16 1.803143 1_555
B14 Co1 2.169334 1_555
B14 Y2 2.577225 1_555
B14 Y3 2.640668 1_555
B14 Y0 2.645474 1_555
B14 Y6 2.701146 1_555
B15 B4 1.794327 1_555
B15 Co0 2.169334 1_665
B15 Y6 2.577225 1_565
B15 Y0 2.640668 1_565
B15 Y3 2.645474 1_555
B15 Y2 2.701146 1_555
B16 B4 1.794327 1_555
B16 Co1 2.169334 1_555
B16 Y5 2.577225 1_555
B16 Y7 2.640668 1_555
B16 Y2 2.645474 1_555
B16 Y3 2.701146 1_555
B17 B3 1.794327 1_555
B17 Co1 2.169334 1_555
B17 Y0 2.577225 1_555
B17 Y6 2.640668 1_555
B17 Y1 2.645474 1_555
B17 Y4 2.701146 1_555
B18 B7 1.794327 1_555
B18 B19 1.803143 1_565
B18 B20 1.803143 1_655
B18 Co0 2.169334 1_666
B18 Y6 2.577225 1_565
B18 Y0 2.640668 1_566
B18 Y3 2.645474 1_555
B18 Y2 2.701146 1_556
B19 B9 1.794327 1_555
B19 B23 1.803143 1_655
B19 Co0 2.169334 1_656
B19 Y4 2.577225 1_655
B19 Y1 2.640668 1_656
B19 Y6 2.645474 1_555
B19 Y0 2.701146 1_556
B20 B6 1.794327 1_555
B20 B23 1.803143 1_565
B20 Co0 2.169334 1_566
B20 Y3 2.577225 1_455
B20 Y2 2.640668 1_456
B20 Y7 2.645474 1_555
B20 Y5 2.701146 1_556
B21 B9 1.794327 1_555
B21 B24 1.803143 1_555
B21 B25 1.803143 1_555
B21 Co1 2.169334 1_555
B21 Y2 2.577225 1_556
B21 Y3 2.640668 1_555
B21 Y0 2.645474 1_556
B21 Y6 2.701146 1_555
B22 B6 1.794327 1_555
B22 B24 1.803143 1_555
B22 B25 1.803143 1_555
B22 Co1 2.169334 1_555
B22 Y1 2.577225 1_556
B22 Y4 2.640668 1_555
B22 Y5 2.645474 1_556
B22 Y7 2.701146 1_555
B23 B8 1.794327 1_555
B23 Co0 2.169334 1_556
B23 Y7 2.577225 1_545
B23 Y5 2.640668 1_546
B23 Y4 2.645474 1_555
B23 Y1 2.701146 1_556
B24 B8 1.794327 1_555
B24 Co1 2.169334 1_555
B24 Y0 2.577225 1_556
B24 Y6 2.640668 1_555
B24 Y1 2.645474 1_556
B24 Y4 2.701146 1_555
B25 B7 1.794327 1_555
B25 Co1 2.169334 1_555
B25 Y5 2.577225 1_556
B25 Y7 2.640668 1_555
B25 Y2 2.645474 1_556
B25 Y3 2.701146 1_555
