# generated using pymatgen
data_ZnS
_symmetry_space_group_name_H-M   'P 1'
_cell_length_a   3.80963038
_cell_length_b   3.80962952
_cell_length_c   87.16336220
_cell_angle_alpha   90.00000000
_cell_angle_beta   90.00000000
_cell_angle_gamma   119.99998976
_symmetry_Int_Tables_number   1
_chemical_formula_structural   ZnS
_chemical_formula_sum   'Zn28 S28'
_cell_volume   1095.54503643
_cell_formula_units_Z   28
loop_
 _symmetry_equiv_pos_site_id
 _symmetry_equiv_pos_as_xyz
  1  'x, y, z'
loop_
 _atom_site_type_symbol
 _atom_site_label
 _atom_site_symmetry_multiplicity
 _atom_site_fract_x
 _atom_site_fract_y
 _atom_site_fract_z
 _atom_site_occupancy
  Zn  Zn0  1  0.66666700  0.33333300  0.07144736  1
  Zn  Zn1  1  -0.00000000  0.00000000  0.92857436  1
  Zn  Zn2  1  -0.00000000  -0.00000000  0.32142960  1
  Zn  Zn3  1  0.00000000  -0.00000000  0.67860175  1
  Zn  Zn4  1  0.33333300  0.66666700  0.14286598  1
  Zn  Zn5  1  0.33333300  0.66666700  0.35714563  1
  Zn  Zn6  1  0.66666700  0.33333300  0.39284445  1
  Zn  Zn7  1  0.66666700  0.33333300  0.57142124  1
  Zn  Zn8  1  0.66666700  0.33333300  0.46431124  1
  Zn  Zn9  1  -0.00000000  0.00000000  0.21429002  1
  Zn  Zn10  1  0.66666700  0.33333300  0.64289617  1
  Zn  Zn11  1  -0.00000000  0.00000000  0.78568395  1
  Zn  Zn12  1  0.33333300  0.66666700  0.89288985  1
  Zn  Zn13  1  0.33333300  0.66666700  0.60715117  1
  Zn  Zn14  1  0.33333300  0.66666700  0.82141866  1
  Zn  Zn15  1  0.66666700  0.33333300  0.28569055  1
  Zn  Zn16  1  0.66666700  0.33333300  0.85715576  1
  Zn  Zn17  1  -0.00000000  0.00000000  0.53569500  1
  Zn  Zn18  1  0.66666700  0.33333300  0.96427939  1
  Zn  Zn19  1  -0.00000000  -0.00000000  0.10716037  1
  Zn  Zn20  1  0.33333300  0.66666700  0.03570248  1
  Zn  Zn21  1  0.33333300  0.66666700  0.25001940  1
  Zn  Zn22  1  0.66666700  0.33333300  0.17860034  1
  Zn  Zn23  1  -0.00000000  0.00000000  0.00004229  1
  Zn  Zn24  1  0.66666700  0.33333300  0.75002305  1
  Zn  Zn25  1  0.33333300  0.66666700  0.71428640  1
  Zn  Zn26  1  -0.00000000  0.00000000  0.42859809  1
  Zn  Zn27  1  0.33333300  0.66666700  0.50003037  1
  S  S0  1  0.66666700  0.33333300  0.20536198  1
  S  S1  1  -0.00000000  0.00000000  0.34820119  1
  S  S2  1  0.33333300  0.66666700  0.84818174  1
  S  S3  1  0.66666700  0.33333300  0.49106823  1
  S  S4  1  0.33333300  0.66666700  0.74106069  1
  S  S5  1  0.33333300  0.66666700  0.27677807  1
  S  S6  1  -0.00000000  0.00000000  0.45539588  1
  S  S7  1  0.66666700  0.33333300  0.88395996  1
  S  S8  1  -0.00000000  0.00000000  0.02678364  1
  S  S9  1  0.66666700  0.33333300  0.59818007  1
  S  S10  1  0.33333300  0.66666700  0.63395760  1
  S  S11  1  0.66666700  0.33333300  0.41960772  1
  S  S12  1  0.33333300  0.66666700  0.06247600  1
  S  S13  1  0.66666700  0.33333300  0.09822078  1
  S  S14  1  -0.00000000  0.00000000  0.13392203  1
  S  S15  1  0.66666700  0.33333300  0.31246905  1
  S  S16  1  0.66666700  0.33333300  0.77677376  1
  S  S17  1  0.66666700  0.33333300  0.66965312  1
  S  S18  1  0.33333300  0.66666700  0.52678271  1
  S  S19  1  -0.00000000  0.00000000  0.24107048  1
  S  S20  1  -0.00000000  0.00000000  0.70536193  1
  S  S21  1  0.66666700  0.33333300  0.99108356  1
  S  S22  1  -0.00000000  0.00000000  0.95531861  1
  S  S23  1  0.33333300  0.66666700  0.38391297  1
  S  S24  1  0.33333300  0.66666700  0.91964676  1
  S  S25  1  -0.00000000  -0.00000000  0.81246348  1
  S  S26  1  -0.00000000  0.00000000  0.56247553  1
  S  S27  1  0.33333300  0.66666700  0.16963956  1
loop_
_geom_bond_atom_site_label_1
_geom_bond_atom_site_label_2
_geom_bond_distance
_geom_bond_site_symmetry_2
S0 Zn22 2.332635 1_555
S0 Zn9 2.333097 1_655
S0 Zn9 2.333100 1_665
S0 Zn9 2.333101 1_555
S1 Zn2 2.333502 1_555
S1 Zn5 2.333574 1_545
S1 Zn5 2.333577 1_555
S1 Zn5 2.333578 1_445
S2 Zn14 2.332760 1_555
S2 Zn16 2.334437 1_565
S2 Zn16 2.334437 1_455
S2 Zn16 2.334443 1_555
S3 Zn8 2.332229 1_555
S3 Zn27 2.334090 1_545
S3 Zn27 2.334091 1_655
S3 Zn27 2.334096 1_555
S4 Zn25 2.333737 1_555
S4 Zn24 2.334097 1_565
S4 Zn24 2.334097 1_455
S4 Zn24 2.334103 1_555
S5 Zn21 2.332376 1_555
S5 Zn15 2.332645 1_565
S5 Zn15 2.332646 1_455
S5 Zn15 2.332651 1_555
S6 Zn8 2.332729 1_455
S6 Zn8 2.332732 1_445
S6 Zn8 2.332732 1_555
S6 Zn26 2.335785 1_555
S7 Zn12 2.333151 1_545
S7 Zn12 2.333151 1_655
S7 Zn12 2.333157 1_555
S7 Zn16 2.336344 1_555
S8 Zn23 2.330866 1_555
S8 Zn20 2.332830 1_545
S8 Zn20 2.332833 1_555
S8 Zn20 2.332833 1_445
S9 Zn7 2.332390 1_555
S9 Zn13 2.334352 1_545
S9 Zn13 2.334352 1_655
S9 Zn13 2.334358 1_555
S10 Zn10 2.333403 1_565
S10 Zn10 2.333404 1_455
S10 Zn10 2.333410 1_555
S10 Zn13 2.336539 1_555
S11 Zn6 2.332777 1_555
S11 Zn26 2.334915 1_655
S11 Zn26 2.334918 1_665
S11 Zn26 2.334918 1_555
S12 Zn20 2.333670 1_555
S12 Zn0 2.334359 1_565
S12 Zn0 2.334360 1_455
S12 Zn0 2.334365 1_555
S13 Zn19 2.333433 1_655
S13 Zn19 2.333436 1_665
S13 Zn19 2.333437 1_555
S13 Zn0 2.333661 1_555
S14 Zn19 2.332636 1_555
S14 Zn4 2.333560 1_545
S14 Zn4 2.333563 1_555
S14 Zn4 2.333564 1_445
S15 Zn2 2.334044 1_655
S15 Zn2 2.334047 1_665
S15 Zn2 2.334047 1_555
S15 Zn15 2.334104 1_555
S16 Zn24 2.331682 1_555
S16 Zn11 2.332579 1_655
S16 Zn11 2.332582 1_665
S16 Zn11 2.332582 1_555
S17 Zn10 2.332226 1_555
S17 Zn3 2.333696 1_655
S17 Zn3 2.333700 1_665
S17 Zn3 2.333700 1_555
S18 Zn27 2.331824 1_555
S18 Zn17 2.332640 1_565
S18 Zn17 2.332643 1_555
S18 Zn17 2.332643 1_665
S19 Zn21 2.333705 1_545
S19 Zn21 2.333708 1_555
S19 Zn21 2.333708 1_445
S19 Zn9 2.334275 1_555
S20 Zn3 2.332507 1_555
S20 Zn25 2.332993 1_545
S20 Zn25 2.332997 1_555
S20 Zn25 2.332997 1_445
S21 Zn23 2.333991 1_656
S21 Zn23 2.333994 1_666
S21 Zn23 2.333994 1_556
S21 Zn18 2.336342 1_555
S22 Zn1 2.331119 1_555
S22 Zn18 2.334050 1_455
S22 Zn18 2.334054 1_445
S22 Zn18 2.334054 1_555
S23 Zn5 2.333131 1_555
S23 Zn6 2.333197 1_565
S23 Zn6 2.333198 1_455
S23 Zn6 2.333203 1_555
S24 Zn12 2.332222 1_555
S24 Zn1 2.333084 1_565
S24 Zn1 2.333087 1_555
S24 Zn1 2.333088 1_665
S25 Zn14 2.333887 1_545
S25 Zn14 2.333890 1_555
S25 Zn14 2.333891 1_445
S25 Zn11 2.334194 1_555
S26 Zn7 2.333611 1_455
S26 Zn7 2.333614 1_445
S26 Zn7 2.333615 1_555
S26 Zn17 2.334281 1_555
S27 Zn4 2.333675 1_555
S27 Zn22 2.334051 1_565
S27 Zn22 2.334051 1_455
S27 Zn22 2.334057 1_555
