# generated using pymatgen
data_Zn(GaNi)3
_symmetry_space_group_name_H-M   'P 1'
_cell_length_a   9.92619785
_cell_length_b   9.92619785
_cell_length_c   9.92619785
_cell_angle_alpha   109.47122063
_cell_angle_beta   109.47122063
_cell_angle_gamma   109.47122063
_symmetry_Int_Tables_number   1
_chemical_formula_structural   Zn(GaNi)3
_chemical_formula_sum   'Zn8 Ga24 Ni24'
_cell_volume   752.88196019
_cell_formula_units_Z   8
loop_
 _symmetry_equiv_pos_site_id
 _symmetry_equiv_pos_as_xyz
  1  'x, y, z'
loop_
 _atom_site_type_symbol
 _atom_site_label
 _atom_site_symmetry_multiplicity
 _atom_site_fract_x
 _atom_site_fract_y
 _atom_site_fract_z
 _atom_site_occupancy
  Zn  Zn0  1  0.00000000  0.50000000  0.50000000  1
  Zn  Zn1  1  0.50000000  0.50000000  0.50000000  1
  Zn  Zn2  1  0.00000000  0.00000000  0.50000000  1
  Zn  Zn3  1  0.50000000  0.50000000  0.00000000  1
  Zn  Zn4  1  0.50000000  0.00000000  0.50000000  1
  Zn  Zn5  1  0.00000000  0.50000000  0.00000000  1
  Zn  Zn6  1  0.50000000  0.00000000  0.00000000  1
  Zn  Zn7  1  0.00000000  0.00000000  0.00000000  1
  Ga  Ga0  1  0.75000000  0.51133300  0.76133300  1
  Ga  Ga1  1  0.75000000  0.23866700  0.48866700  1
  Ga  Ga2  1  0.76133300  0.75000000  0.51133300  1
  Ga  Ga3  1  0.51133300  0.25000000  0.76133300  1
  Ga  Ga4  1  0.01133300  0.25000000  0.26133300  1
  Ga  Ga5  1  0.73866700  0.98866700  0.75000000  1
  Ga  Ga6  1  0.51133300  0.76133300  0.75000000  1
  Ga  Ga7  1  0.23866700  0.25000000  0.48866700  1
  Ga  Ga8  1  0.01133300  0.26133300  0.75000000  1
  Ga  Ga9  1  0.25000000  0.76133300  0.51133300  1
  Ga  Ga10  1  0.98866700  0.73866700  0.25000000  1
  Ga  Ga11  1  0.23866700  0.48866700  0.75000000  1
  Ga  Ga12  1  0.25000000  0.26133300  0.01133300  1
  Ga  Ga13  1  0.26133300  0.75000000  0.01133300  1
  Ga  Ga14  1  0.48866700  0.75000000  0.23866700  1
  Ga  Ga15  1  0.76133300  0.51133300  0.25000000  1
  Ga  Ga16  1  0.75000000  0.73866700  0.98866700  1
  Ga  Ga17  1  0.75000000  0.01133300  0.26133300  1
  Ga  Ga18  1  0.25000000  0.98866700  0.73866700  1
  Ga  Ga19  1  0.26133300  0.01133300  0.25000000  1
  Ga  Ga20  1  0.98866700  0.75000000  0.73866700  1
  Ga  Ga21  1  0.25000000  0.48866700  0.23866700  1
  Ga  Ga22  1  0.73866700  0.25000000  0.98866700  1
  Ga  Ga23  1  0.48866700  0.23866700  0.25000000  1
  Ni  Ni0  1  0.00799000  0.01597900  0.75799000  1
  Ni  Ni1  1  0.50799000  0.75000000  0.99201000  1
  Ni  Ni2  1  0.01597900  0.75799000  0.00799000  1
  Ni  Ni3  1  0.24201000  0.99201000  0.98402100  1
  Ni  Ni4  1  0.75000000  0.99201000  0.50799000  1
  Ni  Ni5  1  0.25000000  0.74201000  0.75799000  1
  Ni  Ni6  1  0.75799000  0.00799000  0.01597900  1
  Ni  Ni7  1  0.74201000  0.75799000  0.25000000  1
  Ni  Ni8  1  0.98402100  0.24201000  0.99201000  1
  Ni  Ni9  1  0.75000000  0.25799000  0.24201000  1
  Ni  Ni10  1  0.00799000  0.49201000  0.25000000  1
  Ni  Ni11  1  0.49201000  0.25000000  0.00799000  1
  Ni  Ni12  1  0.99201000  0.98402100  0.24201000  1
  Ni  Ni13  1  0.25799000  0.51597900  0.50799000  1
  Ni  Ni14  1  0.50799000  0.25799000  0.51597900  1
  Ni  Ni15  1  0.24201000  0.75000000  0.25799000  1
  Ni  Ni16  1  0.51597900  0.50799000  0.25799000  1
  Ni  Ni17  1  0.49201000  0.74201000  0.48402100  1
  Ni  Ni18  1  0.99201000  0.50799000  0.75000000  1
  Ni  Ni19  1  0.75799000  0.25000000  0.74201000  1
  Ni  Ni20  1  0.25799000  0.24201000  0.75000000  1
  Ni  Ni21  1  0.48402100  0.49201000  0.74201000  1
  Ni  Ni22  1  0.25000000  0.00799000  0.49201000  1
  Ni  Ni23  1  0.74201000  0.48402100  0.49201000  1
loop_
_geom_bond_atom_site_label_1
_geom_bond_atom_site_label_2
_geom_bond_distance
_geom_bond_site_symmetry_2
Ga0 Ni18 2.452615 1_555
Ga0 Ni14 2.452618 1_555
Ga0 Ni21 2.518791 1_555
Ga0 Ni2 2.518797 1_656
Ga0 Ni19 2.566659 1_555
Ga0 Ni23 2.566661 1_555
Ga1 Ni19 2.452615 1_555
Ga1 Ni23 2.452625 1_555
Ga1 Ni9 2.518801 1_555
Ga1 Ni4 2.518801 1_545
Ga1 Ni14 2.566655 1_555
Ga1 Ni18 2.566659 1_555
Ga2 Ni4 2.452615 1_555
Ga2 Ni16 2.452618 1_555
Ga2 Ni23 2.518791 1_555
Ga2 Ni0 2.518797 1_665
Ga2 Ni7 2.566659 1_555
Ga2 Ni17 2.566661 1_555
Ga3 Ni20 2.452615 1_555
Ga3 Ni14 2.452625 1_555
Ga3 Ni11 2.518801 1_556
Ga3 Ni19 2.518801 1_555
Ga3 Ni21 2.566655 1_555
Ga3 Ni22 2.566659 1_555
Ga4 Ni10 2.452615 1_555
Ga4 Ni6 2.452618 1_455
Ga4 Ni12 2.518791 1_445
Ga4 Ni13 2.518797 1_555
Ga4 Ni9 2.566659 1_455
Ga4 Ni8 2.566661 1_454
Ga5 Ni4 2.452615 1_555
Ga5 Ni8 2.452618 1_565
Ga5 Ni6 2.518791 1_566
Ga5 Ni17 2.518797 1_555
Ga5 Ni19 2.566659 1_565
Ga5 Ni0 2.566661 1_665
Ga6 Ni1 2.452615 1_555
Ga6 Ni13 2.452618 1_555
Ga6 Ni17 2.518791 1_555
Ga6 Ni6 2.518797 1_566
Ga6 Ni5 2.566659 1_555
Ga6 Ni21 2.566661 1_555
Ga7 Ni22 2.452615 1_555
Ga7 Ni21 2.452618 1_555
Ga7 Ni13 2.518791 1_555
Ga7 Ni12 2.518797 1_445
Ga7 Ni20 2.566659 1_555
Ga7 Ni14 2.566661 1_555
Ga8 Ni19 2.452615 1_455
Ga8 Ni0 2.452625 1_555
Ga8 Ni20 2.518801 1_555
Ga8 Ni18 2.518801 1_455
Ga8 Ni8 2.566655 1_455
Ga8 Ni4 2.566659 1_445
Ga9 Ni15 2.452615 1_555
Ga9 Ni13 2.452625 1_555
Ga9 Ni22 2.518801 1_565
Ga9 Ni5 2.518801 1_555
Ga9 Ni17 2.566655 1_555
Ga9 Ni10 2.566659 1_555
Ga10 Ni15 2.452615 1_655
Ga10 Ni12 2.452625 1_555
Ga10 Ni10 2.518801 1_655
Ga10 Ni7 2.518801 1_555
Ga10 Ni2 2.566655 1_655
Ga10 Ni22 2.566659 1_665
Ga11 Ni5 2.452615 1_555
Ga11 Ni21 2.452625 1_555
Ga11 Ni20 2.518801 1_555
Ga11 Ni18 2.518801 1_455
Ga11 Ni13 2.566655 1_555
Ga11 Ni1 2.566659 1_555
Ga12 Ni11 2.452615 1_555
Ga12 Ni0 2.452618 1_554
Ga12 Ni8 2.518791 1_454
Ga12 Ni16 2.518797 1_555
Ga12 Ni20 2.566659 1_554
Ga12 Ni3 2.566661 1_544
Ga13 Ni5 2.452615 1_554
Ga13 Ni2 2.452625 1_555
Ga13 Ni15 2.518801 1_555
Ga13 Ni1 2.518801 1_554
Ga13 Ni3 2.566655 1_554
Ga13 Ni18 2.566659 1_454
Ga14 Ni7 2.452615 1_555
Ga14 Ni17 2.452625 1_555
Ga14 Ni15 2.518801 1_555
Ga14 Ni1 2.518801 1_554
Ga14 Ni16 2.566655 1_555
Ga14 Ni4 2.566659 1_555
Ga15 Ni9 2.452615 1_555
Ga15 Ni16 2.452625 1_555
Ga15 Ni10 2.518801 1_655
Ga15 Ni7 2.518801 1_555
Ga15 Ni23 2.566655 1_555
Ga15 Ni11 2.566659 1_555
Ga16 Ni1 2.452615 1_555
Ga16 Ni12 2.452618 1_556
Ga16 Ni2 2.518791 1_656
Ga16 Ni21 2.518797 1_555
Ga16 Ni7 2.566659 1_556
Ga16 Ni6 2.566661 1_566
Ga17 Ni7 2.452615 1_545
Ga17 Ni6 2.452625 1_555
Ga17 Ni9 2.518801 1_555
Ga17 Ni4 2.518801 1_545
Ga17 Ni12 2.566655 1_545
Ga17 Ni1 2.566659 1_544
Ga18 Ni20 2.452615 1_565
Ga18 Ni3 2.452625 1_555
Ga18 Ni22 2.518801 1_565
Ga18 Ni5 2.518801 1_555
Ga18 Ni0 2.566655 1_565
Ga18 Ni11 2.566659 1_566
Ga19 Ni22 2.452615 1_555
Ga19 Ni2 2.452618 1_545
Ga19 Ni3 2.518791 1_544
Ga19 Ni14 2.518797 1_555
Ga19 Ni15 2.566659 1_545
Ga19 Ni12 2.566661 1_445
Ga20 Ni18 2.452615 1_555
Ga20 Ni3 2.452618 1_655
Ga20 Ni0 2.518791 1_665
Ga20 Ni23 2.518797 1_555
Ga20 Ni5 2.566659 1_655
Ga20 Ni2 2.566661 1_656
Ga21 Ni10 2.452615 1_555
Ga21 Ni17 2.452618 1_555
Ga21 Ni16 2.518791 1_555
Ga21 Ni8 2.518797 1_454
Ga21 Ni15 2.566659 1_555
Ga21 Ni13 2.566661 1_555
Ga22 Ni9 2.452615 1_556
Ga22 Ni8 2.452625 1_555
Ga22 Ni11 2.518801 1_556
Ga22 Ni19 2.518801 1_555
Ga22 Ni6 2.566655 1_556
Ga22 Ni10 2.566659 1_656
Ga23 Ni11 2.452615 1_555
Ga23 Ni23 2.452618 1_555
Ga23 Ni14 2.518791 1_555
Ga23 Ni3 2.518797 1_544
Ga23 Ni9 2.566659 1_555
Ga23 Ni16 2.566661 1_555
Ni0 Zn7 2.484923 1_556
Ni0 Zn2 2.484930 1_555
Ni1 Zn3 2.484927 1_556
Ni1 Zn6 2.484927 1_566
Ni2 Zn7 2.484923 1_565
Ni2 Zn5 2.484930 1_555
Ni3 Zn7 2.484923 1_566
Ni3 Zn6 2.484930 1_566
Ni4 Zn4 2.484927 1_565
Ni4 Zn2 2.484927 1_665
Ni5 Zn6 2.484927 1_566
Ni5 Zn0 2.484927 1_555
Ni6 Zn7 2.484923 1_655
Ni6 Zn6 2.484930 1_555
Ni7 Zn2 2.484927 1_665
Ni7 Zn3 2.484927 1_555
Ni8 Zn7 2.484923 1_656
Ni8 Zn5 2.484930 1_656
Ni9 Zn6 2.484927 1_555
Ni9 Zn0 2.484927 1_655
Ni10 Zn5 2.484927 1_555
Ni10 Zn0 2.484927 1_555
Ni11 Zn6 2.484927 1_555
Ni11 Zn3 2.484927 1_555
Ni12 Zn7 2.484923 1_665
Ni12 Zn2 2.484930 1_665
Ni13 Zn1 2.484923 1_555
Ni13 Zn0 2.484930 1_555
Ni14 Zn1 2.484923 1_555
Ni14 Zn4 2.484930 1_555
Ni15 Zn5 2.484927 1_555
Ni15 Zn4 2.484927 1_565
Ni16 Zn1 2.484923 1_555
Ni16 Zn3 2.484930 1_555
Ni17 Zn1 2.484923 1_555
Ni17 Zn4 2.484930 1_565
Ni18 Zn0 2.484927 1_655
Ni18 Zn5 2.484927 1_656
Ni19 Zn5 2.484927 1_656
Ni19 Zn4 2.484927 1_555
Ni20 Zn2 2.484927 1_555
Ni20 Zn3 2.484927 1_556
Ni21 Zn1 2.484923 1_555
Ni21 Zn3 2.484930 1_556
Ni22 Zn2 2.484927 1_555
Ni22 Zn4 2.484927 1_555
Ni23 Zn1 2.484923 1_555
Ni23 Zn0 2.484930 1_655
