# generated using pymatgen
data_Na4Mn3P4O15
_symmetry_space_group_name_H-M   'P 1'
_cell_length_a   6.71912400
_cell_length_b   10.89602200
_cell_length_c   18.36566500
_cell_angle_alpha   90.00000000
_cell_angle_beta   90.00000000
_cell_angle_gamma   90.00000000
_symmetry_Int_Tables_number   1
_chemical_formula_structural   Na4Mn3P4O15
_chemical_formula_sum   'Na16 Mn12 P16 O60'
_cell_volume   1344.58197731
_cell_formula_units_Z   4
loop_
 _symmetry_equiv_pos_site_id
 _symmetry_equiv_pos_as_xyz
  1  'x, y, z'
loop_
 _atom_site_type_symbol
 _atom_site_label
 _atom_site_symmetry_multiplicity
 _atom_site_fract_x
 _atom_site_fract_y
 _atom_site_fract_z
 _atom_site_occupancy
  Na  Na0  1  0.65892300  0.75284500  0.20702900  1
  Na  Na1  1  0.32291800  0.04305500  0.96429600  1
  Na  Na2  1  0.19164300  0.02017400  0.49219400  1
  Na  Na3  1  0.69164300  0.52017400  0.00780600  1
  Na  Na4  1  0.56695500  0.72768800  0.39879300  1
  Na  Na5  1  0.65892300  0.74715500  0.70702900  1
  Na  Na6  1  0.06695500  0.27231200  0.60120700  1
  Na  Na7  1  0.15892300  0.24715500  0.79297100  1
  Na  Na8  1  0.56695500  0.77231200  0.89879300  1
  Na  Na9  1  0.32291800  0.45694500  0.46429600  1
  Na  Na10  1  0.06695500  0.22768800  0.10120700  1
  Na  Na11  1  0.82291800  0.95694500  0.03570400  1
  Na  Na12  1  0.15892300  0.25284500  0.29297100  1
  Na  Na13  1  0.82291800  0.54305500  0.53570400  1
  Na  Na14  1  0.19164300  0.47982600  0.99219400  1
  Na  Na15  1  0.69164300  0.97982600  0.50780600  1
  Mn  Mn0  1  0.40967000  0.98888300  0.64074800  1
  Mn  Mn1  1  0.39818600  0.50554900  0.66196600  1
  Mn  Mn2  1  0.40967000  0.51111700  0.14074800  1
  Mn  Mn3  1  0.67666000  0.25503300  0.23819400  1
  Mn  Mn4  1  0.89818600  0.00554900  0.83803400  1
  Mn  Mn5  1  0.90967000  0.48888300  0.85925200  1
  Mn  Mn6  1  0.90967000  0.01111700  0.35925200  1
  Mn  Mn7  1  0.17666000  0.75503300  0.26180600  1
  Mn  Mn8  1  0.67666000  0.24496700  0.73819400  1
  Mn  Mn9  1  0.89818600  0.49445100  0.33803400  1
  Mn  Mn10  1  0.39818600  0.99445100  0.16196600  1
  Mn  Mn11  1  0.17666000  0.74496700  0.76180600  1
  P  P0  1  0.35427400  0.72979300  0.55173800  1
  P  P1  1  0.41742600  0.48575600  0.82068600  1
  P  P2  1  0.40707000  0.49418000  0.29842100  1
  P  P3  1  0.54477900  0.24213500  0.06396100  1
  P  P4  1  0.35427400  0.77020700  0.05173800  1
  P  P5  1  0.85427400  0.27020700  0.44826200  1
  P  P6  1  0.91742600  0.51424400  0.17931400  1
  P  P7  1  0.40707000  0.00582000  0.79842100  1
  P  P8  1  0.90707000  0.50582000  0.70157900  1
  P  P9  1  0.91742600  0.98575600  0.67931400  1
  P  P10  1  0.04477900  0.74213500  0.43603900  1
  P  P11  1  0.41742600  0.01424400  0.32068600  1
  P  P12  1  0.85427400  0.22979300  0.94826200  1
  P  P13  1  0.90707000  0.99418000  0.20157900  1
  P  P14  1  0.04477900  0.75786500  0.93603900  1
  P  P15  1  0.54477900  0.25786500  0.56396100  1
  O  O0  1  0.44652600  0.12101000  0.26354300  1
  O  O1  1  0.71734900  0.96293400  0.15743600  1
  O  O2  1  0.08055200  0.01571600  0.14855300  1
  O  O3  1  0.89399900  0.63910800  0.42070800  1
  O  O4  1  0.93936800  0.63315000  0.94363800  1
  O  O5  1  0.62813500  0.29309800  0.48234800  1
  O  O6  1  0.59466100  0.99660800  0.37322200  1
  O  O7  1  0.44206200  0.11295500  0.74256000  1
  O  O8  1  0.09466100  0.49660800  0.12677800  1
  O  O9  1  0.21787200  0.74370200  0.38249900  1
  O  O10  1  0.72579600  0.54433500  0.13608100  1
  O  O11  1  0.94206200  0.88704500  0.25744000  1
  O  O12  1  0.93936800  0.86685000  0.44363800  1
  O  O13  1  0.12813500  0.79309800  0.01765200  1
  O  O14  1  0.58055200  0.51571600  0.35144700  1
  O  O15  1  0.94206200  0.61295500  0.75744000  1
  O  O16  1  0.88705100  0.38935800  0.75179000  1
  O  O17  1  0.94652600  0.62101000  0.23645700  1
  O  O18  1  0.44652600  0.37899000  0.76354300  1
  O  O19  1  0.38705100  0.61064200  0.24821000  1
  O  O20  1  0.21734900  0.46293400  0.34256400  1
  O  O21  1  0.71787200  0.25629800  0.61750100  1
  O  O22  1  0.89847100  0.39655800  0.22834600  1
  O  O23  1  0.90488600  0.36557600  0.96153700  1
  O  O24  1  0.62813500  0.20690200  0.98234800  1
  O  O25  1  0.43936800  0.13315000  0.55636200  1
  O  O26  1  0.33705900  0.79891800  0.13336700  1
  O  O27  1  0.83705900  0.20108200  0.86663300  1
  O  O28  1  0.89847100  0.10344200  0.72834600  1
  O  O29  1  0.83705900  0.29891800  0.36663300  1
  O  O30  1  0.98930600  0.36067200  0.48809000  1
  O  O31  1  0.09466100  0.00339200  0.62677800  1
  O  O32  1  0.59466100  0.50339200  0.87322200  1
  O  O33  1  0.39847100  0.89655800  0.27165400  1
  O  O34  1  0.48930600  0.86067200  0.01191000  1
  O  O35  1  0.21734900  0.03706600  0.84256400  1
  O  O36  1  0.72579600  0.95566500  0.63608100  1
  O  O37  1  0.48930600  0.63932800  0.51191000  1
  O  O38  1  0.94652600  0.87899000  0.73645700  1
  O  O39  1  0.38705100  0.88935800  0.74821000  1
  O  O40  1  0.39847100  0.60344200  0.77165400  1
  O  O41  1  0.58055200  0.98428400  0.85144700  1
  O  O42  1  0.33705900  0.70108200  0.63336700  1
  O  O43  1  0.71787200  0.24370200  0.11750100  1
  O  O44  1  0.98930600  0.13932800  0.98809000  1
  O  O45  1  0.40488600  0.63442400  0.03846300  1
  O  O46  1  0.90488600  0.13442400  0.46153700  1
  O  O47  1  0.43936800  0.36685000  0.05636200  1
  O  O48  1  0.44206200  0.38704500  0.24256000  1
  O  O49  1  0.22579600  0.04433500  0.36391900  1
  O  O50  1  0.08055200  0.48428400  0.64855300  1
  O  O51  1  0.40488600  0.86557600  0.53846300  1
  O  O52  1  0.89399900  0.86089200  0.92070800  1
  O  O53  1  0.71734900  0.53706600  0.65743600  1
  O  O54  1  0.22579600  0.45566500  0.86391900  1
  O  O55  1  0.39399900  0.36089200  0.57929200  1
  O  O56  1  0.88705100  0.11064200  0.25179000  1
  O  O57  1  0.12813500  0.70690200  0.51765200  1
  O  O58  1  0.39399900  0.13910800  0.07929200  1
  O  O59  1  0.21787200  0.75629800  0.88249900  1
loop_
_geom_bond_atom_site_label_1
_geom_bond_atom_site_label_2
_geom_bond_distance
_geom_bond_site_symmetry_2
Na0 O17 2.467771 1_555
Na0 O1 2.494759 1_555
Na0 O19 2.511929 1_555
Na0 O11 2.571892 1_555
Na0 O26 2.599856 1_555
Na0 O33 2.631209 1_555
Na0 O10 2.657327 1_555
Na1 O35 2.346426 1_555
Na1 O58 2.404978 1_556
Na1 O34 2.442074 1_546
Na1 O44 2.513171 1_455
Na1 O24 2.739140 1_555
Na1 O41 2.775274 1_545
Na2 O46 2.362012 1_455
Na2 O51 2.369088 1_545
Na2 O49 2.381601 1_555
Na2 O25 2.382165 1_555
Na2 O12 2.541549 1_445
Na2 O31 2.562711 1_555
Na3 O45 2.362012 1_555
Na3 O23 2.369088 1_554
Na3 O10 2.381601 1_555
Na3 O4 2.382165 1_554
Na3 O47 2.541549 1_555
Na3 O32 2.562711 1_554
Na4 O37 2.348407 1_555
Na4 O9 2.370974 1_555
Na4 O3 2.433583 1_555
Na4 O14 2.469603 1_555
Na4 O6 2.973388 1_555
Na5 O38 2.467771 1_555
Na5 O53 2.494759 1_555
Na5 O39 2.511929 1_555
Na5 O15 2.571892 1_555
Na5 O42 2.599856 1_555
Na5 O40 2.631209 1_555
Na5 O36 2.657327 1_555
Na6 O30 2.348407 1_455
Na6 O21 2.370974 1_455
Na6 O55 2.433583 1_555
Na6 O50 2.469603 1_555
Na6 O31 2.973388 1_555
Na7 O18 2.467771 1_555
Na7 O35 2.494759 1_555
Na7 O16 2.511929 1_455
Na7 O7 2.571892 1_555
Na7 O27 2.599856 1_455
Na7 O28 2.631209 1_455
Na7 O54 2.657327 1_555
Na8 O34 2.348407 1_556
Na8 O59 2.370974 1_555
Na8 O52 2.433583 1_555
Na8 O41 2.469603 1_555
Na8 O32 2.973388 1_555
Na9 O20 2.346426 1_555
Na9 O55 2.404978 1_555
Na9 O37 2.442074 1_555
Na9 O30 2.513171 1_455
Na9 O5 2.739140 1_555
Na9 O14 2.775274 1_555
Na10 O44 2.348407 1_454
Na10 O43 2.370974 1_455
Na10 O58 2.433583 1_555
Na10 O2 2.469603 1_555
Na10 O8 2.973388 1_555
Na11 O1 2.346426 1_555
Na11 O52 2.404978 1_554
Na11 O44 2.442074 1_564
Na11 O34 2.513171 1_555
Na11 O13 2.739140 1_655
Na11 O2 2.775274 1_665
Na12 O0 2.467771 1_555
Na12 O20 2.494759 1_555
Na12 O56 2.511929 1_455
Na12 O48 2.571892 1_555
Na12 O29 2.599856 1_455
Na12 O22 2.631209 1_455
Na12 O49 2.657327 1_555
Na13 O53 2.346426 1_555
Na13 O3 2.404978 1_555
Na13 O30 2.442074 1_555
Na13 O37 2.513171 1_555
Na13 O57 2.739140 1_655
Na13 O50 2.775274 1_655
Na14 O23 2.362012 1_455
Na14 O45 2.369088 1_556
Na14 O54 2.381601 1_555
Na14 O47 2.382165 1_556
Na14 O4 2.541549 1_455
Na14 O8 2.562711 1_556
Na15 O51 2.362012 1_555
Na15 O46 2.369088 1_565
Na15 O36 2.381601 1_555
Na15 O12 2.382165 1_555
Na15 O25 2.541549 1_565
Na15 O6 2.562711 1_555
Mn0 O31 2.137931 1_565
Mn0 O36 2.156411 1_555
Mn0 O25 2.216461 1_565
Mn0 O39 2.257038 1_555
Mn0 O51 2.309774 1_555
Mn0 O7 2.317607 1_565
Mn1 O50 2.160850 1_555
Mn1 O53 2.173411 1_555
Mn1 O55 2.188739 1_555
Mn1 O42 2.232428 1_555
Mn1 O40 2.279455 1_555
Mn1 O18 2.342500 1_555
Mn2 O8 2.137931 1_555
Mn2 O10 2.156411 1_555
Mn2 O47 2.216461 1_555
Mn2 O19 2.257038 1_555
Mn2 O45 2.309774 1_555
Mn2 O48 2.317607 1_555
Mn3 O56 2.129782 1_555
Mn3 O48 2.135448 1_555
Mn3 O22 2.152180 1_555
Mn3 O0 2.177224 1_555
Mn3 O43 2.237246 1_555
Mn3 O29 2.637125 1_555
Mn4 O41 2.160850 1_545
Mn4 O35 2.173411 1_655
Mn4 O52 2.188739 1_545
Mn4 O27 2.232428 1_555
Mn4 O28 2.279455 1_555
Mn4 O38 2.342500 1_545
Mn5 O32 2.137931 1_555
Mn5 O54 2.156411 1_655
Mn5 O4 2.216461 1_555
Mn5 O16 2.257038 1_555
Mn5 O23 2.309774 1_555
Mn5 O15 2.317607 1_555
Mn6 O6 2.137931 1_545
Mn6 O49 2.156411 1_655
Mn6 O12 2.216461 1_545
Mn6 O56 2.257038 1_555
Mn6 O46 2.309774 1_555
Mn6 O11 2.317607 1_545
Mn7 O19 2.129782 1_555
Mn7 O11 2.135448 1_455
Mn7 O33 2.152180 1_555
Mn7 O17 2.177224 1_455
Mn7 O9 2.237246 1_555
Mn7 O26 2.637125 1_555
Mn8 O16 2.129782 1_555
Mn8 O7 2.135448 1_555
Mn8 O28 2.152180 1_555
Mn8 O18 2.177224 1_555
Mn8 O21 2.237246 1_555
Mn8 O27 2.637125 1_555
Mn9 O14 2.160850 1_555
Mn9 O20 2.173411 1_655
Mn9 O3 2.188739 1_555
Mn9 O29 2.232428 1_555
Mn9 O22 2.279455 1_555
Mn9 O17 2.342500 1_555
Mn10 O2 2.160850 1_565
Mn10 O1 2.173411 1_555
Mn10 O58 2.188739 1_565
Mn10 O26 2.232428 1_555
Mn10 O33 2.279455 1_555
Mn10 O0 2.342500 1_565
Mn11 O39 2.129782 1_555
Mn11 O15 2.135448 1_455
Mn11 O40 2.152180 1_555
Mn11 O38 2.177224 1_455
Mn11 O59 2.237246 1_555
Mn11 O42 2.637125 1_555
O0 P11 1.578905 1_555
O1 P13 1.548606 1_555
O2 P13 1.536944 1_445
O3 P10 1.538137 1_655
O4 P14 1.538741 1_655
O5 P15 1.645509 1_555
O5 P5 1.662182 1_555
O6 P11 1.544680 1_565
O7 P7 1.571781 1_555
O8 P6 1.544680 1_455
O9 P10 1.523093 1_555
O10 P6 1.547843 1_555
O11 P13 1.571781 1_555
O12 P10 1.538741 1_655
O13 P14 1.645509 1_554
O13 P4 1.662182 1_555
O14 P2 1.536944 1_555
O15 P8 1.571781 1_555
O16 P8 1.574408 1_555
O17 P6 1.578905 1_555
O18 P1 1.578905 1_555
O19 P2 1.574408 1_555
O20 P2 1.548606 1_555
O21 P15 1.523093 1_555
O22 P6 1.572084 1_555
O23 P12 1.537528 1_555
O24 P3 1.645509 1_556
O24 P12 1.662182 1_555
O25 P15 1.538741 1_555
O26 P4 1.535825 1_555
O27 P12 1.535825 1_555
O28 P9 1.572084 1_545
O29 P5 1.535825 1_555
O30 P5 1.526386 1_555
O31 P9 1.544680 1_445
O32 P1 1.544680 1_555
O33 P11 1.572084 1_565
O34 P4 1.526386 1_555
O35 P7 1.548606 1_555
O36 P9 1.547843 1_555
O37 P0 1.526386 1_555
O38 P9 1.578905 1_555
O39 P7 1.574408 1_565
O40 P1 1.572084 1_555
O41 P7 1.536944 1_565
O42 P0 1.535825 1_555
O43 P3 1.523093 1_555
O44 P12 1.526386 1_555
O45 P4 1.537528 1_555
O46 P5 1.537528 1_555
O47 P3 1.538741 1_555
O48 P2 1.571781 1_555
O49 P11 1.547843 1_555
O50 P8 1.536944 1_455
O51 P0 1.537528 1_555
O52 P14 1.538137 1_655
O53 P8 1.548606 1_555
O54 P1 1.547843 1_555
O55 P15 1.538137 1_555
O56 P13 1.574408 1_545
O57 P10 1.645509 1_555
O57 P0 1.662182 1_555
O58 P3 1.538137 1_555
O59 P14 1.523093 1_555
