# generated using pymatgen
data_NaHf2VF11
_symmetry_space_group_name_H-M   'P 1'
_cell_length_a   5.75785232
_cell_length_b   5.75785232
_cell_length_c   7.81745326
_cell_angle_alpha   69.49821670
_cell_angle_beta   69.49821670
_cell_angle_gamma   73.13075789
_symmetry_Int_Tables_number   1
_chemical_formula_structural   NaHf2VF11
_chemical_formula_sum   'Na1 Hf2 V1 F11'
_cell_volume   223.19596033
_cell_formula_units_Z   1
loop_
 _symmetry_equiv_pos_site_id
 _symmetry_equiv_pos_as_xyz
  1  'x, y, z'
loop_
 _atom_site_type_symbol
 _atom_site_label
 _atom_site_symmetry_multiplicity
 _atom_site_fract_x
 _atom_site_fract_y
 _atom_site_fract_z
 _atom_site_occupancy
  Na  Na0  1  0.00000000  0.00000000  0.00000000  1
  Hf  Hf0  1  0.49631700  0.49631700  0.23422700  1
  Hf  Hf1  1  0.50368300  0.50368300  0.76577300  1
  V  V0  1  0.00000000  0.00000000  0.50000000  1
  F  F0  1  0.19829200  0.77652000  0.30671400  1
  F  F1  1  0.22348000  0.80170800  0.69328600  1
  F  F2  1  0.80170800  0.22348000  0.69328600  1
  F  F3  1  0.77652000  0.19829200  0.30671400  1
  F  F4  1  0.50000000  0.50000000  0.50000000  1
  F  F5  1  0.66758200  0.33241800  0.00000000  1
  F  F6  1  0.33241800  0.66758200  0.00000000  1
  F  F7  1  0.74583000  0.74583000  0.64853100  1
  F  F8  1  0.25417000  0.25417000  0.35146900  1
  F  F9  1  0.73131400  0.73131400  0.11170400  1
  F  F10  1  0.26868600  0.26868600  0.88829600  1
loop_
_geom_bond_atom_site_label_1
_geom_bond_atom_site_label_2
_geom_bond_distance
_geom_bond_site_symmetry_2
F0 Hf0 2.054544 1_555
F0 V0 2.131502 1_565
F0 Na0 2.759014 1_565
F1 Hf1 2.054544 1_555
F1 V0 2.131502 1_565
F1 Na0 2.759014 1_566
F2 Hf1 2.054544 1_555
F2 V0 2.131502 1_655
F2 Na0 2.759014 1_656
F3 Hf0 2.054544 1_555
F3 V0 2.131502 1_655
F3 Na0 2.759014 1_655
F4 Hf1 2.092747 1_555
F4 Hf0 2.092747 1_555
F5 Hf0 2.149718 1_555
F5 Hf1 2.149718 1_554
F5 Na0 2.280508 1_655
F6 Hf0 2.149718 1_555
F6 Hf1 2.149718 1_554
F6 Na0 2.280508 1_565
F7 Hf1 2.016397 1_555
F7 V0 2.119942 1_665
F8 Hf0 2.016397 1_555
F8 V0 2.119942 1_555
F9 Hf0 1.956014 1_555
F9 Na0 2.246276 1_665
F10 Hf1 1.956014 1_555
F10 Na0 2.246276 1_556
