# generated using pymatgen
data_GdCuSeO
_symmetry_space_group_name_H-M   'P 1'
_cell_length_a   3.93606500
_cell_length_b   3.93606500
_cell_length_c   8.78866100
_cell_angle_alpha   90.00000000
_cell_angle_beta   90.00000000
_cell_angle_gamma   90.00000000
_symmetry_Int_Tables_number   1
_chemical_formula_structural   GdCuSeO
_chemical_formula_sum   'Gd2 Cu2 Se2 O2'
_cell_volume   136.15927694
_cell_formula_units_Z   2
loop_
 _symmetry_equiv_pos_site_id
 _symmetry_equiv_pos_as_xyz
  1  'x, y, z'
loop_
 _atom_site_type_symbol
 _atom_site_label
 _atom_site_symmetry_multiplicity
 _atom_site_fract_x
 _atom_site_fract_y
 _atom_site_fract_z
 _atom_site_occupancy
  Gd  Gd0  1  0.00000000  0.50000000  0.86772700  1
  Gd  Gd1  1  0.50000000  0.00000000  0.13227300  1
  Cu  Cu0  1  0.00000000  0.00000000  0.50000000  1
  Cu  Cu1  1  0.50000000  0.50000000  0.50000000  1
  Se  Se0  1  0.00000000  0.50000000  0.32051900  1
  Se  Se1  1  0.50000000  0.00000000  0.67948100  1
  O  O0  1  0.50000000  0.50000000  0.00000000  1
  O  O1  1  0.00000000  0.00000000  0.00000000  1
loop_
_geom_bond_atom_site_label_1
_geom_bond_atom_site_label_2
_geom_bond_distance
_geom_bond_site_symmetry_2
Gd0 O0 2.285731 1_456
Gd0 O1 2.285731 1_566
Gd0 O0 2.285731 1_556
Gd0 O1 2.285731 1_556
Gd0 Se1 3.237815 1_565
Gd0 Se1 3.237815 1_455
Gd0 Se1 3.237815 1_555
Gd0 Se1 3.237815 1_465
Gd1 O1 2.285731 1_655
Gd1 O1 2.285731 1_555
Gd1 O0 2.285731 1_555
Gd1 O0 2.285731 1_545
Gd1 Se0 3.237815 1_645
Gd1 Se0 3.237815 1_545
Gd1 Se0 3.237815 1_555
Gd1 Se0 3.237815 1_655
Cu0 Se1 2.522169 1_455
Cu0 Se1 2.522169 1_555
Cu0 Se0 2.522169 1_555
Cu0 Se0 2.522169 1_545
Cu1 Se1 2.522169 1_565
Cu1 Se1 2.522169 1_555
Cu1 Se0 2.522169 1_555
Cu1 Se0 2.522169 1_655
