# generated using pymatgen
data_CsSn
_symmetry_space_group_name_H-M   'P 1'
_cell_length_a   14.68211776
_cell_length_b   14.68211776
_cell_length_c   14.68211776
_cell_angle_alpha   90.00000000
_cell_angle_beta   90.00000000
_cell_angle_gamma   90.00000000
_symmetry_Int_Tables_number   1
_chemical_formula_structural   CsSn
_chemical_formula_sum   'Cs32 Sn32'
_cell_volume   3164.94457661
_cell_formula_units_Z   32
loop_
 _symmetry_equiv_pos_site_id
 _symmetry_equiv_pos_as_xyz
  1  'x, y, z'
loop_
 _atom_site_type_symbol
 _atom_site_label
 _atom_site_symmetry_multiplicity
 _atom_site_fract_x
 _atom_site_fract_y
 _atom_site_fract_z
 _atom_site_occupancy
  Cs  Cs0  1  0.66383696  0.93437145  0.14144463  1
  Cs  Cs1  1  0.33321004  0.33321004  0.33321004  1
  Cs  Cs2  1  0.33616304  0.93437145  0.85855537  1
  Cs  Cs3  1  0.66678996  0.33321004  0.66678996  1
  Cs  Cs4  1  0.64144463  0.56562855  0.83616304  1
  Cs  Cs5  1  0.83321004  0.83321004  0.83321004  1
  Cs  Cs6  1  0.83321004  0.16678996  0.16678996  1
  Cs  Cs7  1  0.56562855  0.83616304  0.64144463  1
  Cs  Cs8  1  0.16678996  0.83321004  0.16678996  1
  Cs  Cs9  1  0.66383696  0.06562855  0.85855537  1
  Cs  Cs10  1  0.33616304  0.06562855  0.14144463  1
  Cs  Cs11  1  0.16383696  0.64144463  0.43437145  1
  Cs  Cs12  1  0.16678996  0.16678996  0.83321004  1
  Cs  Cs13  1  0.35855537  0.43437145  0.83616304  1
  Cs  Cs14  1  0.33321004  0.66678996  0.66678996  1
  Cs  Cs15  1  0.64144463  0.43437145  0.16383696  1
  Cs  Cs16  1  0.66678996  0.66678996  0.33321004  1
  Cs  Cs17  1  0.14144463  0.33616304  0.06562855  1
  Cs  Cs18  1  0.06562855  0.85855537  0.66383696  1
  Cs  Cs19  1  0.43437145  0.16383696  0.64144463  1
  Cs  Cs20  1  0.43437145  0.83616304  0.35855537  1
  Cs  Cs21  1  0.85855537  0.66383696  0.06562855  1
  Cs  Cs22  1  0.93437145  0.14144463  0.66383696  1
  Cs  Cs23  1  0.56562855  0.16383696  0.35855537  1
  Cs  Cs24  1  0.93437145  0.85855537  0.33616304  1
  Cs  Cs25  1  0.35855537  0.56562855  0.16383696  1
  Cs  Cs26  1  0.83616304  0.64144463  0.56562855  1
  Cs  Cs27  1  0.06562855  0.14144463  0.33616304  1
  Cs  Cs28  1  0.83616304  0.35855537  0.43437145  1
  Cs  Cs29  1  0.14144463  0.66383696  0.93437145  1
  Cs  Cs30  1  0.16383696  0.35855537  0.56562855  1
  Cs  Cs31  1  0.85855537  0.33616304  0.93437145  1
  Sn  Sn0  1  0.42314887  0.68035574  0.93364471  1
  Sn  Sn1  1  0.07102138  0.92897862  0.92897862  1
  Sn  Sn2  1  0.92314887  0.56635529  0.81964426  1
  Sn  Sn3  1  0.57102138  0.42897862  0.42897862  1
  Sn  Sn4  1  0.07685113  0.56635529  0.18035574  1
  Sn  Sn5  1  0.42897862  0.57102138  0.42897862  1
  Sn  Sn6  1  0.31964426  0.06635529  0.42314887  1
  Sn  Sn7  1  0.18035574  0.92314887  0.43364471  1
  Sn  Sn8  1  0.07102138  0.07102138  0.07102138  1
  Sn  Sn9  1  0.18035574  0.07685113  0.56635529  1
  Sn  Sn10  1  0.92314887  0.43364471  0.18035574  1
  Sn  Sn11  1  0.93364471  0.42314887  0.68035574  1
  Sn  Sn12  1  0.07685113  0.43364471  0.81964426  1
  Sn  Sn13  1  0.56635529  0.18035574  0.07685113  1
  Sn  Sn14  1  0.57102138  0.57102138  0.57102138  1
  Sn  Sn15  1  0.81964426  0.07685113  0.43364471  1
  Sn  Sn16  1  0.57685113  0.68035574  0.06635529  1
  Sn  Sn17  1  0.68035574  0.93364471  0.42314887  1
  Sn  Sn18  1  0.68035574  0.06635529  0.57685113  1
  Sn  Sn19  1  0.42314887  0.31964426  0.06635529  1
  Sn  Sn20  1  0.81964426  0.92314887  0.56635529  1
  Sn  Sn21  1  0.92897862  0.07102138  0.92897862  1
  Sn  Sn22  1  0.56635529  0.81964426  0.92314887  1
  Sn  Sn23  1  0.42897862  0.42897862  0.57102138  1
  Sn  Sn24  1  0.57685113  0.31964426  0.93364471  1
  Sn  Sn25  1  0.43364471  0.18035574  0.92314887  1
  Sn  Sn26  1  0.93364471  0.57685113  0.31964426  1
  Sn  Sn27  1  0.06635529  0.42314887  0.31964426  1
  Sn  Sn28  1  0.31964426  0.93364471  0.57685113  1
  Sn  Sn29  1  0.92897862  0.92897862  0.07102138  1
  Sn  Sn30  1  0.06635529  0.57685113  0.68035574  1
  Sn  Sn31  1  0.43364471  0.81964426  0.07685113  1
loop_
_geom_bond_atom_site_label_1
_geom_bond_atom_site_label_2
_geom_bond_distance
_geom_bond_site_symmetry_2
Cs0 Sn22 3.893338 1_554
Cs0 Sn31 3.893478 1_555
Cs0 Sn13 3.998910 1_565
Cs0 Sn29 4.028593 1_555
Cs0 Sn16 4.093361 1_555
Cs0 Sn17 4.143133 1_555
Cs1 Sn5 4.018114 1_555
Cs1 Sn3 4.018114 1_555
Cs1 Sn23 4.018114 1_555
Cs1 Sn6 4.139328 1_555
Cs1 Sn27 4.139328 1_555
Cs1 Sn19 4.139328 1_555
Cs2 Sn31 3.893338 1_556
Cs2 Sn22 3.893478 1_555
Cs2 Sn25 3.998910 1_565
Cs2 Sn1 4.028593 1_555
Cs2 Sn0 4.093361 1_555
Cs2 Sn28 4.143133 1_555
Cs3 Sn3 4.018114 1_555
Cs3 Sn23 4.018114 1_555
Cs3 Sn14 4.018114 1_555
Cs3 Sn18 4.139328 1_555
Cs3 Sn24 4.139328 1_555
Cs3 Sn11 4.139328 1_555
Cs4 Sn0 3.893338 1_555
Cs4 Sn16 3.893478 1_556
Cs4 Sn24 3.998910 1_555
Cs4 Sn14 4.028593 1_555
Cs4 Sn22 4.093361 1_555
Cs4 Sn2 4.143133 1_555
Cs5 Sn1 4.018114 1_655
Cs5 Sn21 4.018114 1_565
Cs5 Sn29 4.018114 1_556
Cs5 Sn20 4.139328 1_555
Cs5 Sn22 4.139328 1_555
Cs5 Sn2 4.139328 1_555
Cs6 Sn8 4.018114 1_655
Cs6 Sn21 4.018114 1_554
Cs6 Sn29 4.018114 1_545
Cs6 Sn15 4.139328 1_555
Cs6 Sn13 4.139328 1_555
Cs6 Sn10 4.139328 1_555
Cs7 Sn17 3.893338 1_555
Cs7 Sn18 3.893478 1_565
Cs7 Sn28 3.998910 1_555
Cs7 Sn14 4.028593 1_555
Cs7 Sn20 4.093361 1_555
Cs7 Sn22 4.143133 1_555
Cs8 Sn8 4.018114 1_565
Cs8 Sn1 4.018114 1_554
Cs8 Sn29 4.018114 1_455
Cs8 Sn31 4.139328 1_555
Cs8 Sn4 4.139328 1_555
Cs8 Sn7 4.139328 1_555
Cs9 Sn13 3.893338 1_556
Cs9 Sn25 3.893478 1_555
Cs9 Sn22 3.998910 1_545
Cs9 Sn21 4.028593 1_555
Cs9 Sn24 4.093361 1_555
Cs9 Sn18 4.143133 1_555
Cs10 Sn25 3.893338 1_554
Cs10 Sn13 3.893478 1_555
Cs10 Sn31 3.998910 1_545
Cs10 Sn8 4.028593 1_555
Cs10 Sn19 4.093361 1_555
Cs10 Sn6 4.143133 1_555
Cs11 Sn27 3.893338 1_555
Cs11 Sn26 3.893478 1_455
Cs11 Sn30 3.998910 1_555
Cs11 Sn5 4.028593 1_555
Cs11 Sn4 4.093361 1_555
Cs11 Sn7 4.143133 1_555
Cs12 Sn8 4.018114 1_556
Cs12 Sn21 4.018114 1_455
Cs12 Sn1 4.018114 1_545
Cs12 Sn9 4.139328 1_555
Cs12 Sn12 4.139328 1_555
Cs12 Sn25 4.139328 1_555
Cs13 Sn24 3.893338 1_555
Cs13 Sn19 3.893478 1_556
Cs13 Sn0 3.998910 1_555
Cs13 Sn23 4.028593 1_555
Cs13 Sn25 4.093361 1_555
Cs13 Sn12 4.143133 1_555
Cs14 Sn5 4.018114 1_555
Cs14 Sn23 4.018114 1_555
Cs14 Sn14 4.018114 1_555
Cs14 Sn30 4.139328 1_555
Cs14 Sn28 4.139328 1_555
Cs14 Sn0 4.139328 1_555
Cs15 Sn19 3.893338 1_555
Cs15 Sn24 3.893478 1_554
Cs15 Sn16 3.998910 1_555
Cs15 Sn3 4.028593 1_555
Cs15 Sn13 4.093361 1_555
Cs15 Sn10 4.143133 1_555
Cs16 Sn5 4.018114 1_555
Cs16 Sn3 4.018114 1_555
Cs16 Sn14 4.018114 1_555
Cs16 Sn16 4.139328 1_555
Cs16 Sn17 4.139328 1_555
Cs16 Sn26 4.139328 1_555
Cs17 Sn10 3.893338 1_455
Cs17 Sn4 3.893478 1_555
Cs17 Sn12 3.998910 1_554
Cs17 Sn8 4.028593 1_555
Cs17 Sn27 4.093361 1_555
Cs17 Sn19 4.143133 1_555
Cs18 Sn9 3.893338 1_565
Cs18 Sn7 3.893478 1_555
Cs18 Sn20 3.998910 1_455
Cs18 Sn1 4.028593 1_555
Cs18 Sn28 4.093361 1_555
Cs18 Sn30 4.143133 1_555
Cs19 Sn6 3.893338 1_555
Cs19 Sn28 3.893478 1_545
Cs19 Sn18 3.998910 1_555
Cs19 Sn23 4.028593 1_555
Cs19 Sn9 4.093361 1_555
Cs19 Sn25 4.143133 1_555
Cs20 Sn28 3.893338 1_555
Cs20 Sn6 3.893478 1_565
Cs20 Sn17 3.998910 1_555
Cs20 Sn5 4.028593 1_555
Cs20 Sn7 4.093361 1_555
Cs20 Sn31 4.143133 1_555
Cs21 Sn4 3.893338 1_655
Cs21 Sn10 3.893478 1_555
Cs21 Sn2 3.998910 1_554
Cs21 Sn29 4.028593 1_555
Cs21 Sn26 4.093361 1_555
Cs21 Sn16 4.143133 1_555
Cs22 Sn20 3.893338 1_545
Cs22 Sn15 3.893478 1_555
Cs22 Sn9 3.998910 1_655
Cs22 Sn21 4.028593 1_555
Cs22 Sn18 4.093361 1_555
Cs22 Sn11 4.143133 1_555
Cs23 Sn18 3.893338 1_555
Cs23 Sn17 3.893478 1_545
Cs23 Sn6 3.998910 1_555
Cs23 Sn3 4.028593 1_555
Cs23 Sn15 4.093361 1_555
Cs23 Sn13 4.143133 1_555
Cs24 Sn15 3.893338 1_565
Cs24 Sn20 3.893478 1_555
Cs24 Sn7 3.998910 1_655
Cs24 Sn29 4.028593 1_555
Cs24 Sn17 4.093361 1_555
Cs24 Sn26 4.143133 1_555
Cs25 Sn16 3.893338 1_555
Cs25 Sn0 3.893478 1_554
Cs25 Sn19 3.998910 1_555
Cs25 Sn5 4.028593 1_555
Cs25 Sn31 4.093361 1_555
Cs25 Sn4 4.143133 1_555
Cs26 Sn11 3.893338 1_555
Cs26 Sn30 3.893478 1_655
Cs26 Sn26 3.998910 1_555
Cs26 Sn14 4.028593 1_555
Cs26 Sn2 4.093361 1_555
Cs26 Sn20 4.143133 1_555
Cs27 Sn7 3.893338 1_545
Cs27 Sn9 3.893478 1_555
Cs27 Sn15 3.998910 1_455
Cs27 Sn8 4.028593 1_555
Cs27 Sn6 4.093361 1_555
Cs27 Sn27 4.143133 1_555
Cs28 Sn26 3.893338 1_555
Cs28 Sn27 3.893478 1_655
Cs28 Sn11 3.998910 1_555
Cs28 Sn3 4.028593 1_555
Cs28 Sn10 4.093361 1_555
Cs28 Sn15 4.143133 1_555
Cs29 Sn2 3.893338 1_455
Cs29 Sn12 3.893478 1_555
Cs29 Sn4 3.998910 1_556
Cs29 Sn1 4.028593 1_555
Cs29 Sn30 4.093361 1_555
Cs29 Sn0 4.143133 1_555
Cs30 Sn30 3.893338 1_555
Cs30 Sn11 3.893478 1_455
Cs30 Sn27 3.998910 1_555
Cs30 Sn23 4.028593 1_555
Cs30 Sn12 4.093361 1_555
Cs30 Sn9 4.143133 1_555
Cs31 Sn12 3.893338 1_655
Cs31 Sn2 3.893478 1_555
Cs31 Sn10 3.998910 1_556
Cs31 Sn21 4.028593 1_555
Cs31 Sn11 4.093361 1_555
Cs31 Sn24 4.143133 1_555
Sn0 Sn22 2.937140 1_555
Sn0 Sn31 2.937140 1_556
Sn0 Sn16 2.981464 1_556
Sn1 Sn8 2.949326 1_566
Sn1 Sn29 2.949326 1_456
Sn1 Sn21 2.949326 1_465
Sn2 Sn30 2.937140 1_655
Sn3 Sn5 2.949326 1_555
Sn6 Sn9 2.937140 1_555
Sn6 Sn7 2.937140 1_545
Sn7 Sn9 2.981464 1_565
Sn10 Sn27 2.937140 1_655
Sn10 Sn26 2.937140 1_555
Sn10 Sn4 2.981464 1_655
Sn11 Sn2 2.937140 1_555
Sn11 Sn12 2.937140 1_655
Sn11 Sn30 2.981464 1_655
Sn12 Sn30 2.937140 1_555
Sn12 Sn2 2.981464 1_455
Sn13 Sn19 2.937140 1_555
Sn13 Sn24 2.937140 1_554
Sn13 Sn25 2.981464 1_554
Sn14 Sn5 2.949326 1_555
Sn14 Sn3 2.949326 1_555
Sn14 Sn23 2.949326 1_555
Sn15 Sn17 2.937140 1_545
Sn15 Sn18 2.937140 1_555
Sn15 Sn20 2.981464 1_545
Sn16 Sn22 2.937140 1_554
Sn16 Sn31 2.937140 1_555
Sn17 Sn20 2.937140 1_555
Sn17 Sn18 2.981464 1_565
Sn18 Sn20 2.937140 1_545
Sn19 Sn25 2.937140 1_554
Sn19 Sn24 2.981464 1_554
Sn21 Sn8 2.949326 1_656
Sn21 Sn29 2.949326 1_546
Sn22 Sn31 2.981464 1_556
Sn23 Sn5 2.949326 1_555
Sn23 Sn3 2.949326 1_555
Sn24 Sn25 2.937140 1_555
Sn26 Sn4 2.937140 1_655
Sn26 Sn27 2.981464 1_655
Sn27 Sn4 2.937140 1_555
Sn28 Sn7 2.937140 1_555
Sn28 Sn9 2.937140 1_565
Sn28 Sn6 2.981464 1_565
Sn29 Sn8 2.949326 1_665
