# generated using pymatgen
data_CaBi2(CO4)2
_symmetry_space_group_name_H-M   'P 1'
_cell_length_a   11.46763601
_cell_length_b   11.46763601
_cell_length_c   11.46763601
_cell_angle_alpha   163.04630864
_cell_angle_beta   156.88122850
_cell_angle_gamma   28.80868340
_symmetry_Int_Tables_number   1
_chemical_formula_structural   CaBi2(CO4)2
_chemical_formula_sum   'Ca1 Bi2 C2 O8'
_cell_volume   172.58308271
_cell_formula_units_Z   1
loop_
 _symmetry_equiv_pos_site_id
 _symmetry_equiv_pos_as_xyz
  1  'x, y, z'
loop_
 _atom_site_type_symbol
 _atom_site_label
 _atom_site_symmetry_multiplicity
 _atom_site_fract_x
 _atom_site_fract_y
 _atom_site_fract_z
 _atom_site_occupancy
  Ca  Ca0  1  0.50000000  0.50000000  0.00000000  1
  Bi  Bi0  1  0.30920700  0.30920700  0.00000000  1
  Bi  Bi1  1  0.69079300  0.69079300  0.00000000  1
  C  C0  1  0.90853000  0.90853000  0.00000000  1
  C  C1  1  0.09147000  0.09147000  0.00000000  1
  O  O0  1  0.75379000  0.25379000  0.50000000  1
  O  O1  1  0.18002700  0.93621000  0.24381700  1
  O  O2  1  0.15110100  0.15110100  0.00000000  1
  O  O3  1  0.30760800  0.06379000  0.24381700  1
  O  O4  1  0.69239200  0.93621000  0.75618300  1
  O  O5  1  0.81997300  0.06379000  0.75618300  1
  O  O6  1  0.24621000  0.74621000  0.50000000  1
  O  O7  1  0.84889900  0.84889900  0.00000000  1
loop_
_geom_bond_atom_site_label_1
_geom_bond_atom_site_label_2
_geom_bond_distance
_geom_bond_site_symmetry_2
Ca0 O1 2.500368 1_555
Ca0 O1 2.500368 1_544
Ca0 O5 2.500368 1_565
Ca0 O5 2.500368 1_554
Ca0 O4 2.500372 1_544
Ca0 O3 2.500372 1_565
Ca0 O4 2.500374 1_555
Ca0 O3 2.500374 1_554
Bi0 O6 2.194540 1_544
Bi0 O6 2.194540 1_555
Bi0 O0 2.606903 1_454
Bi0 O0 2.606903 1_555
Bi1 O0 2.194540 1_565
Bi1 O0 2.194540 1_554
Bi1 O6 2.606903 1_554
Bi1 O6 2.606903 1_655
C0 O4 1.278166 1_554
C0 O1 1.278169 1_655
C0 O7 1.324660 1_555
C1 O3 1.278166 1_555
C1 O5 1.278169 1_454
C1 O2 1.324660 1_555
