# generated using pymatgen
data_SeS2(NCl)2
_symmetry_space_group_name_H-M   'P 1'
_cell_length_a   9.65667600
_cell_length_b   10.75755300
_cell_length_c   14.17699951
_cell_angle_alpha   75.47942411
_cell_angle_beta   90.00000000
_cell_angle_gamma   90.00000000
_symmetry_Int_Tables_number   1
_chemical_formula_structural   SeS2(NCl)2
_chemical_formula_sum   'Se8 S16 N16 Cl16'
_cell_volume   1425.69525994
_cell_formula_units_Z   8
loop_
 _symmetry_equiv_pos_site_id
 _symmetry_equiv_pos_as_xyz
  1  'x, y, z'
loop_
 _atom_site_type_symbol
 _atom_site_label
 _atom_site_symmetry_multiplicity
 _atom_site_fract_x
 _atom_site_fract_y
 _atom_site_fract_z
 _atom_site_occupancy
  Se  Se0  1  0.81078100  0.35534900  0.54945700  1
  Se  Se1  1  0.68921900  0.35534900  0.04945700  1
  Se  Se2  1  0.18921900  0.64465100  0.45054300  1
  Se  Se3  1  0.78083900  0.95637400  0.49921400  1
  Se  Se4  1  0.71916100  0.95637400  0.99921400  1
  Se  Se5  1  0.28083900  0.04362600  0.00078600  1
  Se  Se6  1  0.21916100  0.04362600  0.50078600  1
  Se  Se7  1  0.31078100  0.64465100  0.95054300  1
  S  S0  1  0.36846700  0.18548500  0.32772000  1
  S  S1  1  0.86846700  0.81451500  0.17228000  1
  S  S2  1  0.92759900  0.44496000  0.14117200  1
  S  S3  1  0.71854500  0.21520100  0.68970600  1
  S  S4  1  0.63075400  0.75680200  0.08172700  1
  S  S5  1  0.28145500  0.78479900  0.31029400  1
  S  S6  1  0.36924600  0.24319800  0.91827300  1
  S  S7  1  0.57240100  0.44496000  0.64117200  1
  S  S8  1  0.86924600  0.75680200  0.58172700  1
  S  S9  1  0.78145500  0.21520100  0.18970600  1
  S  S10  1  0.07240100  0.55504000  0.85882800  1
  S  S11  1  0.63153300  0.81451500  0.67228000  1
  S  S12  1  0.21854500  0.78479900  0.81029400  1
  S  S13  1  0.42759900  0.55504000  0.35882800  1
  S  S14  1  0.13153300  0.18548500  0.82772000  1
  S  S15  1  0.13075400  0.24319800  0.41827300  1
  N  N0  1  0.14584700  0.05751100  0.91117300  1
  N  N1  1  0.24708000  0.28040300  0.33457800  1
  N  N2  1  0.68273400  0.47540500  0.55567300  1
  N  N3  1  0.85415300  0.94248900  0.08882700  1
  N  N4  1  0.18273400  0.52459500  0.94432700  1
  N  N5  1  0.25292000  0.28040300  0.83457800  1
  N  N6  1  0.59643200  0.30742200  0.70910100  1
  N  N7  1  0.35415300  0.05751100  0.41117300  1
  N  N8  1  0.81726600  0.47540500  0.05567300  1
  N  N9  1  0.64584700  0.94248900  0.58882700  1
  N  N10  1  0.90356800  0.30742200  0.20910100  1
  N  N11  1  0.31726600  0.52459500  0.44432700  1
  N  N12  1  0.09643200  0.69257800  0.79089900  1
  N  N13  1  0.40356800  0.69257800  0.29089900  1
  N  N14  1  0.74708000  0.71959700  0.16542200  1
  N  N15  1  0.75292000  0.71959700  0.66542200  1
  Cl  Cl0  1  0.04134400  0.90885700  0.40228500  1
  Cl  Cl1  1  0.54134400  0.09114300  0.09771500  1
  Cl  Cl2  1  0.95865600  0.09114300  0.59771500  1
  Cl  Cl3  1  0.83941200  0.89191100  0.87728500  1
  Cl  Cl4  1  0.17643000  0.73169500  0.06832200  1
  Cl  Cl5  1  0.45865600  0.90885700  0.90228500  1
  Cl  Cl6  1  0.16058800  0.10808900  0.12271500  1
  Cl  Cl7  1  0.67643000  0.26830500  0.43167800  1
  Cl  Cl8  1  0.00731100  0.55493300  0.36109200  1
  Cl  Cl9  1  0.33941200  0.10808900  0.62271500  1
  Cl  Cl10  1  0.66058800  0.89191100  0.37728500  1
  Cl  Cl11  1  0.49268900  0.55493300  0.86109200  1
  Cl  Cl12  1  0.50731100  0.44506700  0.13890800  1
  Cl  Cl13  1  0.99268900  0.44506700  0.63890800  1
  Cl  Cl14  1  0.32357000  0.73169500  0.56832200  1
  Cl  Cl15  1  0.82357000  0.26830500  0.93167800  1
loop_
_geom_bond_atom_site_label_1
_geom_bond_atom_site_label_2
_geom_bond_distance
_geom_bond_site_symmetry_2
S3 Se0 2.348727 1_555
S5 Se2 2.348727 1_555
S9 Se1 2.348727 1_555
S12 Se7 2.348727 1_555
N0 S14 1.580307 1_555
N0 Se5 1.800135 1_556
N1 S0 1.573497 1_555
N1 S15 1.609903 1_555
N2 S7 1.585122 1_555
N2 Se0 1.806042 1_555
N3 S1 1.580307 1_555
N3 Se4 1.800135 1_554
N4 S10 1.585122 1_555
N4 Se7 1.806042 1_555
N5 S14 1.573497 1_555
N5 S6 1.609903 1_555
N6 S7 1.567132 1_555
N6 S3 1.608455 1_555
N7 S0 1.580307 1_555
N7 Se6 1.800135 1_555
N8 S2 1.585122 1_555
N8 Se1 1.806042 1_555
N9 S11 1.580307 1_555
N9 Se3 1.800135 1_555
N10 S2 1.567132 1_555
N10 S9 1.608455 1_555
N11 S13 1.585122 1_555
N11 Se2 1.806042 1_555
N12 S10 1.567132 1_555
N12 S12 1.608455 1_555
N13 S13 1.567132 1_555
N13 S5 1.608455 1_555
N14 S1 1.573497 1_555
N14 S4 1.609903 1_555
N15 S11 1.573497 1_555
N15 S8 1.609903 1_555
Cl0 Se6 2.831196 1_565
Cl1 Se4 2.831196 1_544
Cl2 Se3 2.831196 1_545
Cl3 Se4 2.327757 1_555
Cl4 Se7 2.476313 1_554
Cl5 Se5 2.831196 1_566
Cl6 Se5 2.327757 1_555
Cl7 Se0 2.476313 1_555
Cl8 Se2 2.497838 1_555
Cl9 Se6 2.327757 1_555
Cl10 Se3 2.327757 1_555
Cl11 Se7 2.497838 1_555
Cl12 Se1 2.497838 1_555
Cl13 Se0 2.497838 1_555
Cl14 Se2 2.476313 1_555
Cl15 Se1 2.476313 1_556
