# generated using pymatgen
data_La(AlGa)2
_symmetry_space_group_name_H-M   'P 1'
_cell_length_a   4.24890562
_cell_length_b   4.24890592
_cell_length_c   6.35740707
_cell_angle_alpha   109.52204315
_cell_angle_beta   109.52204209
_cell_angle_gamma   90.00002262
_symmetry_Int_Tables_number   1
_chemical_formula_structural   La(AlGa)2
_chemical_formula_sum   'La1 Al2 Ga2'
_cell_volume   101.14632011
_cell_formula_units_Z   1
loop_
 _symmetry_equiv_pos_site_id
 _symmetry_equiv_pos_as_xyz
  1  'x, y, z'
loop_
 _atom_site_type_symbol
 _atom_site_label
 _atom_site_symmetry_multiplicity
 _atom_site_fract_x
 _atom_site_fract_y
 _atom_site_fract_z
 _atom_site_occupancy
  La  La0  1  -0.00000000  -0.00000000  -0.00000000  1
  Al  Al0  1  0.25000000  0.75000000  0.50000000  1
  Al  Al1  1  0.75000000  0.25000000  0.50000000  1
  Ga  Ga0  1  0.61391448  0.61391448  0.22782896  1
  Ga  Ga1  1  0.38608552  0.38608552  0.77217104  1
loop_
_geom_bond_atom_site_label_1
_geom_bond_atom_site_label_2
_geom_bond_distance
_geom_bond_site_symmetry_2
Al0 Ga0 2.615068 1_555
Al0 Ga1 2.615068 1_555
Al0 Ga0 2.615068 1_455
Al0 Ga1 2.615068 1_565
Al0 La0 3.515794 1_566
Al0 La0 3.515794 1_565
Al0 La0 3.515794 1_666
Al0 La0 3.515794 1_555
Al1 Ga1 2.615068 1_555
Al1 Ga0 2.615068 1_555
Al1 Ga1 2.615068 1_655
Al1 Ga0 2.615068 1_545
Al1 La0 3.515794 1_655
Al1 La0 3.515794 1_656
Al1 La0 3.515794 1_555
Al1 La0 3.515794 1_666
Ga0 Ga1 2.552906 1_554
Ga0 La0 3.264342 1_665
Ga0 La0 3.264342 1_555
Ga0 La0 3.264343 1_565
Ga0 La0 3.264343 1_655
Ga1 La0 3.264342 1_556
Ga1 La0 3.264342 1_666
Ga1 La0 3.264343 1_656
Ga1 La0 3.264343 1_566
