# generated using pymatgen
data_In6S7
_symmetry_space_group_name_H-M   'P 1'
_cell_length_a   3.90708006
_cell_length_b   9.16065408
_cell_length_c   17.40098754
_cell_angle_alpha   78.06343406
_cell_angle_beta   90.00000000
_cell_angle_gamma   90.00000000
_symmetry_Int_Tables_number   1
_chemical_formula_structural   In6S7
_chemical_formula_sum   'In12 S14'
_cell_volume   609.33904563
_cell_formula_units_Z   2
loop_
 _symmetry_equiv_pos_site_id
 _symmetry_equiv_pos_as_xyz
  1  'x, y, z'
loop_
 _atom_site_type_symbol
 _atom_site_label
 _atom_site_symmetry_multiplicity
 _atom_site_fract_x
 _atom_site_fract_y
 _atom_site_fract_z
 _atom_site_occupancy
  In  In0  1  0.25000000  0.18375029  0.18830359  1
  In  In1  1  0.75000000  0.06819311  0.87753320  1
  In  In2  1  0.25000000  0.97595995  0.60338740  1
  In  In3  1  0.25000000  0.67269724  0.46851210  1
  In  In4  1  0.75000000  0.02404005  0.39661260  1
  In  In5  1  0.75000000  0.64510904  0.04636347  1
  In  In6  1  0.75000000  0.81624971  0.81169641  1
  In  In7  1  0.25000000  0.93180689  0.12246680  1
  In  In8  1  0.75000000  0.32730276  0.53148790  1
  In  In9  1  0.25000000  0.53190514  0.27599106  1
  In  In10  1  0.25000000  0.35489096  0.95363653  1
  In  In11  1  0.75000000  0.46809486  0.72400894  1
  S  S0  1  0.75000000  0.75363239  0.17466328  1
  S  S1  1  0.75000000  0.53616112  0.41061752  1
  S  S2  1  0.75000000  0.55744389  0.91017315  1
  S  S3  1  0.25000000  0.44255611  0.08982685  1
  S  S4  1  0.75000000  0.23950101  0.27200231  1
  S  S5  1  0.25000000  0.76049899  0.72799769  1
  S  S6  1  0.75000000  0.16587529  0.00385718  1
  S  S7  1  0.75000000  0.11619210  0.65164822  1
  S  S8  1  0.25000000  0.24636761  0.82533672  1
  S  S9  1  0.25000000  0.16862972  0.46775732  1
  S  S10  1  0.25000000  0.88380790  0.34835178  1
  S  S11  1  0.25000000  0.46383888  0.58938248  1
  S  S12  1  0.75000000  0.83137028  0.53224268  1
  S  S13  1  0.25000000  0.83412471  0.99614282  1
loop_
_geom_bond_atom_site_label_1
_geom_bond_atom_site_label_2
_geom_bond_distance
_geom_bond_site_symmetry_2
In0 S4 2.550697 1_555
In0 S4 2.550697 1_455
In0 S3 2.622346 1_555
In1 S6 2.538957 1_556
In1 S8 2.586909 1_555
In1 S8 2.586909 1_655
In2 S7 2.572559 1_565
In2 S7 2.572559 1_465
In2 S5 2.612868 1_555
In2 S9 2.638582 1_565
In2 S12 2.789557 1_455
In2 S12 2.789557 1_555
In3 S11 2.533722 1_555
In3 S10 2.537565 1_555
In3 S1 2.629990 1_455
In3 S1 2.629990 1_555
In3 S12 2.797453 1_455
In3 S12 2.797453 1_555
In4 S10 2.572559 1_645
In4 S10 2.572559 1_545
In4 S4 2.612868 1_555
In4 S12 2.638582 1_545
In4 S9 2.789557 1_555
In4 S9 2.789557 1_655
In5 S0 2.625009 1_555
In5 S13 2.636701 1_554
In5 S13 2.636701 1_654
In5 S2 2.654872 1_554
In5 S3 2.692724 1_555
In5 S3 2.692724 1_655
In6 S5 2.550697 1_555
In6 S5 2.550697 1_655
In6 S2 2.622346 1_555
In7 S13 2.538957 1_554
In7 S0 2.586909 1_555
In7 S0 2.586909 1_455
In8 S1 2.533722 1_555
In8 S7 2.537565 1_555
In8 S11 2.629990 1_555
In8 S11 2.629990 1_655
In8 S9 2.797453 1_555
In8 S9 2.797453 1_655
In9 S1 3.056722 1_555
In9 S1 3.056722 1_455
In9 S0 3.093443 1_555
In9 S0 3.093443 1_455
In10 S8 2.625009 1_555
In10 S6 2.636701 1_556
In10 S6 2.636701 1_456
In10 S3 2.654872 1_556
In10 S2 2.692724 1_455
In10 S2 2.692724 1_555
In11 S11 3.056722 1_655
In11 S11 3.056722 1_555
In11 S8 3.093443 1_555
In11 S8 3.093443 1_655
