# generated using pymatgen
data_Na2Te3Mo3O16
_symmetry_space_group_name_H-M   'P 1'
_cell_length_a   7.79623332
_cell_length_b   7.79623332
_cell_length_c   7.49086371
_cell_angle_alpha   65.41398013
_cell_angle_beta   65.41398013
_cell_angle_gamma   95.40378731
_symmetry_Int_Tables_number   1
_chemical_formula_structural   Na2Te3Mo3O16
_chemical_formula_sum   'Na2 Te3 Mo3 O16'
_cell_volume   356.27862031
_cell_formula_units_Z   1
loop_
 _symmetry_equiv_pos_site_id
 _symmetry_equiv_pos_as_xyz
  1  'x, y, z'
loop_
 _atom_site_type_symbol
 _atom_site_label
 _atom_site_symmetry_multiplicity
 _atom_site_fract_x
 _atom_site_fract_y
 _atom_site_fract_z
 _atom_site_occupancy
  Na  Na0  1  0.93278900  0.06721100  0.50000000  1
  Na  Na1  1  0.51709000  0.48291000  0.00000000  1
  Te  Te0  1  0.01342000  0.98658000  0.00000000  1
  Te  Te1  1  0.95035700  0.60810500  0.50132000  1
  Te  Te2  1  0.39189500  0.04964300  0.49868000  1
  Mo  Mo0  1  0.03220700  0.51399100  0.97382000  1
  Mo  Mo1  1  0.48600900  0.96779300  0.02618000  1
  Mo  Mo2  1  0.41940000  0.58060000  0.50000000  1
  O  O0  1  0.59081700  0.84527000  0.23618700  1
  O  O1  1  0.55805200  0.83082600  0.88739800  1
  O  O2  1  0.15473000  0.40918300  0.76381300  1
  O  O3  1  0.16917400  0.44194800  0.11260200  1
  O  O4  1  0.69090400  0.18748000  0.83474500  1
  O  O5  1  0.29606800  0.76071500  0.66117100  1
  O  O6  1  0.56727600  0.53967500  0.62984700  1
  O  O7  1  0.23928500  0.70393200  0.33882900  1
  O  O8  1  0.28907300  0.03904200  0.92938200  1
  O  O9  1  0.81252000  0.30909600  0.16525500  1
  O  O10  1  0.96095800  0.71092700  0.07061800  1
  O  O11  1  0.93449100  0.86943300  0.33875100  1
  O  O12  1  0.13056700  0.06550900  0.66124900  1
  O  O13  1  0.46032500  0.43272400  0.37015300  1
  O  O14  1  0.89338400  0.63415200  0.75676200  1
  O  O15  1  0.36584800  0.10661600  0.24323800  1
loop_
_geom_bond_atom_site_label_1
_geom_bond_atom_site_label_2
_geom_bond_distance
_geom_bond_site_symmetry_2
Na0 O11 2.318843 1_545
Na0 O12 2.318843 1_655
Na0 O1 2.798910 1_545
Na0 O3 2.798910 1_655
Na1 O1 2.424800 1_554
Na1 O3 2.424800 1_555
Na1 O13 2.465912 1_555
Na1 O6 2.465912 1_554
Na1 O14 2.535638 1_554
Na1 O15 2.535638 1_555
Mo0 O9 1.753957 1_456
Mo0 O3 1.757075 1_556
Mo0 O10 1.985829 1_456
Mo0 O2 2.005262 1_555
Mo0 O5 2.216714 1_555
Mo0 O14 2.253997 1_455
Mo1 O4 1.753957 1_564
Mo1 O1 1.757075 1_554
Mo1 O8 1.985829 1_564
Mo1 O0 2.005262 1_555
Mo1 O7 2.216714 1_555
Mo1 O15 2.253997 1_565
Mo2 O6 1.766678 1_555
Mo2 O13 1.766678 1_555
Mo2 O2 1.959309 1_555
Mo2 O0 1.959309 1_555
Mo2 O5 2.247889 1_555
Mo2 O7 2.247889 1_555
O5 Te2 1.938696 1_565
O6 Te1 2.647843 1_555
O7 Te1 1.938696 1_455
O8 Te0 1.942676 1_546
O10 Te0 1.942676 1_655
O11 Te1 1.938414 1_555
O11 Te0 2.078034 1_655
O12 Te2 1.938414 1_555
O12 Te0 2.078034 1_546
O13 Te2 2.647843 1_555
O14 Te1 1.879635 1_555
O15 Te2 1.879635 1_555
