# generated using pymatgen
data_BaFe2Se3
_symmetry_space_group_name_H-M   'P 1'
_cell_length_a   5.42469000
_cell_length_b   9.19887200
_cell_length_c   12.16043300
_cell_angle_alpha   90.00000000
_cell_angle_beta   90.00000000
_cell_angle_gamma   90.00000000
_symmetry_Int_Tables_number   1
_chemical_formula_structural   BaFe2Se3
_chemical_formula_sum   'Ba4 Fe8 Se12'
_cell_volume   606.81811917
_cell_formula_units_Z   4
loop_
 _symmetry_equiv_pos_site_id
 _symmetry_equiv_pos_as_xyz
  1  'x, y, z'
loop_
 _atom_site_type_symbol
 _atom_site_label
 _atom_site_symmetry_multiplicity
 _atom_site_fract_x
 _atom_site_fract_y
 _atom_site_fract_z
 _atom_site_occupancy
  Ba  Ba0  1  0.25000000  0.52054000  0.18546500  1
  Ba  Ba1  1  0.75000000  0.47946000  0.81453500  1
  Ba  Ba2  1  0.75000000  0.02054000  0.31453500  1
  Ba  Ba3  1  0.25000000  0.97946000  0.68546500  1
  Fe  Fe0  1  0.99991700  0.36099300  0.49454300  1
  Fe  Fe1  1  0.49991700  0.63900700  0.50545700  1
  Fe  Fe2  1  0.00008300  0.86099300  0.00545700  1
  Fe  Fe3  1  0.50008300  0.13900700  0.99454300  1
  Fe  Fe4  1  0.00008300  0.63900700  0.50545700  1
  Fe  Fe5  1  0.50008300  0.36099300  0.49454300  1
  Fe  Fe6  1  0.99991700  0.13900700  0.99454300  1
  Fe  Fe7  1  0.49991700  0.86099300  0.00545700  1
  Se  Se0  1  0.25000000  0.23122100  0.36137600  1
  Se  Se1  1  0.75000000  0.76877900  0.63862400  1
  Se  Se2  1  0.75000000  0.73122100  0.13862400  1
  Se  Se3  1  0.25000000  0.26877900  0.86137600  1
  Se  Se4  1  0.25000000  0.49056700  0.63245700  1
  Se  Se5  1  0.75000000  0.50943300  0.36754300  1
  Se  Se6  1  0.75000000  0.99056700  0.86754300  1
  Se  Se7  1  0.25000000  0.00943300  0.13245700  1
  Se  Se8  1  0.25000000  0.81052400  0.40243800  1
  Se  Se9  1  0.75000000  0.18947600  0.59756200  1
  Se  Se10  1  0.75000000  0.31052400  0.09756200  1
  Se  Se11  1  0.25000000  0.68947600  0.90243800  1
loop_
_geom_bond_atom_site_label_1
_geom_bond_atom_site_label_2
_geom_bond_distance
_geom_bond_site_symmetry_2
Ba0 Se2 3.381896 1_555
Ba0 Se2 3.381896 1_455
Ba0 Se0 3.414539 1_555
Ba0 Se10 3.497388 1_455
Ba0 Se10 3.497388 1_555
Ba0 Se5 3.502814 1_555
Ba0 Se5 3.502814 1_455
Ba0 Se8 3.751973 1_555
Ba0 Se11 3.776307 1_554
Ba1 Se3 3.381896 1_555
Ba1 Se3 3.381896 1_655
Ba1 Se1 3.414539 1_555
Ba1 Se11 3.497388 1_555
Ba1 Se11 3.497388 1_655
Ba1 Se4 3.502814 1_655
Ba1 Se4 3.502814 1_555
Ba1 Se9 3.751973 1_555
Ba1 Se10 3.776307 1_556
Ba2 Se0 3.381896 1_655
Ba2 Se0 3.381896 1_555
Ba2 Se2 3.414539 1_545
Ba2 Se8 3.497388 1_545
Ba2 Se8 3.497388 1_645
Ba2 Se7 3.502814 1_555
Ba2 Se7 3.502814 1_655
Ba2 Se10 3.751973 1_555
Ba2 Se9 3.776307 1_555
Ba3 Se1 3.381896 1_555
Ba3 Se1 3.381896 1_455
Ba3 Se3 3.414539 1_565
Ba3 Se9 3.497388 1_465
Ba3 Se9 3.497388 1_565
Ba3 Se6 3.502814 1_555
Ba3 Se6 3.502814 1_455
Ba3 Se11 3.751973 1_555
Ba3 Se8 3.776307 1_555
Fe0 Se0 2.426486 1_655
Fe0 Se9 2.428315 1_555
Fe0 Se4 2.464504 1_655
Fe0 Se5 2.467309 1_555
Fe1 Se1 2.426486 1_555
Fe1 Se8 2.428315 1_555
Fe1 Se5 2.464504 1_555
Fe1 Se4 2.467309 1_555
Fe2 Se2 2.426486 1_455
Fe2 Se11 2.428315 1_554
Fe2 Se6 2.464504 1_454
Fe2 Se7 2.467309 1_565
Fe3 Se3 2.426486 1_555
Fe3 Se10 2.428315 1_556
Fe3 Se7 2.464504 1_556
Fe3 Se6 2.467309 1_545
Fe4 Se1 2.426486 1_455
Fe4 Se8 2.428315 1_555
Fe4 Se5 2.464504 1_455
Fe4 Se4 2.467309 1_555
Fe5 Se0 2.426486 1_555
Fe5 Se9 2.428315 1_555
Fe5 Se4 2.464504 1_555
Fe5 Se5 2.467309 1_555
Fe6 Se3 2.426486 1_655
Fe6 Se10 2.428315 1_556
Fe6 Se7 2.464504 1_656
Fe6 Se6 2.467309 1_545
Fe7 Se2 2.426486 1_555
Fe7 Se11 2.428315 1_554
Fe7 Se6 2.464504 1_554
Fe7 Se7 2.467309 1_565
