# generated using pymatgen
data_Sb(PO3)4
_symmetry_space_group_name_H-M   'P 1'
_cell_length_a   8.47060100
_cell_length_b   7.15356800
_cell_length_c   7.54064314
_cell_angle_alpha   88.50082869
_cell_angle_beta   90.00000000
_cell_angle_gamma   90.00000000
_symmetry_Int_Tables_number   1
_chemical_formula_structural   Sb(PO3)4
_chemical_formula_sum   'Sb2 P8 O24'
_cell_volume   456.76901957
_cell_formula_units_Z   2
loop_
 _symmetry_equiv_pos_site_id
 _symmetry_equiv_pos_as_xyz
  1  'x, y, z'
loop_
 _atom_site_type_symbol
 _atom_site_label
 _atom_site_symmetry_multiplicity
 _atom_site_fract_x
 _atom_site_fract_y
 _atom_site_fract_z
 _atom_site_occupancy
  Sb  Sb0  1  0.73391500  0.75002000  0.24845500  1
  Sb  Sb1  1  0.23391500  0.24998000  0.75154500  1
  P  P0  1  0.90626100  0.99616100  0.60970600  1
  P  P1  1  0.40626100  0.00383900  0.39029400  1
  P  P2  1  0.17373700  0.91402000  0.09302200  1
  P  P3  1  0.99354800  0.60410800  0.58482100  1
  P  P4  1  0.37797000  0.56223300  0.08270900  1
  P  P5  1  0.87797000  0.43776700  0.91729100  1
  P  P6  1  0.49354800  0.39589200  0.41517900  1
  P  P7  1  0.67373700  0.08598000  0.90697800  1
  O  O0  1  0.80789200  0.98865100  0.79116000  1
  O  O1  1  0.69261800  0.99937300  0.09252900  1
  O  O2  1  0.79921900  0.97287700  0.45268500  1
  O  O3  1  0.01721300  0.91624900  0.17934700  1
  O  O4  1  0.01482300  0.81597000  0.64408800  1
  O  O5  1  0.51036900  0.83210700  0.39372400  1
  O  O6  1  0.23029200  0.69815200  0.07507500  1
  O  O7  1  0.53354900  0.66301100  0.06324900  1
  O  O8  1  0.93632700  0.60020400  0.39663100  1
  O  O9  1  0.85246700  0.59484800  0.04379900  1
  O  O10  1  0.85927600  0.52471700  0.71747600  1
  O  O11  1  0.15071600  0.51252300  0.62329300  1
  O  O12  1  0.65071600  0.48747700  0.37670700  1
  O  O13  1  0.35927600  0.47528300  0.28252400  1
  O  O14  1  0.35246700  0.40515200  0.95620100  1
  O  O15  1  0.43632700  0.39979600  0.60336900  1
  O  O16  1  0.03354900  0.33698900  0.93675100  1
  O  O17  1  0.73029200  0.30184800  0.92492500  1
  O  O18  1  0.01036900  0.16789300  0.60627600  1
  O  O19  1  0.51482300  0.18403000  0.35591200  1
  O  O20  1  0.51721300  0.08375100  0.82065300  1
  O  O21  1  0.29921900  0.02712300  0.54731500  1
  O  O22  1  0.19261800  0.00062700  0.90747100  1
  O  O23  1  0.30789200  0.01134900  0.20884000  1
loop_
_geom_bond_atom_site_label_1
_geom_bond_atom_site_label_2
_geom_bond_distance
_geom_bond_site_symmetry_2
O0 P0 1.601726 1_555
O0 P7 1.603325 1_565
O1 P7 1.523729 1_564
O1 Sb0 2.139370 1_555
O2 P0 1.504040 1_555
O2 Sb0 2.312505 1_555
O3 P2 1.477299 1_555
O4 P0 1.599034 1_455
O4 P3 1.601436 1_455
O5 P1 1.511914 1_565
O5 Sb0 2.272451 1_555
O6 P4 1.584477 1_555
O6 P2 1.625847 1_555
O7 P4 1.507464 1_555
O7 Sb0 2.294312 1_555
O8 P3 1.500518 1_555
O8 Sb0 2.296533 1_555
O9 P5 1.508462 1_554
O9 Sb0 2.170674 1_555
O10 P3 1.608423 1_555
O10 P5 1.622704 1_555
O11 P3 1.508585 1_455
O11 Sb1 2.205504 1_555
O12 P6 1.508585 1_555
O12 Sb0 2.205504 1_555
O13 P6 1.608423 1_555
O13 P4 1.622704 1_555
O14 P4 1.508462 1_556
O14 Sb1 2.170674 1_555
O15 P6 1.500518 1_555
O15 Sb1 2.296533 1_555
O16 P5 1.507464 1_455
O16 Sb1 2.294312 1_555
O17 P5 1.584477 1_555
O17 P7 1.625847 1_555
O18 P0 1.511914 1_445
O18 Sb1 2.272451 1_555
O19 P1 1.599034 1_555
O19 P6 1.601436 1_555
O20 P7 1.477299 1_555
O21 P1 1.504040 1_555
O21 Sb1 2.312505 1_555
O22 P2 1.523729 1_546
O22 Sb1 2.139370 1_555
O23 P1 1.601726 1_555
O23 P2 1.603325 1_545
