# generated using pymatgen
data_Nb3Co3C
_symmetry_space_group_name_H-M   'P 1'
_cell_length_a   8.03011532
_cell_length_b   8.03011532
_cell_length_c   8.03011532
_cell_angle_alpha   60.00000000
_cell_angle_beta   60.00000000
_cell_angle_gamma   60.00000000
_symmetry_Int_Tables_number   1
_chemical_formula_structural   Nb3Co3C
_chemical_formula_sum   'Nb12 Co12 C4'
_cell_volume   366.14267454
_cell_formula_units_Z   4
loop_
 _symmetry_equiv_pos_site_id
 _symmetry_equiv_pos_as_xyz
  1  'x, y, z'
loop_
 _atom_site_type_symbol
 _atom_site_label
 _atom_site_symmetry_multiplicity
 _atom_site_fract_x
 _atom_site_fract_y
 _atom_site_fract_z
 _atom_site_occupancy
  Nb  Nb0  1  0.69934100  0.30065900  0.69934100  1
  Nb  Nb1  1  0.94934100  0.55065900  0.55065900  1
  Nb  Nb2  1  0.55065900  0.94934100  0.94934100  1
  Nb  Nb3  1  0.94934100  0.55065900  0.94934100  1
  Nb  Nb4  1  0.55065900  0.55065900  0.94934100  1
  Nb  Nb5  1  0.94934100  0.94934100  0.55065900  1
  Nb  Nb6  1  0.69934100  0.69934100  0.30065900  1
  Nb  Nb7  1  0.30065900  0.69934100  0.69934100  1
  Nb  Nb8  1  0.69934100  0.30065900  0.30065900  1
  Nb  Nb9  1  0.30065900  0.30065900  0.69934100  1
  Nb  Nb10  1  0.55065900  0.94934100  0.55065900  1
  Nb  Nb11  1  0.30065900  0.69934100  0.30065900  1
  Co  Co0  1  0.12500000  0.12500000  0.12500000  1
  Co  Co1  1  0.62500000  0.12500000  0.12500000  1
  Co  Co2  1  0.12500000  0.62500000  0.12500000  1
  Co  Co3  1  0.12500000  0.12500000  0.62500000  1
  Co  Co4  1  0.32715900  0.32715900  0.32715900  1
  Co  Co5  1  0.23147600  0.92284100  0.92284100  1
  Co  Co6  1  0.92284100  0.23147600  0.92284100  1
  Co  Co7  1  0.92284100  0.92284100  0.23147600  1
  Co  Co8  1  0.32715900  0.01852400  0.32715900  1
  Co  Co9  1  0.32715900  0.32715900  0.01852400  1
  Co  Co10  1  0.01852400  0.32715900  0.32715900  1
  Co  Co11  1  0.92284100  0.92284100  0.92284100  1
  C  C0  1  0.62500000  0.62500000  0.62500000  1
  C  C1  1  0.12500000  0.62500000  0.62500000  1
  C  C2  1  0.62500000  0.12500000  0.62500000  1
  C  C3  1  0.62500000  0.62500000  0.12500000  1
loop_
_geom_bond_atom_site_label_1
_geom_bond_atom_site_label_2
_geom_bond_distance
_geom_bond_site_symmetry_2
Co0 Co10 2.420940 1_555
Co0 Co5 2.420940 1_544
Co0 Co8 2.420940 1_555
Co0 Co6 2.420940 1_454
Co0 Co7 2.420940 1_445
Co0 Co9 2.420940 1_555
Co0 Nb5 2.830114 1_445
Co0 Nb8 2.830114 1_455
Co0 Nb2 2.830114 1_544
Co0 Nb3 2.830114 1_454
Co0 Nb9 2.830114 1_554
Co0 Nb11 2.830114 1_545
Co1 Co6 2.420933 1_554
Co1 Co7 2.420933 1_545
Co1 Co8 2.420933 1_555
Co1 Co9 2.420933 1_555
Co1 Co11 2.420938 1_544
Co1 Co4 2.420938 1_555
Co1 Nb10 2.830114 1_545
Co1 Nb2 2.830114 1_544
Co1 Nb4 2.830114 1_554
Co1 Nb8 2.830114 1_555
Co1 Nb0 2.830114 1_554
Co1 Nb6 2.830114 1_545
Co2 Co5 2.420933 1_554
Co2 Co7 2.420933 1_455
Co2 Co9 2.420933 1_555
Co2 Co4 2.420938 1_555
Co2 Nb4 2.830114 1_554
Co2 Nb11 2.830114 1_555
Co2 Nb6 2.830114 1_455
Co2 Nb3 2.830114 1_454
Co2 Nb1 2.830114 1_455
Co2 Nb7 2.830114 1_554
Co3 Co5 2.420933 1_545
Co3 Co6 2.420933 1_455
Co3 Co8 2.420933 1_555
Co3 Co4 2.420938 1_555
Co3 Nb10 2.830114 1_545
Co3 Nb5 2.830114 1_445
Co3 Nb7 2.830114 1_545
Co3 Nb9 2.830114 1_555
Co3 Nb0 2.830114 1_455
Co3 Nb1 2.830114 1_455
Co4 Co9 2.478375 1_555
Co4 Co8 2.478375 1_555
Co4 Nb9 2.792132 1_555
Co4 Nb11 2.792132 1_555
Co4 Nb8 2.792132 1_555
Co4 Nb1 2.824484 1_455
Co4 Nb4 2.824484 1_554
Co4 Nb10 2.824484 1_545
Co5 Co6 2.478375 1_465
Co5 Co7 2.478375 1_456
Co5 Nb4 2.792135 1_555
Co5 Nb10 2.792135 1_555
Co5 Nb2 2.792140 1_555
Co5 Nb7 2.824481 1_555
Co5 Nb9 2.824488 1_565
Co5 Nb11 2.824488 1_556
Co6 Co7 2.478375 1_546
Co6 Nb4 2.792135 1_555
Co6 Nb1 2.792135 1_555
Co6 Nb3 2.792140 1_555
Co6 Nb0 2.824481 1_555
Co6 Nb9 2.824488 1_655
Co6 Nb8 2.824488 1_556
Co7 Nb10 2.792135 1_555
Co7 Nb1 2.792135 1_555
Co7 Nb5 2.792140 1_555
Co7 Nb6 2.824481 1_555
Co7 Nb11 2.824488 1_655
Co7 Nb8 2.824488 1_565
Co8 Co9 2.478375 1_555
Co8 Nb7 2.792135 1_545
Co8 Nb6 2.792135 1_545
Co8 Nb11 2.792140 1_545
Co8 Nb10 2.824481 1_545
Co8 Nb5 2.824488 1_445
Co8 Nb2 2.824488 1_544
Co9 Nb0 2.792135 1_554
Co9 Nb7 2.792135 1_554
Co9 Nb9 2.792140 1_554
Co9 Nb4 2.824481 1_554
Co9 Nb3 2.824488 1_454
Co9 Nb2 2.824488 1_544
Co10 Co2 2.420933 1_555
Co10 Co3 2.420933 1_555
Co10 Co9 2.478375 1_555
Co10 Co4 2.478375 1_555
Co10 Co8 2.478375 1_555
Co10 Nb0 2.792135 1_455
Co10 Nb6 2.792135 1_455
Co10 Nb8 2.792140 1_455
Co10 Nb1 2.824481 1_455
Co10 Nb3 2.824488 1_454
Co10 Nb5 2.824488 1_445
Co11 Co2 2.420938 1_656
Co11 Co3 2.420938 1_665
Co11 Co6 2.478375 1_565
Co11 Co7 2.478375 1_556
Co11 Co5 2.478375 1_655
Co11 Nb5 2.792132 1_555
Co11 Nb2 2.792132 1_555
Co11 Nb3 2.792132 1_555
Co11 Nb7 2.824484 1_655
Co11 Nb0 2.824484 1_565
Co11 Nb6 2.824484 1_556
C0 Nb1 2.177822 1_555
C0 Nb0 2.177822 1_555
C0 Nb6 2.177822 1_555
C0 Nb10 2.177822 1_555
C0 Nb7 2.177822 1_555
C0 Nb4 2.177822 1_555
C1 Nb11 2.177822 1_555
C1 Nb3 2.177822 1_455
C1 Nb1 2.177822 1_455
C1 Nb7 2.177822 1_555
C1 Nb5 2.177822 1_455
C1 Nb9 2.177822 1_555
C2 Nb10 2.177822 1_545
C2 Nb9 2.177822 1_555
C2 Nb8 2.177822 1_555
C2 Nb5 2.177822 1_545
C2 Nb2 2.177822 1_545
C2 Nb0 2.177822 1_555
C3 Nb2 2.177822 1_554
C3 Nb3 2.177822 1_554
C3 Nb11 2.177822 1_555
C3 Nb8 2.177822 1_555
C3 Nb6 2.177822 1_555
C3 Nb4 2.177822 1_554
