# generated using pymatgen
data_CuC3(OF)3
_symmetry_space_group_name_H-M   'P 1'
_cell_length_a   8.27933265
_cell_length_b   8.27933265
_cell_length_c   10.36976355
_cell_angle_alpha   69.20152937
_cell_angle_beta   69.20152937
_cell_angle_gamma   64.95543080
_symmetry_Int_Tables_number   1
_chemical_formula_structural   CuC3(OF)3
_chemical_formula_sum   'Cu4 C12 O12 F12'
_cell_volume   584.16197140
_cell_formula_units_Z   4
loop_
 _symmetry_equiv_pos_site_id
 _symmetry_equiv_pos_as_xyz
  1  'x, y, z'
loop_
 _atom_site_type_symbol
 _atom_site_label
 _atom_site_symmetry_multiplicity
 _atom_site_fract_x
 _atom_site_fract_y
 _atom_site_fract_z
 _atom_site_occupancy
  Cu  Cu0  1  0.42607300  0.66554200  0.58713700  1
  Cu  Cu1  1  0.66554200  0.42607300  0.08713700  1
  Cu  Cu2  1  0.57392700  0.33445800  0.41286300  1
  Cu  Cu3  1  0.33445800  0.57392700  0.91286300  1
  C  C0  1  0.23147500  0.87162100  0.58280000  1
  C  C1  1  0.91338900  0.53249200  0.72745200  1
  C  C2  1  0.76852500  0.12837900  0.41720000  1
  C  C3  1  0.57265300  0.70723800  0.24088200  1
  C  C4  1  0.87162100  0.23147500  0.08280000  1
  C  C5  1  0.29276200  0.42734700  0.25911800  1
  C  C6  1  0.70723800  0.57265300  0.74088200  1
  C  C7  1  0.46750800  0.08661100  0.77254800  1
  C  C8  1  0.42734700  0.29276200  0.75911800  1
  C  C9  1  0.12837900  0.76852500  0.91720000  1
  C  C10  1  0.08661100  0.46750800  0.27254800  1
  C  C11  1  0.53249200  0.91338900  0.22745200  1
  O  O0  1  0.38320700  0.33572900  0.87427200  1
  O  O1  1  0.61679300  0.66427100  0.12572800  1
  O  O2  1  0.00691000  0.10864700  0.08401500  1
  O  O3  1  0.10864700  0.00691000  0.58401500  1
  O  O4  1  0.60612700  0.55096400  0.86683900  1
  O  O5  1  0.89135300  0.99309000  0.41598500  1
  O  O6  1  0.44903600  0.39387300  0.63316100  1
  O  O7  1  0.66427100  0.61679300  0.62572800  1
  O  O8  1  0.39387300  0.44903600  0.13316100  1
  O  O9  1  0.99309000  0.89135300  0.91598500  1
  O  O10  1  0.55096400  0.60612700  0.36683900  1
  O  O11  1  0.33572900  0.38320700  0.37427200  1
  F  F0  1  0.00509300  0.34712200  0.74718800  1
  F  F1  1  0.93568800  0.58701900  0.82772100  1
  F  F2  1  0.34712200  0.00509300  0.24718800  1
  F  F3  1  0.38398400  0.00439800  0.90100500  1
  F  F4  1  0.06431200  0.41298100  0.17227900  1
  F  F5  1  0.99560200  0.61601600  0.59899500  1
  F  F6  1  0.65287800  0.99490700  0.75281200  1
  F  F7  1  0.41298100  0.06431200  0.67227900  1
  F  F8  1  0.00439800  0.38398400  0.40100500  1
  F  F9  1  0.61601600  0.99560200  0.09899500  1
  F  F10  1  0.99490700  0.65287800  0.25281200  1
  F  F11  1  0.58701900  0.93568800  0.32772100  1
loop_
_geom_bond_atom_site_label_1
_geom_bond_atom_site_label_2
_geom_bond_distance
_geom_bond_site_symmetry_2
Cu0 O7 1.996037 1_555
Cu0 O6 2.064715 1_555
Cu0 O10 2.284671 1_555
Cu1 O1 1.996037 1_555
Cu1 O8 2.064715 1_555
Cu1 O4 2.284671 1_554
Cu2 O11 1.996037 1_555
Cu2 O10 2.064715 1_555
Cu2 O6 2.284671 1_555
Cu3 O0 1.996037 1_555
Cu3 O4 2.064715 1_555
Cu3 O8 2.284671 1_556
C0 O3 1.151293 1_565
C0 Cu0 1.782836 1_555
C1 F5 1.347724 1_555
C1 F1 1.363541 1_555
C1 F0 1.369126 1_655
C2 O5 1.151293 1_545
C2 Cu2 1.782836 1_555
C3 O1 1.252087 1_555
C3 O10 1.274068 1_555
C4 O2 1.151293 1_655
C4 Cu1 1.782836 1_555
C5 O11 1.252087 1_555
C5 O8 1.274068 1_555
C6 O7 1.252087 1_555
C6 O4 1.274068 1_555
C7 F3 1.347724 1_555
C7 F7 1.363541 1_555
C7 F6 1.369126 1_545
C8 O0 1.252087 1_555
C8 O6 1.274068 1_555
C9 O9 1.151293 1_455
C9 Cu3 1.782836 1_555
C10 F8 1.347724 1_555
C10 F4 1.363541 1_555
C10 F10 1.369126 1_455
C11 F9 1.347724 1_555
C11 F11 1.363541 1_555
C11 F2 1.369126 1_565
