# generated using pymatgen
data_Cs8Tl8O
_symmetry_space_group_name_H-M   'P 1'
_cell_length_a   11.85664510
_cell_length_b   11.85664510
_cell_length_c   11.85664447
_cell_angle_alpha   45.03688450
_cell_angle_beta   45.03688447
_cell_angle_gamma   45.03688603
_symmetry_Int_Tables_number   1
_chemical_formula_structural   Cs8Tl8O
_chemical_formula_sum   'Cs8 Tl8 O1'
_cell_volume   759.58317237
_cell_formula_units_Z   1
loop_
 _symmetry_equiv_pos_site_id
 _symmetry_equiv_pos_as_xyz
  1  'x, y, z'
loop_
 _atom_site_type_symbol
 _atom_site_label
 _atom_site_symmetry_multiplicity
 _atom_site_fract_x
 _atom_site_fract_y
 _atom_site_fract_z
 _atom_site_occupancy
  Cs  Cs0  1  0.67171753  0.67171753  0.67171753  1
  Cs  Cs1  1  0.32828247  0.32828247  0.32828247  1
  Cs  Cs2  1  0.46237099  0.33026789  0.85328451  1
  Cs  Cs3  1  0.33026789  0.85328451  0.46237099  1
  Cs  Cs4  1  0.14671549  0.53762901  0.66973211  1
  Cs  Cs5  1  0.85328451  0.46237099  0.33026789  1
  Cs  Cs6  1  0.66973211  0.14671549  0.53762901  1
  Cs  Cs7  1  0.53762901  0.66973211  0.14671549  1
  Tl  Tl0  1  0.11820653  0.11820653  0.11820653  1
  Tl  Tl1  1  0.75283081  0.95765910  0.17173628  1
  Tl  Tl2  1  0.17173628  0.75283081  0.95765910  1
  Tl  Tl3  1  0.95765910  0.17173628  0.75283081  1
  Tl  Tl4  1  0.82826372  0.24716919  0.04234090  1
  Tl  Tl5  1  0.24716919  0.04234090  0.82826372  1
  Tl  Tl6  1  0.88179347  0.88179347  0.88179347  1
  Tl  Tl7  1  0.04234090  0.82826372  0.24716919  1
  O  O0  1  0.50000000  0.50000000  0.50000000  1
loop_
_geom_bond_atom_site_label_1
_geom_bond_atom_site_label_2
_geom_bond_distance
_geom_bond_site_symmetry_2
Cs0 Tl7 3.892867 1_655
Cs0 Tl4 3.892867 1_556
Cs0 Tl5 3.892868 1_565
Cs0 Tl1 3.963255 1_555
Cs0 Tl2 3.963256 1_555
Cs0 Tl3 3.963256 1_555
Cs1 Tl3 3.892867 1_455
Cs1 Tl2 3.892867 1_554
Cs1 Tl1 3.892868 1_545
Cs1 Tl5 3.963255 1_555
Cs1 Tl4 3.963256 1_555
Cs1 Tl7 3.963256 1_555
Cs2 O0 2.916986 1_555
Cs2 Tl6 3.947464 1_545
Cs2 Tl2 4.104067 1_555
Cs2 Tl3 4.137151 1_555
Cs2 Tl0 4.250107 1_556
Cs2 Tl1 4.351312 1_546
Cs3 O0 2.916986 1_555
Cs3 Tl6 3.947463 1_455
Cs3 Tl1 4.104067 1_555
Cs3 Tl2 4.137150 1_555
Cs3 Tl0 4.250107 1_565
Cs3 Tl3 4.351313 1_465
Cs4 O0 2.916986 1_555
Cs4 Tl0 3.947463 1_556
Cs4 Tl7 4.104067 1_555
Cs4 Tl5 4.137151 1_555
Cs4 Tl6 4.250107 1_455
Cs4 Tl4 4.351313 1_456
Cs5 O0 2.916986 1_555
Cs5 Tl6 3.947463 1_554
Cs5 Tl3 4.104067 1_555
Cs5 Tl1 4.137151 1_555
Cs5 Tl0 4.250107 1_655
Cs5 Tl2 4.351313 1_654
Cs6 O0 2.916986 1_555
Cs6 Tl0 3.947463 1_655
Cs6 Tl5 4.104067 1_555
Cs6 Tl4 4.137150 1_555
Cs6 Tl6 4.250107 1_545
Cs6 Tl7 4.351313 1_645
Cs7 O0 2.916986 1_555
Cs7 Tl0 3.947464 1_565
Cs7 Tl4 4.104067 1_555
Cs7 Tl7 4.137151 1_555
Cs7 Tl6 4.250107 1_554
Cs7 Tl5 4.351312 1_564
Tl0 Tl5 3.156370 1_554
Tl0 Tl4 3.156370 1_455
Tl0 Tl7 3.156370 1_545
Tl1 Tl7 3.145365 1_655
Tl1 Tl4 3.145365 1_565
Tl1 Tl6 3.156370 1_554
Tl1 Tl3 3.294964 1_564
Tl1 Tl2 3.294965 1_654
Tl2 Tl7 3.145365 1_556
Tl2 Tl5 3.145365 1_565
Tl2 Tl6 3.156370 1_455
Tl2 Tl3 3.294965 1_465
Tl3 Tl4 3.145365 1_556
Tl3 Tl5 3.145365 1_655
Tl3 Tl6 3.156370 1_545
Tl4 Tl5 3.294965 1_654
Tl4 Tl7 3.294965 1_645
Tl5 Tl7 3.294964 1_546
