# generated using pymatgen
data_Ba2SnS4
_symmetry_space_group_name_H-M   'P 1'
_cell_length_a   8.65023963
_cell_length_b   8.58680296
_cell_length_c   12.12655273
_cell_angle_alpha   67.21036557
_cell_angle_beta   90.00000000
_cell_angle_gamma   90.00000000
_symmetry_Int_Tables_number   1
_chemical_formula_structural   Ba2SnS4
_chemical_formula_sum   'Ba8 Sn4 S16'
_cell_volume   830.41745772
_cell_formula_units_Z   4
loop_
 _symmetry_equiv_pos_site_id
 _symmetry_equiv_pos_as_xyz
  1  'x, y, z'
loop_
 _atom_site_type_symbol
 _atom_site_label
 _atom_site_symmetry_multiplicity
 _atom_site_fract_x
 _atom_site_fract_y
 _atom_site_fract_z
 _atom_site_occupancy
  Ba  Ba0  1  0.80733271  0.04125016  0.64993379  1
  Ba  Ba1  1  0.30733271  0.95874984  0.85006621  1
  Ba  Ba2  1  0.19266729  0.95874984  0.35006621  1
  Ba  Ba3  1  0.69266729  0.04125016  0.14993379  1
  Ba  Ba4  1  0.87659668  0.42526763  0.83502532  1
  Ba  Ba5  1  0.37659668  0.57473237  0.66497468  1
  Ba  Ba6  1  0.12340332  0.57473237  0.16497468  1
  Ba  Ba7  1  0.62340332  0.42526763  0.33502532  1
  Sn  Sn0  1  0.81180118  0.70012533  0.49050600  1
  Sn  Sn1  1  0.31180118  0.29987467  0.00949400  1
  Sn  Sn2  1  0.18819882  0.29987467  0.50949400  1
  Sn  Sn3  1  0.68819882  0.70012533  0.99050600  1
  S  S0  1  0.98541414  0.24681266  0.39246524  1
  S  S1  1  0.48541414  0.75318734  0.10753476  1
  S  S2  1  0.01458586  0.75318734  0.60753476  1
  S  S3  1  0.51458586  0.24681266  0.89246524  1
  S  S4  1  0.89791332  0.73029726  0.29571166  1
  S  S5  1  0.39791332  0.26970274  0.20428834  1
  S  S6  1  0.10208668  0.26970274  0.70428834  1
  S  S7  1  0.60208668  0.73029726  0.79571166  1
  S  S8  1  0.88168204  0.91156141  0.94599311  1
  S  S9  1  0.38168204  0.08843859  0.55400689  1
  S  S10  1  0.11831796  0.08843859  0.05400689  1
  S  S11  1  0.61831796  0.91156141  0.44599311  1
  S  S12  1  0.80644163  0.42893348  0.09744544  1
  S  S13  1  0.30644163  0.57106652  0.40255456  1
  S  S14  1  0.19355837  0.57106652  0.90255456  1
  S  S15  1  0.69355837  0.42893348  0.59744544  1
loop_
_geom_bond_atom_site_label_1
_geom_bond_atom_site_label_2
_geom_bond_distance
_geom_bond_site_symmetry_2
Ba0 S7 3.122484 1_545
Ba0 S2 3.253012 1_645
Ba0 S15 3.288497 1_555
Ba0 S0 3.311705 1_555
Ba0 S8 3.383172 1_545
Ba0 S6 3.432966 1_655
Ba0 S11 3.487580 1_545
Ba0 S9 3.835256 1_555
Ba1 S6 3.122484 1_565
Ba1 S3 3.253012 1_565
Ba1 S14 3.288497 1_555
Ba1 S1 3.311705 1_556
Ba1 S9 3.383172 1_565
Ba1 S7 3.432966 1_555
Ba1 S10 3.487580 1_566
Ba1 S8 3.835256 1_455
Ba2 S5 3.122484 1_565
Ba2 S0 3.253012 1_465
Ba2 S13 3.288497 1_555
Ba2 S2 3.311705 1_555
Ba2 S10 3.383172 1_565
Ba2 S4 3.432966 1_455
Ba2 S9 3.487580 1_565
Ba2 S11 3.835256 1_555
Ba3 S4 3.122484 1_545
Ba3 S1 3.253012 1_545
Ba3 S12 3.288497 1_555
Ba3 S3 3.311705 1_554
Ba3 S11 3.383172 1_545
Ba3 S5 3.432966 1_555
Ba3 S8 3.487580 1_544
Ba3 S10 3.835256 1_655
Ba4 S6 3.121391 1_655
Ba4 S14 3.248020 1_655
Ba4 S12 3.251706 1_556
Ba4 S15 3.276882 1_555
Ba4 S2 3.308471 1_655
Ba4 S7 3.429126 1_555
Ba4 S3 3.436944 1_555
Ba4 S10 3.720079 1_656
Ba5 S7 3.121391 1_555
Ba5 S15 3.248020 1_555
Ba5 S13 3.251706 1_555
Ba5 S14 3.276882 1_555
Ba5 S3 3.308471 1_555
Ba5 S6 3.429126 1_555
Ba5 S2 3.436944 1_555
Ba5 S11 3.720079 1_555
Ba6 S4 3.121391 1_455
Ba6 S12 3.248020 1_455
Ba6 S14 3.251706 1_554
Ba6 S13 3.276882 1_555
Ba6 S0 3.308471 1_455
Ba6 S5 3.429126 1_555
Ba6 S1 3.436944 1_555
Ba6 S8 3.720079 1_454
Ba7 S5 3.121391 1_555
Ba7 S13 3.248020 1_555
Ba7 S15 3.251706 1_555
Ba7 S12 3.276882 1_555
Ba7 S1 3.308471 1_555
Ba7 S4 3.429126 1_555
Ba7 S0 3.436944 1_555
Ba7 S9 3.720079 1_555
S0 Sn2 2.408221 1_655
S1 Sn3 2.408221 1_554
S2 Sn0 2.408221 1_455
S3 Sn1 2.408221 1_556
S4 Sn0 2.393279 1_555
S5 Sn1 2.393279 1_555
S6 Sn2 2.393279 1_555
S7 Sn3 2.393279 1_555
S8 Sn3 2.372679 1_555
S9 Sn2 2.372679 1_555
S10 Sn1 2.372679 1_555
S11 Sn0 2.372679 1_555
S12 Sn3 2.410630 1_554
S13 Sn2 2.410630 1_555
S14 Sn1 2.410630 1_556
S15 Sn0 2.410630 1_555
