# generated using pymatgen
data_SrCuH6O5
_symmetry_space_group_name_H-M   'P 1'
_cell_length_a   6.29672500
_cell_length_b   5.46737800
_cell_length_c   7.97729588
_cell_angle_alpha   72.20561901
_cell_angle_beta   90.00000000
_cell_angle_gamma   90.00000000
_symmetry_Int_Tables_number   1
_chemical_formula_structural   SrCuH6O5
_chemical_formula_sum   'Sr2 Cu2 H12 O10'
_cell_volume   261.49246098
_cell_formula_units_Z   2
loop_
 _symmetry_equiv_pos_site_id
 _symmetry_equiv_pos_as_xyz
  1  'x, y, z'
loop_
 _atom_site_type_symbol
 _atom_site_label
 _atom_site_symmetry_multiplicity
 _atom_site_fract_x
 _atom_site_fract_y
 _atom_site_fract_z
 _atom_site_occupancy
  Sr  Sr0  1  0.44940400  0.00000000  0.25000000  1
  Sr  Sr1  1  0.55059600  0.00000000  0.75000000  1
  Cu  Cu0  1  0.00000000  0.00000000  0.00000000  1
  Cu  Cu1  1  0.00000000  0.00000000  0.50000000  1
  H  H0  1  0.05334500  0.36710300  0.10588200  1
  H  H1  1  0.70585200  0.56752200  0.14570600  1
  H  H2  1  0.70585200  0.43247800  0.35429400  1
  H  H3  1  0.73637400  0.66297900  0.52426600  1
  H  H4  1  0.29414800  0.56752200  0.64570600  1
  H  H5  1  0.26362600  0.33702100  0.47573400  1
  H  H6  1  0.29414800  0.43247800  0.85429400  1
  H  H7  1  0.73637400  0.33702100  0.97573400  1
  H  H8  1  0.94665500  0.36710300  0.60588200  1
  H  H9  1  0.26362600  0.66297900  0.02426600  1
  H  H10  1  0.94665500  0.63289700  0.89411800  1
  H  H11  1  0.05334500  0.63289700  0.39411800  1
  O  O0  1  0.84243200  0.71712900  0.94819900  1
  O  O1  1  0.38908200  0.50000000  0.75000000  1
  O  O2  1  0.27822600  0.84860000  0.00020800  1
  O  O3  1  0.72177400  0.84860000  0.50020800  1
  O  O4  1  0.72177400  0.15140000  0.99979200  1
  O  O5  1  0.84243200  0.28287100  0.55180100  1
  O  O6  1  0.61091800  0.50000000  0.25000000  1
  O  O7  1  0.15756800  0.28287100  0.05180100  1
  O  O8  1  0.27822600  0.15140000  0.49979200  1
  O  O9  1  0.15756800  0.71712900  0.44819900  1
loop_
_geom_bond_atom_site_label_1
_geom_bond_atom_site_label_2
_geom_bond_distance
_geom_bond_site_symmetry_2
Cu0 O4 1.937408 1_454
Cu0 O2 1.937408 1_545
Cu0 O7 1.984343 1_555
Cu0 O0 1.984343 1_444
Cu1 O8 1.937408 1_555
Cu1 O3 1.937408 1_445
Cu1 O9 1.984343 1_545
Cu1 O5 1.984343 1_455
H0 O7 0.974847 1_555
H1 O6 0.999044 1_555
H2 O6 0.999044 1_555
H3 O3 0.977845 1_555
H4 O1 0.999044 1_555
H5 O8 0.977845 1_555
H6 O1 0.999044 1_555
H7 O4 0.977845 1_555
H8 O5 0.974847 1_555
H9 O2 0.977845 1_555
H10 O0 0.974847 1_555
H11 O9 0.974847 1_555
O0 Sr1 2.602685 1_565
O1 Sr1 2.916738 1_565
O1 Sr1 2.916738 1_555
O2 Sr1 2.569176 1_564
O2 Sr0 2.612630 1_565
O3 Sr0 2.569176 1_565
O3 Sr1 2.612630 1_565
O4 Sr0 2.569176 1_556
O4 Sr1 2.612630 1_555
O5 Sr1 2.602685 1_555
O6 Sr0 2.916738 1_565
O6 Sr0 2.916738 1_555
O7 Sr0 2.602685 1_555
O8 Sr1 2.569176 1_555
O8 Sr0 2.612630 1_555
O9 Sr0 2.602685 1_565
