# generated using pymatgen
data_Ba16Bi16O45
_symmetry_space_group_name_H-M   'P 1'
_cell_length_a   4.38581900
_cell_length_b   8.95474700
_cell_length_c   35.84885600
_cell_angle_alpha   90.00000000
_cell_angle_beta   90.00000000
_cell_angle_gamma   90.00000000
_symmetry_Int_Tables_number   1
_chemical_formula_structural   Ba16Bi16O45
_chemical_formula_sum   'Ba16 Bi16 O45'
_cell_volume   1407.92436891
_cell_formula_units_Z   1
loop_
 _symmetry_equiv_pos_site_id
 _symmetry_equiv_pos_as_xyz
  1  'x, y, z'
loop_
 _atom_site_type_symbol
 _atom_site_label
 _atom_site_symmetry_multiplicity
 _atom_site_fract_x
 _atom_site_fract_y
 _atom_site_fract_z
 _atom_site_occupancy
  Ba  Ba0  1  0.00000000  0.76029900  0.99595500  1
  Ba  Ba1  1  0.00000000  0.76735000  0.12648200  1
  Ba  Ba2  1  0.00000000  0.23970100  0.99595500  1
  Ba  Ba3  1  0.00000000  0.73235400  0.24862500  1
  Ba  Ba4  1  0.00000000  0.23265000  0.12648200  1
  Ba  Ba5  1  0.00000000  0.73721500  0.37903100  1
  Ba  Ba6  1  0.00000000  0.26764600  0.24862500  1
  Ba  Ba7  1  0.00000000  0.26278500  0.37903100  1
  Ba  Ba8  1  0.00000000  0.76140900  0.50053700  1
  Ba  Ba9  1  0.00000000  0.23859100  0.50053700  1
  Ba  Ba10  1  0.00000000  0.73762900  0.75273300  1
  Ba  Ba11  1  0.00000000  0.26237100  0.75273300  1
  Ba  Ba12  1  0.00000000  0.24925300  0.87436200  1
  Ba  Ba13  1  0.00000000  0.75074700  0.87436200  1
  Ba  Ba14  1  0.00000000  0.26405100  0.62213500  1
  Ba  Ba15  1  0.00000000  0.73594900  0.62213500  1
  Bi  Bi0  1  0.50000000  0.00000000  0.06209800  1
  Bi  Bi1  1  0.50000000  0.00000000  0.18844300  1
  Bi  Bi2  1  0.50000000  0.50000000  0.06217400  1
  Bi  Bi3  1  0.50000000  0.00000000  0.43730200  1
  Bi  Bi4  1  0.50000000  0.00000000  0.31277400  1
  Bi  Bi5  1  0.50000000  0.50000000  0.18650800  1
  Bi  Bi6  1  0.50000000  0.00000000  0.68753400  1
  Bi  Bi7  1  0.50000000  0.00000000  0.56307400  1
  Bi  Bi8  1  0.50000000  0.50000000  0.43859900  1
  Bi  Bi9  1  0.50000000  0.00000000  0.81210900  1
  Bi  Bi10  1  0.50000000  0.50000000  0.31290100  1
  Bi  Bi11  1  0.50000000  0.50000000  0.68749800  1
  Bi  Bi12  1  0.50000000  0.50000000  0.56182600  1
  Bi  Bi13  1  0.50000000  0.00000000  0.93666700  1
  Bi  Bi14  1  0.50000000  0.50000000  0.81304300  1
  Bi  Bi15  1  0.50000000  0.50000000  0.93747900  1
  O  O0  1  0.00000000  0.00000000  0.06342600  1
  O  O1  1  0.00000000  0.00000000  0.18393500  1
  O  O2  1  0.00000000  0.50000000  0.19082600  1
  O  O3  1  0.00000000  0.50000000  0.31138700  1
  O  O4  1  0.00000000  0.00000000  0.43800700  1
  O  O5  1  0.00000000  0.50000000  0.43247300  1
  O  O6  1  0.00000000  0.00000000  0.56136400  1
  O  O7  1  0.00000000  0.50000000  0.56754900  1
  O  O8  1  0.00000000  0.50000000  0.68755800  1
  O  O9  1  0.00000000  0.00000000  0.81287900  1
  O  O10  1  0.00000000  0.00000000  0.94073000  1
  O  O11  1  0.00000000  0.50000000  0.80907100  1
  O  O12  1  0.00000000  0.50000000  0.93844100  1
  O  O13  1  0.50000000  0.75137600  0.06310100  1
  O  O14  1  0.50000000  0.00000000  0.99973900  1
  O  O15  1  0.50000000  0.00000000  0.24936100  1
  O  O16  1  0.50000000  0.75000000  0.18740100  1
  O  O17  1  0.50000000  0.75021900  0.43777900  1
  O  O18  1  0.50000000  0.00000000  0.12478200  1
  O  O19  1  0.50000000  0.00000000  0.37512600  1
  O  O20  1  0.50000000  0.00000000  0.50005300  1
  O  O21  1  0.50000000  0.24862400  0.06310100  1
  O  O22  1  0.50000000  0.50000000  0.99981600  1
  O  O23  1  0.50000000  0.50000000  0.25001000  1
  O  O24  1  0.50000000  0.74852800  0.31168400  1
  O  O25  1  0.50000000  0.74823400  0.68770900  1
  O  O26  1  0.50000000  0.00000000  0.62474700  1
  O  O27  1  0.50000000  0.00000000  0.87547000  1
  O  O28  1  0.50000000  0.25000000  0.18740100  1
  O  O29  1  0.50000000  0.50000000  0.12553700  1
  O  O30  1  0.50000000  0.50000000  0.50020400  1
  O  O31  1  0.50000000  0.75028400  0.56211700  1
  O  O32  1  0.50000000  0.74900100  0.81305400  1
  O  O33  1  0.50000000  0.00000000  0.75049000  1
  O  O34  1  0.50000000  0.25147200  0.31168400  1
  O  O35  1  0.50000000  0.24978100  0.43777900  1
  O  O36  1  0.50000000  0.25176600  0.68770900  1
  O  O37  1  0.50000000  0.50000000  0.37504400  1
  O  O38  1  0.50000000  0.50000000  0.62521900  1
  O  O39  1  0.50000000  0.24971600  0.56211700  1
  O  O40  1  0.50000000  0.25099900  0.81305400  1
  O  O41  1  0.50000000  0.50000000  0.74997200  1
  O  O42  1  0.50000000  0.50000000  0.87440800  1
  O  O43  1  0.50000000  0.75151500  0.93721700  1
  O  O44  1  0.50000000  0.24848500  0.93721700  1
loop_
_geom_bond_atom_site_label_1
_geom_bond_atom_site_label_2
_geom_bond_distance
_geom_bond_site_symmetry_2
Ba0 O10 2.920055 1_565
Ba0 O43 3.041212 1_555
Ba0 O43 3.041212 1_455
Ba0 O14 3.071572 1_565
Ba0 O14 3.071572 1_465
Ba0 O12 3.111947 1_555
Ba0 O22 3.203304 1_555
Ba0 O22 3.203304 1_455
Ba0 O0 3.233835 1_566
Ba0 O13 3.257208 1_556
Ba0 O13 3.257208 1_456
Ba1 O1 2.929553 1_565
Ba1 O18 3.025359 1_465
Ba1 O18 3.025359 1_565
Ba1 O0 3.074089 1_565
Ba1 O16 3.098759 1_455
Ba1 O16 3.098759 1_555
Ba1 O13 3.160999 1_455
Ba1 O13 3.160999 1_555
Ba1 O29 3.246765 1_555
Ba1 O29 3.246765 1_455
Ba1 O2 3.324479 1_555
Ba2 O10 2.920055 1_555
Ba2 O44 3.041212 1_455
Ba2 O44 3.041212 1_555
Ba2 O14 3.071572 1_555
Ba2 O14 3.071572 1_455
Ba2 O12 3.111947 1_555
Ba2 O22 3.203304 1_555
Ba2 O22 3.203304 1_455
Ba2 O0 3.233835 1_556
Ba2 O21 3.257208 1_556
Ba2 O21 3.257208 1_456
Ba3 O2 2.936408 1_555
Ba3 O23 3.023328 1_455
Ba3 O23 3.023328 1_555
Ba3 O3 3.064547 1_555
Ba3 O16 3.106608 1_455
Ba3 O16 3.106608 1_555
Ba3 O24 3.152794 1_455
Ba3 O24 3.152794 1_555
Ba3 O15 3.248650 1_565
Ba3 O15 3.248650 1_465
Ba3 O1 3.335001 1_565
Ba4 O1 2.929553 1_555
Ba4 O18 3.025359 1_455
Ba4 O18 3.025359 1_555
Ba4 O0 3.074089 1_555
Ba4 O28 3.098759 1_555
Ba4 O28 3.098759 1_455
Ba4 O21 3.160999 1_455
Ba4 O21 3.160999 1_555
Ba4 O29 3.246765 1_555
Ba4 O29 3.246765 1_455
Ba4 O2 3.324479 1_555
Ba5 O5 2.860533 1_555
Ba5 O17 3.042672 1_455
Ba5 O17 3.042672 1_555
Ba5 O37 3.056388 1_455
Ba5 O37 3.056388 1_555
Ba5 O4 3.163441 1_565
Ba5 O19 3.219608 1_565
Ba5 O19 3.219608 1_465
Ba5 O3 3.223765 1_555
Ba5 O24 3.263131 1_455
Ba5 O24 3.263131 1_555
Ba6 O2 2.936408 1_555
Ba6 O23 3.023328 1_455
Ba6 O23 3.023328 1_555
Ba6 O3 3.064547 1_555
Ba6 O28 3.106608 1_455
Ba6 O28 3.106608 1_555
Ba6 O34 3.152794 1_455
Ba6 O34 3.152794 1_555
Ba6 O15 3.248650 1_555
Ba6 O15 3.248650 1_455
Ba6 O1 3.335001 1_555
Ba7 O5 2.860533 1_555
Ba7 O35 3.042672 1_455
Ba7 O35 3.042672 1_555
Ba7 O37 3.056388 1_555
Ba7 O37 3.056388 1_455
Ba7 O4 3.163441 1_555
Ba7 O19 3.219608 1_455
Ba7 O19 3.219608 1_555
Ba7 O3 3.223765 1_555
Ba7 O34 3.263131 1_455
Ba7 O34 3.263131 1_555
Ba8 O6 3.052810 1_565
Ba8 O20 3.061679 1_565
Ba8 O20 3.061679 1_465
Ba8 O4 3.096712 1_565
Ba8 O31 3.113222 1_455
Ba8 O31 3.113222 1_555
Ba8 O17 3.143327 1_555
Ba8 O17 3.143327 1_455
Ba8 O30 3.207582 1_555
Ba8 O30 3.207582 1_455
Ba8 O7 3.354199 1_555
Ba8 O5 3.381311 1_555
Ba9 O6 3.052810 1_555
Ba9 O20 3.061679 1_555
Ba9 O20 3.061679 1_455
Ba9 O4 3.096712 1_555
Ba9 O39 3.113222 1_455
Ba9 O39 3.113222 1_555
Ba9 O35 3.143327 1_455
Ba9 O35 3.143327 1_555
Ba9 O30 3.207582 1_455
Ba9 O30 3.207582 1_555
Ba9 O7 3.354199 1_555
Ba9 O5 3.381311 1_555
Ba10 O11 2.933767 1_555
Ba10 O41 3.057227 1_555
Ba10 O41 3.057227 1_455
Ba10 O32 3.081455 1_555
Ba10 O32 3.081455 1_455
Ba10 O8 3.160219 1_555
Ba10 O9 3.188893 1_565
Ba10 O25 3.201812 1_455
Ba10 O25 3.201812 1_555
Ba10 O33 3.214857 1_565
Ba10 O33 3.214857 1_465
Ba11 O11 2.933767 1_555
Ba11 O41 3.057227 1_555
Ba11 O41 3.057227 1_455
Ba11 O40 3.081455 1_455
Ba11 O40 3.081455 1_555
Ba11 O8 3.160219 1_555
Ba11 O9 3.188893 1_555
Ba11 O36 3.201812 1_555
Ba11 O36 3.201812 1_455
Ba11 O33 3.214857 1_455
Ba11 O33 3.214857 1_555
Ba12 O40 3.104757 1_455
Ba12 O40 3.104757 1_555
Ba12 O27 3.129256 1_455
Ba12 O27 3.129256 1_555
Ba12 O9 3.136853 1_555
Ba12 O42 3.138561 1_555
Ba12 O42 3.138561 1_455
Ba12 O44 3.144228 1_555
Ba12 O44 3.144228 1_455
Ba12 O12 3.212266 1_555
Ba12 O11 3.243479 1_555
Ba12 O10 3.262282 1_555
Ba13 O32 3.104757 1_455
Ba13 O32 3.104757 1_555
Ba13 O27 3.129256 1_565
Ba13 O27 3.129256 1_465
Ba13 O9 3.136853 1_565
Ba13 O42 3.138561 1_455
Ba13 O42 3.138561 1_555
Ba13 O43 3.144228 1_455
Ba13 O43 3.144228 1_555
Ba13 O12 3.212266 1_555
Ba13 O11 3.243479 1_555
Ba13 O10 3.262282 1_565
Ba14 O7 2.879833 1_555
Ba14 O38 3.047174 1_455
Ba14 O38 3.047174 1_555
Ba14 O39 3.074835 1_455
Ba14 O39 3.074835 1_555
Ba14 O8 3.156709 1_555
Ba14 O6 3.215133 1_555
Ba14 O36 3.216674 1_455
Ba14 O36 3.216674 1_555
Ba14 O26 3.226225 1_455
Ba14 O26 3.226225 1_555
Ba15 O7 2.879833 1_555
Ba15 O38 3.047174 1_455
Ba15 O38 3.047174 1_555
Ba15 O31 3.074835 1_555
Ba15 O31 3.074835 1_455
Ba15 O8 3.156709 1_555
Ba15 O6 3.215133 1_565
Ba15 O25 3.216674 1_455
Ba15 O25 3.216674 1_555
Ba15 O26 3.226225 1_565
Ba15 O26 3.226225 1_465
Bi0 O0 2.193426 1_655
Bi0 O0 2.193426 1_555
Bi0 O13 2.226655 1_545
Bi0 O21 2.226655 1_555
Bi0 O14 2.235499 1_554
Bi0 O18 2.247150 1_555
Bi1 O15 2.183841 1_555
Bi1 O1 2.198856 1_655
Bi1 O1 2.198856 1_555
Bi1 O28 2.238998 1_555
Bi1 O16 2.238998 1_545
Bi1 O18 2.282174 1_555
Bi2 O22 2.235463 1_554
Bi2 O21 2.251254 1_555
Bi2 O13 2.251254 1_555
Bi2 O29 2.271491 1_555
Bi3 O4 2.193055 1_555
Bi3 O4 2.193055 1_655
Bi3 O19 2.228938 1_555
Bi3 O17 2.236791 1_545
Bi3 O35 2.236791 1_555
Bi3 O20 2.249552 1_555
Bi4 O19 2.235248 1_555
Bi4 O24 2.252207 1_545
Bi4 O34 2.252207 1_555
Bi4 O15 2.273284 1_555
Bi5 O29 2.185741 1_555
Bi5 O2 2.198366 1_555
Bi5 O2 2.198366 1_655
Bi5 O28 2.238916 1_555
Bi5 O16 2.238916 1_555
Bi5 O23 2.276474 1_555
Bi6 O26 2.250842 1_555
Bi6 O36 2.254510 1_555
Bi6 O25 2.254510 1_545
Bi6 O33 2.256901 1_555
Bi7 O6 2.193766 1_655
Bi7 O6 2.193766 1_555
Bi7 O26 2.210906 1_555
Bi7 O39 2.236407 1_555
Bi7 O31 2.236407 1_545
Bi7 O20 2.259231 1_555
Bi8 O5 2.203879 1_655
Bi8 O5 2.203879 1_555
Bi8 O30 2.208469 1_555
Bi8 O35 2.240841 1_555
Bi8 O17 2.240841 1_555
Bi8 O37 2.278374 1_555
Bi9 O9 2.193083 1_555
Bi9 O9 2.193083 1_655
Bi9 O33 2.208971 1_555
Bi9 O32 2.247888 1_545
Bi9 O40 2.247888 1_555
Bi9 O27 2.271419 1_555
Bi10 O3 2.193581 1_655
Bi10 O3 2.193581 1_555
Bi10 O24 2.225933 1_555
Bi10 O34 2.225933 1_555
Bi10 O37 2.227755 1_555
Bi10 O23 2.254570 1_555
Bi11 O8 2.192911 1_555
Bi11 O8 2.192911 1_655
Bi11 O25 2.222886 1_555
Bi11 O36 2.222886 1_555
Bi11 O38 2.232631 1_555
Bi11 O41 2.239621 1_555
Bi12 O7 2.202486 1_655
Bi12 O7 2.202486 1_555
Bi12 O30 2.209078 1_555
Bi12 O31 2.241254 1_555
Bi12 O39 2.241254 1_555
Bi12 O38 2.272567 1_555
Bi13 O27 2.193842 1_555
Bi13 O10 2.197741 1_555
Bi13 O10 2.197741 1_655
Bi13 O43 2.225208 1_545
Bi13 O44 2.225208 1_555
Bi13 O14 2.261059 1_555
Bi14 O11 2.197528 1_655
Bi14 O11 2.197528 1_555
Bi14 O42 2.199865 1_555
Bi14 O40 2.229741 1_555
Bi14 O32 2.229741 1_555
Bi14 O41 2.261023 1_555
Bi15 O12 2.193181 1_655
Bi15 O12 2.193181 1_555
Bi15 O22 2.234710 1_555
Bi15 O44 2.252273 1_555
Bi15 O43 2.252273 1_555
Bi15 O42 2.261023 1_555
