# generated using pymatgen
data_Eu4Al2O9
_symmetry_space_group_name_H-M   'P 1'
_cell_length_a   10.72064977
_cell_length_b   7.64821107
_cell_length_c   11.17057140
_cell_angle_alpha   70.70475799
_cell_angle_beta   90.00000000
_cell_angle_gamma   90.00000000
_symmetry_Int_Tables_number   1
_chemical_formula_structural   Eu4Al2O9
_chemical_formula_sum   'Eu16 Al8 O36'
_cell_volume   864.46895321
_cell_formula_units_Z   4
loop_
 _symmetry_equiv_pos_site_id
 _symmetry_equiv_pos_as_xyz
  1  'x, y, z'
loop_
 _atom_site_type_symbol
 _atom_site_label
 _atom_site_symmetry_multiplicity
 _atom_site_fract_x
 _atom_site_fract_y
 _atom_site_fract_z
 _atom_site_occupancy
  Eu  Eu0  1  0.58866673  0.97475473  0.30729022  1
  Eu  Eu1  1  0.08866673  0.02524527  0.19270978  1
  Eu  Eu2  1  0.41133327  0.02524527  0.69270978  1
  Eu  Eu3  1  0.91133327  0.97475473  0.80729022  1
  Eu  Eu4  1  0.60251806  0.47496441  0.28778184  1
  Eu  Eu5  1  0.10251806  0.52503559  0.21221816  1
  Eu  Eu6  1  0.39748194  0.52503559  0.71221816  1
  Eu  Eu7  1  0.89748194  0.47496441  0.78778184  1
  Eu  Eu8  1  0.87276663  0.66632606  0.42996929  1
  Eu  Eu9  1  0.37276663  0.33367394  0.07003071  1
  Eu  Eu10  1  0.12723337  0.33367394  0.57003071  1
  Eu  Eu11  1  0.62723337  0.66632606  0.92996929  1
  Eu  Eu12  1  0.87633711  0.16266887  0.41555222  1
  Eu  Eu13  1  0.37633711  0.83733113  0.08444778  1
  Eu  Eu14  1  0.12366289  0.83733113  0.58444778  1
  Eu  Eu15  1  0.62366289  0.16266887  0.91555222  1
  Al  Al0  1  0.81189415  0.77780366  0.12909814  1
  Al  Al1  1  0.31189415  0.22219634  0.37090186  1
  Al  Al2  1  0.18810585  0.22219634  0.87090186  1
  Al  Al3  1  0.68810585  0.77780366  0.62909814  1
  Al  Al4  1  0.81476650  0.34816053  0.11801249  1
  Al  Al5  1  0.31476650  0.65183947  0.38198751  1
  Al  Al6  1  0.18523350  0.65183947  0.88198751  1
  Al  Al7  1  0.68523350  0.34816053  0.61801249  1
  O  O0  1  0.50698634  0.43107068  0.89644500  1
  O  O1  1  0.00698634  0.56892932  0.60355500  1
  O  O2  1  0.49301366  0.56892932  0.10355500  1
  O  O3  1  0.99301366  0.43107068  0.39644500  1
  O  O4  1  0.49638294  0.92482861  0.89533341  1
  O  O5  1  0.99638294  0.07517139  0.60466659  1
  O  O6  1  0.50361706  0.07517139  0.10466659  1
  O  O7  1  0.00361706  0.92482861  0.39533341  1
  O  O8  1  0.53136829  0.29785881  0.66977589  1
  O  O9  1  0.03136829  0.70214119  0.83022411  1
  O  O10  1  0.46863171  0.70214119  0.33022411  1
  O  O11  1  0.96863171  0.29785881  0.16977589  1
  O  O12  1  0.72934992  0.36292045  0.46391541  1
  O  O13  1  0.22934992  0.63707955  0.03608459  1
  O  O14  1  0.53159263  0.78420613  0.66790337  1
  O  O15  1  0.27065008  0.63707955  0.53608459  1
  O  O16  1  0.73745432  0.56567191  0.61769440  1
  O  O17  1  0.23745432  0.43432809  0.88230560  1
  O  O18  1  0.26254568  0.43432809  0.38230560  1
  O  O19  1  0.76254568  0.56567191  0.11769440  1
  O  O20  1  0.73393631  0.92150134  0.47956672  1
  O  O21  1  0.23393631  0.07849866  0.02043328  1
  O  O22  1  0.26606369  0.07849866  0.52043328  1
  O  O23  1  0.76606369  0.92150134  0.97956672  1
  O  O24  1  0.77485315  0.21514376  0.74744707  1
  O  O25  1  0.27485315  0.78485624  0.75255293  1
  O  O26  1  0.22514685  0.78485624  0.25255293  1
  O  O27  1  0.72514685  0.21514376  0.24744707  1
  O  O28  1  0.77316478  0.76849974  0.76611527  1
  O  O29  1  0.27316478  0.23150026  0.73388473  1
  O  O30  1  0.22683522  0.23150026  0.23388473  1
  O  O31  1  0.72683522  0.76849974  0.26611527  1
  O  O32  1  0.96840737  0.78420613  0.16790337  1
  O  O33  1  0.46840737  0.21579387  0.33209663  1
  O  O34  1  0.03159263  0.21579387  0.83209663  1
  O  O35  1  0.77065008  0.36292045  0.96391541  1
loop_
_geom_bond_atom_site_label_1
_geom_bond_atom_site_label_2
_geom_bond_distance
_geom_bond_site_symmetry_2
Eu0 O27 2.270619 1_565
Eu0 O31 2.318107 1_555
Eu0 O6 2.322813 1_565
Eu0 O33 2.339900 1_565
Eu0 O10 2.390788 1_555
Eu0 O20 2.403489 1_555
Eu1 O26 2.270619 1_545
Eu1 O30 2.318107 1_555
Eu1 O7 2.322813 1_545
Eu1 O32 2.339900 1_445
Eu1 O11 2.390788 1_455
Eu1 O21 2.403489 1_555
Eu2 O25 2.270619 1_545
Eu2 O29 2.318107 1_555
Eu2 O4 2.322813 1_545
Eu2 O14 2.339900 1_545
Eu2 O8 2.390788 1_555
Eu2 O22 2.403489 1_555
Eu3 O24 2.270619 1_565
Eu3 O28 2.318107 1_555
Eu3 O5 2.322813 1_565
Eu3 O34 2.339900 1_665
Eu3 O9 2.390788 1_655
Eu3 O23 2.403489 1_555
Eu4 O2 2.269865 1_555
Eu4 O12 2.310851 1_555
Eu4 O33 2.364910 1_555
Eu4 O10 2.418324 1_555
Eu4 O19 2.482614 1_555
Eu4 O27 2.543985 1_555
Eu4 O31 2.552617 1_555
Eu5 O3 2.269865 1_455
Eu5 O13 2.310851 1_555
Eu5 O32 2.364910 1_455
Eu5 O11 2.418324 1_455
Eu5 O18 2.482614 1_555
Eu5 O26 2.543985 1_555
Eu5 O30 2.552617 1_555
Eu6 O0 2.269865 1_555
Eu6 O15 2.310851 1_555
Eu6 O14 2.364910 1_555
Eu6 O8 2.418324 1_555
Eu6 O17 2.482614 1_555
Eu6 O25 2.543985 1_555
Eu6 O29 2.552617 1_555
Eu7 O1 2.269865 1_655
Eu7 O35 2.310851 1_555
Eu7 O34 2.364910 1_655
Eu7 O9 2.418324 1_655
Eu7 O16 2.482614 1_555
Eu7 O24 2.543985 1_555
Eu7 O28 2.552617 1_555
Eu8 O1 2.330394 1_655
Eu8 O31 2.337339 1_555
Eu8 O3 2.341966 1_555
Eu8 O7 2.349654 1_655
Eu8 O16 2.455099 1_555
Eu8 O20 2.654354 1_555
Eu8 O12 2.703887 1_555
Eu8 O32 2.947835 1_555
Eu9 O0 2.330394 1_554
Eu9 O30 2.337339 1_555
Eu9 O2 2.341966 1_555
Eu9 O6 2.349654 1_555
Eu9 O17 2.455099 1_554
Eu9 O21 2.654354 1_555
Eu9 O13 2.703887 1_555
Eu9 O33 2.947835 1_555
Eu10 O3 2.330394 1_455
Eu10 O29 2.337339 1_555
Eu10 O1 2.341966 1_555
Eu10 O5 2.349654 1_455
Eu10 O18 2.455099 1_555
Eu10 O22 2.654354 1_555
Eu10 O15 2.703887 1_555
Eu10 O34 2.947835 1_555
Eu11 O2 2.330394 1_556
Eu11 O28 2.337339 1_555
Eu11 O0 2.341966 1_555
Eu11 O4 2.349654 1_555
Eu11 O19 2.455099 1_556
Eu11 O23 2.654354 1_555
Eu11 O35 2.703887 1_555
Eu11 O14 2.947835 1_555
Eu12 O20 2.317854 1_545
Eu12 O7 2.343801 1_645
Eu12 O3 2.352569 1_555
Eu12 O5 2.373303 1_555
Eu12 O12 2.380655 1_555
Eu12 O27 2.411729 1_555
Eu12 O11 2.776625 1_555
Eu13 O21 2.317854 1_565
Eu13 O6 2.343801 1_565
Eu13 O2 2.352569 1_555
Eu13 O4 2.373303 1_554
Eu13 O13 2.380655 1_555
Eu13 O26 2.411729 1_555
Eu13 O10 2.776625 1_555
Eu14 O22 2.317854 1_565
Eu14 O5 2.343801 1_465
Eu14 O1 2.352569 1_555
Eu14 O7 2.373303 1_555
Eu14 O15 2.380655 1_555
Eu14 O25 2.411729 1_555
Eu14 O9 2.776625 1_555
Eu15 O23 2.317854 1_545
Eu15 O4 2.343801 1_545
Eu15 O0 2.352569 1_555
Eu15 O6 2.373303 1_556
Eu15 O35 2.380655 1_555
Eu15 O24 2.411729 1_555
Eu15 O8 2.776625 1_555
Al0 O32 1.737744 1_555
Al0 O23 1.739581 1_554
Al0 O19 1.750708 1_555
Al0 O31 1.762736 1_555
Al1 O33 1.737744 1_555
Al1 O22 1.739581 1_555
Al1 O18 1.750708 1_555
Al1 O30 1.762736 1_555
Al2 O34 1.737744 1_555
Al2 O21 1.739581 1_556
Al2 O17 1.750708 1_555
Al2 O29 1.762736 1_555
Al3 O14 1.737744 1_555
Al3 O20 1.739581 1_555
Al3 O16 1.750708 1_555
Al3 O28 1.762736 1_555
Al4 O11 1.748229 1_555
Al4 O35 1.752446 1_554
Al4 O27 1.753993 1_555
Al4 O19 1.754139 1_555
Al5 O10 1.748229 1_555
Al5 O15 1.752446 1_555
Al5 O26 1.753993 1_555
Al5 O18 1.754139 1_555
Al6 O9 1.748229 1_555
Al6 O13 1.752446 1_556
Al6 O25 1.753993 1_555
Al6 O17 1.754139 1_555
Al7 O8 1.748229 1_555
Al7 O12 1.752446 1_555
Al7 O24 1.753993 1_555
Al7 O16 1.754139 1_555
