# generated using pymatgen
data_Sc5(Co2Si5)2
_symmetry_space_group_name_H-M   'P 1'
_cell_length_a   11.95411681
_cell_length_b   11.95413612
_cell_length_c   3.91872320
_cell_angle_alpha   90.00000677
_cell_angle_beta   90.00000261
_cell_angle_gamma   89.99945552
_symmetry_Int_Tables_number   1
_chemical_formula_structural   Sc5(Co2Si5)2
_chemical_formula_sum   'Sc10 Co8 Si20'
_cell_volume   559.99001081
_cell_formula_units_Z   2
loop_
 _symmetry_equiv_pos_site_id
 _symmetry_equiv_pos_as_xyz
  1  'x, y, z'
loop_
 _atom_site_type_symbol
 _atom_site_label
 _atom_site_symmetry_multiplicity
 _atom_site_fract_x
 _atom_site_fract_y
 _atom_site_fract_z
 _atom_site_occupancy
  Sc  Sc0  1  -0.00001178  -0.00000625  -0.00000012  1
  Sc  Sc1  1  0.50000092  0.50000840  0.00000001  1
  Sc  Sc2  1  0.67651271  0.17650007  0.49999968  1
  Sc  Sc3  1  0.17647788  0.32351820  0.50000052  1
  Sc  Sc4  1  0.82352127  0.67648950  0.49999998  1
  Sc  Sc5  1  0.32349274  0.82349221  0.50000002  1
  Sc  Sc6  1  0.88856867  0.38856564  0.49999958  1
  Sc  Sc7  1  0.38854390  0.11145437  0.49999997  1
  Sc  Sc8  1  0.61146561  0.88854052  0.49999991  1
  Sc  Sc9  1  0.11142822  0.61143904  0.50000030  1
  Co  Co0  1  0.52478982  0.25452690  0.00000006  1
  Co  Co1  1  0.25451533  0.47521212  -0.00000017  1
  Co  Co2  1  0.74548533  0.52479269  0.00000018  1
  Co  Co3  1  0.47521195  0.74547228  -0.00000013  1
  Co  Co4  1  0.97520768  0.75451749  0.00000014  1
  Co  Co5  1  0.02478758  0.24548279  -0.00000013  1
  Co  Co6  1  0.75453012  0.02478761  -0.00000001  1
  Co  Co7  1  0.24546977  0.97520984  0.00000030  1
  Si  Si0  1  0.56841670  0.06840811  -0.00000012  1
  Si  Si1  1  0.06840349  0.43159389  -0.00000001  1
  Si  Si2  1  0.93159378  0.56841246  0.00000008  1
  Si  Si3  1  0.43159053  0.93158574  -0.00000004  1
  Si  Si4  1  0.19844426  0.15610400  0.00000004  1
  Si  Si5  1  0.15608576  0.80153253  -0.00000012  1
  Si  Si6  1  0.84391116  0.19846396  0.00000012  1
  Si  Si7  1  0.80155415  0.84389478  0.00000004  1
  Si  Si8  1  0.30153230  0.65609293  -0.00000004  1
  Si  Si9  1  0.69846984  0.34391024  -0.00000003  1
  Si  Si10  1  0.65610830  0.69845177  0.00000000  1
  Si  Si11  1  0.34389444  0.30155004  0.00000001  1
  Si  Si12  1  0.00149515  0.16535400  0.49999981  1
  Si  Si13  1  0.16533620  0.99850489  0.50000024  1
  Si  Si14  1  0.83465967  0.00149316  0.49999995  1
  Si  Si15  1  0.99850207  0.83464285  0.50000005  1
  Si  Si16  1  0.49850557  0.66534135  0.49999988  1
  Si  Si17  1  0.50149360  0.33465905  0.50000006  1
  Si  Si18  1  0.66535892  0.50149583  0.50000006  1
  Si  Si19  1  0.33464438  0.49850700  0.49999992  1
loop_
_geom_bond_atom_site_label_1
_geom_bond_atom_site_label_2
_geom_bond_distance
_geom_bond_site_symmetry_2
Sc0 Si14 2.783056 1_454
Sc0 Si14 2.783057 1_455
Sc0 Si13 2.783220 1_544
Sc0 Si13 2.783222 1_545
Sc0 Si15 2.783247 1_444
Sc0 Si15 2.783249 1_445
Sc0 Si12 2.783329 1_555
Sc0 Si12 2.783329 1_554
Sc0 Si7 3.018116 1_445
Sc0 Si6 3.018267 1_455
Sc0 Si5 3.018334 1_545
Sc0 Si4 3.018406 1_555
Sc1 Si16 2.783095 1_555
Sc1 Si16 2.783097 1_554
Sc1 Si17 2.783235 1_554
Sc1 Si17 2.783235 1_555
Sc1 Si19 2.783295 1_555
Sc1 Si19 2.783295 1_554
Sc1 Si18 2.783306 1_554
Sc1 Si18 2.783306 1_555
Sc1 Si10 3.018267 1_555
Sc1 Si8 3.018306 1_555
Sc1 Si11 3.018401 1_555
Sc1 Si9 3.018409 1_555
Sc2 Si0 2.679278 1_555
Sc2 Si0 2.679279 1_556
Sc2 Si6 2.812906 1_555
Sc2 Si6 2.812909 1_556
Sc2 Si9 2.813001 1_555
Sc2 Si9 2.813003 1_556
Sc2 Si14 2.819688 1_555
Sc2 Si17 2.819892 1_555
Sc3 Si1 2.679046 1_556
Sc3 Si1 2.679050 1_555
Sc3 Si4 2.813042 1_556
Sc3 Si4 2.813044 1_555
Sc3 Si11 2.813061 1_556
Sc3 Si11 2.813064 1_555
Sc3 Si12 2.819638 1_555
Sc3 Si19 2.819711 1_555
Sc4 Si2 2.679045 1_555
Sc4 Si2 2.679045 1_556
Sc4 Si7 2.812968 1_555
Sc4 Si7 2.812968 1_556
Sc4 Si10 2.813026 1_555
Sc4 Si10 2.813026 1_556
Sc4 Si15 2.819534 1_555
Sc4 Si18 2.819721 1_555
Sc5 Si3 2.679297 1_556
Sc5 Si3 2.679298 1_555
Sc5 Si8 2.812913 1_555
Sc5 Si8 2.812913 1_556
Sc5 Si5 2.812975 1_556
Sc5 Si5 2.812976 1_555
Sc5 Si16 2.819772 1_555
Sc5 Si13 2.819816 1_555
Sc6 Si1 2.953842 1_655
Sc6 Si1 2.953844 1_656
Sc6 Si2 2.953942 1_555
Sc6 Si2 2.953944 1_556
Sc6 Si18 2.990331 1_555
Sc6 Si12 2.990334 1_655
Sc6 Si9 3.047649 1_555
Sc6 Si9 3.047651 1_556
Sc6 Si6 3.047681 1_555
Sc6 Si6 3.047684 1_556
Sc7 Si3 2.954170 1_545
Sc7 Si3 2.954171 1_546
Sc7 Si0 2.954203 1_556
Sc7 Si0 2.954204 1_555
Sc7 Si17 2.990408 1_555
Sc7 Si13 2.990436 1_545
Sc7 Si11 3.047605 1_556
Sc7 Si11 3.047605 1_555
Sc7 Si4 3.047638 1_555
Sc7 Si4 3.047638 1_556
Sc8 Si0 2.954166 1_566
Sc8 Si0 2.954166 1_565
Sc8 Si3 2.954221 1_555
Sc8 Si3 2.954221 1_556
Sc8 Si14 2.990308 1_565
Sc8 Si16 2.990405 1_555
Sc8 Si10 3.047528 1_555
Sc8 Si10 3.047529 1_556
Sc8 Si7 3.047530 1_555
Sc8 Si7 3.047531 1_556
Sc9 Si2 2.953835 1_456
Sc9 Si2 2.953836 1_455
Sc9 Si1 2.953927 1_556
Sc9 Si1 2.953928 1_555
Sc9 Si15 2.990249 1_455
Sc9 Si19 2.990409 1_555
Sc9 Si5 3.047608 1_556
Sc9 Si5 3.047611 1_555
Sc9 Si8 3.047693 1_556
Sc9 Si8 3.047695 1_555
Co0 Si17 2.198690 1_555
Co0 Si17 2.198691 1_554
Co0 Si11 2.234306 1_555
Co0 Si0 2.285190 1_555
Co0 Si9 2.335017 1_555
Co0 Sc2 2.828184 1_555
Co0 Sc2 2.828186 1_554
Co0 Sc1 2.949440 1_555
Co0 Sc7 3.068708 1_555
Co0 Sc7 3.068708 1_554
Co1 Si19 2.198674 1_554
Co1 Si19 2.198674 1_555
Co1 Si8 2.234132 1_555
Co1 Si1 2.285092 1_555
Co1 Si11 2.334788 1_555
Co1 Sc3 2.828016 1_554
Co1 Sc3 2.828020 1_555
Co1 Sc1 2.949499 1_555
Co1 Sc9 3.068666 1_554
Co1 Sc9 3.068668 1_555
Co2 Si18 2.198663 1_555
Co2 Si18 2.198664 1_554
Co2 Si9 2.234147 1_555
Co2 Si2 2.285057 1_555
Co2 Si10 2.334744 1_555
Co2 Sc4 2.828033 1_555
Co2 Sc4 2.828035 1_554
Co2 Sc1 2.949470 1_555
Co2 Sc6 3.068641 1_555
Co2 Sc6 3.068644 1_554
Co3 Si16 2.198680 1_554
Co3 Si16 2.198680 1_555
Co3 Si10 2.234309 1_555
Co3 Si3 2.285113 1_555
Co3 Si8 2.334992 1_555
Co3 Sc5 2.828129 1_554
Co3 Sc5 2.828130 1_555
Co3 Sc1 2.949231 1_555
Co3 Sc8 3.068728 1_555
Co3 Sc8 3.068729 1_554
Co4 Si15 2.198654 1_555
Co4 Si15 2.198655 1_554
Co4 Si5 2.234092 1_655
Co4 Si2 2.285004 1_555
Co4 Si7 2.334685 1_555
Co4 Sc4 2.827921 1_555
Co4 Sc4 2.827922 1_554
Co4 Sc0 2.949374 1_665
Co4 Sc9 3.068569 1_654
Co4 Sc9 3.068570 1_655
Co5 Si12 2.198669 1_555
Co5 Si12 2.198670 1_554
Co5 Si6 2.234084 1_455
Co5 Si1 2.285080 1_555
Co5 Si4 2.334726 1_555
Co5 Sc3 2.827979 1_554
Co5 Sc3 2.827982 1_555
Co5 Sc0 2.949548 1_555
Co5 Sc6 3.068587 1_455
Co5 Sc6 3.068589 1_454
Co6 Si14 2.198674 1_555
Co6 Si14 2.198674 1_554
Co6 Si7 2.234282 1_545
Co6 Si0 2.285107 1_555
Co6 Si6 2.334968 1_555
Co6 Sc2 2.828068 1_555
Co6 Sc2 2.828070 1_554
Co6 Sc0 2.949163 1_655
Co6 Sc8 3.068662 1_545
Co6 Sc8 3.068662 1_544
Co7 Si13 2.198695 1_555
Co7 Si13 2.198696 1_554
Co7 Si4 2.234302 1_565
Co7 Si3 2.285202 1_555
Co7 Si5 2.334994 1_555
Co7 Sc5 2.828130 1_555
Co7 Sc5 2.828132 1_554
Co7 Sc0 2.949430 1_565
Co7 Sc7 3.068709 1_565
Co7 Sc7 3.068711 1_564
Si0 Si3 2.313119 1_545
Si1 Si2 2.312926 1_455
Si5 Si8 2.458803 1_555
Si6 Si9 2.458816 1_555
Si10 Si7 2.458850 1_555
Si10 Si16 2.746859 1_555
Si10 Si16 2.746860 1_554
Si11 Si4 2.458912 1_555
Si11 Si17 2.746828 1_554
Si11 Si17 2.746828 1_555
Si12 Si6 2.746699 1_455
Si12 Si6 2.746701 1_456
Si12 Si13 2.795375 1_545
Si12 Si14 2.795451 1_455
Si13 Si4 2.746827 1_566
Si13 Si4 2.746828 1_565
Si13 Si15 2.795449 1_455
Si14 Si7 2.746817 1_545
Si14 Si7 2.746818 1_546
Si14 Si15 2.795396 1_545
Si15 Si5 2.746697 1_656
Si15 Si5 2.746698 1_655
Si16 Si19 2.795444 1_555
Si16 Si18 2.795448 1_555
Si17 Si19 2.795433 1_555
Si17 Si18 2.795499 1_555
Si18 Si9 2.746716 1_556
Si18 Si9 2.746717 1_555
Si19 Si8 2.746721 1_556
Si19 Si8 2.746721 1_555
