# generated using pymatgen
data_BaH2N2O5
_symmetry_space_group_name_H-M   'P 1'
_cell_length_a   7.17570900
_cell_length_b   7.17570900
_cell_length_c   18.22568300
_cell_angle_alpha   90.00000000
_cell_angle_beta   90.00000000
_cell_angle_gamma   119.99999082
_symmetry_Int_Tables_number   1
_chemical_formula_structural   BaH2N2O5
_chemical_formula_sum   'Ba6 H12 N12 O30'
_cell_volume   812.72593938
_cell_formula_units_Z   6
loop_
 _symmetry_equiv_pos_site_id
 _symmetry_equiv_pos_as_xyz
  1  'x, y, z'
loop_
 _atom_site_type_symbol
 _atom_site_label
 _atom_site_symmetry_multiplicity
 _atom_site_fract_x
 _atom_site_fract_y
 _atom_site_fract_z
 _atom_site_occupancy
  Ba  Ba0  1  0.85703300  0.43158700  0.99800800  1
  Ba  Ba1  1  0.42544600  0.85703300  0.16467400  1
  Ba  Ba2  1  0.43158700  0.57455400  0.83134100  1
  Ba  Ba3  1  0.56841300  0.42544600  0.33134100  1
  Ba  Ba4  1  0.57455400  0.14296700  0.66467400  1
  Ba  Ba5  1  0.14296700  0.56841300  0.49800800  1
  H  H0  1  0.02702900  0.17026900  0.37849900  1
  H  H1  1  0.85676000  0.02702900  0.54516500  1
  H  H2  1  0.17026900  0.14324000  0.21183200  1
  H  H3  1  0.82973100  0.85676000  0.71183200  1
  H  H4  1  0.14324000  0.97297100  0.04516500  1
  H  H5  1  0.97297100  0.82973100  0.87849900  1
  H  H6  1  0.14587700  0.10384000  0.43526900  1
  H  H7  1  0.04203700  0.14587700  0.60193600  1
  H  H8  1  0.10384000  0.95796300  0.26860300  1
  H  H9  1  0.89616000  0.04203700  0.76860300  1
  H  H10  1  0.95796300  0.85412300  0.10193600  1
  H  H11  1  0.85412300  0.89616000  0.93526900  1
  N  N0  1  0.03678200  0.24669500  0.14530300  1
  N  N1  1  0.79008700  0.03678200  0.31196900  1
  N  N2  1  0.24669500  0.20991300  0.97863600  1
  N  N3  1  0.75330500  0.79008700  0.47863600  1
  N  N4  1  0.20991300  0.96321800  0.81196900  1
  N  N5  1  0.96321800  0.75330500  0.64530300  1
  N  N6  1  0.12486000  0.57047800  0.32506300  1
  N  N7  1  0.55438200  0.12486000  0.49172900  1
  N  N8  1  0.57047800  0.44561800  0.15839600  1
  N  N9  1  0.42952200  0.55438200  0.65839600  1
  N  N10  1  0.44561800  0.87514000  0.99172900  1
  N  N11  1  0.87514000  0.42952200  0.82506300  1
  O  O0  1  0.10531200  0.43787400  0.12332400  1
  O  O1  1  0.66743800  0.10531200  0.28999000  1
  O  O2  1  0.43787400  0.33256200  0.95665700  1
  O  O3  1  0.56212600  0.66743800  0.45665700  1
  O  O4  1  0.33256200  0.89468800  0.78999000  1
  O  O5  1  0.89468800  0.56212600  0.62332400  1
  O  O6  1  0.86827300  0.10500700  0.11289400  1
  O  O7  1  0.76326600  0.86827300  0.27956000  1
  O  O8  1  0.10500700  0.23673400  0.94622700  1
  O  O9  1  0.89499300  0.76326600  0.44622700  1
  O  O10  1  0.23673400  0.13172700  0.77956000  1
  O  O11  1  0.13172700  0.89499300  0.61289400  1
  O  O12  1  0.29700300  0.59605700  0.29553700  1
  O  O13  1  0.70094600  0.29700300  0.46220400  1
  O  O14  1  0.59605700  0.29905400  0.12887100  1
  O  O15  1  0.40394300  0.70094600  0.62887100  1
  O  O16  1  0.29905400  0.70299700  0.96220400  1
  O  O17  1  0.70299700  0.40394300  0.79553700  1
  O  O18  1  0.01087500  0.61757000  0.28477800  1
  O  O19  1  0.39330500  0.01087500  0.45144400  1
  O  O20  1  0.61757000  0.60669500  0.11811100  1
  O  O21  1  0.38243000  0.39330500  0.61811100  1
  O  O22  1  0.60669500  0.98912500  0.95144400  1
  O  O23  1  0.98912500  0.38243000  0.78477800  1
  O  O24  1  0.15454700  0.23100000  0.41172700  1
  O  O25  1  0.92354700  0.15454700  0.57839400  1
  O  O26  1  0.23100000  0.07645300  0.24506000  1
  O  O27  1  0.76900000  0.92354700  0.74506000  1
  O  O28  1  0.07645300  0.84545300  0.07839400  1
  O  O29  1  0.84545300  0.76900000  0.91172700  1
loop_
_geom_bond_atom_site_label_1
_geom_bond_atom_site_label_2
_geom_bond_distance
_geom_bond_site_symmetry_2
Ba0 O2 2.825297 1_555
Ba0 O16 2.846388 1_655
Ba0 O0 2.883088 1_656
Ba0 O14 2.884265 1_556
Ba0 O22 2.885172 1_545
Ba0 O8 2.915445 1_655
Ba0 O29 2.922848 1_555
Ba0 O28 2.961287 1_656
Ba0 N11 3.155057 1_555
Ba0 O6 3.173572 1_556
Ba0 O20 3.388527 1_556
Ba1 O0 2.825293 1_555
Ba1 O14 2.846383 1_565
Ba1 O1 2.883089 1_565
Ba1 O12 2.884265 1_555
Ba1 O20 2.885166 1_555
Ba1 O6 2.915440 1_565
Ba1 O28 2.922839 1_555
Ba1 O26 2.961287 1_565
Ba1 N10 3.155057 1_554
Ba1 O7 3.173572 1_555
Ba1 O18 3.388539 1_555
Ba2 O4 2.825297 1_555
Ba2 O17 2.846387 1_555
Ba2 O2 2.883088 1_555
Ba2 O16 2.884265 1_555
Ba2 O23 2.885167 1_455
Ba2 O10 2.915446 1_555
Ba2 O27 2.922849 1_555
Ba2 O29 2.961287 1_555
Ba2 N9 3.155057 1_555
Ba2 O8 3.173572 1_555
Ba2 O22 3.388527 1_555
Ba3 O1 2.825297 1_555
Ba3 O12 2.846387 1_555
Ba3 O3 2.883088 1_555
Ba3 O13 2.884265 1_555
Ba3 O18 2.885167 1_655
Ba3 O7 2.915446 1_555
Ba3 O26 2.922849 1_555
Ba3 O24 2.961287 1_555
Ba3 N8 3.155057 1_555
Ba3 O9 3.173572 1_555
Ba3 O19 3.388527 1_555
Ba4 O5 2.825293 1_555
Ba4 O15 2.846383 1_545
Ba4 O4 2.883089 1_545
Ba4 O17 2.884265 1_555
Ba4 O21 2.885166 1_555
Ba4 O11 2.915440 1_545
Ba4 O25 2.922839 1_555
Ba4 O27 2.961287 1_545
Ba4 N7 3.155057 1_555
Ba4 O10 3.173572 1_555
Ba4 O23 3.388539 1_555
Ba5 O3 2.825297 1_555
Ba5 O13 2.846388 1_455
Ba5 O5 2.883088 1_455
Ba5 O15 2.884265 1_555
Ba5 O19 2.885172 1_565
Ba5 O9 2.915445 1_455
Ba5 O24 2.922848 1_555
Ba5 O25 2.961287 1_455
Ba5 N6 3.155057 1_555
Ba5 O11 3.173572 1_555
Ba5 O21 3.388527 1_555
H0 O24 0.997592 1_555
H1 O25 0.997603 1_555
H2 O26 0.997592 1_555
H3 O27 0.997592 1_555
H4 O28 0.997603 1_555
H5 O29 0.997592 1_555
H6 O24 0.981729 1_555
H7 O25 0.981729 1_455
H8 O26 0.981737 1_565
H9 O27 0.981737 1_545
H10 O28 0.981729 1_655
H11 O29 0.981729 1_555
N0 O0 1.268715 1_555
N0 O6 1.270952 1_455
N1 O1 1.268715 1_555
N1 O7 1.270952 1_545
N2 O2 1.268715 1_555
N2 O8 1.270952 1_555
N3 O3 1.268715 1_555
N3 O9 1.270952 1_555
N4 O4 1.268715 1_555
N4 O10 1.270952 1_565
N5 O5 1.268715 1_555
N5 O11 1.270952 1_655
N6 O18 1.264381 1_555
N6 O12 1.273729 1_555
N7 O19 1.264381 1_555
N7 O13 1.273722 1_555
N8 O20 1.264381 1_555
N8 O14 1.273722 1_555
N9 O21 1.264381 1_555
N9 O15 1.273722 1_555
N10 O22 1.264381 1_555
N10 O16 1.273722 1_555
N11 O23 1.264381 1_555
N11 O17 1.273729 1_555
