# generated using pymatgen
data_Ho4Ga21Ni10
_symmetry_space_group_name_H-M   'P 1'
_cell_length_a   10.65149510
_cell_length_b   10.65149510
_cell_length_c   15.43431294
_cell_angle_alpha   55.86225132
_cell_angle_beta   55.86225132
_cell_angle_gamma   22.01871847
_symmetry_Int_Tables_number   1
_chemical_formula_structural   Ho4Ga21Ni10
_chemical_formula_sum   'Ho4 Ga21 Ni10'
_cell_volume   538.63116945
_cell_formula_units_Z   1
loop_
 _symmetry_equiv_pos_site_id
 _symmetry_equiv_pos_as_xyz
  1  'x, y, z'
loop_
 _atom_site_type_symbol
 _atom_site_label
 _atom_site_symmetry_multiplicity
 _atom_site_fract_x
 _atom_site_fract_y
 _atom_site_fract_z
 _atom_site_occupancy
  Ho  Ho0  1  0.23242300  0.23242300  0.67743500  1
  Ho  Ho1  1  0.88198700  0.88198700  0.83303500  1
  Ho  Ho2  1  0.11801300  0.11801300  0.16696500  1
  Ho  Ho3  1  0.76757700  0.76757700  0.32256500  1
  Ga  Ga0  1  0.88324300  0.88324300  0.05225900  1
  Ga  Ga1  1  0.99492600  0.99492600  0.59105900  1
  Ga  Ga2  1  0.38424500  0.38424500  0.20437400  1
  Ga  Ga3  1  0.70284200  0.70284200  0.99823500  1
  Ga  Ga4  1  0.79771600  0.79771600  0.50394800  1
  Ga  Ga5  1  0.37669200  0.37669200  0.69410200  1
  Ga  Ga6  1  0.61575500  0.61575500  0.79562600  1
  Ga  Ga7  1  0.39855400  0.39855400  0.49635200  1
  Ga  Ga8  1  0.62330800  0.62330800  0.30589800  1
  Ga  Ga9  1  0.75428900  0.75428900  0.79467800  1
  Ga  Ga10  1  0.00507400  0.00507400  0.40894100  1
  Ga  Ga11  1  0.93258200  0.93258200  0.29551400  1
  Ga  Ga12  1  0.20228400  0.20228400  0.49605200  1
  Ga  Ga13  1  0.06741800  0.06741800  0.70448600  1
  Ga  Ga14  1  0.50000000  0.50000000  0.00000000  1
  Ga  Ga15  1  0.54029000  0.54029000  0.12924400  1
  Ga  Ga16  1  0.11675700  0.11675700  0.94774100  1
  Ga  Ga17  1  0.29715800  0.29715800  0.00176500  1
  Ga  Ga18  1  0.45971000  0.45971000  0.87075600  1
  Ga  Ga19  1  0.60144600  0.60144600  0.50364800  1
  Ga  Ga20  1  0.24571100  0.24571100  0.20532200  1
  Ni  Ni0  1  0.49945100  0.49945100  0.68759600  1
  Ni  Ni1  1  0.02467600  0.02467600  0.89336700  1
  Ni  Ni2  1  0.97532400  0.97532400  0.10663300  1
  Ni  Ni3  1  0.34514800  0.34514800  0.38922500  1
  Ni  Ni4  1  0.86950700  0.86950700  0.60337900  1
  Ni  Ni5  1  0.24983700  0.24983700  0.88636300  1
  Ni  Ni6  1  0.75016300  0.75016300  0.11363700  1
  Ni  Ni7  1  0.13049300  0.13049300  0.39662100  1
  Ni  Ni8  1  0.65485200  0.65485200  0.61077500  1
  Ni  Ni9  1  0.50054900  0.50054900  0.31240400  1
loop_
_geom_bond_atom_site_label_1
_geom_bond_atom_site_label_2
_geom_bond_distance
_geom_bond_site_symmetry_2
Ho0 Ni8 3.120177 1_455
Ho0 Ni8 3.120177 1_545
Ho0 Ni4 3.148781 1_455
Ho0 Ni4 3.148781 1_545
Ho1 Ni0 2.984183 1_565
Ho1 Ni0 2.984183 1_655
Ho1 Ni5 3.138575 1_655
Ho1 Ni5 3.138575 1_565
Ho2 Ni9 2.984183 1_545
Ho2 Ni9 2.984183 1_455
Ho2 Ni6 3.138575 1_455
Ho2 Ni6 3.138575 1_545
Ho3 Ni3 3.120177 1_565
Ho3 Ni3 3.120177 1_655
Ho3 Ni7 3.148781 1_655
Ho3 Ni7 3.148781 1_565
Ga0 Ni6 2.372179 1_555
Ga0 Ni2 2.501903 1_555
Ga0 Ni1 2.543207 1_664
Ga0 Ga14 2.915030 1_655
Ga0 Ga14 2.915030 1_565
Ga0 Ho1 3.398655 1_554
Ga1 Ni4 2.518754 1_555
Ga1 Ni0 2.554957 1_655
Ga1 Ni0 2.554957 1_565
Ga1 Ga10 2.695177 1_665
Ga1 Ni7 2.704614 1_665
Ga1 Ga19 2.735533 1_565
Ga1 Ga19 2.735533 1_655
Ga1 Ga5 2.878135 1_565
Ga1 Ga5 2.878135 1_655
Ga1 Ga13 2.897774 1_665
Ga1 Ho1 3.072553 1_555
Ga2 Ni3 2.478153 1_555
Ga2 Ni2 2.599133 1_545
Ga2 Ni2 2.599133 1_455
Ga2 Ho3 2.885915 1_545
Ga2 Ho3 2.885915 1_455
Ga2 Ga20 2.888535 1_555
Ga3 Ni5 2.478819 1_565
Ga3 Ni5 2.478819 1_655
Ga3 Ni6 2.483328 1_556
Ga3 Ga9 2.676450 1_555
Ga3 Ho2 2.963808 1_656
Ga3 Ho2 2.963808 1_566
Ga3 Ho1 3.100484 1_555
Ga4 Ni8 2.451766 1_555
Ga4 Ni3 2.499707 1_565
Ga4 Ni3 2.499707 1_655
Ga4 Ni4 2.691289 1_555
Ga4 Ga7 2.883564 1_565
Ga4 Ga7 2.883564 1_655
Ga4 Ho0 2.998561 1_655
Ga4 Ho0 2.998561 1_565
Ga4 Ho3 3.201860 1_555
Ga5 Ni0 2.510949 1_555
Ga5 Ni4 2.522185 1_545
Ga5 Ni4 2.522185 1_455
Ga5 Ni5 2.615671 1_555
Ga5 Ga7 2.815869 1_555
Ga5 Ga9 2.924992 1_545
Ga5 Ga9 2.924992 1_455
Ga5 Ho1 3.003250 1_545
Ga5 Ho1 3.003250 1_455
Ga5 Ho0 3.170899 1_555
Ga6 Ni8 2.478153 1_555
Ga6 Ni1 2.599133 1_565
Ga6 Ni1 2.599133 1_655
Ga6 Ho0 2.885915 1_565
Ga6 Ho0 2.885915 1_655
Ga6 Ga9 2.888535 1_555
Ga7 Ni9 2.384480 1_555
Ga7 Ni4 2.467391 1_455
Ga7 Ni4 2.467391 1_545
Ga7 Ni3 2.468263 1_555
Ga7 Ho0 2.962771 1_555
Ga8 Ni9 2.510949 1_555
Ga8 Ni7 2.522185 1_655
Ga8 Ni7 2.522185 1_565
Ga8 Ni6 2.615671 1_555
Ga8 Ho2 3.003250 1_565
Ga8 Ho2 3.003250 1_655
Ga8 Ho3 3.170899 1_555
Ga9 Ni5 2.449108 1_655
Ga9 Ni5 2.449108 1_565
Ga9 Ni4 2.527569 1_555
Ga9 Ho0 2.926987 1_655
Ga9 Ho0 2.926987 1_565
Ga9 Ho1 3.047697 1_555
Ga10 Ni7 2.518754 1_555
Ga10 Ni9 2.554957 1_545
Ga10 Ni9 2.554957 1_455
Ga10 Ni4 2.704614 1_445
Ga10 Ga7 2.735533 1_455
Ga10 Ga7 2.735533 1_545
Ga10 Ga8 2.878135 1_545
Ga10 Ga8 2.878135 1_455
Ga10 Ga11 2.897774 1_445
Ga10 Ho2 3.072553 1_555
Ga11 Ni2 2.513615 1_555
Ga11 Ni3 2.559038 1_655
Ga11 Ni3 2.559038 1_565
Ga11 Ni9 2.578595 1_565
Ga11 Ni9 2.578595 1_655
Ga11 Ga4 2.815844 1_555
Ga11 Ho2 3.189859 1_665
Ga12 Ni3 2.451766 1_555
Ga12 Ni8 2.499707 1_545
Ga12 Ni8 2.499707 1_455
Ga12 Ni7 2.691289 1_555
Ga12 Ga13 2.815844 1_555
Ga12 Ga19 2.883564 1_545
Ga12 Ga19 2.883564 1_455
Ga12 Ga4 2.900489 1_545
Ga12 Ga4 2.900489 1_455
Ga12 Ho3 2.998561 1_455
Ga12 Ho3 2.998561 1_545
Ga12 Ho0 3.201860 1_555
Ga13 Ni1 2.513615 1_555
Ga13 Ni8 2.559038 1_455
Ga13 Ni8 2.559038 1_545
Ga13 Ni0 2.578595 1_545
Ga13 Ni0 2.578595 1_455
Ga13 Ho1 3.189859 1_445
Ga14 Ni2 2.478207 1_545
Ga14 Ni1 2.478207 1_564
Ga14 Ni1 2.478207 1_654
Ga14 Ni2 2.478207 1_455
Ga14 Ga18 2.571117 1_554
Ga14 Ga15 2.571117 1_555
Ga14 Ga6 2.660603 1_554
Ga14 Ga2 2.660603 1_555
Ga14 Ga16 2.915030 1_654
Ga14 Ga16 2.915030 1_564
Ga15 Ni9 2.448687 1_555
Ga15 Ni2 2.578177 1_455
Ga15 Ni2 2.578177 1_545
Ga15 Ho2 2.863555 1_655
Ga15 Ho2 2.863555 1_565
Ga16 Ni5 2.372179 1_555
Ga16 Ni1 2.501903 1_555
Ga16 Ni2 2.543207 1_446
Ga16 Ho2 3.398655 1_556
Ga17 Ni6 2.478819 1_455
Ga17 Ni6 2.478819 1_545
Ga17 Ni5 2.483328 1_554
Ga17 Ga20 2.676450 1_555
Ga17 Ho1 2.963808 1_544
Ga17 Ho1 2.963808 1_454
Ga17 Ho2 3.100484 1_555
Ga18 Ni0 2.448687 1_555
Ga18 Ni1 2.578177 1_655
Ga18 Ni1 2.578177 1_565
Ga18 Ho1 2.863555 1_545
Ga18 Ho1 2.863555 1_455
Ga19 Ni0 2.384480 1_555
Ga19 Ni7 2.467391 1_565
Ga19 Ni7 2.467391 1_655
Ga19 Ni8 2.468263 1_555
Ga19 Ga8 2.815869 1_555
Ga19 Ho3 2.962771 1_555
Ga20 Ni6 2.449108 1_455
Ga20 Ni6 2.449108 1_545
Ga20 Ni7 2.527569 1_555
Ga20 Ga8 2.924992 1_455
Ga20 Ga8 2.924992 1_545
Ga20 Ho3 2.926987 1_545
Ga20 Ho3 2.926987 1_455
Ga20 Ho2 3.047697 1_555
Ni0 Ni8 2.749560 1_555
Ni3 Ni9 2.749560 1_555
