# generated using pymatgen
data_Yb2SO2
_symmetry_space_group_name_H-M   'P 1'
_cell_length_a   5.13075374
_cell_length_b   5.13075374
_cell_length_c   4.27352800
_cell_angle_alpha   90.00000000
_cell_angle_beta   90.00000000
_cell_angle_gamma   119.99999660
_symmetry_Int_Tables_number   1
_chemical_formula_structural   Yb2SO2
_chemical_formula_sum   'Yb2 S1 O2'
_cell_volume   97.42704726
_cell_formula_units_Z   1
loop_
 _symmetry_equiv_pos_site_id
 _symmetry_equiv_pos_as_xyz
  1  'x, y, z'
loop_
 _atom_site_type_symbol
 _atom_site_label
 _atom_site_symmetry_multiplicity
 _atom_site_fract_x
 _atom_site_fract_y
 _atom_site_fract_z
 _atom_site_occupancy
  Yb  Yb0  1  0.66666700  0.33333300  0.00000000  1
  Yb  Yb1  1  0.33333300  0.66666700  0.00000000  1
  S  S0  1  0.00000000  0.00000000  0.00000000  1
  O  O0  1  0.33333300  0.66666700  0.50000000  1
  O  O1  1  0.66666700  0.33333300  0.50000000  1
loop_
_geom_bond_atom_site_label_1
_geom_bond_atom_site_label_2
_geom_bond_distance
_geom_bond_site_symmetry_2
S0 Yb1 2.962239 1_545
S0 Yb0 2.962239 1_455
S0 Yb0 2.962244 1_555
S0 Yb0 2.962244 1_445
S0 Yb1 2.962244 1_555
S0 Yb1 2.962244 1_445
O0 Yb1 2.136764 1_556
O0 Yb1 2.136764 1_555
O1 Yb0 2.136764 1_555
O1 Yb0 2.136764 1_556
