# generated using pymatgen
data_H2C3O4
_symmetry_space_group_name_H-M   'P 1'
_cell_length_a   6.32331600
_cell_length_b   6.32331600
_cell_length_c   11.26367400
_cell_angle_alpha   90.00000000
_cell_angle_beta   90.00000000
_cell_angle_gamma   90.00000000
_symmetry_Int_Tables_number   1
_chemical_formula_structural   H2C3O4
_chemical_formula_sum   'H8 C12 O16'
_cell_volume   450.37040457
_cell_formula_units_Z   4
loop_
 _symmetry_equiv_pos_site_id
 _symmetry_equiv_pos_as_xyz
  1  'x, y, z'
loop_
 _atom_site_type_symbol
 _atom_site_label
 _atom_site_symmetry_multiplicity
 _atom_site_fract_x
 _atom_site_fract_y
 _atom_site_fract_z
 _atom_site_occupancy
  H  H0  1  0.59189600  0.76258800  0.04615000  1
  H  H1  1  0.40810400  0.23741200  0.54615000  1
  H  H2  1  0.26258800  0.90810400  0.79615000  1
  H  H3  1  0.73741200  0.09189600  0.29615000  1
  H  H4  1  0.23741200  0.40810400  0.45385000  1
  H  H5  1  0.90810400  0.26258800  0.20385000  1
  H  H6  1  0.09189600  0.73741200  0.70385000  1
  H  H7  1  0.76258800  0.59189600  0.95385000  1
  C  C0  1  0.38955200  0.38955200  0.50000000  1
  C  C1  1  0.11044800  0.88955200  0.75000000  1
  C  C2  1  0.17986100  0.91957400  0.30353400  1
  C  C3  1  0.58042600  0.67986100  0.55353400  1
  C  C4  1  0.67986100  0.58042600  0.44646600  1
  C  C5  1  0.82013900  0.08042600  0.80353400  1
  C  C6  1  0.32013900  0.41957400  0.94646600  1
  C  C7  1  0.88955200  0.11044800  0.25000000  1
  C  C8  1  0.41957400  0.32013900  0.05353400  1
  C  C9  1  0.61044800  0.61044800  0.00000000  1
  C  C10  1  0.91957400  0.17986100  0.69646600  1
  C  C11  1  0.08042600  0.82013900  0.19646600  1
  O  O0  1  0.55862300  0.41074700  0.41441000  1
  O  O1  1  0.91074700  0.94137700  0.16441000  1
  O  O2  1  0.05862300  0.08925300  0.33559000  1
  O  O3  1  0.83316600  0.63702200  0.38774900  1
  O  O4  1  0.08925300  0.05862300  0.66441000  1
  O  O5  1  0.41074700  0.55862300  0.58559000  1
  O  O6  1  0.13702200  0.66683400  0.13774900  1
  O  O7  1  0.16683400  0.36297800  0.88774900  1
  O  O8  1  0.86297800  0.33316600  0.63774900  1
  O  O9  1  0.66683400  0.13702200  0.86225100  1
  O  O10  1  0.63702200  0.83316600  0.61225100  1
  O  O11  1  0.36297800  0.16683400  0.11225100  1
  O  O12  1  0.94137700  0.91074700  0.83559000  1
  O  O13  1  0.33316600  0.86297800  0.36225100  1
  O  O14  1  0.44137700  0.58925300  0.91441000  1
  O  O15  1  0.58925300  0.44137700  0.08559000  1
loop_
_geom_bond_atom_site_label_1
_geom_bond_atom_site_label_2
_geom_bond_distance
_geom_bond_site_symmetry_2
C0 H4 1.099761 1_555
C0 H1 1.099761 1_555
C0 O0 1.445794 1_555
C0 O5 1.445794 1_555
C1 H6 1.099761 1_555
C1 H2 1.099761 1_555
C1 O4 1.445794 1_565
C1 O12 1.445794 1_455
C2 O13 1.226871 1_555
C2 O2 1.367214 1_565
C3 O10 1.226871 1_555
C3 O5 1.367214 1_555
C4 O3 1.226871 1_555
C4 O0 1.367214 1_555
C5 O9 1.226871 1_555
C5 O12 1.367214 1_545
C6 O7 1.226871 1_555
C6 O14 1.367214 1_555
C7 H3 1.099761 1_555
C7 H5 1.099761 1_555
C7 O2 1.445794 1_655
C7 O1 1.445794 1_545
C8 O11 1.226871 1_555
C8 O15 1.367214 1_555
C9 H7 1.099761 1_554
C9 H0 1.099761 1_555
C9 O14 1.445794 1_554
C9 O15 1.445794 1_555
C10 O8 1.226871 1_555
C10 O4 1.367214 1_655
C11 O6 1.226871 1_555
C11 O1 1.367214 1_455
