# generated using pymatgen
data_MgFe(SiO3)2
_symmetry_space_group_name_H-M   'P 1'
_cell_length_a   5.30419400
_cell_length_b   9.05167200
_cell_length_c   18.53401800
_cell_angle_alpha   90.00000000
_cell_angle_beta   90.00000000
_cell_angle_gamma   90.00000000
_symmetry_Int_Tables_number   1
_chemical_formula_structural   MgFe(SiO3)2
_chemical_formula_sum   'Mg8 Fe8 Si16 O48'
_cell_volume   889.85201602
_cell_formula_units_Z   8
loop_
 _symmetry_equiv_pos_site_id
 _symmetry_equiv_pos_as_xyz
  1  'x, y, z'
loop_
 _atom_site_type_symbol
 _atom_site_label
 _atom_site_symmetry_multiplicity
 _atom_site_fract_x
 _atom_site_fract_y
 _atom_site_fract_z
 _atom_site_occupancy
  Mg  Mg0  1  0.61703300  0.15383000  0.37530800  1
  Mg  Mg1  1  0.38296700  0.84617000  0.62469200  1
  Mg  Mg2  1  0.61703300  0.65383000  0.12469200  1
  Mg  Mg3  1  0.11703300  0.84617000  0.12469200  1
  Mg  Mg4  1  0.88296700  0.15383000  0.87530800  1
  Mg  Mg5  1  0.38296700  0.34617000  0.87530800  1
  Mg  Mg6  1  0.11703300  0.34617000  0.37530800  1
  Mg  Mg7  1  0.88296700  0.65383000  0.62469200  1
  Fe  Fe0  1  0.37713000  0.98641400  0.87699100  1
  Fe  Fe1  1  0.62287000  0.01358600  0.12300900  1
  Fe  Fe2  1  0.87713000  0.01358600  0.62300900  1
  Fe  Fe3  1  0.12287000  0.98641400  0.37699100  1
  Fe  Fe4  1  0.37713000  0.48641400  0.62300900  1
  Fe  Fe5  1  0.62287000  0.51358600  0.37699100  1
  Fe  Fe6  1  0.87713000  0.51358600  0.87699100  1
  Fe  Fe7  1  0.12287000  0.48641400  0.12300900  1
  Si  Si0  1  0.56216300  0.66048800  0.77189300  1
  Si  Si1  1  0.71050500  0.83606300  0.47471300  1
  Si  Si2  1  0.78949500  0.83606300  0.97471300  1
  Si  Si3  1  0.93783700  0.16048800  0.22810700  1
  Si  Si4  1  0.06216300  0.33951200  0.72810700  1
  Si  Si5  1  0.43783700  0.83951200  0.27189300  1
  Si  Si6  1  0.21050500  0.66393700  0.47471300  1
  Si  Si7  1  0.71050500  0.33606300  0.02528700  1
  Si  Si8  1  0.78949500  0.33606300  0.52528700  1
  Si  Si9  1  0.93783700  0.66048800  0.27189300  1
  Si  Si10  1  0.43783700  0.33951200  0.22810700  1
  Si  Si11  1  0.56216300  0.16048800  0.72810700  1
  Si  Si12  1  0.28949500  0.16393700  0.52528700  1
  Si  Si13  1  0.06216300  0.83951200  0.77189300  1
  Si  Si14  1  0.28949500  0.66393700  0.97471300  1
  Si  Si15  1  0.21050500  0.16393700  0.02528700  1
  O  O0  1  0.93627900  0.50137200  0.31171500  1
  O  O1  1  0.29684700  0.01397400  0.06594200  1
  O  O2  1  0.06372100  0.49862800  0.68828500  1
  O  O3  1  0.70962700  0.33567500  0.93695400  1
  O  O4  1  0.20962700  0.16432500  0.93695400  1
  O  O5  1  0.91730400  0.20641000  0.05196200  1
  O  O6  1  0.94426700  0.66390100  0.18396400  1
  O  O7  1  0.05573300  0.83609900  0.68396400  1
  O  O8  1  0.70962700  0.83567500  0.56304600  1
  O  O9  1  0.94426700  0.16390100  0.31603600  1
  O  O10  1  0.43627900  0.49862800  0.18828500  1
  O  O11  1  0.79037300  0.33567500  0.43695400  1
  O  O12  1  0.70315300  0.98602600  0.93405800  1
  O  O13  1  0.44426700  0.83609900  0.18396400  1
  O  O14  1  0.56372100  0.00137200  0.68828500  1
  O  O15  1  0.29684700  0.51397400  0.43405800  1
  O  O16  1  0.43627900  0.99862800  0.31171500  1
  O  O17  1  0.16746800  0.76777900  0.30255000  1
  O  O18  1  0.33253200  0.76777900  0.80255000  1
  O  O19  1  0.58269600  0.70641000  0.94803800  1
  O  O20  1  0.79037300  0.83567500  0.06304600  1
  O  O21  1  0.55573300  0.66390100  0.68396400  1
  O  O22  1  0.79684700  0.48602600  0.06594200  1
  O  O23  1  0.16746800  0.26777900  0.19745000  1
  O  O24  1  0.29037300  0.16432500  0.43695400  1
  O  O25  1  0.55573300  0.16390100  0.81603600  1
  O  O26  1  0.70315300  0.48602600  0.56594200  1
  O  O27  1  0.20962700  0.66432500  0.56304600  1
  O  O28  1  0.20315300  0.51397400  0.93405800  1
  O  O29  1  0.66746800  0.73222100  0.30255000  1
  O  O30  1  0.06372100  0.99862800  0.81171500  1
  O  O31  1  0.83253200  0.73222100  0.80255000  1
  O  O32  1  0.83253200  0.23222100  0.69745000  1
  O  O33  1  0.79684700  0.98602600  0.43405800  1
  O  O34  1  0.29037300  0.66432500  0.06304600  1
  O  O35  1  0.20315300  0.01397400  0.56594200  1
  O  O36  1  0.33253200  0.26777900  0.69745000  1
  O  O37  1  0.08269600  0.79359000  0.94803800  1
  O  O38  1  0.41730400  0.79359000  0.44803800  1
  O  O39  1  0.66746800  0.23222100  0.19745000  1
  O  O40  1  0.41730400  0.29359000  0.05196200  1
  O  O41  1  0.58269600  0.20641000  0.55196200  1
  O  O42  1  0.08269600  0.29359000  0.55196200  1
  O  O43  1  0.44426700  0.33609900  0.31603600  1
  O  O44  1  0.56372100  0.50137200  0.81171500  1
  O  O45  1  0.91730400  0.70641000  0.44803800  1
  O  O46  1  0.05573300  0.33609900  0.81603600  1
  O  O47  1  0.93627900  0.00137200  0.18828500  1
loop_
_geom_bond_atom_site_label_1
_geom_bond_atom_site_label_2
_geom_bond_distance
_geom_bond_site_symmetry_2
Mg0 O9 2.056166 1_555
Mg0 O16 2.069289 1_545
Mg0 O24 2.077638 1_555
Mg0 O33 2.098189 1_545
Mg0 O43 2.183698 1_555
Mg0 O11 2.204560 1_555
Mg1 O7 2.056166 1_555
Mg1 O14 2.069289 1_565
Mg1 O8 2.077638 1_555
Mg1 O35 2.098189 1_565
Mg1 O21 2.183698 1_555
Mg1 O27 2.204560 1_555
Mg2 O6 2.056166 1_555
Mg2 O10 2.069289 1_555
Mg2 O34 2.077638 1_555
Mg2 O22 2.098189 1_555
Mg2 O13 2.183698 1_555
Mg2 O20 2.204560 1_555
Mg3 O13 2.056166 1_555
Mg3 O47 2.069289 1_465
Mg3 O20 2.077638 1_455
Mg3 O1 2.098189 1_565
Mg3 O6 2.183698 1_455
Mg3 O34 2.204560 1_555
Mg4 O25 2.056166 1_555
Mg4 O30 2.069289 1_645
Mg4 O4 2.077638 1_655
Mg4 O12 2.098189 1_545
Mg4 O46 2.183698 1_655
Mg4 O3 2.204560 1_555
Mg5 O46 2.056166 1_555
Mg5 O44 2.069289 1_555
Mg5 O3 2.077638 1_555
Mg5 O28 2.098189 1_555
Mg5 O25 2.183698 1_555
Mg5 O4 2.204560 1_555
Mg6 O43 2.056166 1_555
Mg6 O0 2.069289 1_455
Mg6 O11 2.077638 1_455
Mg6 O15 2.098189 1_555
Mg6 O9 2.183698 1_455
Mg6 O24 2.204560 1_555
Mg7 O21 2.056166 1_555
Mg7 O2 2.069289 1_655
Mg7 O27 2.077638 1_655
Mg7 O26 2.098189 1_555
Mg7 O7 2.183698 1_655
Mg7 O8 2.204560 1_555
Fe0 O12 2.027102 1_555
Fe0 O30 2.058985 1_555
Fe0 O4 2.148918 1_565
Fe0 O25 2.180549 1_565
Fe0 O18 2.424045 1_555
Fe0 O37 2.686874 1_555
Fe1 O1 2.027102 1_555
Fe1 O47 2.058985 1_555
Fe1 O20 2.148918 1_545
Fe1 O13 2.180549 1_545
Fe1 O39 2.424045 1_555
Fe1 O5 2.686874 1_555
Fe2 O35 2.027102 1_655
Fe2 O14 2.058985 1_555
Fe2 O8 2.148918 1_545
Fe2 O7 2.180549 1_645
Fe2 O32 2.424045 1_555
Fe2 O41 2.686874 1_555
Fe3 O33 2.027102 1_455
Fe3 O16 2.058985 1_555
Fe3 O24 2.148918 1_565
Fe3 O9 2.180549 1_465
Fe3 O17 2.424045 1_555
Fe3 O38 2.686874 1_555
Fe4 O26 2.027102 1_555
Fe4 O2 2.058985 1_555
Fe4 O27 2.148918 1_555
Fe4 O21 2.180549 1_555
Fe4 O36 2.424045 1_555
Fe4 O42 2.686874 1_555
Fe5 O15 2.027102 1_555
Fe5 O0 2.058985 1_555
Fe5 O11 2.148918 1_555
Fe5 O43 2.180549 1_555
Fe5 O29 2.424045 1_555
Fe5 O45 2.686874 1_555
Fe6 O28 2.027102 1_655
Fe6 O44 2.058985 1_555
Fe6 O3 2.148918 1_555
Fe6 O46 2.180549 1_655
Fe6 O31 2.424045 1_555
Fe6 O19 2.686874 1_555
Fe7 O22 2.027102 1_455
Fe7 O10 2.058985 1_555
Fe7 O34 2.148918 1_555
Fe7 O6 2.180549 1_455
Fe7 O23 2.424045 1_555
Fe7 O40 2.686874 1_555
O0 Si9 1.618385 1_555
O1 Si15 1.618667 1_555
O2 Si4 1.618385 1_555
O3 Si7 1.637176 1_556
O4 Si15 1.637176 1_556
O5 Si15 1.676562 1_655
O5 Si7 1.680744 1_555
O6 Si9 1.630327 1_555
O7 Si13 1.630327 1_555
O8 Si1 1.637176 1_555
O9 Si3 1.630327 1_555
O10 Si10 1.618385 1_555
O11 Si8 1.637176 1_555
O12 Si2 1.618667 1_555
O13 Si5 1.630327 1_555
O14 Si11 1.618385 1_555
O15 Si6 1.618667 1_555
O16 Si5 1.618385 1_555
O17 Si9 1.658176 1_455
O17 Si5 1.673636 1_555
O18 Si0 1.658176 1_555
O18 Si13 1.673636 1_555
O19 Si14 1.676562 1_555
O19 Si2 1.680744 1_555
O20 Si2 1.637176 1_554
O21 Si0 1.630327 1_555
O22 Si7 1.618667 1_555
O23 Si3 1.658176 1_455
O23 Si10 1.673636 1_555
O24 Si12 1.637176 1_555
O25 Si11 1.630327 1_555
O26 Si8 1.618667 1_555
O27 Si6 1.637176 1_555
O28 Si14 1.618667 1_555
O29 Si5 1.658176 1_555
O29 Si9 1.673636 1_555
O30 Si13 1.618385 1_555
O31 Si13 1.658176 1_655
O31 Si0 1.673636 1_555
O32 Si4 1.658176 1_655
O32 Si11 1.673636 1_555
O33 Si1 1.618667 1_555
O34 Si14 1.637176 1_554
O35 Si12 1.618667 1_555
O36 Si11 1.658176 1_555
O36 Si4 1.673636 1_555
O37 Si2 1.676562 1_455
O37 Si14 1.680744 1_555
O38 Si1 1.676562 1_555
O38 Si6 1.680744 1_555
O39 Si10 1.658176 1_555
O39 Si3 1.673636 1_555
O40 Si7 1.676562 1_555
O40 Si15 1.680744 1_555
O41 Si12 1.676562 1_555
O41 Si8 1.680744 1_555
O42 Si8 1.676562 1_455
O42 Si12 1.680744 1_555
O43 Si10 1.630327 1_555
O44 Si0 1.618385 1_555
O45 Si6 1.676562 1_655
O45 Si1 1.680744 1_555
O46 Si4 1.630327 1_555
O47 Si3 1.618385 1_555
