# generated using pymatgen
data_MgAl2O4
_symmetry_space_group_name_H-M   'P 1'
_cell_length_a   5.74914400
_cell_length_b   5.77251450
_cell_length_c   33.08552585
_cell_angle_alpha   85.24102392
_cell_angle_beta   85.04264340
_cell_angle_gamma   60.21105317
_symmetry_Int_Tables_number   1
_chemical_formula_structural   MgAl2O4
_chemical_formula_sum   'Mg14 Al28 O56'
_cell_volume   948.33753893
_cell_formula_units_Z   14
loop_
 _symmetry_equiv_pos_site_id
 _symmetry_equiv_pos_as_xyz
  1  'x, y, z'
loop_
 _atom_site_type_symbol
 _atom_site_label
 _atom_site_symmetry_multiplicity
 _atom_site_fract_x
 _atom_site_fract_y
 _atom_site_fract_z
 _atom_site_occupancy
  Mg  Mg0  1  0.14229900  0.14383100  0.07141000  1
  Mg  Mg1  1  0.14269300  0.64334900  0.07154500  1
  Mg  Mg2  1  0.93915000  0.45545800  0.15877200  1
  Mg  Mg3  1  0.42622000  0.43244500  0.21433400  1
  Mg  Mg4  1  0.22747900  0.74125000  0.30314100  1
  Mg  Mg5  1  0.51324000  0.02716100  0.44587800  1
  Mg  Mg6  1  0.79861100  0.31370800  0.58856100  1
  Mg  Mg7  1  0.71270200  0.71754600  0.35699800  1
  Mg  Mg8  1  0.08448100  0.59938100  0.73122600  1
  Mg  Mg9  1  0.99831100  0.00346700  0.49982300  1
  Mg  Mg10  1  0.37060400  0.88389400  0.87490400  1
  Mg  Mg11  1  0.28374200  0.28987200  0.64252400  1
  Mg  Mg12  1  0.56972500  0.57505200  0.78550200  1
  Mg  Mg13  1  0.85747700  0.85890400  0.92841600  1
  Al  Al0  1  0.65224800  0.16779900  0.01676600  1
  Al  Al1  1  0.00003200  0.49976400  0.00037600  1
  Al  Al2  1  0.64311600  0.64195300  0.07188500  1
  Al  Al3  1  0.42300900  0.92515400  0.21409800  1
  Al  Al4  1  0.28221100  0.78776600  0.14471200  1
  Al  Al5  1  0.93726100  0.92420000  0.21401000  1
  Al  Al6  1  0.70958000  0.21022100  0.35664800  1
  Al  Al7  1  0.63365900  0.11647600  0.12695300  1
  Al  Al8  1  0.57076900  0.07124600  0.28731100  1
  Al  Al9  1  0.22350200  0.21022300  0.35663000  1
  Al  Al10  1  0.99523700  0.49574100  0.49942600  1
  Al  Al11  1  0.85656600  0.35675400  0.43006200  1
  Al  Al12  1  0.91754700  0.39622800  0.26870600  1
  Al  Al13  1  0.50955600  0.49575600  0.49941500  1
  Al  Al14  1  0.28104900  0.78088200  0.64210000  1
  Al  Al15  1  0.14274700  0.64151100  0.57288000  1
  Al  Al16  1  0.20347900  0.68173900  0.41152700  1
  Al  Al17  1  0.79599800  0.78085100  0.64208600  1
  Al  Al18  1  0.56662400  0.06704900  0.78505900  1
  Al  Al19  1  0.42845400  0.92742700  0.71555900  1
  Al  Al20  1  0.48932000  0.96718500  0.55435100  1
  Al  Al21  1  0.08129900  0.06712800  0.78506100  1
  Al  Al22  1  0.85552100  0.35354700  0.92793200  1
  Al  Al23  1  0.77494400  0.25325700  0.69707500  1
  Al  Al24  1  0.71401800  0.21284500  0.85865800  1
  Al  Al25  1  0.36374400  0.35434300  0.92808300  1
  Al  Al26  1  0.06052000  0.53974000  0.83973600  1
  Al  Al27  1  0.35000600  0.82627300  0.98279700  1
  O  O0  1  0.30361300  0.33052200  0.03181900  1
  O  O1  1  0.94362300  0.47971700  0.09985500  1
  O  O2  1  0.81770600  0.33979200  0.03347400  1
  O  O3  1  0.81706400  0.81225600  0.03247900  1
  O  O4  1  0.56862400  0.64276100  0.17920600  1
  O  O5  1  0.46942200  0.47434700  0.10812100  1
  O  O6  1  0.34216900  0.80952500  0.03701500  1
  O  O7  1  0.46804500  0.94754500  0.10711000  1
  O  O8  1  0.10859900  0.63947000  0.17902000  1
  O  O9  1  0.24114300  0.77129600  0.24470300  1
  O  O10  1  0.11971000  0.08173400  0.18061400  1
  O  O11  1  0.98152600  0.95704600  0.10957400  1
  O  O12  1  0.85544000  0.92636800  0.32195000  1
  O  O13  1  0.74459900  0.76064900  0.24982500  1
  O  O14  1  0.75116800  0.22750600  0.25048000  1
  O  O15  1  0.39622400  0.92621100  0.32195500  1
  O  O16  1  0.61319300  0.09018100  0.18248800  1
  O  O17  1  0.52738900  0.05761700  0.38740800  1
  O  O18  1  0.27078800  0.22739400  0.25059900  1
  O  O19  1  0.40564800  0.36601800  0.32298400  1
  O  O20  1  0.14123000  0.21207600  0.46466400  1
  O  O21  1  0.03057500  0.04641700  0.39236100  1
  O  O22  1  0.03720800  0.51313500  0.39308200  1
  O  O23  1  0.81312600  0.34342300  0.53018100  1
  O  O24  1  0.90001300  0.37567200  0.32448400  1
  O  O25  1  0.68199900  0.21199800  0.46467400  1
  O  O26  1  0.69132300  0.65190300  0.46571700  1
  O  O27  1  0.55658400  0.51317700  0.39310000  1
  O  O28  1  0.42727600  0.49745700  0.60758700  1
  O  O29  1  0.31640700  0.33186600  0.53525900  1
  O  O30  1  0.32279500  0.79878300  0.53597900  1
  O  O31  1  0.18577100  0.66143800  0.46728100  1
  O  O32  1  0.96760700  0.49735300  0.60758900  1
  O  O33  1  0.09871100  0.62940200  0.67309700  1
  O  O34  1  0.97677500  0.93802900  0.60866400  1
  O  O35  1  0.84242300  0.79884000  0.53599400  1
  O  O36  1  0.71273100  0.78321700  0.75073300  1
  O  O37  1  0.60193900  0.61767300  0.67842600  1
  O  O38  1  0.60801500  0.08448800  0.67910700  1
  O  O39  1  0.47148600  0.94699900  0.61027300  1
  O  O40  1  0.25323000  0.78315400  0.75074500  1
  O  O41  1  0.38432400  0.91486900  0.81645600  1
  O  O42  1  0.26231100  0.22378300  0.75188900  1
  O  O43  1  0.12840400  0.08456500  0.67912300  1
  O  O44  1  0.99675100  0.06936600  0.89403600  1
  O  O45  1  0.88716300  0.90412100  0.82141300  1
  O  O46  1  0.75727900  0.23247000  0.75324700  1
  O  O47  1  0.54007200  0.06909000  0.89424300  1
  O  O48  1  0.89339600  0.37008100  0.82217700  1
  O  O49  1  0.67188700  0.19539900  0.96200100  1
  O  O50  1  0.54969200  0.50567100  0.89551700  1
  O  O51  1  0.41459900  0.36992200  0.82219100  1
  O  O52  1  0.17257800  0.19090100  0.96242600  1
  O  O53  1  0.18360400  0.65557100  0.96387300  1
  O  O54  1  0.04359200  0.51942300  0.89545500  1
  O  O55  1  0.70268100  0.65193600  0.96334300  1
loop_
_geom_bond_atom_site_label_1
_geom_bond_atom_site_label_2
_geom_bond_distance
_geom_bond_site_symmetry_2
Mg0 O1 1.966267 1_455
Mg0 O11 2.043008 1_445
Mg0 O7 2.058645 1_545
Mg0 O6 2.067493 1_545
Mg0 O0 2.070311 1_555
Mg0 O2 2.099798 1_455
Mg1 O1 1.954848 1_455
Mg1 O6 2.055558 1_555
Mg1 O11 2.056726 1_455
Mg1 O5 2.078642 1_555
Mg1 O0 2.089987 1_555
Mg1 O3 2.126360 1_455
Mg2 O4 1.935914 1_555
Mg2 O1 1.941562 1_555
Mg2 O8 1.945551 1_655
Mg2 O10 1.974764 1_655
Mg3 O9 2.010253 1_555
Mg3 O4 2.020889 1_555
Mg3 O8 2.023978 1_555
Mg3 O16 2.051485 1_555
Mg3 O18 2.066207 1_555
Mg3 O14 2.067657 1_555
Mg4 O9 1.925132 1_555
Mg4 O15 1.926769 1_555
Mg4 O12 1.927005 1_455
Mg4 O19 1.961548 1_555
Mg5 O25 1.925994 1_555
Mg5 O17 1.926250 1_555
Mg5 O20 1.926628 1_555
Mg5 O26 1.961631 1_545
Mg6 O23 1.923174 1_555
Mg6 O32 1.924564 1_555
Mg6 O28 1.925489 1_555
Mg6 O34 1.966149 1_545
Mg7 O12 2.014347 1_555
Mg7 O15 2.015161 1_555
Mg7 O17 2.016277 1_565
Mg7 O24 2.062017 1_555
Mg7 O27 2.063261 1_555
Mg7 O22 2.064479 1_655
Mg8 O33 1.914974 1_555
Mg8 O40 1.930854 1_555
Mg8 O36 1.931887 1_455
Mg8 O42 1.971250 1_555
Mg9 O23 2.014858 1_555
Mg9 O20 2.015908 1_655
Mg9 O25 2.016577 1_555
Mg9 O31 2.063196 1_645
Mg9 O35 2.064607 1_545
Mg9 O30 2.065963 1_645
Mg10 O41 1.925613 1_555
Mg10 O44 1.938411 1_465
Mg10 O47 1.938469 1_565
Mg10 O50 1.983104 1_555
Mg11 O28 2.010173 1_555
Mg11 O32 2.011025 1_455
Mg11 O33 2.016814 1_555
Mg11 O39 2.061479 1_545
Mg11 O43 2.072439 1_555
Mg11 O38 2.074103 1_555
Mg12 O36 2.007983 1_555
Mg12 O40 2.009197 1_555
Mg12 O41 2.024849 1_555
Mg12 O46 2.060302 1_555
Mg12 O51 2.072366 1_555
Mg12 O48 2.073490 1_555
Mg13 O44 1.997702 1_565
Mg13 O47 2.002350 1_565
Mg13 O55 2.050454 1_555
Mg13 O53 2.057747 1_655
Mg13 O49 2.059152 1_565
Mg13 O54 2.060076 1_655
Al0 O0 1.783869 1_555
Al0 O49 1.804393 1_554
Al0 O2 1.821125 1_555
Al0 O3 1.831981 1_545
Al1 O0 1.879842 1_555
Al1 O3 1.930809 1_455
Al1 O2 1.935531 1_455
Al1 O55 1.971459 1_454
Al1 O53 1.980899 1_554
Al1 O52 2.034257 1_554
Al2 O1 1.800861 1_555
Al2 O6 1.938328 1_555
Al2 O7 1.964012 1_555
Al2 O5 1.982722 1_555
Al2 O2 2.018083 1_555
Al2 O3 2.050657 1_555
Al3 O4 1.865496 1_555
Al3 O9 1.870253 1_555
Al3 O10 1.920025 1_565
Al3 O16 1.966917 1_565
Al3 O18 1.979415 1_565
Al3 O13 2.040654 1_555
Al4 O8 1.873348 1_555
Al4 O4 1.873837 1_555
Al4 O10 1.931527 1_565
Al4 O11 1.942975 1_455
Al4 O7 2.024567 1_555
Al4 O5 2.025026 1_555
Al5 O9 1.867679 1_655
Al5 O8 1.876670 1_655
Al5 O10 1.931008 1_665
Al5 O16 1.968046 1_565
Al5 O14 1.982987 1_565
Al5 O13 2.036885 1_555
Al6 O12 1.867196 1_545
Al6 O17 1.868873 1_555
Al6 O19 1.926472 1_555
Al6 O24 1.977928 1_555
Al6 O27 1.981102 1_555
Al6 O21 2.038023 1_655
Al7 O11 1.799331 1_545
Al7 O16 1.829493 1_555
Al7 O7 1.850764 1_545
Al7 O5 1.870116 1_555
Al8 O12 1.869895 1_545
Al8 O15 1.870420 1_545
Al8 O19 1.929805 1_555
Al8 O18 1.974321 1_555
Al8 O14 1.975585 1_555
Al8 O13 2.031239 1_545
Al9 O15 1.867528 1_545
Al9 O17 1.869413 1_555
Al9 O19 1.926850 1_555
Al9 O24 1.977515 1_455
Al9 O22 1.981153 1_555
Al9 O21 2.037621 1_555
Al10 O23 1.867291 1_555
Al10 O20 1.867776 1_655
Al10 O26 1.927252 1_555
Al10 O31 1.979092 1_655
Al10 O35 1.984213 1_555
Al10 O29 2.041200 1_655
Al11 O25 1.868881 1_555
Al11 O20 1.869114 1_655
Al11 O26 1.930922 1_555
Al11 O22 1.979659 1_655
Al11 O27 1.979690 1_555
Al11 O21 2.034777 1_655
Al12 O14 1.830295 1_555
Al12 O18 1.831127 1_655
Al12 O24 1.836656 1_555
Al12 O13 1.901350 1_555
Al13 O23 1.867878 1_555
Al13 O25 1.867888 1_555
Al13 O26 1.927518 1_555
Al13 O31 1.978517 1_555
Al13 O30 1.984084 1_555
Al13 O29 2.040730 1_555
Al14 O28 1.861404 1_555
Al14 O33 1.868545 1_555
Al14 O34 1.923017 1_455
Al14 O39 1.975704 1_555
Al14 O43 1.996392 1_565
Al14 O37 2.050335 1_555
Al15 O32 1.870622 1_455
Al15 O28 1.870973 1_555
Al15 O34 1.939106 1_455
Al15 O35 1.979276 1_455
Al15 O30 1.979307 1_555
Al15 O29 2.030327 1_555
Al16 O22 1.832278 1_555
Al16 O27 1.833422 1_555
Al16 O31 1.835854 1_555
Al16 O21 1.905243 1_565
Al17 O32 1.861515 1_555
Al17 O33 1.869171 1_655
Al17 O34 1.923020 1_555
Al17 O39 1.975448 1_555
Al17 O38 1.996418 1_565
Al17 O37 2.049884 1_555
Al18 O36 1.859093 1_545
Al18 O41 1.877352 1_545
Al18 O42 1.917849 1_555
Al18 O46 1.973546 1_555
Al18 O51 1.995592 1_555
Al18 O45 2.049517 1_545
Al19 O40 1.879817 1_555
Al19 O36 1.880035 1_555
Al19 O42 1.950099 1_565
Al19 O43 1.968497 1_565
Al19 O38 1.968643 1_565
Al19 O37 2.020406 1_555
Al20 O30 1.831496 1_555
Al20 O35 1.832754 1_555
Al20 O39 1.841378 1_555
Al20 O29 1.904558 1_565
Al21 O40 1.859597 1_545
Al21 O41 1.877850 1_545
Al21 O42 1.917875 1_555
Al21 O46 1.973480 1_455
Al21 O48 1.995804 1_455
Al21 O45 2.049731 1_445
Al22 O44 1.852681 1_555
Al22 O50 1.910046 1_555
Al22 O55 1.940273 1_555
Al22 O49 1.949301 1_555
Al22 O54 1.974265 1_655
Al22 O52 1.996960 1_655
Al23 O38 1.829542 1_555
Al23 O43 1.830744 1_655
Al23 O46 1.849634 1_555
Al23 O37 1.899177 1_555
Al24 O44 1.878429 1_555
Al24 O47 1.879842 1_555
Al24 O50 1.947603 1_555
Al24 O51 1.966634 1_555
Al24 O48 1.969091 1_555
Al24 O45 2.018675 1_545
Al25 O47 1.855731 1_555
Al25 O50 1.907747 1_555
Al25 O49 1.948658 1_555
Al25 O53 1.959256 1_555
Al25 O54 1.972609 1_555
Al25 O52 2.006413 1_555
Al26 O48 1.829119 1_455
Al26 O51 1.830087 1_555
Al26 O54 1.834707 1_555
Al26 O45 1.896041 1_455
Al27 O6 1.786278 1_556
Al27 O55 1.841903 1_555
Al27 O53 1.849529 1_555
Al27 O52 1.917068 1_565
