# generated using pymatgen
data_Cs2Li3F5
_symmetry_space_group_name_H-M   'P 1'
_cell_length_a   10.41359098
_cell_length_b   10.41359098
_cell_length_c   4.05039000
_cell_angle_alpha   90.00000000
_cell_angle_beta   90.00000000
_cell_angle_gamma   157.09917138
_symmetry_Int_Tables_number   1
_chemical_formula_structural   Cs2Li3F5
_chemical_formula_sum   'Cs2 Li3 F5'
_cell_volume   170.92307754
_cell_formula_units_Z   1
loop_
 _symmetry_equiv_pos_site_id
 _symmetry_equiv_pos_as_xyz
  1  'x, y, z'
loop_
 _atom_site_type_symbol
 _atom_site_label
 _atom_site_symmetry_multiplicity
 _atom_site_fract_x
 _atom_site_fract_y
 _atom_site_fract_z
 _atom_site_occupancy
  Cs  Cs0  1  0.73171700  0.26828300  0.00000000  1
  Cs  Cs1  1  0.38154300  0.61845700  0.50000000  1
  Li  Li0  1  0.57688300  0.42311700  0.00000000  1
  Li  Li1  1  0.98611000  0.01389000  0.00000000  1
  Li  Li2  1  0.12270100  0.87729900  0.50000000  1
  F  F0  1  0.08518800  0.91481200  0.00000000  1
  F  F1  1  0.89011300  0.10988700  0.00000000  1
  F  F2  1  0.22004500  0.77995500  0.50000000  1
  F  F3  1  0.60939300  0.39060700  0.50000000  1
  F  F4  1  0.48703800  0.51296200  0.00000000  1
loop_
_geom_bond_atom_site_label_1
_geom_bond_atom_site_label_2
_geom_bond_distance
_geom_bond_site_symmetry_2
Cs0 F2 2.903778 1_655
Cs0 F2 2.903778 1_544
Cs0 F2 2.903778 1_545
Cs0 F2 2.903778 1_654
Cs0 F1 3.233283 1_555
Cs1 F1 2.899269 1_455
Cs1 F1 2.899269 1_566
Cs1 F1 2.899269 1_456
Cs1 F1 2.899269 1_565
Cs1 F4 2.956127 1_555
Cs1 F4 2.956127 1_556
Cs1 F2 3.296603 1_555
F0 Li1 2.022445 1_465
F0 Li0 2.074243 1_565
F0 Li0 2.074243 1_455
F0 Li2 2.165126 1_555
F0 Li2 2.165126 1_554
F1 Li1 1.959554 1_555
F2 Li2 1.987050 1_555
F3 Li2 2.085076 1_545
F3 Li2 2.085076 1_655
F3 Li0 2.131150 1_556
F3 Li0 2.131150 1_555
F4 Li0 1.833975 1_555
F4 Li1 2.067391 1_455
F4 Li1 2.067391 1_565
