# generated using pymatgen
data_Ca3SiH30CSO25
_symmetry_space_group_name_H-M   'P 1'
_cell_length_a   11.07018574
_cell_length_b   11.07018574
_cell_length_c   10.51647200
_cell_angle_alpha   90.00000000
_cell_angle_beta   90.00000000
_cell_angle_gamma   119.99999844
_symmetry_Int_Tables_number   1
_chemical_formula_structural   Ca3SiH30CSO25
_chemical_formula_sum   'Ca6 Si2 H60 C2 S2 O50'
_cell_volume   1116.11905768
_cell_formula_units_Z   2
loop_
 _symmetry_equiv_pos_site_id
 _symmetry_equiv_pos_as_xyz
  1  'x, y, z'
loop_
 _atom_site_type_symbol
 _atom_site_label
 _atom_site_symmetry_multiplicity
 _atom_site_fract_x
 _atom_site_fract_y
 _atom_site_fract_z
 _atom_site_occupancy
  Ca  Ca0  1  0.20716200  0.19403200  0.76114300  1
  Ca  Ca1  1  0.98687000  0.79283800  0.76114300  1
  Ca  Ca2  1  0.80596800  0.01313000  0.76114300  1
  Ca  Ca3  1  0.79283800  0.80596800  0.26114300  1
  Ca  Ca4  1  0.01313000  0.20716200  0.26114300  1
  Ca  Ca5  1  0.19403200  0.98687000  0.26114300  1
  Si  Si0  1  0.00000000  0.00000000  0.51130500  1
  Si  Si1  1  0.00000000  0.00000000  0.01130500  1
  H  H0  1  0.06191600  0.36174000  0.76384700  1
  H  H1  1  0.29982400  0.93808400  0.76384700  1
  H  H2  1  0.63826000  0.70017600  0.76384700  1
  H  H3  1  0.93808400  0.63826000  0.26384700  1
  H  H4  1  0.70017600  0.06191600  0.26384700  1
  H  H5  1  0.36174000  0.29982400  0.26384700  1
  H  H6  1  0.21522200  0.48962400  0.78792400  1
  H  H7  1  0.27440200  0.78477800  0.78792400  1
  H  H8  1  0.51037600  0.72559800  0.78792400  1
  H  H9  1  0.78477800  0.51037600  0.28792400  1
  H  H10  1  0.72559800  0.21522200  0.28792400  1
  H  H11  1  0.48962400  0.27440200  0.28792400  1
  H  H12  1  0.83974800  0.30526600  0.83721900  1
  H  H13  1  0.46551800  0.16025200  0.83721900  1
  H  H14  1  0.69473400  0.53448200  0.83721900  1
  H  H15  1  0.16025200  0.69473400  0.33721900  1
  H  H16  1  0.53448200  0.83974800  0.33721900  1
  H  H17  1  0.30526600  0.46551800  0.33721900  1
  H  H18  1  0.84138900  0.30510800  0.68693800  1
  H  H19  1  0.46371900  0.15861100  0.68693800  1
  H  H20  1  0.69489200  0.53628100  0.68693800  1
  H  H21  1  0.15861100  0.69489200  0.18693800  1
  H  H22  1  0.53628100  0.84138900  0.18693800  1
  H  H23  1  0.30510800  0.46371900  0.18693800  1
  H  H24  1  0.33723600  0.42194100  0.55372600  1
  H  H25  1  0.08470600  0.66276400  0.55372600  1
  H  H26  1  0.57805900  0.91529400  0.55372600  1
  H  H27  1  0.66276400  0.57805900  0.05372600  1
  H  H28  1  0.91529400  0.33723600  0.05372600  1
  H  H29  1  0.42194100  0.08470600  0.05372600  1
  H  H30  1  0.63409600  0.07552300  0.56701900  1
  H  H31  1  0.44142700  0.36590400  0.56701900  1
  H  H32  1  0.92447700  0.55857300  0.56701900  1
  H  H33  1  0.36590400  0.92447700  0.06701900  1
  H  H34  1  0.55857300  0.63409600  0.06701900  1
  H  H35  1  0.07552300  0.44142700  0.06701900  1
  H  H36  1  0.64961300  0.09995000  0.95210900  1
  H  H37  1  0.45033700  0.35038700  0.95210900  1
  H  H38  1  0.90005000  0.54966300  0.95210900  1
  H  H39  1  0.35038700  0.90005000  0.45210900  1
  H  H40  1  0.54966300  0.64961300  0.45210900  1
  H  H41  1  0.09995000  0.45033700  0.45210900  1
  H  H42  1  0.34652800  0.40772300  0.96667400  1
  H  H43  1  0.06119500  0.65347200  0.96667400  1
  H  H44  1  0.59227700  0.93880500  0.96667400  1
  H  H45  1  0.65347200  0.59227700  0.46667400  1
  H  H46  1  0.93880500  0.34652800  0.46667400  1
  H  H47  1  0.40772300  0.06119500  0.46667400  1
  H  H48  1  0.02317300  0.21620300  0.56703400  1
  H  H49  1  0.19303000  0.97682700  0.56703400  1
  H  H50  1  0.78379700  0.80697000  0.56703400  1
  H  H51  1  0.97682700  0.78379700  0.06703400  1
  H  H52  1  0.80697000  0.02317300  0.06703400  1
  H  H53  1  0.21620300  0.19303000  0.06703400  1
  H  H54  1  0.01756200  0.21397600  0.95291100  1
  H  H55  1  0.19641400  0.98243800  0.95291100  1
  H  H56  1  0.78602400  0.80358600  0.95291100  1
  H  H57  1  0.98243800  0.78602400  0.45291100  1
  H  H58  1  0.80358600  0.01756200  0.45291100  1
  H  H59  1  0.21397600  0.19641400  0.45291100  1
  C  C0  1  0.66666700  0.33333300  0.96261500  1
  C  C1  1  0.33333300  0.66666700  0.46261500  1
  S  S0  1  0.66666700  0.33333300  0.49680700  1
  S  S1  1  0.33333300  0.66666700  0.99680700  1
  O  O0  1  0.16216900  0.39107500  0.76279100  1
  O  O1  1  0.22890600  0.83783100  0.76279100  1
  O  O2  1  0.60892500  0.77109400  0.76279100  1
  O  O3  1  0.83783100  0.60892500  0.26279100  1
  O  O4  1  0.77109400  0.16216900  0.26279100  1
  O  O5  1  0.39107500  0.22890600  0.26279100  1
  O  O6  1  0.86791600  0.26951000  0.76174700  1
  O  O7  1  0.40159400  0.13208400  0.76174700  1
  O  O8  1  0.73049000  0.59840600  0.76174700  1
  O  O9  1  0.13208400  0.73049000  0.26174700  1
  O  O10  1  0.59840600  0.86791600  0.26174700  1
  O  O11  1  0.26951000  0.40159400  0.26174700  1
  O  O12  1  0.66168300  0.00399000  0.57947500  1
  O  O13  1  0.34230600  0.33831700  0.57947500  1
  O  O14  1  0.99601000  0.65769400  0.57947500  1
  O  O15  1  0.33831700  0.99601000  0.07947500  1
  O  O16  1  0.65769400  0.66168300  0.07947500  1
  O  O17  1  0.00399000  0.34230600  0.07947500  1
  O  O18  1  0.67745900  0.02592700  0.94312800  1
  O  O19  1  0.34846900  0.32254100  0.94312800  1
  O  O20  1  0.97407300  0.65153100  0.94312800  1
  O  O21  1  0.32254100  0.97407300  0.44312800  1
  O  O22  1  0.65153100  0.67745900  0.44312800  1
  O  O23  1  0.02592700  0.34846900  0.44312800  1
  O  O24  1  0.57854100  0.20001000  0.96069400  1
  O  O25  1  0.62146900  0.42145900  0.96069400  1
  O  O26  1  0.79999000  0.37853100  0.96069400  1
  O  O27  1  0.42145900  0.79999000  0.46069400  1
  O  O28  1  0.37853100  0.57854100  0.46069400  1
  O  O29  1  0.20001000  0.62146900  0.46069400  1
  O  O30  1  0.56684900  0.19043700  0.54538300  1
  O  O31  1  0.62358800  0.43315100  0.54538300  1
  O  O32  1  0.80956300  0.37641200  0.54538300  1
  O  O33  1  0.43315100  0.80956300  0.04538300  1
  O  O34  1  0.37641200  0.56684900  0.04538300  1
  O  O35  1  0.19043700  0.62358800  0.04538300  1
  O  O36  1  0.00789200  0.13333700  0.61511900  1
  O  O37  1  0.12544500  0.99210800  0.61511900  1
  O  O38  1  0.86666300  0.87455500  0.61511900  1
  O  O39  1  0.99210800  0.86666300  0.11511900  1
  O  O40  1  0.87455500  0.00789200  0.11511900  1
  O  O41  1  0.13333700  0.12544500  0.11511900  1
  O  O42  1  0.00791100  0.13265300  0.90637600  1
  O  O43  1  0.12474300  0.99208900  0.90637600  1
  O  O44  1  0.86734700  0.87525700  0.90637600  1
  O  O45  1  0.99208900  0.86734700  0.40637600  1
  O  O46  1  0.87525700  0.00791100  0.40637600  1
  O  O47  1  0.13265300  0.12474300  0.40637600  1
  O  O48  1  0.66666700  0.33333300  0.35529500  1
  O  O49  1  0.33333300  0.66666700  0.85529500  1
loop_
_geom_bond_atom_site_label_1
_geom_bond_atom_site_label_2
_geom_bond_distance
_geom_bond_site_symmetry_2
Ca0 O19 2.430689 1_555
Ca0 O13 2.459652 1_555
Ca0 O0 2.468386 1_555
Ca0 O43 2.474509 1_545
Ca0 O37 2.480157 1_545
Ca0 O42 2.482139 1_555
Ca0 O36 2.488724 1_555
Ca0 O7 2.564997 1_555
Ca1 O20 2.430692 1_555
Ca1 O14 2.459648 1_555
Ca1 O1 2.468386 1_655
Ca1 O44 2.474501 1_555
Ca1 O38 2.480157 1_555
Ca1 O43 2.482141 1_655
Ca1 O37 2.488724 1_655
Ca1 O8 2.564997 1_555
Ca2 O18 2.430686 1_555
Ca2 O12 2.459655 1_555
Ca2 O2 2.468386 1_545
Ca2 O42 2.474508 1_655
Ca2 O36 2.480157 1_655
Ca2 O44 2.482147 1_545
Ca2 O38 2.488724 1_545
Ca2 O6 2.564997 1_555
Ca3 O22 2.430689 1_555
Ca3 O16 2.459652 1_555
Ca3 O3 2.468386 1_555
Ca3 O46 2.474509 1_565
Ca3 O40 2.480157 1_565
Ca3 O45 2.482139 1_555
Ca3 O39 2.488724 1_555
Ca3 O10 2.564997 1_555
Ca4 O23 2.430692 1_555
Ca4 O17 2.459648 1_555
Ca4 O4 2.468386 1_455
Ca4 O47 2.474501 1_555
Ca4 O41 2.480157 1_555
Ca4 O46 2.482141 1_455
Ca4 O40 2.488724 1_455
Ca4 O11 2.564997 1_555
Ca5 O21 2.430686 1_555
Ca5 O15 2.459655 1_555
Ca5 O5 2.468386 1_565
Ca5 O45 2.474508 1_455
Ca5 O39 2.480157 1_455
Ca5 O47 2.482147 1_565
Ca5 O41 2.488724 1_565
Ca5 O9 2.564997 1_555
H0 O0 0.988369 1_555
H1 O1 0.988369 1_555
H2 O2 0.988369 1_555
H3 O3 0.988369 1_555
H4 O4 0.988369 1_555
H5 O5 0.988369 1_555
H6 O0 0.981961 1_555
H7 O1 0.981961 1_555
H8 O2 0.981961 1_555
H9 O3 0.981961 1_555
H10 O4 0.981961 1_555
H11 O5 0.981961 1_555
H12 O6 1.003643 1_555
H12 O26 1.701368 1_555
H13 O7 1.003643 1_555
H13 O24 1.701368 1_555
H14 O8 1.003643 1_555
H14 O25 1.701368 1_555
H15 O9 1.003643 1_555
H15 O29 1.701368 1_555
H16 O10 1.003643 1_555
H16 O27 1.701368 1_555
H17 O11 1.003643 1_555
H17 O28 1.701368 1_555
H18 O6 0.988026 1_555
H19 O7 0.988026 1_555
H20 O8 0.988026 1_555
H21 O9 0.988026 1_555
H22 O10 0.988026 1_555
H23 O11 0.988026 1_555
H24 O13 0.992681 1_555
H25 O14 0.992703 1_455
H26 O12 0.992693 1_565
H27 O16 0.992681 1_555
H28 O17 0.992703 1_655
H29 O15 0.992693 1_545
H30 O12 0.989616 1_555
H31 O13 0.989627 1_555
H32 O14 0.989624 1_555
H33 O15 0.989616 1_555
H34 O16 0.989627 1_555
H35 O17 0.989624 1_555
H36 O18 1.013925 1_555
H36 O24 1.650951 1_555
H37 O19 1.013914 1_555
H37 O25 1.650951 1_555
H38 O20 1.013917 1_555
H38 O26 1.650951 1_555
H39 O21 1.013925 1_555
H39 O27 1.650951 1_555
H40 O22 1.013914 1_555
H40 O28 1.650951 1_555
H41 O23 1.013917 1_555
H41 O29 1.650951 1_555
H42 O19 0.985521 1_555
H43 O20 0.985511 1_455
H44 O18 0.985516 1_565
H45 O22 0.985521 1_555
H46 O23 0.985511 1_655
H47 O21 0.985516 1_545
H48 O36 0.985225 1_555
H49 O37 0.985225 1_555
H50 O38 0.985225 1_555
H51 O39 0.985225 1_555
H52 O40 0.985225 1_555
H53 O41 0.985225 1_555
H54 O42 0.982445 1_555
H55 O43 0.982435 1_555
H56 O44 0.982441 1_555
H57 O45 0.982445 1_555
H58 O46 0.982435 1_555
H59 O47 0.982441 1_555
C0 O26 1.300230 1_555
C0 O24 1.300232 1_555
C0 O25 1.300240 1_555
C1 O29 1.300230 1_555
C1 O27 1.300232 1_555
C1 O28 1.300240 1_555
O30 S0 1.495450 1_555
O31 S0 1.495458 1_555
O32 S0 1.495448 1_555
O33 S1 1.495450 1_554
O34 S1 1.495458 1_554
O35 S1 1.495448 1_554
O36 Si0 1.802603 1_555
O37 Si0 1.802603 1_565
O38 Si0 1.802603 1_665
O39 Si1 1.802603 1_665
O40 Si1 1.802603 1_655
O41 Si1 1.802603 1_555
O42 Si1 1.803666 1_556
O43 Si1 1.803675 1_566
O44 Si1 1.803670 1_666
O45 Si0 1.803666 1_665
O46 Si0 1.803675 1_655
O47 Si0 1.803670 1_555
O48 S0 1.488207 1_555
O49 S1 1.488207 1_555
