# generated using pymatgen
data_Ba(CuP2)2
_symmetry_space_group_name_H-M   'P 1'
_cell_length_a   5.43844124
_cell_length_b   5.79554079
_cell_length_c   9.84765134
_cell_angle_alpha   82.55597875
_cell_angle_beta   73.97070566
_cell_angle_gamma   62.01815216
_symmetry_Int_Tables_number   1
_chemical_formula_structural   Ba(CuP2)2
_chemical_formula_sum   'Ba2 Cu4 P8'
_cell_volume   263.44322439
_cell_formula_units_Z   2
loop_
 _symmetry_equiv_pos_site_id
 _symmetry_equiv_pos_as_xyz
  1  'x, y, z'
loop_
 _atom_site_type_symbol
 _atom_site_label
 _atom_site_symmetry_multiplicity
 _atom_site_fract_x
 _atom_site_fract_y
 _atom_site_fract_z
 _atom_site_occupancy
  Ba  Ba0  1  0.12500000  0.75000000  0.75000000  1
  Ba  Ba1  1  0.87500000  0.25000000  0.25000000  1
  Cu  Cu0  1  0.25301154  0.25000000  0.49397492  1
  Cu  Cu1  1  0.74698846  0.75000000  0.50602508  1
  Cu  Cu2  1  0.49698846  0.25000000  0.00602508  1
  Cu  Cu3  1  0.50301154  0.75000000  0.99397492  1
  P  P0  1  0.82810128  0.36946100  0.85843671  1
  P  P1  1  0.31346102  0.13053900  0.85843671  1
  P  P2  1  0.44400202  0.86946100  0.35843671  1
  P  P3  1  0.55599798  0.13053900  0.64156329  1
  P  P4  1  0.19756228  0.63053900  0.35843671  1
  P  P5  1  0.68653898  0.86946100  0.14156329  1
  P  P6  1  0.80243772  0.36946100  0.64156329  1
  P  P7  1  0.17189872  0.63053900  0.14156329  1
loop_
_geom_bond_atom_site_label_1
_geom_bond_atom_site_label_2
_geom_bond_distance
_geom_bond_site_symmetry_2
Ba0 P1 3.223431 1_565
Ba0 P0 3.223435 1_455
Ba0 P6 3.223435 1_555
Ba0 P3 3.223439 1_465
Ba0 P3 3.352289 1_555
Ba0 P6 3.352290 1_465
Ba0 P0 3.352290 1_465
Ba0 P1 3.352290 1_555
Ba0 Cu3 3.567407 1_555
Ba0 Cu1 3.567407 1_455
Ba0 Cu1 3.567416 1_555
Ba0 Cu3 3.567416 1_455
Ba1 P5 3.223431 1_545
Ba1 P7 3.223435 1_655
Ba1 P4 3.223435 1_555
Ba1 P2 3.223439 1_645
Ba1 P2 3.352289 1_555
Ba1 P4 3.352290 1_645
Ba1 P7 3.352290 1_645
Ba1 P5 3.352290 1_555
Ba1 Cu0 3.567407 1_655
Ba1 Cu2 3.567407 1_555
Ba1 Cu0 3.567416 1_555
Ba1 Cu2 3.567416 1_655
Cu0 P6 2.301775 1_455
Cu0 P3 2.301779 1_555
Cu0 P2 2.360468 1_545
Cu0 P4 2.360470 1_555
Cu1 P4 2.301775 1_655
Cu1 P2 2.301779 1_555
Cu1 P3 2.360468 1_565
Cu1 P6 2.360470 1_555
Cu2 P0 2.301775 1_554
Cu2 P1 2.301787 1_554
Cu2 P5 2.360469 1_545
Cu2 P7 2.360470 1_555
Cu3 P7 2.301775 1_556
Cu3 P5 2.301787 1_556
Cu3 P1 2.360469 1_565
Cu3 P0 2.360470 1_555
P0 P6 2.178367 1_555
P0 P1 2.335602 1_655
P1 P3 2.178367 1_555
P2 P5 2.178367 1_555
P2 P4 2.335611 1_555
P3 P6 2.335611 1_555
P4 P7 2.178367 1_555
P5 P7 2.335602 1_655
