# generated using pymatgen
data_SiC
_symmetry_space_group_name_H-M   'P 1'
_cell_length_a   32.90377964
_cell_length_b   32.90377960
_cell_length_c   32.90377991
_cell_angle_alpha   5.39747702
_cell_angle_beta   5.39747756
_cell_angle_gamma   5.39747801
_symmetry_Int_Tables_number   1
_chemical_formula_structural   SiC
_chemical_formula_sum   'Si13 C13'
_cell_volume   273.17465331
_cell_formula_units_Z   13
loop_
 _symmetry_equiv_pos_site_id
 _symmetry_equiv_pos_as_xyz
  1  'x, y, z'
loop_
 _atom_site_type_symbol
 _atom_site_label
 _atom_site_symmetry_multiplicity
 _atom_site_fract_x
 _atom_site_fract_y
 _atom_site_fract_z
 _atom_site_occupancy
  Si  Si0  1  0.61536500  0.61536500  0.61536500  1
  Si  Si1  1  0.15383000  0.15383000  0.15383000  1
  Si  Si2  1  0.92307100  0.92307100  0.92307100  1
  Si  Si3  1  0.76921700  0.76921700  0.76921700  1
  Si  Si4  1  0.71791300  0.71791300  0.71791300  1
  Si  Si5  1  0.07690200  0.07690200  0.07690200  1
  Si  Si6  1  0.35896100  0.35896100  0.35896100  1
  Si  Si7  1  0.99998000  0.99998000  0.99998000  1
  Si  Si8  1  0.30765500  0.30765500  0.30765500  1
  Si  Si9  1  0.46150500  0.46150500  0.46150500  1
  Si  Si10  1  0.23075600  0.23075600  0.23075600  1
  Si  Si11  1  0.87176300  0.87176300  0.87176300  1
  Si  Si12  1  0.51281000  0.51281000  0.51281000  1
  C  C0  1  0.53206700  0.53206700  0.53206700  1
  C  C1  1  0.32690400  0.32690400  0.32690400  1
  C  C2  1  0.17314200  0.17314200  0.17314200  1
  C  C3  1  0.89101100  0.89101100  0.89101100  1
  C  C4  1  0.09622100  0.09622100  0.09622100  1
  C  C5  1  0.94232900  0.94232900  0.94232900  1
  C  C6  1  0.01929600  0.01929600  0.01929600  1
  C  C7  1  0.48075300  0.48075300  0.48075300  1
  C  C8  1  0.63461800  0.63461800  0.63461800  1
  C  C9  1  0.78847800  0.78847800  0.78847800  1
  C  C10  1  0.25006900  0.25006900  0.25006900  1
  C  C11  1  0.37821600  0.37821600  0.37821600  1
  C  C12  1  0.73715800  0.73715800  0.73715800  1
loop_
_geom_bond_atom_site_label_1
_geom_bond_atom_site_label_2
_geom_bond_distance
_geom_bond_site_symmetry_2
C0 Si11 1.895670 1_554
C0 Si11 1.895670 1_545
C0 Si11 1.895670 1_455
C0 Si12 1.898073 1_555
C1 Si7 1.897197 1_445
C1 Si7 1.897197 1_454
C1 Si7 1.897197 1_544
C1 Si8 1.897284 1_555
C2 Si12 1.894759 1_554
C2 Si12 1.894759 1_545
C2 Si12 1.894759 1_455
C2 Si1 1.903494 1_555
C3 Si11 1.897186 1_555
C3 Si10 1.897273 1_665
C3 Si10 1.897273 1_656
C3 Si10 1.897273 1_566
C4 Si3 1.894586 1_445
C4 Si3 1.894586 1_454
C4 Si3 1.894586 1_544
C4 Si5 1.904184 1_555
C5 Si0 1.895887 1_556
C5 Si0 1.895887 1_565
C5 Si0 1.895888 1_655
C5 Si2 1.898171 1_555
C6 Si6 1.894661 1_554
C6 Si6 1.894661 1_545
C6 Si6 1.894662 1_455
C6 Si7 1.903888 1_444
C7 Si9 1.897186 1_555
C7 Si1 1.897229 1_556
C7 Si1 1.897229 1_565
C7 Si1 1.897230 1_655
C8 Si8 1.895920 1_556
C8 Si8 1.895920 1_565
C8 Si8 1.895920 1_655
C8 Si0 1.897678 1_555
C9 Si9 1.895594 1_556
C9 Si9 1.895594 1_565
C9 Si9 1.895594 1_655
C9 Si3 1.898467 1_555
C10 Si2 1.894780 1_445
C10 Si2 1.894780 1_454
C10 Si2 1.894781 1_544
C10 Si10 1.903592 1_555
C11 Si4 1.895702 1_554
C11 Si4 1.895703 1_545
C11 Si4 1.895703 1_455
C11 Si6 1.897876 1_555
C12 Si4 1.896890 1_555
C12 Si5 1.897240 1_665
C12 Si5 1.897240 1_656
C12 Si5 1.897241 1_566
