# generated using pymatgen
data_CdAg2GeS4
_symmetry_space_group_name_H-M   'P 1'
_cell_length_a   6.63618068
_cell_length_b   7.04451769
_cell_length_c   7.78799726
_cell_angle_alpha   89.99999459
_cell_angle_beta   89.99998976
_cell_angle_gamma   89.99998300
_symmetry_Int_Tables_number   1
_chemical_formula_structural   CdAg2GeS4
_chemical_formula_sum   'Cd2 Ag4 Ge2 S8'
_cell_volume   364.07868672
_cell_formula_units_Z   2
loop_
 _symmetry_equiv_pos_site_id
 _symmetry_equiv_pos_as_xyz
  1  'x, y, z'
loop_
 _atom_site_type_symbol
 _atom_site_label
 _atom_site_symmetry_multiplicity
 _atom_site_fract_x
 _atom_site_fract_y
 _atom_site_fract_z
 _atom_site_occupancy
  Cd  Cd0  1  0.01579059  0.14454183  -0.00000025  1
  Cd  Cd1  1  0.51579015  0.85545824  0.50000025  1
  Ag  Ag0  1  0.49469787  0.32375853  0.75701629  1
  Ag  Ag1  1  0.49469816  0.32375827  0.24298361  1
  Ag  Ag2  1  0.99469808  0.67624116  0.25701640  1
  Ag  Ag3  1  0.99469828  0.67624130  0.74298355  1
  Ge  Ge0  1  0.01209716  0.17374377  0.50000018  1
  Ge  Ge1  1  0.51209750  0.82625674  0.00000005  1
  S  S0  1  0.17661790  0.81987975  -0.00000013  1
  S  S1  1  0.61911401  0.66634196  0.23152539  1
  S  S2  1  0.63097127  0.12116325  0.00000000  1
  S  S3  1  0.67661774  0.18012018  0.50000002  1
  S  S4  1  0.11911394  0.33365817  0.26847457  1
  S  S5  1  0.61911408  0.66634171  0.76847462  1
  S  S6  1  0.13097124  0.87883682  0.50000002  1
  S  S7  1  0.11911401  0.33365832  0.73152545  1
loop_
_geom_bond_atom_site_label_1
_geom_bond_atom_site_label_2
_geom_bond_distance
_geom_bond_site_symmetry_2
Cd0 S0 2.523857 1_545
Cd0 S2 2.559036 1_455
Cd0 S7 2.572307 1_554
Cd0 S4 2.572310 1_555
Cd1 S3 2.523857 1_565
Cd1 S6 2.559033 1_555
Cd1 S5 2.572308 1_555
Cd1 S1 2.572310 1_555
Ag0 S7 2.501308 1_555
Ag0 S2 2.536867 1_556
Ag0 S3 2.547135 1_555
Ag0 S5 2.552222 1_555
Ag1 S4 2.501311 1_555
Ag1 S2 2.536865 1_555
Ag1 S3 2.547134 1_555
Ag1 S1 2.552225 1_555
Ag2 S1 2.501310 1_555
Ag2 S6 2.536868 1_655
Ag2 S0 2.547137 1_655
Ag2 S4 2.552220 1_655
Ag3 S5 2.501311 1_555
Ag3 S6 2.536866 1_655
Ag3 S0 2.547135 1_656
Ag3 S7 2.552219 1_655
Ge0 S6 2.222212 1_545
Ge0 S3 2.226755 1_455
Ge0 S7 2.241572 1_555
Ge0 S4 2.241573 1_555
Ge1 S2 2.222209 1_565
Ge1 S0 2.226756 1_555
Ge1 S1 2.241572 1_555
Ge1 S5 2.241574 1_554
