# generated using pymatgen
data_La2Si2O7
_symmetry_space_group_name_H-M   'P 1'
_cell_length_a   23.60619000
_cell_length_b   7.41487500
_cell_length_c   10.21394589
_cell_angle_alpha   89.34969176
_cell_angle_beta   90.00000000
_cell_angle_gamma   90.00000000
_symmetry_Int_Tables_number   1
_chemical_formula_structural   La2Si2O7
_chemical_formula_sum   'La24 Si24 O84'
_cell_volume   1787.70276134
_cell_formula_units_Z   12
loop_
 _symmetry_equiv_pos_site_id
 _symmetry_equiv_pos_as_xyz
  1  'x, y, z'
loop_
 _atom_site_type_symbol
 _atom_site_label
 _atom_site_symmetry_multiplicity
 _atom_site_fract_x
 _atom_site_fract_y
 _atom_site_fract_z
 _atom_site_occupancy
  La  La0  1  0.31584000  0.08987000  0.26415200  1
  La  La1  1  0.18418300  0.59479700  0.73917000  1
  La  La2  1  0.15794200  0.85051900  0.36096100  1
  La  La3  1  0.68416000  0.91013000  0.73584800  1
  La  La4  1  0.81584000  0.91013000  0.23584800  1
  La  La5  1  0.18416000  0.08987000  0.76415200  1
  La  La6  1  0.07475900  0.35686400  0.50727700  1
  La  La7  1  0.81581700  0.40520300  0.26083000  1
  La  La8  1  0.42524100  0.35686400  0.00727700  1
  La  La9  1  0.66557200  0.67218200  0.36435300  1
  La  La10  1  0.31581700  0.59479700  0.23917000  1
  La  La11  1  0.83442800  0.67218200  0.86435300  1
  La  La12  1  0.07685200  0.86623400  0.00800300  1
  La  La13  1  0.42314800  0.86623400  0.50800300  1
  La  La14  1  0.34205800  0.85051900  0.86096100  1
  La  La15  1  0.57475900  0.64313600  0.99272300  1
  La  La16  1  0.57685200  0.13376600  0.49199700  1
  La  La17  1  0.65794200  0.14948100  0.13903900  1
  La  La18  1  0.68418300  0.40520300  0.76083000  1
  La  La19  1  0.84205800  0.14948100  0.63903900  1
  La  La20  1  0.92524100  0.64313600  0.49272300  1
  La  La21  1  0.92314800  0.13376600  0.99199700  1
  La  La22  1  0.16557200  0.32781800  0.13564700  1
  La  La23  1  0.33442800  0.32781800  0.63564700  1
  Si  Si0  1  0.57988300  0.14864100  0.87273800  1
  Si  Si1  1  0.72417200  0.19275900  0.44227000  1
  Si  Si2  1  0.96692600  0.41817600  0.76622300  1
  Si  Si3  1  0.46692600  0.58182400  0.73377700  1
  Si  Si4  1  0.03307400  0.58182400  0.23377700  1
  Si  Si5  1  0.53505400  0.84097300  0.26124400  1
  Si  Si6  1  0.28032000  0.30772000  0.93529400  1
  Si  Si7  1  0.07988300  0.85135900  0.62726200  1
  Si  Si8  1  0.21968000  0.30772000  0.43529400  1
  Si  Si9  1  0.42011700  0.85135900  0.12726200  1
  Si  Si10  1  0.41699700  0.35871700  0.38280700  1
  Si  Si11  1  0.91699700  0.64128300  0.11719300  1
  Si  Si12  1  0.58300300  0.64128300  0.61719300  1
  Si  Si13  1  0.71968000  0.69228000  0.06470600  1
  Si  Si14  1  0.53307400  0.41817600  0.26622300  1
  Si  Si15  1  0.96494600  0.84097300  0.76124400  1
  Si  Si16  1  0.46494600  0.15902700  0.73875600  1
  Si  Si17  1  0.92011700  0.14864100  0.37273800  1
  Si  Si18  1  0.77582800  0.19275900  0.94227100  1
  Si  Si19  1  0.08300300  0.35871700  0.88280700  1
  Si  Si20  1  0.22417200  0.80724100  0.05773000  1
  Si  Si21  1  0.27582800  0.80724100  0.55772900  1
  Si  Si22  1  0.03505400  0.15902700  0.23875600  1
  Si  Si23  1  0.78032000  0.69228000  0.56470600  1
  O  O0  1  0.22460100  0.79190500  0.89600100  1
  O  O1  1  0.71059800  0.13285800  0.90126000  1
  O  O2  1  0.50813700  0.42517700  0.11995500  1
  O  O3  1  0.21548500  0.61836200  0.14362900  1
  O  O4  1  0.98719500  0.65237100  0.12236200  1
  O  O5  1  0.67586200  0.04790900  0.39806000  1
  O  O6  1  0.78528800  0.63044100  0.10037500  1
  O  O7  1  0.28086900  0.28854100  0.09681500  1
  O  O8  1  0.49095500  0.83177400  0.13434600  1
  O  O9  1  0.60620300  0.32332300  0.94955600  1
  O  O10  1  0.17586200  0.95209100  0.10194000  1
  O  O11  1  0.10889600  0.17961400  0.95740300  1
  O  O12  1  0.28940200  0.86714200  0.09874000  1
  O  O13  1  0.78451500  0.38163800  0.85637100  1
  O  O14  1  0.21913100  0.28854100  0.59681500  1
  O  O15  1  0.33247400  0.43684000  0.88415800  1
  O  O16  1  0.94896900  0.62778600  0.80347400  1
  O  O17  1  0.09748300  0.09387900  0.28156800  1
  O  O18  1  0.89110400  0.82038600  0.04259700  1
  O  O19  1  0.60972700  0.64829200  0.76744300  1
  O  O20  1  0.71512000  0.87609500  0.15495700  1
  O  O21  1  0.49385300  0.05395200  0.62088100  1
  O  O22  1  0.60932500  0.15220900  0.72533300  1
  O  O23  1  0.89989500  0.96282200  0.44549800  1
  O  O24  1  0.50614700  0.94604800  0.37911900  1
  O  O25  1  0.90251700  0.90612100  0.71843200  1
  O  O26  1  0.05103100  0.37221400  0.19652600  1
  O  O27  1  0.39989500  0.03717800  0.05450200  1
  O  O28  1  0.40251700  0.09387900  0.78156800  1
  O  O29  1  0.10010500  0.03717800  0.55450200  1
  O  O30  1  0.71548500  0.38163800  0.35637100  1
  O  O31  1  0.60889600  0.82038600  0.54259700  1
  O  O32  1  0.91077500  0.29596500  0.78227900  1
  O  O33  1  0.71913100  0.71145900  0.90318500  1
  O  O34  1  0.59748300  0.90612100  0.21843200  1
  O  O35  1  0.44896900  0.37221400  0.69652600  1
  O  O36  1  0.82413800  0.04790900  0.89806000  1
  O  O37  1  0.89379700  0.32332300  0.44955600  1
  O  O38  1  0.10932500  0.84779100  0.77466700  1
  O  O39  1  0.27539900  0.79190500  0.39600100  1
  O  O40  1  0.28528800  0.36955900  0.39962500  1
  O  O41  1  0.60644200  0.46170200  0.54512800  1
  O  O42  1  0.58922500  0.29596500  0.28227900  1
  O  O43  1  0.28488000  0.12390500  0.84504300  1
  O  O44  1  0.00813700  0.57482300  0.38004500  1
  O  O45  1  0.16752600  0.43684000  0.38415800  1
  O  O46  1  0.21471200  0.36955900  0.89962500  1
  O  O47  1  0.10644200  0.53829800  0.95487200  1
  O  O48  1  0.78488000  0.87609500  0.65495700  1
  O  O49  1  0.89355800  0.46170200  0.04512800  1
  O  O50  1  0.60010500  0.96282200  0.94549800  1
  O  O51  1  0.55103100  0.62778600  0.30347400  1
  O  O52  1  0.49186300  0.57482300  0.88004500  1
  O  O53  1  0.39379700  0.67667700  0.05044400  1
  O  O54  1  0.51280500  0.65237100  0.62236200  1
  O  O55  1  0.41077500  0.70403500  0.71772100  1
  O  O56  1  0.28451500  0.61836200  0.64362900  1
  O  O57  1  0.72460100  0.20809500  0.60399900  1
  O  O58  1  0.39027300  0.35170800  0.23255700  1
  O  O59  1  0.39355800  0.53829800  0.45487200  1
  O  O60  1  0.71471200  0.63044100  0.60037500  1
  O  O61  1  0.78940200  0.13285800  0.40126000  1
  O  O62  1  0.10972700  0.35170800  0.73255700  1
  O  O63  1  0.83247400  0.56316000  0.61584200  1
  O  O64  1  0.89027300  0.64829200  0.26744300  1
  O  O65  1  0.08922500  0.70403500  0.21772100  1
  O  O66  1  0.99385300  0.94604800  0.87911900  1
  O  O67  1  0.99186300  0.42517700  0.61995500  1
  O  O68  1  0.00904500  0.83177400  0.63434600  1
  O  O69  1  0.77539900  0.20809500  0.10399900  1
  O  O70  1  0.39067500  0.84779100  0.27466700  1
  O  O71  1  0.99095500  0.16822600  0.36565400  1
  O  O72  1  0.00614700  0.05395200  0.12088100  1
  O  O73  1  0.10620300  0.67667700  0.55044400  1
  O  O74  1  0.48719500  0.34762900  0.37763800  1
  O  O75  1  0.21059800  0.86714200  0.59874000  1
  O  O76  1  0.50904500  0.16822600  0.86565400  1
  O  O77  1  0.01280500  0.34762900  0.87763800  1
  O  O78  1  0.89067500  0.15220900  0.22533300  1
  O  O79  1  0.66752600  0.56316000  0.11584200  1
  O  O80  1  0.21512000  0.12390500  0.34504300  1
  O  O81  1  0.32413800  0.95209100  0.60194000  1
  O  O82  1  0.78086900  0.71145900  0.40318500  1
  O  O83  1  0.39110400  0.17961400  0.45740300  1
loop_
_geom_bond_atom_site_label_1
_geom_bond_atom_site_label_2
_geom_bond_distance
_geom_bond_site_symmetry_2
La0 O7 2.390753 1_555
La0 O12 2.456569 1_545
La0 O70 2.519900 1_545
La0 O80 2.530634 1_555
La0 O40 2.607843 1_555
La0 O58 2.635651 1_555
La0 O83 2.743243 1_555
La0 O39 2.745680 1_545
La0 O27 2.948586 1_555
La1 O0 2.380235 1_555
La1 O46 2.435659 1_555
La1 O62 2.519023 1_555
La1 O75 2.541340 1_555
La1 O56 2.566813 1_555
La1 O38 2.605504 1_555
La1 O73 2.728811 1_555
La1 O14 2.833099 1_555
La1 O47 2.894192 1_555
La2 O17 2.432581 1_565
La2 O80 2.439266 1_565
La2 O65 2.446973 1_555
La2 O73 2.615781 1_555
La2 O75 2.732298 1_555
La2 O10 2.774938 1_555
La2 O29 2.783809 1_565
La2 O39 2.828672 1_555
La2 O45 3.082148 1_555
La2 O3 3.134130 1_555
La3 O33 2.390753 1_555
La3 O1 2.456569 1_565
La3 O22 2.519900 1_565
La3 O48 2.530634 1_555
La3 O60 2.607843 1_555
La3 O19 2.635651 1_555
La3 O31 2.743243 1_555
La3 O57 2.745680 1_565
La3 O50 2.948586 1_555
La4 O82 2.390753 1_555
La4 O61 2.456569 1_565
La4 O78 2.519900 1_565
La4 O20 2.530634 1_555
La4 O6 2.607843 1_555
La4 O64 2.635651 1_555
La4 O18 2.743243 1_555
La4 O69 2.745680 1_565
La4 O23 2.948586 1_555
La5 O14 2.390753 1_555
La5 O75 2.456569 1_545
La5 O38 2.519900 1_545
La5 O43 2.530634 1_555
La5 O46 2.607843 1_555
La5 O62 2.635651 1_555
La5 O11 2.743243 1_555
La5 O0 2.745680 1_545
La5 O29 2.948586 1_555
La6 O67 2.328872 1_455
La6 O62 2.444472 1_555
La6 O29 2.486694 1_555
La6 O73 2.528342 1_555
La6 O45 2.590690 1_555
La6 O44 2.593529 1_555
La6 O71 2.829922 1_455
La7 O69 2.380235 1_555
La7 O6 2.435659 1_555
La7 O64 2.519023 1_555
La7 O61 2.541340 1_555
La7 O30 2.566813 1_555
La7 O78 2.605504 1_555
La7 O37 2.728811 1_555
La7 O82 2.833099 1_555
La7 O49 2.894192 1_555
La8 O2 2.328872 1_555
La8 O58 2.444472 1_555
La8 O27 2.486694 1_555
La8 O53 2.528342 1_555
La8 O15 2.590690 1_554
La8 O52 2.593529 1_554
La8 O76 2.829922 1_554
La9 O30 2.457668 1_555
La9 O31 2.521410 1_555
La9 O79 2.673022 1_555
La9 O60 2.689986 1_555
La9 O82 2.766320 1_555
La9 O41 2.779921 1_555
La9 O34 2.784800 1_555
La9 O51 2.794748 1_555
La9 O5 2.821512 1_565
La9 O20 2.855706 1_555
La10 O39 2.380235 1_555
La10 O40 2.435659 1_555
La10 O58 2.519023 1_555
La10 O12 2.541340 1_555
La10 O3 2.566813 1_555
La10 O70 2.605504 1_555
La10 O53 2.728811 1_555
La10 O7 2.833099 1_555
La10 O59 2.894192 1_555
La11 O13 2.457668 1_555
La11 O18 2.521410 1_556
La11 O63 2.673022 1_555
La11 O6 2.689986 1_556
La11 O33 2.766320 1_555
La11 O49 2.779921 1_556
La11 O25 2.784800 1_555
La11 O16 2.794748 1_555
La11 O36 2.821512 1_565
La11 O48 2.855706 1_555
La12 O66 2.429881 1_454
La12 O65 2.462043 1_555
La12 O72 2.467567 1_565
La12 O11 2.492289 1_564
La12 O38 2.508735 1_554
La12 O47 2.593273 1_554
La12 O10 2.608152 1_555
La12 O4 2.883812 1_455
La13 O24 2.429881 1_555
La13 O55 2.462043 1_555
La13 O21 2.467567 1_565
La13 O83 2.492289 1_565
La13 O70 2.508735 1_555
La13 O59 2.593273 1_555
La13 O81 2.608152 1_555
La13 O54 2.883812 1_555
La14 O28 2.432581 1_565
La14 O43 2.439266 1_565
La14 O55 2.446973 1_555
La14 O53 2.615781 1_556
La14 O12 2.732298 1_556
La14 O81 2.774938 1_555
La14 O27 2.783809 1_566
La14 O0 2.828672 1_555
La14 O15 3.082148 1_555
La14 O56 3.134130 1_555
La15 O52 2.328872 1_555
La15 O19 2.444472 1_555
La15 O50 2.486694 1_555
La15 O9 2.528342 1_555
La15 O79 2.590690 1_556
La15 O2 2.593529 1_556
La15 O8 2.829922 1_556
La16 O21 2.429881 1_555
La16 O42 2.462043 1_555
La16 O24 2.467567 1_545
La16 O31 2.492289 1_545
La16 O22 2.508735 1_555
La16 O41 2.593273 1_555
La16 O5 2.608152 1_555
La16 O74 2.883812 1_555
La17 O34 2.432581 1_545
La17 O20 2.439266 1_545
La17 O42 2.446973 1_555
La17 O9 2.615781 1_554
La17 O1 2.732298 1_554
La17 O5 2.774938 1_555
La17 O50 2.783809 1_544
La17 O69 2.828672 1_555
La17 O79 3.082148 1_555
La17 O30 3.134130 1_555
La18 O57 2.380235 1_555
La18 O60 2.435659 1_555
La18 O19 2.519023 1_555
La18 O1 2.541340 1_555
La18 O13 2.566813 1_555
La18 O22 2.605504 1_555
La18 O9 2.728811 1_555
La18 O33 2.833099 1_555
La18 O41 2.894192 1_555
La19 O25 2.432581 1_545
La19 O48 2.439266 1_545
La19 O32 2.446973 1_555
La19 O37 2.615781 1_555
La19 O61 2.732298 1_555
La19 O36 2.774938 1_555
La19 O23 2.783809 1_545
La19 O57 2.828672 1_555
La19 O63 3.082148 1_555
La19 O13 3.134130 1_555
La20 O44 2.328872 1_655
La20 O64 2.444472 1_555
La20 O23 2.486694 1_555
La20 O37 2.528342 1_555
La20 O63 2.590690 1_555
La20 O67 2.593529 1_555
La20 O68 2.829922 1_655
La21 O72 2.429881 1_656
La21 O32 2.462043 1_555
La21 O66 2.467567 1_545
La21 O18 2.492289 1_546
La21 O78 2.508735 1_556
La21 O49 2.593273 1_556
La21 O36 2.608152 1_555
La21 O77 2.883812 1_655
La22 O3 2.457668 1_555
La22 O11 2.521410 1_554
La22 O45 2.673022 1_555
La22 O46 2.689986 1_554
La22 O7 2.766320 1_555
La22 O47 2.779921 1_554
La22 O17 2.784800 1_555
La22 O26 2.794748 1_555
La22 O10 2.821512 1_545
La22 O80 2.855706 1_555
La23 O56 2.457668 1_555
La23 O83 2.521410 1_555
La23 O15 2.673022 1_555
La23 O40 2.689986 1_555
La23 O14 2.766320 1_555
La23 O59 2.779921 1_555
La23 O28 2.784800 1_555
La23 O35 2.794748 1_555
La23 O81 2.821512 1_545
La23 O43 2.855706 1_555
O0 Si20 1.657119 1_556
O1 Si18 1.657723 1_555
O2 Si14 1.606057 1_555
O3 Si20 1.656917 1_555
O4 Si4 1.651691 1_655
O4 Si11 1.660015 1_555
O5 Si1 1.633717 1_555
O6 Si13 1.654638 1_555
O7 Si6 1.654327 1_554
O8 Si5 1.664425 1_555
O8 Si9 1.679997 1_555
O9 Si0 1.643892 1_555
O10 Si20 1.633717 1_555
O11 Si19 1.641589 1_555
O12 Si20 1.657720 1_555
O13 Si18 1.656922 1_555
O14 Si8 1.654327 1_555
O15 Si6 1.641288 1_555
O16 Si2 1.659371 1_555
O16 Si15 1.676784 1_555
O17 Si22 1.609843 1_555
O18 Si11 1.641589 1_555
O19 Si12 1.660609 1_555
O20 Si13 1.657568 1_555
O21 Si16 1.594838 1_555
O22 Si0 1.658201 1_555
O23 Si17 1.629519 1_565
O24 Si5 1.594838 1_555
O25 Si15 1.609843 1_555
O26 Si4 1.659371 1_555
O26 Si22 1.676784 1_555
O27 Si9 1.629519 1_545
O28 Si16 1.609843 1_555
O29 Si7 1.629519 1_545
O30 Si1 1.656917 1_555
O31 Si12 1.641589 1_555
O32 Si2 1.612967 1_555
O33 Si13 1.654327 1_556
O34 Si5 1.609843 1_555
O35 Si3 1.659371 1_555
O35 Si16 1.676784 1_555
O36 Si18 1.633720 1_555
O37 Si17 1.643892 1_555
O38 Si7 1.658201 1_555
O39 Si21 1.657108 1_555
O40 Si8 1.654638 1_555
O41 Si12 1.625814 1_555
O42 Si14 1.612967 1_555
O43 Si6 1.657568 1_555
O44 Si4 1.606057 1_555
O45 Si8 1.641288 1_555
O46 Si6 1.654638 1_555
O47 Si19 1.625814 1_555
O48 Si23 1.657568 1_555
O49 Si11 1.625814 1_555
O50 Si0 1.629519 1_565
O51 Si14 1.659371 1_555
O51 Si5 1.676784 1_555
O52 Si3 1.606057 1_555
O53 Si9 1.643892 1_555
O54 Si3 1.651691 1_555
O54 Si12 1.660015 1_555
O55 Si3 1.612967 1_555
O56 Si21 1.656922 1_555
O57 Si1 1.657119 1_555
O58 Si10 1.660609 1_555
O59 Si10 1.625814 1_555
O60 Si23 1.654638 1_555
O61 Si1 1.657720 1_555
O62 Si19 1.660609 1_555
O63 Si23 1.641288 1_555
O64 Si11 1.660609 1_555
O65 Si4 1.612967 1_555
O66 Si15 1.594838 1_555
O67 Si2 1.606057 1_555
O68 Si15 1.664425 1_455
O68 Si7 1.679997 1_555
O69 Si18 1.657108 1_554
O70 Si9 1.658201 1_555
O71 Si22 1.664425 1_655
O71 Si17 1.679997 1_555
O72 Si22 1.594838 1_555
O73 Si7 1.643892 1_555
O74 Si14 1.651691 1_555
O74 Si10 1.660015 1_555
O75 Si21 1.657723 1_555
O76 Si16 1.664425 1_555
O76 Si0 1.679997 1_555
O77 Si2 1.651691 1_455
O77 Si19 1.660015 1_555
O78 Si17 1.658201 1_555
O79 Si13 1.641288 1_555
O80 Si8 1.657568 1_555
O81 Si21 1.633720 1_555
O82 Si23 1.654327 1_555
O83 Si10 1.641589 1_555
