# generated using pymatgen
data_Ho2(Ni5B2)3
_symmetry_space_group_name_H-M   'P 1'
_cell_length_a   9.59560169
_cell_length_b   10.66575987
_cell_length_c   14.23173738
_cell_angle_alpha   90.00000000
_cell_angle_beta   94.49926107
_cell_angle_gamma   90.00000000
_symmetry_Int_Tables_number   1
_chemical_formula_structural   Ho2(Ni5B2)3
_chemical_formula_sum   'Ho12 Ni90 B36'
_cell_volume   1452.04983922
_cell_formula_units_Z   6
loop_
 _symmetry_equiv_pos_site_id
 _symmetry_equiv_pos_as_xyz
  1  'x, y, z'
loop_
 _atom_site_type_symbol
 _atom_site_label
 _atom_site_symmetry_multiplicity
 _atom_site_fract_x
 _atom_site_fract_y
 _atom_site_fract_z
 _atom_site_occupancy
  Ho  Ho0  1  0.33968167  0.61273888  0.68714917  1
  Ho  Ho1  1  0.06391047  0.65037522  0.36148950  1
  Ho  Ho2  1  0.16031833  0.11273888  0.31285083  1
  Ho  Ho3  1  0.56391047  0.84962478  0.36148950  1
  Ho  Ho4  1  0.66031833  0.38726112  0.31285083  1
  Ho  Ho5  1  0.79237027  0.62529069  0.97376173  1
  Ho  Ho6  1  0.29237027  0.87470931  0.97376173  1
  Ho  Ho7  1  0.93608953  0.34962478  0.63851050  1
  Ho  Ho8  1  0.20762973  0.37470931  0.02623827  1
  Ho  Ho9  1  0.83968167  0.88726112  0.68714917  1
  Ho  Ho10  1  0.70762973  0.12529069  0.02623827  1
  Ho  Ho11  1  0.43608953  0.15037522  0.63851050  1
  Ni  Ni0  1  0.43452554  0.42598006  0.15719935  1
  Ni  Ni1  1  0.13063674  0.38552604  0.33838176  1
  Ni  Ni2  1  0.29759552  0.27891033  0.47129719  1
  Ni  Ni3  1  0.93275414  0.68404782  0.15200056  1
  Ni  Ni4  1  0.06547446  0.92598006  0.84280065  1
  Ni  Ni5  1  0.07526710  0.56580252  0.56692893  1
  Ni  Ni6  1  0.03682555  0.76592125  0.99088857  1
  Ni  Ni7  1  0.66226186  0.97607183  0.18549235  1
  Ni  Ni8  1  0.86936326  0.61447396  0.66161824  1
  Ni  Ni9  1  0.20240448  0.77891033  0.52870281  1
  Ni  Ni10  1  0.79299820  0.87653162  0.03113970  1
  Ni  Ni11  1  0.29247535  0.53333669  0.48422599  1
  Ni  Ni12  1  0.17477802  0.21141388  0.71184594  1
  Ni  Ni13  1  0.94801855  0.75697168  0.53623737  1
  Ni  Ni14  1  0.59753191  0.74028000  0.68703052  1
  Ni  Ni15  1  0.44222772  0.37979582  0.74693056  1
  Ni  Ni16  1  0.29299820  0.62346838  0.03113970  1
  Ni  Ni17  1  0.56088477  0.20755948  0.17929018  1
  Ni  Ni18  1  0.27007233  0.88158136  0.38685075  1
  Ni  Ni19  1  0.55777228  0.62020418  0.25306944  1
  Ni  Ni20  1  0.44412021  0.04246474  0.07367359  1
  Ni  Ni21  1  0.77007233  0.61841864  0.38685075  1
  Ni  Ni22  1  0.14679661  0.98955077  0.69087027  1
  Ni  Ni23  1  0.17908358  0.75096276  0.14407798  1
  Ni  Ni24  1  0.55198145  0.25697168  0.46376263  1
  Ni  Ni25  1  0.98320400  0.08628253  0.57252819  1
  Ni  Ni26  1  0.55587979  0.95753526  0.92632641  1
  Ni  Ni27  1  0.96317445  0.23407875  0.00911143  1
  Ni  Ni28  1  0.57526710  0.93419748  0.56692893  1
  Ni  Ni29  1  0.30198733  0.48504611  0.86756510  1
  Ni  Ni30  1  0.42473290  0.06580252  0.43307107  1
  Ni  Ni31  1  0.05198145  0.24302832  0.46376263  1
  Ni  Ni32  1  0.93452554  0.07401994  0.15719935  1
  Ni  Ni33  1  0.72992767  0.11841864  0.61314925  1
  Ni  Ni34  1  0.58419136  0.97152861  0.75075385  1
  Ni  Ni35  1  0.82091642  0.24903724  0.85592202  1
  Ni  Ni36  1  0.92473290  0.43419748  0.43307107  1
  Ni  Ni37  1  0.06088477  0.29244052  0.17929018  1
  Ni  Ni38  1  0.67908358  0.74903724  0.14407798  1
  Ni  Ni39  1  0.70752465  0.46666331  0.51577401  1
  Ni  Ni40  1  0.20752465  0.03333669  0.51577401  1
  Ni  Ni41  1  0.79247535  0.96666331  0.48422599  1
  Ni  Ni42  1  0.20700180  0.12346838  0.96886030  1
  Ni  Ni43  1  0.32091642  0.25096276  0.85592202  1
  Ni  Ni44  1  0.56547446  0.57401994  0.84280065  1
  Ni  Ni45  1  0.44801855  0.74302832  0.53623737  1
  Ni  Ni46  1  0.50000000  0.50000000  0.00000000  1
  Ni  Ni47  1  0.19889517  0.70128610  0.85021927  1
  Ni  Ni48  1  0.33773814  0.02392817  0.81450765  1
  Ni  Ni49  1  0.64679661  0.51044923  0.69087027  1
  Ni  Ni50  1  0.43275414  0.81595218  0.15200056  1
  Ni  Ni51  1  0.16226186  0.52392817  0.18549235  1
  Ni  Ni52  1  0.67477802  0.28858612  0.71184594  1
  Ni  Ni53  1  0.01679600  0.91371747  0.42747181  1
  Ni  Ni54  1  0.22992767  0.38158136  0.61314925  1
  Ni  Ni55  1  0.32522198  0.71141388  0.28815406  1
  Ni  Ni56  1  0.43911523  0.79244052  0.82070982  1
  Ni  Ni57  1  0.83773814  0.47607183  0.81450765  1
  Ni  Ni58  1  0.80198733  0.01495389  0.86756510  1
  Ni  Ni59  1  0.40246809  0.25972000  0.31296948  1
  Ni  Ni60  1  0.05777228  0.87979582  0.25306944  1
  Ni  Ni61  1  0.69889517  0.79871390  0.85021927  1
  Ni  Ni62  1  0.70240448  0.72108967  0.52870281  1
  Ni  Ni63  1  0.94412021  0.45753526  0.07367359  1
  Ni  Ni64  1  0.93911523  0.70755948  0.82070982  1
  Ni  Ni65  1  0.82522198  0.78858612  0.28815406  1
  Ni  Ni66  1  0.35320339  0.48955077  0.30912973  1
  Ni  Ni67  1  0.30110483  0.20128610  0.14978073  1
  Ni  Ni68  1  0.69801267  0.51495389  0.13243490  1
  Ni  Ni69  1  0.90246809  0.24028000  0.31296948  1
  Ni  Ni70  1  0.41580864  0.02847139  0.24924615  1
  Ni  Ni71  1  0.19801267  0.98504611  0.13243490  1
  Ni  Ni72  1  0.48320400  0.41371747  0.57252819  1
  Ni  Ni73  1  0.79759552  0.22108967  0.47129719  1
  Ni  Ni74  1  0.36936326  0.88552604  0.66161824  1
  Ni  Ni75  1  0.08419136  0.52847139  0.75075385  1
  Ni  Ni76  1  0.56724586  0.18404782  0.84799944  1
  Ni  Ni77  1  0.46317445  0.26592125  0.00911143  1
  Ni  Ni78  1  0.00000000  0.00000000  0.00000000  1
  Ni  Ni79  1  0.63063674  0.11447396  0.33838176  1
  Ni  Ni80  1  0.53682555  0.73407875  0.99088857  1
  Ni  Ni81  1  0.06724586  0.31595218  0.84799944  1
  Ni  Ni82  1  0.05587979  0.54246474  0.92632641  1
  Ni  Ni83  1  0.09753191  0.75972000  0.68703052  1
  Ni  Ni84  1  0.91580864  0.47152861  0.24924615  1
  Ni  Ni85  1  0.85320339  0.01044923  0.30912973  1
  Ni  Ni86  1  0.94222772  0.12020418  0.74693056  1
  Ni  Ni87  1  0.70700180  0.37653162  0.96886030  1
  Ni  Ni88  1  0.80110483  0.29871390  0.14978073  1
  Ni  Ni89  1  0.51679600  0.58628253  0.42747181  1
  B  B0  1  0.10690341  0.14690577  0.09619078  1
  B  B1  1  0.49155434  0.37402462  0.89006802  1
  B  B2  1  0.33139900  0.69687331  0.42350999  1
  B  B3  1  0.64255208  0.38888463  0.82380530  1
  B  B4  1  0.99155434  0.12597538  0.89006802  1
  B  B5  1  0.00844566  0.87402462  0.10993198  1
  B  B6  1  0.60690341  0.35309423  0.09619078  1
  B  B7  1  0.85744792  0.88888463  0.17619470  1
  B  B8  1  0.66860100  0.30312669  0.57649001  1
  B  B9  1  0.89309659  0.85309423  0.90380922  1
  B  B10  1  0.21963445  0.38426649  0.75586814  1
  B  B11  1  0.07698494  0.60415424  0.06298277  1
  B  B12  1  0.37217084  0.92235966  0.51894629  1
  B  B13  1  0.57698494  0.89584576  0.06298277  1
  B  B14  1  0.50844566  0.62597538  0.10993198  1
  B  B15  1  0.16860100  0.19687331  0.57649001  1
  B  B16  1  0.25620738  0.35326018  0.22661900  1
  B  B17  1  0.87217084  0.57764034  0.51894629  1
  B  B18  1  0.24379262  0.85326018  0.77338100  1
  B  B19  1  0.35744792  0.61111537  0.17619470  1
  B  B20  1  0.12782916  0.42235966  0.48105371  1
  B  B21  1  0.71963445  0.11573351  0.75586814  1
  B  B22  1  0.83139900  0.80312669  0.42350999  1
  B  B23  1  0.39309659  0.64690577  0.90380922  1
  B  B24  1  0.43215013  0.40665786  0.42578737  1
  B  B25  1  0.14255208  0.11111537  0.82380530  1
  B  B26  1  0.92301506  0.39584576  0.93701723  1
  B  B27  1  0.06784987  0.90665786  0.57421263  1
  B  B28  1  0.93215013  0.09334214  0.42578737  1
  B  B29  1  0.62782916  0.07764034  0.48105371  1
  B  B30  1  0.28036555  0.88426649  0.24413186  1
  B  B31  1  0.56784987  0.59334214  0.57421263  1
  B  B32  1  0.75620738  0.14673982  0.22661900  1
  B  B33  1  0.78036555  0.61573351  0.24413186  1
  B  B34  1  0.42301506  0.10415424  0.93701723  1
  B  B35  1  0.74379262  0.64673982  0.77338100  1
loop_
_geom_bond_atom_site_label_1
_geom_bond_atom_site_label_2
_geom_bond_distance
_geom_bond_site_symmetry_2
Ho0 Ni15 2.780927 1_555
Ho0 Ni83 2.802847 1_555
Ho0 Ni56 2.812902 1_555
Ho0 Ni14 2.823640 1_555
Ho0 Ni45 2.823975 1_555
Ho0 Ni75 2.825886 1_555
Ho0 Ni54 2.850050 1_555
Ho0 Ni47 2.931692 1_555
Ho0 Ni74 2.948638 1_555
Ho0 Ni29 2.953667 1_555
Ho0 Ni5 2.989035 1_555
Ho0 Ni44 3.003139 1_555
Ho0 Ni11 3.009553 1_555
Ho0 Ni72 3.068552 1_555
Ho0 Ni9 3.081431 1_555
Ho0 Ni49 3.138968 1_555
Ho1 Ni84 2.802475 1_455
Ho1 Ni65 2.851849 1_455
Ho1 Ni55 2.865479 1_555
Ho1 Ni36 2.889819 1_455
Ho1 Ni21 2.890674 1_455
Ho1 Ni60 2.890954 1_555
Ho1 Ni1 2.920743 1_555
Ho1 Ni9 2.968580 1_555
Ho1 Ni11 2.969606 1_555
Ho1 Ni53 3.006966 1_555
Ho1 Ni13 3.024596 1_455
Ho1 Ni5 3.053510 1_555
Ho1 Ni51 3.058452 1_555
Ho1 Ni3 3.164313 1_455
Ho2 Ni60 2.780927 1_545
Ho2 Ni59 2.802847 1_555
Ho2 Ni37 2.812902 1_555
Ho2 Ni69 2.823640 1_455
Ho2 Ni31 2.823975 1_555
Ho2 Ni70 2.825886 1_555
Ho2 Ni18 2.850050 1_545
Ho2 Ni67 2.931692 1_555
Ho2 Ni1 2.948638 1_555
Ho2 Ni71 2.953667 1_545
Ho2 Ni30 2.989035 1_555
Ho2 Ni32 3.003139 1_455
Ho2 Ni40 3.009553 1_555
Ho2 Ni53 3.068552 1_545
Ho2 Ni2 3.081431 1_555
Ho2 Ni85 3.138968 1_455
Ho3 Ni70 2.802475 1_565
Ho3 Ni55 2.851849 1_555
Ho3 Ni65 2.865479 1_555
Ho3 Ni30 2.889819 1_565
Ho3 Ni18 2.890674 1_555
Ho3 Ni19 2.890954 1_555
Ho3 Ni79 2.920743 1_565
Ho3 Ni62 2.968580 1_555
Ho3 Ni41 2.969606 1_555
Ho3 Ni89 3.006966 1_555
Ho3 Ni45 3.024596 1_555
Ho3 Ni28 3.053510 1_555
Ho3 Ni7 3.058452 1_555
Ho3 Ni50 3.164313 1_555
Ho4 Ni19 2.780927 1_555
Ho4 Ni69 2.802847 1_555
Ho4 Ni17 2.812902 1_555
Ho4 Ni59 2.823640 1_555
Ho4 Ni24 2.823975 1_555
Ho4 Ni84 2.825886 1_555
Ho4 Ni21 2.850050 1_555
Ho4 Ni88 2.931692 1_555
Ho4 Ni79 2.948638 1_555
Ho4 Ni68 2.953667 1_555
Ho4 Ni36 2.989035 1_555
Ho4 Ni0 3.003139 1_555
Ho4 Ni39 3.009553 1_555
Ho4 Ni89 3.068552 1_555
Ho4 Ni73 3.081431 1_555
Ho4 Ni66 3.138968 1_555
Ho5 Ni63 2.649284 1_556
Ho5 Ni61 2.658909 1_555
Ho5 Ni80 2.740861 1_555
Ho5 Ni68 2.761327 1_556
Ho5 Ni87 2.776044 1_555
Ho5 Ni6 2.778811 1_655
Ho5 Ni10 2.801204 1_556
Ho5 Ni44 2.806485 1_555
Ho5 Ni82 2.810237 1_655
Ho5 Ni64 2.824613 1_555
Ho5 Ni57 2.830926 1_555
Ho5 Ni3 2.847070 1_556
Ho5 Ni38 3.035187 1_556
Ho5 Ni46 3.155980 1_556
Ho6 Ni20 2.649284 1_566
Ho6 Ni47 2.658909 1_555
Ho6 Ni6 2.740861 1_555
Ho6 Ni71 2.761327 1_556
Ho6 Ni42 2.776044 1_565
Ho6 Ni80 2.778811 1_555
Ho6 Ni16 2.801204 1_556
Ho6 Ni4 2.806485 1_555
Ho6 Ni26 2.810237 1_555
Ho6 Ni56 2.824613 1_555
Ho6 Ni48 2.830926 1_565
Ho6 Ni50 2.847070 1_556
Ho6 Ni23 3.035187 1_556
Ho6 Ni78 3.155980 1_566
Ho7 Ni75 2.802475 1_655
Ho7 Ni12 2.851849 1_655
Ho7 Ni52 2.865479 1_555
Ho7 Ni5 2.889819 1_655
Ho7 Ni54 2.890674 1_655
Ho7 Ni86 2.890954 1_555
Ho7 Ni8 2.920743 1_555
Ho7 Ni73 2.968580 1_555
Ho7 Ni39 2.969606 1_555
Ho7 Ni25 3.006966 1_555
Ho7 Ni31 3.024596 1_655
Ho7 Ni36 3.053510 1_555
Ho7 Ni57 3.058452 1_555
Ho7 Ni81 3.164313 1_655
Ho8 Ni82 2.649284 1_554
Ho8 Ni67 2.658909 1_555
Ho8 Ni77 2.740861 1_555
Ho8 Ni29 2.761327 1_554
Ho8 Ni16 2.776044 1_555
Ho8 Ni27 2.778811 1_455
Ho8 Ni42 2.801204 1_554
Ho8 Ni0 2.806485 1_555
Ho8 Ni63 2.810237 1_455
Ho8 Ni37 2.824613 1_555
Ho8 Ni51 2.830926 1_555
Ho8 Ni81 2.847070 1_554
Ho8 Ni43 3.035187 1_554
Ho8 Ni46 3.155980 1_555
Ho9 Ni86 2.780927 1_565
Ho9 Ni14 2.802847 1_555
Ho9 Ni64 2.812902 1_555
Ho9 Ni83 2.823640 1_655
Ho9 Ni13 2.823975 1_555
Ho9 Ni34 2.825886 1_555
Ho9 Ni33 2.850050 1_565
Ho9 Ni61 2.931692 1_555
Ho9 Ni8 2.948638 1_555
Ho9 Ni58 2.953667 1_565
Ho9 Ni28 2.989035 1_555
Ho9 Ni4 3.003139 1_655
Ho9 Ni41 3.009553 1_555
Ho9 Ni25 3.068552 1_565
Ho9 Ni62 3.081431 1_555
Ho9 Ni22 3.138968 1_655
Ho10 Ni26 2.649284 1_544
Ho10 Ni88 2.658909 1_555
Ho10 Ni27 2.740861 1_555
Ho10 Ni58 2.761327 1_554
Ho10 Ni10 2.776044 1_545
Ho10 Ni77 2.778811 1_555
Ho10 Ni87 2.801204 1_554
Ho10 Ni32 2.806485 1_555
Ho10 Ni20 2.810237 1_555
Ho10 Ni17 2.824613 1_555
Ho10 Ni7 2.830926 1_545
Ho10 Ni76 2.847070 1_554
Ho10 Ni35 3.035187 1_554
Ho10 Ni78 3.155980 1_655
Ho11 Ni34 2.802475 1_545
Ho11 Ni52 2.851849 1_555
Ho11 Ni12 2.865479 1_555
Ho11 Ni28 2.889819 1_545
Ho11 Ni33 2.890674 1_555
Ho11 Ni15 2.890954 1_555
Ho11 Ni74 2.920743 1_545
Ho11 Ni2 2.968580 1_555
Ho11 Ni40 2.969606 1_555
Ho11 Ni72 3.006966 1_555
Ho11 Ni24 3.024596 1_555
Ho11 Ni30 3.053510 1_555
Ho11 Ni48 3.058452 1_555
Ho11 Ni76 3.164313 1_555
B0 Ni71 1.984926 1_545
B0 Ni27 2.008543 1_455
B0 Ni37 2.021145 1_555
B0 Ni67 2.041485 1_555
B0 Ni32 2.078332 1_455
B0 Ni42 2.131189 1_554
B0 Ni78 2.271797 1_555
B0 Ho8 2.824834 1_555
B0 Ho2 3.107283 1_555
B1 B3 1.796708 1_555
B1 Ni15 2.055797 1_555
B1 Ni46 2.059061 1_556
B1 Ni77 2.084768 1_556
B1 Ni43 2.124874 1_555
B1 Ni29 2.173044 1_555
B1 Ni76 2.249416 1_555
B1 Ni87 2.273403 1_555
B1 Ni44 2.362335 1_555
B2 Ni55 1.928853 1_555
B2 Ni45 1.945947 1_555
B2 Ni11 1.994787 1_555
B2 Ni18 2.109840 1_555
B2 Ni89 2.131565 1_555
B2 Ni9 2.197651 1_555
B2 Ho1 2.693996 1_555
B2 Ho3 2.952987 1_555
B3 Ni52 1.963710 1_555
B3 Ni57 2.104518 1_555
B3 Ni87 2.112156 1_555
B3 Ni44 2.133201 1_555
B3 Ni15 2.138082 1_555
B3 Ni35 2.289163 1_555
B3 Ni49 2.296549 1_555
B3 Ni76 2.335134 1_555
B4 Ni86 2.055797 1_555
B4 Ni78 2.059061 1_656
B4 Ni27 2.084768 1_556
B4 Ni35 2.124874 1_555
B4 Ni58 2.173044 1_555
B4 Ni81 2.249416 1_655
B4 Ni42 2.273403 1_655
B4 Ni4 2.362335 1_645
B5 B7 1.796708 1_455
B5 Ni60 2.055797 1_555
B5 Ni78 2.059061 1_565
B5 Ni6 2.084768 1_554
B5 Ni23 2.124874 1_555
B5 Ni71 2.173044 1_555
B5 Ni3 2.249416 1_455
B5 Ni10 2.273403 1_455
B5 Ni32 2.362335 1_465
B6 Ni68 1.984926 1_555
B6 Ni77 2.008543 1_555
B6 Ni17 2.021145 1_555
B6 Ni88 2.041485 1_555
B6 Ni0 2.078332 1_555
B6 Ni87 2.131189 1_554
B6 Ni46 2.271797 1_555
B6 Ho10 2.824834 1_555
B6 Ho4 3.107283 1_555
B7 Ni65 1.963710 1_555
B7 Ni7 2.104518 1_555
B7 Ni10 2.112156 1_555
B7 Ni32 2.133201 1_565
B7 Ni60 2.138082 1_655
B7 Ni38 2.289163 1_555
B7 Ni85 2.296549 1_565
B7 Ni3 2.335134 1_555
B8 Ni52 1.928853 1_555
B8 Ni24 1.945947 1_555
B8 Ni39 1.994787 1_555
B8 Ni33 2.109840 1_555
B8 Ni72 2.131565 1_555
B8 Ni73 2.197651 1_555
B8 Ho7 2.693996 1_555
B8 Ho11 2.952987 1_555
B9 Ni58 1.984926 1_565
B9 Ni6 2.008543 1_655
B9 Ni64 2.021145 1_555
B9 Ni61 2.041485 1_555
B9 Ni4 2.078332 1_655
B9 Ni10 2.131189 1_556
B9 Ni78 2.271797 1_666
B9 Ho5 2.824834 1_555
B9 Ho9 3.107283 1_555
B10 Ni12 1.983520 1_555
B10 Ni75 2.011263 1_555
B10 Ni29 2.027245 1_555
B10 Ni54 2.041463 1_555
B10 Ni15 2.150167 1_555
B10 Ni81 2.165438 1_555
B10 Ni43 2.185515 1_555
B10 Ho0 2.897981 1_555
B11 Ni6 2.028815 1_554
B11 Ni63 2.030880 1_455
B11 Ni82 2.048074 1_554
B11 Ni51 2.053729 1_555
B11 Ni3 2.126402 1_455
B11 Ni23 2.136872 1_555
B11 Ni16 2.166008 1_555
B11 Ho8 2.817211 1_555
B11 Ho5 2.928770 1_454
B12 Ni40 1.971777 1_565
B12 Ni28 2.017773 1_555
B12 Ni30 2.045832 1_565
B12 Ni45 2.054409 1_555
B12 Ni74 2.070375 1_555
B12 Ni18 2.096239 1_555
B12 Ni9 2.247072 1_555
B12 Ho11 3.003720 1_565
B13 Ni80 2.028815 1_554
B13 Ni20 2.030880 1_565
B13 Ni26 2.048074 1_554
B13 Ni7 2.053729 1_555
B13 Ni50 2.126402 1_555
B13 Ni38 2.136872 1_555
B13 Ni10 2.166008 1_555
B13 Ho10 2.817211 1_565
B13 Ho6 2.928770 1_554
B14 B19 1.796708 1_555
B14 Ni19 2.055797 1_555
B14 Ni46 2.059061 1_555
B14 Ni80 2.084768 1_554
B14 Ni38 2.124874 1_555
B14 Ni68 2.173044 1_555
B14 Ni50 2.249416 1_555
B14 Ni16 2.273403 1_555
B14 Ni0 2.362335 1_555
B15 Ni12 1.928853 1_555
B15 Ni31 1.945947 1_555
B15 Ni40 1.994787 1_555
B15 Ni54 2.109840 1_555
B15 Ni25 2.131565 1_455
B15 Ni2 2.197651 1_555
B15 Ho11 2.693996 1_555
B15 Ho7 2.952987 1_455
B16 Ni67 2.020577 1_555
B16 Ni66 2.046163 1_555
B16 Ni37 2.046753 1_555
B16 Ni59 2.050536 1_555
B16 Ni51 2.094264 1_555
B16 Ni1 2.097834 1_555
B16 Ni0 2.184177 1_555
B16 Ho8 2.862451 1_555
B16 Ho2 3.018417 1_555
B17 Ni39 1.971777 1_555
B17 Ni5 2.017773 1_655
B17 Ni36 2.045832 1_555
B17 Ni13 2.054409 1_555
B17 Ni8 2.070375 1_555
B17 Ni21 2.096239 1_555
B17 Ni62 2.247072 1_555
B17 Ho7 3.003720 1_555
B18 Ni47 2.020577 1_555
B18 Ni22 2.046163 1_555
B18 Ni56 2.046753 1_555
B18 Ni83 2.050536 1_555
B18 Ni48 2.094264 1_565
B18 Ni74 2.097834 1_555
B18 Ni4 2.184177 1_555
B18 Ho6 2.862451 1_555
B18 Ho0 3.018417 1_555
B19 Ni55 1.963710 1_555
B19 Ni51 2.104518 1_555
B19 Ni16 2.112156 1_555
B19 Ni0 2.133201 1_555
B19 Ni19 2.138082 1_555
B19 Ni23 2.289163 1_555
B19 Ni66 2.296549 1_555
B19 Ni50 2.335134 1_555
B20 Ni11 1.971777 1_555
B20 Ni36 2.017773 1_455
B20 Ni5 2.045832 1_555
B20 Ni31 2.054409 1_555
B20 Ni1 2.070375 1_555
B20 Ni54 2.096239 1_555
B20 Ni2 2.247072 1_555
B20 Ho1 3.003720 1_555
B21 Ni52 1.983520 1_555
B21 Ni34 2.011263 1_545
B21 Ni58 2.027245 1_555
B21 Ni33 2.041463 1_555
B21 Ni86 2.150167 1_555
B21 Ni76 2.165438 1_555
B21 Ni35 2.185515 1_555
B21 Ho9 2.897981 1_545
B22 Ni65 1.928853 1_555
B22 Ni13 1.945947 1_555
B22 Ni41 1.994787 1_555
B22 Ni21 2.109840 1_555
B22 Ni53 2.131565 1_655
B22 Ni62 2.197651 1_555
B22 Ho3 2.693996 1_555
B22 Ho1 2.952987 1_655
B23 Ni29 1.984926 1_555
B23 Ni80 2.008543 1_555
B23 Ni56 2.021145 1_555
B23 Ni47 2.041485 1_555
B23 Ni44 2.078332 1_555
B23 Ni16 2.131189 1_556
B23 Ni46 2.271797 1_556
B23 Ho6 2.824834 1_555
B23 Ho0 3.107283 1_555
B24 Ni66 1.978536 1_555
B24 Ni24 2.016338 1_555
B24 Ni2 2.018463 1_555
B24 Ni89 2.080301 1_555
B24 Ni72 2.108665 1_555
B24 Ni11 2.118591 1_555
B24 Ni59 2.245760 1_555
B24 Ho4 2.823435 1_555
B25 B4 1.796708 1_455
B25 Ni12 1.963710 1_555
B25 Ni48 2.104518 1_555
B25 Ni42 2.112156 1_555
B25 Ni4 2.133201 1_545
B25 Ni86 2.138082 1_455
B25 Ni43 2.289163 1_555
B25 Ni22 2.296549 1_545
B25 Ni81 2.335134 1_555
B26 Ni27 2.028815 1_556
B26 Ni82 2.030880 1_655
B26 Ni63 2.048074 1_556
B26 Ni57 2.053729 1_555
B26 Ni81 2.126402 1_655
B26 Ni35 2.136872 1_555
B26 Ni87 2.166008 1_555
B26 Ho5 2.817211 1_555
B26 Ho8 2.928770 1_656
B27 Ni22 1.978536 1_555
B27 Ni13 2.016338 1_455
B27 Ni9 2.018463 1_555
B27 Ni25 2.080301 1_465
B27 Ni53 2.108665 1_555
B27 Ni40 2.118591 1_565
B27 Ni83 2.245760 1_555
B27 Ho9 2.823435 1_455
B28 Ni85 1.978536 1_555
B28 Ni31 2.016338 1_655
B28 Ni73 2.018463 1_555
B28 Ni53 2.080301 1_645
B28 Ni25 2.108665 1_555
B28 Ni41 2.118591 1_545
B28 Ni69 2.245760 1_555
B28 Ho2 2.823435 1_655
B29 Ni41 1.971777 1_545
B29 Ni30 2.017773 1_555
B29 Ni28 2.045832 1_545
B29 Ni24 2.054409 1_555
B29 Ni79 2.070375 1_555
B29 Ni33 2.096239 1_555
B29 Ni73 2.247072 1_555
B29 Ho3 3.003720 1_545
B30 Ni55 1.983520 1_555
B30 Ni70 2.011263 1_565
B30 Ni71 2.027245 1_555
B30 Ni18 2.041463 1_555
B30 Ni60 2.150167 1_555
B30 Ni50 2.165438 1_555
B30 Ni23 2.185515 1_555
B30 Ho2 2.897981 1_565
B31 Ni49 1.978536 1_555
B31 Ni45 2.016338 1_555
B31 Ni62 2.018463 1_555
B31 Ni72 2.080301 1_555
B31 Ni89 2.108665 1_555
B31 Ni39 2.118591 1_555
B31 Ni14 2.245760 1_555
B31 Ho0 2.823435 1_555
B32 Ni88 2.020577 1_555
B32 Ni85 2.046163 1_555
B32 Ni17 2.046753 1_555
B32 Ni69 2.050536 1_555
B32 Ni7 2.094264 1_545
B32 Ni79 2.097834 1_555
B32 Ni32 2.184177 1_555
B32 Ho10 2.862451 1_555
B32 Ho4 3.018417 1_555
B33 Ni65 1.983520 1_555
B33 Ni84 2.011263 1_555
B33 Ni68 2.027245 1_555
B33 Ni21 2.041463 1_555
B33 Ni19 2.150167 1_555
B33 Ni3 2.165438 1_555
B33 Ni38 2.185515 1_555
B33 Ho4 2.897981 1_555
B34 Ni77 2.028815 1_556
B34 Ni26 2.030880 1_545
B34 Ni20 2.048074 1_556
B34 Ni48 2.053729 1_555
B34 Ni76 2.126402 1_555
B34 Ni43 2.136872 1_555
B34 Ni42 2.166008 1_555
B34 Ho6 2.817211 1_545
B34 Ho10 2.928770 1_556
B35 Ni61 2.020577 1_555
B35 Ni49 2.046163 1_555
B35 Ni64 2.046753 1_555
B35 Ni14 2.050536 1_555
B35 Ni57 2.094264 1_555
B35 Ni8 2.097834 1_555
B35 Ni44 2.184177 1_555
B35 Ho5 2.862451 1_555
B35 Ho9 3.018417 1_555
