# generated using pymatgen
data_ThB4
_symmetry_space_group_name_H-M   'P 1'
_cell_length_a   4.12674507
_cell_length_b   7.25655925
_cell_length_c   7.25655925
_cell_angle_alpha   90.00000000
_cell_angle_beta   90.00000000
_cell_angle_gamma   90.00000000
_symmetry_Int_Tables_number   1
_chemical_formula_structural   ThB4
_chemical_formula_sum   'Th4 B16'
_cell_volume   217.30470640
_cell_formula_units_Z   4
loop_
 _symmetry_equiv_pos_site_id
 _symmetry_equiv_pos_as_xyz
  1  'x, y, z'
loop_
 _atom_site_type_symbol
 _atom_site_label
 _atom_site_symmetry_multiplicity
 _atom_site_fract_x
 _atom_site_fract_y
 _atom_site_fract_z
 _atom_site_occupancy
  Th  Th0  1  -0.00000000  0.31562348  0.81562348  1
  Th  Th1  1  -0.00000000  0.18437652  0.31562348  1
  Th  Th2  1  -0.00000000  0.81562348  0.68437652  1
  Th  Th3  1  -0.00000000  0.68437652  0.18437652  1
  B  B0  1  0.20115995  0.00000000  0.00000000  1
  B  B1  1  0.79884005  0.50000000  0.50000000  1
  B  B2  1  0.79884005  0.00000000  0.00000000  1
  B  B3  1  0.20115995  0.50000000  0.50000000  1
  B  B4  1  0.50000000  0.08986702  0.58986702  1
  B  B5  1  0.50000000  0.41013298  0.08986702  1
  B  B6  1  0.50000000  0.58986702  0.91013298  1
  B  B7  1  0.50000000  0.91013298  0.41013298  1
  B  B8  1  0.50000000  0.17467621  0.03880365  1
  B  B9  1  0.50000000  0.96119635  0.17467621  1
  B  B10  1  0.50000000  0.03880365  0.82532379  1
  B  B11  1  0.50000000  0.82532379  0.96119635  1
  B  B12  1  0.50000000  0.67467621  0.46119635  1
  B  B13  1  0.50000000  0.32532379  0.53880365  1
  B  B14  1  0.50000000  0.53880365  0.67467621  1
  B  B15  1  0.50000000  0.46119635  0.32532379  1
loop_
_geom_bond_atom_site_label_1
_geom_bond_atom_site_label_2
_geom_bond_distance
_geom_bond_site_symmetry_2
B0 B2 1.660272 1_455
B0 B8 1.790765 1_555
B0 B11 1.790765 1_544
B0 B10 1.790765 1_554
B0 B9 1.790765 1_545
B0 Th2 2.779364 1_544
B0 Th0 2.779364 1_554
B0 Th3 2.779364 1_545
B0 Th1 2.779364 1_555
B1 B3 1.660272 1_655
B1 B13 1.790765 1_555
B1 B12 1.790765 1_555
B1 B14 1.790765 1_555
B1 B15 1.790765 1_555
B1 Th3 2.779364 1_655
B1 Th1 2.779364 1_655
B1 Th2 2.779364 1_655
B1 Th0 2.779364 1_655
B2 B8 1.790765 1_555
B2 B9 1.790765 1_545
B2 Th2 2.779364 1_644
B2 Th0 2.779364 1_654
B2 Th1 2.779364 1_655
B2 Th3 2.779364 1_645
B3 Th3 2.779364 1_555
B3 Th1 2.779364 1_555
B3 Th0 2.779364 1_555
B3 Th2 2.779364 1_555
B4 B7 1.844489 1_545
B4 Th2 2.947576 1_545
B4 Th2 2.947576 1_645
B4 Th1 2.947576 1_555
B4 Th1 2.947576 1_655
B4 Th0 3.102419 1_555
B4 Th0 3.102419 1_655
B5 B8 1.748324 1_555
B5 B6 1.844489 1_554
B5 Th0 2.947576 1_654
B5 Th0 2.947576 1_554
B5 Th3 2.947576 1_655
B5 Th3 2.947576 1_555
B5 Th1 3.102419 1_555
B5 Th1 3.102419 1_655
B6 Th0 2.947576 1_555
B6 Th0 2.947576 1_655
B6 Th3 2.947576 1_556
B6 Th3 2.947576 1_656
B6 Th2 3.102419 1_655
B6 Th2 3.102419 1_555
B7 B9 1.748324 1_555
B7 Th2 2.947576 1_655
B7 Th2 2.947576 1_555
B7 Th1 2.947576 1_665
B7 Th1 2.947576 1_565
B7 Th3 3.102419 1_655
B7 Th3 3.102419 1_555
B8 B9 1.836282 1_545
B8 Th0 2.815396 1_554
B8 Th0 2.815396 1_654
B8 Th1 2.880551 1_555
B8 Th1 2.880551 1_655
B9 Th1 2.815396 1_665
B9 Th1 2.815396 1_565
B9 Th3 2.880551 1_655
B9 Th3 2.880551 1_555
B10 B4 1.748324 1_555
B10 B2 1.790765 1_556
B10 B8 1.836282 1_556
B10 B11 1.836282 1_545
B10 Th2 2.815396 1_645
B10 Th2 2.815396 1_545
B10 Th0 2.880551 1_655
B10 Th0 2.880551 1_555
B11 B6 1.748324 1_555
B11 B2 1.790765 1_566
B11 B9 1.836282 1_556
B11 Th3 2.815396 1_556
B11 Th3 2.815396 1_656
B11 Th2 2.880551 1_655
B11 Th2 2.880551 1_555
B12 B7 1.748324 1_555
B12 B3 1.790765 1_555
B12 B15 1.836282 1_555
B12 B14 1.836282 1_555
B12 Th2 2.815396 1_555
B12 Th2 2.815396 1_655
B12 Th3 2.880551 1_655
B12 Th3 2.880551 1_555
B13 B4 1.748324 1_555
B13 B3 1.790765 1_555
B13 B15 1.836282 1_555
B13 B14 1.836282 1_555
B13 Th1 2.815396 1_555
B13 Th1 2.815396 1_655
B13 Th0 2.880551 1_555
B13 Th0 2.880551 1_655
B14 B6 1.748324 1_555
B14 B3 1.790765 1_555
B14 Th0 2.815396 1_555
B14 Th0 2.815396 1_655
B14 Th2 2.880551 1_555
B14 Th2 2.880551 1_655
B15 B5 1.748324 1_555
B15 B3 1.790765 1_555
B15 Th3 2.815396 1_655
B15 Th3 2.815396 1_555
B15 Th1 2.880551 1_555
B15 Th1 2.880551 1_655
