# generated using pymatgen
data_CeZr6(PO4)9
_symmetry_space_group_name_H-M   'P 1'
_cell_length_a   8.96255043
_cell_length_b   8.96255000
_cell_length_c   23.18763472
_cell_angle_alpha   90.00000000
_cell_angle_beta   90.00000000
_cell_angle_gamma   120.00000164
_symmetry_Int_Tables_number   1
_chemical_formula_structural   CeZr6(PO4)9
_chemical_formula_sum   'Ce2 Zr12 P18 O72'
_cell_volume   1613.05909548
_cell_formula_units_Z   2
loop_
 _symmetry_equiv_pos_site_id
 _symmetry_equiv_pos_as_xyz
  1  'x, y, z'
loop_
 _atom_site_type_symbol
 _atom_site_label
 _atom_site_symmetry_multiplicity
 _atom_site_fract_x
 _atom_site_fract_y
 _atom_site_fract_z
 _atom_site_occupancy
  Ce  Ce0  1  0.00000000  0.00000000  0.50000000  1
  Ce  Ce1  1  0.00000000  0.00000000  0.00000000  1
  Zr  Zr0  1  0.33333300  0.66666700  0.52842355  1
  Zr  Zr1  1  0.33333300  0.66666700  0.02842355  1
  Zr  Zr2  1  0.66666700  0.33333300  0.18772377  1
  Zr  Zr3  1  0.66666700  0.33333300  0.68772377  1
  Zr  Zr4  1  0.00000000  0.00000000  0.65029371  1
  Zr  Zr5  1  0.00000000  0.00000000  0.84970629  1
  Zr  Zr6  1  0.00000000  0.00000000  0.15029371  1
  Zr  Zr7  1  0.66666700  0.33333300  0.97157645  1
  Zr  Zr8  1  0.33333300  0.66666700  0.81227623  1
  Zr  Zr9  1  0.00000000  0.00000000  0.34970629  1
  Zr  Zr10  1  0.66666700  0.33333300  0.47157645  1
  Zr  Zr11  1  0.33333300  0.66666700  0.31227623  1
  P  P0  1  0.00000000  0.70900786  0.75000000  1
  P  P1  1  0.05336557  0.67717830  0.42029523  1
  P  P2  1  0.32282170  0.37618727  0.42029523  1
  P  P3  1  0.67717830  0.62381273  0.57970477  1
  P  P4  1  1.00000000  0.29099214  0.25000000  1
  P  P5  1  0.94663443  0.62381273  0.07970477  1
  P  P6  1  0.37618727  0.05336557  0.57970477  1
  P  P7  1  0.94663443  0.32282170  0.57970477  1
  P  P8  1  0.29099214  0.00000000  0.25000000  1
  P  P9  1  0.37618727  0.32282170  0.07970477  1
  P  P10  1  0.70900786  0.70900786  0.25000000  1
  P  P11  1  0.67717830  0.05336557  0.07970477  1
  P  P12  1  0.70900786  0.00000000  0.75000000  1
  P  P13  1  0.32282170  0.94663443  0.92029523  1
  P  P14  1  0.62381273  0.67717830  0.92029523  1
  P  P15  1  0.62381273  0.94663443  0.42029523  1
  P  P16  1  0.05336557  0.37618727  0.92029523  1
  P  P17  1  0.29099214  0.29099214  0.75000000  1
  O  O0  1  0.16110263  0.18678961  0.41821398  1
  O  O1  1  0.02568698  0.83889737  0.41821398  1
  O  O2  1  0.51440422  0.63963870  0.57604327  1
  O  O3  1  0.36036130  0.87476551  0.57604327  1
  O  O4  1  0.32682554  0.47274417  0.36561760  1
  O  O5  1  0.15858263  0.69206035  0.76066388  1
  O  O6  1  0.79477836  0.82789741  0.19673985  1
  O  O7  1  0.17210259  0.96688095  0.19673985  1
  O  O8  1  0.47274417  0.14591863  0.63438240  1
  O  O9  1  0.81321039  0.83889737  0.91821398  1
  O  O10  1  0.96688095  0.17210259  0.30326015  1
  O  O11  1  0.45837339  0.29851357  0.02490379  1
  O  O12  1  0.36036130  0.48559578  0.07604327  1
  O  O13  1  0.83889737  0.81321039  0.58178602  1
  O  O14  1  0.63963870  0.12523449  0.42395673  1
  O  O15  1  0.20522164  0.17210259  0.80326015  1
  O  O16  1  0.15985982  0.45837339  0.97509621  1
  O  O17  1  0.45837339  0.15985982  0.52490379  1
  O  O18  1  0.84141737  0.53347772  0.73933612  1
  O  O19  1  0.69206035  0.53347772  0.23933612  1
  O  O20  1  0.18678961  0.16110263  0.08178602  1
  O  O21  1  0.53347772  0.69206035  0.26066388  1
  O  O22  1  0.30793965  0.84141737  0.26066388  1
  O  O23  1  0.70148643  0.54162661  0.52490379  1
  O  O24  1  0.84014018  0.29851357  0.52490379  1
  O  O25  1  0.85408137  0.32682554  0.63438240  1
  O  O26  1  0.63963870  0.51440422  0.92395673  1
  O  O27  1  0.97431302  0.81321039  0.08178602  1
  O  O28  1  0.03311905  0.20522164  0.19673985  1
  O  O29  1  0.14591863  0.47274417  0.86561760  1
  O  O30  1  0.84014018  0.54162661  0.02490379  1
  O  O31  1  0.52725583  0.67317446  0.86561760  1
  O  O32  1  0.54162661  0.84014018  0.47509621  1
  O  O33  1  0.52725583  0.85408137  0.36561760  1
  O  O34  1  0.79477836  0.96688095  0.69673985  1
  O  O35  1  0.29851357  0.45837339  0.47509621  1
  O  O36  1  0.18678961  0.02568698  0.58178602  1
  O  O37  1  0.82789741  0.03311905  0.80326015  1
  O  O38  1  0.84141737  0.30793965  0.23933612  1
  O  O39  1  0.46652228  0.15858263  0.23933612  1
  O  O40  1  0.70148643  0.15985982  0.02490379  1
  O  O41  1  0.20522164  0.03311905  0.30326015  1
  O  O42  1  0.97431302  0.16110263  0.58178602  1
  O  O43  1  0.82789741  0.79477836  0.30326015  1
  O  O44  1  0.46652228  0.30793965  0.73933612  1
  O  O45  1  0.17210259  0.20522164  0.69673985  1
  O  O46  1  0.85408137  0.52725583  0.13438240  1
  O  O47  1  0.81321039  0.97431302  0.41821398  1
  O  O48  1  0.53347772  0.84141737  0.76066388  1
  O  O49  1  0.03311905  0.82789741  0.69673985  1
  O  O50  1  0.30793965  0.46652228  0.76066388  1
  O  O51  1  0.67317446  0.52725583  0.63438240  1
  O  O52  1  0.15985982  0.70148643  0.47509621  1
  O  O53  1  0.32682554  0.85408137  0.86561760  1
  O  O54  1  0.48559578  0.12523449  0.92395673  1
  O  O55  1  0.12523449  0.63963870  0.07604327  1
  O  O56  1  0.12523449  0.48559578  0.57604327  1
  O  O57  1  0.87476551  0.51440422  0.42395673  1
  O  O58  1  0.96688095  0.79477836  0.80326015  1
  O  O59  1  0.48559578  0.36036130  0.42395673  1
  O  O60  1  0.51440422  0.87476551  0.07604327  1
  O  O61  1  0.67317446  0.14591863  0.13438240  1
  O  O62  1  0.54162661  0.70148643  0.97509621  1
  O  O63  1  0.14591863  0.67317446  0.36561760  1
  O  O64  1  0.15858263  0.46652228  0.26066388  1
  O  O65  1  0.47274417  0.32682554  0.13438240  1
  O  O66  1  0.16110263  0.97431302  0.91821398  1
  O  O67  1  0.29851357  0.84014018  0.97509621  1
  O  O68  1  0.83889737  0.02568698  0.08178602  1
  O  O69  1  0.69206035  0.15858263  0.73933612  1
  O  O70  1  0.87476551  0.36036130  0.92395673  1
  O  O71  1  0.02568698  0.18678961  0.91821398  1
loop_
_geom_bond_atom_site_label_1
_geom_bond_atom_site_label_2
_geom_bond_distance
_geom_bond_site_symmetry_2
Ce0 O13 2.463059 1_445
Ce0 O0 2.463059 1_555
Ce0 O1 2.463059 1_545
Ce0 O42 2.463059 1_455
Ce0 O47 2.463059 1_445
Ce0 O36 2.463059 1_555
Ce1 O27 2.463059 1_445
Ce1 O71 2.463059 1_554
Ce1 O9 2.463059 1_444
Ce1 O20 2.463059 1_555
Ce1 O68 2.463059 1_455
Ce1 O66 2.463059 1_544
O0 P2 1.588783 1_555
O0 Zr9 2.234651 1_555
O1 P1 1.588783 1_555
O1 Zr9 2.234651 1_565
O2 P3 1.537062 1_555
O2 Zr0 2.074780 1_555
O3 P6 1.537062 1_565
O3 Zr0 2.074773 1_555
O4 P2 1.525311 1_555
O4 Zr11 2.110130 1_555
O5 P0 1.523223 1_555
O5 Zr8 2.072080 1_555
O6 P10 1.559613 1_555
O6 Zr6 2.021158 1_665
O7 P8 1.559613 1_565
O7 Zr6 2.021158 1_565
O8 P6 1.525311 1_555
O8 Zr3 2.110127 1_555
O9 P14 1.588783 1_555
O9 Zr5 2.234651 1_665
O10 P4 1.559613 1_555
O10 Zr9 2.021158 1_655
O11 P9 1.537923 1_555
O11 Zr7 2.128126 1_554
O12 P9 1.537062 1_555
O12 Zr1 2.074780 1_555
O13 P3 1.588783 1_555
O13 Zr4 2.234651 1_665
O14 P15 1.537062 1_545
O14 Zr10 2.074773 1_555
O15 P17 1.559613 1_555
O15 Zr5 2.021158 1_555
O16 P16 1.537923 1_555
O16 Zr1 2.128123 1_556
O17 P6 1.537923 1_555
O17 Zr10 2.128123 1_555
O18 P0 1.523223 1_655
O18 Zr3 2.072084 1_555
O19 P10 1.523223 1_555
O19 Zr2 2.072087 1_555
O20 P9 1.588783 1_555
O20 Zr6 2.234651 1_555
O21 P10 1.523223 1_555
O21 Zr11 2.072087 1_555
O22 P8 1.523223 1_565
O22 Zr11 2.072080 1_555
O23 P3 1.537923 1_555
O23 Zr10 2.128126 1_555
O24 P7 1.537923 1_555
O24 Zr10 2.128118 1_555
O25 P7 1.525311 1_555
O25 Zr3 2.110123 1_555
O26 P14 1.537062 1_555
O26 Zr7 2.074780 1_555
O27 P5 1.588783 1_555
O27 Zr6 2.234651 1_665
O28 P4 1.559613 1_455
O28 Zr6 2.021158 1_555
O29 P16 1.525311 1_555
O29 Zr8 2.110127 1_555
O30 P5 1.537923 1_555
O30 Zr7 2.128123 1_554
O31 P14 1.525311 1_555
O31 Zr8 2.110130 1_555
O32 P15 1.537923 1_555
O32 Zr0 2.128123 1_555
O33 P15 1.525311 1_555
O33 Zr11 2.110127 1_555
O34 P12 1.559613 1_565
O34 Zr4 2.021158 1_665
O35 P2 1.537923 1_555
O35 Zr0 2.128126 1_555
O36 P6 1.588783 1_555
O36 Zr4 2.234651 1_555
O37 P12 1.559613 1_555
O37 Zr5 2.021158 1_655
O38 P4 1.523223 1_555
O38 Zr2 2.072080 1_555
O39 P8 1.523223 1_555
O39 Zr2 2.072084 1_555
O40 P11 1.537923 1_555
O40 Zr7 2.128118 1_554
O41 P8 1.559613 1_555
O41 Zr9 2.021158 1_555
O42 P7 1.588783 1_555
O42 Zr4 2.234651 1_655
O43 P10 1.559613 1_555
O43 Zr9 2.021158 1_665
O44 P17 1.523223 1_555
O44 Zr3 2.072087 1_555
O45 P17 1.559613 1_555
O45 Zr4 2.021158 1_555
O46 P5 1.525311 1_555
O46 Zr2 2.110127 1_555
O47 P15 1.588783 1_555
O47 Zr9 2.234651 1_665
O48 P12 1.523223 1_565
O48 Zr8 2.072084 1_555
O49 P0 1.559613 1_555
O49 Zr4 2.021158 1_565
O50 P17 1.523223 1_555
O50 Zr8 2.072087 1_555
O51 P3 1.525311 1_555
O51 Zr3 2.110130 1_555
O52 P1 1.537923 1_555
O52 Zr0 2.128118 1_555
O53 P13 1.525311 1_555
O53 Zr8 2.110123 1_555
O54 P13 1.537062 1_545
O54 Zr7 2.074776 1_555
O55 P5 1.537062 1_455
O55 Zr1 2.074773 1_555
O56 P7 1.537062 1_455
O56 Zr0 2.074776 1_555
O57 P1 1.537062 1_655
O57 Zr10 2.074776 1_555
O58 P0 1.559613 1_655
O58 Zr5 2.021158 1_665
O59 P2 1.537062 1_555
O59 Zr10 2.074780 1_555
O60 P11 1.537062 1_565
O60 Zr1 2.074776 1_555
O61 P11 1.525311 1_555
O61 Zr2 2.110123 1_555
O62 P14 1.537923 1_555
O62 Zr1 2.128126 1_556
O63 P1 1.525311 1_555
O63 Zr11 2.110123 1_555
O64 P4 1.523223 1_455
O64 Zr11 2.072084 1_555
O65 P9 1.525311 1_555
O65 Zr2 2.110130 1_555
O66 P13 1.588783 1_555
O66 Zr5 2.234651 1_565
O67 P13 1.537923 1_555
O67 Zr1 2.128118 1_556
O68 P11 1.588783 1_555
O68 Zr6 2.234651 1_655
O69 P12 1.523223 1_555
O69 Zr3 2.072080 1_555
O70 P16 1.537062 1_655
O70 Zr7 2.074773 1_555
O71 P16 1.588783 1_555
O71 Zr5 2.234651 1_555
