# generated using pymatgen
data_Er5Zr3(Ni4As3)4
_symmetry_space_group_name_H-M   'P 1'
_cell_length_a   12.75037864
_cell_length_b   12.75037864
_cell_length_c   3.91094600
_cell_angle_alpha   90.00000000
_cell_angle_beta   90.00000000
_cell_angle_gamma   120.00000334
_symmetry_Int_Tables_number   1
_chemical_formula_structural   Er5Zr3(Ni4As3)4
_chemical_formula_sum   'Er5 Zr3 Ni16 As12'
_cell_volume   550.62839152
_cell_formula_units_Z   1
loop_
 _symmetry_equiv_pos_site_id
 _symmetry_equiv_pos_as_xyz
  1  'x, y, z'
loop_
 _atom_site_type_symbol
 _atom_site_label
 _atom_site_symmetry_multiplicity
 _atom_site_fract_x
 _atom_site_fract_y
 _atom_site_fract_z
 _atom_site_occupancy
  Er  Er0  1  0.81652500  0.00000000  0.50000000  1
  Er  Er1  1  0.18347500  0.18347500  0.50000000  1
  Er  Er2  1  0.00000000  0.81652500  0.50000000  1
  Er  Er3  1  0.66666700  0.33333300  0.00000000  1
  Er  Er4  1  0.33333300  0.66666700  0.00000000  1
  Zr  Zr0  1  0.56237700  0.56237700  0.00000000  1
  Zr  Zr1  1  0.00000000  0.43762300  0.00000000  1
  Zr  Zr2  1  0.43762300  0.00000000  0.00000000  1
  Ni  Ni0  1  0.87868000  0.51738600  0.50000000  1
  Ni  Ni1  1  0.51738600  0.87868000  0.50000000  1
  Ni  Ni2  1  0.00000000  0.27559700  0.50000000  1
  Ni  Ni3  1  0.36129500  0.48261400  0.50000000  1
  Ni  Ni4  1  0.19266200  0.81694800  0.00000000  1
  Ni  Ni5  1  0.27559700  0.00000000  0.50000000  1
  Ni  Ni6  1  0.37571400  0.18305200  0.00000000  1
  Ni  Ni7  1  0.62428600  0.80733800  0.00000000  1
  Ni  Ni8  1  0.00000000  0.00000000  0.00000000  1
  Ni  Ni9  1  0.12132000  0.63870500  0.50000000  1
  Ni  Ni10  1  0.48261400  0.36129500  0.50000000  1
  Ni  Ni11  1  0.81694800  0.19266200  0.00000000  1
  Ni  Ni12  1  0.72440300  0.72440300  0.50000000  1
  Ni  Ni13  1  0.18305200  0.37571400  0.00000000  1
  Ni  Ni14  1  0.80733800  0.62428600  0.00000000  1
  Ni  Ni15  1  0.63870500  0.12132000  0.50000000  1
  As  As0  1  0.17757900  0.00000000  0.00000000  1
  As  As1  1  0.64554900  0.00000000  0.00000000  1
  As  As2  1  0.52005300  0.69274300  0.50000000  1
  As  As3  1  0.47994700  0.17269000  0.50000000  1
  As  As4  1  0.69274300  0.52005300  0.50000000  1
  As  As5  1  0.30725700  0.82731000  0.50000000  1
  As  As6  1  0.82731000  0.30725700  0.50000000  1
  As  As7  1  0.82242100  0.82242100  0.00000000  1
  As  As8  1  0.00000000  0.64554900  0.00000000  1
  As  As9  1  0.00000000  0.17757900  0.00000000  1
  As  As10  1  0.17269000  0.47994700  0.50000000  1
  As  As11  1  0.35445100  0.35445100  0.00000000  1
loop_
_geom_bond_atom_site_label_1
_geom_bond_atom_site_label_2
_geom_bond_distance
_geom_bond_site_symmetry_2
Er0 Ni8 3.049025 1_656
Er0 Ni8 3.049025 1_655
Er0 Ni2 3.098411 1_655
Er0 Ni12 3.098411 1_545
Er0 Ni7 3.137692 1_546
Er0 Ni7 3.137692 1_545
Er0 Ni11 3.137692 1_556
Er0 Ni11 3.137692 1_555
Er0 Ni1 3.322719 1_545
Er0 Ni15 3.322731 1_555
Er1 Ni8 3.049025 1_555
Er1 Ni8 3.049025 1_556
Er1 Ni2 3.098411 1_555
Er1 Ni5 3.098411 1_555
Er1 Ni6 3.137692 1_555
Er1 Ni13 3.137692 1_555
Er1 Ni13 3.137692 1_556
Er1 Ni6 3.137692 1_556
Er1 Ni3 3.322720 1_555
Er1 Ni10 3.322720 1_555
Er2 Ni8 3.049025 1_565
Er2 Ni8 3.049025 1_566
Er2 Ni5 3.098411 1_565
Er2 Ni12 3.098411 1_455
Er2 Ni14 3.137692 1_456
Er2 Ni14 3.137692 1_455
Er2 Ni4 3.137692 1_556
Er2 Ni4 3.137692 1_555
Er2 Ni0 3.322719 1_455
Er2 Ni9 3.322731 1_555
Er3 Ni15 3.208543 1_555
Er3 Ni15 3.208543 1_554
Er3 Ni0 3.208551 1_555
Er3 Ni0 3.208551 1_554
Er3 Ni10 3.208563 1_555
Er3 Ni10 3.208563 1_554
Er3 Ni11 3.213320 1_555
Er3 Ni6 3.213331 1_555
Er3 Ni14 3.213331 1_555
Er4 Ni9 3.208543 1_554
Er4 Ni9 3.208543 1_555
Er4 Ni1 3.208551 1_554
Er4 Ni1 3.208551 1_555
Er4 Ni3 3.208563 1_554
Er4 Ni3 3.208563 1_555
Er4 Ni4 3.213320 1_555
Er4 Ni13 3.213331 1_555
Er4 Ni7 3.213331 1_555
Ni0 Zr1 2.970554 1_655
Ni0 Zr1 2.970554 1_656
Ni1 Zr2 2.970554 1_565
Ni1 Zr2 2.970554 1_566
Ni2 Zr1 2.844607 1_555
Ni2 Zr1 2.844607 1_556
Ni3 Zr0 2.970545 1_556
Ni3 Zr0 2.970545 1_555
Ni4 Zr2 2.812992 1_565
Ni5 Zr2 2.844607 1_556
Ni5 Zr2 2.844607 1_555
Ni6 Zr2 2.812993 1_555
Ni7 Zr0 2.812993 1_555
Ni9 Zr1 2.970546 1_555
Ni9 Zr1 2.970546 1_556
Ni10 Zr0 2.970545 1_555
Ni10 Zr0 2.970545 1_556
Ni11 Zr1 2.812992 1_655
Ni12 Zr0 2.844607 1_556
Ni12 Zr0 2.844607 1_555
Ni13 Zr1 2.812993 1_555
Ni14 Zr0 2.812993 1_555
Ni15 Zr2 2.970546 1_555
Ni15 Zr2 2.970546 1_556
As0 Ni8 2.264199 1_555
As0 Ni5 2.320731 1_554
As0 Ni5 2.320731 1_555
As0 Ni6 2.435840 1_555
As0 Ni4 2.435840 1_545
As0 Er2 3.020983 1_545
As0 Er2 3.020983 1_544
As0 Er1 3.020983 1_555
As0 Er1 3.020983 1_554
As1 Ni11 2.332803 1_555
As1 Ni7 2.332803 1_545
As1 Ni1 2.521761 1_544
As1 Ni1 2.521761 1_545
As1 Ni15 2.521765 1_555
As1 Ni15 2.521765 1_554
As1 Zr2 2.651135 1_555
As1 Er0 2.928534 1_555
As1 Er0 2.928534 1_554
As2 Ni1 2.387951 1_555
As2 Ni7 2.404826 1_556
As2 Ni7 2.404826 1_555
As2 Ni3 2.419168 1_555
As2 Ni12 2.428991 1_555
As2 Zr0 2.788380 1_556
As2 Zr0 2.788380 1_555
As2 Er4 2.968306 1_555
As2 Er4 2.968306 1_556
As3 Ni10 2.387964 1_555
As3 Ni6 2.404826 1_555
As3 Ni6 2.404826 1_556
As3 Ni15 2.419160 1_555
As3 Ni5 2.428991 1_555
As3 Zr2 2.788380 1_556
As3 Zr2 2.788380 1_555
As3 Er3 2.968302 1_556
As3 Er3 2.968302 1_555
As4 Ni0 2.387951 1_555
As4 Ni14 2.404826 1_556
As4 Ni14 2.404826 1_555
As4 Ni10 2.419168 1_555
As4 Ni12 2.428991 1_555
As4 Zr0 2.788380 1_556
As4 Zr0 2.788380 1_555
As4 Er3 2.968306 1_555
As4 Er3 2.968306 1_556
As5 Ni9 2.387958 1_555
As5 Ni4 2.404826 1_556
As5 Ni4 2.404826 1_555
As5 Ni1 2.419172 1_555
As5 Ni5 2.428991 1_565
As5 Zr2 2.788380 1_566
As5 Zr2 2.788380 1_565
As5 Er4 2.968297 1_555
As5 Er4 2.968297 1_556
As6 Ni15 2.387958 1_555
As6 Ni11 2.404826 1_556
As6 Ni11 2.404826 1_555
As6 Ni0 2.419172 1_555
As6 Ni2 2.428991 1_655
As6 Zr1 2.788380 1_655
As6 Zr1 2.788380 1_656
As6 Er3 2.968297 1_555
As6 Er3 2.968297 1_556
As7 Ni8 2.264199 1_665
As7 Ni12 2.320731 1_554
As7 Ni12 2.320731 1_555
As7 Ni14 2.435840 1_555
As7 Ni7 2.435840 1_555
As7 Er0 3.020983 1_565
As7 Er2 3.020983 1_654
As7 Er2 3.020983 1_655
As7 Er0 3.020983 1_564
As8 Ni4 2.332803 1_555
As8 Ni14 2.332803 1_455
As8 Ni0 2.521761 1_455
As8 Ni0 2.521761 1_454
As8 Ni9 2.521765 1_555
As8 Ni9 2.521765 1_554
As8 Zr1 2.651135 1_555
As8 Er2 2.928534 1_555
As8 Er2 2.928534 1_554
As9 Ni8 2.264199 1_555
As9 Ni2 2.320731 1_555
As9 Ni2 2.320731 1_554
As9 Ni13 2.435840 1_555
As9 Ni11 2.435840 1_455
As9 Er0 3.020983 1_455
As9 Er0 3.020983 1_454
As9 Er1 3.020983 1_555
As9 Er1 3.020983 1_554
As10 Ni3 2.387964 1_555
As10 Ni13 2.404826 1_555
As10 Ni13 2.404826 1_556
As10 Ni9 2.419160 1_555
As10 Ni2 2.428991 1_555
As10 Zr1 2.788380 1_556
As10 Zr1 2.788380 1_555
As10 Er4 2.968302 1_555
As10 Er4 2.968302 1_556
As11 Ni13 2.332803 1_555
As11 Ni6 2.332803 1_555
As11 Ni10 2.521757 1_554
As11 Ni10 2.521757 1_555
As11 Ni3 2.521757 1_554
As11 Ni3 2.521757 1_555
As11 Zr0 2.651135 1_555
As11 Er1 2.928534 1_554
As11 Er1 2.928534 1_555
