# generated using pymatgen
data_Cs2SnAs2Se9
_symmetry_space_group_name_H-M   'P 1'
_cell_length_a   18.19709400
_cell_length_b   7.42909300
_cell_length_c   7.99952489
_cell_angle_alpha   64.78527609
_cell_angle_beta   90.00000000
_cell_angle_gamma   90.00000000
_symmetry_Int_Tables_number   1
_chemical_formula_structural   Cs2SnAs2Se9
_chemical_formula_sum   'Cs4 Sn2 As4 Se18'
_cell_volume   978.39690219
_cell_formula_units_Z   2
loop_
 _symmetry_equiv_pos_site_id
 _symmetry_equiv_pos_as_xyz
  1  'x, y, z'
loop_
 _atom_site_type_symbol
 _atom_site_label
 _atom_site_symmetry_multiplicity
 _atom_site_fract_x
 _atom_site_fract_y
 _atom_site_fract_z
 _atom_site_occupancy
  Cs  Cs0  1  0.06346700  0.69227300  0.24218700  1
  Cs  Cs1  1  0.79166900  0.08509900  0.48321000  1
  Cs  Cs2  1  0.56346700  0.30772700  0.75781300  1
  Cs  Cs3  1  0.29166900  0.91490100  0.51679000  1
  Sn  Sn0  1  0.66794900  0.67728800  0.11837400  1
  Sn  Sn1  1  0.16794900  0.32271200  0.88162600  1
  As  As0  1  0.35465300  0.19088100  0.93597000  1
  As  As1  1  0.95359100  0.36176500  0.84063100  1
  As  As2  1  0.45359100  0.63823500  0.15936900  1
  As  As3  1  0.85465300  0.80911900  0.06403000  1
  Se  Se0  1  0.11840600  0.70145100  0.79231100  1
  Se  Se1  1  0.75343300  0.02740800  0.00572000  1
  Se  Se2  1  0.10613600  0.18748000  0.22761200  1
  Se  Se3  1  0.29286400  0.43283300  0.01012900  1
  Se  Se4  1  0.85138500  0.62454900  0.41243400  1
  Se  Se5  1  0.99540300  0.70795100  0.68958200  1
  Se  Se6  1  0.22369600  0.39731700  0.53598800  1
  Se  Se7  1  0.35138500  0.37545100  0.58756600  1
  Se  Se8  1  0.79286400  0.56716700  0.98987100  1
  Se  Se9  1  0.04800600  0.19932300  0.75620300  1
  Se  Se10  1  0.25343300  0.97259200  0.99428000  1
  Se  Se11  1  0.47854300  0.74447400  0.82711900  1
  Se  Se12  1  0.49540300  0.29204900  0.31041800  1
  Se  Se13  1  0.72369600  0.60268300  0.46401200  1
  Se  Se14  1  0.60613600  0.81252000  0.77238800  1
  Se  Se15  1  0.54800600  0.80067700  0.24379700  1
  Se  Se16  1  0.61840600  0.29854900  0.20768900  1
  Se  Se17  1  0.97854300  0.25552600  0.17288100  1
loop_
_geom_bond_atom_site_label_1
_geom_bond_atom_site_label_2
_geom_bond_distance
_geom_bond_site_symmetry_2
Cs0 Se0 3.707608 1_554
Cs0 Se2 3.712896 1_565
Cs0 Se6 3.799833 1_555
Cs0 Se5 3.835576 1_455
Cs0 Se17 3.841338 1_455
Cs0 Se2 3.879777 1_555
Cs0 Se4 4.051925 1_455
Cs0 Se10 4.086636 1_554
Cs0 Se9 4.111593 1_564
Cs0 Se9 4.191433 1_555
Cs0 Se17 4.269497 1_465
Cs1 Se16 3.786182 1_555
Cs1 Se4 3.854649 1_545
Cs1 Se13 3.855765 1_545
Cs1 Se4 3.953375 1_555
Cs1 Se13 3.979422 1_555
Cs1 Se8 4.044611 1_554
Cs1 Se1 4.075837 1_556
Cs1 Se17 4.080638 1_555
Cs1 Se1 4.080772 1_555
Cs1 Se14 4.105995 1_545
Cs1 Se8 4.236213 1_545
Cs2 Se16 3.707608 1_556
Cs2 Se14 3.712896 1_545
Cs2 Se13 3.799833 1_555
Cs2 Se12 3.835576 1_555
Cs2 Se11 3.841338 1_555
Cs2 Se14 3.879777 1_555
Cs2 Se7 4.051925 1_555
Cs2 Se1 4.086636 1_556
Cs2 Se15 4.111593 1_546
Cs2 Se15 4.191433 1_555
Cs2 Se11 4.269497 1_545
Cs3 Se0 3.786182 1_555
Cs3 Se7 3.854649 1_565
Cs3 Se6 3.855765 1_565
Cs3 Se7 3.953375 1_555
Cs3 Se6 3.979422 1_555
Cs3 Se3 4.044611 1_556
Cs3 Se10 4.075837 1_554
Cs3 Se11 4.080638 1_555
Cs3 Se10 4.080772 1_555
Cs3 Se2 4.105995 1_565
Cs3 Se3 4.236213 1_565
As0 Se10 2.365498 1_545
As0 Se3 2.399094 1_556
As0 Se7 2.528902 1_555
As0 Cs2 4.021084 1_555
As1 Se9 2.357698 1_655
As1 Se5 2.450629 1_555
As1 Se17 2.471013 1_556
As2 Se15 2.357698 1_555
As2 Se12 2.450629 1_555
As2 Se11 2.471013 1_554
As3 Se1 2.365498 1_565
As3 Se8 2.399094 1_554
As3 Se4 2.528902 1_555
As3 Cs0 4.021084 1_655
Se0 Se5 2.377777 1_455
Se0 Sn1 2.743583 1_555
Se1 Sn0 2.828481 1_545
Se2 Sn1 2.750581 1_554
Se3 Sn1 2.758526 1_554
Se6 Se7 2.353400 1_555
Se6 Sn1 2.770463 1_555
Se8 Sn0 2.758526 1_556
Se9 Sn1 2.719258 1_555
Se10 Sn1 2.828481 1_565
Se11 Se14 2.376872 1_555
Se12 Se16 2.377777 1_555
Se13 Se4 2.353400 1_555
Se13 Sn0 2.770463 1_555
Se14 Sn0 2.750581 1_556
Se15 Sn0 2.719258 1_555
Se16 Sn0 2.743583 1_555
Se17 Se2 2.376872 1_655
