# generated using pymatgen
data_K2CuCl3
_symmetry_space_group_name_H-M   'P 1'
_cell_length_a   4.09391927
_cell_length_b   11.99435792
_cell_length_c   12.54302227
_cell_angle_alpha   90.00000000
_cell_angle_beta   90.00000000
_cell_angle_gamma   90.00000000
_symmetry_Int_Tables_number   1
_chemical_formula_structural   K2CuCl3
_chemical_formula_sum   'K8 Cu4 Cl12'
_cell_volume   615.91172541
_cell_formula_units_Z   4
loop_
 _symmetry_equiv_pos_site_id
 _symmetry_equiv_pos_as_xyz
  1  'x, y, z'
loop_
 _atom_site_type_symbol
 _atom_site_label
 _atom_site_symmetry_multiplicity
 _atom_site_fract_x
 _atom_site_fract_y
 _atom_site_fract_z
 _atom_site_occupancy
  K  K0  1  0.75000000  0.67399702  0.01947116  1
  K  K1  1  0.25000000  0.48709997  0.32496123  1
  K  K2  1  0.75000000  0.17399702  0.48052884  1
  K  K3  1  0.75000000  0.51290003  0.67503877  1
  K  K4  1  0.25000000  0.82600298  0.51947116  1
  K  K5  1  0.25000000  0.98709997  0.17503877  1
  K  K6  1  0.25000000  0.32600298  0.98052884  1
  K  K7  1  0.75000000  0.01290003  0.82496123  1
  Cu  Cu0  1  0.75000000  0.75475966  0.30287951  1
  Cu  Cu1  1  0.25000000  0.74524034  0.80287951  1
  Cu  Cu2  1  0.25000000  0.24524034  0.69712049  1
  Cu  Cu3  1  0.75000000  0.25475966  0.19712049  1
  Cl  Cl0  1  0.25000000  0.22397545  0.28792670  1
  Cl  Cl1  1  0.25000000  0.72397545  0.21207330  1
  Cl  Cl2  1  0.75000000  0.27602455  0.78792670  1
  Cl  Cl3  1  0.75000000  0.77602455  0.71207330  1
  Cl  Cl4  1  0.25000000  0.56067909  0.86044215  1
  Cl  Cl5  1  0.75000000  0.43932091  0.13955785  1
  Cl  Cl6  1  0.25000000  0.86517697  0.94757560  1
  Cl  Cl7  1  0.75000000  0.63482303  0.44757560  1
  Cl  Cl8  1  0.75000000  0.13482303  0.05242440  1
  Cl  Cl9  1  0.25000000  0.06067909  0.63955785  1
  Cl  Cl10  1  0.25000000  0.36517697  0.55242440  1
  Cl  Cl11  1  0.75000000  0.93932091  0.36044215  1
loop_
_geom_bond_atom_site_label_1
_geom_bond_atom_site_label_2
_geom_bond_distance
_geom_bond_site_symmetry_2
Cl0 Cu3 2.371427 1_555
Cl0 Cu3 2.371427 1_455
Cl0 K5 3.174456 1_545
Cl0 K1 3.190013 1_555
Cl0 K2 3.222662 1_455
Cl0 K2 3.222662 1_555
Cl1 Cu0 2.371427 1_555
Cl1 Cu0 2.371427 1_455
Cl1 K1 3.174456 1_555
Cl1 K5 3.190013 1_555
Cl1 K0 3.222662 1_455
Cl1 K0 3.222662 1_555
Cl2 Cu2 2.371427 1_555
Cl2 Cu2 2.371427 1_655
Cl2 K3 3.174456 1_555
Cl2 K7 3.190013 1_555
Cl2 K6 3.222662 1_655
Cl2 K6 3.222662 1_555
Cl3 Cu1 2.371427 1_655
Cl3 Cu1 2.371427 1_555
Cl3 K7 3.174456 1_565
Cl3 K3 3.190013 1_555
Cl3 K4 3.222662 1_555
Cl3 K4 3.222662 1_655
Cl4 Cu1 2.328462 1_555
Cl4 K3 3.150635 1_555
Cl4 K3 3.150635 1_455
Cl4 K0 3.164846 1_556
Cl4 K0 3.164846 1_456
Cl4 K6 3.192464 1_555
Cl5 Cu3 2.328462 1_555
Cl5 K1 3.150635 1_555
Cl5 K1 3.150635 1_655
Cl5 K6 3.164846 1_654
Cl5 K6 3.164846 1_554
Cl5 K0 3.192464 1_555
Cl6 Cu1 2.315906 1_555
Cl6 K7 3.113644 1_465
Cl6 K7 3.113644 1_565
Cl6 K0 3.203355 1_556
Cl6 K0 3.203355 1_456
Cl6 K5 3.206029 1_556
Cl7 Cu0 2.315906 1_555
Cl7 K1 3.113644 1_555
Cl7 K1 3.113644 1_655
Cl7 K4 3.203355 1_555
Cl7 K4 3.203355 1_655
Cl7 K3 3.206029 1_555
Cl8 Cu3 2.315906 1_555
Cl8 K5 3.113644 1_545
Cl8 K5 3.113644 1_645
Cl8 K6 3.203355 1_554
Cl8 K6 3.203355 1_654
Cl8 K7 3.206029 1_554
Cl9 Cu2 2.328462 1_555
Cl9 K7 3.150635 1_455
Cl9 K7 3.150635 1_555
Cl9 K2 3.164846 1_555
Cl9 K2 3.164846 1_455
Cl9 K4 3.192464 1_545
Cl10 Cu2 2.315906 1_555
Cl10 K3 3.113644 1_455
Cl10 K3 3.113644 1_555
Cl10 K2 3.203355 1_455
Cl10 K2 3.203355 1_555
Cl10 K1 3.206029 1_555
Cl11 Cu0 2.328462 1_555
Cl11 K5 3.150635 1_555
Cl11 K5 3.150635 1_655
Cl11 K4 3.164846 1_655
Cl11 K4 3.164846 1_555
Cl11 K2 3.192464 1_565
