# generated using pymatgen
data_CdI2
_symmetry_space_group_name_H-M   'P 1'
_cell_length_a   29.83545205
_cell_length_b   29.83545205
_cell_length_c   29.83545236
_cell_angle_alpha   8.35405569
_cell_angle_beta   8.35405569
_cell_angle_gamma   8.35405396
_symmetry_Int_Tables_number   1
_chemical_formula_structural   CdI2
_chemical_formula_sum   'Cd4 I8'
_cell_volume   486.37006623
_cell_formula_units_Z   4
loop_
 _symmetry_equiv_pos_site_id
 _symmetry_equiv_pos_as_xyz
  1  'x, y, z'
loop_
 _atom_site_type_symbol
 _atom_site_label
 _atom_site_symmetry_multiplicity
 _atom_site_fract_x
 _atom_site_fract_y
 _atom_site_fract_z
 _atom_site_occupancy
  Cd  Cd0  1  0.45836800  0.45836800  0.45836800  1
  Cd  Cd1  1  0.95836000  0.95836000  0.95836000  1
  Cd  Cd2  1  0.04164000  0.04164000  0.04164000  1
  Cd  Cd3  1  0.54163200  0.54163200  0.54163200  1
  I  I0  1  0.14434200  0.14434200  0.14434200  1
  I  I1  1  0.68900400  0.68900400  0.68900400  1
  I  I2  1  0.22760700  0.22760700  0.22760700  1
  I  I3  1  0.77239300  0.77239300  0.77239300  1
  I  I4  1  0.39428400  0.39428400  0.39428400  1
  I  I5  1  0.60571600  0.60571600  0.60571600  1
  I  I6  1  0.31099600  0.31099600  0.31099600  1
  I  I7  1  0.85565800  0.85565800  0.85565800  1
loop_
_geom_bond_atom_site_label_1
_geom_bond_atom_site_label_2
_geom_bond_distance
_geom_bond_site_symmetry_2
Cd0 I0 3.043380 1_565
Cd0 I0 3.043380 1_655
Cd0 I0 3.043380 1_556
Cd0 I3 3.043430 1_455
Cd0 I3 3.043430 1_545
Cd0 I3 3.043431 1_554
Cd1 I6 3.043144 1_656
Cd1 I6 3.043144 1_566
Cd1 I6 3.043145 1_665
Cd1 I5 3.043548 1_655
Cd1 I5 3.043548 1_565
Cd1 I5 3.043548 1_556
Cd2 I1 3.043144 1_454
Cd2 I1 3.043144 1_544
Cd2 I1 3.043145 1_445
Cd2 I4 3.043548 1_545
Cd2 I4 3.043548 1_455
Cd2 I4 3.043548 1_554
Cd3 I7 3.043380 1_545
Cd3 I7 3.043380 1_455
Cd3 I7 3.043380 1_554
Cd3 I2 3.043430 1_655
Cd3 I2 3.043430 1_565
Cd3 I2 3.043431 1_556
