# generated using pymatgen
data_TlSn2Br5
_symmetry_space_group_name_H-M   'P 1'
_cell_length_a   8.41147548
_cell_length_b   8.41147621
_cell_length_c   9.44157755
_cell_angle_alpha   116.45204783
_cell_angle_beta   116.45205247
_cell_angle_gamma   89.99999714
_symmetry_Int_Tables_number   1
_chemical_formula_structural   TlSn2Br5
_chemical_formula_sum   'Tl2 Sn4 Br10'
_cell_volume   518.80239083
_cell_formula_units_Z   2
loop_
 _symmetry_equiv_pos_site_id
 _symmetry_equiv_pos_as_xyz
  1  'x, y, z'
loop_
 _atom_site_type_symbol
 _atom_site_label
 _atom_site_symmetry_multiplicity
 _atom_site_fract_x
 _atom_site_fract_y
 _atom_site_fract_z
 _atom_site_occupancy
  Tl  Tl0  1  0.25000000  0.25000000  0.50000000  1
  Tl  Tl1  1  0.75000000  0.75000000  0.50000000  1
  Sn  Sn0  1  0.67903446  0.82096554  0.00000000  1
  Sn  Sn1  1  0.82096554  0.32096654  -0.00000000  1
  Sn  Sn2  1  0.17903346  0.67903446  0.00000000  1
  Sn  Sn3  1  0.32096654  0.17903346  -0.00000000  1
  Br  Br0  1  0.02641782  0.19993483  0.72635165  1
  Br  Br1  1  0.19993483  0.69993483  0.72635165  1
  Br  Br2  1  0.50000000  0.50000000  0.00000000  1
  Br  Br3  1  0.52641782  0.02641782  0.72635165  1
  Br  Br4  1  0.97358218  0.80006517  0.27364835  1
  Br  Br5  1  0.69993483  0.52641782  0.72635165  1
  Br  Br6  1  0.80006517  0.30006517  0.27364835  1
  Br  Br7  1  0.47358218  0.97358218  0.27364835  1
  Br  Br8  1  0.00000000  0.00000000  0.00000000  1
  Br  Br9  1  0.30006517  0.47358218  0.27364835  1
loop_
_geom_bond_atom_site_label_1
_geom_bond_atom_site_label_2
_geom_bond_distance
_geom_bond_site_symmetry_2
Br0 Sn3 2.747093 1_556
Br1 Sn2 2.747093 1_556
Br2 Sn1 3.091396 1_555
Br2 Sn0 3.091400 1_555
Br2 Sn3 3.091403 1_555
Br2 Sn2 3.091407 1_555
Br3 Sn1 2.747085 1_556
Br4 Sn0 2.747084 1_555
Br5 Sn0 2.747085 1_556
Br6 Sn1 2.747093 1_555
Br7 Sn2 2.747085 1_555
Br8 Sn2 3.091396 1_545
Br8 Sn0 3.091400 1_445
Br8 Sn3 3.091403 1_555
Br8 Sn1 3.091407 1_455
Br9 Sn3 2.747093 1_555
