# generated using pymatgen
data_LaRh3
_symmetry_space_group_name_H-M   'P 1'
_cell_length_a   9.37953287
_cell_length_b   9.37953287
_cell_length_c   9.37953309
_cell_angle_alpha   32.95786209
_cell_angle_beta   32.95786209
_cell_angle_gamma   32.95786083
_symmetry_Int_Tables_number   1
_chemical_formula_structural   LaRh3
_chemical_formula_sum   'La3 Rh9'
_cell_volume   217.31765642
_cell_formula_units_Z   3
loop_
 _symmetry_equiv_pos_site_id
 _symmetry_equiv_pos_as_xyz
  1  'x, y, z'
loop_
 _atom_site_type_symbol
 _atom_site_label
 _atom_site_symmetry_multiplicity
 _atom_site_fract_x
 _atom_site_fract_y
 _atom_site_fract_z
 _atom_site_occupancy
  La  La0  1  0.13843412  0.13843412  0.13843412  1
  La  La1  1  0.00000000  0.00000000  -0.00000000  1
  La  La2  1  0.86156588  0.86156588  0.86156588  1
  Rh  Rh0  1  0.41989600  0.41989600  0.91756742  1
  Rh  Rh1  1  0.41989600  0.91756742  0.41989600  1
  Rh  Rh2  1  0.08243258  0.58010400  0.58010400  1
  Rh  Rh3  1  0.58010400  0.58010400  0.08243258  1
  Rh  Rh4  1  0.91756742  0.41989600  0.41989600  1
  Rh  Rh5  1  0.58010400  0.08243258  0.58010400  1
  Rh  Rh6  1  0.33239010  0.33239010  0.33239010  1
  Rh  Rh7  1  0.66760990  0.66760990  0.66760990  1
  Rh  Rh8  1  0.50000000  0.50000000  0.50000000  1
loop_
_geom_bond_atom_site_label_1
_geom_bond_atom_site_label_2
_geom_bond_distance
_geom_bond_site_symmetry_2
La0 Rh3 3.069255 1_545
La0 Rh3 3.069255 1_455
La0 Rh2 3.069255 1_545
La0 Rh5 3.069255 1_455
La0 Rh2 3.069255 1_554
La0 Rh5 3.069255 1_554
La0 Rh8 3.162588 1_455
La0 Rh8 3.162588 1_545
La0 Rh8 3.162588 1_554
La0 Rh0 3.401580 1_554
La0 Rh1 3.401580 1_545
La0 Rh4 3.401580 1_455
La0 La2 3.419380 1_544
La0 La2 3.419380 1_454
La0 La2 3.419381 1_445
La0 La1 3.680457 1_555
La1 Rh7 3.072326 1_454
La1 Rh7 3.072326 1_544
La1 Rh6 3.072326 1_455
La1 Rh6 3.072326 1_545
La1 Rh7 3.072326 1_445
La1 Rh6 3.072326 1_554
La1 Rh0 3.420935 1_544
La1 Rh3 3.420935 1_455
La1 Rh0 3.420935 1_454
La1 Rh3 3.420935 1_545
La1 Rh2 3.420935 1_554
La1 Rh4 3.420935 1_445
La1 Rh1 3.420935 1_445
La1 Rh5 3.420935 1_554
La1 Rh2 3.420935 1_545
La1 Rh4 3.420935 1_454
La1 Rh5 3.420935 1_455
La1 Rh1 3.420935 1_544
La1 La2 3.680457 1_444
La2 Rh0 3.069255 1_565
La2 Rh0 3.069255 1_655
La2 Rh4 3.069255 1_565
La2 Rh1 3.069255 1_655
La2 Rh4 3.069255 1_556
La2 Rh1 3.069255 1_556
La2 Rh8 3.162588 1_565
La2 Rh8 3.162588 1_655
La2 Rh8 3.162588 1_556
La2 Rh3 3.401580 1_556
La2 Rh2 3.401580 1_655
La2 Rh5 3.401580 1_565
Rh0 Rh6 2.626458 1_556
Rh0 Rh1 2.648233 1_555
Rh0 Rh4 2.648233 1_555
Rh0 Rh7 2.658950 1_555
Rh0 Rh4 2.673015 1_456
Rh0 Rh1 2.673015 1_546
Rh0 Rh8 2.745820 1_555
Rh1 Rh6 2.626457 1_565
Rh1 Rh4 2.648233 1_555
Rh1 Rh7 2.658950 1_555
Rh1 Rh4 2.673015 1_465
Rh1 Rh8 2.745820 1_555
Rh2 Rh7 2.626457 1_455
Rh2 Rh5 2.648233 1_555
Rh2 Rh3 2.648233 1_555
Rh2 Rh6 2.658950 1_555
Rh2 Rh5 2.673015 1_465
Rh2 Rh3 2.673015 1_456
Rh2 Rh8 2.745820 1_555
Rh3 Rh7 2.626458 1_554
Rh3 Rh5 2.648233 1_555
Rh3 Rh6 2.658950 1_555
Rh3 Rh5 2.673015 1_564
Rh3 Rh8 2.745820 1_555
Rh4 Rh6 2.626457 1_655
Rh4 Rh7 2.658950 1_555
Rh4 Rh8 2.745820 1_555
Rh5 Rh7 2.626457 1_545
Rh5 Rh6 2.658950 1_555
Rh5 Rh8 2.745820 1_555
Rh6 Rh7 3.072633 1_455
Rh6 Rh7 3.072633 1_545
Rh6 Rh7 3.072633 1_554
