# generated using pymatgen
data_Na3Fe5O9
_symmetry_space_group_name_H-M   'P 1'
_cell_length_a   8.99783445
_cell_length_b   8.99783445
_cell_length_c   5.25184041
_cell_angle_alpha   89.37991987
_cell_angle_beta   89.37991987
_cell_angle_gamma   83.80395845
_symmetry_Int_Tables_number   1
_chemical_formula_structural   Na3Fe5O9
_chemical_formula_sum   'Na6 Fe10 O18'
_cell_volume   422.66588827
_cell_formula_units_Z   2
loop_
 _symmetry_equiv_pos_site_id
 _symmetry_equiv_pos_as_xyz
  1  'x, y, z'
loop_
 _atom_site_type_symbol
 _atom_site_label
 _atom_site_symmetry_multiplicity
 _atom_site_fract_x
 _atom_site_fract_y
 _atom_site_fract_z
 _atom_site_occupancy
  Na  Na0  1  0.68375422  0.84070469  0.27326229  1
  Na  Na1  1  0.15929531  0.31624578  0.22673771  1
  Na  Na2  1  0.31624578  0.15929531  0.72673771  1
  Na  Na3  1  0.84070469  0.68375422  0.77326229  1
  Na  Na4  1  0.40586696  0.59413304  0.25000000  1
  Na  Na5  1  0.59413304  0.40586696  0.75000000  1
  Fe  Fe0  1  0.56442852  0.20351916  0.28194091  1
  Fe  Fe1  1  0.79648084  0.43557148  0.21805909  1
  Fe  Fe2  1  0.43557148  0.79648084  0.71805909  1
  Fe  Fe3  1  0.20351916  0.56442852  0.78194091  1
  Fe  Fe4  1  0.30238146  0.98024857  0.21601570  1
  Fe  Fe5  1  0.01975143  0.69761854  0.28398430  1
  Fe  Fe6  1  0.69761854  0.01975143  0.78398430  1
  Fe  Fe7  1  0.98024857  0.30238146  0.71601570  1
  Fe  Fe8  1  0.93768172  0.06231828  0.25000000  1
  Fe  Fe9  1  0.06231828  0.93768172  0.75000000  1
  O  O0  1  0.72396437  0.08664286  0.11493117  1
  O  O1  1  0.91335714  0.27603563  0.38506883  1
  O  O2  1  0.27603563  0.91335714  0.88506883  1
  O  O3  1  0.08664286  0.72396437  0.61493117  1
  O  O4  1  0.43292503  0.83794266  0.37367196  1
  O  O5  1  0.16205734  0.56707497  0.12632804  1
  O  O6  1  0.56707497  0.16205734  0.62632804  1
  O  O7  1  0.83794266  0.43292503  0.87367196  1
  O  O8  1  0.37957570  0.16239441  0.17084761  1
  O  O9  1  0.83760559  0.62042430  0.32915239  1
  O  O10  1  0.62042430  0.83760559  0.82915239  1
  O  O11  1  0.16239441  0.37957570  0.67084761  1
  O  O12  1  0.13633158  0.02941786  0.42537114  1
  O  O13  1  0.97058214  0.86366842  0.07462886  1
  O  O14  1  0.86366842  0.97058214  0.57462886  1
  O  O15  1  0.02941786  0.13633158  0.92537114  1
  O  O16  1  0.59268042  0.40731958  0.25000000  1
  O  O17  1  0.40731958  0.59268042  0.75000000  1
loop_
_geom_bond_atom_site_label_1
_geom_bond_atom_site_label_2
_geom_bond_distance
_geom_bond_site_symmetry_2
Na0 O9 2.309752 1_555
Na0 O4 2.314833 1_555
Na0 O10 2.408143 1_554
Na0 O0 2.417810 1_565
Na0 O14 2.644842 1_555
Na0 O13 2.800678 1_555
Na0 O10 2.968891 1_555
Na1 O8 2.309752 1_555
Na1 O5 2.314833 1_555
Na1 O11 2.408143 1_555
Na1 O1 2.417810 1_455
Na1 O15 2.644842 1_554
Na1 O12 2.800678 1_555
Na1 O11 2.968891 1_554
Na2 O11 2.309752 1_555
Na2 O6 2.314833 1_555
Na2 O8 2.408143 1_556
Na2 O2 2.417810 1_545
Na2 O12 2.644842 1_555
Na2 O15 2.800678 1_555
Na2 O8 2.968891 1_555
Na3 O10 2.309752 1_555
Na3 O7 2.314833 1_555
Na3 O9 2.408143 1_555
Na3 O3 2.417810 1_655
Na3 O13 2.644842 1_556
Na3 O14 2.800678 1_555
Na3 O9 2.968891 1_556
Na4 O16 2.245228 1_555
Na4 O5 2.333080 1_555
Na4 O4 2.333080 1_555
Na4 O17 2.625978 1_554
Na4 O17 2.625978 1_555
Na5 O17 2.245228 1_555
Na5 O6 2.333080 1_555
Na5 O7 2.333080 1_555
Na5 O16 2.625978 1_555
Na5 O16 2.625978 1_556
Fe0 O6 1.842669 1_555
Fe0 O8 1.844546 1_555
Fe0 O16 1.883743 1_555
Fe0 O0 1.898077 1_555
Fe1 O7 1.842669 1_554
Fe1 O9 1.844546 1_555
Fe1 O16 1.883743 1_555
Fe1 O1 1.898077 1_555
Fe2 O4 1.842669 1_555
Fe2 O10 1.844546 1_555
Fe2 O17 1.883743 1_555
Fe2 O2 1.898077 1_555
Fe3 O5 1.842669 1_556
Fe3 O11 1.844546 1_555
Fe3 O17 1.883743 1_555
Fe3 O3 1.898077 1_555
Fe4 O4 1.838002 1_555
Fe4 O8 1.859708 1_565
Fe4 O12 1.862585 1_565
Fe4 O2 1.871292 1_554
Fe5 O5 1.838002 1_555
Fe5 O9 1.859708 1_455
Fe5 O13 1.862585 1_455
Fe5 O3 1.871292 1_555
Fe6 O6 1.838002 1_555
Fe6 O10 1.859708 1_545
Fe6 O14 1.862585 1_545
Fe6 O0 1.871292 1_556
Fe7 O7 1.838002 1_555
Fe7 O11 1.859708 1_655
Fe7 O15 1.862585 1_655
Fe7 O1 1.871292 1_555
Fe8 O12 2.011540 1_655
Fe8 O13 2.011540 1_545
Fe8 O15 2.023644 1_654
Fe8 O14 2.023644 1_545
Fe8 O1 2.045559 1_555
Fe8 O0 2.045559 1_555
Fe9 O14 2.011540 1_455
Fe9 O15 2.011540 1_565
Fe9 O12 2.023644 1_565
Fe9 O13 2.023644 1_456
Fe9 O3 2.045559 1_555
Fe9 O2 2.045559 1_555
