# generated using pymatgen
data_Ce2Si4Pt7
_symmetry_space_group_name_H-M   'P 1'
_cell_length_a   4.05059400
_cell_length_b   11.31528800
_cell_length_c   19.81063100
_cell_angle_alpha   90.00000000
_cell_angle_beta   90.00000000
_cell_angle_gamma   90.00000000
_symmetry_Int_Tables_number   1
_chemical_formula_structural   Ce2Si4Pt7
_chemical_formula_sum   'Ce8 Si16 Pt28'
_cell_volume   907.99328349
_cell_formula_units_Z   4
loop_
 _symmetry_equiv_pos_site_id
 _symmetry_equiv_pos_as_xyz
  1  'x, y, z'
loop_
 _atom_site_type_symbol
 _atom_site_label
 _atom_site_symmetry_multiplicity
 _atom_site_fract_x
 _atom_site_fract_y
 _atom_site_fract_z
 _atom_site_occupancy
  Ce  Ce0  1  0.25000000  0.97875700  0.71763100  1
  Ce  Ce1  1  0.25000000  0.52124300  0.21763100  1
  Ce  Ce2  1  0.75000000  0.47875700  0.78236900  1
  Ce  Ce3  1  0.75000000  0.24312600  0.47107600  1
  Ce  Ce4  1  0.25000000  0.74312600  0.02892400  1
  Ce  Ce5  1  0.25000000  0.75687400  0.52892400  1
  Ce  Ce6  1  0.75000000  0.25687400  0.97107600  1
  Ce  Ce7  1  0.75000000  0.02124300  0.28236900  1
  Si  Si0  1  0.25000000  0.79953500  0.24517000  1
  Si  Si1  1  0.75000000  0.57522400  0.58650800  1
  Si  Si2  1  0.25000000  0.42477600  0.41349200  1
  Si  Si3  1  0.75000000  0.20046500  0.75483000  1
  Si  Si4  1  0.75000000  0.74796900  0.90552500  1
  Si  Si5  1  0.25000000  0.06141400  0.41469200  1
  Si  Si6  1  0.25000000  0.24796900  0.59447500  1
  Si  Si7  1  0.25000000  0.43858600  0.91469200  1
  Si  Si8  1  0.75000000  0.93858500  0.58530800  1
  Si  Si9  1  0.75000000  0.75203100  0.40552500  1
  Si  Si10  1  0.75000000  0.56141500  0.08530800  1
  Si  Si11  1  0.25000000  0.25203100  0.09447500  1
  Si  Si12  1  0.75000000  0.29953500  0.25483000  1
  Si  Si13  1  0.25000000  0.07522400  0.91349200  1
  Si  Si14  1  0.75000000  0.92477600  0.08650800  1
  Si  Si15  1  0.25000000  0.70046500  0.74517000  1
  Pt  Pt0  1  0.25000000  0.25940800  0.85105400  1
  Pt  Pt1  1  0.25000000  0.62895900  0.86343900  1
  Pt  Pt2  1  0.75000000  0.44212400  0.34126800  1
  Pt  Pt3  1  0.75000000  0.80618800  0.78488400  1
  Pt  Pt4  1  0.25000000  0.62129000  0.37184100  1
  Pt  Pt5  1  0.25000000  0.87871000  0.87184100  1
  Pt  Pt6  1  0.25000000  0.24059200  0.35105400  1
  Pt  Pt7  1  0.75000000  0.05787600  0.84126800  1
  Pt  Pt8  1  0.25000000  0.43400200  0.53277800  1
  Pt  Pt9  1  0.25000000  0.06599800  0.03277800  1
  Pt  Pt10  1  0.75000000  0.55081200  0.95866500  1
  Pt  Pt11  1  0.75000000  0.94918800  0.45866500  1
  Pt  Pt12  1  0.75000000  0.37871000  0.62815900  1
  Pt  Pt13  1  0.25000000  0.55787600  0.65873200  1
  Pt  Pt14  1  0.25000000  0.87104100  0.36343900  1
  Pt  Pt15  1  0.75000000  0.56599800  0.46722200  1
  Pt  Pt16  1  0.25000000  0.19381200  0.21511600  1
  Pt  Pt17  1  0.25000000  0.30618800  0.71511600  1
  Pt  Pt18  1  0.75000000  0.74059200  0.14894600  1
  Pt  Pt19  1  0.25000000  0.94212400  0.15873200  1
  Pt  Pt20  1  0.75000000  0.12129000  0.12815900  1
  Pt  Pt21  1  0.75000000  0.93400200  0.96722200  1
  Pt  Pt22  1  0.75000000  0.75940800  0.64894600  1
  Pt  Pt23  1  0.75000000  0.37104100  0.13656100  1
  Pt  Pt24  1  0.25000000  0.05081200  0.54133500  1
  Pt  Pt25  1  0.75000000  0.12895900  0.63656100  1
  Pt  Pt26  1  0.75000000  0.69381200  0.28488400  1
  Pt  Pt27  1  0.25000000  0.44918800  0.04133500  1
loop_
_geom_bond_atom_site_label_1
_geom_bond_atom_site_label_2
_geom_bond_distance
_geom_bond_site_symmetry_2
Ce0 Pt25 3.093507 1_465
Ce0 Pt25 3.093507 1_565
Ce0 Pt3 3.112849 1_555
Ce0 Pt3 3.112849 1_455
Ce0 Si15 3.195865 1_555
Ce0 Pt5 3.258001 1_555
Ce0 Pt7 3.301895 1_465
Ce0 Pt7 3.301895 1_565
Ce0 Si3 3.307329 1_465
Ce0 Si3 3.307329 1_565
Ce0 Si8 3.343681 1_455
Ce0 Si8 3.343681 1_555
Ce0 Pt22 3.480463 1_555
Ce0 Pt22 3.480463 1_455
Ce0 Pt24 3.586440 1_565
Ce0 Pt17 3.705311 1_565
Ce1 Pt23 3.093507 1_555
Ce1 Pt23 3.093507 1_455
Ce1 Pt26 3.112849 1_555
Ce1 Pt26 3.112849 1_455
Ce1 Si0 3.195865 1_555
Ce1 Pt4 3.258001 1_555
Ce1 Pt2 3.301895 1_455
Ce1 Pt2 3.301895 1_555
Ce1 Si12 3.307329 1_455
Ce1 Si12 3.307329 1_555
Ce1 Si10 3.343681 1_455
Ce1 Si10 3.343681 1_555
Ce1 Pt18 3.480463 1_555
Ce1 Pt18 3.480463 1_455
Ce1 Pt27 3.586440 1_555
Ce1 Pt16 3.705311 1_555
Ce2 Pt1 3.093507 1_655
Ce2 Pt1 3.093507 1_555
Ce2 Pt17 3.112849 1_555
Ce2 Pt17 3.112849 1_655
Ce2 Si3 3.195865 1_555
Ce2 Pt12 3.258001 1_555
Ce2 Pt13 3.301895 1_555
Ce2 Pt13 3.301895 1_655
Ce2 Si15 3.307329 1_555
Ce2 Si15 3.307329 1_655
Ce2 Si7 3.343679 1_555
Ce2 Si7 3.343679 1_655
Ce2 Pt0 3.480463 1_555
Ce2 Pt0 3.480463 1_655
Ce2 Pt10 3.586440 1_555
Ce2 Pt3 3.705311 1_555
Ce3 Si5 3.094700 1_655
Ce3 Si5 3.094700 1_555
Ce3 Si2 3.102895 1_555
Ce3 Si2 3.102895 1_655
Ce3 Pt6 3.123486 1_555
Ce3 Pt6 3.123486 1_655
Ce3 Si6 3.175053 1_555
Ce3 Si6 3.175053 1_655
Ce3 Pt8 3.203247 1_655
Ce3 Pt8 3.203247 1_555
Ce3 Pt24 3.282454 1_655
Ce3 Pt24 3.282454 1_555
Ce3 Pt11 3.335069 1_545
Ce3 Pt2 3.418078 1_555
Ce3 Pt12 3.469537 1_555
Ce3 Pt25 3.523704 1_555
Ce3 Pt15 3.654187 1_555
Ce4 Si10 3.094692 1_455
Ce4 Si10 3.094692 1_555
Ce4 Si14 3.102895 1_455
Ce4 Si14 3.102895 1_555
Ce4 Pt18 3.123486 1_555
Ce4 Pt18 3.123486 1_455
Ce4 Si4 3.175053 1_454
Ce4 Si4 3.175053 1_554
Ce4 Pt21 3.203247 1_554
Ce4 Pt21 3.203247 1_454
Ce4 Pt10 3.282454 1_454
Ce4 Pt10 3.282454 1_554
Ce4 Pt27 3.335069 1_555
Ce4 Pt19 3.418078 1_555
Ce4 Pt5 3.469537 1_554
Ce4 Pt1 3.523704 1_554
Ce4 Pt9 3.654187 1_565
Ce5 Si8 3.094692 1_455
Ce5 Si8 3.094692 1_555
Ce5 Si1 3.102895 1_555
Ce5 Si1 3.102895 1_455
Ce5 Pt22 3.123486 1_455
Ce5 Pt22 3.123486 1_555
Ce5 Si9 3.175053 1_455
Ce5 Si9 3.175053 1_555
Ce5 Pt15 3.203247 1_555
Ce5 Pt15 3.203247 1_455
Ce5 Pt11 3.282454 1_555
Ce5 Pt11 3.282454 1_455
Ce5 Pt24 3.335069 1_565
Ce5 Pt13 3.418078 1_555
Ce5 Pt4 3.469537 1_555
Ce5 Pt14 3.523704 1_555
Ce5 Pt8 3.654187 1_555
Ce6 Si7 3.094700 1_555
Ce6 Si7 3.094700 1_655
Ce6 Si13 3.102895 1_655
Ce6 Si13 3.102895 1_555
Ce6 Pt0 3.123486 1_555
Ce6 Pt0 3.123486 1_655
Ce6 Si11 3.175053 1_656
Ce6 Si11 3.175053 1_556
Ce6 Pt9 3.203247 1_556
Ce6 Pt9 3.203247 1_656
Ce6 Pt27 3.282454 1_656
Ce6 Pt27 3.282454 1_556
Ce6 Pt10 3.335069 1_555
Ce6 Pt7 3.418078 1_555
Ce6 Pt20 3.469537 1_556
Ce6 Pt23 3.523704 1_556
Ce6 Pt21 3.654187 1_545
Ce7 Pt14 3.093507 1_645
Ce7 Pt14 3.093507 1_545
Ce7 Pt16 3.112849 1_555
Ce7 Pt16 3.112849 1_655
Ce7 Si12 3.195865 1_555
Ce7 Pt20 3.258001 1_555
Ce7 Pt19 3.301895 1_645
Ce7 Pt19 3.301895 1_545
Ce7 Si0 3.307329 1_545
Ce7 Si0 3.307329 1_645
Ce7 Si5 3.343679 1_555
Ce7 Si5 3.343679 1_655
Ce7 Pt6 3.480463 1_555
Ce7 Pt6 3.480463 1_655
Ce7 Pt11 3.586440 1_545
Ce7 Pt26 3.705311 1_545
Pt0 Si7 2.387455 1_555
Pt0 Si13 2.423523 1_555
Pt1 Si7 2.381428 1_555
Pt1 Si15 2.478756 1_555
Pt1 Si4 2.571067 1_555
Pt1 Si4 2.571067 1_455
Pt2 Si12 2.352756 1_555
Pt2 Si2 2.487480 1_655
Pt2 Si2 2.487480 1_555
Pt3 Si4 2.479102 1_555
Pt3 Si15 2.480306 1_555
Pt3 Si15 2.480306 1_655
Pt4 Si2 2.371771 1_555
Pt4 Si9 2.595315 1_455
Pt4 Si9 2.595315 1_555
Pt5 Si13 2.371771 1_565
Pt5 Si4 2.595315 1_455
Pt5 Si4 2.595315 1_555
Pt6 Si5 2.387455 1_555
Pt6 Si2 2.423523 1_555
Pt7 Si3 2.352756 1_555
Pt7 Si13 2.487480 1_555
Pt7 Si13 2.487480 1_655
Pt8 Si2 2.365436 1_555
Pt8 Si6 2.434134 1_555
Pt8 Si1 2.790758 1_555
Pt8 Si1 2.790758 1_455
Pt9 Si13 2.365436 1_554
Pt9 Si11 2.434134 1_555
Pt9 Si14 2.790758 1_445
Pt9 Si14 2.790758 1_545
Pt10 Si4 2.466803 1_555
Pt10 Si10 2.511745 1_556
Pt10 Si7 2.544262 1_655
Pt10 Si7 2.544262 1_555
Pt11 Si9 2.466803 1_555
Pt11 Si8 2.511745 1_555
Pt11 Si5 2.544262 1_565
Pt11 Si5 2.544262 1_665
Pt12 Si1 2.371771 1_555
Pt12 Si6 2.595315 1_555
Pt12 Si6 2.595315 1_655
Pt13 Si15 2.352756 1_555
Pt13 Si1 2.487480 1_455
Pt13 Si1 2.487480 1_555
Pt14 Si5 2.381428 1_565
Pt14 Si0 2.478756 1_555
Pt14 Si9 2.571067 1_555
Pt14 Si9 2.571067 1_455
Pt15 Si1 2.365436 1_555
Pt15 Si9 2.434134 1_555
Pt15 Si2 2.790758 1_655
Pt15 Si2 2.790758 1_555
Pt16 Si11 2.479102 1_555
Pt16 Si12 2.480306 1_455
Pt16 Si12 2.480306 1_555
Pt17 Si6 2.479102 1_555
Pt17 Si3 2.480306 1_455
Pt17 Si3 2.480306 1_555
Pt18 Si10 2.387446 1_555
Pt18 Si14 2.423523 1_555
Pt19 Si0 2.352756 1_555
Pt19 Si14 2.487480 1_455
Pt19 Si14 2.487480 1_555
Pt20 Si14 2.371771 1_545
Pt20 Si11 2.595315 1_555
Pt20 Si11 2.595315 1_655
Pt21 Si14 2.365436 1_556
Pt21 Si4 2.434134 1_555
Pt21 Si13 2.790758 1_665
Pt21 Si13 2.790758 1_565
Pt22 Si8 2.387446 1_555
Pt22 Si1 2.423523 1_555
Pt23 Si10 2.381438 1_555
Pt23 Si12 2.478756 1_555
Pt23 Si11 2.571067 1_655
Pt23 Si11 2.571067 1_555
Pt24 Si6 2.466803 1_555
Pt24 Si5 2.511744 1_555
Pt24 Si8 2.544268 1_545
Pt24 Si8 2.544268 1_445
Pt25 Si8 2.381438 1_545
Pt25 Si3 2.478756 1_555
Pt25 Si6 2.571067 1_655
Pt25 Si6 2.571067 1_555
Pt26 Si9 2.479102 1_555
Pt26 Si0 2.480306 1_555
Pt26 Si0 2.480306 1_655
Pt27 Si11 2.466803 1_555
Pt27 Si7 2.511744 1_554
Pt27 Si10 2.544268 1_455
Pt27 Si10 2.544268 1_555
