# generated using pymatgen
data_Rb2Be2Si2O7
_symmetry_space_group_name_H-M   'P 1'
_cell_length_a   5.19992600
_cell_length_b   8.43910100
_cell_length_c   9.01388700
_cell_angle_alpha   90.00000000
_cell_angle_beta   90.00000000
_cell_angle_gamma   90.00000000
_symmetry_Int_Tables_number   1
_chemical_formula_structural   Rb2Be2Si2O7
_chemical_formula_sum   'Rb4 Be4 Si4 O14'
_cell_volume   395.55370542
_cell_formula_units_Z   2
loop_
 _symmetry_equiv_pos_site_id
 _symmetry_equiv_pos_as_xyz
  1  'x, y, z'
loop_
 _atom_site_type_symbol
 _atom_site_label
 _atom_site_symmetry_multiplicity
 _atom_site_fract_x
 _atom_site_fract_y
 _atom_site_fract_z
 _atom_site_occupancy
  Rb  Rb0  1  0.50000000  0.00000000  0.44097200  1
  Rb  Rb1  1  0.00000000  0.00000000  0.00173900  1
  Rb  Rb2  1  0.00000000  0.50000000  0.94097200  1
  Rb  Rb3  1  0.50000000  0.50000000  0.50173900  1
  Be  Be0  1  0.50451600  0.24079300  0.81197600  1
  Be  Be1  1  0.99548400  0.74079300  0.31197600  1
  Be  Be2  1  0.00451600  0.25920700  0.31197600  1
  Be  Be3  1  0.49548400  0.75920700  0.81197600  1
  Si  Si0  1  0.99629600  0.80374800  0.64191800  1
  Si  Si1  1  0.00370400  0.19625200  0.64191800  1
  Si  Si2  1  0.50370400  0.30374800  0.14191800  1
  Si  Si3  1  0.49629600  0.69625200  0.14191800  1
  O  O0  1  0.28099200  0.74704800  0.69506300  1
  O  O1  1  0.07368000  0.26453100  0.47780100  1
  O  O2  1  0.27875400  0.74658500  0.26315200  1
  O  O3  1  0.72124600  0.25341500  0.26315200  1
  O  O4  1  0.71900800  0.25295200  0.69506300  1
  O  O5  1  0.00000000  0.00000000  0.62827000  1
  O  O6  1  0.77875400  0.75341500  0.76315200  1
  O  O7  1  0.92632000  0.73546900  0.47780100  1
  O  O8  1  0.50000000  0.50000000  0.12827000  1
  O  O9  1  0.57368000  0.23546900  0.97780100  1
  O  O10  1  0.21900800  0.24704800  0.19506300  1
  O  O11  1  0.22124600  0.24658500  0.76315200  1
  O  O12  1  0.42632000  0.76453100  0.97780100  1
  O  O13  1  0.78099200  0.75295200  0.19506300  1
loop_
_geom_bond_atom_site_label_1
_geom_bond_atom_site_label_2
_geom_bond_distance
_geom_bond_site_symmetry_2
Be0 O4 1.537887 1_555
Be0 O9 1.538043 1_555
Be0 O11 1.538100 1_555
Be1 O13 1.537887 1_555
Be1 O7 1.538043 1_555
Be1 O2 1.538100 1_655
Be2 O10 1.537887 1_555
Be2 O1 1.538043 1_555
Be2 O3 1.538100 1_455
Be3 O0 1.537887 1_555
Be3 O12 1.538043 1_555
Be3 O6 1.538100 1_555
O0 Si0 1.627888 1_455
O0 Rb3 2.946224 1_555
O0 Rb0 3.331592 1_565
O0 Rb2 3.375629 1_555
O1 Si1 1.628756 1_555
O1 Rb3 2.984905 1_555
O1 Rb0 3.163571 1_555
O2 Si3 1.629182 1_555
O2 Rb0 2.909687 1_565
O2 Rb3 3.206089 1_555
O3 Si2 1.629182 1_555
O3 Rb0 2.909687 1_555
O3 Rb3 3.206089 1_555
O4 Si1 1.627888 1_655
O4 Rb3 2.946224 1_555
O4 Rb0 3.331592 1_555
O4 Rb2 3.375629 1_655
O5 Si0 1.660865 1_445
O5 Si1 1.660865 1_555
O5 Rb0 3.100017 1_555
O5 Rb0 3.100017 1_455
O6 Si0 1.629182 1_555
O6 Rb2 2.909687 1_655
O6 Rb1 3.206089 1_666
O7 Si0 1.628756 1_555
O7 Rb3 2.984905 1_555
O7 Rb0 3.163571 1_565
O8 Si2 1.660865 1_555
O8 Si3 1.660865 1_555
O8 Rb2 3.100017 1_654
O8 Rb2 3.100017 1_554
O9 Si2 1.628756 1_556
O9 Rb1 2.984905 1_656
O9 Rb2 3.163571 1_655
O10 Si2 1.627888 1_555
O10 Rb1 2.946224 1_555
O10 Rb2 3.331592 1_554
O10 Rb0 3.375629 1_555
O11 Si1 1.629182 1_555
O11 Rb2 2.909687 1_555
O11 Rb1 3.206089 1_556
O12 Si3 1.628756 1_556
O12 Rb1 2.984905 1_566
O12 Rb2 3.163571 1_555
O13 Si3 1.627888 1_555
O13 Rb1 2.946224 1_665
O13 Rb2 3.331592 1_654
O13 Rb0 3.375629 1_565
