# generated using pymatgen
data_V2Ni(TeO5)2
_symmetry_space_group_name_H-M   'P 1'
_cell_length_a   6.42762033
_cell_length_b   6.67209280
_cell_length_c   9.51977898
_cell_angle_alpha   71.70279842
_cell_angle_beta   77.67521358
_cell_angle_gamma   96.96117547
_symmetry_Int_Tables_number   1
_chemical_formula_structural   V2Ni(TeO5)2
_chemical_formula_sum   'V4 Ni2 Te4 O20'
_cell_volume   370.80986073
_cell_formula_units_Z   2
loop_
 _symmetry_equiv_pos_site_id
 _symmetry_equiv_pos_as_xyz
  1  'x, y, z'
loop_
 _atom_site_type_symbol
 _atom_site_label
 _atom_site_symmetry_multiplicity
 _atom_site_fract_x
 _atom_site_fract_y
 _atom_site_fract_z
 _atom_site_occupancy
  V  V0  1  0.61129200  0.49008300  0.13690100  1
  V  V1  1  0.38870900  0.50991300  0.86310500  1
  V  V2  1  0.61115300  0.98997800  0.63695100  1
  V  V3  1  0.38884900  0.01001900  0.36304700  1
  Ni  Ni0  1  0.50000600  0.49998200  0.50004000  1
  Ni  Ni1  1  0.49997100  0.00007700  0.99995800  1
  Te  Te0  1  0.90594400  0.96881000  0.25069100  1
  Te  Te1  1  0.90593700  0.46891800  0.75062300  1
  Te  Te2  1  0.09405900  0.03118600  0.74930700  1
  Te  Te3  1  0.09406600  0.53107700  0.24937500  1
  O  O0  1  0.53012300  0.12708500  0.16720200  1
  O  O1  1  0.53011300  0.62696900  0.66728400  1
  O  O2  1  0.46987700  0.87290900  0.83279600  1
  O  O3  1  0.46989200  0.37303100  0.33272100  1
  O  O4  1  0.34618500  0.74211600  0.39561300  1
  O  O5  1  0.34591700  0.24202800  0.89561300  1
  O  O6  1  0.65381700  0.25788000  0.60438800  1
  O  O7  1  0.65408300  0.75796700  0.10438500  1
  O  O8  1  0.16646300  0.33474800  0.62825000  1
  O  O9  1  0.16645200  0.83461500  0.12834100  1
  O  O10  1  0.83353900  0.66524900  0.37175100  1
  O  O11  1  0.83354600  0.16538200  0.87165800  1
  O  O12  1  0.32460200  0.99017000  0.58484500  1
  O  O13  1  0.32461400  0.49019700  0.08484000  1
  O  O14  1  0.67540000  0.00982500  0.41515600  1
  O  O15  1  0.67538700  0.50979700  0.91515800  1
  O  O16  1  0.88436400  0.93319000  0.65485900  1
  O  O17  1  0.88441200  0.43310500  0.15487700  1
  O  O18  1  0.11563700  0.06680600  0.34514000  1
  O  O19  1  0.11559200  0.56688700  0.84512200  1
loop_
_geom_bond_atom_site_label_1
_geom_bond_atom_site_label_2
_geom_bond_distance
_geom_bond_site_symmetry_2
Ni0 O1 2.056445 1_555
Ni0 O3 2.056960 1_555
Ni0 O6 2.091004 1_555
Ni0 O4 2.091443 1_555
Ni0 O8 2.183231 1_555
Ni0 O10 2.183369 1_555
Ni1 O2 2.056484 1_545
Ni1 O0 2.056596 1_556
Ni1 O5 2.091353 1_555
Ni1 O7 2.092584 1_546
Ni1 O11 2.183659 1_555
Ni1 O9 2.183742 1_546
O0 V3 1.761139 1_555
O0 V0 2.326387 1_555
O1 V1 1.761148 1_555
O1 V2 2.326323 1_555
O2 V2 1.761143 1_555
O2 V1 2.326354 1_555
O3 V0 1.761133 1_555
O3 V3 2.326360 1_555
O4 V3 1.692134 1_565
O5 V1 1.692114 1_555
O6 V2 1.692133 1_545
O7 V0 1.692093 1_555
O8 Te2 1.929738 1_555
O8 Te1 2.268928 1_455
O9 Te3 1.929559 1_555
O9 Te0 2.268852 1_455
O10 Te0 1.929738 1_555
O10 Te3 2.268955 1_655
O11 Te1 1.929549 1_555
O11 Te2 2.268883 1_655
O12 V2 2.007147 1_555
O12 V3 2.021212 1_565
O12 Te2 2.024566 1_565
O13 V0 2.007731 1_555
O13 V1 2.020905 1_554
O13 Te3 2.024620 1_555
O14 V3 2.007160 1_555
O14 V2 2.021187 1_545
O14 Te0 2.024586 1_545
O15 V1 2.007698 1_555
O15 V0 2.020983 1_556
O15 Te1 2.024625 1_555
O16 V2 1.872173 1_555
O16 Te2 1.930148 1_665
O17 V0 1.872111 1_555
O17 Te3 1.930228 1_655
O18 V3 1.872175 1_555
O18 Te0 1.930145 1_445
O19 V1 1.872099 1_555
O19 Te1 1.930231 1_455
