# generated using pymatgen
data_Y(BH4)3
_symmetry_space_group_name_H-M   'P 1'
_cell_length_a   10.82883600
_cell_length_b   10.82883600
_cell_length_c   10.82883600
_cell_angle_alpha   90.00000000
_cell_angle_beta   90.00000000
_cell_angle_gamma   90.00000000
_symmetry_Int_Tables_number   1
_chemical_formula_structural   Y(BH4)3
_chemical_formula_sum   'Y8 B24 H96'
_cell_volume   1269.82925818
_cell_formula_units_Z   8
loop_
 _symmetry_equiv_pos_site_id
 _symmetry_equiv_pos_as_xyz
  1  'x, y, z'
loop_
 _atom_site_type_symbol
 _atom_site_label
 _atom_site_symmetry_multiplicity
 _atom_site_fract_x
 _atom_site_fract_y
 _atom_site_fract_z
 _atom_site_occupancy
  Y  Y0  1  0.78291055  0.71708945  0.28291055  1
  Y  Y1  1  0.71708945  0.21708945  0.28291055  1
  Y  Y2  1  0.28291055  0.71708945  0.21708945  1
  Y  Y3  1  0.21708945  0.21708945  0.21708945  1
  Y  Y4  1  0.21708945  0.28291055  0.71708945  1
  Y  Y5  1  0.28291055  0.78291055  0.71708945  1
  Y  Y6  1  0.78291055  0.78291055  0.78291055  1
  Y  Y7  1  0.71708945  0.28291055  0.78291055  1
  B  B0  1  0.25252447  0.03267274  0.69174249  1
  B  B1  1  0.24747553  0.96732726  0.19174249  1
  B  B2  1  0.25252447  0.46732726  0.19174249  1
  B  B3  1  0.46732726  0.30825751  0.75252447  1
  B  B4  1  0.80825751  0.74747553  0.53267274  1
  B  B5  1  0.03267274  0.80825751  0.75252447  1
  B  B6  1  0.74747553  0.96732726  0.30825751  1
  B  B7  1  0.03267274  0.69174249  0.25252447  1
  B  B8  1  0.75252447  0.46732726  0.30825751  1
  B  B9  1  0.96732726  0.30825751  0.74747553  1
  B  B10  1  0.24747553  0.53267274  0.69174249  1
  B  B11  1  0.53267274  0.80825751  0.74747553  1
  B  B12  1  0.69174249  0.24747553  0.53267274  1
  B  B13  1  0.96732726  0.19174249  0.24747553  1
  B  B14  1  0.19174249  0.25252447  0.46732726  1
  B  B15  1  0.74747553  0.53267274  0.80825751  1
  B  B16  1  0.19174249  0.24747553  0.96732726  1
  B  B17  1  0.53267274  0.69174249  0.24747553  1
  B  B18  1  0.30825751  0.74747553  0.96732726  1
  B  B19  1  0.30825751  0.75252447  0.46732726  1
  B  B20  1  0.69174249  0.25252447  0.03267274  1
  B  B21  1  0.46732726  0.19174249  0.25252447  1
  B  B22  1  0.80825751  0.75252447  0.03267274  1
  B  B23  1  0.75252447  0.03267274  0.80825751  1
  H  H0  1  0.27500583  0.53390998  0.10321739  1
  H  H1  1  0.33709373  0.10683789  0.70103368  1
  H  H2  1  0.91870030  0.32634738  0.84758656  1
  H  H3  1  0.32634738  0.84758656  0.91870030  1
  H  H4  1  0.82634738  0.65241344  0.08129970  1
  H  H5  1  0.74615350  0.52352644  0.21058922  1
  H  H6  1  0.08129970  0.67365262  0.15241344  1
  H  H7  1  0.72499417  0.46609002  0.89678261  1
  H  H8  1  0.72499417  0.03390998  0.39678261  1
  H  H9  1  0.16290627  0.89316211  0.20103368  1
  H  H10  1  0.91870030  0.17365262  0.34758656  1
  H  H11  1  0.70103368  0.16290627  0.60683789  1
  H  H12  1  0.67365262  0.15241344  0.08129970  1
  H  H13  1  0.08129970  0.82634738  0.65241344  1
  H  H14  1  0.41870030  0.32634738  0.65241344  1
  H  H15  1  0.24615350  0.52352644  0.28941078  1
  H  H16  1  0.28941078  0.25384650  0.02352644  1
  H  H17  1  0.10683789  0.70103368  0.33709373  1
  H  H18  1  0.34758656  0.58129970  0.67365262  1
  H  H19  1  0.78941078  0.24615350  0.97647356  1
  H  H20  1  0.28941078  0.24615350  0.52352644  1
  H  H21  1  0.89678261  0.72499417  0.46609002  1
  H  H22  1  0.39678261  0.72499417  0.03390998  1
  H  H23  1  0.79896632  0.83709373  0.10683789  1
  H  H24  1  0.60683789  0.79896632  0.66290627  1
  H  H25  1  0.75384650  0.02352644  0.21058922  1
  H  H26  1  0.47647356  0.78941078  0.25384650  1
  H  H27  1  0.52352644  0.28941078  0.24615350  1
  H  H28  1  0.15241344  0.08129970  0.67365262  1
  H  H29  1  0.16290627  0.60683789  0.70103368  1
  H  H30  1  0.24615350  0.97647356  0.78941078  1
  H  H31  1  0.15241344  0.41870030  0.17365262  1
  H  H32  1  0.53390998  0.39678261  0.77500583  1
  H  H33  1  0.20103368  0.33709373  0.39316211  1
  H  H34  1  0.25384650  0.47647356  0.78941078  1
  H  H35  1  0.70103368  0.33709373  0.10683789  1
  H  H36  1  0.65241344  0.08129970  0.82634738  1
  H  H37  1  0.83709373  0.10683789  0.79896632  1
  H  H38  1  0.96609002  0.89678261  0.77500583  1
  H  H39  1  0.32634738  0.65241344  0.41870030  1
  H  H40  1  0.77500583  0.53390998  0.39678261  1
  H  H41  1  0.75384650  0.47647356  0.71058922  1
  H  H42  1  0.52352644  0.21058922  0.74615350  1
  H  H43  1  0.58129970  0.67365262  0.34758656  1
  H  H44  1  0.66290627  0.89316211  0.29896632  1
  H  H45  1  0.25384650  0.02352644  0.28941078  1
  H  H46  1  0.53390998  0.10321739  0.27500583  1
  H  H47  1  0.46609002  0.89678261  0.72499417  1
  H  H48  1  0.60321739  0.27500583  0.96609002  1
  H  H49  1  0.71058922  0.74615350  0.97647356  1
  H  H50  1  0.89316211  0.20103368  0.16290627  1
  H  H51  1  0.22499417  0.46609002  0.60321739  1
  H  H52  1  0.66290627  0.60683789  0.79896632  1
  H  H53  1  0.03390998  0.10321739  0.22499417  1
  H  H54  1  0.10683789  0.79896632  0.83709373  1
  H  H55  1  0.84758656  0.91870030  0.32634738  1
  H  H56  1  0.60321739  0.22499417  0.46609002  1
  H  H57  1  0.10321739  0.22499417  0.03390998  1
  H  H58  1  0.77500583  0.96609002  0.89678261  1
  H  H59  1  0.71058922  0.75384650  0.47647356  1
  H  H60  1  0.84758656  0.58129970  0.82634738  1
  H  H61  1  0.39316211  0.20103368  0.33709373  1
  H  H62  1  0.79896632  0.66290627  0.60683789  1
  H  H63  1  0.41870030  0.17365262  0.15241344  1
  H  H64  1  0.96609002  0.60321739  0.27500583  1
  H  H65  1  0.02352644  0.28941078  0.25384650  1
  H  H66  1  0.02352644  0.21058922  0.75384650  1
  H  H67  1  0.20103368  0.16290627  0.89316211  1
  H  H68  1  0.39678261  0.77500583  0.53390998  1
  H  H69  1  0.97647356  0.78941078  0.24615350  1
  H  H70  1  0.74615350  0.97647356  0.71058922  1
  H  H71  1  0.65241344  0.41870030  0.32634738  1
  H  H72  1  0.58129970  0.82634738  0.84758656  1
  H  H73  1  0.29896632  0.66290627  0.89316211  1
  H  H74  1  0.10321739  0.27500583  0.53390998  1
  H  H75  1  0.29896632  0.83709373  0.39316211  1
  H  H76  1  0.82634738  0.84758656  0.58129970  1
  H  H77  1  0.78941078  0.25384650  0.47647356  1
  H  H78  1  0.46609002  0.60321739  0.22499417  1
  H  H79  1  0.21058922  0.75384650  0.02352644  1
  H  H80  1  0.97647356  0.71058922  0.74615350  1
  H  H81  1  0.60683789  0.70103368  0.16290627  1
  H  H82  1  0.22499417  0.03390998  0.10321739  1
  H  H83  1  0.21058922  0.74615350  0.52352644  1
  H  H84  1  0.34758656  0.91870030  0.17365262  1
  H  H85  1  0.39316211  0.29896632  0.83709373  1
  H  H86  1  0.89316211  0.29896632  0.66290627  1
  H  H87  1  0.47647356  0.71058922  0.75384650  1
  H  H88  1  0.27500583  0.96609002  0.60321739  1
  H  H89  1  0.83709373  0.39316211  0.29896632  1
  H  H90  1  0.17365262  0.34758656  0.91870030  1
  H  H91  1  0.67365262  0.34758656  0.58129970  1
  H  H92  1  0.89678261  0.77500583  0.96609002  1
  H  H93  1  0.17365262  0.15241344  0.41870030  1
  H  H94  1  0.33709373  0.39316211  0.20103368  1
  H  H95  1  0.03390998  0.39678261  0.72499417  1
loop_
_geom_bond_atom_site_label_1
_geom_bond_atom_site_label_2
_geom_bond_distance
_geom_bond_site_symmetry_2
B0 H28 1.221022 1_555
B0 H30 1.222174 1_545
B0 H1 1.222208 1_555
B0 H88 1.223963 1_545
B1 H84 1.221022 1_555
B1 H45 1.222174 1_565
B1 H9 1.222208 1_555
B1 H82 1.223963 1_565
B2 H31 1.221022 1_555
B2 H15 1.222174 1_555
B2 H94 1.222208 1_555
B2 H0 1.223963 1_555
B3 H14 1.221022 1_555
B3 H42 1.222174 1_555
B3 H85 1.222208 1_555
B3 H32 1.223963 1_555
B4 H76 1.221022 1_555
B4 H59 1.222174 1_555
B4 H62 1.222208 1_555
B4 H21 1.223963 1_555
B5 H13 1.221022 1_555
B5 H80 1.222174 1_455
B5 H54 1.222208 1_555
B5 H38 1.223963 1_455
B6 H55 1.221022 1_555
B6 H25 1.222174 1_565
B6 H44 1.222208 1_555
B6 H8 1.223963 1_565
B7 H6 1.221022 1_555
B7 H69 1.222174 1_455
B7 H17 1.222208 1_555
B7 H64 1.223963 1_455
B8 H71 1.221022 1_555
B8 H5 1.222174 1_555
B8 H89 1.222208 1_555
B8 H40 1.223963 1_555
B9 H2 1.221022 1_555
B9 H66 1.222174 1_655
B9 H86 1.222208 1_555
B9 H95 1.223963 1_655
B10 H18 1.221022 1_555
B10 H34 1.222174 1_555
B10 H29 1.222208 1_555
B10 H51 1.223963 1_555
B11 H72 1.221022 1_555
B11 H87 1.222174 1_555
B11 H24 1.222208 1_555
B11 H47 1.223963 1_555
B12 H91 1.221022 1_555
B12 H77 1.222174 1_555
B12 H11 1.222208 1_555
B12 H56 1.223963 1_555
B13 H10 1.221022 1_555
B13 H65 1.222174 1_655
B13 H50 1.222208 1_555
B13 H53 1.223963 1_655
B14 H93 1.221022 1_555
B14 H20 1.222174 1_555
B14 H33 1.222208 1_555
B14 H74 1.223963 1_555
B15 H60 1.221022 1_555
B15 H41 1.222174 1_555
B15 H52 1.222208 1_555
B15 H7 1.223963 1_555
B16 H90 1.221022 1_555
B16 H16 1.222174 1_556
B16 H67 1.222208 1_555
B16 H57 1.223963 1_556
B17 H43 1.221022 1_555
B17 H26 1.222174 1_555
B17 H81 1.222208 1_555
B17 H78 1.223963 1_555
B18 H3 1.221022 1_555
B18 H79 1.222174 1_556
B18 H73 1.222208 1_555
B18 H22 1.223963 1_556
B19 H39 1.221022 1_555
B19 H83 1.222174 1_555
B19 H75 1.222208 1_555
B19 H68 1.223963 1_555
B20 H12 1.221022 1_555
B20 H19 1.222174 1_554
B20 H35 1.222208 1_555
B20 H48 1.223963 1_554
B21 H63 1.221022 1_555
B21 H27 1.222174 1_555
B21 H61 1.222208 1_555
B21 H46 1.223963 1_555
B22 H4 1.221022 1_555
B22 H49 1.222174 1_554
B22 H23 1.222208 1_555
B22 H92 1.223963 1_554
B23 H36 1.221022 1_555
B23 H70 1.222174 1_545
B23 H37 1.222208 1_555
B23 H58 1.223963 1_545
H0 Y2 2.337224 1_555
H1 Y4 2.313937 1_555
H2 Y7 2.340549 1_555
H3 Y5 2.340549 1_555
H4 Y0 2.340549 1_555
H5 Y0 2.272717 1_555
H6 Y2 2.340549 1_555
H7 Y7 2.337224 1_555
H8 Y1 2.337224 1_555
H9 Y2 2.313937 1_555
H10 Y1 2.340549 1_555
H11 Y7 2.313937 1_555
H12 Y1 2.340549 1_555
H13 Y5 2.340549 1_555
H14 Y4 2.340549 1_555
H15 Y2 2.272717 1_555
H16 Y3 2.272717 1_555
H17 Y2 2.313937 1_555
H18 Y5 2.340549 1_555
H19 Y7 2.272717 1_555
H20 Y4 2.272717 1_555
H21 Y0 2.337224 1_555
H22 Y2 2.337224 1_555
H23 Y0 2.313937 1_555
H24 Y6 2.313937 1_555
H25 Y1 2.272717 1_555
H26 Y2 2.272717 1_555
H27 Y1 2.272717 1_555
H28 Y4 2.340549 1_555
H29 Y5 2.313937 1_555
H30 Y5 2.272717 1_555
H31 Y3 2.340549 1_555
H32 Y7 2.337224 1_555
H33 Y3 2.313937 1_555
H34 Y4 2.272717 1_555
H35 Y1 2.313937 1_555
H36 Y7 2.340549 1_555
H37 Y7 2.313937 1_555
H38 Y6 2.337224 1_555
H39 Y2 2.340549 1_555
H40 Y0 2.337224 1_555
H41 Y7 2.272717 1_555
H42 Y7 2.272717 1_555
H43 Y0 2.340549 1_555
H44 Y0 2.313937 1_555
H45 Y3 2.272717 1_555
H46 Y1 2.337224 1_555
H47 Y5 2.337224 1_555
H48 Y7 2.337224 1_555
H49 Y6 2.272717 1_555
H50 Y1 2.313937 1_555
H51 Y4 2.337224 1_555
H52 Y6 2.313937 1_555
H53 Y3 2.337224 1_555
H54 Y5 2.313937 1_555
H55 Y0 2.340549 1_555
H56 Y1 2.337224 1_555
H57 Y3 2.337224 1_555
H58 Y6 2.337224 1_555
H59 Y0 2.272717 1_555
H60 Y6 2.340549 1_555
H61 Y3 2.313937 1_555
H62 Y6 2.313937 1_555
H63 Y3 2.340549 1_555
H64 Y0 2.337224 1_555
H65 Y3 2.272717 1_555
H66 Y4 2.272717 1_555
H67 Y4 2.313937 1_555
H68 Y5 2.337224 1_555
H69 Y0 2.272717 1_555
H70 Y6 2.272717 1_555
H71 Y1 2.340549 1_555
H72 Y6 2.340549 1_555
H73 Y5 2.313937 1_555
H74 Y4 2.337224 1_555
H75 Y2 2.313937 1_555
H76 Y6 2.340549 1_555
H77 Y1 2.272717 1_555
H78 Y2 2.337224 1_555
H79 Y2 2.272717 1_555
H80 Y6 2.272717 1_555
H81 Y0 2.313937 1_555
H82 Y3 2.337224 1_555
H83 Y5 2.272717 1_555
H84 Y2 2.340549 1_555
H85 Y4 2.313937 1_555
H86 Y7 2.313937 1_555
H87 Y5 2.272717 1_555
H88 Y5 2.337224 1_555
H89 Y1 2.313937 1_555
H90 Y4 2.340549 1_555
H91 Y7 2.340549 1_555
H92 Y6 2.337224 1_555
H93 Y3 2.340549 1_555
H94 Y3 2.313937 1_555
H95 Y4 2.337224 1_555
