# generated using pymatgen
data_U3(Al3Ru)4
_symmetry_space_group_name_H-M   'P 1'
_cell_length_a   8.82943747
_cell_length_b   8.82943747
_cell_length_c   9.44189500
_cell_angle_alpha   90.00000000
_cell_angle_beta   90.00000000
_cell_angle_gamma   119.99999605
_symmetry_Int_Tables_number   1
_chemical_formula_structural   U3(Al3Ru)4
_chemical_formula_sum   'U6 Al24 Ru8'
_cell_volume   637.46432680
_cell_formula_units_Z   2
loop_
 _symmetry_equiv_pos_site_id
 _symmetry_equiv_pos_as_xyz
  1  'x, y, z'
loop_
 _atom_site_type_symbol
 _atom_site_label
 _atom_site_symmetry_multiplicity
 _atom_site_fract_x
 _atom_site_fract_y
 _atom_site_fract_z
 _atom_site_occupancy
  U  U0  1  0.40825100  0.20412600  0.75000000  1
  U  U1  1  0.79587400  0.20412600  0.75000000  1
  U  U2  1  0.20412600  0.40825100  0.25000000  1
  U  U3  1  0.59174900  0.79587400  0.25000000  1
  U  U4  1  0.79587400  0.59174900  0.75000000  1
  U  U5  1  0.20412600  0.79587400  0.25000000  1
  Al  Al0  1  0.67897100  0.83948600  0.91917700  1
  Al  Al1  1  0.83948600  0.67897100  0.41917700  1
  Al  Al2  1  0.16051400  0.83948600  0.91917700  1
  Al  Al3  1  0.43818200  0.87636300  0.75000000  1
  Al  Al4  1  0.43818200  0.56181800  0.75000000  1
  Al  Al5  1  0.32102900  0.16051400  0.08082300  1
  Al  Al6  1  0.66666700  0.33333300  0.51200100  1
  Al  Al7  1  0.16051400  0.32102900  0.91917700  1
  Al  Al8  1  0.83948600  0.67897100  0.08082300  1
  Al  Al9  1  0.12363700  0.56181800  0.75000000  1
  Al  Al10  1  0.83948600  0.16051400  0.08082300  1
  Al  Al11  1  0.87636300  0.43818200  0.25000000  1
  Al  Al12  1  0.32102900  0.16051400  0.41917700  1
  Al  Al13  1  0.00000000  0.00000000  0.25000000  1
  Al  Al14  1  0.00000000  0.00000000  0.75000000  1
  Al  Al15  1  0.56181800  0.12363700  0.25000000  1
  Al  Al16  1  0.83948600  0.16051400  0.41917700  1
  Al  Al17  1  0.16051400  0.32102900  0.58082300  1
  Al  Al18  1  0.66666700  0.33333300  0.98799900  1
  Al  Al19  1  0.33333300  0.66666700  0.01200100  1
  Al  Al20  1  0.16051400  0.83948600  0.58082300  1
  Al  Al21  1  0.56181800  0.43818200  0.25000000  1
  Al  Al22  1  0.33333300  0.66666700  0.48799900  1
  Al  Al23  1  0.67897100  0.83948600  0.58082300  1
  Ru  Ru0  1  0.00000000  0.00000000  0.00000000  1
  Ru  Ru1  1  0.50000000  0.50000000  0.50000000  1
  Ru  Ru2  1  0.50000000  0.50000000  0.00000000  1
  Ru  Ru3  1  0.00000000  0.00000000  0.50000000  1
  Ru  Ru4  1  0.00000000  0.50000000  0.50000000  1
  Ru  Ru5  1  0.50000000  0.00000000  0.50000000  1
  Ru  Ru6  1  0.50000000  0.00000000  0.00000000  1
  Ru  Ru7  1  0.00000000  0.50000000  0.00000000  1
loop_
_geom_bond_atom_site_label_1
_geom_bond_atom_site_label_2
_geom_bond_distance
_geom_bond_site_symmetry_2
Al0 Ru0 2.570637 1_666
Al0 Ru6 2.706950 1_566
Al0 Ru2 2.706957 1_556
Al0 U3 3.194005 1_556
Al0 U4 3.264866 1_555
Al0 U1 3.264866 1_565
Al1 Ru3 2.570637 1_665
Al1 Ru4 2.706950 1_655
Al1 Ru1 2.706957 1_555
Al1 U4 3.194005 1_555
Al1 U3 3.264866 1_555
Al1 U5 3.264866 1_655
Al2 Ru0 2.570629 1_566
Al2 Ru7 2.706957 1_556
Al2 Ru6 2.706957 1_566
Al2 U5 3.194008 1_556
Al2 U4 3.264866 1_455
Al2 U0 3.264866 1_565
Al3 Ru5 2.542755 1_565
Al3 Ru6 2.542755 1_566
Al3 U1 3.034733 1_565
Al3 U0 3.034742 1_565
Al4 Ru1 2.542752 1_555
Al4 Ru2 2.542752 1_556
Al4 U0 3.034725 1_555
Al4 U4 3.034725 1_555
Al5 Ru0 2.570637 1_555
Al5 Ru6 2.706950 1_555
Al5 Ru2 2.706957 1_555
Al5 U0 3.194005 1_554
Al5 U2 3.264866 1_555
Al5 U5 3.264866 1_545
Al6 Ru5 2.551354 1_555
Al6 Ru4 2.551354 1_655
Al6 Ru1 2.551362 1_555
Al6 U1 2.992354 1_555
Al6 U4 2.992364 1_555
Al6 U0 2.992364 1_555
Al7 Ru0 2.570637 1_556
Al7 Ru7 2.706950 1_556
Al7 Ru2 2.706957 1_556
Al7 U2 3.194005 1_556
Al7 U0 3.264866 1_555
Al7 U1 3.264866 1_455
Al8 Ru0 2.570637 1_665
Al8 Ru7 2.706950 1_655
Al8 Ru2 2.706957 1_555
Al8 U4 3.194005 1_554
Al8 U3 3.264866 1_555
Al8 U5 3.264866 1_655
Al9 Ru4 2.542755 1_555
Al9 Ru7 2.542755 1_556
Al9 U1 3.034733 1_455
Al9 U4 3.034742 1_455
Al10 Ru0 2.570629 1_655
Al10 Ru6 2.706957 1_555
Al10 Ru7 2.706957 1_655
Al10 U1 3.194008 1_554
Al10 U3 3.264866 1_545
Al10 U2 3.264866 1_655
Al11 Ru4 2.542755 1_655
Al11 Ru7 2.542755 1_655
Al11 U5 3.034733 1_655
Al11 U2 3.034742 1_655
Al12 Ru3 2.570637 1_555
Al12 Ru5 2.706950 1_555
Al12 Ru1 2.706957 1_555
Al12 U0 3.194005 1_555
Al12 U2 3.264866 1_555
Al12 U5 3.264866 1_545
Al13 Ru0 2.360474 1_555
Al13 Ru3 2.360474 1_555
Al13 U2 3.121698 1_555
Al13 U3 3.121698 1_445
Al13 U5 3.121706 1_545
Al14 Ru3 2.360474 1_555
Al14 Ru0 2.360474 1_556
Al14 U0 3.121698 1_555
Al14 U4 3.121698 1_445
Al14 U1 3.121706 1_455
Al15 Ru5 2.542755 1_555
Al15 Ru6 2.542755 1_555
Al15 U5 3.034733 1_545
Al15 U3 3.034742 1_545
Al16 Ru3 2.570629 1_655
Al16 Ru5 2.706957 1_555
Al16 Ru4 2.706957 1_655
Al16 U1 3.194008 1_555
Al16 U2 3.264866 1_655
Al16 U3 3.264866 1_545
Al17 Ru3 2.570637 1_555
Al17 Ru4 2.706950 1_555
Al17 Ru1 2.706957 1_555
Al17 U2 3.194005 1_555
Al17 U0 3.264866 1_555
Al17 U1 3.264866 1_455
Al18 Ru7 2.551354 1_656
Al18 Ru6 2.551354 1_556
Al18 Ru2 2.551362 1_556
Al18 U1 2.992354 1_555
Al18 U4 2.992364 1_555
Al18 U0 2.992364 1_555
Al19 Ru7 2.551354 1_555
Al19 Ru6 2.551354 1_565
Al19 Ru2 2.551362 1_555
Al19 U5 2.992354 1_555
Al19 U2 2.992364 1_555
Al19 U3 2.992364 1_555
Al20 Ru3 2.570629 1_565
Al20 Ru4 2.706957 1_555
Al20 Ru5 2.706957 1_565
Al20 U5 3.194008 1_555
Al20 U4 3.264866 1_455
Al20 U0 3.264866 1_565
Al21 Ru1 2.542752 1_555
Al21 Ru2 2.542752 1_555
Al21 U2 3.034725 1_555
Al21 U3 3.034725 1_555
Al22 Ru5 2.551354 1_565
Al22 Ru4 2.551354 1_555
Al22 Ru1 2.551362 1_555
Al22 U5 2.992354 1_555
Al22 U3 2.992364 1_555
Al22 U2 2.992364 1_555
Al23 Ru3 2.570637 1_665
Al23 Ru5 2.706950 1_565
Al23 Ru1 2.706957 1_555
Al23 U3 3.194005 1_555
Al23 U4 3.264866 1_555
Al23 U1 3.264866 1_565
Ru1 U0 3.307029 1_555
Ru1 U3 3.307029 1_555
Ru1 U4 3.307029 1_555
Ru1 U2 3.307029 1_555
Ru2 U4 3.307029 1_554
Ru2 U0 3.307029 1_554
Ru2 U3 3.307029 1_555
Ru2 U2 3.307029 1_555
Ru4 U5 3.307030 1_555
Ru4 U1 3.307030 1_455
Ru4 U2 3.307035 1_555
Ru4 U4 3.307035 1_455
Ru5 U1 3.307030 1_555
Ru5 U5 3.307030 1_545
Ru5 U0 3.307035 1_555
Ru5 U3 3.307035 1_545
Ru6 U1 3.307030 1_554
Ru6 U5 3.307030 1_545
Ru6 U0 3.307035 1_554
Ru6 U3 3.307035 1_545
Ru7 U5 3.307030 1_555
Ru7 U1 3.307030 1_454
Ru7 U2 3.307035 1_555
Ru7 U4 3.307035 1_454
