# generated using pymatgen
data_V6Ga5
_symmetry_space_group_name_H-M   'P 1'
_cell_length_a   8.41740908
_cell_length_b   8.41741023
_cell_length_c   5.08914044
_cell_angle_alpha   90.00000000
_cell_angle_beta   90.00000000
_cell_angle_gamma   120.00000349
_symmetry_Int_Tables_number   1
_chemical_formula_structural   V6Ga5
_chemical_formula_sum   'V12 Ga10'
_cell_volume   312.27123414
_cell_formula_units_Z   2
loop_
 _symmetry_equiv_pos_site_id
 _symmetry_equiv_pos_as_xyz
  1  'x, y, z'
loop_
 _atom_site_type_symbol
 _atom_site_label
 _atom_site_symmetry_multiplicity
 _atom_site_fract_x
 _atom_site_fract_y
 _atom_site_fract_z
 _atom_site_occupancy
  V  V0  1  0.68715533  0.84357767  0.25000000  1
  V  V1  1  0.84357767  0.15642333  0.75000000  1
  V  V2  1  0.50000000  -0.00000000  0.00000000  1
  V  V3  1  0.15642333  0.84357767  0.25000000  1
  V  V4  1  0.84357767  0.68715533  0.75000000  1
  V  V5  1  0.31284467  0.15642333  0.75000000  1
  V  V6  1  -0.00000000  0.50000000  0.00000000  1
  V  V7  1  0.50000000  -0.00000000  0.50000000  1
  V  V8  1  0.15642333  0.31284467  0.25000000  1
  V  V9  1  0.50000000  0.50000000  -0.00000000  1
  V  V10  1  -0.00000000  0.50000000  0.50000000  1
  V  V11  1  0.50000000  0.50000000  0.50000000  1
  Ga  Ga0  1  -0.00000000  -0.00000000  -0.00000000  1
  Ga  Ga1  1  0.79670155  0.20329845  0.25000000  1
  Ga  Ga2  1  0.20329845  0.40659890  0.75000000  1
  Ga  Ga3  1  0.59340110  0.79670155  0.75000000  1
  Ga  Ga4  1  0.79670155  0.59340110  0.25000000  1
  Ga  Ga5  1  -0.00000000  -0.00000000  0.50000000  1
  Ga  Ga6  1  0.40659890  0.20329845  0.25000000  1
  Ga  Ga7  1  0.20329845  0.79670155  0.75000000  1
  Ga  Ga8  1  0.66666700  0.33333300  0.75000000  1
  Ga  Ga9  1  0.33333300  0.66666700  0.25000000  1
loop_
_geom_bond_atom_site_label_1
_geom_bond_atom_site_label_2
_geom_bond_distance
_geom_bond_site_symmetry_2
V0 V7 2.812176 1_565
V0 V2 2.812176 1_565
V0 V9 2.812176 1_555
V0 V11 2.812176 1_555
V1 V6 2.812170 1_656
V1 V10 2.812170 1_655
V1 V7 2.812176 1_555
V1 V2 2.812176 1_556
V2 V7 2.544570 1_554
V2 V7 2.544570 1_555
V2 V3 2.812169 1_545
V2 V5 2.812183 1_554
V3 V7 2.812169 1_565
V3 V6 2.812176 1_555
V4 V9 2.812176 1_556
V4 V6 2.812176 1_656
V5 V9 2.812170 1_556
V5 V7 2.812183 1_555
V6 V8 2.812183 1_555
V8 V9 2.812170 1_555
V10 V6 2.544570 1_556
V10 V6 2.544570 1_555
V10 V3 2.812176 1_555
V10 V4 2.812176 1_455
V10 V8 2.812183 1_555
V11 V9 2.544570 1_555
V11 V9 2.544570 1_556
V11 V8 2.812170 1_555
V11 V5 2.812170 1_555
V11 V4 2.812176 1_555
Ga0 Ga5 2.544570 1_555
Ga0 Ga5 2.544570 1_554
Ga0 V0 2.611432 1_445
Ga0 V5 2.611432 1_554
Ga0 V4 2.611432 1_444
Ga0 V8 2.611432 1_555
Ga0 V3 2.611438 1_545
Ga0 V1 2.611438 1_454
Ga1 V7 2.551589 1_555
Ga1 V2 2.551589 1_555
Ga1 V6 2.551589 1_655
Ga1 V10 2.551589 1_655
Ga1 V1 2.634748 1_554
Ga1 V1 2.634748 1_555
Ga1 V0 2.688218 1_545
Ga1 V8 2.688225 1_655
Ga2 V10 2.551578 1_555
Ga2 V6 2.551578 1_556
Ga2 V9 2.551592 1_556
Ga2 V11 2.551592 1_555
Ga2 V8 2.634754 1_556
Ga2 V8 2.634754 1_555
Ga2 V1 2.688219 1_455
Ga2 V5 2.688226 1_555
Ga3 V7 2.551578 1_565
Ga3 V2 2.551578 1_566
Ga3 V9 2.551592 1_556
Ga3 V11 2.551592 1_555
Ga3 V0 2.634754 1_556
Ga3 V0 2.634754 1_555
Ga3 V1 2.688227 1_565
Ga3 V4 2.688234 1_555
Ga4 V6 2.551578 1_655
Ga4 V10 2.551578 1_655
Ga4 V11 2.551592 1_555
Ga4 V9 2.551592 1_555
Ga4 V4 2.634754 1_555
Ga4 V4 2.634754 1_554
Ga4 V3 2.688227 1_655
Ga4 V0 2.688234 1_555
Ga5 V0 2.611432 1_445
Ga5 V5 2.611432 1_555
Ga5 V4 2.611432 1_445
Ga5 V8 2.611432 1_555
Ga5 V3 2.611438 1_545
Ga5 V1 2.611438 1_455
Ga6 V2 2.551578 1_555
Ga6 V7 2.551578 1_555
Ga6 V11 2.551592 1_555
Ga6 V9 2.551592 1_555
Ga6 V5 2.634754 1_555
Ga6 V5 2.634754 1_554
Ga6 V3 2.688219 1_545
Ga6 V8 2.688226 1_555
Ga7 V7 2.551589 1_565
Ga7 V2 2.551589 1_566
Ga7 V6 2.551589 1_556
Ga7 V10 2.551589 1_555
Ga7 V3 2.634748 1_555
Ga7 V3 2.634748 1_556
Ga7 V4 2.688217 1_455
Ga7 V5 2.688226 1_565
Ga8 V1 2.579241 1_555
Ga8 V5 2.579255 1_555
Ga8 V4 2.579255 1_555
Ga8 V10 2.742826 1_655
Ga8 V6 2.742826 1_656
Ga8 V7 2.742826 1_555
Ga8 V2 2.742826 1_556
Ga8 V11 2.742833 1_555
Ga8 V9 2.742833 1_556
Ga9 V3 2.579241 1_555
Ga9 V0 2.579255 1_555
Ga9 V8 2.579255 1_555
Ga9 V6 2.742826 1_555
Ga9 V10 2.742826 1_555
Ga9 V2 2.742826 1_565
Ga9 V7 2.742826 1_565
Ga9 V11 2.742833 1_555
Ga9 V9 2.742833 1_555
