# generated using pymatgen
data_Cr3C2
_symmetry_space_group_name_H-M   'P 1'
_cell_length_a   2.81054521
_cell_length_b   4.80163199
_cell_length_c   6.84213668
_cell_angle_alpha   90.00000000
_cell_angle_beta   90.00000000
_cell_angle_gamma   107.01761047
_symmetry_Int_Tables_number   1
_chemical_formula_structural   Cr3C2
_chemical_formula_sum   'Cr6 C4'
_cell_volume   88.29308173
_cell_formula_units_Z   2
loop_
 _symmetry_equiv_pos_site_id
 _symmetry_equiv_pos_as_xyz
  1  'x, y, z'
loop_
 _atom_site_type_symbol
 _atom_site_label
 _atom_site_symmetry_multiplicity
 _atom_site_fract_x
 _atom_site_fract_y
 _atom_site_fract_z
 _atom_site_occupancy
  Cr  Cr0  1  0.40083045  0.80166290  0.75000000  1
  Cr  Cr1  1  0.14312833  0.28625666  0.92950338  1
  Cr  Cr2  1  0.59916955  0.19833710  0.25000000  1
  Cr  Cr3  1  0.85687167  0.71374334  0.07049662  1
  Cr  Cr4  1  0.14312833  0.28625666  0.57049662  1
  Cr  Cr5  1  0.85687167  0.71374334  0.42950338  1
  C  C0  1  0.75583405  0.51166810  0.75000000  1
  C  C1  1  0.24416595  0.48833190  0.25000000  1
  C  C2  1  0.50000000  -0.00000000  0.00000000  1
  C  C3  1  0.50000000  -0.00000000  0.50000000  1
loop_
_geom_bond_atom_site_label_1
_geom_bond_atom_site_label_2
_geom_bond_distance
_geom_bond_site_symmetry_2
C0 Cr0 1.935877 1_655
C0 Cr0 1.935882 1_555
C0 Cr1 2.134095 1_555
C0 Cr4 2.134095 1_555
C0 Cr1 2.134095 1_655
C0 Cr4 2.134095 1_655
C0 Cr3 2.381083 1_556
C0 Cr5 2.381083 1_555
C1 Cr2 1.935877 1_455
C1 Cr2 1.935882 1_555
C1 Cr3 2.134095 1_555
C1 Cr5 2.134095 1_555
C1 Cr5 2.134095 1_455
C1 Cr3 2.134095 1_455
C1 Cr4 2.381083 1_555
C1 Cr1 2.381083 1_554
C2 Cr0 1.937833 1_544
C2 Cr2 1.937833 1_555
C2 Cr1 1.983653 1_654
C2 Cr3 1.983653 1_445
C2 Cr3 1.983653 1_545
C2 Cr1 1.983653 1_554
C3 Cr0 1.937833 1_545
C3 Cr2 1.937833 1_555
C3 Cr4 1.983653 1_655
C3 Cr5 1.983653 1_445
C3 Cr5 1.983653 1_545
C3 Cr4 1.983653 1_555
