# generated using pymatgen
data_Pu3Co
_symmetry_space_group_name_H-M   'P 1'
_cell_length_a   11.63607043
_cell_length_b   11.63607043
_cell_length_c   18.05266600
_cell_angle_alpha   90.00000000
_cell_angle_beta   90.00000000
_cell_angle_gamma   145.98681582
_symmetry_Int_Tables_number   1
_chemical_formula_structural   Pu3Co
_chemical_formula_sum   'Pu48 Co16'
_cell_volume   1367.29996585
_cell_formula_units_Z   16
loop_
 _symmetry_equiv_pos_site_id
 _symmetry_equiv_pos_as_xyz
  1  'x, y, z'
loop_
 _atom_site_type_symbol
 _atom_site_label
 _atom_site_symmetry_multiplicity
 _atom_site_fract_x
 _atom_site_fract_y
 _atom_site_fract_z
 _atom_site_occupancy
  Pu  Pu0_0  1  0.46128100  0.03871900  0.12500000  1
  Pu  Pu0_1  1  0.46128100  0.03871900  0.62500000  1
  Pu  Pu0_2  1  0.46128100  0.53871900  0.12500000  1
  Pu  Pu0_3  1  0.46128100  0.53871900  0.62500000  1
  Pu  Pu0_4  1  0.96128100  0.03871900  0.12500000  1
  Pu  Pu0_5  1  0.96128100  0.03871900  0.62500000  1
  Pu  Pu0_6  1  0.96128100  0.53871900  0.12500000  1
  Pu  Pu0_7  1  0.96128100  0.53871900  0.62500000  1
  Pu  Pu1_0  1  0.03871900  0.46128100  0.37500000  1
  Pu  Pu1_1  1  0.03871900  0.46128100  0.87500000  1
  Pu  Pu1_2  1  0.03871900  0.96128100  0.37500000  1
  Pu  Pu1_3  1  0.03871900  0.96128100  0.87500000  1
  Pu  Pu1_4  1  0.53871900  0.46128100  0.37500000  1
  Pu  Pu1_5  1  0.53871900  0.46128100  0.87500000  1
  Pu  Pu1_6  1  0.53871900  0.96128100  0.37500000  1
  Pu  Pu1_7  1  0.53871900  0.96128100  0.87500000  1
  Pu  Pu2_0  1  0.31645250  0.18354750  0.02720700  1
  Pu  Pu2_1  1  0.31645250  0.18354750  0.52720700  1
  Pu  Pu2_2  1  0.31645250  0.68354750  0.02720700  1
  Pu  Pu2_3  1  0.31645250  0.68354750  0.52720700  1
  Pu  Pu2_4  1  0.81645250  0.18354750  0.02720700  1
  Pu  Pu2_5  1  0.81645250  0.18354750  0.52720700  1
  Pu  Pu2_6  1  0.81645250  0.68354750  0.02720700  1
  Pu  Pu2_7  1  0.81645250  0.68354750  0.52720700  1
  Pu  Pu3_0  1  0.18354750  0.31645250  0.47279300  1
  Pu  Pu3_1  1  0.18354750  0.31645250  0.97279300  1
  Pu  Pu3_2  1  0.18354750  0.81645250  0.47279300  1
  Pu  Pu3_3  1  0.18354750  0.81645250  0.97279300  1
  Pu  Pu3_4  1  0.68354750  0.31645250  0.47279300  1
  Pu  Pu3_5  1  0.68354750  0.31645250  0.97279300  1
  Pu  Pu3_6  1  0.68354750  0.81645250  0.47279300  1
  Pu  Pu3_7  1  0.68354750  0.81645250  0.97279300  1
  Pu  Pu4_0  1  0.18354750  0.31645250  0.27720700  1
  Pu  Pu4_1  1  0.18354750  0.31645250  0.77720700  1
  Pu  Pu4_2  1  0.18354750  0.81645250  0.27720700  1
  Pu  Pu4_3  1  0.18354750  0.81645250  0.77720700  1
  Pu  Pu4_4  1  0.68354750  0.31645250  0.27720700  1
  Pu  Pu4_5  1  0.68354750  0.31645250  0.77720700  1
  Pu  Pu4_6  1  0.68354750  0.81645250  0.27720700  1
  Pu  Pu4_7  1  0.68354750  0.81645250  0.77720700  1
  Pu  Pu5_0  1  0.31645250  0.18354750  0.22279300  1
  Pu  Pu5_1  1  0.31645250  0.18354750  0.72279300  1
  Pu  Pu5_2  1  0.31645250  0.68354750  0.22279300  1
  Pu  Pu5_3  1  0.31645250  0.68354750  0.72279300  1
  Pu  Pu5_4  1  0.81645250  0.18354750  0.22279300  1
  Pu  Pu5_5  1  0.81645250  0.18354750  0.72279300  1
  Pu  Pu5_6  1  0.81645250  0.68354750  0.22279300  1
  Pu  Pu5_7  1  0.81645250  0.68354750  0.72279300  1
  Co  Co0_0  1  0.11048200  0.38951800  0.12500000  1
  Co  Co0_1  1  0.11048200  0.38951800  0.62500000  1
  Co  Co0_2  1  0.11048200  0.88951800  0.12500000  1
  Co  Co0_3  1  0.11048200  0.88951800  0.62500000  1
  Co  Co0_4  1  0.61048200  0.38951800  0.12500000  1
  Co  Co0_5  1  0.61048200  0.38951800  0.62500000  1
  Co  Co0_6  1  0.61048200  0.88951800  0.12500000  1
  Co  Co0_7  1  0.61048200  0.88951800  0.62500000  1
  Co  Co1_0  1  0.38951800  0.11048200  0.37500000  1
  Co  Co1_1  1  0.38951800  0.11048200  0.87500000  1
  Co  Co1_2  1  0.38951800  0.61048200  0.37500000  1
  Co  Co1_3  1  0.38951800  0.61048200  0.87500000  1
  Co  Co1_4  1  0.88951800  0.11048200  0.37500000  1
  Co  Co1_5  1  0.88951800  0.11048200  0.87500000  1
  Co  Co1_6  1  0.88951800  0.61048200  0.37500000  1
  Co  Co1_7  1  0.88951800  0.61048200  0.87500000  1
loop_
_geom_bond_atom_site_label_1
_geom_bond_atom_site_label_2
_geom_bond_distance
_geom_bond_site_symmetry_2
Pu0_0 Pu4_2 3.290394 1_545
Pu0_0 Pu4_4 3.290394 1_555
Pu0_0 Pu3_3 3.290394 1_544
Pu0_0 Pu3_5 3.290394 1_554
Pu0_0 Pu5_4 3.389766 1_555
Pu0_0 Pu2_2 3.389766 1_545
Pu0_0 Pu5_2 3.389766 1_545
Pu0_0 Pu2_4 3.389766 1_555
Pu0_0 Pu0_6 3.403338 1_555
Pu0_0 Pu0_6 3.403338 1_445
Pu0_1 Pu4_5 3.290394 1_555
Pu0_1 Pu4_3 3.290394 1_545
Pu0_1 Pu3_4 3.290394 1_555
Pu0_1 Pu3_2 3.290394 1_545
Pu0_1 Pu5_5 3.389766 1_555
Pu0_1 Pu5_3 3.389766 1_545
Pu0_1 Pu2_5 3.389766 1_555
Pu0_1 Pu2_3 3.389766 1_545
Pu0_1 Pu0_7 3.403338 1_555
Pu0_1 Pu0_7 3.403338 1_445
Pu0_2 Pu4_6 3.290394 1_555
Pu0_2 Pu4_0 3.290394 1_555
Pu0_2 Pu3_7 3.290394 1_554
Pu0_2 Pu3_1 3.290394 1_554
Pu0_2 Pu5_0 3.389766 1_555
Pu0_2 Pu5_6 3.389766 1_555
Pu0_2 Pu2_0 3.389766 1_555
Pu0_2 Pu2_6 3.389766 1_555
Pu0_2 Pu0_4 3.403338 1_565
Pu0_2 Pu0_4 3.403338 1_455
Pu0_3 Pu4_7 3.290394 1_555
Pu0_3 Pu4_1 3.290394 1_555
Pu0_3 Pu3_6 3.290394 1_555
Pu0_3 Pu3_0 3.290394 1_555
Pu0_3 Pu5_1 3.389766 1_555
Pu0_3 Pu2_1 3.389766 1_555
Pu0_3 Pu5_7 3.389766 1_555
Pu0_3 Pu2_7 3.389766 1_555
Pu0_3 Pu0_5 3.403338 1_565
Pu0_3 Pu0_5 3.403338 1_455
Pu0_4 Pu4_6 3.290394 1_545
Pu0_4 Pu4_0 3.290394 1_655
Pu0_4 Pu3_7 3.290394 1_544
Pu0_4 Pu3_1 3.290394 1_654
Pu0_4 Pu2_0 3.389766 1_655
Pu0_4 Pu5_6 3.389766 1_545
Pu0_4 Pu5_0 3.389766 1_655
Pu0_4 Pu2_6 3.389766 1_545
Pu0_5 Pu4_1 3.290394 1_655
Pu0_5 Pu4_7 3.290394 1_545
Pu0_5 Pu3_0 3.290394 1_655
Pu0_5 Pu3_6 3.290394 1_545
Pu0_5 Pu5_1 3.389766 1_655
Pu0_5 Pu2_1 3.389766 1_655
Pu0_5 Pu2_7 3.389766 1_545
Pu0_5 Pu5_7 3.389766 1_545
Pu0_6 Pu4_4 3.290394 1_555
Pu0_6 Pu4_2 3.290394 1_655
Pu0_6 Pu3_5 3.290394 1_554
Pu0_6 Pu3_3 3.290394 1_654
Pu0_6 Pu5_4 3.389766 1_555
Pu0_6 Pu2_4 3.389766 1_555
Pu0_6 Pu5_2 3.389766 1_655
Pu0_6 Pu2_2 3.389766 1_655
Pu0_7 Pu4_3 3.290394 1_655
Pu0_7 Pu4_5 3.290394 1_555
Pu0_7 Pu3_4 3.290394 1_555
Pu0_7 Pu3_2 3.290394 1_655
Pu0_7 Pu2_5 3.389766 1_555
Pu0_7 Pu5_5 3.389766 1_555
Pu0_7 Pu2_3 3.389766 1_655
Pu0_7 Pu5_3 3.389766 1_655
Pu1_0 Pu5_4 3.290394 1_455
Pu1_0 Pu5_2 3.290394 1_555
Pu1_0 Pu2_3 3.290394 1_555
Pu1_0 Pu2_5 3.290394 1_455
Pu1_0 Pu3_2 3.389766 1_555
Pu1_0 Pu3_4 3.389766 1_455
Pu1_0 Pu4_2 3.389766 1_555
Pu1_0 Pu4_4 3.389766 1_455
Pu1_0 Pu1_6 3.403338 1_555
Pu1_0 Pu1_6 3.403338 1_445
Pu1_1 Pu2_4 3.290394 1_456
Pu1_1 Pu5_5 3.290394 1_455
Pu1_1 Pu5_3 3.290394 1_555
Pu1_1 Pu2_2 3.290394 1_556
Pu1_1 Pu3_3 3.389766 1_555
Pu1_1 Pu3_5 3.389766 1_455
Pu1_1 Pu4_3 3.389766 1_555
Pu1_1 Pu4_5 3.389766 1_455
Pu1_1 Pu1_7 3.403338 1_555
Pu1_1 Pu1_7 3.403338 1_445
Pu1_2 Pu5_0 3.290394 1_565
Pu1_2 Pu5_6 3.290394 1_455
Pu1_2 Pu2_7 3.290394 1_455
Pu1_2 Pu2_1 3.290394 1_565
Pu1_2 Pu3_6 3.389766 1_455
Pu1_2 Pu3_0 3.389766 1_565
Pu1_2 Pu4_6 3.389766 1_455
Pu1_2 Pu4_0 3.389766 1_565
Pu1_2 Pu1_4 3.403338 1_455
Pu1_2 Pu1_4 3.403338 1_565
Pu1_3 Pu2_6 3.290394 1_456
Pu1_3 Pu2_0 3.290394 1_566
Pu1_3 Pu5_7 3.290394 1_455
Pu1_3 Pu5_1 3.290394 1_565
Pu1_3 Pu3_7 3.389766 1_455
Pu1_3 Pu3_1 3.389766 1_565
Pu1_3 Pu4_7 3.389766 1_455
Pu1_3 Pu4_1 3.389766 1_565
Pu1_3 Pu1_5 3.403338 1_455
Pu1_3 Pu1_5 3.403338 1_565
Pu1_4 Pu5_6 3.290394 1_555
Pu1_4 Pu5_0 3.290394 1_555
Pu1_4 Pu2_7 3.290394 1_555
Pu1_4 Pu2_1 3.290394 1_555
Pu1_4 Pu3_0 3.389766 1_555
Pu1_4 Pu3_6 3.389766 1_555
Pu1_4 Pu4_0 3.389766 1_555
Pu1_4 Pu4_6 3.389766 1_555
Pu1_5 Pu2_0 3.290394 1_556
Pu1_5 Pu5_1 3.290394 1_555
Pu1_5 Pu5_7 3.290394 1_555
Pu1_5 Pu2_6 3.290394 1_556
Pu1_5 Pu3_1 3.389766 1_555
Pu1_5 Pu3_7 3.389766 1_555
Pu1_5 Pu4_1 3.389766 1_555
Pu1_5 Pu4_7 3.389766 1_555
Pu1_6 Pu5_2 3.290394 1_555
Pu1_6 Pu5_4 3.290394 1_565
Pu1_6 Pu2_3 3.290394 1_555
Pu1_6 Pu2_5 3.290394 1_565
Pu1_6 Pu3_2 3.389766 1_555
Pu1_6 Pu3_4 3.389766 1_565
Pu1_6 Pu4_2 3.389766 1_555
Pu1_6 Pu4_4 3.389766 1_565
Pu1_7 Pu5_3 3.290394 1_555
Pu1_7 Pu2_2 3.290394 1_556
Pu1_7 Pu5_5 3.290394 1_565
Pu1_7 Pu2_4 3.290394 1_566
Pu1_7 Pu3_3 3.389766 1_555
Pu1_7 Pu3_5 3.389766 1_565
Pu1_7 Pu4_3 3.389766 1_555
Pu1_7 Pu4_5 3.389766 1_565
Co0_0 Pu5_2 2.640552 1_555
Co0_0 Pu2_2 2.640552 1_555
Co0_0 Pu5_4 2.640552 1_455
Co0_0 Pu2_4 2.640552 1_455
Co0_0 Pu0_2 2.815627 1_555
Co0_0 Pu0_4 2.815627 1_455
Co0_0 Pu0_6 3.320390 1_455
Co0_1 Pu2_3 2.640552 1_555
Co0_1 Pu5_3 2.640552 1_555
Co0_1 Pu5_5 2.640552 1_455
Co0_1 Pu2_5 2.640552 1_455
Co0_1 Pu0_3 2.815627 1_555
Co0_1 Pu0_5 2.815627 1_455
Co0_1 Pu0_7 3.320390 1_455
Co0_2 Pu5_0 2.640552 1_565
Co0_2 Pu2_0 2.640552 1_565
Co0_2 Pu5_6 2.640552 1_455
Co0_2 Pu2_6 2.640552 1_455
Co0_2 Pu0_0 2.815627 1_565
Co0_2 Pu0_6 2.815627 1_455
Co0_2 Pu0_4 3.320390 1_465
Co0_3 Pu2_1 2.640552 1_565
Co0_3 Pu5_1 2.640552 1_565
Co0_3 Pu2_7 2.640552 1_455
Co0_3 Pu5_7 2.640552 1_455
Co0_3 Pu0_1 2.815627 1_565
Co0_3 Pu0_7 2.815627 1_455
Co0_3 Pu0_5 3.320390 1_465
Co0_4 Pu5_6 2.640552 1_555
Co0_4 Pu2_6 2.640552 1_555
Co0_4 Pu2_0 2.640552 1_555
Co0_4 Pu5_0 2.640552 1_555
Co0_4 Pu0_6 2.815627 1_555
Co0_4 Pu0_0 2.815627 1_555
Co0_4 Pu0_2 3.320390 1_555
Co0_5 Pu5_7 2.640552 1_555
Co0_5 Pu2_7 2.640552 1_555
Co0_5 Pu5_1 2.640552 1_555
Co0_5 Pu2_1 2.640552 1_555
Co0_5 Pu0_7 2.815627 1_555
Co0_5 Pu0_1 2.815627 1_555
Co0_5 Pu0_3 3.320390 1_555
Co0_6 Pu5_4 2.640552 1_565
Co0_6 Pu2_4 2.640552 1_565
Co0_6 Pu5_2 2.640552 1_555
Co0_6 Pu2_2 2.640552 1_555
Co0_6 Pu0_4 2.815627 1_565
Co0_6 Pu0_2 2.815627 1_555
Co0_6 Pu0_0 3.320390 1_565
Co0_7 Pu5_5 2.640552 1_565
Co0_7 Pu2_5 2.640552 1_565
Co0_7 Pu5_3 2.640552 1_555
Co0_7 Pu2_3 2.640552 1_555
Co0_7 Pu0_5 2.815627 1_565
Co0_7 Pu0_3 2.815627 1_555
Co0_7 Pu0_1 3.320390 1_565
Co1_0 Pu3_4 2.640552 1_555
Co1_0 Pu3_2 2.640552 1_545
Co1_0 Pu4_4 2.640552 1_555
Co1_0 Pu4_2 2.640552 1_545
Co1_0 Pu1_4 2.815627 1_555
Co1_0 Pu1_2 2.815627 1_545
Co1_0 Pu1_6 3.320390 1_545
Co1_1 Pu3_5 2.640552 1_555
Co1_1 Pu3_3 2.640552 1_545
Co1_1 Pu4_5 2.640552 1_555
Co1_1 Pu4_3 2.640552 1_545
Co1_1 Pu1_5 2.815627 1_555
Co1_1 Pu1_3 2.815627 1_545
Co1_1 Pu1_7 3.320390 1_545
Co1_2 Pu3_6 2.640552 1_555
Co1_2 Pu3_0 2.640552 1_555
Co1_2 Pu4_6 2.640552 1_555
Co1_2 Pu4_0 2.640552 1_555
Co1_2 Pu1_6 2.815627 1_555
Co1_2 Pu1_0 2.815627 1_555
Co1_2 Pu1_4 3.320390 1_555
Co1_3 Pu3_7 2.640552 1_555
Co1_3 Pu3_1 2.640552 1_555
Co1_3 Pu4_7 2.640552 1_555
Co1_3 Pu4_1 2.640552 1_555
Co1_3 Pu1_7 2.815627 1_555
Co1_3 Pu1_1 2.815627 1_555
Co1_3 Pu1_5 3.320390 1_555
Co1_4 Pu3_0 2.640552 1_655
Co1_4 Pu3_6 2.640552 1_545
Co1_4 Pu4_0 2.640552 1_655
Co1_4 Pu4_6 2.640552 1_545
Co1_4 Pu1_0 2.815627 1_655
Co1_4 Pu1_6 2.815627 1_545
Co1_4 Pu1_2 3.320390 1_645
Co1_5 Pu3_1 2.640552 1_655
Co1_5 Pu3_7 2.640552 1_545
Co1_5 Pu4_1 2.640552 1_655
Co1_5 Pu4_7 2.640552 1_545
Co1_5 Pu1_1 2.815627 1_655
Co1_5 Pu1_7 2.815627 1_545
Co1_5 Pu1_3 3.320390 1_645
Co1_6 Pu3_2 2.640552 1_655
Co1_6 Pu3_4 2.640552 1_555
Co1_6 Pu4_2 2.640552 1_655
Co1_6 Pu4_4 2.640552 1_555
Co1_6 Pu1_2 2.815627 1_655
Co1_6 Pu1_4 2.815627 1_555
Co1_6 Pu1_0 3.320390 1_655
Co1_7 Pu3_3 2.640552 1_655
Co1_7 Pu3_5 2.640552 1_555
Co1_7 Pu4_3 2.640552 1_655
Co1_7 Pu4_5 2.640552 1_555
Co1_7 Pu1_3 2.815627 1_655
Co1_7 Pu1_5 2.815627 1_555
Co1_7 Pu1_1 3.320390 1_655
