# generated using pymatgen
data_CsIOF4
_symmetry_space_group_name_H-M   'P 1'
_cell_length_a   6.02853760
_cell_length_b   6.14359505
_cell_length_c   15.30066279
_cell_angle_alpha   90.00000000
_cell_angle_beta   90.00000000
_cell_angle_gamma   90.00000000
_symmetry_Int_Tables_number   1
_chemical_formula_structural   CsIOF4
_chemical_formula_sum   'Cs4 I4 O4 F16'
_cell_volume   566.68902218
_cell_formula_units_Z   4
loop_
 _symmetry_equiv_pos_site_id
 _symmetry_equiv_pos_as_xyz
  1  'x, y, z'
loop_
 _atom_site_type_symbol
 _atom_site_label
 _atom_site_symmetry_multiplicity
 _atom_site_fract_x
 _atom_site_fract_y
 _atom_site_fract_z
 _atom_site_occupancy
  Cs  Cs0  1  0.75000000  0.78450140  0.89807579  1
  Cs  Cs1  1  0.75000000  0.28450140  0.60192421  1
  Cs  Cs2  1  0.25000000  0.71549860  0.39807579  1
  Cs  Cs3  1  0.25000000  0.21549860  0.10192421  1
  I  I0  1  0.75000000  0.77116631  0.16192067  1
  I  I1  1  0.75000000  0.27116631  0.33807933  1
  I  I2  1  0.25000000  0.22883369  0.83807933  1
  I  I3  1  0.25000000  0.72883369  0.66192067  1
  O  O0  1  0.25000000  0.98877059  0.89978490  1
  O  O1  1  0.25000000  0.48877059  0.60021510  1
  O  O2  1  0.75000000  0.01122941  0.10021510  1
  O  O3  1  0.75000000  0.51122941  0.39978490  1
  F  F0  1  0.01988124  0.84858450  0.58375726  1
  F  F1  1  0.51988124  0.65141550  0.08375726  1
  F  F2  1  0.98011876  0.65141550  0.08375726  1
  F  F3  1  0.51584635  0.90270487  0.23856427  1
  F  F4  1  0.48011876  0.84858450  0.58375726  1
  F  F5  1  0.98415365  0.40270487  0.26143573  1
  F  F6  1  0.01988124  0.34858450  0.91624274  1
  F  F7  1  0.01584635  0.59729513  0.73856427  1
  F  F8  1  0.98011876  0.15141550  0.41624274  1
  F  F9  1  0.48415365  0.59729513  0.73856427  1
  F  F10  1  0.48011876  0.34858450  0.91624274  1
  F  F11  1  0.48415365  0.09729513  0.76143573  1
  F  F12  1  0.51584635  0.40270487  0.26143573  1
  F  F13  1  0.98415365  0.90270487  0.23856427  1
  F  F14  1  0.51988124  0.15141550  0.41624274  1
  F  F15  1  0.01584635  0.09729513  0.76143573  1
loop_
_geom_bond_atom_site_label_1
_geom_bond_atom_site_label_2
_geom_bond_distance
_geom_bond_site_symmetry_2
Cs0 F7 3.138151 1_655
Cs0 F9 3.138151 1_555
Cs0 F6 3.145880 1_655
Cs0 F10 3.145880 1_555
Cs0 F15 3.260727 1_665
Cs0 F11 3.260727 1_565
Cs0 O0 3.265179 1_555
Cs0 O0 3.265179 1_655
Cs0 F1 3.265673 1_556
Cs0 F2 3.265673 1_556
Cs0 O2 3.392058 1_566
Cs1 F15 3.138151 1_655
Cs1 F11 3.138151 1_555
Cs1 F0 3.145880 1_645
Cs1 F4 3.145880 1_545
Cs1 F7 3.260727 1_655
Cs1 F9 3.260727 1_555
Cs1 O1 3.265179 1_555
Cs1 O1 3.265179 1_655
Cs1 F14 3.265673 1_555
Cs1 F8 3.265673 1_555
Cs1 O3 3.392058 1_555
Cs2 F13 3.138151 1_455
Cs2 F3 3.138151 1_555
Cs2 F14 3.145880 1_565
Cs2 F8 3.145880 1_465
Cs2 F12 3.260727 1_555
Cs2 F5 3.260727 1_455
Cs2 O3 3.265179 1_455
Cs2 O3 3.265179 1_555
Cs2 F0 3.265673 1_555
Cs2 F4 3.265673 1_555
Cs2 O1 3.392058 1_555
Cs3 F12 3.138151 1_555
Cs3 F5 3.138151 1_455
Cs3 F1 3.145880 1_555
Cs3 F2 3.145880 1_455
Cs3 F13 3.260727 1_445
Cs3 F3 3.260727 1_545
Cs3 O2 3.265179 1_455
Cs3 O2 3.265179 1_555
Cs3 F6 3.265673 1_554
Cs3 F10 3.265673 1_554
Cs3 O0 3.392058 1_544
I0 O2 1.751164 1_565
I1 O3 1.751164 1_555
I2 O0 1.751164 1_545
I3 O1 1.751164 1_555
F0 I3 1.973854 1_555
F1 I0 1.973854 1_555
F2 I0 1.973854 1_555
F3 I0 2.005219 1_555
F4 I3 1.973854 1_555
F5 I1 2.005219 1_555
F6 I2 1.973854 1_555
F7 I3 2.005219 1_555
F8 I1 1.973854 1_555
F9 I3 2.005219 1_555
F10 I2 1.973854 1_555
F11 I2 2.005219 1_555
F12 I1 2.005219 1_555
F13 I0 2.005219 1_555
F14 I1 1.973854 1_555
F15 I2 2.005219 1_555
