# generated using pymatgen
data_Sr5Cr3ClO12
_symmetry_space_group_name_H-M   'P 1'
_cell_length_a   10.30686755
_cell_length_b   10.30686755
_cell_length_c   7.37518200
_cell_angle_alpha   90.00000000
_cell_angle_beta   90.00000000
_cell_angle_gamma   119.99999710
_symmetry_Int_Tables_number   1
_chemical_formula_structural   Sr5Cr3ClO12
_chemical_formula_sum   'Sr10 Cr6 Cl2 O24'
_cell_volume   678.51081826
_cell_formula_units_Z   2
loop_
 _symmetry_equiv_pos_site_id
 _symmetry_equiv_pos_as_xyz
  1  'x, y, z'
loop_
 _atom_site_type_symbol
 _atom_site_label
 _atom_site_symmetry_multiplicity
 _atom_site_fract_x
 _atom_site_fract_y
 _atom_site_fract_z
 _atom_site_occupancy
  Sr  Sr0  1  0.00108200  0.74758400  0.75000000  1
  Sr  Sr1  1  0.33333300  0.66666700  0.50122800  1
  Sr  Sr2  1  0.74758400  0.74650200  0.25000000  1
  Sr  Sr3  1  0.66666700  0.33333300  0.49877200  1
  Sr  Sr4  1  0.25349800  0.00108200  0.25000000  1
  Sr  Sr5  1  0.25241600  0.25349800  0.75000000  1
  Sr  Sr6  1  0.99891800  0.25241600  0.25000000  1
  Sr  Sr7  1  0.66666700  0.33333300  0.00122800  1
  Sr  Sr8  1  0.74650200  0.99891800  0.75000000  1
  Sr  Sr9  1  0.33333300  0.66666700  0.99877200  1
  Cr  Cr0  1  0.03171800  0.40585200  0.75000000  1
  Cr  Cr1  1  0.37413400  0.96828200  0.75000000  1
  Cr  Cr2  1  0.59414800  0.62586600  0.75000000  1
  Cr  Cr3  1  0.96828200  0.59414800  0.25000000  1
  Cr  Cr4  1  0.62586600  0.03171800  0.25000000  1
  Cr  Cr5  1  0.40585200  0.37413400  0.25000000  1
  Cl  Cl0  1  0.00000000  0.00000000  0.50000000  1
  Cl  Cl1  1  0.00000000  0.00000000  0.00000000  1
  O  O0  1  0.16137500  0.68023100  0.25000000  1
  O  O1  1  0.73956500  0.09662300  0.44181700  1
  O  O2  1  0.09662300  0.35705800  0.55818300  1
  O  O3  1  0.26043500  0.90337700  0.94181700  1
  O  O4  1  0.13101600  0.60031800  0.75000000  1
  O  O5  1  0.26043500  0.90337700  0.55818300  1
  O  O6  1  0.51885600  0.83862500  0.25000000  1
  O  O7  1  0.48114400  0.16137500  0.75000000  1
  O  O8  1  0.64294200  0.73956500  0.55818300  1
  O  O9  1  0.39968200  0.53069800  0.75000000  1
  O  O10  1  0.31976900  0.48114400  0.25000000  1
  O  O11  1  0.35705800  0.26043500  0.44181700  1
  O  O12  1  0.90337700  0.64294200  0.05818300  1
  O  O13  1  0.83862500  0.31976900  0.75000000  1
  O  O14  1  0.86898400  0.39968200  0.25000000  1
  O  O15  1  0.09662300  0.35705800  0.94181700  1
  O  O16  1  0.90337700  0.64294200  0.44181700  1
  O  O17  1  0.60031800  0.46930200  0.25000000  1
  O  O18  1  0.35705800  0.26043500  0.05818300  1
  O  O19  1  0.68023100  0.51885600  0.75000000  1
  O  O20  1  0.64294200  0.73956500  0.94181700  1
  O  O21  1  0.73956500  0.09662300  0.05818300  1
  O  O22  1  0.46930200  0.86898400  0.75000000  1
  O  O23  1  0.53069800  0.13101600  0.25000000  1
loop_
_geom_bond_atom_site_label_1
_geom_bond_atom_site_label_2
_geom_bond_distance
_geom_bond_site_symmetry_2
Cr0 O13 1.726921 1_455
Cr0 O4 1.735936 1_555
Cr0 O2 1.743045 1_555
Cr0 O15 1.743045 1_555
Cr1 O7 1.726921 1_565
Cr1 O22 1.735936 1_555
Cr1 O5 1.743045 1_555
Cr1 O3 1.743045 1_555
Cr2 O19 1.726921 1_555
Cr2 O9 1.735936 1_555
Cr2 O8 1.743045 1_555
Cr2 O20 1.743045 1_555
Cr3 O0 1.726921 1_655
Cr3 O14 1.735936 1_555
Cr3 O12 1.743045 1_555
Cr3 O16 1.743045 1_555
Cr4 O6 1.726921 1_545
Cr4 O23 1.735936 1_555
Cr4 O1 1.743045 1_555
Cr4 O21 1.743045 1_555
Cr5 O10 1.726921 1_555
Cr5 O17 1.735936 1_555
Cr5 O11 1.743045 1_555
Cr5 O18 1.743045 1_555
Cl0 Sr0 3.193296 1_545
Cl0 Sr6 3.193296 1_455
Cl0 Sr4 3.193296 1_555
Cl0 Sr8 3.193296 1_445
Cl0 Sr5 3.193296 1_555
Cl0 Sr2 3.193296 1_445
Cl1 Sr0 3.193296 1_544
Cl1 Sr6 3.193296 1_455
Cl1 Sr8 3.193296 1_444
Cl1 Sr4 3.193296 1_555
Cl1 Sr5 3.193296 1_554
Cl1 Sr2 3.193296 1_445
O0 Sr9 2.615646 1_554
O0 Sr1 2.615646 1_555
O0 Sr4 2.949174 1_565
O1 Sr8 2.501465 1_545
O1 Sr6 2.726345 1_555
O1 Sr3 2.919999 1_555
O2 Sr6 2.501465 1_455
O2 Sr5 2.726345 1_555
O2 Sr1 2.920006 1_555
O3 Sr4 2.501465 1_566
O3 Sr0 2.726345 1_555
O3 Sr9 2.919999 1_555
O4 Sr0 2.475901 1_555
O4 Sr1 2.599270 1_555
O4 Sr9 2.599270 1_555
O5 Sr4 2.501465 1_565
O5 Sr0 2.726345 1_555
O5 Sr1 2.919999 1_555
O6 Sr9 2.615650 1_554
O6 Sr1 2.615650 1_555
O6 Sr2 2.949174 1_555
O7 Sr7 2.615650 1_556
O7 Sr3 2.615650 1_555
O7 Sr5 2.949174 1_555
O8 Sr2 2.501465 1_555
O8 Sr8 2.726345 1_555
O8 Sr1 2.920009 1_555
O9 Sr5 2.475901 1_555
O9 Sr9 2.599276 1_555
O9 Sr1 2.599276 1_555
O10 Sr1 2.615653 1_555
O10 Sr9 2.615653 1_554
O10 Sr6 2.949174 1_455
O11 Sr5 2.501465 1_555
O11 Sr4 2.726345 1_555
O11 Sr3 2.920009 1_555
O12 Sr0 2.501465 1_654
O12 Sr2 2.726345 1_555
O12 Sr7 2.920006 1_555
O13 Sr3 2.615646 1_555
O13 Sr7 2.615646 1_556
O13 Sr8 2.949174 1_545
O14 Sr6 2.475901 1_555
O14 Sr3 2.599270 1_555
O14 Sr7 2.599270 1_555
O15 Sr6 2.501465 1_456
O15 Sr5 2.726345 1_555
O15 Sr9 2.920006 1_555
O16 Sr0 2.501465 1_655
O16 Sr2 2.726345 1_555
O16 Sr3 2.920006 1_555
O17 Sr2 2.475901 1_555
O17 Sr3 2.599276 1_555
O17 Sr7 2.599276 1_555
O18 Sr5 2.501465 1_554
O18 Sr4 2.726345 1_555
O18 Sr7 2.920009 1_555
O19 Sr7 2.615653 1_556
O19 Sr3 2.615653 1_555
O19 Sr0 2.949174 1_655
O20 Sr2 2.501465 1_556
O20 Sr8 2.726345 1_555
O20 Sr9 2.920009 1_555
O21 Sr8 2.501465 1_544
O21 Sr6 2.726345 1_555
O21 Sr7 2.919999 1_555
O22 Sr8 2.475901 1_555
O22 Sr1 2.599271 1_555
O22 Sr9 2.599271 1_555
O23 Sr4 2.475901 1_555
O23 Sr3 2.599271 1_555
O23 Sr7 2.599271 1_555
