# generated using pymatgen
data_Er2CoSi2
_symmetry_space_group_name_H-M   'P 1'
_cell_length_a   4.12218520
_cell_length_b   5.50438678
_cell_length_c   8.89812306
_cell_angle_alpha   83.34152334
_cell_angle_beta   76.60680917
_cell_angle_gamma   68.00996763
_symmetry_Int_Tables_number   1
_chemical_formula_structural   Er2CoSi2
_chemical_formula_sum   'Er4 Co2 Si4'
_cell_volume   182.02388317
_cell_formula_units_Z   2
loop_
 _symmetry_equiv_pos_site_id
 _symmetry_equiv_pos_as_xyz
  1  'x, y, z'
loop_
 _atom_site_type_symbol
 _atom_site_label
 _atom_site_symmetry_multiplicity
 _atom_site_fract_x
 _atom_site_fract_y
 _atom_site_fract_z
 _atom_site_occupancy
  Er  Er0  1  -0.00201463  0.67530515  0.32872311  1
  Er  Er1  1  0.18793090  0.72879481  0.89534239  1
  Er  Er2  1  0.00201463  0.32469485  0.67127689  1
  Er  Er3  1  0.81206910  0.27120519  0.10465761  1
  Co  Co0  1  0.27226657  0.08249289  0.37297498  1
  Co  Co1  1  0.72773343  0.91750711  0.62702502  1
  Si  Si0  1  0.50422767  0.86659822  0.12494644  1
  Si  Si1  1  0.49577233  0.13340178  0.87505356  1
  Si  Si2  1  0.34963631  0.73577036  0.56495602  1
  Si  Si3  1  0.65036369  0.26422964  0.43504398  1
loop_
_geom_bond_atom_site_label_1
_geom_bond_atom_site_label_2
_geom_bond_distance
_geom_bond_site_symmetry_2
Er0 Si0 2.863771 1_455
Er0 Si0 2.863774 1_555
Er0 Si2 2.926719 1_555
Er0 Si2 2.926719 1_455
Er0 Si3 3.061378 1_455
Er0 Si3 3.061384 1_555
Er0 Si3 3.171946 1_465
Er1 Si2 2.858934 1_555
Er1 Si1 2.918910 1_465
Er1 Si1 2.918912 1_565
Er1 Si0 2.963683 1_456
Er1 Si0 2.963686 1_556
Er1 Si1 3.049593 1_555
Er2 Si1 2.863771 1_555
Er2 Si1 2.863774 1_455
Er2 Si3 2.926719 1_455
Er2 Si3 2.926719 1_555
Er2 Si2 3.061378 1_555
Er2 Si2 3.061384 1_455
Er2 Si2 3.171946 1_545
Er3 Si3 2.858934 1_555
Er3 Si0 2.918910 1_645
Er3 Si0 2.918912 1_545
Er3 Si1 2.963683 1_654
Er3 Si1 2.963686 1_554
Er3 Si0 3.049593 1_555
Co0 Si3 2.330117 1_555
Co0 Si3 2.330117 1_455
Co0 Si2 2.388047 1_545
Co0 Si0 2.444776 1_545
Co0 Er2 2.898684 1_555
Co0 Er0 2.960668 1_645
Co0 Er0 2.960673 1_545
Co0 Er0 3.037493 1_555
Co0 Er3 3.228824 1_555
Co0 Er3 3.228825 1_455
Co1 Si2 2.330117 1_555
Co1 Si2 2.330117 1_655
Co1 Si3 2.388047 1_565
Co1 Si1 2.444776 1_565
Co1 Er0 2.898684 1_655
Co1 Er2 2.960668 1_565
Co1 Er2 2.960673 1_665
Co1 Er2 3.037493 1_655
Co1 Er1 3.228824 1_555
Co1 Er1 3.228825 1_655
Si0 Si1 2.518444 1_564
Si2 Si3 2.689271 1_555
