# generated using pymatgen
data_Ca12Al14O33
_symmetry_space_group_name_H-M   'P 1'
_cell_length_a   10.46641652
_cell_length_b   10.46641652
_cell_length_c   10.46641652
_cell_angle_alpha   109.23772551
_cell_angle_beta   109.23772551
_cell_angle_gamma   109.93922701
_symmetry_Int_Tables_number   1
_chemical_formula_structural   Ca12Al14O33
_chemical_formula_sum   'Ca12 Al14 O33'
_cell_volume   882.57251350
_cell_formula_units_Z   1
loop_
 _symmetry_equiv_pos_site_id
 _symmetry_equiv_pos_as_xyz
  1  'x, y, z'
loop_
 _atom_site_type_symbol
 _atom_site_label
 _atom_site_symmetry_multiplicity
 _atom_site_fract_x
 _atom_site_fract_y
 _atom_site_fract_z
 _atom_site_occupancy
  Ca  Ca0  1  0.32250700  0.32250700  0.00000000  1
  Ca  Ca1  1  0.98924500  0.12461500  0.35854900  1
  Ca  Ca2  1  0.87538500  0.23393500  0.86463000  1
  Ca  Ca3  1  0.51272600  0.13174100  0.88889300  1
  Ca  Ca4  1  0.36930500  0.01075500  0.13537000  1
  Ca  Ca5  1  0.67749300  0.67749300  0.00000000  1
  Ca  Ca6  1  0.76606500  0.63069500  0.64145100  1
  Ca  Ca7  1  0.86825900  0.75715300  0.38098600  1
  Ca  Ca8  1  0.48726800  0.98726800  0.50000000  1
  Ca  Ca9  1  0.37616700  0.48727400  0.61901400  1
  Ca  Ca10  1  0.01273200  0.51273200  0.50000000  1
  Ca  Ca11  1  0.24284700  0.62383300  0.11110700  1
  Al  Al0  1  0.75000000  0.25000000  0.50000000  1
  Al  Al1  1  0.00000000  0.00000000  0.00000000  1
  Al  Al2  1  0.24936100  0.12513700  0.62383600  1
  Al  Al3  1  0.62596600  0.33899200  0.74837100  1
  Al  Al4  1  0.08901300  0.87516600  0.24734300  1
  Al  Al5  1  0.62782300  0.84167000  0.75265700  1
  Al  Al6  1  0.37447500  0.75063900  0.87577700  1
  Al  Al7  1  0.15833000  0.91098700  0.78615300  1
  Al  Al8  1  0.59062100  0.87759500  0.25162900  1
  Al  Al9  1  0.50130100  0.62552500  0.37616400  1
  Al  Al10  1  0.12240500  0.37403400  0.71302600  1
  Al  Al11  1  0.12483400  0.37217700  0.21384700  1
  Al  Al12  1  0.87486300  0.49869900  0.12422300  1
  Al  Al13  1  0.66100800  0.40937900  0.28697400  1
  O  O0  1  0.20796100  0.27513100  0.62620500  1
  O  O1  1  0.93971300  0.28489500  0.54011000  1
  O  O2  1  0.02007900  0.18671600  0.04622200  1
  O  O3  1  0.02614300  0.97992100  0.16663700  1
  O  O4  1  0.24162400  0.08517600  0.77228500  1
  O  O5  1  0.14049400  0.97385700  0.95377800  1
  O  O6  1  0.60039800  0.06028700  0.34518300  1
  O  O7  1  0.72486900  0.35107400  0.93282900  1
  O  O8  1  0.50256500  0.23856700  0.12436000  1
  O  O9  1  0.71510500  0.25521500  0.65481700  1
  O  O10  1  0.81328400  0.85950600  0.83336300  1
  O  O11  1  0.10566500  0.96491900  0.43587200  1
  O  O12  1  0.62024100  0.00514900  0.74905200  1
  O  O13  1  0.43869200  0.16763100  0.65523700  1
  O  O14  1  0.41824400  0.79203900  0.06717100  1
  O  O15  1  0.53066100  0.75837600  0.84355200  1
  O  O16  1  0.33020800  0.89433500  0.85925400  1
  O  O17  1  0.76143300  0.88579400  0.26399800  1
  O  O18  1  0.62179500  0.49743500  0.73600200  1
  O  O19  1  0.52904700  0.66979200  0.56412800  1
  O  O20  1  0.91482400  0.68711000  0.15644800  1
  O  O21  1  0.51239400  0.78345500  0.34476300  1
  O  O22  1  0.64892600  0.58175600  0.37379500  1
  O  O23  1  0.21654500  0.56130800  0.72893900  1
  O  O24  1  0.25609700  0.87118900  0.25094800  1
  O  O25  1  0.99485100  0.74390300  0.61509200  1
  O  O26  1  0.31289000  0.46933900  0.22771500  1
  O  O27  1  0.50000000  0.50000000  0.00000000  1
  O  O28  1  0.12881100  0.37975900  0.38490800  1
  O  O29  1  0.03508100  0.47095300  0.14074600  1
  O  O30  1  0.83236900  0.48760600  0.27106100  1
  O  O31  1  0.74478500  0.39960200  0.45989000  1
  O  O32  1  0.11420600  0.37820500  0.87564000  1
loop_
_geom_bond_atom_site_label_1
_geom_bond_atom_site_label_2
_geom_bond_distance
_geom_bond_site_symmetry_2
Ca0 O27 2.132698 1_555
Ca0 O4 2.429443 1_554
Ca0 O26 2.429449 1_555
Ca0 O8 2.506785 1_555
Ca0 O32 2.506793 1_554
Ca1 O3 2.320075 1_645
Ca1 O17 2.379622 1_545
Ca1 O1 2.415722 1_555
Ca1 O28 2.435068 1_655
Ca1 O0 2.444609 1_655
Ca1 O11 2.562046 1_645
Ca2 O2 2.320083 1_656
Ca2 O32 2.379617 1_655
Ca2 O9 2.415723 1_555
Ca2 O12 2.435073 1_555
Ca2 O7 2.444599 1_555
Ca2 O29 2.562042 1_656
Ca3 O7 2.359334 1_555
Ca3 O8 2.402740 1_556
Ca3 O16 2.404943 1_545
Ca3 O12 2.447118 1_555
Ca3 O4 2.482148 1_555
Ca3 O13 2.505463 1_555
Ca4 O5 2.320083 1_544
Ca4 O8 2.379625 1_555
Ca4 O6 2.415727 1_555
Ca4 O24 2.435073 1_545
Ca4 O14 2.444602 1_545
Ca4 O16 2.562046 1_544
Ca5 O27 2.132698 1_555
Ca5 O20 2.429438 1_555
Ca5 O15 2.429443 1_554
Ca5 O18 2.506785 1_554
Ca5 O17 2.506789 1_555
Ca6 O10 2.320078 1_555
Ca6 O18 2.379617 1_555
Ca6 O31 2.415727 1_555
Ca6 O25 2.435079 1_555
Ca6 O22 2.444612 1_555
Ca6 O19 2.562037 1_555
Ca7 O22 2.359329 1_555
Ca7 O17 2.402746 1_555
Ca7 O11 2.404946 1_655
Ca7 O25 2.447115 1_555
Ca7 O20 2.482157 1_555
Ca7 O30 2.505473 1_555
Ca8 O21 2.374818 1_555
Ca8 O13 2.374818 1_565
Ca8 O12 2.424251 1_565
Ca8 O24 2.424251 1_555
Ca8 O6 2.464733 1_565
Ca8 O9 2.464737 1_565
Ca9 O0 2.359336 1_555
Ca9 O18 2.402741 1_555
Ca9 O19 2.404933 1_555
Ca9 O28 2.447113 1_555
Ca9 O15 2.482151 1_555
Ca9 O23 2.505469 1_555
Ca10 O23 2.374818 1_555
Ca10 O30 2.374818 1_455
Ca10 O28 2.424251 1_555
Ca10 O25 2.424251 1_455
Ca10 O1 2.464737 1_455
Ca10 O31 2.464737 1_455
Ca11 O14 2.359329 1_555
Ca11 O32 2.402740 1_554
Ca11 O29 2.404940 1_555
Ca11 O24 2.447113 1_555
Ca11 O26 2.482148 1_555
Ca11 O21 2.505469 1_555
Al0 O31 1.762753 1_555
Al0 O9 1.762753 1_555
Al0 O6 1.762758 1_555
Al0 O1 1.762763 1_555
Al1 O5 1.768380 1_544
Al1 O3 1.768380 1_545
Al1 O2 1.768380 1_555
Al1 O10 1.768380 1_444
Al2 O4 1.756020 1_555
Al2 O0 1.760213 1_555
Al2 O11 1.760795 1_545
Al2 O13 1.762390 1_555
Al3 O18 1.719259 1_555
Al3 O9 1.786684 1_555
Al3 O13 1.788859 1_555
Al3 O7 1.802137 1_555
Al4 O24 1.751730 1_555
Al4 O3 1.756339 1_555
Al4 O11 1.801846 1_555
Al4 O20 1.810694 1_455
Al5 O12 1.751730 1_565
Al5 O10 1.756339 1_555
Al5 O19 1.801851 1_555
Al5 O15 1.810700 1_555
Al6 O15 1.756026 1_555
Al6 O14 1.760213 1_556
Al6 O16 1.760793 1_555
Al6 O23 1.762392 1_555
Al7 O25 1.751730 1_455
Al7 O5 1.756339 1_555
Al7 O16 1.801856 1_555
Al7 O4 1.810700 1_565
Al8 O17 1.719255 1_555
Al8 O6 1.786674 1_565
Al8 O21 1.788859 1_555
Al8 O14 1.802139 1_555
Al9 O26 1.756026 1_555
Al9 O22 1.760213 1_555
Al9 O19 1.760797 1_555
Al9 O21 1.762390 1_555
Al10 O32 1.719263 1_555
Al10 O1 1.786678 1_455
Al10 O23 1.788859 1_555
Al10 O0 1.802146 1_555
Al11 O28 1.751730 1_555
Al11 O2 1.756339 1_555
Al11 O29 1.801846 1_555
Al11 O26 1.810691 1_555
Al12 O20 1.756028 1_555
Al12 O7 1.760213 1_554
Al12 O29 1.760794 1_655
Al12 O30 1.762400 1_555
Al13 O8 1.719259 1_555
Al13 O31 1.786684 1_555
Al13 O30 1.788859 1_555
Al13 O22 1.802146 1_555
