# generated using pymatgen
data_K2Mn(NbCl3)6
_symmetry_space_group_name_H-M   'P 1'
_cell_length_a   10.09815384
_cell_length_b   10.09815384
_cell_length_c   10.09815448
_cell_angle_alpha   55.01587102
_cell_angle_beta   55.01587102
_cell_angle_gamma   55.01587020
_symmetry_Int_Tables_number   1
_chemical_formula_structural   K2Mn(NbCl3)6
_chemical_formula_sum   'K2 Mn1 Nb6 Cl18'
_cell_volume   643.70043413
_cell_formula_units_Z   1
loop_
 _symmetry_equiv_pos_site_id
 _symmetry_equiv_pos_as_xyz
  1  'x, y, z'
loop_
 _atom_site_type_symbol
 _atom_site_label
 _atom_site_symmetry_multiplicity
 _atom_site_fract_x
 _atom_site_fract_y
 _atom_site_fract_z
 _atom_site_occupancy
  K  K0  1  0.27791300  0.27791300  0.27791300  1
  K  K1  1  0.72208700  0.72208700  0.72208700  1
  Mn  Mn0  1  0.00000000  0.00000000  0.00000000  1
  Nb  Nb0  1  0.58908100  0.34678100  0.70447500  1
  Nb  Nb1  1  0.34678100  0.70447500  0.58908100  1
  Nb  Nb2  1  0.70447500  0.58908100  0.34678100  1
  Nb  Nb3  1  0.29552500  0.41091900  0.65321900  1
  Nb  Nb4  1  0.65321900  0.29552500  0.41091900  1
  Nb  Nb5  1  0.41091900  0.65321900  0.29552500  1
  Cl  Cl0  1  0.78029800  0.07877600  0.63838300  1
  Cl  Cl1  1  0.15607900  0.96901600  0.69964900  1
  Cl  Cl2  1  0.92122400  0.36161700  0.21970200  1
  Cl  Cl3  1  0.56132300  0.84472000  0.42524700  1
  Cl  Cl4  1  0.84472000  0.42524700  0.56132300  1
  Cl  Cl5  1  0.96901600  0.69964900  0.15607900  1
  Cl  Cl6  1  0.63838300  0.78029800  0.07877600  1
  Cl  Cl7  1  0.84392100  0.03098400  0.30035100  1
  Cl  Cl8  1  0.21970200  0.92122400  0.36161700  1
  Cl  Cl9  1  0.36161700  0.21970200  0.92122400  1
  Cl  Cl10  1  0.03098400  0.30035100  0.84392100  1
  Cl  Cl11  1  0.07877600  0.63838300  0.78029800  1
  Cl  Cl12  1  0.15528000  0.57475300  0.43867700  1
  Cl  Cl13  1  0.69964900  0.15607900  0.96901600  1
  Cl  Cl14  1  0.30035100  0.84392100  0.03098400  1
  Cl  Cl15  1  0.42524700  0.56132300  0.84472000  1
  Cl  Cl16  1  0.57475300  0.43867700  0.15528000  1
  Cl  Cl17  1  0.43867700  0.15528000  0.57475300  1
loop_
_geom_bond_atom_site_label_1
_geom_bond_atom_site_label_2
_geom_bond_distance
_geom_bond_site_symmetry_2
Cl0 Nb0 2.469682 1_555
Cl0 Nb4 2.471372 1_555
Cl0 K1 3.521457 1_545
Cl1 Mn0 2.611925 1_566
Cl1 Nb1 2.673383 1_555
Cl1 K0 3.541183 1_565
Cl2 Nb4 2.469682 1_555
Cl2 Nb2 2.471372 1_555
Cl2 K0 3.521457 1_655
Cl3 Nb2 2.476792 1_555
Cl3 Nb1 2.481511 1_555
Cl3 K1 3.488909 1_555
Cl3 K0 3.550152 1_565
Cl4 Nb0 2.476792 1_555
Cl4 Nb2 2.481511 1_555
Cl4 K1 3.488909 1_555
Cl4 K0 3.550152 1_655
Cl5 Mn0 2.611925 1_665
Cl5 Nb2 2.673383 1_555
Cl5 K0 3.541183 1_655
Cl6 Nb2 2.469682 1_555
Cl6 Nb5 2.471372 1_555
Cl6 K1 3.521457 1_554
Cl7 Mn0 2.611925 1_655
Cl7 Nb4 2.673383 1_555
Cl7 K1 3.541183 1_545
Cl8 Nb5 2.469682 1_555
Cl8 Nb1 2.471372 1_555
Cl8 K0 3.521457 1_565
Cl9 Nb3 2.469682 1_555
Cl9 Nb0 2.471372 1_555
Cl9 K0 3.521457 1_556
Cl10 Mn0 2.611925 1_556
Cl10 Nb3 2.673383 1_555
Cl10 K1 3.541183 1_455
Cl11 Nb1 2.469682 1_555
Cl11 Nb3 2.471372 1_555
Cl11 K1 3.521457 1_455
Cl12 Nb5 2.476792 1_555
Cl12 Nb3 2.481511 1_555
Cl12 K0 3.488909 1_555
Cl12 K1 3.550152 1_455
Cl13 Mn0 2.611925 1_656
Cl13 Nb0 2.673383 1_555
Cl13 K0 3.541183 1_556
Cl14 Mn0 2.611925 1_565
Cl14 Nb5 2.673383 1_555
Cl14 K1 3.541183 1_554
Cl15 Nb1 2.476792 1_555
Cl15 Nb0 2.481511 1_555
Cl15 K1 3.488909 1_555
Cl15 K0 3.550152 1_556
Cl16 Nb4 2.476792 1_555
Cl16 Nb5 2.481511 1_555
Cl16 K0 3.488909 1_555
Cl16 K1 3.550152 1_554
Cl17 Nb3 2.476792 1_555
Cl17 Nb4 2.481511 1_555
Cl17 K0 3.488909 1_555
Cl17 K1 3.550152 1_545
