# generated using pymatgen
data_RbP3PbO9
_symmetry_space_group_name_H-M   'P 1'
_cell_length_a   17.37379100
_cell_length_b   7.33741700
_cell_length_c   14.44639057
_cell_angle_alpha   74.19767030
_cell_angle_beta   90.00000000
_cell_angle_gamma   90.00000000
_symmetry_Int_Tables_number   1
_chemical_formula_structural   RbP3PbO9
_chemical_formula_sum   'Rb8 P24 Pb8 O72'
_cell_volume   1772.00777582
_cell_formula_units_Z   8
loop_
 _symmetry_equiv_pos_site_id
 _symmetry_equiv_pos_as_xyz
  1  'x, y, z'
loop_
 _atom_site_type_symbol
 _atom_site_label
 _atom_site_symmetry_multiplicity
 _atom_site_fract_x
 _atom_site_fract_y
 _atom_site_fract_z
 _atom_site_occupancy
  Rb  Rb0  1  0.34012600  0.11999400  0.05009000  1
  Rb  Rb1  1  0.17172700  0.65455500  0.99861900  1
  Rb  Rb2  1  0.67172700  0.34544500  0.50138100  1
  Rb  Rb3  1  0.65987400  0.88000600  0.94991000  1
  Rb  Rb4  1  0.32827300  0.65455500  0.49861900  1
  Rb  Rb5  1  0.82827300  0.34544500  0.00138100  1
  Rb  Rb6  1  0.15987400  0.11999400  0.55009000  1
  Rb  Rb7  1  0.84012600  0.88000600  0.44991000  1
  P  P0  1  0.99139500  0.22275100  0.36305500  1
  P  P1  1  0.12496600  0.04647600  0.14022300  1
  P  P2  1  0.13512800  0.51964700  0.64081300  1
  P  P3  1  0.00860500  0.77724900  0.63694500  1
  P  P4  1  0.25253700  0.46494900  0.30199300  1
  P  P5  1  0.49139500  0.77724900  0.13694500  1
  P  P6  1  0.01105500  0.34089100  0.14785900  1
  P  P7  1  0.72276100  0.93710800  0.18983500  1
  P  P8  1  0.24746300  0.46494900  0.80199300  1
  P  P9  1  0.62496600  0.95352400  0.35977700  1
  P  P10  1  0.51105500  0.65910900  0.35214100  1
  P  P11  1  0.37503400  0.04647600  0.64022300  1
  P  P12  1  0.36487200  0.51964700  0.14081300  1
  P  P13  1  0.22276100  0.06289200  0.31016500  1
  P  P14  1  0.63512800  0.48035300  0.85918700  1
  P  P15  1  0.77723900  0.93710800  0.68983500  1
  P  P16  1  0.87503400  0.95352400  0.85977700  1
  P  P17  1  0.50860500  0.22275100  0.86305500  1
  P  P18  1  0.86487200  0.48035300  0.35918700  1
  P  P19  1  0.27723900  0.06289200  0.81016500  1
  P  P20  1  0.75253700  0.53505100  0.19800700  1
  P  P21  1  0.48894500  0.34089100  0.64785900  1
  P  P22  1  0.98894500  0.65910900  0.85214100  1
  P  P23  1  0.74746300  0.53505100  0.69800700  1
  Pb  Pb0  1  0.92364600  0.82627600  0.13174300  1
  Pb  Pb1  1  0.57635400  0.82627600  0.63174300  1
  Pb  Pb2  1  0.07244900  0.70733400  0.38000200  1
  Pb  Pb3  1  0.92755100  0.29266600  0.61999800  1
  Pb  Pb4  1  0.42755100  0.70733400  0.88000200  1
  Pb  Pb5  1  0.42364600  0.17372400  0.36825700  1
  Pb  Pb6  1  0.07635400  0.17372400  0.86825700  1
  Pb  Pb7  1  0.57244900  0.29266600  0.11999800  1
  O  O0  1  0.79685500  0.94185500  0.79877300  1
  O  O1  1  0.55169500  0.21020900  0.63565800  1
  O  O2  1  0.50933400  0.45052300  0.40114100  1
  O  O3  1  0.34818100  0.01900000  0.54614400  1
  O  O4  1  0.71907800  0.47958500  0.81013900  1
  O  O5  1  0.43047000  0.90707400  0.70191200  1
  O  O6  1  0.52880700  0.67453600  0.23923000  1
  O  O7  1  0.50885500  0.01188600  0.88259300  1
  O  O8  1  0.29917300  0.27907100  0.80747100  1
  O  O9  1  0.19828300  0.61413400  0.31373300  1
  O  O10  1  0.99066600  0.45052300  0.90114100  1
  O  O11  1  0.56953000  0.09292600  0.29808800  1
  O  O12  1  0.79917300  0.72092900  0.69252900  1
  O  O13  1  0.10056000  0.71594600  0.65326400  1
  O  O14  1  0.90598500  0.73683500  0.88150600  1
  O  O15  1  0.69243100  0.97129900  0.67829700  1
  O  O16  1  0.84810700  0.46437100  0.46319300  1
  O  O17  1  0.21907800  0.52041500  0.68986100  1
  O  O18  1  0.15189300  0.53562900  0.53680700  1
  O  O19  1  0.67890400  0.58707000  0.63214700  1
  O  O20  1  0.20314500  0.05814500  0.20122700  1
  O  O21  1  0.49114500  0.98811400  0.11740700  1
  O  O22  1  0.94830500  0.21020900  0.13565800  1
  O  O23  1  0.15181900  0.01900000  0.04614400  1
  O  O24  1  0.83091500  0.05571800  0.61583000  1
  O  O25  1  0.16908500  0.94428200  0.38417000  1
  O  O26  1  0.30756900  0.02870100  0.32170300  1
  O  O27  1  0.00933400  0.54947700  0.09885900  1
  O  O28  1  0.82109600  0.58707000  0.13214700  1
  O  O29  1  0.41290200  0.35254400  0.19555100  1
  O  O30  1  0.65181900  0.98100000  0.45385600  1
  O  O31  1  0.97119300  0.67453600  0.73923000  1
  O  O32  1  0.47523100  0.31895300  0.93370900  1
  O  O33  1  0.99114500  0.01188600  0.38259300  1
  O  O34  1  0.39944000  0.71594600  0.15326400  1
  O  O35  1  0.66908500  0.05571800  0.11583000  1
  O  O36  1  0.47119300  0.32546400  0.76077000  1
  O  O37  1  0.20082700  0.27907100  0.30747100  1
  O  O38  1  0.52476900  0.68104700  0.06629100  1
  O  O39  1  0.78092200  0.47958500  0.31013900  1
  O  O40  1  0.70314500  0.94185500  0.29877300  1
  O  O41  1  0.93047000  0.09292600  0.79808800  1
  O  O42  1  0.70082700  0.72092900  0.19252900  1
  O  O43  1  0.32109600  0.41293000  0.36785300  1
  O  O44  1  0.84818100  0.98100000  0.95385600  1
  O  O45  1  0.44830500  0.78979100  0.36434200  1
  O  O46  1  0.49066600  0.54947700  0.59885900  1
  O  O47  1  0.59401500  0.73683500  0.38150600  1
  O  O48  1  0.69828300  0.38586600  0.18626700  1
  O  O49  1  0.19243100  0.02870100  0.82170300  1
  O  O50  1  0.65189300  0.46437100  0.96319300  1
  O  O51  1  0.06953000  0.90707400  0.20191200  1
  O  O52  1  0.09401500  0.26316500  0.11849400  1
  O  O53  1  0.05169500  0.78979100  0.86434200  1
  O  O54  1  0.00885500  0.98811400  0.61740700  1
  O  O55  1  0.30171700  0.61413400  0.81373300  1
  O  O56  1  0.02476900  0.31895300  0.43370900  1
  O  O57  1  0.89944000  0.28405400  0.34673600  1
  O  O58  1  0.08709800  0.35254400  0.69555100  1
  O  O59  1  0.33091500  0.94428200  0.88417000  1
  O  O60  1  0.58709800  0.64745600  0.80444900  1
  O  O61  1  0.34810700  0.53562900  0.03680700  1
  O  O62  1  0.28092200  0.52041500  0.18986100  1
  O  O63  1  0.17890400  0.41293000  0.86785300  1
  O  O64  1  0.80171700  0.38586600  0.68626700  1
  O  O65  1  0.40598500  0.26316500  0.61849400  1
  O  O66  1  0.60056000  0.28405400  0.84673600  1
  O  O67  1  0.97523100  0.68104700  0.56629100  1
  O  O68  1  0.91290200  0.64745600  0.30444900  1
  O  O69  1  0.02880700  0.32546400  0.26077000  1
  O  O70  1  0.29685500  0.05814500  0.70122700  1
  O  O71  1  0.80756900  0.97129900  0.17829700  1
loop_
_geom_bond_atom_site_label_1
_geom_bond_atom_site_label_2
_geom_bond_distance
_geom_bond_site_symmetry_2
O0 P15 1.619858 1_555
O0 P16 1.634007 1_555
O0 Rb3 3.177622 1_555
O1 P21 1.493685 1_555
O1 Rb2 2.836919 1_555
O1 Pb1 2.865212 1_545
O2 P10 1.501433 1_555
O2 Pb5 2.663153 1_555
O2 Rb2 3.169159 1_555
O3 P11 1.501563 1_555
O3 Pb5 2.832474 1_555
O3 Rb4 2.956629 1_545
O3 Rb6 3.358392 1_555
O4 P14 1.622215 1_555
O4 P23 1.635193 1_555
O4 Rb5 3.274091 1_556
O5 P11 1.507181 1_565
O5 Pb4 2.591518 1_555
O5 Pb1 2.851373 1_555
O6 P5 1.602308 1_555
O6 P10 1.633415 1_555
O7 P17 1.495220 1_555
O7 Pb4 2.652513 1_545
O7 Rb3 2.872935 1_545
O8 P8 1.617011 1_555
O8 P19 1.621459 1_555
O8 Rb0 3.453302 1_556
O9 P4 1.488821 1_555
O9 Pb2 2.553479 1_555
O10 P22 1.501433 1_555
O10 Pb6 2.663153 1_655
O10 Rb5 3.169159 1_556
O11 P9 1.507181 1_545
O11 Pb7 2.591518 1_555
O11 Pb5 2.851373 1_555
O12 P23 1.617011 1_555
O12 P15 1.621459 1_555
O12 Rb7 3.453302 1_555
O13 P2 1.615145 1_555
O13 P3 1.659065 1_555
O13 Rb6 3.109038 1_565
O14 P16 1.625969 1_555
O14 P22 1.647547 1_555
O14 Rb5 3.218768 1_556
O15 P15 1.496316 1_555
O15 Pb1 2.457934 1_555
O15 Rb2 3.221273 1_565
O16 P18 1.503386 1_555
O16 Pb3 2.658836 1_555
O16 Rb7 3.006312 1_555
O16 Rb2 3.192818 1_555
O17 P2 1.622215 1_555
O17 P8 1.635193 1_555
O17 Rb4 3.274091 1_555
O18 P2 1.503386 1_555
O18 Pb2 2.658836 1_555
O18 Rb6 3.006312 1_555
O18 Rb4 3.192818 1_555
O19 P23 1.507290 1_555
O19 Pb1 2.499883 1_555
O19 Rb2 2.924298 1_555
O20 P13 1.619858 1_555
O20 P1 1.634007 1_555
O20 Rb0 3.177622 1_555
O21 P5 1.495220 1_555
O21 Pb7 2.652513 1_565
O21 Rb0 2.872935 1_565
O22 P6 1.493685 1_655
O22 Rb5 2.836919 1_555
O22 Pb0 2.865212 1_545
O23 P1 1.501563 1_555
O23 Pb6 2.832474 1_554
O23 Rb1 2.956629 1_544
O23 Rb0 3.358392 1_555
O24 P15 1.504428 1_545
O24 Pb3 2.429432 1_555
O24 Rb7 3.019318 1_545
O25 P13 1.504428 1_565
O25 Pb2 2.429432 1_555
O25 Rb6 3.019318 1_565
O26 P13 1.496316 1_555
O26 Pb5 2.457934 1_555
O26 Rb4 3.221273 1_545
O27 P6 1.501433 1_555
O27 Pb0 2.663153 1_455
O27 Rb1 3.169159 1_554
O28 P20 1.507290 1_555
O28 Pb0 2.499883 1_555
O28 Rb5 2.924298 1_555
O29 P12 1.515556 1_555
O29 Pb5 2.489654 1_555
O29 Rb0 3.298319 1_555
O30 P9 1.501563 1_555
O30 Pb1 2.832474 1_555
O30 Rb2 2.956629 1_565
O30 Rb7 3.358392 1_555
O31 P3 1.602308 1_655
O31 P22 1.633415 1_555
O32 P17 1.506216 1_555
O32 Rb0 3.021730 1_556
O33 P0 1.495220 1_555
O33 Pb2 2.652513 1_645
O33 Rb7 2.872935 1_545
O34 P12 1.615145 1_555
O34 P5 1.659065 1_555
O34 Rb0 3.109038 1_565
O35 P7 1.504428 1_545
O35 Pb7 2.429432 1_555
O35 Rb3 3.019318 1_544
O36 P17 1.602308 1_555
O36 P21 1.633415 1_555
O37 P4 1.617011 1_555
O37 P13 1.621459 1_555
O37 Rb6 3.453302 1_555
O38 P5 1.506216 1_555
O38 Rb3 3.021730 1_554
O39 P18 1.622215 1_555
O39 P20 1.635193 1_555
O39 Rb2 3.274091 1_555
O40 P7 1.619858 1_555
O40 P9 1.634007 1_555
O40 Rb7 3.177622 1_555
O41 P16 1.507181 1_545
O41 Pb3 2.591518 1_555
O41 Pb6 2.851373 1_655
O42 P20 1.617011 1_555
O42 P7 1.621459 1_555
O42 Rb3 3.453302 1_554
O43 P4 1.507290 1_555
O43 Pb5 2.499883 1_555
O43 Rb4 2.924298 1_555
O44 P16 1.501563 1_555
O44 Pb0 2.832474 1_556
O44 Rb5 2.956629 1_566
O44 Rb3 3.358392 1_555
O45 P10 1.493685 1_555
O45 Rb4 2.836919 1_555
O45 Pb5 2.865212 1_565
O46 P21 1.501433 1_555
O46 Pb1 2.663153 1_555
O46 Rb4 3.169159 1_555
O47 P9 1.625969 1_555
O47 P10 1.647547 1_555
O47 Rb2 3.218768 1_555
O48 P20 1.488821 1_555
O48 Pb7 2.553479 1_555
O49 P19 1.496316 1_555
O49 Pb6 2.457934 1_555
O49 Rb1 3.221273 1_545
O50 P14 1.503386 1_555
O50 Pb7 2.658836 1_556
O50 Rb3 3.006312 1_555
O50 Rb5 3.192818 1_556
O51 P1 1.507181 1_565
O51 Pb2 2.591518 1_555
O51 Pb0 2.851373 1_455
O52 P1 1.625969 1_555
O52 P6 1.647547 1_555
O52 Rb1 3.218768 1_554
O53 P22 1.493685 1_455
O53 Rb1 2.836919 1_555
O53 Pb6 2.865212 1_565
O54 P3 1.495220 1_555
O54 Pb3 2.652513 1_465
O54 Rb6 2.872935 1_565
O55 P8 1.488821 1_555
O55 Pb4 2.553479 1_555
O56 P0 1.506216 1_455
O56 Rb6 3.021730 1_555
O57 P18 1.615145 1_555
O57 P0 1.659065 1_555
O57 Rb7 3.109038 1_545
O58 P2 1.515556 1_555
O58 Pb6 2.489654 1_555
O58 Rb6 3.298319 1_555
O59 P19 1.504428 1_565
O59 Pb4 2.429432 1_555
O59 Rb0 3.019318 1_566
O60 P14 1.515556 1_555
O60 Pb1 2.489654 1_555
O60 Rb3 3.298319 1_555
O61 P12 1.503386 1_555
O61 Pb4 2.658836 1_554
O61 Rb0 3.006312 1_555
O61 Rb1 3.192818 1_554
O62 P12 1.622215 1_555
O62 P4 1.635193 1_555
O62 Rb1 3.274091 1_554
O63 P8 1.507290 1_555
O63 Pb6 2.499883 1_555
O63 Rb1 2.924298 1_555
O64 P23 1.488821 1_555
O64 Pb3 2.553479 1_555
O65 P11 1.625969 1_555
O65 P21 1.647547 1_555
O65 Rb4 3.218768 1_555
O66 P14 1.615145 1_555
O66 P17 1.659065 1_555
O66 Rb3 3.109038 1_545
O67 P3 1.506216 1_655
O67 Rb7 3.021730 1_555
O68 P18 1.515556 1_555
O68 Pb0 2.489654 1_555
O68 Rb7 3.298319 1_555
O69 P0 1.602308 1_455
O69 P6 1.633415 1_555
O70 P19 1.619858 1_555
O70 P11 1.634007 1_555
O70 Rb6 3.177622 1_555
O71 P7 1.496316 1_555
O71 Pb0 2.457934 1_555
O71 Rb5 3.221273 1_565
