# generated using pymatgen
data_CsDy(MoO4)2
_symmetry_space_group_name_H-M   'P 1'
_cell_length_a   5.09539800
_cell_length_b   8.17890100
_cell_length_c   9.77360305
_cell_angle_alpha   87.99794593
_cell_angle_beta   90.00000000
_cell_angle_gamma   90.00000000
_symmetry_Int_Tables_number   1
_chemical_formula_structural   CsDy(MoO4)2
_chemical_formula_sum   'Cs2 Dy2 Mo4 O16'
_cell_volume   407.06388669
_cell_formula_units_Z   2
loop_
 _symmetry_equiv_pos_site_id
 _symmetry_equiv_pos_as_xyz
  1  'x, y, z'
loop_
 _atom_site_type_symbol
 _atom_site_label
 _atom_site_symmetry_multiplicity
 _atom_site_fract_x
 _atom_site_fract_y
 _atom_site_fract_z
 _atom_site_occupancy
  Cs  Cs0  1  0.03726100  0.25000000  0.50000000  1
  Cs  Cs1  1  0.96273900  0.75000000  0.50000000  1
  Dy  Dy0  1  0.99904000  0.25000000  0.00000000  1
  Dy  Dy1  1  0.00096000  0.75000000  0.00000000  1
  Mo  Mo0  1  0.47714900  0.00831800  0.80745000  1
  Mo  Mo1  1  0.47714900  0.49168200  0.19255000  1
  Mo  Mo2  1  0.52285100  0.50831800  0.80745000  1
  Mo  Mo3  1  0.52285100  0.99168200  0.19255000  1
  O  O0  1  0.74074500  0.68215500  0.81793500  1
  O  O1  1  0.24746800  0.50290800  0.93353200  1
  O  O2  1  0.24746800  0.99709200  0.06646800  1
  O  O3  1  0.60975700  0.48335100  0.35812300  1
  O  O4  1  0.26063600  0.83312000  0.81762500  1
  O  O5  1  0.39024300  0.98335100  0.35812300  1
  O  O6  1  0.73936400  0.33312000  0.81762500  1
  O  O7  1  0.25925500  0.31784500  0.18206500  1
  O  O8  1  0.75253200  0.00290800  0.93353200  1
  O  O9  1  0.26063600  0.66688000  0.18237500  1
  O  O10  1  0.60975700  0.01664900  0.64187700  1
  O  O11  1  0.73936400  0.16688000  0.18237500  1
  O  O12  1  0.74074500  0.81784500  0.18206500  1
  O  O13  1  0.39024300  0.51664900  0.64187700  1
  O  O14  1  0.25925500  0.18215500  0.81793500  1
  O  O15  1  0.75253200  0.49709200  0.06646800  1
loop_
_geom_bond_atom_site_label_1
_geom_bond_atom_site_label_2
_geom_bond_distance
_geom_bond_site_symmetry_2
Cs0 O5 3.182028 1_545
Cs0 O13 3.182028 1_555
Cs0 O3 3.182054 1_455
Cs0 O10 3.182054 1_455
Cs0 O7 3.335068 1_555
Cs0 O14 3.335068 1_555
Cs0 O11 3.542681 1_455
Cs0 O6 3.542681 1_455
Cs0 O3 3.726917 1_555
Cs0 O10 3.726917 1_555
Cs1 O10 3.182028 1_565
Cs1 O3 3.182028 1_555
Cs1 O5 3.182054 1_655
Cs1 O13 3.182054 1_655
Cs1 O12 3.335068 1_555
Cs1 O0 3.335068 1_555
Cs1 O9 3.542681 1_655
Cs1 O4 3.542681 1_655
Cs1 O5 3.726917 1_555
Cs1 O13 3.726917 1_555
Dy0 O7 2.302452 1_655
Dy0 O14 2.302452 1_654
Dy0 O6 2.303346 1_554
Dy0 O11 2.303346 1_555
Dy0 O8 2.485082 1_554
Dy0 O15 2.485082 1_555
Dy0 O1 2.491829 1_654
Dy0 O2 2.491829 1_645
Dy1 O12 2.302452 1_455
Dy1 O0 2.302452 1_454
Dy1 O9 2.303346 1_555
Dy1 O4 2.303346 1_554
Dy1 O1 2.485082 1_554
Dy1 O2 2.485082 1_555
Dy1 O8 2.491829 1_464
Dy1 O15 2.491829 1_455
Mo0 O10 1.752773 1_555
Mo0 O4 1.808399 1_545
Mo0 O14 1.809656 1_555
Mo0 O8 1.866971 1_555
Mo1 O3 1.752773 1_555
Mo1 O9 1.808399 1_555
Mo1 O7 1.809656 1_555
Mo1 O15 1.866971 1_555
Mo2 O13 1.752773 1_555
Mo2 O6 1.808399 1_555
Mo2 O0 1.809656 1_555
Mo2 O1 1.866971 1_555
Mo3 O5 1.752773 1_555
Mo3 O11 1.808399 1_565
Mo3 O12 1.809656 1_555
Mo3 O2 1.866971 1_555
