# generated using pymatgen
data_HoCoSn
_symmetry_space_group_name_H-M   'P 1'
_cell_length_a   4.57619835
_cell_length_b   7.29813520
_cell_length_c   7.42619418
_cell_angle_alpha   89.99728393
_cell_angle_beta   90.00000000
_cell_angle_gamma   90.00000000
_symmetry_Int_Tables_number   1
_chemical_formula_structural   HoCoSn
_chemical_formula_sum   'Ho4 Co4 Sn4'
_cell_volume   248.01791113
_cell_formula_units_Z   4
loop_
 _symmetry_equiv_pos_site_id
 _symmetry_equiv_pos_as_xyz
  1  'x, y, z'
loop_
 _atom_site_type_symbol
 _atom_site_label
 _atom_site_symmetry_multiplicity
 _atom_site_fract_x
 _atom_site_fract_y
 _atom_site_fract_z
 _atom_site_occupancy
  Ho  Ho0  1  0.25000000  0.47659550  0.28715773  1
  Ho  Ho1  1  0.25000000  0.97665580  0.21281377  1
  Ho  Ho2  1  0.75000000  0.02334420  0.78718623  1
  Ho  Ho3  1  0.75000000  0.52340450  0.71284227  1
  Co  Co0  1  0.75000000  0.84295189  0.43422635  1
  Co  Co1  1  0.25000000  0.15704811  0.56577365  1
  Co  Co2  1  0.75000000  0.34295681  0.06578989  1
  Co  Co3  1  0.25000000  0.65704319  0.93421011  1
  Sn  Sn0  1  0.75000000  0.70980124  0.10297660  1
  Sn  Sn1  1  0.25000000  0.79016979  0.60295650  1
  Sn  Sn2  1  0.25000000  0.29019876  0.89702340  1
  Sn  Sn3  1  0.75000000  0.20983021  0.39704350  1
loop_
_geom_bond_atom_site_label_1
_geom_bond_atom_site_label_2
_geom_bond_distance
_geom_bond_site_symmetry_2
Ho0 Sn3 3.113123 1_455
Ho0 Sn3 3.113123 1_555
Ho0 Sn0 3.162697 1_555
Ho0 Sn0 3.162697 1_455
Ho0 Sn2 3.200745 1_554
Ho0 Sn1 3.276837 1_555
Ho1 Sn0 3.113484 1_555
Ho1 Sn0 3.113484 1_455
Ho1 Sn3 3.162799 1_465
Ho1 Sn3 3.162799 1_565
Ho1 Sn1 3.200961 1_555
Ho1 Sn2 3.276477 1_564
Ho2 Sn2 3.113484 1_655
Ho2 Sn2 3.113484 1_555
Ho2 Sn1 3.162799 1_545
Ho2 Sn1 3.162799 1_645
Ho2 Sn3 3.200961 1_555
Ho2 Sn0 3.276477 1_546
Ho3 Sn1 3.113123 1_555
Ho3 Sn1 3.113123 1_655
Ho3 Sn2 3.162697 1_555
Ho3 Sn2 3.162697 1_655
Ho3 Sn0 3.200745 1_556
Ho3 Sn3 3.276837 1_555
Co0 Sn1 2.637007 1_555
Co0 Sn1 2.637007 1_655
Co0 Sn0 2.644950 1_555
Co0 Sn3 2.691715 1_565
Co0 Ho2 2.933256 1_565
Co0 Ho1 2.981774 1_555
Co0 Ho1 2.981774 1_655
Co0 Ho3 3.117567 1_555
Co1 Sn3 2.637007 1_455
Co1 Sn3 2.637007 1_555
Co1 Sn2 2.644950 1_555
Co1 Sn1 2.691715 1_545
Co1 Ho1 2.933256 1_545
Co1 Ho2 2.981774 1_455
Co1 Ho2 2.981774 1_555
Co1 Ho0 3.117567 1_555
Co2 Sn2 2.637127 1_654
Co2 Sn2 2.637127 1_554
Co2 Sn3 2.644826 1_555
Co2 Sn0 2.691498 1_555
Co2 Ho3 2.933245 1_554
Co2 Ho0 2.981486 1_555
Co2 Ho0 2.981486 1_655
Co2 Ho2 3.118010 1_554
Co3 Sn0 2.637127 1_556
Co3 Sn0 2.637127 1_456
Co3 Sn1 2.644826 1_555
Co3 Sn2 2.691498 1_555
Co3 Ho0 2.933245 1_556
Co3 Ho3 2.981486 1_455
Co3 Ho3 2.981486 1_555
Co3 Ho1 3.118010 1_556
