# generated using pymatgen
data_Al2FeO4
_symmetry_space_group_name_H-M   'P 1'
_cell_length_a   5.82755134
_cell_length_b   5.83616304
_cell_length_c   35.04382105
_cell_angle_alpha   59.99175739
_cell_angle_beta   60.10591032
_cell_angle_gamma   59.94658287
_symmetry_Int_Tables_number   1
_chemical_formula_structural   Al2FeO4
_chemical_formula_sum   'Al24 Fe12 O48'
_cell_volume   843.05012354
_cell_formula_units_Z   12
loop_
 _symmetry_equiv_pos_site_id
 _symmetry_equiv_pos_as_xyz
  1  'x, y, z'
loop_
 _atom_site_type_symbol
 _atom_site_label
 _atom_site_symmetry_multiplicity
 _atom_site_fract_x
 _atom_site_fract_y
 _atom_site_fract_z
 _atom_site_occupancy
  Al  Al0  1  0.49509787  0.49670379  0.08343444  1
  Al  Al1  1  0.49582023  0.00917518  0.08332885  1
  Al  Al2  1  0.00776481  0.49807183  0.08308696  1
  Al  Al3  1  0.49757989  0.49388067  0.25103416  1
  Al  Al4  1  0.50022500  0.49993880  0.33323837  1
  Al  Al5  1  0.49864369  0.00233450  0.25077464  1
  Al  Al6  1  0.88161041  0.88176532  0.14284261  1
  Al  Al7  1  0.00452713  0.49496854  0.25103163  1
  Al  Al8  1  0.50088607  0.50273284  0.41616043  1
  Al  Al9  1  0.50065968  0.50004559  0.49968854  1
  Al  Al10  1  0.50107706  0.00154414  0.41634648  1
  Al  Al11  1  0.00076342  0.50266130  0.41624494  1
  Al  Al12  1  0.49816275  0.49973306  0.58332156  1
  Al  Al13  1  0.50066561  0.50057981  0.66643855  1
  Al  Al14  1  0.49935091  0.99990677  0.58292860  1
  Al  Al15  1  0.99992639  0.49977470  0.58296686  1
  Al  Al16  1  0.50011772  0.49794285  0.75005385  1
  Al  Al17  1  0.00557088  0.49883489  0.91596856  1
  Al  Al18  1  0.50142573  0.50115305  0.83249667  1
  Al  Al19  1  0.50125820  0.99918666  0.74978739  1
  Al  Al20  1  0.00174032  0.49779178  0.75015236  1
  Al  Al21  1  0.49748119  0.49971717  0.91604643  1
  Al  Al22  1  0.49623717  0.00684027  0.91625595  1
  Al  Al23  1  0.87698396  0.87772166  0.97802681  1
  Fe  Fe0  1  0.12201194  0.12326092  0.02233804  1
  Fe  Fe1  1  0.12177220  0.12049865  0.18933580  1
  Fe  Fe2  1  0.49601885  0.49763033  0.16823649  1
  Fe  Fe3  1  0.12253464  0.12346461  0.35542540  1
  Fe  Fe4  1  0.12476578  0.12489080  0.52054691  1
  Fe  Fe5  1  0.88046782  0.87955065  0.30990010  1
  Fe  Fe6  1  0.12563665  0.12563675  0.68729007  1
  Fe  Fe7  1  0.12353649  0.12377803  0.85461398  1
  Fe  Fe8  1  0.87577041  0.87632711  0.47848285  1
  Fe  Fe9  1  0.87405332  0.87692570  0.64562002  1
  Fe  Fe10  1  0.87334146  0.87385038  0.81321244  1
  Fe  Fe11  1  0.50192084  0.50181636  0.99957944  1
  O  O0  1  0.25578148  0.25731014  0.04678542  1
  O  O1  1  0.25967848  0.26344138  0.11882279  1
  O  O2  1  0.25096206  0.70981574  0.04807184  1
  O  O3  1  0.70828254  0.25160696  0.04836865  1
  O  O4  1  0.24865747  0.24526295  0.21660457  1
  O  O5  1  0.27032797  0.75903091  0.11913486  1
  O  O6  1  0.74661246  0.74704017  0.04359360  1
  O  O7  1  0.75658868  0.27132898  0.11945279  1
  O  O8  1  0.26313595  0.25775639  0.28638618  1
  O  O9  1  0.24831833  0.70607361  0.21696717  1
  O  O10  1  0.70792455  0.24646979  0.21671318  1
  O  O11  1  0.75469782  0.75665571  0.11986721  1
  O  O12  1  0.30503955  0.73207060  0.28870288  1
  O  O13  1  0.26409866  0.26645955  0.37824913  1
  O  O14  1  0.75349511  0.75196078  0.20754619  1
  O  O15  1  0.73369303  0.30353095  0.28885092  1
  O  O16  1  0.26624357  0.26775052  0.45075995  1
  O  O17  1  0.26588968  0.70247795  0.37764708  1
  O  O18  1  0.70126235  0.26614373  0.37816243  1
  O  O19  1  0.73272690  0.73013853  0.28916106  1
  O  O20  1  0.26555239  0.26621529  0.54402364  1
  O  O21  1  0.29773775  0.73626648  0.45558770  1
  O  O22  1  0.73534495  0.73672443  0.38203170  1
  O  O23  1  0.73588436  0.29832538  0.45558240  1
  O  O24  1  0.26535455  0.26241953  0.61729818  1
  O  O25  1  0.26339342  0.70181309  0.54464384  1
  O  O26  1  0.73346559  0.73366071  0.45597202  1
  O  O27  1  0.70200414  0.26368032  0.54462232  1
  O  O28  1  0.26513054  0.26469344  0.71122581  1
  O  O29  1  0.29563795  0.73323958  0.62282904  1
  O  O30  1  0.73197275  0.73379047  0.54939756  1
  O  O31  1  0.73274214  0.29750633  0.62240256  1
  O  O32  1  0.26647297  0.26222781  0.78417489  1
  O  O33  1  0.26608472  0.70187844  0.71100486  1
  O  O34  1  0.70312079  0.26448654  0.71123505  1
  O  O35  1  0.73347888  0.73411923  0.62237164  1
  O  O36  1  0.26670400  0.26956896  0.87681936  1
  O  O37  1  0.29669192  0.73289418  0.78889291  1
  O  O38  1  0.73640709  0.73001779  0.71638252  1
  O  O39  1  0.73403729  0.29412564  0.78962537  1
  O  O40  1  0.26826413  0.70244854  0.87631668  1
  O  O41  1  0.26426444  0.26630861  0.95073752  1
  O  O42  1  0.70097266  0.26874354  0.87688351  1
  O  O43  1  0.73644371  0.73232332  0.78908444  1
  O  O44  1  0.25855756  0.76083973  0.95274169  1
  O  O45  1  0.72708629  0.73054674  0.88568167  1
  O  O46  1  0.76031072  0.25963786  0.95267760  1
  O  O47  1  0.75805818  0.75853824  0.95366743  1
loop_
_geom_bond_atom_site_label_1
_geom_bond_atom_site_label_2
_geom_bond_distance
_geom_bond_site_symmetry_2
Al0 O2 1.884180 1_555
Al0 O3 1.885757 1_555
Al0 O1 1.938936 1_555
Al0 O7 1.973433 1_555
Al0 O5 1.974488 1_555
Al0 O6 2.072888 1_555
Al1 O3 1.882700 1_555
Al1 O0 1.896189 1_555
Al1 O1 1.933289 1_555
Al1 O5 1.969293 1_545
Al1 O11 1.974459 1_545
Al1 O6 2.068378 1_545
Al2 O2 1.882921 1_555
Al2 O0 1.898090 1_555
Al2 O1 1.924145 1_555
Al2 O7 1.977784 1_455
Al2 O11 1.983785 1_455
Al2 O6 2.053289 1_455
Al3 O9 1.875334 1_555
Al3 O10 1.878505 1_555
Al3 O15 1.922934 1_555
Al3 O12 1.931511 1_555
Al3 O8 1.947154 1_555
Al3 O14 2.122192 1_555
Al4 O12 1.917319 1_555
Al4 O19 1.920426 1_555
Al4 O15 1.922618 1_555
Al4 O17 1.946492 1_555
Al4 O18 1.949741 1_555
Al4 O13 1.950101 1_555
Al5 O10 1.878976 1_555
Al5 O4 1.881018 1_555
Al5 O19 1.927473 1_545
Al5 O12 1.928239 1_545
Al5 O8 1.941000 1_555
Al5 O14 2.105613 1_545
Al6 O5 1.851710 1_655
Al6 O14 1.852988 1_555
Al6 O7 1.855764 1_565
Al6 O11 1.857654 1_555
Al7 O9 1.884919 1_555
Al7 O4 1.890615 1_555
Al7 O15 1.922458 1_455
Al7 O19 1.930096 1_455
Al7 O8 1.943867 1_555
Al7 O14 2.109550 1_455
Al8 O18 1.928065 1_555
Al8 O17 1.930167 1_555
Al8 O22 1.941252 1_555
Al8 O16 1.944998 1_555
Al8 O21 1.950688 1_555
Al8 O23 1.951445 1_555
Al9 O26 1.933438 1_555
Al9 O21 1.935230 1_555
Al9 O23 1.935405 1_555
Al9 O20 1.945124 1_555
Al9 O27 1.951144 1_555
Al9 O25 1.958009 1_555
Al10 O13 1.927322 1_555
Al10 O18 1.928125 1_555
Al10 O21 1.943149 1_545
Al10 O26 1.946504 1_545
Al10 O22 1.951333 1_545
Al10 O16 1.959686 1_555
Al11 O13 1.925752 1_555
Al11 O17 1.928836 1_555
Al11 O23 1.945126 1_455
Al11 O22 1.946783 1_455
Al11 O26 1.947923 1_455
Al11 O16 1.954030 1_555
Al12 O25 1.932153 1_555
Al12 O30 1.939337 1_555
Al12 O31 1.941848 1_555
Al12 O27 1.942165 1_555
Al12 O24 1.949084 1_555
Al12 O29 1.953048 1_555
Al13 O29 1.930371 1_555
Al13 O35 1.934319 1_555
Al13 O31 1.938739 1_555
Al13 O33 1.945916 1_555
Al13 O34 1.951731 1_555
Al13 O28 1.956176 1_555
Al14 O27 1.933965 1_565
Al14 O20 1.934381 1_565
Al14 O30 1.938910 1_555
Al14 O24 1.942536 1_565
Al14 O35 1.947744 1_555
Al14 O29 1.950852 1_555
Al15 O25 1.930106 1_655
Al15 O20 1.938600 1_655
Al15 O30 1.943048 1_555
Al15 O31 1.947315 1_555
Al15 O24 1.949556 1_655
Al15 O35 1.952719 1_555
Al16 O34 1.934373 1_555
Al16 O33 1.937676 1_555
Al16 O37 1.941227 1_555
Al16 O38 1.942359 1_555
Al16 O32 1.945260 1_555
Al16 O39 1.951016 1_555
Al17 O45 1.916276 1_455
Al17 O36 1.924560 1_555
Al17 O41 1.930501 1_555
Al17 O40 1.933014 1_555
Al17 O46 2.003974 1_455
Al17 O47 2.009175 1_455
Al18 O39 1.923458 1_555
Al18 O40 1.926211 1_555
Al18 O37 1.929106 1_555
Al18 O42 1.929871 1_555
Al18 O43 1.931637 1_555
Al18 O36 1.935045 1_555
Al19 O28 1.934968 1_565
Al19 O34 1.937581 1_565
Al19 O32 1.945250 1_565
Al19 O43 1.948989 1_555
Al19 O38 1.949415 1_555
Al19 O37 1.952280 1_555
Al20 O28 1.935241 1_555
Al20 O38 1.936207 1_455
Al20 O32 1.939384 1_555
Al20 O33 1.941804 1_555
Al20 O43 1.941887 1_455
Al20 O39 1.954915 1_455
Al21 O45 1.920893 1_555
Al21 O41 1.931734 1_555
Al21 O42 1.932351 1_555
Al21 O40 1.935390 1_555
Al21 O44 1.991200 1_555
Al21 O46 1.992058 1_555
Al22 O45 1.917418 1_545
Al22 O36 1.928476 1_555
Al22 O41 1.931923 1_555
Al22 O42 1.933850 1_555
Al22 O44 2.001215 1_545
Al22 O47 2.006436 1_545
Al23 O44 1.821076 1_655
Al23 O46 1.822947 1_565
Al23 O47 1.832848 1_555
Al23 O6 1.877714 1_556
Fe0 O2 1.970534 1_545
Fe0 O3 1.971931 1_455
Fe0 O0 1.975023 1_555
Fe0 O41 2.050505 1_554
Fe1 O10 1.974977 1_455
Fe1 O9 1.978389 1_545
Fe1 O4 1.982356 1_555
Fe1 O1 2.019391 1_555
Fe2 O4 2.077067 1_555
Fe2 O9 2.083692 1_555
Fe2 O10 2.084908 1_555
Fe2 O11 2.145541 1_555
Fe2 O7 2.152860 1_555
Fe2 O5 2.153710 1_555
Fe3 O8 1.977278 1_555
Fe3 O17 2.004930 1_545
Fe3 O18 2.005358 1_455
Fe3 O13 2.007918 1_555
Fe4 O16 1.998743 1_555
Fe4 O27 2.012565 1_455
Fe4 O25 2.014673 1_545
Fe4 O20 2.014849 1_555
Fe5 O19 2.009835 1_555
Fe5 O15 2.020348 1_565
Fe5 O12 2.022083 1_655
Fe5 O22 2.065735 1_555
Fe6 O24 2.004538 1_555
Fe6 O28 2.011070 1_555
Fe6 O34 2.011355 1_455
Fe6 O33 2.017830 1_545
Fe7 O40 2.006921 1_545
Fe7 O36 2.011476 1_555
Fe7 O42 2.011679 1_455
Fe7 O32 2.017307 1_555
Fe8 O26 2.000996 1_555
Fe8 O21 2.008687 1_655
Fe8 O23 2.009578 1_565
Fe8 O30 2.030921 1_555
Fe9 O31 2.002686 1_565
Fe9 O29 2.006852 1_655
Fe9 O35 2.014399 1_555
Fe9 O38 2.026651 1_555
Fe10 O39 2.001248 1_565
Fe10 O37 2.015501 1_655
Fe10 O43 2.016082 1_555
Fe10 O45 2.075414 1_555
Fe11 O0 2.038146 1_556
Fe11 O3 2.072475 1_556
Fe11 O2 2.075608 1_556
Fe11 O47 2.120472 1_555
Fe11 O44 2.163741 1_555
Fe11 O46 2.165988 1_555
