# generated using pymatgen
data_H3CS
_symmetry_space_group_name_H-M   'P 1'
_cell_length_a   15.29296700
_cell_length_b   5.36854100
_cell_length_c   7.00677380
_cell_angle_alpha   72.77216430
_cell_angle_beta   90.00000000
_cell_angle_gamma   90.00000000
_symmetry_Int_Tables_number   1
_chemical_formula_structural   H3CS
_chemical_formula_sum   'H24 C8 S8'
_cell_volume   549.45318457
_cell_formula_units_Z   8
loop_
 _symmetry_equiv_pos_site_id
 _symmetry_equiv_pos_as_xyz
  1  'x, y, z'
loop_
 _atom_site_type_symbol
 _atom_site_label
 _atom_site_symmetry_multiplicity
 _atom_site_fract_x
 _atom_site_fract_y
 _atom_site_fract_z
 _atom_site_occupancy
  H  H0  1  0.28187500  0.46398200  0.45292400  1
  H  H1  1  0.38250600  0.32703400  0.56883300  1
  H  H2  1  0.64744700  0.71571600  0.66591200  1
  H  H3  1  0.21812500  0.46398200  0.95292400  1
  H  H4  1  0.10887700  0.52403400  0.42306200  1
  H  H5  1  0.96658500  0.20700800  0.65247400  1
  H  H6  1  0.78187500  0.53601800  0.04707600  1
  H  H7  1  0.39112300  0.52403400  0.92306200  1
  H  H8  1  0.11749400  0.32703400  0.06883300  1
  H  H9  1  0.03341500  0.79299200  0.34752600  1
  H  H10  1  0.88250600  0.67296600  0.93116700  1
  H  H11  1  0.46658500  0.79299200  0.84752600  1
  H  H12  1  0.61749400  0.67296600  0.43116700  1
  H  H13  1  0.53341500  0.20700800  0.15247400  1
  H  H14  1  0.89112300  0.47596600  0.57693800  1
  H  H15  1  0.71812500  0.53601800  0.54707600  1
  H  H16  1  0.63867400  0.18633700  0.26909900  1
  H  H17  1  0.86132600  0.18633700  0.76909900  1
  H  H18  1  0.36132600  0.81366300  0.73090100  1
  H  H19  1  0.35255300  0.28428400  0.33408800  1
  H  H20  1  0.60887700  0.47596600  0.07693800  1
  H  H21  1  0.14744700  0.28428400  0.83408800  1
  H  H22  1  0.13867400  0.81366300  0.23090100  1
  H  H23  1  0.85255300  0.71571600  0.16591200  1
  C  C0  1  0.65031200  0.58149700  0.57458000  1
  C  C1  1  0.89762700  0.26280800  0.62821500  1
  C  C2  1  0.84968800  0.58149700  0.07458000  1
  C  C3  1  0.10237300  0.73719200  0.37178500  1
  C  C4  1  0.34968800  0.41850300  0.42542000  1
  C  C5  1  0.60237300  0.26280800  0.12821500  1
  C  C6  1  0.39762700  0.73719200  0.87178500  1
  C  C7  1  0.15031200  0.41850300  0.92542000  1
  S  S0  1  0.91088300  0.28456700  0.18864800  1
  S  S1  1  0.65239400  0.11664200  0.95168700  1
  S  S2  1  0.41088300  0.71543300  0.31135200  1
  S  S3  1  0.34760600  0.88335800  0.04831300  1
  S  S4  1  0.15239400  0.88335800  0.54831300  1
  S  S5  1  0.84760600  0.11664200  0.45168700  1
  S  S6  1  0.58911700  0.28456700  0.68864800  1
  S  S7  1  0.08911700  0.71543300  0.81135200  1
loop_
_geom_bond_atom_site_label_1
_geom_bond_atom_site_label_2
_geom_bond_distance
_geom_bond_site_symmetry_2
C0 H15 1.095500 1_555
C0 H2 1.097175 1_555
C0 H12 1.100220 1_555
C0 S6 1.816873 1_555
C1 H5 1.095716 1_555
C1 H14 1.097711 1_555
C1 H17 1.100513 1_555
C1 S5 1.818173 1_555
C2 H6 1.095500 1_555
C2 H23 1.097175 1_555
C2 H10 1.100220 1_554
C2 S0 1.816873 1_555
C3 H9 1.095716 1_555
C3 H4 1.097711 1_555
C3 H22 1.100513 1_555
C3 S4 1.818173 1_555
C4 H0 1.095500 1_555
C4 H19 1.097175 1_555
C4 H1 1.100220 1_555
C4 S2 1.816873 1_555
C5 H13 1.095716 1_555
C5 H20 1.097711 1_555
C5 H16 1.100513 1_555
C5 S1 1.818173 1_554
C6 H11 1.095716 1_555
C6 H7 1.097711 1_555
C6 H18 1.100513 1_555
C6 S3 1.818173 1_556
C7 H3 1.095500 1_555
C7 H21 1.097175 1_555
C7 H8 1.100220 1_556
C7 S7 1.816873 1_555
S0 S5 2.040050 1_555
S1 S6 2.040050 1_555
S2 S3 2.040050 1_555
S4 S7 2.040050 1_555
