# generated using pymatgen
data_U3TiGe5
_symmetry_space_group_name_H-M   'P 1'
_cell_length_a   8.57030140
_cell_length_b   8.57030140
_cell_length_c   5.72781826
_cell_angle_alpha   90.00000000
_cell_angle_beta   90.00000000
_cell_angle_gamma   119.99680115
_symmetry_Int_Tables_number   1
_chemical_formula_structural   U3TiGe5
_chemical_formula_sum   'U6 Ti2 Ge10'
_cell_volume   364.35610489
_cell_formula_units_Z   2
loop_
 _symmetry_equiv_pos_site_id
 _symmetry_equiv_pos_as_xyz
  1  'x, y, z'
loop_
 _atom_site_type_symbol
 _atom_site_label
 _atom_site_symmetry_multiplicity
 _atom_site_fract_x
 _atom_site_fract_y
 _atom_site_fract_z
 _atom_site_occupancy
  U  U0  1  0.61406847  0.99996491  0.25000000  1
  U  U1  1  0.61410753  0.61410753  0.75000000  1
  U  U2  1  0.00002703  0.38592521  0.75000000  1
  U  U3  1  0.99996491  0.61406847  0.25000000  1
  U  U4  1  0.38592281  0.38592281  0.25000000  1
  U  U5  1  0.38592521  0.00002703  0.75000000  1
  Ti  Ti0  1  0.99998913  0.99998913  -0.00001851  1
  Ti  Ti1  1  0.99998913  0.99998913  0.50001851  1
  Ge  Ge0  1  0.26085587  0.99995727  0.25000000  1
  Ge  Ge1  1  0.26083231  0.26083231  0.75000000  1
  Ge  Ge2  1  0.00001801  0.73914271  0.75000000  1
  Ge  Ge3  1  0.99995727  0.26085587  0.25000000  1
  Ge  Ge4  1  0.73915756  0.73915756  0.25000000  1
  Ge  Ge5  1  0.73914271  0.00001801  0.75000000  1
  Ge  Ge6  1  0.33331210  0.66671042  0.99999434  1
  Ge  Ge7  1  0.66671042  0.33331210  0.50000566  1
  Ge  Ge8  1  0.66671042  0.33331210  0.99999434  1
  Ge  Ge9  1  0.33331210  0.66671042  0.50000566  1
loop_
_geom_bond_atom_site_label_1
_geom_bond_atom_site_label_2
_geom_bond_distance
_geom_bond_site_symmetry_2
Ge0 Ti1 2.655144 1_455
Ge0 Ti0 2.655144 1_455
Ge0 U3 2.922826 1_455
Ge0 U4 2.923268 1_565
Ge0 U0 3.027106 1_555
Ge0 U5 3.057820 1_565
Ge0 U5 3.057820 1_564
Ge1 Ti0 2.654836 1_446
Ge1 Ti1 2.654836 1_445
Ge1 U5 2.922578 1_555
Ge1 U2 2.922578 1_555
Ge1 U1 3.027822 1_555
Ge1 U4 3.058007 1_556
Ge1 U4 3.058007 1_555
Ge2 Ti0 2.654873 1_456
Ge2 Ti1 2.654873 1_455
Ge2 U1 2.922875 1_455
Ge2 U5 2.922933 1_565
Ge2 U2 3.027219 1_555
Ge2 U3 3.057860 1_456
Ge2 U3 3.057860 1_455
Ge3 Ti0 2.655144 1_545
Ge3 Ti1 2.655144 1_545
Ge3 U0 2.922826 1_545
Ge3 U4 2.923268 1_655
Ge3 U3 3.027106 1_555
Ge3 U2 3.057820 1_654
Ge3 U2 3.057820 1_655
Ge4 Ti0 2.654867 1_555
Ge4 Ti1 2.654867 1_555
Ge4 U3 2.922570 1_555
Ge4 U0 2.922570 1_555
Ge4 U4 3.027475 1_555
Ge4 U1 3.057885 1_554
Ge4 U1 3.057885 1_555
Ge5 Ti1 2.654873 1_545
Ge5 Ti0 2.654873 1_546
Ge5 U1 2.922875 1_545
Ge5 U2 2.922933 1_655
Ge5 U5 3.027219 1_555
Ge5 U0 3.057860 1_545
Ge5 U0 3.057860 1_546
Ge6 Ge9 2.863844 1_555
Ge6 Ge9 2.863974 1_556
Ge6 U0 3.020913 1_556
Ge6 U5 3.020938 1_565
Ge6 U2 3.021106 1_555
Ge6 U3 3.021117 1_456
Ge6 U1 3.021538 1_555
Ge6 U4 3.021547 1_556
Ge7 Ge8 2.863844 1_555
Ge7 Ge8 2.863974 1_554
Ge7 U3 3.020913 1_555
Ge7 U2 3.020938 1_655
Ge7 U5 3.021106 1_555
Ge7 U0 3.021117 1_545
Ge7 U1 3.021538 1_555
Ge7 U4 3.021547 1_555
Ge8 U3 3.020913 1_556
Ge8 U2 3.020938 1_655
Ge8 U5 3.021106 1_555
Ge8 U0 3.021117 1_546
Ge8 U1 3.021538 1_555
Ge8 U4 3.021547 1_556
Ge9 U0 3.020913 1_555
Ge9 U5 3.020938 1_565
Ge9 U2 3.021106 1_555
Ge9 U3 3.021117 1_455
Ge9 U1 3.021538 1_555
Ge9 U4 3.021547 1_555
