# generated using pymatgen
data_BaUTiO6
_symmetry_space_group_name_H-M   'P 1'
_cell_length_a   8.65235700
_cell_length_b   6.62332300
_cell_length_c   10.29983798
_cell_angle_alpha   76.88722747
_cell_angle_beta   90.00000000
_cell_angle_gamma   90.00000000
_symmetry_Int_Tables_number   1
_chemical_formula_structural   BaUTiO6
_chemical_formula_sum   'Ba4 U4 Ti4 O24'
_cell_volume   574.86578145
_cell_formula_units_Z   4
loop_
 _symmetry_equiv_pos_site_id
 _symmetry_equiv_pos_as_xyz
  1  'x, y, z'
loop_
 _atom_site_type_symbol
 _atom_site_label
 _atom_site_symmetry_multiplicity
 _atom_site_fract_x
 _atom_site_fract_y
 _atom_site_fract_z
 _atom_site_occupancy
  Ba  Ba0  1  0.23417900  0.46475100  0.34221900  1
  Ba  Ba1  1  0.76582100  0.53524900  0.65778100  1
  Ba  Ba2  1  0.73417900  0.53524900  0.15778100  1
  Ba  Ba3  1  0.26582100  0.46475100  0.84221900  1
  U  U0  1  0.51828900  0.97743600  0.32195100  1
  U  U1  1  0.98171100  0.97743600  0.82195100  1
  U  U2  1  0.48171100  0.02256400  0.67804900  1
  U  U3  1  0.01828900  0.02256400  0.17804900  1
  Ti  Ti0  1  0.15068400  0.88515700  0.54993100  1
  Ti  Ti1  1  0.65068400  0.11484300  0.95006900  1
  Ti  Ti2  1  0.84931600  0.11484300  0.45006900  1
  Ti  Ti3  1  0.34931600  0.88515700  0.04993100  1
  O  O0  1  0.01034600  0.26600300  0.76366300  1
  O  O1  1  0.56239100  0.92843000  0.11275100  1
  O  O2  1  0.04460300  0.31082900  0.12653100  1
  O  O3  1  0.54460300  0.68917100  0.37346900  1
  O  O4  1  0.28616900  0.91772300  0.22351800  1
  O  O5  1  0.98965400  0.73399700  0.23633700  1
  O  O6  1  0.14983400  0.00393200  0.98793100  1
  O  O7  1  0.64983400  0.99606800  0.51206900  1
  O  O8  1  0.21383100  0.91772300  0.72351800  1
  O  O9  1  0.06239100  0.07157000  0.38724900  1
  O  O10  1  0.85016600  0.99606800  0.01206900  1
  O  O11  1  0.93760900  0.92843000  0.61275100  1
  O  O12  1  0.65940500  0.37696400  0.94566600  1
  O  O13  1  0.95539700  0.68917100  0.87346900  1
  O  O14  1  0.84059500  0.37696400  0.44566600  1
  O  O15  1  0.34059500  0.62303600  0.05433400  1
  O  O16  1  0.15940500  0.62303600  0.55433400  1
  O  O17  1  0.35016600  0.00393200  0.48793100  1
  O  O18  1  0.71383100  0.08227700  0.77648200  1
  O  O19  1  0.45539700  0.31082900  0.62653100  1
  O  O20  1  0.43760900  0.07157000  0.88724900  1
  O  O21  1  0.78616900  0.08227700  0.27648200  1
  O  O22  1  0.51034600  0.73399700  0.73633700  1
  O  O23  1  0.48965400  0.26600300  0.26366300  1
loop_
_geom_bond_atom_site_label_1
_geom_bond_atom_site_label_2
_geom_bond_distance
_geom_bond_site_symmetry_2
Ba0 O16 2.707405 1_555
Ba0 O23 2.785123 1_555
Ba0 O5 2.821938 1_455
Ba0 O9 2.942457 1_555
Ba0 O4 3.005639 1_555
Ba0 O15 3.054276 1_555
Ba0 O2 3.113321 1_555
Ba0 O3 3.121560 1_555
Ba0 O17 3.239872 1_555
Ba0 O19 3.453070 1_555
Ba1 O14 2.707405 1_555
Ba1 O22 2.785123 1_555
Ba1 O0 2.821938 1_655
Ba1 O11 2.942457 1_555
Ba1 O18 3.005639 1_555
Ba1 O12 3.054276 1_555
Ba1 O13 3.113321 1_555
Ba1 O19 3.121560 1_555
Ba1 O7 3.239872 1_555
Ba1 O3 3.453070 1_555
Ba2 O12 2.707405 1_554
Ba2 O5 2.785123 1_555
Ba2 O23 2.821938 1_555
Ba2 O1 2.942457 1_555
Ba2 O21 3.005639 1_555
Ba2 O14 3.054276 1_555
Ba2 O3 3.113321 1_555
Ba2 O2 3.121560 1_655
Ba2 O10 3.239872 1_555
Ba2 O13 3.453070 1_554
Ba3 O15 2.707405 1_556
Ba3 O0 2.785123 1_555
Ba3 O22 2.821938 1_555
Ba3 O20 2.942457 1_555
Ba3 O8 3.005639 1_555
Ba3 O16 3.054276 1_555
Ba3 O19 3.113321 1_555
Ba3 O13 3.121560 1_455
Ba3 O6 3.239872 1_555
Ba3 O2 3.453070 1_556
O0 U1 1.885242 1_445
O1 Ti1 1.994231 1_564
O1 Ti3 1.995948 1_555
O1 U0 2.282793 1_555
O2 U3 1.875910 1_555
O3 U0 1.875910 1_555
O4 Ti3 1.927869 1_555
O4 U0 2.323757 1_555
O4 U3 2.434363 1_565
O5 U3 1.885242 1_665
O6 Ti3 1.943648 1_546
O6 U1 2.281574 1_445
O6 U3 2.292336 1_556
O7 Ti2 1.943648 1_565
O7 U2 2.281574 1_565
O7 U0 2.292336 1_555
O8 Ti0 1.927869 1_555
O8 U1 2.323757 1_455
O8 U2 2.434363 1_565
O9 Ti0 1.994231 1_545
O9 Ti2 1.995948 1_455
O9 U3 2.282793 1_555
O10 Ti1 1.943648 1_564
O10 U3 2.281574 1_665
O10 U1 2.292336 1_554
O11 Ti2 1.994231 1_565
O11 Ti0 1.995948 1_655
O11 U1 2.282793 1_555
O12 Ti1 1.728037 1_555
O13 U1 1.875910 1_555
O14 Ti2 1.728037 1_555
O15 Ti3 1.728037 1_555
O16 Ti0 1.728037 1_555
O17 Ti0 1.943648 1_545
O17 U0 2.281574 1_545
O17 U2 2.292336 1_555
O18 Ti1 1.927869 1_555
O18 U2 2.323757 1_555
O18 U1 2.434363 1_545
O19 U2 1.875910 1_555
O20 Ti3 1.994231 1_546
O20 Ti1 1.995948 1_555
O20 U2 2.282793 1_555
O21 Ti2 1.927869 1_555
O21 U3 2.323757 1_655
O21 U0 2.434363 1_545
O22 U2 1.885242 1_565
O23 U0 1.885242 1_545
