# generated using pymatgen
data_Cs2IrF6
_symmetry_space_group_name_H-M   'P 1'
_cell_length_a   6.22012525
_cell_length_b   6.22011453
_cell_length_c   4.99223043
_cell_angle_alpha   90.00001032
_cell_angle_beta   89.99984044
_cell_angle_gamma   120.00028170
_symmetry_Int_Tables_number   1
_chemical_formula_structural   Cs2IrF6
_chemical_formula_sum   'Cs2 Ir1 F6'
_cell_volume   167.27133906
_cell_formula_units_Z   1
loop_
 _symmetry_equiv_pos_site_id
 _symmetry_equiv_pos_as_xyz
  1  'x, y, z'
loop_
 _atom_site_type_symbol
 _atom_site_label
 _atom_site_symmetry_multiplicity
 _atom_site_fract_x
 _atom_site_fract_y
 _atom_site_fract_z
 _atom_site_occupancy
  Cs  Cs0  1  0.66666739  0.33333342  0.20462939  1
  Cs  Cs1  1  0.33333261  0.66666658  0.79537064  1
  Ir  Ir0  1  0.00000004  -0.00000003  0.50000000  1
  F  F0  1  0.30358628  0.15179359  0.71702928  1
  F  F1  1  0.84820955  0.69641957  0.71702490  1
  F  F2  1  0.69641370  0.84820619  0.28297070  1
  F  F3  1  0.84821351  0.15178754  0.71702305  1
  F  F4  1  0.15179024  0.30358045  0.28297508  1
  F  F5  1  0.15178669  0.84821267  0.28297696  1
loop_
_geom_bond_atom_site_label_1
_geom_bond_atom_site_label_2
_geom_bond_distance
_geom_bond_site_symmetry_2
Cs0 F0 3.122612 1_554
Cs0 F1 3.122637 1_554
Cs0 F3 3.122670 1_554
Cs0 F5 3.138638 1_655
Cs0 F2 3.138641 1_555
Cs0 F5 3.138645 1_545
Cs0 F2 3.138648 1_545
Cs0 F4 3.138652 1_655
Cs0 F4 3.138657 1_555
Cs0 F0 3.220049 1_555
Cs0 F1 3.220053 1_555
Cs0 F3 3.220072 1_555
Cs1 F2 3.122612 1_556
Cs1 F4 3.122637 1_556
Cs1 F5 3.122670 1_556
Cs1 F3 3.138637 1_455
Cs1 F0 3.138643 1_555
Cs1 F0 3.138647 1_565
Cs1 F3 3.138647 1_565
Cs1 F1 3.138653 1_455
Cs1 F1 3.138655 1_555
Cs1 F2 3.220049 1_555
Cs1 F4 3.220053 1_555
Cs1 F5 3.220072 1_555
F0 Ir0 1.961700 1_555
F1 Ir0 1.961655 1_665
F2 Ir0 1.961700 1_665
F3 Ir0 1.961628 1_655
F4 Ir0 1.961655 1_555
F5 Ir0 1.961627 1_565
