# generated using pymatgen
data_KCBr(NO2)2
_symmetry_space_group_name_H-M   'P 1'
_cell_length_a   6.45918600
_cell_length_b   7.59838071
_cell_length_c   7.47057970
_cell_angle_alpha   116.14758734
_cell_angle_beta   103.07832530
_cell_angle_gamma   97.46012037
_symmetry_Int_Tables_number   1
_chemical_formula_structural   KCBr(NO2)2
_chemical_formula_sum   'K2 C2 Br2 N4 O8'
_cell_volume   309.34612989
_cell_formula_units_Z   2
loop_
 _symmetry_equiv_pos_site_id
 _symmetry_equiv_pos_as_xyz
  1  'x, y, z'
loop_
 _atom_site_type_symbol
 _atom_site_label
 _atom_site_symmetry_multiplicity
 _atom_site_fract_x
 _atom_site_fract_y
 _atom_site_fract_z
 _atom_site_occupancy
  K  K0  1  0.33219400  0.27810200  0.12660200  1
  K  K1  1  0.66780600  0.72189800  0.87339800  1
  C  C0  1  0.96083700  0.25005800  0.53551000  1
  C  C1  1  0.03916300  0.74994200  0.46449000  1
  Br  Br0  1  0.81241100  0.20836700  0.70704400  1
  Br  Br1  1  0.18758900  0.79163300  0.29295600  1
  N  N0  1  0.84351800  0.17288800  0.32435900  1
  N  N1  1  0.15648200  0.82711200  0.67564100  1
  N  N2  1  0.18152000  0.35940400  0.62607900  1
  N  N3  1  0.81848000  0.64059600  0.37392100  1
  O  O0  1  0.71792300  0.58157300  0.47254300  1
  O  O1  1  0.72140400  0.59659200  0.18621100  1
  O  O2  1  0.35977300  0.91547700  0.73690300  1
  O  O3  1  0.64022700  0.08452300  0.26309700  1
  O  O4  1  0.28207700  0.41842700  0.52745700  1
  O  O5  1  0.93511200  0.18343000  0.19525200  1
  O  O6  1  0.27859600  0.40340800  0.81378900  1
  O  O7  1  0.06488800  0.81657000  0.80474800  1
loop_
_geom_bond_atom_site_label_1
_geom_bond_atom_site_label_2
_geom_bond_distance
_geom_bond_site_symmetry_2
K0 O5 2.792881 1_455
K0 O4 2.814880 1_555
K0 O6 2.857968 1_554
K0 O3 2.885422 1_555
K0 O0 2.923260 1_555
K0 O1 3.055906 1_555
K0 O2 3.064545 1_544
K0 O7 3.190267 1_544
K1 O7 2.792881 1_655
K1 O0 2.814880 1_555
K1 O1 2.857968 1_556
K1 O2 2.885422 1_555
K1 O4 2.923260 1_555
K1 O6 3.055906 1_555
K1 O3 3.064545 1_566
K1 O5 3.190267 1_566
C0 N0 1.390951 1_555
C0 N2 1.393012 1_655
C1 N1 1.390951 1_555
C1 N3 1.393012 1_455
Br0 C0 1.869903 1_555
Br1 C1 1.869903 1_555
N0 O5 1.265201 1_555
N0 O3 1.269939 1_555
N1 O7 1.265201 1_555
N1 O2 1.269939 1_555
N2 O4 1.264112 1_555
N2 O6 1.267198 1_555
N3 O0 1.264112 1_555
N3 O1 1.267198 1_555
