# generated using pymatgen
data_KNa2
_symmetry_space_group_name_H-M   'P 1'
_cell_length_a   7.38878315
_cell_length_b   7.38878654
_cell_length_c   12.42137652
_cell_angle_alpha   90.00000000
_cell_angle_beta   90.00000000
_cell_angle_gamma   120.00002062
_symmetry_Int_Tables_number   1
_chemical_formula_structural   KNa2
_chemical_formula_sum   'K4 Na8'
_cell_volume   587.28148425
_cell_formula_units_Z   4
loop_
 _symmetry_equiv_pos_site_id
 _symmetry_equiv_pos_as_xyz
  1  'x, y, z'
loop_
 _atom_site_type_symbol
 _atom_site_label
 _atom_site_symmetry_multiplicity
 _atom_site_fract_x
 _atom_site_fract_y
 _atom_site_fract_z
 _atom_site_occupancy
  K  K0  1  0.66666700  0.33333300  0.93782803  1
  K  K1  1  0.33333300  0.66666700  0.43782803  1
  K  K2  1  0.33333300  0.66666700  0.06217197  1
  K  K3  1  0.66666700  0.33333300  0.56217197  1
  Na  Na0  1  0.33422294  0.16711097  0.25000000  1
  Na  Na1  1  0.16711097  0.83288803  0.75000000  1
  Na  Na2  1  0.16711097  0.33422294  0.75000000  1
  Na  Na3  1  0.83288903  0.66577706  0.25000000  1
  Na  Na4  1  0.83288903  0.16711197  0.25000000  1
  Na  Na5  1  0.00000000  -0.00000000  -0.00000000  1
  Na  Na6  1  0.66577706  0.83288903  0.75000000  1
  Na  Na7  1  -0.00000000  0.00000000  0.50000000  1
loop_
_geom_bond_atom_site_label_1
_geom_bond_atom_site_label_2
_geom_bond_distance
_geom_bond_site_symmetry_2
K0 Na5 4.335251 1_656
K0 Na5 4.335255 1_556
K0 Na5 4.335257 1_666
K0 Na2 4.369414 1_655
K0 Na6 4.369416 1_545
K0 Na1 4.369417 1_655
K0 Na1 4.369423 1_545
K0 Na2 4.369427 1_555
K0 Na6 4.369428 1_555
K0 Na4 4.422790 1_556
K0 Na0 4.422792 1_556
K0 Na3 4.422793 1_556
K0 K2 4.536909 1_656
K0 K2 4.536911 1_546
K0 K2 4.536923 1_556
K0 K3 4.666165 1_555
K1 Na7 4.335251 1_565
K1 Na7 4.335255 1_665
K1 Na7 4.335257 1_555
K1 Na3 4.369414 1_455
K1 Na0 4.369416 1_565
K1 Na4 4.369417 1_455
K1 Na4 4.369423 1_565
K1 Na3 4.369427 1_555
K1 Na0 4.369428 1_555
K1 Na1 4.422790 1_555
K1 Na6 4.422792 1_555
K1 Na2 4.422793 1_555
K1 K3 4.536909 1_455
K1 K3 4.536911 1_565
K1 K3 4.536923 1_555
K1 K2 4.666165 1_555
K2 Na5 4.335251 1_565
K2 Na5 4.335255 1_665
K2 Na5 4.335257 1_555
K2 Na3 4.369414 1_455
K2 Na0 4.369416 1_565
K2 Na4 4.369417 1_455
K2 Na4 4.369423 1_565
K2 Na3 4.369427 1_555
K2 Na0 4.369428 1_555
K2 Na1 4.422790 1_554
K2 Na6 4.422792 1_554
K2 Na2 4.422793 1_554
K3 Na7 4.335251 1_655
K3 Na7 4.335255 1_555
K3 Na7 4.335257 1_665
K3 Na2 4.369414 1_655
K3 Na6 4.369416 1_545
K3 Na1 4.369417 1_655
K3 Na1 4.369423 1_545
K3 Na2 4.369427 1_555
K3 Na6 4.369428 1_555
K3 Na4 4.422790 1_555
K3 Na0 4.422792 1_555
K3 Na3 4.422793 1_555
Na0 Na4 3.684532 1_555
Na0 Na3 3.684535 1_555
Na0 Na3 3.704247 1_445
Na0 Na4 3.704251 1_455
Na0 Na5 3.770542 1_555
Na0 Na7 3.770542 1_555
Na1 Na2 3.684530 1_555
Na1 Na6 3.684532 1_555
Na1 Na6 3.704251 1_455
Na1 Na2 3.704257 1_565
Na1 Na7 3.770543 1_565
Na1 Na5 3.770543 1_566
Na2 Na6 3.684535 1_555
Na2 Na6 3.704247 1_445
Na2 Na7 3.770542 1_555
Na2 Na5 3.770542 1_556
Na3 Na4 3.684530 1_555
Na3 Na4 3.704257 1_565
Na3 Na5 3.770542 1_665
Na3 Na7 3.770542 1_665
Na4 Na7 3.770543 1_655
Na4 Na5 3.770543 1_655
Na5 Na6 3.770542 1_444
Na6 Na7 3.770542 1_665
