# generated using pymatgen
data_Er3Mn3Ga2Si
_symmetry_space_group_name_H-M   'P 1'
_cell_length_a   3.90259900
_cell_length_b   7.03501500
_cell_length_c   7.03501500
_cell_angle_alpha   120.00000945
_cell_angle_beta   90.00000000
_cell_angle_gamma   90.00000000
_symmetry_Int_Tables_number   1
_chemical_formula_structural   Er3Mn3Ga2Si
_chemical_formula_sum   'Er3 Mn3 Ga2 Si1'
_cell_volume   167.26865909
_cell_formula_units_Z   1
loop_
 _symmetry_equiv_pos_site_id
 _symmetry_equiv_pos_as_xyz
  1  'x, y, z'
loop_
 _atom_site_type_symbol
 _atom_site_label
 _atom_site_symmetry_multiplicity
 _atom_site_fract_x
 _atom_site_fract_y
 _atom_site_fract_z
 _atom_site_occupancy
  Er  Er0  1  0.50000000  0.00000000  0.40704500  1
  Er  Er1  1  0.50000000  0.59295500  0.59295500  1
  Er  Er2  1  0.50000000  0.40704500  0.00000000  1
  Mn  Mn0  1  0.00000000  0.22024700  0.22024700  1
  Mn  Mn1  1  0.00000000  0.00000000  0.77975300  1
  Mn  Mn2  1  0.00000000  0.77975300  0.00000000  1
  Ga  Ga0  1  0.00000000  0.66666700  0.33333300  1
  Ga  Ga1  1  0.00000000  0.33333300  0.66666700  1
  Si  Si0  1  0.50000000  0.00000000  0.00000000  1
loop_
_geom_bond_atom_site_label_1
_geom_bond_atom_site_label_2
_geom_bond_distance
_geom_bond_site_symmetry_2
Er0 Si0 2.863568 1_555
Er0 Ga0 2.891277 1_545
Er0 Ga0 2.891277 1_645
Er0 Ga1 2.891278 1_555
Er0 Ga1 2.891278 1_655
Er0 Mn2 3.157757 1_545
Er0 Mn2 3.157757 1_645
Er0 Mn0 3.157757 1_555
Er0 Mn0 3.157757 1_655
Er0 Mn1 3.268407 1_555
Er0 Mn1 3.268407 1_655
Er1 Si0 2.863567 1_566
Er1 Ga0 2.891282 1_655
Er1 Ga1 2.891282 1_555
Er1 Ga0 2.891282 1_555
Er1 Ga1 2.891282 1_655
Er1 Mn1 3.157757 1_665
Er1 Mn1 3.157757 1_565
Er1 Mn2 3.157757 1_556
Er1 Mn2 3.157757 1_656
Er1 Mn0 3.268407 1_555
Er1 Mn0 3.268407 1_655
Er2 Si0 2.863568 1_555
Er2 Ga1 2.891277 1_654
Er2 Ga1 2.891277 1_554
Er2 Ga0 2.891278 1_555
Er2 Ga0 2.891278 1_655
Er2 Mn1 3.157757 1_654
Er2 Mn1 3.157757 1_554
Er2 Mn0 3.157757 1_655
Er2 Mn0 3.157757 1_555
Er2 Mn2 3.268407 1_555
Er2 Mn2 3.268407 1_655
Mn0 Si0 2.491653 1_455
Mn0 Si0 2.491653 1_555
Mn0 Mn2 2.683710 1_545
Mn0 Mn1 2.683710 1_554
Mn1 Si0 2.491653 1_456
Mn1 Si0 2.491653 1_556
Mn1 Mn2 2.683711 1_546
Mn2 Si0 2.491653 1_465
Mn2 Si0 2.491653 1_565
Ga0 Mn2 2.827994 1_555
Ga0 Mn1 2.827999 1_565
Ga0 Mn0 2.828001 1_555
Ga1 Mn1 2.827994 1_555
Ga1 Mn2 2.827999 1_556
Ga1 Mn0 2.828001 1_555
