# generated using pymatgen
data_NaGdH2S2O9
_symmetry_space_group_name_H-M   'P 1'
_cell_length_a   6.99002729
_cell_length_b   6.99002729
_cell_length_c   12.87657600
_cell_angle_alpha   90.00000000
_cell_angle_beta   90.00000000
_cell_angle_gamma   119.99999327
_symmetry_Int_Tables_number   1
_chemical_formula_structural   NaGdH2S2O9
_chemical_formula_sum   'Na3 Gd3 H6 S6 O27'
_cell_volume   544.86485905
_cell_formula_units_Z   3
loop_
 _symmetry_equiv_pos_site_id
 _symmetry_equiv_pos_as_xyz
  1  'x, y, z'
loop_
 _atom_site_type_symbol
 _atom_site_label
 _atom_site_symmetry_multiplicity
 _atom_site_fract_x
 _atom_site_fract_y
 _atom_site_fract_z
 _atom_site_occupancy
  Na  Na0  1  0.47040600  0.00000000  0.16666700  1
  Na  Na1  1  0.52959400  0.52959400  0.50000000  1
  Na  Na2  1  0.00000000  0.47040600  0.83333300  1
  Gd  Gd0  1  0.44069500  0.00000000  0.66666700  1
  Gd  Gd1  1  0.55930500  0.55930500  0.00000000  1
  Gd  Gd2  1  0.00000000  0.44069500  0.33333300  1
  H  H0  1  0.06196900  0.10227600  0.62926000  1
  H  H1  1  0.89772400  0.95969300  0.29592600  1
  H  H2  1  0.93803100  0.04030700  0.03740700  1
  H  H3  1  0.95969300  0.89772400  0.70407400  1
  H  H4  1  0.10227600  0.06196900  0.37074000  1
  H  H5  1  0.04030700  0.93803100  0.96259300  1
  S  S0  1  0.55563700  0.54394600  0.24175800  1
  S  S1  1  0.98831000  0.44436300  0.57509200  1
  S  S2  1  0.54394600  0.55563700  0.75824200  1
  S  S3  1  0.45605400  0.01169000  0.90842500  1
  S  S4  1  0.44436300  0.98831000  0.42490800  1
  S  S5  1  0.01169000  0.45605400  0.09157500  1
  O  O0  1  0.58731700  0.75447500  0.69747900  1
  O  O1  1  0.41268300  0.16715800  0.96918700  1
  O  O2  1  0.16715800  0.41268300  0.03081300  1
  O  O3  1  0.75447500  0.58731700  0.30252100  1
  O  O4  1  0.48588000  0.35486200  0.16857500  1
  O  O5  1  0.73940400  0.61120300  0.82601300  1
  O  O6  1  0.24552500  0.83284200  0.36414600  1
  O  O7  1  0.64513800  0.13101800  0.83524200  1
  O  O8  1  0.62108300  0.12578500  0.34983300  1
  O  O9  1  0.86898200  0.51412000  0.50190900  1
  O  O10  1  0.49529900  0.87421500  0.98350000  1
  O  O11  1  0.09377000  0.00000000  0.66666700  1
  O  O12  1  0.12820000  0.38879700  0.50732100  1
  O  O13  1  0.83284200  0.24552500  0.63585400  1
  O  O14  1  0.87180000  0.26059600  0.15934600  1
  O  O15  1  0.51412000  0.86898200  0.49809100  1
  O  O16  1  0.50470100  0.37891700  0.68316700  1
  O  O17  1  0.90623000  0.90623000  0.00000000  1
  O  O18  1  0.87421500  0.49529900  0.01650000  1
  O  O19  1  0.61120300  0.73940400  0.17398700  1
  O  O20  1  0.37891700  0.50470100  0.31683300  1
  O  O21  1  0.00000000  0.09377000  0.33333300  1
  O  O22  1  0.35486200  0.48588000  0.83142500  1
  O  O23  1  0.13101800  0.64513800  0.16475800  1
  O  O24  1  0.12578500  0.62108300  0.65016700  1
  O  O25  1  0.26059600  0.87180000  0.84065400  1
  O  O26  1  0.38879700  0.12820000  0.49267900  1
loop_
_geom_bond_atom_site_label_1
_geom_bond_atom_site_label_2
_geom_bond_distance
_geom_bond_site_symmetry_2
Na0 O4 2.428345 1_555
Na0 O23 2.428345 1_545
Na0 O19 2.467460 1_545
Na0 O14 2.467466 1_555
Na0 O8 2.553250 1_555
Na0 O10 2.553263 1_544
Na0 O6 2.909571 1_545
Na0 O1 2.909582 1_554
Na1 O9 2.428345 1_555
Na1 O15 2.428345 1_555
Na1 O26 2.467467 1_555
Na1 O12 2.467467 1_555
Na1 O16 2.553261 1_555
Na1 O20 2.553261 1_555
Na1 O0 2.909571 1_555
Na1 O3 2.909571 1_555
Na2 O22 2.428345 1_555
Na2 O7 2.428345 1_455
Na2 O5 2.467460 1_455
Na2 O25 2.467466 1_555
Na2 O24 2.553250 1_555
Na2 O18 2.553263 1_456
Na2 O13 2.909571 1_455
Na2 O2 2.909582 1_556
Gd0 O11 2.425015 1_555
Gd0 O0 2.431501 1_545
Gd0 O13 2.431503 1_555
Gd0 O24 2.464870 1_545
Gd0 O16 2.464872 1_555
Gd0 O25 2.505779 1_545
Gd0 O26 2.505788 1_555
Gd0 O7 2.506788 1_555
Gd0 O15 2.506799 1_545
Gd1 O17 2.425015 1_555
Gd1 O2 2.431503 1_555
Gd1 O1 2.431503 1_554
Gd1 O10 2.464865 1_554
Gd1 O18 2.464865 1_555
Gd1 O5 2.505780 1_554
Gd1 O19 2.505780 1_555
Gd1 O4 2.506788 1_555
Gd1 O22 2.506788 1_554
Gd2 O21 2.425015 1_555
Gd2 O3 2.431501 1_455
Gd2 O6 2.431503 1_555
Gd2 O8 2.464870 1_455
Gd2 O20 2.464872 1_555
Gd2 O14 2.505779 1_455
Gd2 O12 2.505788 1_555
Gd2 O23 2.506788 1_555
Gd2 O9 2.506799 1_455
H0 O11 0.975418 1_555
H1 O21 0.975418 1_665
H2 O17 0.975418 1_545
H3 O11 0.975418 1_665
H4 O21 0.975418 1_555
H5 O17 0.975418 1_456
O0 S2 1.488120 1_555
O1 S3 1.488119 1_555
O2 S5 1.488119 1_555
O3 S0 1.488120 1_555
O4 S0 1.492717 1_555
O5 S2 1.499462 1_555
O6 S4 1.488115 1_555
O7 S3 1.492718 1_555
O8 S4 1.482169 1_545
O9 S1 1.492722 1_555
O10 S3 1.482169 1_565
O12 S1 1.499451 1_455
O13 S1 1.488115 1_555
O14 S5 1.499459 1_655
O15 S4 1.492722 1_555
O16 S2 1.482169 1_555
O18 S5 1.482169 1_655
O19 S0 1.499462 1_555
O20 S0 1.482169 1_555
O22 S2 1.492717 1_555
O23 S5 1.492718 1_555
O24 S1 1.482169 1_455
O25 S3 1.499459 1_565
O26 S4 1.499451 1_545
