# generated using pymatgen
data_Li17Pb4
_symmetry_space_group_name_H-M   'P 1'
_cell_length_a   14.10542643
_cell_length_b   14.10542619
_cell_length_c   14.10542676
_cell_angle_alpha   60.00000106
_cell_angle_beta   60.00000162
_cell_angle_gamma   60.00000190
_symmetry_Int_Tables_number   1
_chemical_formula_structural   Li17Pb4
_chemical_formula_sum   'Li85 Pb20'
_cell_volume   1984.46608205
_cell_formula_units_Z   5
loop_
 _symmetry_equiv_pos_site_id
 _symmetry_equiv_pos_as_xyz
  1  'x, y, z'
loop_
 _atom_site_type_symbol
 _atom_site_label
 _atom_site_symmetry_multiplicity
 _atom_site_fract_x
 _atom_site_fract_y
 _atom_site_fract_z
 _atom_site_occupancy
  Li  Li0  1  0.43377809  0.69866572  0.43377809  1
  Li  Li1  1  0.57842689  0.57842689  0.26471932  1
  Li  Li2  1  0.16898830  0.51109208  0.80882755  1
  Li  Li3  1  0.26956517  0.92242923  0.53844044  1
  Li  Li4  1  0.01686223  0.67021239  0.01686223  1
  Li  Li5  1  0.92242923  0.53844044  0.26956517  1
  Li  Li6  1  0.57842689  0.26471932  0.57842689  1
  Li  Li7  1  0.06895973  0.75736585  0.41630858  1
  Li  Li8  1  0.05324966  0.05324966  0.84025103  1
  Li  Li9  1  0.41630858  0.06895973  0.75736585  1
  Li  Li10  1  0.05324966  0.84025103  0.05324966  1
  Li  Li11  1  0.80882755  0.51109208  0.51109208  1
  Li  Li12  1  0.43377809  0.43377809  0.43377809  1
  Li  Li13  1  0.82458752  0.82458752  0.82458752  1
  Li  Li14  1  0.06895973  0.75736585  0.75736585  1
  Li  Li15  1  0.57794574  0.92205426  0.57794574  1
  Li  Li16  1  0.06895973  0.41630858  0.75736585  1
  Li  Li17  1  0.16898830  0.80882755  0.51109208  1
  Li  Li18  1  0.26956517  0.53844044  0.92242923  1
  Li  Li19  1  0.67021239  0.29606316  0.01686223  1
  Li  Li20  1  0.57794574  0.92205426  0.92205426  1
  Li  Li21  1  0.82571080  0.82571080  0.17428920  1
  Li  Li22  1  0.52623744  0.82458752  0.82458752  1
  Li  Li23  1  0.82571080  0.17428920  0.17428920  1
  Li  Li24  1  0.29606316  0.01686223  0.67021239  1
  Li  Li25  1  0.57842689  0.57842689  0.57842689  1
  Li  Li26  1  0.84025103  0.05324966  0.05324966  1
  Li  Li27  1  0.51109208  0.80882755  0.51109208  1
  Li  Li28  1  0.05324966  0.05324966  0.05324966  1
  Li  Li29  1  0.41630858  0.75736585  0.75736585  1
  Li  Li30  1  0.16644844  0.16644844  0.16644844  1
  Li  Li31  1  0.17428920  0.82571080  0.17428920  1
  Li  Li32  1  0.29606316  0.01686223  0.01686223  1
  Li  Li33  1  0.82458752  0.82458752  0.52623744  1
  Li  Li34  1  0.75736585  0.06895973  0.75736585  1
  Li  Li35  1  0.01686223  0.01686223  0.29606316  1
  Li  Li36  1  0.16644844  0.50065467  0.16644844  1
  Li  Li37  1  0.51109208  0.51109208  0.80882755  1
  Li  Li38  1  0.69866572  0.43377809  0.43377809  1
  Li  Li39  1  0.92242923  0.26956517  0.26956517  1
  Li  Li40  1  0.82458752  0.52623744  0.82458752  1
  Li  Li41  1  0.26956517  0.92242923  0.26956517  1
  Li  Li42  1  0.16644844  0.16644844  0.50065467  1
  Li  Li43  1  0.01686223  0.29606316  0.67021239  1
  Li  Li44  1  0.16898830  0.51109208  0.51109208  1
  Li  Li45  1  0.75736585  0.41630858  0.06895973  1
  Li  Li46  1  0.01686223  0.29606316  0.01686223  1
  Li  Li47  1  0.26956517  0.53844044  0.26956517  1
  Li  Li48  1  0.75736585  0.06895973  0.41630858  1
  Li  Li49  1  0.67021239  0.01686223  0.01686223  1
  Li  Li50  1  0.30548761  0.30548761  0.30548761  1
  Li  Li51  1  0.51109208  0.80882755  0.16898830  1
  Li  Li52  1  0.53844044  0.26956517  0.92242923  1
  Li  Li53  1  0.01686223  0.01686223  0.67021239  1
  Li  Li54  1  0.92205426  0.57794574  0.57794574  1
  Li  Li55  1  0.51109208  0.51109208  0.16898830  1
  Li  Li56  1  0.75736585  0.75736585  0.06895973  1
  Li  Li57  1  0.26471932  0.57842689  0.57842689  1
  Li  Li58  1  0.50065467  0.16644844  0.16644844  1
  Li  Li59  1  0.43377809  0.43377809  0.69866572  1
  Li  Li60  1  0.80882755  0.51109208  0.16898830  1
  Li  Li61  1  0.92205426  0.57794574  0.92205426  1
  Li  Li62  1  0.29606316  0.67021239  0.01686223  1
  Li  Li63  1  0.30548761  0.30548761  0.08353718  1
  Li  Li64  1  0.75736585  0.41630858  0.75736585  1
  Li  Li65  1  0.51109208  0.16898830  0.80882755  1
  Li  Li66  1  0.67021239  0.01686223  0.29606316  1
  Li  Li67  1  0.57794574  0.57794574  0.92205426  1
  Li  Li68  1  0.08353718  0.30548761  0.30548761  1
  Li  Li69  1  0.53844044  0.26956517  0.26956517  1
  Li  Li70  1  0.01686223  0.67021239  0.29606316  1
  Li  Li71  1  0.80882755  0.16898830  0.51109208  1
  Li  Li72  1  0.75000000  0.75000000  0.75000000  1
  Li  Li73  1  0.17428920  0.82571080  0.82571080  1
  Li  Li74  1  0.17428920  0.17428920  0.82571080  1
  Li  Li75  1  0.41630858  0.75736585  0.06895973  1
  Li  Li76  1  0.82571080  0.17428920  0.82571080  1
  Li  Li77  1  0.92205426  0.92205426  0.57794574  1
  Li  Li78  1  0.75736585  0.75736585  0.41630858  1
  Li  Li79  1  0.92242923  0.26956517  0.53844044  1
  Li  Li80  1  0.53844044  0.92242923  0.26956517  1
  Li  Li81  1  0.30548761  0.08353718  0.30548761  1
  Li  Li82  1  0.26956517  0.26956517  0.53844044  1
  Li  Li83  1  0.51109208  0.16898830  0.51109208  1
  Li  Li84  1  0.26956517  0.26956517  0.92242923  1
  Pb  Pb0  1  0.00057464  0.66647512  0.66647512  1
  Pb  Pb1  1  0.67918154  0.32081846  0.32081846  1
  Pb  Pb2  1  0.66647512  0.66647512  0.66647512  1
  Pb  Pb3  1  0.32081846  0.32081846  0.67918154  1
  Pb  Pb4  1  0.66647512  0.66647512  0.00057464  1
  Pb  Pb5  1  0.90986256  0.90986256  0.27041232  1
  Pb  Pb6  1  0.32081846  0.67918154  0.32081846  1
  Pb  Pb7  1  0.66647512  0.00057464  0.66647512  1
  Pb  Pb8  1  0.67918154  0.32081846  0.67918154  1
  Pb  Pb9  1  0.07068069  0.42931931  0.42931931  1
  Pb  Pb10  1  0.07068069  0.42931931  0.07068069  1
  Pb  Pb11  1  0.32081846  0.67918154  0.67918154  1
  Pb  Pb12  1  0.42931931  0.07068069  0.42931931  1
  Pb  Pb13  1  0.67918154  0.67918154  0.32081846  1
  Pb  Pb14  1  0.90986256  0.90986256  0.90986256  1
  Pb  Pb15  1  0.27041232  0.90986256  0.90986256  1
  Pb  Pb16  1  0.07068069  0.07068069  0.42931931  1
  Pb  Pb17  1  0.90986256  0.27041232  0.90986256  1
  Pb  Pb18  1  0.42931931  0.07068069  0.07068069  1
  Pb  Pb19  1  0.42931931  0.42931931  0.07068069  1
loop_
_geom_bond_atom_site_label_1
_geom_bond_atom_site_label_2
_geom_bond_distance
_geom_bond_site_symmetry_2
Li0 Li57 2.905937 1_555
Li0 Li25 2.905937 1_555
Li0 Li1 2.905937 1_555
Li0 Pb6 2.927041 1_555
Li0 Pb13 2.927042 1_555
Li0 Pb11 2.927042 1_555
Li0 Li17 3.061303 1_555
Li0 Li51 3.061303 1_555
Li0 Li27 3.061303 1_555
Li1 Li55 2.663589 1_555
Li1 Li51 2.663590 1_555
Li1 Li60 2.663590 1_555
Li1 Li12 2.905937 1_555
Li1 Li38 2.905937 1_555
Li1 Pb1 2.989090 1_555
Li1 Pb6 2.989090 1_555
Li1 Pb13 2.989090 1_555
Li1 Pb4 3.042163 1_555
Li2 Li57 2.663590 1_555
Li2 Li84 2.857946 1_555
Li2 Li61 2.868912 1_455
Li2 Pb10 3.018776 1_556
Li2 Li59 3.061303 1_555
Li2 Pb0 3.105039 1_555
Li2 Pb11 3.221455 1_555
Li2 Pb3 3.221455 1_555
Li3 Li42 2.860295 1_565
Li3 Pb11 2.894729 1_555
Li3 Pb12 3.137662 1_565
Li3 Pb16 3.137662 1_565
Li4 Pb14 2.838453 1_454
Li4 Pb10 2.848799 1_555
Li5 Li60 2.857946 1_555
Li5 Pb13 2.894729 1_555
Li5 Pb9 3.137662 1_655
Li5 Pb10 3.137662 1_655
Li6 Li83 2.663589 1_555
Li6 Li71 2.663590 1_555
Li6 Li65 2.663590 1_555
Li6 Pb3 2.989090 1_555
Li6 Pb8 2.989090 1_555
Li6 Pb1 2.989090 1_555
Li6 Pb7 3.042163 1_555
Li7 Pb0 2.887000 1_555
Li7 Pb6 2.904087 1_555
Li7 Pb5 3.043442 1_455
Li8 Pb17 3.043719 1_455
Li8 Pb15 3.043719 1_545
Li8 Pb14 3.043719 1_445
Li9 Pb7 2.887000 1_555
Li9 Pb3 2.904087 1_555
Li9 Pb15 3.043442 1_545
Li10 Li31 2.843678 1_555
Li10 Li21 2.843678 1_455
Li10 Li73 2.843678 1_554
Li10 Li4 3.000838 1_555
Li10 Li62 3.000838 1_555
Li10 Li70 3.000838 1_555
Li10 Li28 3.004436 1_565
Li10 Li8 3.004437 1_564
Li10 Li26 3.004437 1_465
Li10 Pb15 3.043719 1_554
Li10 Pb5 3.043719 1_455
Li10 Pb14 3.043720 1_454
Li11 Li25 2.663590 1_555
Li11 Li79 2.857946 1_555
Li11 Li5 2.857946 1_555
Li11 Li78 2.861155 1_555
Li11 Li64 2.861155 1_555
Li11 Li54 2.868912 1_555
Li11 Pb9 3.018776 1_655
Li11 Li38 3.061303 1_555
Li11 Pb2 3.105039 1_555
Li11 Pb8 3.221455 1_555
Li11 Pb13 3.221455 1_555
Li12 Li6 2.905937 1_555
Li12 Li57 2.905937 1_555
Li12 Pb6 2.927042 1_555
Li12 Pb1 2.927042 1_555
Li12 Pb3 2.927042 1_555
Li12 Li83 3.061303 1_555
Li12 Li44 3.061303 1_555
Li12 Li55 3.061303 1_555
Li13 Li72 2.577081 1_555
Li13 Li34 2.835851 1_565
Li13 Li14 2.835851 1_655
Li13 Li56 2.835851 1_556
Li13 Li61 2.864920 1_555
Li13 Li20 2.864920 1_555
Li13 Li77 2.864920 1_555
Li13 Pb14 2.946346 1_555
Li13 Pb4 3.164101 1_556
Li13 Pb7 3.164101 1_565
Li13 Pb0 3.164101 1_655
Li14 Li2 2.861155 1_555
Li14 Li17 2.861155 1_555
Li14 Pb0 2.887000 1_555
Li14 Pb11 2.904087 1_555
Li14 Pb14 3.043442 1_455
Li15 Li33 2.864920 1_555
Li15 Li22 2.864920 1_555
Li15 Li27 2.868912 1_555
Li15 Li83 2.868912 1_565
Li15 Pb7 2.944642 1_565
Li15 Pb2 2.944642 1_555
Li15 Pb12 2.964813 1_565
Li16 Li40 2.835851 1_455
Li16 Li2 2.861155 1_555
Li16 Li44 2.861155 1_555
Li16 Pb0 2.887000 1_555
Li16 Pb3 2.904087 1_555
Li16 Pb17 3.043442 1_455
Li17 Li57 2.663590 1_555
Li17 Li3 2.857946 1_555
Li17 Li41 2.857946 1_555
Li17 Li7 2.861155 1_555
Li17 Li77 2.868912 1_455
Li17 Pb16 3.018776 1_565
Li17 Pb0 3.105039 1_555
Li17 Pb11 3.221455 1_555
Li17 Pb6 3.221455 1_555
Li18 Li2 2.857946 1_555
Li18 Li37 2.857946 1_555
Li18 Li36 2.860295 1_556
Li18 Pb11 2.894729 1_555
Li18 Pb19 3.137662 1_556
Li18 Pb10 3.137662 1_556
Li19 Pb17 2.838453 1_554
Li19 Pb19 2.848799 1_555
Li19 Li58 2.997227 1_555
Li19 Li26 3.000838 1_555
Li20 Li22 2.864920 1_555
Li20 Li65 2.868912 1_565
Li20 Li51 2.868912 1_556
Li20 Pb4 2.944642 1_556
Li20 Pb7 2.944642 1_565
Li20 Pb18 2.964813 1_566
Li21 Li26 2.843678 1_565
Li21 Pb13 2.922978 1_555
Li21 Pb5 3.046970 1_555
Li21 Pb14 3.046970 1_554
Li22 Li72 2.577081 1_555
Li22 Li29 2.835851 1_555
Li22 Li9 2.835851 1_565
Li22 Li75 2.835851 1_556
Li22 Li67 2.864920 1_555
Li22 Pb15 2.946346 1_555
Li22 Pb7 3.164101 1_565
Li22 Pb2 3.164101 1_555
Li22 Pb4 3.164101 1_556
Li23 Li26 2.843678 1_555
Li23 Li28 2.843678 1_655
Li23 Pb1 2.922978 1_555
Li23 Pb5 3.046970 1_545
Li23 Pb17 3.046970 1_554
Li24 Pb15 2.838453 1_545
Li24 Pb12 2.848799 1_555
Li24 Li42 2.997227 1_555
Li24 Li8 3.000838 1_555
Li25 Li27 2.663590 1_555
Li25 Li37 2.663590 1_555
Li25 Li59 2.905937 1_555
Li25 Li38 2.905937 1_555
Li25 Pb8 2.989090 1_555
Li25 Pb11 2.989090 1_555
Li25 Pb13 2.989090 1_555
Li25 Pb2 3.042163 1_555
Li26 Li76 2.843678 1_554
Li26 Li49 3.000838 1_555
Li26 Li66 3.000838 1_555
Li26 Li28 3.004437 1_655
Li26 Li8 3.004437 1_654
Li26 Pb17 3.043719 1_554
Li26 Pb5 3.043719 1_545
Li26 Pb14 3.043720 1_544
Li27 Li3 2.857946 1_555
Li27 Li80 2.857946 1_555
Li27 Li78 2.861155 1_555
Li27 Li29 2.861155 1_555
Li27 Pb12 3.018776 1_565
Li27 Pb2 3.105039 1_555
Li27 Pb11 3.221455 1_555
Li27 Pb13 3.221455 1_555
Li28 Li31 2.843678 1_545
Li28 Li74 2.843678 1_554
Li28 Li46 3.000838 1_555
Li28 Li32 3.000838 1_555
Li28 Li35 3.000838 1_555
Li28 Li8 3.004437 1_554
Li28 Pb5 3.043719 1_445
Li28 Pb17 3.043720 1_454
Li28 Pb15 3.043720 1_544
Li29 Li37 2.861155 1_555
Li29 Pb2 2.887000 1_555
Li29 Pb11 2.904087 1_555
Li29 Pb15 3.043442 1_555
Li30 Li41 2.860295 1_545
Li30 Li39 2.860295 1_455
Li30 Li84 2.860295 1_554
Li30 Li63 2.884348 1_555
Li30 Li68 2.884348 1_555
Li30 Li81 2.884348 1_555
Li30 Li35 2.997226 1_555
Li30 Li32 2.997227 1_555
Li30 Li46 2.997227 1_555
Li30 Pb10 3.034024 1_555
Li30 Pb18 3.034024 1_555
Li30 Pb16 3.034024 1_555
Li31 Pb6 2.922978 1_555
Li31 Pb5 3.046970 1_455
Li31 Pb15 3.046970 1_554
Li32 Pb15 2.838453 1_544
Li32 Pb18 2.848799 1_555
Li33 Li72 2.577081 1_555
Li33 Li78 2.835851 1_555
Li33 Li48 2.835851 1_565
Li33 Li7 2.835851 1_655
Li33 Li77 2.864920 1_555
Li33 Li54 2.864920 1_555
Li33 Pb5 2.946346 1_555
Li33 Pb2 3.164101 1_555
Li33 Pb7 3.164101 1_565
Li33 Pb0 3.164101 1_655
Li34 Li65 2.861155 1_555
Li34 Li71 2.861155 1_555
Li34 Pb7 2.887000 1_555
Li34 Pb8 2.904087 1_555
Li34 Pb14 3.043442 1_545
Li35 Pb5 2.838453 1_445
Li35 Pb16 2.848799 1_555
Li36 Li5 2.860295 1_455
Li36 Li47 2.860295 1_555
Li36 Li68 2.884348 1_555
Li36 Li63 2.884348 1_555
Li36 Li50 2.884348 1_555
Li36 Li4 2.997227 1_555
Li36 Li62 2.997227 1_555
Li36 Li70 2.997227 1_555
Li36 Pb10 3.034024 1_555
Li36 Pb19 3.034024 1_555
Li36 Pb9 3.034024 1_555
Li37 Li52 2.857946 1_555
Li37 Li64 2.861155 1_555
Li37 Li67 2.868912 1_555
Li37 Pb19 3.018776 1_556
Li37 Li59 3.061303 1_555
Li37 Pb2 3.105039 1_555
Li37 Pb8 3.221455 1_555
Li37 Pb11 3.221455 1_555
Li38 Li6 2.905937 1_555
Li38 Pb1 2.927041 1_555
Li38 Pb13 2.927042 1_555
Li38 Pb8 2.927042 1_555
Li38 Li71 3.061303 1_555
Li38 Li60 3.061303 1_555
Li39 Li60 2.857946 1_555
Li39 Li71 2.857946 1_555
Li39 Pb1 2.894729 1_555
Li39 Pb10 3.137662 1_655
Li39 Pb16 3.137662 1_655
Li40 Li72 2.577081 1_555
Li40 Li64 2.835851 1_555
Li40 Li45 2.835851 1_556
Li40 Li61 2.864920 1_555
Li40 Li67 2.864920 1_555
Li40 Li54 2.864920 1_555
Li40 Pb17 2.946346 1_555
Li40 Pb0 3.164101 1_655
Li40 Pb2 3.164101 1_555
Li40 Pb4 3.164101 1_556
Li41 Li51 2.857946 1_555
Li41 Pb6 2.894729 1_555
Li41 Pb18 3.137662 1_565
Li41 Pb16 3.137662 1_565
Li42 Li79 2.860295 1_455
Li42 Li82 2.860295 1_555
Li42 Li68 2.884348 1_555
Li42 Li81 2.884348 1_555
Li42 Li50 2.884348 1_555
Li42 Li53 2.997227 1_555
Li42 Li43 2.997227 1_555
Li42 Pb16 3.034024 1_555
Li42 Pb9 3.034024 1_555
Li42 Pb12 3.034024 1_555
Li43 Pb17 2.838453 1_455
Li43 Pb9 2.848799 1_555
Li43 Li8 3.000838 1_555
Li44 Li57 2.663589 1_555
Li44 Li82 2.857946 1_555
Li44 Li47 2.857946 1_555
Li44 Li7 2.861155 1_555
Li44 Li54 2.868912 1_455
Li44 Pb9 3.018776 1_555
Li44 Pb0 3.105039 1_555
Li44 Pb6 3.221455 1_555
Li44 Pb3 3.221455 1_555
Li45 Li60 2.861155 1_555
Li45 Li55 2.861155 1_555
Li45 Pb4 2.887000 1_555
Li45 Pb1 2.904087 1_555
Li45 Pb17 3.043442 1_554
Li46 Pb17 2.838453 1_454
Li46 Pb10 2.848799 1_555
Li47 Li55 2.857946 1_555
Li47 Pb6 2.894729 1_555
Li47 Pb9 3.137662 1_555
Li47 Pb19 3.137662 1_555
Li48 Li71 2.861155 1_555
Li48 Li83 2.861155 1_555
Li48 Pb7 2.887000 1_555
Li48 Pb1 2.904087 1_555
Li48 Pb5 3.043442 1_545
Li49 Pb14 2.838453 1_544
Li49 Pb18 2.848799 1_555
Li49 Li58 2.997227 1_555
Li50 Li58 2.884348 1_555
Li50 Pb12 2.924422 1_555
Li50 Pb19 2.924422 1_555
Li50 Pb9 2.924422 1_555
Li51 Li80 2.857946 1_555
Li51 Li75 2.861155 1_555
Li51 Li56 2.861155 1_555
Li51 Pb18 3.018776 1_565
Li51 Pb4 3.105039 1_555
Li51 Pb13 3.221455 1_555
Li51 Pb6 3.221455 1_555
Li52 Li65 2.857946 1_555
Li52 Li58 2.860295 1_556
Li52 Pb8 2.894729 1_555
Li52 Pb19 3.137662 1_556
Li52 Pb18 3.137662 1_556
Li53 Pb14 2.838453 1_445
Li53 Pb16 2.848799 1_555
Li53 Li8 3.000838 1_555
Li54 Pb0 2.944642 1_655
Li54 Pb2 2.944642 1_555
Li54 Pb9 2.964813 1_655
Li55 Li69 2.857946 1_555
Li55 Li75 2.861155 1_555
Li55 Li67 2.868912 1_554
Li55 Pb19 3.018776 1_555
Li55 Pb4 3.105039 1_555
Li55 Pb1 3.221455 1_555
Li55 Pb6 3.221455 1_555
Li56 Li60 2.861155 1_555
Li56 Pb4 2.887000 1_555
Li56 Pb13 2.904087 1_555
Li56 Pb14 3.043442 1_554
Li57 Li59 2.905937 1_555
Li57 Pb3 2.989090 1_555
Li57 Pb11 2.989090 1_555
Li57 Pb6 2.989090 1_555
Li57 Pb0 3.042163 1_555
Li58 Li80 2.860295 1_545
Li58 Li69 2.860295 1_555
Li58 Li81 2.884348 1_555
Li58 Li63 2.884348 1_555
Li58 Li66 2.997227 1_555
Li58 Pb18 3.034024 1_555
Li58 Pb19 3.034024 1_555
Li58 Pb12 3.034024 1_555
Li59 Li6 2.905937 1_555
Li59 Pb3 2.927041 1_555
Li59 Pb11 2.927042 1_555
Li59 Pb8 2.927042 1_555
Li59 Li65 3.061303 1_555
Li60 Li61 2.868912 1_554
Li60 Pb10 3.018776 1_655
Li60 Pb4 3.105039 1_555
Li60 Pb13 3.221455 1_555
Li60 Pb1 3.221455 1_555
Li61 Pb4 2.944642 1_556
Li61 Pb0 2.944642 1_655
Li61 Pb10 2.964813 1_656
Li62 Pb15 2.838452 1_554
Li62 Pb19 2.848799 1_555
Li63 Pb19 2.924422 1_555
Li63 Pb18 2.924422 1_555
Li63 Pb10 2.924422 1_555
Li64 Pb2 2.887000 1_555
Li64 Pb8 2.904087 1_555
Li64 Pb17 3.043442 1_555
Li65 Li84 2.857946 1_555
Li65 Li9 2.861155 1_555
Li65 Pb18 3.018776 1_556
Li65 Pb7 3.105039 1_555
Li65 Pb8 3.221455 1_555
Li65 Pb3 3.221455 1_555
Li66 Pb5 2.838453 1_545
Li66 Pb12 2.848799 1_555
Li67 Pb4 2.944642 1_556
Li67 Pb2 2.944642 1_555
Li67 Pb19 2.964813 1_556
Li68 Pb9 2.924422 1_555
Li68 Pb16 2.924422 1_555
Li68 Pb10 2.924422 1_555
Li69 Li83 2.857946 1_555
Li69 Pb1 2.894729 1_555
Li69 Pb12 3.137662 1_555
Li69 Pb19 3.137662 1_555
Li70 Pb5 2.838452 1_455
Li70 Pb9 2.848799 1_555
Li71 Li79 2.857946 1_555
Li71 Li77 2.868912 1_545
Li71 Pb16 3.018776 1_655
Li71 Pb7 3.105039 1_555
Li71 Pb8 3.221455 1_555
Li71 Pb1 3.221455 1_555
Li72 Pb2 2.885876 1_555
Li72 Pb7 2.885876 1_565
Li72 Pb0 2.885876 1_655
Li72 Pb4 2.885876 1_556
Li73 Li8 2.843678 1_565
Li73 Pb11 2.922978 1_555
Li73 Pb15 3.046970 1_555
Li73 Pb14 3.046970 1_455
Li74 Li8 2.843678 1_555
Li74 Pb3 2.922978 1_555
Li74 Pb15 3.046970 1_545
Li74 Pb17 3.046970 1_455
Li75 Pb4 2.887000 1_555
Li75 Pb6 2.904087 1_555
Li75 Pb15 3.043442 1_554
Li76 Li8 2.843678 1_655
Li76 Pb8 2.922978 1_555
Li76 Pb17 3.046970 1_555
Li76 Pb14 3.046970 1_545
Li77 Pb0 2.944642 1_655
Li77 Pb7 2.944642 1_565
Li77 Pb16 2.964813 1_665
Li78 Pb2 2.887000 1_555
Li78 Pb13 2.904087 1_555
Li78 Pb5 3.043442 1_555
Li79 Pb8 2.894729 1_555
Li79 Pb9 3.137662 1_655
Li79 Pb16 3.137662 1_655
Li80 Pb13 2.894729 1_555
Li80 Pb12 3.137662 1_565
Li80 Pb18 3.137662 1_565
Li81 Pb12 2.924422 1_555
Li81 Pb16 2.924422 1_555
Li81 Pb18 2.924422 1_555
Li82 Li83 2.857946 1_555
Li82 Pb3 2.894729 1_555
Li82 Pb12 3.137662 1_555
Li82 Pb9 3.137662 1_555
Li83 Li9 2.861155 1_555
Li83 Pb12 3.018776 1_555
Li83 Pb7 3.105039 1_555
Li83 Pb1 3.221455 1_555
Li83 Pb3 3.221455 1_555
Li84 Pb3 2.894729 1_555
Li84 Pb18 3.137662 1_556
Li84 Pb10 3.137662 1_556
