# generated using pymatgen
data_Al13(CrSi)4
_symmetry_space_group_name_H-M   'P 1'
_cell_length_a   7.71511198
_cell_length_b   7.71511198
_cell_length_c   7.71511198
_cell_angle_alpha   60.00000000
_cell_angle_beta   60.00000000
_cell_angle_gamma   60.00000000
_symmetry_Int_Tables_number   1
_chemical_formula_structural   Al13(CrSi)4
_chemical_formula_sum   'Al13 Cr4 Si4'
_cell_volume   324.72199340
_cell_formula_units_Z   1
loop_
 _symmetry_equiv_pos_site_id
 _symmetry_equiv_pos_as_xyz
  1  'x, y, z'
loop_
 _atom_site_type_symbol
 _atom_site_label
 _atom_site_symmetry_multiplicity
 _atom_site_fract_x
 _atom_site_fract_y
 _atom_site_fract_z
 _atom_site_occupancy
  Al  Al0  1  0.25000000  0.25000000  0.25000000  1
  Al  Al1  1  0.55928100  0.55928100  0.94071900  1
  Al  Al2  1  0.94071900  0.55928100  0.55928100  1
  Al  Al3  1  0.55928100  0.94071900  0.94071900  1
  Al  Al4  1  0.94071900  0.94071900  0.55928100  1
  Al  Al5  1  0.94071900  0.55928100  0.94071900  1
  Al  Al6  1  0.55928100  0.94071900  0.55928100  1
  Al  Al7  1  0.30908500  0.30908500  0.69091500  1
  Al  Al8  1  0.69091500  0.30908500  0.30908500  1
  Al  Al9  1  0.30908500  0.69091500  0.69091500  1
  Al  Al10  1  0.69091500  0.69091500  0.30908500  1
  Al  Al11  1  0.69091500  0.30908500  0.69091500  1
  Al  Al12  1  0.30908500  0.69091500  0.30908500  1
  Cr  Cr0  1  0.90775200  0.27674300  0.90775200  1
  Cr  Cr1  1  0.90775200  0.90775200  0.27674300  1
  Cr  Cr2  1  0.27674300  0.90775200  0.90775200  1
  Cr  Cr3  1  0.90775200  0.90775200  0.90775200  1
  Si  Si0  1  0.12255500  0.63233500  0.12255500  1
  Si  Si1  1  0.12255500  0.12255500  0.63233500  1
  Si  Si2  1  0.63233500  0.12255500  0.12255500  1
  Si  Si3  1  0.12255500  0.12255500  0.12255500  1
loop_
_geom_bond_atom_site_label_1
_geom_bond_atom_site_label_2
_geom_bond_distance
_geom_bond_site_symmetry_2
Al0 Si0 2.408467 1_555
Al0 Si1 2.408467 1_555
Al0 Si2 2.408467 1_555
Al0 Si3 2.408467 1_555
Al1 Cr0 2.460585 1_555
Al1 Cr2 2.460585 1_555
Al1 Si0 2.793441 1_556
Al1 Si2 2.793441 1_556
Al1 Al12 2.876511 1_556
Al1 Al8 2.876511 1_556
Al1 Al11 2.876511 1_555
Al1 Al9 2.876511 1_555
Al1 Al5 2.942837 1_555
Al1 Al2 2.942837 1_555
Al1 Al6 2.942837 1_555
Al1 Al3 2.942837 1_555
Al2 Cr1 2.460585 1_555
Al2 Cr0 2.460585 1_555
Al2 Si1 2.793441 1_655
Al2 Si0 2.793441 1_655
Al2 Al7 2.876511 1_655
Al2 Al5 2.942837 1_555
Al2 Al6 2.942837 1_555
Al2 Al4 2.942837 1_555
Al3 Cr3 2.460582 1_555
Al3 Cr2 2.460589 1_555
Al3 Si2 2.793441 1_566
Al3 Si3 2.793441 1_566
Al3 Al7 2.876511 1_565
Al3 Al5 2.942837 1_555
Al3 Al6 2.942837 1_555
Al3 Al4 2.942837 1_555
Al4 Cr3 2.460582 1_555
Al4 Cr1 2.460589 1_555
Al4 Si1 2.793441 1_665
Al4 Si3 2.793441 1_665
Al4 Al9 2.876511 1_655
Al4 Al8 2.876511 1_565
Al4 Al5 2.942837 1_555
Al4 Al6 2.942837 1_555
Al5 Cr3 2.460582 1_555
Al5 Cr0 2.460589 1_555
Al5 Si0 2.793441 1_656
Al5 Si3 2.793441 1_656
Al5 Al9 2.876511 1_655
Al5 Al8 2.876511 1_556
Al5 Al7 2.876511 1_655
Al6 Cr1 2.460585 1_555
Al6 Cr2 2.460585 1_555
Al6 Si1 2.793441 1_565
Al6 Si2 2.793441 1_565
Al6 Al7 2.876511 1_565
Al6 Al8 2.876511 1_565
Al6 Al9 2.876511 1_555
Al7 Cr0 2.761057 1_455
Al7 Cr2 2.761057 1_545
Al7 Si1 2.778145 1_555
Al7 Si3 2.778145 1_556
Al7 Al8 2.945861 1_555
Al7 Al9 2.945861 1_555
Al8 Cr0 2.761057 1_554
Al8 Cr1 2.761057 1_545
Al8 Si3 2.778145 1_655
Al8 Si2 2.778145 1_555
Al9 Cr2 2.761051 1_555
Al9 Cr3 2.761055 1_455
Al9 Si1 2.778145 1_565
Al9 Si0 2.778145 1_556
Al10 Cr1 2.761051 1_555
Al10 Cr3 2.761055 1_554
Al10 Si2 2.778145 1_565
Al10 Si0 2.778145 1_655
Al10 Al5 2.876511 1_554
Al10 Al3 2.876511 1_554
Al10 Al2 2.876511 1_555
Al10 Al6 2.876511 1_555
Al10 Al11 2.945861 1_555
Al10 Al8 2.945861 1_555
Al10 Al12 2.945861 1_555
Al10 Al9 2.945861 1_555
Al11 Cr0 2.761051 1_555
Al11 Cr3 2.761055 1_545
Al11 Si2 2.778145 1_556
Al11 Si1 2.778145 1_655
Al11 Al4 2.876511 1_545
Al11 Al3 2.876511 1_545
Al11 Al2 2.876511 1_555
Al11 Al7 2.945861 1_555
Al11 Al8 2.945861 1_555
Al11 Al9 2.945861 1_555
Al12 Cr2 2.761057 1_554
Al12 Cr1 2.761057 1_455
Al12 Si0 2.778145 1_555
Al12 Si3 2.778145 1_565
Al12 Al2 2.876511 1_455
Al12 Al4 2.876511 1_455
Al12 Al3 2.876511 1_554
Al12 Al7 2.945861 1_555
Al12 Al8 2.945861 1_555
Al12 Al9 2.945861 1_555
Cr0 Si1 2.389872 1_655
Cr0 Si2 2.389872 1_556
Cr0 Si3 2.389878 1_656
Cr1 Si0 2.389872 1_655
Cr1 Si2 2.389872 1_565
Cr1 Si3 2.389878 1_665
Cr2 Si1 2.389872 1_565
Cr2 Si0 2.389872 1_556
Cr2 Si3 2.389878 1_566
Cr3 Si1 2.389876 1_665
Cr3 Si0 2.389876 1_656
Cr3 Si2 2.389876 1_566
