# generated using pymatgen
data_Na4CO4
_symmetry_space_group_name_H-M   'P 1'
_cell_length_a   5.19300233
_cell_length_b   5.19300233
_cell_length_c   5.43570738
_cell_angle_alpha   77.67473124
_cell_angle_beta   77.67473124
_cell_angle_gamma   95.19661941
_symmetry_Int_Tables_number   1
_chemical_formula_structural   Na4CO4
_chemical_formula_sum   'Na4 C1 O4'
_cell_volume   138.47632290
_cell_formula_units_Z   1
loop_
 _symmetry_equiv_pos_site_id
 _symmetry_equiv_pos_as_xyz
  1  'x, y, z'
loop_
 _atom_site_type_symbol
 _atom_site_label
 _atom_site_symmetry_multiplicity
 _atom_site_fract_x
 _atom_site_fract_y
 _atom_site_fract_z
 _atom_site_occupancy
  Na  Na0  1  0.47012400  0.90673600  0.55129600  1
  Na  Na1  1  0.61555600  0.03008000  0.03653400  1
  Na  Na2  1  0.90673600  0.47012400  0.55129600  1
  Na  Na3  1  0.03008000  0.61555600  0.03653400  1
  C  C0  1  0.01267700  0.01267700  0.46373200  1
  O  O0  1  0.85351600  0.15867800  0.31688200  1
  O  O1  1  0.82022600  0.82022600  0.70895100  1
  O  O2  1  0.17264600  0.17264600  0.55633700  1
  O  O3  1  0.15867800  0.85351600  0.31688200  1
loop_
_geom_bond_atom_site_label_1
_geom_bond_atom_site_label_2
_geom_bond_distance
_geom_bond_site_symmetry_2
Na0 O2 2.162979 1_565
Na0 O1 2.211422 1_555
Na0 O0 2.243349 1_565
Na0 O3 2.294549 1_555
Na1 O0 2.320377 1_555
Na1 O1 2.391284 1_544
Na1 O3 2.501576 1_545
Na2 O2 2.162979 1_655
Na2 O1 2.211422 1_555
Na2 O3 2.243349 1_655
Na2 O0 2.294549 1_555
Na3 O3 2.320377 1_555
Na3 O1 2.391284 1_454
Na3 O0 2.501576 1_455
C0 O2 1.365874 1_555
C0 O0 1.425471 1_455
C0 O3 1.425471 1_545
C0 O1 1.567148 1_445
