# generated using pymatgen
data_Si(AgO)4
_symmetry_space_group_name_H-M   'P 1'
_cell_length_a   7.42229886
_cell_length_b   7.42229886
_cell_length_c   4.73283503
_cell_angle_alpha   90.00000000
_cell_angle_beta   90.00000000
_cell_angle_gamma   90.00000000
_symmetry_Int_Tables_number   1
_chemical_formula_structural   Si(AgO)4
_chemical_formula_sum   'Si2 Ag8 O8'
_cell_volume   260.73434461
_cell_formula_units_Z   2
loop_
 _symmetry_equiv_pos_site_id
 _symmetry_equiv_pos_as_xyz
  1  'x, y, z'
loop_
 _atom_site_type_symbol
 _atom_site_label
 _atom_site_symmetry_multiplicity
 _atom_site_fract_x
 _atom_site_fract_y
 _atom_site_fract_z
 _atom_site_occupancy
  Si  Si0  1  -0.00000000  0.00000000  0.50000000  1
  Si  Si1  1  0.50000000  0.50000000  -0.00000000  1
  Ag  Ag0  1  0.32384333  0.88920436  0.95825583  1
  Ag  Ag1  1  0.82384333  0.38920436  0.54174417  1
  Ag  Ag2  1  0.17615667  0.61079564  0.54174417  1
  Ag  Ag3  1  0.38920436  0.17615667  0.45825583  1
  Ag  Ag4  1  0.61079564  0.82384333  0.45825583  1
  Ag  Ag5  1  0.11079564  0.32384333  0.04174417  1
  Ag  Ag6  1  0.67615667  0.11079564  0.95825583  1
  Ag  Ag7  1  0.88920436  0.67615667  0.04174417  1
  O  O0  1  0.56331450  0.32938793  0.19581759  1
  O  O1  1  0.17061207  0.06331450  0.69581759  1
  O  O2  1  0.67061207  0.56331450  0.80418241  1
  O  O3  1  0.93668550  0.17061207  0.30418241  1
  O  O4  1  0.82938793  0.93668550  0.69581759  1
  O  O5  1  0.43668550  0.67061207  0.19581759  1
  O  O6  1  0.32938793  0.43668550  0.80418241  1
  O  O7  1  0.06331450  0.82938793  0.30418241  1
loop_
_geom_bond_atom_site_label_1
_geom_bond_atom_site_label_2
_geom_bond_distance
_geom_bond_site_symmetry_2
Ag0 O1 2.122806 1_565
Ag0 O5 2.144294 1_556
Ag0 O7 2.572327 1_556
Ag1 O2 2.122806 1_555
Ag1 O3 2.144294 1_555
Ag1 O0 2.572327 1_555
Ag2 O6 2.122806 1_555
Ag2 O7 2.144294 1_555
Ag2 O5 2.572327 1_555
Ag3 O0 2.122806 1_555
Ag3 O1 2.144294 1_555
Ag3 O6 2.572327 1_555
Ag4 O5 2.122806 1_555
Ag4 O4 2.144294 1_555
Ag4 O2 2.572327 1_555
Ag5 O3 2.122806 1_455
Ag5 O6 2.144294 1_554
Ag5 O1 2.572327 1_554
Ag6 O4 2.122806 1_545
Ag6 O0 2.144294 1_556
Ag6 O3 2.572327 1_556
Ag7 O7 2.122806 1_655
Ag7 O2 2.144294 1_554
Ag7 O4 2.572327 1_554
O0 Si1 1.638094 1_555
O1 Si0 1.638094 1_555
O2 Si1 1.638094 1_556
O3 Si0 1.638094 1_655
O4 Si0 1.638094 1_665
O5 Si1 1.638094 1_555
O6 Si1 1.638094 1_556
O7 Si0 1.638094 1_565
