# generated using pymatgen
data_NdBPt2
_symmetry_space_group_name_H-M   'P 1'
_cell_length_a   5.45384173
_cell_length_b   5.45384104
_cell_length_c   8.00632526
_cell_angle_alpha   90.00000000
_cell_angle_beta   90.00000000
_cell_angle_gamma   119.99999180
_symmetry_Int_Tables_number   1
_chemical_formula_structural   NdBPt2
_chemical_formula_sum   'Nd3 B3 Pt6'
_cell_volume   206.23810187
_cell_formula_units_Z   3
loop_
 _symmetry_equiv_pos_site_id
 _symmetry_equiv_pos_as_xyz
  1  'x, y, z'
loop_
 _atom_site_type_symbol
 _atom_site_label
 _atom_site_symmetry_multiplicity
 _atom_site_fract_x
 _atom_site_fract_y
 _atom_site_fract_z
 _atom_site_occupancy
  Nd  Nd0  1  0.00000000  0.50000000  0.66666700  1
  Nd  Nd1  1  0.50000000  -0.00000000  0.00000000  1
  Nd  Nd2  1  0.50000000  0.50000000  0.33333300  1
  B  B0  1  0.50000000  0.50000000  0.83333300  1
  B  B1  1  0.00000000  0.50000000  0.16666700  1
  B  B2  1  0.50000000  -0.00000000  0.50000000  1
  Pt  Pt0  1  0.15377302  0.30754604  0.00000000  1
  Pt  Pt1  1  0.84622698  0.15377302  0.33333300  1
  Pt  Pt2  1  0.84622698  0.69245396  0.00000000  1
  Pt  Pt3  1  0.69245396  0.84622698  0.66666700  1
  Pt  Pt4  1  0.30754604  0.15377302  0.66666700  1
  Pt  Pt5  1  0.15377302  0.84622698  0.33333300  1
loop_
_geom_bond_atom_site_label_1
_geom_bond_atom_site_label_2
_geom_bond_distance
_geom_bond_site_symmetry_2
Nd0 Pt4 3.089679 1_555
Nd0 Pt3 3.089679 1_455
Nd0 Pt4 3.089679 1_565
Nd0 Pt3 3.089679 1_445
Nd0 Pt2 3.131715 1_456
Nd0 Pt0 3.131715 1_556
Nd0 Pt5 3.131721 1_555
Nd0 Pt1 3.131721 1_455
Nd0 Pt4 3.270575 1_455
Nd0 Pt3 3.270575 1_555
Nd1 Pt2 3.089679 1_545
Nd1 Pt0 3.089679 1_555
Nd1 Pt0 3.089679 1_655
Nd1 Pt2 3.089679 1_445
Nd1 Pt4 3.131715 1_554
Nd1 Pt3 3.131715 1_544
Nd1 Pt5 3.131715 1_545
Nd1 Pt1 3.131715 1_555
Nd1 Pt0 3.270574 1_545
Nd1 Pt2 3.270574 1_555
Nd2 Pt1 3.089679 1_565
Nd2 Pt5 3.089679 1_545
Nd2 Pt5 3.089679 1_655
Nd2 Pt1 3.089679 1_455
Nd2 Pt2 3.131715 1_555
Nd2 Pt0 3.131715 1_555
Nd2 Pt4 3.131721 1_555
Nd2 Pt3 3.131721 1_555
Nd2 Pt1 3.270574 1_555
Nd2 Pt5 3.270574 1_555
B0 Pt4 2.113260 1_555
B0 Pt3 2.113260 1_555
B0 Pt0 2.113265 1_556
B0 Pt2 2.113265 1_556
B0 Nd0 3.035897 1_555
B0 Nd0 3.035897 1_655
B0 Nd1 3.035901 1_566
B0 Nd1 3.035901 1_556
B1 Pt5 2.113260 1_555
B1 Pt1 2.113260 1_455
B1 Pt0 2.113265 1_555
B1 Pt2 2.113265 1_455
B1 Nd2 3.035897 1_455
B1 Nd2 3.035897 1_555
B1 Nd1 3.035901 1_565
B1 Nd1 3.035901 1_455
B2 Pt4 2.113265 1_555
B2 Pt3 2.113265 1_545
B2 Pt5 2.113265 1_545
B2 Pt1 2.113265 1_555
B2 Nd2 3.035901 1_545
B2 Nd2 3.035901 1_555
B2 Nd0 3.035901 1_545
B2 Nd0 3.035901 1_655
