# generated using pymatgen
data_HfNi5
_symmetry_space_group_name_H-M   'P 1'
_cell_length_a   4.66412840
_cell_length_b   4.66410919
_cell_length_c   4.66411060
_cell_angle_alpha   59.99983851
_cell_angle_beta   59.99994448
_cell_angle_gamma   59.99993435
_symmetry_Int_Tables_number   1
_chemical_formula_structural   HfNi5
_chemical_formula_sum   'Hf1 Ni5'
_cell_volume   71.74507955
_cell_formula_units_Z   1
loop_
 _symmetry_equiv_pos_site_id
 _symmetry_equiv_pos_as_xyz
  1  'x, y, z'
loop_
 _atom_site_type_symbol
 _atom_site_label
 _atom_site_symmetry_multiplicity
 _atom_site_fract_x
 _atom_site_fract_y
 _atom_site_fract_z
 _atom_site_occupancy
  Hf  Hf0  1  0.00000100  0.00000000  0.00000000  1
  Ni  Ni0  1  0.12802958  0.62399047  0.62399047  1
  Ni  Ni1  1  0.62399047  0.12802958  0.62399047  1
  Ni  Ni2  1  0.24999900  0.25000000  0.25000000  1
  Ni  Ni3  1  0.62399047  0.62399047  0.12802958  1
  Ni  Ni4  1  0.62399047  0.62399047  0.62399047  1
loop_
_geom_bond_atom_site_label_1
_geom_bond_atom_site_label_2
_geom_bond_distance
_geom_bond_site_symmetry_2
Hf0 Ni0 2.736605 1_554
Hf0 Ni0 2.736605 1_545
Hf0 Ni4 2.736608 1_454
Hf0 Ni4 2.736608 1_445
Hf0 Ni3 2.736609 1_455
Hf0 Ni0 2.736609 1_544
Hf0 Ni1 2.736610 1_455
Hf0 Ni4 2.736610 1_544
Hf0 Ni3 2.736614 1_545
Hf0 Ni1 2.736614 1_554
Hf0 Ni3 2.736616 1_445
Hf0 Ni1 2.736616 1_454
Hf0 Ni2 2.856167 1_545
Hf0 Ni2 2.856169 1_554
Hf0 Ni2 2.856171 1_555
Hf0 Ni2 2.856190 1_455
Ni0 Ni1 2.313218 1_555
Ni0 Ni3 2.313219 1_555
Ni0 Ni4 2.313225 1_555
Ni0 Ni1 2.350896 1_465
Ni0 Ni3 2.350897 1_456
Ni0 Ni4 2.350903 1_455
Ni0 Ni2 2.732585 1_565
Ni0 Ni2 2.732586 1_556
Ni0 Ni2 2.732598 1_555
Ni1 Ni3 2.313210 1_555
Ni1 Ni4 2.313216 1_555
Ni1 Ni3 2.350888 1_546
Ni1 Ni4 2.350893 1_545
Ni1 Ni2 2.732591 1_556
Ni1 Ni2 2.732595 1_655
Ni1 Ni2 2.732605 1_555
Ni2 Ni3 2.732590 1_545
Ni2 Ni4 2.732592 1_545
Ni2 Ni4 2.732593 1_554
Ni2 Ni3 2.732594 1_455
Ni2 Ni4 2.732595 1_455
Ni2 Ni3 2.732604 1_555
Ni3 Ni4 2.313216 1_555
Ni3 Ni4 2.350894 1_554
