# generated using pymatgen
data_BaMo4(PO8)2
_symmetry_space_group_name_H-M   'P 1'
_cell_length_a   7.85067281
_cell_length_b   7.85067281
_cell_length_c   7.85067281
_cell_angle_alpha   122.09800217
_cell_angle_beta   122.09800217
_cell_angle_gamma   86.40301037
_symmetry_Int_Tables_number   1
_chemical_formula_structural   BaMo4(PO8)2
_chemical_formula_sum   'Ba1 Mo4 P2 O16'
_cell_volume   330.58240038
_cell_formula_units_Z   1
loop_
 _symmetry_equiv_pos_site_id
 _symmetry_equiv_pos_as_xyz
  1  'x, y, z'
loop_
 _atom_site_type_symbol
 _atom_site_label
 _atom_site_symmetry_multiplicity
 _atom_site_fract_x
 _atom_site_fract_y
 _atom_site_fract_z
 _atom_site_occupancy
  Ba  Ba0  1  0.00000000  0.00000000  0.00000000  1
  Mo  Mo0  1  0.24949400  0.24949400  0.75538200  1
  Mo  Mo1  1  0.75050600  0.50588800  0.00000000  1
  Mo  Mo2  1  0.49411200  0.49411200  0.24461800  1
  Mo  Mo3  1  0.50588800  0.75050600  0.00000000  1
  P  P0  1  0.50000000  0.00000000  0.50000000  1
  P  P1  1  0.00000000  0.50000000  0.50000000  1
  O  O0  1  0.08168800  0.08168800  0.71884300  1
  O  O1  1  0.19033600  0.70210900  0.73864900  1
  O  O2  1  0.54389000  0.28440900  0.00000000  1
  O  O3  1  0.54831200  0.80966400  0.51177300  1
  O  O4  1  0.80966400  0.54831200  0.51177300  1
  O  O5  1  0.29789100  0.03653900  0.48822700  1
  O  O6  1  0.45168800  0.96346100  0.26135100  1
  O  O7  1  0.96346100  0.45168800  0.26135100  1
  O  O8  1  0.71559100  0.71559100  0.25948200  1
  O  O9  1  0.70210900  0.19033600  0.73864900  1
  O  O10  1  0.45611000  0.45611000  0.74051800  1
  O  O11  1  0.36284500  0.36284500  0.28115700  1
  O  O12  1  0.28440900  0.54389000  0.00000000  1
  O  O13  1  0.03653900  0.29789100  0.48822700  1
  O  O14  1  0.91831200  0.63715500  0.00000000  1
  O  O15  1  0.63715500  0.91831200  0.00000000  1
loop_
_geom_bond_atom_site_label_1
_geom_bond_atom_site_label_2
_geom_bond_distance
_geom_bond_site_symmetry_2
Ba0 O15 2.958866 1_445
Ba0 O14 2.958866 1_445
Ba0 O11 2.958866 1_555
Ba0 O0 2.958866 1_554
Ba0 O9 3.103585 1_454
Ba0 O1 3.103585 1_544
Ba0 O6 3.103588 1_545
Ba0 O7 3.103588 1_455
Ba0 O4 3.103589 1_444
Ba0 O3 3.103589 1_444
Ba0 O13 3.103589 1_555
Ba0 O5 3.103589 1_555
Mo0 O0 1.722749 1_555
Mo0 O2 1.976850 1_556
Mo0 O12 1.976850 1_556
Mo0 O5 2.092614 1_555
Mo0 O13 2.092614 1_555
Mo0 O10 2.451190 1_555
Mo1 O14 1.722749 1_555
Mo1 O10 1.976852 1_554
Mo1 O8 1.976855 1_555
Mo1 O7 2.092609 1_555
Mo1 O9 2.092612 1_554
Mo1 O2 2.451184 1_555
Mo2 O11 1.722749 1_555
Mo2 O12 1.976850 1_555
Mo2 O2 1.976850 1_555
Mo2 O4 2.092614 1_555
Mo2 O3 2.092614 1_555
Mo2 O8 2.451178 1_555
Mo3 O15 1.722749 1_555
Mo3 O10 1.976852 1_554
Mo3 O8 1.976855 1_555
Mo3 O6 2.092609 1_555
Mo3 O1 2.092612 1_554
Mo3 O12 2.451184 1_555
O1 P1 1.556803 1_555
O3 P0 1.556802 1_565
O4 P1 1.556802 1_655
O5 P0 1.556802 1_555
O6 P0 1.556810 1_565
O7 P1 1.556810 1_655
O9 P0 1.556803 1_555
O13 P1 1.556802 1_555
