# generated using pymatgen
data_Sm4Br6O
_symmetry_space_group_name_H-M   'P 1'
_cell_length_a   9.34852376
_cell_length_b   9.34852376
_cell_length_c   8.12699100
_cell_angle_alpha   90.00000000
_cell_angle_beta   90.00000000
_cell_angle_gamma   119.99999833
_symmetry_Int_Tables_number   1
_chemical_formula_structural   Sm4Br6O
_chemical_formula_sum   'Sm8 Br12 O2'
_cell_volume   615.10108140
_cell_formula_units_Z   2
loop_
 _symmetry_equiv_pos_site_id
 _symmetry_equiv_pos_as_xyz
  1  'x, y, z'
loop_
 _atom_site_type_symbol
 _atom_site_label
 _atom_site_symmetry_multiplicity
 _atom_site_fract_x
 _atom_site_fract_y
 _atom_site_fract_z
 _atom_site_occupancy
  Sm  Sm0  1  0.19500700  0.39001500  0.00696100  1
  Sm  Sm1  1  0.19500700  0.80499300  0.00696100  1
  Sm  Sm2  1  0.80499300  0.19500700  0.50696100  1
  Sm  Sm3  1  0.66666700  0.33333300  0.81779300  1
  Sm  Sm4  1  0.80499300  0.60998500  0.50696100  1
  Sm  Sm5  1  0.39001500  0.19500700  0.50696100  1
  Sm  Sm6  1  0.33333300  0.66666700  0.31779300  1
  Sm  Sm7  1  0.60998500  0.80499300  0.00696100  1
  Br  Br0  1  0.26954600  0.13477300  0.87251300  1
  Br  Br1  1  0.03432900  0.51716500  0.68842200  1
  Br  Br2  1  0.13477300  0.26954600  0.37251300  1
  Br  Br3  1  0.51716500  0.48283500  0.18842200  1
  Br  Br4  1  0.13477300  0.86522700  0.37251300  1
  Br  Br5  1  0.96567100  0.48283500  0.18842200  1
  Br  Br6  1  0.86522700  0.13477300  0.87251300  1
  Br  Br7  1  0.48283500  0.96567100  0.68842200  1
  Br  Br8  1  0.73045400  0.86522700  0.37251300  1
  Br  Br9  1  0.86522700  0.73045400  0.87251300  1
  Br  Br10  1  0.48283500  0.51716500  0.68842200  1
  Br  Br11  1  0.51716500  0.03432900  0.18842200  1
  O  O0  1  0.66666700  0.33333300  0.52371000  1
  O  O1  1  0.33333300  0.66666700  0.02371000  1
loop_
_geom_bond_atom_site_label_1
_geom_bond_atom_site_label_2
_geom_bond_distance
_geom_bond_site_symmetry_2
Br0 Sm1 3.005960 1_546
Br0 Sm0 3.005969 1_556
Br0 Sm5 3.126841 1_555
Br0 Sm3 3.245725 1_555
Br1 Sm4 3.063445 1_455
Br1 Sm2 3.063457 1_455
Br1 Sm3 3.156844 1_455
Br1 Sm0 3.486607 1_556
Br1 Sm1 3.486607 1_556
Br1 Sm6 3.864297 1_555
Br2 Sm2 3.005960 1_455
Br2 Sm5 3.005969 1_555
Br2 Sm0 3.126841 1_555
Br2 Sm6 3.245725 1_555
Br3 Sm7 3.063461 1_555
Br3 Sm0 3.063461 1_555
Br3 Sm6 3.156859 1_555
Br3 Sm4 3.486607 1_555
Br3 Sm5 3.486607 1_555
Br3 Sm3 3.864297 1_554
Br4 Sm5 3.005963 1_565
Br4 Sm4 3.005963 1_455
Br4 Sm1 3.126838 1_555
Br4 Sm6 3.245717 1_555
Br5 Sm0 3.063445 1_655
Br5 Sm1 3.063457 1_655
Br5 Sm6 3.156844 1_655
Br5 Sm4 3.486607 1_555
Br5 Sm2 3.486607 1_555
Br5 Sm3 3.864297 1_554
Br6 Sm0 3.005963 1_656
Br6 Sm7 3.005963 1_546
Br6 Sm2 3.126838 1_555
Br6 Sm3 3.245717 1_555
Br7 Sm5 3.063445 1_565
Br7 Sm2 3.063457 1_565
Br7 Sm3 3.156844 1_565
Br7 Sm7 3.486607 1_556
Br7 Sm1 3.486607 1_556
Br7 Sm6 3.864297 1_555
Br8 Sm2 3.005960 1_565
Br8 Sm4 3.005969 1_555
Br8 Sm7 3.126841 1_555
Br8 Sm6 3.245725 1_555
Br9 Sm1 3.005960 1_656
Br9 Sm7 3.005969 1_556
Br9 Sm4 3.126841 1_555
Br9 Sm3 3.245725 1_555
Br10 Sm4 3.063461 1_555
Br10 Sm5 3.063461 1_555
Br10 Sm3 3.156859 1_555
Br10 Sm7 3.486607 1_556
Br10 Sm0 3.486607 1_556
Br10 Sm6 3.864297 1_555
Br11 Sm7 3.063445 1_545
Br11 Sm1 3.063457 1_545
Br11 Sm6 3.156844 1_545
Br11 Sm5 3.486607 1_555
Br11 Sm2 3.486607 1_555
Br11 Sm3 3.864297 1_554
O0 Sm2 2.243923 1_555
O0 Sm4 2.243923 1_555
O0 Sm5 2.243923 1_555
O0 Sm3 2.390010 1_555
O1 Sm1 2.243923 1_555
O1 Sm7 2.243923 1_555
O1 Sm0 2.243923 1_555
O1 Sm6 2.390010 1_555
