# generated using pymatgen
data_LaH18C3S3(O2F)9
_symmetry_space_group_name_H-M   'P 1'
_cell_length_a   14.14781235
_cell_length_b   14.14781235
_cell_length_c   7.43141900
_cell_angle_alpha   90.00000000
_cell_angle_beta   90.00000000
_cell_angle_gamma   120.00000162
_symmetry_Int_Tables_number   1
_chemical_formula_structural   LaH18C3S3(O2F)9
_chemical_formula_sum   'La2 H36 C6 S6 O36 F18'
_cell_volume   1288.19305871
_cell_formula_units_Z   2
loop_
 _symmetry_equiv_pos_site_id
 _symmetry_equiv_pos_as_xyz
  1  'x, y, z'
loop_
 _atom_site_type_symbol
 _atom_site_label
 _atom_site_symmetry_multiplicity
 _atom_site_fract_x
 _atom_site_fract_y
 _atom_site_fract_z
 _atom_site_occupancy
  La  La0  1  0.33333300  0.66666700  0.25000000  1
  La  La1  1  0.66666700  0.33333300  0.75000000  1
  H  H0  1  0.35417300  0.45086500  0.14322200  1
  H  H1  1  0.90330800  0.35417300  0.64322200  1
  H  H2  1  0.45086500  0.09669200  0.64322200  1
  H  H3  1  0.54913500  0.90330800  0.14322200  1
  H  H4  1  0.09669200  0.64582700  0.14322200  1
  H  H5  1  0.64582700  0.54913500  0.64322200  1
  H  H6  1  0.64582700  0.54913500  0.85677800  1
  H  H7  1  0.09669200  0.64582700  0.35677800  1
  H  H8  1  0.54913500  0.90330800  0.35677800  1
  H  H9  1  0.45086500  0.09669200  0.85677800  1
  H  H10  1  0.90330800  0.35417300  0.85677800  1
  H  H11  1  0.35417300  0.45086500  0.35677800  1
  H  H12  1  0.12689000  0.49132000  0.46438800  1
  H  H13  1  0.63556900  0.12689000  0.96438800  1
  H  H14  1  0.49132000  0.36443100  0.96438800  1
  H  H15  1  0.50868000  0.63556900  0.46438800  1
  H  H16  1  0.36443100  0.87311000  0.46438800  1
  H  H17  1  0.87311000  0.50868000  0.96438800  1
  H  H18  1  0.87311000  0.50868000  0.53561200  1
  H  H19  1  0.36443100  0.87311000  0.03561200  1
  H  H20  1  0.50868000  0.63556900  0.03561200  1
  H  H21  1  0.49132000  0.36443100  0.53561200  1
  H  H22  1  0.63556900  0.12689000  0.53561200  1
  H  H23  1  0.12689000  0.49132000  0.03561200  1
  H  H24  1  0.22641500  0.50410400  0.57898900  1
  H  H25  1  0.72231100  0.22641500  0.07898900  1
  H  H26  1  0.50410400  0.27768900  0.07898900  1
  H  H27  1  0.49589600  0.72231100  0.57898900  1
  H  H28  1  0.27768900  0.77358500  0.57898900  1
  H  H29  1  0.77358500  0.49589600  0.07898900  1
  H  H30  1  0.77358500  0.49589600  0.42101100  1
  H  H31  1  0.27768900  0.77358500  0.92101100  1
  H  H32  1  0.49589600  0.72231100  0.92101100  1
  H  H33  1  0.50410400  0.27768900  0.42101100  1
  H  H34  1  0.72231100  0.22641500  0.42101100  1
  H  H35  1  0.22641500  0.50410400  0.92101100  1
  C  C0  1  0.22179500  0.23022100  0.75000000  1
  C  C1  1  0.99157400  0.22179500  0.25000000  1
  C  C2  1  0.23022100  0.00842600  0.25000000  1
  C  C3  1  0.76977900  0.99157400  0.75000000  1
  C  C4  1  0.00842600  0.77820500  0.75000000  1
  C  C5  1  0.77820500  0.76977900  0.25000000  1
  S  S0  1  0.31989500  0.38063000  0.75000000  1
  S  S1  1  0.93926500  0.31989500  0.25000000  1
  S  S2  1  0.38063000  0.06073500  0.25000000  1
  S  S3  1  0.61937000  0.93926500  0.75000000  1
  S  S4  1  0.06073500  0.68010500  0.75000000  1
  S  S5  1  0.68010500  0.61937000  0.25000000  1
  O  O0  1  0.34731700  0.48777700  0.25000000  1
  O  O1  1  0.85954000  0.34731700  0.75000000  1
  O  O2  1  0.48777700  0.14046000  0.75000000  1
  O  O3  1  0.51222300  0.85954000  0.25000000  1
  O  O4  1  0.14046000  0.65268300  0.25000000  1
  O  O5  1  0.65268300  0.51222300  0.75000000  1
  O  O6  1  0.20418700  0.54210500  0.49226700  1
  O  O7  1  0.66208200  0.20418700  0.99226700  1
  O  O8  1  0.54210500  0.33791800  0.99226700  1
  O  O9  1  0.45789500  0.66208200  0.49226700  1
  O  O10  1  0.33791800  0.79581300  0.49226700  1
  O  O11  1  0.79581300  0.45789500  0.99226700  1
  O  O12  1  0.79581300  0.45789500  0.50773300  1
  O  O13  1  0.33791800  0.79581300  0.00773300  1
  O  O14  1  0.45789500  0.66208200  0.00773300  1
  O  O15  1  0.54210500  0.33791800  0.50773300  1
  O  O16  1  0.66208200  0.20418700  0.50773300  1
  O  O17  1  0.20418700  0.54210500  0.00773300  1
  O  O18  1  0.24945200  0.42927400  0.75000000  1
  O  O19  1  0.82017700  0.24945200  0.25000000  1
  O  O20  1  0.42927400  0.17982300  0.25000000  1
  O  O21  1  0.57072600  0.82017700  0.75000000  1
  O  O22  1  0.17982300  0.75054800  0.75000000  1
  O  O23  1  0.75054800  0.57072600  0.25000000  1
  O  O24  1  0.38236300  0.39945500  0.58363300  1
  O  O25  1  0.98290800  0.38236300  0.08363300  1
  O  O26  1  0.39945500  0.01709200  0.08363300  1
  O  O27  1  0.60054500  0.98290800  0.58363300  1
  O  O28  1  0.01709200  0.61763700  0.58363300  1
  O  O29  1  0.61763700  0.60054500  0.08363300  1
  O  O30  1  0.61763700  0.60054500  0.41636700  1
  O  O31  1  0.01709200  0.61763700  0.91636700  1
  O  O32  1  0.60054500  0.98290800  0.91636700  1
  O  O33  1  0.39945500  0.01709200  0.41636700  1
  O  O34  1  0.98290800  0.38236300  0.41636700  1
  O  O35  1  0.38236300  0.39945500  0.91636700  1
  F  F0  1  0.27812300  0.17604500  0.75000000  1
  F  F1  1  0.10207800  0.27812300  0.25000000  1
  F  F2  1  0.17604500  0.89792200  0.25000000  1
  F  F3  1  0.82395500  0.10207800  0.75000000  1
  F  F4  1  0.89792200  0.72187700  0.75000000  1
  F  F5  1  0.72187700  0.82395500  0.25000000  1
  F  F6  1  0.15782300  0.20147700  0.60216800  1
  F  F7  1  0.95634600  0.15782300  0.10216800  1
  F  F8  1  0.20147700  0.04365400  0.10216800  1
  F  F9  1  0.79852300  0.95634600  0.60216800  1
  F  F10  1  0.04365400  0.84217700  0.60216800  1
  F  F11  1  0.84217700  0.79852300  0.10216800  1
  F  F12  1  0.84217700  0.79852300  0.39783200  1
  F  F13  1  0.04365400  0.84217700  0.89783200  1
  F  F14  1  0.79852300  0.95634600  0.89783200  1
  F  F15  1  0.20147700  0.04365400  0.39783200  1
  F  F16  1  0.95634600  0.15782300  0.39783200  1
  F  F17  1  0.15782300  0.20147700  0.89783200  1
loop_
_geom_bond_atom_site_label_1
_geom_bond_atom_site_label_2
_geom_bond_distance
_geom_bond_site_symmetry_2
La0 O10 2.542734 1_555
La0 O13 2.542734 1_555
La0 O6 2.542739 1_555
La0 O17 2.542739 1_555
La0 O9 2.542744 1_555
La0 O14 2.542744 1_555
La0 O4 2.635385 1_555
La0 O3 2.635391 1_555
La0 O0 2.635399 1_555
La1 O16 2.542734 1_555
La1 O7 2.542734 1_555
La1 O11 2.542739 1_555
La1 O12 2.542739 1_555
La1 O8 2.542744 1_555
La1 O15 2.542744 1_555
La1 O1 2.635385 1_555
La1 O2 2.635391 1_555
La1 O5 2.635399 1_555
H0 O0 0.981041 1_555
H1 O1 0.981041 1_555
H2 O2 0.981041 1_555
H3 O3 0.981041 1_555
H4 O4 0.981041 1_555
H5 O5 0.981041 1_555
H6 O5 0.981041 1_555
H7 O4 0.981041 1_555
H8 O3 0.981041 1_555
H9 O2 0.981041 1_555
H10 O1 0.981041 1_555
H11 O0 0.981041 1_555
H12 O6 0.984556 1_555
H13 O7 0.984553 1_555
H14 O8 0.984566 1_555
H15 O9 0.984566 1_555
H16 O10 0.984553 1_555
H17 O11 0.984556 1_555
H18 O12 0.984556 1_555
H19 O13 0.984553 1_555
H20 O14 0.984566 1_555
H21 O15 0.984566 1_555
H22 O16 0.984553 1_555
H23 O17 0.984556 1_555
H24 O6 0.986080 1_555
H25 O7 0.986080 1_554
H26 O8 0.986080 1_554
H27 O9 0.986080 1_555
H28 O10 0.986080 1_555
H29 O11 0.986080 1_554
H30 O12 0.986080 1_555
H31 O13 0.986080 1_556
H32 O14 0.986080 1_556
H33 O15 0.986080 1_555
H34 O16 0.986080 1_555
H35 O17 0.986080 1_556
C0 F17 1.350328 1_555
C0 F6 1.350328 1_555
C0 F0 1.354021 1_555
C1 F16 1.350328 1_555
C1 F7 1.350328 1_555
C1 F1 1.354021 1_655
C2 F15 1.350328 1_555
C2 F8 1.350328 1_555
C2 F2 1.354021 1_545
C3 F14 1.350328 1_555
C3 F9 1.350328 1_555
C3 F3 1.354021 1_565
C4 F13 1.350328 1_555
C4 F10 1.350328 1_555
C4 F4 1.354021 1_455
C5 F12 1.350328 1_555
C5 F11 1.350328 1_555
C5 F5 1.354021 1_555
O18 S0 1.467223 1_555
O19 S1 1.467235 1_555
O20 S2 1.467236 1_555
O21 S3 1.467236 1_555
O22 S4 1.467235 1_555
O23 S5 1.467223 1_555
O24 S0 1.464641 1_555
O25 S1 1.464641 1_555
O26 S2 1.464641 1_555
O27 S3 1.464641 1_555
O28 S4 1.464641 1_555
O29 S5 1.464641 1_555
O30 S5 1.464641 1_555
O31 S4 1.464641 1_555
O32 S3 1.464641 1_555
O33 S2 1.464641 1_555
O34 S1 1.464641 1_555
O35 S0 1.464641 1_555
