# generated using pymatgen
data_Na3MgC2ClO6
_symmetry_space_group_name_H-M   'P 1'
_cell_length_a   10.11759212
_cell_length_b   10.11759212
_cell_length_c   10.11759212
_cell_angle_alpha   60.00000000
_cell_angle_beta   60.00000000
_cell_angle_gamma   60.00000000
_symmetry_Int_Tables_number   1
_chemical_formula_structural   Na3MgC2ClO6
_chemical_formula_sum   'Na12 Mg4 C8 Cl4 O24'
_cell_volume   732.34632164
_cell_formula_units_Z   4
loop_
 _symmetry_equiv_pos_site_id
 _symmetry_equiv_pos_as_xyz
  1  'x, y, z'
loop_
 _atom_site_type_symbol
 _atom_site_label
 _atom_site_symmetry_multiplicity
 _atom_site_fract_x
 _atom_site_fract_y
 _atom_site_fract_z
 _atom_site_occupancy
  Na  Na0  1  0.98464400  0.98464400  0.51535600  1
  Na  Na1  1  0.98464400  0.51535600  0.51535600  1
  Na  Na2  1  0.51535600  0.98464400  0.51535600  1
  Na  Na3  1  0.73464400  0.26535600  0.73464400  1
  Na  Na4  1  0.51535600  0.98464400  0.98464400  1
  Na  Na5  1  0.51535600  0.51535600  0.98464400  1
  Na  Na6  1  0.73464400  0.73464400  0.26535600  1
  Na  Na7  1  0.26535600  0.73464400  0.73464400  1
  Na  Na8  1  0.98464400  0.51535600  0.98464400  1
  Na  Na9  1  0.26535600  0.73464400  0.26535600  1
  Na  Na10  1  0.26535600  0.26535600  0.73464400  1
  Na  Na11  1  0.73464400  0.26535600  0.26535600  1
  Mg  Mg0  1  0.12500000  0.12500000  0.62500000  1
  Mg  Mg1  1  0.12500000  0.12500000  0.12500000  1
  Mg  Mg2  1  0.62500000  0.12500000  0.12500000  1
  Mg  Mg3  1  0.12500000  0.62500000  0.12500000  1
  C  C0  1  0.27792000  0.90736000  0.90736000  1
  C  C1  1  0.90736000  0.90736000  0.90736000  1
  C  C2  1  0.90736000  0.27792000  0.90736000  1
  C  C3  1  0.34264000  0.34264000  0.34264000  1
  C  C4  1  0.34264000  0.34264000  0.97208000  1
  C  C5  1  0.34264000  0.97208000  0.34264000  1
  C  C6  1  0.90736000  0.90736000  0.27792000  1
  C  C7  1  0.97208000  0.34264000  0.34264000  1
  Cl  Cl0  1  0.62500000  0.62500000  0.12500000  1
  Cl  Cl1  1  0.12500000  0.62500000  0.62500000  1
  Cl  Cl2  1  0.62500000  0.62500000  0.62500000  1
  Cl  Cl3  1  0.62500000  0.12500000  0.62500000  1
  O  O0  1  0.75891500  0.27988000  0.98060200  1
  O  O1  1  0.27988000  0.98060200  0.75891500  1
  O  O2  1  0.49108500  0.97012000  0.26939800  1
  O  O3  1  0.98060200  0.75891500  0.98060200  1
  O  O4  1  0.49108500  0.26939800  0.26939800  1
  O  O5  1  0.26939800  0.26939800  0.49108500  1
  O  O6  1  0.26939800  0.97012000  0.26939800  1
  O  O7  1  0.26939800  0.49108500  0.26939800  1
  O  O8  1  0.98060200  0.98060200  0.75891500  1
  O  O9  1  0.26939800  0.49108500  0.97012000  1
  O  O10  1  0.26939800  0.97012000  0.49108500  1
  O  O11  1  0.97012000  0.26939800  0.49108500  1
  O  O12  1  0.97012000  0.49108500  0.26939800  1
  O  O13  1  0.75891500  0.98060200  0.98060200  1
  O  O14  1  0.98060200  0.27988000  0.75891500  1
  O  O15  1  0.97012000  0.26939800  0.26939800  1
  O  O16  1  0.26939800  0.26939800  0.97012000  1
  O  O17  1  0.98060200  0.75891500  0.27988000  1
  O  O18  1  0.75891500  0.98060200  0.27988000  1
  O  O19  1  0.27988000  0.75891500  0.98060200  1
  O  O20  1  0.27988000  0.98060200  0.98060200  1
  O  O21  1  0.49108500  0.26939800  0.97012000  1
  O  O22  1  0.98060200  0.27988000  0.98060200  1
  O  O23  1  0.98060200  0.98060200  0.27988000  1
loop_
_geom_bond_atom_site_label_1
_geom_bond_atom_site_label_2
_geom_bond_distance
_geom_bond_site_symmetry_2
Na0 O8 2.424025 1_555
Na0 O23 2.424035 1_555
Na0 O6 2.699523 1_655
Na0 O15 2.699523 1_565
Na0 O10 2.699527 1_655
Na0 O11 2.699527 1_565
Na1 O17 2.424030 1_555
Na1 O14 2.424030 1_555
Na1 O12 2.699517 1_555
Na1 O11 2.699517 1_555
Na1 O5 2.699523 1_655
Na1 O7 2.699523 1_655
Na2 O18 2.424030 1_555
Na2 O1 2.424030 1_555
Na2 O10 2.699517 1_555
Na2 O2 2.699517 1_555
Na2 O4 2.699523 1_565
Na2 O5 2.699523 1_565
Na3 O21 2.424030 1_555
Na3 O11 2.424030 1_555
Na3 O0 2.699517 1_555
Na3 O14 2.699517 1_555
Na3 O8 2.699523 1_545
Na3 O13 2.699523 1_545
Na4 O13 2.424025 1_555
Na4 O20 2.424035 1_555
Na4 O6 2.699523 1_556
Na4 O16 2.699523 1_565
Na4 O2 2.699527 1_556
Na4 O21 2.699527 1_565
Na5 O19 2.424030 1_555
Na5 O0 2.424030 1_555
Na5 O21 2.699517 1_555
Na5 O9 2.699517 1_555
Na5 O4 2.699523 1_556
Na5 O7 2.699523 1_556
Na6 O12 2.424030 1_555
Na6 O2 2.424030 1_555
Na6 O17 2.699517 1_555
Na6 O18 2.699517 1_555
Na6 O3 2.699523 1_554
Na6 O13 2.699523 1_554
Na7 O9 2.424030 1_555
Na7 O10 2.424030 1_555
Na7 O19 2.699517 1_555
Na7 O1 2.699517 1_555
Na7 O8 2.699523 1_455
Na7 O3 2.699523 1_455
Na8 O3 2.424025 1_555
Na8 O22 2.424035 1_555
Na8 O16 2.699523 1_655
Na8 O15 2.699523 1_556
Na8 O9 2.699527 1_655
Na8 O12 2.699527 1_556
Na9 O7 2.424025 1_555
Na9 O6 2.424035 1_555
Na9 O23 2.699523 1_455
Na9 O20 2.699523 1_554
Na9 O17 2.699527 1_455
Na9 O19 2.699527 1_554
Na10 O5 2.424025 1_555
Na10 O16 2.424035 1_555
Na10 O22 2.699523 1_455
Na10 O20 2.699523 1_545
Na10 O1 2.699527 1_545
Na10 O14 2.699527 1_455
Na11 O4 2.424025 1_555
Na11 O15 2.424035 1_555
Na11 O22 2.699523 1_554
Na11 O23 2.699523 1_545
Na11 O18 2.699527 1_545
Na11 O0 2.699527 1_554
Mg0 O14 2.068823 1_455
Mg0 O10 2.068823 1_545
Mg0 O1 2.068823 1_545
Mg0 O11 2.068823 1_455
Mg0 O8 2.068830 1_445
Mg0 O5 2.068830 1_555
Mg1 O16 2.068830 1_554
Mg1 O6 2.068830 1_545
Mg1 O15 2.068830 1_455
Mg1 O22 2.068830 1_454
Mg1 O20 2.068830 1_544
Mg1 O23 2.068830 1_445
Mg2 O21 2.068823 1_554
Mg2 O0 2.068823 1_554
Mg2 O2 2.068823 1_545
Mg2 O18 2.068823 1_545
Mg2 O4 2.068830 1_555
Mg2 O13 2.068830 1_544
Mg3 O17 2.068823 1_455
Mg3 O9 2.068823 1_554
Mg3 O12 2.068823 1_455
Mg3 O19 2.068823 1_554
Mg3 O7 2.068830 1_555
Mg3 O3 2.068830 1_454
C0 O20 1.295057 1_555
C0 O1 1.295065 1_555
C0 O19 1.295065 1_555
C1 O3 1.295063 1_555
C1 O8 1.295063 1_555
C1 O13 1.295063 1_555
C2 O22 1.295057 1_555
C2 O0 1.295065 1_555
C2 O14 1.295065 1_555
C3 O7 1.295063 1_555
C3 O5 1.295063 1_555
C3 O4 1.295063 1_555
C4 O16 1.295057 1_555
C4 O9 1.295065 1_555
C4 O21 1.295065 1_555
C5 O6 1.295057 1_555
C5 O10 1.295065 1_555
C5 O2 1.295065 1_555
C6 O23 1.295057 1_555
C6 O17 1.295065 1_555
C6 O18 1.295065 1_555
C7 O15 1.295057 1_555
C7 O12 1.295065 1_555
C7 O11 1.295065 1_555
Cl0 Na6 2.976423 1_555
Cl0 Na4 2.976423 1_554
Cl0 Na5 2.976423 1_554
Cl0 Na11 2.976423 1_555
Cl0 Na8 2.976423 1_554
Cl0 Na9 2.976423 1_555
Cl1 Na7 2.976423 1_555
Cl1 Na0 2.976423 1_455
Cl1 Na1 2.976423 1_455
Cl1 Na8 2.976423 1_455
Cl1 Na9 2.976423 1_555
Cl1 Na10 2.976423 1_555
Cl2 Na5 2.976423 1_555
Cl2 Na6 2.976423 1_555
Cl2 Na1 2.976423 1_555
Cl2 Na2 2.976423 1_555
Cl2 Na3 2.976423 1_555
Cl2 Na7 2.976423 1_555
Cl3 Na3 2.976423 1_555
Cl3 Na4 2.976423 1_545
Cl3 Na2 2.976423 1_545
Cl3 Na10 2.976423 1_555
Cl3 Na0 2.976423 1_545
Cl3 Na11 2.976423 1_555
