# generated using pymatgen
data_Cr2B2Ir
_symmetry_space_group_name_H-M   'P 1'
_cell_length_a   5.24962440
_cell_length_b   5.24962440
_cell_length_c   13.46289800
_cell_angle_alpha   90.00000000
_cell_angle_beta   90.00000000
_cell_angle_gamma   148.04787936
_symmetry_Int_Tables_number   1
_chemical_formula_structural   Cr2B2Ir
_chemical_formula_sum   'Cr8 B8 Ir4'
_cell_volume   196.34660346
_cell_formula_units_Z   4
loop_
 _symmetry_equiv_pos_site_id
 _symmetry_equiv_pos_as_xyz
  1  'x, y, z'
loop_
 _atom_site_type_symbol
 _atom_site_label
 _atom_site_symmetry_multiplicity
 _atom_site_fract_x
 _atom_site_fract_y
 _atom_site_fract_z
 _atom_site_occupancy
  Cr  Cr0  1  0.82528300  0.17471700  0.94150800  1
  Cr  Cr1  1  0.00161800  0.99838200  0.75000000  1
  Cr  Cr2  1  0.99838200  0.00161800  0.25000000  1
  Cr  Cr3  1  0.26876400  0.73123600  0.25000000  1
  Cr  Cr4  1  0.73123600  0.26876400  0.75000000  1
  Cr  Cr5  1  0.17471700  0.82528300  0.05849200  1
  Cr  Cr6  1  0.17471700  0.82528300  0.44150800  1
  Cr  Cr7  1  0.82528300  0.17471700  0.55849200  1
  B  B0  1  0.79813100  0.20186900  0.36972000  1
  B  B1  1  0.79813100  0.20186900  0.13028000  1
  B  B2  1  0.20186900  0.79813100  0.63028000  1
  B  B3  1  0.63517500  0.36482500  0.31832700  1
  B  B4  1  0.36482500  0.63517500  0.68167300  1
  B  B5  1  0.63517500  0.36482500  0.18167300  1
  B  B6  1  0.20186900  0.79813100  0.86972000  1
  B  B7  1  0.36482500  0.63517500  0.81832700  1
  Ir  Ir0  1  0.44385400  0.55614600  0.41100400  1
  Ir  Ir1  1  0.44385400  0.55614600  0.08899600  1
  Ir  Ir2  1  0.55614600  0.44385400  0.91100400  1
  Ir  Ir3  1  0.55614600  0.44385400  0.58899600  1
loop_
_geom_bond_atom_site_label_1
_geom_bond_atom_site_label_2
_geom_bond_distance
_geom_bond_site_symmetry_2
B0 B3 1.784434 1_555
B0 Ir0 2.135444 1_545
B0 Ir0 2.135444 1_655
B0 Cr6 2.138586 1_545
B0 Cr6 2.138586 1_655
B0 Cr3 2.184808 1_545
B0 Cr3 2.184808 1_655
B0 Cr7 2.556153 1_555
B0 Cr2 2.585228 1_555
B1 B5 1.784434 1_555
B1 Ir1 2.135444 1_545
B1 Ir1 2.135444 1_655
B1 Cr5 2.138586 1_545
B1 Cr5 2.138586 1_655
B1 Cr3 2.184808 1_545
B1 Cr3 2.184808 1_655
B1 Cr0 2.556153 1_554
B1 Cr2 2.585228 1_555
B2 B4 1.784434 1_555
B2 Ir3 2.135444 1_565
B2 Ir3 2.135444 1_455
B2 Cr7 2.138586 1_565
B2 Cr7 2.138586 1_455
B2 Cr4 2.184808 1_455
B2 Cr4 2.184808 1_565
B2 Cr6 2.556153 1_555
B2 Cr1 2.585228 1_555
B3 B5 1.839759 1_555
B3 Cr3 2.179927 1_545
B3 Cr3 2.179927 1_655
B3 Cr2 2.200078 1_455
B3 Cr2 2.200078 1_565
B3 Cr6 2.235440 1_655
B3 Cr6 2.235440 1_545
B3 Ir0 2.299146 1_555
B4 B7 1.839759 1_555
B4 Cr4 2.179927 1_455
B4 Cr4 2.179927 1_565
B4 Cr1 2.200078 1_655
B4 Cr1 2.200078 1_545
B4 Cr7 2.235440 1_565
B4 Cr7 2.235440 1_455
B4 Ir3 2.299146 1_555
B5 Cr3 2.179927 1_545
B5 Cr3 2.179927 1_655
B5 Cr2 2.200078 1_455
B5 Cr2 2.200078 1_565
B5 Cr5 2.235440 1_655
B5 Cr5 2.235440 1_545
B5 Ir1 2.299146 1_555
B6 B7 1.784434 1_555
B6 Ir2 2.135444 1_565
B6 Ir2 2.135444 1_455
B6 Cr0 2.138586 1_565
B6 Cr0 2.138586 1_455
B6 Cr4 2.184808 1_455
B6 Cr4 2.184808 1_565
B6 Cr5 2.556153 1_556
B6 Cr1 2.585228 1_555
B7 Cr4 2.179927 1_455
B7 Cr4 2.179927 1_565
B7 Cr1 2.200078 1_655
B7 Cr1 2.200078 1_545
B7 Cr0 2.235440 1_565
B7 Cr0 2.235440 1_455
B7 Ir2 2.299146 1_555
