# generated using pymatgen
data_Nd6Nb5S16
_symmetry_space_group_name_H-M   'P 1'
_cell_length_a   8.90151560
_cell_length_b   8.90151560
_cell_length_c   22.94817000
_cell_angle_alpha   90.00000000
_cell_angle_beta   90.00000000
_cell_angle_gamma   142.17101544
_symmetry_Int_Tables_number   1
_chemical_formula_structural   Nd6Nb5S16
_chemical_formula_sum   'Nd12 Nb10 S32'
_cell_volume   1115.20235803
_cell_formula_units_Z   2
loop_
 _symmetry_equiv_pos_site_id
 _symmetry_equiv_pos_as_xyz
  1  'x, y, z'
loop_
 _atom_site_type_symbol
 _atom_site_label
 _atom_site_symmetry_multiplicity
 _atom_site_fract_x
 _atom_site_fract_y
 _atom_site_fract_z
 _atom_site_occupancy
  Nd  Nd0  1  0.93030100  0.93030100  0.67078000  1
  Nd  Nd1  1  0.28910300  0.62187700  0.67362200  1
  Nd  Nd2  1  0.13100100  0.79611900  0.17268600  1
  Nd  Nd3  1  0.62187700  0.28910300  0.32637800  1
  Nd  Nd4  1  0.79611900  0.13100100  0.17268600  1
  Nd  Nd5  1  0.79611900  0.13100100  0.82731400  1
  Nd  Nd6  1  0.13100100  0.79611900  0.82731400  1
  Nd  Nd7  1  0.93030100  0.93030100  0.32922000  1
  Nd  Nd8  1  0.28910300  0.62187700  0.32637800  1
  Nd  Nd9  1  0.62187700  0.28910300  0.67362200  1
  Nd  Nd10  1  0.43879900  0.43879900  0.17372300  1
  Nd  Nd11  1  0.43879900  0.43879900  0.82627700  1
  Nb  Nb0  1  0.47356900  0.27205500  0.50000000  1
  Nb  Nb1  1  0.27205500  0.47356900  0.50000000  1
  Nb  Nb2  1  0.07419800  0.67612100  0.50000000  1
  Nb  Nb3  1  0.42674300  0.62774700  0.00000000  1
  Nb  Nb4  1  0.86755900  0.86755900  0.50000000  1
  Nb  Nb5  1  0.83393500  0.23179000  0.00000000  1
  Nb  Nb6  1  0.62774700  0.42674300  0.00000000  1
  Nb  Nb7  1  0.02594400  0.02594400  0.00000000  1
  Nb  Nb8  1  0.23179000  0.83393500  0.00000000  1
  Nb  Nb9  1  0.67612100  0.07419800  0.50000000  1
  S  S0  1  0.44225500  0.44225500  0.29975100  1
  S  S1  1  0.11963200  0.78638400  0.29923100  1
  S  S2  1  0.20365900  0.20365900  0.43258400  1
  S  S3  1  0.00464500  0.40919700  0.43130600  1
  S  S4  1  0.62372900  0.29091300  0.20071200  1
  S  S5  1  0.78638400  0.11963300  0.70076900  1
  S  S6  1  0.94709300  0.94709300  0.20159100  1
  S  S7  1  0.29184300  0.09684400  0.07016000  1
  S  S8  1  0.00464500  0.40919700  0.56869400  1
  S  S9  1  0.29091300  0.62372900  0.20071200  1
  S  S10  1  0.49715000  0.89826200  0.93140800  1
  S  S11  1  0.80753100  0.60686300  0.57020800  1
  S  S12  1  0.29184300  0.09684400  0.92984000  1
  S  S13  1  0.78638400  0.11963300  0.29923100  1
  S  S14  1  0.80753100  0.60686300  0.42979200  1
  S  S15  1  0.49715000  0.89826200  0.06859200  1
  S  S16  1  0.60686300  0.80753100  0.42979200  1
  S  S17  1  0.11963200  0.78638400  0.70076900  1
  S  S18  1  0.44225500  0.44225500  0.70024900  1
  S  S19  1  0.09684400  0.29184300  0.92984000  1
  S  S20  1  0.62372900  0.29091300  0.79928800  1
  S  S21  1  0.69436800  0.69436800  0.06793500  1
  S  S22  1  0.29091300  0.62372900  0.79928800  1
  S  S23  1  0.60686300  0.80753100  0.57020800  1
  S  S24  1  0.89826200  0.49715000  0.06859200  1
  S  S25  1  0.20365900  0.20365900  0.56741600  1
  S  S26  1  0.94709300  0.94709300  0.79840900  1
  S  S27  1  0.89826200  0.49715000  0.93140800  1
  S  S28  1  0.09684400  0.29184300  0.07016000  1
  S  S29  1  0.40919700  0.00464500  0.56869400  1
  S  S30  1  0.40919700  0.00464500  0.43130600  1
  S  S31  1  0.69436800  0.69436800  0.93206500  1
loop_
_geom_bond_atom_site_label_1
_geom_bond_atom_site_label_2
_geom_bond_distance
_geom_bond_site_symmetry_2
Nd0 S25 2.848700 1_665
Nd0 S17 2.892359 1_655
Nd0 S5 2.892368 1_565
Nd0 S18 2.896549 1_555
Nd0 S26 2.930455 1_555
Nd0 S18 3.030880 1_665
Nd0 S23 3.136837 1_555
Nd0 S11 3.136837 1_555
Nd1 S8 2.867245 1_555
Nd1 S18 2.869108 1_555
Nd1 S17 2.880591 1_555
Nd1 S22 2.883824 1_555
Nd1 S5 2.937976 1_565
Nd1 S5 2.965972 1_455
Nd1 S23 2.996576 1_555
Nd2 S9 2.871454 1_555
Nd2 S24 2.893291 1_455
Nd2 S6 2.898516 1_455
Nd2 S1 2.904647 1_555
Nd2 S4 2.921212 1_565
Nd2 S7 2.949057 1_565
Nd2 S4 2.991496 1_455
Nd3 S30 2.867245 1_555
Nd3 S0 2.869108 1_555
Nd3 S13 2.880582 1_555
Nd3 S4 2.883824 1_555
Nd3 S1 2.937973 1_655
Nd3 S1 2.965975 1_545
Nd3 S14 2.996576 1_555
Nd4 S4 2.871454 1_555
Nd4 S15 2.893291 1_545
Nd4 S6 2.898516 1_545
Nd4 S13 2.904647 1_555
Nd4 S9 2.921212 1_655
Nd4 S28 2.949057 1_655
Nd4 S9 2.991496 1_545
Nd5 S20 2.871454 1_555
Nd5 S10 2.893291 1_545
Nd5 S26 2.898516 1_545
Nd5 S5 2.904647 1_555
Nd5 S22 2.921212 1_655
Nd5 S19 2.949057 1_655
Nd5 S22 2.991496 1_545
Nd6 S22 2.871454 1_555
Nd6 S27 2.893291 1_455
Nd6 S26 2.898516 1_455
Nd6 S17 2.904647 1_555
Nd6 S20 2.921212 1_565
Nd6 S12 2.949057 1_565
Nd6 S20 2.991496 1_455
Nd7 S2 2.848700 1_665
Nd7 S1 2.892359 1_655
Nd7 S13 2.892368 1_565
Nd7 S0 2.896549 1_555
Nd7 S6 2.930455 1_555
Nd7 S0 3.030880 1_665
Nd7 S16 3.136837 1_555
Nd7 S14 3.136837 1_555
Nd8 S3 2.867245 1_555
Nd8 S0 2.869108 1_555
Nd8 S1 2.880591 1_555
Nd8 S9 2.883824 1_555
Nd8 S13 2.937976 1_565
Nd8 S13 2.965972 1_455
Nd8 S16 2.996576 1_555
Nd9 S29 2.867245 1_555
Nd9 S18 2.869108 1_555
Nd9 S5 2.880582 1_555
Nd9 S20 2.883824 1_555
Nd9 S17 2.937973 1_655
Nd9 S17 2.965975 1_545
Nd9 S11 2.996576 1_555
Nd10 S21 2.840549 1_555
Nd10 S9 2.872207 1_555
Nd10 S4 2.872207 1_555
Nd10 S0 2.892181 1_555
Nd10 S6 2.908794 1_445
Nd10 S6 3.002254 1_555
Nd10 S28 3.214763 1_555
Nd10 S7 3.214763 1_555
Nd11 S31 2.840549 1_555
Nd11 S22 2.872207 1_555
Nd11 S20 2.872207 1_555
Nd11 S18 2.892181 1_555
Nd11 S26 2.908794 1_445
Nd11 S26 3.002254 1_555
Nd11 S12 3.214763 1_555
Nd11 S19 3.214763 1_555
Nb0 S25 2.495176 1_555
Nb0 S2 2.495176 1_555
Nb0 S11 2.513898 1_555
Nb0 S14 2.513898 1_555
Nb0 S29 2.514921 1_555
Nb0 S30 2.514921 1_555
Nb1 S25 2.495176 1_555
Nb1 S2 2.495176 1_555
Nb1 S23 2.513898 1_555
Nb1 S16 2.513898 1_555
Nb1 S8 2.514921 1_555
Nb1 S3 2.514921 1_555
Nb2 S29 2.480656 1_565
Nb2 S30 2.480656 1_565
Nb2 S8 2.487980 1_555
Nb2 S3 2.487980 1_555
Nb2 S11 2.509734 1_455
Nb2 S14 2.509734 1_455
Nb3 S21 2.495116 1_555
Nb3 S31 2.495116 1_554
Nb3 S15 2.506967 1_555
Nb3 S10 2.506967 1_554
Nb3 S19 2.507125 1_554
Nb3 S28 2.507125 1_555
Nb4 S25 2.481044 1_665
Nb4 S2 2.481044 1_665
Nb4 S11 2.511504 1_555
Nb4 S23 2.511504 1_555
Nb4 S14 2.511504 1_555
Nb4 S16 2.511504 1_555
Nb5 S15 2.493886 1_545
Nb5 S10 2.493886 1_544
Nb5 S24 2.499693 1_555
Nb5 S27 2.499693 1_554
Nb5 S19 2.525610 1_654
Nb5 S28 2.525610 1_655
Nb6 S21 2.495116 1_555
Nb6 S31 2.495116 1_554
Nb6 S24 2.506967 1_555
Nb6 S27 2.506967 1_554
Nb6 S12 2.507125 1_554
Nb6 S7 2.507125 1_555
Nb7 S21 2.468192 1_445
Nb7 S31 2.468192 1_444
Nb7 S12 2.496608 1_554
Nb7 S19 2.496608 1_554
Nb7 S28 2.496608 1_555
Nb7 S7 2.496608 1_555
Nb8 S24 2.493886 1_455
Nb8 S27 2.493886 1_454
Nb8 S15 2.499693 1_555
Nb8 S10 2.499693 1_554
Nb8 S12 2.525610 1_564
Nb8 S7 2.525610 1_565
Nb9 S8 2.480656 1_655
Nb9 S3 2.480656 1_655
Nb9 S29 2.487980 1_555
Nb9 S30 2.487980 1_555
Nb9 S23 2.509734 1_545
Nb9 S16 2.509734 1_545
