# generated using pymatgen
data_Hg3As8(S4Br3)2
_symmetry_space_group_name_H-M   'P 1'
_cell_length_a   11.95606600
_cell_length_b   10.20096800
_cell_length_c   14.65615470
_cell_angle_alpha   72.02948175
_cell_angle_beta   90.00000000
_cell_angle_gamma   90.00000000
_symmetry_Int_Tables_number   1
_chemical_formula_structural   Hg3As8(S4Br3)2
_chemical_formula_sum   'Hg6 As16 S16 Br12'
_cell_volume   1700.31192420
_cell_formula_units_Z   2
loop_
 _symmetry_equiv_pos_site_id
 _symmetry_equiv_pos_as_xyz
  1  'x, y, z'
loop_
 _atom_site_type_symbol
 _atom_site_label
 _atom_site_symmetry_multiplicity
 _atom_site_fract_x
 _atom_site_fract_y
 _atom_site_fract_z
 _atom_site_occupancy
  Hg  Hg0  1  0.77870200  0.24136500  0.69360800  1
  Hg  Hg1  1  0.27870200  0.75863500  0.80639200  1
  Hg  Hg2  1  0.72129800  0.24136500  0.19360800  1
  Hg  Hg3  1  0.22129800  0.75863500  0.30639200  1
  Hg  Hg4  1  0.50000000  0.00000000  0.50000000  1
  Hg  Hg5  1  0.00000000  0.00000000  0.00000000  1
  As  As0  1  0.91480200  0.62177600  0.58159700  1
  As  As1  1  0.17439100  0.13186400  0.47577000  1
  As  As2  1  0.36549200  0.38716000  0.49321000  1
  As  As3  1  0.32560900  0.13186400  0.97577000  1
  As  As4  1  0.85415800  0.62798400  0.18258700  1
  As  As5  1  0.67439100  0.86813600  0.02423000  1
  As  As6  1  0.14584200  0.37201600  0.81741300  1
  As  As7  1  0.35415800  0.37201600  0.31741300  1
  As  As8  1  0.82560900  0.86813600  0.52423000  1
  As  As9  1  0.08519800  0.37822400  0.41840300  1
  As  As10  1  0.63450800  0.61284000  0.50679000  1
  As  As11  1  0.13450800  0.38716000  0.99321000  1
  As  As12  1  0.86549200  0.61284000  0.00679000  1
  As  As13  1  0.41480200  0.37822400  0.91840300  1
  As  As14  1  0.58519800  0.62177600  0.08159700  1
  As  As15  1  0.64584200  0.62798400  0.68258700  1
  S  S0  1  0.18007900  0.46197400  0.27842200  1
  S  S1  1  0.68007900  0.53802600  0.22157800  1
  S  S2  1  0.31992100  0.46197400  0.77842200  1
  S  S3  1  0.30343700  0.48433900  0.99964900  1
  S  S4  1  0.81992100  0.53802600  0.72157800  1
  S  S5  1  0.30623300  0.17226600  0.57478100  1
  S  S6  1  0.29273900  0.15223700  0.35161900  1
  S  S7  1  0.69376700  0.82773400  0.42521900  1
  S  S8  1  0.80623300  0.82773400  0.92521900  1
  S  S9  1  0.79273900  0.84776300  0.14838100  1
  S  S10  1  0.20726100  0.15223700  0.85161900  1
  S  S11  1  0.19656300  0.48433900  0.49964900  1
  S  S12  1  0.69656300  0.51566100  0.00035100  1
  S  S13  1  0.19376700  0.17226600  0.07478100  1
  S  S14  1  0.80343700  0.51566100  0.50035100  1
  S  S15  1  0.70726100  0.84776300  0.64838100  1
  Br  Br0  1  0.53466700  0.15892900  0.16412100  1
  Br  Br1  1  0.38334100  0.78720700  0.55622400  1
  Br  Br2  1  0.03466700  0.84107100  0.33587900  1
  Br  Br3  1  0.11665900  0.78720700  0.05622400  1
  Br  Br4  1  0.42126400  0.73746100  0.26914700  1
  Br  Br5  1  0.96533300  0.15892900  0.66412100  1
  Br  Br6  1  0.88334100  0.21279300  0.94377600  1
  Br  Br7  1  0.61665900  0.21279300  0.44377600  1
  Br  Br8  1  0.07873600  0.73746100  0.76914700  1
  Br  Br9  1  0.92126400  0.26253900  0.23085300  1
  Br  Br10  1  0.46533300  0.84107100  0.83587900  1
  Br  Br11  1  0.57873600  0.26253900  0.73085300  1
loop_
_geom_bond_atom_site_label_1
_geom_bond_atom_site_label_2
_geom_bond_distance
_geom_bond_site_symmetry_2
As0 S4 2.268086 1_555
As0 S14 2.271094 1_555
As1 S6 2.263375 1_555
As1 S5 2.264819 1_555
As2 S5 2.262637 1_555
As2 S11 2.264650 1_555
As3 S10 2.263375 1_555
As3 S13 2.264819 1_556
As4 S9 2.263494 1_555
As4 S1 2.275277 1_555
As5 S9 2.263375 1_555
As5 S8 2.264819 1_554
As6 S10 2.263494 1_555
As6 S2 2.275277 1_555
As7 S6 2.263494 1_555
As7 S0 2.275277 1_555
As8 S15 2.263375 1_555
As8 S7 2.264819 1_555
As9 S0 2.268086 1_555
As9 S11 2.271094 1_555
As10 S7 2.262637 1_555
As10 S14 2.264650 1_555
As11 S13 2.262637 1_556
As11 S3 2.264650 1_555
As12 S8 2.262637 1_554
As12 S12 2.264650 1_555
As13 S2 2.268086 1_555
As13 S3 2.271094 1_555
As14 S1 2.268086 1_555
As14 S12 2.271094 1_555
As15 S15 2.263494 1_555
As15 S4 2.275277 1_555
Br0 Hg2 2.469251 1_555
Br1 Hg4 2.496522 1_565
Br2 Hg3 2.469251 1_555
Br3 Hg5 2.496522 1_565
Br4 Hg3 2.476557 1_555
Br5 Hg0 2.469251 1_555
Br6 Hg5 2.496522 1_656
Br7 Hg4 2.496522 1_555
Br8 Hg1 2.476557 1_555
Br9 Hg2 2.476557 1_555
Br10 Hg1 2.469251 1_555
Br11 Hg0 2.476557 1_555
