# generated using pymatgen
data_Cr(PO3)3
_symmetry_space_group_name_H-M   'P 1'
_cell_length_a   6.53646570
_cell_length_b   10.85637130
_cell_length_c   9.53772350
_cell_angle_alpha   81.14111263
_cell_angle_beta   90.00000612
_cell_angle_gamma   90.00000976
_symmetry_Int_Tables_number   1
_chemical_formula_structural   Cr(PO3)3
_chemical_formula_sum   'Cr4 P12 O36'
_cell_volume   668.74475750
_cell_formula_units_Z   4
loop_
 _symmetry_equiv_pos_site_id
 _symmetry_equiv_pos_as_xyz
  1  'x, y, z'
loop_
 _atom_site_type_symbol
 _atom_site_label
 _atom_site_symmetry_multiplicity
 _atom_site_fract_x
 _atom_site_fract_y
 _atom_site_fract_z
 _atom_site_occupancy
  Cr  Cr0  1  0.75000000  0.75000000  0.25000000  1
  Cr  Cr1  1  0.25000100  0.75000000  0.75000100  1
  Cr  Cr2  1  0.25000100  0.25000000  0.75000000  1
  Cr  Cr3  1  0.74999900  0.25000100  0.25000100  1
  P  P0  1  0.04841400  0.50000400  0.24999800  1
  P  P1  1  0.54841400  0.99999600  0.75000100  1
  P  P2  1  0.95158600  0.50000400  0.74999900  1
  P  P3  1  0.45158600  0.99999600  0.25000100  1
  P  P4  1  0.59446500  0.38659300  0.93626100  1
  P  P5  1  0.09446500  0.88658600  0.43626200  1
  P  P6  1  0.09446500  0.11340700  0.06373900  1
  P  P7  1  0.59446500  0.61341400  0.56373700  1
  P  P8  1  0.90553500  0.88658600  0.93626200  1
  P  P9  1  0.40553500  0.38659300  0.43626100  1
  P  P10  1  0.40553500  0.61341400  0.06373700  1
  P  P11  1  0.90553500  0.11340700  0.56373900  1
  O  O0  1  0.99999500  0.00000700  0.00000000  1
  O  O1  1  0.50000500  0.49999300  0.50000100  1
  O  O2  1  0.49999500  0.49999300  0.00000100  1
  O  O3  1  0.00000500  0.00000700  0.49999900  1
  O  O4  1  0.53040300  0.64053000  0.18720800  1
  O  O5  1  0.03039600  0.14053700  0.68720900  1
  O  O6  1  0.46960400  0.35946300  0.81279100  1
  O  O7  1  0.96959800  0.85947000  0.31279200  1
  O  O8  1  0.46959700  0.64053000  0.68720800  1
  O  O9  1  0.96960400  0.14053700  0.18720900  1
  O  O10  1  0.53039600  0.35946300  0.31279100  1
  O  O11  1  0.03040300  0.85947000  0.81279200  1
  O  O12  1  0.06809000  0.39700500  0.69833600  1
  O  O13  1  0.56810000  0.89701400  0.19833600  1
  O  O14  1  0.93191100  0.39700600  0.19833600  1
  O  O15  1  0.43190000  0.89701400  0.69833600  1
  O  O16  1  0.06810000  0.60298600  0.80166400  1
  O  O17  1  0.56808900  0.10299400  0.30166400  1
  O  O18  1  0.93190000  0.60298600  0.30166400  1
  O  O19  1  0.43191000  0.10299400  0.80166400  1
  O  O20  1  0.80790400  0.55516800  0.62084200  1
  O  O21  1  0.30790800  0.05518500  0.12084200  1
  O  O22  1  0.19209500  0.55516800  0.12084200  1
  O  O23  1  0.69209200  0.05518500  0.62084100  1
  O  O24  1  0.80790800  0.44481500  0.87915900  1
  O  O25  1  0.30790500  0.94483200  0.37915800  1
  O  O26  1  0.19209200  0.44481500  0.37915800  1
  O  O27  1  0.69209500  0.94483200  0.87915800  1
  O  O28  1  0.13309700  0.22041500  0.94683400  1
  O  O29  1  0.63310200  0.72040600  0.44683100  1
  O  O30  1  0.86689800  0.77959400  0.05316900  1
  O  O31  1  0.36690300  0.27958500  0.55316600  1
  O  O32  1  0.36689800  0.72040600  0.94683100  1
  O  O33  1  0.86690300  0.22041500  0.44683400  1
  O  O34  1  0.63309700  0.27958500  0.05316600  1
  O  O35  1  0.13310200  0.77959400  0.55316900  1
loop_
_geom_bond_atom_site_label_1
_geom_bond_atom_site_label_2
_geom_bond_distance
_geom_bond_site_symmetry_2
Cr0 O18 1.990376 1_555
Cr0 O13 1.990376 1_555
Cr0 O30 2.006397 1_555
Cr0 O29 2.006397 1_555
Cr0 O4 2.012620 1_555
Cr0 O7 2.012625 1_555
Cr1 O15 1.990373 1_555
Cr1 O16 1.990379 1_555
Cr1 O32 2.006386 1_555
Cr1 O35 2.006408 1_555
Cr1 O8 2.012619 1_555
Cr1 O11 2.012621 1_555
Cr2 O12 1.990345 1_555
Cr2 O19 1.990345 1_555
Cr2 O31 2.006431 1_555
Cr2 O28 2.006436 1_555
Cr2 O6 2.012596 1_555
Cr2 O5 2.012605 1_555
Cr3 O14 1.990350 1_555
Cr3 O17 1.990356 1_555
Cr3 O33 2.006428 1_555
Cr3 O34 2.006440 1_555
Cr3 O10 2.012586 1_555
Cr3 O9 2.012616 1_555
O0 P6 1.580200 1_655
O0 P8 1.580361 1_544
O1 P9 1.580205 1_555
O1 P7 1.580352 1_555
O2 P4 1.580205 1_554
O2 P10 1.580352 1_555
O3 P11 1.580205 1_455
O3 P5 1.580357 1_545
O4 P10 1.498809 1_555
O5 P11 1.498825 1_455
O6 P4 1.498825 1_555
O7 P5 1.498798 1_655
O8 P7 1.498809 1_555
O9 P6 1.498825 1_655
O10 P9 1.498825 1_555
O11 P8 1.498802 1_455
O12 P2 1.497594 1_455
O13 P3 1.497488 1_555
O14 P0 1.497577 1_655
O15 P1 1.497488 1_555
O16 P2 1.497488 1_455
O17 P3 1.497581 1_545
O18 P0 1.497492 1_655
O19 P1 1.497585 1_545
O20 P2 1.590901 1_555
O20 P7 1.592742 1_555
O21 P3 1.590969 1_545
O21 P6 1.592670 1_555
O22 P0 1.590890 1_555
O22 P10 1.592748 1_555
O23 P1 1.590976 1_545
O23 P11 1.592667 1_555
O24 P2 1.590976 1_555
O24 P4 1.592667 1_555
O25 P3 1.590897 1_555
O25 P5 1.592745 1_555
O26 P0 1.590976 1_555
O26 P9 1.592670 1_555
O27 P1 1.590897 1_555
O27 P8 1.592745 1_555
O28 P6 1.502542 1_556
O29 P7 1.502439 1_555
O30 P8 1.502445 1_554
O31 P9 1.502542 1_555
O32 P10 1.502439 1_556
O33 P11 1.502542 1_555
O34 P4 1.502542 1_554
O35 P5 1.502445 1_555
