# generated using pymatgen
data_Sr4GaN3O
_symmetry_space_group_name_H-M   'P 1'
_cell_length_a   7.42017400
_cell_length_b   7.44376300
_cell_length_c   23.86221400
_cell_angle_alpha   90.00000000
_cell_angle_beta   90.00000000
_cell_angle_gamma   90.00000000
_symmetry_Int_Tables_number   1
_chemical_formula_structural   Sr4GaN3O
_chemical_formula_sum   'Sr32 Ga8 N24 O8'
_cell_volume   1318.00592597
_cell_formula_units_Z   8
loop_
 _symmetry_equiv_pos_site_id
 _symmetry_equiv_pos_as_xyz
  1  'x, y, z'
loop_
 _atom_site_type_symbol
 _atom_site_label
 _atom_site_symmetry_multiplicity
 _atom_site_fract_x
 _atom_site_fract_y
 _atom_site_fract_z
 _atom_site_occupancy
  Sr  Sr0  1  0.26019700  0.53977500  0.75422900  1
  Sr  Sr1  1  0.85754100  0.96746200  0.93842900  1
  Sr  Sr2  1  0.15954000  0.86376600  0.43878000  1
  Sr  Sr3  1  0.26019700  0.96022500  0.25422900  1
  Sr  Sr4  1  0.64245900  0.03253800  0.43842900  1
  Sr  Sr5  1  0.34046000  0.13623400  0.93878000  1
  Sr  Sr6  1  0.23980300  0.46022500  0.25422900  1
  Sr  Sr7  1  0.99118600  0.29597300  0.85463100  1
  Sr  Sr8  1  0.00881400  0.70402700  0.14536900  1
  Sr  Sr9  1  0.34046000  0.36376600  0.43878000  1
  Sr  Sr10  1  0.00881400  0.79597300  0.64536900  1
  Sr  Sr11  1  0.76019700  0.53977500  0.74577100  1
  Sr  Sr12  1  0.99118600  0.20402700  0.35463100  1
  Sr  Sr13  1  0.49118600  0.29597300  0.64536900  1
  Sr  Sr14  1  0.23980300  0.03977500  0.75422900  1
  Sr  Sr15  1  0.14245900  0.46746200  0.56157100  1
  Sr  Sr16  1  0.15954000  0.63623400  0.93878000  1
  Sr  Sr17  1  0.64245900  0.46746200  0.93842900  1
  Sr  Sr18  1  0.73980300  0.46022500  0.24577100  1
  Sr  Sr19  1  0.50881400  0.70402700  0.35463100  1
  Sr  Sr20  1  0.65954000  0.86376600  0.06122000  1
  Sr  Sr21  1  0.50881400  0.79597300  0.85463100  1
  Sr  Sr22  1  0.35754100  0.96746200  0.56157100  1
  Sr  Sr23  1  0.65954000  0.63623400  0.56122000  1
  Sr  Sr24  1  0.85754100  0.53253800  0.43842900  1
  Sr  Sr25  1  0.35754100  0.53253800  0.06157100  1
  Sr  Sr26  1  0.49118600  0.20402700  0.14536900  1
  Sr  Sr27  1  0.84046000  0.13623400  0.56122000  1
  Sr  Sr28  1  0.73980300  0.03977500  0.74577100  1
  Sr  Sr29  1  0.84046000  0.36376600  0.06122000  1
  Sr  Sr30  1  0.14245900  0.03253800  0.06157100  1
  Sr  Sr31  1  0.76019700  0.96022500  0.24577100  1
  Ga  Ga0  1  0.50509500  0.28779500  0.82857200  1
  Ga  Ga1  1  0.49490500  0.71220500  0.17142800  1
  Ga  Ga2  1  0.50509500  0.21220500  0.32857200  1
  Ga  Ga3  1  0.49490500  0.78779500  0.67142800  1
  Ga  Ga4  1  0.00509500  0.21220500  0.17142800  1
  Ga  Ga5  1  0.99490500  0.71220500  0.32857200  1
  Ga  Ga6  1  0.99490500  0.78779500  0.82857200  1
  Ga  Ga7  1  0.00509500  0.28779500  0.67142800  1
  N  N0  1  0.15333600  0.93565200  0.87307900  1
  N  N1  1  0.00174100  0.20772300  0.25085600  1
  N  N2  1  0.84621900  0.63050900  0.87206000  1
  N  N3  1  0.65378100  0.36949100  0.37206000  1
  N  N4  1  0.49825900  0.70772300  0.25085600  1
  N  N5  1  0.99825900  0.79227700  0.74914400  1
  N  N6  1  0.15378100  0.13050900  0.62794000  1
  N  N7  1  0.50174100  0.29227700  0.74914400  1
  N  N8  1  0.50174100  0.20772300  0.24914400  1
  N  N9  1  0.84621900  0.86949100  0.37206000  1
  N  N10  1  0.99825900  0.70772300  0.24914400  1
  N  N11  1  0.84666400  0.43565200  0.62692100  1
  N  N12  1  0.00174100  0.29227700  0.75085600  1
  N  N13  1  0.15333600  0.56434800  0.37307900  1
  N  N14  1  0.49825900  0.79227700  0.75085600  1
  N  N15  1  0.65378100  0.13050900  0.87206000  1
  N  N16  1  0.84666400  0.06434800  0.12692100  1
  N  N17  1  0.34666400  0.43565200  0.87307900  1
  N  N18  1  0.15378100  0.36949100  0.12794000  1
  N  N19  1  0.34666400  0.06434800  0.37307900  1
  N  N20  1  0.34621800  0.63050900  0.62794000  1
  N  N21  1  0.65333600  0.56434800  0.12692100  1
  N  N22  1  0.34621800  0.86949100  0.12794000  1
  N  N23  1  0.65333600  0.93565200  0.62692100  1
  O  O0  1  0.52273500  0.26244000  0.02444400  1
  O  O1  1  0.97726500  0.76244000  0.02444400  1
  O  O2  1  0.47726500  0.73756000  0.97555600  1
  O  O3  1  0.02273500  0.23756000  0.97555600  1
  O  O4  1  0.52273500  0.23756000  0.52444400  1
  O  O5  1  0.02273500  0.26244000  0.47555600  1
  O  O6  1  0.97726500  0.73756000  0.52444400  1
  O  O7  1  0.47726500  0.76244000  0.47555600  1
loop_
_geom_bond_atom_site_label_1
_geom_bond_atom_site_label_2
_geom_bond_distance
_geom_bond_site_symmetry_2
Ga0 N7 1.895785 1_555
Ga0 N15 1.914380 1_555
Ga0 N17 1.929059 1_555
Ga1 N4 1.895785 1_555
Ga1 N22 1.914385 1_555
Ga1 N21 1.929059 1_555
Ga2 N8 1.895785 1_555
Ga2 N3 1.914380 1_555
Ga2 N19 1.929059 1_555
Ga3 N14 1.895785 1_555
Ga3 N20 1.914385 1_555
Ga3 N23 1.929059 1_555
Ga4 N1 1.895785 1_555
Ga4 N18 1.914380 1_555
Ga4 N16 1.929059 1_455
Ga5 N10 1.895785 1_555
Ga5 N9 1.914380 1_555
Ga5 N13 1.929059 1_655
Ga6 N5 1.895785 1_555
Ga6 N2 1.914380 1_555
Ga6 N0 1.929059 1_655
Ga7 N12 1.895785 1_555
Ga7 N6 1.914380 1_555
Ga7 N11 1.929059 1_455
N0 Sr5 2.571988 1_565
N0 Sr1 2.702804 1_455
N0 Sr16 2.725355 1_555
N0 Sr21 2.869206 1_555
N0 Sr7 2.972428 1_465
N0 Sr14 3.009221 1_565
N1 Sr12 2.477692 1_455
N1 Sr31 2.573167 1_445
N1 Sr6 2.580626 1_555
N1 Sr3 2.660549 1_545
N1 Sr18 2.706505 1_455
N2 Sr17 2.503421 1_555
N2 Sr7 2.744301 1_555
N2 Sr16 2.818102 1_655
N2 Sr21 2.820997 1_555
N2 Sr1 2.967534 1_555
N2 Sr11 3.153567 1_555
N3 Sr24 2.503421 1_555
N3 Sr19 2.744301 1_555
N3 Sr9 2.818102 1_555
N3 Sr12 2.820997 1_555
N3 Sr4 2.967534 1_555
N3 Sr18 3.153567 1_555
N4 Sr19 2.477692 1_555
N4 Sr18 2.573167 1_555
N4 Sr3 2.580626 1_555
N4 Sr6 2.660549 1_555
N4 Sr31 2.706505 1_555
N5 Sr10 2.477692 1_655
N5 Sr14 2.573167 1_665
N5 Sr11 2.580626 1_555
N5 Sr28 2.660549 1_565
N5 Sr0 2.706505 1_655
N6 Sr22 2.503421 1_545
N6 Sr10 2.744301 1_545
N6 Sr27 2.818102 1_455
N6 Sr13 2.820997 1_555
N6 Sr15 2.967534 1_555
N6 Sr14 3.153567 1_555
N7 Sr13 2.477692 1_555
N7 Sr0 2.573167 1_555
N7 Sr28 2.580626 1_555
N7 Sr11 2.660549 1_555
N7 Sr14 2.706505 1_555
N8 Sr26 2.477692 1_555
N8 Sr3 2.573167 1_545
N8 Sr18 2.580626 1_555
N8 Sr31 2.660549 1_545
N8 Sr6 2.706505 1_555
N9 Sr4 2.503421 1_565
N9 Sr12 2.744301 1_565
N9 Sr2 2.818102 1_655
N9 Sr19 2.820997 1_555
N9 Sr24 2.967534 1_555
N9 Sr31 3.153567 1_555
N10 Sr8 2.477692 1_655
N10 Sr6 2.573167 1_655
N10 Sr31 2.580626 1_555
N10 Sr18 2.660549 1_555
N10 Sr3 2.706505 1_655
N11 Sr23 2.571988 1_555
N11 Sr15 2.702804 1_655
N11 Sr27 2.725355 1_555
N11 Sr13 2.869206 1_555
N11 Sr10 2.972428 1_655
N11 Sr11 3.009221 1_555
N12 Sr7 2.477692 1_455
N12 Sr11 2.573167 1_455
N12 Sr14 2.580626 1_555
N12 Sr0 2.660549 1_555
N12 Sr28 2.706505 1_455
N13 Sr9 2.571988 1_555
N13 Sr24 2.702804 1_455
N13 Sr2 2.725355 1_555
N13 Sr19 2.869206 1_555
N13 Sr12 2.972428 1_455
N13 Sr6 3.009221 1_555
N14 Sr21 2.477692 1_555
N14 Sr28 2.573167 1_565
N14 Sr0 2.580626 1_555
N14 Sr14 2.660549 1_565
N14 Sr11 2.706505 1_555
N15 Sr1 2.503421 1_545
N15 Sr21 2.744301 1_545
N15 Sr5 2.818102 1_555
N15 Sr7 2.820997 1_555
N15 Sr17 2.967534 1_555
N15 Sr28 3.153567 1_555
N16 Sr20 2.571988 1_545
N16 Sr30 2.702804 1_655
N16 Sr29 2.725355 1_555
N16 Sr26 2.869206 1_555
N16 Sr8 2.972428 1_645
N16 Sr31 3.009221 1_545
N17 Sr16 2.571988 1_555
N17 Sr17 2.702804 1_555
N17 Sr5 2.725355 1_555
N17 Sr7 2.869206 1_455
N17 Sr21 2.972428 1_555
N17 Sr0 3.009221 1_555
N18 Sr25 2.503421 1_555
N18 Sr8 2.744301 1_555
N18 Sr29 2.818102 1_455
N18 Sr26 2.820997 1_555
N18 Sr30 2.967534 1_555
N18 Sr6 3.153567 1_555
N19 Sr2 2.571988 1_545
N19 Sr4 2.702804 1_555
N19 Sr9 2.725355 1_555
N19 Sr12 2.869206 1_455
N19 Sr19 2.972428 1_545
N19 Sr3 3.009221 1_545
N20 Sr15 2.503416 1_555
N20 Sr13 2.744304 1_555
N20 Sr23 2.818108 1_555
N20 Sr10 2.820990 1_555
N20 Sr22 2.967534 1_555
N20 Sr0 3.153566 1_555
N21 Sr29 2.571988 1_555
N21 Sr25 2.702804 1_555
N21 Sr20 2.725355 1_555
N21 Sr8 2.869206 1_655
N21 Sr26 2.972428 1_555
N21 Sr18 3.009221 1_555
N22 Sr30 2.503416 1_565
N22 Sr26 2.744304 1_565
N22 Sr20 2.818108 1_555
N22 Sr8 2.820990 1_555
N22 Sr25 2.967534 1_555
N22 Sr3 3.153566 1_555
N23 Sr27 2.571988 1_565
N23 Sr22 2.702804 1_555
N23 Sr23 2.725355 1_555
N23 Sr10 2.869206 1_655
N23 Sr13 2.972428 1_565
N23 Sr28 3.009221 1_565
O0 Sr25 2.515885 1_555
O0 Sr5 2.624944 1_554
O0 Sr29 2.626243 1_555
O0 Sr17 2.707598 1_554
O0 Sr26 2.927490 1_555
O0 Sr20 3.256904 1_545
O1 Sr30 2.515885 1_665
O1 Sr16 2.624944 1_654
O1 Sr20 2.626243 1_555
O1 Sr1 2.707598 1_554
O1 Sr8 2.927490 1_655
O1 Sr29 3.256904 1_555
O2 Sr17 2.515885 1_555
O2 Sr20 2.624944 1_556
O2 Sr16 2.626243 1_555
O2 Sr25 2.707598 1_556
O2 Sr21 2.927490 1_555
O2 Sr5 3.256904 1_565
O3 Sr1 2.515885 1_445
O3 Sr29 2.624944 1_456
O3 Sr5 2.626243 1_555
O3 Sr30 2.707598 1_556
O3 Sr7 2.927490 1_455
O3 Sr16 3.256904 1_555
O4 Sr22 2.515885 1_545
O4 Sr9 2.624944 1_555
O4 Sr27 2.626243 1_555
O4 Sr4 2.707598 1_555
O4 Sr13 2.927490 1_555
O4 Sr23 3.256904 1_555
O5 Sr24 2.515885 1_455
O5 Sr27 2.624944 1_455
O5 Sr9 2.626243 1_555
O5 Sr15 2.707598 1_555
O5 Sr12 2.927490 1_455
O5 Sr2 3.256904 1_545
O6 Sr15 2.515885 1_655
O6 Sr2 2.624944 1_655
O6 Sr23 2.626243 1_555
O6 Sr24 2.707598 1_555
O6 Sr10 2.927490 1_655
O6 Sr27 3.256904 1_565
O7 Sr4 2.515885 1_565
O7 Sr23 2.624944 1_555
O7 Sr2 2.626243 1_555
O7 Sr22 2.707598 1_555
O7 Sr19 2.927490 1_555
O7 Sr9 3.256904 1_555
