# generated using pymatgen
data_Zn2SeCl2O3
_symmetry_space_group_name_H-M   'P 1'
_cell_length_a   7.63832277
_cell_length_b   10.23390047
_cell_length_c   15.18587519
_cell_angle_alpha   90.00000000
_cell_angle_beta   90.00000000
_cell_angle_gamma   90.00000000
_symmetry_Int_Tables_number   1
_chemical_formula_structural   Zn2SeCl2O3
_chemical_formula_sum   'Zn16 Se8 Cl16 O24'
_cell_volume   1187.07735772
_cell_formula_units_Z   8
loop_
 _symmetry_equiv_pos_site_id
 _symmetry_equiv_pos_as_xyz
  1  'x, y, z'
loop_
 _atom_site_type_symbol
 _atom_site_label
 _atom_site_symmetry_multiplicity
 _atom_site_fract_x
 _atom_site_fract_y
 _atom_site_fract_z
 _atom_site_occupancy
  Zn  Zn0  1  0.39580958  0.22443097  0.53110882  1
  Zn  Zn1  1  0.35029845  0.49498221  0.38713071  1
  Zn  Zn2  1  0.89580958  0.27556903  0.53110882  1
  Zn  Zn3  1  0.85029845  0.49498221  0.11286929  1
  Zn  Zn4  1  0.60419042  0.72443097  0.03110882  1
  Zn  Zn5  1  0.14970155  0.50501779  0.88713071  1
  Zn  Zn6  1  0.64970155  0.99498221  0.88713071  1
  Zn  Zn7  1  0.35029845  0.00501779  0.11286929  1
  Zn  Zn8  1  0.89580958  0.22443097  0.96889118  1
  Zn  Zn9  1  0.10419042  0.72443097  0.46889118  1
  Zn  Zn10  1  0.85029845  0.00501779  0.38713071  1
  Zn  Zn11  1  0.14970155  0.99498221  0.61286929  1
  Zn  Zn12  1  0.60419042  0.77556903  0.46889118  1
  Zn  Zn13  1  0.64970155  0.50501779  0.61286929  1
  Zn  Zn14  1  0.10419042  0.77556903  0.03110882  1
  Zn  Zn15  1  0.39580958  0.27556903  0.96889118  1
  Se  Se0  1  0.22152873  0.46369015  0.59344383  1
  Se  Se1  1  0.77847127  0.96369015  0.09344383  1
  Se  Se2  1  0.72152873  0.03630985  0.59344383  1
  Se  Se3  1  0.77847127  0.53630985  0.40655617  1
  Se  Se4  1  0.27847127  0.53630985  0.09344383  1
  Se  Se5  1  0.72152873  0.46369015  0.90655617  1
  Se  Se6  1  0.27847127  0.96369015  0.40655617  1
  Se  Se7  1  0.22152873  0.03630985  0.90655617  1
  Cl  Cl0  1  0.33738782  0.40717837  0.79973306  1
  Cl  Cl1  1  0.93317144  0.28595025  0.12044596  1
  Cl  Cl2  1  0.16261218  0.59282163  0.29973306  1
  Cl  Cl3  1  0.16261218  0.90717837  0.20026694  1
  Cl  Cl4  1  0.43317144  0.21404875  0.12044596  1
  Cl  Cl5  1  0.56682856  0.78595025  0.87955404  1
  Cl  Cl6  1  0.66261218  0.59282163  0.20026694  1
  Cl  Cl7  1  0.43317144  0.28595025  0.37955404  1
  Cl  Cl8  1  0.66261218  0.90717837  0.29973306  1
  Cl  Cl9  1  0.93317144  0.21404875  0.37955404  1
  Cl  Cl10  1  0.56682856  0.71404975  0.62044596  1
  Cl  Cl11  1  0.06682856  0.71404975  0.87955404  1
  Cl  Cl12  1  0.06682856  0.78595025  0.62044596  1
  Cl  Cl13  1  0.33738782  0.09282163  0.70026694  1
  Cl  Cl14  1  0.83738782  0.40717837  0.70026694  1
  Cl  Cl15  1  0.83738782  0.09282163  0.79973306  1
  O  O0  1  0.64651997  0.31508400  0.94261429  1
  O  O1  1  0.85348003  0.68491600  0.44261429  1
  O  O2  1  0.78773026  0.04964551  0.99505047  1
  O  O3  1  0.06645790  0.90776879  0.41291713  1
  O  O4  1  0.28773026  0.45035449  0.99505047  1
  O  O5  1  0.78773026  0.45035449  0.50494953  1
  O  O6  1  0.06645790  0.59223121  0.08708287  1
  O  O7  1  0.21226974  0.54964551  0.49505047  1
  O  O8  1  0.35348003  0.68491600  0.05738571  1
  O  O9  1  0.85348003  0.81508400  0.05738571  1
  O  O10  1  0.28773026  0.04964551  0.50494953  1
  O  O11  1  0.71226974  0.54964551  0.00494953  1
  O  O12  1  0.14651997  0.18491600  0.94261429  1
  O  O13  1  0.43354210  0.40776879  0.58708287  1
  O  O14  1  0.21226974  0.95035449  0.00494953  1
  O  O15  1  0.93354210  0.40776879  0.91291713  1
  O  O16  1  0.56645790  0.59223121  0.41291713  1
  O  O17  1  0.71226974  0.95035449  0.49505047  1
  O  O18  1  0.93354210  0.09223121  0.58708287  1
  O  O19  1  0.43354210  0.09223121  0.91291713  1
  O  O20  1  0.64651997  0.18491600  0.55738571  1
  O  O21  1  0.14651997  0.31508400  0.55738571  1
  O  O22  1  0.35348003  0.81508400  0.44261429  1
  O  O23  1  0.56645790  0.90776879  0.08708287  1
loop_
_geom_bond_atom_site_label_1
_geom_bond_atom_site_label_2
_geom_bond_distance
_geom_bond_site_symmetry_2
Cl0 Zn5 2.195285 1_555
Cl1 Zn3 2.233869 1_555
Cl1 Zn8 2.403057 1_554
Cl2 Zn1 2.195285 1_555
Cl3 Zn7 2.195285 1_565
Cl4 Zn7 2.233859 1_555
Cl4 Zn15 2.403059 1_554
Cl5 Zn6 2.233869 1_555
Cl5 Zn4 2.403057 1_556
Cl6 Zn3 2.195285 1_555
Cl7 Zn1 2.233869 1_555
Cl7 Zn0 2.403057 1_555
Cl8 Zn10 2.195285 1_565
Cl9 Zn10 2.233859 1_555
Cl9 Zn2 2.403059 1_555
Cl10 Zn13 2.233869 1_555
Cl10 Zn12 2.403057 1_555
Cl11 Zn5 2.233869 1_555
Cl11 Zn14 2.403057 1_556
Cl12 Zn11 2.233869 1_555
Cl12 Zn9 2.403057 1_555
Cl13 Zn11 2.195285 1_545
Cl14 Zn13 2.195285 1_555
Cl15 Zn6 2.195285 1_545
O0 Se5 1.714933 1_555
O0 Zn15 1.997502 1_555
O0 Zn8 2.155395 1_555
O1 Se3 1.714933 1_555
O1 Zn9 1.997502 1_655
O1 Zn12 2.155395 1_555
O2 Se1 1.735339 1_546
O2 Zn8 2.009705 1_555
O2 Zn6 2.027403 1_545
O3 Se6 1.720289 1_555
O3 Zn10 1.967220 1_465
O3 Zn9 2.079891 1_555
O4 Se4 1.735339 1_556
O4 Zn15 2.009705 1_555
O4 Zn5 2.027403 1_555
O5 Se3 1.735339 1_555
O5 Zn2 2.009705 1_555
O5 Zn13 2.027403 1_555
O6 Se4 1.720289 1_555
O6 Zn3 1.967220 1_455
O6 Zn14 2.079891 1_555
O7 Se0 1.735339 1_555
O7 Zn9 2.009705 1_555
O7 Zn1 2.027403 1_555
O8 Se4 1.714933 1_555
O8 Zn4 1.997502 1_555
O8 Zn14 2.155395 1_555
O9 Se1 1.714933 1_555
O9 Zn14 1.997502 1_655
O9 Zn4 2.155395 1_555
O10 Se6 1.735339 1_545
O10 Zn0 2.009705 1_555
O10 Zn11 2.027403 1_545
O11 Se5 1.735339 1_554
O11 Zn4 2.009705 1_555
O11 Zn3 2.027403 1_555
O12 Se7 1.714933 1_555
O12 Zn8 1.997502 1_455
O12 Zn15 2.155395 1_555
O13 Se0 1.720289 1_555
O13 Zn13 1.967220 1_555
O13 Zn0 2.079891 1_555
O14 Se7 1.735339 1_564
O14 Zn14 2.009705 1_555
O14 Zn7 2.027403 1_565
O15 Se5 1.720289 1_555
O15 Zn5 1.967220 1_655
O15 Zn8 2.079891 1_555
O16 Se3 1.720289 1_555
O16 Zn1 1.967220 1_555
O16 Zn12 2.079891 1_555
O17 Se2 1.735339 1_565
O17 Zn12 2.009705 1_555
O17 Zn10 2.027403 1_565
O18 Se2 1.720289 1_555
O18 Zn11 1.967220 1_645
O18 Zn2 2.079891 1_555
O19 Se7 1.720289 1_555
O19 Zn6 1.967220 1_545
O19 Zn15 2.079891 1_555
O20 Se2 1.714933 1_555
O20 Zn0 1.997502 1_555
O20 Zn2 2.155395 1_555
O21 Se0 1.714933 1_555
O21 Zn2 1.997502 1_455
O21 Zn0 2.155395 1_555
O22 Se6 1.714933 1_555
O22 Zn12 1.997502 1_555
O22 Zn9 2.155395 1_555
O23 Se1 1.720289 1_555
O23 Zn7 1.967220 1_565
O23 Zn4 2.079891 1_555
