# generated using pymatgen
data_Ca3Si2Ni3
_symmetry_space_group_name_H-M   'P 1'
_cell_length_a   3.91328933
_cell_length_b   9.24110456
_cell_length_c   18.04697210
_cell_angle_alpha   90.00000000
_cell_angle_beta   90.00000000
_cell_angle_gamma   90.00000000
_symmetry_Int_Tables_number   1
_chemical_formula_structural   Ca3Si2Ni3
_chemical_formula_sum   'Ca12 Si8 Ni12'
_cell_volume   652.63474319
_cell_formula_units_Z   4
loop_
 _symmetry_equiv_pos_site_id
 _symmetry_equiv_pos_as_xyz
  1  'x, y, z'
loop_
 _atom_site_type_symbol
 _atom_site_label
 _atom_site_symmetry_multiplicity
 _atom_site_fract_x
 _atom_site_fract_y
 _atom_site_fract_z
 _atom_site_occupancy
  Ca  Ca0  1  0.75000000  0.39248098  0.92961280  1
  Ca  Ca1  1  0.25000000  0.60751902  0.07038720  1
  Ca  Ca2  1  0.75000000  0.89248098  0.57038720  1
  Ca  Ca3  1  0.25000000  0.10751902  0.42961280  1
  Ca  Ca4  1  0.75000000  0.35682151  0.56844410  1
  Ca  Ca5  1  0.25000000  0.64317849  0.43155590  1
  Ca  Ca6  1  0.75000000  0.85682151  0.93155590  1
  Ca  Ca7  1  0.25000000  0.14317849  0.06844410  1
  Ca  Ca8  1  0.75000000  0.37534858  0.31697152  1
  Ca  Ca9  1  0.25000000  0.62465142  0.68302848  1
  Ca  Ca10  1  0.75000000  0.87534858  0.18302848  1
  Ca  Ca11  1  0.25000000  0.12465142  0.81697152  1
  Si  Si0  1  0.75000000  0.37552372  0.74956728  1
  Si  Si1  1  0.25000000  0.62447628  0.25043272  1
  Si  Si2  1  0.75000000  0.87552372  0.75043272  1
  Si  Si3  1  0.25000000  0.12447628  0.24956728  1
  Si  Si4  1  0.75000000  0.87504609  0.39081050  1
  Si  Si5  1  0.25000000  0.12495391  0.60918950  1
  Si  Si6  1  0.75000000  0.37504609  0.10918950  1
  Si  Si7  1  0.25000000  0.62495391  0.89081050  1
  Ni  Ni0  1  0.75000000  0.05593924  0.30735508  1
  Ni  Ni1  1  0.25000000  0.94406076  0.69264492  1
  Ni  Ni2  1  0.75000000  0.55593924  0.19264492  1
  Ni  Ni3  1  0.25000000  0.44406076  0.80735508  1
  Ni  Ni4  1  0.75000000  0.19361278  0.19230287  1
  Ni  Ni5  1  0.25000000  0.80638722  0.80769713  1
  Ni  Ni6  1  0.75000000  0.69361278  0.30769713  1
  Ni  Ni7  1  0.25000000  0.30638722  0.69230287  1
  Ni  Ni8  1  0.75000000  0.62548907  0.81425090  1
  Ni  Ni9  1  0.25000000  0.37451093  0.18574910  1
  Ni  Ni10  1  0.75000000  0.12548907  0.68574910  1
  Ni  Ni11  1  0.25000000  0.87451093  0.31425090  1
loop_
_geom_bond_atom_site_label_1
_geom_bond_atom_site_label_2
_geom_bond_distance
_geom_bond_site_symmetry_2
Ca0 Ni3 2.987269 1_555
Ca0 Ni3 2.987269 1_655
Ca0 Si7 2.988988 1_655
Ca0 Si7 2.988988 1_555
Ca0 Ni8 2.995153 1_555
Ca0 Si6 3.244818 1_556
Ca0 Si0 3.253053 1_555
Ca1 Ni2 2.987269 1_455
Ca1 Ni2 2.987269 1_555
Ca1 Si6 2.988988 1_455
Ca1 Si6 2.988988 1_555
Ca1 Ni9 2.995153 1_555
Ca1 Si7 3.244818 1_554
Ca1 Si1 3.253053 1_555
Ca2 Ni1 2.987269 1_655
Ca2 Ni1 2.987269 1_555
Ca2 Si5 2.988988 1_665
Ca2 Si5 2.988988 1_565
Ca2 Ni10 2.995153 1_565
Ca2 Si4 3.244818 1_555
Ca2 Si2 3.253053 1_555
Ca3 Ni0 2.987269 1_555
Ca3 Ni0 2.987269 1_455
Ca3 Si4 2.988988 1_545
Ca3 Si4 2.988988 1_445
Ca3 Ni11 2.995153 1_545
Ca3 Si5 3.244818 1_555
Ca3 Si3 3.253053 1_555
Ca4 Si5 2.993391 1_655
Ca4 Si5 2.993391 1_555
Ca4 Ni7 3.007014 1_555
Ca4 Ni7 3.007014 1_655
Ca4 Ni10 3.008611 1_555
Ca4 Si0 3.273291 1_555
Ca5 Si4 2.993391 1_455
Ca5 Si4 2.993391 1_555
Ca5 Ni6 3.007014 1_555
Ca5 Ni6 3.007014 1_455
Ca5 Ni11 3.008611 1_555
Ca5 Si1 3.273291 1_555
Ca6 Si7 2.993391 1_655
Ca6 Si7 2.993391 1_555
Ca6 Ni5 3.007014 1_555
Ca6 Ni5 3.007014 1_655
Ca6 Ni8 3.008611 1_555
Ca6 Si2 3.273291 1_555
Ca7 Si6 2.993391 1_455
Ca7 Si6 2.993391 1_555
Ca7 Ni4 3.007014 1_555
Ca7 Ni4 3.007014 1_455
Ca7 Ni9 3.008611 1_555
Ca7 Si3 3.273291 1_555
Ca8 Ni2 2.796311 1_555
Ca8 Ni4 2.807584 1_555
Ca8 Ni6 2.945871 1_555
Ca8 Ni0 2.956793 1_555
Ca8 Ni9 3.071927 1_655
Ca8 Ni9 3.071927 1_555
Ca8 Si1 3.251251 1_555
Ca8 Si1 3.251251 1_655
Ca8 Si3 3.268467 1_555
Ca8 Si3 3.268467 1_655
Ca9 Ni3 2.796311 1_555
Ca9 Ni5 2.807584 1_555
Ca9 Ni7 2.945871 1_555
Ca9 Ni1 2.956793 1_555
Ca9 Ni8 3.071927 1_455
Ca9 Ni8 3.071927 1_555
Ca9 Si0 3.251251 1_455
Ca9 Si0 3.251251 1_555
Ca9 Si2 3.268467 1_455
Ca9 Si2 3.268467 1_555
Ca10 Ni0 2.796311 1_565
Ca10 Ni6 2.807584 1_555
Ca10 Ni4 2.945871 1_565
Ca10 Ni2 2.956793 1_555
Ca10 Ni11 3.071927 1_655
Ca10 Ni11 3.071927 1_555
Ca10 Si3 3.251251 1_565
Ca10 Si3 3.251251 1_665
Ca10 Si1 3.268467 1_555
Ca10 Si1 3.268467 1_655
Ca11 Ni1 2.796311 1_545
Ca11 Ni7 2.807584 1_555
Ca11 Ni5 2.945871 1_545
Ca11 Ni3 2.956793 1_555
Ca11 Ni10 3.071927 1_455
Ca11 Ni10 3.071927 1_555
Ca11 Si2 3.251251 1_445
Ca11 Si2 3.251251 1_545
Ca11 Si0 3.268467 1_455
Ca11 Si0 3.268467 1_555
Ni0 Si4 2.250069 1_545
Ni0 Si3 2.305912 1_555
Ni0 Si3 2.305912 1_655
Ni0 Ni4 2.435126 1_555
Ni0 Ni11 2.579714 1_645
Ni0 Ni11 2.579714 1_545
Ni1 Si5 2.250069 1_565
Ni1 Si2 2.305912 1_555
Ni1 Si2 2.305912 1_455
Ni1 Ni5 2.435126 1_555
Ni1 Ni10 2.579714 1_565
Ni1 Ni10 2.579714 1_465
Ni2 Si6 2.250069 1_555
Ni2 Si1 2.305912 1_655
Ni2 Si1 2.305912 1_555
Ni2 Ni6 2.435126 1_555
Ni2 Ni9 2.579714 1_655
Ni2 Ni9 2.579714 1_555
Ni3 Si7 2.250069 1_555
Ni3 Si0 2.305912 1_555
Ni3 Si0 2.305912 1_455
Ni3 Ni7 2.435126 1_555
Ni3 Ni8 2.579714 1_455
Ni3 Ni8 2.579714 1_555
Ni4 Si6 2.249660 1_555
Ni4 Si3 2.303186 1_555
Ni4 Si3 2.303186 1_655
Ni4 Ni9 2.576242 1_655
Ni4 Ni9 2.576242 1_555
Ni5 Si7 2.249660 1_555
Ni5 Si2 2.303186 1_555
Ni5 Si2 2.303186 1_455
Ni5 Ni8 2.576242 1_555
Ni5 Ni8 2.576242 1_455
Ni6 Si4 2.249660 1_555
Ni6 Si1 2.303186 1_655
Ni6 Si1 2.303186 1_555
Ni7 Si5 2.249660 1_555
Ni7 Si0 2.303186 1_555
Ni7 Si0 2.303186 1_455
Ni8 Si7 2.395306 1_655
Ni8 Si7 2.395306 1_555
Ni8 Si2 2.581729 1_555
Ni8 Si0 2.588163 1_555
Ni9 Si6 2.395306 1_455
Ni9 Si6 2.395306 1_555
Ni9 Si3 2.581729 1_555
Ni9 Si1 2.588163 1_555
Ni10 Si5 2.395306 1_655
Ni10 Si5 2.395306 1_555
Ni10 Ni7 2.576242 1_555
Ni10 Ni7 2.576242 1_655
Ni10 Si0 2.581729 1_555
Ni10 Si2 2.588163 1_545
Ni11 Si4 2.395306 1_455
Ni11 Si4 2.395306 1_555
Ni11 Ni6 2.576242 1_555
Ni11 Ni6 2.576242 1_455
Ni11 Si1 2.581729 1_555
Ni11 Si3 2.588163 1_565
