# generated using pymatgen
data_RbMgF3
_symmetry_space_group_name_H-M   'P 1'
_cell_length_a   5.82217335
_cell_length_b   5.82217375
_cell_length_c   14.18328167
_cell_angle_alpha   89.99999343
_cell_angle_beta   90.00000791
_cell_angle_gamma   119.99810981
_symmetry_Int_Tables_number   1
_chemical_formula_structural   RbMgF3
_chemical_formula_sum   'Rb6 Mg6 F18'
_cell_volume   416.37622644
_cell_formula_units_Z   6
loop_
 _symmetry_equiv_pos_site_id
 _symmetry_equiv_pos_as_xyz
  1  'x, y, z'
loop_
 _atom_site_type_symbol
 _atom_site_label
 _atom_site_symmetry_multiplicity
 _atom_site_fract_x
 _atom_site_fract_y
 _atom_site_fract_z
 _atom_site_occupancy
  Rb  Rb0  1  0.00000072  -0.00000075  0.25000000  1
  Rb  Rb1  1  -0.00000092  0.00000055  0.74999997  1
  Rb  Rb2  1  0.33333318  0.66666686  0.09789252  1
  Rb  Rb3  1  0.66666690  0.33333313  0.59794746  1
  Rb  Rb4  1  0.66666669  0.33333302  0.90205310  1
  Rb  Rb5  1  0.33333308  0.66666703  0.40210747  1
  Mg  Mg0  1  0.00000039  -0.00000048  0.99989590  1
  Mg  Mg1  1  0.00000055  -0.00000032  0.50010411  1
  Mg  Mg2  1  0.33333447  0.66666592  0.84713589  1
  Mg  Mg3  1  0.66666571  0.33333427  0.34717787  1
  Mg  Mg4  1  0.66666572  0.33333444  0.15282230  1
  Mg  Mg5  1  0.33333455  0.66666583  0.65286411  1
  F  F0  1  0.52006259  0.04012951  0.25000010  1
  F  F1  1  0.47994671  0.52005313  0.75000004  1
  F  F2  1  0.04011801  0.52005696  0.75000001  1
  F  F3  1  0.95987057  0.47993749  0.25000004  1
  F  F4  1  0.52005912  0.47994112  0.25000006  1
  F  F5  1  0.47994279  0.95988141  0.75000000  1
  F  F6  1  0.83393969  0.66787862  0.07974125  1
  F  F7  1  0.16607333  0.83392656  0.57984992  1
  F  F8  1  0.66784971  0.83392524  0.57985022  1
  F  F9  1  0.33212112  0.16606014  0.07974119  1
  F  F10  1  0.83394167  0.16605850  0.07974076  1
  F  F11  1  0.16607463  0.33215008  0.92014983  1
  F  F12  1  0.16607342  0.83392664  0.92015008  1
  F  F13  1  0.16607458  0.33214994  0.57985019  1
  F  F14  1  0.66784944  0.83392503  0.92014977  1
  F  F15  1  0.33212118  0.16606038  0.42025877  1
  F  F16  1  0.83393982  0.66787903  0.42025879  1
  F  F17  1  0.83394160  0.16605874  0.42025926  1
loop_
_geom_bond_atom_site_label_1
_geom_bond_atom_site_label_2
_geom_bond_distance
_geom_bond_site_symmetry_2
F0 Mg3 2.021239 1_555
F0 Mg4 2.021240 1_555
F0 Rb5 2.863621 1_545
F0 Rb2 2.863624 1_545
F0 Rb0 2.918098 1_555
F0 Rb0 2.918123 1_655
F1 Mg5 2.020878 1_555
F1 Mg2 2.020878 1_555
F1 Rb3 2.862926 1_555
F1 Rb4 2.862930 1_555
F1 Rb1 2.918184 1_665
F1 Rb1 2.918185 1_555
F2 Mg2 2.020877 1_555
F2 Mg5 2.020878 1_555
F2 Rb3 2.862997 1_455
F2 Rb4 2.863004 1_455
F2 Rb1 2.918096 1_555
F2 Rb1 2.918118 1_565
F3 Mg4 2.021239 1_555
F3 Mg3 2.021240 1_555
F3 Rb5 2.863621 1_655
F3 Rb2 2.863623 1_655
F3 Rb0 2.918098 1_665
F3 Rb0 2.918123 1_655
F4 Mg4 2.021240 1_555
F4 Mg3 2.021241 1_555
F4 Rb5 2.863551 1_555
F4 Rb2 2.863551 1_555
F4 Rb0 2.918188 1_665
F4 Rb0 2.918189 1_555
F5 Mg2 2.020874 1_555
F5 Mg5 2.020874 1_555
F5 Rb3 2.862999 1_565
F5 Rb4 2.863005 1_565
F5 Rb1 2.918094 1_665
F5 Rb1 2.918119 1_565
F6 Mg4 1.979866 1_555
F6 Mg0 2.021606 1_664
F6 Rb2 2.922451 1_655
F6 Rb2 2.922458 1_555
F6 Rb0 2.938672 1_665
F6 Rb4 3.032642 1_554
F7 Mg5 1.979233 1_555
F7 Mg1 2.020880 1_565
F7 Rb3 2.922470 1_455
F7 Rb3 2.922471 1_565
F7 Rb1 2.937457 1_565
F7 Rb5 3.033181 1_555
F8 Mg5 1.979243 1_555
F8 Mg1 2.020943 1_665
F8 Rb3 2.922383 1_565
F8 Rb3 2.922391 1_555
F8 Rb1 2.937484 1_665
F8 Rb5 3.033204 1_555
F9 Mg4 1.979868 1_555
F9 Mg0 2.021604 1_554
F9 Rb2 2.922451 1_545
F9 Rb2 2.922459 1_555
F9 Rb0 2.938672 1_555
F9 Rb4 3.032641 1_554
F10 Mg4 1.979862 1_555
F10 Mg0 2.021549 1_654
F10 Rb2 2.922538 1_655
F10 Rb2 2.922539 1_545
F10 Rb0 2.938643 1_655
F10 Rb4 3.032620 1_554
F11 Mg2 1.979246 1_555
F11 Mg0 2.020941 1_555
F11 Rb4 2.922383 1_455
F11 Rb4 2.922390 1_555
F11 Rb1 2.937486 1_555
F11 Rb2 3.033204 1_556
F12 Mg2 1.979232 1_555
F12 Mg0 2.020880 1_565
F12 Rb4 2.922469 1_565
F12 Rb4 2.922471 1_455
F12 Rb1 2.937458 1_565
F12 Rb2 3.033181 1_556
F13 Mg5 1.979246 1_555
F13 Mg1 2.020940 1_555
F13 Rb3 2.922383 1_455
F13 Rb3 2.922391 1_555
F13 Rb1 2.937485 1_555
F13 Rb5 3.033205 1_555
F14 Mg2 1.979242 1_555
F14 Mg0 2.020943 1_665
F14 Rb4 2.922382 1_565
F14 Rb4 2.922390 1_555
F14 Rb1 2.937486 1_665
F14 Rb2 3.033203 1_556
F15 Mg3 1.979866 1_555
F15 Mg1 2.021605 1_555
F15 Rb5 2.922451 1_545
F15 Rb5 2.922459 1_555
F15 Rb0 2.938671 1_555
F15 Rb3 3.032648 1_555
F16 Mg3 1.979868 1_555
F16 Mg1 2.021605 1_665
F16 Rb5 2.922450 1_655
F16 Rb5 2.922459 1_555
F16 Rb0 2.938671 1_665
F16 Rb3 3.032648 1_555
F17 Mg3 1.979858 1_555
F17 Mg1 2.021550 1_655
F17 Rb5 2.922538 1_655
F17 Rb5 2.922539 1_545
F17 Rb0 2.938645 1_655
F17 Rb3 3.032625 1_555
