# generated using pymatgen
data_K2AgI3
_symmetry_space_group_name_H-M   'P 1'
_cell_length_a   4.81663795
_cell_length_b   10.07334798
_cell_length_c   19.63722340
_cell_angle_alpha   90.00000000
_cell_angle_beta   90.00000000
_cell_angle_gamma   90.00000000
_symmetry_Int_Tables_number   1
_chemical_formula_structural   K2AgI3
_chemical_formula_sum   'K8 Ag4 I12'
_cell_volume   952.79160231
_cell_formula_units_Z   4
loop_
 _symmetry_equiv_pos_site_id
 _symmetry_equiv_pos_as_xyz
  1  'x, y, z'
loop_
 _atom_site_type_symbol
 _atom_site_label
 _atom_site_symmetry_multiplicity
 _atom_site_fract_x
 _atom_site_fract_y
 _atom_site_fract_z
 _atom_site_occupancy
  K  K0  1  0.75000000  0.25132288  0.03928412  1
  K  K1  1  0.25000000  0.74867712  0.96071588  1
  K  K2  1  0.75000000  0.75132288  0.46071588  1
  K  K3  1  0.25000000  0.24867712  0.53928412  1
  K  K4  1  0.75000000  0.92198349  0.71297719  1
  K  K5  1  0.25000000  0.57801651  0.21297719  1
  K  K6  1  0.75000000  0.42198349  0.78702281  1
  K  K7  1  0.25000000  0.07801651  0.28702281  1
  Ag  Ag0  1  0.25000000  0.12680597  0.86418072  1
  Ag  Ag1  1  0.25000000  0.62680597  0.63581928  1
  Ag  Ag2  1  0.75000000  0.87319403  0.13581928  1
  Ag  Ag3  1  0.75000000  0.37319403  0.36418072  1
  I  I0  1  0.75000000  0.48909092  0.59836055  1
  I  I1  1  0.25000000  0.01090908  0.09836055  1
  I  I2  1  0.25000000  0.68861236  0.77762547  1
  I  I3  1  0.75000000  0.81138764  0.27762547  1
  I  I4  1  0.25000000  0.88036713  0.57197469  1
  I  I5  1  0.75000000  0.11963287  0.42802531  1
  I  I6  1  0.25000000  0.51090908  0.40163945  1
  I  I7  1  0.75000000  0.61963287  0.07197469  1
  I  I8  1  0.25000000  0.38036713  0.92802531  1
  I  I9  1  0.75000000  0.31138764  0.22237453  1
  I  I10  1  0.25000000  0.18861236  0.72237453  1
  I  I11  1  0.75000000  0.98909092  0.90163945  1
loop_
_geom_bond_atom_site_label_1
_geom_bond_atom_site_label_2
_geom_bond_distance
_geom_bond_site_symmetry_2
Ag0 I8 2.845317 1_555
Ag0 I10 2.853431 1_555
Ag0 I11 2.874988 1_445
Ag0 I11 2.874988 1_545
Ag1 I4 2.845317 1_555
Ag1 I2 2.853431 1_555
Ag1 I0 2.874988 1_455
Ag1 I0 2.874988 1_555
Ag2 I7 2.845317 1_555
Ag2 I3 2.853431 1_555
Ag2 I1 2.874988 1_565
Ag2 I1 2.874988 1_665
Ag3 I5 2.845317 1_555
Ag3 I9 2.853431 1_555
Ag3 I6 2.874988 1_655
Ag3 I6 2.874988 1_555
I0 K3 3.607049 1_655
I0 K3 3.607049 1_555
I0 K6 3.765971 1_555
I0 K2 3.779391 1_555
I1 K0 3.607049 1_455
I1 K0 3.607049 1_555
I1 K7 3.765971 1_555
I1 K1 3.779391 1_544
I2 K4 3.596951 1_455
I2 K4 3.596951 1_555
I2 K6 3.612177 1_455
I2 K6 3.612177 1_555
I2 K1 3.645943 1_555
I3 K5 3.596951 1_555
I3 K5 3.596951 1_655
I3 K7 3.612177 1_565
I3 K7 3.612177 1_665
I3 K2 3.645943 1_555
I4 K2 3.501881 1_455
I4 K2 3.501881 1_555
I4 K4 3.693580 1_555
I4 K4 3.693580 1_455
I4 K3 3.765243 1_565
I5 K3 3.501881 1_555
I5 K3 3.501881 1_655
I5 K7 3.693580 1_655
I5 K7 3.693580 1_555
I5 K2 3.765243 1_545
I6 K2 3.607049 1_555
I6 K2 3.607049 1_455
I6 K5 3.765971 1_555
I6 K3 3.779391 1_555
I7 K1 3.501881 1_554
I7 K1 3.501881 1_654
I7 K5 3.693580 1_555
I7 K5 3.693580 1_655
I7 K0 3.765243 1_555
I8 K0 3.501881 1_556
I8 K0 3.501881 1_456
I8 K6 3.693580 1_555
I8 K6 3.693580 1_455
I8 K1 3.765243 1_555
I9 K7 3.596951 1_555
I9 K7 3.596951 1_655
I9 K5 3.612177 1_555
I9 K5 3.612177 1_655
I9 K0 3.645943 1_555
I10 K6 3.596951 1_455
I10 K6 3.596951 1_555
I10 K4 3.612177 1_445
I10 K4 3.612177 1_545
I10 K3 3.645943 1_555
I11 K1 3.607049 1_555
I11 K1 3.607049 1_655
I11 K4 3.765971 1_555
I11 K0 3.779391 1_566
