# generated using pymatgen
data_Pr5O9
_symmetry_space_group_name_H-M   'P 1'
_cell_length_a   20.29862900
_cell_length_b   6.94847300
_cell_length_c   13.41515998
_cell_angle_alpha   78.98110860
_cell_angle_beta   90.00000000
_cell_angle_gamma   90.00000000
_symmetry_Int_Tables_number   1
_chemical_formula_structural   Pr5O9
_chemical_formula_sum   'Pr40 O72'
_cell_volume   1857.25122789
_cell_formula_units_Z   8
loop_
 _symmetry_equiv_pos_site_id
 _symmetry_equiv_pos_as_xyz
  1  'x, y, z'
loop_
 _atom_site_type_symbol
 _atom_site_label
 _atom_site_symmetry_multiplicity
 _atom_site_fract_x
 _atom_site_fract_y
 _atom_site_fract_z
 _atom_site_occupancy
  Pr  Pr0  1  0.10559700  0.87083300  0.87708800  1
  Pr  Pr1  1  0.50597400  0.12156000  0.12980300  1
  Pr  Pr2  1  0.39787200  0.08967500  0.61876900  1
  Pr  Pr3  1  0.89787200  0.91032500  0.88123100  1
  Pr  Pr4  1  0.70457300  0.61600800  0.62115000  1
  Pr  Pr5  1  0.50895900  0.63908400  0.61694900  1
  Pr  Pr6  1  0.60212800  0.91032500  0.38123100  1
  Pr  Pr7  1  0.80165500  0.11539700  0.64295100  1
  Pr  Pr8  1  0.99104100  0.63908400  0.11694900  1
  Pr  Pr9  1  0.39440300  0.87083300  0.37708800  1
  Pr  Pr10  1  0.80003500  0.83634200  0.36908000  1
  Pr  Pr11  1  0.00895900  0.36091600  0.88305100  1
  Pr  Pr12  1  0.58788800  0.38710200  0.86564000  1
  Pr  Pr13  1  0.91211200  0.38710200  0.36564000  1
  Pr  Pr14  1  0.10212800  0.08967500  0.11876900  1
  Pr  Pr15  1  0.49402600  0.87844000  0.87019700  1
  Pr  Pr16  1  0.30003500  0.16365800  0.13092000  1
  Pr  Pr17  1  0.39838200  0.36710600  0.89301600  1
  Pr  Pr18  1  0.00597400  0.87844000  0.37019700  1
  Pr  Pr19  1  0.79542700  0.61600800  0.12115000  1
  Pr  Pr20  1  0.10161800  0.36710600  0.39301600  1
  Pr  Pr21  1  0.69834500  0.11539700  0.14295100  1
  Pr  Pr22  1  0.89440300  0.12916700  0.12291200  1
  Pr  Pr23  1  0.19834500  0.88460300  0.35704900  1
  Pr  Pr24  1  0.41211200  0.61289800  0.13436000  1
  Pr  Pr25  1  0.60161800  0.63289400  0.10698400  1
  Pr  Pr26  1  0.49104100  0.36091600  0.38305100  1
  Pr  Pr27  1  0.30165500  0.88460300  0.85704900  1
  Pr  Pr28  1  0.60559700  0.12916700  0.62291200  1
  Pr  Pr29  1  0.89838200  0.63289400  0.60698400  1
  Pr  Pr30  1  0.19973000  0.62798300  0.12306300  1
  Pr  Pr31  1  0.19996500  0.16365800  0.63092000  1
  Pr  Pr32  1  0.08788800  0.61289800  0.63436000  1
  Pr  Pr33  1  0.30027000  0.62798300  0.62306300  1
  Pr  Pr34  1  0.69996500  0.83634200  0.86908000  1
  Pr  Pr35  1  0.20457300  0.38399200  0.87885000  1
  Pr  Pr36  1  0.80027000  0.37201700  0.87693700  1
  Pr  Pr37  1  0.29542700  0.38399200  0.37885000  1
  Pr  Pr38  1  0.99402600  0.12156000  0.62980300  1
  Pr  Pr39  1  0.69973000  0.37201700  0.37693700  1
  O  O0  1  0.60531300  0.82104000  0.56231000  1
  O  O1  1  0.39176500  0.93002500  0.18023700  1
  O  O2  1  0.29063100  0.93259900  0.67449300  1
  O  O3  1  0.50412400  0.94840900  0.68447100  1
  O  O4  1  0.99808500  0.82088700  0.56075200  1
  O  O5  1  0.48940800  0.31861000  0.57410000  1
  O  O6  1  0.10360700  0.56476700  0.81802700  1
  O  O7  1  0.09702200  0.77743100  0.06612400  1
  O  O8  1  0.50191500  0.82088700  0.06075200  1
  O  O9  1  0.19747700  0.48011800  0.67979800  1
  O  O10  1  0.18967500  0.54942400  0.30542800  1
  O  O11  1  0.70936900  0.06740100  0.32550700  1
  O  O12  1  0.99587600  0.94840900  0.18447100  1
  O  O13  1  0.29849700  0.07922500  0.31188600  1
  O  O14  1  0.39416400  0.70350500  0.94892500  1
  O  O15  1  0.19281100  0.32324600  0.07174700  1
  O  O16  1  0.79957000  0.83929600  0.54786600  1
  O  O17  1  0.10823500  0.93002500  0.68023700  1
  O  O18  1  0.71300000  0.30062200  0.55776300  1
  O  O19  1  0.79063100  0.06740100  0.82550700  1
  O  O20  1  0.09380100  0.30676600  0.57402600  1
  O  O21  1  0.39639300  0.56476700  0.31802700  1
  O  O22  1  0.90297800  0.22256900  0.93387600  1
  O  O23  1  0.29957000  0.16070400  0.95213400  1
  O  O24  1  0.89416400  0.29649500  0.55107500  1
  O  O25  1  0.21300000  0.69937800  0.94223700  1
  O  O26  1  0.49587600  0.05159100  0.31552900  1
  O  O27  1  0.39699800  0.09490800  0.79862800  1
  O  O28  1  0.81032500  0.45057600  0.69457200  1
  O  O29  1  0.98940800  0.68139000  0.92590000  1
  O  O30  1  0.10583600  0.70350500  0.44892500  1
  O  O31  1  0.01204700  0.55694200  0.29975500  1
  O  O32  1  0.30718900  0.32324600  0.57174700  1
  O  O33  1  0.39468700  0.17896000  0.43769000  1
  O  O34  1  0.89176500  0.06997500  0.31976300  1
  O  O35  1  0.78700000  0.30062200  0.05776300  1
  O  O36  1  0.10300200  0.09490800  0.29862800  1
  O  O37  1  0.80718900  0.67675400  0.92825300  1
  O  O38  1  0.98795300  0.44305800  0.70024500  1
  O  O39  1  0.49808500  0.17911300  0.93924800  1
  O  O40  1  0.68967500  0.45057600  0.19457200  1
  O  O41  1  0.00412400  0.05159100  0.81552900  1
  O  O42  1  0.00191500  0.17911300  0.43924800  1
  O  O43  1  0.60360700  0.43523300  0.68197300  1
  O  O44  1  0.51204700  0.44305800  0.20024500  1
  O  O45  1  0.89639300  0.43523300  0.18197300  1
  O  O46  1  0.20043000  0.16070400  0.45213400  1
  O  O47  1  0.80252300  0.51988200  0.32020200  1
  O  O48  1  0.31032500  0.54942400  0.80542800  1
  O  O49  1  0.59702200  0.22256900  0.43387600  1
  O  O50  1  0.60583600  0.29649500  0.05107500  1
  O  O51  1  0.51059200  0.68139000  0.42590000  1
  O  O52  1  0.60300200  0.90509200  0.20137200  1
  O  O53  1  0.40619900  0.30676600  0.07402600  1
  O  O54  1  0.10531300  0.17896000  0.93769000  1
  O  O55  1  0.70150300  0.92077500  0.68811400  1
  O  O56  1  0.60823500  0.06997500  0.81976300  1
  O  O57  1  0.69747700  0.51988200  0.82020200  1
  O  O58  1  0.90619900  0.69323400  0.42597400  1
  O  O59  1  0.89468700  0.82104000  0.06231000  1
  O  O60  1  0.01059200  0.31861000  0.07410000  1
  O  O61  1  0.40297800  0.77743100  0.56612400  1
  O  O62  1  0.20150300  0.07922500  0.81188600  1
  O  O63  1  0.28700000  0.69937800  0.44223700  1
  O  O64  1  0.89699800  0.90509200  0.70137200  1
  O  O65  1  0.59380100  0.69323400  0.92597400  1
  O  O66  1  0.79849700  0.92077500  0.18811400  1
  O  O67  1  0.30252300  0.48011800  0.17979800  1
  O  O68  1  0.48795300  0.55694200  0.79975500  1
  O  O69  1  0.20936900  0.93259900  0.17449300  1
  O  O70  1  0.69281100  0.67675400  0.42825300  1
  O  O71  1  0.70043000  0.83929600  0.04786600  1
loop_
_geom_bond_atom_site_label_1
_geom_bond_atom_site_label_2
_geom_bond_distance
_geom_bond_site_symmetry_2
O0 Pr5 2.367885 1_555
O0 Pr6 2.390398 1_555
O0 Pr28 2.431108 1_565
O0 Pr4 2.506479 1_555
O1 Pr24 2.433803 1_555
O1 Pr16 2.475796 1_565
O1 Pr9 2.594339 1_555
O1 Pr1 2.694296 1_565
O2 Pr33 2.356396 1_555
O2 Pr27 2.418010 1_555
O2 Pr31 2.438780 1_565
O2 Pr2 2.485323 1_565
O3 Pr15 2.454206 1_555
O3 Pr2 2.461972 1_565
O3 Pr28 2.470957 1_565
O3 Pr5 2.488779 1_555
O4 Pr32 2.416829 1_655
O4 Pr29 2.424293 1_555
O4 Pr38 2.443258 1_565
O4 Pr18 2.515866 1_655
O5 Pr5 2.436369 1_555
O5 Pr2 2.444903 1_555
O5 Pr26 2.523537 1_555
O5 Pr28 2.719275 1_555
O6 Pr0 2.407556 1_555
O6 Pr32 2.443271 1_555
O6 Pr11 2.446639 1_555
O6 Pr35 2.460107 1_555
O7 Pr30 2.388539 1_555
O7 Pr8 2.401331 1_455
O7 Pr14 2.408838 1_565
O7 Pr0 2.500677 1_554
O8 Pr24 2.416829 1_555
O8 Pr25 2.424293 1_555
O8 Pr1 2.443258 1_565
O8 Pr15 2.515866 1_554
O9 Pr33 2.385310 1_555
O9 Pr31 2.412237 1_555
O9 Pr32 2.440539 1_555
O9 Pr35 2.629763 1_555
O10 Pr20 2.368843 1_555
O10 Pr30 2.411282 1_555
O10 Pr37 2.542967 1_555
O10 Pr23 2.559535 1_555
O11 Pr39 2.356396 1_555
O11 Pr21 2.418010 1_555
O11 Pr10 2.438780 1_545
O11 Pr6 2.485323 1_545
O12 Pr18 2.454206 1_655
O12 Pr14 2.461972 1_665
O12 Pr22 2.470957 1_565
O12 Pr8 2.488779 1_555
O13 Pr16 2.386291 1_555
O13 Pr23 2.452659 1_545
O13 Pr37 2.454099 1_555
O13 Pr9 2.483450 1_545
O14 Pr27 2.456800 1_555
O14 Pr24 2.473613 1_556
O14 Pr15 2.492228 1_555
O14 Pr17 2.589162 1_555
O15 Pr30 2.352548 1_555
O15 Pr14 2.455381 1_555
O15 Pr16 2.502089 1_555
O15 Pr35 2.552263 1_554
O16 Pr10 2.402469 1_555
O16 Pr7 2.498987 1_565
O16 Pr29 2.504810 1_555
O16 Pr4 2.551275 1_555
O17 Pr32 2.433803 1_555
O17 Pr31 2.475796 1_565
O17 Pr0 2.594339 1_555
O17 Pr38 2.694296 1_465
O18 Pr7 2.374592 1_555
O18 Pr39 2.396495 1_555
O18 Pr4 2.503429 1_555
O18 Pr28 2.556976 1_555
O19 Pr36 2.356396 1_555
O19 Pr7 2.418010 1_555
O19 Pr34 2.438780 1_545
O19 Pr3 2.485323 1_545
O20 Pr20 2.389208 1_555
O20 Pr32 2.419180 1_555
O20 Pr31 2.434167 1_555
O20 Pr38 2.439206 1_455
O21 Pr9 2.407556 1_555
O21 Pr24 2.443271 1_555
O21 Pr26 2.446639 1_555
O21 Pr37 2.460107 1_555
O22 Pr36 2.388539 1_555
O22 Pr11 2.401331 1_655
O22 Pr3 2.408838 1_545
O22 Pr22 2.500677 1_556
O23 Pr16 2.402469 1_556
O23 Pr27 2.498987 1_545
O23 Pr17 2.504810 1_555
O23 Pr35 2.551275 1_555
O24 Pr7 2.456800 1_555
O24 Pr13 2.473613 1_555
O24 Pr38 2.492228 1_555
O24 Pr29 2.589162 1_555
O25 Pr27 2.374592 1_555
O25 Pr30 2.396495 1_556
O25 Pr35 2.503429 1_555
O25 Pr0 2.556976 1_555
O26 Pr1 2.454206 1_555
O26 Pr6 2.461972 1_545
O26 Pr9 2.470957 1_545
O26 Pr26 2.488779 1_555
O27 Pr2 2.420115 1_555
O27 Pr27 2.461166 1_545
O27 Pr17 2.469182 1_555
O27 Pr15 2.551710 1_545
O28 Pr29 2.368843 1_555
O28 Pr36 2.411282 1_555
O28 Pr4 2.542967 1_555
O28 Pr7 2.559535 1_555
O29 Pr11 2.436369 1_655
O29 Pr3 2.444903 1_555
O29 Pr8 2.523537 1_556
O29 Pr0 2.719275 1_655
O30 Pr23 2.456800 1_555
O30 Pr32 2.473613 1_555
O30 Pr18 2.492228 1_555
O30 Pr20 2.589162 1_555
O31 Pr13 2.426967 1_455
O31 Pr20 2.445426 1_555
O31 Pr8 2.446762 1_455
O31 Pr18 2.589513 1_555
O32 Pr33 2.352548 1_555
O32 Pr2 2.455381 1_555
O32 Pr31 2.502089 1_555
O32 Pr37 2.552263 1_555
O33 Pr26 2.367885 1_555
O33 Pr2 2.390398 1_555
O33 Pr9 2.431108 1_545
O33 Pr37 2.506479 1_555
O34 Pr13 2.433803 1_555
O34 Pr10 2.475796 1_545
O34 Pr22 2.594339 1_555
O34 Pr18 2.694296 1_645
O35 Pr21 2.374592 1_555
O35 Pr36 2.396495 1_554
O35 Pr19 2.503429 1_555
O35 Pr22 2.556976 1_555
O36 Pr14 2.420115 1_555
O36 Pr23 2.461166 1_545
O36 Pr20 2.469182 1_555
O36 Pr18 2.551710 1_545
O37 Pr36 2.352548 1_555
O37 Pr3 2.455381 1_555
O37 Pr34 2.502089 1_555
O37 Pr19 2.552263 1_556
O38 Pr32 2.426967 1_655
O38 Pr29 2.445426 1_555
O38 Pr11 2.446762 1_655
O38 Pr38 2.589513 1_555
O39 Pr12 2.416829 1_555
O39 Pr17 2.424293 1_555
O39 Pr15 2.443258 1_545
O39 Pr1 2.515866 1_556
O40 Pr25 2.368843 1_555
O40 Pr39 2.411282 1_555
O40 Pr19 2.542967 1_555
O40 Pr21 2.559535 1_555
O41 Pr38 2.454206 1_455
O41 Pr3 2.461972 1_445
O41 Pr0 2.470957 1_545
O41 Pr11 2.488779 1_555
O42 Pr13 2.416829 1_455
O42 Pr20 2.424293 1_555
O42 Pr18 2.443258 1_545
O42 Pr38 2.515866 1_455
O43 Pr28 2.407556 1_555
O43 Pr12 2.443271 1_555
O43 Pr5 2.446639 1_555
O43 Pr4 2.460107 1_555
O44 Pr24 2.426967 1_555
O44 Pr25 2.445426 1_555
O44 Pr26 2.446762 1_555
O44 Pr1 2.589513 1_555
O45 Pr22 2.407556 1_555
O45 Pr13 2.443271 1_555
O45 Pr8 2.446639 1_555
O45 Pr19 2.460107 1_555
O46 Pr31 2.402469 1_555
O46 Pr23 2.498987 1_545
O46 Pr20 2.504810 1_555
O46 Pr37 2.551275 1_555
O47 Pr39 2.385310 1_555
O47 Pr10 2.412237 1_555
O47 Pr13 2.440539 1_555
O47 Pr19 2.629763 1_555
O48 Pr17 2.368843 1_555
O48 Pr33 2.411282 1_555
O48 Pr35 2.542967 1_555
O48 Pr27 2.559535 1_555
O49 Pr39 2.388539 1_555
O49 Pr26 2.401331 1_555
O49 Pr6 2.408838 1_545
O49 Pr28 2.500677 1_555
O50 Pr21 2.456800 1_555
O50 Pr12 2.473613 1_554
O50 Pr1 2.492228 1_555
O50 Pr25 2.589162 1_555
O51 Pr26 2.436369 1_555
O51 Pr6 2.444903 1_555
O51 Pr5 2.523537 1_555
O51 Pr9 2.719275 1_555
O52 Pr6 2.420115 1_555
O52 Pr21 2.461166 1_565
O52 Pr25 2.469182 1_555
O52 Pr1 2.551710 1_565
O53 Pr17 2.389208 1_554
O53 Pr24 2.419180 1_555
O53 Pr16 2.434167 1_555
O53 Pr1 2.439206 1_555
O54 Pr11 2.367885 1_555
O54 Pr14 2.390398 1_556
O54 Pr0 2.431108 1_545
O54 Pr35 2.506479 1_555
O55 Pr34 2.386291 1_555
O55 Pr7 2.452659 1_565
O55 Pr4 2.454099 1_555
O55 Pr28 2.483450 1_565
O56 Pr12 2.433803 1_555
O56 Pr34 2.475796 1_545
O56 Pr28 2.594339 1_555
O56 Pr15 2.694296 1_545
O57 Pr36 2.385310 1_555
O57 Pr34 2.412237 1_555
O57 Pr12 2.440539 1_555
O57 Pr4 2.629763 1_555
O58 Pr29 2.389208 1_555
O58 Pr13 2.419180 1_555
O58 Pr10 2.434167 1_555
O58 Pr18 2.439206 1_655
O59 Pr8 2.367885 1_555
O59 Pr3 2.390398 1_554
O59 Pr22 2.431108 1_565
O59 Pr19 2.506479 1_555
O60 Pr8 2.436369 1_455
O60 Pr14 2.444903 1_555
O60 Pr11 2.523537 1_554
O60 Pr22 2.719275 1_455
O61 Pr33 2.388539 1_555
O61 Pr5 2.401331 1_555
O61 Pr2 2.408838 1_565
O61 Pr9 2.500677 1_555
O62 Pr31 2.386291 1_555
O62 Pr27 2.452659 1_545
O62 Pr35 2.454099 1_555
O62 Pr0 2.483450 1_545
O63 Pr23 2.374592 1_555
O63 Pr33 2.396495 1_555
O63 Pr37 2.503429 1_555
O63 Pr9 2.556976 1_555
O64 Pr3 2.420115 1_555
O64 Pr7 2.461166 1_565
O64 Pr29 2.469182 1_555
O64 Pr38 2.551710 1_565
O65 Pr25 2.389208 1_556
O65 Pr12 2.419180 1_555
O65 Pr34 2.434167 1_555
O65 Pr15 2.439206 1_555
O66 Pr10 2.386291 1_555
O66 Pr21 2.452659 1_565
O66 Pr19 2.454099 1_555
O66 Pr22 2.483450 1_565
O67 Pr30 2.385310 1_555
O67 Pr16 2.412237 1_555
O67 Pr24 2.440539 1_555
O67 Pr37 2.629763 1_555
O68 Pr12 2.426967 1_555
O68 Pr17 2.445426 1_555
O68 Pr5 2.446762 1_555
O68 Pr15 2.589513 1_555
O69 Pr30 2.356396 1_555
O69 Pr23 2.418010 1_555
O69 Pr16 2.438780 1_565
O69 Pr14 2.485323 1_565
O70 Pr39 2.352548 1_555
O70 Pr6 2.455381 1_555
O70 Pr10 2.502089 1_555
O70 Pr4 2.552263 1_555
O71 Pr34 2.402469 1_554
O71 Pr21 2.498987 1_565
O71 Pr25 2.504810 1_555
O71 Pr19 2.551275 1_555
