# generated using pymatgen
data_Li28Mg22N25
_symmetry_space_group_name_H-M   'P 1'
_cell_length_a   3.53079600
_cell_length_b   3.53079561
_cell_length_c   88.55638151
_cell_angle_alpha   60.10695651
_cell_angle_beta   60.10696014
_cell_angle_gamma   59.99999101
_symmetry_Int_Tables_number   1
_chemical_formula_structural   Li28Mg22N25
_chemical_formula_sum   'Li28 Mg22 N25'
_cell_volume   781.89828994
_cell_formula_units_Z   1
loop_
 _symmetry_equiv_pos_site_id
 _symmetry_equiv_pos_as_xyz
  1  'x, y, z'
loop_
 _atom_site_type_symbol
 _atom_site_label
 _atom_site_symmetry_multiplicity
 _atom_site_fract_x
 _atom_site_fract_y
 _atom_site_fract_z
 _atom_site_occupancy
  Li  Li0  1  0.75057791  0.75057791  0.02993065  1
  Li  Li1  1  0.74960518  0.74960518  0.07004738  1
  Li  Li2  1  0.74947324  0.74947324  0.11006321  1
  Li  Li3  1  0.74955043  0.74955043  0.15005395  1
  Li  Li4  1  0.74966669  0.74966669  0.19004000  1
  Li  Li5  1  0.74976116  0.74976116  0.23002866  1
  Li  Li6  1  0.74984528  0.74984528  0.27001857  1
  Li  Li7  1  0.74993682  0.74993682  0.31000758  1
  Li  Li8  1  0.75003287  0.75003287  0.34999606  1
  Li  Li9  1  0.75010412  0.75010412  0.38998751  1
  Li  Li10  1  0.75014581  0.75014581  0.42998250  1
  Li  Li11  1  0.75020500  0.75020500  0.46997540  1
  Li  Li12  1  0.75026799  0.75026799  0.50996784  1
  Li  Li13  1  0.75025897  0.75025897  0.54996892  1
  Li  Li14  1  0.74896957  0.74896957  0.59012365  1
  Li  Li15  1  0.24653545  0.24653545  0.65041575  1
  Li  Li16  1  0.72890464  0.72890464  0.63253144  1
  Li  Li17  1  0.76918482  0.76918482  0.66769782  1
  Li  Li18  1  0.75097445  0.75097445  0.70988307  1
  Li  Li19  1  0.74868084  0.74868084  0.75015830  1
  Li  Li20  1  0.24592778  0.24592778  0.81048867  1
  Li  Li21  1  0.72967104  0.72967104  0.79243948  1
  Li  Li22  1  0.76929843  0.76929843  0.82768419  1
  Li  Li23  1  0.75142092  0.75142092  0.86982949  1
  Li  Li24  1  0.74895413  0.74895413  0.91012550  1
  Li  Li25  1  0.24508674  0.24508674  0.97058959  1
  Li  Li26  1  0.72986409  0.72986409  0.95241631  1
  Li  Li27  1  0.76857530  0.76857530  0.98777096  1
  Mg  Mg0  1  0.25375210  0.25375210  0.00954975  1
  Mg  Mg1  1  0.25042417  0.25042417  0.04994910  1
  Mg  Mg2  1  0.24979026  0.24979026  0.09002517  1
  Mg  Mg3  1  0.24965564  0.24965564  0.13004132  1
  Mg  Mg4  1  0.24972146  0.24972146  0.17003342  1
  Mg  Mg5  1  0.24980189  0.24980189  0.21002377  1
  Mg  Mg6  1  0.24984903  0.24984903  0.25001812  1
  Mg  Mg7  1  0.24990442  0.24990442  0.29001147  1
  Mg  Mg8  1  0.25000871  0.25000871  0.32999895  1
  Mg  Mg9  1  0.25009835  0.25009835  0.36998820  1
  Mg  Mg10  1  0.25015235  0.25015235  0.40998172  1
  Mg  Mg11  1  0.25021204  0.25021204  0.44997456  1
  Mg  Mg12  1  0.25033565  0.25033565  0.48995972  1
  Mg  Mg13  1  0.25051457  0.25051457  0.52993825  1
  Mg  Mg14  1  0.25030686  0.25030686  0.56996318  1
  Mg  Mg15  1  0.24676218  0.24676218  0.61038854  1
  Mg  Mg16  1  0.25465359  0.25465359  0.68944157  1
  Mg  Mg17  1  0.25073469  0.25073469  0.72991184  1
  Mg  Mg18  1  0.24759777  0.24759777  0.77028827  1
  Mg  Mg19  1  0.25488739  0.25488739  0.84941351  1
  Mg  Mg20  1  0.25094252  0.25094252  0.88988690  1
  Mg  Mg21  1  0.24791759  0.24791759  0.93024989  1
  N  N0  1  0.99737404  0.99737404  0.00031511  1
  N  N1  1  -0.00059994  -0.00059994  0.04007199  1
  N  N2  1  0.99984757  0.99984757  0.08001829  1
  N  N3  1  1.00000506  1.00000506  0.11999939  1
  N  N4  1  1.00006939  1.00006939  0.15999167  1
  N  N5  1  1.00010466  1.00010466  0.19998744  1
  N  N6  1  1.00012766  1.00012766  0.23998468  1
  N  N7  1  1.00017105  1.00017105  0.27997947  1
  N  N8  1  0.00026734  0.00026734  0.31996792  1
  N  N9  1  0.00035009  0.00035009  0.35995799  1
  N  N10  1  0.00034814  0.00034814  0.39995822  1
  N  N11  1  0.00028560  0.00028560  0.43996573  1
  N  N12  1  0.00026234  0.00026234  0.47996852  1
  N  N13  1  0.00047367  0.00047367  0.51994316  1
  N  N14  1  1.00122348  1.00122348  0.55985318  1
  N  N15  1  0.00221140  0.00221140  0.59973463  1
  N  N16  1  0.00317963  0.00317963  0.63961844  1
  N  N17  1  0.99651641  0.99651641  0.68041803  1
  N  N18  1  0.99973780  0.99973780  0.72003146  1
  N  N19  1  1.00180156  1.00180156  0.75978381  1
  N  N20  1  0.00395437  0.00395437  0.79952548  1
  N  N21  1  1.00170107  1.00170107  0.91979587  1
  N  N22  1  0.99739562  0.99739562  0.84031253  1
  N  N23  1  1.00010271  1.00010271  0.87998767  1
  N  N24  1  0.00358643  0.00358643  0.95956963  1
loop_
_geom_bond_atom_site_label_1
_geom_bond_atom_site_label_2
_geom_bond_distance
_geom_bond_site_symmetry_2
Li0 N0 2.144836 1_555
Li0 N1 2.166781 1_655
Li0 N1 2.166781 1_665
Li0 N1 2.166782 1_565
Li1 N2 2.162629 1_545
Li1 N2 2.162629 1_555
Li1 N2 2.162629 1_455
Li1 N1 2.170897 1_665
Li2 N3 2.161790 1_545
Li2 N3 2.161790 1_555
Li2 N3 2.161790 1_455
Li2 N2 2.175933 1_555
Li3 N4 2.161827 1_555
Li3 N4 2.161827 1_545
Li3 N4 2.161828 1_455
Li3 N3 2.176631 1_555
Li4 N5 2.162062 1_545
Li4 N5 2.162062 1_555
Li4 N5 2.162062 1_455
Li4 N4 2.176180 1_555
Li5 N6 2.162269 1_545
Li5 N6 2.162269 1_455
Li5 N6 2.162269 1_555
Li5 N5 2.175665 1_555
Li6 N7 2.162387 1_555
Li6 N7 2.162387 1_545
Li6 N7 2.162387 1_455
Li6 N6 2.175134 1_555
Li7 N8 2.162373 1_655
Li7 N8 2.162373 1_565
Li7 N8 2.162373 1_665
Li7 N7 2.174716 1_555
Li8 N9 2.162412 1_655
Li8 N9 2.162412 1_665
Li8 N9 2.162412 1_565
Li8 N8 2.174718 1_665
Li9 N10 2.162624 1_665
Li9 N10 2.162624 1_655
Li9 N10 2.162624 1_565
Li9 N9 2.174818 1_665
Li10 N11 2.162926 1_655
Li10 N11 2.162927 1_565
Li10 N11 2.162927 1_665
Li10 N10 2.174438 1_665
Li11 N12 2.163166 1_655
Li11 N12 2.163166 1_565
Li11 N12 2.163167 1_665
Li11 N11 2.173380 1_665
Li12 N13 2.162735 1_655
Li12 N13 2.162735 1_565
Li12 N13 2.162736 1_665
Li12 N12 2.172631 1_665
Li13 N14 2.160541 1_545
Li13 N14 2.160541 1_455
Li13 N14 2.160542 1_555
Li13 N13 2.174545 1_665
Li14 N15 2.154065 1_655
Li14 N15 2.154065 1_565
Li14 N15 2.154065 1_665
Li14 N14 2.192268 1_555
Li15 N17 2.172845 1_445
Li15 N16 2.183342 1_565
Li15 N16 2.183342 1_655
Li15 N16 2.183343 1_555
Li16 N16 2.102128 1_655
Li16 N16 2.102128 1_665
Li16 N16 2.102128 1_565
Li16 N15 2.375232 1_665
Li17 N16 2.033583 1_665
Li17 N17 2.237001 1_545
Li17 N17 2.237001 1_455
Li17 N17 2.237001 1_555
Li18 N17 2.133937 1_555
Li18 N18 2.166954 1_555
Li18 N18 2.166954 1_545
Li18 N18 2.166955 1_455
Li19 N19 2.154405 1_545
Li19 N19 2.154405 1_555
Li19 N19 2.154405 1_455
Li19 N18 2.181866 1_555
Li20 N22 2.159923 1_445
Li20 N20 2.187673 1_565
Li20 N20 2.187674 1_555
Li20 N20 2.187674 1_655
Li21 N20 2.102110 1_655
Li21 N20 2.102110 1_565
Li21 N20 2.102110 1_665
Li21 N19 2.365010 1_555
Li22 N20 2.039329 1_665
Li22 N22 2.234269 1_545
Li22 N22 2.234269 1_455
Li22 N22 2.234269 1_555
Li23 N22 2.137697 1_555
Li23 N23 2.167195 1_555
Li23 N23 2.167195 1_545
Li23 N23 2.167195 1_455
Li24 N21 2.155458 1_545
Li24 N21 2.155459 1_455
Li24 N21 2.155459 1_555
Li24 N23 2.182662 1_555
Li25 N0 2.152801 1_446
Li25 N24 2.189169 1_565
Li25 N24 2.189169 1_555
Li25 N24 2.189169 1_655
Li26 N24 2.103305 1_655
Li26 N24 2.103306 1_565
Li26 N24 2.103306 1_665
Li26 N21 2.362459 1_555
Li27 N24 2.042415 1_665
Li27 N0 2.231780 1_546
Li27 N0 2.231780 1_556
Li27 N0 2.231780 1_456
Mg0 N0 2.145412 1_455
Mg0 N0 2.145413 1_545
Mg0 N0 2.145413 1_445
Mg0 N1 2.210502 1_555
Mg1 N1 2.160370 1_565
Mg1 N1 2.160370 1_655
Mg1 N1 2.160370 1_555
Mg1 N2 2.177691 1_445
Mg2 N2 2.163500 1_455
Mg2 N2 2.163500 1_545
Mg2 N2 2.163500 1_445
Mg2 N3 2.170813 1_445
Mg3 N3 2.164351 1_455
Mg3 N3 2.164352 1_445
Mg3 N3 2.164352 1_545
Mg3 N4 2.169084 1_445
Mg4 N4 2.164347 1_455
Mg4 N4 2.164347 1_445
Mg4 N4 2.164347 1_545
Mg4 N5 2.169350 1_445
Mg5 N5 2.164215 1_455
Mg5 N5 2.164215 1_445
Mg5 N5 2.164216 1_545
Mg5 N6 2.169849 1_445
Mg6 N6 2.164145 1_455
Mg6 N6 2.164145 1_545
Mg6 N6 2.164145 1_445
Mg6 N7 2.169881 1_445
Mg7 N7 2.164110 1_455
Mg7 N7 2.164110 1_545
Mg7 N7 2.164110 1_445
Mg7 N8 2.169526 1_555
Mg8 N8 2.164086 1_555
Mg8 N8 2.164086 1_565
Mg8 N8 2.164087 1_655
Mg8 N9 2.169713 1_555
Mg9 N9 2.164066 1_565
Mg9 N9 2.164067 1_655
Mg9 N9 2.164067 1_555
Mg9 N10 2.170509 1_555
Mg10 N10 2.163903 1_565
Mg10 N10 2.163903 1_655
Mg10 N10 2.163904 1_555
Mg10 N11 2.171522 1_555
Mg11 N11 2.163547 1_565
Mg11 N11 2.163547 1_655
Mg11 N11 2.163548 1_555
Mg11 N12 2.172242 1_555
Mg12 N12 2.163120 1_565
Mg12 N12 2.163120 1_555
Mg12 N12 2.163120 1_655
Mg12 N13 2.171480 1_555
Mg13 N13 2.163214 1_565
Mg13 N13 2.163214 1_555
Mg13 N13 2.163214 1_655
Mg13 N14 2.166519 1_445
Mg14 N15 2.156128 1_555
Mg14 N14 2.166013 1_455
Mg14 N14 2.166013 1_545
Mg14 N14 2.166013 1_445
Mg15 N16 2.116907 1_555
Mg15 N15 2.179644 1_565
Mg15 N15 2.179644 1_655
Mg15 N15 2.179644 1_555
Mg16 N17 2.140696 1_455
Mg16 N17 2.140696 1_545
Mg16 N17 2.140696 1_445
Mg16 N18 2.215401 1_445
Mg17 N18 2.160448 1_455
Mg17 N18 2.160448 1_545
Mg17 N18 2.160449 1_445
Mg17 N19 2.163408 1_445
Mg18 N20 2.117436 1_555
Mg18 N19 2.175836 1_455
Mg18 N19 2.175836 1_545
Mg18 N19 2.175837 1_445
Mg19 N22 2.142415 1_445
Mg19 N22 2.142415 1_455
Mg19 N22 2.142415 1_545
Mg19 N23 2.214262 1_445
Mg20 N23 2.160900 1_455
Mg20 N23 2.160901 1_545
Mg20 N23 2.160901 1_445
Mg20 N21 2.166087 1_445
Mg21 N24 2.123414 1_555
Mg21 N21 2.174561 1_455
Mg21 N21 2.174562 1_545
Mg21 N21 2.174562 1_445
