# generated using pymatgen
data_K17Fe5O16
_symmetry_space_group_name_H-M   'P 1'
_cell_length_a   18.31563230
_cell_length_b   18.31563230
_cell_length_c   6.68315869
_cell_angle_alpha   84.87543273
_cell_angle_beta   84.87543273
_cell_angle_gamma   158.96950492
_symmetry_Int_Tables_number   1
_chemical_formula_structural   K17Fe5O16
_chemical_formula_sum   'K17 Fe5 O16'
_cell_volume   701.60298569
_cell_formula_units_Z   1
loop_
 _symmetry_equiv_pos_site_id
 _symmetry_equiv_pos_as_xyz
  1  'x, y, z'
loop_
 _atom_site_type_symbol
 _atom_site_label
 _atom_site_symmetry_multiplicity
 _atom_site_fract_x
 _atom_site_fract_y
 _atom_site_fract_z
 _atom_site_occupancy
  K  K0  1  0.91532173  0.08363638  0.87982181  1
  K  K1  1  0.77916966  0.32796424  0.45807346  1
  K  K2  1  0.16479568  0.82817058  0.60738074  1
  K  K3  1  0.31250549  0.59131683  0.01881141  1
  K  K4  1  0.58852249  0.49651083  0.45744385  1
  K  K5  1  0.99725335  0.99725335  0.58260577  1
  K  K6  1  0.82817058  0.16479568  0.60738074  1
  K  K7  1  0.49651083  0.58852249  0.45744385  1
  K  K8  1  0.20683202  0.67353279  0.01020276  1
  K  K9  1  0.32796424  0.77916966  0.45807346  1
  K  K10  1  0.67353279  0.20683202  0.01020276  1
  K  K11  1  0.08363638  0.91532173  0.87982181  1
  K  K12  1  0.68258425  0.40701471  0.47318186  1
  K  K13  1  0.59131683  0.31250549  0.01881141  1
  K  K14  1  0.50145866  0.40802057  0.00103933  1
  K  K15  1  0.40802057  0.50145866  0.00103933  1
  K  K16  1  0.40701471  0.68258425  0.47318186  1
  Fe  Fe0  1  0.99878401  0.99878401  0.07383931  1
  Fe  Fe1  1  0.81925713  0.17813106  0.08460607  1
  Fe  Fe2  1  0.17813106  0.81925713  0.08460607  1
  Fe  Fe3  1  0.90924788  0.08854109  0.39007758  1
  Fe  Fe4  1  0.08854109  0.90924788  0.39007758  1
  O  O0  1  0.35962985  0.17346126  0.40938309  1
  O  O1  1  0.12473217  0.86753785  0.19682790  1
  O  O2  1  0.82597246  0.63985897  0.67425499  1
  O  O3  1  0.17346126  0.35962985  0.40938309  1
  O  O4  1  0.54339940  0.91734202  0.06507878  1
  O  O5  1  0.63985897  0.82597246  0.67425499  1
  O  O6  1  0.86753785  0.12473217  0.19682790  1
  O  O7  1  0.72980227  0.72980227  0.05611731  1
  O  O8  1  0.78504939  0.21151385  0.29865264  1
  O  O9  1  0.08258296  0.45375178  0.80322169  1
  O  O10  1  0.91734202  0.54339940  0.06507878  1
  O  O11  1  0.21151385  0.78504939  0.29865264  1
  O  O12  1  0.45375178  0.08258296  0.80322169  1
  O  O13  1  0.95586740  0.04185517  0.24475426  1
  O  O14  1  0.26572775  0.26572775  0.79014517  1
  O  O15  1  0.04185517  0.95586740  0.24475426  1
loop_
_geom_bond_atom_site_label_1
_geom_bond_atom_site_label_2
_geom_bond_distance
_geom_bond_site_symmetry_2
K0 O6 2.646577 1_556
K0 O5 2.749940 1_545
K0 O3 2.771476 1_655
K0 O13 2.852427 1_556
K1 O8 2.551487 1_555
K1 O12 2.594279 1_555
K1 O11 2.659241 1_655
K1 O10 2.681850 1_555
K2 O11 2.617319 1_555
K2 O10 2.765198 1_456
K2 O12 2.779511 1_565
K2 O1 3.095265 1_555
K2 O2 3.143220 1_455
K2 O0 3.164318 1_565
K3 O4 2.656910 1_555
K3 O6 2.702264 1_455
K3 O5 2.717287 1_554
K3 O3 2.822411 1_555
K3 O9 2.843133 1_554
K4 O0 2.638535 1_555
K4 O14 2.661932 1_555
K4 O15 2.663509 1_655
K4 O7 2.867002 1_555
K4 O2 2.897701 1_555
K5 O13 2.733551 1_565
K5 O15 2.733551 1_655
K5 O14 2.753519 1_665
K5 O7 2.769945 1_556
K6 O8 2.617319 1_555
K6 O4 2.765198 1_546
K6 O9 2.779511 1_655
K6 O6 3.095265 1_555
K6 O5 3.143220 1_545
K6 O3 3.164318 1_655
K7 O3 2.638535 1_555
K7 O14 2.661932 1_555
K7 O13 2.663509 1_565
K7 O7 2.867002 1_555
K7 O5 2.897701 1_555
K8 O4 2.717446 1_555
K8 O8 2.719129 1_455
K8 O9 2.784335 1_554
K8 O11 2.881208 1_555
K8 O10 3.135837 1_455
K9 O11 2.551487 1_555
K9 O9 2.594279 1_555
K9 O8 2.659241 1_565
K9 O4 2.681850 1_555
K10 O10 2.717446 1_555
K10 O11 2.719129 1_545
K10 O12 2.784335 1_554
K10 O8 2.881208 1_555
K10 O4 3.135837 1_545
K11 O1 2.646577 1_556
K11 O2 2.749940 1_455
K11 O0 2.771476 1_565
K11 O15 2.852427 1_556
K12 O0 2.647688 1_555
K12 O1 2.677569 1_655
K12 O12 2.693691 1_555
K12 O2 2.763447 1_555
K12 O10 2.967148 1_555
K13 O10 2.656910 1_555
K13 O1 2.702264 1_545
K13 O2 2.717287 1_554
K13 O0 2.822411 1_555
K13 O12 2.843133 1_554
K14 O7 2.647753 1_555
K14 O2 2.652838 1_554
K14 O15 2.664532 1_545
K14 O14 2.856166 1_554
K14 O0 2.908277 1_555
K15 O7 2.647753 1_555
K15 O5 2.652838 1_554
K15 O13 2.664532 1_455
K15 O14 2.856166 1_554
K15 O3 2.908277 1_555
K16 O3 2.647688 1_555
K16 O6 2.677569 1_565
K16 O9 2.693691 1_555
K16 O5 2.763447 1_555
K16 O4 2.967148 1_555
Fe0 O7 1.859011 1_555
Fe0 O14 1.862076 1_664
Fe0 O15 1.924339 1_655
Fe0 O13 1.924339 1_565
Fe1 O9 1.874708 1_654
Fe1 O8 1.877234 1_555
Fe1 O4 1.880804 1_545
Fe1 O6 1.975595 1_555
Fe2 O12 1.874708 1_564
Fe2 O11 1.877234 1_555
Fe2 O10 1.880804 1_455
Fe2 O1 1.975595 1_555
Fe3 O3 1.859962 1_655
Fe3 O5 1.864950 1_545
Fe3 O6 1.913024 1_555
Fe3 O13 1.940802 1_555
Fe4 O0 1.859962 1_565
Fe4 O2 1.864950 1_455
Fe4 O1 1.913024 1_555
Fe4 O15 1.940802 1_555
