# generated using pymatgen
data_ScNi5
_symmetry_space_group_name_H-M   'P 1'
_cell_length_a   4.69892459
_cell_length_b   4.69918796
_cell_length_c   3.91563614
_cell_angle_alpha   90.00000000
_cell_angle_beta   90.00000000
_cell_angle_gamma   119.99679659
_symmetry_Int_Tables_number   1
_chemical_formula_structural   ScNi5
_chemical_formula_sum   'Sc1 Ni5'
_cell_volume   74.88041975
_cell_formula_units_Z   1
loop_
 _symmetry_equiv_pos_site_id
 _symmetry_equiv_pos_as_xyz
  1  'x, y, z'
loop_
 _atom_site_type_symbol
 _atom_site_label
 _atom_site_symmetry_multiplicity
 _atom_site_fract_x
 _atom_site_fract_y
 _atom_site_fract_z
 _atom_site_occupancy
  Sc  Sc0  1  0.00000000  0.00000000  -0.00000000  1
  Ni  Ni0  1  0.50000000  0.50000000  0.50000000  1
  Ni  Ni1  1  0.66669250  0.33336085  0.00000000  1
  Ni  Ni2  1  0.00000000  0.50000000  0.50000000  1
  Ni  Ni3  1  0.33330750  0.66663915  0.00000000  1
  Ni  Ni4  1  0.50000000  0.00000000  0.50000000  1
loop_
_geom_bond_atom_site_label_1
_geom_bond_atom_site_label_2
_geom_bond_distance
_geom_bond_site_symmetry_2
Ni0 Ni2 2.349462 1_555
Ni0 Ni2 2.349462 1_655
Ni0 Ni4 2.349594 1_565
Ni0 Ni4 2.349594 1_555
Ni0 Ni1 2.381820 1_555
Ni0 Ni3 2.381820 1_555
Ni0 Ni3 2.381820 1_556
Ni0 Ni1 2.381820 1_556
Ni0 Sc0 3.058410 1_666
Ni0 Sc0 3.058410 1_555
Ni0 Sc0 3.058410 1_556
Ni0 Sc0 3.058410 1_665
Ni1 Ni2 2.381780 1_654
Ni1 Ni2 2.381780 1_655
Ni1 Ni4 2.381947 1_554
Ni1 Ni4 2.381947 1_555
Ni1 Ni3 2.712803 1_655
Ni1 Ni3 2.712944 1_555
Ni1 Sc0 2.712964 1_655
Ni1 Sc0 2.713053 1_665
Ni1 Sc0 2.713118 1_555
Ni1 Ni3 2.713389 1_545
Ni2 Ni4 2.349642 1_455
Ni2 Ni4 2.349642 1_565
Ni2 Ni3 2.381780 1_555
Ni2 Ni3 2.381780 1_556
Ni2 Sc0 3.058373 1_555
Ni2 Sc0 3.058373 1_556
Ni2 Sc0 3.058373 1_565
Ni2 Sc0 3.058373 1_566
Ni3 Ni4 2.381947 1_565
Ni3 Ni4 2.381947 1_564
Ni3 Sc0 2.712964 1_565
Ni3 Sc0 2.713053 1_555
Ni3 Sc0 2.713118 1_665
Ni4 Sc0 3.058272 1_555
Ni4 Sc0 3.058272 1_556
Ni4 Sc0 3.058272 1_656
Ni4 Sc0 3.058272 1_655
