# generated using pymatgen
data_NaSbCO2F3
_symmetry_space_group_name_H-M   'P 1'
_cell_length_a   9.32751648
_cell_length_b   9.32751648
_cell_length_c   8.49297259
_cell_angle_alpha   83.52052516
_cell_angle_beta   83.52052516
_cell_angle_gamma   40.29826897
_symmetry_Int_Tables_number   1
_chemical_formula_structural   NaSbCO2F3
_chemical_formula_sum   'Na4 Sb4 C4 O8 F12'
_cell_volume   474.43749954
_cell_formula_units_Z   4
loop_
 _symmetry_equiv_pos_site_id
 _symmetry_equiv_pos_as_xyz
  1  'x, y, z'
loop_
 _atom_site_type_symbol
 _atom_site_label
 _atom_site_symmetry_multiplicity
 _atom_site_fract_x
 _atom_site_fract_y
 _atom_site_fract_z
 _atom_site_occupancy
  Na  Na0  1  0.09446900  0.32616000  0.17619100  1
  Na  Na1  1  0.32616000  0.09446900  0.67619100  1
  Na  Na2  1  0.67384000  0.90553100  0.32380900  1
  Na  Na3  1  0.90553100  0.67384000  0.82380900  1
  Sb  Sb0  1  0.26953000  0.51956800  0.39455400  1
  Sb  Sb1  1  0.51956800  0.26953000  0.89455400  1
  Sb  Sb2  1  0.48043200  0.73047000  0.10544600  1
  Sb  Sb3  1  0.73047000  0.48043200  0.60544600  1
  C  C0  1  0.04095500  0.89567400  0.97247600  1
  C  C1  1  0.95904500  0.10432600  0.02752400  1
  C  C2  1  0.10432600  0.95904500  0.52752400  1
  C  C3  1  0.89567400  0.04095500  0.47247600  1
  O  O0  1  0.76403500  0.29174500  0.99628700  1
  O  O1  1  0.90451700  0.92928200  0.89909500  1
  O  O2  1  0.29174500  0.76403500  0.49628700  1
  O  O3  1  0.07071800  0.09548300  0.60090500  1
  O  O4  1  0.23596500  0.70825500  0.00371300  1
  O  O5  1  0.70825500  0.23596500  0.50371300  1
  O  O6  1  0.92928200  0.90451700  0.39909500  1
  O  O7  1  0.09548300  0.07071800  0.10090500  1
  F  F0  1  0.03842500  0.57444800  0.30426900  1
  F  F1  1  0.17223600  0.55999300  0.62093700  1
  F  F2  1  0.42555200  0.96157500  0.19573100  1
  F  F3  1  0.82776400  0.44000700  0.37906300  1
  F  F4  1  0.77803300  0.60773000  0.04767200  1
  F  F5  1  0.22196700  0.39227000  0.95232800  1
  F  F6  1  0.60773000  0.77803300  0.54767200  1
  F  F7  1  0.44000700  0.82776400  0.87906300  1
  F  F8  1  0.57444800  0.03842500  0.80426900  1
  F  F9  1  0.39227000  0.22196700  0.45232800  1
  F  F10  1  0.96157500  0.42555200  0.69573100  1
  F  F11  1  0.55999300  0.17223600  0.12093700  1
loop_
_geom_bond_atom_site_label_1
_geom_bond_atom_site_label_2
_geom_bond_distance
_geom_bond_site_symmetry_2
Na0 O7 2.528635 1_555
Na1 O3 2.528635 1_555
Na2 O6 2.528635 1_555
Na3 O1 2.528635 1_555
C0 O4 1.260498 1_556
C0 O1 1.277745 1_455
C1 O0 1.260498 1_554
C1 O7 1.277745 1_655
C2 O2 1.260498 1_555
C2 O3 1.277745 1_565
C3 O5 1.260498 1_555
C3 O6 1.277745 1_545
O1 Sb1 2.363792 1_565
O3 Sb3 2.363792 1_455
O6 Sb0 2.363792 1_655
O7 Sb2 2.363792 1_545
F0 Sb0 2.024363 1_555
F0 Na2 2.257862 1_455
F0 Na0 2.326687 1_555
F1 Sb0 1.977434 1_555
F1 Na3 2.387660 1_455
F2 Sb2 2.024363 1_555
F2 Na0 2.257862 1_565
F2 Na2 2.326687 1_555
F3 Sb3 1.977434 1_555
F3 Na0 2.387660 1_655
F4 Sb2 2.056383 1_555
F4 Na0 2.248661 1_655
F4 Na3 2.398549 1_554
F5 Sb1 2.056383 1_555
F5 Na3 2.248661 1_455
F5 Na0 2.398549 1_556
F6 Sb3 2.056383 1_555
F6 Na1 2.248661 1_565
F6 Na2 2.398549 1_555
F7 Sb2 1.977434 1_556
F7 Na1 2.387660 1_565
F8 Sb1 2.024363 1_555
F8 Na3 2.257862 1_545
F8 Na1 2.326687 1_555
F9 Sb0 2.056383 1_555
F9 Na2 2.248661 1_545
F9 Na1 2.398549 1_555
F10 Sb3 2.024363 1_555
F10 Na1 2.257862 1_655
F10 Na3 2.326687 1_555
F11 Sb1 1.977434 1_554
F11 Na2 2.387660 1_545
