# generated using pymatgen
data_Nd3BWO9
_symmetry_space_group_name_H-M   'P 1'
_cell_length_a   8.79891842
_cell_length_b   8.79891842
_cell_length_c   5.59337400
_cell_angle_alpha   90.00000000
_cell_angle_beta   90.00000000
_cell_angle_gamma   120.00000317
_symmetry_Int_Tables_number   1
_chemical_formula_structural   Nd3BWO9
_chemical_formula_sum   'Nd6 B2 W2 O18'
_cell_volume   375.02745223
_cell_formula_units_Z   2
loop_
 _symmetry_equiv_pos_site_id
 _symmetry_equiv_pos_as_xyz
  1  'x, y, z'
loop_
 _atom_site_type_symbol
 _atom_site_label
 _atom_site_symmetry_multiplicity
 _atom_site_fract_x
 _atom_site_fract_y
 _atom_site_fract_z
 _atom_site_occupancy
  Nd  Nd0  1  0.72413700  0.64370400  0.20358300  1
  Nd  Nd1  1  0.08043300  0.72413700  0.70358300  1
  Nd  Nd2  1  0.35629600  0.08043300  0.20358300  1
  Nd  Nd3  1  0.91956700  0.27586300  0.20358300  1
  Nd  Nd4  1  0.64370400  0.91956700  0.70358300  1
  Nd  Nd5  1  0.27586300  0.35629600  0.70358300  1
  B  B0  1  0.00000000  0.00000000  0.36885100  1
  B  B1  1  0.00000000  0.00000000  0.86885100  1
  W  W0  1  0.66666700  0.33333300  0.74711300  1
  W  W1  1  0.33333300  0.66666700  0.24711300  1
  O  O0  1  0.17554900  0.04806100  0.86062000  1
  O  O1  1  0.79396300  0.53374500  0.54446400  1
  O  O2  1  0.12748700  0.17554900  0.36062000  1
  O  O3  1  0.73978300  0.20603700  0.54446400  1
  O  O4  1  0.13522400  0.51978200  0.47077800  1
  O  O5  1  0.61544200  0.13522400  0.97077800  1
  O  O6  1  0.26021700  0.79396300  0.04446400  1
  O  O7  1  0.95193900  0.12748700  0.86062000  1
  O  O8  1  0.20603700  0.46625500  0.04446400  1
  O  O9  1  0.86477600  0.48021800  0.97077800  1
  O  O10  1  0.87251300  0.82445100  0.86062000  1
  O  O11  1  0.53374500  0.73978300  0.04446400  1
  O  O12  1  0.51978200  0.38455800  0.97077800  1
  O  O13  1  0.38455800  0.86477600  0.47077800  1
  O  O14  1  0.04806100  0.87251300  0.36062000  1
  O  O15  1  0.48021800  0.61544200  0.47077800  1
  O  O16  1  0.46625500  0.26021700  0.54446400  1
  O  O17  1  0.82445100  0.95193900  0.36062000  1
loop_
_geom_bond_atom_site_label_1
_geom_bond_atom_site_label_2
_geom_bond_distance
_geom_bond_site_symmetry_2
Nd0 O1 2.354447 1_555
Nd0 O11 2.393634 1_555
Nd0 O10 2.416070 1_554
Nd0 O12 2.455219 1_554
Nd0 O15 2.523489 1_555
Nd0 O17 2.551941 1_555
Nd0 O9 2.660142 1_554
Nd0 O14 2.685169 1_655
Nd1 O6 2.354442 1_556
Nd1 O1 2.393628 1_455
Nd1 O14 2.416074 1_555
Nd1 O4 2.455219 1_555
Nd1 O9 2.523489 1_455
Nd1 O10 2.551933 1_455
Nd1 O13 2.660142 1_555
Nd1 O0 2.685167 1_565
Nd2 O16 2.354443 1_555
Nd2 O6 2.393627 1_545
Nd2 O0 2.416069 1_554
Nd2 O5 2.455219 1_554
Nd2 O13 2.523489 1_545
Nd2 O14 2.551939 1_545
Nd2 O12 2.660142 1_554
Nd2 O2 2.685175 1_555
Nd3 O3 2.354442 1_555
Nd3 O8 2.393628 1_655
Nd3 O7 2.416074 1_554
Nd3 O9 2.455219 1_554
Nd3 O4 2.523489 1_655
Nd3 O2 2.551933 1_655
Nd3 O5 2.660142 1_554
Nd3 O17 2.685167 1_545
Nd4 O11 2.354443 1_556
Nd4 O3 2.393627 1_565
Nd4 O17 2.416069 1_555
Nd4 O13 2.455219 1_555
Nd4 O5 2.523489 1_565
Nd4 O7 2.551939 1_565
Nd4 O15 2.660142 1_555
Nd4 O10 2.685175 1_555
Nd5 O8 2.354447 1_556
Nd5 O16 2.393634 1_555
Nd5 O2 2.416070 1_555
Nd5 O15 2.455219 1_555
Nd5 O12 2.523489 1_555
Nd5 O0 2.551941 1_555
Nd5 O4 2.660142 1_555
Nd5 O7 2.685169 1_455
B0 O14 1.383343 1_545
B0 O2 1.383350 1_555
B0 O17 1.383352 1_445
B1 O7 1.383343 1_455
B1 O10 1.383350 1_445
B1 O0 1.383352 1_555
O1 W0 1.916723 1_555
O3 W0 1.916723 1_555
O4 W1 2.005279 1_555
O5 W0 2.005277 1_555
O6 W1 1.916723 1_555
O8 W1 1.916723 1_555
O9 W0 2.005279 1_555
O11 W1 1.916723 1_555
O12 W0 2.005283 1_555
O13 W1 2.005277 1_555
O15 W1 2.005283 1_555
O16 W0 1.916723 1_555
