# generated using pymatgen
data_K2Ge2PbS6
_symmetry_space_group_name_H-M   'P 1'
_cell_length_a   8.70638933
_cell_length_b   8.70638933
_cell_length_c   9.15311291
_cell_angle_alpha   89.95415168
_cell_angle_beta   89.95415168
_cell_angle_gamma   114.12648426
_symmetry_Int_Tables_number   1
_chemical_formula_structural   K2Ge2PbS6
_chemical_formula_sum   'K4 Ge4 Pb2 S12'
_cell_volume   633.20823646
_cell_formula_units_Z   2
loop_
 _symmetry_equiv_pos_site_id
 _symmetry_equiv_pos_as_xyz
  1  'x, y, z'
loop_
 _atom_site_type_symbol
 _atom_site_label
 _atom_site_symmetry_multiplicity
 _atom_site_fract_x
 _atom_site_fract_y
 _atom_site_fract_z
 _atom_site_occupancy
  K  K0  1  0.26364000  0.53810200  0.51826000  1
  K  K1  1  0.73636000  0.46189800  0.48174000  1
  K  K2  1  0.46189800  0.73636000  0.98174000  1
  K  K3  1  0.53810200  0.26364000  0.01826000  1
  Ge  Ge0  1  0.97620200  0.65593400  0.05929200  1
  Ge  Ge1  1  0.02379800  0.34406600  0.94070800  1
  Ge  Ge2  1  0.34406600  0.02379800  0.44070800  1
  Ge  Ge3  1  0.65593400  0.97620200  0.55929200  1
  Pb  Pb0  1  0.98867100  0.01132900  0.25000000  1
  Pb  Pb1  1  0.01132900  0.98867100  0.75000000  1
  S  S0  1  0.65376400  0.75022700  0.66530500  1
  S  S1  1  0.91948400  0.52135400  0.83734900  1
  S  S2  1  0.24977300  0.34623600  0.83469500  1
  S  S3  1  0.52135400  0.91948400  0.33734900  1
  S  S4  1  0.34623600  0.24977300  0.33469500  1
  S  S5  1  0.91073600  0.17644900  0.53807000  1
  S  S6  1  0.82355100  0.08926400  0.96193000  1
  S  S7  1  0.17644900  0.91073600  0.03807000  1
  S  S8  1  0.08051600  0.47864600  0.16265100  1
  S  S9  1  0.47864600  0.08051600  0.66265100  1
  S  S10  1  0.08926400  0.82355100  0.46193000  1
  S  S11  1  0.75022700  0.65376400  0.16530500  1
loop_
_geom_bond_atom_site_label_1
_geom_bond_atom_site_label_2
_geom_bond_distance
_geom_bond_site_symmetry_2
K0 S2 3.319755 1_555
K0 S4 3.335021 1_555
K0 S5 3.387747 1_455
K0 S0 3.412062 1_555
K0 S10 3.439589 1_555
K0 S3 3.563215 1_555
K0 S8 3.569423 1_555
K1 S11 3.319755 1_555
K1 S0 3.335021 1_555
K1 S10 3.387747 1_655
K1 S4 3.412062 1_555
K1 S5 3.439589 1_555
K1 S9 3.563215 1_555
K1 S1 3.569423 1_555
K2 S0 3.319755 1_555
K2 S11 3.335021 1_556
K2 S6 3.387747 1_565
K2 S2 3.412062 1_555
K2 S7 3.439589 1_556
K2 S8 3.563215 1_556
K2 S3 3.569423 1_556
K3 S4 3.319755 1_555
K3 S2 3.335021 1_554
K3 S7 3.387747 1_545
K3 S11 3.412062 1_555
K3 S6 3.439589 1_554
K3 S1 3.563215 1_554
K3 S9 3.569423 1_554
Ge0 S11 2.186145 1_555
Ge0 S7 2.198990 1_655
Ge0 S8 2.290722 1_655
Ge0 S1 2.296958 1_554
Ge1 S2 2.186145 1_555
Ge1 S6 2.198990 1_455
Ge1 S1 2.290722 1_455
Ge1 S8 2.296958 1_556
Ge2 S4 2.186145 1_555
Ge2 S10 2.198990 1_545
Ge2 S3 2.290722 1_545
Ge2 S9 2.296958 1_555
Ge3 S0 2.186145 1_555
Ge3 S5 2.198990 1_565
Ge3 S9 2.290722 1_565
Ge3 S3 2.296958 1_555
Pb0 S10 2.893248 1_645
Pb0 S7 2.893248 1_645
Pb0 S11 3.053717 1_545
Pb0 S4 3.053717 1_655
Pb0 S5 3.206263 1_555
Pb0 S6 3.206263 1_554
Pb1 S6 2.893248 1_465
Pb1 S5 2.893248 1_465
Pb1 S0 3.053717 1_455
Pb1 S2 3.053717 1_565
Pb1 S10 3.206263 1_555
Pb1 S7 3.206263 1_556
