# generated using pymatgen
data_Ca8H3N4
_symmetry_space_group_name_H-M   'P 1'
_cell_length_a   7.18303585
_cell_length_b   7.18130857
_cell_length_c   35.91387295
_cell_angle_alpha   60.05558961
_cell_angle_beta   60.06565807
_cell_angle_gamma   60.05664710
_symmetry_Int_Tables_number   1
_chemical_formula_structural   Ca8H3N4
_chemical_formula_sum   'Ca40 H15 N20'
_cell_volume   1311.72298874
_cell_formula_units_Z   5
loop_
 _symmetry_equiv_pos_site_id
 _symmetry_equiv_pos_as_xyz
  1  'x, y, z'
loop_
 _atom_site_type_symbol
 _atom_site_label
 _atom_site_symmetry_multiplicity
 _atom_site_fract_x
 _atom_site_fract_y
 _atom_site_fract_z
 _atom_site_occupancy
  Ca  Ca0  1  0.26341404  0.25913279  0.05311642  1
  Ca  Ca1  1  0.26376608  0.26508444  0.14245752  1
  Ca  Ca2  1  0.26192009  0.71560244  0.05197362  1
  Ca  Ca3  1  0.71224068  0.25942149  0.05276688  1
  Ca  Ca4  1  0.26170929  0.26157433  0.25232462  1
  Ca  Ca5  1  0.28771532  0.73535270  0.14724851  1
  Ca  Ca6  1  0.73618587  0.74104940  0.05755283  1
  Ca  Ca7  1  0.73648246  0.28819480  0.14689570  1
  Ca  Ca8  1  0.26373667  0.26371569  0.34246353  1
  Ca  Ca9  1  0.26366855  0.71231941  0.25276325  1
  Ca  Ca10  1  0.73819825  0.73734741  0.14803558  1
  Ca  Ca11  1  0.71224338  0.26364069  0.25276253  1
  Ca  Ca12  1  0.26161921  0.26160142  0.45232598  1
  Ca  Ca13  1  0.28770749  0.73626450  0.34725584  1
  Ca  Ca14  1  0.73621378  0.73630947  0.25754962  1
  Ca  Ca15  1  0.73626343  0.28768505  0.34725753  1
  Ca  Ca16  1  0.26372721  0.71230432  0.45274920  1
  Ca  Ca17  1  0.26374748  0.26372423  0.54245787  1
  Ca  Ca18  1  0.73836389  0.73838455  0.34768278  1
  Ca  Ca19  1  0.71228363  0.26372080  0.45275287  1
  Ca  Ca20  1  0.26163611  0.26161545  0.65231722  1
  Ca  Ca21  1  0.28771637  0.73627920  0.54724713  1
  Ca  Ca22  1  0.73627279  0.28769568  0.54725080  1
  Ca  Ca23  1  0.73625252  0.73627577  0.45754213  1
  Ca  Ca24  1  0.26378622  0.26369053  0.74245038  1
  Ca  Ca25  1  0.26373657  0.71231495  0.65274247  1
  Ca  Ca26  1  0.73838079  0.73839858  0.54767402  1
  Ca  Ca27  1  0.71229251  0.26373550  0.65274416  1
  Ca  Ca28  1  0.26180175  0.26265259  0.85196442  1
  Ca  Ca29  1  0.28775662  0.73635931  0.74723747  1
  Ca  Ca30  1  0.73626333  0.73628431  0.65753647  1
  Ca  Ca31  1  0.73633145  0.28768059  0.74723675  1
  Ca  Ca32  1  0.26381413  0.25895060  0.94244717  1
  Ca  Ca33  1  0.26351754  0.71180520  0.85310430  1
  Ca  Ca34  1  0.73829071  0.73842567  0.74767538  1
  Ca  Ca35  1  0.71228468  0.26464730  0.85275149  1
  Ca  Ca36  1  0.28775932  0.74057851  0.94723312  1
  Ca  Ca37  1  0.73623392  0.73491556  0.85754248  1
  Ca  Ca38  1  0.73807991  0.28439756  0.94802638  1
  Ca  Ca39  1  0.73658596  0.74086721  0.94688358  1
  H  H0  1  0.00000000  0.00000000  0.00000000  1
  H  H1  1  0.50000000  0.00000000  0.00000000  1
  H  H2  1  0.49998045  0.99991471  0.20000030  1
  H  H3  1  0.50000188  0.00000866  0.39999630  1
  H  H4  1  0.99995245  0.50000236  0.20000055  1
  H  H5  1  0.00000566  0.99915469  0.09999376  1
  H  H6  1  0.00000898  0.00001658  0.29999139  1
  H  H7  1  0.49999812  0.99999134  0.60000370  1
  H  H8  1  0.00000860  0.50000133  0.39999630  1
  H  H9  1  0.99999434  0.00084531  0.90000624  1
  H  H10  1  0.50001955  0.00008529  0.79999970  1
  H  H11  1  0.99999102  0.99998342  0.70000861  1
  H  H12  1  0.99999140  0.49999867  0.60000370  1
  H  H13  1  0.00000000  0.00000000  0.50000000  1
  H  H14  1  0.00004755  0.49999764  0.79999945  1
  N  N0  1  0.50000000  0.50000000  0.00000000  1
  N  N1  1  0.49994751  -0.00027415  0.10014293  1
  N  N2  1  0.50008426  0.50039877  0.09984236  1
  N  N3  1  0.00001279  0.50001897  0.29998836  1
  N  N4  1  0.50000548  0.50015750  0.19999335  1
  N  N5  1  0.50001815  0.00002783  0.29999001  1
  N  N6  1  0.50001993  0.50000812  0.29999143  1
  N  N7  1  1.00000719  0.50032535  0.09999047  1
  N  N8  1  0.00000000  0.50000000  0.50000000  1
  N  N9  1  0.50001353  0.50001269  0.39999275  1
  N  N10  1  0.50000000  0.00000000  0.50000000  1
  N  N11  1  0.50000000  0.50000000  0.50000000  1
  N  N12  1  0.99998721  0.49998103  0.70001164  1
  N  N13  1  0.49998185  0.99997217  0.70000999  1
  N  N14  1  0.49998647  0.49998731  0.60000725  1
  N  N15  1  0.49998007  0.49999188  0.70000857  1
  N  N16  1  0.49999452  0.49984250  0.80000665  1
  N  N17  1  0.50005249  1.00027415  0.89985707  1
  N  N18  1  0.49991574  0.49960123  0.90015764  1
  N  N19  1  -0.00000719  0.49967465  0.90000953  1
loop_
_geom_bond_atom_site_label_1
_geom_bond_atom_site_label_2
_geom_bond_distance
_geom_bond_site_symmetry_2
Ca0 N1 2.402626 1_555
Ca0 N7 2.423725 1_455
Ca0 N0 2.433920 1_555
Ca0 H5 2.666340 1_545
Ca0 H1 2.672360 1_555
Ca1 N2 2.401728 1_555
Ca1 N7 2.426097 1_455
Ca1 N1 2.430974 1_555
Ca1 H4 2.662431 1_455
Ca1 H2 2.668555 1_545
Ca2 N0 2.421168 1_555
Ca2 N7 2.430508 1_455
Ca2 N2 2.431870 1_555
Ca2 H0 2.656691 1_565
Ca2 H1 2.659890 1_565
Ca2 H5 2.665229 1_555
Ca3 N1 2.404195 1_555
Ca3 N0 2.426054 1_555
Ca3 N2 2.427395 1_555
Ca3 H0 2.665613 1_655
Ca3 H5 2.668351 1_645
Ca4 N5 2.427635 1_555
Ca4 N3 2.428466 1_555
Ca4 N4 2.429001 1_555
Ca4 H6 2.663731 1_555
Ca4 H2 2.663867 1_545
Ca4 H4 2.664278 1_455
Ca5 N2 2.403941 1_555
Ca5 N4 2.425678 1_555
Ca5 N1 2.428880 1_565
Ca5 H4 2.664764 1_455
Ca5 H5 2.668759 1_555
Ca6 N1 2.401935 1_565
Ca6 N7 2.425762 1_555
Ca6 N2 2.429896 1_555
Ca6 H0 2.663261 1_665
Ca6 H1 2.668627 1_565
Ca7 N2 2.402294 1_555
Ca7 N7 2.424024 1_555
Ca7 N4 2.433650 1_555
Ca7 H5 2.667369 1_645
Ca7 H2 2.672984 1_545
Ca8 N6 2.407088 1_555
Ca8 N5 2.425833 1_555
Ca8 N3 2.426062 1_555
Ca8 H3 2.668453 1_555
Ca8 H8 2.668705 1_555
Ca9 N6 2.406638 1_555
Ca9 N3 2.425473 1_555
Ca9 N4 2.425823 1_555
Ca9 H6 2.668068 1_565
Ca9 H2 2.668353 1_555
Ca10 N4 2.420868 1_555
Ca10 N7 2.430887 1_555
Ca10 N1 2.433252 1_565
Ca10 H4 2.655251 1_555
Ca10 H2 2.659195 1_555
Ca10 H5 2.664818 1_655
Ca11 N6 2.406804 1_555
Ca11 N5 2.424748 1_555
Ca11 N4 2.426028 1_555
Ca11 H6 2.668427 1_655
Ca11 H4 2.669328 1_555
Ca12 N10 2.428217 1_555
Ca12 N8 2.428453 1_555
Ca12 N9 2.428651 1_555
Ca12 H13 2.663516 1_555
Ca12 H3 2.663606 1_555
Ca12 H8 2.663665 1_555
Ca13 N6 2.407113 1_555
Ca13 N9 2.425499 1_555
Ca13 N5 2.425959 1_565
Ca13 H8 2.668797 1_555
Ca13 H6 2.668931 1_565
Ca14 N6 2.406736 1_555
Ca14 N5 2.425202 1_565
Ca14 N3 2.425589 1_655
Ca14 H2 2.668734 1_555
Ca14 H4 2.669240 1_555
Ca15 N6 2.407066 1_555
Ca15 N9 2.425693 1_555
Ca15 N3 2.426129 1_655
Ca15 H3 2.668536 1_555
Ca15 H6 2.668832 1_655
Ca16 N11 2.406825 1_555
Ca16 N8 2.425870 1_555
Ca16 N9 2.426088 1_555
Ca16 H13 2.668607 1_565
Ca16 H3 2.668750 1_565
Ca17 N11 2.406871 1_555
Ca17 N10 2.425652 1_555
Ca17 N8 2.425773 1_555
Ca17 H7 2.668730 1_545
Ca17 H12 2.668999 1_455
Ca18 N9 2.428191 1_555
Ca18 N5 2.428521 1_565
Ca18 N3 2.428801 1_655
Ca18 H3 2.663353 1_565
Ca18 H8 2.663425 1_655
Ca18 H6 2.663777 1_665
Ca19 N11 2.406790 1_555
Ca19 N10 2.425604 1_555
Ca19 N9 2.425946 1_555
Ca19 H13 2.668608 1_655
Ca19 H8 2.669022 1_655
Ca20 N14 2.428191 1_555
Ca20 N13 2.428521 1_545
Ca20 N12 2.428801 1_455
Ca20 H7 2.663353 1_545
Ca20 H12 2.663425 1_455
Ca20 H11 2.663777 1_445
Ca21 N11 2.406790 1_555
Ca21 N10 2.425604 1_565
Ca21 N14 2.425946 1_555
Ca21 H13 2.668608 1_565
Ca21 H12 2.669022 1_455
Ca22 N11 2.406825 1_555
Ca22 N8 2.425870 1_655
Ca22 N14 2.426088 1_555
Ca22 H13 2.668607 1_655
Ca22 H7 2.668750 1_545
Ca23 N11 2.406871 1_555
Ca23 N10 2.425652 1_565
Ca23 N8 2.425773 1_655
Ca23 H3 2.668730 1_565
Ca23 H8 2.668999 1_655
Ca24 N15 2.406736 1_555
Ca24 N13 2.425202 1_545
Ca24 N12 2.425589 1_455
Ca24 H10 2.668734 1_555
Ca24 H14 2.669240 1_555
Ca25 N15 2.407066 1_555
Ca25 N14 2.425693 1_555
Ca25 N12 2.426129 1_455
Ca25 H7 2.668536 1_555
Ca25 H11 2.668832 1_455
Ca26 N10 2.428217 1_565
Ca26 N8 2.428453 1_655
Ca26 N14 2.428651 1_555
Ca26 H13 2.663516 1_665
Ca26 H7 2.663606 1_555
Ca26 H12 2.663665 1_555
Ca27 N15 2.407113 1_555
Ca27 N14 2.425499 1_555
Ca27 N13 2.425959 1_545
Ca27 H12 2.668797 1_555
Ca27 H11 2.668931 1_545
Ca28 N16 2.420868 1_555
Ca28 N19 2.430887 1_555
Ca28 N17 2.433252 1_545
Ca28 H14 2.655251 1_555
Ca28 H10 2.659195 1_555
Ca28 H9 2.664818 1_455
Ca29 N15 2.406804 1_555
Ca29 N13 2.424748 1_555
Ca29 N16 2.426028 1_555
Ca29 H11 2.668427 1_455
Ca29 H14 2.669328 1_555
Ca30 N15 2.407088 1_555
Ca30 N13 2.425833 1_555
Ca30 N12 2.426062 1_555
Ca30 H7 2.668453 1_555
Ca30 H12 2.668705 1_555
Ca31 N15 2.406638 1_555
Ca31 N12 2.425473 1_555
Ca31 N16 2.425823 1_555
Ca31 H11 2.668068 1_545
Ca31 H10 2.668353 1_555
Ca32 N17 2.401935 1_545
Ca32 N19 2.425762 1_555
Ca32 N18 2.429896 1_555
Ca32 H0 2.663261 1_556
Ca32 H1 2.668627 1_556
Ca33 N18 2.402294 1_555
Ca33 N19 2.424024 1_555
Ca33 N16 2.433650 1_555
Ca33 H9 2.667369 1_465
Ca33 H10 2.672984 1_565
Ca34 N13 2.427635 1_555
Ca34 N12 2.428466 1_555
Ca34 N16 2.429001 1_555
Ca34 H11 2.663731 1_555
Ca34 H10 2.663867 1_565
Ca34 H14 2.664278 1_655
Ca35 N18 2.403941 1_555
Ca35 N16 2.425678 1_555
Ca35 N17 2.428880 1_545
Ca35 H14 2.664764 1_655
Ca35 H9 2.668759 1_555
Ca36 N17 2.404195 1_555
Ca36 N0 2.426054 1_556
Ca36 N18 2.427395 1_555
Ca36 H0 2.665613 1_566
Ca36 H9 2.668351 1_465
Ca37 N18 2.401728 1_555
Ca37 N19 2.426097 1_655
Ca37 N17 2.430974 1_555
Ca37 H14 2.662431 1_655
Ca37 H10 2.668555 1_565
Ca38 N0 2.421168 1_556
Ca38 N19 2.430508 1_655
Ca38 N18 2.431870 1_555
Ca38 H0 2.656691 1_656
Ca38 H1 2.659890 1_556
Ca38 H9 2.665229 1_555
Ca39 N17 2.402626 1_555
Ca39 N19 2.423725 1_655
Ca39 N0 2.433920 1_556
Ca39 H9 2.666340 1_565
Ca39 H1 2.672360 1_566
