# generated using pymatgen
data_K5In(MoO4)4
_symmetry_space_group_name_H-M   'P 1'
_cell_length_a   9.47207899
_cell_length_b   9.47207899
_cell_length_c   10.48445277
_cell_angle_alpha   71.91822717
_cell_angle_beta   71.91822717
_cell_angle_gamma   79.27526651
_symmetry_Int_Tables_number   1
_chemical_formula_structural   K5In(MoO4)4
_chemical_formula_sum   'K10 In2 Mo8 O32'
_cell_volume   845.84792582
_cell_formula_units_Z   2
loop_
 _symmetry_equiv_pos_site_id
 _symmetry_equiv_pos_as_xyz
  1  'x, y, z'
loop_
 _atom_site_type_symbol
 _atom_site_label
 _atom_site_symmetry_multiplicity
 _atom_site_fract_x
 _atom_site_fract_y
 _atom_site_fract_z
 _atom_site_occupancy
  K  K0  1  0.39072282  0.60958202  0.75320174  1
  K  K1  1  0.60958202  0.39072282  0.25320174  1
  K  K2  1  0.33625524  0.07728680  0.43167049  1
  K  K3  1  0.07728680  0.33625524  0.93167049  1
  K  K4  1  0.81981809  0.62049066  0.43799765  1
  K  K5  1  0.62049066  0.81981809  0.93799765  1
  K  K6  1  0.66218546  0.92348969  0.57413184  1
  K  K7  1  0.92348969  0.66218546  0.07413184  1
  K  K8  1  0.18163569  0.38054231  0.56712102  1
  K  K9  1  0.38054231  0.18163569  0.06712102  1
  In  In0  1  0.88516919  0.11520215  0.75278663  1
  In  In1  1  0.11520215  0.88516919  0.25278663  1
  Mo  Mo0  1  0.53065642  0.26372059  0.66118551  1
  Mo  Mo1  1  0.26372059  0.53065642  0.16118551  1
  Mo  Mo2  1  0.04528357  0.77910154  0.63750760  1
  Mo  Mo3  1  0.77910154  0.04528357  0.13750760  1
  Mo  Mo4  1  0.47047032  0.73727822  0.34327718  1
  Mo  Mo5  1  0.73727822  0.47047032  0.84327718  1
  Mo  Mo6  1  0.95554475  0.22079066  0.36896562  1
  Mo  Mo7  1  0.22079066  0.95554475  0.86896562  1
  O  O0  1  0.61646561  0.42795965  0.58200778  1
  O  O1  1  0.42795965  0.61646561  0.08200778  1
  O  O2  1  0.36388178  0.29785217  0.78707086  1
  O  O3  1  0.29785217  0.36388178  0.28707086  1
  O  O4  1  0.47814005  0.21323290  0.53624491  1
  O  O5  1  0.21323290  0.47814005  0.03624491  1
  O  O6  1  0.66344591  0.12177091  0.73727451  1
  O  O7  1  0.12177091  0.66344591  0.23727451  1
  O  O8  1  0.21407487  0.84523210  0.60415649  1
  O  O9  1  0.84523210  0.21407487  0.10415649  1
  O  O10  1  0.00691693  0.80413767  0.47323072  1
  O  O11  1  0.80413767  0.00691693  0.97323072  1
  O  O12  1  0.90093403  0.88670388  0.73707010  1
  O  O13  1  0.88670388  0.90093403  0.23707010  1
  O  O14  1  0.06221797  0.58933318  0.72333708  1
  O  O15  1  0.58933318  0.06221797  0.22333708  1
  O  O16  1  0.38563471  0.57241643  0.42164319  1
  O  O17  1  0.57241643  0.38563471  0.92164319  1
  O  O18  1  0.63752768  0.70432397  0.21715324  1
  O  O19  1  0.70432397  0.63752768  0.71715324  1
  O  O20  1  0.52196296  0.78746064  0.46889591  1
  O  O21  1  0.78746064  0.52196296  0.96889591  1
  O  O22  1  0.33719702  0.87884079  0.26760866  1
  O  O23  1  0.87884079  0.33719702  0.76760866  1
  O  O24  1  0.78653232  0.15461208  0.40339361  1
  O  O25  1  0.15461208  0.78653232  0.90339361  1
  O  O26  1  0.99545577  0.19534852  0.53265209  1
  O  O27  1  0.19534852  0.99545577  0.03265209  1
  O  O28  1  0.09965967  0.11335632  0.26914386  1
  O  O29  1  0.11335632  0.09965967  0.76914386  1
  O  O30  1  0.93861273  0.41058959  0.28335072  1
  O  O31  1  0.41058959  0.93861273  0.78335072  1
loop_
_geom_bond_atom_site_label_1
_geom_bond_atom_site_label_2
_geom_bond_distance
_geom_bond_site_symmetry_2
K0 O8 2.879530 1_555
K0 O25 2.889249 1_555
K0 O2 2.912360 1_555
K0 O19 2.927483 1_555
K0 O5 2.927714 1_556
K0 O20 2.937870 1_555
K0 O17 2.963599 1_555
K0 O0 2.986399 1_555
K0 O14 3.268214 1_555
K0 O31 3.273421 1_555
K1 O9 2.879530 1_555
K1 O24 2.889249 1_555
K1 O3 2.912360 1_555
K1 O18 2.927483 1_555
K1 O4 2.927714 1_555
K1 O21 2.937870 1_554
K1 O16 2.963599 1_555
K1 O1 2.986399 1_555
K1 O15 3.268214 1_555
K1 O30 3.273421 1_555
K2 O8 2.573179 1_545
K2 O4 2.664884 1_555
K2 O3 2.687032 1_555
K2 O15 2.711776 1_555
K2 O22 2.912620 1_545
K2 O20 2.957494 1_545
K2 O28 3.125188 1_555
K2 O26 3.172045 1_455
K3 O9 2.573179 1_456
K3 O5 2.664884 1_556
K3 O2 2.687032 1_555
K3 O14 2.711776 1_555
K3 O23 2.912620 1_455
K3 O21 2.957494 1_455
K3 O29 3.125188 1_555
K3 O27 3.172045 1_546
K4 O0 2.666165 1_555
K4 O30 2.807828 1_555
K4 O19 2.833530 1_555
K4 O13 2.867014 1_555
K4 O10 2.873281 1_655
K4 O20 2.942114 1_555
K4 O7 2.989971 1_655
K4 O18 3.131020 1_555
K5 O1 2.666165 1_556
K5 O31 2.807828 1_555
K5 O18 2.833530 1_556
K5 O12 2.867014 1_555
K5 O11 2.873281 1_565
K5 O21 2.942114 1_555
K5 O6 2.989971 1_565
K5 O19 3.131020 1_555
K6 O24 2.569549 1_565
K6 O20 2.659086 1_555
K6 O19 2.681888 1_555
K6 O31 2.708233 1_555
K6 O6 2.910047 1_565
K6 O4 2.949820 1_565
K6 O12 3.144717 1_555
K6 O10 3.206826 1_655
K7 O25 2.569549 1_654
K7 O21 2.659086 1_554
K7 O18 2.681888 1_555
K7 O30 2.708233 1_555
K7 O7 2.910047 1_655
K7 O5 2.949820 1_655
K7 O13 3.144717 1_555
K7 O11 3.206826 1_564
K8 O16 2.668346 1_555
K8 O14 2.810927 1_555
K8 O3 2.841550 1_555
K8 O26 2.873700 1_455
K8 O29 2.876644 1_555
K8 O4 2.932848 1_555
K8 O23 2.995526 1_455
K8 O2 3.123774 1_555
K9 O17 2.668346 1_554
K9 O15 2.810927 1_555
K9 O2 2.841550 1_554
K9 O27 2.873700 1_545
K9 O28 2.876644 1_555
K9 O5 2.932848 1_555
K9 O22 2.995526 1_545
K9 O3 3.123774 1_555
In0 O6 2.144339 1_555
In0 O23 2.144635 1_555
In0 O11 2.168693 1_555
In0 O26 2.169171 1_555
In0 O29 2.195167 1_655
In0 O12 2.195382 1_545
In1 O7 2.144339 1_555
In1 O22 2.144635 1_555
In1 O10 2.168693 1_555
In1 O27 2.169171 1_555
In1 O28 2.195167 1_565
In1 O13 2.195382 1_455
Mo0 O0 1.737823 1_555
Mo0 O4 1.753270 1_555
Mo0 O2 1.767066 1_555
Mo0 O6 1.831365 1_555
Mo1 O1 1.737823 1_555
Mo1 O5 1.753270 1_555
Mo1 O3 1.767066 1_555
Mo1 O7 1.831365 1_555
Mo2 O8 1.720626 1_555
Mo2 O14 1.744915 1_555
Mo2 O12 1.803809 1_455
Mo2 O10 1.804918 1_555
Mo3 O9 1.720626 1_555
Mo3 O15 1.744915 1_555
Mo3 O13 1.803809 1_545
Mo3 O11 1.804918 1_554
Mo4 O16 1.737839 1_555
Mo4 O20 1.752737 1_555
Mo4 O18 1.767330 1_555
Mo4 O22 1.830932 1_555
Mo5 O17 1.737839 1_555
Mo5 O21 1.752737 1_555
Mo5 O19 1.767330 1_555
Mo5 O23 1.830932 1_555
Mo6 O24 1.720593 1_555
Mo6 O30 1.744657 1_555
Mo6 O28 1.803211 1_655
Mo6 O26 1.805076 1_555
Mo7 O25 1.720593 1_555
Mo7 O31 1.744657 1_555
Mo7 O29 1.803211 1_565
Mo7 O27 1.805076 1_556
