# generated using pymatgen
data_YbMgGe
_symmetry_space_group_name_H-M   'P 1'
_cell_length_a   4.43347500
_cell_length_b   7.47782300
_cell_length_c   8.33072500
_cell_angle_alpha   90.00000000
_cell_angle_beta   90.00000000
_cell_angle_gamma   90.00000000
_symmetry_Int_Tables_number   1
_chemical_formula_structural   YbMgGe
_chemical_formula_sum   'Yb4 Mg4 Ge4'
_cell_volume   276.18637097
_cell_formula_units_Z   4
loop_
 _symmetry_equiv_pos_site_id
 _symmetry_equiv_pos_as_xyz
  1  'x, y, z'
loop_
 _atom_site_type_symbol
 _atom_site_label
 _atom_site_symmetry_multiplicity
 _atom_site_fract_x
 _atom_site_fract_y
 _atom_site_fract_z
 _atom_site_occupancy
  Yb  Yb0  1  0.75000000  0.97948500  0.68008200  1
  Yb  Yb1  1  0.25000000  0.02051500  0.31991800  1
  Yb  Yb2  1  0.75000000  0.47948500  0.81991800  1
  Yb  Yb3  1  0.25000000  0.52051500  0.18008200  1
  Mg  Mg0  1  0.75000000  0.85623100  0.06286100  1
  Mg  Mg1  1  0.25000000  0.14376900  0.93713900  1
  Mg  Mg2  1  0.75000000  0.35623100  0.43713900  1
  Mg  Mg3  1  0.25000000  0.64376900  0.56286100  1
  Ge  Ge0  1  0.75000000  0.73311600  0.38411800  1
  Ge  Ge1  1  0.25000000  0.26688400  0.61588200  1
  Ge  Ge2  1  0.75000000  0.23311600  0.11588200  1
  Ge  Ge3  1  0.25000000  0.76688400  0.88411800  1
loop_
_geom_bond_atom_site_label_1
_geom_bond_atom_site_label_2
_geom_bond_distance
_geom_bond_site_symmetry_2
Ge0 Mg3 2.752745 1_655
Ge0 Mg3 2.752745 1_555
Ge0 Mg0 2.830224 1_555
Ge0 Mg2 2.852683 1_555
Ge0 Yb0 3.077863 1_555
Ge0 Yb1 3.133478 1_565
Ge0 Yb1 3.133478 1_665
Ge0 Yb3 3.214121 1_655
Ge0 Yb3 3.214121 1_555
Ge1 Mg2 2.752745 1_455
Ge1 Mg2 2.752745 1_555
Ge1 Mg1 2.830224 1_555
Ge1 Mg3 2.852683 1_555
Ge1 Yb1 3.077863 1_555
Ge1 Yb0 3.133478 1_545
Ge1 Yb0 3.133478 1_445
Ge1 Yb2 3.214121 1_555
Ge1 Yb2 3.214121 1_455
Ge2 Mg1 2.752745 1_554
Ge2 Mg1 2.752745 1_654
Ge2 Mg2 2.830224 1_555
Ge2 Mg0 2.852683 1_545
Ge2 Yb2 3.077863 1_554
Ge2 Yb3 3.133478 1_555
Ge2 Yb3 3.133478 1_655
Ge2 Yb1 3.214121 1_655
Ge2 Yb1 3.214121 1_555
Ge3 Mg0 2.752745 1_456
Ge3 Mg0 2.752745 1_556
Ge3 Mg3 2.830224 1_555
Ge3 Mg1 2.852683 1_565
Ge3 Yb3 3.077863 1_556
Ge3 Yb2 3.133478 1_455
Ge3 Yb2 3.133478 1_555
Ge3 Yb0 3.214121 1_455
Ge3 Yb0 3.214121 1_555
