# generated using pymatgen
data_Sc2PbSe4
_symmetry_space_group_name_H-M   'P 1'
_cell_length_a   3.94300400
_cell_length_b   12.35381400
_cell_length_c   14.40348900
_cell_angle_alpha   90.00000000
_cell_angle_beta   90.00000000
_cell_angle_gamma   90.00000000
_symmetry_Int_Tables_number   1
_chemical_formula_structural   Sc2PbSe4
_chemical_formula_sum   'Sc8 Pb4 Se16'
_cell_volume   701.61034061
_cell_formula_units_Z   4
loop_
 _symmetry_equiv_pos_site_id
 _symmetry_equiv_pos_as_xyz
  1  'x, y, z'
loop_
 _atom_site_type_symbol
 _atom_site_label
 _atom_site_symmetry_multiplicity
 _atom_site_fract_x
 _atom_site_fract_y
 _atom_site_fract_z
 _atom_site_occupancy
  Sc  Sc0  1  0.75000000  0.05269500  0.11131000  1
  Sc  Sc1  1  0.25000000  0.94730500  0.88869000  1
  Sc  Sc2  1  0.75000000  0.55269500  0.38869000  1
  Sc  Sc3  1  0.25000000  0.44730500  0.61131000  1
  Sc  Sc4  1  0.75000000  0.08294200  0.59388600  1
  Sc  Sc5  1  0.25000000  0.91705800  0.40611400  1
  Sc  Sc6  1  0.75000000  0.58294200  0.90611400  1
  Sc  Sc7  1  0.25000000  0.41705800  0.09388600  1
  Pb  Pb0  1  0.75000000  0.74012600  0.17663700  1
  Pb  Pb1  1  0.25000000  0.25987400  0.82336300  1
  Pb  Pb2  1  0.75000000  0.24012600  0.32336300  1
  Pb  Pb3  1  0.25000000  0.75987400  0.67663700  1
  Se  Se0  1  0.75000000  0.29802600  0.65652200  1
  Se  Se1  1  0.25000000  0.70197400  0.34347800  1
  Se  Se2  1  0.75000000  0.79802600  0.84347800  1
  Se  Se3  1  0.25000000  0.20197400  0.15652200  1
  Se  Se4  1  0.75000000  0.37670800  0.96872100  1
  Se  Se5  1  0.25000000  0.62329200  0.03127900  1
  Se  Se6  1  0.75000000  0.87670800  0.53127900  1
  Se  Se7  1  0.25000000  0.12329200  0.46872100  1
  Se  Se8  1  0.75000000  0.96628900  0.28489900  1
  Se  Se9  1  0.25000000  0.03371100  0.71510100  1
  Se  Se10  1  0.75000000  0.46628900  0.21510100  1
  Se  Se11  1  0.25000000  0.53371100  0.78489900  1
  Se  Se12  1  0.75000000  0.09158500  0.92783800  1
  Se  Se13  1  0.25000000  0.90841500  0.07216200  1
  Se  Se14  1  0.75000000  0.59158500  0.57216200  1
  Se  Se15  1  0.25000000  0.40841500  0.42783800  1
loop_
_geom_bond_atom_site_label_1
_geom_bond_atom_site_label_2
_geom_bond_distance
_geom_bond_site_symmetry_2
Sc0 Se12 2.685955 1_554
Sc0 Se13 2.716937 1_645
Sc0 Se13 2.716937 1_545
Sc0 Se8 2.718616 1_545
Sc0 Se3 2.777020 1_655
Sc0 Se3 2.777020 1_555
Sc1 Se13 2.685955 1_556
Sc1 Se12 2.716937 1_565
Sc1 Se12 2.716937 1_465
Sc1 Se9 2.718616 1_565
Sc1 Se2 2.777020 1_455
Sc1 Se2 2.777020 1_555
Sc2 Se14 2.685955 1_555
Sc2 Se15 2.716937 1_655
Sc2 Se15 2.716937 1_555
Sc2 Se10 2.718616 1_555
Sc2 Se1 2.777020 1_655
Sc2 Se1 2.777020 1_555
Sc3 Se15 2.685955 1_555
Sc3 Se14 2.716937 1_555
Sc3 Se14 2.716937 1_455
Sc3 Se11 2.718616 1_555
Sc3 Se0 2.777020 1_555
Sc3 Se0 2.777020 1_455
Sc4 Se6 2.702653 1_545
Sc4 Se9 2.702767 1_555
Sc4 Se9 2.702767 1_655
Sc4 Se7 2.717615 1_655
Sc4 Se7 2.717615 1_555
Sc4 Se0 2.806091 1_555
Sc5 Se7 2.702653 1_565
Sc5 Se8 2.702767 1_555
Sc5 Se8 2.702767 1_455
Sc5 Se6 2.717615 1_555
Sc5 Se6 2.717615 1_455
Sc5 Se1 2.806091 1_555
Sc6 Se4 2.702653 1_555
Sc6 Se11 2.702767 1_555
Sc6 Se11 2.702767 1_655
Sc6 Se5 2.717615 1_656
Sc6 Se5 2.717615 1_556
Sc6 Se2 2.806091 1_555
Sc7 Se5 2.702653 1_555
Sc7 Se10 2.702767 1_455
Sc7 Se10 2.702767 1_555
Sc7 Se4 2.717615 1_554
Sc7 Se4 2.717615 1_454
Sc7 Se3 2.806091 1_555
Pb0 Se1 3.143854 1_555
Pb0 Se1 3.143854 1_655
Pb0 Se8 3.199668 1_555
Pb0 Se5 3.217684 1_655
Pb0 Se5 3.217684 1_555
Pb0 Se13 3.236285 1_655
Pb0 Se13 3.236285 1_555
Pb1 Se0 3.143854 1_455
Pb1 Se0 3.143854 1_555
Pb1 Se9 3.199668 1_555
Pb1 Se4 3.217684 1_455
Pb1 Se4 3.217684 1_555
Pb1 Se12 3.236285 1_555
Pb1 Se12 3.236285 1_455
Pb2 Se3 3.143854 1_655
Pb2 Se3 3.143854 1_555
Pb2 Se10 3.199668 1_555
Pb2 Se7 3.217684 1_655
Pb2 Se7 3.217684 1_555
Pb2 Se15 3.236285 1_655
Pb2 Se15 3.236285 1_555
Pb3 Se2 3.143854 1_555
Pb3 Se2 3.143854 1_455
Pb3 Se11 3.199668 1_555
Pb3 Se6 3.217684 1_555
Pb3 Se6 3.217684 1_455
Pb3 Se14 3.236285 1_455
Pb3 Se14 3.236285 1_555
