# generated using pymatgen
data_Sr2TiO4
_symmetry_space_group_name_H-M   'P 1'
_cell_length_a   3.89623570
_cell_length_b   3.89623532
_cell_length_c   6.87349342
_cell_angle_alpha   106.46470612
_cell_angle_beta   106.46470503
_cell_angle_gamma   90.00000292
_symmetry_Int_Tables_number   1
_chemical_formula_structural   Sr2TiO4
_chemical_formula_sum   'Sr2 Ti1 O4'
_cell_volume   95.59542788
_cell_formula_units_Z   1
loop_
 _symmetry_equiv_pos_site_id
 _symmetry_equiv_pos_as_xyz
  1  'x, y, z'
loop_
 _atom_site_type_symbol
 _atom_site_label
 _atom_site_symmetry_multiplicity
 _atom_site_fract_x
 _atom_site_fract_y
 _atom_site_fract_z
 _atom_site_occupancy
  Sr  Sr0  1  0.64535137  0.64535137  0.29070374  1
  Sr  Sr1  1  0.35464863  0.35464863  0.70929626  1
  Ti  Ti0  1  -0.00000000  0.00000000  -0.00000000  1
  O  O0  1  0.84198348  0.84198348  0.68396796  1
  O  O1  1  0.15801652  0.15801652  0.31603204  1
  O  O2  1  -0.00000000  0.50000000  -0.00000000  1
  O  O3  1  0.50000000  0.00000000  -0.00000000  1
loop_
_geom_bond_atom_site_label_1
_geom_bond_atom_site_label_2
_geom_bond_distance
_geom_bond_site_symmetry_2
O0 Ti0 1.990113 1_666
O0 Sr0 2.476459 1_555
O0 Sr1 2.759662 1_555
O0 Sr1 2.759668 1_565
O0 Sr1 2.759668 1_655
O0 Sr1 2.759673 1_665
O1 Ti0 1.990113 1_555
O1 Sr1 2.476459 1_555
O1 Sr0 2.759662 1_555
O1 Sr0 2.759668 1_545
O1 Sr0 2.759668 1_455
O1 Sr0 2.759673 1_445
O2 Ti0 1.948118 1_565
O2 Ti0 1.948118 1_555
O2 Sr0 2.673259 1_555
O2 Sr1 2.673259 1_454
O2 Sr0 2.673261 1_455
O2 Sr1 2.673261 1_554
O3 Ti0 1.948118 1_655
O3 Ti0 1.948118 1_555
O3 Sr1 2.673259 1_544
O3 Sr0 2.673259 1_555
O3 Sr1 2.673261 1_554
O3 Sr0 2.673261 1_545
