# generated using pymatgen
data_Na5Ca2Al(PO4)4
_symmetry_space_group_name_H-M   'P 1'
_cell_length_a   9.00807006
_cell_length_b   9.00807006
_cell_length_c   10.62144965
_cell_angle_alpha   72.24236189
_cell_angle_beta   72.24236189
_cell_angle_gamma   102.99813822
_symmetry_Int_Tables_number   1
_chemical_formula_structural   Na5Ca2Al(PO4)4
_chemical_formula_sum   'Na10 Ca4 Al2 P8 O32'
_cell_volume   732.10592617
_cell_formula_units_Z   2
loop_
 _symmetry_equiv_pos_site_id
 _symmetry_equiv_pos_as_xyz
  1  'x, y, z'
loop_
 _atom_site_type_symbol
 _atom_site_label
 _atom_site_symmetry_multiplicity
 _atom_site_fract_x
 _atom_site_fract_y
 _atom_site_fract_z
 _atom_site_occupancy
  Na  Na0  1  0.57928400  0.32061900  0.55729400  1
  Na  Na1  1  0.77227800  0.74389500  0.38216900  1
  Na  Na2  1  0.32061900  0.57928400  0.05729400  1
  Na  Na3  1  0.88721700  0.24252200  0.72487300  1
  Na  Na4  1  0.81563200  0.07358200  0.51320300  1
  Na  Na5  1  0.07358200  0.81563200  0.01320300  1
  Na  Na6  1  0.28112700  0.26878200  0.37064400  1
  Na  Na7  1  0.74389500  0.77227800  0.88216900  1
  Na  Na8  1  0.26878200  0.28112700  0.87064400  1
  Na  Na9  1  0.24252200  0.88721700  0.22487300  1
  Ca  Ca0  1  0.01443000  0.80002400  0.57118200  1
  Ca  Ca1  1  0.80002400  0.01443000  0.07118200  1
  Ca  Ca2  1  0.55140600  0.33144200  0.03003100  1
  Ca  Ca3  1  0.33144200  0.55140600  0.53003100  1
  Al  Al0  1  0.40813100  0.92625600  0.66695200  1
  Al  Al1  1  0.92625600  0.40813100  0.16695200  1
  P  P0  1  0.47212900  0.96808700  0.36895000  1
  P  P1  1  0.01445500  0.50271100  0.39519200  1
  P  P2  1  0.06815300  0.12927400  0.21580300  1
  P  P3  1  0.55444000  0.64319000  0.70963100  1
  P  P4  1  0.64319000  0.55444000  0.20963100  1
  P  P5  1  0.96808700  0.47212900  0.86895000  1
  P  P6  1  0.12927400  0.06815300  0.71580300  1
  P  P7  1  0.50271100  0.01445500  0.89519200  1
  O  O0  1  0.48063000  0.17490100  0.90646300  1
  O  O1  1  0.20167900  0.91975000  0.73847100  1
  O  O2  1  0.27431600  0.23344400  0.61411400  1
  O  O3  1  0.60740800  0.89785900  0.31393800  1
  O  O4  1  0.17490100  0.48063000  0.40646300  1
  O  O5  1  0.03779300  0.53430500  0.23139500  1
  O  O6  1  0.56721200  0.53165800  0.36773700  1
  O  O7  1  0.04588100  0.51027700  0.97695900  1
  O  O8  1  0.45920600  0.09949500  0.24474600  1
  O  O9  1  0.50985300  0.51293100  0.15079000  1
  O  O10  1  0.66109500  0.99357500  0.91499600  1
  O  O11  1  0.73010200  0.77695700  0.61265600  1
  O  O12  1  0.23344400  0.27431600  0.11411400  1
  O  O13  1  0.72794500  0.41869300  0.20504600  1
  O  O14  1  0.99898600  0.02410800  0.65368800  1
  O  O15  1  0.53165800  0.56721200  0.86773700  1
  O  O16  1  0.02410800  0.99898600  0.15368800  1
  O  O17  1  0.77695700  0.73010200  0.11265600  1
  O  O18  1  0.51027700  0.04588100  0.47695900  1
  O  O19  1  0.29988400  0.82272900  0.45884100  1
  O  O20  1  0.06669200  0.04368100  0.36630100  1
  O  O21  1  0.89785900  0.60740800  0.81393800  1
  O  O22  1  0.82272900  0.29988400  0.95884100  1
  O  O23  1  0.99357500  0.66109500  0.41499600  1
  O  O24  1  0.91975000  0.20167900  0.23847100  1
  O  O25  1  0.41869300  0.72794500  0.70504600  1
  O  O26  1  0.34605200  0.86002200  0.99917400  1
  O  O27  1  0.04368100  0.06669200  0.86630100  1
  O  O28  1  0.86002200  0.34605200  0.49917400  1
  O  O29  1  0.09949500  0.45920600  0.74474600  1
  O  O30  1  0.53430500  0.03779300  0.73139500  1
  O  O31  1  0.51293100  0.50985300  0.65079000  1
loop_
_geom_bond_atom_site_label_1
_geom_bond_atom_site_label_2
_geom_bond_distance
_geom_bond_site_symmetry_2
Na0 O31 2.319064 1_555
Na0 O28 2.351548 1_555
Na0 O6 2.360364 1_555
Na0 O2 2.501401 1_555
Na0 O30 2.505877 1_555
Na0 O18 2.856403 1_555
Na1 O23 2.363463 1_555
Na1 O3 2.371594 1_555
Na1 O6 2.419461 1_555
Na1 O11 2.480840 1_555
Na1 O16 2.685362 1_655
Na1 O31 2.844727 1_555
Na1 O17 2.890937 1_555
Na2 O9 2.319064 1_555
Na2 O26 2.351548 1_554
Na2 O15 2.360364 1_554
Na2 O12 2.501401 1_555
Na2 O5 2.505877 1_555
Na2 O7 2.856403 1_554
Na3 O28 2.402881 1_555
Na3 O10 2.435103 1_545
Na3 O29 2.515864 1_655
Na3 O14 2.605863 1_555
Na3 O22 2.611092 1_555
Na3 O27 2.756104 1_655
Na4 O28 2.346357 1_555
Na4 O11 2.388496 1_545
Na4 O20 2.449430 1_655
Na4 O24 2.552648 1_555
Na4 O14 2.565531 1_555
Na4 O30 2.737026 1_555
Na4 O18 2.858730 1_555
Na5 O26 2.346357 1_554
Na5 O17 2.388496 1_455
Na5 O27 2.449430 1_564
Na5 O1 2.552648 1_554
Na5 O16 2.565531 1_555
Na5 O5 2.737026 1_555
Na5 O7 2.858730 1_554
Na6 O4 2.396746 1_555
Na6 O2 2.486929 1_555
Na6 O20 2.488878 1_555
Na6 O9 2.535584 1_555
Na6 O8 2.778980 1_555
Na6 O12 2.872587 1_555
Na7 O10 2.363463 1_555
Na7 O21 2.371594 1_555
Na7 O15 2.419461 1_555
Na7 O17 2.480840 1_556
Na7 O14 2.685362 1_565
Na7 O9 2.844727 1_556
Na7 O11 2.890937 1_555
Na8 O0 2.396746 1_555
Na8 O12 2.486929 1_556
Na8 O27 2.488878 1_555
Na8 O31 2.535584 1_555
Na8 O29 2.778980 1_555
Na8 O2 2.872587 1_555
Na9 O26 2.402881 1_554
Na9 O23 2.435103 1_455
Na9 O8 2.515864 1_565
Na9 O16 2.605863 1_555
Na9 O19 2.611092 1_555
Na9 O20 2.756104 1_565
Ca0 O21 2.358258 1_455
Ca0 O23 2.388358 1_455
Ca0 O20 2.402386 1_565
Ca0 O11 2.411173 1_455
Ca0 O19 2.412600 1_555
Ca0 O14 2.448039 1_465
Ca1 O3 2.358258 1_545
Ca1 O10 2.388358 1_544
Ca1 O27 2.402386 1_654
Ca1 O17 2.411173 1_545
Ca1 O22 2.412600 1_554
Ca1 O16 2.448039 1_645
Ca2 O0 2.313537 1_554
Ca2 O8 2.326767 1_555
Ca2 O15 2.374366 1_554
Ca2 O9 2.391562 1_555
Ca2 O22 2.437732 1_554
Ca2 O12 2.600480 1_555
Ca3 O4 2.313537 1_555
Ca3 O29 2.326767 1_555
Ca3 O6 2.374366 1_555
Ca3 O31 2.391562 1_555
Ca3 O19 2.437732 1_555
Ca3 O2 2.600480 1_555
Al0 O25 1.738686 1_555
Al0 O1 1.761014 1_555
Al0 O30 1.774870 1_565
Al0 O18 1.781870 1_565
Al1 O13 1.738686 1_555
Al1 O24 1.761014 1_555
Al1 O5 1.774870 1_655
Al1 O7 1.781870 1_654
O0 P7 1.537254 1_555
O1 P6 1.600672 1_565
O2 P6 1.540699 1_555
O3 P0 1.537708 1_555
O4 P1 1.537254 1_555
O5 P1 1.612428 1_555
O6 P4 1.534977 1_555
O7 P5 1.596183 1_455
O8 P0 1.535657 1_545
O9 P4 1.539962 1_555
O10 P7 1.547526 1_565
O11 P3 1.551719 1_555
O12 P2 1.540699 1_555
O13 P4 1.585613 1_555
O14 P6 1.546819 1_655
O15 P3 1.534977 1_555
O16 P2 1.546819 1_565
O17 P4 1.551719 1_555
O18 P0 1.596183 1_545
O19 P0 1.566337 1_555
O20 P2 1.542947 1_555
O21 P5 1.537708 1_555
O22 P5 1.566337 1_555
O23 P1 1.547526 1_655
O24 P2 1.600672 1_655
O25 P3 1.585613 1_555
O26 P7 1.541273 1_565
O27 P6 1.542947 1_555
O28 P1 1.541273 1_655
O29 P5 1.535657 1_455
O30 P7 1.612428 1_555
O31 P3 1.539962 1_555
