# generated using pymatgen
data_Tl4SnSe3
_symmetry_space_group_name_H-M   'P 1'
_cell_length_a   8.68089000
_cell_length_b   8.69016400
_cell_length_c   26.80623249
_cell_angle_alpha   89.91501033
_cell_angle_beta   90.00000000
_cell_angle_gamma   90.00000000
_symmetry_Int_Tables_number   1
_chemical_formula_structural   Tl4SnSe3
_chemical_formula_sum   'Tl32 Sn8 Se24'
_cell_volume   2022.21593226
_cell_formula_units_Z   8
loop_
 _symmetry_equiv_pos_site_id
 _symmetry_equiv_pos_as_xyz
  1  'x, y, z'
loop_
 _atom_site_type_symbol
 _atom_site_label
 _atom_site_symmetry_multiplicity
 _atom_site_fract_x
 _atom_site_fract_y
 _atom_site_fract_z
 _atom_site_occupancy
  Tl  Tl0  1  0.07390700  0.13442800  0.06827200  1
  Tl  Tl1  1  0.08333400  0.37405000  0.32359400  1
  Tl  Tl2  1  0.08607800  0.11602400  0.57455900  1
  Tl  Tl3  1  0.08079900  0.37963500  0.82638900  1
  Tl  Tl4  1  0.12728800  0.41724000  0.17467700  1
  Tl  Tl5  1  0.11909700  0.40996200  0.67889200  1
  Tl  Tl6  1  0.12555900  0.07612300  0.92549400  1
  Tl  Tl7  1  0.12135600  0.08124200  0.42326300  1
  Tl  Tl8  1  0.25779200  0.74556800  0.02832700  1
  Tl  Tl9  1  0.37138300  0.42269800  0.92433900  1
  Tl  Tl10  1  0.37306700  0.08758600  0.17274400  1
  Tl  Tl11  1  0.37994100  0.41072500  0.42706100  1
  Tl  Tl12  1  0.37146700  0.07864800  0.67351400  1
  Tl  Tl13  1  0.41448000  0.11489000  0.32449800  1
  Tl  Tl14  1  0.40921800  0.11448100  0.82507100  1
  Tl  Tl15  1  0.41318700  0.37520900  0.57485100  1
  Tl  Tl16  1  0.58079900  0.62036500  0.17361100  1
  Tl  Tl17  1  0.57390700  0.86557200  0.93172800  1
  Tl  Tl18  1  0.58333400  0.62595000  0.67640600  1
  Tl  Tl19  1  0.58607800  0.88397600  0.42544100  1
  Tl  Tl20  1  0.62555900  0.92387700  0.07450600  1
  Tl  Tl21  1  0.62135600  0.91875800  0.57673700  1
  Tl  Tl22  1  0.62728800  0.58276000  0.82532300  1
  Tl  Tl23  1  0.61909700  0.59003800  0.32110800  1
  Tl  Tl24  1  0.75779200  0.25443200  0.97167300  1
  Tl  Tl25  1  0.87138300  0.57730200  0.07566100  1
  Tl  Tl26  1  0.87994100  0.58927500  0.57293900  1
  Tl  Tl27  1  0.87306700  0.91241400  0.82725600  1
  Tl  Tl28  1  0.87146700  0.92135200  0.32648600  1
  Tl  Tl29  1  0.90921800  0.88551900  0.17492900  1
  Tl  Tl30  1  0.91448000  0.88511000  0.67550200  1
  Tl  Tl31  1  0.91318700  0.62479100  0.42514900  1
  Sn  Sn0  1  0.26722500  0.75646800  0.50583600  1
  Sn  Sn1  1  0.22774200  0.75882300  0.25682100  1
  Sn  Sn2  1  0.23231400  0.75545900  0.75738300  1
  Sn  Sn3  1  0.45542600  0.35031900  0.06760400  1
  Sn  Sn4  1  0.73231400  0.24454100  0.24261700  1
  Sn  Sn5  1  0.76722500  0.24353200  0.49416400  1
  Sn  Sn6  1  0.72774200  0.24117700  0.74317900  1
  Sn  Sn7  1  0.95542600  0.64968100  0.93239600  1
  Se  Se0  1  0.08503300  0.43280900  0.99560600  1
  Se  Se1  1  0.05970100  0.39468400  0.49730300  1
  Se  Se2  1  0.10203000  0.06080900  0.25248500  1
  Se  Se3  1  0.10362000  0.05776300  0.75435300  1
  Se  Se4  1  0.24377200  0.74036900  0.40391500  1
  Se  Se5  1  0.23214700  0.74823600  0.89792400  1
  Se  Se6  1  0.25331500  0.74465400  0.15454200  1
  Se  Se7  1  0.25282100  0.73838900  0.65402200  1
  Se  Se8  1  0.40811300  0.10575000  0.00248600  1
  Se  Se9  1  0.43761400  0.39243800  0.24623000  1
  Se  Se10  1  0.39300100  0.06097900  0.50211900  1
  Se  Se11  1  0.43817400  0.39365400  0.74880400  1
  Se  Se12  1  0.60362000  0.94223700  0.24564700  1
  Se  Se13  1  0.58503300  0.56719100  0.00439400  1
  Se  Se14  1  0.60203000  0.93919100  0.74751500  1
  Se  Se15  1  0.55970100  0.60531600  0.50269700  1
  Se  Se16  1  0.73214700  0.25176400  0.10207600  1
  Se  Se17  1  0.74377200  0.25963100  0.59608500  1
  Se  Se18  1  0.75282100  0.26161100  0.34597800  1
  Se  Se19  1  0.75331500  0.25534600  0.84545800  1
  Se  Se20  1  0.90811300  0.89425000  0.99751400  1
  Se  Se21  1  0.89300100  0.93902100  0.49788100  1
  Se  Se22  1  0.93817400  0.60634600  0.25119600  1
  Se  Se23  1  0.93761400  0.60756200  0.75377000  1
loop_
_geom_bond_atom_site_label_1
_geom_bond_atom_site_label_2
_geom_bond_distance
_geom_bond_site_symmetry_2
Se0 Sn7 2.771167 1_455
Se0 Tl25 3.103177 1_456
Se0 Tl9 3.136385 1_555
Se0 Tl8 3.226865 1_556
Se0 Tl0 3.242254 1_556
Se0 Tl24 3.299584 1_455
Se1 Sn5 2.859906 1_455
Se1 Tl31 3.057106 1_455
Se1 Tl26 3.068494 1_455
Se1 Tl2 3.192257 1_555
Se1 Tl11 3.360398 1_555
Se1 Tl7 3.414834 1_555
Se2 Sn1 2.844383 1_545
Se2 Tl28 3.066361 1_445
Se2 Tl29 3.074662 1_445
Se2 Tl10 3.187112 1_555
Se2 Tl1 3.329431 1_555
Se2 Tl13 3.362560 1_555
Se3 Sn2 2.855793 1_545
Se3 Tl27 3.068037 1_445
Se3 Tl30 3.069874 1_445
Se3 Tl12 3.183385 1_555
Se3 Tl14 3.298031 1_555
Se3 Tl3 3.407047 1_555
Se4 Sn0 2.743470 1_555
Se4 Tl31 3.093007 1_455
Se4 Tl11 3.159629 1_555
Se4 Tl7 3.190254 1_565
Se4 Tl19 3.274517 1_555
Se5 Sn7 2.712114 1_455
Se5 Tl6 3.086683 1_565
Se5 Tl9 3.155868 1_555
Se5 Tl17 3.265789 1_555
Se6 Sn1 2.753624 1_555
Se6 Tl16 3.083515 1_555
Se6 Tl4 3.095042 1_555
Se6 Tl10 3.194412 1_565
Se6 Tl29 3.274407 1_455
Se6 Tl8 3.383569 1_555
Se7 Sn2 2.780611 1_555
Se7 Tl18 3.089507 1_555
Se7 Tl5 3.151533 1_555
Se7 Tl12 3.175169 1_565
Se7 Tl30 3.253611 1_455
Se8 Sn3 2.782768 1_555
Se8 Tl20 3.127177 1_545
Se8 Tl17 3.168151 1_544
Se8 Tl6 3.216167 1_554
Se8 Tl24 3.400432 1_554
Se9 Sn4 2.864664 1_555
Se9 Tl16 3.040760 1_555
Se9 Tl23 3.077296 1_555
Se9 Tl13 3.200728 1_555
Se9 Tl4 3.313810 1_555
Se9 Tl10 3.350853 1_555
Se10 Sn0 2.864248 1_545
Se10 Tl19 3.067492 1_545
Se10 Tl21 3.074198 1_545
Se10 Tl7 3.171580 1_555
Se10 Tl2 3.331842 1_555
Se10 Tl15 3.362216 1_555
Se11 Sn6 2.845666 1_555
Se11 Tl18 3.068839 1_555
Se11 Tl22 3.100502 1_555
Se11 Tl14 3.180241 1_555
Se11 Tl5 3.347186 1_555
Se12 Sn4 2.855793 1_565
Se12 Tl10 3.068037 1_565
Se12 Tl13 3.069874 1_565
Se12 Tl28 3.183385 1_555
Se12 Tl29 3.298031 1_555
Se12 Tl16 3.407047 1_555
Se13 Sn3 2.771167 1_555
Se13 Tl9 3.103177 1_554
Se13 Tl25 3.136385 1_555
Se13 Tl24 3.226865 1_554
Se13 Tl17 3.242254 1_554
Se13 Tl8 3.299584 1_555
Se14 Sn6 2.844383 1_565
Se14 Tl12 3.066361 1_565
Se14 Tl14 3.074662 1_565
Se14 Tl27 3.187112 1_555
Se14 Tl18 3.329431 1_555
Se14 Tl30 3.362560 1_555
Se15 Sn0 2.859906 1_555
Se15 Tl15 3.057106 1_555
Se15 Tl11 3.068494 1_555
Se15 Tl19 3.192257 1_555
Se15 Tl26 3.360398 1_555
Se15 Tl21 3.414834 1_555
Se16 Sn3 2.712114 1_555
Se16 Tl20 3.086683 1_545
Se16 Tl25 3.155868 1_555
Se16 Tl0 3.265789 1_655
Se17 Sn5 2.743470 1_555
Se17 Tl15 3.093007 1_555
Se17 Tl26 3.159629 1_555
Se17 Tl21 3.190254 1_545
Se17 Tl2 3.274517 1_655
Se18 Sn4 2.780611 1_555
Se18 Tl1 3.089507 1_655
Se18 Tl23 3.151533 1_555
Se18 Tl28 3.175169 1_545
Se18 Tl13 3.253611 1_555
Se19 Sn6 2.753624 1_555
Se19 Tl3 3.083515 1_655
Se19 Tl22 3.095042 1_555
Se19 Tl27 3.194412 1_545
Se19 Tl14 3.274407 1_555
Se19 Tl24 3.383569 1_555
Se20 Sn7 2.782768 1_555
Se20 Tl6 3.127177 1_665
Se20 Tl0 3.168151 1_666
Se20 Tl20 3.216167 1_556
Se20 Tl8 3.400432 1_656
Se21 Sn5 2.864248 1_565
Se21 Tl2 3.067492 1_665
Se21 Tl7 3.074198 1_665
Se21 Tl21 3.171580 1_555
Se21 Tl19 3.331842 1_555
Se21 Tl31 3.362216 1_555
Se22 Sn1 2.845666 1_655
Se22 Tl1 3.068839 1_655
Se22 Tl4 3.100502 1_655
Se22 Tl29 3.180241 1_555
Se22 Tl23 3.347186 1_555
Se23 Sn2 2.864664 1_655
Se23 Tl3 3.040760 1_655
Se23 Tl5 3.077296 1_655
Se23 Tl30 3.200728 1_555
Se23 Tl22 3.313810 1_555
Se23 Tl27 3.350853 1_555
