# generated using pymatgen
data_InSi2P(H3C)8
_symmetry_space_group_name_H-M   'P 1'
_cell_length_a   9.47754600
_cell_length_b   9.87539798
_cell_length_c   9.98140270
_cell_angle_alpha   77.08513646
_cell_angle_beta   80.69988842
_cell_angle_gamma   64.48456149
_symmetry_Int_Tables_number   1
_chemical_formula_structural   InSi2P(H3C)8
_chemical_formula_sum   'In2 Si4 P2 H48 C16'
_cell_volume   819.49404523
_cell_formula_units_Z   2
loop_
 _symmetry_equiv_pos_site_id
 _symmetry_equiv_pos_as_xyz
  1  'x, y, z'
loop_
 _atom_site_type_symbol
 _atom_site_label
 _atom_site_symmetry_multiplicity
 _atom_site_fract_x
 _atom_site_fract_y
 _atom_site_fract_z
 _atom_site_occupancy
  In  In0  1  0.46152100  0.35263100  0.42758700  1
  In  In1  1  0.53847900  0.64736900  0.57241300  1
  Si  Si0  1  0.74963300  0.18998900  0.74072400  1
  Si  Si1  1  0.25036700  0.81001100  0.25927600  1
  Si  Si2  1  0.32291400  0.37182800  0.83585500  1
  Si  Si3  1  0.67708600  0.62817200  0.16414500  1
  P  P0  1  0.48222100  0.61966100  0.32781200  1
  P  P1  1  0.51777900  0.38033900  0.67218800  1
  H  H0  1  0.91670600  0.29874300  0.57423400  1
  H  H1  1  0.86705300  0.52486800  0.53078800  1
  H  H2  1  0.23440400  0.85043300  0.64983700  1
  H  H3  1  0.20835700  0.27368800  0.48417400  1
  H  H4  1  0.72916500  0.21722200  0.98999800  1
  H  H5  1  0.08329400  0.70125700  0.42576600  1
  H  H6  1  0.76559600  0.14956700  0.35016300  1
  H  H7  1  0.36651300  0.10082200  0.84256600  1
  H  H8  1  0.63348700  0.89917800  0.15743400  1
  H  H9  1  0.27083500  0.78277800  0.01000200  1
  H  H10  1  0.79164300  0.72631200  0.51582600  1
  H  H11  1  0.64937500  0.99268900  0.86180900  1
  H  H12  1  0.41513900  0.42912300  0.03112900  1
  H  H13  1  0.23024700  0.22691700  0.72060500  1
  H  H14  1  0.82773200  0.34570000  0.18268400  1
  H  H15  1  0.12243000  0.82897600  0.49867400  1
  H  H16  1  0.51736700  0.77073400  0.95976500  1
  H  H17  1  0.82931200  0.78755400  0.10042800  1
  H  H18  1  0.92664900  0.12907600  0.92326900  1
  H  H19  1  0.82092900  0.32957800  0.88065200  1
  H  H20  1  0.64220100  0.05045400  0.41069800  1
  H  H21  1  0.70401900  0.97773200  0.68490700  1
  H  H22  1  0.37141300  0.84073200  0.75861900  1
  H  H23  1  0.80538100  0.61030800  0.68165100  1
  H  H24  1  0.71522300  0.66163800  0.90909800  1
  H  H25  1  0.28477700  0.33836200  0.09090200  1
  H  H26  1  0.14942000  0.09178800  0.19615900  1
  H  H27  1  0.07335100  0.87092400  0.07673100  1
  H  H28  1  0.95002800  0.44456400  0.11824500  1
  H  H29  1  0.04997200  0.55543600  0.88175500  1
  H  H30  1  0.29598100  0.02226800  0.31509300  1
  H  H31  1  0.17068800  0.21244600  0.89957200  1
  H  H32  1  0.01808800  0.09932300  0.62633200  1
  H  H33  1  0.17226800  0.65430000  0.81731600  1
  H  H34  1  0.35779900  0.94954600  0.58930200  1
  H  H35  1  0.13294700  0.47513200  0.46921200  1
  H  H36  1  0.98191200  0.90067700  0.37366800  1
  H  H37  1  0.17907100  0.67042200  0.11934800  1
  H  H38  1  0.89446200  0.41661500  0.29740500  1
  H  H39  1  0.62858700  0.15926800  0.24138100  1
  H  H40  1  0.19461900  0.38969200  0.31834900  1
  H  H41  1  0.85058000  0.90821200  0.80384100  1
  H  H42  1  0.10553800  0.58338500  0.70259500  1
  H  H43  1  0.76975300  0.77308300  0.27939500  1
  H  H44  1  0.35062500  0.00731100  0.13819100  1
  H  H45  1  0.58486100  0.57087700  0.96887100  1
  H  H46  1  0.87757000  0.17102400  0.50132600  1
  H  H47  1  0.48263300  0.22926600  0.04023500  1
  C  C0  1  0.85313000  0.44078500  0.19445100  1
  C  C1  1  0.35190100  0.84508900  0.65198500  1
  C  C2  1  0.64809900  0.15491100  0.34801500  1
  C  C3  1  0.81059200  0.22016800  0.89885200  1
  C  C4  1  0.22013000  0.37689300  0.42510800  1
  C  C5  1  0.18940800  0.77983200  0.10114800  1
  C  C6  1  0.09592600  0.80960100  0.40345600  1
  C  C7  1  0.90407400  0.19039900  0.59654400  1
  C  C8  1  0.73179600  0.78692500  0.17707200  1
  C  C9  1  0.77987000  0.62310700  0.57489200  1
  C  C10  1  0.26820400  0.21307500  0.82292800  1
  C  C11  1  0.61688500  0.66046500  0.98447000  1
  C  C12  1  0.73602900  0.00003600  0.77621100  1
  C  C13  1  0.14687000  0.55921500  0.80554900  1
  C  C14  1  0.38311500  0.33953500  0.01553000  1
  C  C15  1  0.26397100  0.99996400  0.22378900  1
loop_
_geom_bond_atom_site_label_1
_geom_bond_atom_site_label_2
_geom_bond_distance
_geom_bond_site_symmetry_2
In0 P1 2.676742 1_555
In0 P0 2.681945 1_555
In1 P0 2.676742 1_555
In1 P1 2.681945 1_555
P0 Si1 2.276533 1_555
P0 Si3 2.276803 1_555
P1 Si0 2.276533 1_555
P1 Si2 2.276803 1_555
C0 H38 1.098339 1_555
C0 H14 1.098464 1_555
C0 H28 1.102001 1_555
C0 Si3 1.884855 1_555
C1 H2 1.095397 1_555
C1 H22 1.097814 1_555
C1 H34 1.099344 1_555
C1 In1 2.198851 1_555
C2 H6 1.095397 1_555
C2 H39 1.097814 1_555
C2 H20 1.099344 1_555
C2 In0 2.198851 1_555
C3 H4 1.097575 1_555
C3 H19 1.098959 1_555
C3 H18 1.102129 1_555
C3 Si0 1.888676 1_555
C4 H35 1.095657 1_555
C4 H40 1.098493 1_555
C4 H3 1.098588 1_555
C4 In0 2.198962 1_555
C5 H9 1.097575 1_555
C5 H37 1.098959 1_555
C5 H27 1.102129 1_555
C5 Si1 1.888676 1_555
C6 H15 1.096741 1_555
C6 H5 1.097236 1_555
C6 H36 1.100910 1_455
C6 Si1 1.880220 1_555
C7 H46 1.096741 1_555
C7 H0 1.097236 1_555
C7 H32 1.100910 1_655
C7 Si0 1.880220 1_555
C8 H43 1.097810 1_555
C8 H8 1.098857 1_555
C8 H17 1.101705 1_555
C8 Si3 1.885661 1_555
C9 H1 1.095657 1_555
C9 H23 1.098493 1_555
C9 H10 1.098588 1_555
C9 In1 2.198962 1_555
C10 H13 1.097810 1_555
C10 H7 1.098857 1_555
C10 H31 1.101705 1_555
C10 Si2 1.885661 1_555
C11 H16 1.098417 1_555
C11 H45 1.098756 1_555
C11 H24 1.101602 1_555
C11 Si3 1.887290 1_556
C12 H11 1.098434 1_545
C12 H21 1.098979 1_545
C12 H41 1.101750 1_545
C12 Si0 1.886143 1_555
C13 H42 1.098339 1_555
C13 H33 1.098464 1_555
C13 H29 1.102001 1_555
C13 Si2 1.884855 1_555
C14 H47 1.098417 1_555
C14 H12 1.098756 1_555
C14 H25 1.101602 1_555
C14 Si2 1.887290 1_554
C15 H44 1.098434 1_565
C15 H30 1.098979 1_565
C15 H26 1.101750 1_565
C15 Si1 1.886143 1_555
