# generated using pymatgen
data_NaB(CN)4
_symmetry_space_group_name_H-M   'P 1'
_cell_length_a   8.39837937
_cell_length_b   8.39837937
_cell_length_c   8.39837937
_cell_angle_alpha   60.00000000
_cell_angle_beta   60.00000000
_cell_angle_gamma   60.00000000
_symmetry_Int_Tables_number   1
_chemical_formula_structural   NaB(CN)4
_chemical_formula_sum   'Na2 B2 C8 N8'
_cell_volume   418.86248721
_cell_formula_units_Z   2
loop_
 _symmetry_equiv_pos_site_id
 _symmetry_equiv_pos_as_xyz
  1  'x, y, z'
loop_
 _atom_site_type_symbol
 _atom_site_label
 _atom_site_symmetry_multiplicity
 _atom_site_fract_x
 _atom_site_fract_y
 _atom_site_fract_z
 _atom_site_occupancy
  Na  Na0  1  0.25000000  0.25000000  0.25000000  1
  Na  Na1  1  0.00000000  0.00000000  0.00000000  1
  B  B0  1  0.50000000  0.50000000  0.50000000  1
  B  B1  1  0.75000000  0.75000000  0.75000000  1
  C  C0  1  0.73160900  0.42279700  0.42279700  1
  C  C1  1  0.51839100  0.82720300  0.82720300  1
  C  C2  1  0.82720300  0.82720300  0.51839100  1
  C  C3  1  0.82720300  0.51839100  0.82720300  1
  C  C4  1  0.42279700  0.42279700  0.73160900  1
  C  C5  1  0.82720300  0.82720300  0.82720300  1
  C  C6  1  0.42279700  0.42279700  0.42279700  1
  C  C7  1  0.42279700  0.73160900  0.42279700  1
  N  N0  1  0.88376700  0.88376700  0.34870000  1
  N  N1  1  0.88376700  0.88376700  0.88376700  1
  N  N2  1  0.36623300  0.90130000  0.36623300  1
  N  N3  1  0.36623300  0.36623300  0.36623300  1
  N  N4  1  0.88376700  0.34870000  0.88376700  1
  N  N5  1  0.90130000  0.36623300  0.36623300  1
  N  N6  1  0.36623300  0.36623300  0.90130000  1
  N  N7  1  0.34870000  0.88376700  0.88376700  1
loop_
_geom_bond_atom_site_label_1
_geom_bond_atom_site_label_2
_geom_bond_distance
_geom_bond_site_symmetry_2
B0 C4 1.588200 1_555
B0 C0 1.588200 1_555
B0 C7 1.588200 1_555
B0 C6 1.588200 1_555
B1 C5 1.588200 1_555
B1 C1 1.588200 1_555
B1 C3 1.588200 1_555
B1 C2 1.588200 1_555
C0 N5 1.163613 1_555
C1 N7 1.163613 1_555
C2 N0 1.163613 1_555
C3 N4 1.163613 1_555
C4 N6 1.163613 1_555
C5 N1 1.163620 1_555
C6 N3 1.163620 1_555
C7 N2 1.163613 1_555
N0 Na1 2.391122 1_665
N1 Na1 2.391116 1_666
N2 Na0 2.391122 1_565
N3 Na0 2.391116 1_555
N4 Na1 2.391122 1_656
N5 Na0 2.391122 1_655
N6 Na0 2.391122 1_556
N7 Na1 2.391122 1_566
