# generated using pymatgen
data_Rb2Tb3AlF16
_symmetry_space_group_name_H-M   'P 1'
_cell_length_a   7.81081370
_cell_length_b   7.81081370
_cell_length_c   12.76574600
_cell_angle_alpha   90.00000000
_cell_angle_beta   90.00000000
_cell_angle_gamma   119.99999745
_symmetry_Int_Tables_number   1
_chemical_formula_structural   Rb2Tb3AlF16
_chemical_formula_sum   'Rb4 Tb6 Al2 F32'
_cell_volume   674.48050334
_cell_formula_units_Z   2
loop_
 _symmetry_equiv_pos_site_id
 _symmetry_equiv_pos_as_xyz
  1  'x, y, z'
loop_
 _atom_site_type_symbol
 _atom_site_label
 _atom_site_symmetry_multiplicity
 _atom_site_fract_x
 _atom_site_fract_y
 _atom_site_fract_z
 _atom_site_occupancy
  Rb  Rb0  1  0.33333300  0.66666700  0.43579200  1
  Rb  Rb1  1  0.66666700  0.33333300  0.56420800  1
  Rb  Rb2  1  0.66666700  0.33333300  0.93579200  1
  Rb  Rb3  1  0.33333300  0.66666700  0.06420800  1
  Tb  Tb0  1  0.16718000  0.83282000  0.75000000  1
  Tb  Tb1  1  0.83282000  0.16718000  0.25000000  1
  Tb  Tb2  1  0.16718000  0.33435900  0.75000000  1
  Tb  Tb3  1  0.33435900  0.16718000  0.25000000  1
  Tb  Tb4  1  0.66564100  0.83282000  0.75000000  1
  Tb  Tb5  1  0.83282000  0.66564100  0.25000000  1
  Al  Al0  1  0.00000000  0.00000000  0.00000000  1
  Al  Al1  1  0.00000000  0.00000000  0.50000000  1
  F  F0  1  0.18268600  0.81731400  0.25000000  1
  F  F1  1  0.54992400  0.09984800  0.15430900  1
  F  F2  1  0.09984800  0.54992400  0.65430900  1
  F  F3  1  0.22423400  0.11211700  0.07985200  1
  F  F4  1  0.22423400  0.11211700  0.42014800  1
  F  F5  1  0.18268600  0.36537300  0.25000000  1
  F  F6  1  0.45007600  0.90015200  0.65430900  1
  F  F7  1  0.54992400  0.45007600  0.34569100  1
  F  F8  1  0.11211700  0.22423400  0.57985200  1
  F  F9  1  0.77576600  0.88788300  0.57985200  1
  F  F10  1  0.81731400  0.18268600  0.75000000  1
  F  F11  1  0.88788300  0.11211700  0.42014800  1
  F  F12  1  0.54992400  0.09984800  0.34569100  1
  F  F13  1  0.90015200  0.45007600  0.34569100  1
  F  F14  1  0.11211700  0.88788300  0.57985200  1
  F  F15  1  0.11211700  0.88788300  0.92014800  1
  F  F16  1  0.63462700  0.81731400  0.25000000  1
  F  F17  1  0.90015200  0.45007600  0.15430900  1
  F  F18  1  0.77576600  0.88788300  0.92014800  1
  F  F19  1  0.11211700  0.22423400  0.92014800  1
  F  F20  1  0.45007600  0.54992400  0.84569100  1
  F  F21  1  0.88788300  0.77576600  0.07985200  1
  F  F22  1  0.09984800  0.54992400  0.84569100  1
  F  F23  1  0.45007600  0.90015200  0.84569100  1
  F  F24  1  0.45007600  0.54992400  0.65430900  1
  F  F25  1  0.36537300  0.18268600  0.75000000  1
  F  F26  1  0.88788300  0.11211700  0.07985200  1
  F  F27  1  0.54992400  0.45007600  0.15430900  1
  F  F28  1  0.81731400  0.63462700  0.75000000  1
  F  F29  1  0.00000000  0.00000000  0.75000000  1
  F  F30  1  0.88788300  0.77576600  0.42014800  1
  F  F31  1  0.00000000  0.00000000  0.25000000  1
loop_
_geom_bond_atom_site_label_1
_geom_bond_atom_site_label_2
_geom_bond_distance
_geom_bond_site_symmetry_2
Al0 F26 1.827512 1_455
Al0 F15 1.827512 1_544
Al0 F3 1.827512 1_555
Al0 F21 1.827512 1_445
Al0 F19 1.827512 1_554
Al0 F18 1.827512 1_444
Al1 F14 1.827512 1_545
Al1 F11 1.827512 1_455
Al1 F8 1.827512 1_555
Al1 F9 1.827512 1_445
Al1 F4 1.827512 1_555
Al1 F30 1.827512 1_445
F0 Tb5 2.373584 1_455
F0 Tb3 2.373584 1_565
F0 Rb0 3.127140 1_555
F0 Rb3 3.127140 1_555
F1 Tb1 2.342918 1_555
F1 Tb3 2.342925 1_555
F1 Rb3 3.147858 1_545
F1 Rb2 3.205608 1_554
F2 Tb0 2.342918 1_555
F2 Tb2 2.342925 1_555
F2 Rb1 3.147858 1_455
F2 Rb0 3.205608 1_555
F3 Tb3 2.296255 1_555
F4 Tb3 2.296255 1_555
F5 Tb3 2.373584 1_555
F5 Tb1 2.373584 1_455
F5 Rb0 3.127140 1_555
F5 Rb3 3.127140 1_555
F6 Tb0 2.342918 1_555
F6 Tb4 2.342925 1_555
F6 Rb1 3.147858 1_565
F6 Rb0 3.205608 1_555
F7 Tb5 2.342920 1_555
F7 Tb3 2.342920 1_555
F7 Rb0 3.147864 1_555
F7 Rb1 3.205612 1_555
F8 Tb2 2.296255 1_555
F9 Tb4 2.296255 1_555
F10 Tb4 2.373584 1_545
F10 Tb2 2.373584 1_655
F10 Rb2 3.127140 1_555
F10 Rb1 3.127140 1_555
F11 Tb1 2.296257 1_555
F12 Tb1 2.342918 1_555
F12 Tb3 2.342925 1_555
F12 Rb0 3.147858 1_545
F12 Rb1 3.205608 1_555
F13 Tb1 2.342918 1_555
F13 Tb5 2.342925 1_555
F13 Rb0 3.147858 1_655
F13 Rb1 3.205608 1_555
F14 Tb0 2.296257 1_555
F15 Tb0 2.296257 1_555
F16 Tb5 2.373584 1_555
F16 Tb1 2.373584 1_565
F16 Rb0 3.127140 1_555
F16 Rb3 3.127140 1_555
F17 Tb1 2.342918 1_555
F17 Tb5 2.342925 1_555
F17 Rb3 3.147858 1_655
F17 Rb2 3.205608 1_554
F18 Tb4 2.296255 1_555
F19 Tb2 2.296255 1_555
F20 Tb4 2.342920 1_555
F20 Tb2 2.342920 1_555
F20 Rb2 3.147864 1_555
F20 Rb3 3.205612 1_556
F21 Tb5 2.296255 1_555
F22 Tb0 2.342918 1_555
F22 Tb2 2.342925 1_555
F22 Rb2 3.147858 1_455
F22 Rb3 3.205608 1_556
F23 Tb0 2.342918 1_555
F23 Tb4 2.342925 1_555
F23 Rb2 3.147858 1_565
F23 Rb3 3.205608 1_556
F24 Tb4 2.342920 1_555
F24 Tb2 2.342920 1_555
F24 Rb1 3.147864 1_555
F24 Rb0 3.205612 1_555
F25 Tb2 2.373584 1_555
F25 Tb0 2.373584 1_545
F25 Rb2 3.127140 1_555
F25 Rb1 3.127140 1_555
F26 Tb1 2.296257 1_555
F27 Tb5 2.342920 1_555
F27 Tb3 2.342920 1_555
F27 Rb3 3.147864 1_555
F27 Rb2 3.205612 1_554
F28 Tb4 2.373584 1_555
F28 Tb0 2.373584 1_655
F28 Rb2 3.127140 1_555
F28 Rb1 3.127140 1_555
F29 Tb2 2.261726 1_555
F29 Tb4 2.261726 1_445
F29 Tb0 2.261732 1_545
F30 Tb5 2.296255 1_555
F31 Tb3 2.261726 1_555
F31 Tb5 2.261726 1_445
F31 Tb1 2.261732 1_455
