# generated using pymatgen
data_Tl2SnO3
_symmetry_space_group_name_H-M   'P 1'
_cell_length_a   3.25391276
_cell_length_b   10.27327847
_cell_length_c   12.52655187
_cell_angle_alpha   90.00000000
_cell_angle_beta   90.00000000
_cell_angle_gamma   90.00000000
_symmetry_Int_Tables_number   1
_chemical_formula_structural   Tl2SnO3
_chemical_formula_sum   'Tl8 Sn4 O12'
_cell_volume   418.74198401
_cell_formula_units_Z   4
loop_
 _symmetry_equiv_pos_site_id
 _symmetry_equiv_pos_as_xyz
  1  'x, y, z'
loop_
 _atom_site_type_symbol
 _atom_site_label
 _atom_site_symmetry_multiplicity
 _atom_site_fract_x
 _atom_site_fract_y
 _atom_site_fract_z
 _atom_site_occupancy
  Tl  Tl0  1  0.75000000  0.63568502  0.39521290  1
  Tl  Tl1  1  0.25000000  0.36431498  0.60478710  1
  Tl  Tl2  1  0.75000000  0.13568502  0.10478710  1
  Tl  Tl3  1  0.25000000  0.86431498  0.89521290  1
  Tl  Tl4  1  0.75000000  0.79305108  0.15330630  1
  Tl  Tl5  1  0.25000000  0.20694892  0.84669370  1
  Tl  Tl6  1  0.75000000  0.29305108  0.34669370  1
  Tl  Tl7  1  0.25000000  0.70694892  0.65330630  1
  Sn  Sn0  1  0.25000000  0.96124409  0.38970618  1
  Sn  Sn1  1  0.75000000  0.03875591  0.61029382  1
  Sn  Sn2  1  0.25000000  0.46124409  0.11029382  1
  Sn  Sn3  1  0.75000000  0.53875591  0.88970618  1
  O  O0  1  0.75000000  0.89403233  0.48987062  1
  O  O1  1  0.25000000  0.10596767  0.51012938  1
  O  O2  1  0.75000000  0.39403233  0.01012938  1
  O  O3  1  0.25000000  0.60596767  0.98987062  1
  O  O4  1  0.75000000  0.54333537  0.19070137  1
  O  O5  1  0.25000000  0.45666463  0.80929863  1
  O  O6  1  0.75000000  0.04333537  0.30929863  1
  O  O7  1  0.25000000  0.95666463  0.69070137  1
  O  O8  1  0.25000000  0.78944942  0.30976036  1
  O  O9  1  0.75000000  0.21055058  0.69023964  1
  O  O10  1  0.25000000  0.28944942  0.19023964  1
  O  O11  1  0.75000000  0.71055058  0.80976036  1
loop_
_geom_bond_atom_site_label_1
_geom_bond_atom_site_label_2
_geom_bond_distance
_geom_bond_site_symmetry_2
O0 Sn1 2.118034 1_565
O0 Sn0 2.167502 1_655
O0 Sn0 2.167502 1_555
O1 Sn0 2.118034 1_545
O1 Sn1 2.167502 1_555
O1 Sn1 2.167502 1_455
O2 Sn3 2.118034 1_554
O2 Sn2 2.167502 1_655
O2 Sn2 2.167502 1_555
O3 Sn2 2.118034 1_556
O3 Sn3 2.167502 1_555
O3 Sn3 2.167502 1_455
O4 Sn2 2.091108 1_655
O4 Sn2 2.091108 1_555
O4 Tl4 2.607815 1_555
O4 Tl0 2.731856 1_555
O5 Sn3 2.091108 1_555
O5 Sn3 2.091108 1_455
O5 Tl5 2.607815 1_555
O5 Tl1 2.731856 1_555
O6 Sn0 2.091108 1_645
O6 Sn0 2.091108 1_545
O6 Tl6 2.607815 1_555
O6 Tl2 2.731856 1_555
O7 Sn1 2.091108 1_565
O7 Sn1 2.091108 1_465
O7 Tl7 2.607815 1_555
O7 Tl3 2.731856 1_555
O8 Sn0 2.029223 1_555
O8 Tl0 2.507616 1_555
O8 Tl0 2.507616 1_455
O8 Tl4 2.547408 1_455
O8 Tl4 2.547408 1_555
O9 Sn1 2.029223 1_555
O9 Tl1 2.507616 1_655
O9 Tl1 2.507616 1_555
O9 Tl5 2.547408 1_555
O9 Tl5 2.547408 1_655
O10 Sn2 2.029223 1_555
O10 Tl2 2.507616 1_455
O10 Tl2 2.507616 1_555
O10 Tl6 2.547408 1_455
O10 Tl6 2.547408 1_555
O11 Sn3 2.029223 1_555
O11 Tl3 2.507616 1_655
O11 Tl3 2.507616 1_555
O11 Tl7 2.547408 1_655
O11 Tl7 2.547408 1_555
