# generated using pymatgen
data_Rb3Y2(BO3)3
_symmetry_space_group_name_H-M   'P 1'
_cell_length_a   8.81202900
_cell_length_b   9.68968200
_cell_length_c   12.37772600
_cell_angle_alpha   90.00000000
_cell_angle_beta   90.00000000
_cell_angle_gamma   90.00000000
_symmetry_Int_Tables_number   1
_chemical_formula_structural   Rb3Y2(BO3)3
_chemical_formula_sum   'Rb12 Y8 B12 O36'
_cell_volume   1056.88152654
_cell_formula_units_Z   4
loop_
 _symmetry_equiv_pos_site_id
 _symmetry_equiv_pos_as_xyz
  1  'x, y, z'
loop_
 _atom_site_type_symbol
 _atom_site_label
 _atom_site_symmetry_multiplicity
 _atom_site_fract_x
 _atom_site_fract_y
 _atom_site_fract_z
 _atom_site_occupancy
  Rb  Rb0  1  0.35286800  0.35840600  0.74264900  1
  Rb  Rb1  1  0.20393900  0.03284900  0.57764000  1
  Rb  Rb2  1  0.79606100  0.96715100  0.07764000  1
  Rb  Rb3  1  0.09311700  0.69465200  0.59269000  1
  Rb  Rb4  1  0.14713200  0.85840600  0.24264900  1
  Rb  Rb5  1  0.85286800  0.14159400  0.74264900  1
  Rb  Rb6  1  0.29606100  0.53284900  0.07764000  1
  Rb  Rb7  1  0.90688300  0.30534800  0.09269000  1
  Rb  Rb8  1  0.70393900  0.46715100  0.57764000  1
  Rb  Rb9  1  0.64713200  0.64159400  0.24264900  1
  Rb  Rb10  1  0.59311700  0.80534800  0.59269000  1
  Rb  Rb11  1  0.40688300  0.19465200  0.09269000  1
  Y  Y0  1  0.01017500  0.50864500  0.33008300  1
  Y  Y1  1  0.64318500  0.61362800  0.89830600  1
  Y  Y2  1  0.98982500  0.49135500  0.83008300  1
  Y  Y3  1  0.48982500  0.00864500  0.83008300  1
  Y  Y4  1  0.35681500  0.38637200  0.39830600  1
  Y  Y5  1  0.85681500  0.11362800  0.39830600  1
  Y  Y6  1  0.14318500  0.88637200  0.89830600  1
  Y  Y7  1  0.51017500  0.99135500  0.33008300  1
  B  B0  1  0.13676500  0.17533600  0.90661200  1
  B  B1  1  0.36323500  0.67533600  0.40661200  1
  B  B2  1  0.16932400  0.19607300  0.28876900  1
  B  B3  1  0.86323500  0.82466400  0.40661200  1
  B  B4  1  0.33067600  0.69607300  0.78876900  1
  B  B5  1  0.66932400  0.30392700  0.28876900  1
  B  B6  1  0.03533100  0.34812100  0.56402600  1
  B  B7  1  0.46466900  0.84812100  0.06402600  1
  B  B8  1  0.96466900  0.65187900  0.06402600  1
  B  B9  1  0.83067600  0.80392700  0.78876900  1
  B  B10  1  0.53533100  0.15187900  0.56402600  1
  B  B11  1  0.63676500  0.32466400  0.90661200  1
  O  O0  1  0.47621000  0.90484100  0.16679300  1
  O  O1  1  0.53954100  0.37886000  0.27457100  1
  O  O2  1  0.38085300  0.91844600  0.98567900  1
  O  O3  1  0.88085300  0.58155400  0.98567900  1
  O  O4  1  0.30386400  0.14083100  0.33252100  1
  O  O5  1  0.25147700  0.61075400  0.34199900  1
  O  O6  1  0.96150600  0.22701200  0.53769500  1
  O  O7  1  0.61713600  0.18223300  0.90777800  1
  O  O8  1  0.61914700  0.08155400  0.48567900  1
  O  O9  1  0.80386400  0.35916900  0.33252100  1
  O  O10  1  0.97621000  0.59515900  0.16679300  1
  O  O11  1  0.95414100  0.91209500  0.46683100  1
  O  O12  1  0.67423400  0.16275600  0.26158900  1
  O  O13  1  0.88286400  0.68223300  0.40777800  1
  O  O14  1  0.46150600  0.27298800  0.53769500  1
  O  O15  1  0.45414100  0.58790500  0.46683100  1
  O  O16  1  0.32576600  0.83724400  0.76158900  1
  O  O17  1  0.54585900  0.41209500  0.96683100  1
  O  O18  1  0.17423400  0.33724400  0.26158900  1
  O  O19  1  0.24852300  0.11075400  0.84199900  1
  O  O20  1  0.04585900  0.08790500  0.96683100  1
  O  O21  1  0.52379000  0.09515900  0.66679300  1
  O  O22  1  0.03954100  0.12114000  0.27457100  1
  O  O23  1  0.11914700  0.41844600  0.48567900  1
  O  O24  1  0.38286400  0.81776700  0.40777800  1
  O  O25  1  0.69613600  0.85916900  0.83252100  1
  O  O26  1  0.82576600  0.66275600  0.76158900  1
  O  O27  1  0.19613600  0.64083100  0.83252100  1
  O  O28  1  0.75147700  0.88924600  0.34199900  1
  O  O29  1  0.96045900  0.87886000  0.77457100  1
  O  O30  1  0.03849400  0.77298800  0.03769500  1
  O  O31  1  0.02379000  0.40484100  0.66679300  1
  O  O32  1  0.11713600  0.31776700  0.90777800  1
  O  O33  1  0.74852300  0.38924600  0.84199900  1
  O  O34  1  0.46045900  0.62114000  0.77457100  1
  O  O35  1  0.53849400  0.72701200  0.03769500  1
loop_
_geom_bond_atom_site_label_1
_geom_bond_atom_site_label_2
_geom_bond_distance
_geom_bond_site_symmetry_2
B0 O20 1.383836 1_555
B0 O32 1.390983 1_555
B0 O19 1.414595 1_555
B0 Rb5 3.237942 1_455
B0 Rb11 3.317474 1_556
B1 O15 1.383836 1_555
B1 O24 1.390983 1_555
B1 O5 1.414595 1_555
B1 Rb9 3.237942 1_555
B1 Rb3 3.317474 1_555
B2 O22 1.366020 1_555
B2 O4 1.409034 1_555
B2 O18 1.409330 1_555
B2 Rb11 3.205122 1_555
B3 O11 1.383836 1_555
B3 O13 1.390983 1_555
B3 O28 1.414595 1_555
B3 Rb4 3.237942 1_655
B3 Rb10 3.317474 1_555
B4 O34 1.366020 1_555
B4 O27 1.409034 1_555
B4 O16 1.409330 1_555
B4 Rb3 3.205122 1_555
B5 O1 1.366020 1_555
B5 O9 1.409034 1_555
B5 O12 1.409330 1_555
B5 Rb7 3.205122 1_555
B6 O6 1.380781 1_455
B6 O31 1.389403 1_555
B6 O23 1.396527 1_555
B7 O35 1.380781 1_555
B7 O0 1.389403 1_555
B7 O2 1.396527 1_554
B8 O30 1.380781 1_655
B8 O10 1.389403 1_555
B8 O3 1.396527 1_554
B9 O29 1.366020 1_555
B9 O25 1.409034 1_555
B9 O26 1.409330 1_555
B9 Rb10 3.205122 1_555
B10 O14 1.380781 1_555
B10 O21 1.389403 1_555
B10 O8 1.396527 1_555
B11 O17 1.383836 1_555
B11 O7 1.390983 1_555
B11 O33 1.414595 1_555
B11 Rb0 3.237942 1_555
B11 Rb7 3.317474 1_556
O0 Y7 2.208484 1_555
O0 Rb11 3.016682 1_565
O0 Rb4 3.081092 1_555
O0 Rb9 3.107508 1_555
O1 Y4 2.223436 1_555
O1 Rb9 2.745205 1_555
O1 Rb11 3.101723 1_555
O2 Y3 2.322750 1_565
O2 Y6 2.377485 1_555
O2 Rb11 2.994978 1_566
O3 Y2 2.322750 1_555
O3 Y1 2.377485 1_555
O3 Rb7 2.994978 1_556
O4 Y7 2.324627 1_545
O4 Y4 2.557619 1_555
O4 Rb11 3.147768 1_555
O4 Rb4 3.260981 1_545
O5 Y0 2.349911 1_555
O5 Y4 2.464646 1_555
O5 Rb4 2.848878 1_555
O6 Y5 2.243847 1_555
O6 Rb5 2.834994 1_555
O6 Rb1 2.889279 1_655
O7 Y3 2.238883 1_555
O7 Rb5 2.940707 1_555
O7 Rb11 2.947159 1_556
O8 Y7 2.322750 1_545
O8 Y5 2.377485 1_555
O8 Rb10 2.994978 1_545
O9 Y0 2.324627 1_655
O9 Y5 2.557619 1_555
O9 Rb7 3.147768 1_555
O9 Rb9 3.260981 1_555
O10 Y0 2.208484 1_655
O10 Rb7 3.016682 1_555
O10 Rb9 3.081092 1_555
O10 Rb4 3.107508 1_655
O11 Y5 2.295289 1_565
O11 Rb1 2.845285 1_665
O11 Rb3 2.892393 1_655
O11 Rb4 3.295859 1_655
O12 Y7 2.359474 1_545
O12 Y5 2.383043 1_555
O12 Rb11 3.164862 1_555
O12 Rb7 3.237671 1_555
O13 Y0 2.238883 1_655
O13 Rb9 2.940707 1_555
O13 Rb3 2.947159 1_655
O14 Y4 2.243847 1_555
O14 Rb0 2.834994 1_555
O14 Rb8 2.889279 1_555
O15 Y4 2.295289 1_555
O15 Rb8 2.845285 1_555
O15 Rb10 2.892393 1_555
O15 Rb9 3.295859 1_555
O16 Y3 2.359474 1_565
O16 Y6 2.383043 1_555
O16 Rb10 3.164862 1_555
O16 Rb3 3.237671 1_555
O17 Y1 2.295289 1_555
O17 Rb6 2.845285 1_556
O17 Rb11 2.892393 1_556
O17 Rb0 3.295859 1_555
O18 Y0 2.359474 1_555
O18 Y4 2.383043 1_555
O18 Rb7 3.164862 1_455
O18 Rb11 3.237671 1_555
O19 Y3 2.349911 1_555
O19 Y6 2.464646 1_545
O19 Rb0 2.848878 1_555
O20 Y6 2.295289 1_545
O20 Rb2 2.845285 1_446
O20 Rb7 2.892393 1_456
O20 Rb5 3.295859 1_455
O21 Y3 2.208484 1_555
O21 Rb10 3.016682 1_545
O21 Rb5 3.081092 1_555
O21 Rb0 3.107508 1_555
O22 Y5 2.223436 1_455
O22 Rb4 2.745205 1_545
O22 Rb7 3.101723 1_455
O23 Y0 2.322750 1_555
O23 Y4 2.377485 1_555
O23 Rb3 2.994978 1_555
O24 Y7 2.238883 1_555
O24 Rb4 2.940707 1_555
O24 Rb10 2.947159 1_555
O25 Y3 2.324627 1_565
O25 Y1 2.557619 1_555
O25 Rb10 3.147768 1_555
O25 Rb5 3.260981 1_565
O26 Y2 2.359474 1_555
O26 Y1 2.383043 1_555
O26 Rb3 3.164862 1_655
O26 Rb10 3.237671 1_555
O27 Y2 2.324627 1_455
O27 Y6 2.557619 1_555
O27 Rb3 3.147768 1_555
O27 Rb0 3.260981 1_555
O28 Y7 2.349911 1_555
O28 Y5 2.464646 1_565
O28 Rb9 2.848878 1_555
O29 Y6 2.223436 1_655
O29 Rb5 2.745205 1_565
O29 Rb3 3.101723 1_655
O30 Y6 2.243847 1_554
O30 Rb4 2.834994 1_555
O30 Rb2 2.889279 1_455
O31 Y2 2.208484 1_455
O31 Rb3 3.016682 1_555
O31 Rb0 3.081092 1_555
O31 Rb5 3.107508 1_455
O32 Y2 2.238883 1_455
O32 Rb0 2.940707 1_555
O32 Rb7 2.947159 1_456
O33 Y2 2.349911 1_555
O33 Y1 2.464646 1_555
O33 Rb5 2.848878 1_555
O34 Y1 2.223436 1_555
O34 Rb0 2.745205 1_555
O34 Rb10 3.101723 1_555
O35 Y1 2.243847 1_554
O35 Rb9 2.834994 1_555
O35 Rb6 2.889279 1_555
