# generated using pymatgen
data_Li10Pb3
_symmetry_space_group_name_H-M   'P 1'
_cell_length_a   10.11005500
_cell_length_b   10.11005500
_cell_length_c   10.11005500
_cell_angle_alpha   90.00000000
_cell_angle_beta   90.00000000
_cell_angle_gamma   90.00000000
_symmetry_Int_Tables_number   1
_chemical_formula_structural   Li10Pb3
_chemical_formula_sum   'Li40 Pb12'
_cell_volume   1033.38119609
_cell_formula_units_Z   4
loop_
 _symmetry_equiv_pos_site_id
 _symmetry_equiv_pos_as_xyz
  1  'x, y, z'
loop_
 _atom_site_type_symbol
 _atom_site_label
 _atom_site_symmetry_multiplicity
 _atom_site_fract_x
 _atom_site_fract_y
 _atom_site_fract_z
 _atom_site_occupancy
  Li  Li0  1  0.11146500  0.11146500  0.11146500  1
  Li  Li1  1  0.88853500  0.11146500  0.88853500  1
  Li  Li2  1  0.88853500  0.88853500  0.11146500  1
  Li  Li3  1  0.11146500  0.88853500  0.88853500  1
  Li  Li4  1  0.60535100  0.60535100  0.60535100  1
  Li  Li5  1  0.39464900  0.60535100  0.39464900  1
  Li  Li6  1  0.39464900  0.39464900  0.60535100  1
  Li  Li7  1  0.60535100  0.39464900  0.39464900  1
  Li  Li8  1  0.81863400  0.81863400  0.81863400  1
  Li  Li9  1  0.18136600  0.81863400  0.18136600  1
  Li  Li10  1  0.18136600  0.18136600  0.81863400  1
  Li  Li11  1  0.81863400  0.18136600  0.18136600  1
  Li  Li12  1  0.31802600  0.31802600  0.31802600  1
  Li  Li13  1  0.68197400  0.31802600  0.68197400  1
  Li  Li14  1  0.68197400  0.68197400  0.31802600  1
  Li  Li15  1  0.31802600  0.68197400  0.68197400  1
  Li  Li16  1  0.34908100  0.00000000  0.00000000  1
  Li  Li17  1  0.65091900  0.00000000  0.00000000  1
  Li  Li18  1  0.00000000  0.00000000  0.34908100  1
  Li  Li19  1  0.00000000  0.00000000  0.65091900  1
  Li  Li20  1  0.00000000  0.65091900  0.00000000  1
  Li  Li21  1  0.00000000  0.34908100  0.00000000  1
  Li  Li22  1  0.85889900  0.50000000  0.50000000  1
  Li  Li23  1  0.14110100  0.50000000  0.50000000  1
  Li  Li24  1  0.50000000  0.50000000  0.85889900  1
  Li  Li25  1  0.50000000  0.50000000  0.14110100  1
  Li  Li26  1  0.50000000  0.14110100  0.50000000  1
  Li  Li27  1  0.50000000  0.85889900  0.50000000  1
  Li  Li28  1  0.81041600  0.81041600  0.53122900  1
  Li  Li29  1  0.18958400  0.53122900  0.18958400  1
  Li  Li30  1  0.18958400  0.46877100  0.81041600  1
  Li  Li31  1  0.46877100  0.18958400  0.81041600  1
  Li  Li32  1  0.53122900  0.18958400  0.18958400  1
  Li  Li33  1  0.81041600  0.18958400  0.46877100  1
  Li  Li34  1  0.18958400  0.81041600  0.46877100  1
  Li  Li35  1  0.53122900  0.81041600  0.81041600  1
  Li  Li36  1  0.81041600  0.53122900  0.81041600  1
  Li  Li37  1  0.46877100  0.81041600  0.18958400  1
  Li  Li38  1  0.81041600  0.46877100  0.18958400  1
  Li  Li39  1  0.18958400  0.18958400  0.53122900  1
  Pb  Pb0  1  0.31340900  0.31340900  0.03299900  1
  Pb  Pb1  1  0.68659100  0.03299900  0.68659100  1
  Pb  Pb2  1  0.68659100  0.96700100  0.31340900  1
  Pb  Pb3  1  0.96700100  0.68659100  0.31340900  1
  Pb  Pb4  1  0.03299900  0.68659100  0.68659100  1
  Pb  Pb5  1  0.31340900  0.68659100  0.96700100  1
  Pb  Pb6  1  0.68659100  0.31340900  0.96700100  1
  Pb  Pb7  1  0.03299900  0.31340900  0.31340900  1
  Pb  Pb8  1  0.31340900  0.03299900  0.31340900  1
  Pb  Pb9  1  0.96700100  0.31340900  0.68659100  1
  Pb  Pb10  1  0.31340900  0.96700100  0.68659100  1
  Pb  Pb11  1  0.68659100  0.68659100  0.03299900  1
loop_
_geom_bond_atom_site_label_1
_geom_bond_atom_site_label_2
_geom_bond_distance
_geom_bond_site_symmetry_2
Li0 Li16 2.882877 1_555
Li0 Li18 2.882877 1_555
Li0 Li21 2.882877 1_555
Li0 Pb7 2.994346 1_555
Li0 Pb8 2.994346 1_555
Li0 Pb0 2.994346 1_555
Li0 Li10 3.124682 1_554
Li0 Li9 3.124682 1_545
Li0 Li11 3.124682 1_455
Li0 Li2 3.187403 1_445
Li0 Li3 3.187403 1_544
Li0 Li1 3.187403 1_454
Li1 Li17 2.882877 1_556
Li1 Li19 2.882877 1_655
Li1 Li21 2.882877 1_656
Li1 Pb1 2.994346 1_555
Li1 Pb9 2.994346 1_555
Li1 Pb6 2.994346 1_555
Li1 Li11 3.124682 1_556
Li1 Li10 3.124682 1_655
Li1 Li8 3.124682 1_545
Li1 Li2 3.187403 1_546
Li1 Li3 3.187403 1_645
Li2 Li20 2.882877 1_655
Li2 Pb11 2.994346 1_555
Li2 Pb3 2.994346 1_555
Li2 Pb2 2.994346 1_555
Li2 Li9 3.124682 1_655
Li2 Li8 3.124682 1_554
Li2 Li3 3.187403 1_654
Li3 Pb10 2.994346 1_555
Li3 Pb4 2.994346 1_555
Li3 Pb5 2.994346 1_555
Li3 Li9 3.124682 1_556
Li3 Li8 3.124682 1_455
Li4 Li6 3.012570 1_555
Li4 Li7 3.012570 1_555
Li4 Li5 3.012570 1_555
Li5 Li6 3.012570 1_555
Li5 Li7 3.012570 1_555
Li6 Li7 3.012570 1_555
Li8 Pb4 2.874228 1_655
Li8 Pb11 2.874228 1_556
Li8 Pb1 2.874228 1_565
Li9 Pb5 2.874228 1_554
Li9 Pb3 2.874228 1_455
Li9 Pb8 2.874228 1_565
Li10 Pb9 2.874228 1_455
Li10 Pb10 2.874228 1_545
Li10 Pb0 2.874228 1_556
Li10 Li39 2.908055 1_555
Li10 Li30 2.908055 1_555
Li10 Li31 2.908055 1_555
Li10 Li19 3.098292 1_555
Li10 Li21 3.098292 1_556
Li10 Li16 3.098292 1_556
Li10 Li3 3.124682 1_545
Li11 Pb6 2.874228 1_554
Li11 Pb2 2.874228 1_545
Li11 Pb7 2.874228 1_655
Li11 Li38 2.908055 1_555
Li11 Li32 2.908055 1_555
Li11 Li33 2.908055 1_555
Li11 Li17 3.098292 1_555
Li11 Li18 3.098292 1_655
Li11 Li21 3.098292 1_655
Li11 Li2 3.124682 1_545
Li12 Li32 2.831722 1_555
Li12 Li39 2.831722 1_555
Li12 Li29 2.831722 1_555
Li12 Pb7 2.882395 1_555
Li12 Pb8 2.882395 1_555
Li12 Pb0 2.882395 1_555
Li12 Li5 3.104591 1_555
Li12 Li6 3.104591 1_555
Li12 Li7 3.104591 1_555
Li12 Li25 3.157374 1_555
Li12 Li23 3.157374 1_555
Li12 Li26 3.157374 1_555
Li13 Li36 2.831722 1_555
Li13 Li31 2.831722 1_555
Li13 Li33 2.831722 1_555
Li13 Pb6 2.882395 1_555
Li13 Pb1 2.882395 1_555
Li13 Pb9 2.882395 1_555
Li13 Li4 3.104591 1_555
Li13 Li6 3.104591 1_555
Li13 Li7 3.104591 1_555
Li13 Li26 3.157374 1_555
Li13 Li24 3.157374 1_555
Li13 Li22 3.157374 1_555
Li14 Li28 2.831722 1_555
Li14 Li37 2.831722 1_555
Li14 Li38 2.831722 1_555
Li14 Pb11 2.882395 1_555
Li14 Pb2 2.882395 1_555
Li14 Pb3 2.882395 1_555
Li14 Li4 3.104591 1_555
Li14 Li7 3.104591 1_555
Li14 Li5 3.104591 1_555
Li14 Li25 3.157374 1_555
Li14 Li22 3.157374 1_555
Li14 Li27 3.157374 1_555
Li15 Li35 2.831722 1_555
Li15 Li34 2.831722 1_555
Li15 Li30 2.831722 1_555
Li15 Pb10 2.882395 1_555
Li15 Pb4 2.882395 1_555
Li15 Pb5 2.882395 1_555
Li15 Li4 3.104591 1_555
Li15 Li6 3.104591 1_555
Li15 Li5 3.104591 1_555
Li15 Li23 3.157374 1_555
Li15 Li24 3.157374 1_555
Li15 Li27 3.157374 1_555
Li16 Li3 2.882877 1_544
Li16 Li31 2.968466 1_554
Li16 Li37 2.968466 1_545
Li16 Li17 3.051599 1_555
Li16 Li9 3.098292 1_545
Li16 Pb0 3.206444 1_555
Li16 Pb8 3.206444 1_555
Li16 Pb10 3.206444 1_544
Li16 Pb5 3.206444 1_544
Li16 Li32 3.277001 1_555
Li16 Li35 3.277001 1_544
Li17 Li2 2.882877 1_545
Li17 Li32 2.968466 1_555
Li17 Li35 2.968466 1_544
Li17 Li8 3.098292 1_544
Li17 Pb6 3.206444 1_554
Li17 Pb2 3.206444 1_545
Li17 Pb1 3.206444 1_554
Li17 Pb11 3.206444 1_545
Li17 Li31 3.277001 1_554
Li17 Li37 3.277001 1_545
Li18 Li2 2.882877 1_445
Li18 Li34 2.968466 1_545
Li18 Li33 2.968466 1_455
Li18 Li19 3.051599 1_555
Li18 Li9 3.098292 1_545
Li18 Pb8 3.206444 1_555
Li18 Pb7 3.206444 1_555
Li18 Pb3 3.206444 1_445
Li18 Pb2 3.206444 1_445
Li18 Li39 3.277001 1_555
Li18 Li28 3.277001 1_445
Li19 Li3 2.882877 1_545
Li19 Li39 2.968466 1_555
Li19 Li28 2.968466 1_445
Li19 Li8 3.098292 1_445
Li19 Pb9 3.206444 1_455
Li19 Pb10 3.206444 1_545
Li19 Pb4 3.206444 1_545
Li19 Pb1 3.206444 1_455
Li19 Li33 3.277001 1_455
Li19 Li34 3.277001 1_545
Li20 Li3 2.882877 1_554
Li20 Li29 2.968466 1_555
Li20 Li36 2.968466 1_454
Li20 Li21 3.051599 1_555
Li20 Li9 3.098292 1_555
Li20 Li8 3.098292 1_454
Li20 Pb5 3.206444 1_554
Li20 Pb3 3.206444 1_455
Li20 Pb4 3.206444 1_554
Li20 Pb11 3.206444 1_455
Li20 Li30 3.277001 1_554
Li20 Li38 3.277001 1_455
Li21 Li38 2.968466 1_455
Li21 Li30 2.968466 1_554
Li21 Pb7 3.206444 1_555
Li21 Pb0 3.206444 1_555
Li21 Pb6 3.206444 1_454
Li21 Pb9 3.206444 1_454
Li21 Li29 3.277001 1_555
Li21 Li36 3.277001 1_454
Li22 Li23 2.853078 1_655
Li22 Pb9 2.883023 1_555
Li22 Pb3 2.883023 1_555
Li22 Li4 2.973186 1_555
Li22 Li7 2.973186 1_555
Li22 Li36 3.192024 1_555
Li22 Li28 3.192024 1_555
Li22 Li33 3.192024 1_555
Li22 Li38 3.192024 1_555
Li22 Pb4 3.196172 1_655
Li22 Pb7 3.196172 1_655
Li23 Pb4 2.883023 1_555
Li23 Pb7 2.883023 1_555
Li23 Li6 2.973186 1_555
Li23 Li5 2.973186 1_555
Li23 Li30 3.192024 1_555
Li23 Li34 3.192024 1_555
Li23 Li29 3.192024 1_555
Li23 Li39 3.192024 1_555
Li23 Pb9 3.196172 1_455
Li23 Pb3 3.196172 1_455
Li24 Li25 2.853078 1_556
Li24 Pb5 2.883023 1_555
Li24 Pb6 2.883023 1_555
Li24 Li4 2.973186 1_555
Li24 Li6 2.973186 1_555
Li24 Li36 3.192024 1_555
Li24 Li35 3.192024 1_555
Li24 Li31 3.192024 1_555
Li24 Li30 3.192024 1_555
Li24 Pb11 3.196172 1_556
Li24 Pb0 3.196172 1_556
Li25 Pb11 2.883023 1_555
Li25 Pb0 2.883023 1_555
Li25 Li7 2.973186 1_555
Li25 Li5 2.973186 1_555
Li25 Li38 3.192024 1_555
Li25 Li37 3.192024 1_555
Li25 Li32 3.192024 1_555
Li25 Li29 3.192024 1_555
Li25 Pb6 3.196172 1_554
Li25 Pb5 3.196172 1_554
Li26 Li27 2.853078 1_545
Li26 Pb1 2.883023 1_555
Li26 Pb8 2.883023 1_555
Li26 Li7 2.973186 1_555
Li26 Li6 2.973186 1_555
Li26 Li33 3.192024 1_555
Li26 Li31 3.192024 1_555
Li26 Li32 3.192024 1_555
Li26 Li39 3.192024 1_555
Li26 Pb10 3.196172 1_545
Li26 Pb2 3.196172 1_545
Li27 Pb2 2.883023 1_555
Li27 Pb10 2.883023 1_555
Li27 Li4 2.973186 1_555
Li27 Li5 2.973186 1_555
Li27 Li35 3.192024 1_555
Li27 Li28 3.192024 1_555
Li27 Li37 3.192024 1_555
Li27 Li34 3.192024 1_555
Li27 Pb1 3.196172 1_565
Li27 Pb8 3.196172 1_565
Li28 Li8 2.908055 1_555
Li28 Pb3 2.987124 1_555
Li28 Pb2 2.987124 1_555
Li28 Pb4 3.016343 1_655
Li28 Pb1 3.016343 1_565
Li28 Li4 3.026225 1_555
Li29 Li9 2.908055 1_555
Li29 Pb7 2.987124 1_555
Li29 Pb0 2.987124 1_555
Li29 Pb3 3.016343 1_455
Li29 Pb5 3.016343 1_554
Li29 Li5 3.026225 1_555
Li30 Pb4 2.987124 1_555
Li30 Pb5 2.987124 1_555
Li30 Pb9 3.016343 1_455
Li30 Pb0 3.016343 1_556
Li30 Li6 3.026225 1_555
Li31 Pb1 2.987124 1_555
Li31 Pb6 2.987124 1_555
Li31 Pb10 3.016343 1_545
Li31 Pb0 3.016343 1_556
Li31 Li6 3.026225 1_555
Li32 Pb8 2.987124 1_555
Li32 Pb0 2.987124 1_555
Li32 Pb6 3.016343 1_554
Li32 Pb2 3.016343 1_545
Li32 Li7 3.026225 1_555
Li33 Pb1 2.987124 1_555
Li33 Pb9 2.987124 1_555
Li33 Pb2 3.016343 1_545
Li33 Pb7 3.016343 1_655
Li33 Li7 3.026225 1_555
Li34 Li9 2.908055 1_555
Li34 Pb4 2.987124 1_555
Li34 Pb10 2.987124 1_555
Li34 Pb3 3.016343 1_455
Li34 Pb8 3.016343 1_565
Li34 Li5 3.026225 1_555
Li35 Li8 2.908055 1_555
Li35 Pb5 2.987124 1_555
Li35 Pb10 2.987124 1_555
Li35 Pb11 3.016343 1_556
Li35 Pb1 3.016343 1_565
Li35 Li4 3.026225 1_555
Li36 Li8 2.908055 1_555
Li36 Pb6 2.987124 1_555
Li36 Pb9 2.987124 1_555
Li36 Pb11 3.016343 1_556
Li36 Pb4 3.016343 1_655
Li36 Li4 3.026225 1_555
Li37 Li9 2.908055 1_555
Li37 Pb11 2.987124 1_555
Li37 Pb2 2.987124 1_555
Li37 Pb5 3.016343 1_554
Li37 Pb8 3.016343 1_565
Li37 Li5 3.026225 1_555
Li38 Pb11 2.987124 1_555
Li38 Pb3 2.987124 1_555
Li38 Pb6 3.016343 1_554
Li38 Pb7 3.016343 1_655
Li38 Li7 3.026225 1_555
Li39 Pb7 2.987124 1_555
Li39 Pb8 2.987124 1_555
Li39 Pb9 3.016343 1_455
Li39 Pb10 3.016343 1_545
Li39 Li6 3.026225 1_555
