# generated using pymatgen
data_Be22Re
_symmetry_space_group_name_H-M   'P 1'
_cell_length_a   8.13274172
_cell_length_b   8.13274113
_cell_length_c   8.13274222
_cell_angle_alpha   60.00074062
_cell_angle_beta   60.00073954
_cell_angle_gamma   60.00075165
_symmetry_Int_Tables_number   1
_chemical_formula_structural   Be22Re
_chemical_formula_sum   'Be44 Re2'
_cell_volume   380.36737815
_cell_formula_units_Z   2
loop_
 _symmetry_equiv_pos_site_id
 _symmetry_equiv_pos_as_xyz
  1  'x, y, z'
loop_
 _atom_site_type_symbol
 _atom_site_label
 _atom_site_symmetry_multiplicity
 _atom_site_fract_x
 _atom_site_fract_y
 _atom_site_fract_z
 _atom_site_occupancy
  Be  Be0  1  0.51016320  0.51016320  0.23985026  1
  Be  Be1  1  0.94330148  0.20505587  0.67582352  1
  Be  Be2  1  0.67581718  0.20505768  0.67581738  1
  Be  Be3  1  0.79494332  0.32418182  0.32418162  1
  Be  Be4  1  -0.00000000  0.50000000  0.50000000  1
  Be  Be5  1  0.76016452  0.48984741  0.76016461  1
  Be  Be6  1  0.48984741  0.76016452  0.76016461  1
  Be  Be7  1  0.05669852  0.79494413  0.32417648  1
  Be  Be8  1  0.48983701  0.76014965  0.48983671  1
  Be  Be9  1  -0.00000000  -0.00000000  0.00000000  1
  Be  Be10  1  0.67582389  0.94330135  0.20505548  1
  Be  Be11  1  0.94331070  0.67581759  0.67581821  1
  Be  Be12  1  0.51015259  0.23983548  0.23983539  1
  Be  Be13  1  0.05669865  0.32417611  0.79494352  1
  Be  Be14  1  0.23983558  0.23983558  0.51015271  1
  Be  Be15  1  0.20505668  0.67581818  0.67581838  1
  Be  Be16  1  0.67582369  0.20505650  0.94330122  1
  Be  Be17  1  0.76014965  0.48983701  0.48983671  1
  Be  Be18  1  0.05668930  0.32418241  0.32418179  1
  Be  Be19  1  0.32417611  0.05669865  0.79494452  1
  Be  Be20  1  0.32418282  0.79494232  0.32418262  1
  Be  Be21  1  0.50000000  -0.00000000  0.50000000  1
  Be  Be22  1  0.94330135  0.67582389  0.20505648  1
  Be  Be23  1  0.67581794  0.67581794  0.94331035  1
  Be  Be24  1  0.32418241  0.05668930  0.32418279  1
  Be  Be25  1  0.50000000  -0.00000000  0.00000000  1
  Be  Be26  1  0.32418206  0.32418206  0.05668965  1
  Be  Be27  1  0.48983680  0.48983680  0.76014974  1
  Be  Be28  1  0.20505587  0.94330148  0.67582352  1
  Be  Be29  1  0.23985035  0.51016299  0.51016329  1
  Be  Be30  1  -0.00000000  0.50000000  0.00000000  1
  Be  Be31  1  0.76016442  0.76016442  0.48984729  1
  Be  Be32  1  0.79494413  0.05669852  0.32417648  1
  Be  Be33  1  0.32418171  0.32418171  0.79494358  1
  Be  Be34  1  0.67581829  0.67581829  0.20505642  1
  Be  Be35  1  0.20505550  0.67582369  0.94330122  1
  Be  Be36  1  0.32417631  0.79494350  0.05669878  1
  Be  Be37  1  0.50000000  0.50000000  0.00000000  1
  Be  Be38  1  0.79494450  0.32417631  0.05669878  1
  Be  Be39  1  0.51016299  0.23985035  0.51016329  1
  Be  Be40  1  0.67581759  0.94331070  0.67581721  1
  Be  Be41  1  0.50000000  0.50000000  0.50000000  1
  Be  Be42  1  0.23983548  0.51015259  0.23983539  1
  Be  Be43  1  -0.00000000  -0.00000000  0.50000000  1
  Re  Re0  1  0.87499991  0.87500091  0.87499861  1
  Re  Re1  1  0.12500009  0.12499909  0.12500139  1
loop_
_geom_bond_atom_site_label_1
_geom_bond_atom_site_label_2
_geom_bond_distance
_geom_bond_site_symmetry_2
Be0 Be41 2.036436 1_555
Be0 Be37 2.036650 1_555
Be0 Be34 2.182357 1_555
Be0 Be23 2.182478 1_554
Be0 Be39 2.198410 1_555
Be0 Be29 2.198410 1_555
Be0 Be12 2.198609 1_555
Be0 Be42 2.198609 1_555
Be0 Be20 2.273816 1_555
Be0 Be3 2.273819 1_555
Be0 Be36 2.273933 1_555
Be0 Be38 2.273936 1_555
Be1 Be28 2.128805 1_645
Be1 Be16 2.175352 1_555
Be1 Be2 2.175398 1_555
Be1 Be14 2.182460 1_655
Be1 Be4 2.242300 1_655
Be1 Be5 2.273935 1_555
Be1 Be17 2.273937 1_555
Be1 Be13 2.335139 1_655
Be1 Be18 2.335203 1_655
Be1 Be9 2.448402 1_656
Be1 Be43 2.448409 1_655
Be1 Re0 2.526050 1_545
Be2 Be40 2.128719 1_545
Be2 Be39 2.182349 1_555
Be2 Be41 2.242276 1_555
Be2 Be27 2.273816 1_555
Be2 Be33 2.335162 1_555
Be2 Be3 2.335164 1_555
Be2 Be25 2.448432 1_556
Be2 Be43 2.448434 1_655
Be2 Re0 2.526093 1_545
Be3 Be38 2.175387 1_555
Be3 Be32 2.175390 1_555
Be3 Be41 2.242286 1_555
Be3 Be39 2.273821 1_555
Be3 Be34 2.335169 1_555
Be3 Be30 2.448428 1_655
Be3 Be43 2.448430 1_655
Be3 Re1 2.526090 1_655
Be4 Be5 2.036567 1_455
Be4 Be42 2.036567 1_555
Be4 Be7 2.242300 1_555
Be5 Be6 2.198444 1_555
Be6 Be8 2.198610 1_555
Be7 Be9 2.448402 1_565
Be7 Re1 2.526050 1_565
Be9 Re1 2.490123 1_555
Be9 Re0 2.490123 1_444
Be10 Be16 2.128807 1_564
Be10 Be22 2.175350 1_555
Be10 Be34 2.175389 1_555
Be10 Be12 2.182461 1_565
Be10 Be21 2.242304 1_565
Be10 Be31 2.273935 1_555
Be10 Be8 2.273936 1_555
Be10 Be32 2.335146 1_565
Be10 Be24 2.335202 1_565
Be10 Be9 2.448399 1_665
Be10 Be25 2.448408 1_565
Be10 Re0 2.526060 1_554
Be11 Be15 2.128716 1_655
Be11 Be23 2.175471 1_555
Be11 Be40 2.175477 1_555
Be11 Be29 2.182478 1_655
Be11 Be4 2.242267 1_655
Be11 Be5 2.273792 1_555
Be11 Be31 2.273797 1_555
Be11 Be13 2.335202 1_655
Be11 Be7 2.335203 1_655
Be11 Be30 2.448404 1_656
Be11 Be43 2.448408 1_665
Be11 Re0 2.526048 1_555
Be12 Be37 2.036566 1_555
Be12 Be21 2.036567 1_555
Be12 Be16 2.182458 1_554
Be12 Be42 2.198444 1_555
Be12 Be14 2.198444 1_555
Be12 Be39 2.198610 1_555
Be12 Be24 2.273789 1_555
Be12 Be26 2.273792 1_555
Be12 Be32 2.273935 1_555
Be12 Be38 2.273936 1_555
Be13 Be38 2.128807 1_456
Be13 Be19 2.175350 1_555
Be13 Be33 2.175394 1_555
Be13 Be5 2.182458 1_455
Be13 Be4 2.242297 1_555
Be13 Be14 2.273928 1_555
Be13 Be29 2.273934 1_555
Be13 Be9 2.448399 1_556
Be13 Be30 2.448415 1_556
Be13 Re1 2.526070 1_556
Be14 Be4 2.036567 1_555
Be14 Be21 2.036567 1_555
Be14 Be28 2.182459 1_545
Be14 Be42 2.198444 1_555
Be14 Be29 2.198606 1_555
Be14 Be39 2.198606 1_555
Be14 Be24 2.273790 1_555
Be14 Be18 2.273797 1_555
Be14 Be19 2.273935 1_555
Be15 Be35 2.175387 1_555
Be15 Be28 2.175390 1_555
Be15 Be29 2.182359 1_555
Be15 Be41 2.242286 1_555
Be15 Be27 2.273819 1_555
Be15 Be8 2.273821 1_555
Be15 Be20 2.335164 1_555
Be15 Be33 2.335169 1_555
Be15 Be30 2.448428 1_556
Be15 Be43 2.448430 1_565
Be15 Re0 2.526090 1_455
Be16 Be2 2.175399 1_555
Be16 Be37 2.242297 1_556
Be16 Be5 2.273929 1_555
Be16 Be27 2.273933 1_555
Be16 Be38 2.335144 1_556
Be16 Be26 2.335203 1_556
Be16 Be9 2.448402 1_656
Be16 Be25 2.448413 1_556
Be16 Re0 2.526058 1_545
Be17 Be41 2.036435 1_555
Be17 Be4 2.036650 1_655
Be17 Be3 2.182359 1_555
Be17 Be18 2.182478 1_655
Be17 Be8 2.198408 1_555
Be17 Be27 2.198410 1_555
Be17 Be31 2.198606 1_555
Be17 Be5 2.198610 1_555
Be17 Be2 2.273818 1_555
Be17 Be34 2.273821 1_555
Be17 Be22 2.273934 1_555
Be18 Be3 2.128716 1_455
Be18 Be26 2.175471 1_555
Be18 Be24 2.175477 1_555
Be18 Be4 2.242267 1_555
Be18 Be42 2.273792 1_555
Be18 Be22 2.335202 1_455
Be18 Be30 2.448404 1_555
Be18 Be43 2.448408 1_555
Be18 Re1 2.526048 1_555
Be19 Be36 2.128807 1_546
Be19 Be33 2.175389 1_555
Be19 Be6 2.182461 1_545
Be19 Be21 2.242304 1_555
Be19 Be39 2.273936 1_555
Be19 Be28 2.335146 1_545
Be19 Be40 2.335202 1_545
Be19 Be9 2.448399 1_556
Be19 Be25 2.448408 1_556
Be19 Re1 2.526060 1_556
Be20 Be24 2.128719 1_565
Be20 Be7 2.175398 1_555
Be20 Be36 2.175399 1_555
Be20 Be8 2.182349 1_555
Be20 Be41 2.242276 1_555
Be20 Be29 2.273818 1_555
Be20 Be34 2.335162 1_555
Be20 Be25 2.448432 1_565
Be20 Be43 2.448434 1_565
Be20 Re1 2.526093 1_565
Be21 Be31 2.036567 1_545
Be21 Be6 2.036567 1_545
Be21 Be8 2.036650 1_545
Be21 Be39 2.036650 1_555
Be21 Be24 2.242260 1_555
Be21 Be40 2.242260 1_545
Be21 Be28 2.242301 1_545
Be21 Be32 2.242301 1_555
Be22 Be35 2.128807 1_654
Be22 Be34 2.175394 1_555
Be22 Be42 2.182458 1_655
Be22 Be4 2.242297 1_655
Be22 Be31 2.273928 1_555
Be22 Be7 2.335139 1_655
Be22 Be9 2.448399 1_665
Be22 Be30 2.448415 1_655
Be22 Re0 2.526070 1_554
Be23 Be34 2.128716 1_556
Be23 Be40 2.175475 1_555
Be23 Be37 2.242266 1_556
Be23 Be5 2.273792 1_555
Be23 Be6 2.273792 1_555
Be23 Be38 2.335203 1_556
Be23 Be36 2.335203 1_556
Be23 Be25 2.448407 1_566
Be23 Be30 2.448407 1_656
Be23 Re0 2.526053 1_555
Be24 Be26 2.175475 1_555
Be24 Be8 2.182475 1_545
Be24 Be28 2.335197 1_545
Be24 Be43 2.448409 1_555
Be24 Be25 2.448411 1_555
Be24 Re1 2.526052 1_555
Be25 Be26 2.448407 1_555
Be25 Be40 2.448411 1_544
Be25 Be36 2.448413 1_545
Be25 Be34 2.448428 1_545
Be25 Be33 2.448428 1_554
Be25 Re0 2.490156 1_544
Be25 Re1 2.490156 1_555
Be26 Be33 2.128716 1_554
Be26 Be27 2.182478 1_554
Be26 Be37 2.242266 1_555
Be26 Be42 2.273792 1_555
Be26 Be35 2.335203 1_554
Be26 Be30 2.448407 1_555
Be26 Re1 2.526053 1_555
Be27 Be41 2.036436 1_555
Be27 Be37 2.036650 1_556
Be27 Be33 2.182357 1_555
Be27 Be8 2.198410 1_555
Be27 Be6 2.198609 1_555
Be27 Be5 2.198609 1_555
Be27 Be35 2.273936 1_555
Be28 Be35 2.175352 1_555
Be28 Be6 2.273935 1_555
Be28 Be8 2.273937 1_555
Be28 Be9 2.448402 1_566
Be28 Be43 2.448409 1_565
Be28 Re0 2.526054 1_455
Be29 Be41 2.036435 1_555
Be29 Be4 2.036650 1_555
Be29 Be39 2.198408 1_555
Be29 Be42 2.198610 1_555
Be29 Be33 2.273821 1_555
Be29 Be7 2.273937 1_555
Be30 Be35 2.448406 1_554
Be30 Be38 2.448406 1_455
Be30 Be33 2.448428 1_554
Be30 Be34 2.448428 1_455
Be30 Re0 2.490163 1_454
Be30 Re1 2.490163 1_555
Be31 Be4 2.036567 1_655
Be31 Be32 2.182459 1_565
Be31 Be7 2.182460 1_655
Be31 Be5 2.198444 1_555
Be31 Be6 2.198444 1_555
Be31 Be8 2.198606 1_555
Be31 Be40 2.273790 1_555
Be32 Be7 2.128805 1_645
Be32 Be38 2.175352 1_555
Be32 Be39 2.273937 1_555
Be32 Be40 2.335197 1_545
Be32 Be9 2.448402 1_655
Be32 Be43 2.448409 1_655
Be32 Re1 2.526054 1_655
Be33 Be41 2.242287 1_555
Be33 Be39 2.273820 1_555
Be33 Re1 2.526097 1_556
Be34 Be41 2.242287 1_555
Be34 Be8 2.273820 1_555
Be34 Re0 2.526097 1_554
Be35 Be42 2.182461 1_556
Be35 Be37 2.242304 1_556
Be35 Be6 2.273936 1_555
Be35 Be36 2.335144 1_556
Be35 Be9 2.448401 1_566
Be35 Re0 2.526059 1_455
Be36 Be7 2.175352 1_555
Be36 Be6 2.182458 1_554
Be36 Be37 2.242297 1_555
Be36 Be42 2.273929 1_555
Be36 Be9 2.448402 1_565
Be36 Re1 2.526058 1_565
Be37 Be6 2.036566 1_554
Be37 Be5 2.036566 1_554
Be37 Be42 2.036566 1_555
Be37 Be38 2.242304 1_555
Be38 Be5 2.182461 1_554
Be38 Be9 2.448401 1_655
Be38 Re1 2.526059 1_655
Be39 Be41 2.036435 1_555
Be39 Be40 2.182475 1_545
Be40 Be6 2.273789 1_555
Be40 Be43 2.448409 1_665
Be40 Re0 2.526052 1_555
Be41 Be8 2.036435 1_555
Be42 Be7 2.273935 1_555
Be43 Be7 2.448409 1_545
Be43 Re0 2.490147 1_445
Be43 Re1 2.490147 1_555
