# generated using pymatgen
data_NaAs4BrO6
_symmetry_space_group_name_H-M   'P 1'
_cell_length_a   5.32698600
_cell_length_b   8.21356900
_cell_length_c   19.58551800
_cell_angle_alpha   90.00000000
_cell_angle_beta   90.00000000
_cell_angle_gamma   90.00000000
_symmetry_Int_Tables_number   1
_chemical_formula_structural   NaAs4BrO6
_chemical_formula_sum   'Na4 As16 Br4 O24'
_cell_volume   856.93627547
_cell_formula_units_Z   4
loop_
 _symmetry_equiv_pos_site_id
 _symmetry_equiv_pos_as_xyz
  1  'x, y, z'
loop_
 _atom_site_type_symbol
 _atom_site_label
 _atom_site_symmetry_multiplicity
 _atom_site_fract_x
 _atom_site_fract_y
 _atom_site_fract_z
 _atom_site_occupancy
  Na  Na0  1  0.75000000  0.39888500  0.55659500  1
  Na  Na1  1  0.25000000  0.89888500  0.94340500  1
  Na  Na2  1  0.75000000  0.10111500  0.05659500  1
  Na  Na3  1  0.25000000  0.60111500  0.44340500  1
  As  As0  1  0.75000000  0.40807600  0.17777000  1
  As  As1  1  0.25000000  0.66309400  0.61455500  1
  As  As2  1  0.75000000  0.09192400  0.67777000  1
  As  As3  1  0.25000000  0.83690600  0.11455500  1
  As  As4  1  0.25000000  0.90807600  0.32223000  1
  As  As5  1  0.75000000  0.70984900  0.33401300  1
  As  As6  1  0.25000000  0.15438900  0.45157100  1
  As  As7  1  0.75000000  0.79015100  0.83401300  1
  As  As8  1  0.75000000  0.16309400  0.88544500  1
  As  As9  1  0.25000000  0.59192400  0.82223000  1
  As  As10  1  0.75000000  0.33690600  0.38544500  1
  As  As11  1  0.25000000  0.29015100  0.66598700  1
  As  As12  1  0.25000000  0.34561100  0.95157100  1
  As  As13  1  0.75000000  0.65438900  0.04842900  1
  As  As14  1  0.25000000  0.20984900  0.16598700  1
  As  As15  1  0.75000000  0.84561100  0.54842900  1
  Br  Br0  1  0.75000000  0.00407800  0.21766400  1
  Br  Br1  1  0.25000000  0.99592200  0.78233600  1
  Br  Br2  1  0.25000000  0.50407800  0.28233600  1
  Br  Br3  1  0.75000000  0.49592200  0.71766400  1
  O  O0  1  0.99818300  0.30691400  0.45097700  1
  O  O1  1  0.50207600  0.17671700  0.62191500  1
  O  O2  1  0.49818300  0.69308600  0.54902300  1
  O  O3  1  0.99792400  0.17671700  0.62191500  1
  O  O4  1  0.75000000  0.61068700  0.13910400  1
  O  O5  1  0.50207600  0.32328300  0.12191500  1
  O  O6  1  0.25000000  0.38931300  0.86089600  1
  O  O7  1  0.50181700  0.30691400  0.45097700  1
  O  O8  1  0.75000000  0.55424600  0.40365800  1
  O  O9  1  0.49792400  0.82328300  0.37808500  1
  O  O10  1  0.00207600  0.82328300  0.37808500  1
  O  O11  1  0.49792400  0.67671700  0.87808500  1
  O  O12  1  0.75000000  0.94575400  0.90365800  1
  O  O13  1  0.25000000  0.11068700  0.36089600  1
  O  O14  1  0.25000000  0.44575400  0.59634200  1
  O  O15  1  0.25000000  0.05424600  0.09634200  1
  O  O16  1  0.00181700  0.80691400  0.04902300  1
  O  O17  1  0.00207600  0.67671700  0.87808500  1
  O  O18  1  0.00181700  0.69308600  0.54902300  1
  O  O19  1  0.49818300  0.80691400  0.04902300  1
  O  O20  1  0.50181700  0.19308600  0.95097700  1
  O  O21  1  0.75000000  0.88931300  0.63910400  1
  O  O22  1  0.99818300  0.19308600  0.95097700  1
  O  O23  1  0.99792400  0.32328300  0.12191500  1
loop_
_geom_bond_atom_site_label_1
_geom_bond_atom_site_label_2
_geom_bond_distance
_geom_bond_site_symmetry_2
Na0 O0 2.568568 1_555
Na0 O7 2.568568 1_555
Na0 O1 2.590513 1_555
Na0 O3 2.590513 1_555
Na0 O18 2.767779 1_655
Na0 O2 2.767779 1_555
Na0 O14 2.801499 1_655
Na0 O14 2.801499 1_555
Na1 O19 2.568568 1_556
Na1 O16 2.568568 1_556
Na1 O11 2.590513 1_555
Na1 O17 2.590513 1_555
Na1 O20 2.767779 1_565
Na1 O22 2.767779 1_465
Na1 O12 2.801499 1_455
Na1 O12 2.801499 1_555
Na2 O20 2.568568 1_554
Na2 O22 2.568568 1_554
Na2 O23 2.590513 1_555
Na2 O5 2.590513 1_555
Na2 O19 2.767779 1_545
Na2 O16 2.767779 1_645
Na2 O15 2.801499 1_655
Na2 O15 2.801499 1_555
Na3 O18 2.568568 1_555
Na3 O2 2.568568 1_555
Na3 O9 2.590513 1_555
Na3 O10 2.590513 1_555
Na3 O7 2.767779 1_555
Na3 O0 2.767779 1_455
Na3 O8 2.801499 1_455
Na3 O8 2.801499 1_555
As0 O4 1.828365 1_555
As0 O5 1.850942 1_555
As0 O23 1.850942 1_555
As1 O14 1.820428 1_555
As1 O2 1.858995 1_555
As1 O18 1.858995 1_555
As2 O21 1.828365 1_545
As2 O1 1.850942 1_555
As2 O3 1.850942 1_555
As3 O15 1.820428 1_565
As3 O16 1.858995 1_555
As3 O19 1.858995 1_555
As4 O13 1.828365 1_565
As4 O10 1.850942 1_555
As4 O9 1.850942 1_555
As5 O10 1.848311 1_655
As5 O9 1.848311 1_555
As5 O8 1.869228 1_555
As6 O13 1.811829 1_555
As6 O0 1.835484 1_455
As6 O7 1.835484 1_555
As7 O17 1.848311 1_655
As7 O11 1.848311 1_555
As7 O12 1.869228 1_555
As8 O12 1.820428 1_545
As8 O20 1.858995 1_555
As8 O22 1.858995 1_555
As9 O6 1.828365 1_555
As9 O17 1.850942 1_555
As9 O11 1.850942 1_555
As10 O8 1.820428 1_555
As10 O7 1.858995 1_555
As10 O0 1.858995 1_555
As11 O3 1.848311 1_455
As11 O1 1.848311 1_555
As11 O14 1.869228 1_555
As12 O6 1.811829 1_555
As12 O20 1.835484 1_555
As12 O22 1.835484 1_455
As13 O4 1.811829 1_555
As13 O16 1.835484 1_655
As13 O19 1.835484 1_555
As14 O5 1.848311 1_555
As14 O23 1.848311 1_455
As14 O15 1.869228 1_555
As15 O21 1.811829 1_555
As15 O18 1.835484 1_655
As15 O2 1.835484 1_555
Br0 Na2 3.253747 1_555
Br1 Na1 3.253747 1_555
Br2 Na3 3.253747 1_555
Br3 Na0 3.253747 1_555
