# generated using pymatgen
data_Cr12P7
_symmetry_space_group_name_H-M   'P 1'
_cell_length_a   8.99163865
_cell_length_b   8.95488779
_cell_length_c   3.45889339
_cell_angle_alpha   90.00000000
_cell_angle_beta   90.00000000
_cell_angle_gamma   119.95066137
_symmetry_Int_Tables_number   1
_chemical_formula_structural   Cr12P7
_chemical_formula_sum   'Cr12 P7'
_cell_volume   241.31399255
_cell_formula_units_Z   1
loop_
 _symmetry_equiv_pos_site_id
 _symmetry_equiv_pos_as_xyz
  1  'x, y, z'
loop_
 _atom_site_type_symbol
 _atom_site_label
 _atom_site_symmetry_multiplicity
 _atom_site_fract_x
 _atom_site_fract_y
 _atom_site_fract_z
 _atom_site_occupancy
  Cr  Cr0  1  0.36937718  0.50665669  0.00000000  1
  Cr  Cr1  1  0.13835447  0.62998377  0.00000000  1
  Cr  Cr2  1  0.49291411  0.86368304  -0.00000000  1
  Cr  Cr3  1  0.01845675  0.27256648  0.00000000  1
  Cr  Cr4  1  0.25479880  0.98330926  0.00000000  1
  Cr  Cr5  1  0.72736400  0.74608844  -0.00000000  1
  Cr  Cr6  1  0.51095838  0.13550380  0.50000000  1
  Cr  Cr7  1  0.63028003  0.49034982  0.50000000  1
  Cr  Cr8  1  0.86112294  0.37083427  0.50000000  1
  Cr  Cr9  1  0.78935858  0.00281576  0.50000000  1
  Cr  Cr10  1  0.21107669  0.20387094  0.50000000  1
  Cr  Cr11  1  0.99470576  0.79286273  0.50000000  1
  P  P0  1  -0.00133003  0.00146305  -0.00000000  1
  P  P1  1  0.44277094  0.28893239  -0.00000000  1
  P  P2  1  0.84946481  0.55954492  -0.00000000  1
  P  P3  1  0.71276685  0.15304115  0.00000000  1
  P  P4  1  0.16904149  0.46216292  0.50000000  1
  P  P5  1  0.29421880  0.83007390  0.50000000  1
  P  P6  1  0.53429746  0.70625566  0.50000000  1
loop_
_geom_bond_atom_site_label_1
_geom_bond_atom_site_label_2
_geom_bond_distance
_geom_bond_site_symmetry_2
Cr0 P1 2.349802 1_555
Cr0 P4 2.382842 1_555
Cr0 P4 2.382842 1_554
Cr0 P6 2.395448 1_554
Cr0 P6 2.395448 1_555
Cr1 P2 2.347192 1_455
Cr1 P5 2.378700 1_554
Cr1 P5 2.378700 1_555
Cr1 P4 2.395752 1_554
Cr1 P4 2.395752 1_555
Cr2 P3 2.346778 1_565
Cr2 P6 2.374998 1_554
Cr2 P6 2.374998 1_555
Cr2 P5 2.395118 1_554
Cr2 P5 2.395118 1_555
Cr3 P4 2.326256 1_555
Cr3 P4 2.326256 1_554
Cr3 P0 2.343950 1_555
Cr3 P3 2.400650 1_455
Cr4 P5 2.342055 1_554
Cr4 P5 2.342055 1_555
Cr4 P0 2.388336 1_565
Cr4 P1 2.393340 1_565
Cr5 P6 2.348098 1_555
Cr5 P6 2.348098 1_554
Cr5 P0 2.368620 1_665
Cr5 P2 2.413939 1_555
Cr6 P5 2.440574 1_545
Cr6 P3 2.454350 1_556
Cr6 P3 2.454350 1_555
Cr6 P1 2.468952 1_555
Cr6 P1 2.468952 1_556
Cr7 P2 2.457587 1_556
Cr7 P2 2.457587 1_555
Cr7 P1 2.459752 1_555
Cr7 P1 2.459752 1_556
Cr7 P6 2.479727 1_555
Cr8 P3 2.444668 1_556
Cr8 P3 2.444668 1_555
Cr8 P2 2.456533 1_556
Cr8 P2 2.456533 1_555
Cr8 P4 2.464458 1_655
Cr9 P3 2.489989 1_555
Cr9 P3 2.489989 1_556
Cr9 P6 2.496167 1_545
Cr9 P0 2.560472 1_655
Cr9 P0 2.560472 1_656
Cr10 P1 2.515325 1_556
Cr10 P1 2.515325 1_555
Cr10 P4 2.523021 1_555
Cr10 P0 2.543102 1_555
Cr10 P0 2.543102 1_556
Cr11 P2 2.517403 1_555
Cr11 P2 2.517403 1_556
Cr11 P0 2.532818 1_666
Cr11 P0 2.532818 1_665
Cr11 P5 2.543193 1_655
