# generated using pymatgen
data_SrCrO4
_symmetry_space_group_name_H-M   'P 1'
_cell_length_a   7.39811993
_cell_length_b   6.75339517
_cell_length_c   8.60044429
_cell_angle_alpha   53.28021315
_cell_angle_beta   90.00000000
_cell_angle_gamma   90.00000000
_symmetry_Int_Tables_number   1
_chemical_formula_structural   SrCrO4
_chemical_formula_sum   'Sr4 Cr4 O16'
_cell_volume   344.43354633
_cell_formula_units_Z   4
loop_
 _symmetry_equiv_pos_site_id
 _symmetry_equiv_pos_as_xyz
  1  'x, y, z'
loop_
 _atom_site_type_symbol
 _atom_site_label
 _atom_site_symmetry_multiplicity
 _atom_site_fract_x
 _atom_site_fract_y
 _atom_site_fract_z
 _atom_site_occupancy
  Sr  Sr0  1  0.34291027  0.33004268  0.77181295  1
  Sr  Sr1  1  0.84291027  0.66995732  0.72818705  1
  Sr  Sr2  1  0.65708973  0.66995732  0.22818705  1
  Sr  Sr3  1  0.15708973  0.33004268  0.27181295  1
  Cr  Cr0  1  0.33583615  0.81249292  0.80270561  1
  Cr  Cr1  1  0.83583615  0.18750708  0.69729439  1
  Cr  Cr2  1  0.66416385  0.18750708  0.19729439  1
  Cr  Cr3  1  0.16416385  0.81249292  0.30270561  1
  O  O0  1  0.28190384  0.09451088  0.61905659  1
  O  O1  1  0.78190384  0.90548912  0.88094341  1
  O  O2  1  0.71809616  0.90548912  0.38094341  1
  O  O3  1  0.21809616  0.09451088  0.11905659  1
  O  O4  1  0.49708984  0.69823758  0.74512315  1
  O  O5  1  0.99708984  0.30176242  0.75487685  1
  O  O6  1  0.50291016  0.30176242  0.25487685  1
  O  O7  1  0.00291016  0.69823758  0.24512315  1
  O  O8  1  0.39843925  0.83202971  0.97614407  1
  O  O9  1  0.89843925  0.16797029  0.52385593  1
  O  O10  1  0.60156075  0.16797029  0.02385593  1
  O  O11  1  0.10156075  0.83202971  0.47614407  1
  O  O12  1  0.16153395  0.62116752  0.88032472  1
  O  O13  1  0.66153395  0.37883248  0.61967528  1
  O  O14  1  0.83846605  0.37883248  0.11967528  1
  O  O15  1  0.33846605  0.62116752  0.38032472  1
loop_
_geom_bond_atom_site_label_1
_geom_bond_atom_site_label_2
_geom_bond_distance
_geom_bond_site_symmetry_2
Cr0 O0 1.638320 1_565
Cr0 O8 1.640813 1_555
Cr0 O4 1.649479 1_555
Cr0 O12 1.657268 1_555
Cr1 O1 1.638320 1_545
Cr1 O9 1.640813 1_555
Cr1 O5 1.649479 1_555
Cr1 O13 1.657268 1_555
Cr2 O2 1.638320 1_545
Cr2 O10 1.640813 1_555
Cr2 O6 1.649479 1_555
Cr2 O14 1.657268 1_555
Cr3 O3 1.638320 1_565
Cr3 O11 1.640813 1_555
Cr3 O7 1.649479 1_555
Cr3 O15 1.657268 1_555
O0 Sr3 2.573161 1_555
O0 Sr0 2.637944 1_555
O1 Sr2 2.573161 1_556
O1 Sr1 2.637944 1_555
O2 Sr1 2.573161 1_555
O2 Sr2 2.637944 1_555
O3 Sr0 2.573161 1_554
O3 Sr3 2.637944 1_555
O4 Sr1 2.576136 1_555
O4 Sr0 2.618056 1_555
O5 Sr0 2.576136 1_655
O5 Sr1 2.618056 1_555
O6 Sr3 2.576136 1_555
O6 Sr2 2.618056 1_555
O7 Sr2 2.576136 1_455
O7 Sr3 2.618056 1_555
O8 Sr2 2.592541 1_556
O8 Sr0 2.738785 1_565
O9 Sr3 2.592541 1_655
O9 Sr1 2.738785 1_545
O10 Sr0 2.592541 1_554
O10 Sr2 2.738785 1_545
O11 Sr1 2.592541 1_455
O11 Sr3 2.738785 1_565
O12 Sr1 2.619453 1_455
O12 Sr3 2.699472 1_556
O12 Sr0 2.954841 1_555
O13 Sr0 2.619453 1_555
O13 Sr2 2.699472 1_555
O13 Sr1 2.954841 1_555
O14 Sr3 2.619453 1_655
O14 Sr1 2.699472 1_554
O14 Sr2 2.954841 1_555
O15 Sr2 2.619453 1_555
O15 Sr0 2.699472 1_555
O15 Sr3 2.954841 1_555
