# generated using pymatgen
data_SiO2
_symmetry_space_group_name_H-M   'P 1'
_cell_length_a   7.40009948
_cell_length_b   8.76051178
_cell_length_c   15.77509283
_cell_angle_alpha   90.00000000
_cell_angle_beta   91.15343239
_cell_angle_gamma   90.00000000
_symmetry_Int_Tables_number   1
_chemical_formula_structural   SiO2
_chemical_formula_sum   'Si18 O36'
_cell_volume   1022.47088732
_cell_formula_units_Z   18
loop_
 _symmetry_equiv_pos_site_id
 _symmetry_equiv_pos_as_xyz
  1  'x, y, z'
loop_
 _atom_site_type_symbol
 _atom_site_label
 _atom_site_symmetry_multiplicity
 _atom_site_fract_x
 _atom_site_fract_y
 _atom_site_fract_z
 _atom_site_occupancy
  Si  Si0  1  0.35162581  0.65556826  0.07993170  1
  Si  Si1  1  0.14837419  0.65556826  0.42006830  1
  Si  Si2  1  0.38989526  0.65014776  0.67956571  1
  Si  Si3  1  0.64837419  0.34443174  0.92006830  1
  Si  Si4  1  0.25000000  0.49608329  0.25000000  1
  Si  Si5  1  0.11010474  0.65014776  0.82043429  1
  Si  Si6  1  0.74640579  0.60271821  0.05603424  1
  Si  Si7  1  0.44329094  0.82541551  0.50921710  1
  Si  Si8  1  0.94329094  0.17458449  0.00921710  1
  Si  Si9  1  0.85162581  0.34443174  0.57993170  1
  Si  Si10  1  0.25359421  0.39728179  0.94396576  1
  Si  Si11  1  0.88989526  0.34985224  0.17956571  1
  Si  Si12  1  0.75000000  0.50391671  0.75000000  1
  Si  Si13  1  0.61010474  0.34985224  0.32043429  1
  Si  Si14  1  0.05670906  0.82541551  0.99078290  1
  Si  Si15  1  0.24640579  0.39728179  0.55603424  1
  Si  Si16  1  0.75359421  0.60271821  0.44396576  1
  Si  Si17  1  0.55670906  0.17458449  0.49078290  1
  O  O0  1  0.91118132  0.22017986  0.10734711  1
  O  O1  1  0.59897363  0.71891039  0.47114841  1
  O  O2  1  0.69833532  0.39007794  0.82534764  1
  O  O3  1  0.56429792  0.69496744  0.07670865  1
  O  O4  1  0.91656564  0.61437054  0.77603758  1
  O  O5  1  0.06429792  0.30503256  0.57670865  1
  O  O6  1  0.93570208  0.69496744  0.42329135  1
  O  O7  1  0.08881868  0.77982014  0.89265289  1
  O  O8  1  0.58343436  0.61437054  0.72396242  1
  O  O9  1  0.20231823  0.51175445  0.47888005  1
  O  O10  1  0.80166468  0.39007794  0.67465236  1
  O  O11  1  0.74036046  0.19765344  0.54665302  1
  O  O12  1  0.81273752  0.50619721  0.13785106  1
  O  O13  1  0.29768177  0.51175445  0.02111995  1
  O  O14  1  0.09897363  0.28108961  0.97114841  1
  O  O15  1  0.43570208  0.30503256  0.92329135  1
  O  O16  1  0.41656564  0.38562946  0.27603758  1
  O  O17  1  0.31273752  0.49380279  0.63785106  1
  O  O18  1  0.68726248  0.50619721  0.36214894  1
  O  O19  1  0.90102637  0.71891039  0.02885159  1
  O  O20  1  0.30166468  0.60992206  0.17465236  1
  O  O21  1  0.18726248  0.49380279  0.86214894  1
  O  O22  1  0.00000000  0.00000000  -0.00000000  1
  O  O23  1  0.08343436  0.38562946  0.22396242  1
  O  O24  1  0.19833532  0.60992206  0.32534764  1
  O  O25  1  0.58881868  0.22017986  0.39265289  1
  O  O26  1  0.41118132  0.77982014  0.60734711  1
  O  O27  1  0.70231823  0.48824555  0.97888005  1
  O  O28  1  0.75963954  0.19765344  0.95334698  1
  O  O29  1  0.75000000  0.29080433  0.25000000  1
  O  O30  1  0.79768177  0.48824555  0.52111995  1
  O  O31  1  0.50000000  0.00000000  0.50000000  1
  O  O32  1  0.25000000  0.70919567  0.75000000  1
  O  O33  1  0.40102637  0.28108961  0.52885159  1
  O  O34  1  0.25963954  0.80234656  0.45334698  1
  O  O35  1  0.24036046  0.80234656  0.04665302  1
loop_
_geom_bond_atom_site_label_1
_geom_bond_atom_site_label_2
_geom_bond_distance
_geom_bond_site_symmetry_2
O0 Si11 1.618773 1_555
O0 Si8 1.620850 1_555
O1 Si16 1.596549 1_555
O1 Si7 1.608204 1_555
O2 Si3 1.597359 1_555
O2 Si12 1.603700 1_555
O3 Si6 1.610354 1_555
O3 Si0 1.613000 1_555
O4 Si5 1.612322 1_655
O4 Si12 1.613676 1_555
O5 Si15 1.610354 1_555
O5 Si9 1.613000 1_455
O6 Si16 1.610354 1_555
O6 Si1 1.613000 1_655
O7 Si5 1.618773 1_555
O7 Si14 1.620850 1_555
O8 Si2 1.612322 1_555
O8 Si12 1.613676 1_555
O9 Si15 1.605462 1_555
O9 Si1 1.610120 1_555
O10 Si9 1.597359 1_555
O10 Si12 1.603700 1_555
O11 Si9 1.609211 1_555
O11 Si17 1.617527 1_555
O12 Si6 1.611290 1_555
O12 Si11 1.618608 1_555
O13 Si10 1.605462 1_554
O13 Si0 1.610120 1_555
O14 Si10 1.596549 1_555
O14 Si8 1.608204 1_456
O15 Si10 1.610354 1_555
O15 Si3 1.613000 1_555
O16 Si13 1.612322 1_555
O16 Si4 1.613676 1_555
O17 Si15 1.611290 1_555
O17 Si2 1.618608 1_555
O18 Si16 1.611290 1_555
O18 Si13 1.618608 1_555
O19 Si6 1.596549 1_555
O19 Si14 1.608204 1_654
O20 Si0 1.597359 1_555
O20 Si4 1.603700 1_555
O21 Si10 1.611290 1_555
O21 Si5 1.618608 1_555
O22 Si8 1.593400 1_455
O22 Si14 1.593400 1_544
O23 Si11 1.612322 1_455
O23 Si4 1.613676 1_555
O24 Si1 1.597359 1_555
O24 Si4 1.603700 1_555
O25 Si13 1.618773 1_555
O25 Si17 1.620850 1_555
O26 Si2 1.618773 1_555
O26 Si7 1.620850 1_555
O27 Si6 1.605462 1_556
O27 Si3 1.610120 1_555
O28 Si3 1.609211 1_555
O28 Si8 1.617527 1_556
O29 Si11 1.618696 1_555
O29 Si13 1.618696 1_555
O30 Si16 1.605462 1_555
O30 Si9 1.610120 1_555
O31 Si7 1.593400 1_545
O31 Si17 1.593400 1_555
O32 Si5 1.618696 1_555
O32 Si2 1.618696 1_555
O33 Si15 1.596549 1_555
O33 Si17 1.608204 1_555
O34 Si1 1.609211 1_555
O34 Si7 1.617527 1_555
O35 Si0 1.609211 1_555
O35 Si14 1.617527 1_554
