# generated using pymatgen
data_V2Cu3O8
_symmetry_space_group_name_H-M   'P 1'
_cell_length_a   8.03949000
_cell_length_b   6.29153100
_cell_length_c   6.65809536
_cell_angle_alpha   71.08460968
_cell_angle_beta   90.00000000
_cell_angle_gamma   90.00000000
_symmetry_Int_Tables_number   1
_chemical_formula_structural   V2Cu3O8
_chemical_formula_sum   'V4 Cu6 O16'
_cell_volume   318.58491976
_cell_formula_units_Z   2
loop_
 _symmetry_equiv_pos_site_id
 _symmetry_equiv_pos_as_xyz
  1  'x, y, z'
loop_
 _atom_site_type_symbol
 _atom_site_label
 _atom_site_symmetry_multiplicity
 _atom_site_fract_x
 _atom_site_fract_y
 _atom_site_fract_z
 _atom_site_occupancy
  V  V0  1  0.38396700  0.25118300  0.85233200  1
  V  V1  1  0.11603300  0.25118300  0.35233200  1
  V  V2  1  0.88396700  0.74881700  0.64766800  1
  V  V3  1  0.61603300  0.74881700  0.14766800  1
  Cu  Cu0  1  0.24148000  0.73555100  0.39257000  1
  Cu  Cu1  1  0.00000000  0.00000000  0.00000000  1
  Cu  Cu2  1  0.25852000  0.73555100  0.89257000  1
  Cu  Cu3  1  0.74148000  0.26444900  0.10743000  1
  Cu  Cu4  1  0.75852000  0.26444900  0.60743000  1
  Cu  Cu5  1  0.50000000  0.00000000  0.50000000  1
  O  O0  1  0.98658300  0.22808500  0.14202400  1
  O  O1  1  0.49344100  0.75264200  0.93701800  1
  O  O2  1  0.72332700  0.49635400  0.23389400  1
  O  O3  1  0.48658300  0.77191500  0.35797600  1
  O  O4  1  0.23563300  0.02320800  0.94947300  1
  O  O5  1  0.99344100  0.24735800  0.56298200  1
  O  O6  1  0.27667300  0.50364600  0.76610600  1
  O  O7  1  0.00655900  0.75264200  0.43701800  1
  O  O8  1  0.01341700  0.77191500  0.85797600  1
  O  O9  1  0.22332700  0.50364600  0.26610600  1
  O  O10  1  0.51341700  0.22808500  0.64202400  1
  O  O11  1  0.50655900  0.24735800  0.06298200  1
  O  O12  1  0.77667300  0.49635400  0.73389400  1
  O  O13  1  0.26436700  0.02320800  0.44947300  1
  O  O14  1  0.73563300  0.97679200  0.55052700  1
  O  O15  1  0.76436700  0.97679200  0.05052700  1
loop_
_geom_bond_atom_site_label_1
_geom_bond_atom_site_label_2
_geom_bond_distance
_geom_bond_site_symmetry_2
Cu0 O9 1.911955 1_555
Cu0 O7 1.920092 1_555
Cu0 O13 1.974166 1_565
Cu0 O3 1.988495 1_555
Cu0 O6 2.457961 1_555
Cu1 O15 1.921271 1_445
Cu1 O4 1.921271 1_554
Cu1 O8 1.960821 1_544
Cu1 O0 1.960821 1_455
Cu2 O6 1.911955 1_555
Cu2 O1 1.920092 1_555
Cu2 O4 1.974166 1_565
Cu2 O8 1.988495 1_555
Cu2 O9 2.457961 1_556
Cu3 O2 1.911955 1_555
Cu3 O11 1.920092 1_555
Cu3 O15 1.974166 1_545
Cu3 O0 1.988495 1_555
Cu3 O12 2.457961 1_554
Cu4 O12 1.911955 1_555
Cu4 O5 1.920092 1_555
Cu4 O14 1.974166 1_545
Cu4 O10 1.988495 1_555
Cu4 O2 2.457961 1_555
Cu5 O13 1.921271 1_555
Cu5 O14 1.921271 1_545
Cu5 O3 1.960821 1_545
Cu5 O10 1.960821 1_555
O0 V1 1.787968 1_655
O1 V3 1.707965 1_556
O2 V3 1.733604 1_555
O3 V3 1.787968 1_555
O4 V0 1.815556 1_555
O5 V1 1.707965 1_655
O6 V0 1.733604 1_555
O7 V2 1.707965 1_455
O8 V2 1.787968 1_455
O9 V1 1.733604 1_555
O10 V0 1.787968 1_555
O11 V0 1.707965 1_554
O12 V2 1.733604 1_555
O13 V1 1.815556 1_555
O14 V2 1.815556 1_555
O15 V3 1.815556 1_555
