# generated using pymatgen
data_Hf5(In2Rh)2
_symmetry_space_group_name_H-M   'P 1'
_cell_length_a   6.70867772
_cell_length_b   15.10614992
_cell_length_c   34.72943752
_cell_angle_alpha   90.00000000
_cell_angle_beta   90.00000000
_cell_angle_gamma   90.00000000
_symmetry_Int_Tables_number   1
_chemical_formula_structural   Hf5(In2Rh)2
_chemical_formula_sum   'Hf80 In64 Rh32'
_cell_volume   3519.56077742
_cell_formula_units_Z   16
loop_
 _symmetry_equiv_pos_site_id
 _symmetry_equiv_pos_as_xyz
  1  'x, y, z'
loop_
 _atom_site_type_symbol
 _atom_site_label
 _atom_site_symmetry_multiplicity
 _atom_site_fract_x
 _atom_site_fract_y
 _atom_site_fract_z
 _atom_site_occupancy
  Hf  Hf0_0  1  0.00000000  0.13268484  0.11143053  1
  Hf  Hf0_1  1  0.00000000  0.13268484  0.61143052  1
  Hf  Hf0_2  1  0.00000000  0.63268483  0.11143053  1
  Hf  Hf0_3  1  0.00000000  0.63268483  0.61143052  1
  Hf  Hf0_4  1  0.50000000  0.13268484  0.11143053  1
  Hf  Hf0_5  1  0.50000000  0.13268484  0.61143052  1
  Hf  Hf0_6  1  0.50000000  0.63268483  0.11143053  1
  Hf  Hf0_7  1  0.50000000  0.63268483  0.61143052  1
  Hf  Hf1_0  1  0.00000000  0.32057281  0.04046526  1
  Hf  Hf1_1  1  0.00000000  0.32057281  0.54046527  1
  Hf  Hf1_2  1  0.00000000  0.82057280  0.04046526  1
  Hf  Hf1_3  1  0.00000000  0.82057280  0.54046527  1
  Hf  Hf1_4  1  0.50000000  0.32057281  0.04046526  1
  Hf  Hf1_5  1  0.50000000  0.32057281  0.54046527  1
  Hf  Hf1_6  1  0.50000000  0.82057280  0.04046526  1
  Hf  Hf1_7  1  0.50000000  0.82057280  0.54046527  1
  Hf  Hf2_0  1  0.00000000  0.38268484  0.13856947  1
  Hf  Hf2_1  1  0.00000000  0.38268484  0.63856947  1
  Hf  Hf2_2  1  0.00000000  0.88268483  0.13856947  1
  Hf  Hf2_3  1  0.00000000  0.88268483  0.63856947  1
  Hf  Hf2_4  1  0.50000000  0.38268484  0.13856947  1
  Hf  Hf2_5  1  0.50000000  0.38268484  0.63856947  1
  Hf  Hf2_6  1  0.50000000  0.88268483  0.13856947  1
  Hf  Hf2_7  1  0.50000000  0.88268483  0.63856947  1
  Hf  Hf3_0  1  0.00000000  0.42942719  0.29046527  1
  Hf  Hf3_1  1  0.00000000  0.42942719  0.79046527  1
  Hf  Hf3_2  1  0.00000000  0.92942720  0.29046527  1
  Hf  Hf3_3  1  0.00000000  0.92942720  0.79046527  1
  Hf  Hf3_4  1  0.50000000  0.42942719  0.29046527  1
  Hf  Hf3_5  1  0.50000000  0.42942719  0.79046527  1
  Hf  Hf3_6  1  0.50000000  0.92942720  0.29046527  1
  Hf  Hf3_7  1  0.50000000  0.92942720  0.79046527  1
  Hf  Hf4_0  1  0.00000000  0.11731516  0.36143053  1
  Hf  Hf4_1  1  0.00000000  0.11731516  0.86143053  1
  Hf  Hf4_2  1  0.00000000  0.61731516  0.36143053  1
  Hf  Hf4_3  1  0.00000000  0.61731516  0.86143053  1
  Hf  Hf4_4  1  0.50000000  0.11731516  0.36143053  1
  Hf  Hf4_5  1  0.50000000  0.11731516  0.86143053  1
  Hf  Hf4_6  1  0.50000000  0.61731516  0.36143053  1
  Hf  Hf4_7  1  0.50000000  0.61731516  0.86143053  1
  Hf  Hf5_0  1  0.00000000  0.36731516  0.38856947  1
  Hf  Hf5_1  1  0.00000000  0.36731516  0.88856948  1
  Hf  Hf5_2  1  0.00000000  0.86731516  0.38856947  1
  Hf  Hf5_3  1  0.00000000  0.86731516  0.88856948  1
  Hf  Hf5_4  1  0.50000000  0.36731516  0.38856947  1
  Hf  Hf5_5  1  0.50000000  0.36731516  0.88856948  1
  Hf  Hf5_6  1  0.50000000  0.86731516  0.38856947  1
  Hf  Hf5_7  1  0.50000000  0.86731516  0.88856948  1
  Hf  Hf6_0  1  0.00000000  0.07057281  0.20953473  1
  Hf  Hf6_1  1  0.00000000  0.07057281  0.70953473  1
  Hf  Hf6_2  1  0.00000000  0.57057280  0.20953473  1
  Hf  Hf6_3  1  0.00000000  0.57057280  0.70953473  1
  Hf  Hf6_4  1  0.50000000  0.07057281  0.20953473  1
  Hf  Hf6_5  1  0.50000000  0.07057281  0.70953473  1
  Hf  Hf6_6  1  0.50000000  0.57057280  0.20953473  1
  Hf  Hf6_7  1  0.50000000  0.57057280  0.70953473  1
  Hf  Hf7_0  1  0.00000000  0.00000000  0.00000000  1
  Hf  Hf7_1  1  0.00000000  0.00000000  0.50000000  1
  Hf  Hf7_2  1  0.00000000  0.50000000  0.00000000  1
  Hf  Hf7_3  1  0.00000000  0.50000000  0.50000000  1
  Hf  Hf7_4  1  0.50000000  0.00000000  0.00000000  1
  Hf  Hf7_5  1  0.50000000  0.00000000  0.50000000  1
  Hf  Hf7_6  1  0.50000000  0.50000000  0.00000000  1
  Hf  Hf7_7  1  0.50000000  0.50000000  0.50000000  1
  Hf  Hf8_0  1  0.00000000  0.17942720  0.45953474  1
  Hf  Hf8_1  1  0.00000000  0.17942720  0.95953474  1
  Hf  Hf8_2  1  0.00000000  0.67942720  0.45953474  1
  Hf  Hf8_3  1  0.00000000  0.67942720  0.95953474  1
  Hf  Hf8_4  1  0.50000000  0.17942720  0.45953474  1
  Hf  Hf8_5  1  0.50000000  0.17942720  0.95953474  1
  Hf  Hf8_6  1  0.50000000  0.67942720  0.45953474  1
  Hf  Hf8_7  1  0.50000000  0.67942720  0.95953474  1
  Hf  Hf9_0  1  0.00000000  0.25000000  0.25000000  1
  Hf  Hf9_1  1  0.00000000  0.25000000  0.75000000  1
  Hf  Hf9_2  1  0.00000000  0.75000000  0.25000000  1
  Hf  Hf9_3  1  0.00000000  0.75000000  0.75000000  1
  Hf  Hf9_4  1  0.50000000  0.25000000  0.25000000  1
  Hf  Hf9_5  1  0.50000000  0.25000000  0.75000000  1
  Hf  Hf9_6  1  0.50000000  0.75000000  0.25000000  1
  Hf  Hf9_7  1  0.50000000  0.75000000  0.75000000  1
  In  In0_0  1  0.25000000  0.40167600  0.21661501  1
  In  In0_1  1  0.25000000  0.40167600  0.71661502  1
  In  In0_2  1  0.25000000  0.90167600  0.21661501  1
  In  In0_3  1  0.25000000  0.90167600  0.71661502  1
  In  In0_4  1  0.75000000  0.40167600  0.21661501  1
  In  In0_5  1  0.75000000  0.40167600  0.71661502  1
  In  In0_6  1  0.75000000  0.90167600  0.21661501  1
  In  In0_7  1  0.75000000  0.90167600  0.71661502  1
  In  In1_0  1  0.25000000  0.34832400  0.46661502  1
  In  In1_1  1  0.25000000  0.34832400  0.96661501  1
  In  In1_2  1  0.25000000  0.84832400  0.46661502  1
  In  In1_3  1  0.25000000  0.84832400  0.96661501  1
  In  In1_4  1  0.75000000  0.34832400  0.46661502  1
  In  In1_5  1  0.75000000  0.34832400  0.96661501  1
  In  In1_6  1  0.75000000  0.84832400  0.46661502  1
  In  In1_7  1  0.75000000  0.84832400  0.96661501  1
  In  In2_0  1  0.25000000  0.02787992  0.42556977  1
  In  In2_1  1  0.25000000  0.02787992  0.92556977  1
  In  In2_2  1  0.25000000  0.52787991  0.42556977  1
  In  In2_3  1  0.25000000  0.52787991  0.92556977  1
  In  In2_4  1  0.75000000  0.02787992  0.42556977  1
  In  In2_5  1  0.75000000  0.02787992  0.92556977  1
  In  In2_6  1  0.75000000  0.52787991  0.42556977  1
  In  In2_7  1  0.75000000  0.52787991  0.92556977  1
  In  In3_0  1  0.25000000  0.27787992  0.32443023  1
  In  In3_1  1  0.25000000  0.27787992  0.82443022  1
  In  In3_2  1  0.25000000  0.77787991  0.32443023  1
  In  In3_3  1  0.25000000  0.77787991  0.82443022  1
  In  In3_4  1  0.75000000  0.27787992  0.32443023  1
  In  In3_5  1  0.75000000  0.27787992  0.82443022  1
  In  In3_6  1  0.75000000  0.77787991  0.32443023  1
  In  In3_7  1  0.75000000  0.77787991  0.82443022  1
  In  In4_0  1  0.25000000  0.09832400  0.28338499  1
  In  In4_1  1  0.25000000  0.09832400  0.78338498  1
  In  In4_2  1  0.25000000  0.59832400  0.28338499  1
  In  In4_3  1  0.25000000  0.59832400  0.78338498  1
  In  In4_4  1  0.75000000  0.09832400  0.28338499  1
  In  In4_5  1  0.75000000  0.09832400  0.78338498  1
  In  In4_6  1  0.75000000  0.59832400  0.28338499  1
  In  In4_7  1  0.75000000  0.59832400  0.78338498  1
  In  In5_0  1  0.25000000  0.47212009  0.07443023  1
  In  In5_1  1  0.25000000  0.47212009  0.57443022  1
  In  In5_2  1  0.25000000  0.97212009  0.07443023  1
  In  In5_3  1  0.25000000  0.97212009  0.57443022  1
  In  In5_4  1  0.75000000  0.47212009  0.07443023  1
  In  In5_5  1  0.75000000  0.47212009  0.57443022  1
  In  In5_6  1  0.75000000  0.97212009  0.07443023  1
  In  In5_7  1  0.75000000  0.97212009  0.57443022  1
  In  In6_0  1  0.25000000  0.22212008  0.17556978  1
  In  In6_1  1  0.25000000  0.22212008  0.67556977  1
  In  In6_2  1  0.25000000  0.72212009  0.17556978  1
  In  In6_3  1  0.25000000  0.72212009  0.67556977  1
  In  In6_4  1  0.75000000  0.22212008  0.17556978  1
  In  In6_5  1  0.75000000  0.22212008  0.67556977  1
  In  In6_6  1  0.75000000  0.72212009  0.17556978  1
  In  In6_7  1  0.75000000  0.72212009  0.67556977  1
  In  In7_0  1  0.25000000  0.15167600  0.03338498  1
  In  In7_1  1  0.25000000  0.15167600  0.53338498  1
  In  In7_2  1  0.25000000  0.65167600  0.03338498  1
  In  In7_3  1  0.25000000  0.65167600  0.53338498  1
  In  In7_4  1  0.75000000  0.15167600  0.03338498  1
  In  In7_5  1  0.75000000  0.15167600  0.53338498  1
  In  In7_6  1  0.75000000  0.65167600  0.03338498  1
  In  In7_7  1  0.75000000  0.65167600  0.53338498  1
  Rh  Rh0_0  1  0.25000000  0.22254699  0.40338467  1
  Rh  Rh0_1  1  0.25000000  0.22254699  0.90338467  1
  Rh  Rh0_2  1  0.25000000  0.72254699  0.40338467  1
  Rh  Rh0_3  1  0.25000000  0.72254699  0.90338467  1
  Rh  Rh0_4  1  0.75000000  0.22254699  0.40338467  1
  Rh  Rh0_5  1  0.75000000  0.22254699  0.90338467  1
  Rh  Rh0_6  1  0.75000000  0.72254699  0.40338467  1
  Rh  Rh0_7  1  0.75000000  0.72254699  0.90338467  1
  Rh  Rh1_0  1  0.25000000  0.27745301  0.09661533  1
  Rh  Rh1_1  1  0.25000000  0.27745301  0.59661533  1
  Rh  Rh1_2  1  0.25000000  0.77745301  0.09661533  1
  Rh  Rh1_3  1  0.25000000  0.77745301  0.59661533  1
  Rh  Rh1_4  1  0.75000000  0.27745301  0.09661533  1
  Rh  Rh1_5  1  0.75000000  0.27745301  0.59661533  1
  Rh  Rh1_6  1  0.75000000  0.77745301  0.09661533  1
  Rh  Rh1_7  1  0.75000000  0.77745301  0.59661533  1
  Rh  Rh2_0  1  0.25000000  0.47254700  0.34661533  1
  Rh  Rh2_1  1  0.25000000  0.47254700  0.84661533  1
  Rh  Rh2_2  1  0.25000000  0.97254699  0.34661533  1
  Rh  Rh2_3  1  0.25000000  0.97254699  0.84661533  1
  Rh  Rh2_4  1  0.75000000  0.47254700  0.34661533  1
  Rh  Rh2_5  1  0.75000000  0.47254700  0.84661533  1
  Rh  Rh2_6  1  0.75000000  0.97254699  0.34661533  1
  Rh  Rh2_7  1  0.75000000  0.97254699  0.84661533  1
  Rh  Rh3_0  1  0.25000000  0.02745300  0.15338467  1
  Rh  Rh3_1  1  0.25000000  0.02745300  0.65338467  1
  Rh  Rh3_2  1  0.25000000  0.52745301  0.15338467  1
  Rh  Rh3_3  1  0.25000000  0.52745301  0.65338467  1
  Rh  Rh3_4  1  0.75000000  0.02745300  0.15338467  1
  Rh  Rh3_5  1  0.75000000  0.02745300  0.65338467  1
  Rh  Rh3_6  1  0.75000000  0.52745301  0.15338467  1
  Rh  Rh3_7  1  0.75000000  0.52745301  0.65338467  1
loop_
_geom_bond_atom_site_label_1
_geom_bond_atom_site_label_2
_geom_bond_distance
_geom_bond_site_symmetry_2
Hf0_0 Rh3_0 2.731823 1_555
Hf0_0 Rh3_4 2.731823 1_455
Hf0_0 Rh1_0 2.803590 1_555
Hf0_0 Rh1_4 2.803590 1_455
Hf0_0 In6_0 3.098387 1_555
Hf0_0 In6_4 3.098387 1_455
Hf0_0 In7_0 3.200295 1_555
Hf0_0 In7_4 3.200295 1_455
Hf0_0 In5_2 3.216713 1_545
Hf0_0 In5_6 3.216713 1_445
Hf0_1 Rh3_1 2.731823 1_555
Hf0_1 Rh3_5 2.731823 1_455
Hf0_1 Rh1_1 2.803590 1_555
Hf0_1 Rh1_5 2.803590 1_455
Hf0_1 In6_1 3.098387 1_555
Hf0_1 In6_5 3.098387 1_455
Hf0_1 In7_1 3.200295 1_555
Hf0_1 In7_5 3.200295 1_455
Hf0_1 In5_3 3.216713 1_545
Hf0_1 In5_7 3.216713 1_445
Hf0_2 Rh3_2 2.731823 1_555
Hf0_2 Rh3_6 2.731823 1_455
Hf0_2 Rh1_2 2.803590 1_555
Hf0_2 Rh1_6 2.803590 1_455
Hf0_2 In6_2 3.098387 1_555
Hf0_2 In6_6 3.098387 1_455
Hf0_2 In7_2 3.200295 1_555
Hf0_2 In7_6 3.200295 1_455
Hf0_2 In5_0 3.216713 1_555
Hf0_2 In5_4 3.216713 1_455
Hf0_3 Rh3_3 2.731823 1_555
Hf0_3 Rh3_7 2.731823 1_455
Hf0_3 Rh1_3 2.803590 1_555
Hf0_3 Rh1_7 2.803590 1_455
Hf0_3 In6_3 3.098387 1_555
Hf0_3 In6_7 3.098387 1_455
Hf0_3 In7_3 3.200295 1_555
Hf0_3 In7_7 3.200295 1_455
Hf0_3 In5_1 3.216713 1_555
Hf0_3 In5_5 3.216713 1_455
Hf0_4 Rh3_4 2.731823 1_555
Hf0_4 Rh3_0 2.731823 1_555
Hf0_4 Rh1_4 2.803590 1_555
Hf0_4 Rh1_0 2.803590 1_555
Hf0_4 In6_0 3.098387 1_555
Hf0_4 In6_4 3.098387 1_555
Hf0_4 In7_4 3.200295 1_555
Hf0_4 In7_0 3.200295 1_555
Hf0_4 In5_2 3.216713 1_545
Hf0_4 In5_6 3.216713 1_545
Hf0_5 Rh3_5 2.731823 1_555
Hf0_5 Rh3_1 2.731823 1_555
Hf0_5 Rh1_5 2.803590 1_555
Hf0_5 Rh1_1 2.803590 1_555
Hf0_5 In6_1 3.098387 1_555
Hf0_5 In6_5 3.098387 1_555
Hf0_5 In7_5 3.200295 1_555
Hf0_5 In7_1 3.200295 1_555
Hf0_5 In5_7 3.216713 1_545
Hf0_5 In5_3 3.216713 1_545
Hf0_6 Rh3_6 2.731823 1_555
Hf0_6 Rh3_2 2.731823 1_555
Hf0_6 Rh1_2 2.803590 1_555
Hf0_6 Rh1_6 2.803590 1_555
Hf0_6 In6_2 3.098387 1_555
Hf0_6 In6_6 3.098387 1_555
Hf0_6 In7_6 3.200295 1_555
Hf0_6 In7_2 3.200295 1_555
Hf0_6 In5_4 3.216713 1_555
Hf0_6 In5_0 3.216713 1_555
Hf0_7 Rh3_7 2.731823 1_555
Hf0_7 Rh3_3 2.731823 1_555
Hf0_7 Rh1_3 2.803590 1_555
Hf0_7 Rh1_7 2.803590 1_555
Hf0_7 In6_7 3.098387 1_555
Hf0_7 In6_3 3.098387 1_555
Hf0_7 In7_3 3.200295 1_555
Hf0_7 In7_7 3.200295 1_555
Hf0_7 In5_1 3.216713 1_555
Hf0_7 In5_5 3.216713 1_555
Hf1_0 Rh1_0 2.653285 1_555
Hf1_0 Rh1_4 2.653285 1_455
Hf1_0 Hf7_2 3.053118 1_555
Hf1_0 In7_0 3.063153 1_555
Hf1_0 In7_4 3.063153 1_455
Hf1_0 In5_0 3.073303 1_555
Hf1_0 In5_4 3.073303 1_455
Hf1_0 In1_1 3.093012 1_554
Hf1_0 In1_5 3.093012 1_454
Hf1_1 Rh1_1 2.653285 1_555
Hf1_1 Rh1_5 2.653285 1_455
Hf1_1 Hf7_3 3.053118 1_555
Hf1_1 In7_1 3.063153 1_555
Hf1_1 In7_5 3.063153 1_455
Hf1_1 In5_1 3.073303 1_555
Hf1_1 In5_5 3.073303 1_455
Hf1_1 In1_0 3.093012 1_555
Hf1_1 In1_4 3.093012 1_455
Hf1_2 Rh1_2 2.653285 1_555
Hf1_2 Rh1_6 2.653285 1_455
Hf1_2 Hf7_0 3.053118 1_565
Hf1_2 In7_2 3.063153 1_555
Hf1_2 In7_6 3.063153 1_455
Hf1_2 In5_2 3.073303 1_555
Hf1_2 In5_6 3.073303 1_455
Hf1_2 In1_3 3.093012 1_554
Hf1_2 In1_7 3.093012 1_454
Hf1_3 Rh1_3 2.653285 1_555
Hf1_3 Rh1_7 2.653285 1_455
Hf1_3 Hf7_1 3.053118 1_565
Hf1_3 In7_3 3.063153 1_555
Hf1_3 In7_7 3.063153 1_455
Hf1_3 In5_3 3.073303 1_555
Hf1_3 In5_7 3.073303 1_455
Hf1_3 In1_2 3.093012 1_555
Hf1_3 In1_6 3.093012 1_455
Hf1_4 Rh1_0 2.653285 1_555
Hf1_4 Rh1_4 2.653285 1_555
Hf1_4 Hf7_6 3.053118 1_555
Hf1_4 In7_0 3.063153 1_555
Hf1_4 In7_4 3.063153 1_555
Hf1_4 In5_4 3.073303 1_555
Hf1_4 In5_0 3.073303 1_555
Hf1_4 In1_1 3.093012 1_554
Hf1_4 In1_5 3.093012 1_554
Hf1_5 Rh1_5 2.653285 1_555
Hf1_5 Rh1_1 2.653285 1_555
Hf1_5 Hf7_7 3.053118 1_555
Hf1_5 In7_5 3.063153 1_555
Hf1_5 In7_1 3.063153 1_555
Hf1_5 In5_5 3.073303 1_555
Hf1_5 In5_1 3.073303 1_555
Hf1_5 In1_0 3.093012 1_555
Hf1_5 In1_4 3.093012 1_555
Hf1_6 Rh1_2 2.653285 1_555
Hf1_6 Rh1_6 2.653285 1_555
Hf1_6 Hf7_4 3.053118 1_565
Hf1_6 In7_6 3.063153 1_555
Hf1_6 In7_2 3.063153 1_555
Hf1_6 In5_2 3.073303 1_555
Hf1_6 In5_6 3.073303 1_555
Hf1_6 In1_3 3.093012 1_554
Hf1_6 In1_7 3.093012 1_554
Hf1_7 Rh1_7 2.653285 1_555
Hf1_7 Rh1_3 2.653285 1_555
Hf1_7 Hf7_5 3.053118 1_565
Hf1_7 In7_3 3.063153 1_555
Hf1_7 In7_7 3.063153 1_555
Hf1_7 In5_7 3.073303 1_555
Hf1_7 In5_3 3.073303 1_555
Hf1_7 In1_6 3.093012 1_555
Hf1_7 In1_2 3.093012 1_555
Hf2_0 Rh1_0 2.731823 1_555
Hf2_0 Rh1_4 2.731823 1_455
Hf2_0 Rh3_2 2.803590 1_555
Hf2_0 Rh3_6 2.803590 1_455
Hf2_0 In5_0 3.098387 1_555
Hf2_0 In5_4 3.098387 1_455
Hf2_0 In0_0 3.200295 1_555
Hf2_0 In0_4 3.200295 1_455
Hf2_0 In6_0 3.216713 1_555
Hf2_0 In6_4 3.216713 1_455
Hf2_1 Rh1_1 2.731823 1_555
Hf2_1 Rh1_5 2.731823 1_455
Hf2_1 Rh3_3 2.803590 1_555
Hf2_1 Rh3_7 2.803590 1_455
Hf2_1 In5_1 3.098387 1_555
Hf2_1 In5_5 3.098387 1_455
Hf2_1 In0_1 3.200295 1_555
Hf2_1 In0_5 3.200295 1_455
Hf2_1 In6_1 3.216713 1_555
Hf2_1 In6_5 3.216713 1_455
Hf2_2 Rh1_2 2.731823 1_555
Hf2_2 Rh1_6 2.731823 1_455
Hf2_2 Rh3_0 2.803590 1_565
Hf2_2 Rh3_4 2.803590 1_465
Hf2_2 In5_2 3.098387 1_555
Hf2_2 In5_6 3.098387 1_455
Hf2_2 In0_2 3.200295 1_555
Hf2_2 In0_6 3.200295 1_455
Hf2_2 In6_2 3.216713 1_555
Hf2_2 In6_6 3.216713 1_455
Hf2_3 Rh1_3 2.731823 1_555
Hf2_3 Rh1_7 2.731823 1_455
Hf2_3 Rh3_1 2.803590 1_565
Hf2_3 Rh3_5 2.803590 1_465
Hf2_3 In5_3 3.098387 1_555
Hf2_3 In5_7 3.098387 1_455
Hf2_3 In0_3 3.200295 1_555
Hf2_3 In0_7 3.200295 1_455
Hf2_3 In6_3 3.216713 1_555
Hf2_3 In6_7 3.216713 1_455
Hf2_4 Rh1_0 2.731823 1_555
Hf2_4 Rh1_4 2.731823 1_555
Hf2_4 Rh3_6 2.803590 1_555
Hf2_4 Rh3_2 2.803590 1_555
Hf2_4 In5_4 3.098387 1_555
Hf2_4 In5_0 3.098387 1_555
Hf2_4 In0_0 3.200295 1_555
Hf2_4 In0_4 3.200295 1_555
Hf2_4 In6_4 3.216713 1_555
Hf2_4 In6_0 3.216713 1_555
Hf2_5 Rh1_5 2.731823 1_555
Hf2_5 Rh1_1 2.731823 1_555
Hf2_5 Rh3_3 2.803590 1_555
Hf2_5 Rh3_7 2.803590 1_555
Hf2_5 In5_1 3.098387 1_555
Hf2_5 In5_5 3.098387 1_555
Hf2_5 In0_1 3.200295 1_555
Hf2_5 In0_5 3.200295 1_555
Hf2_5 In6_1 3.216713 1_555
Hf2_5 In6_5 3.216713 1_555
Hf2_6 Rh1_6 2.731823 1_555
Hf2_6 Rh1_2 2.731823 1_555
Hf2_6 Rh3_0 2.803590 1_565
Hf2_6 Rh3_4 2.803590 1_565
Hf2_6 In5_6 3.098387 1_555
Hf2_6 In5_2 3.098387 1_555
Hf2_6 In0_6 3.200295 1_555
Hf2_6 In0_2 3.200295 1_555
Hf2_6 In6_6 3.216713 1_555
Hf2_6 In6_2 3.216713 1_555
Hf2_7 Rh1_7 2.731823 1_555
Hf2_7 Rh1_3 2.731823 1_555
Hf2_7 Rh3_1 2.803590 1_565
Hf2_7 Rh3_5 2.803590 1_565
Hf2_7 In5_7 3.098387 1_555
Hf2_7 In5_3 3.098387 1_555
Hf2_7 In0_3 3.200295 1_555
Hf2_7 In0_7 3.200295 1_555
Hf2_7 In6_3 3.216713 1_555
Hf2_7 In6_7 3.216713 1_555
Hf3_0 Rh2_0 2.653285 1_555
Hf3_0 Rh2_4 2.653285 1_455
Hf3_0 Hf9_0 3.053118 1_555
Hf3_0 In4_2 3.063153 1_555
Hf3_0 In4_6 3.063153 1_455
Hf3_0 In3_0 3.073303 1_555
Hf3_0 In3_4 3.073303 1_455
Hf3_0 In0_0 3.093012 1_555
Hf3_0 In0_4 3.093012 1_455
Hf3_1 Rh2_1 2.653285 1_555
Hf3_1 Rh2_5 2.653285 1_455
Hf3_1 Hf9_1 3.053118 1_555
Hf3_1 In4_3 3.063153 1_555
Hf3_1 In4_7 3.063153 1_455
Hf3_1 In3_1 3.073303 1_555
Hf3_1 In3_5 3.073303 1_455
Hf3_1 In0_1 3.093012 1_555
Hf3_1 In0_5 3.093012 1_455
Hf3_2 Rh2_2 2.653285 1_555
Hf3_2 Rh2_6 2.653285 1_455
Hf3_2 Hf9_2 3.053118 1_555
Hf3_2 In4_0 3.063153 1_565
Hf3_2 In4_4 3.063153 1_465
Hf3_2 In3_2 3.073303 1_555
Hf3_2 In3_6 3.073303 1_455
Hf3_2 In0_2 3.093012 1_555
Hf3_2 In0_6 3.093012 1_455
Hf3_3 Rh2_3 2.653285 1_555
Hf3_3 Rh2_7 2.653285 1_455
Hf3_3 Hf9_3 3.053118 1_555
Hf3_3 In4_1 3.063153 1_565
Hf3_3 In4_5 3.063153 1_465
Hf3_3 In3_7 3.073303 1_455
Hf3_3 In3_3 3.073303 1_555
Hf3_3 In0_3 3.093012 1_555
Hf3_3 In0_7 3.093012 1_455
Hf3_4 Rh2_4 2.653285 1_555
Hf3_4 Rh2_0 2.653285 1_555
Hf3_4 Hf9_4 3.053118 1_555
Hf3_4 In4_6 3.063153 1_555
Hf3_4 In4_2 3.063153 1_555
Hf3_4 In3_4 3.073303 1_555
Hf3_4 In3_0 3.073303 1_555
Hf3_4 In0_0 3.093012 1_555
Hf3_4 In0_4 3.093012 1_555
Hf3_5 Rh2_5 2.653285 1_555
Hf3_5 Rh2_1 2.653285 1_555
Hf3_5 Hf9_5 3.053118 1_555
Hf3_5 In4_7 3.063153 1_555
Hf3_5 In4_3 3.063153 1_555
Hf3_5 In3_1 3.073303 1_555
Hf3_5 In3_5 3.073303 1_555
Hf3_5 In0_1 3.093012 1_555
Hf3_5 In0_5 3.093012 1_555
Hf3_6 Rh2_6 2.653285 1_555
Hf3_6 Rh2_2 2.653285 1_555
Hf3_6 Hf9_6 3.053118 1_555
Hf3_6 In4_4 3.063153 1_565
Hf3_6 In4_0 3.063153 1_565
Hf3_6 In3_6 3.073303 1_555
Hf3_6 In3_2 3.073303 1_555
Hf3_6 In0_6 3.093012 1_555
Hf3_6 In0_2 3.093012 1_555
Hf3_7 Rh2_7 2.653285 1_555
Hf3_7 Rh2_3 2.653285 1_555
Hf3_7 Hf9_7 3.053118 1_555
Hf3_7 In4_5 3.063153 1_565
Hf3_7 In4_1 3.063153 1_565
Hf3_7 In3_7 3.073303 1_555
Hf3_7 In3_3 3.073303 1_555
Hf3_7 In0_3 3.093012 1_555
Hf3_7 In0_7 3.093012 1_555
Hf4_0 Rh0_0 2.731823 1_555
Hf4_0 Rh0_4 2.731823 1_455
Hf4_0 Rh2_2 2.803590 1_545
Hf4_0 Rh2_6 2.803590 1_445
Hf4_0 In2_0 3.098387 1_555
Hf4_0 In2_4 3.098387 1_455
Hf4_0 In4_0 3.200295 1_555
Hf4_0 In4_4 3.200295 1_455
Hf4_0 In3_0 3.216713 1_555
Hf4_0 In3_4 3.216713 1_455
Hf4_1 Rh0_1 2.731823 1_555
Hf4_1 Rh0_5 2.731823 1_455
Hf4_1 Rh2_3 2.803590 1_545
Hf4_1 Rh2_7 2.803590 1_445
Hf4_1 In2_1 3.098387 1_555
Hf4_1 In2_5 3.098387 1_455
Hf4_1 In4_1 3.200295 1_555
Hf4_1 In4_5 3.200295 1_455
Hf4_1 In3_1 3.216713 1_555
Hf4_1 In3_5 3.216713 1_455
Hf4_2 Rh0_2 2.731823 1_555
Hf4_2 Rh0_6 2.731823 1_455
Hf4_2 Rh2_0 2.803590 1_555
Hf4_2 Rh2_4 2.803590 1_455
Hf4_2 In2_2 3.098387 1_555
Hf4_2 In2_6 3.098387 1_455
Hf4_2 In4_2 3.200295 1_555
Hf4_2 In4_6 3.200295 1_455
Hf4_2 In3_2 3.216713 1_555
Hf4_2 In3_6 3.216713 1_455
Hf4_3 Rh0_3 2.731823 1_555
Hf4_3 Rh0_7 2.731823 1_455
Hf4_3 Rh2_1 2.803590 1_555
Hf4_3 Rh2_5 2.803590 1_455
Hf4_3 In2_3 3.098387 1_555
Hf4_3 In2_7 3.098387 1_455
Hf4_3 In4_3 3.200295 1_555
Hf4_3 In4_7 3.200295 1_455
Hf4_3 In3_3 3.216713 1_555
Hf4_3 In3_7 3.216713 1_455
Hf4_4 Rh0_4 2.731823 1_555
Hf4_4 Rh0_0 2.731823 1_555
Hf4_4 Rh2_6 2.803590 1_545
Hf4_4 Rh2_2 2.803590 1_545
Hf4_4 In2_0 3.098387 1_555
Hf4_4 In2_4 3.098387 1_555
Hf4_4 In4_4 3.200295 1_555
Hf4_4 In4_0 3.200295 1_555
Hf4_4 In3_0 3.216713 1_555
Hf4_4 In3_4 3.216713 1_555
Hf4_5 Rh0_5 2.731823 1_555
Hf4_5 Rh0_1 2.731823 1_555
Hf4_5 Rh2_3 2.803590 1_545
Hf4_5 Rh2_7 2.803590 1_545
Hf4_5 In2_5 3.098387 1_555
Hf4_5 In2_1 3.098387 1_555
Hf4_5 In4_1 3.200295 1_555
Hf4_5 In4_5 3.200295 1_555
Hf4_5 In3_5 3.216713 1_555
Hf4_5 In3_1 3.216713 1_555
Hf4_6 Rh0_2 2.731823 1_555
Hf4_6 Rh0_6 2.731823 1_555
Hf4_6 Rh2_0 2.803590 1_555
Hf4_6 Rh2_4 2.803590 1_555
Hf4_6 In2_6 3.098387 1_555
Hf4_6 In2_2 3.098387 1_555
Hf4_6 In4_6 3.200295 1_555
Hf4_6 In4_2 3.200295 1_555
Hf4_6 In3_6 3.216713 1_555
Hf4_6 In3_2 3.216713 1_555
Hf4_7 Rh0_3 2.731823 1_555
Hf4_7 Rh0_7 2.731823 1_555
Hf4_7 Rh2_1 2.803590 1_555
Hf4_7 Rh2_5 2.803590 1_555
Hf4_7 In2_3 3.098387 1_555
Hf4_7 In2_7 3.098387 1_555
Hf4_7 In4_7 3.200295 1_555
Hf4_7 In4_3 3.200295 1_555
Hf4_7 In3_7 3.216713 1_555
Hf4_7 In3_3 3.216713 1_555
Hf5_0 Rh2_0 2.731823 1_555
Hf5_0 Rh2_4 2.731823 1_455
Hf5_0 Rh0_0 2.803590 1_555
Hf5_0 Rh0_4 2.803590 1_455
Hf5_0 In3_0 3.098387 1_555
Hf5_0 In3_4 3.098387 1_455
Hf5_0 In1_0 3.200295 1_555
Hf5_0 In1_4 3.200295 1_455
Hf5_0 In2_2 3.216713 1_555
Hf5_0 In2_6 3.216713 1_455
Hf5_1 Rh2_1 2.731823 1_555
Hf5_1 Rh2_5 2.731823 1_455
Hf5_1 Rh0_1 2.803590 1_555
Hf5_1 Rh0_5 2.803590 1_455
Hf5_1 In3_1 3.098387 1_555
Hf5_1 In3_5 3.098387 1_455
Hf5_1 In1_1 3.200295 1_555
Hf5_1 In1_5 3.200295 1_455
Hf5_1 In2_3 3.216713 1_555
Hf5_1 In2_7 3.216713 1_455
Hf5_2 Rh2_2 2.731823 1_555
Hf5_2 Rh2_6 2.731823 1_455
Hf5_2 Rh0_2 2.803590 1_555
Hf5_2 Rh0_6 2.803590 1_455
Hf5_2 In3_2 3.098387 1_555
Hf5_2 In3_6 3.098387 1_455
Hf5_2 In1_2 3.200295 1_555
Hf5_2 In1_6 3.200295 1_455
Hf5_2 In2_0 3.216713 1_565
Hf5_2 In2_4 3.216713 1_465
Hf5_3 Rh2_3 2.731823 1_555
Hf5_3 Rh2_7 2.731823 1_455
Hf5_3 Rh0_3 2.803590 1_555
Hf5_3 Rh0_7 2.803590 1_455
Hf5_3 In3_3 3.098387 1_555
Hf5_3 In3_7 3.098387 1_455
Hf5_3 In1_7 3.200295 1_455
Hf5_3 In1_3 3.200295 1_555
Hf5_3 In2_1 3.216713 1_565
Hf5_3 In2_5 3.216713 1_465
Hf5_4 Rh2_0 2.731823 1_555
Hf5_4 Rh2_4 2.731823 1_555
Hf5_4 Rh0_4 2.803590 1_555
Hf5_4 Rh0_0 2.803590 1_555
Hf5_4 In3_4 3.098387 1_555
Hf5_4 In3_0 3.098387 1_555
Hf5_4 In1_4 3.200295 1_555
Hf5_4 In1_0 3.200295 1_555
Hf5_4 In2_2 3.216713 1_555
Hf5_4 In2_6 3.216713 1_555
Hf5_5 Rh2_5 2.731823 1_555
Hf5_5 Rh2_1 2.731823 1_555
Hf5_5 Rh0_1 2.803590 1_555
Hf5_5 Rh0_5 2.803590 1_555
Hf5_5 In3_1 3.098387 1_555
Hf5_5 In3_5 3.098387 1_555
Hf5_5 In1_1 3.200295 1_555
Hf5_5 In1_5 3.200295 1_555
Hf5_5 In2_3 3.216713 1_555
Hf5_5 In2_7 3.216713 1_555
Hf5_6 Rh2_2 2.731823 1_555
Hf5_6 Rh2_6 2.731823 1_555
Hf5_6 Rh0_2 2.803590 1_555
Hf5_6 Rh0_6 2.803590 1_555
Hf5_6 In3_2 3.098387 1_555
Hf5_6 In3_6 3.098387 1_555
Hf5_6 In1_2 3.200295 1_555
Hf5_6 In1_6 3.200295 1_555
Hf5_6 In2_4 3.216713 1_565
Hf5_6 In2_0 3.216713 1_565
Hf5_7 Rh2_7 2.731823 1_555
Hf5_7 Rh2_3 2.731823 1_555
Hf5_7 Rh0_7 2.803590 1_555
Hf5_7 Rh0_3 2.803590 1_555
Hf5_7 In3_7 3.098387 1_555
Hf5_7 In3_3 3.098387 1_555
Hf5_7 In1_7 3.200295 1_555
Hf5_7 In1_3 3.200295 1_555
Hf5_7 In2_1 3.216713 1_565
Hf5_7 In2_5 3.216713 1_565
Hf6_0 Rh3_0 2.653285 1_555
Hf6_0 Rh3_4 2.653285 1_455
Hf6_0 Hf9_0 3.053118 1_555
Hf6_0 In0_2 3.063153 1_545
Hf6_0 In0_6 3.063153 1_445
Hf6_0 In6_0 3.073303 1_555
Hf6_0 In6_4 3.073303 1_455
Hf6_0 In4_0 3.093012 1_555
Hf6_0 In4_4 3.093012 1_455
Hf6_1 Rh3_1 2.653285 1_555
Hf6_1 Rh3_5 2.653285 1_455
Hf6_1 Hf9_1 3.053118 1_555
Hf6_1 In0_3 3.063153 1_545
Hf6_1 In0_7 3.063153 1_445
Hf6_1 In6_1 3.073303 1_555
Hf6_1 In6_5 3.073303 1_455
Hf6_1 In4_1 3.093012 1_555
Hf6_1 In4_5 3.093012 1_455
Hf6_2 Rh3_2 2.653285 1_555
Hf6_2 Rh3_6 2.653285 1_455
Hf6_2 Hf9_2 3.053118 1_555
Hf6_2 In0_0 3.063153 1_555
Hf6_2 In0_4 3.063153 1_455
Hf6_2 In6_2 3.073303 1_555
Hf6_2 In6_6 3.073303 1_455
Hf6_2 In4_2 3.093012 1_555
Hf6_2 In4_6 3.093012 1_455
Hf6_3 Rh3_3 2.653285 1_555
Hf6_3 Rh3_7 2.653285 1_455
Hf6_3 Hf9_3 3.053118 1_555
Hf6_3 In0_1 3.063153 1_555
Hf6_3 In0_5 3.063153 1_455
Hf6_3 In6_3 3.073303 1_555
Hf6_3 In6_7 3.073303 1_455
Hf6_3 In4_3 3.093012 1_555
Hf6_3 In4_7 3.093012 1_455
Hf6_4 Rh3_0 2.653285 1_555
Hf6_4 Rh3_4 2.653285 1_555
Hf6_4 Hf9_4 3.053118 1_555
Hf6_4 In0_6 3.063153 1_545
Hf6_4 In0_2 3.063153 1_545
Hf6_4 In6_4 3.073303 1_555
Hf6_4 In6_0 3.073303 1_555
Hf6_4 In4_0 3.093012 1_555
Hf6_4 In4_4 3.093012 1_555
Hf6_5 Rh3_5 2.653285 1_555
Hf6_5 Rh3_1 2.653285 1_555
Hf6_5 Hf9_5 3.053118 1_555
Hf6_5 In0_7 3.063153 1_545
Hf6_5 In0_3 3.063153 1_545
Hf6_5 In6_1 3.073303 1_555
Hf6_5 In6_5 3.073303 1_555
Hf6_5 In4_5 3.093012 1_555
Hf6_5 In4_1 3.093012 1_555
Hf6_6 Rh3_6 2.653285 1_555
Hf6_6 Rh3_2 2.653285 1_555
Hf6_6 Hf9_6 3.053118 1_555
Hf6_6 In0_0 3.063153 1_555
Hf6_6 In0_4 3.063153 1_555
Hf6_6 In6_6 3.073303 1_555
Hf6_6 In6_2 3.073303 1_555
Hf6_6 In4_6 3.093012 1_555
Hf6_6 In4_2 3.093012 1_555
Hf6_7 Rh3_7 2.653285 1_555
Hf6_7 Rh3_3 2.653285 1_555
Hf6_7 Hf9_7 3.053118 1_555
Hf6_7 In0_1 3.063153 1_555
Hf6_7 In0_5 3.063153 1_555
Hf6_7 In6_7 3.073303 1_555
Hf6_7 In6_3 3.073303 1_555
Hf6_7 In4_7 3.093012 1_555
Hf6_7 In4_3 3.093012 1_555
Hf7_0 Hf8_1 3.053118 1_554
Hf7_0 In7_0 3.067081 1_555
Hf7_0 In7_4 3.067081 1_455
Hf7_0 In1_3 3.067081 1_544
Hf7_0 In1_7 3.067081 1_444
Hf7_0 In5_2 3.109997 1_545
Hf7_0 In5_6 3.109997 1_445
Hf7_0 In2_1 3.109997 1_554
Hf7_0 In2_5 3.109997 1_454
Hf7_0 Hf7_4 3.354339 1_555
Hf7_0 Hf7_4 3.354339 1_455
Hf7_1 Hf8_0 3.053118 1_555
Hf7_1 In7_1 3.067081 1_555
Hf7_1 In7_5 3.067081 1_455
Hf7_1 In1_2 3.067081 1_545
Hf7_1 In1_6 3.067081 1_445
Hf7_1 In5_3 3.109997 1_545
Hf7_1 In5_7 3.109997 1_445
Hf7_1 In2_0 3.109997 1_555
Hf7_1 In2_4 3.109997 1_455
Hf7_1 Hf7_5 3.354339 1_555
Hf7_1 Hf7_5 3.354339 1_455
Hf7_2 Hf8_3 3.053118 1_554
Hf7_2 In7_2 3.067081 1_555
Hf7_2 In7_6 3.067081 1_455
Hf7_2 In1_1 3.067081 1_554
Hf7_2 In1_5 3.067081 1_454
Hf7_2 In5_0 3.109997 1_555
Hf7_2 In5_4 3.109997 1_455
Hf7_2 In2_3 3.109997 1_554
Hf7_2 In2_7 3.109997 1_454
Hf7_2 Hf7_6 3.354339 1_555
Hf7_2 Hf7_6 3.354339 1_455
Hf7_3 Hf8_2 3.053118 1_555
Hf7_3 In7_3 3.067081 1_555
Hf7_3 In7_7 3.067081 1_455
Hf7_3 In1_0 3.067081 1_555
Hf7_3 In1_4 3.067081 1_455
Hf7_3 In5_1 3.109997 1_555
Hf7_3 In5_5 3.109997 1_455
Hf7_3 In2_2 3.109997 1_555
Hf7_3 In2_6 3.109997 1_455
Hf7_3 Hf7_7 3.354339 1_555
Hf7_3 Hf7_7 3.354339 1_455
Hf7_4 Hf8_5 3.053118 1_554
Hf7_4 In7_0 3.067081 1_555
Hf7_4 In7_4 3.067081 1_555
Hf7_4 In1_3 3.067081 1_544
Hf7_4 In1_7 3.067081 1_544
Hf7_4 In5_2 3.109997 1_545
Hf7_4 In5_6 3.109997 1_545
Hf7_4 In2_1 3.109997 1_554
Hf7_4 In2_5 3.109997 1_554
Hf7_5 Hf8_4 3.053118 1_555
Hf7_5 In7_5 3.067081 1_555
Hf7_5 In7_1 3.067081 1_555
Hf7_5 In1_2 3.067081 1_545
Hf7_5 In1_6 3.067081 1_545
Hf7_5 In5_3 3.109997 1_545
Hf7_5 In5_7 3.109997 1_545
Hf7_5 In2_0 3.109997 1_555
Hf7_5 In2_4 3.109997 1_555
Hf7_6 Hf8_7 3.053118 1_554
Hf7_6 In7_6 3.067081 1_555
Hf7_6 In7_2 3.067081 1_555
Hf7_6 In1_1 3.067081 1_554
Hf7_6 In1_5 3.067081 1_554
Hf7_6 In5_4 3.109997 1_555
Hf7_6 In5_0 3.109997 1_555
Hf7_6 In2_7 3.109997 1_554
Hf7_6 In2_3 3.109997 1_554
Hf7_7 Hf8_6 3.053118 1_555
Hf7_7 In7_3 3.067081 1_555
Hf7_7 In7_7 3.067081 1_555
Hf7_7 In1_4 3.067081 1_555
Hf7_7 In1_0 3.067081 1_555
Hf7_7 In5_5 3.109997 1_555
Hf7_7 In5_1 3.109997 1_555
Hf7_7 In2_2 3.109997 1_555
Hf7_7 In2_6 3.109997 1_555
Hf8_0 Rh0_0 2.653285 1_555
Hf8_0 Rh0_4 2.653285 1_455
Hf8_0 In1_0 3.063153 1_555
Hf8_0 In1_4 3.063153 1_455
Hf8_0 In2_0 3.073303 1_555
Hf8_0 In2_4 3.073303 1_455
Hf8_0 In7_1 3.093012 1_555
Hf8_0 In7_5 3.093012 1_455
Hf8_1 Rh0_1 2.653285 1_555
Hf8_1 Rh0_5 2.653285 1_455
Hf8_1 In1_1 3.063153 1_555
Hf8_1 In1_5 3.063153 1_455
Hf8_1 In2_1 3.073303 1_555
Hf8_1 In2_5 3.073303 1_455
Hf8_1 In7_0 3.093012 1_556
Hf8_1 In7_4 3.093012 1_456
Hf8_2 Rh0_2 2.653285 1_555
Hf8_2 Rh0_6 2.653285 1_455
Hf8_2 In1_2 3.063153 1_555
Hf8_2 In1_6 3.063153 1_455
Hf8_2 In2_2 3.073303 1_555
Hf8_2 In2_6 3.073303 1_455
Hf8_2 In7_3 3.093012 1_555
Hf8_2 In7_7 3.093012 1_455
Hf8_3 Rh0_3 2.653285 1_555
Hf8_3 Rh0_7 2.653285 1_455
Hf8_3 In1_3 3.063153 1_555
Hf8_3 In1_7 3.063153 1_455
Hf8_3 In2_3 3.073303 1_555
Hf8_3 In2_7 3.073303 1_455
Hf8_3 In7_2 3.093012 1_556
Hf8_3 In7_6 3.093012 1_456
Hf8_4 Rh0_0 2.653285 1_555
Hf8_4 Rh0_4 2.653285 1_555
Hf8_4 In1_4 3.063153 1_555
Hf8_4 In1_0 3.063153 1_555
Hf8_4 In2_4 3.073303 1_555
Hf8_4 In2_0 3.073303 1_555
Hf8_4 In7_1 3.093012 1_555
Hf8_4 In7_5 3.093012 1_555
Hf8_5 Rh0_5 2.653285 1_555
Hf8_5 Rh0_1 2.653285 1_555
Hf8_5 In1_1 3.063153 1_555
Hf8_5 In1_5 3.063153 1_555
Hf8_5 In2_5 3.073303 1_555
Hf8_5 In2_1 3.073303 1_555
Hf8_5 In7_4 3.093012 1_556
Hf8_5 In7_0 3.093012 1_556
Hf8_6 Rh0_2 2.653285 1_555
Hf8_6 Rh0_6 2.653285 1_555
Hf8_6 In1_6 3.063153 1_555
Hf8_6 In1_2 3.063153 1_555
Hf8_6 In2_6 3.073303 1_555
Hf8_6 In2_2 3.073303 1_555
Hf8_6 In7_3 3.093012 1_555
Hf8_6 In7_7 3.093012 1_555
Hf8_7 Rh0_3 2.653285 1_555
Hf8_7 Rh0_7 2.653285 1_555
Hf8_7 In1_7 3.063153 1_555
Hf8_7 In1_3 3.063153 1_555
Hf8_7 In2_7 3.073303 1_555
Hf8_7 In2_3 3.073303 1_555
Hf8_7 In7_2 3.093012 1_556
Hf8_7 In7_6 3.093012 1_556
Hf9_0 In0_0 3.067081 1_555
Hf9_0 In0_4 3.067081 1_455
Hf9_0 In4_0 3.067081 1_555
Hf9_0 In4_4 3.067081 1_455
Hf9_0 In6_0 3.109997 1_555
Hf9_0 In6_4 3.109997 1_455
Hf9_0 In3_0 3.109997 1_555
Hf9_0 In3_4 3.109997 1_455
Hf9_0 Hf9_4 3.354339 1_555
Hf9_0 Hf9_4 3.354339 1_455
Hf9_1 In0_5 3.067081 1_455
Hf9_1 In0_1 3.067081 1_555
Hf9_1 In4_5 3.067081 1_455
Hf9_1 In4_1 3.067081 1_555
Hf9_1 In6_1 3.109997 1_555
Hf9_1 In6_5 3.109997 1_455
Hf9_1 In3_1 3.109997 1_555
Hf9_1 In3_5 3.109997 1_455
Hf9_1 Hf9_5 3.354339 1_555
Hf9_1 Hf9_5 3.354339 1_455
Hf9_2 In0_2 3.067081 1_555
Hf9_2 In0_6 3.067081 1_455
Hf9_2 In4_2 3.067081 1_555
Hf9_2 In4_6 3.067081 1_455
Hf9_2 In6_2 3.109997 1_555
Hf9_2 In6_6 3.109997 1_455
Hf9_2 In3_2 3.109997 1_555
Hf9_2 In3_6 3.109997 1_455
Hf9_2 Hf9_6 3.354339 1_555
Hf9_2 Hf9_6 3.354339 1_455
Hf9_3 In0_3 3.067081 1_555
Hf9_3 In0_7 3.067081 1_455
Hf9_3 In4_3 3.067081 1_555
Hf9_3 In4_7 3.067081 1_455
Hf9_3 In6_3 3.109997 1_555
Hf9_3 In6_7 3.109997 1_455
Hf9_3 In3_3 3.109997 1_555
Hf9_3 In3_7 3.109997 1_455
Hf9_3 Hf9_7 3.354339 1_555
Hf9_3 Hf9_7 3.354339 1_455
Hf9_4 In0_4 3.067081 1_555
Hf9_4 In0_0 3.067081 1_555
Hf9_4 In4_4 3.067081 1_555
Hf9_4 In4_0 3.067081 1_555
Hf9_4 In6_4 3.109997 1_555
Hf9_4 In6_0 3.109997 1_555
Hf9_4 In3_4 3.109997 1_555
Hf9_4 In3_0 3.109997 1_555
Hf9_5 In0_5 3.067081 1_555
Hf9_5 In0_1 3.067081 1_555
Hf9_5 In4_5 3.067081 1_555
Hf9_5 In4_1 3.067081 1_555
Hf9_5 In6_1 3.109997 1_555
Hf9_5 In6_5 3.109997 1_555
Hf9_5 In3_5 3.109997 1_555
Hf9_5 In3_1 3.109997 1_555
Hf9_6 In0_6 3.067081 1_555
Hf9_6 In0_2 3.067081 1_555
Hf9_6 In4_2 3.067081 1_555
Hf9_6 In4_6 3.067081 1_555
Hf9_6 In6_6 3.109997 1_555
Hf9_6 In6_2 3.109997 1_555
Hf9_6 In3_2 3.109997 1_555
Hf9_6 In3_6 3.109997 1_555
Hf9_7 In0_3 3.067081 1_555
Hf9_7 In0_7 3.067081 1_555
Hf9_7 In4_7 3.067081 1_555
Hf9_7 In4_3 3.067081 1_555
Hf9_7 In6_7 3.109997 1_555
Hf9_7 In6_3 3.109997 1_555
Hf9_7 In3_7 3.109997 1_555
Hf9_7 In3_3 3.109997 1_555
In0_0 Rh3_2 2.903832 1_555
In0_0 In6_0 3.064163 1_555
In0_0 In0_4 3.354339 1_555
In0_0 In0_4 3.354339 1_455
In0_1 Rh3_3 2.903832 1_555
In0_1 In6_1 3.064163 1_555
In0_1 In0_5 3.354339 1_555
In0_1 In0_5 3.354339 1_455
In0_2 Rh3_0 2.903832 1_565
In0_2 In6_2 3.064163 1_555
In0_2 In0_6 3.354339 1_555
In0_2 In0_6 3.354339 1_455
In0_3 Rh3_1 2.903832 1_565
In0_3 In6_3 3.064163 1_555
In0_3 In0_7 3.354339 1_555
In0_3 In0_7 3.354339 1_455
In0_4 Rh3_6 2.903832 1_555
In0_4 In6_4 3.064163 1_555
In0_5 Rh3_7 2.903832 1_555
In0_5 In6_5 3.064163 1_555
In0_6 Rh3_4 2.903832 1_565
In0_6 In6_6 3.064163 1_555
In0_7 Rh3_5 2.903832 1_565
In0_7 In6_7 3.064163 1_555
In1_0 Rh0_0 2.903832 1_555
In1_0 In2_2 3.064163 1_555
In1_0 In1_4 3.354339 1_555
In1_0 In1_4 3.354339 1_455
In1_1 Rh0_1 2.903832 1_555
In1_1 In2_3 3.064163 1_555
In1_1 In1_5 3.354339 1_555
In1_1 In1_5 3.354339 1_455
In1_2 Rh0_2 2.903832 1_555
In1_2 In2_0 3.064163 1_565
In1_2 In1_6 3.354339 1_555
In1_2 In1_6 3.354339 1_455
In1_3 Rh0_3 2.903832 1_555
In1_3 In2_1 3.064163 1_565
In1_3 In1_7 3.354339 1_555
In1_3 In1_7 3.354339 1_455
In1_4 Rh0_4 2.903832 1_555
In1_4 In2_6 3.064163 1_555
In1_5 Rh0_5 2.903832 1_555
In1_5 In2_7 3.064163 1_555
In1_6 Rh0_6 2.903832 1_555
In1_6 In2_4 3.064163 1_565
In1_7 Rh0_7 2.903832 1_555
In1_7 In2_5 3.064163 1_565
In2_0 Rh2_2 2.866614 1_545
In2_0 Rh0_0 3.039930 1_555
In2_0 In2_4 3.354339 1_555
In2_0 In2_4 3.354339 1_455
In2_1 Rh2_3 2.866614 1_545
In2_1 Rh0_1 3.039930 1_555
In2_1 In2_5 3.354339 1_555
In2_1 In2_5 3.354339 1_455
In2_2 Rh2_0 2.866614 1_555
In2_2 Rh0_2 3.039930 1_555
In2_2 In2_6 3.354339 1_555
In2_2 In2_6 3.354339 1_455
In2_3 Rh2_1 2.866614 1_555
In2_3 Rh0_3 3.039930 1_555
In2_3 In2_7 3.354339 1_555
In2_3 In2_7 3.354339 1_455
In2_4 Rh2_6 2.866614 1_545
In2_4 Rh0_4 3.039930 1_555
In2_5 Rh2_7 2.866614 1_545
In2_5 Rh0_5 3.039930 1_555
In2_6 Rh2_4 2.866614 1_555
In2_6 Rh0_6 3.039930 1_555
In2_7 Rh2_5 2.866614 1_555
In2_7 Rh0_7 3.039930 1_555
In3_0 Rh0_0 2.866614 1_555
In3_0 Rh2_0 3.039930 1_555
In3_0 In4_0 3.064163 1_555
In3_0 In3_4 3.354339 1_555
In3_0 In3_4 3.354339 1_455
In3_1 Rh0_1 2.866614 1_555
In3_1 Rh2_1 3.039930 1_555
In3_1 In4_1 3.064163 1_555
In3_1 In3_5 3.354339 1_555
In3_1 In3_5 3.354339 1_455
In3_2 Rh0_2 2.866614 1_555
In3_2 Rh2_2 3.039930 1_555
In3_2 In4_2 3.064163 1_555
In3_2 In3_6 3.354339 1_555
In3_2 In3_6 3.354339 1_455
In3_3 Rh0_3 2.866614 1_555
In3_3 Rh2_3 3.039930 1_555
In3_3 In4_3 3.064163 1_555
In3_3 In3_7 3.354339 1_555
In3_3 In3_7 3.354339 1_455
In3_4 Rh0_4 2.866614 1_555
In3_4 Rh2_4 3.039930 1_555
In3_4 In4_4 3.064163 1_555
In3_5 Rh0_5 2.866614 1_555
In3_5 Rh2_5 3.039930 1_555
In3_5 In4_5 3.064163 1_555
In3_6 Rh0_6 2.866614 1_555
In3_6 Rh2_6 3.039930 1_555
In3_6 In4_6 3.064163 1_555
In3_7 Rh0_7 2.866614 1_555
In3_7 Rh2_7 3.039930 1_555
In3_7 In4_7 3.064163 1_555
In4_0 Rh2_2 2.903832 1_545
In4_0 In4_4 3.354339 1_555
In4_0 In4_4 3.354339 1_455
In4_1 Rh2_3 2.903832 1_545
In4_1 In4_5 3.354339 1_555
In4_1 In4_5 3.354339 1_455
In4_2 Rh2_0 2.903832 1_555
In4_2 In4_6 3.354339 1_555
In4_2 In4_6 3.354339 1_455
In4_3 Rh2_1 2.903832 1_555
In4_3 In4_7 3.354339 1_555
In4_3 In4_7 3.354339 1_455
In4_4 Rh2_6 2.903832 1_545
In4_5 Rh2_7 2.903832 1_545
In4_6 Rh2_4 2.903832 1_555
In4_7 Rh2_5 2.903832 1_555
In5_0 Rh3_2 2.866614 1_555
In5_0 Rh1_0 3.039930 1_555
In5_0 In7_2 3.064163 1_555
In5_0 In5_4 3.354339 1_555
In5_0 In5_4 3.354339 1_455
In5_1 Rh3_3 2.866614 1_555
In5_1 Rh1_1 3.039930 1_555
In5_1 In7_3 3.064163 1_555
In5_1 In5_5 3.354339 1_555
In5_1 In5_5 3.354339 1_455
In5_2 Rh3_0 2.866614 1_565
In5_2 Rh1_2 3.039930 1_555
In5_2 In7_0 3.064163 1_565
In5_2 In5_6 3.354339 1_555
In5_2 In5_6 3.354339 1_455
In5_3 Rh3_1 2.866614 1_565
In5_3 Rh1_3 3.039930 1_555
In5_3 In7_1 3.064163 1_565
In5_3 In5_7 3.354339 1_555
In5_3 In5_7 3.354339 1_455
In5_4 Rh3_6 2.866614 1_555
In5_4 Rh1_4 3.039930 1_555
In5_4 In7_6 3.064163 1_555
In5_5 Rh3_7 2.866614 1_555
In5_5 Rh1_5 3.039930 1_555
In5_5 In7_7 3.064163 1_555
In5_6 Rh3_4 2.866614 1_565
In5_6 Rh1_6 3.039930 1_555
In5_6 In7_4 3.064163 1_565
In5_7 Rh3_5 2.866614 1_565
In5_7 Rh1_7 3.039930 1_555
In5_7 In7_5 3.064163 1_565
In6_0 Rh1_0 2.866614 1_555
In6_0 Rh3_0 3.039930 1_555
In6_0 In6_4 3.354339 1_555
In6_0 In6_4 3.354339 1_455
In6_1 Rh1_1 2.866614 1_555
In6_1 Rh3_1 3.039930 1_555
In6_1 In6_5 3.354339 1_555
In6_1 In6_5 3.354339 1_455
In6_2 Rh1_2 2.866614 1_555
In6_2 Rh3_2 3.039930 1_555
In6_2 In6_6 3.354339 1_555
In6_2 In6_6 3.354339 1_455
In6_3 Rh1_3 2.866614 1_555
In6_3 Rh3_3 3.039930 1_555
In6_3 In6_7 3.354339 1_555
In6_3 In6_7 3.354339 1_455
In6_4 Rh1_4 2.866614 1_555
In6_4 Rh3_4 3.039930 1_555
In6_5 Rh1_5 2.866614 1_555
In6_5 Rh3_5 3.039930 1_555
In6_6 Rh1_6 2.866614 1_555
In6_6 Rh3_6 3.039930 1_555
In6_7 Rh1_7 2.866614 1_555
In6_7 Rh3_7 3.039930 1_555
In7_0 Rh1_0 2.903832 1_555
In7_0 In7_4 3.354339 1_555
In7_0 In7_4 3.354339 1_455
In7_1 Rh1_1 2.903832 1_555
In7_1 In7_5 3.354339 1_555
In7_1 In7_5 3.354339 1_455
In7_2 Rh1_2 2.903832 1_555
In7_2 In7_6 3.354339 1_555
In7_2 In7_6 3.354339 1_455
In7_3 Rh1_3 2.903832 1_555
In7_3 In7_7 3.354339 1_555
In7_3 In7_7 3.354339 1_455
In7_4 Rh1_4 2.903832 1_555
In7_5 Rh1_5 2.903832 1_555
In7_6 Rh1_6 2.903832 1_555
In7_7 Rh1_7 2.903832 1_555
