# generated using pymatgen
data_YbNiGe2
_symmetry_space_group_name_H-M   'P 1'
_cell_length_a   9.14824365
_cell_length_b   9.14824365
_cell_length_c   9.14824365
_cell_angle_alpha   153.20399543
_cell_angle_beta   123.95325337
_cell_angle_gamma   63.18356360
_symmetry_Int_Tables_number   1
_chemical_formula_structural   YbNiGe2
_chemical_formula_sum   'Yb4 Ni4 Ge8'
_cell_volume   283.99221502
_cell_formula_units_Z   4
loop_
 _symmetry_equiv_pos_site_id
 _symmetry_equiv_pos_as_xyz
  1  'x, y, z'
loop_
 _atom_site_type_symbol
 _atom_site_label
 _atom_site_symmetry_multiplicity
 _atom_site_fract_x
 _atom_site_fract_y
 _atom_site_fract_z
 _atom_site_occupancy
  Yb  Yb0  1  0.25883700  0.50000000  0.75883700  1
  Yb  Yb1  1  0.70585600  0.70585600  0.00000000  1
  Yb  Yb2  1  0.74116300  0.50000000  0.24116300  1
  Yb  Yb3  1  0.29414400  0.29414400  0.00000000  1
  Ni  Ni0  1  0.59902500  0.85127800  0.74774700  1
  Ni  Ni1  1  0.89647000  0.14872200  0.74774700  1
  Ni  Ni2  1  0.10353000  0.85127800  0.25225300  1
  Ni  Ni3  1  0.40097500  0.14872200  0.25225300  1
  Ge  Ge0  1  0.03883600  0.69480400  0.34403300  1
  Ge  Ge1  1  0.64922900  0.30519600  0.34403300  1
  Ge  Ge2  1  0.91525100  0.91525100  0.00000000  1
  Ge  Ge3  1  0.35077100  0.69480400  0.65596700  1
  Ge  Ge4  1  0.08474900  0.08474900  0.00000000  1
  Ge  Ge5  1  0.42179700  0.92179700  0.50000000  1
  Ge  Ge6  1  0.57820300  0.07820300  0.50000000  1
  Ge  Ge7  1  0.96116400  0.30519600  0.65596700  1
loop_
_geom_bond_atom_site_label_1
_geom_bond_atom_site_label_2
_geom_bond_distance
_geom_bond_site_symmetry_2
Ni0 Yb3 3.133998 1_566
Ni0 Yb3 3.133998 1_555
Ni0 Yb1 3.136667 1_556
Ni0 Yb2 3.141495 1_555
Ni0 Yb2 3.141495 1_566
Ni1 Yb1 3.133997 1_545
Ni1 Yb1 3.134000 1_556
Ni1 Yb3 3.136658 1_656
Ni1 Yb2 3.141499 1_545
Ni1 Yb2 3.141502 1_556
Ni2 Yb3 3.133997 1_566
Ni2 Yb3 3.134000 1_555
Ni2 Yb1 3.136658 1_455
Ni2 Yb0 3.141499 1_565
Ni2 Yb0 3.141502 1_554
Ni3 Yb1 3.133998 1_556
Ni3 Yb1 3.133998 1_545
Ni3 Yb3 3.136667 1_555
Ni3 Yb0 3.141495 1_555
Ni3 Yb0 3.141495 1_544
Ge0 Ni1 2.386268 1_465
Ge0 Ni1 2.386276 1_454
Ge0 Ni2 2.563095 1_555
Ge0 Ge3 2.681473 1_555
Ge0 Yb3 2.947543 1_566
Ge0 Yb3 2.947546 1_555
Ge0 Yb1 2.962408 1_455
Ge0 Yb2 3.162172 1_455
Ge1 Ni0 2.386280 1_544
Ge1 Ni0 2.386280 1_555
Ge1 Ni3 2.563095 1_555
Ge1 Ge7 2.681473 1_555
Ge1 Yb1 2.947538 1_556
Ge1 Yb1 2.947538 1_545
Ge1 Yb3 2.962412 1_555
Ge1 Yb2 3.162181 1_555
Ge2 Ni2 2.386661 1_655
Ge2 Ni0 2.386662 1_554
Ge2 Yb1 3.263418 1_555
Ge2 Yb2 3.344961 1_554
Ge2 Yb0 3.344961 1_654
Ge2 Yb0 3.344961 1_665
Ge2 Yb2 3.344961 1_565
Ge3 Ni3 2.386280 1_555
Ge3 Ni3 2.386280 1_566
Ge3 Ni0 2.563095 1_555
Ge3 Yb3 2.947538 1_566
Ge3 Yb3 2.947538 1_555
Ge3 Yb1 2.962412 1_556
Ge3 Yb0 3.162181 1_555
Ge4 Ni1 2.386661 1_454
Ge4 Ni3 2.386662 1_555
Ge4 Yb3 3.263418 1_555
Ge4 Yb0 3.344961 1_544
Ge4 Yb2 3.344961 1_444
Ge4 Yb0 3.344961 1_555
Ge4 Yb2 3.344961 1_455
Ge5 Ni0 2.396561 1_555
Ge5 Ni2 2.396569 1_555
Ge5 Ge6 2.437585 1_565
Ge5 Yb3 2.907136 1_566
Ge5 Yb3 2.907136 1_555
Ge5 Yb0 3.205723 1_565
Ge5 Yb2 3.205723 1_555
Ge5 Yb2 3.205723 1_566
Ge5 Yb0 3.205723 1_554
Ge6 Ni3 2.396561 1_555
Ge6 Ni1 2.396569 1_555
Ge6 Yb1 2.907136 1_556
Ge6 Yb1 2.907136 1_545
Ge6 Yb2 3.205723 1_545
Ge6 Yb0 3.205723 1_555
Ge6 Yb2 3.205723 1_556
Ge6 Yb0 3.205723 1_544
Ge7 Ni2 2.386268 1_645
Ge7 Ni2 2.386276 1_656
Ge7 Ni1 2.563095 1_555
Ge7 Yb1 2.947543 1_545
Ge7 Yb1 2.947546 1_556
Ge7 Yb3 2.962408 1_656
Ge7 Yb0 3.162172 1_655
