# generated using pymatgen
data_ScIO
_symmetry_space_group_name_H-M   'P 1'
_cell_length_a   3.87755168
_cell_length_b   7.24030987
_cell_length_c   10.14776031
_cell_angle_alpha   93.36188932
_cell_angle_beta   100.90354201
_cell_angle_gamma   90.00715686
_symmetry_Int_Tables_number   1
_chemical_formula_structural   ScIO
_chemical_formula_sum   'Sc4 I4 O4'
_cell_volume   279.25215104
_cell_formula_units_Z   4
loop_
 _symmetry_equiv_pos_site_id
 _symmetry_equiv_pos_as_xyz
  1  'x, y, z'
loop_
 _atom_site_type_symbol
 _atom_site_label
 _atom_site_symmetry_multiplicity
 _atom_site_fract_x
 _atom_site_fract_y
 _atom_site_fract_z
 _atom_site_occupancy
  Sc  Sc0  1  0.29686921  0.38361200  0.59478857  1
  Sc  Sc1  1  0.70150263  0.11754345  0.40203776  1
  Sc  Sc2  1  0.70313079  0.61638800  0.40521143  1
  Sc  Sc3  1  0.29849737  0.88245655  0.59796224  1
  I  I0  1  0.10391085  0.35170159  0.21263463  1
  I  I1  1  0.41110794  0.15570490  0.82417325  1
  I  I2  1  0.58889206  0.84429510  0.17582675  1
  I  I3  1  0.89608915  0.64829841  0.78736537  1
  O  O0  1  0.24508464  0.62818621  0.48974995  1
  O  O1  1  0.75529109  0.88000168  0.51066031  1
  O  O2  1  0.75491536  0.37181379  0.51025005  1
  O  O3  1  0.24470891  0.11999832  0.48933969  1
loop_
_geom_bond_atom_site_label_1
_geom_bond_atom_site_label_2
_geom_bond_distance
_geom_bond_site_symmetry_2
I0 Sc1 3.243342 1_455
I0 Sc2 3.258389 1_455
I0 Sc1 3.261306 1_555
I0 Sc2 3.275998 1_555
I1 Sc0 2.897945 1_555
I1 Sc3 2.908979 1_545
I2 Sc2 2.897945 1_555
I2 Sc1 2.908979 1_565
I3 Sc3 3.243342 1_655
I3 Sc0 3.258389 1_655
I3 Sc3 3.261306 1_555
I3 Sc0 3.275998 1_555
O0 Sc3 2.077203 1_555
O0 Sc0 2.110137 1_555
O0 Sc2 2.113206 1_555
O0 Sc2 2.113930 1_455
O1 Sc1 2.086132 1_565
O1 Sc2 2.123056 1_555
O1 Sc3 2.124598 1_655
O1 Sc3 2.124680 1_555
O2 Sc1 2.077203 1_555
O2 Sc2 2.110137 1_555
O2 Sc0 2.113206 1_555
O2 Sc0 2.113930 1_655
O3 Sc3 2.086132 1_545
O3 Sc0 2.123056 1_555
O3 Sc1 2.124598 1_455
O3 Sc1 2.124680 1_555
