# generated using pymatgen
data_Cs2TaCl6
_symmetry_space_group_name_H-M   'P 1'
_cell_length_a   7.34625160
_cell_length_b   7.34625160
_cell_length_c   7.34625382
_cell_angle_alpha   59.99999003
_cell_angle_beta   59.99999003
_cell_angle_gamma   60.00001993
_symmetry_Int_Tables_number   1
_chemical_formula_structural   Cs2TaCl6
_chemical_formula_sum   'Cs2 Ta1 Cl6'
_cell_volume   280.33836011
_cell_formula_units_Z   1
loop_
 _symmetry_equiv_pos_site_id
 _symmetry_equiv_pos_as_xyz
  1  'x, y, z'
loop_
 _atom_site_type_symbol
 _atom_site_label
 _atom_site_symmetry_multiplicity
 _atom_site_fract_x
 _atom_site_fract_y
 _atom_site_fract_z
 _atom_site_occupancy
  Cs  Cs0  1  0.75000000  0.75000000  0.75000000  1
  Cs  Cs1  1  0.25000000  0.25000000  0.25000000  1
  Ta  Ta0  1  -0.00000000  -0.00000000  0.00000000  1
  Cl  Cl0  1  0.76741224  0.23258776  0.23258776  1
  Cl  Cl1  1  0.76741224  0.23258776  0.76741224  1
  Cl  Cl2  1  0.76741224  0.76741224  0.23258776  1
  Cl  Cl3  1  0.23258776  0.23258776  0.76741224  1
  Cl  Cl4  1  0.23258776  0.76741224  0.23258776  1
  Cl  Cl5  1  0.23258776  0.76741224  0.76741224  1
loop_
_geom_bond_atom_site_label_1
_geom_bond_atom_site_label_2
_geom_bond_distance
_geom_bond_site_symmetry_2
Cl0 Ta0 2.416394 1_655
Cl0 Cs1 3.677578 1_555
Cl0 Cs0 3.677578 1_545
Cl0 Cs1 3.677578 1_655
Cl0 Cs0 3.677578 1_554
Cl1 Ta0 2.416394 1_656
Cl1 Cs1 3.677578 1_556
Cl1 Cs0 3.677578 1_555
Cl1 Cs0 3.677578 1_545
Cl1 Cs1 3.677578 1_655
Cl2 Ta0 2.416393 1_665
Cl2 Cs0 3.677579 1_554
Cl2 Cs1 3.677579 1_565
Cl2 Cs1 3.677579 1_655
Cl2 Cs0 3.677579 1_555
Cl3 Ta0 2.416393 1_556
Cl3 Cs0 3.677579 1_455
Cl3 Cs1 3.677579 1_556
Cl3 Cs0 3.677579 1_545
Cl3 Cs1 3.677579 1_555
Cl4 Ta0 2.416394 1_565
Cl4 Cs1 3.677578 1_555
Cl4 Cs0 3.677578 1_554
Cl4 Cs0 3.677578 1_455
Cl4 Cs1 3.677578 1_565
Cl5 Ta0 2.416394 1_566
Cl5 Cs1 3.677578 1_556
Cl5 Cs0 3.677578 1_555
Cl5 Cs1 3.677578 1_565
Cl5 Cs0 3.677578 1_455
