# generated using pymatgen
data_K2PrZr(PO4)3
_symmetry_space_group_name_H-M   'P 1'
_cell_length_a   10.63325100
_cell_length_b   10.63325100
_cell_length_c   10.63325100
_cell_angle_alpha   90.00000000
_cell_angle_beta   90.00000000
_cell_angle_gamma   90.00000000
_symmetry_Int_Tables_number   1
_chemical_formula_structural   K2PrZr(PO4)3
_chemical_formula_sum   'K8 Pr4 Zr4 P12 O48'
_cell_volume   1202.25944285
_cell_formula_units_Z   4
loop_
 _symmetry_equiv_pos_site_id
 _symmetry_equiv_pos_as_xyz
  1  'x, y, z'
loop_
 _atom_site_type_symbol
 _atom_site_label
 _atom_site_symmetry_multiplicity
 _atom_site_fract_x
 _atom_site_fract_y
 _atom_site_fract_z
 _atom_site_occupancy
  K  K0  1  0.07142300  0.07142300  0.07142300  1
  K  K1  1  0.92857700  0.57142300  0.42857700  1
  K  K2  1  0.42857700  0.92857700  0.57142300  1
  K  K3  1  0.20265400  0.70265400  0.79734600  1
  K  K4  1  0.79734600  0.20265400  0.70265400  1
  K  K5  1  0.57142300  0.42857700  0.92857700  1
  K  K6  1  0.70265400  0.79734600  0.20265400  1
  K  K7  1  0.29734600  0.29734600  0.29734600  1
  Pr  Pr0  1  0.92405800  0.42405800  0.07594200  1
  Pr  Pr1  1  0.07594200  0.92405800  0.42405800  1
  Pr  Pr2  1  0.42405800  0.07594200  0.92405800  1
  Pr  Pr3  1  0.57594200  0.57594200  0.57594200  1
  Zr  Zr0  1  0.85341800  0.85341800  0.85341800  1
  Zr  Zr1  1  0.14658200  0.35341800  0.64658200  1
  Zr  Zr2  1  0.35341800  0.64658200  0.14658200  1
  Zr  Zr3  1  0.64658200  0.14658200  0.35341800  1
  P  P0  1  0.54150200  0.75122100  0.88070700  1
  P  P1  1  0.75122100  0.88070700  0.54150200  1
  P  P2  1  0.38070700  0.95849800  0.24877900  1
  P  P3  1  0.95849800  0.24877900  0.38070700  1
  P  P4  1  0.25122100  0.61929300  0.45849800  1
  P  P5  1  0.11929300  0.04150200  0.74877900  1
  P  P6  1  0.45849800  0.25122100  0.61929300  1
  P  P7  1  0.74877900  0.11929300  0.04150200  1
  P  P8  1  0.24877900  0.38070700  0.95849800  1
  P  P9  1  0.04150200  0.74877900  0.11929300  1
  P  P10  1  0.88070700  0.54150200  0.75122100  1
  P  P11  1  0.61929300  0.45849800  0.25122100  1
  O  O0  1  0.12379300  0.33845900  0.01778500  1
  O  O1  1  0.83845900  0.48221500  0.87620700  1
  O  O2  1  0.85146800  0.21960400  0.02535600  1
  O  O3  1  0.58611900  0.31611800  0.26772500  1
  O  O4  1  0.26772500  0.58611900  0.31611800  1
  O  O5  1  0.00305000  0.47419400  0.70597100  1
  O  O6  1  0.28039600  0.97464400  0.35146800  1
  O  O7  1  0.62379300  0.16154100  0.98221500  1
  O  O8  1  0.52535600  0.64853200  0.78039600  1
  O  O9  1  0.16154100  0.98221500  0.62379300  1
  O  O10  1  0.48221500  0.87620700  0.83845900  1
  O  O11  1  0.47464400  0.14853200  0.71960400  1
  O  O12  1  0.41388100  0.81611800  0.23227500  1
  O  O13  1  0.49695000  0.52580600  0.20597100  1
  O  O14  1  0.20597100  0.49695000  0.52580600  1
  O  O15  1  0.99695000  0.97419400  0.79402900  1
  O  O16  1  0.97464400  0.35146800  0.28039600  1
  O  O17  1  0.66154100  0.51778500  0.37620700  1
  O  O18  1  0.78039600  0.52535600  0.64853200  1
  O  O19  1  0.73227500  0.08611900  0.18388200  1
  O  O20  1  0.91388100  0.68388200  0.76772500  1
  O  O21  1  0.51778500  0.37620700  0.66154100  1
  O  O22  1  0.71960400  0.47464400  0.14853200  1
  O  O23  1  0.76772500  0.91388100  0.68388200  1
  O  O24  1  0.47419400  0.70597100  0.00305000  1
  O  O25  1  0.98221500  0.62379300  0.16154100  1
  O  O26  1  0.68388200  0.76772500  0.91388100  1
  O  O27  1  0.01778500  0.12379300  0.33845900  1
  O  O28  1  0.02580600  0.29402900  0.50305000  1
  O  O29  1  0.18388200  0.73227500  0.08611900  1
  O  O30  1  0.50305000  0.02580600  0.29402900  1
  O  O31  1  0.29402900  0.50305000  0.02580600  1
  O  O32  1  0.37620700  0.66154100  0.51778500  1
  O  O33  1  0.97419400  0.79402900  0.99695000  1
  O  O34  1  0.02535600  0.85146800  0.21960400  1
  O  O35  1  0.52580600  0.20597100  0.49695000  1
  O  O36  1  0.79402900  0.99695000  0.97419400  1
  O  O37  1  0.81611800  0.23227500  0.41388100  1
  O  O38  1  0.08611900  0.18388200  0.73227500  1
  O  O39  1  0.64853200  0.78039600  0.52535600  1
  O  O40  1  0.31611800  0.26772500  0.58611900  1
  O  O41  1  0.14853200  0.71960400  0.47464400  1
  O  O42  1  0.70597100  0.00305000  0.47419400  1
  O  O43  1  0.23227500  0.41388100  0.81611800  1
  O  O44  1  0.21960400  0.02535600  0.85146800  1
  O  O45  1  0.87620700  0.83845900  0.48221500  1
  O  O46  1  0.35146800  0.28039600  0.97464400  1
  O  O47  1  0.33845900  0.01778500  0.12379300  1
loop_
_geom_bond_atom_site_label_1
_geom_bond_atom_site_label_2
_geom_bond_distance
_geom_bond_site_symmetry_2
K0 O44 2.862300 1_554
K0 O34 2.862300 1_545
K0 O2 2.862300 1_455
K0 O47 2.949225 1_555
K0 O0 2.949225 1_555
K0 O27 2.949225 1_555
K0 O36 3.224298 1_444
K0 O33 3.224298 1_444
K0 O15 3.224298 1_444
K1 O41 2.862300 1_655
K1 O16 2.862300 1_555
K1 O18 2.862300 1_555
K1 O25 2.949225 1_555
K1 O45 2.949225 1_555
K1 O17 2.949225 1_555
K1 O14 3.224298 1_655
K1 O5 3.224298 1_655
K1 O28 3.224298 1_655
K2 O11 2.862300 1_565
K2 O6 2.862300 1_555
K2 O39 2.862300 1_555
K2 O9 2.949225 1_555
K2 O10 2.949225 1_555
K2 O32 2.949225 1_555
K2 O35 3.224298 1_565
K2 O30 3.224298 1_565
K2 O42 3.224298 1_565
K3 O43 3.093155 1_555
K3 O29 3.093155 1_556
K3 O20 3.093155 1_455
K4 O37 3.093155 1_555
K4 O38 3.093155 1_655
K4 O23 3.093155 1_545
K5 O22 2.862300 1_556
K5 O46 2.862300 1_555
K5 O8 2.862300 1_555
K5 O7 2.949225 1_555
K5 O1 2.949225 1_555
K5 O21 2.949225 1_555
K5 O13 3.224298 1_556
K5 O31 3.224298 1_556
K5 O24 3.224298 1_556
K6 O12 3.093155 1_555
K6 O19 3.093155 1_565
K6 O26 3.093155 1_554
K7 O40 3.093155 1_555
K7 O4 3.093155 1_555
K7 O3 3.093155 1_555
O0 P8 1.538016 1_554
O0 Pr0 2.391973 1_455
O1 P10 1.538016 1_555
O1 Pr0 2.391973 1_556
O2 P7 1.536055 1_555
O2 Pr0 2.368846 1_555
O3 P11 1.564388 1_555
O3 Zr3 2.119768 1_555
O4 P4 1.564388 1_555
O4 Zr2 2.119768 1_555
O5 P10 1.560798 1_455
O5 Zr1 2.092221 1_555
O6 P2 1.536055 1_555
O6 Pr1 2.368846 1_555
O7 P7 1.538016 1_556
O7 Pr2 2.391973 1_555
O8 P0 1.536055 1_555
O8 Pr3 2.368846 1_555
O9 P5 1.538016 1_565
O9 Pr1 2.391973 1_555
O10 P0 1.538016 1_555
O10 Pr2 2.391973 1_565
O11 P6 1.536055 1_555
O11 Pr2 2.368846 1_555
O12 P2 1.564388 1_555
O12 Zr2 2.119768 1_555
O13 P11 1.560798 1_555
O13 Zr2 2.092221 1_555
O14 P4 1.560798 1_555
O14 Zr1 2.092221 1_555
O15 P5 1.560798 1_665
O15 Zr0 2.092221 1_555
O16 P3 1.536055 1_555
O16 Pr0 2.368846 1_555
O17 P11 1.538016 1_555
O17 Pr3 2.391973 1_555
O18 P10 1.536055 1_555
O18 Pr3 2.368846 1_555
O19 P7 1.564388 1_555
O19 Zr3 2.119768 1_555
O20 P10 1.564388 1_555
O20 Zr0 2.119768 1_555
O21 P6 1.538016 1_555
O21 Pr3 2.391973 1_555
O22 P11 1.536055 1_555
O22 Pr0 2.368846 1_555
O23 P1 1.564388 1_555
O23 Zr0 2.119768 1_555
O24 P0 1.560798 1_554
O24 Zr2 2.092221 1_555
O25 P9 1.538016 1_655
O25 Pr0 2.391973 1_555
O26 P0 1.564388 1_555
O26 Zr0 2.119768 1_555
O27 P3 1.538016 1_455
O27 Pr1 2.391973 1_545
O28 P3 1.560798 1_455
O28 Zr1 2.092221 1_555
O29 P9 1.564388 1_555
O29 Zr2 2.119768 1_555
O30 P2 1.560798 1_545
O30 Zr3 2.092221 1_555
O31 P8 1.560798 1_554
O31 Zr2 2.092221 1_555
O32 P4 1.538016 1_555
O32 Pr3 2.391973 1_555
O33 P9 1.560798 1_656
O33 Zr0 2.092221 1_555
O34 P9 1.536055 1_555
O34 Pr1 2.368846 1_555
O35 P6 1.560798 1_555
O35 Zr3 2.092221 1_555
O36 P7 1.560798 1_566
O36 Zr0 2.092221 1_555
O37 P3 1.564388 1_555
O37 Zr3 2.119768 1_555
O38 P5 1.564388 1_555
O38 Zr1 2.119768 1_555
O39 P1 1.536055 1_555
O39 Pr3 2.368846 1_555
O40 P6 1.564388 1_555
O40 Zr1 2.119768 1_555
O41 P4 1.536055 1_555
O41 Pr1 2.368846 1_555
O42 P1 1.560798 1_545
O42 Zr3 2.092221 1_555
O43 P8 1.564388 1_555
O43 Zr1 2.119768 1_555
O44 P5 1.536055 1_555
O44 Pr2 2.368846 1_555
O45 P1 1.538016 1_555
O45 Pr1 2.391973 1_655
O46 P8 1.536055 1_555
O46 Pr2 2.368846 1_555
O47 P2 1.538016 1_545
O47 Pr2 2.391973 1_554
