# generated using pymatgen
data_K3Zr4Ag2F23
_symmetry_space_group_name_H-M   'P 1'
_cell_length_a   11.45152900
_cell_length_b   8.03283600
_cell_length_c   10.38308536
_cell_angle_alpha   82.73597448
_cell_angle_beta   90.00000000
_cell_angle_gamma   90.00000000
_symmetry_Int_Tables_number   1
_chemical_formula_structural   K3Zr4Ag2F23
_chemical_formula_sum   'K6 Zr8 Ag4 F46'
_cell_volume   947.45611531
_cell_formula_units_Z   2
loop_
 _symmetry_equiv_pos_site_id
 _symmetry_equiv_pos_as_xyz
  1  'x, y, z'
loop_
 _atom_site_type_symbol
 _atom_site_label
 _atom_site_symmetry_multiplicity
 _atom_site_fract_x
 _atom_site_fract_y
 _atom_site_fract_z
 _atom_site_occupancy
  K  K0  1  0.52087400  0.28817400  0.13639600  1
  K  K1  1  0.02087400  0.71182600  0.36360400  1
  K  K2  1  0.47912600  0.71182600  0.86360400  1
  K  K3  1  0.00000000  0.00000000  0.00000000  1
  K  K4  1  0.97912600  0.28817400  0.63639600  1
  K  K5  1  0.50000000  0.00000000  0.50000000  1
  Zr  Zr0  1  0.68221800  0.52582900  0.45793700  1
  Zr  Zr1  1  0.81778200  0.52582900  0.95793700  1
  Zr  Zr2  1  0.80584200  0.83293100  0.66158800  1
  Zr  Zr3  1  0.18221800  0.47417100  0.04206300  1
  Zr  Zr4  1  0.19415800  0.16706900  0.33841200  1
  Zr  Zr5  1  0.30584200  0.16706900  0.83841200  1
  Zr  Zr6  1  0.69415800  0.83293100  0.16158800  1
  Zr  Zr7  1  0.31778200  0.47417100  0.54206300  1
  Ag  Ag0  1  0.33946600  0.81842500  0.18671700  1
  Ag  Ag1  1  0.16053400  0.81842500  0.68671700  1
  Ag  Ag2  1  0.66053400  0.18157500  0.81328300  1
  Ag  Ag3  1  0.83946600  0.18157500  0.31328300  1
  F  F0  1  0.78329300  0.00307000  0.49858500  1
  F  F1  1  0.81530900  0.35504000  0.12229700  1
  F  F2  1  0.00000000  0.50000000  0.00000000  1
  F  F3  1  0.63930000  0.01886700  0.26324400  1
  F  F4  1  0.29048900  0.32155100  0.18480900  1
  F  F5  1  0.47438800  0.13917400  0.90924300  1
  F  F6  1  0.91507700  0.68922000  0.80951300  1
  F  F7  1  0.66301200  0.60935000  0.06848700  1
  F  F8  1  0.31530900  0.64496000  0.37770300  1
  F  F9  1  0.14719200  0.26291900  0.93862900  1
  F  F10  1  0.71670700  0.00307000  0.99858500  1
  F  F11  1  0.41507700  0.31078000  0.69048700  1
  F  F12  1  0.28329300  0.99693000  0.00141500  1
  F  F13  1  0.86514900  0.34854700  0.84682400  1
  F  F14  1  0.36070000  0.98113300  0.73675600  1
  F  F15  1  0.65796600  0.38154100  0.92446700  1
  F  F16  1  0.79048900  0.67844900  0.31519100  1
  F  F17  1  0.68469100  0.35504000  0.62229700  1
  F  F18  1  0.35280800  0.26291900  0.43862900  1
  F  F19  1  0.52561200  0.86082600  0.09075700  1
  F  F20  1  0.08492300  0.31078000  0.19048700  1
  F  F21  1  0.35508200  0.02451800  0.29107000  1
  F  F22  1  0.83698800  0.60935000  0.56848700  1
  F  F23  1  0.58492300  0.68922000  0.30951300  1
  F  F24  1  0.02561200  0.13917400  0.40924300  1
  F  F25  1  0.15796600  0.61845900  0.57553300  1
  F  F26  1  0.64719200  0.73708100  0.56137100  1
  F  F27  1  0.13930000  0.98113300  0.23675600  1
  F  F28  1  0.36514900  0.65145300  0.65317600  1
  F  F29  1  0.97438800  0.86082600  0.59075700  1
  F  F30  1  0.16301200  0.39065000  0.43151300  1
  F  F31  1  0.63485100  0.34854700  0.34682400  1
  F  F32  1  0.86070000  0.01886700  0.76324400  1
  F  F33  1  0.84203400  0.38154100  0.42446700  1
  F  F34  1  0.13485100  0.65145300  0.15317600  1
  F  F35  1  0.34203400  0.61845900  0.07553300  1
  F  F36  1  0.85280800  0.73708100  0.06137100  1
  F  F37  1  0.64491800  0.97548200  0.70893000  1
  F  F38  1  0.70951100  0.67844900  0.81519100  1
  F  F39  1  0.14491800  0.02451800  0.79107000  1
  F  F40  1  0.18469100  0.64496000  0.87770300  1
  F  F41  1  0.85508200  0.97548200  0.20893000  1
  F  F42  1  0.20951100  0.32155100  0.68480900  1
  F  F43  1  0.33698800  0.39065000  0.93151300  1
  F  F44  1  0.21670700  0.99693000  0.50141500  1
  F  F45  1  0.50000000  0.50000000  0.50000000  1
loop_
_geom_bond_atom_site_label_1
_geom_bond_atom_site_label_2
_geom_bond_distance
_geom_bond_site_symmetry_2
Ag0 F35 2.093489 1_555
Ag0 F21 2.097688 1_565
Ag0 F8 2.291671 1_555
Ag0 F12 2.339659 1_555
Ag0 F19 2.359424 1_555
Ag1 F25 2.093489 1_555
Ag1 F39 2.097688 1_565
Ag1 F40 2.291671 1_555
Ag1 F44 2.339659 1_555
Ag1 F29 2.359424 1_455
Ag2 F15 2.093489 1_555
Ag2 F37 2.097688 1_545
Ag2 F17 2.291671 1_555
Ag2 F10 2.339659 1_555
Ag2 F5 2.359424 1_555
Ag3 F33 2.093489 1_555
Ag3 F41 2.097688 1_545
Ag3 F1 2.291671 1_555
Ag3 F0 2.339659 1_555
Ag3 F24 2.359424 1_655
F0 Zr2 2.052819 1_545
F1 Zr1 2.050185 1_554
F2 Zr1 2.136607 1_454
F2 Zr3 2.136607 1_555
F3 Zr6 2.034262 1_545
F3 K0 2.744666 1_555
F3 K5 2.918294 1_555
F4 Zr3 2.185755 1_555
F4 Zr4 2.190878 1_555
F4 K0 2.705378 1_555
F5 Zr5 2.067544 1_555
F5 K0 2.827111 1_556
F6 Zr2 2.192735 1_555
F6 Zr1 2.197160 1_555
F7 Zr6 2.174004 1_555
F7 Zr1 2.259129 1_554
F7 K2 3.032251 1_554
F7 K0 3.056584 1_555
F8 Zr7 2.050185 1_555
F9 Zr3 2.157499 1_556
F9 Zr5 2.275720 1_555
F9 K3 2.714288 1_556
F10 Zr6 2.052819 1_546
F11 Zr5 2.192735 1_555
F11 Zr7 2.197160 1_555
F12 Zr5 2.052819 1_564
F13 Zr1 2.017104 1_555
F13 K4 2.642059 1_555
F14 Zr5 2.034262 1_565
F14 K2 2.744666 1_555
F14 K5 2.918294 1_565
F15 Zr1 2.217073 1_555
F15 K0 2.729813 1_556
F16 Zr0 2.185755 1_555
F16 Zr6 2.190878 1_555
F16 K1 2.705378 1_655
F17 Zr0 2.050185 1_555
F18 Zr7 2.157499 1_555
F18 Zr4 2.275720 1_555
F18 K5 2.714288 1_555
F19 Zr6 2.067544 1_555
F19 K2 2.827111 1_554
F20 Zr4 2.192735 1_555
F20 Zr3 2.197160 1_555
F21 Zr4 2.256370 1_555
F21 K5 2.718606 1_555
F21 K0 3.131959 1_555
F22 Zr2 2.174004 1_555
F22 Zr0 2.259129 1_555
F22 K1 3.032251 1_655
F22 K4 3.056584 1_555
F23 Zr6 2.192735 1_555
F23 Zr0 2.197160 1_555
F24 Zr4 2.067544 1_555
F24 K4 2.827111 1_455
F25 Zr7 2.217073 1_555
F25 K1 2.729813 1_555
F26 Zr0 2.157499 1_555
F26 Zr2 2.275720 1_555
F26 K5 2.714288 1_565
F27 Zr4 2.034262 1_565
F27 K1 2.744666 1_555
F27 K3 2.918294 1_565
F28 Zr7 2.017104 1_555
F28 K2 2.642059 1_555
F29 Zr2 2.067544 1_555
F29 K1 2.827111 1_655
F30 Zr4 2.174004 1_555
F30 Zr7 2.259129 1_555
F30 K4 3.032251 1_455
F30 K1 3.056584 1_555
F31 Zr0 2.017104 1_555
F31 K0 2.642059 1_555
F32 Zr2 2.034262 1_545
F32 K4 2.744666 1_555
F32 K3 2.918294 1_656
F33 Zr0 2.217073 1_555
F33 K4 2.729813 1_555
F34 Zr3 2.017104 1_555
F34 K1 2.642059 1_555
F35 Zr3 2.217073 1_555
F35 K2 2.729813 1_554
F36 Zr1 2.157499 1_554
F36 Zr6 2.275720 1_555
F36 K3 2.714288 1_665
F37 Zr2 2.256370 1_555
F37 K5 2.718606 1_565
F37 K2 3.131959 1_555
F38 Zr1 2.185755 1_555
F38 Zr2 2.190878 1_555
F38 K2 2.705378 1_555
F39 Zr5 2.256370 1_555
F39 K3 2.718606 1_556
F39 K4 3.131959 1_455
F40 Zr3 2.050185 1_556
F41 Zr6 2.256370 1_555
F41 K3 2.718606 1_665
F41 K1 3.131959 1_655
F42 Zr7 2.185755 1_555
F42 Zr5 2.190878 1_555
F42 K4 2.705378 1_455
F43 Zr5 2.174004 1_555
F43 Zr3 2.259129 1_556
F43 K0 3.032251 1_556
F43 K2 3.056584 1_555
F44 Zr4 2.052819 1_565
F45 Zr7 2.136607 1_555
F45 Zr0 2.136607 1_555
