# generated using pymatgen
data_K2YZr(PO4)3
_symmetry_space_group_name_H-M   'P 1'
_cell_length_a   10.48429700
_cell_length_b   10.48429700
_cell_length_c   10.48429700
_cell_angle_alpha   90.00000000
_cell_angle_beta   90.00000000
_cell_angle_gamma   90.00000000
_symmetry_Int_Tables_number   1
_chemical_formula_structural   K2YZr(PO4)3
_chemical_formula_sum   'K8 Y4 Zr4 P12 O48'
_cell_volume   1152.43899628
_cell_formula_units_Z   4
loop_
 _symmetry_equiv_pos_site_id
 _symmetry_equiv_pos_as_xyz
  1  'x, y, z'
loop_
 _atom_site_type_symbol
 _atom_site_label
 _atom_site_symmetry_multiplicity
 _atom_site_fract_x
 _atom_site_fract_y
 _atom_site_fract_z
 _atom_site_occupancy
  K  K0  1  0.06677300  0.06677300  0.06677300  1
  K  K1  1  0.19625000  0.69625000  0.80375000  1
  K  K2  1  0.30375000  0.30375000  0.30375000  1
  K  K3  1  0.43322700  0.93322700  0.56677300  1
  K  K4  1  0.56677300  0.43322700  0.93322700  1
  K  K5  1  0.69625000  0.80375000  0.19625000  1
  K  K6  1  0.80375000  0.19625000  0.69625000  1
  K  K7  1  0.93322700  0.56677300  0.43322700  1
  Y  Y0  1  0.14719700  0.35280300  0.64719700  1
  Y  Y1  1  0.35280300  0.64719700  0.14719700  1
  Y  Y2  1  0.64719700  0.14719700  0.35280300  1
  Y  Y3  1  0.85280300  0.85280300  0.85280300  1
  Zr  Zr0  1  0.08780500  0.91219500  0.41219500  1
  Zr  Zr1  1  0.41219500  0.08780500  0.91219500  1
  Zr  Zr2  1  0.58780500  0.58780500  0.58780500  1
  Zr  Zr3  1  0.91219500  0.41219500  0.08780500  1
  P  P0  1  0.03176600  0.72760700  0.12971600  1
  P  P1  1  0.12971600  0.03176600  0.72760700  1
  P  P2  1  0.22760700  0.37028400  0.96823400  1
  P  P3  1  0.27239300  0.62971600  0.46823400  1
  P  P4  1  0.37028400  0.96823400  0.22760700  1
  P  P5  1  0.46823400  0.27239300  0.62971600  1
  P  P6  1  0.53176600  0.77239300  0.87028400  1
  P  P7  1  0.62971600  0.46823400  0.27239300  1
  P  P8  1  0.72760700  0.12971600  0.03176600  1
  P  P9  1  0.77239300  0.87028400  0.53176600  1
  P  P10  1  0.87028400  0.53176600  0.77239300  1
  P  P11  1  0.96823400  0.22760700  0.37028400  1
  O  O0  1  0.99209100  0.58529100  0.14782500  1
  O  O1  1  0.02473100  0.79141400  0.26402000  1
  O  O2  1  0.04351900  0.93651200  0.79848100  1
  O  O3  1  0.06348800  0.29848100  0.45648100  1
  O  O4  1  0.07546700  0.16788700  0.73400600  1
  O  O5  1  0.08529100  0.35217500  0.00790900  1
  O  O6  1  0.14782500  0.99209100  0.58529100  1
  O  O7  1  0.16788700  0.73400600  0.07546700  1
  O  O8  1  0.20858600  0.76402000  0.47526900  1
  O  O9  1  0.20151900  0.54351900  0.56348800  1
  O  O10  1  0.23400600  0.42453300  0.83211300  1
  O  O11  1  0.23598000  0.97526900  0.29141400  1
  O  O12  1  0.26402000  0.02473100  0.79141400  1
  O  O13  1  0.26599400  0.57546700  0.33211300  1
  O  O14  1  0.29848100  0.45648100  0.06348800  1
  O  O15  1  0.29141400  0.23598000  0.97526900  1
  O  O16  1  0.33211300  0.26599400  0.57546700  1
  O  O17  1  0.35217500  0.00790900  0.08529100  1
  O  O18  1  0.41470900  0.64782500  0.50790900  1
  O  O19  1  0.42453300  0.83211300  0.23400600  1
  O  O20  1  0.43651200  0.70151900  0.95648100  1
  O  O21  1  0.45648100  0.06348800  0.29848100  1
  O  O22  1  0.47526900  0.20858600  0.76402000  1
  O  O23  1  0.50790900  0.41470900  0.64782500  1
  O  O24  1  0.49209100  0.91470900  0.85217500  1
  O  O25  1  0.52473100  0.70858600  0.73598000  1
  O  O26  1  0.54351900  0.56348800  0.20151900  1
  O  O27  1  0.56348800  0.20151900  0.54351900  1
  O  O28  1  0.57546700  0.33211300  0.26599400  1
  O  O29  1  0.58529100  0.14782500  0.99209100  1
  O  O30  1  0.64782500  0.50790900  0.41470900  1
  O  O31  1  0.66788700  0.76599400  0.92453300  1
  O  O32  1  0.70858600  0.73598000  0.52473100  1
  O  O33  1  0.70151900  0.95648100  0.43651200  1
  O  O34  1  0.73400600  0.07546700  0.16788700  1
  O  O35  1  0.73598000  0.52473100  0.70858600  1
  O  O36  1  0.76402000  0.47526900  0.20858600  1
  O  O37  1  0.76599400  0.92453300  0.66788700  1
  O  O38  1  0.79848100  0.04351900  0.93651200  1
  O  O39  1  0.79141400  0.26402000  0.02473100  1
  O  O40  1  0.83211300  0.23400600  0.42453300  1
  O  O41  1  0.85217500  0.49209100  0.91470900  1
  O  O42  1  0.91470900  0.85217500  0.49209100  1
  O  O43  1  0.92453300  0.66788700  0.76599400  1
  O  O44  1  0.93651200  0.79848100  0.04351900  1
  O  O45  1  0.95648100  0.43651200  0.70151900  1
  O  O46  1  0.97526900  0.29141400  0.23598000  1
  O  O47  1  0.00790900  0.08529100  0.35217500  1
loop_
_geom_bond_atom_site_label_1
_geom_bond_atom_site_label_2
_geom_bond_distance
_geom_bond_site_symmetry_2
K0 O47 3.061382 1_555
K0 O5 3.061382 1_555
K0 O17 3.061382 1_555
K0 O15 3.100722 1_554
K0 O46 3.100722 1_455
K0 O11 3.100722 1_545
K0 O2 3.136352 1_544
K0 O38 3.136352 1_454
K0 O44 3.136352 1_445
K1 O43 2.891464 1_455
K1 O10 2.891464 1_555
K1 O7 2.891464 1_556
K1 O2 2.985363 1_555
K1 O9 2.985363 1_555
K1 O20 2.985363 1_555
K2 O28 2.891464 1_555
K2 O13 2.891464 1_555
K2 O16 2.891464 1_555
K2 O3 2.985363 1_555
K2 O14 2.985363 1_555
K2 O21 2.985363 1_555
K3 O6 3.061382 1_555
K3 O18 3.061382 1_555
K3 O24 3.061382 1_555
K3 O12 3.100722 1_565
K3 O8 3.100722 1_555
K3 O25 3.100722 1_555
K3 O21 3.136352 1_565
K3 O27 3.136352 1_565
K3 O33 3.136352 1_555
K4 O29 3.061382 1_555
K4 O41 3.061382 1_555
K4 O23 3.061382 1_555
K4 O35 3.100722 1_555
K4 O22 3.100722 1_555
K4 O39 3.100722 1_556
K4 O14 3.136352 1_556
K4 O26 3.136352 1_556
K4 O20 3.136352 1_555
K5 O34 2.891464 1_565
K5 O31 2.891464 1_554
K5 O19 2.891464 1_555
K5 O44 2.985363 1_555
K5 O26 2.985363 1_555
K5 O33 2.985363 1_555
K6 O37 2.891464 1_545
K6 O4 2.891464 1_655
K6 O40 2.891464 1_555
K6 O38 2.985363 1_555
K6 O27 2.985363 1_555
K6 O45 2.985363 1_555
K7 O0 3.061382 1_555
K7 O42 3.061382 1_555
K7 O30 3.061382 1_555
K7 O32 3.100722 1_555
K7 O36 3.100722 1_555
K7 O1 3.100722 1_655
K7 O3 3.136352 1_655
K7 O9 3.136352 1_655
K7 O45 3.136352 1_555
O0 P0 1.560572 1_655
O0 Zr3 2.095496 1_555
O1 P0 1.560660 1_555
O1 Zr0 2.110503 1_555
O2 P1 1.538242 1_565
O2 Y3 2.256699 1_455
O3 P11 1.538242 1_455
O3 Y0 2.256699 1_555
O4 P1 1.537758 1_555
O4 Y0 2.269915 1_555
O5 P2 1.560572 1_554
O5 Zr3 2.095496 1_455
O6 P1 1.560572 1_565
O6 Zr0 2.095496 1_555
O7 P0 1.537758 1_555
O7 Y1 2.269915 1_555
O8 P3 1.560660 1_555
O8 Zr0 2.110503 1_555
O9 P3 1.538242 1_555
O9 Y0 2.256699 1_555
O10 P2 1.537758 1_555
O10 Y0 2.269915 1_555
O11 P4 1.560660 1_555
O11 Zr0 2.110503 1_555
O12 P1 1.560660 1_555
O12 Zr1 2.110503 1_555
O13 P3 1.537758 1_555
O13 Y1 2.269915 1_555
O14 P2 1.538242 1_554
O14 Y1 2.256699 1_555
O15 P2 1.560660 1_555
O15 Zr1 2.110503 1_555
O16 P5 1.537758 1_555
O16 Y0 2.269915 1_555
O17 P4 1.560572 1_545
O17 Zr1 2.095496 1_554
O18 P3 1.560572 1_555
O18 Zr2 2.095496 1_555
O19 P4 1.537758 1_555
O19 Y1 2.269915 1_555
O20 P6 1.538242 1_555
O20 Y1 2.256699 1_556
O21 P4 1.538242 1_545
O21 Y2 2.256699 1_555
O22 P5 1.560660 1_555
O22 Zr1 2.110503 1_555
O23 P5 1.560572 1_555
O23 Zr2 2.095496 1_555
O24 P6 1.560572 1_555
O24 Zr1 2.095496 1_565
O25 P6 1.560660 1_555
O25 Zr2 2.110503 1_555
O26 P7 1.538242 1_555
O26 Y1 2.256699 1_555
O27 P5 1.538242 1_555
O27 Y2 2.256699 1_555
O28 P7 1.537758 1_555
O28 Y2 2.269915 1_555
O29 P8 1.560572 1_556
O29 Zr1 2.095496 1_555
O30 P7 1.560572 1_555
O30 Zr2 2.095496 1_555
O31 P6 1.537758 1_555
O31 Y3 2.269915 1_555
O32 P9 1.560660 1_555
O32 Zr2 2.110503 1_555
O33 P9 1.538242 1_555
O33 Y2 2.256699 1_565
O34 P8 1.537758 1_555
O34 Y2 2.269915 1_555
O35 P10 1.560660 1_555
O35 Zr2 2.110503 1_555
O36 P7 1.560660 1_555
O36 Zr3 2.110503 1_555
O37 P9 1.537758 1_555
O37 Y3 2.269915 1_555
O38 P8 1.538242 1_556
O38 Y3 2.256699 1_545
O39 P8 1.560660 1_555
O39 Zr3 2.110503 1_555
O40 P11 1.537758 1_555
O40 Y2 2.269915 1_555
O41 P10 1.560572 1_555
O41 Zr3 2.095496 1_556
O42 P9 1.560572 1_555
O42 Zr0 2.095496 1_655
O43 P10 1.537758 1_555
O43 Y3 2.269915 1_555
O44 P0 1.538242 1_655
O44 Y3 2.256699 1_554
O45 P10 1.538242 1_555
O45 Y0 2.256699 1_655
O46 P11 1.560660 1_555
O46 Zr3 2.110503 1_555
O47 P11 1.560572 1_455
O47 Zr0 2.095496 1_545
