# generated using pymatgen
data_SiO2
_symmetry_space_group_name_H-M   'P 1'
_cell_length_a   22.28491200
_cell_length_b   7.50081700
_cell_length_c   11.65232576
_cell_angle_alpha   85.17489071
_cell_angle_beta   90.00000000
_cell_angle_gamma   90.00000000
_symmetry_Int_Tables_number   1
_chemical_formula_structural   SiO2
_chemical_formula_sum   'Si32 O64'
_cell_volume   1940.84242989
_cell_formula_units_Z   32
loop_
 _symmetry_equiv_pos_site_id
 _symmetry_equiv_pos_as_xyz
  1  'x, y, z'
loop_
 _atom_site_type_symbol
 _atom_site_label
 _atom_site_symmetry_multiplicity
 _atom_site_fract_x
 _atom_site_fract_y
 _atom_site_fract_z
 _atom_site_occupancy
  Si  Si0  1  0.81736900  0.25714100  0.03761500  1
  Si  Si1  1  0.63001100  0.89820400  0.13554100  1
  Si  Si2  1  0.92985800  0.40362700  0.39265500  1
  Si  Si3  1  0.54170400  0.76206600  0.94910200  1
  Si  Si4  1  0.68027800  0.51965200  0.23919700  1
  Si  Si5  1  0.97815700  0.06263300  0.26969500  1
  Si  Si6  1  0.18263100  0.74285900  0.96238500  1
  Si  Si7  1  0.81972200  0.51965200  0.23919700  1
  Si  Si8  1  0.93026100  0.36398200  0.89018500  1
  Si  Si9  1  0.18027800  0.48034800  0.76080300  1
  Si  Si10  1  0.42985800  0.59637300  0.60734500  1
  Si  Si11  1  0.56973900  0.36398200  0.89018500  1
  Si  Si12  1  0.04170400  0.23793400  0.05089800  1
  Si  Si13  1  0.31972200  0.48034800  0.76080300  1
  Si  Si14  1  0.52184300  0.06263300  0.26969500  1
  Si  Si15  1  0.36998900  0.10179600  0.86445900  1
  Si  Si16  1  0.95829600  0.76206600  0.94910200  1
  Si  Si17  1  0.57014200  0.40362700  0.39265500  1
  Si  Si18  1  0.86998900  0.89820400  0.13554100  1
  Si  Si19  1  0.31736900  0.74285900  0.96238500  1
  Si  Si20  1  0.52906500  0.29146700  0.63836200  1
  Si  Si21  1  0.02184300  0.93736700  0.73030500  1
  Si  Si22  1  0.02906500  0.70853300  0.36163800  1
  Si  Si23  1  0.06973900  0.63601800  0.10981500  1
  Si  Si24  1  0.13001100  0.10179600  0.86445900  1
  Si  Si25  1  0.47815700  0.93736700  0.73030500  1
  Si  Si26  1  0.47093500  0.70853300  0.36163800  1
  Si  Si27  1  0.07014200  0.59637300  0.60734500  1
  Si  Si28  1  0.68263100  0.25714100  0.03761500  1
  Si  Si29  1  0.43026100  0.63601800  0.10981500  1
  Si  Si30  1  0.45829600  0.23793400  0.05089800  1
  Si  Si31  1  0.97093500  0.29146700  0.63836200  1
  O  O0  1  0.93511200  0.57682200  0.90259200  1
  O  O1  1  0.75000000  0.50536100  0.28070800  1
  O  O2  1  0.66826000  0.39993900  0.13152500  1
  O  O3  1  0.90423700  0.84656200  0.01972400  1
  O  O4  1  0.96832100  0.58745400  0.37027600  1
  O  O5  1  0.36522500  0.71148200  0.06668900  1
  O  O6  1  0.91672000  0.97369100  0.22649300  1
  O  O7  1  0.02405000  0.10283700  0.16182700  1
  O  O8  1  0.43576100  0.67490400  0.24373900  1
  O  O9  1  0.03167900  0.41254600  0.62972400  1
  O  O10  1  0.40423700  0.15343800  0.98027600  1
  O  O11  1  0.16826000  0.60006100  0.86847500  1
  O  O12  1  0.66447500  0.72683500  0.19873000  1
  O  O13  1  0.58328000  0.97369100  0.22649300  1
  O  O14  1  0.53167900  0.58745400  0.37027600  1
  O  O15  1  0.59576300  0.84656200  0.01972400  1
  O  O16  1  0.83174000  0.39993900  0.13152500  1
  O  O17  1  0.08328000  0.02630900  0.77350700  1
  O  O18  1  0.16447500  0.27316500  0.80127000  1
  O  O19  1  0.33552500  0.27316500  0.80127000  1
  O  O20  1  0.03744200  0.75322600  0.67303900  1
  O  O21  1  0.25000000  0.71139700  0.01396300  1
  O  O22  1  0.56488800  0.57682200  0.90259200  1
  O  O23  1  0.41672000  0.02630900  0.77350700  1
  O  O24  1  0.82142000  0.05363100  0.09789300  1
  O  O25  1  0.51655000  0.26524000  0.96713600  1
  O  O26  1  0.63801100  0.44243500  0.34601900  1
  O  O27  1  0.01060300  0.91917300  0.36262500  1
  O  O28  1  0.97595000  0.89716300  0.83817300  1
  O  O29  1  0.48345000  0.73476000  0.03286400  1
  O  O30  1  0.43511200  0.42317800  0.09740800  1
  O  O31  1  0.13477500  0.71148200  0.06668900  1
  O  O32  1  0.36198900  0.55756500  0.65398100  1
  O  O33  1  0.57346300  0.34421600  0.53004500  1
  O  O34  1  0.56423900  0.32509600  0.75626100  1
  O  O35  1  0.48939700  0.91917300  0.36262500  1
  O  O36  1  0.96255800  0.24677400  0.32696100  1
  O  O37  1  0.63477500  0.28851800  0.93331100  1
  O  O38  1  0.17858000  0.94636900  0.90210700  1
  O  O39  1  0.98939700  0.08082700  0.63737500  1
  O  O40  1  0.51060300  0.08082700  0.63737500  1
  O  O41  1  0.32142000  0.94636900  0.90210700  1
  O  O42  1  0.46255800  0.75322600  0.67303900  1
  O  O43  1  0.86522500  0.28851800  0.93331100  1
  O  O44  1  0.53744200  0.24677400  0.32696100  1
  O  O45  1  0.25000000  0.49463900  0.71929200  1
  O  O46  1  0.83552500  0.72683500  0.19873000  1
  O  O47  1  0.46832100  0.41254600  0.62972400  1
  O  O48  1  0.01655000  0.73476000  0.03286400  1
  O  O49  1  0.07346300  0.65578400  0.46995500  1
  O  O50  1  0.09576300  0.15343800  0.98027600  1
  O  O51  1  0.75000000  0.28860300  0.98603700  1
  O  O52  1  0.93576100  0.32509600  0.75626100  1
  O  O53  1  0.92653700  0.34421600  0.53004500  1
  O  O54  1  0.06488800  0.42317800  0.09740800  1
  O  O55  1  0.42653700  0.65578400  0.46995500  1
  O  O56  1  0.47595000  0.10283700  0.16182700  1
  O  O57  1  0.52405000  0.89716300  0.83817300  1
  O  O58  1  0.13801100  0.55756500  0.65398100  1
  O  O59  1  0.86198900  0.44243500  0.34601900  1
  O  O60  1  0.98345000  0.26524000  0.96713600  1
  O  O61  1  0.33174000  0.60006100  0.86847500  1
  O  O62  1  0.67858000  0.05363100  0.09789300  1
  O  O63  1  0.06423900  0.67490400  0.24373900  1
loop_
_geom_bond_atom_site_label_1
_geom_bond_atom_site_label_2
_geom_bond_distance
_geom_bond_site_symmetry_2
O0 Si16 1.618017 1_555
O0 Si8 1.618686 1_555
O1 Si7 1.628149 1_555
O1 Si4 1.628149 1_555
O2 Si4 1.625316 1_555
O2 Si28 1.626169 1_555
O3 Si16 1.617997 1_554
O3 Si18 1.625341 1_555
O4 Si2 1.625867 1_555
O4 Si22 1.628496 1_655
O5 Si19 1.619191 1_554
O5 Si29 1.620373 1_555
O6 Si18 1.621492 1_555
O6 Si5 1.621564 1_565
O7 Si12 1.622358 1_555
O7 Si5 1.628792 1_455
O8 Si29 1.616141 1_555
O8 Si26 1.619773 1_555
O9 Si27 1.625867 1_555
O9 Si31 1.628496 1_455
O10 Si30 1.617997 1_556
O10 Si15 1.625341 1_555
O11 Si9 1.625316 1_555
O11 Si6 1.626169 1_555
O12 Si1 1.620202 1_555
O12 Si4 1.624235 1_555
O13 Si1 1.621492 1_555
O13 Si14 1.621564 1_565
O14 Si17 1.625867 1_555
O14 Si26 1.628496 1_555
O15 Si3 1.617997 1_554
O15 Si1 1.625341 1_555
O16 Si7 1.625316 1_555
O16 Si0 1.626169 1_555
O17 Si24 1.621492 1_555
O17 Si21 1.621564 1_545
O18 Si24 1.620202 1_555
O18 Si9 1.624235 1_555
O19 Si15 1.620202 1_555
O19 Si13 1.624235 1_555
O20 Si21 1.621386 1_555
O20 Si27 1.628718 1_555
O21 Si19 1.626953 1_554
O21 Si6 1.626953 1_554
O22 Si3 1.618017 1_555
O22 Si11 1.618686 1_555
O23 Si15 1.621492 1_555
O23 Si25 1.621564 1_545
O24 Si18 1.623903 1_545
O24 Si0 1.628278 1_555
O25 Si11 1.626590 1_555
O25 Si30 1.626722 1_556
O26 Si17 1.625099 1_555
O26 Si4 1.628105 1_555
O27 Si5 1.630114 1_465
O27 Si22 1.633637 1_555
O28 Si16 1.622358 1_555
O28 Si21 1.628792 1_655
O29 Si29 1.626590 1_555
O29 Si3 1.626722 1_554
O30 Si30 1.618017 1_555
O30 Si29 1.618686 1_555
O31 Si6 1.619191 1_554
O31 Si23 1.620373 1_555
O32 Si10 1.625099 1_555
O32 Si13 1.628105 1_555
O33 Si20 1.626183 1_555
O33 Si17 1.626951 1_555
O34 Si11 1.616141 1_555
O34 Si20 1.619773 1_555
O35 Si14 1.630114 1_565
O35 Si26 1.633637 1_555
O36 Si5 1.621386 1_555
O36 Si2 1.628718 1_555
O37 Si28 1.619191 1_556
O37 Si11 1.620373 1_555
O38 Si24 1.623903 1_565
O38 Si6 1.628278 1_555
O39 Si21 1.630114 1_645
O39 Si31 1.633637 1_555
O40 Si25 1.630114 1_545
O40 Si20 1.633637 1_555
O41 Si15 1.623903 1_565
O41 Si19 1.628278 1_555
O42 Si25 1.621386 1_555
O42 Si10 1.628718 1_555
O43 Si0 1.619191 1_556
O43 Si8 1.620373 1_555
O44 Si14 1.621386 1_555
O44 Si17 1.628718 1_555
O45 Si9 1.628149 1_555
O45 Si13 1.628149 1_555
O46 Si18 1.620202 1_555
O46 Si7 1.624235 1_555
O47 Si10 1.625867 1_555
O47 Si20 1.628496 1_555
O48 Si23 1.626590 1_555
O48 Si16 1.626722 1_454
O49 Si22 1.626183 1_555
O49 Si27 1.626951 1_555
O50 Si12 1.617997 1_556
O50 Si24 1.625341 1_555
O51 Si0 1.626953 1_556
O51 Si28 1.626953 1_556
O52 Si8 1.616141 1_555
O52 Si31 1.619773 1_555
O53 Si31 1.626183 1_555
O53 Si2 1.626951 1_555
O54 Si12 1.618017 1_555
O54 Si23 1.618686 1_555
O55 Si26 1.626183 1_555
O55 Si10 1.626951 1_555
O56 Si30 1.622358 1_555
O56 Si14 1.628792 1_555
O57 Si3 1.622358 1_555
O57 Si25 1.628792 1_555
O58 Si27 1.625099 1_555
O58 Si9 1.628105 1_555
O59 Si2 1.625099 1_555
O59 Si7 1.628105 1_555
O60 Si8 1.626590 1_555
O60 Si12 1.626722 1_656
O61 Si13 1.625316 1_555
O61 Si19 1.626169 1_555
O62 Si1 1.623903 1_545
O62 Si28 1.628278 1_555
O63 Si23 1.616141 1_555
O63 Si22 1.619773 1_555
