# generated using pymatgen
data_Ce11O20
_symmetry_space_group_name_H-M   'P 1'
_cell_length_a   6.72897191
_cell_length_b   6.74865595
_cell_length_c   10.24659173
_cell_angle_alpha   96.16579217
_cell_angle_beta   90.12123808
_cell_angle_gamma   99.71333450
_symmetry_Int_Tables_number   1
_chemical_formula_structural   Ce11O20
_chemical_formula_sum   'Ce11 O20'
_cell_volume   455.89227475
_cell_formula_units_Z   1
loop_
 _symmetry_equiv_pos_site_id
 _symmetry_equiv_pos_as_xyz
  1  'x, y, z'
loop_
 _atom_site_type_symbol
 _atom_site_label
 _atom_site_symmetry_multiplicity
 _atom_site_fract_x
 _atom_site_fract_y
 _atom_site_fract_z
 _atom_site_occupancy
  Ce  Ce0  1  -0.00000811  -0.00001093  -0.00000725  1
  Ce  Ce1  1  0.17783810  0.10023985  0.36434231  1
  Ce  Ce2  1  0.82216578  0.89975966  0.63567502  1
  Ce  Ce3  1  0.11686673  0.55297477  0.17277454  1
  Ce  Ce4  1  0.88310800  0.44702425  0.82720606  1
  Ce  Ce5  1  0.27269880  0.64030063  0.52583457  1
  Ce  Ce6  1  0.72729364  0.35969331  0.47419957  1
  Ce  Ce7  1  0.35911413  0.14630773  0.72416919  1
  Ce  Ce8  1  0.64089798  0.85371091  0.27583482  1
  Ce  Ce9  1  0.47151916  0.73601237  0.91789825  1
  Ce  Ce10  1  0.52851036  0.26398500  0.08207845  1
  O  O0  1  0.13830565  0.65639865  0.96024814  1
  O  O1  1  0.86166651  0.34359191  0.03971593  1
  O  O2  1  0.03600435  0.16089897  0.79904311  1
  O  O3  1  0.96396537  0.83912030  0.20095104  1
  O  O4  1  0.04525436  0.43041873  0.37039104  1
  O  O5  1  0.95469424  0.56957648  0.62963326  1
  O  O6  1  0.15420754  0.94382840  0.56481821  1
  O  O7  1  0.84574525  0.05617203  0.43520005  1
  O  O8  1  0.34309650  0.03562506  0.92975195  1
  O  O9  1  0.65691699  0.96437846  0.07025325  1
  O  O10  1  0.20030925  0.22301107  0.15304647  1
  O  O11  1  0.79969584  0.77697536  0.84694097  1
  O  O12  1  0.30958380  0.79744048  0.33526578  1
  O  O13  1  0.69046152  0.20256800  0.66472811  1
  O  O14  1  0.36403810  0.32984765  0.54162462  1
  O  O15  1  0.63598662  0.67016020  0.45838382  1
  O  O16  1  0.45980768  0.81950322  0.70235883  1
  O  O17  1  0.54021769  0.18046923  0.29765450  1
  O  O18  1  0.46731704  0.58932198  0.12685500  1
  O  O19  1  0.53271915  0.41069728  0.87313037  1
loop_
_geom_bond_atom_site_label_1
_geom_bond_atom_site_label_2
_geom_bond_distance
_geom_bond_site_symmetry_2
Ce0 O11 2.310989 1_444
Ce0 O10 2.311096 1_555
Ce0 O9 2.400502 1_445
Ce0 O8 2.400623 1_554
Ce0 O3 2.423007 1_445
Ce0 O2 2.423070 1_554
Ce0 O0 2.633583 1_544
Ce0 O1 2.633687 1_455
Ce1 O7 2.332000 1_455
Ce1 O12 2.352052 1_545
Ce1 O10 2.396098 1_555
Ce1 O6 2.402031 1_545
Ce1 O14 2.449762 1_555
Ce1 O17 2.519346 1_555
Ce1 O4 2.531069 1_555
Ce1 O3 2.545534 1_445
Ce2 O6 2.331674 1_655
Ce2 O13 2.351953 1_565
Ce2 O11 2.395848 1_555
Ce2 O7 2.402027 1_565
Ce2 O15 2.449741 1_555
Ce2 O16 2.519214 1_555
Ce2 O5 2.530915 1_555
Ce2 O2 2.545363 1_665
Ce3 O4 2.290390 1_555
Ce3 O3 2.328732 1_455
Ce3 O0 2.354588 1_554
Ce3 O1 2.358369 1_455
Ce3 O10 2.374974 1_555
Ce3 O18 2.382608 1_555
Ce3 O12 2.419622 1_555
Ce4 O5 2.289939 1_555
Ce4 O2 2.328586 1_655
Ce4 O1 2.354448 1_556
Ce4 O0 2.358248 1_655
Ce4 O11 2.374810 1_555
Ce4 O19 2.382222 1_555
Ce4 O13 2.419306 1_555
Ce5 O14 2.302274 1_555
Ce5 O16 2.307838 1_555
Ce5 O12 2.314573 1_555
Ce5 O6 2.316883 1_555
Ce5 O4 2.378876 1_555
Ce5 O5 2.389977 1_455
Ce5 O15 2.522889 1_555
Ce6 O15 2.302318 1_555
Ce6 O17 2.307942 1_555
Ce6 O13 2.314142 1_555
Ce6 O7 2.316723 1_555
Ce6 O5 2.378659 1_555
Ce6 O4 2.389771 1_655
Ce6 O14 2.522611 1_555
Ce7 O13 2.292624 1_555
Ce7 O6 2.304304 1_545
Ce7 O8 2.306252 1_555
Ce7 O2 2.321315 1_555
Ce7 O14 2.349056 1_555
Ce7 O19 2.362648 1_555
Ce7 O16 2.402550 1_545
Ce8 O12 2.292385 1_555
Ce8 O7 2.304149 1_565
Ce8 O9 2.306198 1_555
Ce8 O3 2.321078 1_555
Ce8 O15 2.349145 1_555
Ce8 O18 2.362694 1_555
Ce8 O17 2.402212 1_565
Ce9 O0 2.269816 1_555
Ce9 O9 2.279207 1_556
Ce9 O19 2.299894 1_555
Ce9 O11 2.307722 1_555
Ce9 O8 2.321039 1_565
Ce9 O16 2.341563 1_555
Ce9 O18 2.451783 1_556
Ce10 O1 2.269474 1_555
Ce10 O8 2.279054 1_554
Ce10 O18 2.300030 1_555
Ce10 O10 2.307912 1_555
Ce10 O9 2.320956 1_545
Ce10 O17 2.341983 1_555
Ce10 O19 2.451772 1_554
