# generated using pymatgen
data_RbLaNb2O7
_symmetry_space_group_name_H-M   'P 1'
_cell_length_a   11.92921406
_cell_length_b   11.92921406
_cell_length_c   11.92921406
_cell_angle_alpha   153.09975397
_cell_angle_beta   152.92488190
_cell_angle_gamma   38.53698656
_symmetry_Int_Tables_number   1
_chemical_formula_structural   RbLaNb2O7
_chemical_formula_sum   'Rb2 La2 Nb4 O14'
_cell_volume   349.00875404
_cell_formula_units_Z   2
loop_
 _symmetry_equiv_pos_site_id
 _symmetry_equiv_pos_as_xyz
  1  'x, y, z'
loop_
 _atom_site_type_symbol
 _atom_site_label
 _atom_site_symmetry_multiplicity
 _atom_site_fract_x
 _atom_site_fract_y
 _atom_site_fract_z
 _atom_site_occupancy
  Rb  Rb0  1  0.50000000  0.50000000  0.00000000  1
  Rb  Rb1  1  0.00000000  0.00000000  0.00000000  1
  La  La0  1  0.76450300  0.75000000  0.01450300  1
  La  La1  1  0.23549700  0.25000000  0.98549700  1
  Nb  Nb0  1  0.15170900  0.64718600  0.50452300  1
  Nb  Nb1  1  0.64266300  0.14718600  0.49547700  1
  Nb  Nb2  1  0.84829100  0.35281400  0.49547700  1
  Nb  Nb3  1  0.35733700  0.85281400  0.50452300  1
  O  O0  1  0.57417800  0.07417800  0.00000000  1
  O  O1  1  0.18237300  0.75000000  0.43237300  1
  O  O2  1  0.48171100  0.93200100  0.54971000  1
  O  O3  1  0.42582200  0.92582200  0.00000000  1
  O  O4  1  0.11770900  0.56799900  0.54971000  1
  O  O5  1  0.90567500  0.90567500  0.50000000  1
  O  O6  1  0.81762700  0.25000000  0.56762700  1
  O  O7  1  0.90567500  0.40567500  0.00000000  1
  O  O8  1  0.88229100  0.43200100  0.45029000  1
  O  O9  1  0.09432500  0.59432500  0.00000000  1
  O  O10  1  0.57417800  0.57417800  0.50000000  1
  O  O11  1  0.51828900  0.06799900  0.45029000  1
  O  O12  1  0.09432500  0.09432500  0.50000000  1
  O  O13  1  0.42582200  0.42582200  0.50000000  1
loop_
_geom_bond_atom_site_label_1
_geom_bond_atom_site_label_2
_geom_bond_distance
_geom_bond_site_symmetry_2
La0 O1 2.333740 1_655
La0 O10 2.626390 1_554
La0 O13 2.626390 1_554
La0 O0 2.626390 1_565
La0 O3 2.626390 1_555
La0 O6 2.790538 1_565
La0 O6 2.790538 1_554
La0 O12 2.857894 1_665
La0 O9 2.857894 1_655
La0 O5 2.857894 1_555
La0 O7 2.857894 1_555
La1 O6 2.333740 1_455
La1 O13 2.626390 1_556
La1 O10 2.626390 1_556
La1 O3 2.626390 1_546
La1 O0 2.626390 1_556
La1 O1 2.790538 1_545
La1 O1 2.790538 1_556
La1 O7 2.857894 1_456
La1 O12 2.857894 1_555
La1 O5 2.857894 1_445
La1 O9 2.857894 1_556
Nb0 O4 1.801211 1_555
Nb0 O7 1.995471 1_455
Nb0 O5 1.995471 1_455
Nb0 O13 2.054318 1_555
Nb0 O3 2.054318 1_556
Nb0 O1 2.350369 1_555
Nb1 O11 1.801211 1_555
Nb1 O5 1.995471 1_545
Nb1 O7 1.995471 1_556
Nb1 O3 2.054318 1_545
Nb1 O13 2.054318 1_555
Nb1 O6 2.350369 1_555
Nb2 O8 1.801211 1_555
Nb2 O9 1.995471 1_656
Nb2 O12 1.995471 1_655
Nb2 O10 2.054318 1_555
Nb2 O0 2.054318 1_555
Nb2 O6 2.350369 1_555
Nb3 O2 1.801211 1_555
Nb3 O9 1.995471 1_555
Nb3 O12 1.995471 1_565
Nb3 O0 2.054318 1_566
Nb3 O10 2.054318 1_555
Nb3 O1 2.350369 1_555
O2 Rb1 2.944422 1_666
O2 Rb0 3.181438 1_555
O2 Rb0 3.181438 1_566
O2 Rb1 3.430828 1_565
O4 Rb0 2.944422 1_556
O4 Rb1 3.181438 1_555
O4 Rb1 3.181438 1_566
O4 Rb0 3.430828 1_455
O8 Rb0 2.944422 1_555
O8 Rb1 3.181438 1_655
O8 Rb1 3.181438 1_666
O8 Rb0 3.430828 1_656
O11 Rb1 2.944422 1_555
O11 Rb0 3.181438 1_545
O11 Rb0 3.181438 1_556
O11 Rb1 3.430828 1_656
