# generated using pymatgen
data_Cu3P4(SI)3
_symmetry_space_group_name_H-M   'P 1'
_cell_length_a   7.14029900
_cell_length_b   10.13782300
_cell_length_c   19.47175300
_cell_angle_alpha   90.00000000
_cell_angle_beta   90.00000000
_cell_angle_gamma   90.00000000
_symmetry_Int_Tables_number   1
_chemical_formula_structural   Cu3P4(SI)3
_chemical_formula_sum   'Cu12 P16 S12 I12'
_cell_volume   1409.50348681
_cell_formula_units_Z   4
loop_
 _symmetry_equiv_pos_site_id
 _symmetry_equiv_pos_as_xyz
  1  'x, y, z'
loop_
 _atom_site_type_symbol
 _atom_site_label
 _atom_site_symmetry_multiplicity
 _atom_site_fract_x
 _atom_site_fract_y
 _atom_site_fract_z
 _atom_site_occupancy
  Cu  Cu0  1  0.45756900  0.51719100  0.68281200  1
  Cu  Cu1  1  0.54243100  0.48280900  0.31718800  1
  Cu  Cu2  1  0.46113100  0.25000000  0.86848300  1
  Cu  Cu3  1  0.54243100  0.01719100  0.31718800  1
  Cu  Cu4  1  0.04243100  0.51719100  0.18281200  1
  Cu  Cu5  1  0.45756900  0.98280900  0.68281200  1
  Cu  Cu6  1  0.53886900  0.75000000  0.13151700  1
  Cu  Cu7  1  0.96113100  0.75000000  0.63151700  1
  Cu  Cu8  1  0.95756900  0.48280900  0.81718800  1
  Cu  Cu9  1  0.04243100  0.98280900  0.18281200  1
  Cu  Cu10  1  0.03886900  0.25000000  0.36848300  1
  Cu  Cu11  1  0.95756900  0.01719100  0.81718800  1
  P  P0  1  0.41987800  0.25000000  0.14547800  1
  P  P1  1  0.16163800  0.36309300  0.11344400  1
  P  P2  1  0.66163800  0.86309300  0.38655600  1
  P  P3  1  0.16163800  0.13690700  0.11344400  1
  P  P4  1  0.08012200  0.25000000  0.64547800  1
  P  P5  1  0.33836200  0.13690700  0.61344400  1
  P  P6  1  0.37383900  0.25000000  0.97768300  1
  P  P7  1  0.12616100  0.25000000  0.47768300  1
  P  P8  1  0.91987800  0.75000000  0.35452200  1
  P  P9  1  0.87383900  0.75000000  0.52231700  1
  P  P10  1  0.58012200  0.75000000  0.85452200  1
  P  P11  1  0.83836200  0.86309300  0.88655600  1
  P  P12  1  0.83836200  0.63690700  0.88655600  1
  P  P13  1  0.66163800  0.63690700  0.38655600  1
  P  P14  1  0.33836200  0.36309300  0.61344400  1
  P  P15  1  0.62616100  0.75000000  0.02231700  1
  S  S0  1  0.70602000  0.91081300  0.49018700  1
  S  S1  1  0.79398000  0.91081300  0.99018700  1
  S  S2  1  0.29398000  0.08918700  0.50981300  1
  S  S3  1  0.91846800  0.25000000  0.55561900  1
  S  S4  1  0.70602000  0.58918700  0.49018700  1
  S  S5  1  0.20602000  0.08918700  0.00981300  1
  S  S6  1  0.20602000  0.41081300  0.00981300  1
  S  S7  1  0.58153200  0.25000000  0.05561900  1
  S  S8  1  0.79398000  0.58918700  0.99018700  1
  S  S9  1  0.29398000  0.41081300  0.50981300  1
  S  S10  1  0.41846800  0.75000000  0.94438100  1
  S  S11  1  0.08153200  0.75000000  0.44438100  1
  I  I0  1  0.82785100  0.25000000  0.85854700  1
  I  I1  1  0.67214900  0.25000000  0.35854700  1
  I  I2  1  0.82386500  0.96211900  0.69291100  1
  I  I3  1  0.17214900  0.75000000  0.14145300  1
  I  I4  1  0.17613500  0.03788100  0.30708900  1
  I  I5  1  0.32386500  0.03788100  0.80708900  1
  I  I6  1  0.17613500  0.46211900  0.30708900  1
  I  I7  1  0.32785100  0.75000000  0.64145300  1
  I  I8  1  0.82386500  0.53788100  0.69291100  1
  I  I9  1  0.67613500  0.96211900  0.19291100  1
  I  I10  1  0.67613500  0.53788100  0.19291100  1
  I  I11  1  0.32386500  0.46211900  0.80708900  1
loop_
_geom_bond_atom_site_label_1
_geom_bond_atom_site_label_2
_geom_bond_distance
_geom_bond_site_symmetry_2
Cu0 P14 2.233709 1_555
Cu0 I8 2.631219 1_555
Cu0 I7 2.660242 1_555
Cu0 I11 2.660641 1_555
Cu1 P13 2.233709 1_555
Cu1 I6 2.631219 1_555
Cu1 I1 2.660242 1_555
Cu1 I10 2.660641 1_555
Cu2 P6 2.215786 1_555
Cu2 I0 2.625628 1_555
Cu2 I11 2.648407 1_555
Cu2 I5 2.648407 1_555
Cu3 P2 2.233709 1_545
Cu3 I4 2.631219 1_555
Cu3 I1 2.660242 1_555
Cu3 I9 2.660641 1_545
Cu4 P1 2.233709 1_555
Cu4 I10 2.631219 1_455
Cu4 I3 2.660242 1_555
Cu4 I6 2.660641 1_555
Cu5 P5 2.233709 1_565
Cu5 I2 2.631219 1_555
Cu5 I7 2.660242 1_555
Cu5 I5 2.660641 1_565
Cu6 P15 2.215786 1_555
Cu6 I3 2.625628 1_555
Cu6 I9 2.648407 1_555
Cu6 I10 2.648407 1_555
Cu7 P9 2.215786 1_555
Cu7 I7 2.625628 1_655
Cu7 I2 2.648407 1_555
Cu7 I8 2.648407 1_555
Cu8 P12 2.233709 1_555
Cu8 I11 2.631219 1_655
Cu8 I0 2.660242 1_555
Cu8 I8 2.660641 1_555
Cu9 P3 2.233709 1_565
Cu9 I9 2.631219 1_455
Cu9 I3 2.660242 1_555
Cu9 I4 2.660641 1_565
Cu10 P7 2.215786 1_555
Cu10 I1 2.625628 1_455
Cu10 I4 2.648407 1_555
Cu10 I6 2.648407 1_555
Cu11 P11 2.233709 1_545
Cu11 I5 2.631219 1_655
Cu11 I0 2.660242 1_555
Cu11 I2 2.660641 1_545
P0 S7 2.096140 1_555
P0 P3 2.259111 1_555
P0 P1 2.259111 1_555
P1 S6 2.099118 1_555
P1 P3 2.293034 1_555
P2 S0 2.099118 1_555
P2 P8 2.259111 1_555
P3 S5 2.099118 1_555
P4 S3 2.096140 1_455
P4 P5 2.259111 1_555
P5 S2 2.099118 1_555
P6 S6 2.117814 1_556
P6 S5 2.117814 1_556
P6 S7 2.121843 1_556
P7 S2 2.117814 1_555
P7 S9 2.117814 1_555
P7 S3 2.121843 1_455
P8 S11 2.096140 1_655
P9 S0 2.117814 1_555
P9 S4 2.117814 1_555
P9 S11 2.121843 1_655
P10 S10 2.096140 1_555
P10 P12 2.259111 1_555
P10 P11 2.259111 1_555
P11 S1 2.099118 1_555
P11 P12 2.293034 1_555
P12 S8 2.099118 1_555
P13 S4 2.099118 1_555
P13 P8 2.259111 1_555
P13 P2 2.293034 1_555
P14 S9 2.099118 1_555
P14 P4 2.259111 1_555
P14 P5 2.293034 1_555
P15 S8 2.117814 1_554
P15 S1 2.117814 1_554
P15 S10 2.121843 1_554
