# generated using pymatgen
data_Sr3Fe2Cu2S2O5
_symmetry_space_group_name_H-M   'P 1'
_cell_length_a   13.62087475
_cell_length_b   13.62087475
_cell_length_c   13.62087475
_cell_angle_alpha   163.26102040
_cell_angle_beta   163.26102040
_cell_angle_gamma   23.75823969
_symmetry_Int_Tables_number   1
_chemical_formula_structural   Sr3Fe2Cu2S2O5
_chemical_formula_sum   'Sr3 Fe2 Cu2 S2 O5'
_cell_volume   209.57267119
_cell_formula_units_Z   1
loop_
 _symmetry_equiv_pos_site_id
 _symmetry_equiv_pos_as_xyz
  1  'x, y, z'
loop_
 _atom_site_type_symbol
 _atom_site_label
 _atom_site_symmetry_multiplicity
 _atom_site_fract_x
 _atom_site_fract_y
 _atom_site_fract_z
 _atom_site_occupancy
  Sr  Sr0  1  0.50000000  0.50000000  0.00000000  1
  Sr  Sr1  1  0.64231600  0.64231600  0.00000000  1
  Sr  Sr2  1  0.35768400  0.35768400  0.00000000  1
  Fe  Fe0  1  0.07228600  0.07228600  0.00000000  1
  Fe  Fe1  1  0.92771400  0.92771400  0.00000000  1
  Cu  Cu0  1  0.75000000  0.25000000  0.50000000  1
  Cu  Cu1  1  0.25000000  0.75000000  0.50000000  1
  S  S0  1  0.19783100  0.19783100  0.00000000  1
  S  S1  1  0.80216900  0.80216900  0.00000000  1
  O  O0  1  0.58276000  0.08276000  0.50000000  1
  O  O1  1  0.08276000  0.58276000  0.50000000  1
  O  O2  1  0.41724000  0.91724000  0.50000000  1
  O  O3  1  0.91724000  0.41724000  0.50000000  1
  O  O4  1  0.00000000  0.00000000  0.00000000  1
loop_
_geom_bond_atom_site_label_1
_geom_bond_atom_site_label_2
_geom_bond_distance
_geom_bond_site_symmetry_2
Fe0 O4 1.927025 1_555
Fe0 O0 2.002168 1_454
Fe0 O1 2.002168 1_555
Fe0 O1 2.002168 1_544
Fe0 O0 2.002168 1_555
Fe1 O4 1.927025 1_665
Fe1 O3 2.002168 1_565
Fe1 O2 2.002168 1_655
Fe1 O2 2.002168 1_554
Fe1 O3 2.002168 1_554
Cu0 S0 2.421749 1_656
Cu0 S1 2.421749 1_556
Cu0 S1 2.421749 1_545
Cu0 S0 2.421749 1_555
Cu1 S0 2.421749 1_566
Cu1 S1 2.421749 1_455
Cu1 S0 2.421749 1_555
Cu1 S1 2.421749 1_556
S0 Sr1 3.170433 1_545
S0 Sr1 3.170433 1_455
S0 Sr1 3.170433 1_556
S0 Sr1 3.170433 1_444
S1 Sr2 3.170433 1_666
S1 Sr2 3.170433 1_655
S1 Sr2 3.170433 1_565
S1 Sr2 3.170433 1_554
O0 Sr1 2.539959 1_556
O0 Sr1 2.539959 1_545
O0 Sr0 2.966181 1_545
O0 Sr0 2.966181 1_556
O1 Sr1 2.539959 1_455
O1 Sr1 2.539959 1_556
O1 Sr0 2.966181 1_455
O1 Sr0 2.966181 1_556
O2 Sr2 2.539959 1_555
O2 Sr2 2.539959 1_566
O2 Sr0 2.966181 1_566
O2 Sr0 2.966181 1_555
O3 Sr2 2.539959 1_555
O3 Sr2 2.539959 1_656
O3 Sr0 2.966181 1_656
O3 Sr0 2.966181 1_555
O4 Sr0 2.803824 1_444
O4 Sr0 2.803824 1_545
O4 Sr0 2.803824 1_455
O4 Sr0 2.803824 1_556
