# generated using pymatgen
data_BaCa2C2(O3F)2
_symmetry_space_group_name_H-M   'P 1'
_cell_length_a   6.98604127
_cell_length_b   6.98604127
_cell_length_c   9.55977800
_cell_angle_alpha   90.00000000
_cell_angle_beta   90.00000000
_cell_angle_gamma   129.69353655
_symmetry_Int_Tables_number   1
_chemical_formula_structural   BaCa2C2(O3F)2
_chemical_formula_sum   'Ba2 Ca4 C4 O12 F4'
_cell_volume   359.00682167
_cell_formula_units_Z   2
loop_
 _symmetry_equiv_pos_site_id
 _symmetry_equiv_pos_as_xyz
  1  'x, y, z'
loop_
 _atom_site_type_symbol
 _atom_site_label
 _atom_site_symmetry_multiplicity
 _atom_site_fract_x
 _atom_site_fract_y
 _atom_site_fract_z
 _atom_site_occupancy
  Ba  Ba0  1  0.00121400  0.00121400  0.75000000  1
  Ba  Ba1  1  0.99878600  0.99878600  0.25000000  1
  Ca  Ca0  1  0.64637500  0.35362500  0.00000000  1
  Ca  Ca1  1  0.64637500  0.35362500  0.50000000  1
  Ca  Ca2  1  0.35362500  0.64637500  0.50000000  1
  Ca  Ca3  1  0.35362500  0.64637500  0.00000000  1
  C  C0  1  0.90202300  0.40869000  0.75000000  1
  C  C1  1  0.59131000  0.09797700  0.25000000  1
  C  C2  1  0.40869000  0.90202300  0.75000000  1
  C  C3  1  0.09797700  0.59131000  0.25000000  1
  O  O0  1  0.04253600  0.63714500  0.13223800  1
  O  O1  1  0.63714500  0.04253600  0.36776200  1
  O  O2  1  0.36285500  0.95746400  0.63223800  1
  O  O3  1  0.36285500  0.95746400  0.86776200  1
  O  O4  1  0.95746400  0.36285500  0.63223800  1
  O  O5  1  0.22231100  0.50967900  0.25000000  1
  O  O6  1  0.77768900  0.49032100  0.75000000  1
  O  O7  1  0.50967900  0.22231100  0.25000000  1
  O  O8  1  0.63714500  0.04253600  0.13223800  1
  O  O9  1  0.95746400  0.36285500  0.86776200  1
  O  O10  1  0.04253600  0.63714500  0.36776200  1
  O  O11  1  0.49032100  0.77768900  0.75000000  1
  F  F0  1  0.73514900  0.73514900  0.00607600  1
  F  F1  1  0.73514900  0.73514900  0.49392400  1
  F  F2  1  0.26485100  0.26485100  0.50607600  1
  F  F3  1  0.26485100  0.26485100  0.99392400  1
loop_
_geom_bond_atom_site_label_1
_geom_bond_atom_site_label_2
_geom_bond_distance
_geom_bond_site_symmetry_2
Ba0 F3 2.808712 1_555
Ba0 F2 2.808712 1_555
Ba0 O11 2.838635 1_445
Ba0 O6 2.838635 1_445
Ba0 F0 2.913675 1_446
Ba0 F1 2.913675 1_445
Ba0 O9 2.954664 1_455
Ba0 O3 2.954664 1_545
Ba0 O2 2.954664 1_545
Ba0 O4 2.954664 1_455
Ba1 F0 2.808712 1_555
Ba1 F1 2.808712 1_555
Ba1 O5 2.838635 1_665
Ba1 O7 2.838635 1_665
Ba1 F2 2.913675 1_665
Ba1 F3 2.913675 1_664
Ba1 O0 2.954664 1_655
Ba1 O8 2.954664 1_565
Ba1 O1 2.954664 1_565
Ba1 O10 2.954664 1_655
Ca0 F3 2.319608 1_554
Ca0 F0 2.319608 1_555
Ca0 O8 2.479197 1_555
Ca0 O9 2.479197 1_554
Ca0 O3 2.485690 1_544
Ca0 O0 2.485690 1_655
Ca0 O7 2.519189 1_555
Ca0 O6 2.519189 1_554
Ca1 F2 2.319608 1_555
Ca1 F1 2.319608 1_555
Ca1 O1 2.479197 1_555
Ca1 O4 2.479197 1_555
Ca1 O2 2.485690 1_545
Ca1 O10 2.485690 1_655
Ca1 O7 2.519189 1_555
Ca1 O6 2.519189 1_555
Ca2 F2 2.319608 1_555
Ca2 F1 2.319608 1_555
Ca2 O10 2.479197 1_555
Ca2 O2 2.479197 1_555
Ca2 O4 2.485690 1_455
Ca2 O1 2.485690 1_565
Ca2 O5 2.519189 1_555
Ca2 O11 2.519189 1_555
Ca3 F3 2.319608 1_554
Ca3 F0 2.319608 1_555
Ca3 O0 2.479197 1_555
Ca3 O3 2.479197 1_554
Ca3 O9 2.485690 1_454
Ca3 O8 2.485690 1_565
Ca3 O5 2.519189 1_555
Ca3 O11 2.519189 1_554
C0 O9 1.295507 1_555
C0 O4 1.295507 1_555
C0 O6 1.308595 1_555
C1 O1 1.295507 1_555
C1 O8 1.295507 1_555
C1 O7 1.308595 1_555
C2 O3 1.295507 1_555
C2 O2 1.295507 1_555
C2 O11 1.308595 1_555
C3 O10 1.295507 1_555
C3 O0 1.295507 1_555
C3 O5 1.308595 1_555
