# generated using pymatgen
data_Ag2BiO3
_symmetry_space_group_name_H-M   'P 1'
_cell_length_a   6.13507400
_cell_length_b   6.33245100
_cell_length_c   9.84926200
_cell_angle_alpha   90.00000000
_cell_angle_beta   90.00000000
_cell_angle_gamma   90.00000000
_symmetry_Int_Tables_number   1
_chemical_formula_structural   Ag2BiO3
_chemical_formula_sum   'Ag8 Bi4 O12'
_cell_volume   382.64437520
_cell_formula_units_Z   4
loop_
 _symmetry_equiv_pos_site_id
 _symmetry_equiv_pos_as_xyz
  1  'x, y, z'
loop_
 _atom_site_type_symbol
 _atom_site_label
 _atom_site_symmetry_multiplicity
 _atom_site_fract_x
 _atom_site_fract_y
 _atom_site_fract_z
 _atom_site_occupancy
  Ag  Ag0  1  0.72229400  0.75000000  0.25000000  1
  Ag  Ag1  1  0.50000000  0.00000000  0.50000000  1
  Ag  Ag2  1  0.22229400  0.75000000  0.75000000  1
  Ag  Ag3  1  0.77770600  0.25000000  0.25000000  1
  Ag  Ag4  1  0.00000000  0.00000000  0.50000000  1
  Ag  Ag5  1  0.27770600  0.25000000  0.75000000  1
  Ag  Ag6  1  0.00000000  0.50000000  0.00000000  1
  Ag  Ag7  1  0.50000000  0.50000000  0.00000000  1
  Bi  Bi0  1  0.25000000  0.50000000  0.39592800  1
  Bi  Bi1  1  0.75000000  0.50000000  0.60407200  1
  Bi  Bi2  1  0.75000000  0.00000000  0.89592800  1
  Bi  Bi3  1  0.25000000  0.00000000  0.10407200  1
  O  O0  1  0.43510500  0.68258100  0.56198400  1
  O  O1  1  0.56489500  0.18258100  0.06198400  1
  O  O2  1  0.93510500  0.81741900  0.06198400  1
  O  O3  1  0.43510500  0.81741900  0.93801600  1
  O  O4  1  0.93510500  0.68258100  0.43801600  1
  O  O5  1  0.35482500  0.75000000  0.25000000  1
  O  O6  1  0.06489500  0.18258100  0.93801600  1
  O  O7  1  0.14517500  0.25000000  0.25000000  1
  O  O8  1  0.64517500  0.25000000  0.75000000  1
  O  O9  1  0.56489500  0.31741900  0.43801600  1
  O  O10  1  0.85482500  0.75000000  0.75000000  1
  O  O11  1  0.06489500  0.31741900  0.56198400  1
loop_
_geom_bond_atom_site_label_1
_geom_bond_atom_site_label_2
_geom_bond_distance
_geom_bond_site_symmetry_2
Ag0 O5 2.254450 1_555
Ag0 O4 2.305671 1_555
Ag0 O2 2.305671 1_555
Ag1 O0 2.138102 1_545
Ag1 O9 2.138102 1_555
Ag2 O10 2.254450 1_455
Ag2 O0 2.305671 1_555
Ag2 O3 2.305671 1_555
Ag3 O7 2.254450 1_655
Ag3 O9 2.305671 1_555
Ag3 O1 2.305671 1_555
Ag4 O11 2.138102 1_555
Ag4 O4 2.138102 1_445
Ag5 O8 2.254450 1_555
Ag5 O6 2.305671 1_555
Ag5 O11 2.305671 1_555
Ag6 O6 2.138102 1_554
Ag6 O2 2.138102 1_455
Ag7 O3 2.138102 1_554
Ag7 O1 2.138102 1_555
Bi0 O7 2.232850 1_555
Bi0 O5 2.232850 1_555
Bi0 O9 2.289292 1_555
Bi0 O4 2.289292 1_455
Bi0 O0 2.302473 1_555
Bi0 O11 2.302473 1_555
Bi1 O8 2.232850 1_555
Bi1 O10 2.232850 1_555
Bi1 O11 2.289292 1_655
Bi1 O0 2.289292 1_555
Bi1 O4 2.302473 1_555
Bi1 O9 2.302473 1_555
Bi2 O10 2.232850 1_545
Bi2 O8 2.232850 1_555
Bi2 O3 2.289292 1_545
Bi2 O6 2.289292 1_655
Bi2 O2 2.302473 1_546
Bi2 O1 2.302473 1_556
Bi3 O5 2.232850 1_545
Bi3 O7 2.232850 1_555
Bi3 O1 2.289292 1_555
Bi3 O2 2.289292 1_445
Bi3 O3 2.302473 1_544
Bi3 O6 2.302473 1_554
