# generated using pymatgen
data_SrB4O7
_symmetry_space_group_name_H-M   'P 1'
_cell_length_a   4.24129241
_cell_length_b   4.43227665
_cell_length_c   10.72692872
_cell_angle_alpha   90.00000000
_cell_angle_beta   90.00000000
_cell_angle_gamma   90.00000000
_symmetry_Int_Tables_number   1
_chemical_formula_structural   SrB4O7
_chemical_formula_sum   'Sr2 B8 O14'
_cell_volume   201.65104180
_cell_formula_units_Z   2
loop_
 _symmetry_equiv_pos_site_id
 _symmetry_equiv_pos_as_xyz
  1  'x, y, z'
loop_
 _atom_site_type_symbol
 _atom_site_label
 _atom_site_symmetry_multiplicity
 _atom_site_fract_x
 _atom_site_fract_y
 _atom_site_fract_z
 _atom_site_occupancy
  Sr  Sr0  1  0.50149514  0.28708322  0.50000000  1
  Sr  Sr1  1  0.00149514  0.71291678  0.00000000  1
  B  B0  1  0.00643330  0.32176693  0.75115987  1
  B  B1  1  0.50643330  0.67823307  0.74884013  1
  B  B2  1  0.03033004  0.82576474  0.62167601  1
  B  B3  1  0.53033004  0.17423526  0.87832399  1
  B  B4  1  0.53033004  0.17423526  0.12167601  1
  B  B5  1  0.03033004  0.82576474  0.37832399  1
  B  B6  1  0.50643330  0.67823307  0.25115987  1
  B  B7  1  0.00643330  0.32176693  0.24884013  1
  O  O0  1  0.95945665  0.14290601  0.64157123  1
  O  O1  1  0.86672931  0.22690656  0.13536950  1
  O  O2  1  0.36672931  0.77309344  0.36463050  1
  O  O3  1  0.36672931  0.77309344  0.63536950  1
  O  O4  1  0.36318017  0.36802348  0.22229336  1
  O  O5  1  0.86318017  0.63197652  0.27770664  1
  O  O6  1  0.86318017  0.63197652  0.72229336  1
  O  O7  1  0.36318017  0.36802348  0.77770664  1
  O  O8  1  0.45945665  0.85709399  0.14157123  1
  O  O9  1  0.95945665  0.14290601  0.35842877  1
  O  O10  1  0.92424291  0.72815433  0.50000000  1
  O  O11  1  0.42424291  0.27184567  0.00000000  1
  O  O12  1  0.86672931  0.22690656  0.86463050  1
  O  O13  1  0.45945665  0.85709399  0.85842877  1
loop_
_geom_bond_atom_site_label_1
_geom_bond_atom_site_label_2
_geom_bond_distance
_geom_bond_site_symmetry_2
B0 O12 1.417539 1_455
B0 O0 1.431811 1_455
B0 O6 1.534757 1_455
B0 O7 1.553222 1_555
B1 O3 1.417539 1_555
B1 O13 1.431811 1_555
B1 O7 1.534757 1_555
B1 O6 1.553222 1_555
B2 O10 1.446789 1_455
B2 O3 1.453184 1_555
B2 O0 1.453195 1_465
B2 O6 1.550888 1_455
B3 O11 1.446789 1_556
B3 O12 1.453184 1_555
B3 O13 1.453195 1_545
B3 O7 1.550888 1_555
B4 O11 1.446789 1_555
B4 O1 1.453184 1_555
B4 O8 1.453195 1_545
B4 O4 1.550888 1_555
B5 O10 1.446789 1_455
B5 O2 1.453184 1_555
B5 O9 1.453195 1_465
B5 O5 1.550888 1_455
B6 O2 1.417539 1_555
B6 O8 1.431811 1_555
B6 O4 1.534757 1_555
B6 O5 1.553222 1_555
B7 O1 1.417539 1_455
B7 O9 1.431811 1_455
B7 O5 1.534757 1_455
B7 O4 1.553222 1_555
O0 Sr0 2.547018 1_555
O0 Sr0 2.828379 1_655
O1 Sr1 2.659996 1_655
O1 Sr1 2.761384 1_645
O2 Sr0 2.659996 1_555
O2 Sr0 2.761384 1_565
O3 Sr0 2.659996 1_555
O3 Sr0 2.761384 1_565
O8 Sr1 2.547018 1_555
O8 Sr1 2.828379 1_655
O9 Sr0 2.547018 1_555
O9 Sr0 2.828379 1_655
O10 Sr0 2.652671 1_555
O11 Sr1 2.652671 1_555
O12 Sr1 2.659996 1_656
O12 Sr1 2.761384 1_646
O13 Sr1 2.547018 1_556
O13 Sr1 2.828379 1_656
