# generated using pymatgen
data_Na7Ga13
_symmetry_space_group_name_H-M   'P 1'
_cell_length_a   15.70880988
_cell_length_b   15.70880988
_cell_length_c   15.70881054
_cell_angle_alpha   57.43030411
_cell_angle_beta   57.43030411
_cell_angle_gamma   57.43030215
_symmetry_Int_Tables_number   1
_chemical_formula_structural   Na7Ga13
_chemical_formula_sum   'Na42 Ga78'
_cell_volume   2578.97882810
_cell_formula_units_Z   6
loop_
 _symmetry_equiv_pos_site_id
 _symmetry_equiv_pos_as_xyz
  1  'x, y, z'
loop_
 _atom_site_type_symbol
 _atom_site_label
 _atom_site_symmetry_multiplicity
 _atom_site_fract_x
 _atom_site_fract_y
 _atom_site_fract_z
 _atom_site_occupancy
  Na  Na0  1  0.50080100  0.87857800  0.25135100  1
  Na  Na1  1  0.25298100  0.87280000  0.87280000  1
  Na  Na2  1  0.12142200  0.74864900  0.49919900  1
  Na  Na3  1  0.50080100  0.25135100  0.87857800  1
  Na  Na4  1  0.13968500  0.13968500  0.50994900  1
  Na  Na5  1  0.12142200  0.49919900  0.74864900  1
  Na  Na6  1  0.49005100  0.86031500  0.86031500  1
  Na  Na7  1  0.61998300  0.61998300  0.61998300  1
  Na  Na8  1  0.75541300  0.75541300  0.06003200  1
  Na  Na9  1  0.12720000  0.74701900  0.12720000  1
  Na  Na10  1  0.74701900  0.12720000  0.12720000  1
  Na  Na11  1  0.75541300  0.06003200  0.75541300  1
  Na  Na12  1  0.87857800  0.50080100  0.25135100  1
  Na  Na13  1  0.93996800  0.24458700  0.24458700  1
  Na  Na14  1  0.04408900  0.04408900  0.04408900  1
  Na  Na15  1  0.24458700  0.24458700  0.93996800  1
  Na  Na16  1  0.13968500  0.50994900  0.13968500  1
  Na  Na17  1  0.28073600  0.66650600  0.28073600  1
  Na  Na18  1  0.87280000  0.87280000  0.25298100  1
  Na  Na19  1  0.71926400  0.33349400  0.71926400  1
  Na  Na20  1  0.86031500  0.49005100  0.86031500  1
  Na  Na21  1  0.87280000  0.25298100  0.87280000  1
  Na  Na22  1  0.74864900  0.49919900  0.12142200  1
  Na  Na23  1  0.12720000  0.12720000  0.74701900  1
  Na  Na24  1  0.71926400  0.71926400  0.33349400  1
  Na  Na25  1  0.74864900  0.12142200  0.49919900  1
  Na  Na26  1  0.28073600  0.28073600  0.66650600  1
  Na  Na27  1  0.66650600  0.28073600  0.28073600  1
  Na  Na28  1  0.24458700  0.93996800  0.24458700  1
  Na  Na29  1  0.06003200  0.75541300  0.75541300  1
  Na  Na30  1  0.95591100  0.95591100  0.95591100  1
  Na  Na31  1  0.25135100  0.87857800  0.50080100  1
  Na  Na32  1  0.87857800  0.25135100  0.50080100  1
  Na  Na33  1  0.71127700  0.71127700  0.71127700  1
  Na  Na34  1  0.28872300  0.28872300  0.28872300  1
  Na  Na35  1  0.86031500  0.86031500  0.49005100  1
  Na  Na36  1  0.49919900  0.12142200  0.74864900  1
  Na  Na37  1  0.33349400  0.71926400  0.71926400  1
  Na  Na38  1  0.38001700  0.38001700  0.38001700  1
  Na  Na39  1  0.25135100  0.50080100  0.87857800  1
  Na  Na40  1  0.50994900  0.13968500  0.13968500  1
  Na  Na41  1  0.49919900  0.74864900  0.12142200  1
  Ga  Ga0  1  0.50942100  0.50942100  0.15936400  1
  Ga  Ga1  1  0.08363800  0.08363800  0.39601500  1
  Ga  Ga2  1  0.60398500  0.91636200  0.91636200  1
  Ga  Ga3  1  0.08363800  0.39601500  0.08363800  1
  Ga  Ga4  1  0.99447900  0.99447900  0.38672100  1
  Ga  Ga5  1  0.61877000  0.61877000  0.30010400  1
  Ga  Ga6  1  0.67066100  0.48856800  0.48856800  1
  Ga  Ga7  1  0.92793500  0.73696600  0.11963800  1
  Ga  Ga8  1  0.26303400  0.88036200  0.07206500  1
  Ga  Ga9  1  0.61702700  0.31033000  0.96289500  1
  Ga  Ga10  1  0.96289500  0.31033000  0.61702700  1
  Ga  Ga11  1  0.50942100  0.15936400  0.50942100  1
  Ga  Ga12  1  0.11963800  0.92793500  0.73696600  1
  Ga  Ga13  1  0.71857700  0.90811200  0.71857700  1
  Ga  Ga14  1  0.30010400  0.61877000  0.61877000  1
  Ga  Ga15  1  0.91636200  0.60398500  0.91636200  1
  Ga  Ga16  1  0.60863000  0.95671100  0.60863000  1
  Ga  Ga17  1  0.04328900  0.39137000  0.39137000  1
  Ga  Ga18  1  0.03710500  0.68967000  0.38297300  1
  Ga  Ga19  1  0.39601500  0.08363800  0.08363800  1
  Ga  Ga20  1  0.88036200  0.07206500  0.26303400  1
  Ga  Ga21  1  0.68967000  0.38297300  0.03710500  1
  Ga  Ga22  1  0.96289500  0.61702700  0.31033000  1
  Ga  Ga23  1  0.61702700  0.96289500  0.31033000  1
  Ga  Ga24  1  0.00552100  0.61327900  0.00552100  1
  Ga  Ga25  1  0.15915800  0.51124700  0.33247200  1
  Ga  Ga26  1  0.09188800  0.28142300  0.28142300  1
  Ga  Ga27  1  0.95671100  0.60863000  0.60863000  1
  Ga  Ga28  1  0.07206500  0.26303400  0.88036200  1
  Ga  Ga29  1  0.49057900  0.84063600  0.49057900  1
  Ga  Ga30  1  0.28142300  0.09188800  0.28142300  1
  Ga  Ga31  1  0.61327900  0.00552100  0.00552100  1
  Ga  Ga32  1  0.38123000  0.38123000  0.69989600  1
  Ga  Ga33  1  0.48875300  0.66752800  0.84084200  1
  Ga  Ga34  1  0.31033000  0.61702700  0.96289500  1
  Ga  Ga35  1  0.91636200  0.91636200  0.60398500  1
  Ga  Ga36  1  0.11963800  0.73696600  0.92793500  1
  Ga  Ga37  1  0.03710500  0.38297300  0.68967000  1
  Ga  Ga38  1  0.48856800  0.67066100  0.48856800  1
  Ga  Ga39  1  0.32933900  0.51143200  0.51143200  1
  Ga  Ga40  1  0.90811200  0.71857700  0.71857700  1
  Ga  Ga41  1  0.51143200  0.32933900  0.51143200  1
  Ga  Ga42  1  0.38123000  0.69989600  0.38123000  1
  Ga  Ga43  1  0.69989600  0.38123000  0.38123000  1
  Ga  Ga44  1  0.48856800  0.48856800  0.67066100  1
  Ga  Ga45  1  0.38297300  0.68967000  0.03710500  1
  Ga  Ga46  1  0.51124700  0.33247200  0.15915800  1
  Ga  Ga47  1  0.33247200  0.15915800  0.51124700  1
  Ga  Ga48  1  0.84063600  0.49057900  0.49057900  1
  Ga  Ga49  1  0.51143200  0.51143200  0.32933900  1
  Ga  Ga50  1  0.99447900  0.38672100  0.99447900  1
  Ga  Ga51  1  0.66752800  0.48875300  0.84084200  1
  Ga  Ga52  1  0.84084200  0.48875300  0.66752800  1
  Ga  Ga53  1  0.39137000  0.39137000  0.04328900  1
  Ga  Ga54  1  0.73696600  0.92793500  0.11963800  1
  Ga  Ga55  1  0.49057900  0.49057900  0.84063600  1
  Ga  Ga56  1  0.33247200  0.51124700  0.15915800  1
  Ga  Ga57  1  0.38297300  0.03710500  0.68967000  1
  Ga  Ga58  1  0.31033000  0.96289500  0.61702700  1
  Ga  Ga59  1  0.28142300  0.28142300  0.09188800  1
  Ga  Ga60  1  0.48875300  0.84084200  0.66752800  1
  Ga  Ga61  1  0.38672100  0.99447900  0.99447900  1
  Ga  Ga62  1  0.61877000  0.30010400  0.61877000  1
  Ga  Ga63  1  0.68967000  0.03710500  0.38297300  1
  Ga  Ga64  1  0.26303400  0.07206500  0.88036200  1
  Ga  Ga65  1  0.07206500  0.88036200  0.26303400  1
  Ga  Ga66  1  0.66752800  0.84084200  0.48875300  1
  Ga  Ga67  1  0.15936400  0.50942100  0.50942100  1
  Ga  Ga68  1  0.39137000  0.04328900  0.39137000  1
  Ga  Ga69  1  0.88036200  0.26303400  0.07206500  1
  Ga  Ga70  1  0.71857700  0.71857700  0.90811200  1
  Ga  Ga71  1  0.60863000  0.60863000  0.95671100  1
  Ga  Ga72  1  0.84084200  0.66752800  0.48875300  1
  Ga  Ga73  1  0.15915800  0.33247200  0.51124700  1
  Ga  Ga74  1  0.51124700  0.15915800  0.33247200  1
  Ga  Ga75  1  0.73696600  0.11963800  0.92793500  1
  Ga  Ga76  1  0.92793500  0.11963800  0.73696600  1
  Ga  Ga77  1  0.00552100  0.00552100  0.61327900  1
loop_
_geom_bond_atom_site_label_1
_geom_bond_atom_site_label_2
_geom_bond_distance
_geom_bond_site_symmetry_2
Ga0 Ga71 2.631300 1_554
Ga0 Ga49 2.704471 1_555
Ga0 Ga46 2.766057 1_555
Ga0 Ga56 2.766057 1_555
Ga0 Ga45 2.801506 1_555
Ga0 Ga21 2.801506 1_555
Ga0 Na38 3.091223 1_555
Ga0 Na27 3.282760 1_555
Ga0 Na17 3.282760 1_555
Ga0 Na22 3.397839 1_555
Ga0 Na41 3.397839 1_555
Ga1 Ga4 2.548896 1_445
Ga1 Ga30 2.659174 1_555
Ga1 Ga26 2.659174 1_555
Ga1 Ga77 2.694981 1_555
Ga1 Na4 2.996876 1_555
Ga1 Na31 3.138486 1_545
Ga1 Na32 3.138486 1_455
Ga1 Na13 3.210254 1_455
Ga1 Na28 3.210254 1_545
Ga2 Ga31 2.548897 1_566
Ga2 Ga70 2.659173 1_555
Ga2 Ga61 2.694981 1_555
Ga2 Na6 2.996876 1_555
Ga2 Na36 3.138486 1_565
Ga2 Na41 3.138486 1_556
Ga2 Na8 3.210254 1_556
Ga2 Na11 3.210254 1_565
Ga3 Ga50 2.548897 1_454
Ga3 Ga59 2.659173 1_555
Ga3 Na16 2.996876 1_555
Ga3 Na12 3.138486 1_455
Ga3 Na39 3.138486 1_554
Ga3 Na15 3.210254 1_554
Ga3 Na13 3.210254 1_455
Ga4 Ga65 2.705975 1_655
Ga4 Na35 2.989018 1_555
Ga4 Na13 3.185324 1_565
Ga4 Na28 3.185324 1_655
Ga4 Na2 3.188644 1_655
Ga4 Na25 3.188644 1_565
Ga5 Ga6 2.810063 1_555
Ga5 Na24 3.118565 1_555
Ga5 Na12 3.270680 1_555
Ga5 Na0 3.270680 1_555
Ga5 Na22 3.309674 1_555
Ga5 Na41 3.309674 1_555
Ga5 Na8 3.311633 1_555
Ga6 Ga62 2.810062 1_555
Ga6 Na7 3.194766 1_555
Ga6 Na24 3.334966 1_555
Ga6 Na19 3.334966 1_555
Ga6 Na32 3.375135 1_555
Ga6 Na12 3.375135 1_555
Ga7 Na30 3.086067 1_554
Ga7 Na8 3.146404 1_555
Ga7 Na24 3.198061 1_555
Ga7 Na18 3.249609 1_555
Ga7 Na9 3.284822 1_655
Ga7 Na16 3.320905 1_655
Ga7 Na12 3.427929 1_555
Ga8 Na14 3.086067 1_565
Ga8 Na28 3.146404 1_555
Ga8 Na17 3.198061 1_555
Ga8 Na9 3.249609 1_555
Ga8 Na1 3.284822 1_554
Ga8 Na6 3.320905 1_554
Ga8 Na41 3.427929 1_555
Ga9 Na40 3.088328 1_556
Ga9 Na19 3.141818 1_555
Ga9 Na21 3.211132 1_555
Ga9 Na10 3.234660 1_556
Ga9 Na3 3.419393 1_555
Ga10 Ga52 2.670531 1_555
Ga10 Ga73 2.721021 1_655
Ga10 Ga76 2.721282 1_555
Ga10 Ga17 2.798872 1_655
Ga10 Ga48 2.801506 1_555
Ga10 Ga37 2.868771 1_655
Ga10 Na4 3.088328 1_655
Ga10 Na19 3.141818 1_555
Ga10 Na21 3.211132 1_555
Ga10 Na23 3.234660 1_655
Ga10 Na32 3.419393 1_555
Ga11 Ga16 2.631300 1_545
Ga11 Ga41 2.704471 1_555
Ga11 Ga47 2.766057 1_555
Ga11 Ga74 2.766058 1_555
Ga11 Ga63 2.801506 1_555
Ga11 Ga57 2.801506 1_555
Ga11 Na38 3.091223 1_555
Ga11 Na26 3.282760 1_555
Ga11 Na27 3.282760 1_555
Ga11 Na25 3.397839 1_555
Ga11 Na36 3.397839 1_555
Ga12 Ga77 2.705975 1_565
Ga12 Ga58 2.721282 1_555
Ga12 Ga36 2.882633 1_555
Ga12 Ga76 2.893712 1_465
Ga12 Na30 3.086067 1_455
Ga12 Na29 3.146404 1_555
Ga12 Na37 3.198061 1_555
Ga12 Na1 3.249609 1_555
Ga12 Na23 3.284822 1_565
Ga12 Na4 3.320905 1_565
Ga12 Na31 3.427929 1_555
Ga13 Ga16 2.630825 1_555
Ga13 Ga35 2.659174 1_555
Ga13 Ga2 2.659174 1_555
Ga13 Ga40 2.860986 1_555
Ga13 Ga70 2.860987 1_555
Ga13 Na11 3.114329 1_565
Ga13 Na33 3.219426 1_555
Ga13 Na36 3.293359 1_565
Ga13 Na25 3.293359 1_565
Ga13 Na6 3.302249 1_555
Ga13 Na35 3.302249 1_555
Ga14 Ga39 2.700135 1_555
Ga14 Ga44 2.810062 1_555
Ga14 Ga38 2.810062 1_555
Ga14 Ga32 2.946332 1_555
Ga14 Ga42 2.946332 1_555
Ga14 Na37 3.118565 1_555
Ga14 Na31 3.270680 1_555
Ga14 Na39 3.270680 1_555
Ga14 Na2 3.309674 1_555
Ga14 Na5 3.309674 1_555
Ga14 Na29 3.311633 1_555
Ga15 Ga24 2.548897 1_656
Ga15 Ga70 2.659173 1_555
Ga15 Ga40 2.659174 1_555
Ga15 Ga50 2.694981 1_555
Ga15 Na20 2.996876 1_555
Ga15 Na5 3.138486 1_655
Ga15 Na22 3.138486 1_556
Ga15 Na8 3.210254 1_556
Ga15 Na29 3.210254 1_655
Ga16 Ga60 2.777864 1_555
Ga16 Ga66 2.777864 1_555
Ga16 Ga57 2.798871 1_565
Ga16 Ga63 2.798872 1_565
Ga16 Na33 3.078544 1_555
Ga16 Na35 3.171156 1_555
Ga16 Na6 3.171156 1_555
Ga16 Na25 3.428613 1_565
Ga16 Na36 3.428613 1_565
Ga17 Ga26 2.630825 1_555
Ga17 Ga48 2.631300 1_455
Ga17 Ga25 2.777864 1_555
Ga17 Ga73 2.777864 1_555
Ga17 Ga22 2.798871 1_455
Ga17 Na34 3.078544 1_555
Ga17 Na4 3.171156 1_555
Ga17 Na16 3.171156 1_555
Ga17 Na32 3.428613 1_455
Ga17 Na12 3.428613 1_455
Ga18 Ga25 2.670531 1_555
Ga18 Ga72 2.721021 1_455
Ga18 Ga65 2.721282 1_555
Ga18 Ga27 2.798872 1_455
Ga18 Ga67 2.801506 1_555
Ga18 Ga22 2.868771 1_455
Ga18 Na35 3.088328 1_455
Ga18 Na17 3.141818 1_555
Ga18 Na9 3.211132 1_555
Ga18 Na18 3.234660 1_455
Ga18 Na2 3.419393 1_555
Ga19 Ga61 2.548897 1_544
Ga19 Ga59 2.659173 1_555
Ga19 Ga30 2.659174 1_555
Ga19 Ga31 2.694981 1_555
Ga19 Na40 2.996876 1_555
Ga19 Na0 3.138486 1_545
Ga19 Na3 3.138486 1_554
Ga19 Na15 3.210254 1_554
Ga19 Na28 3.210254 1_545
Ga20 Ga4 2.705975 1_545
Ga20 Ga63 2.721282 1_555
Ga20 Ga69 2.882633 1_555
Ga20 Ga65 2.893712 1_645
Ga20 Na14 3.086067 1_655
Ga20 Na13 3.146404 1_555
Ga20 Na27 3.198061 1_555
Ga20 Na10 3.249609 1_555
Ga20 Na18 3.284822 1_545
Ga20 Na35 3.320905 1_545
Ga20 Na25 3.427929 1_555
Ga21 Ga46 2.670531 1_555
Ga21 Ga51 2.721021 1_554
Ga21 Ga69 2.721282 1_555
Ga21 Ga71 2.798871 1_554
Ga21 Ga9 2.868771 1_554
Ga21 Na20 3.088328 1_554
Ga21 Na27 3.141818 1_555
Ga21 Na10 3.211132 1_555
Ga21 Na21 3.234660 1_554
Ga21 Na22 3.419393 1_555
Ga22 Ga72 2.670531 1_555
Ga22 Ga25 2.721021 1_655
Ga22 Ga7 2.721282 1_555
Ga22 Ga48 2.801506 1_555
Ga22 Na16 3.088328 1_655
Ga22 Na24 3.141818 1_555
Ga22 Na18 3.211132 1_555
Ga22 Na9 3.234660 1_655
Ga22 Na12 3.419393 1_555
Ga23 Ga66 2.670531 1_555
Ga23 Ga74 2.721021 1_565
Ga23 Ga54 2.721282 1_555
Ga23 Ga68 2.798871 1_565
Ga23 Ga29 2.801506 1_555
Ga23 Ga63 2.868771 1_565
Ga23 Na40 3.088328 1_565
Ga23 Na24 3.141818 1_555
Ga23 Na18 3.211132 1_555
Ga23 Na10 3.234660 1_565
Ga23 Na0 3.419393 1_555
Ga24 Ga3 2.694981 1_555
Ga24 Ga36 2.705975 1_554
Ga24 Ga7 2.705975 1_455
Ga24 Na16 2.989018 1_555
Ga24 Na8 3.185324 1_455
Ga24 Na29 3.185325 1_554
Ga24 Na39 3.188644 1_554
Ga24 Na12 3.188644 1_455
Ga25 Ga56 2.616134 1_555
Ga25 Ga73 2.698567 1_555
Ga25 Ga67 2.766058 1_555
Ga25 Na34 3.202261 1_555
Ga25 Na38 3.205663 1_555
Ga25 Na16 3.214985 1_555
Ga25 Na9 3.354111 1_555
Ga25 Na17 3.386182 1_555
Ga26 Ga3 2.659174 1_555
Ga26 Ga30 2.860986 1_555
Ga26 Ga59 2.860987 1_555
Ga26 Na13 3.114329 1_455
Ga26 Na34 3.219426 1_555
Ga26 Na12 3.293359 1_455
Ga26 Na32 3.293359 1_455
Ga26 Na16 3.302249 1_555
Ga26 Na4 3.302249 1_555
Ga27 Ga40 2.630825 1_555
Ga27 Ga67 2.631300 1_655
Ga27 Ga52 2.777864 1_555
Ga27 Ga72 2.777864 1_555
Ga27 Ga37 2.798871 1_655
Ga27 Na33 3.078544 1_555
Ga27 Na35 3.171156 1_555
Ga27 Na20 3.171156 1_555
Ga27 Na2 3.428613 1_655
Ga27 Na5 3.428613 1_655
Ga28 Ga50 2.705975 1_455
Ga28 Ga37 2.721282 1_555
Ga28 Ga64 2.882632 1_555
Ga28 Ga69 2.893712 1_456
Ga28 Na14 3.086067 1_556
Ga28 Na15 3.146404 1_555
Ga28 Na26 3.198061 1_555
Ga28 Na23 3.249609 1_555
Ga28 Na21 3.284822 1_455
Ga28 Na20 3.320905 1_455
Ga28 Na5 3.427929 1_555
Ga29 Ga68 2.631300 1_565
Ga29 Ga38 2.704471 1_555
Ga29 Ga66 2.766057 1_555
Ga29 Ga60 2.766058 1_555
Ga29 Ga58 2.801506 1_555
Ga29 Na7 3.091223 1_555
Ga29 Na24 3.282760 1_555
Ga29 Na37 3.282760 1_555
Ga29 Na31 3.397839 1_555
Ga29 Na0 3.397839 1_555
Ga30 Ga68 2.630825 1_555
Ga30 Ga59 2.860987 1_555
Ga30 Na28 3.114329 1_545
Ga30 Na34 3.219426 1_555
Ga30 Na0 3.293359 1_545
Ga30 Na31 3.293359 1_545
Ga30 Na40 3.302249 1_555
Ga30 Na4 3.302249 1_555
Ga31 Ga75 2.705975 1_554
Ga31 Ga54 2.705975 1_545
Ga31 Na40 2.989018 1_555
Ga31 Na8 3.185324 1_545
Ga31 Na11 3.185325 1_554
Ga31 Na3 3.188644 1_554
Ga31 Na0 3.188644 1_545
Ga32 Ga44 2.700135 1_555
Ga32 Ga41 2.810063 1_555
Ga32 Ga39 2.810063 1_555
Ga32 Ga62 2.946332 1_555
Ga32 Na26 3.118565 1_555
Ga32 Na36 3.270680 1_555
Ga32 Na5 3.270680 1_555
Ga32 Na3 3.309674 1_555
Ga32 Na39 3.309674 1_555
Ga32 Na15 3.311633 1_555
Ga33 Ga60 2.616134 1_555
Ga33 Ga34 2.670531 1_555
Ga33 Ga51 2.698567 1_555
Ga33 Ga45 2.721021 1_556
Ga33 Ga55 2.766057 1_555
Ga33 Ga71 2.777864 1_555
Ga33 Na33 3.202261 1_555
Ga33 Na7 3.205663 1_555
Ga33 Na6 3.214985 1_555
Ga33 Na1 3.354110 1_555
Ga33 Na37 3.386182 1_555
Ga34 Ga56 2.721021 1_556
Ga34 Ga36 2.721282 1_555
Ga34 Ga53 2.798871 1_556
Ga34 Ga55 2.801506 1_555
Ga34 Ga45 2.868771 1_556
Ga34 Na16 3.088328 1_556
Ga34 Na37 3.141818 1_555
Ga34 Na1 3.211132 1_555
Ga34 Na9 3.234660 1_556
Ga34 Na39 3.419393 1_555
Ga35 Ga77 2.548896 1_665
Ga35 Ga40 2.659174 1_555
Ga35 Ga4 2.694981 1_555
Ga35 Na35 2.996876 1_555
Ga35 Na2 3.138486 1_655
Ga35 Na25 3.138486 1_565
Ga35 Na29 3.210254 1_655
Ga35 Na11 3.210254 1_565
Ga36 Ga7 2.893712 1_456
Ga36 Na30 3.086067 1_455
Ga36 Na29 3.146404 1_555
Ga36 Na37 3.198061 1_555
Ga36 Na1 3.249609 1_555
Ga36 Na9 3.284822 1_556
Ga36 Na16 3.320905 1_556
Ga36 Na39 3.427929 1_555
Ga37 Ga73 2.670531 1_555
Ga37 Ga52 2.721021 1_455
Ga37 Ga67 2.801506 1_555
Ga37 Na20 3.088328 1_455
Ga37 Na26 3.141818 1_555
Ga37 Na23 3.211132 1_555
Ga37 Na21 3.234660 1_455
Ga37 Na5 3.419393 1_555
Ga38 Ga42 2.700135 1_555
Ga38 Ga6 2.748651 1_555
Ga38 Ga44 2.748651 1_555
Ga38 Ga5 2.810063 1_555
Ga38 Na7 3.194766 1_555
Ga38 Na24 3.334966 1_555
Ga38 Na37 3.334966 1_555
Ga38 Na31 3.375135 1_555
Ga38 Na0 3.375135 1_555
Ga39 Ga67 2.704471 1_555
Ga39 Ga41 2.748651 1_555
Ga39 Ga49 2.748651 1_555
Ga39 Ga42 2.810062 1_555
Ga39 Na38 3.194766 1_555
Ga39 Na26 3.334966 1_555
Ga39 Na17 3.334966 1_555
Ga39 Na2 3.375135 1_555
Ga39 Na5 3.375135 1_555
Ga40 Ga70 2.860987 1_555
Ga40 Na29 3.114329 1_655
Ga40 Na33 3.219426 1_555
Ga40 Na5 3.293359 1_655
Ga40 Na2 3.293359 1_655
Ga40 Na20 3.302249 1_555
Ga40 Na35 3.302249 1_555
Ga41 Ga62 2.700135 1_555
Ga41 Ga49 2.748651 1_555
Ga41 Ga43 2.810062 1_555
Ga41 Na38 3.194766 1_555
Ga41 Na26 3.334966 1_555
Ga41 Na27 3.334966 1_555
Ga41 Na25 3.375135 1_555
Ga41 Na36 3.375135 1_555
Ga42 Ga49 2.810062 1_555
Ga42 Ga5 2.946332 1_555
Ga42 Na17 3.118565 1_555
Ga42 Na2 3.270680 1_555
Ga42 Na41 3.270680 1_555
Ga42 Na31 3.309674 1_555
Ga42 Na0 3.309674 1_555
Ga42 Na28 3.311633 1_555
Ga43 Ga6 2.700135 1_555
Ga43 Ga49 2.810062 1_555
Ga43 Ga5 2.946332 1_555
Ga43 Ga62 2.946332 1_555
Ga43 Na27 3.118565 1_555
Ga43 Na25 3.270680 1_555
Ga43 Na22 3.270680 1_555
Ga43 Na32 3.309674 1_555
Ga43 Na12 3.309674 1_555
Ga43 Na13 3.311633 1_555
Ga44 Ga55 2.704471 1_555
Ga44 Ga6 2.748651 1_555
Ga44 Ga62 2.810062 1_555
Ga44 Na7 3.194766 1_555
Ga44 Na19 3.334966 1_555
Ga44 Na37 3.334966 1_555
Ga44 Na3 3.375135 1_555
Ga44 Na39 3.375135 1_555
Ga45 Ga56 2.670531 1_555
Ga45 Ga8 2.721282 1_555
Ga45 Ga71 2.798871 1_554
Ga45 Na6 3.088328 1_554
Ga45 Na17 3.141818 1_555
Ga45 Na9 3.211132 1_555
Ga45 Na1 3.234660 1_554
Ga45 Na41 3.419393 1_555
Ga46 Ga74 2.616134 1_555
Ga46 Ga56 2.698567 1_555
Ga46 Ga9 2.721021 1_554
Ga46 Ga53 2.777864 1_555
Ga46 Na34 3.202261 1_555
Ga46 Na38 3.205663 1_555
Ga46 Na40 3.214985 1_555
Ga46 Na10 3.354110 1_555
Ga46 Na27 3.386182 1_555
Ga47 Ga73 2.616134 1_555
Ga47 Ga57 2.670531 1_555
Ga47 Ga74 2.698567 1_555
Ga47 Ga58 2.721021 1_545
Ga47 Ga68 2.777864 1_555
Ga47 Na34 3.202261 1_555
Ga47 Na38 3.205663 1_555
Ga47 Na4 3.214985 1_555
Ga47 Na23 3.354111 1_555
Ga47 Na26 3.386182 1_555
Ga48 Ga6 2.704471 1_555
Ga48 Ga72 2.766057 1_555
Ga48 Ga52 2.766058 1_555
Ga48 Na7 3.091223 1_555
Ga48 Na24 3.282760 1_555
Ga48 Na19 3.282760 1_555
Ga48 Na32 3.397839 1_555
Ga48 Na12 3.397839 1_555
Ga49 Ga5 2.700135 1_555
Ga49 Na38 3.194766 1_555
Ga49 Na17 3.334966 1_555
Ga49 Na27 3.334966 1_555
Ga49 Na22 3.375135 1_555
Ga49 Na41 3.375135 1_555
Ga50 Ga69 2.705975 1_556
Ga50 Na20 2.989018 1_555
Ga50 Na15 3.185324 1_655
Ga50 Na13 3.185325 1_556
Ga50 Na22 3.188644 1_556
Ga50 Na5 3.188644 1_655
Ga51 Ga52 2.616134 1_555
Ga51 Ga9 2.670531 1_555
Ga51 Ga55 2.766057 1_555
Ga51 Ga71 2.777864 1_555
Ga51 Na33 3.202261 1_555
Ga51 Na7 3.205663 1_555
Ga51 Na20 3.214985 1_555
Ga51 Na21 3.354110 1_555
Ga51 Na19 3.386182 1_555
Ga52 Ga72 2.698567 1_555
Ga52 Na33 3.202261 1_555
Ga52 Na7 3.205663 1_555
Ga52 Na20 3.214985 1_555
Ga52 Na21 3.354111 1_555
Ga52 Na19 3.386182 1_555
Ga53 Ga59 2.630825 1_555
Ga53 Ga55 2.631300 1_554
Ga53 Ga56 2.777864 1_555
Ga53 Ga9 2.798871 1_554
Ga53 Na34 3.078544 1_555
Ga53 Na40 3.171156 1_555
Ga53 Na16 3.171156 1_555
Ga53 Na39 3.428613 1_554
Ga53 Na3 3.428613 1_554
Ga54 Ga7 2.882632 1_555
Ga54 Ga75 2.893712 1_564
Ga54 Na30 3.086067 1_554
Ga54 Na8 3.146404 1_555
Ga54 Na24 3.198061 1_555
Ga54 Na18 3.249609 1_555
Ga54 Na10 3.284822 1_565
Ga54 Na40 3.320905 1_565
Ga54 Na0 3.427929 1_555
Ga55 Ga9 2.801506 1_555
Ga55 Na7 3.091223 1_555
Ga55 Na37 3.282760 1_555
Ga55 Na19 3.282760 1_555
Ga55 Na3 3.397839 1_555
Ga55 Na39 3.397839 1_555
Ga56 Na34 3.202261 1_555
Ga56 Na38 3.205663 1_555
Ga56 Na16 3.214985 1_555
Ga56 Na9 3.354110 1_555
Ga56 Na17 3.386182 1_555
Ga57 Ga60 2.721021 1_545
Ga57 Ga64 2.721282 1_555
Ga57 Ga58 2.868771 1_545
Ga57 Na6 3.088328 1_545
Ga57 Na26 3.141818 1_555
Ga57 Na23 3.211132 1_555
Ga57 Na1 3.234660 1_545
Ga57 Na36 3.419393 1_555
Ga58 Ga60 2.670531 1_555
Ga58 Ga68 2.798872 1_565
Ga58 Na4 3.088328 1_565
Ga58 Na37 3.141818 1_555
Ga58 Na1 3.211132 1_555
Ga58 Na23 3.234660 1_565
Ga58 Na31 3.419393 1_555
Ga59 Na15 3.114329 1_554
Ga59 Na34 3.219426 1_555
Ga59 Na39 3.293359 1_554
Ga59 Na3 3.293359 1_554
Ga59 Na40 3.302249 1_555
Ga59 Na16 3.302249 1_555
Ga60 Ga66 2.698567 1_555
Ga60 Na33 3.202261 1_555
Ga60 Na7 3.205663 1_555
Ga60 Na6 3.214985 1_555
Ga60 Na1 3.354111 1_555
Ga60 Na37 3.386182 1_555
Ga61 Ga8 2.705975 1_556
Ga61 Ga64 2.705975 1_565
Ga61 Na6 2.989018 1_555
Ga61 Na15 3.185324 1_565
Ga61 Na28 3.185325 1_556
Ga61 Na41 3.188644 1_556
Ga61 Na36 3.188644 1_565
Ga62 Na19 3.118565 1_555
Ga62 Na32 3.270680 1_555
Ga62 Na3 3.270680 1_555
Ga62 Na25 3.309674 1_555
Ga62 Na36 3.309674 1_555
Ga62 Na11 3.311633 1_555
Ga63 Ga74 2.670531 1_555
Ga63 Ga66 2.721021 1_545
Ga63 Na35 3.088328 1_545
Ga63 Na27 3.141818 1_555
Ga63 Na10 3.211132 1_555
Ga63 Na18 3.234660 1_545
Ga63 Na25 3.419393 1_555
Ga64 Ga8 2.893712 1_546
Ga64 Na14 3.086067 1_556
Ga64 Na15 3.146404 1_555
Ga64 Na26 3.198061 1_555
Ga64 Na23 3.249609 1_555
Ga64 Na1 3.284822 1_545
Ga64 Na6 3.320905 1_545
Ga64 Na36 3.427929 1_555
Ga65 Ga8 2.882633 1_555
Ga65 Na14 3.086067 1_565
Ga65 Na28 3.146404 1_555
Ga65 Na17 3.198061 1_555
Ga65 Na9 3.249609 1_555
Ga65 Na18 3.284822 1_455
Ga65 Na35 3.320905 1_455
Ga65 Na2 3.427929 1_555
Ga66 Ga72 2.616134 1_555
Ga66 Na33 3.202261 1_555
Ga66 Na7 3.205663 1_555
Ga66 Na35 3.214985 1_555
Ga66 Na18 3.354111 1_555
Ga66 Na24 3.386182 1_555
Ga67 Ga73 2.766057 1_555
Ga67 Na38 3.091223 1_555
Ga67 Na26 3.282760 1_555
Ga67 Na17 3.282760 1_555
Ga67 Na2 3.397839 1_555
Ga67 Na5 3.397839 1_555
Ga68 Ga74 2.777864 1_555
Ga68 Na34 3.078544 1_555
Ga68 Na4 3.171156 1_555
Ga68 Na40 3.171156 1_555
Ga68 Na31 3.428613 1_545
Ga68 Na0 3.428613 1_545
Ga69 Na14 3.086067 1_655
Ga69 Na13 3.146404 1_555
Ga69 Na27 3.198061 1_555
Ga69 Na10 3.249609 1_555
Ga69 Na21 3.284822 1_554
Ga69 Na20 3.320905 1_554
Ga69 Na22 3.427929 1_555
Ga70 Ga71 2.630825 1_555
Ga70 Na8 3.114329 1_556
Ga70 Na33 3.219426 1_555
Ga70 Na22 3.293359 1_556
Ga70 Na41 3.293359 1_556
Ga70 Na20 3.302249 1_555
Ga70 Na6 3.302249 1_555
Ga71 Na33 3.078544 1_555
Ga71 Na20 3.171156 1_555
Ga71 Na6 3.171156 1_555
Ga71 Na41 3.428613 1_556
Ga71 Na22 3.428613 1_556
Ga72 Na33 3.202261 1_555
Ga72 Na7 3.205663 1_555
Ga72 Na35 3.214985 1_555
Ga72 Na18 3.354111 1_555
Ga72 Na24 3.386182 1_555
Ga73 Na34 3.202261 1_555
Ga73 Na38 3.205663 1_555
Ga73 Na4 3.214985 1_555
Ga73 Na23 3.354111 1_555
Ga73 Na26 3.386182 1_555
Ga74 Na34 3.202261 1_555
Ga74 Na38 3.205663 1_555
Ga74 Na40 3.214985 1_555
Ga74 Na10 3.354111 1_555
Ga74 Na27 3.386182 1_555
Ga75 Ga9 2.721282 1_555
Ga75 Ga76 2.882633 1_555
Ga75 Na30 3.086067 1_545
Ga75 Na11 3.146404 1_555
Ga75 Na19 3.198061 1_555
Ga75 Na21 3.249609 1_555
Ga75 Na10 3.284822 1_556
Ga75 Na40 3.320905 1_556
Ga75 Na3 3.427929 1_555
Ga76 Ga77 2.705975 1_655
Ga76 Na30 3.086067 1_545
Ga76 Na11 3.146404 1_555
Ga76 Na19 3.198061 1_555
Ga76 Na21 3.249609 1_555
Ga76 Na23 3.284822 1_655
Ga76 Na4 3.320905 1_655
Ga76 Na32 3.427929 1_555
Ga77 Na4 2.989018 1_555
Ga77 Na29 3.185324 1_545
Ga77 Na11 3.185324 1_455
Ga77 Na32 3.188644 1_455
Ga77 Na31 3.188644 1_545
