# generated using pymatgen
data_DyMoClO4
_symmetry_space_group_name_H-M   'P 1'
_cell_length_a   6.32551269
_cell_length_b   6.32551269
_cell_length_c   6.92707238
_cell_angle_alpha   76.00379041
_cell_angle_beta   76.00379041
_cell_angle_gamma   70.81385956
_symmetry_Int_Tables_number   1
_chemical_formula_structural   DyMoClO4
_chemical_formula_sum   'Dy2 Mo2 Cl2 O8'
_cell_volume   249.98141380
_cell_formula_units_Z   2
loop_
 _symmetry_equiv_pos_site_id
 _symmetry_equiv_pos_as_xyz
  1  'x, y, z'
loop_
 _atom_site_type_symbol
 _atom_site_label
 _atom_site_symmetry_multiplicity
 _atom_site_fract_x
 _atom_site_fract_y
 _atom_site_fract_z
 _atom_site_occupancy
  Dy  Dy0  1  0.77820800  0.77820800  0.11269200  1
  Dy  Dy1  1  0.22179200  0.22179200  0.88730800  1
  Mo  Mo0  1  0.36216400  0.36216400  0.26900600  1
  Mo  Mo1  1  0.63783600  0.63783600  0.73099400  1
  Cl  Cl0  1  0.01048700  0.01048700  0.23252100  1
  Cl  Cl1  1  0.98951300  0.98951300  0.76747900  1
  O  O0  1  0.10988700  0.49118000  0.15287900  1
  O  O1  1  0.49118000  0.10988700  0.15287900  1
  O  O2  1  0.29329600  0.29329600  0.53543200  1
  O  O3  1  0.50882000  0.89011300  0.84712100  1
  O  O4  1  0.70670400  0.70670400  0.46456800  1
  O  O5  1  0.89011300  0.50882000  0.84712100  1
  O  O6  1  0.54282900  0.54282900  0.20242800  1
  O  O7  1  0.45717100  0.45717100  0.79757200  1
loop_
_geom_bond_atom_site_label_1
_geom_bond_atom_site_label_2
_geom_bond_distance
_geom_bond_site_symmetry_2
Dy0 O0 2.304344 1_655
Dy0 O1 2.304344 1_565
Dy0 O6 2.319846 1_555
Dy0 O4 2.327727 1_555
Dy0 O5 2.623472 1_554
Dy0 O3 2.623472 1_554
Dy1 O5 2.304344 1_455
Dy1 O3 2.304344 1_545
Dy1 O7 2.319846 1_555
Dy1 O2 2.327727 1_555
Dy1 O1 2.623472 1_556
Dy1 O0 2.623472 1_556
Mo0 O2 1.769901 1_555
Mo0 O6 1.781344 1_555
Mo0 O0 1.818523 1_555
Mo0 O1 1.818523 1_555
Mo1 O4 1.769901 1_555
Mo1 O7 1.781344 1_555
Mo1 O5 1.818523 1_555
Mo1 O3 1.818523 1_555
Cl0 Dy1 2.715426 1_554
Cl0 Dy0 2.757789 1_445
Cl1 Dy0 2.715426 1_556
Cl1 Dy1 2.757789 1_665
