# generated using pymatgen
data_NaC64
_symmetry_space_group_name_H-M   'P 1'
_cell_length_a   4.93741614
_cell_length_b   4.93741638
_cell_length_c   67.30314177
_cell_angle_alpha   90.00000000
_cell_angle_beta   90.00000000
_cell_angle_gamma   119.99976605
_symmetry_Int_Tables_number   1
_chemical_formula_structural   NaC64
_chemical_formula_sum   'Na2 C128'
_cell_volume   1420.90970122
_cell_formula_units_Z   2
loop_
 _symmetry_equiv_pos_site_id
 _symmetry_equiv_pos_as_xyz
  1  'x, y, z'
loop_
 _atom_site_type_symbol
 _atom_site_label
 _atom_site_symmetry_multiplicity
 _atom_site_fract_x
 _atom_site_fract_y
 _atom_site_fract_z
 _atom_site_occupancy
  Na  Na0  1  0.33332723  0.66667277  0.25000000  1
  Na  Na1  1  0.66667277  0.33332723  0.75000000  1
  C  C0  1  0.83337081  0.16662919  0.47134961  1
  C  C1  1  0.33335097  0.16665068  0.58575655  1
  C  C2  1  0.33339206  0.16662699  0.47134964  1
  C  C3  1  0.16662919  0.83337081  0.97134961  1
  C  C4  1  0.16655236  0.83344764  0.29819153  1
  C  C5  1  0.50012847  0.00017297  0.29819359  1
  C  C6  1  0.50002204  0.99998094  0.91424264  1
  C  C7  1  -0.00003081  0.00003081  0.70176021  1
  C  C8  1  0.16669362  0.33328278  0.85692613  1
  C  C9  1  0.66662318  0.33337682  0.52865038  1
  C  C10  1  0.16669310  0.83330690  0.64307383  1
  C  C11  1  0.83334932  0.66664903  0.91424345  1
  C  C12  1  0.83345055  0.66677817  0.79819141  1
  C  C13  1  0.33322183  0.16654945  0.70180859  1
  C  C14  1  0.66660794  0.83337301  0.52865036  1
  C  C15  1  0.00017297  0.50012847  0.79819359  1
  C  C16  1  0.33339206  0.16662699  0.02865036  1
  C  C17  1  0.99996558  0.50002339  0.52865290  1
  C  C18  1  0.83334895  0.16665105  0.58575664  1
  C  C19  1  0.66663799  0.33336201  0.20176611  1
  C  C20  1  0.83334895  0.16665105  0.91424336  1
  C  C21  1  0.50003566  0.49996434  0.85692678  1
  C  C22  1  -0.00001628  0.00001628  0.08575737  1
  C  C23  1  0.49997661  0.00003442  0.52865290  1
  C  C24  1  0.00003081  -0.00003081  0.20176021  1
  C  C25  1  0.49998505  0.50001495  0.08575734  1
  C  C26  1  0.49996367  1.00003981  0.35692685  1
  C  C27  1  1.00003981  0.49996367  0.85692685  1
  C  C28  1  1.00003981  0.49996367  0.64307315  1
  C  C29  1  0.50013064  0.49986936  0.29819392  1
  C  C30  1  0.66664806  0.33335194  0.41424337  1
  C  C31  1  0.99982703  0.49987153  0.20180641  1
  C  C32  1  0.49997661  0.00003442  0.97134710  1
  C  C33  1  0.49997708  0.50002292  0.52865279  1
  C  C34  1  0.83330690  0.16669310  0.35692617  1
  C  C35  1  0.49987153  0.99982703  0.70180641  1
  C  C36  1  0.16665068  0.33335097  0.08575655  1
  C  C37  1  0.49987153  0.99982703  0.79819359  1
  C  C38  1  0.50003566  0.49996434  0.64307322  1
  C  C39  1  0.33328278  0.16669362  0.35692613  1
  C  C40  1  0.50002204  0.99998094  0.58575736  1
  C  C41  1  0.66660794  0.83337301  0.97134964  1
  C  C42  1  0.16654945  0.33322183  0.20180859  1
  C  C43  1  0.49986936  0.50013064  0.79819392  1
  C  C44  1  0.50002339  0.99996558  0.47134710  1
  C  C45  1  0.99996558  0.50002339  0.97134710  1
  C  C46  1  0.83337301  0.66660794  0.47134964  1
  C  C47  1  0.66677817  0.83345055  0.29819141  1
  C  C48  1  0.83330638  0.66671722  0.14307387  1
  C  C49  1  0.66664903  0.83334932  0.41424345  1
  C  C50  1  0.00003081  -0.00003081  0.29823979  1
  C  C51  1  0.33322183  0.16654945  0.79819141  1
  C  C52  1  0.83345055  0.66677817  0.70180859  1
  C  C53  1  0.00003442  0.49997661  0.47134710  1
  C  C54  1  0.66663799  0.33336201  0.29823389  1
  C  C55  1  0.16669310  0.83330690  0.85692617  1
  C  C56  1  0.66662318  0.33337682  0.97134962  1
  C  C57  1  0.16669362  0.33328278  0.64307387  1
  C  C58  1  0.50002292  0.49997708  0.02865279  1
  C  C59  1  0.50003633  -0.00003981  0.85692685  1
  C  C60  1  0.00003663  -0.00003663  0.85692727  1
  C  C61  1  0.83334932  0.66664903  0.58575655  1
  C  C62  1  0.16662919  0.83337081  0.52865039  1
  C  C63  1  0.83337301  0.66660794  0.02865036  1
  C  C64  1  -0.00003663  0.00003663  0.35692727  1
  C  C65  1  0.33335097  0.16665068  0.91424345  1
  C  C66  1  0.99998094  0.50002204  0.41424264  1
  C  C67  1  0.16665105  0.83334895  0.08575664  1
  C  C68  1  0.50003633  -0.00003981  0.64307315  1
  C  C69  1  0.49998505  0.50001495  0.41424266  1
  C  C70  1  -0.00003081  0.00003081  0.79823979  1
  C  C71  1  0.00001906  0.49997796  0.58575736  1
  C  C72  1  0.16655236  0.83344764  0.20180847  1
  C  C73  1  0.83344764  0.16655236  0.70180847  1
  C  C74  1  0.33337682  0.66662318  0.47134962  1
  C  C75  1  0.66664903  0.83334932  0.08575655  1
  C  C76  1  0.83344764  0.16655236  0.79819153  1
  C  C77  1  0.16665105  0.83334895  0.41424336  1
  C  C78  1  0.33336201  0.66663799  0.70176611  1
  C  C79  1  -0.00003981  0.50003633  0.14307315  1
  C  C80  1  0.00001906  0.49997796  0.91424264  1
  C  C81  1  0.00001628  -0.00001628  0.91424263  1
  C  C82  1  0.49997796  0.00001906  0.08575736  1
  C  C83  1  0.83330638  0.66671722  0.35692613  1
  C  C84  1  0.16662699  0.33339206  0.97134964  1
  C  C85  1  0.66670040  0.33329960  0.64307459  1
  C  C86  1  0.33328278  0.16669362  0.14307387  1
  C  C87  1  -0.00002470  0.00002470  0.52865279  1
  C  C88  1  0.33329960  0.66670040  0.14307459  1
  C  C89  1  0.49996367  1.00003981  0.14307315  1
  C  C90  1  0.66671722  0.83330638  0.64307387  1
  C  C91  1  0.16654945  0.33322183  0.29819141  1
  C  C92  1  -0.00003981  0.50003633  0.35692685  1
  C  C93  1  0.33335194  0.66664806  0.58575663  1
  C  C94  1  0.49996434  0.50003566  0.35692678  1
  C  C95  1  0.50002339  0.99996558  0.02865290  1
  C  C96  1  0.33335194  0.66664806  0.91424337  1
  C  C97  1  0.83330690  0.16669310  0.14307383  1
  C  C98  1  0.66671722  0.83330638  0.85692613  1
  C  C99  1  0.50013064  0.49986936  0.20180608  1
  C  C100  1  -0.00001628  0.00001628  0.41424263  1
  C  C101  1  0.49997796  0.00001906  0.41424264  1
  C  C102  1  -0.00002470  0.00002470  0.97134721  1
  C  C103  1  0.49997708  0.50002292  0.97134721  1
  C  C104  1  0.49996434  0.50003566  0.14307322  1
  C  C105  1  0.66670040  0.33329960  0.85692541  1
  C  C106  1  0.00003663  -0.00003663  0.64307273  1
  C  C107  1  0.50001495  0.49998505  0.58575734  1
  C  C108  1  0.50001495  0.49998505  0.91424266  1
  C  C109  1  0.99982703  0.49987153  0.29819359  1
  C  C110  1  -0.00003663  0.00003663  0.14307273  1
  C  C111  1  0.33329960  0.66670040  0.35692541  1
  C  C112  1  0.00017297  0.50012847  0.70180641  1
  C  C113  1  0.00001628  -0.00001628  0.58575737  1
  C  C114  1  0.00002470  -0.00002470  0.47134721  1
  C  C115  1  0.33336201  0.66663799  0.79823389  1
  C  C116  1  0.16662699  0.33339206  0.52865036  1
  C  C117  1  0.16665068  0.33335097  0.41424345  1
  C  C118  1  0.99998094  0.50002204  0.08575736  1
  C  C119  1  0.50002292  0.49997708  0.47134721  1
  C  C120  1  0.00003442  0.49997661  0.02865290  1
  C  C121  1  0.83337081  0.16662919  0.02865039  1
  C  C122  1  0.66664806  0.33335194  0.08575663  1
  C  C123  1  0.33337682  0.66662318  0.02865038  1
  C  C124  1  0.49986936  0.50013064  0.70180608  1
  C  C125  1  0.66677817  0.83345055  0.20180859  1
  C  C126  1  0.00002470  -0.00002470  0.02865279  1
  C  C127  1  0.50012847  0.00017297  0.20180641  1
loop_
_geom_bond_atom_site_label_1
_geom_bond_atom_site_label_2
_geom_bond_distance
_geom_bond_site_symmetry_2
C0 C114 1.425198 1_655
C0 C44 1.425373 1_545
C0 C53 1.425373 1_655
C1 C107 1.425317 1_555
C1 C113 1.425318 1_555
C1 C40 1.425340 1_545
C2 C44 1.425134 1_545
C3 C32 1.425373 1_565
C3 C45 1.425373 1_455
C4 C50 1.424070 1_565
C4 C5 1.426351 1_565
C5 C54 1.424698 1_555
C6 C96 1.425311 1_555
C6 C65 1.425340 1_565
C7 C73 1.424070 1_455
C10 C106 1.425220 1_565
C10 C68 1.425355 1_565
C10 C28 1.425355 1_455
C11 C81 1.425319 1_665
C11 C80 1.425340 1_655
C12 C70 1.424971 1_665
C12 C15 1.425473 1_655
C12 C43 1.426373 1_555
C13 C7 1.424971 1_555
C13 C35 1.425473 1_545
C14 C23 1.425134 1_565
C14 C33 1.425384 1_555
C14 C87 1.425458 1_665
C15 C76 1.426351 1_455
C16 C95 1.425134 1_545
C16 C58 1.425384 1_555
C17 C9 1.425351 1_555
C17 C62 1.425373 1_655
C18 C40 1.425285 1_545
C18 C71 1.425285 1_655
C19 C99 1.423948 1_555
C19 C31 1.424698 1_555
C20 C6 1.425285 1_545
C20 C80 1.425285 1_655
C20 C81 1.425313 1_655
C21 C8 1.425350 1_555
C21 C98 1.425350 1_555
C22 C67 1.425313 1_545
C22 C75 1.425318 1_445
C22 C36 1.425319 1_555
C23 C9 1.425351 1_555
C23 C62 1.425373 1_545
C24 C72 1.424070 1_545
C24 C42 1.424971 1_555
C25 C36 1.425317 1_555
C25 C75 1.425317 1_555
C26 C39 1.425313 1_565
C26 C34 1.425355 1_565
C27 C8 1.425313 1_655
C27 C55 1.425355 1_655
C28 C57 1.425313 1_655
C28 C85 1.425339 1_555
C29 C54 1.423948 1_555
C29 C91 1.426373 1_555
C29 C47 1.426373 1_555
C30 C69 1.425276 1_555
C30 C66 1.425311 1_555
C31 C42 1.425473 1_655
C31 C72 1.426351 1_655
C32 C41 1.425134 1_545
C32 C56 1.425351 1_555
C33 C9 1.425132 1_555
C34 C64 1.425220 1_655
C34 C92 1.425355 1_655
C35 C78 1.424698 1_555
C35 C73 1.426351 1_565
C37 C51 1.425473 1_565
C37 C76 1.426351 1_565
C38 C85 1.425291 1_555
C38 C57 1.425350 1_555
C38 C90 1.425350 1_555
C39 C64 1.425253 1_555
C39 C94 1.425350 1_555
C40 C93 1.425311 1_555
C42 C99 1.426373 1_555
C43 C51 1.426373 1_555
C44 C74 1.425351 1_555
C45 C84 1.425134 1_655
C45 C56 1.425351 1_555
C46 C53 1.425134 1_655
C47 C50 1.424971 1_665
C47 C5 1.425473 1_565
C48 C79 1.425313 1_655
C49 C69 1.425317 1_555
C50 C91 1.424971 1_555
C51 C70 1.424971 1_555
C52 C7 1.424971 1_665
C53 C74 1.425351 1_555
C55 C60 1.425220 1_565
C55 C59 1.425355 1_565
C58 C63 1.425384 1_555
C59 C98 1.425313 1_545
C60 C98 1.425253 1_445
C60 C8 1.425253 1_555
C61 C71 1.425340 1_655
C62 C87 1.425198 1_565
C64 C83 1.425253 1_445
C65 C81 1.425318 1_555
C66 C77 1.425285 1_655
C67 C82 1.425285 1_565
C68 C90 1.425313 1_545
C68 C85 1.425339 1_555
C70 C76 1.424070 1_455
C71 C93 1.425311 1_555
C75 C82 1.425340 1_565
C79 C88 1.425339 1_555
C79 C97 1.425355 1_455
C80 C96 1.425311 1_555
C83 C92 1.425313 1_655
C83 C94 1.425350 1_555
C86 C89 1.425313 1_545
C88 C89 1.425339 1_555
C89 C97 1.425355 1_565
C100 C77 1.425313 1_545
C100 C49 1.425318 1_445
C100 C117 1.425319 1_555
C101 C77 1.425285 1_545
C101 C30 1.425311 1_555
C101 C49 1.425340 1_545
C102 C3 1.425198 1_545
C102 C41 1.425458 1_445
C102 C84 1.425458 1_555
C103 C56 1.425132 1_555
C103 C84 1.425384 1_555
C103 C41 1.425384 1_555
C104 C88 1.425291 1_555
C104 C48 1.425350 1_555
C104 C86 1.425350 1_555
C105 C21 1.425291 1_555
C105 C27 1.425339 1_555
C105 C59 1.425339 1_555
C106 C90 1.425253 1_445
C106 C57 1.425253 1_555
C107 C93 1.425276 1_555
C107 C61 1.425317 1_555
C108 C96 1.425276 1_555
C108 C11 1.425317 1_555
C108 C65 1.425317 1_555
C109 C54 1.424698 1_555
C109 C91 1.425473 1_655
C109 C4 1.426351 1_655
C110 C97 1.425220 1_455
C110 C86 1.425253 1_555
C110 C48 1.425253 1_445
C111 C94 1.425291 1_555
C111 C92 1.425339 1_555
C111 C26 1.425339 1_555
C112 C78 1.424698 1_555
C112 C52 1.425473 1_455
C112 C73 1.426351 1_455
C113 C18 1.425313 1_455
C113 C61 1.425319 1_445
C114 C2 1.425458 1_555
C114 C46 1.425458 1_445
C115 C43 1.423948 1_555
C115 C15 1.424698 1_555
C115 C37 1.424698 1_555
C116 C17 1.425134 1_455
C116 C33 1.425384 1_555
C116 C87 1.425458 1_555
C117 C69 1.425317 1_555
C117 C66 1.425340 1_455
C118 C67 1.425285 1_655
C118 C122 1.425311 1_555
C118 C36 1.425340 1_655
C119 C74 1.425132 1_555
C119 C46 1.425384 1_555
C119 C2 1.425384 1_555
C120 C63 1.425134 1_455
C120 C123 1.425351 1_555
C120 C121 1.425373 1_455
C121 C126 1.425198 1_655
C121 C95 1.425373 1_545
C122 C25 1.425276 1_555
C122 C82 1.425311 1_555
C123 C58 1.425132 1_555
C123 C95 1.425351 1_555
C124 C78 1.423948 1_555
C124 C52 1.426373 1_555
C124 C13 1.426373 1_555
C125 C24 1.424971 1_665
C125 C127 1.425473 1_565
C125 C99 1.426373 1_555
C126 C16 1.425458 1_555
C126 C63 1.425458 1_445
C127 C19 1.424698 1_555
C127 C72 1.426351 1_545
