# generated using pymatgen
data_VCuHPbO5
_symmetry_space_group_name_H-M   'P 1'
_cell_length_a   6.16372300
_cell_length_b   7.84533200
_cell_length_c   9.27841600
_cell_angle_alpha   90.00000000
_cell_angle_beta   90.00000000
_cell_angle_gamma   90.00000000
_symmetry_Int_Tables_number   1
_chemical_formula_structural   VCuHPbO5
_chemical_formula_sum   'V4 Cu4 H4 Pb4 O20'
_cell_volume   448.67128992
_cell_formula_units_Z   4
loop_
 _symmetry_equiv_pos_site_id
 _symmetry_equiv_pos_as_xyz
  1  'x, y, z'
loop_
 _atom_site_type_symbol
 _atom_site_label
 _atom_site_symmetry_multiplicity
 _atom_site_fract_x
 _atom_site_fract_y
 _atom_site_fract_z
 _atom_site_occupancy
  V  V0  1  0.25000000  0.11154300  0.19660600  1
  V  V1  1  0.75000000  0.88845700  0.80339400  1
  V  V2  1  0.25000000  0.61154300  0.30339400  1
  V  V3  1  0.75000000  0.38845700  0.69660600  1
  Cu  Cu0  1  0.00000000  0.50000000  0.00000000  1
  Cu  Cu1  1  0.50000000  0.50000000  0.00000000  1
  Cu  Cu2  1  0.50000000  0.00000000  0.50000000  1
  Cu  Cu3  1  0.00000000  0.00000000  0.50000000  1
  H  H0  1  0.75000000  0.25241900  0.00489600  1
  H  H1  1  0.25000000  0.74758100  0.99510400  1
  H  H2  1  0.75000000  0.75241900  0.49510400  1
  H  H3  1  0.25000000  0.24758100  0.50489600  1
  Pb  Pb0  1  0.75000000  0.86007000  0.16982600  1
  Pb  Pb1  1  0.25000000  0.13993000  0.83017400  1
  Pb  Pb2  1  0.75000000  0.36007000  0.33017400  1
  Pb  Pb3  1  0.25000000  0.63993000  0.66982600  1
  O  O0  1  0.49523900  0.10935400  0.30149600  1
  O  O1  1  0.99523900  0.89064600  0.69850400  1
  O  O2  1  0.00476100  0.60935400  0.19850400  1
  O  O3  1  0.50476100  0.39064600  0.80149600  1
  O  O4  1  0.50476100  0.89064600  0.69850400  1
  O  O5  1  0.00476100  0.10935400  0.30149600  1
  O  O6  1  0.99523900  0.39064600  0.80149600  1
  O  O7  1  0.49523900  0.60935400  0.19850400  1
  O  O8  1  0.25000000  0.94019800  0.08138100  1
  O  O9  1  0.75000000  0.05980200  0.91861900  1
  O  O10  1  0.25000000  0.44019800  0.41861900  1
  O  O11  1  0.75000000  0.55980200  0.58138100  1
  O  O12  1  0.25000000  0.28632000  0.08470300  1
  O  O13  1  0.75000000  0.71368000  0.91529700  1
  O  O14  1  0.25000000  0.78632000  0.41529700  1
  O  O15  1  0.75000000  0.21368000  0.58470300  1
  O  O16  1  0.75000000  0.36236400  0.06017400  1
  O  O17  1  0.25000000  0.63763600  0.93982600  1
  O  O18  1  0.75000000  0.86236400  0.43982600  1
  O  O19  1  0.25000000  0.13763600  0.56017400  1
loop_
_geom_bond_atom_site_label_1
_geom_bond_atom_site_label_2
_geom_bond_distance
_geom_bond_site_symmetry_2
Cu0 O17 1.962691 1_554
Cu0 O16 1.962691 1_455
Cu0 O2 2.032024 1_555
Cu0 O6 2.032024 1_454
Cu0 O12 2.408819 1_555
Cu0 O13 2.408819 1_454
Cu1 O17 1.962691 1_554
Cu1 O16 1.962691 1_555
Cu1 O7 2.032024 1_555
Cu1 O3 2.032024 1_554
Cu1 O12 2.408819 1_555
Cu1 O13 2.408819 1_554
Cu2 O19 1.962691 1_555
Cu2 O18 1.962691 1_545
Cu2 O0 2.032024 1_555
Cu2 O4 2.032024 1_545
Cu2 O15 2.408819 1_555
Cu2 O14 2.408819 1_545
Cu3 O19 1.962691 1_555
Cu3 O18 1.962691 1_445
Cu3 O5 2.032024 1_555
Cu3 O1 2.032024 1_445
Cu3 O15 2.408819 1_455
Cu3 O14 2.408819 1_545
H0 O16 1.003524 1_555
H1 O17 1.003524 1_555
H2 O18 1.003524 1_555
H3 O19 1.003524 1_555
O0 V0 1.797868 1_555
O0 Pb2 2.530902 1_555
O0 Pb0 2.789824 1_545
O1 V1 1.797868 1_555
O1 Pb3 2.530902 1_655
O1 Pb1 2.789824 1_665
O2 V2 1.797868 1_555
O2 Pb0 2.530902 1_455
O2 Pb2 2.789824 1_455
O3 V3 1.797868 1_555
O3 Pb1 2.530902 1_555
O3 Pb3 2.789824 1_555
O4 V1 1.797868 1_555
O4 Pb3 2.530902 1_555
O4 Pb1 2.789824 1_565
O5 V0 1.797868 1_555
O5 Pb2 2.530902 1_455
O5 Pb0 2.789824 1_445
O6 V3 1.797868 1_555
O6 Pb1 2.530902 1_655
O6 Pb3 2.789824 1_655
O7 V2 1.797868 1_555
O7 Pb0 2.530902 1_555
O7 Pb2 2.789824 1_555
O8 V0 1.717561 1_565
O8 Pb1 2.808562 1_564
O9 V1 1.717561 1_545
O9 Pb0 2.808562 1_546
O10 V2 1.717561 1_555
O10 Pb3 2.808562 1_555
O11 V3 1.717561 1_555
O11 Pb2 2.808562 1_555
O12 V0 1.719935 1_555
O12 Pb1 2.626077 1_554
O13 V1 1.719935 1_555
O13 Pb0 2.626077 1_556
O14 V2 1.719935 1_555
O14 Pb3 2.626077 1_555
O15 V3 1.719935 1_555
O15 Pb2 2.626077 1_555
O16 Pb2 2.505237 1_555
O17 Pb3 2.505237 1_555
O18 Pb0 2.505237 1_555
O19 Pb1 2.505237 1_555
