# generated using pymatgen
data_Sm(Sb3Os)4
_symmetry_space_group_name_H-M   'P 1'
_cell_length_a   8.10422780
_cell_length_b   8.10422780
_cell_length_c   8.10422780
_cell_angle_alpha   109.47122063
_cell_angle_beta   109.47122063
_cell_angle_gamma   109.47122063
_symmetry_Int_Tables_number   1
_chemical_formula_structural   Sm(Sb3Os)4
_chemical_formula_sum   'Sm1 Sb12 Os4'
_cell_volume   409.74440189
_cell_formula_units_Z   1
loop_
 _symmetry_equiv_pos_site_id
 _symmetry_equiv_pos_as_xyz
  1  'x, y, z'
loop_
 _atom_site_type_symbol
 _atom_site_label
 _atom_site_symmetry_multiplicity
 _atom_site_fract_x
 _atom_site_fract_y
 _atom_site_fract_z
 _atom_site_occupancy
  Sm  Sm0  1  0.00000000  0.00000000  0.00000000  1
  Sb  Sb0  1  0.33909147  0.18274775  0.84365729  1
  Sb  Sb1  1  0.66090853  0.81725225  0.15634271  1
  Sb  Sb2  1  0.66090853  0.50456482  0.84365729  1
  Sb  Sb3  1  0.33909147  0.49543518  0.15634271  1
  Sb  Sb4  1  0.18274775  0.84365729  0.33909147  1
  Sb  Sb5  1  0.81725225  0.15634271  0.66090853  1
  Sb  Sb6  1  0.50456482  0.84365729  0.66090853  1
  Sb  Sb7  1  0.49543518  0.15634271  0.33909147  1
  Sb  Sb8  1  0.84365729  0.33909147  0.18274775  1
  Sb  Sb9  1  0.15634271  0.66090853  0.81725225  1
  Sb  Sb10  1  0.84365729  0.66090853  0.50456482  1
  Sb  Sb11  1  0.15634271  0.33909147  0.49543518  1
  Os  Os0  1  0.00000000  0.00000000  0.50000000  1
  Os  Os1  1  0.50000000  0.00000000  0.00000000  1
  Os  Os2  1  0.00000000  0.50000000  0.00000000  1
  Os  Os3  1  0.50000000  0.50000000  0.50000000  1
loop_
_geom_bond_atom_site_label_1
_geom_bond_atom_site_label_2
_geom_bond_distance
_geom_bond_site_symmetry_2
Sb0 Sb3 2.926106 1_556
Sb0 Sb2 3.011550 1_555
Sb0 Sm0 3.494240 1_556
Sb1 Sb2 2.926106 1_554
Sb1 Sb3 3.011550 1_555
Sb1 Sm0 3.494240 1_665
Sb2 Sm0 3.494248 1_666
Sb3 Sm0 3.494248 1_555
Sb4 Sb7 2.926106 1_565
Sb4 Sb6 3.011550 1_555
Sb4 Sm0 3.494240 1_565
Sb5 Sb6 2.926106 1_545
Sb5 Sb7 3.011550 1_555
Sb5 Sm0 3.494240 1_656
Sb6 Sm0 3.494248 1_666
Sb7 Sm0 3.494248 1_555
Sb8 Sm0 3.494240 1_655
Sb9 Sm0 3.494240 1_566
Sb10 Sb9 2.926106 1_655
Sb10 Sb8 3.011550 1_555
Sb10 Sm0 3.494248 1_666
Sb11 Sb8 2.926106 1_455
Sb11 Sb9 3.011550 1_555
Sb11 Sm0 3.494248 1_555
Os0 Sb5 2.633704 1_455
Os0 Sb4 2.633704 1_545
Os0 Sb10 2.633707 1_445
Os0 Sb11 2.633707 1_555
Os0 Sb1 2.633713 1_445
Os0 Sb0 2.633713 1_555
Os1 Sb1 2.633704 1_545
Os1 Sb0 2.633704 1_554
Os1 Sb7 2.633707 1_555
Os1 Sb6 2.633707 1_544
Os1 Sb9 2.633713 1_544
Os1 Sb8 2.633713 1_555
Os2 Sb8 2.633704 1_455
Os2 Sb9 2.633704 1_554
Os2 Sb3 2.633707 1_555
Os2 Sb2 2.633707 1_454
Os2 Sb5 2.633713 1_454
Os2 Sb4 2.633713 1_555
Os3 Sb6 2.633716 1_555
Os3 Sb11 2.633716 1_555
Os3 Sb2 2.633716 1_555
Os3 Sb3 2.633716 1_555
Os3 Sb7 2.633716 1_555
Os3 Sb10 2.633716 1_555
