# generated using pymatgen
data_Na4TiAs2O9
_symmetry_space_group_name_H-M   'P 1'
_cell_length_a   8.83988747
_cell_length_b   8.83988747
_cell_length_c   7.85794001
_cell_angle_alpha   89.76576310
_cell_angle_beta   89.76576310
_cell_angle_gamma   48.53079081
_symmetry_Int_Tables_number   1
_chemical_formula_structural   Na4TiAs2O9
_chemical_formula_sum   'Na8 Ti2 As4 O18'
_cell_volume   460.10858028
_cell_formula_units_Z   2
loop_
 _symmetry_equiv_pos_site_id
 _symmetry_equiv_pos_as_xyz
  1  'x, y, z'
loop_
 _atom_site_type_symbol
 _atom_site_label
 _atom_site_symmetry_multiplicity
 _atom_site_fract_x
 _atom_site_fract_y
 _atom_site_fract_z
 _atom_site_occupancy
  Na  Na0  1  0.74504600  0.25495400  0.00000000  1
  Na  Na1  1  0.62577700  0.62577700  0.27869600  1
  Na  Na2  1  0.89285400  0.89285400  0.23838500  1
  Na  Na3  1  0.10714600  0.10714600  0.76161500  1
  Na  Na4  1  0.50000000  0.00000000  0.50000000  1
  Na  Na5  1  0.25495400  0.74504600  0.00000000  1
  Na  Na6  1  0.37422300  0.37422300  0.72130400  1
  Na  Na7  1  0.00000000  0.50000000  0.50000000  1
  Ti  Ti0  1  0.00000000  0.50000000  0.00000000  1
  Ti  Ti1  1  0.50000000  0.00000000  0.00000000  1
  As  As0  1  0.12948600  0.12948600  0.27646800  1
  As  As1  1  0.38769500  0.38769500  0.24013900  1
  As  As2  1  0.87051400  0.87051400  0.72353200  1
  As  As3  1  0.61230500  0.61230500  0.75986100  1
  O  O0  1  0.55428900  0.15852400  0.12915500  1
  O  O1  1  0.50767500  0.50767500  0.78399300  1
  O  O2  1  0.44571100  0.84147600  0.87084500  1
  O  O3  1  0.14085800  0.14085800  0.49040600  1
  O  O4  1  0.38203700  0.98248600  0.21091300  1
  O  O5  1  0.98248600  0.38203700  0.21091300  1
  O  O6  1  0.84147600  0.44571100  0.87084500  1
  O  O7  1  0.96542400  0.96542400  0.81693400  1
  O  O8  1  0.15852400  0.55428900  0.12915500  1
  O  O9  1  0.24183600  0.24183600  0.92980200  1
  O  O10  1  0.01751400  0.61796300  0.78908700  1
  O  O11  1  0.75816400  0.75816400  0.07019800  1
  O  O12  1  0.85914200  0.85914200  0.50959400  1
  O  O13  1  0.49232500  0.49232500  0.21600700  1
  O  O14  1  0.61796300  0.01751400  0.78908700  1
  O  O15  1  0.65603700  0.65603700  0.56313100  1
  O  O16  1  0.03457600  0.03457600  0.18306600  1
  O  O17  1  0.34396300  0.34396300  0.43686900  1
loop_
_geom_bond_atom_site_label_1
_geom_bond_atom_site_label_2
_geom_bond_distance
_geom_bond_site_symmetry_2
Na0 O16 2.412179 1_655
Na0 O7 2.412179 1_544
Na0 O13 2.462612 1_555
Na0 O1 2.462612 1_554
Na0 O6 2.546147 1_554
Na0 O0 2.546147 1_555
Na1 O13 2.208791 1_555
Na1 O15 2.289804 1_555
Na1 O4 2.422086 1_555
Na1 O5 2.422086 1_555
Na1 O11 2.684386 1_555
Na2 O12 2.196960 1_555
Na2 O16 2.323324 1_665
Na2 O0 2.429989 1_565
Na2 O8 2.429989 1_655
Na2 O11 2.546606 1_555
Na3 O3 2.196960 1_555
Na3 O7 2.323324 1_445
Na3 O2 2.429989 1_545
Na3 O6 2.429989 1_455
Na3 O9 2.546606 1_555
Na4 O17 2.415044 1_555
Na4 O15 2.415044 1_545
Na4 O12 2.529990 1_545
Na4 O3 2.529990 1_555
Na4 O14 2.551024 1_555
Na4 O4 2.551024 1_545
Na5 O16 2.412179 1_565
Na5 O7 2.412179 1_454
Na5 O13 2.462612 1_555
Na5 O1 2.462612 1_554
Na5 O2 2.546147 1_554
Na5 O8 2.546147 1_555
Na6 O1 2.208791 1_555
Na6 O17 2.289804 1_555
Na6 O10 2.422086 1_555
Na6 O14 2.422086 1_555
Na6 O9 2.684386 1_555
Na7 O17 2.415044 1_555
Na7 O15 2.415044 1_455
Na7 O12 2.529990 1_455
Na7 O3 2.529990 1_555
Na7 O10 2.551024 1_555
Na7 O5 2.551024 1_455
As0 O3 1.691891 1_555
As0 O16 1.699663 1_555
As0 O5 1.758378 1_455
As0 O4 1.758378 1_545
As1 O17 1.696126 1_555
As1 O13 1.696188 1_555
As1 O0 1.756701 1_555
As1 O8 1.756701 1_555
As2 O12 1.691891 1_555
As2 O7 1.699663 1_555
As2 O10 1.758378 1_655
As2 O14 1.758378 1_565
As3 O15 1.696126 1_555
As3 O1 1.696188 1_555
As3 O2 1.756701 1_555
As3 O6 1.756701 1_555
O0 Ti1 2.032330 1_555
O2 Ti1 2.032330 1_566
O4 Ti1 2.013886 1_565
O5 Ti0 2.013886 1_655
O6 Ti0 2.032330 1_656
O8 Ti0 2.032330 1_555
O9 Ti0 1.903072 1_556
O9 Ti1 1.903072 1_556
O10 Ti0 2.013886 1_556
O11 Ti1 1.903072 1_565
O11 Ti0 1.903072 1_655
O14 Ti1 2.013886 1_556
