# generated using pymatgen
data_KNaTiO3
_symmetry_space_group_name_H-M   'P 1'
_cell_length_a   6.28111671
_cell_length_b   6.28111671
_cell_length_c   5.51255805
_cell_angle_alpha   86.55403080
_cell_angle_beta   86.55403080
_cell_angle_gamma   124.52482172
_symmetry_Int_Tables_number   1
_chemical_formula_structural   KNaTiO3
_chemical_formula_sum   'K2 Na2 Ti2 O6'
_cell_volume   177.68018733
_cell_formula_units_Z   2
loop_
 _symmetry_equiv_pos_site_id
 _symmetry_equiv_pos_as_xyz
  1  'x, y, z'
loop_
 _atom_site_type_symbol
 _atom_site_label
 _atom_site_symmetry_multiplicity
 _atom_site_fract_x
 _atom_site_fract_y
 _atom_site_fract_z
 _atom_site_occupancy
  K  K0  1  0.73712100  0.26287900  0.25000000  1
  K  K1  1  0.26287900  0.73712100  0.75000000  1
  Na  Na0  1  0.42241600  0.57758400  0.25000000  1
  Na  Na1  1  0.57758400  0.42241600  0.75000000  1
  Ti  Ti0  1  0.94707100  0.05292900  0.75000000  1
  Ti  Ti1  1  0.05292900  0.94707100  0.25000000  1
  O  O0  1  0.76160400  0.81061500  0.49537300  1
  O  O1  1  0.81061500  0.76160400  0.99537300  1
  O  O2  1  0.18938500  0.23839600  0.00462700  1
  O  O3  1  0.23839600  0.18938500  0.50462700  1
  O  O4  1  0.21323100  0.78676900  0.25000000  1
  O  O5  1  0.78676900  0.21323100  0.75000000  1
loop_
_geom_bond_atom_site_label_1
_geom_bond_atom_site_label_2
_geom_bond_distance
_geom_bond_site_symmetry_2
K0 O5 2.811014 1_554
K0 O5 2.811014 1_555
K0 O4 2.935418 1_545
K0 O4 2.935418 1_655
K0 O3 3.122589 1_555
K0 O1 3.122589 1_554
K0 O2 3.159310 1_655
K0 O0 3.159310 1_545
K1 O4 2.811014 1_556
K1 O4 2.811014 1_555
K1 O5 2.935418 1_455
K1 O5 2.935418 1_565
K1 O0 3.122589 1_555
K1 O2 3.122589 1_556
K1 O3 3.159310 1_565
K1 O1 3.159310 1_455
Na0 O4 2.325863 1_555
Na0 O1 2.334630 1_554
Na0 O3 2.334630 1_555
Na0 O0 2.358101 1_555
Na0 O2 2.358101 1_555
Na1 O5 2.325863 1_555
Na1 O2 2.334630 1_556
Na1 O0 2.334630 1_555
Na1 O1 2.358101 1_555
Na1 O3 2.358101 1_555
O0 Ti1 1.922988 1_655
O0 Ti0 2.021732 1_565
O1 Ti0 1.922988 1_565
O1 Ti1 2.021732 1_656
O2 Ti1 1.922988 1_545
O2 Ti0 2.021732 1_454
O3 Ti0 1.922988 1_455
O3 Ti1 2.021732 1_545
O4 Ti1 1.782348 1_555
O5 Ti0 1.782348 1_555
