# generated using pymatgen
data_CsAgCl2
_symmetry_space_group_name_H-M   'P 1'
_cell_length_a   4.42054013
_cell_length_b   5.64150292
_cell_length_c   9.89436132
_cell_angle_alpha   90.00000000
_cell_angle_beta   102.90804551
_cell_angle_gamma   90.00000000
_symmetry_Int_Tables_number   1
_chemical_formula_structural   CsAgCl2
_chemical_formula_sum   'Cs2 Ag2 Cl4'
_cell_volume   240.51500743
_cell_formula_units_Z   2
loop_
 _symmetry_equiv_pos_site_id
 _symmetry_equiv_pos_as_xyz
  1  'x, y, z'
loop_
 _atom_site_type_symbol
 _atom_site_label
 _atom_site_symmetry_multiplicity
 _atom_site_fract_x
 _atom_site_fract_y
 _atom_site_fract_z
 _atom_site_occupancy
  Cs  Cs0  1  0.41549562  0.25000000  0.83099224  1
  Cs  Cs1  1  0.58450438  0.75000000  0.16900776  1
  Ag  Ag0  1  0.20059058  0.25000000  0.40117916  1
  Ag  Ag1  1  0.79940942  0.75000000  0.59882084  1
  Cl  Cl0  1  0.77489366  0.25000000  0.54978632  1
  Cl  Cl1  1  0.22510634  0.75000000  0.45021368  1
  Cl  Cl2  1  0.06907695  0.25000000  0.13815489  1
  Cl  Cl3  1  0.93092305  0.75000000  0.86184511  1
loop_
_geom_bond_atom_site_label_1
_geom_bond_atom_site_label_2
_geom_bond_distance
_geom_bond_site_symmetry_2
Ag0 Cl2 2.536693 1_555
Ag0 Cl0 2.634273 1_555
Ag0 Cl0 2.634277 1_455
Ag0 Cl1 2.860119 1_555
Ag0 Cl1 2.860119 1_545
Ag1 Cl3 2.536693 1_555
Ag1 Cl1 2.634273 1_555
Ag1 Cl1 2.634277 1_655
Ag1 Cl0 2.860119 1_555
Ag1 Cl0 2.860119 1_565
Cl0 Cs0 3.498635 1_655
Cl0 Cs0 3.498641 1_555
Cl1 Cs1 3.498635 1_455
Cl1 Cs1 3.498641 1_555
Cl2 Cs1 3.595894 1_445
Cl2 Cs1 3.595894 1_455
Cl2 Cs1 3.595899 1_555
Cl2 Cs1 3.595899 1_545
Cl2 Cs0 3.696075 1_454
Cl2 Cs0 3.696076 1_554
Cl3 Cs0 3.595894 1_655
Cl3 Cs0 3.595894 1_665
Cl3 Cs0 3.595899 1_565
Cl3 Cs0 3.595899 1_555
Cl3 Cs1 3.696075 1_656
Cl3 Cs1 3.696076 1_556
