# generated using pymatgen
data_H7ClO7
_symmetry_space_group_name_H-M   'P 1'
_cell_length_a   8.15810866
_cell_length_b   10.04749520
_cell_length_c   13.03670293
_cell_angle_alpha   89.99990416
_cell_angle_beta   89.99892339
_cell_angle_gamma   90.00041000
_symmetry_Int_Tables_number   1
_chemical_formula_structural   H7ClO7
_chemical_formula_sum   'H56 Cl8 O56'
_cell_volume   1068.59973496
_cell_formula_units_Z   8
loop_
 _symmetry_equiv_pos_site_id
 _symmetry_equiv_pos_as_xyz
  1  'x, y, z'
loop_
 _atom_site_type_symbol
 _atom_site_label
 _atom_site_symmetry_multiplicity
 _atom_site_fract_x
 _atom_site_fract_y
 _atom_site_fract_z
 _atom_site_occupancy
  H  H0  1  0.89503895  0.17547246  0.57495494  1
  H  H1  1  0.57022725  0.55929241  0.75963727  1
  H  H2  1  0.57022903  0.05930732  0.74035691  1
  H  H3  1  0.69342825  0.55746726  0.60663799  1
  H  H4  1  0.44915106  0.61160284  0.35677002  1
  H  H5  1  0.48425861  0.22513426  0.65961951  1
  H  H6  1  0.07022567  0.94071543  0.75963745  1
  H  H7  1  0.92977573  0.05927953  0.24035748  1
  H  H8  1  0.44914483  0.11160278  0.14323870  1
  H  H9  1  0.95687105  0.03288324  0.12182356  1
  H  H10  1  0.54312702  0.53290966  0.87817290  1
  H  H11  1  0.79134529  0.46054223  0.67873458  1
  H  H12  1  0.69342317  0.05745725  0.89336114  1
  H  H13  1  0.10493588  0.32451524  0.07493261  1
  H  H14  1  0.04312379  0.96709632  0.87817421  1
  H  H15  1  0.10494073  0.82451466  0.42506388  1
  H  H16  1  0.29133973  0.03947221  0.67873828  1
  H  H17  1  0.55085361  0.88839261  0.85674615  1
  H  H18  1  0.20867540  0.53946359  0.32127108  1
  H  H19  1  0.95686689  0.53288958  0.37818370  1
  H  H20  1  0.92978060  0.55928209  0.25964886  1
  H  H21  1  0.48426165  0.72512424  0.84037857  1
  H  H22  1  0.01573263  0.22510858  0.15960229  1
  H  H23  1  0.30658289  0.94254348  0.10663632  1
  H  H24  1  0.07023122  0.44070459  0.74035546  1
  H  H25  1  0.45686780  0.46710590  0.12182367  1
  H  H26  1  0.80658807  0.55744924  0.10664433  1
  H  H27  1  0.51573033  0.77488086  0.34039565  1
  H  H28  1  0.60494316  0.67548566  0.42506525  1
  H  H29  1  0.04313789  0.46709012  0.62182090  1
  H  H30  1  0.19342165  0.44255028  0.89335706  1
  H  H31  1  0.01573296  0.72510902  0.34039877  1
  H  H32  1  0.42977828  0.44070618  0.24035899  1
  H  H33  1  0.98425478  0.27487850  0.65961399  1
  H  H34  1  0.94914719  0.38838333  0.14324167  1
  H  H35  1  0.80657886  0.05745260  0.39336329  1
  H  H36  1  0.19342258  0.94254718  0.60664092  1
  H  H37  1  0.51573184  0.27488133  0.15960300  1
  H  H38  1  0.70866724  0.96052370  0.32126650  1
  H  H39  1  0.20866288  0.03946279  0.17873645  1
  H  H40  1  0.70866861  0.46052503  0.17874121  1
  H  H41  1  0.39504617  0.32453515  0.57495683  1
  H  H42  1  0.79134164  0.96054106  0.82125502  1
  H  H43  1  0.30658619  0.44253546  0.39336846  1
  H  H44  1  0.94914666  0.88838443  0.35676423  1
  H  H45  1  0.05084569  0.11161018  0.64324836  1
  H  H46  1  0.98425981  0.77488277  0.84037879  1
  H  H47  1  0.39505892  0.82452757  0.92504782  1
  H  H48  1  0.05085597  0.61161798  0.85674304  1
  H  H49  1  0.29134576  0.53946721  0.82125405  1
  H  H50  1  0.89505920  0.67547222  0.92504475  1
  H  H51  1  0.54313756  0.03292346  0.62182236  1
  H  H52  1  0.42977502  0.94070286  0.25964165  1
  H  H53  1  0.55085322  0.38840545  0.64324644  1
  H  H54  1  0.60493282  0.17548028  0.07493079  1
  H  H55  1  0.45685860  0.96710033  0.37817597  1
  Cl  Cl0  1  0.74265600  0.82146689  0.57880420  1
  Cl  Cl1  1  0.75734842  0.82145525  0.07879488  1
  Cl  Cl2  1  0.24264720  0.17853852  0.92120038  1
  Cl  Cl3  1  0.25734925  0.67853590  0.07879591  1
  Cl  Cl4  1  0.74264542  0.32146511  0.92119866  1
  Cl  Cl5  1  0.25734309  0.17854164  0.42120482  1
  Cl  Cl6  1  0.75734515  0.32145294  0.42120606  1
  Cl  Cl7  1  0.24265359  0.67854285  0.57880033  1
  O  O0  1  -0.00174221  0.08385090  0.18045727  1
  O  O1  1  0.49825540  0.91613940  0.31954454  1
  O  O2  1  0.24652319  0.30443817  0.97917796  1
  O  O3  1  0.74653477  0.69556945  0.52082244  1
  O  O4  1  0.70408811  0.79344026  0.68368976  1
  O  O5  1  0.88263150  0.40525718  0.46645250  1
  O  O6  1  0.95346177  0.67679351  0.85856402  1
  O  O7  1  0.20409254  0.20656447  0.81631307  1
  O  O8  1  0.24653491  0.80444305  0.52081641  1
  O  O9  1  0.10059487  0.61514872  0.07022782  1
  O  O10  1  0.11738908  0.59472870  0.53355061  1
  O  O11  1  0.18016470  0.00867547  0.66108464  1
  O  O12  1  0.04653465  0.32319431  0.14141711  1
  O  O13  1  0.89942338  0.88483534  0.57024971  1
  O  O14  1  0.39940956  0.11516314  0.92975621  1
  O  O15  1  0.81983991  0.49132220  0.16109075  1
  O  O16  1  0.31984896  0.50866403  0.33891986  1
  O  O17  1  0.50174097  0.58386462  0.81953785  1
  O  O18  1  0.25345974  0.30443635  0.47918279  1
  O  O19  1  0.89940920  0.38484627  0.92975242  1
  O  O20  1  0.68016858  0.49133838  0.66108527  1
  O  O21  1  0.10058420  0.11515733  0.42976653  1
  O  O22  1  0.88264643  0.90525861  0.03354869  1
  O  O23  1  0.25347108  0.80443613  0.02082059  1
  O  O24  1  0.79590367  0.29342906  0.31631816  1
  O  O25  1  0.70408815  0.29344012  0.81631241  1
  O  O26  1  0.54654081  0.67679412  0.35858847  1
  O  O27  1  0.31983782  0.00866422  0.16108578  1
  O  O28  1  0.61736220  0.40527247  0.96645039  1
  O  O29  1  0.11736372  0.09472910  0.96645007  1
  O  O30  1  0.60058510  0.38483336  0.42976316  1
  O  O31  1  0.00173947  0.41614012  0.68045609  1
  O  O32  1  0.81984064  0.99132142  0.33891717  1
  O  O33  1  0.45345703  0.32322372  0.64143043  1
  O  O34  1  0.68016955  0.99132913  0.83890854  1
  O  O35  1  0.38262893  0.09473711  0.46644905  1
  O  O36  1  0.29588483  0.70655946  0.18368729  1
  O  O37  1  -0.00173567  0.58384916  0.31955034  1
  O  O38  1  0.95345514  0.17678948  0.64143010  1
  O  O39  1  0.00174225  0.91613810  0.81953806  1
  O  O40  1  0.29589079  0.20656528  0.31631682  1
  O  O41  1  0.74652735  0.19556760  0.97917810  1
  O  O42  1  0.75347662  0.69555687  0.02082096  1
  O  O43  1  0.39942350  0.61517819  0.57025473  1
  O  O44  1  0.38264450  0.59473622  0.03355238  1
  O  O45  1  0.20408151  0.70657369  0.68368598  1
  O  O46  1  0.49826210  0.41614114  0.18046006  1
  O  O47  1  0.79588506  0.79343412  0.18368622  1
  O  O48  1  0.18017045  0.50867846  0.83890550  1
  O  O49  1  0.04653823  0.82319713  0.35858677  1
  O  O50  1  0.45345824  0.82321424  0.85856589  1
  O  O51  1  0.50174185  0.08387409  0.68045644  1
  O  O52  1  0.61738825  0.90528354  0.53355337  1
  O  O53  1  0.60059232  0.88483863  0.07022562  1
  O  O54  1  0.75346227  0.19555724  0.47918429  1
  O  O55  1  0.54653067  0.17679529  0.14141423  1
loop_
_geom_bond_atom_site_label_1
_geom_bond_atom_site_label_2
_geom_bond_distance
_geom_bond_site_symmetry_2
H0 O38 0.989106 1_555
H0 O54 1.712786 1_555
H1 O17 0.991424 1_555
H2 O51 0.991429 1_555
H3 O20 0.978262 1_555
H4 O26 1.029975 1_555
H4 O16 1.495529 1_555
H5 O33 1.044362 1_555
H5 O51 1.452095 1_555
H6 O39 0.991421 1_555
H7 O0 0.991396 1_655
H8 O55 1.029959 1_555
H8 O27 1.495543 1_555
H9 O0 0.980073 1_655
H10 O17 0.980020 1_555
H11 O20 0.985561 1_555
H12 O34 0.978307 1_545
H13 O12 0.989138 1_555
H13 O2 1.712652 1_554
H14 O39 0.980034 1_555
H15 O49 0.989074 1_555
H15 O8 1.712695 1_555
H16 O11 0.985559 1_555
H17 O50 1.029927 1_555
H17 O34 1.495561 1_555
H18 O16 0.985546 1_555
H19 O37 0.980046 1_655
H20 O37 0.991423 1_655
H21 O50 1.044364 1_555
H21 O17 1.452096 1_555
H22 O12 1.044310 1_555
H22 O0 1.452105 1_555
H23 O27 0.978228 1_565
H24 O31 0.991432 1_555
H25 O46 0.980108 1_555
H26 O15 0.978239 1_555
H27 O26 1.044365 1_555
H27 O1 1.452107 1_555
H28 O26 0.989069 1_555
H28 O3 1.712738 1_555
H29 O31 0.980017 1_555
H30 O48 0.978294 1_555
H31 O49 1.044351 1_555
H31 O37 1.452107 1_555
H32 O46 0.991378 1_555
H33 O38 1.044336 1_555
H33 O31 1.452122 1_655
H34 O12 1.029954 1_655
H34 O15 1.495561 1_555
H35 O32 0.978272 1_545
H36 O11 0.978226 1_565
H37 O55 1.044322 1_555
H37 O46 1.452130 1_555
H38 O32 0.985541 1_555
H39 O27 0.985551 1_555
H40 O15 0.985515 1_555
H41 O33 0.989066 1_555
H41 O18 1.712887 1_555
H42 O34 0.985506 1_555
H43 O16 0.978276 1_555
H44 O49 1.029969 1_655
H44 O32 1.495543 1_555
H45 O38 1.029910 1_455
H45 O11 1.495580 1_555
H46 O6 1.044336 1_555
H46 O39 1.452053 1_655
H47 O50 0.989101 1_555
H47 O23 1.712842 1_556
H48 O6 1.029910 1_455
H48 O48 1.495584 1_555
H49 O48 0.985521 1_555
H50 O6 0.989101 1_555
H50 O42 1.712840 1_556
H51 O51 0.980006 1_555
H52 O1 0.991414 1_555
H53 O33 1.029954 1_555
H53 O20 1.495542 1_555
H54 O55 0.989129 1_555
H54 O41 1.712683 1_554
H55 O1 0.980036 1_555
Cl0 O4 1.431068 1_555
Cl0 O13 1.432986 1_555
Cl0 O52 1.449700 1_555
Cl0 O3 1.473935 1_555
Cl1 O47 1.431085 1_555
Cl1 O53 1.432998 1_555
Cl1 O22 1.449748 1_555
Cl1 O42 1.473889 1_555
Cl2 O7 1.431077 1_555
Cl2 O14 1.432994 1_555
Cl2 O29 1.449718 1_555
Cl2 O2 1.473926 1_555
Cl3 O36 1.431089 1_555
Cl3 O9 1.432993 1_555
Cl3 O44 1.449706 1_555
Cl3 O23 1.473914 1_555
Cl4 O25 1.431067 1_555
Cl4 O19 1.433020 1_555
Cl4 O28 1.449725 1_555
Cl4 O41 1.473919 1_555
Cl5 O40 1.431056 1_555
Cl5 O21 1.433003 1_555
Cl5 O35 1.449698 1_555
Cl5 O18 1.473887 1_555
Cl6 O24 1.431077 1_555
Cl6 O30 1.432997 1_555
Cl6 O5 1.449704 1_555
Cl6 O54 1.473894 1_555
Cl7 O45 1.431087 1_555
Cl7 O43 1.432987 1_555
Cl7 O10 1.449654 1_555
Cl7 O8 1.473971 1_555
