# generated using pymatgen
data_Sr2YGaCu2O7
_symmetry_space_group_name_H-M   'P 1'
_cell_length_a   12.24141736
_cell_length_b   12.24141736
_cell_length_c   12.24141736
_cell_angle_alpha   154.41446268
_cell_angle_beta   153.89218336
_cell_angle_gamma   36.87857578
_symmetry_Int_Tables_number   1
_chemical_formula_structural   Sr2YGaCu2O7
_chemical_formula_sum   'Sr4 Y2 Ga2 Cu4 O14'
_cell_volume   348.13448119
_cell_formula_units_Z   2
loop_
 _symmetry_equiv_pos_site_id
 _symmetry_equiv_pos_as_xyz
  1  'x, y, z'
loop_
 _atom_site_type_symbol
 _atom_site_label
 _atom_site_symmetry_multiplicity
 _atom_site_fract_x
 _atom_site_fract_y
 _atom_site_fract_z
 _atom_site_occupancy
  Sr  Sr0  1  0.86686400  0.84518400  0.01464600  1
  Sr  Sr1  1  0.13313600  0.14778200  0.97831900  1
  Sr  Sr2  1  0.33053800  0.34518400  0.97831900  1
  Sr  Sr3  1  0.66946200  0.64778200  0.01464600  1
  Y  Y0  1  0.50000000  0.49996800  0.99996800  1
  Y  Y1  1  0.00000000  0.99996800  0.99996800  1
  Ga  Ga0  1  0.31955100  0.71038100  0.52993200  1
  Ga  Ga1  1  0.68044900  0.21038100  0.39083000  1
  Cu  Cu0  1  0.07204300  0.57109400  0.50085500  1
  Cu  Cu1  1  0.42976100  0.92881200  0.50085500  1
  Cu  Cu2  1  0.57023900  0.07109400  0.49905100  1
  Cu  Cu3  1  0.92795700  0.42881200  0.49905100  1
  O  O0  1  0.18990900  0.68712600  0.99988400  1
  O  O1  1  0.36566900  0.35740200  0.22307100  1
  O  O2  1  0.18724200  0.18712600  0.49721700  1
  O  O3  1  0.72147200  0.20269700  0.57032500  1
  O  O4  1  0.31306200  0.81385800  0.99913200  1
  O  O5  1  0.31472600  0.31385800  0.50079600  1
  O  O6  1  0.63433100  0.85740200  0.99173300  1
  O  O7  1  0.81275800  0.30997500  0.99988400  1
  O  O8  1  0.81009100  0.80997500  0.49721700  1
  O  O9  1  0.13237300  0.70269700  0.48122500  1
  O  O10  1  0.27852800  0.84885200  0.48122500  1
  O  O11  1  0.86762700  0.34885200  0.57032500  1
  O  O12  1  0.68693800  0.68607000  0.50079600  1
  O  O13  1  0.68527400  0.18607000  0.99913200  1
loop_
_geom_bond_atom_site_label_1
_geom_bond_atom_site_label_2
_geom_bond_distance
_geom_bond_site_symmetry_2
Ga0 O9 1.845149 1_555
Ga0 O10 1.845149 1_555
Ga0 O6 1.914487 1_555
Ga0 O1 1.930462 1_555
Ga1 O11 1.845140 1_555
Ga1 O3 1.845162 1_555
Ga1 O1 1.914487 1_555
Ga1 O6 1.930462 1_544
Cu0 O4 1.936513 1_555
Cu0 O5 1.942964 1_555
Cu0 O8 1.952619 1_455
Cu0 O7 1.952694 1_454
Cu0 O9 2.473654 1_555
Cu1 O13 1.936513 1_565
Cu1 O12 1.942964 1_555
Cu1 O2 1.952619 1_565
Cu1 O0 1.952694 1_554
Cu1 O10 2.473654 1_555
Cu2 O5 1.936513 1_555
Cu2 O4 1.942964 1_544
Cu2 O7 1.952619 1_555
Cu2 O8 1.952694 1_545
Cu2 O3 2.473643 1_555
Cu3 O12 1.936513 1_555
Cu3 O13 1.942964 1_554
Cu3 O0 1.952619 1_655
Cu3 O2 1.952694 1_655
Cu3 O11 2.473666 1_555
O0 Y0 2.396289 1_555
O0 Y1 2.413428 1_555
O0 Sr0 2.797569 1_456
O0 Sr2 2.801658 1_555
O1 Sr1 2.482822 1_554
O1 Sr2 2.482844 1_554
O2 Y1 2.396289 1_544
O2 Y0 2.413428 1_555
O2 Sr2 2.797558 1_555
O2 Sr0 2.801667 1_445
O3 Sr1 2.495352 1_655
O3 Sr3 2.624302 1_556
O3 Sr3 2.934052 1_545
O3 Sr1 3.172111 1_554
O4 Y1 2.436720 1_555
O4 Y0 2.441911 1_555
O4 Sr1 2.844744 1_565
O4 Sr3 2.867423 1_556
O5 Y0 2.436720 1_555
O5 Y1 2.441911 1_544
O5 Sr3 2.844735 1_556
O5 Sr1 2.867434 1_554
O6 Sr0 2.482832 1_556
O6 Sr3 2.482832 1_556
O7 Y1 2.396289 1_645
O7 Y0 2.413428 1_555
O7 Sr3 2.797569 1_556
O7 Sr1 2.801676 1_655
O8 Y0 2.396289 1_554
O8 Y1 2.413428 1_655
O8 Sr1 2.797575 1_665
O8 Sr3 2.801667 1_555
O9 Sr3 2.495362 1_455
O9 Sr1 2.624302 1_565
O9 Sr1 2.934052 1_554
O9 Sr3 3.172110 1_556
O10 Sr0 2.495362 1_455
O10 Sr2 2.624307 1_565
O10 Sr2 2.934057 1_554
O10 Sr0 3.172110 1_556
O11 Sr2 2.495363 1_655
O11 Sr0 2.624308 1_556
O11 Sr0 2.934057 1_545
O11 Sr2 3.172120 1_554
O12 Y1 2.436720 1_655
O12 Y0 2.441911 1_554
O12 Sr0 2.844735 1_556
O12 Sr2 2.867417 1_554
O13 Y0 2.436720 1_555
O13 Y1 2.441911 1_645
O13 Sr2 2.844727 1_555
O13 Sr0 2.867423 1_546
