# generated using pymatgen
data_K6LiFe24S26Cl
_symmetry_space_group_name_H-M   'P 1'
_cell_length_a   9.89018700
_cell_length_b   9.89018700
_cell_length_c   9.89018700
_cell_angle_alpha   90.00000000
_cell_angle_beta   90.00000000
_cell_angle_gamma   90.00000000
_symmetry_Int_Tables_number   1
_chemical_formula_structural   K6LiFe24S26Cl
_chemical_formula_sum   'K6 Li1 Fe24 S26 Cl1'
_cell_volume   967.41654263
_cell_formula_units_Z   1
loop_
 _symmetry_equiv_pos_site_id
 _symmetry_equiv_pos_as_xyz
  1  'x, y, z'
loop_
 _atom_site_type_symbol
 _atom_site_label
 _atom_site_symmetry_multiplicity
 _atom_site_fract_x
 _atom_site_fract_y
 _atom_site_fract_z
 _atom_site_occupancy
  K  K0  1  0.69925200  0.00000000  0.00000000  1
  K  K1  1  0.00000000  0.00000000  0.69925200  1
  K  K2  1  0.00000000  0.69925200  0.00000000  1
  K  K3  1  0.00000000  0.30074800  0.00000000  1
  K  K4  1  0.00000000  0.00000000  0.30074800  1
  K  K5  1  0.30074800  0.00000000  0.00000000  1
  Li  Li0  1  0.50000000  0.50000000  0.50000000  1
  Fe  Fe0  1  0.13368900  0.36639900  0.36639900  1
  Fe  Fe1  1  0.13368900  0.36639900  0.63360100  1
  Fe  Fe2  1  0.13368900  0.63360100  0.36639900  1
  Fe  Fe3  1  0.13368900  0.63360100  0.63360100  1
  Fe  Fe4  1  0.36639900  0.13368900  0.63360100  1
  Fe  Fe5  1  0.36639900  0.63360100  0.13368900  1
  Fe  Fe6  1  0.36639900  0.63360100  0.86631100  1
  Fe  Fe7  1  0.36639900  0.86631100  0.63360100  1
  Fe  Fe8  1  0.36639900  0.13368900  0.36639900  1
  Fe  Fe9  1  0.36639900  0.36639900  0.13368900  1
  Fe  Fe10  1  0.36639900  0.36639900  0.86631100  1
  Fe  Fe11  1  0.36639900  0.86631100  0.36639900  1
  Fe  Fe12  1  0.63360100  0.13368900  0.36639900  1
  Fe  Fe13  1  0.63360100  0.13368900  0.63360100  1
  Fe  Fe14  1  0.63360100  0.36639900  0.13368900  1
  Fe  Fe15  1  0.63360100  0.63360100  0.13368900  1
  Fe  Fe16  1  0.63360100  0.63360100  0.86631100  1
  Fe  Fe17  1  0.63360100  0.86631100  0.63360100  1
  Fe  Fe18  1  0.63360100  0.36639900  0.86631100  1
  Fe  Fe19  1  0.63360100  0.86631100  0.36639900  1
  Fe  Fe20  1  0.86631100  0.36639900  0.63360100  1
  Fe  Fe21  1  0.86631100  0.36639900  0.36639900  1
  Fe  Fe22  1  0.86631100  0.63360100  0.36639900  1
  Fe  Fe23  1  0.86631100  0.63360100  0.63360100  1
  S  S0  1  0.50000000  0.00000000  0.74900400  1
  S  S1  1  0.50000000  0.25099600  0.00000000  1
  S  S2  1  0.50000000  0.24597900  0.50000000  1
  S  S3  1  0.50000000  0.50000000  0.24597900  1
  S  S4  1  0.75402100  0.50000000  0.50000000  1
  S  S5  1  0.74900400  0.00000000  0.50000000  1
  S  S6  1  0.74900400  0.50000000  0.00000000  1
  S  S7  1  0.77248600  0.22751400  0.22751400  1
  S  S8  1  0.77248600  0.77248600  0.22751400  1
  S  S9  1  0.77248600  0.22751400  0.77248600  1
  S  S10  1  0.77248600  0.77248600  0.77248600  1
  S  S11  1  0.00000000  0.74900400  0.50000000  1
  S  S12  1  0.00000000  0.50000000  0.74900400  1
  S  S13  1  0.00000000  0.25099600  0.50000000  1
  S  S14  1  0.00000000  0.50000000  0.25099600  1
  S  S15  1  0.22751400  0.22751400  0.22751400  1
  S  S16  1  0.22751400  0.77248600  0.22751400  1
  S  S17  1  0.22751400  0.22751400  0.77248600  1
  S  S18  1  0.22751400  0.77248600  0.77248600  1
  S  S19  1  0.25099600  0.00000000  0.50000000  1
  S  S20  1  0.25099600  0.50000000  0.00000000  1
  S  S21  1  0.24597900  0.50000000  0.50000000  1
  S  S22  1  0.50000000  0.75402100  0.50000000  1
  S  S23  1  0.50000000  0.50000000  0.75402100  1
  S  S24  1  0.50000000  0.74900400  0.00000000  1
  S  S25  1  0.50000000  0.00000000  0.25099600  1
  Cl  Cl0  1  0.00000000  0.00000000  0.00000000  1
loop_
_geom_bond_atom_site_label_1
_geom_bond_atom_site_label_2
_geom_bond_distance
_geom_bond_site_symmetry_2
K0 S24 3.169498 1_545
K0 S0 3.169498 1_554
K0 S25 3.169498 1_555
K0 S1 3.169498 1_555
K0 S7 3.263589 1_555
K0 S8 3.263589 1_545
K0 S10 3.263589 1_544
K0 S9 3.263589 1_554
K1 S11 3.169498 1_545
K1 S19 3.169498 1_555
K1 S13 3.169498 1_555
K1 S5 3.169498 1_455
K1 S18 3.263589 1_545
K1 S10 3.263589 1_445
K1 S17 3.263589 1_555
K1 S9 3.263589 1_455
K2 S20 3.169498 1_555
K2 S14 3.169498 1_555
K2 S6 3.169498 1_455
K2 S12 3.169498 1_554
K2 S16 3.263589 1_555
K2 S10 3.263589 1_454
K2 S8 3.263589 1_455
K2 S18 3.263589 1_554
K3 S20 3.169498 1_555
K3 S14 3.169498 1_555
K3 S6 3.169498 1_455
K3 S12 3.169498 1_554
K3 S7 3.263589 1_455
K3 S17 3.263589 1_554
K3 S9 3.263589 1_454
K3 S15 3.263589 1_555
K4 S11 3.169498 1_545
K4 S19 3.169498 1_555
K4 S13 3.169498 1_555
K4 S5 3.169498 1_455
K4 S7 3.263589 1_455
K4 S16 3.263589 1_545
K4 S8 3.263589 1_445
K4 S15 3.263589 1_555
K5 S24 3.169498 1_545
K5 S0 3.169498 1_554
K5 S25 3.169498 1_555
K5 S1 3.169498 1_555
K5 S18 3.263589 1_544
K5 S17 3.263589 1_554
K5 S16 3.263589 1_545
K5 S15 3.263589 1_555
Li0 S2 2.512315 1_555
Li0 S21 2.512315 1_555
Li0 S3 2.512315 1_555
Li0 S4 2.512315 1_555
Li0 S22 2.512315 1_555
Li0 S23 2.512315 1_555
Fe0 S15 2.152819 1_555
Fe0 S21 2.173761 1_555
Fe0 S13 2.190176 1_555
Fe0 S14 2.190176 1_555
Fe1 S17 2.152819 1_555
Fe1 S21 2.173761 1_555
Fe1 S13 2.190176 1_555
Fe1 S12 2.190176 1_555
Fe2 S16 2.152819 1_555
Fe2 S21 2.173761 1_555
Fe2 S14 2.190176 1_555
Fe2 S11 2.190176 1_555
Fe3 S18 2.152819 1_555
Fe3 S21 2.173761 1_555
Fe3 S11 2.190176 1_555
Fe3 S12 2.190176 1_555
Fe4 S17 2.152819 1_555
Fe4 S2 2.173761 1_555
Fe4 S19 2.190176 1_555
Fe4 S0 2.190176 1_555
Fe5 S16 2.152819 1_555
Fe5 S3 2.173761 1_555
Fe5 S20 2.190176 1_555
Fe5 S24 2.190176 1_555
Fe6 S18 2.152819 1_555
Fe6 S23 2.173761 1_555
Fe6 S20 2.190176 1_556
Fe6 S24 2.190176 1_556
Fe7 S18 2.152819 1_555
Fe7 S22 2.173761 1_555
Fe7 S19 2.190176 1_565
Fe7 S0 2.190176 1_565
Fe8 S15 2.152819 1_555
Fe8 S2 2.173761 1_555
Fe8 S19 2.190176 1_555
Fe8 S25 2.190176 1_555
Fe9 S15 2.152819 1_555
Fe9 S3 2.173761 1_555
Fe9 S1 2.190176 1_555
Fe9 S20 2.190176 1_555
Fe10 S17 2.152819 1_555
Fe10 S23 2.173761 1_555
Fe10 S1 2.190176 1_556
Fe10 S20 2.190176 1_556
Fe11 S16 2.152819 1_555
Fe11 S22 2.173761 1_555
Fe11 S25 2.190176 1_565
Fe11 S19 2.190176 1_565
Fe12 S7 2.152819 1_555
Fe12 S2 2.173761 1_555
Fe12 S25 2.190176 1_555
Fe12 S5 2.190176 1_555
Fe13 S9 2.152819 1_555
Fe13 S2 2.173761 1_555
Fe13 S0 2.190176 1_555
Fe13 S5 2.190176 1_555
Fe14 S7 2.152819 1_555
Fe14 S3 2.173761 1_555
Fe14 S1 2.190176 1_555
Fe14 S6 2.190176 1_555
Fe15 S8 2.152819 1_555
Fe15 S3 2.173761 1_555
Fe15 S6 2.190176 1_555
Fe15 S24 2.190176 1_555
Fe16 S10 2.152819 1_555
Fe16 S23 2.173761 1_555
Fe16 S24 2.190176 1_556
Fe16 S6 2.190176 1_556
Fe17 S10 2.152819 1_555
Fe17 S22 2.173761 1_555
Fe17 S5 2.190176 1_565
Fe17 S0 2.190176 1_565
Fe18 S9 2.152819 1_555
Fe18 S23 2.173761 1_555
Fe18 S1 2.190176 1_556
Fe18 S6 2.190176 1_556
Fe19 S8 2.152819 1_555
Fe19 S22 2.173761 1_555
Fe19 S25 2.190176 1_565
Fe19 S5 2.190176 1_565
Fe20 S9 2.152819 1_555
Fe20 S4 2.173761 1_555
Fe20 S13 2.190176 1_655
Fe20 S12 2.190176 1_655
Fe21 S7 2.152819 1_555
Fe21 S4 2.173761 1_555
Fe21 S14 2.190176 1_655
Fe21 S13 2.190176 1_655
Fe22 S8 2.152819 1_555
Fe22 S4 2.173761 1_555
Fe22 S14 2.190176 1_655
Fe22 S11 2.190176 1_655
Fe23 S10 2.152819 1_555
Fe23 S4 2.173761 1_555
Fe23 S11 2.190176 1_655
Fe23 S12 2.190176 1_655
Cl0 K2 2.974454 1_545
Cl0 K5 2.974454 1_555
Cl0 K0 2.974454 1_455
Cl0 K3 2.974454 1_555
Cl0 K4 2.974454 1_555
Cl0 K1 2.974454 1_554
