# generated using pymatgen
data_La3AgSnS7
_symmetry_space_group_name_H-M   'P 1'
_cell_length_a   10.47675837
_cell_length_b   10.47675837
_cell_length_c   6.07142900
_cell_angle_alpha   90.00000000
_cell_angle_beta   90.00000000
_cell_angle_gamma   120.00000231
_symmetry_Int_Tables_number   1
_chemical_formula_structural   La3AgSnS7
_chemical_formula_sum   'La6 Ag2 Sn2 S14'
_cell_volume   577.13232190
_cell_formula_units_Z   2
loop_
 _symmetry_equiv_pos_site_id
 _symmetry_equiv_pos_as_xyz
  1  'x, y, z'
loop_
 _atom_site_type_symbol
 _atom_site_label
 _atom_site_symmetry_multiplicity
 _atom_site_fract_x
 _atom_site_fract_y
 _atom_site_fract_z
 _atom_site_occupancy
  La  La0  1  0.13185400  0.35876200  0.08189000  1
  La  La1  1  0.77309300  0.13185400  0.58189000  1
  La  La2  1  0.35876200  0.22690700  0.58189000  1
  La  La3  1  0.64123800  0.77309300  0.08189000  1
  La  La4  1  0.22690700  0.86814600  0.08189000  1
  La  La5  1  0.86814600  0.64123800  0.58189000  1
  Ag  Ag0  1  0.00000000  0.00000000  0.00254100  1
  Ag  Ag1  1  0.00000000  0.00000000  0.50254100  1
  Sn  Sn0  1  0.33333300  0.66666700  0.65749400  1
  Sn  Sn1  1  0.66666700  0.33333300  0.15749400  1
  S  S0  1  0.26766100  0.16637600  0.05515600  1
  S  S1  1  0.10128500  0.26766100  0.55515600  1
  S  S2  1  0.16637600  0.89871500  0.55515600  1
  S  S3  1  0.83362400  0.10128500  0.05515600  1
  S  S4  1  0.89871500  0.73233900  0.05515600  1
  S  S5  1  0.73233900  0.83362400  0.55515600  1
  S  S6  1  0.51586200  0.09367200  0.32781600  1
  S  S7  1  0.42219000  0.51586200  0.82781600  1
  S  S8  1  0.09367200  0.57781000  0.82781600  1
  S  S9  1  0.90632800  0.42219000  0.32781600  1
  S  S10  1  0.57781000  0.48413800  0.32781600  1
  S  S11  1  0.48413800  0.90632800  0.82781600  1
  S  S12  1  0.33333300  0.66666700  0.26568000  1
  S  S13  1  0.66666700  0.33333300  0.76568000  1
loop_
_geom_bond_atom_site_label_1
_geom_bond_atom_site_label_2
_geom_bond_distance
_geom_bond_site_symmetry_2
La0 S3 2.938879 1_455
La0 S8 2.953685 1_554
La0 S1 2.994042 1_555
La0 S0 2.996853 1_555
La0 S12 3.049205 1_555
La0 S7 3.055248 1_554
La0 S9 3.134302 1_455
La0 S1 3.306848 1_554
La1 S5 2.938875 1_545
La1 S6 2.953694 1_555
La1 S3 2.994040 1_556
La1 S1 2.996843 1_655
La1 S13 3.049205 1_555
La1 S9 3.055248 1_555
La1 S11 3.134309 1_545
La1 S3 3.306845 1_555
La2 S1 2.938885 1_555
La2 S10 2.953690 1_555
La2 S0 2.994042 1_556
La2 S2 2.996844 1_545
La2 S13 3.049205 1_555
La2 S6 3.055240 1_555
La2 S7 3.134311 1_555
La2 S0 3.306847 1_555
La3 S4 2.938885 1_555
La3 S7 2.953690 1_554
La3 S5 2.994042 1_555
La3 S3 2.996844 1_565
La3 S12 3.049205 1_555
La3 S11 3.055240 1_554
La3 S10 3.134311 1_555
La3 S5 3.306847 1_554
La4 S0 2.938875 1_565
La4 S11 2.953694 1_554
La4 S2 2.994040 1_555
La4 S4 2.996843 1_455
La4 S12 3.049205 1_555
La4 S8 3.055248 1_554
La4 S6 3.134309 1_565
La4 S2 3.306845 1_554
La5 S2 2.938879 1_655
La5 S9 2.953685 1_555
La5 S4 2.994042 1_556
La5 S5 2.996853 1_555
La5 S13 3.049205 1_555
La5 S10 3.055248 1_555
La5 S8 3.134302 1_655
La5 S4 3.306848 1_555
Ag0 S0 2.473064 1_555
Ag0 S4 2.473064 1_445
Ag0 S3 2.473064 1_455
Ag1 S5 2.473064 1_445
Ag1 S1 2.473064 1_555
Ag1 S2 2.473064 1_545
S6 Sn1 2.429613 1_555
S7 Sn0 2.429620 1_555
S8 Sn0 2.429612 1_555
S9 Sn1 2.429612 1_555
S10 Sn1 2.429620 1_555
S11 Sn0 2.429613 1_555
S12 Sn0 2.378871 1_555
S13 Sn1 2.378871 1_556
