# generated using pymatgen
data_Na2H16O9
_symmetry_space_group_name_H-M   'P 1'
_cell_length_a   12.43770900
_cell_length_b   6.52652800
_cell_length_c   11.80044043
_cell_angle_alpha   76.32598815
_cell_angle_beta   90.00000000
_cell_angle_gamma   90.00000000
_symmetry_Int_Tables_number   1
_chemical_formula_structural   Na2H16O9
_chemical_formula_sum   'Na8 H64 O36'
_cell_volume   930.75108205
_cell_formula_units_Z   4
loop_
 _symmetry_equiv_pos_site_id
 _symmetry_equiv_pos_as_xyz
  1  'x, y, z'
loop_
 _atom_site_type_symbol
 _atom_site_label
 _atom_site_symmetry_multiplicity
 _atom_site_fract_x
 _atom_site_fract_y
 _atom_site_fract_z
 _atom_site_occupancy
  Na  Na0  1  0.68335100  0.58058200  0.89959200  1
  Na  Na1  1  0.18335100  0.41941800  0.60040800  1
  Na  Na2  1  0.31664900  0.41941800  0.10040800  1
  Na  Na3  1  0.81664900  0.58058200  0.39959200  1
  Na  Na4  1  0.70866800  0.40716600  0.66707500  1
  Na  Na5  1  0.20866800  0.59283400  0.83292500  1
  Na  Na6  1  0.29133200  0.59283400  0.33292500  1
  Na  Na7  1  0.79133200  0.40716600  0.16707500  1
  H  H0  1  0.00658500  0.13347100  0.90330600  1
  H  H1  1  0.50658500  0.86652900  0.59669400  1
  H  H2  1  0.99341500  0.86652900  0.09669400  1
  H  H3  1  0.49341500  0.13347100  0.40330600  1
  H  H4  1  0.41414700  0.01483300  0.76658600  1
  H  H5  1  0.91414700  0.98516700  0.73341400  1
  H  H6  1  0.58585300  0.98516700  0.23341400  1
  H  H7  1  0.08585300  0.01483300  0.26658600  1
  H  H8  1  0.56382600  0.42471300  0.12599800  1
  H  H9  1  0.06382600  0.57528700  0.37400200  1
  H  H10  1  0.43617400  0.57528700  0.87400200  1
  H  H11  1  0.93617400  0.42471300  0.62599800  1
  H  H12  1  0.59974000  0.21938700  0.08969000  1
  H  H13  1  0.09974000  0.78061300  0.41031000  1
  H  H14  1  0.40026000  0.78061300  0.91031000  1
  H  H15  1  0.90026000  0.21938700  0.58969000  1
  H  H16  1  0.49948900  0.57101200  0.70523900  1
  H  H17  1  0.99948900  0.42898800  0.79476100  1
  H  H18  1  0.50051100  0.42898800  0.29476100  1
  H  H19  1  0.00051100  0.57101200  0.20523900  1
  H  H20  1  0.49343000  0.33643100  0.78971400  1
  H  H21  1  0.99343000  0.66356900  0.71028600  1
  H  H22  1  0.50657000  0.66356900  0.21028600  1
  H  H23  1  0.00657000  0.33643100  0.28971400  1
  H  H24  1  0.83397600  0.22416300  0.88499600  1
  H  H25  1  0.33397600  0.77583700  0.61500400  1
  H  H26  1  0.16602400  0.77583700  0.11500400  1
  H  H27  1  0.66602400  0.22416300  0.38499600  1
  H  H28  1  0.71735600  0.11286300  0.89525400  1
  H  H29  1  0.21735600  0.88713700  0.60474600  1
  H  H30  1  0.28264400  0.88713700  0.10474600  1
  H  H31  1  0.78264400  0.11286300  0.39525400  1
  H  H32  1  0.55480100  0.96586400  0.89818200  1
  H  H33  1  0.05480100  0.03413600  0.60181800  1
  H  H34  1  0.44519900  0.03413600  0.10181800  1
  H  H35  1  0.94519900  0.96586400  0.39818200  1
  H  H36  1  0.60148500  0.90357900  0.02702500  1
  H  H37  1  0.10148500  0.09642100  0.47297500  1
  H  H38  1  0.39851500  0.09642100  0.97297500  1
  H  H39  1  0.89851500  0.90357900  0.52702500  1
  H  H40  1  0.90135100  0.47990900  0.94867400  1
  H  H41  1  0.40135100  0.52009100  0.55132600  1
  H  H42  1  0.09864900  0.52009100  0.05132600  1
  H  H43  1  0.59864900  0.47990900  0.44867400  1
  H  H44  1  0.92269100  0.66354700  0.01016600  1
  H  H45  1  0.42269100  0.33645300  0.48983400  1
  H  H46  1  0.07730900  0.33645300  0.98983400  1
  H  H47  1  0.57730900  0.66354700  0.51016600  1
  H  H48  1  0.81662900  0.79643100  0.69321700  1
  H  H49  1  0.31662900  0.20356900  0.80678300  1
  H  H50  1  0.18337100  0.20356900  0.30678300  1
  H  H51  1  0.68337100  0.79643100  0.19321700  1
  H  H52  1  0.69569900  0.87066900  0.67484700  1
  H  H53  1  0.19569900  0.12933100  0.82515300  1
  H  H54  1  0.30430100  0.12933100  0.32515300  1
  H  H55  1  0.80430100  0.87066900  0.17484700  1
  H  H56  1  0.55197800  0.10329500  0.69980300  1
  H  H57  1  0.05197800  0.89670500  0.80019700  1
  H  H58  1  0.44802200  0.89670500  0.30019700  1
  H  H59  1  0.94802200  0.10329500  0.19980300  1
  H  H60  1  0.57411000  0.15559300  0.55902500  1
  H  H61  1  0.07411000  0.84440700  0.94097500  1
  H  H62  1  0.42589000  0.84440700  0.44097500  1
  H  H63  1  0.92589000  0.15559300  0.05902500  1
  O  O0  1  0.96823600  0.24817800  0.92631800  1
  O  O1  1  0.46823600  0.75182200  0.57368200  1
  O  O2  1  0.03176400  0.75182200  0.07368200  1
  O  O3  1  0.53176400  0.24817800  0.42631800  1
  O  O4  1  0.44861700  0.08261200  0.82237000  1
  O  O5  1  0.94861700  0.91738800  0.67763000  1
  O  O6  1  0.55138300  0.91738800  0.17763000  1
  O  O7  1  0.05138300  0.08261200  0.32237000  1
  O  O8  1  0.62011800  0.36769300  0.08127600  1
  O  O9  1  0.12011800  0.63230700  0.41872400  1
  O  O10  1  0.37988200  0.63230700  0.91872400  1
  O  O11  1  0.87988200  0.36769300  0.58127600  1
  O  O12  1  0.52445000  0.48173300  0.78208300  1
  O  O13  1  0.02445000  0.51826700  0.71791700  1
  O  O14  1  0.47555000  0.51826700  0.21791700  1
  O  O15  1  0.97555000  0.48173300  0.28208300  1
  O  O16  1  0.75758700  0.24318800  0.85856100  1
  O  O17  1  0.25758700  0.75681200  0.64143900  1
  O  O18  1  0.24241300  0.75681200  0.14143900  1
  O  O19  1  0.74241300  0.24318800  0.35856100  1
  O  O20  1  0.62005500  0.90521000  0.94526600  1
  O  O21  1  0.12005500  0.09479000  0.55473400  1
  O  O22  1  0.37994500  0.09479000  0.05473400  1
  O  O23  1  0.87994500  0.90521000  0.44526600  1
  O  O24  1  0.86330100  0.58776600  0.97906500  1
  O  O25  1  0.36330100  0.41223400  0.52093500  1
  O  O26  1  0.13669900  0.41223400  0.02093500  1
  O  O27  1  0.63669900  0.58776600  0.47906500  1
  O  O28  1  0.74125500  0.74493500  0.70478300  1
  O  O29  1  0.24125500  0.25506500  0.79521700  1
  O  O30  1  0.25874500  0.25506500  0.29521700  1
  O  O31  1  0.75874500  0.74493500  0.20478300  1
  O  O32  1  0.60639400  0.09504600  0.63959200  1
  O  O33  1  0.10639400  0.90495400  0.86040800  1
  O  O34  1  0.39360600  0.90495400  0.36040800  1
  O  O35  1  0.89360600  0.09504600  0.13959200  1
loop_
_geom_bond_atom_site_label_1
_geom_bond_atom_site_label_2
_geom_bond_distance
_geom_bond_site_symmetry_2
Na0 O8 2.395241 1_556
Na0 O28 2.405837 1_555
Na0 O24 2.431434 1_555
Na0 O20 2.437011 1_555
Na0 O16 2.537696 1_555
Na0 O12 2.582247 1_555
Na1 O9 2.395241 1_555
Na1 O29 2.405837 1_555
Na1 O25 2.431434 1_555
Na1 O21 2.437011 1_555
Na1 O17 2.537696 1_555
Na1 O13 2.582247 1_555
Na2 O10 2.395241 1_554
Na2 O30 2.405837 1_555
Na2 O26 2.431434 1_555
Na2 O22 2.437011 1_555
Na2 O18 2.537696 1_555
Na2 O14 2.582247 1_555
Na3 O11 2.395241 1_555
Na3 O31 2.405837 1_555
Na3 O27 2.431434 1_555
Na3 O23 2.437011 1_555
Na3 O19 2.537696 1_555
Na3 O15 2.582247 1_555
Na4 O16 2.340530 1_555
Na4 O28 2.384468 1_555
Na4 O11 2.397830 1_555
Na4 O27 2.424124 1_555
Na4 O32 2.487019 1_555
Na4 O12 2.764196 1_555
Na5 O17 2.340530 1_555
Na5 O29 2.384468 1_555
Na5 O10 2.397830 1_555
Na5 O26 2.424124 1_556
Na5 O33 2.487019 1_555
Na5 O13 2.764196 1_555
Na6 O18 2.340530 1_555
Na6 O30 2.384468 1_555
Na6 O9 2.397830 1_555
Na6 O25 2.424124 1_555
Na6 O34 2.487019 1_555
Na6 O14 2.764196 1_555
Na7 O19 2.340530 1_555
Na7 O31 2.384468 1_555
Na7 O8 2.397830 1_555
Na7 O24 2.424124 1_554
Na7 O35 2.487019 1_555
Na7 O15 2.764196 1_555
H0 O0 0.978683 1_455
H1 O1 0.978683 1_555
H2 O2 0.978683 1_655
H3 O3 0.978683 1_555
H4 O4 0.974933 1_555
H5 O5 0.974933 1_555
H6 O6 0.974933 1_555
H7 O7 0.974933 1_555
H8 O8 1.000027 1_555
H9 O9 1.000027 1_555
H10 O10 1.000027 1_555
H11 O11 1.000027 1_555
H12 O8 0.982617 1_555
H13 O9 0.982617 1_555
H14 O10 0.982617 1_555
H15 O11 0.982617 1_555
H16 O12 1.004173 1_555
H17 O13 1.004173 1_655
H18 O14 1.004173 1_555
H19 O15 1.004173 1_455
H20 O12 1.007917 1_555
H21 O13 1.007917 1_655
H22 O14 1.007917 1_555
H23 O15 1.007917 1_455
H24 O16 0.998555 1_555
H25 O17 0.998555 1_555
H26 O18 0.998555 1_555
H27 O19 0.998555 1_555
H28 O16 0.993583 1_555
H29 O17 0.993583 1_555
H30 O18 0.993583 1_555
H31 O19 0.993583 1_555
H32 O20 1.010016 1_555
H33 O21 1.010016 1_555
H34 O22 1.010016 1_555
H35 O23 1.010016 1_555
H36 O20 0.989661 1_554
H37 O21 0.989661 1_555
H38 O22 0.989661 1_556
H39 O23 0.989661 1_555
H40 O24 0.983595 1_555
H41 O25 0.983595 1_555
H42 O26 0.983595 1_555
H43 O27 0.983595 1_555
H44 O24 1.005371 1_554
H45 O25 1.005371 1_555
H46 O26 1.005371 1_556
H47 O27 1.005371 1_555
H48 O28 0.994367 1_555
H49 O29 0.994367 1_555
H50 O30 0.994367 1_555
H51 O31 0.994367 1_555
H52 O28 0.991050 1_555
H53 O29 0.991050 1_555
H54 O30 0.991050 1_555
H55 O31 0.991050 1_555
H56 O32 0.991912 1_555
H57 O33 0.991912 1_555
H58 O34 0.991912 1_555
H59 O35 0.991912 1_555
H60 O32 1.021588 1_555
H60 O3 1.627113 1_555
H61 O33 1.021588 1_555
H61 O2 1.627113 1_556
H62 O34 1.021588 1_555
H62 O1 1.627113 1_555
H63 O35 1.021588 1_555
H63 O0 1.627113 1_554
