# generated using pymatgen
data_Cs5Nb2S4Br9
_symmetry_space_group_name_H-M   'P 1'
_cell_length_a   10.88893862
_cell_length_b   10.88893862
_cell_length_c   10.88893862
_cell_angle_alpha   138.49124867
_cell_angle_beta   117.88147512
_cell_angle_gamma   77.49654095
_symmetry_Int_Tables_number   1
_chemical_formula_structural   Cs5Nb2S4Br9
_chemical_formula_sum   'Cs5 Nb2 S4 Br9'
_cell_volume   736.36171208
_cell_formula_units_Z   1
loop_
 _symmetry_equiv_pos_site_id
 _symmetry_equiv_pos_as_xyz
  1  'x, y, z'
loop_
 _atom_site_type_symbol
 _atom_site_label
 _atom_site_symmetry_multiplicity
 _atom_site_fract_x
 _atom_site_fract_y
 _atom_site_fract_z
 _atom_site_occupancy
  Cs  Cs0  1  0.43743100  0.66092900  0.77650200  1
  Cs  Cs1  1  0.88442700  0.66092900  0.22349800  1
  Cs  Cs2  1  0.50000000  0.00000000  0.50000000  1
  Cs  Cs3  1  0.56256900  0.33907100  0.22349800  1
  Cs  Cs4  1  0.11557300  0.33907100  0.77650200  1
  Nb  Nb0  1  0.08658300  0.08658300  0.00000000  1
  Nb  Nb1  1  0.91341700  0.91341700  0.00000000  1
  S  S0  1  0.08981500  0.77032200  0.86013700  1
  S  S1  1  0.91018500  0.77032200  0.68050700  1
  S  S2  1  0.91018500  0.22967800  0.13986300  1
  S  S3  1  0.08981500  0.22967800  0.31949300  1
  Br  Br0  1  0.20408600  0.44427600  0.24019100  1
  Br  Br1  1  0.11723500  0.87295400  0.24428100  1
  Br  Br2  1  0.37132800  0.12704600  0.24428100  1
  Br  Br3  1  0.20408600  0.96389500  0.75980900  1
  Br  Br4  1  0.79591400  0.03610500  0.24019100  1
  Br  Br5  1  0.62867200  0.87295400  0.75571900  1
  Br  Br6  1  0.79591400  0.55572400  0.75980900  1
  Br  Br7  1  0.50000000  0.50000000  0.00000000  1
  Br  Br8  1  0.88276500  0.12704600  0.75571900  1
loop_
_geom_bond_atom_site_label_1
_geom_bond_atom_site_label_2
_geom_bond_distance
_geom_bond_site_symmetry_2
Cs0 S3 4.027758 1_555
Cs0 S0 4.027758 1_555
Cs1 S2 4.027758 1_555
Cs1 S1 4.027758 1_555
Cs3 S2 4.027758 1_555
Cs3 S1 4.027758 1_555
Cs4 S3 4.027758 1_555
Cs4 S0 4.027758 1_555
Nb0 S3 2.514492 1_555
Nb0 S0 2.514492 1_544
Nb0 S1 2.514492 1_444
Nb0 S2 2.514492 1_455
Nb1 S1 2.514492 1_554
Nb1 S0 2.514492 1_654
Nb1 S3 2.514492 1_665
Nb1 S2 2.514492 1_565
S0 S1 2.018276 1_455
S2 S3 2.018276 1_655
Br0 Nb0 2.723757 1_555
Br0 Cs0 3.769477 1_555
Br0 Cs1 3.769486 1_455
Br0 Cs3 3.872749 1_555
Br0 Cs4 3.872756 1_554
Br1 Nb1 2.829411 1_455
Br1 Cs2 3.593252 1_565
Br1 Cs1 3.608731 1_455
Br1 Cs4 3.918072 1_565
Br1 Cs4 3.918072 1_554
Br2 Nb0 2.829418 1_555
Br2 Cs2 3.593253 1_555
Br2 Cs3 3.608723 1_555
Br2 Cs0 3.918066 1_544
Br2 Cs0 3.918074 1_555
Br3 Nb0 2.723765 1_566
Br3 Cs0 3.769481 1_555
Br3 Cs1 3.769481 1_455
Br3 Cs3 3.872749 1_566
Br3 Cs4 3.872749 1_565
Br4 Nb1 2.723765 1_545
Br4 Cs4 3.769481 1_655
Br4 Cs3 3.769481 1_555
Br4 Cs1 3.872749 1_545
Br4 Cs0 3.872749 1_544
Br5 Nb1 2.829418 1_556
Br5 Cs2 3.593253 1_565
Br5 Cs0 3.608723 1_555
Br5 Cs3 3.918066 1_566
Br5 Cs3 3.918074 1_555
Br6 Nb1 2.723757 1_556
Br6 Cs3 3.769477 1_555
Br6 Cs4 3.769486 1_655
Br6 Cs0 3.872749 1_555
Br6 Cs1 3.872756 1_556
Br7 Cs4 3.711737 1_554
Br7 Cs1 3.711737 1_555
Br7 Cs3 3.711737 1_555
Br7 Cs0 3.711737 1_554
Br7 Cs2 3.858631 1_554
Br7 Cs2 3.858631 1_565
Br8 Nb0 2.829411 1_656
Br8 Cs2 3.593252 1_555
Br8 Cs4 3.608731 1_655
Br8 Cs1 3.918072 1_545
Br8 Cs1 3.918072 1_556
