# generated using pymatgen
data_Cs2K4Fe2O5
_symmetry_space_group_name_H-M   'P 1'
_cell_length_a   6.62133878
_cell_length_b   6.96289998
_cell_length_c   6.62133868
_cell_angle_alpha   90.57315231
_cell_angle_beta   115.54948381
_cell_angle_gamma   90.57313444
_symmetry_Int_Tables_number   1
_chemical_formula_structural   Cs2K4Fe2O5
_chemical_formula_sum   'Cs2 K4 Fe2 O5'
_cell_volume   275.36864550
_cell_formula_units_Z   1
loop_
 _symmetry_equiv_pos_site_id
 _symmetry_equiv_pos_as_xyz
  1  'x, y, z'
loop_
 _atom_site_type_symbol
 _atom_site_label
 _atom_site_symmetry_multiplicity
 _atom_site_fract_x
 _atom_site_fract_y
 _atom_site_fract_z
 _atom_site_occupancy
  Cs  Cs0  1  0.67152367  0.80097034  0.67152367  1
  Cs  Cs1  1  0.32848244  0.19902629  0.32848244  1
  K  K0  1  0.23957831  0.49999762  0.76041656  1
  K  K1  1  0.76041756  0.49999662  0.23957831  1
  K  K2  1  0.78145590  0.00000175  0.21853788  1
  K  K3  1  0.21853788  0.00000175  0.78145590  1
  Fe  Fe0  1  0.19761764  0.69268088  0.19761964  1
  Fe  Fe1  1  0.80238495  0.30731762  0.80238495  1
  O  O0  1  0.00000749  0.49999145  0.00000749  1
  O  O1  1  0.14152519  0.76995221  0.43502164  1
  O  O2  1  0.56497527  0.23005513  0.85847205  1
  O  O3  1  0.85847205  0.23005513  0.56497527  1
  O  O4  1  0.43502164  0.76995321  0.14152519  1
loop_
_geom_bond_atom_site_label_1
_geom_bond_atom_site_label_2
_geom_bond_distance
_geom_bond_site_symmetry_2
Cs0 O0 3.155154 1_656
Cs0 O4 3.170470 1_555
Cs0 O1 3.170471 1_555
Cs0 O2 3.417258 1_565
Cs0 O3 3.417259 1_565
Cs1 O0 3.155042 1_555
Cs1 O2 3.170421 1_555
Cs1 O3 3.170421 1_555
Cs1 O4 3.417190 1_545
Cs1 O1 3.417197 1_545
K0 O0 2.683965 1_556
K0 O2 2.737756 1_555
K0 O1 2.737807 1_555
K0 O3 2.935109 1_455
K0 O4 2.935177 1_556
K1 O0 2.683959 1_655
K1 O3 2.737752 1_555
K1 O4 2.737821 1_555
K1 O2 2.935104 1_554
K1 O1 2.935173 1_655
K2 O4 2.643630 1_545
K2 O3 2.643662 1_555
K2 O2 2.734793 1_554
K2 O1 2.734795 1_645
K3 O1 2.643634 1_545
K3 O2 2.643662 1_555
K3 O4 2.734791 1_546
K3 O3 2.734793 1_455
Fe0 O1 1.840930 1_555
Fe0 O4 1.840952 1_555
Fe0 O0 1.917594 1_555
Fe1 O3 1.840940 1_555
Fe1 O2 1.840940 1_555
Fe1 O0 1.917577 1_656
