# generated using pymatgen
data_BaZnAs2O7
_symmetry_space_group_name_H-M   'P 1'
_cell_length_a   8.69105600
_cell_length_b   5.74581800
_cell_length_c   14.74737330
_cell_angle_alpha   67.22497685
_cell_angle_beta   90.00000000
_cell_angle_gamma   90.00000000
_symmetry_Int_Tables_number   1
_chemical_formula_structural   BaZnAs2O7
_chemical_formula_sum   'Ba4 Zn4 As8 O28'
_cell_volume   679.02392745
_cell_formula_units_Z   4
loop_
 _symmetry_equiv_pos_site_id
 _symmetry_equiv_pos_as_xyz
  1  'x, y, z'
loop_
 _atom_site_type_symbol
 _atom_site_label
 _atom_site_symmetry_multiplicity
 _atom_site_fract_x
 _atom_site_fract_y
 _atom_site_fract_z
 _atom_site_occupancy
  Ba  Ba0  1  0.34589300  0.50022200  0.28506200  1
  Ba  Ba1  1  0.84589300  0.49977800  0.21493800  1
  Ba  Ba2  1  0.65410700  0.49977800  0.71493800  1
  Ba  Ba3  1  0.15410700  0.50022200  0.78506200  1
  Zn  Zn0  1  0.85079600  0.78097500  0.88783300  1
  Zn  Zn1  1  0.35079600  0.21902500  0.61216700  1
  Zn  Zn2  1  0.64920400  0.78097500  0.38783300  1
  Zn  Zn3  1  0.14920400  0.21902500  0.11216700  1
  As  As0  1  0.96669600  0.09336100  0.65787800  1
  As  As1  1  0.31470400  0.84092100  0.48656400  1
  As  As2  1  0.46669600  0.90663900  0.84212200  1
  As  As3  1  0.53330400  0.09336100  0.15787800  1
  As  As4  1  0.81470400  0.15907900  0.01343600  1
  As  As5  1  0.18529600  0.84092100  0.98656400  1
  As  As6  1  0.03330400  0.90663900  0.34212200  1
  As  As7  1  0.68529600  0.15907900  0.51343600  1
  O  O0  1  0.61263300  0.17472000  0.03721200  1
  O  O1  1  0.37945700  0.17835500  0.76363300  1
  O  O2  1  0.11263300  0.82528000  0.46278800  1
  O  O3  1  0.16436500  0.59082500  0.09685900  1
  O  O4  1  0.43971900  0.66033500  0.80845100  1
  O  O5  1  0.15143800  0.13668000  0.98435700  1
  O  O6  1  0.59062200  0.19605400  0.60928700  1
  O  O7  1  0.87945700  0.82164500  0.73636700  1
  O  O8  1  0.66436500  0.40917500  0.40314100  1
  O  O9  1  0.65143800  0.86332000  0.51564300  1
  O  O10  1  0.40937800  0.80394600  0.39071300  1
  O  O11  1  0.56028100  0.33966500  0.19154900  1
  O  O12  1  0.83563500  0.40917500  0.90314100  1
  O  O13  1  0.88736700  0.17472000  0.53721200  1
  O  O14  1  0.38736700  0.82528000  0.96278800  1
  O  O15  1  0.65416500  0.98336500  0.85111400  1
  O  O16  1  0.84583500  0.98336500  0.35111400  1
  O  O17  1  0.62054300  0.82164500  0.23636700  1
  O  O18  1  0.15416500  0.01663500  0.64888600  1
  O  O19  1  0.06028100  0.66033500  0.30845100  1
  O  O20  1  0.34583500  0.01663500  0.14888600  1
  O  O21  1  0.93971900  0.33966500  0.69154900  1
  O  O22  1  0.90937800  0.19605400  0.10928700  1
  O  O23  1  0.09062200  0.80394600  0.89071300  1
  O  O24  1  0.34856200  0.13668000  0.48435700  1
  O  O25  1  0.12054300  0.17835500  0.26363300  1
  O  O26  1  0.33563500  0.59082500  0.59685900  1
  O  O27  1  0.84856200  0.86332000  0.01564300  1
loop_
_geom_bond_atom_site_label_1
_geom_bond_atom_site_label_2
_geom_bond_distance
_geom_bond_site_symmetry_2
Ba0 O11 2.685076 1_555
Ba0 O19 2.715269 1_555
Ba0 O25 2.794359 1_555
Ba0 O10 2.807619 1_555
Ba0 O20 2.867728 1_565
Ba0 O24 2.872072 1_555
Ba0 O17 2.932141 1_555
Ba0 O3 3.056923 1_555
Ba0 O8 3.203394 1_555
Ba1 O19 2.685076 1_655
Ba1 O11 2.715269 1_555
Ba1 O17 2.794359 1_555
Ba1 O22 2.807619 1_555
Ba1 O16 2.867728 1_545
Ba1 O27 2.872072 1_555
Ba1 O25 2.932141 1_655
Ba1 O8 3.056923 1_555
Ba1 O3 3.203394 1_655
Ba2 O4 2.685076 1_555
Ba2 O21 2.715269 1_555
Ba2 O7 2.794359 1_555
Ba2 O6 2.807619 1_555
Ba2 O15 2.867728 1_545
Ba2 O9 2.872072 1_555
Ba2 O1 2.932141 1_555
Ba2 O12 3.056923 1_555
Ba2 O26 3.203394 1_555
Ba3 O21 2.685076 1_455
Ba3 O4 2.715269 1_555
Ba3 O1 2.794359 1_555
Ba3 O23 2.807619 1_555
Ba3 O18 2.867728 1_565
Ba3 O5 2.872072 1_555
Ba3 O7 2.932141 1_455
Ba3 O26 3.056923 1_555
Ba3 O12 3.203394 1_455
As0 O21 1.687739 1_555
As0 O18 1.706408 1_655
As0 O7 1.718428 1_545
As0 O13 1.793450 1_555
As1 O24 1.712516 1_565
As1 O26 1.712927 1_555
As1 O10 1.718371 1_555
As1 O2 1.799915 1_555
As2 O4 1.687739 1_555
As2 O15 1.706408 1_555
As2 O1 1.718428 1_565
As2 O14 1.793450 1_555
As3 O11 1.687739 1_555
As3 O20 1.706408 1_555
As3 O17 1.718428 1_545
As3 O0 1.793450 1_555
As4 O27 1.712516 1_545
As4 O12 1.712927 1_554
As4 O22 1.718371 1_555
As4 O0 1.799915 1_555
As5 O5 1.712516 1_565
As5 O3 1.712927 1_556
As5 O23 1.718371 1_555
As5 O14 1.799915 1_555
As6 O19 1.687739 1_555
As6 O16 1.706408 1_455
As6 O25 1.718428 1_565
As6 O2 1.793450 1_555
As7 O9 1.712516 1_545
As7 O8 1.712927 1_555
As7 O6 1.718371 1_555
As7 O13 1.799915 1_555
O1 Zn1 2.168422 1_555
O3 Zn3 2.063660 1_555
O5 Zn3 2.113622 1_556
O6 Zn1 2.089986 1_555
O7 Zn0 2.168422 1_555
O8 Zn2 2.063660 1_555
O9 Zn2 2.113622 1_555
O10 Zn2 2.089986 1_555
O12 Zn0 2.063660 1_555
O15 Zn0 2.019520 1_555
O16 Zn2 2.019520 1_555
O17 Zn2 2.168422 1_555
O18 Zn1 2.019520 1_555
O20 Zn3 2.019520 1_555
O22 Zn3 2.089986 1_655
O23 Zn0 2.089986 1_455
O24 Zn1 2.113622 1_555
O25 Zn3 2.168422 1_555
O26 Zn1 2.063660 1_555
O27 Zn0 2.113622 1_554
