# generated using pymatgen
data_LiZnPO4
_symmetry_space_group_name_H-M   'P 1'
_cell_length_a   5.03622100
_cell_length_b   6.77431900
_cell_length_c   10.17240200
_cell_angle_alpha   90.00000000
_cell_angle_beta   90.00000000
_cell_angle_gamma   90.00000000
_symmetry_Int_Tables_number   1
_chemical_formula_structural   LiZnPO4
_chemical_formula_sum   'Li4 Zn4 P4 O16'
_cell_volume   347.05150953
_cell_formula_units_Z   4
loop_
 _symmetry_equiv_pos_site_id
 _symmetry_equiv_pos_as_xyz
  1  'x, y, z'
loop_
 _atom_site_type_symbol
 _atom_site_label
 _atom_site_symmetry_multiplicity
 _atom_site_fract_x
 _atom_site_fract_y
 _atom_site_fract_z
 _atom_site_occupancy
  Li  Li0  1  0.18618200  0.71372200  0.65346700  1
  Li  Li1  1  0.68618200  0.21372200  0.84653300  1
  Li  Li2  1  0.81381800  0.21372200  0.34653300  1
  Li  Li3  1  0.31381800  0.71372200  0.15346700  1
  Zn  Zn0  1  0.81388800  0.71304400  0.34539800  1
  Zn  Zn1  1  0.18611200  0.21304400  0.65460200  1
  Zn  Zn2  1  0.68611200  0.71304400  0.84539800  1
  Zn  Zn3  1  0.31388800  0.21304400  0.15460200  1
  P  P0  1  0.81567200  0.46300500  0.09449500  1
  P  P1  1  0.31567200  0.96300500  0.40550500  1
  P  P2  1  0.18432800  0.96300500  0.90550500  1
  P  P3  1  0.68432800  0.46300500  0.59449500  1
  O  O0  1  0.19992400  0.77297700  0.34106600  1
  O  O1  1  0.29984400  0.15102900  0.83876200  1
  O  O2  1  0.69992400  0.27297700  0.15893400  1
  O  O3  1  0.79984400  0.65102900  0.66123800  1
  O  O4  1  0.75697000  0.46619800  0.44610900  1
  O  O5  1  0.12206100  0.46102500  0.11538900  1
  O  O6  1  0.20015600  0.15102900  0.33876200  1
  O  O7  1  0.80007600  0.27297700  0.65893400  1
  O  O8  1  0.37793900  0.46102500  0.61538900  1
  O  O9  1  0.87793900  0.96102500  0.88461100  1
  O  O10  1  0.25697000  0.96619800  0.05389100  1
  O  O11  1  0.70015600  0.65102900  0.16123800  1
  O  O12  1  0.74303000  0.46619800  0.94610900  1
  O  O13  1  0.62206100  0.96102500  0.38461100  1
  O  O14  1  0.24303000  0.96619800  0.55389100  1
  O  O15  1  0.30007600  0.77297700  0.84106600  1
loop_
_geom_bond_atom_site_label_1
_geom_bond_atom_site_label_2
_geom_bond_distance
_geom_bond_site_symmetry_2
Li0 O3 1.993064 1_455
Li0 O8 2.003273 1_555
Li0 O14 2.008307 1_555
Li0 O15 2.032702 1_555
Li1 O1 1.993064 1_555
Li1 O9 2.003273 1_545
Li1 O12 2.008307 1_555
Li1 O7 2.032702 1_555
Li2 O6 1.993064 1_655
Li2 O13 2.003273 1_545
Li2 O4 2.008307 1_555
Li2 O2 2.032702 1_555
Li3 O11 1.993064 1_555
Li3 O5 2.003273 1_555
Li3 O10 2.008307 1_555
Li3 O0 2.032702 1_555
O0 P1 1.557773 1_555
O0 Zn0 1.986593 1_455
O1 P2 1.556215 1_545
O1 Zn1 2.003499 1_555
O2 P0 1.557773 1_555
O2 Zn3 1.986593 1_555
O3 P3 1.556215 1_555
O3 Zn2 2.003499 1_555
O4 P3 1.553294 1_555
O4 Zn0 1.981921 1_555
O5 P0 1.557670 1_455
O5 Zn3 1.978510 1_555
O6 P1 1.556215 1_545
O6 Zn3 2.003499 1_555
O7 P3 1.557773 1_555
O7 Zn1 1.986593 1_655
O8 P3 1.557670 1_555
O8 Zn1 1.978510 1_555
O9 P2 1.557670 1_655
O9 Zn2 1.978510 1_555
O10 P2 1.553294 1_554
O10 Zn3 1.981921 1_565
O11 P0 1.556215 1_555
O11 Zn0 2.003499 1_555
O12 P0 1.553294 1_556
O12 Zn2 1.981921 1_555
O13 P1 1.557670 1_555
O13 Zn0 1.978510 1_555
O14 P1 1.553294 1_555
O14 Zn1 1.981921 1_565
O15 P2 1.557773 1_555
O15 Zn2 1.986593 1_555
