# generated using pymatgen
data_Ba2MnO3
_symmetry_space_group_name_H-M   'P 1'
_cell_length_a   5.95903300
_cell_length_b   6.55346189
_cell_length_c   12.81771537
_cell_angle_alpha   88.51922424
_cell_angle_beta   86.74163206
_cell_angle_gamma   62.95773478
_symmetry_Int_Tables_number   1
_chemical_formula_structural   Ba2MnO3
_chemical_formula_sum   'Ba8 Mn4 O12'
_cell_volume   445.11480173
_cell_formula_units_Z   4
loop_
 _symmetry_equiv_pos_site_id
 _symmetry_equiv_pos_as_xyz
  1  'x, y, z'
loop_
 _atom_site_type_symbol
 _atom_site_label
 _atom_site_symmetry_multiplicity
 _atom_site_fract_x
 _atom_site_fract_y
 _atom_site_fract_z
 _atom_site_occupancy
  Ba  Ba0  1  0.21262900  0.58532800  0.25042800  1
  Ba  Ba1  1  0.79795700  0.41467200  0.75042800  1
  Ba  Ba2  1  0.67594900  0.59418500  0.05235600  1
  Ba  Ba3  1  0.27013400  0.40581500  0.55235600  1
  Ba  Ba4  1  0.58263100  0.78607700  0.47674000  1
  Ba  Ba5  1  0.36870800  0.21392300  0.97674000  1
  Ba  Ba6  1  0.89845700  0.20403200  0.32700800  1
  Ba  Ba7  1  0.10248900  0.79596800  0.82700800  1
  Mn  Mn0  1  0.96422800  0.99603800  0.06645000  1
  Mn  Mn1  1  0.96026700  0.00396200  0.56645000  1
  Mn  Mn2  1  0.52106400  0.98879700  0.23855100  1
  Mn  Mn3  1  0.50986100  0.01120300  0.73855100  1
  O  O0  1  0.36982000  0.19273100  0.36617800  1
  O  O1  1  0.56255000  0.80726900  0.86617800  1
  O  O2  1  0.09222200  0.65927600  0.03378000  1
  O  O3  1  0.75149700  0.34072400  0.53378000  1
  O  O4  1  0.83538800  0.79876400  0.65166600  1
  O  O5  1  0.63415200  0.20123600  0.15166600  1
  O  O6  1  0.11666400  0.79787700  0.43913400  1
  O  O7  1  0.91454100  0.20212300  0.93913400  1
  O  O8  1  0.24392800  0.98453900  0.15425300  1
  O  O9  1  0.22846700  0.01546100  0.65425300  1
  O  O10  1  0.38245900  0.34847800  0.76975400  1
  O  O11  1  0.73093700  0.65152200  0.26975400  1
loop_
_geom_bond_atom_site_label_1
_geom_bond_atom_site_label_2
_geom_bond_distance
_geom_bond_site_symmetry_2
Ba0 O11 2.698394 1_455
Ba0 O6 2.722198 1_555
Ba0 O0 2.732685 1_555
Ba0 O2 2.881284 1_555
Ba0 O5 2.881313 1_555
Ba0 O8 2.941070 1_555
Ba0 O11 3.331655 1_555
Ba1 O10 2.698394 1_555
Ba1 O7 2.722198 1_555
Ba1 O1 2.732685 1_555
Ba1 O3 2.881285 1_555
Ba1 O4 2.881312 1_555
Ba1 O9 2.941070 1_655
Ba1 O10 3.331655 1_655
Ba2 O1 2.693419 1_554
Ba2 O2 2.698468 1_655
Ba2 O7 2.713972 1_554
Ba2 O11 2.878067 1_555
Ba2 O8 2.946144 1_555
Ba2 O5 2.948165 1_555
Ba2 O2 3.328354 1_555
Ba3 O0 2.693418 1_555
Ba3 O3 2.698463 1_555
Ba3 O6 2.713972 1_555
Ba3 O10 2.878067 1_555
Ba3 O9 2.946144 1_555
Ba3 O4 2.948165 1_455
Ba3 O3 3.328360 1_455
Ba4 O3 2.714443 1_555
Ba4 O0 2.766721 1_565
Ba4 O11 2.782668 1_555
Ba4 O4 2.794667 1_555
Ba4 O6 2.811305 1_555
Ba4 O9 2.938879 1_565
Ba4 O6 3.226911 1_655
Ba5 O2 2.714442 1_556
Ba5 O1 2.766722 1_545
Ba5 O10 2.782668 1_555
Ba5 O5 2.794667 1_556
Ba5 O7 2.811305 1_455
Ba5 O8 2.938879 1_546
Ba5 O7 3.226911 1_555
Ba6 O11 2.728618 1_555
Ba6 O6 2.776456 1_645
Ba6 O3 2.781949 1_555
Ba6 O5 2.821864 1_555
Ba6 O0 2.848953 1_655
Ba6 O8 2.857309 1_645
Ba6 O0 3.195548 1_555
Ba7 O10 2.728619 1_555
Ba7 O7 2.776456 1_465
Ba7 O2 2.781948 1_556
Ba7 O4 2.821864 1_455
Ba7 O1 2.848947 1_555
Ba7 O9 2.857309 1_565
Ba7 O1 3.195554 1_455
Mn0 O2 2.026969 1_655
Mn0 O8 2.035915 1_655
Mn0 O7 2.037697 1_564
Mn0 O5 2.072877 1_565
Mn1 O3 2.026971 1_555
Mn1 O9 2.035910 1_655
Mn1 O6 2.037696 1_645
Mn1 O4 2.072881 1_545
Mn2 O11 2.026614 1_555
Mn2 O0 2.030935 1_565
Mn2 O8 2.035169 1_555
Mn2 O5 2.078533 1_565
Mn3 O10 2.026614 1_555
Mn3 O1 2.030936 1_545
Mn3 O9 2.035169 1_555
Mn3 O4 2.078533 1_545
