# generated using pymatgen
data_Ce14Y18O55
_symmetry_space_group_name_H-M   'P 1'
_cell_length_a   9.40042100
_cell_length_b   9.40839625
_cell_length_c   15.33166650
_cell_angle_alpha   90.01719844
_cell_angle_beta   90.24990357
_cell_angle_gamma   109.52500889
_symmetry_Int_Tables_number   1
_chemical_formula_structural   Ce14Y18O55
_chemical_formula_sum   'Ce14 Y18 O55'
_cell_volume   1277.98794887
_cell_formula_units_Z   1
loop_
 _symmetry_equiv_pos_site_id
 _symmetry_equiv_pos_as_xyz
  1  'x, y, z'
loop_
 _atom_site_type_symbol
 _atom_site_label
 _atom_site_symmetry_multiplicity
 _atom_site_fract_x
 _atom_site_fract_y
 _atom_site_fract_z
 _atom_site_occupancy
  Ce  Ce0  1  0.87369200  0.15259600  0.12964200  1
  Ce  Ce1  1  0.38463600  0.62621700  0.87081800  1
  Ce  Ce2  1  0.11439000  0.87190500  0.63539000  1
  Ce  Ce3  1  0.02003200  0.49487100  0.75600100  1
  Ce  Ce4  1  0.89299300  0.13445000  0.61379300  1
  Ce  Ce5  1  0.74818500  0.74550700  0.49989600  1
  Ce  Ce6  1  0.01914700  0.51302300  0.50756600  1
  Ce  Ce7  1  0.11803400  0.87406100  0.87660600  1
  Ce  Ce8  1  0.63058600  0.35650200  0.61363000  1
  Ce  Ce9  1  0.25564400  0.25550500  0.00190000  1
  Ce  Ce10  1  0.40124100  0.63667400  0.11855200  1
  Ce  Ce11  1  0.50870900  0.00743300  0.99994800  1
  Ce  Ce12  1  0.58941400  0.36053800  0.37288900  1
  Ce  Ce13  1  0.13684200  0.86359200  0.11721400  1
  Y  Y0  1  0.74455700  0.74519400  0.75255000  1
  Y  Y1  1  0.88296600  0.13719900  0.88859200  1
  Y  Y2  1  0.38192000  0.65924800  0.62770900  1
  Y  Y3  1  0.52515900  0.00399400  0.49627900  1
  Y  Y4  1  0.23581700  0.24351100  0.25162200  1
  Y  Y5  1  0.37891800  0.64124000  0.38876400  1
  Y  Y6  1  0.60443400  0.35084900  0.87259000  1
  Y  Y7  1  0.47816900  0.00503400  0.74799200  1
  Y  Y8  1  0.74600100  0.76038400  0.98554700  1
  Y  Y9  1  0.02303700  0.50382700  0.00040000  1
  Y  Y10  1  0.23581400  0.24016100  0.76034900  1
  Y  Y11  1  0.10758400  0.84700700  0.37123700  1
  Y  Y12  1  0.98423200  0.51264000  0.23713900  1
  Y  Y13  1  0.23308700  0.26217600  0.48164400  1
  Y  Y14  1  0.88276000  0.09727100  0.36873000  1
  Y  Y15  1  0.73188700  0.72730900  0.26017600  1
  Y  Y16  1  0.60748200  0.36303200  0.13924500  1
  Y  Y17  1  0.52567200  0.99595700  0.25567100  1
  O  O0  1  0.86320200  0.39755100  0.87621300  1
  O  O1  1  0.51986000  0.78069700  0.74747200  1
  O  O2  1  0.62848800  0.11179700  0.86895600  1
  O  O3  1  0.63971800  0.60248300  0.87272600  1
  O  O4  1  0.62225800  0.58520300  0.63237800  1
  O  O5  1  0.50028900  0.26988200  0.73669900  1
  O  O6  1  0.35782000  0.90032100  0.61277100  1
  O  O7  1  0.46891900  0.24006900  0.50371300  1
  O  O8  1  0.36405000  0.89315100  0.37811700  1
  O  O9  1  0.25599900  0.99887400  0.00143900  1
  O  O10  1  0.00207300  0.28054600  0.25521400  1
  O  O11  1  0.10874200  0.59620500  0.36970300  1
  O  O12  1  0.23255100  0.99493600  0.75409200  1
  O  O13  1  0.50626400  0.76224700  0.99336600  1
  O  O14  1  0.36668100  0.36661300  0.87762800  1
  O  O15  1  0.14238100  0.13546700  0.60958600  1
  O  O16  1  0.01914500  0.76571400  0.50528100  1
  O  O17  1  0.13552600  0.09594700  0.37142700  1
  O  O18  1  0.10917000  0.08935900  0.13798900  1
  O  O19  1  0.26422000  0.49351100  0.74254800  1
  O  O20  1  0.26155600  0.50185900  0.51543100  1
  O  O21  1  0.00197100  0.76946000  0.23613600  1
  O  O22  1  0.36570700  0.87650800  0.87511500  1
  O  O23  1  0.12540600  0.12134900  0.88449500  1
  O  O24  1  0.85933600  0.39753800  0.11182700  1
  O  O25  1  0.98317500  0.74428800  0.00453100  1
  O  O26  1  0.01425600  0.26172800  0.00700500  1
  O  O27  1  0.13933900  0.62353900  0.87369700  1
  O  O28  1  0.13010500  0.63418200  0.63260200  1
  O  O29  1  0.76309400  0.47581500  0.48825100  1
  O  O30  1  0.98521000  0.22982600  0.75136700  1
  O  O31  1  0.74142200  0.47961600  0.26498700  1
  O  O32  1  0.86071400  0.89309200  0.86274800  1
  O  O33  1  0.86866400  0.88890900  0.63872700  1
  O  O34  1  0.86426300  0.84953200  0.37815000  1
  O  O35  1  0.99063800  0.26920200  0.48401900  1
  O  O36  1  0.65252300  0.63170100  0.11532300  1
  O  O37  1  0.51385500  0.26412500  0.00370900  1
  O  O38  1  0.76851100  0.99774800  0.49807500  1
  O  O39  1  0.76517500  0.98270200  0.24011200  1
  O  O40  1  0.87756900  0.38975600  0.63395400  1
  O  O41  1  0.97820800  0.72002000  0.75524200  1
  O  O42  1  0.76688600  0.00161200  0.01495900  1
  O  O43  1  0.61419000  0.61418200  0.38600600  1
  O  O44  1  0.64778900  0.11874000  0.62985000  1
  O  O45  1  0.51427200  0.76185800  0.50655000  1
  O  O46  1  0.65670400  0.14819400  0.37452400  1
  O  O47  1  0.63105200  0.12998900  0.13016300  1
  O  O48  1  0.48378600  0.72507000  0.25240400  1
  O  O49  1  0.35053800  0.39263900  0.36122300  1
  O  O50  1  0.36167600  0.38844500  0.13785300  1
  O  O51  1  0.27035200  0.50862500  0.99713500  1
  O  O52  1  0.37844500  0.88813800  0.13229200  1
  O  O53  1  0.46514600  0.21469300  0.25465600  1
  O  O54  1  0.14907000  0.61884300  0.13048300  1
loop_
_geom_bond_atom_site_label_1
_geom_bond_atom_site_label_2
_geom_bond_distance
_geom_bond_site_symmetry_2
Ce0 O47 2.218956 1_555
Ce0 O42 2.268753 1_555
Ce0 O39 2.321840 1_545
Ce0 O26 2.334832 1_655
Ce0 O24 2.368866 1_555
Ce0 O10 2.370515 1_655
Ce0 O18 2.479566 1_655
Ce1 O27 2.298214 1_555
Ce1 O51 2.313814 1_555
Ce1 O13 2.340308 1_555
Ce1 O14 2.393686 1_555
Ce1 O19 2.396268 1_555
Ce1 O22 2.421024 1_555
Ce1 O1 2.468234 1_555
Ce1 O3 2.481500 1_555
Ce2 O12 2.237713 1_555
Ce2 O6 2.241940 1_555
Ce2 O16 2.272506 1_555
Ce2 O28 2.290600 1_555
Ce2 O33 2.368970 1_455
Ce2 O41 2.420055 1_455
Ce2 O15 2.437211 1_565
Ce3 O27 2.247874 1_555
Ce3 O41 2.280031 1_455
Ce3 O19 2.309903 1_555
Ce3 O40 2.316160 1_455
Ce3 O28 2.340927 1_555
Ce3 O0 2.351824 1_455
Ce3 O30 2.405108 1_455
Ce4 O38 2.268395 1_545
Ce4 O44 2.274381 1_555
Ce4 O33 2.276698 1_545
Ce4 O30 2.338488 1_555
Ce4 O15 2.342342 1_655
Ce4 O35 2.376584 1_555
Ce4 O40 2.473663 1_555
Ce5 O34 2.222079 1_555
Ce5 O45 2.257700 1_555
Ce5 O43 2.258624 1_555
Ce5 O38 2.316521 1_555
Ce5 O16 2.491052 1_655
Ce5 O33 2.566981 1_555
Ce5 O4 2.575082 1_555
Ce5 O29 2.593726 1_555
Ce6 O35 2.247698 1_455
Ce6 O28 2.291019 1_555
Ce6 O11 2.316325 1_555
Ce6 O20 2.318590 1_555
Ce6 O29 2.331181 1_455
Ce6 O16 2.377692 1_555
Ce6 O40 2.421411 1_455
Ce7 O12 2.276170 1_555
Ce7 O23 2.307468 1_565
Ce7 O22 2.320850 1_555
Ce7 O9 2.383899 1_556
Ce7 O27 2.431697 1_555
Ce7 O25 2.435791 1_456
Ce7 O41 2.448278 1_455
Ce7 O32 2.492670 1_455
Ce8 O4 2.197960 1_555
Ce8 O5 2.253546 1_555
Ce8 O40 2.256891 1_555
Ce8 O7 2.283262 1_555
Ce8 O44 2.309496 1_555
Ce8 O29 2.365237 1_555
Ce9 O14 2.258674 1_554
Ce9 O26 2.291057 1_555
Ce9 O23 2.297511 1_554
Ce9 O51 2.340059 1_554
Ce9 O37 2.401441 1_555
Ce9 O9 2.415612 1_545
Ce9 O50 2.459580 1_555
Ce9 O18 2.698345 1_555
Ce10 O48 2.249203 1_555
Ce10 O50 2.258522 1_555
Ce10 O13 2.300537 1_554
Ce10 O51 2.327748 1_554
Ce10 O54 2.327857 1_555
Ce10 O36 2.378932 1_555
Ce10 O52 2.454921 1_555
Ce11 O13 2.301406 1_545
Ce11 O9 2.350105 1_546
Ce11 O2 2.355250 1_555
Ce11 O47 2.393752 1_556
Ce11 O37 2.399996 1_556
Ce11 O22 2.420062 1_545
Ce11 O52 2.445532 1_546
Ce11 O42 2.455635 1_556
Ce12 O31 2.232806 1_555
Ce12 O46 2.288370 1_555
Ce12 O43 2.327509 1_555
Ce12 O53 2.332801 1_555
Ce12 O49 2.369703 1_555
Ce12 O7 2.398691 1_555
Ce12 O29 2.400040 1_555
Ce13 O52 2.215802 1_555
Ce13 O21 2.233087 1_555
Ce13 O18 2.247353 1_565
Ce13 O9 2.256347 1_555
Ce13 O25 2.285717 1_455
Ce13 O54 2.352448 1_555
O0 Y6 2.323296 1_555
O0 Y9 2.419132 1_656
O0 Y1 2.524824 1_555
O1 Y0 2.247090 1_555
O1 Y7 2.271883 1_565
O1 Y2 2.312170 1_555
O2 Y6 2.335089 1_555
O2 Y7 2.339322 1_555
O2 Y1 2.341344 1_555
O3 Y8 2.277812 1_555
O3 Y6 2.278167 1_555
O3 Y0 2.302537 1_555
O4 Y0 2.409399 1_555
O4 Y2 2.577879 1_555
O5 Y6 2.315642 1_555
O5 Y10 2.435973 1_555
O5 Y7 2.436491 1_555
O6 Y2 2.364621 1_555
O6 Y3 2.369746 1_565
O6 Y7 2.404537 1_565
O7 Y13 2.318231 1_555
O7 Y3 2.451734 1_555
O8 Y11 2.304368 1_555
O8 Y3 2.362712 1_565
O8 Y17 2.410769 1_555
O8 Y5 2.425883 1_555
O10 Y12 2.262284 1_455
O10 Y4 2.337809 1_555
O10 Y14 2.446691 1_455
O11 Y12 2.341370 1_455
O11 Y11 2.363416 1_555
O11 Y5 2.447343 1_555
O12 Y7 2.281252 1_565
O12 Y10 2.299072 1_565
O13 Y8 2.263245 1_555
O14 Y10 2.272228 1_555
O14 Y6 2.290450 1_555
O15 Y13 2.309218 1_555
O15 Y10 2.546975 1_555
O16 Y11 2.256207 1_555
O17 Y11 2.267890 1_545
O17 Y13 2.273463 1_555
O17 Y4 2.309094 1_555
O17 Y14 2.380478 1_455
O18 Y4 2.319966 1_555
O19 Y10 2.324433 1_555
O19 Y2 2.370873 1_555
O20 Y13 2.240496 1_555
O20 Y2 2.301678 1_555
O20 Y5 2.400290 1_555
O21 Y11 2.303330 1_555
O21 Y12 2.365818 1_455
O21 Y15 2.464625 1_455
O22 Y7 2.354438 1_565
O23 Y10 2.278716 1_555
O23 Y1 2.334227 1_455
O24 Y9 2.298243 1_655
O24 Y12 2.317660 1_555
O24 Y16 2.319981 1_555
O25 Y8 2.301853 1_554
O25 Y9 2.414426 1_655
O26 Y9 2.253843 1_555
O26 Y1 2.281325 1_454
O27 Y9 2.331125 1_556
O28 Y2 2.300680 1_555
O30 Y10 2.328557 1_655
O30 Y1 2.359756 1_555
O31 Y12 2.241260 1_555
O31 Y16 2.357835 1_555
O31 Y15 2.363023 1_555
O32 Y0 2.224832 1_555
O32 Y1 2.270019 1_565
O32 Y8 2.320672 1_555
O33 Y0 2.280228 1_555
O34 Y15 2.272659 1_555
O34 Y14 2.283278 1_565
O34 Y11 2.298274 1_655
O35 Y13 2.302504 1_655
O35 Y14 2.378122 1_555
O36 Y8 2.345712 1_554
O36 Y15 2.415288 1_555
O36 Y16 2.447405 1_555
O37 Y6 2.232372 1_554
O37 Y16 2.322509 1_555
O38 Y14 2.304405 1_565
O38 Y3 2.307962 1_565
O39 Y17 2.309488 1_555
O39 Y14 2.335696 1_565
O39 Y15 2.337705 1_555
O41 Y0 2.286700 1_555
O42 Y8 2.256901 1_544
O42 Y1 2.379299 1_554
O43 Y15 2.304649 1_555
O43 Y5 2.309799 1_555
O44 Y3 2.415436 1_555
O44 Y7 2.419481 1_555
O45 Y3 2.251572 1_565
O45 Y2 2.269112 1_555
O45 Y5 2.276280 1_555
O46 Y14 2.331375 1_555
O46 Y17 2.385111 1_545
O46 Y3 2.398871 1_555
O47 Y16 2.280486 1_555
O47 Y17 2.336089 1_545
O48 Y15 2.327828 1_555
O48 Y5 2.337485 1_555
O48 Y17 2.445801 1_555
O49 Y4 2.219587 1_555
O49 Y13 2.290757 1_555
O49 Y5 2.302481 1_555
O50 Y4 2.289693 1_555
O50 Y16 2.401193 1_555
O51 Y9 2.310932 1_556
O52 Y17 2.358008 1_555
O53 Y4 2.261181 1_555
O53 Y17 2.311227 1_545
O53 Y16 2.375483 1_555
O54 Y12 2.249791 1_455
O54 Y9 2.381879 1_555
