# generated using pymatgen
data_Al(SeCl2)2
_symmetry_space_group_name_H-M   'P 1'
_cell_length_a   9.34184097
_cell_length_b   13.41191934
_cell_length_c   13.43200475
_cell_angle_alpha   90.00000000
_cell_angle_beta   90.00000000
_cell_angle_gamma   90.00000000
_symmetry_Int_Tables_number   1
_chemical_formula_structural   Al(SeCl2)2
_chemical_formula_sum   'Al8 Se16 Cl32'
_cell_volume   1682.92297523
_cell_formula_units_Z   8
loop_
 _symmetry_equiv_pos_site_id
 _symmetry_equiv_pos_as_xyz
  1  'x, y, z'
loop_
 _atom_site_type_symbol
 _atom_site_label
 _atom_site_symmetry_multiplicity
 _atom_site_fract_x
 _atom_site_fract_y
 _atom_site_fract_z
 _atom_site_occupancy
  Al  Al0  1  0.50000000  0.60358227  0.33120661  1
  Al  Al1  1  0.00000000  0.83727357  0.38488351  1
  Al  Al2  1  0.00000000  0.33727357  0.11511649  1
  Al  Al3  1  0.50000000  0.89641773  0.83120661  1
  Al  Al4  1  0.00000000  0.16272643  0.61511649  1
  Al  Al5  1  0.50000000  0.39641773  0.66879339  1
  Al  Al6  1  0.00000000  0.66272643  0.88488351  1
  Al  Al7  1  0.50000000  0.10358227  0.16879339  1
  Se  Se0  1  0.32493363  0.50000000  -0.00000000  1
  Se  Se1  1  0.00000000  0.48364387  0.62077031  1
  Se  Se2  1  0.82510509  0.50000000  0.50000000  1
  Se  Se3  1  0.50000000  0.11921739  0.52509317  1
  Se  Se4  1  0.82510509  -0.00000000  -0.00000000  1
  Se  Se5  1  0.00000000  0.51635613  0.37922969  1
  Se  Se6  1  0.17489491  0.50000000  0.50000000  1
  Se  Se7  1  0.32493363  -0.00000000  0.50000000  1
  Se  Se8  1  0.00000000  0.01635613  0.12077031  1
  Se  Se9  1  0.50000000  0.38078261  0.02509317  1
  Se  Se10  1  0.17489491  -0.00000000  -0.00000000  1
  Se  Se11  1  0.00000000  0.98364387  0.87922969  1
  Se  Se12  1  0.67506637  0.50000000  -0.00000000  1
  Se  Se13  1  0.50000000  0.88078261  0.47490683  1
  Se  Se14  1  0.50000000  0.61921739  0.97490683  1
  Se  Se15  1  0.67506637  -0.00000000  0.50000000  1
  Cl  Cl0  1  0.68443675  0.98709384  0.79327508  1
  Cl  Cl1  1  0.31556325  0.98709384  0.79327508  1
  Cl  Cl2  1  0.50000000  0.26319380  0.75332847  1
  Cl  Cl3  1  0.50000000  0.63201447  0.48783402  1
  Cl  Cl4  1  0.50000000  0.23680620  0.25332847  1
  Cl  Cl5  1  0.81497053  0.70674774  0.97200664  1
  Cl  Cl6  1  0.50000000  0.86798553  0.98783402  1
  Cl  Cl7  1  0.00000000  0.73812157  0.74644495  1
  Cl  Cl8  1  0.00000000  0.23812157  0.75355505  1
  Cl  Cl9  1  0.31556325  0.51290616  0.29327508  1
  Cl  Cl10  1  0.81497053  0.79325226  0.47200664  1
  Cl  Cl11  1  0.00000000  0.49560379  0.13221891  1
  Cl  Cl12  1  0.00000000  -0.00439621  0.36778109  1
  Cl  Cl13  1  0.00000000  0.00439621  0.63221891  1
  Cl  Cl14  1  0.00000000  0.76187843  0.24644495  1
  Cl  Cl15  1  0.81497053  0.20674774  0.52799336  1
  Cl  Cl16  1  0.31556325  0.48709384  0.70672492  1
  Cl  Cl17  1  0.18502947  0.20674774  0.52799336  1
  Cl  Cl18  1  0.31556325  0.01290616  0.20672492  1
  Cl  Cl19  1  0.68443675  0.48709384  0.70672492  1
  Cl  Cl20  1  0.50000000  0.73680620  0.24667153  1
  Cl  Cl21  1  0.18502947  0.70674774  0.97200664  1
  Cl  Cl22  1  0.50000000  0.36798553  0.51216598  1
  Cl  Cl23  1  0.18502947  0.29325226  0.02799336  1
  Cl  Cl24  1  0.50000000  0.13201447  0.01216598  1
  Cl  Cl25  1  0.68443675  0.01290616  0.20672492  1
  Cl  Cl26  1  0.81497053  0.29325226  0.02799336  1
  Cl  Cl27  1  0.18502947  0.79325226  0.47200664  1
  Cl  Cl28  1  0.00000000  0.26187843  0.25355505  1
  Cl  Cl29  1  0.68443675  0.51290616  0.29327508  1
  Cl  Cl30  1  0.50000000  0.76319380  0.74667153  1
  Cl  Cl31  1  0.00000000  0.50439621  0.86778109  1
loop_
_geom_bond_atom_site_label_1
_geom_bond_atom_site_label_2
_geom_bond_distance
_geom_bond_site_symmetry_2
Al0 Cl20 2.117054 1_555
Al0 Cl3 2.138100 1_555
Al0 Cl9 2.169618 1_555
Al0 Cl29 2.169618 1_555
Al1 Cl14 2.116667 1_555
Al1 Cl12 2.135901 1_565
Al1 Cl27 2.169288 1_555
Al1 Cl10 2.169288 1_455
Al2 Cl28 2.116667 1_555
Al2 Cl11 2.135901 1_555
Al2 Cl26 2.169288 1_455
Al2 Cl23 2.169288 1_555
Al3 Cl30 2.117054 1_555
Al3 Cl6 2.138100 1_555
Al3 Cl1 2.169618 1_555
Al3 Cl0 2.169618 1_555
Al4 Cl8 2.116667 1_555
Al4 Cl13 2.135901 1_555
Al4 Cl17 2.169288 1_555
Al4 Cl15 2.169288 1_455
Al5 Cl2 2.117054 1_555
Al5 Cl22 2.138100 1_555
Al5 Cl16 2.169618 1_555
Al5 Cl19 2.169618 1_555
Al6 Cl7 2.116667 1_555
Al6 Cl31 2.135901 1_555
Al6 Cl21 2.169288 1_555
Al6 Cl5 2.169288 1_455
Al7 Cl4 2.117054 1_555
Al7 Cl24 2.138100 1_555
Al7 Cl18 2.169618 1_555
Al7 Cl25 2.169618 1_555
Se0 Se14 2.311896 1_554
Se0 Se9 2.311896 1_555
Se1 Se6 2.312801 1_555
Se1 Se2 2.312801 1_455
Se2 Se5 2.312801 1_655
Se3 Se7 2.311896 1_555
Se4 Se8 2.312801 1_655
Se5 Se6 2.312801 1_555
Se10 Se8 2.312801 1_555
Se10 Se11 2.312801 1_544
Se11 Se4 2.312801 1_466
Se12 Se14 2.311896 1_554
Se12 Se9 2.311896 1_555
Se13 Se7 2.311896 1_565
Se13 Se15 2.311896 1_565
Se15 Se3 2.311896 1_555
