# generated using pymatgen
data_CrAg(PS3)2
_symmetry_space_group_name_H-M   'P 1'
_cell_length_a   10.62463516
_cell_length_b   5.94640526
_cell_length_c   7.05190677
_cell_angle_alpha   74.68512321
_cell_angle_beta   90.00000000
_cell_angle_gamma   90.00000000
_symmetry_Int_Tables_number   1
_chemical_formula_structural   CrAg(PS3)2
_chemical_formula_sum   'Cr2 Ag2 P4 S12'
_cell_volume   429.70688524
_cell_formula_units_Z   2
loop_
 _symmetry_equiv_pos_site_id
 _symmetry_equiv_pos_as_xyz
  1  'x, y, z'
loop_
 _atom_site_type_symbol
 _atom_site_label
 _atom_site_symmetry_multiplicity
 _atom_site_fract_x
 _atom_site_fract_y
 _atom_site_fract_z
 _atom_site_occupancy
  Cr  Cr0  1  0.91747273  0.75000000  -0.00000000  1
  Cr  Cr1  1  0.08252727  0.25000000  -0.00000000  1
  Ag  Ag0  1  0.56059338  0.75000000  -0.00000000  1
  Ag  Ag1  1  0.43940662  0.25000000  -0.00000000  1
  P  P0  1  0.24522001  0.79526248  0.83815191  1
  P  P1  1  0.75477999  0.20473752  0.16184809  1
  P  P2  1  0.75477999  0.29526248  0.83815191  1
  P  P3  1  0.24522001  0.70473752  0.16184809  1
  S  S0  1  0.07590544  0.98665673  0.78576593  1
  S  S1  1  0.76767783  0.51531094  0.22828257  1
  S  S2  1  0.23232217  0.48468906  0.77171743  1
  S  S3  1  0.39368780  0.52083683  0.27283464  1
  S  S4  1  0.92409456  0.01334327  0.21423407  1
  S  S5  1  0.23232217  0.01531094  0.22828257  1
  S  S6  1  0.60631220  0.47916317  0.72716536  1
  S  S7  1  0.92409456  0.48665673  0.78576593  1
  S  S8  1  0.07590544  0.51334327  0.21423407  1
  S  S9  1  0.39368780  0.97916317  0.72716536  1
  S  S10  1  0.60631220  0.02083683  0.27283464  1
  S  S11  1  0.76767783  0.98468906  0.77171743  1
loop_
_geom_bond_atom_site_label_1
_geom_bond_atom_site_label_2
_geom_bond_distance
_geom_bond_site_symmetry_2
Cr0 S11 2.425960 1_554
Cr0 S1 2.425960 1_555
Cr0 S0 2.444005 1_654
Cr0 S8 2.444005 1_655
Cr0 S7 2.447292 1_554
Cr0 S4 2.447292 1_565
Cr1 S2 2.425960 1_554
Cr1 S5 2.425960 1_555
Cr1 S7 2.444005 1_454
Cr1 S4 2.444005 1_455
Cr1 S0 2.447292 1_544
Cr1 S8 2.447292 1_555
Ag0 S9 2.705253 1_554
Ag0 S3 2.705253 1_555
Ag0 S10 2.858025 1_565
Ag0 S6 2.858025 1_554
Ag0 S11 2.862381 1_554
Ag0 S1 2.862381 1_555
Ag1 S6 2.705253 1_554
Ag1 S10 2.705253 1_555
Ag1 S9 2.858025 1_544
Ag1 S3 2.858025 1_555
Ag1 S5 2.862381 1_555
Ag1 S2 2.862381 1_554
P0 S9 1.960749 1_555
P0 S2 2.026316 1_555
P0 S0 2.108489 1_555
P0 P3 2.202563 1_556
P1 S10 1.960749 1_555
P1 S1 2.026316 1_555
P1 S4 2.108489 1_555
P1 P2 2.202563 1_554
P2 S6 1.960749 1_555
P2 S11 2.026316 1_545
P2 S7 2.108489 1_555
P3 S3 1.960749 1_555
P3 S5 2.026316 1_565
P3 S8 2.108489 1_555
