# generated using pymatgen
data_Rb2PdN2(ClO2)2
_symmetry_space_group_name_H-M   'P 1'
_cell_length_a   8.63337497
_cell_length_b   8.63337497
_cell_length_c   7.90721900
_cell_angle_alpha   90.00000000
_cell_angle_beta   90.00000000
_cell_angle_gamma   125.89103702
_symmetry_Int_Tables_number   1
_chemical_formula_structural   Rb2PdN2(ClO2)2
_chemical_formula_sum   'Rb4 Pd2 N4 Cl4 O8'
_cell_volume   477.46494427
_cell_formula_units_Z   2
loop_
 _symmetry_equiv_pos_site_id
 _symmetry_equiv_pos_as_xyz
  1  'x, y, z'
loop_
 _atom_site_type_symbol
 _atom_site_label
 _atom_site_symmetry_multiplicity
 _atom_site_fract_x
 _atom_site_fract_y
 _atom_site_fract_z
 _atom_site_occupancy
  Rb  Rb0  1  0.13659200  0.86340800  0.00000000  1
  Rb  Rb1  1  0.36340800  0.63659200  0.50000000  1
  Rb  Rb2  1  0.63659200  0.36340800  0.50000000  1
  Rb  Rb3  1  0.86340800  0.13659200  0.00000000  1
  Pd  Pd0  1  0.50000000  0.50000000  0.00000000  1
  Pd  Pd1  1  0.00000000  0.00000000  0.50000000  1
  N  N0  1  0.86695200  0.13304800  0.50000000  1
  N  N1  1  0.63304800  0.36695200  0.00000000  1
  N  N2  1  0.36695200  0.63304800  0.00000000  1
  N  N3  1  0.13304800  0.86695200  0.50000000  1
  Cl  Cl0  1  0.28857000  0.28857000  0.21133500  1
  Cl  Cl1  1  0.71143000  0.71143000  0.78866500  1
  Cl  Cl2  1  0.78857000  0.78857000  0.28866500  1
  Cl  Cl3  1  0.21143000  0.21143000  0.71133500  1
  O  O0  1  0.57195200  0.22398100  0.90769400  1
  O  O1  1  0.92804800  0.27601900  0.40769400  1
  O  O2  1  0.07195200  0.72398100  0.59230600  1
  O  O3  1  0.72398100  0.07195200  0.59230600  1
  O  O4  1  0.27601900  0.92804800  0.40769400  1
  O  O5  1  0.22398100  0.57195200  0.90769400  1
  O  O6  1  0.42804800  0.77601900  0.09230600  1
  O  O7  1  0.77601900  0.42804800  0.09230600  1
loop_
_geom_bond_atom_site_label_1
_geom_bond_atom_site_label_2
_geom_bond_distance
_geom_bond_site_symmetry_2
N0 O3 1.253450 1_555
N0 O1 1.253450 1_555
N0 Pd1 2.045922 1_655
N1 O7 1.253450 1_555
N1 O0 1.253450 1_554
N1 Pd0 2.045922 1_555
N2 O6 1.253450 1_555
N2 O5 1.253450 1_554
N2 Pd0 2.045922 1_555
N3 O2 1.253450 1_555
N3 O4 1.253450 1_555
N3 Pd1 2.045922 1_565
Cl0 Pd0 2.355775 1_555
Cl0 Rb0 3.512887 1_545
Cl0 Rb3 3.512887 1_455
Cl0 Rb2 3.518371 1_555
Cl0 Rb1 3.518371 1_555
Cl1 Pd0 2.355775 1_556
Cl1 Rb0 3.512887 1_656
Cl1 Rb3 3.512887 1_566
Cl1 Rb1 3.518371 1_555
Cl1 Rb2 3.518371 1_555
Cl2 Pd1 2.355775 1_665
Cl2 Rb1 3.512887 1_555
Cl2 Rb2 3.512887 1_555
Cl2 Rb3 3.518371 1_565
Cl2 Rb0 3.518371 1_655
Cl3 Pd1 2.355775 1_555
Cl3 Rb2 3.512887 1_555
Cl3 Rb1 3.512887 1_555
Cl3 Rb3 3.518371 1_456
Cl3 Rb0 3.518371 1_546
O0 Rb3 3.107946 1_556
O0 Rb0 3.260651 1_546
O0 Rb2 3.371227 1_555
O1 Rb2 3.107946 1_555
O1 Rb1 3.260651 1_655
O1 Rb3 3.371227 1_555
O2 Rb1 3.107946 1_555
O2 Rb2 3.260651 1_455
O2 Rb0 3.371227 1_556
O3 Rb2 3.107946 1_555
O3 Rb1 3.260651 1_545
O3 Rb3 3.371227 1_556
O4 Rb1 3.107946 1_555
O4 Rb2 3.260651 1_565
O4 Rb0 3.371227 1_555
O5 Rb0 3.107946 1_556
O5 Rb3 3.260651 1_456
O5 Rb1 3.371227 1_555
O6 Rb0 3.107946 1_555
O6 Rb3 3.260651 1_565
O6 Rb1 3.371227 1_555
O7 Rb3 3.107946 1_555
O7 Rb0 3.260651 1_655
O7 Rb2 3.371227 1_555
