# generated using pymatgen
data_HI3O8
_symmetry_space_group_name_H-M   'P 1'
_cell_length_a   7.97616200
_cell_length_b   7.73598900
_cell_length_c   13.81084519
_cell_angle_alpha   57.06557016
_cell_angle_beta   90.00000000
_cell_angle_gamma   90.00000000
_symmetry_Int_Tables_number   1
_chemical_formula_structural   HI3O8
_chemical_formula_sum   'H4 I12 O32'
_cell_volume   715.22688205
_cell_formula_units_Z   4
loop_
 _symmetry_equiv_pos_site_id
 _symmetry_equiv_pos_as_xyz
  1  'x, y, z'
loop_
 _atom_site_type_symbol
 _atom_site_label
 _atom_site_symmetry_multiplicity
 _atom_site_fract_x
 _atom_site_fract_y
 _atom_site_fract_z
 _atom_site_occupancy
  H  H0  1  0.04612700  0.95374900  0.63764700  1
  H  H1  1  0.54612700  0.04625100  0.86235300  1
  H  H2  1  0.95387300  0.04625100  0.36235300  1
  H  H3  1  0.45387300  0.95374900  0.13764700  1
  I  I0  1  0.27274400  0.66592900  0.59534300  1
  I  I1  1  0.77274400  0.33407100  0.90465700  1
  I  I2  1  0.72725600  0.33407100  0.40465700  1
  I  I3  1  0.22725600  0.66592900  0.09534300  1
  I  I4  1  0.75817700  0.54608000  0.60426900  1
  I  I5  1  0.25817700  0.45392000  0.89573100  1
  I  I6  1  0.24182300  0.45392000  0.39573100  1
  I  I7  1  0.74182300  0.54608000  0.10426900  1
  I  I8  1  0.45099200  0.05747400  0.68684400  1
  I  I9  1  0.95099200  0.94252600  0.81315600  1
  I  I10  1  0.54900800  0.94252600  0.31315600  1
  I  I11  1  0.04900800  0.05747400  0.18684400  1
  O  O0  1  0.19951000  0.49355100  0.55098400  1
  O  O1  1  0.69951000  0.50644900  0.94901600  1
  O  O2  1  0.80049000  0.50644900  0.44901600  1
  O  O3  1  0.30049000  0.49355100  0.05098400  1
  O  O4  1  0.07423700  0.78566800  0.58591000  1
  O  O5  1  0.57423700  0.21433200  0.91409000  1
  O  O6  1  0.92576300  0.21433200  0.41409000  1
  O  O7  1  0.42576300  0.78566800  0.08591000  1
  O  O8  1  0.67841200  0.80611900  0.50894500  1
  O  O9  1  0.17841200  0.19388100  0.99105500  1
  O  O10  1  0.32158800  0.19388100  0.49105500  1
  O  O11  1  0.82158800  0.80611900  0.00894500  1
  O  O12  1  0.55542500  0.41743100  0.63653100  1
  O  O13  1  0.05542500  0.58256900  0.86346900  1
  O  O14  1  0.44457500  0.58256900  0.36346900  1
  O  O15  1  0.94457500  0.41743100  0.13653100  1
  O  O16  1  0.75051200  0.56969100  0.74173300  1
  O  O17  1  0.25051200  0.43030900  0.75826700  1
  O  O18  1  0.24948800  0.43030900  0.25826700  1
  O  O19  1  0.74948800  0.56969100  0.24173300  1
  O  O20  1  0.04418600  0.05652400  0.66092800  1
  O  O21  1  0.54418600  0.94347600  0.83907200  1
  O  O22  1  0.95581400  0.94347600  0.33907200  1
  O  O23  1  0.45581400  0.05652400  0.16092800  1
  O  O24  1  0.65015200  0.07310800  0.61805500  1
  O  O25  1  0.15015200  0.92689200  0.88194500  1
  O  O26  1  0.34984800  0.92689200  0.38194500  1
  O  O27  1  0.84984800  0.07310800  0.11805500  1
  O  O28  1  0.38321700  0.80370500  0.72158900  1
  O  O29  1  0.88321700  0.19629500  0.77841100  1
  O  O30  1  0.61678300  0.19629500  0.27841100  1
  O  O31  1  0.11678300  0.80370500  0.22158900  1
loop_
_geom_bond_atom_site_label_1
_geom_bond_atom_site_label_2
_geom_bond_distance
_geom_bond_site_symmetry_2
H0 O20 1.006837 1_565
H1 O21 1.006837 1_545
H2 O22 1.006837 1_545
H3 O23 1.006837 1_565
I0 O4 1.802970 1_555
I0 O0 1.839324 1_555
I0 O17 1.989273 1_555
I0 O26 2.582677 1_555
I1 O5 1.802970 1_555
I1 O1 1.839324 1_555
I1 O16 1.989273 1_555
I1 O27 2.582677 1_556
I2 O6 1.802970 1_555
I2 O2 1.839324 1_555
I2 O19 1.989273 1_555
I2 O24 2.582677 1_555
I3 O7 1.802970 1_555
I3 O3 1.839324 1_555
I3 O18 1.989273 1_555
I3 O25 2.582677 1_554
I4 O8 1.817971 1_555
I4 O12 1.822665 1_555
I4 O16 2.004605 1_555
I4 O2 2.349507 1_555
I4 O29 2.650396 1_555
I5 O9 1.817971 1_555
I5 O13 1.822665 1_555
I5 O17 2.004605 1_555
I5 O3 2.349507 1_556
I5 O28 2.650396 1_555
I6 O10 1.817971 1_555
I6 O14 1.822665 1_555
I6 O18 2.004605 1_555
I6 O0 2.349507 1_555
I6 O31 2.650396 1_555
I7 O11 1.817971 1_555
I7 O15 1.822665 1_555
I7 O19 2.004605 1_555
I7 O1 2.349507 1_554
I7 O30 2.650396 1_555
I8 O24 1.820903 1_555
I8 O28 1.830885 1_545
I8 O21 1.932432 1_545
I8 O10 2.527427 1_555
I8 O12 2.612823 1_555
I9 O25 1.820903 1_655
I9 O29 1.830885 1_565
I9 O20 1.932432 1_665
I9 O11 2.527427 1_556
I9 O13 2.612823 1_655
I10 O26 1.820903 1_555
I10 O30 1.830885 1_565
I10 O23 1.932432 1_565
I10 O8 2.527427 1_555
I10 O14 2.612823 1_555
I11 O27 1.820903 1_455
I11 O31 1.830885 1_545
I11 O22 1.932432 1_445
I11 O9 2.527427 1_554
I11 O15 2.612823 1_455
