# generated using pymatgen
data_Ga2(SO4)3
_symmetry_space_group_name_H-M   'P 1'
_cell_length_a   8.67588242
_cell_length_b   8.67588242
_cell_length_c   8.67588319
_cell_angle_alpha   55.51046772
_cell_angle_beta   55.51046772
_cell_angle_gamma   55.51046497
_symmetry_Int_Tables_number   1
_chemical_formula_structural   Ga2(SO4)3
_chemical_formula_sum   'Ga4 S6 O24'
_cell_volume   413.63805952
_cell_formula_units_Z   2
loop_
 _symmetry_equiv_pos_site_id
 _symmetry_equiv_pos_as_xyz
  1  'x, y, z'
loop_
 _atom_site_type_symbol
 _atom_site_label
 _atom_site_symmetry_multiplicity
 _atom_site_fract_x
 _atom_site_fract_y
 _atom_site_fract_z
 _atom_site_occupancy
  Ga  Ga0  1  0.14376402  0.14376402  0.14376402  1
  Ga  Ga1  1  0.85623598  0.85623598  0.85623598  1
  Ga  Ga2  1  0.34935017  0.34935017  0.34935017  1
  Ga  Ga3  1  0.65064983  0.65064983  0.65064983  1
  S  S0  1  0.03900303  0.45787980  0.75121939  1
  S  S1  1  0.45787980  0.75121939  0.03900303  1
  S  S2  1  0.75121939  0.03900303  0.45787980  1
  S  S3  1  0.96099697  0.54212020  0.24878061  1
  S  S4  1  0.54212020  0.24878061  0.96099697  1
  S  S5  1  0.24878061  0.96099697  0.54212020  1
  O  O0  1  0.01381576  0.61112742  0.79689292  1
  O  O1  1  0.61112742  0.79689292  0.01381576  1
  O  O2  1  0.79689292  0.01381576  0.61112742  1
  O  O3  1  0.98618424  0.38887258  0.20310708  1
  O  O4  1  0.38887258  0.20310708  0.98618424  1
  O  O5  1  0.20310708  0.98618424  0.38887258  1
  O  O6  1  0.84414457  0.47402449  0.78618198  1
  O  O7  1  0.47402449  0.78618198  0.84414457  1
  O  O8  1  0.78618198  0.84414457  0.47402449  1
  O  O9  1  0.15585543  0.52597551  0.21381802  1
  O  O10  1  0.52597551  0.21381802  0.15585543  1
  O  O11  1  0.21381802  0.15585543  0.52597551  1
  O  O12  1  0.17390865  0.48547461  0.54137804  1
  O  O13  1  0.48547461  0.54137804  0.17390865  1
  O  O14  1  0.54137804  0.17390865  0.48547461  1
  O  O15  1  0.82609135  0.51452539  0.45862196  1
  O  O16  1  0.51452539  0.45862196  0.82609135  1
  O  O17  1  0.45862196  0.82609135  0.51452539  1
  O  O18  1  0.12785429  0.25812316  0.88228929  1
  O  O19  1  0.25812316  0.88228929  0.12785429  1
  O  O20  1  0.88228929  0.12785429  0.25812316  1
  O  O21  1  0.87214571  0.74187684  0.11771071  1
  O  O22  1  0.74187684  0.11771071  0.87214571  1
  O  O23  1  0.11771071  0.87214571  0.74187684  1
loop_
_geom_bond_atom_site_label_1
_geom_bond_atom_site_label_2
_geom_bond_distance
_geom_bond_site_symmetry_2
Ga0 O19 1.949402 1_545
Ga0 O20 1.949402 1_455
Ga0 O18 1.949402 1_554
Ga0 O3 1.951040 1_455
Ga0 O4 1.951040 1_554
Ga0 O5 1.951040 1_545
Ga1 O22 1.949402 1_565
Ga1 O23 1.949402 1_655
Ga1 O21 1.949402 1_556
Ga1 O0 1.951040 1_655
Ga1 O1 1.951040 1_556
Ga1 O2 1.951040 1_565
Ga2 O14 1.951348 1_555
Ga2 O13 1.951348 1_555
Ga2 O12 1.951348 1_555
Ga2 O9 1.957180 1_555
Ga2 O11 1.957180 1_555
Ga2 O10 1.957180 1_555
Ga3 O17 1.951348 1_555
Ga3 O16 1.951348 1_555
Ga3 O15 1.951348 1_555
Ga3 O6 1.957180 1_555
Ga3 O8 1.957180 1_555
Ga3 O7 1.957180 1_555
O0 S0 1.463577 1_555
O1 S1 1.463577 1_555
O2 S2 1.463577 1_555
O3 S3 1.463577 1_555
O4 S4 1.463577 1_555
O5 S5 1.463577 1_555
O6 S0 1.472698 1_655
O7 S1 1.472699 1_556
O8 S2 1.472698 1_565
O9 S3 1.472698 1_455
O10 S4 1.472699 1_554
O11 S5 1.472698 1_545
O12 S0 1.467033 1_555
O13 S1 1.467033 1_555
O14 S2 1.467033 1_555
O15 S3 1.467033 1_555
O16 S4 1.467033 1_555
O17 S5 1.467033 1_555
O18 S0 1.462432 1_555
O19 S1 1.462432 1_555
O20 S2 1.462432 1_555
O21 S3 1.462432 1_555
O22 S4 1.462432 1_555
O23 S5 1.462432 1_555
