# generated using pymatgen
data_Sr2LiCoN2
_symmetry_space_group_name_H-M   'P 1'
_cell_length_a   5.42960600
_cell_length_b   5.42960600
_cell_length_c   7.38198400
_cell_angle_alpha   90.00000000
_cell_angle_beta   90.00000000
_cell_angle_gamma   90.00000000
_symmetry_Int_Tables_number   1
_chemical_formula_structural   Sr2LiCoN2
_chemical_formula_sum   'Sr4 Li2 Co2 N4'
_cell_volume   217.62547486
_cell_formula_units_Z   2
loop_
 _symmetry_equiv_pos_site_id
 _symmetry_equiv_pos_as_xyz
  1  'x, y, z'
loop_
 _atom_site_type_symbol
 _atom_site_label
 _atom_site_symmetry_multiplicity
 _atom_site_fract_x
 _atom_site_fract_y
 _atom_site_fract_z
 _atom_site_occupancy
  Sr  Sr0  1  0.00000000  0.50000000  0.75000000  1
  Sr  Sr1  1  0.00000000  0.50000000  0.25000000  1
  Sr  Sr2  1  0.50000000  0.00000000  0.25000000  1
  Sr  Sr3  1  0.50000000  0.00000000  0.75000000  1
  Li  Li0  1  0.00000000  0.00000000  0.50000000  1
  Li  Li1  1  0.50000000  0.50000000  0.00000000  1
  Co  Co0  1  0.50000000  0.50000000  0.50000000  1
  Co  Co1  1  0.00000000  0.00000000  0.00000000  1
  N  N0  1  0.73527000  0.73527000  0.50000000  1
  N  N1  1  0.76473000  0.23527000  0.00000000  1
  N  N2  1  0.26473000  0.26473000  0.50000000  1
  N  N3  1  0.23527000  0.76473000  0.00000000  1
loop_
_geom_bond_atom_site_label_1
_geom_bond_atom_site_label_2
_geom_bond_distance
_geom_bond_site_symmetry_2
Li0 N0 2.032762 1_445
Li0 N2 2.032762 1_555
Li1 N1 2.032762 1_555
Li1 N3 2.032762 1_555
Co0 N2 1.806550 1_555
Co0 N0 1.806550 1_555
Co1 N1 1.806550 1_455
Co1 N3 1.806550 1_545
N0 Sr0 2.665282 1_655
N0 Sr2 2.665282 1_565
N0 Sr3 2.665282 1_565
N0 Sr1 2.665282 1_655
N1 Sr2 2.665282 1_555
N1 Sr3 2.665282 1_554
N1 Sr1 2.665282 1_655
N1 Sr0 2.665282 1_654
N2 Sr2 2.665282 1_555
N2 Sr3 2.665282 1_555
N2 Sr0 2.665282 1_555
N2 Sr1 2.665282 1_555
N3 Sr3 2.665282 1_564
N3 Sr2 2.665282 1_565
N3 Sr0 2.665282 1_554
N3 Sr1 2.665282 1_555
