# generated using pymatgen
data_K3(Mg10In7)2
_symmetry_space_group_name_H-M   'P 1'
_cell_length_a   9.86189100
_cell_length_b   9.86189100
_cell_length_c   9.86189100
_cell_angle_alpha   90.00000000
_cell_angle_beta   90.00000000
_cell_angle_gamma   90.00000000
_symmetry_Int_Tables_number   1
_chemical_formula_structural   K3(Mg10In7)2
_chemical_formula_sum   'K3 Mg20 In14'
_cell_volume   959.13688857
_cell_formula_units_Z   1
loop_
 _symmetry_equiv_pos_site_id
 _symmetry_equiv_pos_as_xyz
  1  'x, y, z'
loop_
 _atom_site_type_symbol
 _atom_site_label
 _atom_site_symmetry_multiplicity
 _atom_site_fract_x
 _atom_site_fract_y
 _atom_site_fract_z
 _atom_site_occupancy
  K  K0  1  0.00000000  0.50000000  0.00000000  1
  K  K1  1  0.00000000  0.00000000  0.50000000  1
  K  K2  1  0.50000000  0.00000000  0.00000000  1
  Mg  Mg0  1  0.50000000  0.73478900  0.73478900  1
  Mg  Mg1  1  0.26521100  0.50000000  0.26521100  1
  Mg  Mg2  1  0.82546800  0.82546800  0.82546800  1
  Mg  Mg3  1  0.50000000  0.26521100  0.26521100  1
  Mg  Mg4  1  0.82546800  0.17453200  0.17453200  1
  Mg  Mg5  1  0.17453200  0.17453200  0.17453200  1
  Mg  Mg6  1  0.50000000  0.73478900  0.26521100  1
  Mg  Mg7  1  0.17453200  0.17453200  0.82546800  1
  Mg  Mg8  1  0.82546800  0.17453200  0.82546800  1
  Mg  Mg9  1  0.73478900  0.50000000  0.26521100  1
  Mg  Mg10  1  0.73478900  0.73478900  0.50000000  1
  Mg  Mg11  1  0.26521100  0.73478900  0.50000000  1
  Mg  Mg12  1  0.26521100  0.26521100  0.50000000  1
  Mg  Mg13  1  0.17453200  0.82546800  0.17453200  1
  Mg  Mg14  1  0.26521100  0.50000000  0.73478900  1
  Mg  Mg15  1  0.82546800  0.82546800  0.17453200  1
  Mg  Mg16  1  0.73478900  0.50000000  0.73478900  1
  Mg  Mg17  1  0.50000000  0.26521100  0.73478900  1
  Mg  Mg18  1  0.17453200  0.82546800  0.82546800  1
  Mg  Mg19  1  0.73478900  0.26521100  0.50000000  1
  In  In0  1  0.00000000  0.00000000  0.00000000  1
  In  In1  1  0.34919700  0.00000000  0.34919700  1
  In  In2  1  0.00000000  0.34919700  0.65080300  1
  In  In3  1  0.65080300  0.00000000  0.34919700  1
  In  In4  1  0.00000000  0.65080300  0.65080300  1
  In  In5  1  0.00000000  0.65080300  0.34919700  1
  In  In6  1  0.34919700  0.65080300  0.00000000  1
  In  In7  1  0.65080300  0.00000000  0.65080300  1
  In  In8  1  0.00000000  0.34919700  0.34919700  1
  In  In9  1  0.65080300  0.65080300  0.00000000  1
  In  In10  1  0.34919700  0.34919700  0.00000000  1
  In  In11  1  0.34919700  0.00000000  0.65080300  1
  In  In12  1  0.50000000  0.50000000  0.50000000  1
  In  In13  1  0.65080300  0.34919700  0.00000000  1
loop_
_geom_bond_atom_site_label_1
_geom_bond_atom_site_label_2
_geom_bond_distance
_geom_bond_site_symmetry_2
K0 Mg1 3.698850 1_555
K0 Mg9 3.698850 1_455
K0 Mg14 3.698850 1_554
K0 Mg16 3.698850 1_454
K0 Mg18 4.028341 1_554
K0 Mg2 4.028341 1_454
K0 Mg8 4.028341 1_454
K0 Mg5 4.028341 1_555
K0 Mg15 4.028341 1_455
K0 Mg4 4.028341 1_455
K0 Mg13 4.028341 1_555
K0 Mg7 4.028341 1_554
K1 Mg12 3.698850 1_555
K1 Mg11 3.698850 1_545
K1 Mg19 3.698850 1_455
K1 Mg10 3.698850 1_445
K1 Mg7 4.028341 1_555
K1 Mg18 4.028341 1_545
K1 Mg2 4.028341 1_445
K1 Mg8 4.028341 1_455
K1 Mg5 4.028341 1_555
K1 Mg4 4.028341 1_455
K1 Mg15 4.028341 1_445
K1 Mg13 4.028341 1_545
K2 Mg3 3.698850 1_555
K2 Mg17 3.698850 1_554
K2 Mg6 3.698850 1_545
K2 Mg0 3.698850 1_544
K2 Mg18 4.028341 1_544
K2 Mg8 4.028341 1_554
K2 Mg5 4.028341 1_555
K2 Mg2 4.028341 1_544
K2 Mg15 4.028341 1_545
K2 Mg7 4.028341 1_554
K2 Mg13 4.028341 1_545
K2 Mg4 4.028341 1_555
In0 Mg13 2.981233 1_545
In0 Mg5 2.981233 1_555
In0 Mg4 2.981233 1_455
In0 Mg7 2.981233 1_554
In0 Mg15 2.981233 1_445
In0 Mg2 2.981233 1_444
In0 Mg8 2.981233 1_454
In0 Mg18 2.981233 1_544
In1 In11 2.974405 1_555
In1 In3 2.974405 1_555
In1 Mg5 2.982748 1_555
In1 Mg13 2.982748 1_545
In1 Mg12 3.120662 1_555
In1 Mg3 3.120662 1_555
In1 Mg11 3.120662 1_545
In1 Mg6 3.120662 1_545
In1 K1 3.751151 1_555
In1 K2 3.751151 1_555
In2 In8 2.974405 1_555
In2 In4 2.974405 1_555
In2 Mg8 2.982748 1_455
In2 Mg7 2.982748 1_555
In2 Mg14 3.120662 1_555
In2 Mg12 3.120662 1_555
In2 Mg16 3.120662 1_455
In2 Mg19 3.120662 1_455
In2 K1 3.751151 1_555
In2 K0 3.751151 1_556
In3 In7 2.974405 1_555
In3 Mg4 2.982748 1_555
In3 Mg15 2.982748 1_545
In3 Mg19 3.120662 1_555
In3 Mg3 3.120662 1_555
In3 Mg10 3.120662 1_545
In3 Mg6 3.120662 1_545
In3 K1 3.751151 1_655
In3 K2 3.751151 1_555
In4 In5 2.974405 1_555
In4 Mg18 2.982748 1_555
In4 Mg2 2.982748 1_455
In4 Mg11 3.120662 1_555
In4 Mg14 3.120662 1_555
In4 Mg10 3.120662 1_455
In4 Mg16 3.120662 1_455
In4 K0 3.751151 1_556
In4 K1 3.751151 1_565
In5 In8 2.974405 1_555
In5 Mg15 2.982748 1_455
In5 Mg13 2.982748 1_555
In5 Mg11 3.120662 1_555
In5 Mg1 3.120662 1_555
In5 Mg10 3.120662 1_455
In5 Mg9 3.120662 1_455
In5 K0 3.751151 1_555
In5 K1 3.751151 1_565
In6 In9 2.974405 1_555
In6 Mg13 2.982748 1_555
In6 Mg18 2.982748 1_554
In6 Mg6 3.120662 1_555
In6 Mg1 3.120662 1_555
In6 Mg0 3.120662 1_554
In6 Mg14 3.120662 1_554
In6 K2 3.751151 1_565
In6 K0 3.751151 1_555
In7 Mg8 2.982748 1_555
In7 Mg2 2.982748 1_545
In7 Mg19 3.120662 1_555
In7 Mg17 3.120662 1_555
In7 Mg10 3.120662 1_545
In7 Mg0 3.120662 1_545
In7 K1 3.751151 1_655
In7 K2 3.751151 1_556
In8 Mg5 2.982748 1_555
In8 Mg4 2.982748 1_455
In8 Mg12 3.120662 1_555
In8 Mg1 3.120662 1_555
In8 Mg19 3.120662 1_455
In8 Mg9 3.120662 1_455
In8 K1 3.751151 1_555
In8 K0 3.751151 1_555
In9 Mg15 2.982748 1_555
In9 Mg2 2.982748 1_554
In9 Mg9 3.120662 1_555
In9 Mg6 3.120662 1_555
In9 Mg0 3.120662 1_554
In9 Mg16 3.120662 1_554
In9 K2 3.751151 1_565
In9 K0 3.751151 1_655
In10 In6 2.974405 1_555
In10 In13 2.974405 1_555
In10 Mg5 2.982748 1_555
In10 Mg7 2.982748 1_554
In10 Mg3 3.120662 1_555
In10 Mg1 3.120662 1_555
In10 Mg14 3.120662 1_554
In10 Mg17 3.120662 1_554
In10 K0 3.751151 1_555
In10 K2 3.751151 1_555
In11 In7 2.974405 1_555
In11 Mg18 2.982748 1_545
In11 Mg7 2.982748 1_555
In11 Mg17 3.120662 1_555
In11 Mg12 3.120662 1_555
In11 Mg0 3.120662 1_545
In11 Mg11 3.120662 1_545
In11 K1 3.751151 1_555
In11 K2 3.751151 1_556
In12 Mg16 3.274560 1_555
In12 Mg10 3.274560 1_555
In12 Mg0 3.274560 1_555
In12 Mg11 3.274560 1_555
In12 Mg17 3.274560 1_555
In12 Mg14 3.274560 1_555
In12 Mg6 3.274560 1_555
In12 Mg9 3.274560 1_555
In12 Mg19 3.274560 1_555
In12 Mg12 3.274560 1_555
In12 Mg3 3.274560 1_555
In12 Mg1 3.274560 1_555
In13 In9 2.974405 1_555
In13 Mg8 2.982748 1_554
In13 Mg4 2.982748 1_555
In13 Mg9 3.120662 1_555
In13 Mg3 3.120662 1_555
In13 Mg16 3.120662 1_554
In13 Mg17 3.120662 1_554
In13 K0 3.751151 1_655
In13 K2 3.751151 1_555
