# generated using pymatgen
data_SrB2F8
_symmetry_space_group_name_H-M   'P 1'
_cell_length_a   9.16129576
_cell_length_b   9.58478444
_cell_length_c   13.68972647
_cell_angle_alpha   90.00000000
_cell_angle_beta   90.00000000
_cell_angle_gamma   90.00000000
_symmetry_Int_Tables_number   1
_chemical_formula_structural   SrB2F8
_chemical_formula_sum   'Sr8 B16 F64'
_cell_volume   1202.08180834
_cell_formula_units_Z   8
loop_
 _symmetry_equiv_pos_site_id
 _symmetry_equiv_pos_as_xyz
  1  'x, y, z'
loop_
 _atom_site_type_symbol
 _atom_site_label
 _atom_site_symmetry_multiplicity
 _atom_site_fract_x
 _atom_site_fract_y
 _atom_site_fract_z
 _atom_site_occupancy
  Sr  Sr0  1  0.27939296  0.46421109  0.39535230  1
  Sr  Sr1  1  0.77939296  0.53578891  0.10464770  1
  Sr  Sr2  1  0.22060704  0.96421109  0.60464770  1
  Sr  Sr3  1  0.72060704  0.03578891  0.89535230  1
  Sr  Sr4  1  0.27939296  0.96421109  0.10464770  1
  Sr  Sr5  1  0.77939296  0.03578891  0.39535230  1
  Sr  Sr6  1  0.22060704  0.46421109  0.89535230  1
  Sr  Sr7  1  0.72060704  0.53578891  0.60464770  1
  B  B0  1  0.00617167  0.77651399  0.93756841  1
  B  B1  1  0.49382833  0.77651399  0.43756841  1
  B  B2  1  0.50617167  0.72348601  0.93756841  1
  B  B3  1  0.81637650  0.89802021  0.65552121  1
  B  B4  1  0.50617167  0.22348601  0.56243159  1
  B  B5  1  0.31637650  0.60197979  0.65552121  1
  B  B6  1  0.99382833  0.72348601  0.43756841  1
  B  B7  1  0.31637650  0.10197979  0.84447879  1
  B  B8  1  0.00617167  0.27651399  0.56243159  1
  B  B9  1  0.18362350  0.60197979  0.15552121  1
  B  B10  1  0.18362350  0.10197979  0.34447879  1
  B  B11  1  0.68362350  0.89802021  0.15552121  1
  B  B12  1  0.49382833  0.27651399  0.06243159  1
  B  B13  1  0.99382833  0.22348601  0.06243159  1
  B  B14  1  0.81637650  0.39802021  0.84447879  1
  B  B15  1  0.68362350  0.39802021  0.34447879  1
  F  F0  1  0.10820319  0.20396341  0.61918953  1
  F  F1  1  0.90891635  0.17889924  0.52054049  1
  F  F2  1  0.53183098  0.91786752  0.16153984  1
  F  F3  1  0.59108365  0.17889924  0.02054049  1
  F  F4  1  0.92318841  0.65021871  0.51296433  1
  F  F5  1  0.25440862  0.50701194  0.21727173  1
  F  F6  1  0.60820319  0.79603659  0.88081047  1
  F  F7  1  0.07681159  0.34978129  0.48703567  1
  F  F8  1  0.72946143  0.91911701  0.05845943  1
  F  F9  1  0.10820319  0.70396341  0.88081047  1
  F  F10  1  0.09108365  0.32110076  0.02054049  1
  F  F11  1  0.89179681  0.29603659  0.11918953  1
  F  F12  1  0.92318841  0.15021871  0.98703567  1
  F  F13  1  0.40891635  0.82110076  0.97945951  1
  F  F14  1  0.22946143  0.58088299  0.05845943  1
  F  F15  1  0.42318841  0.34978129  0.98703567  1
  F  F16  1  0.96816902  0.41786752  0.83846016  1
  F  F17  1  0.21923936  0.73871701  0.18355388  1
  F  F18  1  0.71923936  0.76128299  0.18355388  1
  F  F19  1  0.71923936  0.26128299  0.31644612  1
  F  F20  1  0.28076064  0.73871701  0.68355388  1
  F  F21  1  0.74559138  0.49298806  0.78272827  1
  F  F22  1  0.74559138  0.99298806  0.71727173  1
  F  F23  1  0.03183098  0.58213248  0.16153984  1
  F  F24  1  0.78076064  0.76128299  0.68355388  1
  F  F25  1  0.40891635  0.32110076  0.52054049  1
  F  F26  1  0.07179408  0.62918957  0.37922180  1
  F  F27  1  0.21923936  0.23871701  0.31644612  1
  F  F28  1  0.77053857  0.41911701  0.94154057  1
  F  F29  1  0.28076064  0.23871701  0.81644612  1
  F  F30  1  0.07681159  0.84978129  0.01296433  1
  F  F31  1  0.92820592  0.37081043  0.62077820  1
  F  F32  1  0.57681159  0.15021871  0.48703567  1
  F  F33  1  0.42318841  0.84978129  0.51296433  1
  F  F34  1  0.57179408  0.37081043  0.12077820  1
  F  F35  1  0.89179681  0.79603659  0.38081047  1
  F  F36  1  0.78076064  0.26128299  0.81644612  1
  F  F37  1  0.09108365  0.82110076  0.47945951  1
  F  F38  1  0.77053857  0.91911701  0.55845943  1
  F  F39  1  0.42820592  0.12918957  0.62077820  1
  F  F40  1  0.27053857  0.08088299  0.94154057  1
  F  F41  1  0.57681159  0.65021871  0.01296433  1
  F  F42  1  0.25440862  0.00701194  0.28272827  1
  F  F43  1  0.46816902  0.58213248  0.66153984  1
  F  F44  1  0.42820592  0.62918957  0.87922180  1
  F  F45  1  0.39179681  0.70396341  0.38081047  1
  F  F46  1  0.96816902  0.91786752  0.66153984  1
  F  F47  1  0.92820592  0.87081043  0.87922180  1
  F  F48  1  0.22946143  0.08088299  0.44154057  1
  F  F49  1  0.75440862  0.99298806  0.21727173  1
  F  F50  1  0.46816902  0.08213248  0.83846016  1
  F  F51  1  0.39179681  0.20396341  0.11918953  1
  F  F52  1  0.72946143  0.41911701  0.44154057  1
  F  F53  1  0.59108365  0.67889924  0.47945951  1
  F  F54  1  0.53183098  0.41786752  0.33846016  1
  F  F55  1  0.07179408  0.12918957  0.12077820  1
  F  F56  1  0.03183098  0.08213248  0.33846016  1
  F  F57  1  0.57179408  0.87081043  0.37922180  1
  F  F58  1  0.27053857  0.58088299  0.55845943  1
  F  F59  1  0.75440862  0.49298806  0.28272827  1
  F  F60  1  0.24559138  0.00701194  0.78272827  1
  F  F61  1  0.60820319  0.29603659  0.61918953  1
  F  F62  1  0.90891635  0.67889924  0.97945951  1
  F  F63  1  0.24559138  0.50701194  0.71727173  1
loop_
_geom_bond_atom_site_label_1
_geom_bond_atom_site_label_2
_geom_bond_distance
_geom_bond_site_symmetry_2
B0 F9 1.400366 1_555
B0 F47 1.401803 1_455
B0 F30 1.406164 1_556
B0 F62 1.413545 1_455
B1 F45 1.400366 1_555
B1 F57 1.401803 1_555
B1 F33 1.406164 1_555
B1 F53 1.413545 1_555
B2 F6 1.400366 1_555
B2 F44 1.401803 1_555
B2 F41 1.406164 1_556
B2 F13 1.413545 1_555
B3 F22 1.401318 1_555
B3 F24 1.404065 1_555
B3 F46 1.405984 1_555
B3 F38 1.408122 1_555
B4 F61 1.400366 1_555
B4 F39 1.401803 1_555
B4 F32 1.406164 1_555
B4 F25 1.413545 1_555
B5 F63 1.401318 1_555
B5 F20 1.404065 1_555
B5 F43 1.405984 1_555
B5 F58 1.408122 1_555
B6 F35 1.400366 1_555
B6 F26 1.401803 1_655
B6 F4 1.406164 1_555
B6 F37 1.413545 1_655
B7 F60 1.401318 1_555
B7 F29 1.404065 1_555
B7 F50 1.405984 1_555
B7 F40 1.408122 1_555
B8 F0 1.400366 1_555
B8 F31 1.401803 1_455
B8 F7 1.406164 1_555
B8 F1 1.413545 1_455
B9 F5 1.401318 1_555
B9 F17 1.404065 1_555
B9 F23 1.405984 1_555
B9 F14 1.408122 1_555
B10 F42 1.401318 1_555
B10 F27 1.404065 1_555
B10 F56 1.405984 1_555
B10 F48 1.408122 1_555
B11 F49 1.401318 1_555
B11 F18 1.404065 1_555
B11 F2 1.405984 1_555
B11 F8 1.408122 1_555
B12 F51 1.400366 1_555
B12 F34 1.401803 1_555
B12 F15 1.406164 1_554
B12 F3 1.413545 1_555
B13 F11 1.400366 1_555
B13 F55 1.401803 1_655
B13 F12 1.406164 1_554
B13 F10 1.413545 1_655
B14 F21 1.401318 1_555
B14 F36 1.404065 1_555
B14 F16 1.405984 1_555
B14 F28 1.408122 1_555
B15 F59 1.401318 1_555
B15 F19 1.404065 1_555
B15 F54 1.405984 1_555
B15 F52 1.408122 1_555
F0 Sr2 2.526011 1_545
F1 Sr5 2.495319 1_555
F2 Sr4 2.480381 1_555
F3 Sr3 2.495319 1_554
F4 Sr7 2.494526 1_555
F5 Sr0 2.482723 1_555
F6 Sr3 2.526011 1_565
F7 Sr0 2.494526 1_555
F8 Sr3 2.498585 1_564
F9 Sr6 2.526011 1_555
F10 Sr6 2.495319 1_554
F11 Sr1 2.526011 1_555
F12 Sr3 2.494526 1_555
F13 Sr4 2.495319 1_556
F14 Sr6 2.498585 1_554
F15 Sr6 2.494526 1_555
F16 Sr6 2.480381 1_655
F17 Sr4 2.478267 1_555
F18 Sr1 2.478267 1_555
F19 Sr5 2.478267 1_555
F20 Sr2 2.478267 1_555
F21 Sr7 2.482723 1_555
F22 Sr3 2.482723 1_565
F23 Sr1 2.480381 1_455
F24 Sr7 2.478267 1_555
F25 Sr0 2.495319 1_555
F26 Sr0 2.483213 1_555
F27 Sr0 2.478267 1_555
F28 Sr1 2.498585 1_556
F29 Sr6 2.478267 1_555
F30 Sr4 2.494526 1_555
F31 Sr7 2.483213 1_555
F32 Sr5 2.494526 1_555
F33 Sr2 2.494526 1_555
F34 Sr1 2.483213 1_555
F35 Sr5 2.526011 1_565
F36 Sr3 2.478267 1_555
F37 Sr2 2.495319 1_555
F38 Sr5 2.498585 1_565
F39 Sr2 2.483213 1_545
F40 Sr4 2.498585 1_546
F41 Sr1 2.494526 1_555
F42 Sr4 2.482723 1_545
F43 Sr7 2.480381 1_555
F44 Sr6 2.483213 1_555
F45 Sr0 2.526011 1_555
F46 Sr2 2.480381 1_655
F47 Sr3 2.483213 1_565
F48 Sr2 2.498585 1_545
F49 Sr5 2.482723 1_565
F50 Sr3 2.480381 1_555
F51 Sr4 2.526011 1_545
F52 Sr7 2.498585 1_555
F53 Sr7 2.495319 1_555
F54 Sr0 2.480381 1_555
F55 Sr4 2.483213 1_545
F56 Sr5 2.480381 1_455
F57 Sr5 2.483213 1_565
F58 Sr0 2.498585 1_555
F59 Sr1 2.482723 1_555
F60 Sr2 2.482723 1_545
F61 Sr7 2.526011 1_555
F62 Sr1 2.495319 1_556
F63 Sr6 2.482723 1_555
