# generated using pymatgen
data_Sc3IrC4
_symmetry_space_group_name_H-M   'P 1'
_cell_length_a   5.61477441
_cell_length_b   5.61609626
_cell_length_c   6.74458885
_cell_angle_alpha   65.39621271
_cell_angle_beta   83.92734244
_cell_angle_gamma   75.28010949
_symmetry_Int_Tables_number   1
_chemical_formula_structural   Sc3IrC4
_chemical_formula_sum   'Sc6 Ir2 C8'
_cell_volume   187.02212769
_cell_formula_units_Z   2
loop_
 _symmetry_equiv_pos_site_id
 _symmetry_equiv_pos_as_xyz
  1  'x, y, z'
loop_
 _atom_site_type_symbol
 _atom_site_label
 _atom_site_symmetry_multiplicity
 _atom_site_fract_x
 _atom_site_fract_y
 _atom_site_fract_z
 _atom_site_occupancy
  Sc  Sc0  1  0.23647227  0.23765223  -0.00000000  1
  Sc  Sc1  1  0.50000000  0.69123192  0.61753416  1
  Sc  Sc2  1  -0.00000000  0.81047622  0.37904657  1
  Sc  Sc3  1  0.50000000  0.30876808  0.38246584  1
  Sc  Sc4  1  0.76352773  0.76234777  0.00000000  1
  Sc  Sc5  1  0.00000000  0.18952378  0.62095343  1
  Ir  Ir0  1  0.72808275  0.27163241  -0.00000000  1
  Ir  Ir1  1  0.27191725  0.72836759  0.00000000  1
  C  C0  1  0.08155284  0.70972216  0.74220668  1
  C  C1  1  0.08155284  0.45192884  0.25779332  1
  C  C2  1  0.91844716  0.54807116  0.74220668  1
  C  C3  1  0.91844716  0.29027784  0.25779332  1
  C  C4  1  0.41910529  0.79055029  0.25546566  1
  C  C5  1  0.58089471  0.20944971  0.74453434  1
  C  C6  1  0.41910529  0.04601594  0.74453434  1
  C  C7  1  0.58089471  0.95398406  0.25546566  1
loop_
_geom_bond_atom_site_label_1
_geom_bond_atom_site_label_2
_geom_bond_distance
_geom_bond_site_symmetry_2
C0 C2 1.444088 1_455
C0 Ir1 2.185912 1_556
C0 Sc2 2.341113 1_555
C0 Sc5 2.399303 1_565
C0 Sc1 2.401801 1_555
C0 Sc4 2.408688 1_456
C0 Sc0 2.473505 1_556
C1 C3 1.444088 1_455
C1 Ir1 2.185912 1_555
C1 Sc5 2.341112 1_555
C1 Sc2 2.399298 1_555
C1 Sc3 2.401802 1_555
C1 Sc4 2.408688 1_455
C1 Sc0 2.473505 1_555
C2 Ir0 2.185912 1_556
C2 Sc2 2.341112 1_655
C2 Sc5 2.399298 1_655
C2 Sc1 2.401802 1_555
C2 Sc0 2.408688 1_656
C2 Sc4 2.473505 1_556
C3 Ir0 2.185912 1_555
C3 Sc5 2.341113 1_655
C3 Sc2 2.399303 1_645
C3 Sc3 2.401801 1_555
C3 Sc0 2.408688 1_655
C3 Sc4 2.473505 1_555
C4 C7 1.446168 1_555
C4 Ir1 2.173175 1_555
C4 Sc1 2.335066 1_555
C4 Sc2 2.402825 1_555
C4 Sc0 2.405835 1_565
C4 Sc3 2.406019 1_555
C4 Sc4 2.469866 1_555
C5 C6 1.446168 1_555
C5 Ir0 2.173175 1_556
C5 Sc3 2.335066 1_555
C5 Sc5 2.402825 1_655
C5 Sc4 2.405835 1_546
C5 Sc1 2.406019 1_555
C5 Sc0 2.469866 1_556
C6 Ir1 2.173175 1_546
C6 Sc3 2.335069 1_555
C6 Sc5 2.402825 1_555
C6 Sc0 2.405835 1_556
C6 Sc1 2.406030 1_545
C6 Sc4 2.469866 1_546
C7 Ir0 2.173175 1_565
C7 Sc1 2.335069 1_555
C7 Sc2 2.402825 1_655
C7 Sc4 2.405835 1_555
C7 Sc3 2.406030 1_565
C7 Sc0 2.469866 1_565
