# generated using pymatgen
data_K2NiP2O7
_symmetry_space_group_name_H-M   'P 1'
_cell_length_a   17.86631400
_cell_length_b   8.44116200
_cell_length_c   9.37945399
_cell_angle_alpha   88.59248711
_cell_angle_beta   90.00000000
_cell_angle_gamma   90.00000000
_symmetry_Int_Tables_number   1
_chemical_formula_structural   K2NiP2O7
_chemical_formula_sum   'K16 Ni8 P16 O56'
_cell_volume   1414.11164583
_cell_formula_units_Z   8
loop_
 _symmetry_equiv_pos_site_id
 _symmetry_equiv_pos_as_xyz
  1  'x, y, z'
loop_
 _atom_site_type_symbol
 _atom_site_label
 _atom_site_symmetry_multiplicity
 _atom_site_fract_x
 _atom_site_fract_y
 _atom_site_fract_z
 _atom_site_occupancy
  K  K0  1  0.93176300  0.93990800  0.25029600  1
  K  K1  1  0.53585400  0.27346300  0.00480500  1
  K  K2  1  0.77484100  0.68267100  0.09481300  1
  K  K3  1  0.43176300  0.06009200  0.74970400  1
  K  K4  1  0.89005600  0.44543500  0.75170700  1
  K  K5  1  0.29751700  0.79162300  0.99970300  1
  K  K6  1  0.67864200  0.75218100  0.50262300  1
  K  K7  1  0.03585400  0.72653700  0.99519500  1
  K  K8  1  0.04216000  0.19843200  0.79708100  1
  K  K9  1  0.39005600  0.55456500  0.24829300  1
  K  K10  1  0.79751700  0.20837700  0.00029700  1
  K  K11  1  0.10476800  0.30615900  0.12342100  1
  K  K12  1  0.60476800  0.69384100  0.87657900  1
  K  K13  1  0.27484100  0.31732900  0.90518700  1
  K  K14  1  0.17864200  0.24781900  0.49737700  1
  K  K15  1  0.54216000  0.80156800  0.20291900  1
  Ni  Ni0  1  0.03754000  0.88378500  0.58120200  1
  Ni  Ni1  1  0.79167900  0.09934600  0.58724100  1
  Ni  Ni2  1  0.79438400  0.39585200  0.42065200  1
  Ni  Ni3  1  0.03981700  0.59792600  0.42367200  1
  Ni  Ni4  1  0.53754000  0.11621500  0.41879800  1
  Ni  Ni5  1  0.29438400  0.60414800  0.57934800  1
  Ni  Ni6  1  0.29167900  0.90065400  0.41275900  1
  Ni  Ni7  1  0.53981700  0.40207400  0.57632800  1
  P  P0  1  0.43226100  0.57767000  0.81228200  1
  P  P1  1  0.69886700  0.09421300  0.27655000  1
  P  P2  1  0.62807900  0.09316200  0.73945500  1
  P  P3  1  0.19886700  0.90578700  0.72345000  1
  P  P4  1  0.46423000  0.74830000  0.54063600  1
  P  P5  1  0.36669700  0.24561700  0.45384000  1
  P  P6  1  0.70070300  0.40169100  0.74044700  1
  P  P7  1  0.93226100  0.42233000  0.18771800  1
  P  P8  1  0.86669700  0.75438300  0.54616000  1
  P  P9  1  0.96423000  0.25170000  0.45936400  1
  P  P10  1  0.20070300  0.59830900  0.25955300  1
  P  P11  1  0.39925400  0.08837600  0.18545400  1
  P  P12  1  0.13717100  0.58571600  0.73648700  1
  P  P13  1  0.12807900  0.90683800  0.26054500  1
  P  P14  1  0.89925400  0.91162400  0.81454600  1
  P  P15  1  0.63717100  0.41428400  0.26351300  1
  O  O0  1  0.00116500  0.09398900  0.49098300  1
  O  O1  1  0.08232600  0.99403400  0.14680800  1
  O  O2  1  0.12989300  0.99188500  0.66135000  1
  O  O3  1  0.88140400  0.25760400  0.50388900  1
  O  O4  1  0.74839400  0.16928100  0.39118900  1
  O  O5  1  0.08054100  0.65456400  0.62737000  1
  O  O6  1  0.66916800  0.25370600  0.18457100  1
  O  O7  1  0.13661600  0.50441400  0.33123500  1
  O  O8  1  0.23925800  0.50766000  0.14224800  1
  O  O9  1  0.46612800  0.73029600  0.71548600  1
  O  O10  1  0.63661600  0.49558600  0.66876500  1
  O  O11  1  0.00855700  0.38948200  0.52113500  1
  O  O12  1  0.50116500  0.90601100  0.50901700  1
  O  O13  1  0.50855700  0.61051800  0.47886500  1
  O  O14  1  0.94644700  0.37431300  0.03424300  1
  O  O15  1  0.19387700  0.00133200  0.31939000  1
  O  O16  1  0.85736300  0.06405400  0.76869200  1
  O  O17  1  0.10235900  0.48469600  0.85594100  1
  O  O18  1  0.16916800  0.74629400  0.81542900  1
  O  O19  1  0.60235900  0.51530400  0.14405900  1
  O  O20  1  0.47888400  0.43380300  0.76707300  1
  O  O21  1  0.97888400  0.56619700  0.23292700  1
  O  O22  1  0.62989300  0.00811500  0.33865000  1
  O  O23  1  0.73994600  0.99257000  0.17130500  1
  O  O24  1  0.82699200  0.90149800  0.48632200  1
  O  O25  1  0.20295100  0.49818300  0.66871000  1
  O  O26  1  0.88722300  0.86221100  0.96984800  1
  O  O27  1  0.38722300  0.13778900  0.03015200  1
  O  O28  1  0.86444900  0.76505100  0.72099200  1
  O  O29  1  0.38140400  0.74239600  0.49611100  1
  O  O30  1  0.66360900  0.24648600  0.82379500  1
  O  O31  1  0.44644700  0.62568700  0.96575700  1
  O  O32  1  0.32699200  0.09850200  0.51367800  1
  O  O33  1  0.75614800  0.32968800  0.63385000  1
  O  O34  1  0.16360900  0.75351400  0.17620500  1
  O  O35  1  0.24839400  0.83071900  0.60881100  1
  O  O36  1  0.48316100  0.08325000  0.22431800  1
  O  O37  1  0.07813000  0.82740700  0.37691800  1
  O  O38  1  0.82549000  0.60222400  0.51654500  1
  O  O39  1  0.25614800  0.67031200  0.36615000  1
  O  O40  1  0.44974300  0.25152600  0.49802500  1
  O  O41  1  0.32549000  0.39777600  0.48345500  1
  O  O42  1  0.94974300  0.74847400  0.50197500  1
  O  O43  1  0.34859400  0.56766300  0.77628700  1
  O  O44  1  0.73925800  0.49234000  0.85775200  1
  O  O45  1  0.70295100  0.50181700  0.33129000  1
  O  O46  1  0.58232600  0.00596600  0.85319200  1
  O  O47  1  0.57813000  0.17259300  0.62308200  1
  O  O48  1  0.58054100  0.34543600  0.37263000  1
  O  O49  1  0.98316100  0.91675000  0.77568200  1
  O  O50  1  0.84859400  0.43233700  0.22371300  1
  O  O51  1  0.69387700  0.99866800  0.68061000  1
  O  O52  1  0.35736300  0.93594600  0.23130800  1
  O  O53  1  0.23994600  0.00743000  0.82869500  1
  O  O54  1  0.36444900  0.23494900  0.27900800  1
  O  O55  1  0.96612800  0.26970400  0.28451400  1
loop_
_geom_bond_atom_site_label_1
_geom_bond_atom_site_label_2
_geom_bond_distance
_geom_bond_site_symmetry_2
K0 O26 2.840317 1_554
K0 O42 2.845962 1_555
K0 O55 2.876413 1_565
K0 O1 2.892278 1_655
K0 O0 2.910279 1_665
K0 O24 2.911126 1_555
K0 O37 3.015848 1_655
K0 O21 3.272883 1_555
K1 O19 2.723264 1_555
K1 O36 2.746091 1_555
K1 O20 2.773370 1_554
K1 O46 2.822735 1_554
K1 O30 2.857122 1_554
K1 O27 2.899371 1_555
K1 O6 2.920628 1_555
K2 O50 2.745497 1_555
K2 O26 2.759502 1_554
K2 O23 2.799749 1_555
K2 O44 2.846899 1_554
K2 O45 2.955260 1_555
K3 O27 2.840317 1_556
K3 O40 2.845962 1_555
K3 O9 2.876413 1_545
K3 O46 2.892278 1_555
K3 O12 2.910279 1_545
K3 O32 2.911126 1_555
K3 O47 3.015848 1_555
K3 O20 3.272883 1_555
K4 O28 2.744622 1_555
K4 O38 2.793557 1_555
K4 O33 2.820183 1_555
K4 O3 2.849845 1_555
K4 O14 2.884440 1_556
K4 O44 2.902441 1_555
K4 O11 3.071270 1_655
K4 O16 3.271887 1_555
K5 O53 2.608751 1_565
K5 O52 2.734303 1_556
K5 O18 2.902523 1_555
K5 O8 2.908442 1_556
K5 O34 2.922628 1_556
K5 O43 2.998751 1_555
K5 O31 3.027415 1_555
K6 O51 2.713069 1_555
K6 O45 2.721076 1_555
K6 O10 2.741844 1_555
K6 O22 2.761878 1_565
K6 O38 2.914559 1_555
K6 O24 2.937264 1_555
K6 O13 3.275201 1_555
K7 O17 2.723264 1_555
K7 O49 2.746091 1_455
K7 O21 2.773370 1_456
K7 O1 2.822735 1_556
K7 O34 2.857122 1_556
K7 O26 2.899371 1_455
K7 O18 2.920628 1_555
K8 O49 2.613123 1_445
K8 O2 2.688217 1_545
K8 O17 2.714054 1_555
K8 O11 3.074903 1_555
K8 O0 3.111411 1_555
K8 O14 3.199814 1_456
K9 O54 2.744622 1_555
K9 O41 2.793557 1_555
K9 O39 2.820183 1_555
K9 O29 2.849845 1_555
K9 O31 2.884440 1_554
K9 O8 2.902441 1_555
K9 O13 3.071270 1_555
K9 O52 3.271887 1_555
K10 O23 2.608751 1_545
K10 O16 2.734303 1_554
K10 O6 2.902523 1_555
K10 O44 2.908442 1_554
K10 O30 2.922628 1_554
K10 O50 2.998751 1_555
K10 O14 3.027415 1_555
K11 O7 2.661567 1_555
K11 O1 2.668731 1_545
K11 O17 2.895081 1_554
K11 O55 2.913816 1_455
K11 O8 2.951720 1_555
K11 O14 3.001335 1_455
K12 O10 2.661567 1_555
K12 O46 2.668731 1_565
K12 O19 2.895081 1_556
K12 O9 2.913816 1_555
K12 O44 2.951720 1_555
K12 O31 3.001335 1_555
K13 O43 2.745497 1_555
K13 O27 2.759502 1_556
K13 O53 2.799749 1_555
K13 O8 2.846899 1_556
K13 O25 2.955260 1_555
K14 O15 2.713069 1_555
K14 O25 2.721076 1_555
K14 O7 2.741844 1_555
K14 O2 2.761878 1_545
K14 O41 2.914559 1_555
K14 O32 2.937264 1_555
K14 O11 3.275201 1_555
K15 O36 2.613123 1_565
K15 O22 2.688217 1_565
K15 O19 2.714054 1_555
K15 O13 3.074903 1_555
K15 O12 3.111411 1_555
K15 O31 3.199814 1_554
Ni0 O2 2.038132 1_555
Ni0 O0 2.052566 1_565
Ni0 O42 2.087826 1_455
Ni0 O49 2.091334 1_455
Ni0 O37 2.113886 1_555
Ni0 O5 2.116695 1_555
Ni1 O24 2.039809 1_545
Ni1 O4 2.067518 1_555
Ni1 O16 2.082671 1_555
Ni1 O33 2.101515 1_555
Ni1 O51 2.122704 1_545
Ni1 O3 2.216814 1_555
Ni2 O45 2.033302 1_555
Ni2 O38 2.056557 1_555
Ni2 O3 2.084170 1_555
Ni2 O50 2.101674 1_555
Ni2 O4 2.105996 1_555
Ni2 O33 2.173121 1_555
Ni3 O11 2.040698 1_555
Ni3 O37 2.090798 1_555
Ni3 O7 2.097466 1_555
Ni3 O5 2.110244 1_555
Ni3 O21 2.116896 1_455
Ni3 O42 2.188607 1_455
Ni4 O22 2.038132 1_555
Ni4 O12 2.052566 1_545
Ni4 O40 2.087826 1_555
Ni4 O36 2.091334 1_555
Ni4 O47 2.113886 1_555
Ni4 O48 2.116695 1_555
Ni5 O25 2.033302 1_555
Ni5 O41 2.056557 1_555
Ni5 O29 2.084170 1_555
Ni5 O43 2.101674 1_555
Ni5 O35 2.105996 1_555
Ni5 O39 2.173121 1_555
Ni6 O32 2.039809 1_565
Ni6 O35 2.067518 1_555
Ni6 O52 2.082671 1_555
Ni6 O39 2.101515 1_555
Ni6 O15 2.122704 1_565
Ni6 O29 2.216814 1_555
Ni7 O13 2.040698 1_555
Ni7 O47 2.090798 1_555
Ni7 O10 2.097466 1_555
Ni7 O48 2.110244 1_555
Ni7 O20 2.116896 1_555
Ni7 O40 2.188607 1_555
O0 P9 1.508734 1_455
O1 P13 1.519678 1_555
O2 P3 1.537937 1_555
O3 P9 1.538736 1_555
O4 P1 1.540828 1_555
O5 P12 1.542617 1_555
O6 P15 1.661817 1_555
O6 P1 1.667724 1_555
O7 P10 1.537878 1_555
O8 P10 1.520501 1_555
O9 P4 1.643653 1_555
O9 P0 1.671152 1_555
O10 P6 1.537878 1_555
O11 P9 1.532529 1_455
O12 P4 1.508734 1_555
O13 P4 1.532529 1_555
O14 P7 1.526230 1_555
O15 P13 1.531159 1_545
O16 P14 1.540619 1_545
O17 P12 1.523932 1_555
O18 P12 1.661817 1_555
O18 P3 1.667724 1_555
O19 P15 1.523932 1_555
O20 P0 1.540695 1_555
O21 P7 1.540695 1_555
O22 P1 1.537937 1_555
O23 P1 1.513554 1_565
O24 P8 1.525157 1_555
O25 P12 1.534390 1_555
O26 P14 1.520577 1_555
O27 P11 1.520577 1_555
O28 P8 1.644997 1_555
O28 P14 1.655529 1_555
O29 P4 1.538736 1_555
O30 P6 1.648162 1_555
O30 P2 1.659540 1_555
O31 P0 1.526230 1_555
O32 P5 1.525157 1_555
O33 P6 1.542786 1_555
O34 P10 1.648162 1_555
O34 P13 1.659540 1_555
O35 P3 1.540828 1_555
O36 P11 1.543147 1_555
O37 P13 1.549643 1_555
O38 P8 1.512078 1_555
O39 P10 1.542786 1_555
O40 P5 1.541655 1_555
O41 P5 1.512078 1_555
O42 P8 1.541655 1_555
O43 P0 1.535255 1_555
O44 P6 1.520501 1_555
O45 P15 1.534390 1_555
O46 P2 1.519678 1_555
O47 P2 1.549643 1_555
O48 P15 1.542617 1_555
O49 P14 1.543147 1_555
O50 P7 1.535255 1_555
O51 P2 1.531159 1_565
O52 P11 1.540619 1_565
O53 P3 1.513554 1_545
O54 P5 1.644997 1_555
O54 P11 1.655529 1_555
O55 P9 1.643653 1_555
O55 P7 1.671152 1_555
