# generated using pymatgen
data_HfCuP
_symmetry_space_group_name_H-M   'P 1'
_cell_length_a   3.58721001
_cell_length_b   3.58721001
_cell_length_c   5.58012600
_cell_angle_alpha   90.00000000
_cell_angle_beta   90.00000000
_cell_angle_gamma   120.00000018
_symmetry_Int_Tables_number   1
_chemical_formula_structural   HfCuP
_chemical_formula_sum   'Hf1 Cu1 P1'
_cell_volume   62.18537275
_cell_formula_units_Z   1
loop_
 _symmetry_equiv_pos_site_id
 _symmetry_equiv_pos_as_xyz
  1  'x, y, z'
loop_
 _atom_site_type_symbol
 _atom_site_label
 _atom_site_symmetry_multiplicity
 _atom_site_fract_x
 _atom_site_fract_y
 _atom_site_fract_z
 _atom_site_occupancy
  Hf  Hf0  1  0.00000000  0.00000000  0.98433300  1
  Cu  Cu0  1  0.33333300  0.66666700  0.63799400  1
  P  P0  1  0.33333300  0.66666700  0.23467300  1
loop_
_geom_bond_atom_site_label_1
_geom_bond_atom_site_label_2
_geom_bond_distance
_geom_bond_site_symmetry_2
Hf0 P0 2.498151 1_546
Hf0 P0 2.498154 1_446
Hf0 P0 2.498154 1_556
Cu0 P0 2.250582 1_555
Cu0 Hf0 2.832729 1_565
Cu0 Hf0 2.832731 1_555
Cu0 Hf0 2.832731 1_665
