# generated using pymatgen
data_Tl2Cd2(SO4)3
_symmetry_space_group_name_H-M   'P 1'
_cell_length_a   10.52294500
_cell_length_b   10.54490600
_cell_length_c   10.63213000
_cell_angle_alpha   90.00000000
_cell_angle_beta   90.00000000
_cell_angle_gamma   90.00000000
_symmetry_Int_Tables_number   1
_chemical_formula_structural   Tl2Cd2(SO4)3
_chemical_formula_sum   'Tl8 Cd8 S12 O48'
_cell_volume   1179.77799436
_cell_formula_units_Z   4
loop_
 _symmetry_equiv_pos_site_id
 _symmetry_equiv_pos_as_xyz
  1  'x, y, z'
loop_
 _atom_site_type_symbol
 _atom_site_label
 _atom_site_symmetry_multiplicity
 _atom_site_fract_x
 _atom_site_fract_y
 _atom_site_fract_z
 _atom_site_occupancy
  Tl  Tl0  1  0.29001900  0.19169700  0.80253500  1
  Tl  Tl1  1  0.57763800  0.06210300  0.43353300  1
  Tl  Tl2  1  0.20998100  0.80830300  0.30253500  1
  Tl  Tl3  1  0.79001900  0.30830300  0.19746500  1
  Tl  Tl4  1  0.42236200  0.56210300  0.06646700  1
  Tl  Tl5  1  0.07763800  0.43789700  0.56646700  1
  Tl  Tl6  1  0.70998100  0.69169700  0.69746500  1
  Tl  Tl7  1  0.92236200  0.93789700  0.93353300  1
  Cd  Cd0  1  0.35096700  0.82890700  0.65730600  1
  Cd  Cd1  1  0.06533000  0.58259100  0.90871900  1
  Cd  Cd2  1  0.93467000  0.08259100  0.59128100  1
  Cd  Cd3  1  0.85096700  0.67109300  0.34269400  1
  Cd  Cd4  1  0.43467000  0.41740900  0.40871900  1
  Cd  Cd5  1  0.56533000  0.91740900  0.09128100  1
  Cd  Cd6  1  0.64903300  0.32890700  0.84269400  1
  Cd  Cd7  1  0.14903300  0.17109300  0.15730600  1
  S  S0  1  0.24407600  0.11819200  0.46374000  1
  S  S1  1  0.36922400  0.51130400  0.74020600  1
  S  S2  1  0.96579300  0.27435700  0.87723900  1
  S  S3  1  0.03420700  0.77435700  0.62276100  1
  S  S4  1  0.86922400  0.98869600  0.25979400  1
  S  S5  1  0.74407600  0.38180800  0.53626000  1
  S  S6  1  0.13077600  0.48869600  0.24020600  1
  S  S7  1  0.53420700  0.72564300  0.37723900  1
  S  S8  1  0.63077600  0.01130400  0.75979400  1
  S  S9  1  0.25592400  0.88180800  0.96374000  1
  S  S10  1  0.46579300  0.22564300  0.12276100  1
  S  S11  1  0.75592400  0.61819200  0.03626000  1
  O  O0  1  0.80893500  0.48762000  0.46985200  1
  O  O1  1  0.16447100  0.77642900  0.94605900  1
  O  O2  1  0.33552900  0.22357100  0.44605900  1
  O  O3  1  0.69874700  0.43048000  0.66117400  1
  O  O4  1  0.45033300  0.42319900  0.81573300  1
  O  O5  1  0.33375800  0.25365000  0.07693000  1
  O  O6  1  0.66624200  0.75365000  0.42307000  1
  O  O7  1  0.49712700  0.81998500  0.27918800  1
  O  O8  1  0.07879800  0.35748900  0.25289100  1
  O  O9  1  0.42120200  0.64251100  0.75289100  1
  O  O10  1  0.00287300  0.18001500  0.77918800  1
  O  O11  1  0.13669500  0.53020000  0.10661400  1
  O  O12  1  0.73756500  0.99622100  0.20740800  1
  O  O13  1  0.19106500  0.98762000  0.03014800  1
  O  O14  1  0.47004300  0.09459100  0.17660700  1
  O  O15  1  0.16624200  0.74635000  0.57693000  1
  O  O16  1  0.83375800  0.24635000  0.92307000  1
  O  O17  1  0.52995700  0.59459100  0.32339300  1
  O  O18  1  0.63302500  0.33485800  0.46148600  1
  O  O19  1  0.57879800  0.14251100  0.74710900  1
  O  O20  1  0.54966700  0.92319900  0.68426700  1
  O  O21  1  0.04966700  0.57680100  0.31573300  1
  O  O22  1  0.94321500  0.76526300  0.51701300  1
  O  O23  1  0.69106500  0.51238000  0.96985200  1
  O  O24  1  0.50287300  0.31998500  0.22081200  1
  O  O25  1  0.36330500  0.46980000  0.60661400  1
  O  O26  1  0.95033300  0.07680100  0.18426700  1
  O  O27  1  0.86330500  0.03020000  0.39338600  1
  O  O28  1  0.80125300  0.56952000  0.16117400  1
  O  O29  1  0.99712700  0.68001500  0.72081200  1
  O  O30  1  0.66447100  0.72357100  0.05394100  1
  O  O31  1  0.30125300  0.93048000  0.83882600  1
  O  O32  1  0.97004300  0.40540900  0.82339300  1
  O  O33  1  0.26243500  0.49622100  0.29259200  1
  O  O34  1  0.13302500  0.16514200  0.53851400  1
  O  O35  1  0.19874700  0.06952000  0.33882600  1
  O  O36  1  0.44321500  0.73473700  0.48298700  1
  O  O37  1  0.92120200  0.85748900  0.24710900  1
  O  O38  1  0.23756500  0.50377900  0.79259200  1
  O  O39  1  0.86697500  0.66514200  0.96148600  1
  O  O40  1  0.36697500  0.83485800  0.03851400  1
  O  O41  1  0.05678500  0.26526300  0.98298700  1
  O  O42  1  0.76243500  0.00377900  0.70740800  1
  O  O43  1  0.30893500  0.01238000  0.53014800  1
  O  O44  1  0.63669500  0.96980000  0.89338600  1
  O  O45  1  0.83552900  0.27642900  0.55394100  1
  O  O46  1  0.02995700  0.90540900  0.67660700  1
  O  O47  1  0.55678500  0.23473700  0.01701300  1
loop_
_geom_bond_atom_site_label_1
_geom_bond_atom_site_label_2
_geom_bond_distance
_geom_bond_site_symmetry_2
Cd0 O31 2.268384 1_555
Cd0 O15 2.294932 1_555
Cd0 O36 2.315902 1_555
Cd0 O9 2.332884 1_555
Cd0 O20 2.332960 1_555
Cd0 O43 2.401356 1_565
Cd1 O11 2.301342 1_556
Cd1 O32 2.306341 1_455
Cd1 O1 2.328936 1_555
Cd1 O39 2.330073 1_455
Cd1 O38 2.345200 1_555
Cd1 O29 2.358368 1_455
Cd2 O27 2.301342 1_555
Cd2 O46 2.306341 1_645
Cd2 O45 2.328936 1_555
Cd2 O34 2.330073 1_655
Cd2 O42 2.345200 1_555
Cd2 O10 2.358368 1_655
Cd3 O28 2.268384 1_555
Cd3 O6 2.294932 1_555
Cd3 O22 2.315902 1_555
Cd3 O37 2.332884 1_555
Cd3 O21 2.332960 1_655
Cd3 O0 2.401356 1_555
Cd4 O25 2.301342 1_555
Cd4 O17 2.306341 1_555
Cd4 O2 2.328936 1_555
Cd4 O18 2.330073 1_555
Cd4 O33 2.345200 1_555
Cd4 O24 2.358368 1_555
Cd5 O44 2.301342 1_554
Cd5 O14 2.306341 1_565
Cd5 O30 2.328936 1_555
Cd5 O40 2.330073 1_555
Cd5 O12 2.345200 1_555
Cd5 O7 2.358368 1_555
Cd6 O3 2.268384 1_555
Cd6 O16 2.294932 1_555
Cd6 O47 2.315902 1_556
Cd6 O19 2.332884 1_555
Cd6 O4 2.332960 1_555
Cd6 O23 2.401356 1_555
Cd7 O35 2.268384 1_555
Cd7 O5 2.294932 1_555
Cd7 O41 2.315902 1_554
Cd7 O8 2.332884 1_555
Cd7 O26 2.332960 1_455
Cd7 O13 2.401356 1_545
O0 S5 1.486370 1_555
O1 S9 1.481977 1_555
O2 S0 1.481977 1_555
O3 S5 1.501598 1_555
O3 Tl6 2.783913 1_555
O4 S1 1.495477 1_555
O5 S10 1.501695 1_555
O6 S7 1.501695 1_555
O7 S7 1.492889 1_555
O8 S6 1.493857 1_555
O9 S1 1.493857 1_555
O10 S2 1.492889 1_455
O11 S6 1.487570 1_555
O12 S4 1.495314 1_555
O13 S9 1.486370 1_554
O14 S10 1.496492 1_555
O15 S3 1.501695 1_555
O16 S2 1.501695 1_555
O17 S7 1.496492 1_555
O18 S5 1.497575 1_555
O19 S8 1.493857 1_555
O20 S8 1.495477 1_565
O21 S6 1.495477 1_555
O22 S3 1.479905 1_655
O23 S11 1.486370 1_556
O24 S10 1.492889 1_555
O25 S1 1.487570 1_555
O26 S4 1.495477 1_545
O27 S4 1.487570 1_545
O28 S11 1.501598 1_555
O28 Tl3 2.783913 1_555
O29 S3 1.492889 1_655
O30 S11 1.481977 1_555
O31 S9 1.501598 1_555
O31 Tl0 2.783913 1_565
O32 S2 1.496492 1_555
O33 S6 1.495314 1_555
O34 S0 1.497575 1_555
O35 S0 1.501598 1_555
O35 Tl2 2.783913 1_545
O36 S7 1.479905 1_555
O37 S4 1.493857 1_555
O38 S1 1.495314 1_555
O39 S11 1.497575 1_556
O40 S9 1.497575 1_554
O41 S2 1.479905 1_455
O42 S8 1.495314 1_555
O43 S0 1.486370 1_555
O44 S8 1.487570 1_565
O45 S5 1.481977 1_555
O46 S3 1.496492 1_555
O47 S10 1.479905 1_555
