# generated using pymatgen
data_AgAs(S8F3)2
_symmetry_space_group_name_H-M   'P 1'
_cell_length_a   10.05735195
_cell_length_b   10.05735195
_cell_length_c   16.18068004
_cell_angle_alpha   79.63004224
_cell_angle_beta   79.63004224
_cell_angle_gamma   48.20849837
_symmetry_Int_Tables_number   1
_chemical_formula_structural   AgAs(S8F3)2
_chemical_formula_sum   'Ag2 As2 S32 F12'
_cell_volume   1196.30661434
_cell_formula_units_Z   2
loop_
 _symmetry_equiv_pos_site_id
 _symmetry_equiv_pos_as_xyz
  1  'x, y, z'
loop_
 _atom_site_type_symbol
 _atom_site_label
 _atom_site_symmetry_multiplicity
 _atom_site_fract_x
 _atom_site_fract_y
 _atom_site_fract_z
 _atom_site_occupancy
  Ag  Ag0  1  0.83555500  0.16444500  0.75000000  1
  Ag  Ag1  1  0.16444500  0.83555500  0.25000000  1
  As  As0  1  0.50000000  0.50000000  0.00000000  1
  As  As1  1  0.50000000  0.50000000  0.50000000  1
  S  S0  1  0.99798000  0.71241500  0.43749600  1
  S  S1  1  0.09863500  0.06610300  0.35071000  1
  S  S2  1  0.04290700  0.63825500  0.16525600  1
  S  S3  1  0.95709300  0.36174500  0.83474400  1
  S  S4  1  0.93389700  0.90136500  0.14929000  1
  S  S5  1  0.71241500  0.99798000  0.93749600  1
  S  S6  1  0.10739100  0.49771100  0.37249900  1
  S  S7  1  0.06610300  0.09863500  0.85071000  1
  S  S8  1  0.29813200  0.89932100  0.67011400  1
  S  S9  1  0.91051700  0.72927700  0.91926400  1
  S  S10  1  0.68104600  0.06502100  0.21353400  1
  S  S11  1  0.06502100  0.68104600  0.71353400  1
  S  S12  1  0.52084500  0.22025600  0.75648200  1
  S  S13  1  0.08948300  0.27072300  0.08073600  1
  S  S14  1  0.50228900  0.89260900  0.12750100  1
  S  S15  1  0.10067900  0.70186800  0.82988600  1
  S  S16  1  0.28758500  0.00202000  0.06250400  1
  S  S17  1  0.89260900  0.50228900  0.62750100  1
  S  S18  1  0.93497900  0.31895400  0.28646600  1
  S  S19  1  0.89932100  0.29813200  0.17011400  1
  S  S20  1  0.27072300  0.08948300  0.58073600  1
  S  S21  1  0.72927700  0.91051700  0.41926400  1
  S  S22  1  0.36174500  0.95709300  0.33474400  1
  S  S23  1  0.47915500  0.77974400  0.24351800  1
  S  S24  1  0.00202000  0.28758500  0.56250400  1
  S  S25  1  0.63825500  0.04290700  0.66525600  1
  S  S26  1  0.49771100  0.10739100  0.87249900  1
  S  S27  1  0.31895400  0.93497900  0.78646600  1
  S  S28  1  0.70186800  0.10067900  0.32988600  1
  S  S29  1  0.77974400  0.47915500  0.74351800  1
  S  S30  1  0.22025600  0.52084500  0.25648200  1
  S  S31  1  0.90136500  0.93389700  0.64929000  1
  F  F0  1  0.45895400  0.55325800  0.10622300  1
  F  F1  1  0.56739100  0.62707400  0.96823900  1
  F  F2  1  0.27550500  0.69452500  0.98114500  1
  F  F3  1  0.62707400  0.56739100  0.46823900  1
  F  F4  1  0.43260900  0.37292600  0.03176100  1
  F  F5  1  0.30547500  0.72449500  0.51885500  1
  F  F6  1  0.72449500  0.30547500  0.01885500  1
  F  F7  1  0.69452500  0.27550500  0.48114500  1
  F  F8  1  0.54104600  0.44674200  0.89377700  1
  F  F9  1  0.44674200  0.54104600  0.39377700  1
  F  F10  1  0.37292600  0.43260900  0.53176100  1
  F  F11  1  0.55325800  0.45895400  0.60622300  1
loop_
_geom_bond_atom_site_label_1
_geom_bond_atom_site_label_2
_geom_bond_distance
_geom_bond_site_symmetry_2
Ag0 S7 2.719631 1_655
Ag0 S31 2.719631 1_545
Ag0 S29 2.806768 1_555
Ag0 S12 2.806768 1_555
Ag1 S1 2.719631 1_565
Ag1 S4 2.719631 1_455
Ag1 S23 2.806768 1_555
Ag1 S30 2.806768 1_555
As0 F4 1.774690 1_555
As0 F1 1.774690 1_554
As0 F2 1.778768 1_554
As0 F6 1.778768 1_555
As0 F8 1.786824 1_554
As0 F0 1.786824 1_555
As1 F3 1.774690 1_555
As1 F10 1.774690 1_555
As1 F5 1.778768 1_555
As1 F7 1.778768 1_555
As1 F11 1.786824 1_555
As1 F9 1.786824 1_555
S0 S6 2.052722 1_655
S0 S21 2.063683 1_555
S1 S22 2.064006 1_545
S1 S18 2.083768 1_455
S2 S4 2.064006 1_455
S2 S30 2.065862 1_555
S3 S7 2.064006 1_655
S5 S9 2.063683 1_555
S10 S28 2.049866 1_555
S10 S4 2.083768 1_545
S11 S15 2.049866 1_555
S11 S31 2.083768 1_455
S12 S25 2.065862 1_555
S12 S26 2.072265 1_555
S13 S16 2.063683 1_555
S13 S19 2.066476 1_455
S14 S16 2.052722 1_565
S14 S23 2.072265 1_555
S15 S9 2.066476 1_455
S17 S24 2.052722 1_655
S17 S29 2.072265 1_555
S18 S19 2.049866 1_555
S20 S24 2.063683 1_555
S20 S8 2.066476 1_545
S21 S28 2.066476 1_565
S22 S23 2.065862 1_555
S25 S31 2.064006 1_545
S26 S5 2.052722 1_545
S27 S8 2.049866 1_555
S27 S7 2.083768 1_565
S29 S3 2.065862 1_555
S30 S6 2.072265 1_555
