# generated using pymatgen
data_K6Pb2O5
_symmetry_space_group_name_H-M   'P 1'
_cell_length_a   6.40620833
_cell_length_b   7.60697711
_cell_length_c   12.45444441
_cell_angle_alpha   78.84827554
_cell_angle_beta   84.13403459
_cell_angle_gamma   87.78337248
_symmetry_Int_Tables_number   1
_chemical_formula_structural   K6Pb2O5
_chemical_formula_sum   'K12 Pb4 O10'
_cell_volume   592.23948661
_cell_formula_units_Z   2
loop_
 _symmetry_equiv_pos_site_id
 _symmetry_equiv_pos_as_xyz
  1  'x, y, z'
loop_
 _atom_site_type_symbol
 _atom_site_label
 _atom_site_symmetry_multiplicity
 _atom_site_fract_x
 _atom_site_fract_y
 _atom_site_fract_z
 _atom_site_occupancy
  K  K0  1  0.43333265  0.60754559  0.36531884  1
  K  K1  1  0.56666735  0.39245441  0.63468116  1
  K  K2  1  0.92076710  0.40717378  0.38350785  1
  K  K3  1  0.07923290  0.59282622  0.61649215  1
  K  K4  1  0.31599497  0.94921333  0.12301470  1
  K  K5  1  0.68400503  0.05078667  0.87698530  1
  K  K6  1  0.30473848  0.48777927  0.12223044  1
  K  K7  1  0.69526152  0.51222073  0.87776956  1
  K  K8  1  0.77822671  0.70060238  0.12526459  1
  K  K9  1  0.22177329  0.29939762  0.87473541  1
  K  K10  1  0.40990834  0.13277248  0.37529573  1
  K  K11  1  0.59009166  0.86722752  0.62470427  1
  Pb  Pb0  1  0.91307858  0.87133260  0.35475899  1
  Pb  Pb1  1  0.08692142  0.12866740  0.64524101  1
  Pb  Pb2  1  0.75892521  0.21037736  0.13597779  1
  Pb  Pb3  1  0.24107479  0.78962264  0.86402221  1
  O  O0  1  0.64768585  0.94849954  0.24465233  1
  O  O1  1  0.35231415  0.05150046  0.75534767  1
  O  O2  1  0.51515447  0.24220792  0.02642595  1
  O  O3  1  0.48484553  0.75779208  0.97357405  1
  O  O4  1  0.74582665  0.67400318  0.47810841  1
  O  O5  1  0.25417335  0.32599682  0.52189159  1
  O  O6  1  0.61959938  0.38309313  0.24300931  1
  O  O7  1  0.38040062  0.61690687  0.75699069  1
  O  O8  1  0.08057839  0.69410074  0.25798109  1
  O  O9  1  0.91942161  0.30589926  0.74201891  1
loop_
_geom_bond_atom_site_label_1
_geom_bond_atom_site_label_2
_geom_bond_distance
_geom_bond_site_symmetry_2
K0 O6 2.671415 1_555
K0 O4 2.676611 1_555
K0 O8 2.736666 1_555
K0 O5 2.797156 1_555
K0 O0 3.035956 1_555
K1 O7 2.671415 1_555
K1 O5 2.676611 1_555
K1 O9 2.736666 1_555
K1 O4 2.797156 1_555
K1 O1 3.035956 1_555
K2 O8 2.604222 1_655
K2 O4 2.691332 1_555
K2 O6 2.767531 1_555
K2 O5 2.855245 1_655
K3 O9 2.604222 1_455
K3 O5 2.691332 1_555
K3 O7 2.767531 1_555
K3 O4 2.855245 1_455
K4 O2 2.628997 1_565
K4 O3 2.696189 1_554
K4 O8 2.704154 1_555
K4 O0 2.732045 1_555
K5 O3 2.628997 1_545
K5 O2 2.696189 1_556
K5 O9 2.704154 1_555
K5 O1 2.732045 1_555
K6 O6 2.645374 1_555
K6 O2 2.658760 1_555
K6 O3 2.693251 1_554
K6 O8 2.782031 1_555
K7 O7 2.645374 1_555
K7 O3 2.658760 1_555
K7 O2 2.693251 1_556
K7 O9 2.782031 1_555
K8 O8 2.664888 1_655
K8 O0 2.678571 1_555
K8 O6 2.744437 1_555
K8 O3 2.763223 1_554
K9 O9 2.664888 1_455
K9 O1 2.678571 1_555
K9 O7 2.744437 1_555
K9 O2 2.763223 1_556
K10 O6 2.583954 1_555
K10 O5 2.653593 1_555
K10 O0 2.672661 1_545
K11 O7 2.583954 1_555
K11 O4 2.653593 1_555
K11 O1 2.672661 1_565
O0 Pb2 2.275501 1_565
O0 Pb0 2.281144 1_555
O1 Pb3 2.275501 1_545
O1 Pb1 2.281144 1_555
O2 Pb2 2.153476 1_555
O3 Pb3 2.153476 1_555
O4 Pb0 2.158069 1_555
O5 Pb1 2.158069 1_555
O6 Pb2 2.154837 1_555
O7 Pb3 2.154837 1_555
O8 Pb0 2.161976 1_455
O9 Pb1 2.161976 1_655
