# generated using pymatgen
data_KHfH2OF5
_symmetry_space_group_name_H-M   'P 1'
_cell_length_a   12.33447200
_cell_length_b   7.63751100
_cell_length_c   11.16068529
_cell_angle_alpha   81.19674682
_cell_angle_beta   90.00000000
_cell_angle_gamma   90.00000000
_symmetry_Int_Tables_number   1
_chemical_formula_structural   KHfH2OF5
_chemical_formula_sum   'K8 Hf8 H16 O8 F40'
_cell_volume   1039.00294545
_cell_formula_units_Z   8
loop_
 _symmetry_equiv_pos_site_id
 _symmetry_equiv_pos_as_xyz
  1  'x, y, z'
loop_
 _atom_site_type_symbol
 _atom_site_label
 _atom_site_symmetry_multiplicity
 _atom_site_fract_x
 _atom_site_fract_y
 _atom_site_fract_z
 _atom_site_occupancy
  K  K0  1  0.47634200  0.29626000  0.88039300  1
  K  K1  1  0.97634200  0.70374000  0.61960700  1
  K  K2  1  0.52365800  0.70374000  0.11960700  1
  K  K3  1  0.02365800  0.29626000  0.38039300  1
  K  K4  1  0.53842800  0.79761700  0.64827300  1
  K  K5  1  0.03842800  0.20238300  0.85172700  1
  K  K6  1  0.46157200  0.20238300  0.35172700  1
  K  K7  1  0.96157200  0.79761700  0.14827300  1
  Hf  Hf0  1  0.73765800  0.97670800  0.87686900  1
  Hf  Hf1  1  0.23765800  0.02329200  0.62313100  1
  Hf  Hf2  1  0.26234200  0.02329200  0.12313100  1
  Hf  Hf3  1  0.76234200  0.97670800  0.37686900  1
  Hf  Hf4  1  0.74568500  0.52908500  0.89269800  1
  Hf  Hf5  1  0.24568500  0.47091500  0.60730200  1
  Hf  Hf6  1  0.25431500  0.47091500  0.10730200  1
  Hf  Hf7  1  0.75431500  0.52908500  0.39269800  1
  H  H0  1  0.83632800  0.24865800  0.69960400  1
  H  H1  1  0.33632800  0.75134200  0.80039600  1
  H  H2  1  0.16367200  0.75134200  0.30039600  1
  H  H3  1  0.66367200  0.24865800  0.19960400  1
  H  H4  1  0.84727000  0.06867100  0.64579500  1
  H  H5  1  0.34727000  0.93132900  0.85420500  1
  H  H6  1  0.15273000  0.93132900  0.35420500  1
  H  H7  1  0.65273000  0.06867100  0.14579500  1
  H  H8  1  0.85526700  0.25126300  0.05077300  1
  H  H9  1  0.35526700  0.74873700  0.44922700  1
  H  H10  1  0.14473300  0.74873700  0.94922700  1
  H  H11  1  0.64473300  0.25126300  0.55077300  1
  H  H12  1  0.85129100  0.41672700  0.12539200  1
  H  H13  1  0.35129100  0.58327300  0.37460800  1
  H  H14  1  0.14870900  0.58327300  0.87460800  1
  H  H15  1  0.64870900  0.41672700  0.62539200  1
  O  O0  1  0.84384400  0.12033200  0.72283400  1
  O  O1  1  0.34384400  0.87966800  0.77716600  1
  O  O2  1  0.15615600  0.87966800  0.27716600  1
  O  O3  1  0.65615600  0.12033200  0.22283400  1
  O  O4  1  0.85384500  0.38117300  0.04309900  1
  O  O5  1  0.35384500  0.61882700  0.45690100  1
  O  O6  1  0.14615500  0.61882700  0.95690100  1
  O  O7  1  0.64615500  0.38117300  0.54309900  1
  F  F0  1  0.87985400  0.47496300  0.80210900  1
  F  F1  1  0.37985400  0.52503700  0.69789100  1
  F  F2  1  0.12014600  0.52503700  0.19789100  1
  F  F3  1  0.62014600  0.47496300  0.30210900  1
  F  F4  1  0.72748800  0.25283400  0.88551300  1
  F  F5  1  0.22748800  0.74716600  0.61448700  1
  F  F6  1  0.27251200  0.74716600  0.11448700  1
  F  F7  1  0.77251200  0.25283400  0.38551300  1
  F  F8  1  0.29863200  0.20990400  0.72557100  1
  F  F9  1  0.79863200  0.79009600  0.77442900  1
  F  F10  1  0.70136800  0.79009600  0.27442900  1
  F  F11  1  0.20136800  0.20990400  0.22557100  1
  F  F12  1  0.64878100  0.51105600  0.74756500  1
  F  F13  1  0.14878100  0.48894400  0.75243500  1
  F  F14  1  0.35121900  0.48894400  0.25243500  1
  F  F15  1  0.85121900  0.51105600  0.24756500  1
  F  F16  1  0.79975300  0.71657100  0.99578100  1
  F  F17  1  0.29975300  0.28342900  0.50421900  1
  F  F18  1  0.20024700  0.28342900  0.00421900  1
  F  F19  1  0.70024700  0.71657100  0.49578100  1
  F  F20  1  0.35752800  0.01306800  0.97653900  1
  F  F21  1  0.85752800  0.98693200  0.52346100  1
  F  F22  1  0.64247200  0.98693200  0.02346100  1
  F  F23  1  0.14247200  0.01306800  0.47653900  1
  F  F24  1  0.62003400  0.06223400  0.75843600  1
  F  F25  1  0.12003400  0.93776600  0.74156400  1
  F  F26  1  0.37996600  0.93776600  0.24156400  1
  F  F27  1  0.87996600  0.06223400  0.25843600  1
  F  F28  1  0.87096500  0.03379100  0.97160800  1
  F  F29  1  0.37096500  0.96620900  0.52839200  1
  F  F30  1  0.12903500  0.96620900  0.02839200  1
  F  F31  1  0.62903500  0.03379100  0.47160800  1
  F  F32  1  0.12926800  0.25054900  0.61571500  1
  F  F33  1  0.62926800  0.74945100  0.88428500  1
  F  F34  1  0.87073200  0.74945100  0.38428500  1
  F  F35  1  0.37073200  0.25054900  0.11571500  1
  F  F36  1  0.63383500  0.44620800  0.02088100  1
  F  F37  1  0.13383500  0.55379200  0.47911900  1
  F  F38  1  0.36616500  0.55379200  0.97911900  1
  F  F39  1  0.86616500  0.44620800  0.52088100  1
loop_
_geom_bond_atom_site_label_1
_geom_bond_atom_site_label_2
_geom_bond_distance
_geom_bond_site_symmetry_2
K4 O1 2.915211 1_555
K5 O0 2.915211 1_455
K6 O3 2.915211 1_555
K7 O2 2.915211 1_655
Hf0 O0 2.301504 1_565
Hf1 O1 2.301504 1_545
Hf2 O2 2.301504 1_545
Hf3 O3 2.301504 1_565
Hf4 O4 2.300696 1_556
Hf5 O5 2.300696 1_555
Hf6 O6 2.300696 1_554
Hf7 O7 2.300696 1_555
H0 O0 0.979088 1_555
H1 O1 0.979088 1_555
H2 O2 0.979088 1_555
H3 O3 0.979088 1_555
H4 O0 1.000286 1_555
H5 O1 1.000286 1_555
H6 O2 1.000286 1_555
H7 O3 1.000286 1_555
H8 O4 0.982889 1_555
H9 O5 0.982889 1_555
H10 O6 0.982889 1_555
H11 O7 0.982889 1_555
H12 O4 0.997301 1_555
H13 O5 0.997301 1_555
H14 O6 0.997301 1_555
H15 O7 0.997301 1_555
F0 Hf4 2.014865 1_555
F0 K1 2.743870 1_555
F0 K5 2.848415 1_655
F1 Hf5 2.014865 1_555
F1 K0 2.743870 1_555
F1 K4 2.848415 1_555
F2 Hf6 2.014865 1_555
F2 K3 2.743870 1_555
F2 K7 2.848415 1_455
F3 Hf7 2.014865 1_555
F3 K2 2.743870 1_555
F3 K6 2.848415 1_555
F4 Hf0 2.129516 1_545
F4 Hf4 2.135450 1_555
F5 Hf1 2.129516 1_565
F5 Hf5 2.135450 1_555
F6 Hf2 2.129516 1_565
F6 Hf6 2.135450 1_555
F7 Hf3 2.129516 1_545
F7 Hf7 2.135450 1_555
F8 Hf1 2.098301 1_555
F8 Hf5 2.310269 1_555
F8 K0 2.928176 1_555
F9 Hf0 2.098301 1_555
F9 Hf4 2.310269 1_555
F9 K1 2.928176 1_555
F10 Hf3 2.098301 1_555
F10 Hf7 2.310269 1_555
F10 K2 2.928176 1_555
F11 Hf2 2.098301 1_555
F11 Hf6 2.310269 1_555
F11 K3 2.928176 1_555
F12 H15 1.636746 1_555
F12 Hf4 2.034594 1_555
F12 K4 2.669910 1_555
F12 K0 2.944220 1_555
F13 H14 1.636746 1_555
F13 Hf5 2.034594 1_555
F13 K5 2.669910 1_555
F13 K1 2.944220 1_455
F14 H13 1.636746 1_555
F14 Hf6 2.034594 1_555
F14 K6 2.669910 1_555
F14 K2 2.944220 1_555
F15 H12 1.636746 1_555
F15 Hf7 2.034594 1_555
F15 K7 2.669910 1_555
F15 K3 2.944220 1_655
F16 Hf4 2.079185 1_555
F16 Hf0 2.342694 1_555
F16 K7 2.754258 1_556
F17 Hf5 2.079185 1_555
F17 Hf1 2.342694 1_555
F17 K6 2.754258 1_555
F18 Hf6 2.079185 1_555
F18 Hf2 2.342694 1_555
F18 K5 2.754258 1_554
F19 Hf7 2.079185 1_555
F19 Hf3 2.342694 1_555
F19 K4 2.754258 1_555
F20 H5 1.590836 1_545
F20 Hf2 2.024933 1_556
F20 K0 2.695706 1_555
F21 H4 1.590836 1_565
F21 Hf3 2.024933 1_555
F21 K1 2.695706 1_555
F22 H7 1.590836 1_565
F22 Hf0 2.024933 1_554
F22 K2 2.695706 1_555
F23 H6 1.590836 1_545
F23 Hf1 2.024933 1_555
F23 K3 2.695706 1_555
F24 Hf0 2.003609 1_545
F24 K4 2.714756 1_545
F24 K0 2.988863 1_555
F25 Hf1 2.003609 1_565
F25 K5 2.714756 1_565
F25 K1 2.988863 1_455
F26 Hf2 2.003609 1_565
F26 K6 2.714756 1_565
F26 K2 2.988863 1_555
F27 Hf3 2.003609 1_545
F27 K7 2.714756 1_545
F27 K3 2.988863 1_655
F28 Hf0 2.037840 1_545
F28 K5 2.680923 1_655
F28 K7 2.702157 1_546
F29 Hf1 2.037840 1_565
F29 K4 2.680923 1_555
F29 K6 2.702157 1_565
F30 Hf2 2.037840 1_565
F30 K7 2.680923 1_455
F30 K5 2.702157 1_564
F31 Hf3 2.037840 1_545
F31 K6 2.680923 1_555
F31 K4 2.702157 1_545
F32 Hf1 2.182395 1_555
F32 Hf5 2.203412 1_555
F32 K5 2.834153 1_555
F32 K3 2.904454 1_555
F33 Hf0 2.182395 1_555
F33 Hf4 2.203412 1_555
F33 K4 2.834153 1_555
F33 K2 2.904454 1_556
F34 Hf3 2.182395 1_555
F34 Hf7 2.203412 1_555
F34 K7 2.834153 1_555
F34 K1 2.904454 1_555
F35 Hf2 2.182395 1_555
F35 Hf6 2.203412 1_555
F35 K6 2.834153 1_555
F35 K0 2.904454 1_554
F36 Hf4 2.018280 1_554
F36 K2 2.755531 1_555
F36 K0 2.844869 1_554
F37 Hf5 2.018280 1_555
F37 K3 2.755531 1_555
F37 K1 2.844869 1_455
F38 Hf6 2.018280 1_556
F38 K0 2.755531 1_555
F38 K2 2.844869 1_556
F39 Hf7 2.018280 1_555
F39 K1 2.755531 1_555
F39 K3 2.844869 1_655
