# generated using pymatgen
data_Cu2Pb(SeO3)3
_symmetry_space_group_name_H-M   'P 1'
_cell_length_a   7.91247909
_cell_length_b   9.46063617
_cell_length_c   12.72787627
_cell_angle_alpha   82.74248562
_cell_angle_beta   73.21442770
_cell_angle_gamma   89.85582319
_symmetry_Int_Tables_number   1
_chemical_formula_structural   Cu2Pb(SeO3)3
_chemical_formula_sum   'Cu8 Pb4 Se12 O36'
_cell_volume   904.28937374
_cell_formula_units_Z   4
loop_
 _symmetry_equiv_pos_site_id
 _symmetry_equiv_pos_as_xyz
  1  'x, y, z'
loop_
 _atom_site_type_symbol
 _atom_site_label
 _atom_site_symmetry_multiplicity
 _atom_site_fract_x
 _atom_site_fract_y
 _atom_site_fract_z
 _atom_site_occupancy
  Cu  Cu0  1  0.55750100  0.55931800  0.29715800  1
  Cu  Cu1  1  0.62049400  0.16904900  0.30315400  1
  Cu  Cu2  1  0.77426500  0.16957100  0.03899600  1
  Cu  Cu3  1  0.37950600  0.83095100  0.69684600  1
  Cu  Cu4  1  0.44249900  0.44068200  0.70284200  1
  Cu  Cu5  1  0.22573500  0.83042900  0.96100400  1
  Cu  Cu6  1  0.16536700  0.24155200  0.01370700  1
  Cu  Cu7  1  0.83463300  0.75844800  0.98629300  1
  Pb  Pb0  1  0.05183700  0.14063200  0.34197000  1
  Pb  Pb1  1  0.12532000  0.66202600  0.34878200  1
  Pb  Pb2  1  0.87468000  0.33797400  0.65121800  1
  Pb  Pb3  1  0.94816300  0.85936800  0.65803000  1
  Se  Se0  1  0.67743600  0.62606700  0.50618700  1
  Se  Se1  1  0.91478800  0.44456700  0.17526200  1
  Se  Se2  1  0.12503300  0.10553900  0.80516900  1
  Se  Se3  1  0.08521200  0.55543300  0.82473800  1
  Se  Se4  1  0.43433800  0.87530800  0.12771500  1
  Se  Se5  1  0.87496700  0.89446100  0.19483100  1
  Se  Se6  1  0.55166700  0.62936800  0.87139100  1
  Se  Se7  1  0.63742100  0.09135300  0.55385900  1
  Se  Se8  1  0.36257900  0.90864700  0.44614100  1
  Se  Se9  1  0.44833300  0.37063200  0.12860900  1
  Se  Se10  1  0.32256400  0.37393300  0.49381300  1
  Se  Se11  1  0.56566200  0.12469200  0.87228500  1
  O  O0  1  0.98708400  0.83060000  0.06903300  1
  O  O1  1  0.85066100  0.13989500  0.54972600  1
  O  O2  1  0.25766600  0.38122600  0.63605600  1
  O  O3  1  0.24609400  0.28626900  0.13984500  1
  O  O4  1  0.63291100  0.44266900  0.56042900  1
  O  O5  1  0.43107200  0.77913400  0.83835600  1
  O  O6  1  0.04271600  0.64217700  0.94024800  1
  O  O7  1  0.36708900  0.55733100  0.43957100  1
  O  O8  1  0.73232600  0.53661800  0.15742500  1
  O  O9  1  0.34326200  0.10896200  0.95084100  1
  O  O10  1  0.95728400  0.35782300  0.05975200  1
  O  O11  1  0.14933900  0.86010500  0.45027400  1
  O  O12  1  0.13158600  0.92286700  0.84055400  1
  O  O13  1  0.30297100  0.95305000  0.58295700  1
  O  O14  1  0.34339400  0.74918000  0.06873000  1
  O  O15  1  0.11942900  0.34684100  0.47468800  1
  O  O16  1  0.56323300  0.22679800  0.75028300  1
  O  O17  1  0.62266300  0.92381200  0.63128900  1
  O  O18  1  0.56892800  0.22086600  0.16164400  1
  O  O19  1  0.69702900  0.04695000  0.41704300  1
  O  O20  1  0.65660600  0.25082000  0.93127000  1
  O  O21  1  0.43676700  0.77320200  0.24971700  1
  O  O22  1  0.04073100  0.89910200  0.25728700  1
  O  O23  1  0.01291600  0.16940000  0.93096700  1
  O  O24  1  0.75390600  0.71373100  0.86015500  1
  O  O25  1  0.26767400  0.46338200  0.84257500  1
  O  O26  1  0.18041800  0.69004300  0.71379900  1
  O  O27  1  0.74233400  0.61877400  0.36394400  1
  O  O28  1  0.37733700  0.07618800  0.36871100  1
  O  O29  1  0.38591800  0.43530200  0.25398800  1
  O  O30  1  0.65673800  0.89103800  0.04915900  1
  O  O31  1  0.81958200  0.30995700  0.28620100  1
  O  O32  1  0.88057100  0.65315900  0.52531200  1
  O  O33  1  0.95926900  0.10089800  0.74271300  1
  O  O34  1  0.86841400  0.07713300  0.15944600  1
  O  O35  1  0.61408200  0.56469800  0.74601200  1
loop_
_geom_bond_atom_site_label_1
_geom_bond_atom_site_label_2
_geom_bond_distance
_geom_bond_site_symmetry_2
Cu0 O8 1.948526 1_555
Cu0 O7 1.992500 1_555
Cu0 O27 2.005199 1_555
Cu0 O29 2.030625 1_555
Cu0 O21 2.320865 1_555
Cu1 O18 1.962447 1_555
Cu1 O19 1.970467 1_555
Cu1 O31 2.011650 1_555
Cu1 O28 2.016377 1_555
Cu1 O34 2.504150 1_555
Cu2 O20 1.950622 1_554
Cu2 O23 1.989281 1_654
Cu2 O34 1.996915 1_555
Cu2 O18 2.008639 1_555
Cu2 O10 2.385709 1_555
Cu3 O5 1.962447 1_555
Cu3 O13 1.970467 1_555
Cu3 O26 2.011650 1_555
Cu3 O17 2.016377 1_555
Cu3 O12 2.504150 1_555
Cu4 O25 1.948526 1_555
Cu4 O4 1.992500 1_555
Cu4 O2 2.005199 1_555
Cu4 O35 2.030625 1_555
Cu4 O16 2.320865 1_555
Cu5 O14 1.950622 1_556
Cu5 O0 1.989281 1_456
Cu5 O12 1.996915 1_555
Cu5 O5 2.008639 1_555
Cu5 O6 2.385709 1_555
Cu6 O9 1.946592 1_554
Cu6 O10 1.964869 1_455
Cu6 O3 1.982366 1_555
Cu6 O23 1.987344 1_554
Cu7 O30 1.946592 1_556
Cu7 O6 1.964869 1_655
Cu7 O24 1.982366 1_555
Cu7 O0 1.987344 1_556
O0 Se5 1.771149 1_555
O1 Se7 1.734080 1_555
O1 Pb2 2.443710 1_555
O1 Pb0 2.662783 1_655
O2 Se10 1.743732 1_555
O3 Se9 1.750300 1_555
O3 Pb0 2.776775 1_555
O4 Se0 1.780768 1_555
O4 Pb2 2.637035 1_555
O5 Se6 1.780241 1_555
O6 Se3 1.722189 1_555
O7 Se10 1.780768 1_555
O7 Pb1 2.637035 1_555
O8 Se1 1.739919 1_555
O9 Se11 1.751000 1_555
O10 Se1 1.722189 1_555
O11 Se8 1.734080 1_555
O11 Pb1 2.443710 1_555
O11 Pb3 2.662783 1_455
O12 Se2 1.734521 1_565
O13 Se8 1.772220 1_555
O13 Pb3 2.798081 1_455
O14 Se4 1.745848 1_555
O15 Se10 1.718191 1_555
O15 Pb2 2.499144 1_455
O15 Pb0 2.881849 1_555
O16 Se11 1.727115 1_555
O16 Pb2 2.579199 1_555
O17 Se7 1.742710 1_565
O17 Pb3 2.750779 1_555
O18 Se9 1.780241 1_555
O19 Se7 1.772220 1_555
O19 Pb0 2.798081 1_655
O20 Se11 1.745848 1_555
O21 Se4 1.727115 1_555
O21 Pb1 2.579199 1_555
O22 Se5 1.722053 1_455
O22 Pb1 2.572427 1_555
O22 Pb0 2.658719 1_565
O23 Se2 1.771149 1_555
O24 Se6 1.750300 1_555
O24 Pb3 2.776775 1_555
O25 Se3 1.739919 1_555
O26 Se3 1.766125 1_555
O26 Pb3 2.626501 1_455
O27 Se0 1.743732 1_555
O28 Se8 1.742710 1_545
O28 Pb0 2.750779 1_555
O29 Se9 1.718950 1_555
O30 Se4 1.751000 1_555
O31 Se1 1.766125 1_555
O31 Pb0 2.626501 1_655
O32 Se0 1.718191 1_555
O32 Pb1 2.499144 1_655
O32 Pb3 2.881849 1_555
O33 Se2 1.722053 1_655
O33 Pb2 2.572427 1_555
O33 Pb3 2.658719 1_545
O34 Se5 1.734521 1_545
O35 Se6 1.718950 1_555
