# generated using pymatgen
data_K2Hg2SCl4O3
_symmetry_space_group_name_H-M   'P 1'
_cell_length_a   6.11676100
_cell_length_b   9.79884900
_cell_length_c   10.42896750
_cell_angle_alpha   69.52138002
_cell_angle_beta   90.00000000
_cell_angle_gamma   90.00000000
_symmetry_Int_Tables_number   1
_chemical_formula_structural   K2Hg2SCl4O3
_chemical_formula_sum   'K4 Hg4 S2 Cl8 O6'
_cell_volume   585.57978123
_cell_formula_units_Z   2
loop_
 _symmetry_equiv_pos_site_id
 _symmetry_equiv_pos_as_xyz
  1  'x, y, z'
loop_
 _atom_site_type_symbol
 _atom_site_label
 _atom_site_symmetry_multiplicity
 _atom_site_fract_x
 _atom_site_fract_y
 _atom_site_fract_z
 _atom_site_occupancy
  K  K0  1  0.75000000  0.40008400  0.17706900  1
  K  K1  1  0.75000000  0.87219500  0.94357200  1
  K  K2  1  0.25000000  0.59991600  0.82293100  1
  K  K3  1  0.25000000  0.12780500  0.05642800  1
  Hg  Hg0  1  0.25000000  0.59263900  0.36822700  1
  Hg  Hg1  1  0.75000000  0.88405400  0.47241100  1
  Hg  Hg2  1  0.25000000  0.11594600  0.52758900  1
  Hg  Hg3  1  0.75000000  0.40736100  0.63177300  1
  S  S0  1  0.75000000  0.30743000  0.88189000  1
  S  S1  1  0.25000000  0.69257000  0.11811000  1
  Cl  Cl0  1  0.75000000  0.58011900  0.39237600  1
  Cl  Cl1  1  0.75000000  0.16234300  0.53260100  1
  Cl  Cl2  1  0.25000000  0.98106400  0.76614500  1
  Cl  Cl3  1  0.25000000  0.83765700  0.46739900  1
  Cl  Cl4  1  0.75000000  0.01893600  0.23385500  1
  Cl  Cl5  1  0.25000000  0.41988100  0.60762400  1
  Cl  Cl6  1  0.25000000  0.27680200  0.29316700  1
  Cl  Cl7  1  0.75000000  0.72319800  0.70683300  1
  O  O0  1  0.25000000  0.85247600  0.08060800  1
  O  O1  1  0.45054500  0.64017500  0.06859700  1
  O  O2  1  0.75000000  0.14752400  0.91939200  1
  O  O3  1  0.54945500  0.35982500  0.93140300  1
  O  O4  1  0.95054500  0.35982500  0.93140300  1
  O  O5  1  0.04945500  0.64017500  0.06859700  1
loop_
_geom_bond_atom_site_label_1
_geom_bond_atom_site_label_2
_geom_bond_distance
_geom_bond_site_symmetry_2
K0 O1 2.882258 1_555
K0 O5 2.882258 1_655
K0 O4 2.988587 1_554
K0 O3 2.988587 1_554
K1 O2 2.620353 1_565
K1 O1 2.854803 1_556
K1 O5 2.854803 1_656
K2 O4 2.882258 1_455
K2 O3 2.882258 1_555
K2 O1 2.988587 1_556
K2 O5 2.988587 1_556
K3 O0 2.620353 1_545
K3 O3 2.854803 1_554
K3 O4 2.854803 1_454
Hg0 S1 2.444522 1_555
Hg3 S0 2.444522 1_555
Cl0 Hg3 2.478246 1_555
Cl0 Hg0 3.067662 1_555
Cl0 Hg0 3.067662 1_655
Cl0 K0 3.305431 1_555
Cl1 Hg3 2.927711 1_555
Cl1 Hg1 3.004631 1_545
Cl1 Hg2 3.095117 1_555
Cl1 Hg2 3.095117 1_655
Cl1 K0 3.623679 1_555
Cl2 Hg2 2.373953 1_565
Cl2 K2 3.570979 1_555
Cl3 Hg0 2.927711 1_555
Cl3 Hg2 3.004631 1_565
Cl3 Hg1 3.095117 1_455
Cl3 Hg1 3.095117 1_555
Cl3 K2 3.623679 1_555
Cl4 Hg1 2.373953 1_545
Cl4 K0 3.570979 1_555
Cl5 Hg0 2.478246 1_555
Cl5 Hg3 3.067662 1_555
Cl5 Hg3 3.067662 1_455
Cl5 K2 3.305431 1_555
Cl6 Hg2 2.401048 1_555
Cl6 K3 3.278645 1_555
Cl6 K0 3.354931 1_555
Cl6 K0 3.354931 1_455
Cl7 Hg1 2.401048 1_555
Cl7 K1 3.278645 1_555
Cl7 K2 3.354931 1_555
Cl7 K2 3.354931 1_655
O0 S1 1.476253 1_555
O1 S1 1.490130 1_555
O2 S0 1.476253 1_555
O3 S0 1.490130 1_555
O4 S0 1.490130 1_555
O5 S1 1.490130 1_555
