# generated using pymatgen
data_Zr5Al4
_symmetry_space_group_name_H-M   'P 1'
_cell_length_a   8.43939580
_cell_length_b   8.43939543
_cell_length_c   5.79126092
_cell_angle_alpha   90.00000000
_cell_angle_beta   90.00000000
_cell_angle_gamma   119.99999054
_symmetry_Int_Tables_number   1
_chemical_formula_structural   Zr5Al4
_chemical_formula_sum   'Zr10 Al8'
_cell_volume   357.21237581
_cell_formula_units_Z   2
loop_
 _symmetry_equiv_pos_site_id
 _symmetry_equiv_pos_as_xyz
  1  'x, y, z'
loop_
 _atom_site_type_symbol
 _atom_site_label
 _atom_site_symmetry_multiplicity
 _atom_site_fract_x
 _atom_site_fract_y
 _atom_site_fract_z
 _atom_site_occupancy
  Zr  Zr0  1  0.29112170  0.29112170  0.75000000  1
  Zr  Zr1  1  0.99999900  0.70887830  0.75000000  1
  Zr  Zr2  1  0.00000100  0.29112170  0.25000000  1
  Zr  Zr3  1  0.70887930  0.99999900  0.75000000  1
  Zr  Zr4  1  0.33333300  0.66666600  0.50000000  1
  Zr  Zr5  1  0.70887830  0.70887830  0.25000000  1
  Zr  Zr6  1  0.29112070  0.00000100  0.25000000  1
  Zr  Zr7  1  0.66666700  0.33333400  0.50000000  1
  Zr  Zr8  1  0.66666700  0.33333400  -0.00000000  1
  Zr  Zr9  1  0.33333300  0.66666600  -0.00000000  1
  Al  Al0  1  0.00000000  0.63061804  0.25000000  1
  Al  Al1  1  0.36938196  0.36938196  0.25000000  1
  Al  Al2  1  0.63061804  0.00000000  0.25000000  1
  Al  Al3  1  -0.00000000  -0.00000000  -0.00000000  1
  Al  Al4  1  0.36938196  -0.00000000  0.75000000  1
  Al  Al5  1  0.63061804  0.63061804  0.75000000  1
  Al  Al6  1  -0.00000000  -0.00000000  0.50000000  1
  Al  Al7  1  -0.00000000  0.36938196  0.75000000  1
loop_
_geom_bond_atom_site_label_1
_geom_bond_atom_site_label_2
_geom_bond_distance
_geom_bond_site_symmetry_2
Zr4 Zr9 2.895630 1_556
Zr4 Zr9 2.895630 1_555
Zr7 Zr8 2.895630 1_556
Zr7 Zr8 2.895630 1_555
Al0 Zr5 2.845213 1_455
Al0 Zr6 2.845216 1_565
Al0 Zr2 2.865148 1_555
Al0 Zr1 2.970000 1_455
Al0 Zr1 2.970000 1_454
Al0 Zr7 3.040819 1_455
Al0 Zr8 3.040819 1_455
Al0 Zr9 3.040822 1_555
Al0 Zr4 3.040822 1_555
Al1 Zr6 2.845202 1_555
Al1 Zr2 2.845205 1_555
Al1 Zr5 2.865144 1_555
Al1 Zr0 2.969999 1_554
Al1 Zr0 2.969999 1_555
Al1 Zr4 3.040819 1_555
Al1 Zr9 3.040819 1_555
Al1 Zr8 3.040822 1_555
Al1 Zr7 3.040822 1_555
Al2 Zr5 2.845213 1_545
Al2 Zr2 2.845219 1_655
Al2 Zr6 2.865157 1_555
Al2 Zr3 2.970002 1_544
Al2 Zr3 2.970002 1_545
Al2 Zr8 3.040826 1_555
Al2 Zr7 3.040826 1_555
Al2 Zr4 3.040826 1_545
Al2 Zr9 3.040826 1_545
Al3 Zr6 2.851740 1_555
Al3 Zr3 2.851740 1_444
Al3 Zr2 2.851747 1_555
Al3 Zr1 2.851747 1_444
Al3 Zr0 2.851751 1_554
Al3 Zr5 2.851751 1_445
Al3 Al6 2.895630 1_555
Al3 Al6 2.895630 1_554
Al4 Zr0 2.845213 1_555
Al4 Zr1 2.845219 1_445
Al4 Zr3 2.865157 1_545
Al4 Zr6 2.970002 1_556
Al4 Zr6 2.970002 1_555
Al4 Zr9 3.040826 1_546
Al4 Zr4 3.040826 1_545
Al4 Zr8 3.040826 1_556
Al4 Zr7 3.040826 1_555
Al5 Zr3 2.845202 1_555
Al5 Zr1 2.845205 1_555
Al5 Zr0 2.865144 1_555
Al5 Zr5 2.969999 1_556
Al5 Zr5 2.969999 1_555
Al5 Zr7 3.040819 1_555
Al5 Zr8 3.040819 1_556
Al5 Zr9 3.040822 1_556
Al5 Zr4 3.040822 1_555
Al6 Zr6 2.851740 1_555
Al6 Zr3 2.851740 1_445
Al6 Zr2 2.851747 1_555
Al6 Zr1 2.851747 1_445
Al6 Zr0 2.851751 1_555
Al6 Zr5 2.851751 1_445
Al7 Zr0 2.845213 1_555
Al7 Zr3 2.845216 1_445
Al7 Zr1 2.865148 1_455
Al7 Zr2 2.970000 1_555
Al7 Zr2 2.970000 1_556
Al7 Zr4 3.040819 1_555
Al7 Zr9 3.040819 1_556
Al7 Zr7 3.040822 1_455
Al7 Zr8 3.040822 1_456
