# generated using pymatgen
data_NiMoO4
_symmetry_space_group_name_H-M   'P 1'
_cell_length_a   6.47161581
_cell_length_b   6.47161581
_cell_length_c   7.62656409
_cell_angle_alpha   72.55743086
_cell_angle_beta   72.55743086
_cell_angle_gamma   84.93077179
_symmetry_Int_Tables_number   1
_chemical_formula_structural   NiMoO4
_chemical_formula_sum   'Ni4 Mo4 O16'
_cell_volume   290.71459163
_cell_formula_units_Z   4
loop_
 _symmetry_equiv_pos_site_id
 _symmetry_equiv_pos_as_xyz
  1  'x, y, z'
loop_
 _atom_site_type_symbol
 _atom_site_label
 _atom_site_symmetry_multiplicity
 _atom_site_fract_x
 _atom_site_fract_y
 _atom_site_fract_z
 _atom_site_occupancy
  Ni  Ni0  1  0.31432366  0.31432366  0.84315199  1
  Ni  Ni1  1  0.68567634  0.68567634  0.15684801  1
  Ni  Ni2  1  0.68572217  0.31427783  0.50000000  1
  Ni  Ni3  1  0.31427783  0.68572217  0.50000000  1
  Mo  Mo0  1  0.27979431  0.27979431  0.36254597  1
  Mo  Mo1  1  0.72020569  0.72020569  0.63745403  1
  Mo  Mo2  1  0.71955632  0.28044368  0.00000000  1
  Mo  Mo3  1  0.28044368  0.71955632  0.00000000  1
  O  O0  1  0.34879341  0.65178447  0.76220719  1
  O  O1  1  0.34821553  0.65120659  0.23779281  1
  O  O2  1  0.65120659  0.34821553  0.23779281  1
  O  O3  1  0.65178447  0.34879341  0.76220719  1
  O  O4  1  0.99620157  0.31685787  0.92026147  1
  O  O5  1  0.68314213  0.00379843  0.07973853  1
  O  O6  1  0.00379843  0.68314213  0.07973853  1
  O  O7  1  0.31685787  0.99620157  0.92026147  1
  O  O8  1  0.00337661  0.31609345  0.42297512  1
  O  O9  1  0.68390655  0.99662339  0.57702488  1
  O  O10  1  0.99662339  0.68390655  0.57702488  1
  O  O11  1  0.31609345  0.00337661  0.42297512  1
  O  O12  1  0.34985237  0.34985237  0.56213363  1
  O  O13  1  0.65014763  0.65014763  0.43786637  1
  O  O14  1  0.34640241  0.34640241  0.08840504  1
  O  O15  1  0.65359759  0.65359759  0.91159496  1
loop_
_geom_bond_atom_site_label_1
_geom_bond_atom_site_label_2
_geom_bond_distance
_geom_bond_site_symmetry_2
Ni0 O7 1.964334 1_545
Ni0 O4 1.964334 1_455
Ni0 O14 2.014430 1_556
Ni0 O12 2.029176 1_555
Ni0 O3 2.096579 1_555
Ni0 O0 2.096579 1_555
Ni1 O5 1.964334 1_565
Ni1 O6 1.964334 1_655
Ni1 O15 2.014430 1_554
Ni1 O13 2.029176 1_555
Ni1 O1 2.096579 1_555
Ni1 O2 2.096579 1_555
Ni2 O8 1.961490 1_655
Ni2 O9 1.961490 1_545
Ni2 O3 2.023093 1_555
Ni2 O2 2.023093 1_555
Ni2 O13 2.088459 1_555
Ni2 O12 2.088459 1_555
Ni3 O11 1.961490 1_565
Ni3 O10 1.961490 1_455
Ni3 O0 2.023093 1_555
Ni3 O1 2.023093 1_555
Ni3 O13 2.088459 1_555
Ni3 O12 2.088459 1_555
Mo0 O11 1.721636 1_555
Mo0 O8 1.721636 1_555
Mo0 O12 1.895235 1_555
Mo0 O14 1.922271 1_555
Mo0 O1 2.333087 1_555
Mo0 O2 2.333087 1_555
Mo1 O9 1.721636 1_555
Mo1 O10 1.721636 1_555
Mo1 O13 1.895235 1_555
Mo1 O15 1.922271 1_555
Mo1 O3 2.333087 1_555
Mo1 O0 2.333087 1_555
Mo2 O4 1.722386 1_554
Mo2 O5 1.722386 1_555
Mo2 O3 1.907513 1_554
Mo2 O2 1.907513 1_555
Mo2 O14 2.341547 1_555
Mo2 O15 2.341547 1_554
Mo3 O7 1.722386 1_554
Mo3 O6 1.722386 1_555
Mo3 O0 1.907513 1_554
Mo3 O1 1.907513 1_555
Mo3 O14 2.341547 1_555
Mo3 O15 2.341547 1_554
