# generated using pymatgen
data_CsPr(SO4)2
_symmetry_space_group_name_H-M   'P 1'
_cell_length_a   5.50700500
_cell_length_b   9.72213600
_cell_length_c   14.54146700
_cell_angle_alpha   90.00000000
_cell_angle_beta   90.00000000
_cell_angle_gamma   90.00000000
_symmetry_Int_Tables_number   1
_chemical_formula_structural   CsPr(SO4)2
_chemical_formula_sum   'Cs4 Pr4 S8 O32'
_cell_volume   778.54798468
_cell_formula_units_Z   4
loop_
 _symmetry_equiv_pos_site_id
 _symmetry_equiv_pos_as_xyz
  1  'x, y, z'
loop_
 _atom_site_type_symbol
 _atom_site_label
 _atom_site_symmetry_multiplicity
 _atom_site_fract_x
 _atom_site_fract_y
 _atom_site_fract_z
 _atom_site_occupancy
  Cs  Cs0  1  0.25000000  0.07725500  0.25000000  1
  Cs  Cs1  1  0.25000000  0.42274500  0.75000000  1
  Cs  Cs2  1  0.75000000  0.92274500  0.75000000  1
  Cs  Cs3  1  0.75000000  0.57725500  0.25000000  1
  Pr  Pr0  1  0.67656000  0.25000000  0.50000000  1
  Pr  Pr1  1  0.82344000  0.25000000  0.00000000  1
  Pr  Pr2  1  0.32344000  0.75000000  0.50000000  1
  Pr  Pr3  1  0.17656000  0.75000000  0.00000000  1
  S  S0  1  0.23797800  0.41390300  0.41582700  1
  S  S1  1  0.23797800  0.08609700  0.58417300  1
  S  S2  1  0.26202200  0.41390300  0.08417300  1
  S  S3  1  0.26202200  0.08609700  0.91582700  1
  S  S4  1  0.76202200  0.58609700  0.58417300  1
  S  S5  1  0.76202200  0.91390300  0.41582700  1
  S  S6  1  0.73797800  0.58609700  0.91582700  1
  S  S7  1  0.73797800  0.91390300  0.08417300  1
  O  O0  1  0.30509800  0.40269200  0.51521000  1
  O  O1  1  0.30509800  0.09730800  0.48479000  1
  O  O2  1  0.19490200  0.40269200  0.98479000  1
  O  O3  1  0.19490200  0.09730800  0.01521000  1
  O  O4  1  0.69490200  0.59730800  0.48479000  1
  O  O5  1  0.69490200  0.90269200  0.51521000  1
  O  O6  1  0.80509800  0.59730800  0.01521000  1
  O  O7  1  0.80509800  0.90269200  0.98479000  1
  O  O8  1  0.22593800  0.56151600  0.38808100  1
  O  O9  1  0.22593800  0.93848400  0.61191900  1
  O  O10  1  0.27406200  0.56151600  0.11191900  1
  O  O11  1  0.27406200  0.93848400  0.88808100  1
  O  O12  1  0.77406200  0.43848400  0.61191900  1
  O  O13  1  0.77406200  0.06151600  0.38808100  1
  O  O14  1  0.72593800  0.43848400  0.88808100  1
  O  O15  1  0.72593800  0.06151600  0.11191900  1
  O  O16  1  0.43349400  0.34144500  0.36289300  1
  O  O17  1  0.43349400  0.15855500  0.63710700  1
  O  O18  1  0.06650600  0.34144500  0.13710700  1
  O  O19  1  0.06650600  0.15855500  0.86289300  1
  O  O20  1  0.56650600  0.65855500  0.63710700  1
  O  O21  1  0.56650600  0.84144500  0.36289300  1
  O  O22  1  0.93349400  0.65855500  0.86289300  1
  O  O23  1  0.93349400  0.84144500  0.13710700  1
  O  O24  1  0.99773000  0.34857100  0.39842300  1
  O  O25  1  0.99773000  0.15142900  0.60157700  1
  O  O26  1  0.50227000  0.34857100  0.10157700  1
  O  O27  1  0.50227000  0.15142900  0.89842300  1
  O  O28  1  0.00227000  0.65142900  0.60157700  1
  O  O29  1  0.00227000  0.84857100  0.39842300  1
  O  O30  1  0.49773000  0.65142900  0.89842300  1
  O  O31  1  0.49773000  0.84857100  0.10157700  1
loop_
_geom_bond_atom_site_label_1
_geom_bond_atom_site_label_2
_geom_bond_distance
_geom_bond_site_symmetry_2
Cs0 O18 3.211419 1_555
Cs0 O16 3.211419 1_555
Cs0 O13 3.305251 1_455
Cs0 O15 3.305251 1_555
Cs0 O23 3.314952 1_445
Cs0 O21 3.314952 1_545
Cs0 O31 3.385622 1_545
Cs0 O29 3.385622 1_545
Cs0 O3 3.433187 1_555
Cs0 O1 3.433187 1_555
Cs0 O13 3.519111 1_555
Cs0 O15 3.519111 1_455
Cs0 O26 3.680498 1_555
Cs0 O24 3.680498 1_455
Cs1 O19 3.211419 1_555
Cs1 O17 3.211419 1_555
Cs1 O14 3.305251 1_555
Cs1 O12 3.305251 1_455
Cs1 O22 3.314952 1_455
Cs1 O20 3.314952 1_555
Cs1 O28 3.385622 1_555
Cs1 O30 3.385622 1_555
Cs1 O0 3.433187 1_555
Cs1 O2 3.433187 1_555
Cs1 O12 3.519111 1_555
Cs1 O14 3.519111 1_455
Cs1 O27 3.680498 1_555
Cs1 O25 3.680498 1_455
Cs2 O20 3.211419 1_555
Cs2 O22 3.211419 1_555
Cs2 O9 3.305251 1_655
Cs2 O11 3.305251 1_555
Cs2 O19 3.314952 1_665
Cs2 O17 3.314952 1_565
Cs2 O25 3.385622 1_565
Cs2 O27 3.385622 1_565
Cs2 O7 3.433187 1_555
Cs2 O5 3.433187 1_555
Cs2 O11 3.519111 1_655
Cs2 O9 3.519111 1_555
Cs2 O30 3.680498 1_555
Cs2 O28 3.680498 1_655
Cs3 O23 3.211419 1_555
Cs3 O21 3.211419 1_555
Cs3 O8 3.305251 1_655
Cs3 O10 3.305251 1_555
Cs3 O18 3.314952 1_655
Cs3 O16 3.314952 1_555
Cs3 O26 3.385622 1_555
Cs3 O24 3.385622 1_555
Cs3 O6 3.433187 1_555
Cs3 O4 3.433187 1_555
Cs3 O8 3.519111 1_555
Cs3 O10 3.519111 1_655
Cs3 O31 3.680498 1_555
Cs3 O29 3.680498 1_655
O0 S0 1.495672 1_555
O0 Pr0 2.537182 1_555
O1 S1 1.495672 1_555
O1 Pr0 2.537182 1_555
O2 S2 1.495672 1_556
O2 Pr1 2.537182 1_456
O3 S3 1.495672 1_554
O3 Pr1 2.537182 1_455
O4 S4 1.495672 1_555
O4 Pr2 2.537182 1_555
O5 S5 1.495672 1_555
O5 Pr2 2.537182 1_555
O6 S6 1.495672 1_554
O6 Pr3 2.537182 1_655
O7 S7 1.495672 1_556
O7 Pr3 2.537182 1_656
O8 S0 1.492224 1_555
O8 Pr2 2.508962 1_555
O9 S1 1.492224 1_565
O9 Pr2 2.508962 1_555
O10 S2 1.492224 1_555
O10 Pr3 2.508962 1_555
O11 S3 1.492224 1_565
O11 Pr3 2.508962 1_556
O12 S4 1.492224 1_555
O12 Pr0 2.508962 1_555
O13 S5 1.492224 1_545
O13 Pr0 2.508962 1_555
O14 S6 1.492224 1_555
O14 Pr1 2.508962 1_556
O15 S7 1.492224 1_545
O15 Pr1 2.508962 1_555
O16 S0 1.499347 1_555
O16 Pr0 2.560691 1_555
O17 S1 1.499347 1_555
O17 Pr0 2.560691 1_555
O18 S2 1.499347 1_555
O18 Pr1 2.560691 1_455
O19 S3 1.499347 1_555
O19 Pr1 2.560691 1_456
O20 S4 1.499347 1_555
O20 Pr2 2.560691 1_555
O21 S5 1.499347 1_555
O21 Pr2 2.560691 1_555
O22 S6 1.499347 1_555
O22 Pr3 2.560691 1_656
O23 S7 1.499347 1_555
O23 Pr3 2.560691 1_655
O24 S0 1.489275 1_655
O24 Pr0 2.495673 1_555
O25 S1 1.489275 1_655
O25 Pr0 2.495673 1_555
O26 S2 1.489275 1_555
O26 Pr1 2.495673 1_555
O27 S3 1.489275 1_555
O27 Pr1 2.495673 1_556
O28 S4 1.489275 1_455
O28 Pr2 2.495673 1_555
O29 S5 1.489275 1_455
O29 Pr2 2.495673 1_555
O30 S6 1.489275 1_555
O30 Pr3 2.495673 1_556
O31 S7 1.489275 1_555
O31 Pr3 2.495673 1_555
