# generated using pymatgen
data_La3GaS5O
_symmetry_space_group_name_H-M   'P 1'
_cell_length_a   4.04931300
_cell_length_b   10.85557100
_cell_length_c   20.06910800
_cell_angle_alpha   90.00000000
_cell_angle_beta   90.00000000
_cell_angle_gamma   90.00000000
_symmetry_Int_Tables_number   1
_chemical_formula_structural   La3GaS5O
_chemical_formula_sum   'La12 Ga4 S20 O4'
_cell_volume   882.18991761
_cell_formula_units_Z   4
loop_
 _symmetry_equiv_pos_site_id
 _symmetry_equiv_pos_as_xyz
  1  'x, y, z'
loop_
 _atom_site_type_symbol
 _atom_site_label
 _atom_site_symmetry_multiplicity
 _atom_site_fract_x
 _atom_site_fract_y
 _atom_site_fract_z
 _atom_site_occupancy
  La  La0  1  0.75000000  0.09941800  0.33684600  1
  La  La1  1  0.25000000  0.02032900  0.89703800  1
  La  La2  1  0.25000000  0.64734800  0.99032300  1
  La  La3  1  0.75000000  0.35265200  0.00967700  1
  La  La4  1  0.25000000  0.14734800  0.50967700  1
  La  La5  1  0.75000000  0.47967100  0.39703800  1
  La  La6  1  0.75000000  0.85265200  0.49032300  1
  La  La7  1  0.25000000  0.40058200  0.83684600  1
  La  La8  1  0.75000000  0.59941800  0.16315400  1
  La  La9  1  0.25000000  0.90058200  0.66315400  1
  La  La10  1  0.75000000  0.97967100  0.10296200  1
  La  La11  1  0.25000000  0.52032900  0.60296200  1
  Ga  Ga0  1  0.25000000  0.29351300  0.21059900  1
  Ga  Ga1  1  0.75000000  0.70648700  0.78940100  1
  Ga  Ga2  1  0.75000000  0.20648700  0.71059900  1
  Ga  Ga3  1  0.25000000  0.79351300  0.28940100  1
  S  S0  1  0.75000000  0.87266700  0.96546200  1
  S  S1  1  0.75000000  0.58475800  0.87996800  1
  S  S2  1  0.25000000  0.64769300  0.73818800  1
  S  S3  1  0.75000000  0.72155700  0.61538100  1
  S  S4  1  0.25000000  0.08794700  0.21199700  1
  S  S5  1  0.25000000  0.27844300  0.38461900  1
  S  S6  1  0.25000000  0.91524200  0.37996800  1
  S  S7  1  0.25000000  0.62733300  0.46546200  1
  S  S8  1  0.25000000  0.14769300  0.76181200  1
  S  S9  1  0.25000000  0.58794700  0.28800300  1
  S  S10  1  0.25000000  0.12733300  0.03453800  1
  S  S11  1  0.25000000  0.77844300  0.11538100  1
  S  S12  1  0.75000000  0.08475800  0.62003200  1
  S  S13  1  0.75000000  0.22155700  0.88461900  1
  S  S14  1  0.75000000  0.37266700  0.53453800  1
  S  S15  1  0.75000000  0.91205300  0.78800300  1
  S  S16  1  0.25000000  0.41524200  0.12003200  1
  S  S17  1  0.75000000  0.35230700  0.26181200  1
  S  S18  1  0.75000000  0.85230700  0.23818800  1
  S  S19  1  0.75000000  0.41205300  0.71199700  1
  O  O0  1  0.25000000  0.42516600  0.95790500  1
  O  O1  1  0.75000000  0.57483400  0.04209500  1
  O  O2  1  0.75000000  0.07483400  0.45790500  1
  O  O3  1  0.25000000  0.92516600  0.54209500  1
loop_
_geom_bond_atom_site_label_1
_geom_bond_atom_site_label_2
_geom_bond_distance
_geom_bond_site_symmetry_2
La0 O2 2.444160 1_555
La0 S5 2.965693 1_555
La0 S5 2.965693 1_655
La0 S6 2.974143 1_645
La0 S6 2.974143 1_545
La0 S17 3.131142 1_555
La0 S4 3.223788 1_655
La0 S4 3.223788 1_555
La0 S18 3.334109 1_545
La1 S0 2.924791 1_545
La1 S0 2.924791 1_445
La1 S13 2.988838 1_455
La1 S13 2.988838 1_555
La1 S10 2.994018 1_556
La1 S8 3.045763 1_555
La1 S15 3.204554 1_545
La1 S15 3.204554 1_445
La2 O1 2.407996 1_456
La2 O1 2.407996 1_556
La2 O0 2.498120 1_555
La2 S11 2.885196 1_556
La2 S1 3.076670 1_555
La2 S1 3.076670 1_455
La2 S0 3.214176 1_455
La2 S0 3.214176 1_555
La3 O0 2.407996 1_654
La3 O0 2.407996 1_554
La3 O1 2.498120 1_555
La3 S13 2.885196 1_554
La3 S16 3.076670 1_555
La3 S16 3.076670 1_655
La3 S10 3.214176 1_555
La3 S10 3.214176 1_655
La4 O2 2.407996 1_455
La4 O2 2.407996 1_555
La4 O3 2.498120 1_545
La4 S5 2.885196 1_555
La4 S12 3.076670 1_455
La4 S12 3.076670 1_555
La4 S14 3.214176 1_555
La4 S14 3.214176 1_455
La5 S7 2.924791 1_555
La5 S7 2.924791 1_655
La5 S5 2.988838 1_555
La5 S5 2.988838 1_655
La5 S14 2.994018 1_555
La5 S17 3.045763 1_555
La5 S9 3.204554 1_555
La5 S9 3.204554 1_655
La6 O3 2.407996 1_555
La6 O3 2.407996 1_655
La6 O2 2.498120 1_565
La6 S3 2.885196 1_555
La6 S6 3.076670 1_555
La6 S6 3.076670 1_655
La6 S7 3.214176 1_555
La6 S7 3.214176 1_655
La7 O0 2.444160 1_555
La7 S13 2.965693 1_455
La7 S13 2.965693 1_555
La7 S1 2.974143 1_555
La7 S1 2.974143 1_455
La7 S8 3.131142 1_555
La7 S19 3.223788 1_555
La7 S19 3.223788 1_455
La7 S2 3.334109 1_555
La8 O1 2.444160 1_555
La8 S11 2.965693 1_555
La8 S11 2.965693 1_655
La8 S16 2.974143 1_655
La8 S16 2.974143 1_555
La8 S18 3.131142 1_555
La8 S9 3.223788 1_555
La8 S9 3.223788 1_655
La8 S17 3.334109 1_555
La9 O3 2.444160 1_555
La9 S3 2.965693 1_455
La9 S3 2.965693 1_555
La9 S12 2.974143 1_565
La9 S12 2.974143 1_465
La9 S2 3.131142 1_555
La9 S15 3.223788 1_555
La9 S15 3.223788 1_455
La9 S8 3.334109 1_565
La10 S10 2.924791 1_565
La10 S10 2.924791 1_665
La10 S11 2.988838 1_655
La10 S11 2.988838 1_555
La10 S0 2.994018 1_554
La10 S18 3.045763 1_555
La10 S4 3.204554 1_565
La10 S4 3.204554 1_665
La11 S14 2.924791 1_455
La11 S14 2.924791 1_555
La11 S3 2.988838 1_455
La11 S3 2.988838 1_555
La11 S7 2.994018 1_555
La11 S2 3.045763 1_555
La11 S19 3.204554 1_455
La11 S19 3.204554 1_555
Ga0 S4 2.231713 1_555
Ga0 S16 2.247190 1_555
Ga0 S17 2.358593 1_555
Ga0 S17 2.358593 1_455
Ga1 S15 2.231713 1_555
Ga1 S1 2.247190 1_555
Ga1 S2 2.358593 1_555
Ga1 S2 2.358593 1_655
Ga2 S19 2.231713 1_555
Ga2 S12 2.247190 1_555
Ga2 S8 2.358593 1_655
Ga2 S8 2.358593 1_555
Ga3 S9 2.231713 1_555
Ga3 S6 2.247190 1_555
Ga3 S18 2.358593 1_555
Ga3 S18 2.358593 1_455
