# generated using pymatgen
data_Rb2NaFe(CN)6
_symmetry_space_group_name_H-M   'P 1'
_cell_length_a   7.78492400
_cell_length_b   7.32193200
_cell_length_c   12.87844974
_cell_angle_alpha   55.77630450
_cell_angle_beta   90.00000000
_cell_angle_gamma   90.00000000
_symmetry_Int_Tables_number   1
_chemical_formula_structural   Rb2NaFe(CN)6
_chemical_formula_sum   'Rb4 Na2 Fe2 C12 N12'
_cell_volume   606.97298222
_cell_formula_units_Z   2
loop_
 _symmetry_equiv_pos_site_id
 _symmetry_equiv_pos_as_xyz
  1  'x, y, z'
loop_
 _atom_site_type_symbol
 _atom_site_label
 _atom_site_symmetry_multiplicity
 _atom_site_fract_x
 _atom_site_fract_y
 _atom_site_fract_z
 _atom_site_occupancy
  Rb  Rb0  1  0.92919500  0.72750400  0.75048700  1
  Rb  Rb1  1  0.42919500  0.27249600  0.74951300  1
  Rb  Rb2  1  0.07080500  0.27249600  0.24951300  1
  Rb  Rb3  1  0.57080500  0.72750400  0.25048700  1
  Na  Na0  1  0.00000000  0.50000000  0.50000000  1
  Na  Na1  1  0.50000000  0.50000000  0.00000000  1
  Fe  Fe0  1  0.00000000  0.00000000  0.00000000  1
  Fe  Fe1  1  0.50000000  0.00000000  0.50000000  1
  C  C0  1  0.01938100  0.10140000  0.82788800  1
  C  C1  1  0.51938100  0.89860000  0.67211200  1
  C  C2  1  0.98061900  0.89860000  0.17211200  1
  C  C3  1  0.48061900  0.10140000  0.32788800  1
  C  C4  1  0.13341600  0.24578700  0.96781800  1
  C  C5  1  0.63341600  0.75421300  0.53218200  1
  C  C6  1  0.86658400  0.75421300  0.03218200  1
  C  C7  1  0.36658400  0.24578700  0.46781800  1
  C  C8  1  0.20526800  0.82960700  0.03898800  1
  C  C9  1  0.70526800  0.17039300  0.46101200  1
  C  C10  1  0.79473200  0.17039300  0.96101200  1
  C  C11  1  0.29473200  0.82960700  0.53898800  1
  N  N0  1  0.03380700  0.16549500  0.72148700  1
  N  N1  1  0.53380700  0.83450500  0.77851300  1
  N  N2  1  0.96619300  0.83450500  0.27851300  1
  N  N3  1  0.46619300  0.16549500  0.22148700  1
  N  N4  1  0.21625900  0.39779800  0.94665500  1
  N  N5  1  0.71625800  0.60220200  0.55334500  1
  N  N6  1  0.78374100  0.60220200  0.05334500  1
  N  N7  1  0.28374100  0.39779800  0.44665500  1
  N  N8  1  0.33076500  0.72278700  0.06364700  1
  N  N9  1  0.83076500  0.27721300  0.43635300  1
  N  N10  1  0.66923500  0.27721300  0.93635300  1
  N  N11  1  0.16923500  0.72278700  0.56364700  1
loop_
_geom_bond_atom_site_label_1
_geom_bond_atom_site_label_2
_geom_bond_distance
_geom_bond_site_symmetry_2
C0 N0 1.177778 1_555
C0 Fe0 1.906805 1_556
C1 N1 1.177778 1_555
C1 Fe1 1.906805 1_565
C2 N2 1.177778 1_555
C2 Fe0 1.906805 1_665
C3 N3 1.177778 1_555
C3 Fe1 1.906805 1_555
C4 N4 1.178045 1_555
C4 Fe0 1.910558 1_556
C5 N5 1.178041 1_555
C5 Fe1 1.910558 1_565
C6 N6 1.178045 1_555
C6 Fe0 1.910558 1_665
C7 N7 1.178045 1_555
C7 Fe1 1.910558 1_555
C8 N8 1.178000 1_555
C8 Fe0 1.912480 1_565
C9 N9 1.178000 1_555
C9 Fe1 1.912480 1_555
C10 N10 1.178000 1_555
C10 Fe0 1.912480 1_656
C11 N11 1.178000 1_555
C11 Fe1 1.912480 1_565
N0 Na0 2.519083 1_555
N0 Rb0 3.120888 1_445
N0 Rb1 3.246019 1_555
N1 Na1 2.519083 1_556
N1 Rb1 3.120888 1_565
N1 Rb0 3.246019 1_555
N2 Na0 2.519083 1_655
N2 Rb2 3.120888 1_665
N2 Rb3 3.246019 1_555
N3 Na1 2.519083 1_555
N3 Rb3 3.120888 1_545
N3 Rb2 3.246019 1_555
N4 Na1 2.547445 1_556
N4 Rb0 3.216234 1_455
N5 Na0 2.547451 1_655
N5 Rb1 3.216229 1_555
N6 Na1 2.547445 1_555
N6 Rb2 3.216234 1_655
N7 Na0 2.547445 1_555
N7 Rb3 3.216234 1_555
N8 Na1 2.563699 1_555
N8 Rb3 3.062112 1_555
N8 Rb2 3.437769 1_555
N9 Na0 2.563699 1_655
N9 Rb2 3.062112 1_655
N9 Rb3 3.437769 1_555
N10 Na1 2.563699 1_556
N10 Rb1 3.062112 1_555
N10 Rb0 3.437769 1_555
N11 Na0 2.563699 1_555
N11 Rb0 3.062112 1_455
N11 Rb1 3.437769 1_555
