# generated using pymatgen
data_SrLiFeF6
_symmetry_space_group_name_H-M   'P 1'
_cell_length_a   8.92291100
_cell_length_b   5.37315100
_cell_length_c   10.38543543
_cell_angle_alpha   87.82755018
_cell_angle_beta   90.00000000
_cell_angle_gamma   90.00000000
_symmetry_Int_Tables_number   1
_chemical_formula_structural   SrLiFeF6
_chemical_formula_sum   'Sr4 Li4 Fe4 F24'
_cell_volume   497.56297925
_cell_formula_units_Z   4
loop_
 _symmetry_equiv_pos_site_id
 _symmetry_equiv_pos_as_xyz
  1  'x, y, z'
loop_
 _atom_site_type_symbol
 _atom_site_label
 _atom_site_symmetry_multiplicity
 _atom_site_fract_x
 _atom_site_fract_y
 _atom_site_fract_z
 _atom_site_occupancy
  Sr  Sr0  1  0.70837500  0.75392500  0.49663400  1
  Sr  Sr1  1  0.20837500  0.24607500  0.00336600  1
  Sr  Sr2  1  0.79162500  0.75392500  0.99663400  1
  Sr  Sr3  1  0.29162500  0.24607500  0.50336600  1
  Li  Li0  1  0.07877900  0.71302400  0.73995600  1
  Li  Li1  1  0.57877900  0.28697600  0.76004400  1
  Li  Li2  1  0.92122100  0.28697600  0.26004400  1
  Li  Li3  1  0.42122100  0.71302400  0.23995600  1
  Fe  Fe0  1  0.91530300  0.21671300  0.74059600  1
  Fe  Fe1  1  0.41530300  0.78328700  0.75940400  1
  Fe  Fe2  1  0.58469700  0.21671300  0.24059600  1
  Fe  Fe3  1  0.08469700  0.78328700  0.25940400  1
  F  F0  1  0.26505200  0.60702000  0.86098700  1
  F  F1  1  0.25560800  0.88297500  0.14891300  1
  F  F2  1  0.09299500  0.08447600  0.35761500  1
  F  F3  1  0.74439200  0.11702500  0.85108700  1
  F  F4  1  0.95166700  0.49206700  0.85966900  1
  F  F5  1  0.41889300  0.37451900  0.14616400  1
  F  F6  1  0.91889300  0.62548100  0.35383600  1
  F  F7  1  0.08110700  0.37451900  0.64616400  1
  F  F8  1  0.04833300  0.50793300  0.14033100  1
  F  F9  1  0.03846100  0.00638000  0.86115400  1
  F  F10  1  0.40700500  0.08447600  0.85761500  1
  F  F11  1  0.75560800  0.11702500  0.35108700  1
  F  F12  1  0.90700500  0.91552400  0.64238500  1
  F  F13  1  0.46153900  0.00638000  0.36115400  1
  F  F14  1  0.58110700  0.62548100  0.85383600  1
  F  F15  1  0.96153900  0.99362000  0.13884600  1
  F  F16  1  0.76505200  0.39298000  0.63901300  1
  F  F17  1  0.59299500  0.91552400  0.14238500  1
  F  F18  1  0.53846100  0.99362000  0.63884600  1
  F  F19  1  0.54833300  0.49206700  0.35966900  1
  F  F20  1  0.23494800  0.60702000  0.36098700  1
  F  F21  1  0.45166700  0.50793300  0.64033100  1
  F  F22  1  0.24439200  0.88297500  0.64891300  1
  F  F23  1  0.73494800  0.39298000  0.13901300  1
loop_
_geom_bond_atom_site_label_1
_geom_bond_atom_site_label_2
_geom_bond_distance
_geom_bond_site_symmetry_2
F0 Fe1 1.931752 1_555
F0 Li0 2.147709 1_555
F0 Sr1 2.446654 1_556
F1 Li3 1.961168 1_555
F1 Fe3 1.970471 1_555
F1 Sr1 2.458709 1_565
F2 Fe3 1.946781 1_545
F2 Li2 2.115738 1_455
F2 Sr3 2.507207 1_555
F3 Li1 1.961168 1_555
F3 Fe0 1.970471 1_555
F3 Sr2 2.458709 1_545
F4 Fe0 1.990530 1_555
F4 Li0 2.032185 1_655
F4 Sr2 2.488781 1_555
F5 Fe2 1.951027 1_555
F5 Li3 2.095647 1_555
F5 Sr1 2.506344 1_555
F6 Fe3 1.951027 1_655
F6 Li2 2.095647 1_555
F6 Sr0 2.506344 1_555
F7 Fe0 1.951027 1_455
F7 Li0 2.095647 1_555
F7 Sr3 2.506344 1_555
F8 Fe3 1.990530 1_555
F8 Li2 2.032185 1_455
F8 Sr1 2.488781 1_555
F9 Fe0 1.986260 1_455
F9 Li0 2.085354 1_545
F9 Sr1 2.506575 1_556
F10 Fe1 1.946781 1_545
F10 Li1 2.115738 1_555
F10 Sr1 2.507207 1_556
F11 Li2 1.961168 1_555
F11 Fe2 1.970471 1_555
F11 Sr0 2.458709 1_545
F12 Fe0 1.946781 1_565
F12 Li0 2.115738 1_655
F12 Sr0 2.507207 1_555
F13 Fe2 1.986260 1_555
F13 Li3 2.085354 1_545
F13 Sr3 2.506575 1_555
F14 Fe1 1.951027 1_555
F14 Li1 2.095647 1_555
F14 Sr2 2.506344 1_555
F15 Fe3 1.986260 1_655
F15 Li2 2.085354 1_565
F15 Sr2 2.506575 1_554
F16 Fe0 1.931752 1_555
F16 Li1 2.147709 1_555
F16 Sr0 2.446654 1_555
F17 Fe2 1.946781 1_565
F17 Li3 2.115738 1_555
F17 Sr2 2.507207 1_554
F18 Fe1 1.986260 1_555
F18 Li1 2.085354 1_565
F18 Sr0 2.506575 1_555
F19 Fe2 1.990530 1_555
F19 Li3 2.032185 1_555
F19 Sr0 2.488781 1_555
F20 Fe3 1.931752 1_555
F20 Li3 2.147709 1_555
F20 Sr3 2.446654 1_555
F21 Fe1 1.990530 1_555
F21 Li1 2.032185 1_555
F21 Sr3 2.488781 1_555
F22 Li0 1.961168 1_555
F22 Fe1 1.970471 1_555
F22 Sr3 2.458709 1_565
F23 Fe2 1.931752 1_555
F23 Li2 2.147709 1_555
F23 Sr2 2.446654 1_554
