# generated using pymatgen
data_EuClO
_symmetry_space_group_name_H-M   'P 1'
_cell_length_a   3.93414068
_cell_length_b   3.93414068
_cell_length_c   6.96212735
_cell_angle_alpha   90.00000000
_cell_angle_beta   90.00000000
_cell_angle_gamma   90.00000000
_symmetry_Int_Tables_number   1
_chemical_formula_structural   EuClO
_chemical_formula_sum   'Eu2 Cl2 O2'
_cell_volume   107.75606770
_cell_formula_units_Z   2
loop_
 _symmetry_equiv_pos_site_id
 _symmetry_equiv_pos_as_xyz
  1  'x, y, z'
loop_
 _atom_site_type_symbol
 _atom_site_label
 _atom_site_symmetry_multiplicity
 _atom_site_fract_x
 _atom_site_fract_y
 _atom_site_fract_z
 _atom_site_occupancy
  Eu  Eu0  1  0.25000000  0.25000000  0.17715501  1
  Eu  Eu1  1  0.75000000  0.75000000  0.82284499  1
  Cl  Cl0  1  0.25000000  0.25000000  0.63307400  1
  Cl  Cl1  1  0.75000000  0.75000000  0.36692600  1
  O  O0  1  0.25000000  0.75000000  -0.00000000  1
  O  O1  1  0.75000000  0.25000000  -0.00000000  1
loop_
_geom_bond_atom_site_label_1
_geom_bond_atom_site_label_2
_geom_bond_distance
_geom_bond_site_symmetry_2
Eu0 O1 2.321763 1_555
Eu0 O0 2.321763 1_545
Eu0 O0 2.321763 1_555
Eu0 O1 2.321763 1_455
Eu1 O1 2.321763 1_556
Eu1 O1 2.321763 1_566
Eu1 O0 2.321763 1_556
Eu1 O0 2.321763 1_656
Cl0 Eu1 3.079663 1_555
Cl0 Eu1 3.079663 1_545
Cl0 Eu1 3.079663 1_445
Cl0 Eu1 3.079663 1_455
Cl0 Eu0 3.174166 1_555
Cl1 Eu0 3.079663 1_655
Cl1 Eu0 3.079663 1_565
Cl1 Eu0 3.079663 1_665
Cl1 Eu0 3.079663 1_555
Cl1 Eu1 3.174166 1_555
