# generated using pymatgen
data_As2Pb2O5
_symmetry_space_group_name_H-M   'P 1'
_cell_length_a   5.71561269
_cell_length_b   8.58581130
_cell_length_c   13.67907807
_cell_angle_alpha   70.99009953
_cell_angle_beta   90.00000000
_cell_angle_gamma   90.00000000
_symmetry_Int_Tables_number   1
_chemical_formula_structural   As2Pb2O5
_chemical_formula_sum   'As8 Pb8 O20'
_cell_volume   634.66591923
_cell_formula_units_Z   4
loop_
 _symmetry_equiv_pos_site_id
 _symmetry_equiv_pos_as_xyz
  1  'x, y, z'
loop_
 _atom_site_type_symbol
 _atom_site_label
 _atom_site_symmetry_multiplicity
 _atom_site_fract_x
 _atom_site_fract_y
 _atom_site_fract_z
 _atom_site_occupancy
  As  As0  1  0.86884724  0.38676196  0.93695413  1
  As  As1  1  0.36884724  0.61323804  0.56304587  1
  As  As2  1  0.13115276  0.61323804  0.06304587  1
  As  As3  1  0.63115276  0.38676196  0.43695413  1
  As  As4  1  0.12797709  0.11656297  0.12933301  1
  As  As5  1  0.62797709  0.88343703  0.37066699  1
  As  As6  1  0.87202291  0.88343703  0.87066699  1
  As  As7  1  0.37202291  0.11656297  0.62933301  1
  Pb  Pb0  1  0.34358577  0.14193102  0.88038420  1
  Pb  Pb1  1  0.84358577  0.85806898  0.61961580  1
  Pb  Pb2  1  0.65641423  0.85806898  0.11961580  1
  Pb  Pb3  1  0.15641423  0.14193102  0.38038420  1
  Pb  Pb4  1  0.65659560  0.34968788  0.20111542  1
  Pb  Pb5  1  0.15659560  0.65031212  0.29888458  1
  Pb  Pb6  1  0.34340440  0.65031212  0.79888458  1
  Pb  Pb7  1  0.84340440  0.34968788  0.70111542  1
  O  O0  1  0.66365605  0.34782205  0.85229460  1
  O  O1  1  0.16365605  0.65217795  0.64770540  1
  O  O2  1  0.33634395  0.65217795  0.14770540  1
  O  O3  1  0.83634395  0.34782205  0.35229460  1
  O  O4  1  0.11974048  0.37936617  0.86200315  1
  O  O5  1  0.61974048  0.62063383  0.63799685  1
  O  O6  1  0.88025952  0.62063383  0.13799685  1
  O  O7  1  0.38025952  0.37936617  0.36200315  1
  O  O8  1  0.88800765  0.17932086  0.03314012  1
  O  O9  1  0.38800765  0.82067914  0.46685988  1
  O  O10  1  0.11199235  0.82067914  0.96685988  1
  O  O11  1  0.61199235  0.17932086  0.53314012  1
  O  O12  1  0.04915402  0.23973080  0.20623330  1
  O  O13  1  0.54915402  0.76026920  0.29376670  1
  O  O14  1  0.95084598  0.76026920  0.79376670  1
  O  O15  1  0.45084598  0.23973080  0.70623330  1
  O  O16  1  0.99931895  0.92969918  0.20004390  1
  O  O17  1  0.49931895  0.07030082  0.29995610  1
  O  O18  1  0.00068105  0.07030082  0.79995610  1
  O  O19  1  0.50068105  0.92969918  0.70004390  1
loop_
_geom_bond_atom_site_label_1
_geom_bond_atom_site_label_2
_geom_bond_distance
_geom_bond_site_symmetry_2
As0 O0 1.755154 1_555
As0 O4 1.775946 1_655
As0 O8 1.840831 1_556
As1 O1 1.755154 1_555
As1 O5 1.775946 1_555
As1 O9 1.840831 1_555
As2 O2 1.755154 1_555
As2 O6 1.775946 1_455
As2 O10 1.840831 1_554
As3 O3 1.755154 1_555
As3 O7 1.775946 1_555
As3 O11 1.840831 1_555
As4 O16 1.743387 1_445
As4 O12 1.775530 1_555
As4 O8 1.855010 1_455
As5 O17 1.743387 1_565
As5 O13 1.775530 1_555
As5 O9 1.855010 1_555
As6 O18 1.743387 1_665
As6 O14 1.775530 1_555
As6 O10 1.855010 1_655
As7 O19 1.743387 1_545
As7 O15 1.775530 1_555
As7 O11 1.855010 1_555
O0 Pb7 2.304508 1_555
O0 Pb0 2.485307 1_555
O1 Pb6 2.304508 1_555
O1 Pb1 2.485307 1_455
O2 Pb5 2.304508 1_555
O2 Pb2 2.485307 1_555
O3 Pb4 2.304508 1_555
O3 Pb3 2.485307 1_655
O4 Pb0 2.349889 1_555
O4 Pb6 2.546146 1_555
O4 Pb7 2.787179 1_455
O5 Pb1 2.349889 1_555
O5 Pb7 2.546146 1_555
O5 Pb6 2.787179 1_555
O6 Pb2 2.349889 1_555
O6 Pb4 2.546146 1_555
O6 Pb5 2.787179 1_655
O7 Pb3 2.349889 1_555
O7 Pb5 2.546146 1_555
O7 Pb4 2.787179 1_555
O12 Pb3 2.335116 1_555
O12 Pb4 2.426388 1_455
O13 Pb2 2.335116 1_555
O13 Pb5 2.426388 1_555
O14 Pb1 2.335116 1_555
O14 Pb6 2.426388 1_655
O15 Pb0 2.335116 1_555
O15 Pb7 2.426388 1_555
O16 Pb2 2.422947 1_555
O16 Pb5 2.505460 1_655
O17 Pb3 2.422947 1_555
O17 Pb4 2.505460 1_555
O18 Pb0 2.422947 1_555
O18 Pb7 2.505460 1_455
O19 Pb1 2.422947 1_555
O19 Pb6 2.505460 1_555
