# generated using pymatgen
data_Ti4Ni2O
_symmetry_space_group_name_H-M   'P 1'
_cell_length_a   8.03707750
_cell_length_b   8.03707750
_cell_length_c   8.03707750
_cell_angle_alpha   60.00000000
_cell_angle_beta   60.00000000
_cell_angle_gamma   60.00000000
_symmetry_Int_Tables_number   1
_chemical_formula_structural   Ti4Ni2O
_chemical_formula_sum   'Ti16 Ni8 O4'
_cell_volume   367.09584623
_cell_formula_units_Z   4
loop_
 _symmetry_equiv_pos_site_id
 _symmetry_equiv_pos_as_xyz
  1  'x, y, z'
loop_
 _atom_site_type_symbol
 _atom_site_label
 _atom_site_symmetry_multiplicity
 _atom_site_fract_x
 _atom_site_fract_y
 _atom_site_fract_z
 _atom_site_occupancy
  Ti  Ti0  1  0.93083200  0.93083200  0.56916800  1
  Ti  Ti1  1  0.56916800  0.93083200  0.56916800  1
  Ti  Ti2  1  0.93083200  0.56916800  0.56916800  1
  Ti  Ti3  1  0.56916800  0.56916800  0.93083200  1
  Ti  Ti4  1  0.93083200  0.56916800  0.93083200  1
  Ti  Ti5  1  0.56916800  0.93083200  0.93083200  1
  Ti  Ti6  1  0.31916800  0.31916800  0.68083200  1
  Ti  Ti7  1  0.68083200  0.31916800  0.68083200  1
  Ti  Ti8  1  0.31916800  0.68083200  0.68083200  1
  Ti  Ti9  1  0.68083200  0.68083200  0.31916800  1
  Ti  Ti10  1  0.31916800  0.68083200  0.31916800  1
  Ti  Ti11  1  0.68083200  0.31916800  0.31916800  1
  Ti  Ti12  1  0.12500000  0.12500000  0.62500000  1
  Ti  Ti13  1  0.12500000  0.62500000  0.12500000  1
  Ti  Ti14  1  0.62500000  0.12500000  0.12500000  1
  Ti  Ti15  1  0.12500000  0.12500000  0.12500000  1
  Ni  Ni0  1  0.33625300  0.33625300  0.99124100  1
  Ni  Ni1  1  0.33625300  0.99124100  0.33625300  1
  Ni  Ni2  1  0.99124100  0.33625300  0.33625300  1
  Ni  Ni3  1  0.33625300  0.33625300  0.33625300  1
  Ni  Ni4  1  0.91374700  0.91374700  0.25875900  1
  Ni  Ni5  1  0.91374700  0.25875900  0.91374700  1
  Ni  Ni6  1  0.25875900  0.91374700  0.91374700  1
  Ni  Ni7  1  0.91374700  0.91374700  0.91374700  1
  O  O0  1  0.62500000  0.62500000  0.12500000  1
  O  O1  1  0.62500000  0.12500000  0.62500000  1
  O  O2  1  0.12500000  0.62500000  0.62500000  1
  O  O3  1  0.62500000  0.62500000  0.62500000  1
loop_
_geom_bond_atom_site_label_1
_geom_bond_atom_site_label_2
_geom_bond_distance
_geom_bond_site_symmetry_2
Ni0 Ti15 2.480594 1_556
Ni0 Ti13 2.480594 1_556
Ni0 Ti14 2.480594 1_556
Ni0 Ti6 2.639248 1_555
Ni0 Ti7 2.639248 1_555
Ni0 Ti8 2.639248 1_555
Ni1 Ti15 2.480594 1_565
Ni1 Ti12 2.480594 1_565
Ni1 Ti14 2.480594 1_565
Ni1 Ti10 2.639248 1_555
Ni1 Ti9 2.639248 1_555
Ni1 Ti8 2.639248 1_555
Ni2 Ti15 2.480594 1_655
Ni2 Ti12 2.480594 1_655
Ni2 Ti13 2.480594 1_655
Ni2 Ti11 2.639248 1_555
Ni2 Ti7 2.639248 1_555
Ni2 Ti9 2.639248 1_555
Ni3 Ti12 2.480594 1_555
Ni3 Ti13 2.480594 1_555
Ni3 Ti14 2.480594 1_555
Ni3 Ti6 2.639248 1_555
Ni3 Ti10 2.639248 1_555
Ni3 Ti11 2.639248 1_555
Ni4 Ti14 2.480594 1_565
Ni4 Ti13 2.480594 1_655
Ni4 Ti15 2.480594 1_665
Ni4 Ti2 2.639248 1_555
Ni4 Ti1 2.639248 1_555
Ni4 Ti0 2.639248 1_555
Ni5 Ti12 2.480594 1_655
Ni5 Ti14 2.480594 1_556
Ni5 Ti15 2.480594 1_656
Ni5 Ti3 2.639248 1_555
Ni5 Ti2 2.639248 1_555
Ni5 Ti4 2.639248 1_555
Ni6 Ti13 2.480594 1_556
Ni6 Ti12 2.480594 1_565
Ni6 Ti15 2.480594 1_566
Ni6 Ti3 2.639248 1_555
Ni6 Ti1 2.639248 1_555
Ni6 Ti5 2.639248 1_555
Ni7 Ti13 2.480594 1_656
Ni7 Ti12 2.480594 1_665
Ni7 Ti14 2.480594 1_566
Ni7 Ti4 2.639248 1_555
Ni7 Ti5 2.639248 1_555
Ni7 Ti0 2.639248 1_555
O0 Ti5 2.107101 1_554
O0 Ti10 2.107101 1_555
O0 Ti3 2.107101 1_554
O0 Ti11 2.107101 1_555
O0 Ti9 2.107101 1_555
O0 Ti4 2.107101 1_554
O1 Ti7 2.107101 1_555
O1 Ti1 2.107101 1_545
O1 Ti0 2.107101 1_545
O1 Ti11 2.107101 1_555
O1 Ti5 2.107101 1_545
O1 Ti6 2.107101 1_555
O2 Ti10 2.107101 1_555
O2 Ti2 2.107101 1_455
O2 Ti8 2.107101 1_555
O2 Ti0 2.107101 1_455
O2 Ti4 2.107101 1_455
O2 Ti6 2.107101 1_555
O3 Ti3 2.107101 1_555
O3 Ti7 2.107101 1_555
O3 Ti1 2.107101 1_555
O3 Ti2 2.107101 1_555
O3 Ti8 2.107101 1_555
O3 Ti9 2.107101 1_555
