# generated using pymatgen
data_EuDyCuS3
_symmetry_space_group_name_H-M   'P 1'
_cell_length_a   3.90390100
_cell_length_b   10.22807100
_cell_length_c   12.80250200
_cell_angle_alpha   90.00000000
_cell_angle_beta   90.00000000
_cell_angle_gamma   90.00000000
_symmetry_Int_Tables_number   1
_chemical_formula_structural   EuDyCuS3
_chemical_formula_sum   'Eu4 Dy4 Cu4 S12'
_cell_volume   511.19592384
_cell_formula_units_Z   4
loop_
 _symmetry_equiv_pos_site_id
 _symmetry_equiv_pos_as_xyz
  1  'x, y, z'
loop_
 _atom_site_type_symbol
 _atom_site_label
 _atom_site_symmetry_multiplicity
 _atom_site_fract_x
 _atom_site_fract_y
 _atom_site_fract_z
 _atom_site_occupancy
  Eu  Eu0  1  0.75000000  0.72723500  0.49957200  1
  Eu  Eu1  1  0.25000000  0.27276500  0.50042800  1
  Eu  Eu2  1  0.75000000  0.22723500  0.00042800  1
  Eu  Eu3  1  0.25000000  0.77276500  0.99957200  1
  Dy  Dy0  1  0.75000000  0.48567000  0.75710800  1
  Dy  Dy1  1  0.25000000  0.51433000  0.24289200  1
  Dy  Dy2  1  0.75000000  0.98567000  0.74289200  1
  Dy  Dy3  1  0.25000000  0.01433000  0.25710800  1
  Cu  Cu0  1  0.75000000  0.26293600  0.27653100  1
  Cu  Cu1  1  0.25000000  0.73706400  0.72346900  1
  Cu  Cu2  1  0.75000000  0.76293600  0.22346900  1
  Cu  Cu3  1  0.25000000  0.23706400  0.77653100  1
  S  S0  1  0.75000000  0.44586300  0.38548900  1
  S  S1  1  0.25000000  0.55413700  0.61451100  1
  S  S2  1  0.75000000  0.94586300  0.11451100  1
  S  S3  1  0.25000000  0.05413700  0.88548900  1
  S  S4  1  0.75000000  0.08944200  0.39338500  1
  S  S5  1  0.25000000  0.91055800  0.60661500  1
  S  S6  1  0.75000000  0.58944200  0.10661500  1
  S  S7  1  0.25000000  0.41055800  0.89338500  1
  S  S8  1  0.75000000  0.23938700  0.67067600  1
  S  S9  1  0.25000000  0.76061300  0.32932400  1
  S  S10  1  0.75000000  0.73938700  0.82932400  1
  S  S11  1  0.25000000  0.26061300  0.17067600  1
loop_
_geom_bond_atom_site_label_1
_geom_bond_atom_site_label_2
_geom_bond_distance
_geom_bond_site_symmetry_2
Eu0 S9 2.945729 1_655
Eu0 S9 2.945729 1_555
Eu0 S1 3.018272 1_555
Eu0 S1 3.018272 1_655
Eu0 S5 3.033799 1_555
Eu0 S5 3.033799 1_655
Eu0 S0 3.227300 1_555
Eu1 S8 2.945729 1_455
Eu1 S8 2.945729 1_555
Eu1 S0 3.018272 1_555
Eu1 S0 3.018272 1_455
Eu1 S4 3.033799 1_555
Eu1 S4 3.033799 1_455
Eu1 S1 3.227300 1_555
Eu2 S11 2.945729 1_555
Eu2 S11 2.945729 1_655
Eu2 S3 3.018272 1_654
Eu2 S3 3.018272 1_554
Eu2 S7 3.033799 1_554
Eu2 S7 3.033799 1_654
Eu2 S2 3.227300 1_545
Eu3 S10 2.945729 1_455
Eu3 S10 2.945729 1_555
Eu3 S2 3.018272 1_456
Eu3 S2 3.018272 1_556
Eu3 S6 3.033799 1_456
Eu3 S6 3.033799 1_556
Eu3 S3 3.227300 1_565
Dy0 S7 2.728416 1_555
Dy0 S7 2.728416 1_655
Dy0 S8 2.751328 1_555
Dy0 S10 2.754813 1_555
Dy0 S1 2.762846 1_555
Dy0 S1 2.762846 1_655
Dy1 S6 2.728416 1_555
Dy1 S6 2.728416 1_455
Dy1 S9 2.751328 1_555
Dy1 S11 2.754813 1_555
Dy1 S0 2.762846 1_455
Dy1 S0 2.762846 1_555
Dy2 S5 2.728416 1_555
Dy2 S5 2.728416 1_655
Dy2 S10 2.751328 1_555
Dy2 S8 2.754813 1_565
Dy2 S3 2.762846 1_665
Dy2 S3 2.762846 1_565
Dy3 S4 2.728416 1_455
Dy3 S4 2.728416 1_555
Dy3 S11 2.751328 1_555
Dy3 S9 2.754813 1_545
Dy3 S2 2.762846 1_545
Dy3 S2 2.762846 1_445
Cu0 S4 2.320984 1_555
Cu0 S0 2.333763 1_555
Cu0 S11 2.376398 1_555
Cu0 S11 2.376398 1_655
Cu1 S5 2.320984 1_555
Cu1 S1 2.333763 1_555
Cu1 S10 2.376398 1_555
Cu1 S10 2.376398 1_455
Cu2 S6 2.320984 1_555
Cu2 S2 2.333763 1_555
Cu2 S9 2.376398 1_655
Cu2 S9 2.376398 1_555
Cu3 S7 2.320984 1_555
Cu3 S3 2.333763 1_555
Cu3 S8 2.376398 1_555
Cu3 S8 2.376398 1_455
