# generated using pymatgen
data_ZnS
_symmetry_space_group_name_H-M   'P 1'
_cell_length_a   3.80710241
_cell_length_b   3.80710208
_cell_length_c   99.67937160
_cell_angle_alpha   90.00000000
_cell_angle_beta   90.00000000
_cell_angle_gamma   119.99999411
_symmetry_Int_Tables_number   1
_chemical_formula_structural   ZnS
_chemical_formula_sum   'Zn32 S32'
_cell_volume   1251.19508521
_cell_formula_units_Z   32
loop_
 _symmetry_equiv_pos_site_id
 _symmetry_equiv_pos_as_xyz
  1  'x, y, z'
loop_
 _atom_site_type_symbol
 _atom_site_label
 _atom_site_symmetry_multiplicity
 _atom_site_fract_x
 _atom_site_fract_y
 _atom_site_fract_z
 _atom_site_occupancy
  Zn  Zn0  1  0.66666700  0.33333300  0.87503860  1
  Zn  Zn1  1  0.33333300  0.66666700  0.03127406  1
  Zn  Zn2  1  0.00000000  -0.00000000  0.68752511  1
  Zn  Zn3  1  0.33333300  0.66666700  0.50005076  1
  Zn  Zn4  1  0.66666700  0.33333300  0.15629591  1
  Zn  Zn5  1  -0.00000000  -0.00000000  0.28130298  1
  Zn  Zn6  1  0.00000000  -0.00000000  0.84378277  1
  Zn  Zn7  1  0.66666700  0.33333300  0.96876709  1
  Zn  Zn8  1  -0.00000000  0.00000000  0.37504441  1
  Zn  Zn9  1  0.00000000  -0.00000000  0.78124461  1
  Zn  Zn10  1  0.33333300  0.66666700  0.12503637  1
  Zn  Zn11  1  0.33333300  0.66666700  0.71875792  1
  Zn  Zn12  1  0.66666700  0.33333300  0.46880036  1
  Zn  Zn13  1  0.00000000  -0.00000000  0.18754486  1
  Zn  Zn14  1  0.66666700  0.33333300  0.74999884  1
  Zn  Zn15  1  0.66666700  0.33333300  0.34381037  1
  Zn  Zn16  1  0.33333300  0.66666700  0.90627750  1
  Zn  Zn17  1  0.33333300  0.66666700  0.21880058  1
  Zn  Zn18  1  0.00000000  -0.00000000  0.53128807  1
  Zn  Zn19  1  0.66666700  0.33333300  0.56253312  1
  Zn  Zn20  1  0.66666700  0.33333300  0.06253147  1
  Zn  Zn21  1  0.66666700  0.33333300  0.81251727  1
  Zn  Zn22  1  -0.00000000  -0.00000000  0.09378021  1
  Zn  Zn23  1  0.00000000  -0.00000000  0.93750980  1
  Zn  Zn24  1  0.33333300  0.66666700  0.31255649  1
  Zn  Zn25  1  0.33333300  0.66666700  0.40630298  1
  Zn  Zn26  1  0.00000000  -0.00000000  0.43756482  1
  Zn  Zn27  1  0.66666700  0.33333300  0.65626396  1
  Zn  Zn28  1  0.66666700  0.33333300  0.25005825  1
  Zn  Zn29  1  0.00000000  -0.00000000  0.62500977  1
  Zn  Zn30  1  0.33333300  0.66666700  0.59377952  1
  Zn  Zn31  1  -0.00000000  0.00000000  0.00003333  1
  S  S0  1  0.33333300  0.66666700  0.24219881  1
  S  S1  1  0.66666700  0.33333300  0.49219509  1
  S  S2  1  0.66666700  0.33333300  0.08593174  1
  S  S3  1  0.33333300  0.66666700  0.52344148  1
  S  S4  1  0.00000000  -0.00000000  0.46094926  1
  S  S5  1  0.00000000  -0.00000000  0.02342771  1
  S  S6  1  0.66666700  0.33333300  0.58593156  1
  S  S7  1  0.33333300  0.66666700  0.74216032  1
  S  S8  1  0.33333300  0.66666700  0.92967589  1
  S  S9  1  0.00000000  -0.00000000  0.21094330  1
  S  S10  1  -0.00000000  -0.00000000  0.30469948  1
  S  S11  1  0.00000000  -0.00000000  0.86720776  1
  S  S12  1  0.66666700  0.33333300  0.17969179  1
  S  S13  1  0.33333300  0.66666700  0.42972349  1
  S  S14  1  0.66666700  0.33333300  0.67969294  1
  S  S15  1  0.66666700  0.33333300  0.36719824  1
  S  S16  1  0.66666700  0.33333300  0.89843559  1
  S  S17  1  -0.00000000  -0.00000000  0.64839496  1
  S  S18  1  0.00000000  -0.00000000  0.55468465  1
  S  S19  1  0.33333300  0.66666700  0.33595192  1
  S  S20  1  0.33333300  0.66666700  0.05467964  1
  S  S21  1  0.66666700  0.33333300  0.77338360  1
  S  S22  1  0.00000000  -0.00000000  0.39842322  1
  S  S23  1  0.66666700  0.33333300  0.27345059  1
  S  S24  1  0.00000000  -0.00000000  0.96089593  1
  S  S25  1  0.66666700  0.33333300  0.99219730  1
  S  S26  1  0.33333300  0.66666700  0.14843823  1
  S  S27  1  0.00000000  -0.00000000  0.11718296  1
  S  S28  1  0.00000000  -0.00000000  0.71091823  1
  S  S29  1  -0.00000000  0.00000000  0.80465859  1
  S  S30  1  0.66666700  0.33333300  0.83592393  1
  S  S31  1  0.33333300  0.66666700  0.61717464  1
loop_
_geom_bond_atom_site_label_1
_geom_bond_atom_site_label_2
_geom_bond_distance
_geom_bond_site_symmetry_2
S0 Zn17 2.332321 1_555
S0 Zn28 2.333471 1_565
S0 Zn28 2.333471 1_455
S0 Zn28 2.333477 1_555
S1 Zn12 2.331972 1_555
S1 Zn3 2.333345 1_545
S1 Zn3 2.333345 1_655
S1 Zn3 2.333351 1_555
S2 Zn20 2.332524 1_555
S2 Zn22 2.333104 1_655
S2 Zn22 2.333107 1_665
S2 Zn22 2.333107 1_555
S3 Zn3 2.331572 1_555
S3 Zn18 2.333041 1_565
S3 Zn18 2.333044 1_555
S3 Zn18 2.333044 1_665
S4 Zn26 2.330946 1_555
S4 Zn12 2.333192 1_455
S4 Zn12 2.333195 1_445
S4 Zn12 2.333195 1_555
S5 Zn31 2.331937 1_555
S5 Zn1 2.333033 1_545
S5 Zn1 2.333036 1_555
S5 Zn1 2.333036 1_445
S6 Zn19 2.332342 1_555
S6 Zn30 2.333087 1_545
S6 Zn30 2.333087 1_655
S6 Zn30 2.333093 1_555
S7 Zn11 2.332737 1_555
S7 Zn14 2.332772 1_565
S7 Zn14 2.332772 1_455
S7 Zn14 2.332778 1_555
S8 Zn16 2.332337 1_555
S8 Zn23 2.332618 1_565
S8 Zn23 2.332621 1_555
S8 Zn23 2.332621 1_665
S9 Zn13 2.332342 1_555
S9 Zn17 2.333398 1_545
S9 Zn17 2.333402 1_555
S9 Zn17 2.333402 1_445
S10 Zn5 2.332148 1_555
S10 Zn24 2.333389 1_545
S10 Zn24 2.333393 1_555
S10 Zn24 2.333393 1_445
S11 Zn0 2.332515 1_455
S11 Zn0 2.332518 1_445
S11 Zn0 2.332519 1_555
S11 Zn6 2.334988 1_555
S12 Zn4 2.332087 1_555
S12 Zn13 2.333258 1_655
S12 Zn13 2.333261 1_665
S12 Zn13 2.333261 1_555
S13 Zn26 2.332865 1_565
S13 Zn26 2.332869 1_555
S13 Zn26 2.332869 1_665
S13 Zn25 2.334542 1_555
S14 Zn2 2.332560 1_655
S14 Zn2 2.332563 1_665
S14 Zn2 2.332563 1_555
S14 Zn27 2.335386 1_555
S15 Zn15 2.331288 1_555
S15 Zn8 2.333027 1_655
S15 Zn8 2.333030 1_665
S15 Zn8 2.333030 1_555
S16 Zn0 2.332197 1_555
S16 Zn16 2.332885 1_545
S16 Zn16 2.332885 1_655
S16 Zn16 2.332891 1_555
S17 Zn29 2.331021 1_555
S17 Zn27 2.333791 1_455
S17 Zn27 2.333794 1_445
S17 Zn27 2.333794 1_555
S18 Zn18 2.332156 1_555
S18 Zn19 2.333104 1_455
S18 Zn19 2.333107 1_445
S18 Zn19 2.333107 1_555
S19 Zn24 2.332042 1_555
S19 Zn15 2.333438 1_565
S19 Zn15 2.333438 1_455
S19 Zn15 2.333444 1_555
S20 Zn1 2.333054 1_555
S20 Zn20 2.333216 1_565
S20 Zn20 2.333216 1_455
S20 Zn20 2.333222 1_555
S21 Zn14 2.330978 1_555
S21 Zn9 2.333523 1_655
S21 Zn9 2.333527 1_665
S21 Zn9 2.333527 1_555
S22 Zn8 2.330385 1_555
S22 Zn25 2.334152 1_545
S22 Zn25 2.334155 1_555
S22 Zn25 2.334155 1_445
S23 Zn28 2.331734 1_555
S23 Zn5 2.333235 1_655
S23 Zn5 2.333238 1_665
S23 Zn5 2.333238 1_555
S24 Zn23 2.331115 1_555
S24 Zn7 2.333863 1_455
S24 Zn7 2.333866 1_445
S24 Zn7 2.333867 1_555
S25 Zn31 2.332688 1_656
S25 Zn31 2.332692 1_666
S25 Zn31 2.332692 1_556
S25 Zn7 2.335509 1_555
S26 Zn10 2.332683 1_555
S26 Zn4 2.333412 1_565
S26 Zn4 2.333412 1_455
S26 Zn4 2.333418 1_555
S27 Zn22 2.332771 1_555
S27 Zn10 2.333269 1_545
S27 Zn10 2.333272 1_555
S27 Zn10 2.333272 1_445
S28 Zn2 2.331812 1_555
S28 Zn11 2.332811 1_545
S28 Zn11 2.332814 1_555
S28 Zn11 2.332814 1_445
S29 Zn21 2.333445 1_455
S29 Zn21 2.333449 1_445
S29 Zn21 2.333449 1_555
S29 Zn9 2.333891 1_555
S30 Zn21 2.333161 1_555
S30 Zn6 2.333451 1_655
S30 Zn6 2.333454 1_665
S30 Zn6 2.333454 1_555
S31 Zn30 2.332011 1_555
S31 Zn29 2.332658 1_565
S31 Zn29 2.332662 1_555
S31 Zn29 2.332662 1_665
