# generated using pymatgen
data_Ba(AsPd)2
_symmetry_space_group_name_H-M   'P 1'
_cell_length_a   4.53803235
_cell_length_b   4.53803162
_cell_length_c   10.85961738
_cell_angle_alpha   101.93649127
_cell_angle_beta   101.93649256
_cell_angle_gamma   90.13309882
_symmetry_Int_Tables_number   1
_chemical_formula_structural   Ba(AsPd)2
_chemical_formula_sum   'Ba2 As4 Pd4'
_cell_volume   213.83555367
_cell_formula_units_Z   2
loop_
 _symmetry_equiv_pos_site_id
 _symmetry_equiv_pos_as_xyz
  1  'x, y, z'
loop_
 _atom_site_type_symbol
 _atom_site_label
 _atom_site_symmetry_multiplicity
 _atom_site_fract_x
 _atom_site_fract_y
 _atom_site_fract_z
 _atom_site_occupancy
  Ba  Ba0  1  0.62399216  0.62399216  0.24748037  1
  Ba  Ba1  1  0.37599366  0.37599366  0.75253038  1
  As  As0  1  0.25018067  0.74978702  0.49997418  1
  As  As1  1  0.93431086  0.93431086  0.86766287  1
  As  As2  1  0.06573229  0.06573229  0.13243806  1
  As  As3  1  0.74978702  0.25018067  0.49997418  1
  Pd  Pd0  1  0.50003432  0.00002182  0.00001787  1
  Pd  Pd1  1  0.19636126  0.19636126  0.39155279  1
  Pd  Pd2  1  0.00002182  0.50003432  0.00001787  1
  Pd  Pd3  1  0.80358492  0.80358492  0.60835242  1
loop_
_geom_bond_atom_site_label_1
_geom_bond_atom_site_label_2
_geom_bond_distance
_geom_bond_site_symmetry_2
Ba0 Pd0 3.424363 1_565
Ba0 Pd2 3.424363 1_655
Ba0 Pd0 3.431588 1_555
Ba0 Pd2 3.431588 1_555
Ba0 Pd1 3.531876 1_555
Ba0 Pd1 3.542279 1_665
Ba0 Pd1 3.543838 1_565
Ba0 Pd1 3.543838 1_655
Ba1 Pd0 3.424422 1_556
Ba1 Pd2 3.424423 1_556
Ba1 Pd0 3.431919 1_566
Ba1 Pd2 3.431919 1_656
Ba1 Pd3 3.532415 1_555
Ba1 Pd3 3.542669 1_445
Ba1 Pd3 3.544300 1_545
Ba1 Pd3 3.544300 1_455
As0 Pd3 2.531285 1_555
As0 Pd1 2.531484 1_555
As0 Pd3 2.534226 1_455
As0 Pd1 2.534424 1_565
As0 Ba0 3.464553 1_555
As0 Ba1 3.465081 1_555
As0 Ba0 3.470055 1_455
As0 Ba1 3.470506 1_565
As1 Pd2 2.652524 1_656
As1 Pd0 2.652524 1_566
As1 Pd2 2.653011 1_666
As1 Pd0 2.653011 1_666
As1 Pd3 2.692597 1_555
As1 As2 2.749307 1_666
As1 Ba1 3.413628 1_665
As1 Ba1 3.427831 1_655
As1 Ba1 3.427832 1_565
As1 Ba1 3.428049 1_555
As2 Pd2 2.653099 1_555
As2 Pd0 2.653099 1_555
As2 Pd2 2.653137 1_545
As2 Pd0 2.653138 1_455
As2 Pd1 2.690565 1_555
As2 Ba0 3.413376 1_445
As2 Ba0 3.427505 1_455
As2 Ba0 3.427505 1_545
As2 Ba0 3.427647 1_555
As3 Pd3 2.531284 1_555
As3 Pd1 2.531484 1_555
As3 Pd3 2.534226 1_545
As3 Pd1 2.534425 1_655
As3 Ba0 3.464553 1_555
As3 Ba1 3.465081 1_555
As3 Ba0 3.470054 1_545
As3 Ba1 3.470506 1_655
