# generated using pymatgen
data_Co2P2O7
_symmetry_space_group_name_H-M   'P 1'
_cell_length_a   4.46799340
_cell_length_b   5.37397521
_cell_length_c   9.82990268
_cell_angle_alpha   89.99414767
_cell_angle_beta   90.01165777
_cell_angle_gamma   97.46613783
_symmetry_Int_Tables_number   1
_chemical_formula_structural   Co2P2O7
_chemical_formula_sum   'Co4 P4 O14'
_cell_volume   234.02360752
_cell_formula_units_Z   2
loop_
 _symmetry_equiv_pos_site_id
 _symmetry_equiv_pos_as_xyz
  1  'x, y, z'
loop_
 _atom_site_type_symbol
 _atom_site_label
 _atom_site_symmetry_multiplicity
 _atom_site_fract_x
 _atom_site_fract_y
 _atom_site_fract_z
 _atom_site_occupancy
  Co  Co0  1  0.38462055  0.08778489  0.15788504  1
  Co  Co1  1  0.61515408  0.41207474  0.65790700  1
  Co  Co2  1  0.61553120  0.91203826  0.84204107  1
  Co  Co3  1  0.38503168  0.58782127  0.34214248  1
  P  P0  1  0.14817495  0.34720104  0.88900441  1
  P  P1  1  0.85185711  0.65274215  0.11095635  1
  P  P2  1  0.14815734  0.84717775  0.61102218  1
  P  P3  1  0.85180379  0.15291241  0.38901057  1
  O  O0  1  -0.00000801  0.00015951  0.50006818  1
  O  O1  1  0.00014400  0.50001882  0.00000364  1
  O  O2  1  0.70574584  0.85666226  0.03854968  1
  O  O3  1  0.29416876  0.64327253  0.53857731  1
  O  O4  1  0.29411045  0.14319406  0.96138533  1
  O  O5  1  0.70554320  0.35676093  0.46143050  1
  O  O6  1  0.88955581  0.73951772  0.70298740  1
  O  O7  1  0.88965942  0.23964482  0.79696273  1
  O  O8  1  0.11027409  0.76046509  0.20301202  1
  O  O9  1  0.11038952  0.26063376  0.29706627  1
  O  O10  1  0.38199981  0.03259001  0.68253043  1
  O  O11  1  0.38202878  0.53258828  0.81753496  1
  O  O12  1  0.61800787  0.46731806  0.18242980  1
  O  O13  1  0.61804677  0.96742062  0.31749166  1
loop_
_geom_bond_atom_site_label_1
_geom_bond_atom_site_label_2
_geom_bond_distance
_geom_bond_site_symmetry_2
Co0 O4 2.003506 1_554
Co0 O13 2.035210 1_545
Co0 O8 2.057459 1_545
Co0 O9 2.128994 1_555
Co0 O12 2.180100 1_555
Co0 O2 2.332693 1_545
Co1 O5 2.003294 1_555
Co1 O11 2.035365 1_555
Co1 O6 2.057965 1_555
Co1 O7 2.127385 1_555
Co1 O10 2.179588 1_555
Co1 O3 2.332063 1_555
Co2 O2 2.003268 1_556
Co2 O10 2.035131 1_565
Co2 O7 2.058082 1_565
Co2 O6 2.126703 1_555
Co2 O11 2.179851 1_555
Co2 O4 2.333750 1_565
Co3 O3 2.003498 1_555
Co3 O12 2.035618 1_555
Co3 O9 2.057410 1_555
Co3 O8 2.129157 1_555
Co3 O13 2.179935 1_555
Co3 O5 2.329957 1_555
O0 P2 1.563536 1_545
O0 P3 1.563583 1_455
O1 P1 1.563293 1_455
O1 P0 1.563344 1_554
O2 P1 1.522909 1_555
O3 P2 1.523019 1_555
O4 P0 1.522743 1_555
O5 P3 1.523249 1_555
O6 P2 1.521045 1_655
O7 P0 1.520852 1_655
O8 P1 1.520874 1_455
O9 P3 1.520965 1_455
O10 P2 1.519154 1_545
O11 P0 1.519034 1_555
O12 P1 1.519152 1_555
O13 P3 1.519214 1_565
