# generated using pymatgen
data_LiIO3
_symmetry_space_group_name_H-M   'P 1'
_cell_length_a   5.23084555
_cell_length_b   5.23084555
_cell_length_c   4.81175500
_cell_angle_alpha   90.00000000
_cell_angle_beta   90.00000000
_cell_angle_gamma   119.99999431
_symmetry_Int_Tables_number   1
_chemical_formula_structural   LiIO3
_chemical_formula_sum   'Li2 I2 O6'
_cell_volume   114.01919139
_cell_formula_units_Z   2
loop_
 _symmetry_equiv_pos_site_id
 _symmetry_equiv_pos_as_xyz
  1  'x, y, z'
loop_
 _atom_site_type_symbol
 _atom_site_label
 _atom_site_symmetry_multiplicity
 _atom_site_fract_x
 _atom_site_fract_y
 _atom_site_fract_z
 _atom_site_occupancy
  Li  Li0  1  0.00000000  0.00000000  0.25000000  1
  Li  Li1  1  0.00000000  0.00000000  0.75000000  1
  I  I0  1  0.66666700  0.33333300  0.75000000  1
  I  I1  1  0.33333300  0.66666700  0.25000000  1
  O  O0  1  0.00000000  0.32980900  0.00000000  1
  O  O1  1  0.32980900  0.00000000  0.00000000  1
  O  O2  1  0.00000000  0.67019100  0.50000000  1
  O  O3  1  0.67019100  0.67019100  0.00000000  1
  O  O4  1  0.67019100  0.00000000  0.50000000  1
  O  O5  1  0.32980900  0.32980900  0.50000000  1
loop_
_geom_bond_atom_site_label_1
_geom_bond_atom_site_label_2
_geom_bond_distance
_geom_bond_site_symmetry_2
Li0 O2 2.103166 1_545
Li0 O4 2.103166 1_455
Li0 O1 2.103166 1_555
Li0 O0 2.103166 1_555
Li0 O3 2.103166 1_445
Li0 O5 2.103166 1_555
Li1 O2 2.103166 1_545
Li1 O4 2.103166 1_455
Li1 O1 2.103166 1_556
Li1 O0 2.103166 1_556
Li1 O3 2.103166 1_446
Li1 O5 2.103166 1_555
I0 O0 2.125966 1_656
I0 O4 2.125966 1_555
I0 O1 2.125968 1_556
I0 O2 2.125968 1_655
I0 O5 2.125970 1_555
I0 O3 2.125970 1_556
I1 O1 2.125966 1_565
I1 O2 2.125966 1_555
I1 O0 2.125968 1_555
I1 O4 2.125968 1_565
I1 O5 2.125970 1_555
I1 O3 2.125970 1_555
