# generated using pymatgen
data_Na2Ca3Ta2O9
_symmetry_space_group_name_H-M   'P 1'
_cell_length_a   8.82211990
_cell_length_b   8.82211990
_cell_length_c   8.82212032
_cell_angle_alpha   37.61431483
_cell_angle_beta   37.61431483
_cell_angle_gamma   37.61431692
_symmetry_Int_Tables_number   1
_chemical_formula_structural   Na2Ca3Ta2O9
_chemical_formula_sum   'Na2 Ca3 Ta2 O9'
_cell_volume   229.43783071
_cell_formula_units_Z   1
loop_
 _symmetry_equiv_pos_site_id
 _symmetry_equiv_pos_as_xyz
  1  'x, y, z'
loop_
 _atom_site_type_symbol
 _atom_site_label
 _atom_site_symmetry_multiplicity
 _atom_site_fract_x
 _atom_site_fract_y
 _atom_site_fract_z
 _atom_site_occupancy
  Na  Na0  1  0.19951400  0.19951400  0.19951400  1
  Na  Na1  1  0.80048600  0.80048600  0.80048600  1
  Ca  Ca0  1  0.37145100  0.37145100  0.37145100  1
  Ca  Ca1  1  0.50000000  0.50000000  0.50000000  1
  Ca  Ca2  1  0.62854900  0.62854900  0.62854900  1
  Ta  Ta0  1  0.06408600  0.06408600  0.06408600  1
  Ta  Ta1  1  0.93591400  0.93591400  0.93591400  1
  O  O0  1  0.34285200  0.18653400  0.78674300  1
  O  O1  1  0.81346600  0.65714800  0.21325700  1
  O  O2  1  0.78674300  0.34285200  0.18653400  1
  O  O3  1  0.21325700  0.81346600  0.65714800  1
  O  O4  1  0.18653400  0.78674300  0.34285200  1
  O  O5  1  0.25843100  0.00000000  0.74156900  1
  O  O6  1  0.74156900  0.25843100  0.00000000  1
  O  O7  1  0.00000000  0.74156900  0.25843100  1
  O  O8  1  0.65714800  0.21325700  0.81346600  1
loop_
_geom_bond_atom_site_label_1
_geom_bond_atom_site_label_2
_geom_bond_distance
_geom_bond_site_symmetry_2
Na0 O8 2.500223 1_554
Na0 O3 2.500223 1_545
Na0 O1 2.500223 1_455
Na0 O4 2.829961 1_545
Na0 O2 2.829961 1_455
Na0 O0 2.829962 1_554
Na1 O2 2.500223 1_556
Na1 O4 2.500223 1_655
Na1 O0 2.500223 1_565
Na1 O3 2.829961 1_655
Na1 O8 2.829961 1_565
Na1 O1 2.829962 1_556
Ca0 O5 2.336917 1_555
Ca0 O7 2.336917 1_555
Ca0 O6 2.336917 1_555
Ca0 O2 2.422118 1_555
Ca0 O4 2.422118 1_555
Ca0 O0 2.422118 1_555
Ca1 O1 2.324589 1_555
Ca1 O0 2.324589 1_555
Ca1 O3 2.324589 1_555
Ca1 O4 2.324589 1_555
Ca1 O8 2.324589 1_555
Ca1 O2 2.324589 1_555
Ca2 O7 2.336917 1_655
Ca2 O5 2.336917 1_565
Ca2 O6 2.336917 1_556
Ca2 O8 2.422118 1_555
Ca2 O3 2.422118 1_555
Ca2 O1 2.422118 1_555
O0 Ta0 1.920973 1_556
O1 Ta1 1.920973 1_554
O2 Ta0 1.920973 1_655
O3 Ta1 1.920973 1_455
O4 Ta0 1.920973 1_565
O5 Ta1 2.153860 1_445
O5 Ta0 2.153860 1_556
O6 Ta0 2.153860 1_655
O6 Ta1 2.153860 1_544
O7 Ta0 2.153860 1_565
O7 Ta1 2.153860 1_454
O8 Ta1 1.920973 1_545
