# generated using pymatgen
data_Ca2Mn2V3AgO12
_symmetry_space_group_name_H-M   'P 1'
_cell_length_a   11.06451609
_cell_length_b   11.06451609
_cell_length_c   11.06451609
_cell_angle_alpha   109.69226289
_cell_angle_beta   109.69226289
_cell_angle_gamma   109.03003490
_symmetry_Int_Tables_number   1
_chemical_formula_structural   Ca2Mn2V3AgO12
_chemical_formula_sum   'Ca8 Mn8 V12 Ag4 O48'
_cell_volume   1042.69211267
_cell_formula_units_Z   4
loop_
 _symmetry_equiv_pos_site_id
 _symmetry_equiv_pos_as_xyz
  1  'x, y, z'
loop_
 _atom_site_type_symbol
 _atom_site_label
 _atom_site_symmetry_multiplicity
 _atom_site_fract_x
 _atom_site_fract_y
 _atom_site_fract_z
 _atom_site_occupancy
  Ca  Ca0  1  0.62500000  0.25381200  0.12881200  1
  Ca  Ca1  1  0.24618800  0.87500000  0.87118800  1
  Ca  Ca2  1  0.62500000  0.75381200  0.62881200  1
  Ca  Ca3  1  0.00381200  0.37500000  0.12881200  1
  Ca  Ca4  1  0.74618800  0.87500000  0.37118800  1
  Ca  Ca5  1  0.12500000  0.49618800  0.87118800  1
  Ca  Ca6  1  0.50381200  0.37500000  0.62881200  1
  Ca  Ca7  1  0.12500000  0.99618800  0.37118800  1
  Mn  Mn0  1  0.37500000  0.12500000  0.75000000  1
  Mn  Mn1  1  0.37500000  0.12500000  0.25000000  1
  Mn  Mn2  1  0.87500000  0.62500000  0.75000000  1
  Mn  Mn3  1  0.37500000  0.62500000  0.75000000  1
  Mn  Mn4  1  0.37500000  0.62500000  0.25000000  1
  Mn  Mn5  1  0.87500000  0.12500000  0.25000000  1
  Mn  Mn6  1  0.87500000  0.12500000  0.75000000  1
  Mn  Mn7  1  0.87500000  0.62500000  0.25000000  1
  V  V0  1  0.75296400  0.37500000  0.87796400  1
  V  V1  1  0.12500000  0.74703600  0.12203600  1
  V  V2  1  0.75000000  0.25000000  0.50000000  1
  V  V3  1  0.25000000  0.75000000  0.50000000  1
  V  V4  1  0.62500000  0.00296400  0.87796400  1
  V  V5  1  0.49703600  0.87500000  0.12203600  1
  V  V6  1  0.25296400  0.37500000  0.37796400  1
  V  V7  1  0.12500000  0.24703600  0.62203600  1
  V  V8  1  0.50000000  0.50000000  0.00000000  1
  V  V9  1  0.00000000  0.00000000  0.00000000  1
  V  V10  1  0.62500000  0.50296400  0.37796400  1
  V  V11  1  0.99703600  0.87500000  0.62203600  1
  Ag  Ag0  1  0.50000000  0.00000000  0.50000000  1
  Ag  Ag1  1  0.00000000  0.50000000  0.50000000  1
  Ag  Ag2  1  0.75000000  0.75000000  0.00000000  1
  Ag  Ag3  1  0.25000000  0.25000000  0.00000000  1
  O  O0  1  0.57515100  0.22738800  0.46279400  1
  O  O1  1  0.76618700  0.50942900  0.34049600  1
  O  O2  1  0.78830100  0.41573800  0.05812400  1
  O  O3  1  0.57430900  0.23381300  0.74324200  1
  O  O4  1  0.26618700  0.92569100  0.25675800  1
  O  O5  1  0.27261200  0.92484900  0.53720600  1
  O  O6  1  0.48017700  0.03830100  0.87256300  1
  O  O7  1  0.66893300  0.00942900  0.74324200  1
  O  O8  1  0.76982300  0.14238700  0.05812400  1
  O  O9  1  0.77261200  0.23540600  0.34776300  1
  O  O10  1  0.99057100  0.73381300  0.65950400  1
  O  O11  1  0.16573800  0.60761300  0.12743700  1
  O  O12  1  0.46169900  0.01982300  0.12743700  1
  O  O13  1  0.07515100  0.61235700  0.34776300  1
  O  O14  1  0.38764300  0.73540600  0.46279400  1
  O  O15  1  0.89238700  0.33426200  0.87256300  1
  O  O16  1  0.26459400  0.72738800  0.65223700  1
  O  O17  1  0.08426200  0.71169900  0.94187600  1
  O  O18  1  0.76459400  0.11235700  0.53720600  1
  O  O19  1  0.58106700  0.82430900  0.84049600  1
  O  O20  1  0.67569100  0.91893300  0.15950400  1
  O  O21  1  0.35761300  0.73017700  0.94187600  1
  O  O22  1  0.49057100  0.83106700  0.25675800  1
  O  O23  1  0.86235700  0.82515100  0.84776300  1
  O  O24  1  0.25942900  0.41893300  0.24324200  1
  O  O25  1  0.88764300  0.42484900  0.65223700  1
  O  O26  1  0.39238700  0.51982300  0.55812400  1
  O  O27  1  0.07430900  0.33106700  0.34049600  1
  O  O28  1  0.16893300  0.42569100  0.65950400  1
  O  O29  1  0.98540600  0.13764300  0.96279400  1
  O  O30  1  0.66573800  0.53830100  0.55812400  1
  O  O31  1  0.48540600  0.52261200  0.84776300  1
  O  O32  1  0.85761300  0.91573800  0.62743700  1
  O  O33  1  0.36235700  0.51459400  0.03720600  1
  O  O34  1  0.67484900  0.63764300  0.15223700  1
  O  O35  1  0.28830100  0.23017700  0.37256300  1
  O  O36  1  0.58426200  0.64238700  0.37256300  1
  O  O37  1  0.75942900  0.51618700  0.84049600  1
  O  O38  1  0.97738800  0.01459400  0.15223700  1
  O  O39  1  0.98017700  0.10761300  0.44187600  1
  O  O40  1  0.08106700  0.24057100  0.75675800  1
  O  O41  1  0.26982300  0.21169900  0.62743700  1
  O  O42  1  0.47738800  0.32515100  0.96279400  1
  O  O43  1  0.48381300  0.32430900  0.24324200  1
  O  O44  1  0.17569100  0.01618700  0.75675800  1
  O  O45  1  0.96169900  0.83426200  0.44187600  1
  O  O46  1  0.98381300  0.74057100  0.15950400  1
  O  O47  1  0.17484900  0.02261200  0.03720600  1
loop_
_geom_bond_atom_site_label_1
_geom_bond_atom_site_label_2
_geom_bond_distance
_geom_bond_site_symmetry_2
Ca0 O43 2.472619 1_555
Ca0 O1 2.472619 1_555
Ca0 O8 2.486451 1_555
Ca0 O6 2.486457 1_554
Ca0 O42 2.541804 1_554
Ca0 O9 2.541804 1_555
Ca0 O2 2.621464 1_555
Ca0 O12 2.621464 1_555
Ca1 O10 2.472619 1_455
Ca1 O44 2.472619 1_565
Ca1 O21 2.486451 1_555
Ca1 O12 2.486457 1_566
Ca1 O47 2.541804 1_566
Ca1 O16 2.541804 1_555
Ca1 O6 2.621464 1_565
Ca1 O17 2.621464 1_555
Ca2 O19 2.472619 1_555
Ca2 O7 2.472619 1_565
Ca2 O36 2.486457 1_555
Ca2 O30 2.486457 1_555
Ca2 O23 2.541804 1_555
Ca2 O14 2.541804 1_555
Ca2 O32 2.621455 1_555
Ca2 O26 2.621458 1_555
Ca3 O24 2.472619 1_555
Ca3 O27 2.472619 1_555
Ca3 O15 2.486457 1_454
Ca3 O2 2.486457 1_455
Ca3 O13 2.541804 1_555
Ca3 O29 2.541804 1_454
Ca3 O11 2.621455 1_555
Ca3 O8 2.621458 1_455
Ca4 O22 2.472619 1_555
Ca4 O20 2.472619 1_555
Ca4 O32 2.486457 1_555
Ca4 O45 2.486457 1_555
Ca4 O34 2.541804 1_555
Ca4 O18 2.541804 1_565
Ca4 O36 2.621455 1_555
Ca4 O39 2.621458 1_565
Ca5 O28 2.472619 1_555
Ca5 O40 2.472619 1_555
Ca5 O11 2.486457 1_556
Ca5 O17 2.486457 1_555
Ca5 O33 2.541804 1_556
Ca5 O25 2.541804 1_455
Ca5 O15 2.621455 1_455
Ca5 O21 2.621458 1_555
Ca6 O37 2.472619 1_555
Ca6 O3 2.472619 1_555
Ca6 O26 2.486451 1_555
Ca6 O35 2.486457 1_555
Ca6 O31 2.541804 1_555
Ca6 O0 2.541804 1_555
Ca6 O30 2.621464 1_555
Ca6 O41 2.621464 1_555
Ca7 O4 2.472619 1_555
Ca7 O46 2.472619 1_455
Ca7 O39 2.486451 1_465
Ca7 O41 2.486457 1_565
Ca7 O38 2.541804 1_465
Ca7 O5 2.541804 1_555
Ca7 O35 2.621464 1_565
Ca7 O45 2.621464 1_455
Mn0 O6 2.157465 1_555
Mn0 O41 2.157465 1_555
Mn0 O3 2.181433 1_555
Mn0 O44 2.181433 1_555
Mn0 O42 2.187137 1_555
Mn0 O5 2.187137 1_545
Mn1 O12 2.157465 1_555
Mn1 O35 2.157465 1_555
Mn1 O43 2.181433 1_555
Mn1 O4 2.181433 1_545
Mn1 O0 2.187137 1_555
Mn1 O47 2.187137 1_555
Mn2 O17 2.157465 1_655
Mn2 O30 2.157465 1_555
Mn2 O37 2.181433 1_555
Mn2 O10 2.181433 1_555
Mn2 O25 2.187137 1_555
Mn2 O23 2.187137 1_555
Mn3 O21 2.157471 1_555
Mn3 O26 2.157471 1_555
Mn3 O28 2.181433 1_555
Mn3 O19 2.181433 1_555
Mn3 O16 2.187137 1_555
Mn3 O31 2.187137 1_555
Mn4 O11 2.157459 1_555
Mn4 O36 2.157459 1_555
Mn4 O24 2.181433 1_555
Mn4 O22 2.181433 1_555
Mn4 O14 2.187137 1_555
Mn4 O33 2.187137 1_555
Mn5 O39 2.157471 1_555
Mn5 O8 2.157471 1_555
Mn5 O27 2.181433 1_655
Mn5 O20 2.181433 1_545
Mn5 O9 2.187137 1_555
Mn5 O38 2.187137 1_555
Mn6 O15 2.157459 1_555
Mn6 O32 2.157459 1_545
Mn6 O7 2.181433 1_555
Mn6 O40 2.181433 1_655
Mn6 O29 2.187137 1_555
Mn6 O18 2.187137 1_555
Mn7 O45 2.157465 1_555
Mn7 O2 2.157465 1_555
Mn7 O1 2.181433 1_555
Mn7 O46 2.181433 1_555
Mn7 O13 2.187137 1_655
Mn7 O34 2.187137 1_555
Ag0 O0 2.599088 1_555
Ag0 O18 2.599088 1_555
Ag0 O14 2.599088 1_545
Ag0 O5 2.599088 1_545
Ag0 O4 2.653555 1_545
Ag0 O7 2.653555 1_555
Ag0 O22 2.653555 1_545
Ag0 O3 2.653555 1_555
Ag1 O13 2.599088 1_555
Ag1 O16 2.599088 1_555
Ag1 O25 2.599088 1_455
Ag1 O9 2.599088 1_455
Ag1 O10 2.653555 1_455
Ag1 O28 2.653555 1_555
Ag1 O1 2.653555 1_455
Ag1 O27 2.653555 1_555
Ag2 O34 2.599088 1_555
Ag2 O38 2.599088 1_565
Ag2 O31 2.599088 1_554
Ag2 O23 2.599088 1_554
Ag2 O46 2.653555 1_555
Ag2 O20 2.653555 1_555
Ag2 O37 2.653555 1_554
Ag2 O19 2.653555 1_554
Ag3 O47 2.599088 1_555
Ag3 O29 2.599088 1_454
Ag3 O33 2.599088 1_555
Ag3 O42 2.599088 1_554
Ag3 O24 2.653555 1_555
Ag3 O43 2.653555 1_555
Ag3 O40 2.653555 1_554
Ag3 O44 2.653555 1_554
O0 V2 1.747291 1_555
O1 V10 1.732314 1_555
O2 V0 1.756102 1_554
O3 V0 1.732314 1_555
O4 V1 1.732314 1_555
O5 V3 1.747291 1_555
O6 V4 1.756102 1_555
O7 V4 1.732314 1_555
O8 V4 1.756105 1_554
O9 V2 1.747291 1_555
O10 V11 1.732314 1_555
O11 V1 1.756113 1_555
O12 V5 1.756102 1_545
O13 V3 1.747291 1_555
O14 V3 1.747291 1_555
O15 V0 1.756113 1_555
O16 V3 1.747291 1_555
O17 V1 1.756102 1_556
O18 V2 1.747291 1_555
O19 V4 1.732314 1_565
O20 V5 1.732314 1_555
O21 V5 1.756105 1_556
O22 V5 1.732314 1_555
O23 V9 1.747291 1_666
O24 V6 1.732314 1_555
O25 V2 1.747291 1_555
O26 V6 1.756105 1_555
O27 V6 1.732314 1_555
O28 V7 1.732314 1_555
O29 V9 1.747291 1_656
O30 V10 1.756102 1_555
O31 V8 1.747291 1_556
O32 V11 1.756113 1_555
O33 V8 1.747291 1_555
O34 V8 1.747291 1_555
O35 V6 1.756102 1_555
O36 V10 1.756113 1_555
O37 V0 1.732314 1_555
O38 V9 1.747291 1_655
O39 V7 1.756105 1_655
O40 V7 1.732314 1_555
O41 V7 1.756102 1_555
O42 V8 1.747291 1_556
O43 V10 1.732314 1_555
O44 V11 1.732314 1_445
O45 V11 1.756102 1_555
O46 V1 1.732314 1_655
O47 V9 1.747291 1_555
