# generated using pymatgen
data_MgSiO3
_symmetry_space_group_name_H-M   'P 1'
_cell_length_a   10.04867239
_cell_length_b   10.04867239
_cell_length_c   16.39652185
_cell_angle_alpha   89.97774463
_cell_angle_beta   89.97774463
_cell_angle_gamma   70.23121932
_symmetry_Int_Tables_number   1
_chemical_formula_structural   MgSiO3
_chemical_formula_sum   'Mg32 Si32 O96'
_cell_volume   1558.07648062
_cell_formula_units_Z   32
loop_
 _symmetry_equiv_pos_site_id
 _symmetry_equiv_pos_as_xyz
  1  'x, y, z'
loop_
 _atom_site_type_symbol
 _atom_site_label
 _atom_site_symmetry_multiplicity
 _atom_site_fract_x
 _atom_site_fract_y
 _atom_site_fract_z
 _atom_site_occupancy
  Mg  Mg0  1  0.00076500  0.74841100  0.37709000  1
  Mg  Mg1  1  0.99771200  0.24995700  0.37624600  1
  Mg  Mg2  1  0.24761200  0.75238800  0.50000000  1
  Mg  Mg3  1  0.25158900  0.99923500  0.62291000  1
  Mg  Mg4  1  0.29048000  0.07568400  0.44426300  1
  Mg  Mg5  1  0.16212600  0.44461600  0.43119000  1
  Mg  Mg6  1  0.05998600  0.80115400  0.19197500  1
  Mg  Mg7  1  0.24781400  0.25446100  0.24937700  1
  Mg  Mg8  1  0.50279700  0.74952600  0.87392100  1
  Mg  Mg9  1  0.75552400  0.24447600  0.00000000  1
  Mg  Mg10  1  0.55538400  0.83787400  0.56881000  1
  Mg  Mg11  1  0.80789000  0.55893900  0.93777100  1
  Mg  Mg12  1  0.68615500  0.93372800  0.93844900  1
  Mg  Mg13  1  0.56917600  0.29717400  0.69126700  1
  Mg  Mg14  1  0.43374300  0.67752200  0.18338600  1
  Mg  Mg15  1  0.74553900  0.75218600  0.75062300  1
  Mg  Mg16  1  0.99830300  0.25211600  0.87802400  1
  Mg  Mg17  1  0.74788400  0.00169700  0.12197600  1
  Mg  Mg18  1  0.75004300  0.00228800  0.62375400  1
  Mg  Mg19  1  0.75216100  0.24783900  0.50000000  1
  Mg  Mg20  1  0.06627200  0.31384500  0.06155100  1
  Mg  Mg21  1  0.92431600  0.70952000  0.55573700  1
  Mg  Mg22  1  0.83698800  0.05262100  0.31394300  1
  Mg  Mg23  1  0.70282600  0.43082400  0.30873300  1
  Mg  Mg24  1  0.94737900  0.16301200  0.68605700  1
  Mg  Mg25  1  0.75699700  0.76352400  0.24890900  1
  Mg  Mg26  1  0.25047400  0.49720300  0.12607900  1
  Mg  Mg27  1  0.25447100  0.74552900  0.00000000  1
  Mg  Mg28  1  0.44106100  0.19211000  0.06222900  1
  Mg  Mg29  1  0.32247800  0.56625700  0.81661400  1
  Mg  Mg30  1  0.19884600  0.94001400  0.80802500  1
  Mg  Mg31  1  0.23647600  0.24300300  0.75109100  1
  Si  Si0  1  0.93949500  0.18508900  0.18472600  1
  Si  Si1  1  0.99837000  0.50054600  0.24547600  1
  Si  Si2  1  0.19409000  0.93668300  0.30810200  1
  Si  Si3  1  0.43624900  0.67996300  0.68222600  1
  Si  Si4  1  0.50018500  0.74770500  0.37275800  1
  Si  Si5  1  0.25229500  0.49981500  0.62724200  1
  Si  Si6  1  0.49945400  0.00163000  0.75452400  1
  Si  Si7  1  0.49582100  0.00135500  0.25230200  1
  Si  Si8  1  0.43703400  0.19824200  0.55683600  1
  Si  Si9  1  0.69106500  0.43439100  0.81107800  1
  Si  Si10  1  0.32003700  0.56375100  0.31777400  1
  Si  Si11  1  0.74856500  0.49991700  0.12610200  1
  Si  Si12  1  0.49633700  0.25204800  0.37405700  1
  Si  Si13  1  0.67627300  0.93788000  0.43111600  1
  Si  Si14  1  0.56560900  0.30893500  0.18892200  1
  Si  Si15  1  0.50019600  0.49980400  0.50000000  1
  Si  Si16  1  0.99864500  0.50417900  0.74769800  1
  Si  Si17  1  0.93436600  0.68638300  0.06108100  1
  Si  Si18  1  0.81491100  0.06050500  0.81527400  1
  Si  Si19  1  0.00324500  0.74852500  0.87577700  1
  Si  Si20  1  0.74795200  0.50366300  0.62594300  1
  Si  Si21  1  0.18908400  0.43721000  0.93681100  1
  Si  Si22  1  0.80175800  0.56296600  0.44316400  1
  Si  Si23  1  0.06331700  0.80591000  0.69189800  1
  Si  Si24  1  0.00413800  0.99586200  0.00000000  1
  Si  Si25  1  0.99945400  0.00054600  0.50000000  1
  Si  Si26  1  0.06212000  0.32372700  0.56888400  1
  Si  Si27  1  0.50008300  0.25143500  0.87389800  1
  Si  Si28  1  0.25147500  0.99675500  0.12422300  1
  Si  Si29  1  0.31361700  0.06563400  0.93891900  1
  Si  Si30  1  0.50284300  0.49715700  0.00000000  1
  Si  Si31  1  0.56279000  0.81091600  0.06318900  1
  O  O0  1  0.90633100  0.03744400  0.18299900  1
  O  O1  1  0.05043700  0.89656700  0.31260800  1
  O  O2  1  0.85170100  0.79537400  0.13186300  1
  O  O3  1  0.16835400  0.98247600  0.50966400  1
  O  O4  1  0.10947000  0.15149500  0.15901100  1
  O  O5  1  0.10972900  0.26947700  0.47587600  1
  O  O6  1  0.97927100  0.66538700  0.26523100  1
  O  O7  1  0.07324800  0.39530300  0.32177300  1
  O  O8  1  0.17850400  0.09916900  0.33204800  1
  O  O9  1  0.39434700  0.53011500  0.68494800  1
  O  O10  1  0.10336500  0.41975500  0.17101000  1
  O  O11  1  0.31567800  0.84414100  0.37455100  1
  O  O12  1  0.37419000  0.79056900  0.60695900  1
  O  O13  1  0.54733500  0.38253100  0.81361100  1
  O  O14  1  0.47782400  0.66011800  0.46530100  1
  O  O15  1  0.37134800  0.06107900  0.18120800  1
  O  O16  1  0.40192400  0.05108900  0.55876400  1
  O  O17  1  0.20943100  0.62581000  0.39304100  1
  O  O18  1  0.35169000  0.31347400  0.62957100  1
  O  O19  1  0.26253100  0.61633700  0.22604800  1
  O  O20  1  0.38406900  0.24922500  0.46091000  1
  O  O21  1  0.43103400  0.12919400  0.32110900  1
  O  O22  1  0.35190000  0.39136000  0.33279400  1
  O  O23  1  0.66891100  0.47242500  0.03088400  1
  O  O24  1  0.60864000  0.64810000  0.66720600  1
  O  O25  1  0.53251200  0.88661000  0.42993200  1
  O  O26  1  0.40105700  0.32246800  0.17220300  1
  O  O27  1  0.33988200  0.52217600  0.53469900  1
  O  O28  1  0.62338600  0.74574800  0.97433000  1
  O  O29  1  0.47752800  0.17344500  0.77688400  1
  O  O30  1  0.23870500  0.89256900  0.21047900  1
  O  O31  1  0.58024500  0.89663500  0.82899000  1
  O  O32  1  0.67753200  0.59894300  0.82779700  1
  O  O33  1  0.60469700  0.92675200  0.67822700  1
  O  O34  1  0.79024100  0.35828200  0.88830100  1
  O  O35  1  0.75077500  0.61593100  0.53909000  1
  O  O36  1  0.86513200  0.31715900  0.11807700  1
  O  O37  1  0.65480000  0.98508300  0.22696500  1
  O  O38  1  0.59928800  0.18457900  0.58036200  1
  O  O39  1  0.46988500  0.60565300  0.31505200  1
  O  O40  1  0.63818700  0.11075700  0.41491500  1
  O  O41  1  0.55881200  0.37437000  0.43032700  1
  O  O42  1  0.60772800  0.26660000  0.28757000  1
  O  O43  1  0.73052300  0.89027100  0.52412400  1
  O  O44  1  0.98886500  0.16166400  0.98716700  1
  O  O45  1  0.87080600  0.56896600  0.67889100  1
  O  O46  1  0.87590500  0.54759400  0.06564300  1
  O  O47  1  0.68284100  0.13486800  0.88192300  1
  O  O48  1  0.79397100  0.87146000  0.36038000  1
  O  O49  1  0.61746900  0.45266500  0.18638900  1
  O  O50  1  0.62563000  0.44118800  0.56967300  1
  O  O51  1  0.51712100  0.83362100  0.27816300  1
  O  O52  1  0.75565500  0.11500000  0.72429100  1
  O  O53  1  0.89856900  0.72659600  0.96181000  1
  O  O54  1  0.93892100  0.62865200  0.81879200  1
  O  O55  1  0.84850500  0.89053000  0.84098900  1
  O  O56  1  0.03717000  0.41116400  0.94007600  1
  O  O57  1  0.90083100  0.82149600  0.66795200  1
  O  O58  1  0.83833600  0.01113500  0.01283300  1
  O  O59  1  0.63159400  0.68370300  0.13431100  1
  O  O60  1  0.73340000  0.39227200  0.71243000  1
  O  O61  1  0.68652600  0.64831000  0.37042900  1
  O  O62  1  0.89512700  0.08427900  0.57538400  1
  O  O63  1  0.81542100  0.40071200  0.41963800  1
  O  O64  1  0.91572100  0.10487300  0.42461600  1
  O  O65  1  0.27340400  0.10143100  0.03819000  1
  O  O66  1  0.01752400  0.83164600  0.49033600  1
  O  O67  1  0.88500000  0.24434500  0.27570900  1
  O  O68  1  0.16637900  0.48287900  0.72183700  1
  O  O69  1  0.09921400  0.66900400  0.07932600  1
  O  O70  1  0.96255600  0.09366900  0.81700100  1
  O  O71  1  0.88924300  0.36181300  0.58508500  1
  O  O72  1  0.82655500  0.52247200  0.22311600  1
  O  O73  1  0.15860000  0.60677200  0.91129300  1
  O  O74  1  0.07097100  0.86809700  0.93021000  1
  O  O75  1  0.10743100  0.76129500  0.78952100  1
  O  O76  1  0.25425200  0.37661400  0.02567000  1
  O  O77  1  0.15585900  0.68432200  0.62544900  1
  O  O78  1  0.31629700  0.36840600  0.86568900  1
  O  O79  1  0.10343300  0.94956300  0.68739200  1
  O  O80  1  0.13190300  0.92902900  0.06979000  1
  O  O81  1  0.01491700  0.34520000  0.77303500  1
  O  O82  1  0.94891100  0.59807600  0.44123600  1
  O  O83  1  0.12854000  0.20602900  0.63962000  1
  O  O84  1  0.20462600  0.14829900  0.86813700  1
  O  O85  1  0.39603600  0.57077900  0.07485200  1
  O  O86  1  0.11339000  0.46748800  0.57006800  1
  O  O87  1  0.33099600  0.90078600  0.92067400  1
  O  O88  1  0.42922100  0.60396400  0.92514800  1
  O  O89  1  0.52757500  0.33108900  0.96911600  1
  O  O90  1  0.38366300  0.73746900  0.77395200  1
  O  O91  1  0.39322800  0.84140000  0.08870700  1
  O  O92  1  0.33461300  0.02072900  0.73476900  1
  O  O93  1  0.64171800  0.20975900  0.11169900  1
  O  O94  1  0.45240600  0.12409500  0.93435700  1
  O  O95  1  0.58883600  0.96283000  0.05992400  1
loop_
_geom_bond_atom_site_label_1
_geom_bond_atom_site_label_2
_geom_bond_distance
_geom_bond_site_symmetry_2
Mg0 O1 2.021004 1_555
Mg0 O48 2.045521 1_455
Mg0 O82 2.047109 1_455
Mg0 O6 2.056692 1_455
Mg0 O17 2.058047 1_555
Mg0 O66 2.067006 1_555
Mg1 O67 2.011993 1_555
Mg1 O5 2.031042 1_655
Mg1 O64 2.060199 1_555
Mg1 O7 2.062866 1_655
Mg1 O8 2.063804 1_655
Mg1 O63 2.068629 1_555
Mg2 O3 2.181670 1_555
Mg2 O66 2.181670 1_555
Mg2 O27 2.254623 1_555
Mg2 O14 2.254623 1_555
Mg2 O12 2.274436 1_555
Mg2 O17 2.274436 1_555
Mg2 O77 2.443944 1_555
Mg2 O11 2.443944 1_555
Mg3 O79 2.021004 1_555
Mg3 O83 2.045521 1_565
Mg3 O16 2.047109 1_565
Mg3 O92 2.056692 1_565
Mg3 O12 2.058047 1_555
Mg3 O3 2.067006 1_555
Mg4 O3 2.075798 1_545
Mg4 O8 2.128098 1_555
Mg4 O16 2.157296 1_555
Mg4 O5 2.228747 1_555
Mg4 O20 2.260514 1_555
Mg4 O11 2.527349 1_545
Mg4 O25 2.540519 1_545
Mg4 O21 2.621483 1_555
Mg5 O17 2.125263 1_555
Mg5 O5 2.129996 1_555
Mg5 O7 2.136151 1_555
Mg5 O82 2.181861 1_455
Mg5 O86 2.324074 1_555
Mg5 O22 2.415326 1_555
Mg5 O20 2.470713 1_555
Mg6 O6 2.169870 1_455
Mg6 O1 2.186294 1_555
Mg6 O69 2.231062 1_555
Mg6 O30 2.297319 1_555
Mg6 O19 2.312320 1_555
Mg6 O2 2.332233 1_455
Mg6 O0 2.358687 1_465
Mg6 O80 2.609999 1_555
Mg7 O21 2.188694 1_555
Mg7 O7 2.193048 1_555
Mg7 O10 2.210378 1_555
Mg7 O15 2.221551 1_555
Mg7 O26 2.269169 1_555
Mg7 O8 2.343161 1_555
Mg7 O22 2.415159 1_555
Mg7 O4 2.484815 1_555
Mg8 O87 2.025625 1_555
Mg8 O31 2.027454 1_555
Mg8 O88 2.030207 1_555
Mg8 O32 2.036475 1_555
Mg8 O28 2.037322 1_555
Mg8 O90 2.057767 1_555
Mg9 O23 2.216461 1_555
Mg9 O89 2.216461 1_554
Mg9 O44 2.216878 1_554
Mg9 O58 2.216878 1_555
Mg9 O93 2.247571 1_555
Mg9 O34 2.247571 1_554
Mg9 O36 2.458001 1_555
Mg9 O47 2.458001 1_554
Mg10 O12 2.125263 1_555
Mg10 O43 2.129996 1_555
Mg10 O33 2.136151 1_555
Mg10 O16 2.181861 1_565
Mg10 O25 2.324074 1_555
Mg10 O24 2.415326 1_555
Mg10 O35 2.470713 1_555
Mg11 O32 2.184964 1_555
Mg11 O46 2.196429 1_556
Mg11 O53 2.205267 1_555
Mg11 O28 2.228513 1_555
Mg11 O34 2.235684 1_555
Mg11 O56 2.280446 1_655
Mg11 O23 2.419840 1_556
Mg11 O54 2.578965 1_555
Mg12 O31 2.182436 1_555
Mg12 O95 2.194193 1_556
Mg12 O47 2.213226 1_565
Mg12 O55 2.218783 1_555
Mg12 O28 2.262056 1_555
Mg12 O58 2.288639 1_566
Mg12 O53 2.455544 1_555
Mg12 O94 2.478220 1_565
Mg13 O38 2.109043 1_555
Mg13 O13 2.163704 1_555
Mg13 O60 2.196432 1_555
Mg13 O52 2.198926 1_555
Mg13 O29 2.266464 1_555
Mg13 O18 2.363426 1_555
Mg13 O9 2.407159 1_555
Mg13 O50 2.634992 1_555
Mg14 O19 2.131092 1_555
Mg14 O59 2.164783 1_555
Mg14 O85 2.176679 1_555
Mg14 O91 2.198298 1_555
Mg14 O39 2.266302 1_555
Mg14 O49 2.386305 1_555
Mg14 O30 2.417289 1_555
Mg14 O51 2.543484 1_555
Mg15 O45 2.188694 1_555
Mg15 O33 2.193048 1_555
Mg15 O31 2.210378 1_555
Mg15 O54 2.221551 1_555
Mg15 O32 2.269169 1_555
Mg15 O57 2.343161 1_555
Mg15 O24 2.415159 1_555
Mg15 O55 2.484815 1_555
Mg16 O84 1.987420 1_655
Mg16 O81 1.992575 1_655
Mg16 O34 2.007188 1_555
Mg16 O70 2.013356 1_555
Mg16 O44 2.023511 1_555
Mg16 O56 2.041040 1_655
Mg17 O2 1.987420 1_545
Mg17 O37 1.992575 1_545
Mg17 O93 2.007188 1_555
Mg17 O0 2.013356 1_555
Mg17 O58 2.023511 1_555
Mg17 O95 2.041040 1_545
Mg18 O52 2.011993 1_555
Mg18 O43 2.031042 1_545
Mg18 O62 2.060199 1_555
Mg18 O33 2.062866 1_545
Mg18 O57 2.063804 1_545
Mg18 O38 2.068629 1_555
Mg19 O64 2.166918 1_555
Mg19 O62 2.166918 1_555
Mg19 O50 2.241896 1_555
Mg19 O41 2.241896 1_555
Mg19 O38 2.271226 1_555
Mg19 O63 2.271226 1_555
Mg19 O40 2.495072 1_555
Mg19 O71 2.495072 1_555
Mg20 O10 2.182436 1_555
Mg20 O56 2.194193 1_554
Mg20 O36 2.213226 1_455
Mg20 O4 2.218783 1_555
Mg20 O76 2.262056 1_555
Mg20 O44 2.288639 1_454
Mg20 O65 2.455544 1_555
Mg20 O46 2.478220 1_455
Mg21 O66 2.075798 1_655
Mg21 O57 2.128098 1_555
Mg21 O82 2.157296 1_555
Mg21 O43 2.228747 1_555
Mg21 O35 2.260514 1_555
Mg21 O77 2.527349 1_655
Mg21 O86 2.540519 1_655
Mg21 O45 2.621483 1_555
Mg22 O64 2.115999 1_555
Mg22 O48 2.147444 1_545
Mg22 O1 2.187421 1_645
Mg22 O67 2.228235 1_555
Mg22 O0 2.246269 1_555
Mg22 O40 2.506342 1_555
Mg22 O37 2.586376 1_545
Mg22 O42 2.601326 1_555
Mg23 O63 2.109043 1_555
Mg23 O49 2.163704 1_555
Mg23 O42 2.196432 1_555
Mg23 O67 2.198926 1_555
Mg23 O72 2.266464 1_555
Mg23 O61 2.363426 1_555
Mg23 O39 2.407159 1_555
Mg23 O41 2.634992 1_555
Mg24 O62 2.115999 1_555
Mg24 O83 2.147444 1_655
Mg24 O79 2.187421 1_645
Mg24 O52 2.228235 1_555
Mg24 O70 2.246269 1_555
Mg24 O71 2.506342 1_555
Mg24 O81 2.586376 1_655
Mg24 O60 2.601326 1_555
Mg25 O6 2.131476 1_555
Mg25 O37 2.143331 1_555
Mg25 O2 2.212539 1_555
Mg25 O48 2.220295 1_555
Mg25 O51 2.321050 1_555
Mg25 O72 2.321639 1_555
Mg25 O61 2.522621 1_555
Mg25 O59 2.539429 1_555
Mg26 O69 2.025625 1_555
Mg26 O10 2.027454 1_555
Mg26 O85 2.030207 1_555
Mg26 O26 2.036475 1_555
Mg26 O76 2.037322 1_555
Mg26 O19 2.057767 1_555
Mg27 O80 2.165817 1_555
Mg27 O74 2.165817 1_554
Mg27 O88 2.218871 1_554
Mg27 O85 2.218871 1_555
Mg27 O87 2.350796 1_554
Mg27 O69 2.350796 1_555
Mg27 O91 2.428801 1_555
Mg27 O73 2.428801 1_554
Mg28 O26 2.184964 1_555
Mg28 O94 2.196429 1_554
Mg28 O65 2.205267 1_555
Mg28 O76 2.228513 1_555
Mg28 O93 2.235684 1_555
Mg28 O95 2.280446 1_545
Mg28 O89 2.419840 1_554
Mg28 O15 2.578965 1_555
Mg29 O90 2.131092 1_555
Mg29 O78 2.164783 1_555
Mg29 O88 2.176679 1_555
Mg29 O73 2.198298 1_555
Mg29 O9 2.266302 1_555
Mg29 O13 2.386305 1_555
Mg29 O75 2.417289 1_555
Mg29 O68 2.543484 1_555
Mg30 O92 2.169870 1_565
Mg30 O79 2.186294 1_555
Mg30 O87 2.231062 1_555
Mg30 O75 2.297319 1_555
Mg30 O90 2.312320 1_555
Mg30 O84 2.332233 1_565
Mg30 O70 2.358687 1_465
Mg30 O74 2.609999 1_555
Mg31 O92 2.131476 1_555
Mg31 O81 2.143331 1_555
Mg31 O84 2.212539 1_555
Mg31 O83 2.220295 1_555
Mg31 O68 2.321050 1_555
Mg31 O29 2.321639 1_555
Mg31 O18 2.522621 1_555
Mg31 O78 2.539429 1_555
O0 Si0 1.627124 1_555
O1 Si2 1.626418 1_555
O2 Si17 1.619038 1_555
O3 Si25 1.652379 1_465
O4 Si0 1.678868 1_455
O4 Si28 1.810668 1_545
O5 Si26 1.635653 1_555
O6 Si1 1.634273 1_555
O7 Si1 1.646514 1_455
O8 Si2 1.634653 1_545
O9 Si3 1.695716 1_555
O9 Si5 1.822305 1_555
O10 Si1 1.638109 1_455
O11 Si2 1.666226 1_555
O11 Si4 1.778216 1_555
O12 Si3 1.636435 1_555
O13 Si9 1.693623 1_555
O13 Si27 1.832951 1_555
O14 Si15 1.650388 1_555
O14 Si4 1.805561 1_555
O15 Si7 1.666223 1_555
O15 Si28 1.808263 1_545
O16 Si8 1.632440 1_555
O17 Si10 1.636435 1_555
O18 Si8 1.681399 1_555
O18 Si5 1.800024 1_555
O19 Si10 1.633594 1_555
O20 Si8 1.683798 1_555
O20 Si12 1.822610 1_555
O21 Si7 1.667848 1_555
O21 Si12 1.804889 1_555
O22 Si10 1.669901 1_555
O22 Si12 1.774721 1_555
O23 Si30 1.680173 1_555
O23 Si11 1.818063 1_555
O24 Si3 1.669901 1_555
O24 Si20 1.774721 1_555
O25 Si13 1.690022 1_555
O25 Si4 1.800167 1_555
O26 Si14 1.635853 1_555
O27 Si15 1.650388 1_555
O27 Si5 1.805561 1_555
O28 Si31 1.628714 1_556
O29 Si6 1.704967 1_555
O29 Si27 1.821332 1_555
O30 Si2 1.680840 1_555
O30 Si28 1.789513 1_555
O31 Si6 1.638109 1_565
O32 Si9 1.635853 1_555
O33 Si6 1.646514 1_565
O34 Si9 1.632782 1_555
O35 Si22 1.683798 1_555
O35 Si20 1.822610 1_555
O36 Si0 1.685990 1_555
O36 Si11 1.818496 1_555
O37 Si7 1.604450 1_565
O38 Si8 1.635542 1_555
O39 Si10 1.695716 1_555
O39 Si4 1.822305 1_555
O40 Si13 1.668781 1_545
O40 Si12 1.768446 1_555
O41 Si15 1.655026 1_555
O41 Si12 1.810956 1_555
O42 Si14 1.689545 1_555
O42 Si12 1.842439 1_555
O43 Si13 1.635653 1_555
O44 Si24 1.634157 1_646
O45 Si16 1.667848 1_555
O45 Si20 1.804889 1_555
O46 Si17 1.688144 1_555
O46 Si11 1.806363 1_555
O47 Si18 1.685990 1_555
O47 Si27 1.818496 1_555
O48 Si13 1.629423 1_555
O49 Si14 1.693623 1_555
O49 Si11 1.832951 1_555
O50 Si15 1.655026 1_555
O50 Si20 1.810956 1_555
O51 Si7 1.679886 1_565
O51 Si4 1.810568 1_555
O52 Si18 1.630764 1_555
O53 Si17 1.686328 1_556
O53 Si19 1.816663 1_655
O54 Si16 1.666223 1_555
O54 Si19 1.808263 1_655
O55 Si18 1.678868 1_565
O55 Si19 1.810668 1_655
O56 Si21 1.634584 1_555
O57 Si23 1.634653 1_655
O58 Si24 1.634157 1_645
O59 Si31 1.695184 1_555
O59 Si11 1.828128 1_555
O60 Si9 1.689545 1_555
O60 Si20 1.842439 1_555
O61 Si22 1.681399 1_555
O61 Si4 1.800024 1_555
O62 Si25 1.654658 1_555
O63 Si22 1.635542 1_555
O64 Si25 1.654658 1_555
O65 Si29 1.686328 1_554
O65 Si28 1.816663 1_545
O66 Si25 1.652379 1_465
O67 Si0 1.630764 1_555
O68 Si16 1.679886 1_455
O68 Si5 1.810568 1_555
O69 Si17 1.633601 1_455
O70 Si18 1.627124 1_555
O71 Si26 1.668781 1_655
O71 Si20 1.768446 1_555
O72 Si1 1.704967 1_555
O72 Si11 1.821332 1_555
O73 Si21 1.678858 1_555
O73 Si19 1.816874 1_555
O74 Si24 1.681097 1_556
O74 Si19 1.804960 1_555
O75 Si23 1.680840 1_555
O75 Si19 1.789513 1_555
O76 Si21 1.628714 1_554
O77 Si23 1.666226 1_555
O77 Si5 1.778216 1_555
O78 Si21 1.695184 1_555
O78 Si27 1.828128 1_555
O79 Si23 1.626418 1_555
O80 Si24 1.681097 1_555
O80 Si28 1.804960 1_555
O81 Si16 1.604450 1_455
O82 Si22 1.632440 1_555
O83 Si26 1.629423 1_555
O84 Si29 1.619038 1_555
O85 Si30 1.633428 1_555
O86 Si26 1.690022 1_555
O86 Si5 1.800167 1_555
O87 Si29 1.633601 1_565
O88 Si30 1.633428 1_556
O89 Si30 1.680173 1_556
O89 Si27 1.818063 1_555
O90 Si3 1.633594 1_555
O91 Si31 1.678858 1_555
O91 Si28 1.816874 1_555
O92 Si6 1.634273 1_555
O93 Si14 1.632782 1_555
O94 Si29 1.688144 1_555
O94 Si27 1.806363 1_555
O95 Si31 1.634584 1_555
