# generated using pymatgen
data_K2In2Sb3
_symmetry_space_group_name_H-M   'P 1'
_cell_length_a   7.64662996
_cell_length_b   15.45575742
_cell_length_c   16.93015007
_cell_angle_alpha   89.54927492
_cell_angle_beta   90.00000000
_cell_angle_gamma   90.00000000
_symmetry_Int_Tables_number   1
_chemical_formula_structural   K2In2Sb3
_chemical_formula_sum   'K16 In16 Sb24'
_cell_volume   2000.81869411
_cell_formula_units_Z   8
loop_
 _symmetry_equiv_pos_site_id
 _symmetry_equiv_pos_as_xyz
  1  'x, y, z'
loop_
 _atom_site_type_symbol
 _atom_site_label
 _atom_site_symmetry_multiplicity
 _atom_site_fract_x
 _atom_site_fract_y
 _atom_site_fract_z
 _atom_site_occupancy
  K  K0  1  0.46454267  0.92205346  0.88680195  1
  K  K1  1  0.05508068  0.44138499  0.10294439  1
  K  K2  1  0.46497777  0.14256438  0.50839043  1
  K  K3  1  0.94783883  0.34579858  0.52239898  1
  K  K4  1  0.96497777  0.85743562  0.99160957  1
  K  K5  1  0.55508068  0.55861501  0.39705561  1
  K  K6  1  0.96454267  0.07794654  0.61319805  1
  K  K7  1  0.53502223  0.85743562  0.49160957  1
  K  K8  1  0.03545733  0.92205346  0.38680195  1
  K  K9  1  0.44491932  0.44138499  0.60294439  1
  K  K10  1  0.53545733  0.07794654  0.11319805  1
  K  K11  1  0.55216117  0.34579858  0.02239898  1
  K  K12  1  0.03502223  0.14256438  0.00839043  1
  K  K13  1  0.94491932  0.55861501  0.89705561  1
  K  K14  1  0.05216117  0.65420142  0.47760102  1
  K  K15  1  0.44783883  0.65420142  0.97760102  1
  In  In0  1  0.26395385  0.59229102  0.74030825  1
  In  In1  1  0.76395385  0.40770898  0.75969175  1
  In  In2  1  0.23604615  0.59229102  0.24030825  1
  In  In3  1  0.77970383  0.68360081  0.66446243  1
  In  In4  1  0.78703563  0.90766995  0.72849708  1
  In  In5  1  0.21296437  0.09233005  0.27150292  1
  In  In6  1  0.73604615  0.40770898  0.25969175  1
  In  In7  1  0.72029617  0.68360081  0.16446243  1
  In  In8  1  0.71296437  0.90766995  0.22849708  1
  In  In9  1  0.28703563  0.09233005  0.77150292  1
  In  In10  1  0.22029617  0.31639919  0.33553757  1
  In  In11  1  0.73768233  0.18261296  0.32728316  1
  In  In12  1  0.76231767  0.18261296  0.82728316  1
  In  In13  1  0.23768233  0.81738704  0.17271684  1
  In  In14  1  0.27970383  0.31639919  0.83553757  1
  In  In15  1  0.26231767  0.81738704  0.67271684  1
  Sb  Sb0  1  0.83643654  0.25070630  0.17346189  1
  Sb  Sb1  1  0.46318707  0.97442176  0.66863471  1
  Sb  Sb2  1  0.53681293  0.02557824  0.33136529  1
  Sb  Sb3  1  0.71313351  0.75028032  0.32199257  1
  Sb  Sb4  1  0.03681293  0.97442176  0.16863471  1
  Sb  Sb5  1  0.33643654  0.74929370  0.32653811  1
  Sb  Sb6  1  0.03359156  0.47831591  0.34153876  1
  Sb  Sb7  1  0.53359156  0.52168409  0.15846124  1
  Sb  Sb8  1  0.94523646  0.83838958  0.58820259  1
  Sb  Sb9  1  0.21313351  0.24971968  0.17800743  1
  Sb  Sb10  1  0.05476354  0.16161042  0.41179741  1
  Sb  Sb11  1  0.43674235  0.66727459  0.60360697  1
  Sb  Sb12  1  0.93674235  0.33272541  0.89639303  1
  Sb  Sb13  1  0.16356346  0.74929370  0.82653811  1
  Sb  Sb14  1  0.28686649  0.24971968  0.67800743  1
  Sb  Sb15  1  0.55476354  0.83838958  0.08820259  1
  Sb  Sb16  1  0.78686649  0.75028032  0.82199257  1
  Sb  Sb17  1  0.96318707  0.02557824  0.83136529  1
  Sb  Sb18  1  0.44523646  0.16161042  0.91179741  1
  Sb  Sb19  1  0.46640844  0.47831591  0.84153876  1
  Sb  Sb20  1  0.06325765  0.66727459  0.10360697  1
  Sb  Sb21  1  0.96640844  0.52168409  0.65846124  1
  Sb  Sb22  1  0.66356346  0.25070630  0.67346189  1
  Sb  Sb23  1  0.56325765  0.33272541  0.39639303  1
loop_
_geom_bond_atom_site_label_1
_geom_bond_atom_site_label_2
_geom_bond_distance
_geom_bond_site_symmetry_2
K0 Sb13 3.675626 1_555
K0 Sb15 3.702026 1_556
K0 Sb18 3.732865 1_565
K0 Sb1 3.775036 1_555
K0 Sb16 3.791156 1_555
K1 Sb9 3.433924 1_555
K1 Sb20 3.491961 1_555
K1 Sb0 3.584759 1_455
K1 Sb7 3.978733 1_555
K1 Sb12 3.995033 1_454
K2 Sb10 3.548611 1_555
K2 Sb2 3.555085 1_555
K2 Sb23 3.565195 1_555
K2 Sb14 3.594294 1_555
K2 Sb22 3.603229 1_555
K2 Sb1 3.742062 1_545
K3 Sb10 3.516064 1_655
K3 Sb21 3.579802 1_555
K3 Sb23 3.639586 1_555
K3 Sb22 3.656095 1_555
K3 Sb6 3.728542 1_655
K3 Sb14 3.975511 1_655
K4 Sb15 3.548611 1_556
K4 Sb4 3.555085 1_656
K4 Sb20 3.565195 1_656
K4 Sb16 3.594294 1_555
K4 Sb13 3.603229 1_655
K4 Sb17 3.742062 1_565
K5 Sb3 3.433924 1_555
K5 Sb23 3.491961 1_555
K5 Sb5 3.584759 1_555
K5 Sb6 3.978733 1_655
K5 Sb11 3.995033 1_555
K6 Sb22 3.675626 1_555
K6 Sb10 3.702026 1_655
K6 Sb8 3.732865 1_545
K6 Sb17 3.775036 1_555
K6 Sb14 3.791156 1_655
K7 Sb8 3.548611 1_555
K7 Sb1 3.555085 1_555
K7 Sb11 3.565195 1_555
K7 Sb3 3.594294 1_555
K7 Sb5 3.603229 1_555
K7 Sb2 3.742062 1_565
K8 Sb5 3.675626 1_555
K8 Sb8 3.702026 1_455
K8 Sb10 3.732865 1_565
K8 Sb4 3.775036 1_555
K8 Sb3 3.791156 1_455
K9 Sb14 3.433924 1_555
K9 Sb11 3.491961 1_555
K9 Sb22 3.584759 1_555
K9 Sb21 3.978733 1_455
K9 Sb23 3.995033 1_555
K10 Sb0 3.675626 1_555
K10 Sb18 3.702026 1_554
K10 Sb15 3.732865 1_545
K10 Sb2 3.775036 1_555
K10 Sb9 3.791156 1_555
K11 Sb18 3.516064 1_554
K11 Sb7 3.579802 1_555
K11 Sb12 3.639586 1_554
K11 Sb0 3.656095 1_555
K11 Sb19 3.728542 1_554
K11 Sb9 3.975511 1_555
K12 Sb18 3.548611 1_554
K12 Sb17 3.555085 1_454
K12 Sb12 3.565195 1_454
K12 Sb9 3.594294 1_555
K12 Sb0 3.603229 1_455
K12 Sb4 3.742062 1_545
K13 Sb16 3.433924 1_555
K13 Sb12 3.491961 1_555
K13 Sb13 3.584759 1_655
K13 Sb19 3.978733 1_555
K13 Sb20 3.995033 1_656
K14 Sb8 3.516064 1_455
K14 Sb6 3.579802 1_555
K14 Sb11 3.639586 1_555
K14 Sb5 3.656095 1_555
K14 Sb21 3.728542 1_455
K14 Sb3 3.975511 1_455
K15 Sb15 3.516064 1_556
K15 Sb19 3.579802 1_555
K15 Sb20 3.639586 1_556
K15 Sb13 3.656095 1_555
K15 Sb7 3.728542 1_556
K15 Sb16 3.975511 1_555
In0 Sb21 2.882955 1_455
In0 Sb19 2.896465 1_555
In0 Sb11 2.898782 1_555
In0 Sb13 2.943577 1_555
In0 K9 3.584478 1_555
In0 K13 3.639086 1_455
In1 Sb19 2.882955 1_555
In1 Sb21 2.896465 1_555
In1 Sb12 2.898782 1_555
In1 Sb22 2.943577 1_555
In1 K13 3.584478 1_555
In1 K9 3.639086 1_555
In2 Sb7 2.882955 1_555
In2 Sb6 2.896465 1_555
In2 Sb20 2.898782 1_555
In2 Sb5 2.943577 1_555
In2 K1 3.584478 1_555
In2 K5 3.639086 1_555
In3 Sb11 2.829623 1_555
In3 Sb16 2.867277 1_555
In3 Sb21 2.883622 1_555
In3 Sb8 2.990645 1_555
In3 K14 3.818098 1_655
In4 Sb1 2.864857 1_555
In4 Sb17 2.866763 1_565
In4 Sb8 2.879509 1_555
In4 Sb16 2.891781 1_555
In4 K6 3.535261 1_565
In4 K0 3.650061 1_555
In5 Sb2 2.864857 1_555
In5 Sb4 2.866763 1_545
In5 Sb10 2.879509 1_555
In5 Sb9 2.891781 1_555
In5 K8 3.535261 1_545
In5 K10 3.650061 1_555
In6 Sb6 2.882955 1_655
In6 Sb7 2.896465 1_555
In6 Sb23 2.898782 1_555
In6 Sb0 2.943577 1_555
In6 K5 3.584478 1_555
In6 K1 3.639086 1_655
In7 Sb20 2.829623 1_655
In7 Sb3 2.867277 1_555
In7 Sb7 2.883622 1_555
In7 Sb15 2.990645 1_555
In7 K15 3.818098 1_554
In8 Sb4 2.864857 1_655
In8 Sb2 2.866763 1_565
In8 Sb15 2.879509 1_555
In8 Sb3 2.891781 1_555
In8 K10 3.535261 1_565
In8 K8 3.650061 1_655
In9 Sb17 2.864857 1_455
In9 Sb1 2.866763 1_545
In9 Sb18 2.879509 1_555
In9 Sb14 2.891781 1_555
In9 K0 3.535261 1_545
In9 K6 3.650061 1_455
In10 Sb23 2.829623 1_555
In10 Sb9 2.867277 1_555
In10 Sb6 2.883622 1_555
In10 Sb10 2.990645 1_555
In10 K3 3.818098 1_455
In11 Sb10 2.832678 1_655
In11 Sb2 2.872651 1_555
In11 Sb0 2.901151 1_555
In11 Sb23 2.928053 1_555
In11 K2 3.755403 1_555
In12 Sb18 2.832678 1_555
In12 Sb17 2.872651 1_555
In12 Sb22 2.901151 1_555
In12 Sb12 2.928053 1_555
In12 K12 3.755403 1_656
In13 Sb15 2.832678 1_555
In13 Sb4 2.872651 1_555
In13 Sb5 2.901151 1_555
In13 Sb20 2.928053 1_555
In13 K4 3.755403 1_454
In14 Sb12 2.829623 1_455
In14 Sb14 2.867277 1_555
In14 Sb19 2.883622 1_555
In14 Sb18 2.990645 1_555
In14 K11 3.818098 1_556
In15 Sb8 2.832678 1_455
In15 Sb1 2.872651 1_555
In15 Sb13 2.901151 1_555
In15 Sb11 2.928053 1_555
In15 K7 3.755403 1_555
Sb0 Sb9 2.881527 1_655
Sb3 Sb5 2.881527 1_555
Sb13 Sb16 2.881527 1_455
Sb14 Sb22 2.881527 1_555
