# generated using pymatgen
data_Sm(CrSi)2
_symmetry_space_group_name_H-M   'P 1'
_cell_length_a   6.04579394
_cell_length_b   6.04579394
_cell_length_c   6.04579394
_cell_angle_alpha   142.37433043
_cell_angle_beta   142.37433043
_cell_angle_gamma   54.26533606
_symmetry_Int_Tables_number   1
_chemical_formula_structural   Sm(CrSi)2
_chemical_formula_sum   'Sm1 Cr2 Si2'
_cell_volume   81.80626166
_cell_formula_units_Z   1
loop_
 _symmetry_equiv_pos_site_id
 _symmetry_equiv_pos_as_xyz
  1  'x, y, z'
loop_
 _atom_site_type_symbol
 _atom_site_label
 _atom_site_symmetry_multiplicity
 _atom_site_fract_x
 _atom_site_fract_y
 _atom_site_fract_z
 _atom_site_occupancy
  Sm  Sm0  1  0.00000000  0.00000000  0.00000000  1
  Cr  Cr0  1  0.75000000  0.25000000  0.50000000  1
  Cr  Cr1  1  0.25000000  0.75000000  0.50000000  1
  Si  Si0  1  0.38168100  0.38168100  0.00000000  1
  Si  Si1  1  0.61831900  0.61831900  0.00000000  1
loop_
_geom_bond_atom_site_label_1
_geom_bond_atom_site_label_2
_geom_bond_distance
_geom_bond_site_symmetry_2
Cr0 Si0 2.410186 1_656
Cr0 Si1 2.410186 1_545
Cr0 Si0 2.410186 1_555
Cr0 Si1 2.410186 1_556
Cr1 Si0 2.410186 1_566
Cr1 Si1 2.410186 1_455
Cr1 Si0 2.410186 1_555
Cr1 Si1 2.410186 1_556
Si0 Si1 2.546448 1_555
Si0 Sm0 3.036980 1_554
Si0 Sm0 3.036980 1_565
Si0 Sm0 3.036980 1_655
Si0 Sm0 3.036980 1_666
Si1 Sm0 3.036980 1_655
Si1 Sm0 3.036980 1_666
Si1 Sm0 3.036980 1_554
Si1 Sm0 3.036980 1_565
