# generated using pymatgen
data_K3AgSn3Se8
_symmetry_space_group_name_H-M   'P 1'
_cell_length_a   8.31490100
_cell_length_b   8.31490100
_cell_length_c   13.68195900
_cell_angle_alpha   90.00000000
_cell_angle_beta   90.00000000
_cell_angle_gamma   90.00000000
_symmetry_Int_Tables_number   1
_chemical_formula_structural   K3AgSn3Se8
_chemical_formula_sum   'K6 Ag2 Sn6 Se16'
_cell_volume   945.93751631
_cell_formula_units_Z   2
loop_
 _symmetry_equiv_pos_site_id
 _symmetry_equiv_pos_as_xyz
  1  'x, y, z'
loop_
 _atom_site_type_symbol
 _atom_site_label
 _atom_site_symmetry_multiplicity
 _atom_site_fract_x
 _atom_site_fract_y
 _atom_site_fract_z
 _atom_site_occupancy
  K  K0  1  0.50000000  0.50000000  0.27397500  1
  K  K1  1  0.00000000  0.00000000  0.72602500  1
  K  K2  1  0.00000000  0.00000000  0.00000000  1
  K  K3  1  0.50000000  0.50000000  0.72602500  1
  K  K4  1  0.00000000  0.00000000  0.27397500  1
  K  K5  1  0.50000000  0.50000000  0.00000000  1
  Ag  Ag0  1  0.00000000  0.50000000  0.00000000  1
  Ag  Ag1  1  0.50000000  0.00000000  0.00000000  1
  Sn  Sn0  1  0.00000000  0.50000000  0.24076300  1
  Sn  Sn1  1  0.00000000  0.50000000  0.75923700  1
  Sn  Sn2  1  0.50000000  0.00000000  0.50000000  1
  Sn  Sn3  1  0.50000000  0.00000000  0.24076300  1
  Sn  Sn4  1  0.50000000  0.00000000  0.75923700  1
  Sn  Sn5  1  0.00000000  0.50000000  0.50000000  1
  Se  Se0  1  0.32166000  0.17834000  0.86190000  1
  Se  Se1  1  0.33545200  0.16454800  0.37435500  1
  Se  Se2  1  0.82166000  0.32166000  0.86190000  1
  Se  Se3  1  0.82166000  0.67834000  0.13810000  1
  Se  Se4  1  0.33545200  0.83545200  0.62564500  1
  Se  Se5  1  0.32166000  0.82166000  0.13810000  1
  Se  Se6  1  0.66454800  0.16454800  0.62564500  1
  Se  Se7  1  0.16454800  0.33545200  0.62564500  1
  Se  Se8  1  0.83545200  0.33545200  0.37435500  1
  Se  Se9  1  0.66454800  0.83545200  0.37435500  1
  Se  Se10  1  0.17834000  0.32166000  0.13810000  1
  Se  Se11  1  0.17834000  0.67834000  0.86190000  1
  Se  Se12  1  0.83545200  0.66454800  0.62564500  1
  Se  Se13  1  0.67834000  0.82166000  0.86190000  1
  Se  Se14  1  0.67834000  0.17834000  0.13810000  1
  Se  Se15  1  0.16454800  0.66454800  0.37435500  1
loop_
_geom_bond_atom_site_label_1
_geom_bond_atom_site_label_2
_geom_bond_distance
_geom_bond_site_symmetry_2
K0 Se15 3.396778 1_555
K0 Se9 3.396778 1_555
K0 Se8 3.396778 1_555
K0 Se1 3.396778 1_555
K0 Se5 3.578865 1_555
K0 Se10 3.578865 1_555
K0 Se3 3.578865 1_555
K0 Se14 3.578865 1_555
K1 Se7 3.396778 1_555
K1 Se4 3.396778 1_545
K1 Se6 3.396778 1_455
K1 Se12 3.396778 1_445
K1 Se11 3.578865 1_545
K1 Se2 3.578865 1_455
K1 Se13 3.578865 1_445
K1 Se0 3.578865 1_555
K2 Se14 3.594773 1_455
K2 Se11 3.594773 1_544
K2 Se0 3.594773 1_554
K2 Se5 3.594773 1_545
K2 Se13 3.594773 1_444
K2 Se3 3.594773 1_445
K2 Se10 3.594773 1_555
K2 Se2 3.594773 1_454
K3 Se7 3.396778 1_555
K3 Se4 3.396778 1_555
K3 Se6 3.396778 1_555
K3 Se12 3.396778 1_555
K3 Se2 3.578865 1_555
K3 Se13 3.578865 1_555
K3 Se11 3.578865 1_555
K3 Se0 3.578865 1_555
K4 Se15 3.396778 1_545
K4 Se9 3.396778 1_445
K4 Se8 3.396778 1_455
K4 Se1 3.396778 1_555
K4 Se14 3.578865 1_455
K4 Se10 3.578865 1_555
K4 Se3 3.578865 1_445
K4 Se5 3.578865 1_545
K5 Se2 3.594773 1_554
K5 Se5 3.594773 1_555
K5 Se0 3.594773 1_554
K5 Se13 3.594773 1_554
K5 Se11 3.594773 1_554
K5 Se10 3.594773 1_555
K5 Se3 3.594773 1_555
K5 Se14 3.594773 1_555
Ag0 Se10 2.822763 1_555
Ag0 Se11 2.822763 1_554
Ag0 Se2 2.822763 1_454
Ag0 Se3 2.822763 1_455
Ag1 Se0 2.822763 1_554
Ag1 Se14 2.822763 1_555
Ag1 Se5 2.822763 1_545
Ag1 Se13 2.822763 1_544
Se0 Sn4 2.524054 1_555
Se1 Sn2 2.588271 1_555
Se1 Sn3 2.661728 1_555
Se2 Sn1 2.524054 1_655
Se3 Sn0 2.524054 1_655
Se4 Sn2 2.588271 1_565
Se4 Sn4 2.661728 1_565
Se5 Sn3 2.524054 1_565
Se6 Sn2 2.588271 1_555
Se6 Sn4 2.661728 1_555
Se7 Sn5 2.588271 1_555
Se7 Sn1 2.661728 1_555
Se8 Sn5 2.588271 1_655
Se8 Sn0 2.661728 1_655
Se9 Sn2 2.588271 1_565
Se9 Sn3 2.661728 1_565
Se10 Sn0 2.524054 1_555
Se11 Sn1 2.524054 1_555
Se12 Sn5 2.588271 1_655
Se12 Sn1 2.661728 1_655
Se13 Sn4 2.524054 1_565
Se14 Sn3 2.524054 1_555
Se15 Sn5 2.588271 1_555
Se15 Sn0 2.661728 1_555
