# generated using pymatgen
data_Mg(SiB6)2
_symmetry_space_group_name_H-M   'P 1'
_cell_length_a   6.11349760
_cell_length_b   8.37719396
_cell_length_c   11.00011086
_cell_angle_alpha   90.00000000
_cell_angle_beta   90.00000000
_cell_angle_gamma   90.00000000
_symmetry_Int_Tables_number   1
_chemical_formula_structural   Mg(SiB6)2
_chemical_formula_sum   'Mg4 Si8 B48'
_cell_volume   563.35918444
_cell_formula_units_Z   4
loop_
 _symmetry_equiv_pos_site_id
 _symmetry_equiv_pos_as_xyz
  1  'x, y, z'
loop_
 _atom_site_type_symbol
 _atom_site_label
 _atom_site_symmetry_multiplicity
 _atom_site_fract_x
 _atom_site_fract_y
 _atom_site_fract_z
 _atom_site_occupancy
  Mg  Mg0  1  0.75000000  0.15877273  0.42939813  1
  Mg  Mg1  1  0.25000000  0.65877273  0.07060187  1
  Mg  Mg2  1  0.75000000  0.34122727  0.92939813  1
  Mg  Mg3  1  0.25000000  0.84122727  0.57060187  1
  Si  Si0  1  0.75000000  0.63214376  0.91824291  1
  Si  Si1  1  0.75000000  0.10116421  0.08455653  1
  Si  Si2  1  0.75000000  0.39883579  0.58455653  1
  Si  Si3  1  0.25000000  0.89883579  0.91544347  1
  Si  Si4  1  0.25000000  0.36785624  0.08175709  1
  Si  Si5  1  0.75000000  0.86785624  0.41824291  1
  Si  Si6  1  0.25000000  0.13214376  0.58175709  1
  Si  Si7  1  0.25000000  0.60116421  0.41544347  1
  B  B0  1  0.01481931  0.53317739  0.83071113  1
  B  B1  1  0.09183970  0.16621708  0.29175810  1
  B  B2  1  0.98518069  0.46682261  0.16928887  1
  B  B3  1  0.75000000  0.15470834  0.64743607  1
  B  B4  1  0.01690467  0.03019366  0.17273958  1
  B  B5  1  0.09105240  0.83349613  0.21289490  1
  B  B6  1  0.75000000  0.34529166  0.14743607  1
  B  B7  1  0.75000000  0.64887349  0.34671193  1
  B  B8  1  0.25000000  0.84529166  0.35256393  1
  B  B9  1  0.40894760  0.83349613  0.21289490  1
  B  B10  1  0.75000000  0.94302959  0.59694594  1
  B  B11  1  0.40816030  0.16621708  0.29175810  1
  B  B12  1  0.25000000  0.05697041  0.40305406  1
  B  B13  1  0.01481931  0.96682261  0.33071113  1
  B  B14  1  0.59183970  0.83378292  0.70824190  1
  B  B15  1  0.09105240  0.66650387  0.71289490  1
  B  B16  1  0.48309533  0.46980634  0.67273958  1
  B  B17  1  0.40894760  0.66650387  0.71289490  1
  B  B18  1  0.59105240  0.33349613  0.28710510  1
  B  B19  1  0.01690467  0.46980634  0.67273958  1
  B  B20  1  0.51690467  0.96980634  0.82726042  1
  B  B21  1  0.90816030  0.66621708  0.20824190  1
  B  B22  1  0.48518069  0.53317739  0.83071113  1
  B  B23  1  0.75000000  0.44540842  0.39938459  1
  B  B24  1  0.51481931  0.03317739  0.66928887  1
  B  B25  1  0.25000000  0.94540842  0.10061541  1
  B  B26  1  0.75000000  0.85112651  0.84671193  1
  B  B27  1  0.59105240  0.16650387  0.78710510  1
  B  B28  1  0.98518069  0.03317739  0.66928887  1
  B  B29  1  0.25000000  0.35112651  0.65328807  1
  B  B30  1  0.98309533  0.96980634  0.82726042  1
  B  B31  1  0.90894760  0.33349613  0.28710510  1
  B  B32  1  0.75000000  0.05459158  0.89938459  1
  B  B33  1  0.98309533  0.53019366  0.32726042  1
  B  B34  1  0.09183970  0.33378292  0.79175810  1
  B  B35  1  0.51481931  0.46682261  0.16928887  1
  B  B36  1  0.40816030  0.33378292  0.79175810  1
  B  B37  1  0.48309533  0.03019366  0.17273958  1
  B  B38  1  0.48518069  0.96682261  0.33071113  1
  B  B39  1  0.90894760  0.16650387  0.78710510  1
  B  B40  1  0.25000000  0.55459158  0.60061541  1
  B  B41  1  0.25000000  0.14887349  0.15328807  1
  B  B42  1  0.51690467  0.53019366  0.32726042  1
  B  B43  1  0.59183970  0.66621708  0.20824190  1
  B  B44  1  0.90816030  0.83378292  0.70824190  1
  B  B45  1  0.75000000  0.55697041  0.09694594  1
  B  B46  1  0.25000000  0.65470834  0.85256393  1
  B  B47  1  0.25000000  0.44302959  0.90305406  1
loop_
_geom_bond_atom_site_label_1
_geom_bond_atom_site_label_2
_geom_bond_distance
_geom_bond_site_symmetry_2
Mg0 Si5 2.440151 1_545
Mg0 Si2 2.637683 1_555
Mg1 Si4 2.440151 1_555
Mg1 Si3 2.637683 1_554
Mg2 Si0 2.440151 1_555
Mg2 Si1 2.637683 1_556
Mg3 Si6 2.440151 1_565
Mg3 Si7 2.637683 1_555
B0 B15 1.773208 1_555
B0 B46 1.778058 1_555
B0 B34 1.787579 1_555
B0 B47 1.808528 1_555
B0 B19 1.817032 1_555
B0 Si0 2.058036 1_455
B0 Mg2 2.526896 1_455
B1 B13 1.787579 1_545
B1 B31 1.793464 1_455
B1 B4 1.795095 1_555
B1 B12 1.808676 1_555
B1 B41 1.810007 1_555
B1 B11 1.933825 1_555
B1 Mg0 2.581408 1_455
B2 B31 1.773208 1_555
B2 B6 1.778058 1_555
B2 B21 1.787579 1_555
B2 B45 1.808528 1_555
B2 B33 1.817032 1_555
B2 Si4 2.058036 1_655
B2 Mg1 2.526896 1_655
B3 B39 1.820567 1_555
B3 Si2 2.158905 1_555
B3 Mg0 2.398683 1_555
B4 B41 1.750694 1_555
B4 B5 1.765149 1_545
B4 Si1 1.989203 1_455
B5 B8 1.820567 1_555
B5 B9 1.943452 1_555
B5 Mg1 2.353002 1_555
B6 Si1 2.158905 1_555
B6 Mg2 2.398683 1_554
B7 Si5 1.996091 1_555
B8 B9 1.820567 1_555
B8 Si7 2.158905 1_555
B8 Mg3 2.398683 1_555
B9 Mg1 2.353002 1_555
B10 B24 1.808528 1_565
B10 B28 1.808528 1_565
B10 B44 1.808676 1_555
B10 B14 1.808676 1_555
B10 B3 1.858216 1_565
B10 Si5 2.064161 1_555
B10 Mg0 2.581323 1_565
B11 B38 1.787579 1_545
B11 B18 1.793464 1_555
B11 B37 1.795095 1_555
B11 B12 1.808676 1_555
B11 B41 1.810007 1_555
B11 Mg0 2.581408 1_555
B12 B13 1.808528 1_545
B12 B38 1.808528 1_545
B12 B8 1.858216 1_545
B12 Si6 2.064161 1_555
B12 Mg3 2.581323 1_545
B13 B5 1.773208 1_555
B13 B8 1.778058 1_555
B13 B4 1.817032 1_565
B13 Si5 2.058036 1_455
B13 Mg0 2.526896 1_465
B14 B24 1.787579 1_565
B14 B17 1.793464 1_555
B14 B20 1.795095 1_555
B14 B26 1.810007 1_555
B14 B44 1.933825 1_555
B14 Mg3 2.581408 1_555
B15 B19 1.765149 1_555
B15 B44 1.793464 1_455
B15 B46 1.820567 1_555
B15 B40 1.829923 1_555
B15 B17 1.943452 1_555
B15 Mg3 2.353002 1_555
B16 B29 1.750694 1_555
B16 B17 1.765149 1_555
B16 B40 1.778938 1_555
B16 B36 1.795095 1_555
B16 B22 1.817032 1_555
B16 Si2 1.989203 1_555
B17 B22 1.773208 1_555
B17 B46 1.820567 1_555
B17 B40 1.829923 1_555
B17 Mg3 2.353002 1_555
B18 B42 1.765149 1_555
B18 B35 1.773208 1_555
B18 B6 1.820567 1_555
B18 B23 1.829923 1_555
B18 B31 1.943452 1_555
B18 Mg0 2.353002 1_555
B19 B29 1.750694 1_555
B19 B40 1.778938 1_555
B19 B34 1.795095 1_555
B19 Si2 1.989203 1_455
B20 B26 1.750694 1_555
B20 B27 1.765149 1_565
B20 B32 1.778938 1_565
B20 B24 1.817032 1_565
B20 Si3 1.989203 1_555
B21 B5 1.793464 1_655
B21 B33 1.795095 1_555
B21 B45 1.808676 1_555
B21 B7 1.810007 1_555
B21 B43 1.933825 1_555
B21 Mg1 2.581408 1_655
B22 B46 1.778058 1_555
B22 B36 1.787579 1_555
B22 B47 1.808528 1_555
B22 Si0 2.058036 1_555
B22 Mg2 2.526896 1_555
B23 B42 1.778938 1_555
B23 B33 1.778938 1_555
B23 B7 1.800254 1_555
B23 B31 1.829923 1_555
B23 Si2 2.073940 1_555
B23 Mg0 2.423794 1_555
B24 B27 1.773208 1_555
B24 B3 1.778058 1_555
B24 Si6 2.058036 1_555
B24 Mg3 2.526896 1_545
B25 B4 1.778938 1_565
B25 B37 1.778938 1_565
B25 B41 1.800254 1_565
B25 B9 1.829923 1_555
B25 B5 1.829923 1_555
B25 Si3 2.073940 1_554
B25 Mg1 2.423794 1_555
B26 B30 1.750694 1_555
B26 B32 1.800254 1_565
B26 B44 1.810007 1_555
B26 Si0 1.996091 1_555
B27 B36 1.793464 1_555
B27 B3 1.820567 1_555
B27 B32 1.829923 1_555
B27 B39 1.943452 1_555
B27 Mg2 2.353002 1_555
B28 B39 1.773208 1_555
B28 B3 1.778058 1_555
B28 B44 1.787579 1_545
B28 B30 1.817032 1_545
B28 Si6 2.058036 1_655
B28 Mg3 2.526896 1_645
B29 B40 1.800254 1_555
B29 B36 1.810007 1_555
B29 B34 1.810007 1_555
B29 Si6 1.996091 1_555
B30 B39 1.765149 1_565
B30 B32 1.778938 1_565
B30 B44 1.795095 1_555
B30 Si3 1.989203 1_655
B31 B33 1.765149 1_555
B31 B6 1.820567 1_555
B31 Mg0 2.353002 1_555
B32 B39 1.829923 1_555
B32 Si1 2.073940 1_556
B32 Mg2 2.423794 1_555
B33 B7 1.750694 1_555
B33 Si7 1.989203 1_655
B34 B39 1.793464 1_455
B34 B47 1.808676 1_555
B34 B36 1.933825 1_555
B34 Mg2 2.581408 1_455
B35 B6 1.778058 1_555
B35 B43 1.787579 1_555
B35 B45 1.808528 1_555
B35 B42 1.817032 1_555
B35 Si4 2.058036 1_555
B35 Mg1 2.526896 1_555
B36 B47 1.808676 1_555
B36 Mg2 2.581408 1_555
B37 B41 1.750694 1_555
B37 B9 1.765149 1_545
B37 B38 1.817032 1_545
B37 Si1 1.989203 1_555
B38 B9 1.773208 1_555
B38 B8 1.778058 1_555
B38 Si5 2.058036 1_555
B38 Mg0 2.526896 1_565
B39 Mg2 2.353002 1_555
B40 Si7 2.073940 1_555
B40 Mg3 2.423794 1_555
B41 Si4 1.996091 1_555
B42 B7 1.750694 1_555
B42 B43 1.795095 1_555
B42 Si7 1.989203 1_555
B43 B9 1.793464 1_555
B43 B45 1.808676 1_555
B43 B7 1.810007 1_555
B43 Mg1 2.581408 1_555
B44 Mg3 2.581408 1_655
B45 B6 1.858216 1_555
B45 Si0 2.064161 1_554
B45 Mg2 2.581323 1_554
B46 B47 1.858216 1_555
B46 Si3 2.158905 1_555
B46 Mg1 2.398683 1_556
B47 Si4 2.064161 1_556
B47 Mg1 2.581323 1_556
