# generated using pymatgen
data_Gd2Ti2O7
_symmetry_space_group_name_H-M   'P 1'
_cell_length_a   7.20317113
_cell_length_b   7.20317113
_cell_length_c   7.20317113
_cell_angle_alpha   60.00000000
_cell_angle_beta   60.00000000
_cell_angle_gamma   60.00000000
_symmetry_Int_Tables_number   1
_chemical_formula_structural   Gd2Ti2O7
_chemical_formula_sum   'Gd4 Ti4 O14'
_cell_volume   264.27507193
_cell_formula_units_Z   2
loop_
 _symmetry_equiv_pos_site_id
 _symmetry_equiv_pos_as_xyz
  1  'x, y, z'
loop_
 _atom_site_type_symbol
 _atom_site_label
 _atom_site_symmetry_multiplicity
 _atom_site_fract_x
 _atom_site_fract_y
 _atom_site_fract_z
 _atom_site_occupancy
  Gd  Gd0  1  0.62500000  0.62500000  0.12500000  1
  Gd  Gd1  1  0.62500000  0.12500000  0.62500000  1
  Gd  Gd2  1  0.12500000  0.62500000  0.62500000  1
  Gd  Gd3  1  0.62500000  0.62500000  0.62500000  1
  Ti  Ti0  1  0.12500000  0.12500000  0.62500000  1
  Ti  Ti1  1  0.12500000  0.62500000  0.12500000  1
  Ti  Ti2  1  0.62500000  0.12500000  0.12500000  1
  Ti  Ti3  1  0.12500000  0.12500000  0.12500000  1
  O  O0  1  0.75000000  0.75000000  0.75000000  1
  O  O1  1  0.50000000  0.50000000  0.50000000  1
  O  O2  1  0.04713289  0.45286711  0.04713289  1
  O  O3  1  0.79713289  0.20286711  0.79713289  1
  O  O4  1  0.04713289  0.04713289  0.45286711  1
  O  O5  1  0.45286711  0.04713289  0.04713289  1
  O  O6  1  0.04713289  0.45286711  0.45286711  1
  O  O7  1  0.45286711  0.45286711  0.04713289  1
  O  O8  1  0.45286711  0.04713289  0.45286711  1
  O  O9  1  0.20286711  0.79713289  0.79713289  1
  O  O10  1  0.79713289  0.20286711  0.20286711  1
  O  O11  1  0.20286711  0.79713289  0.20286711  1
  O  O12  1  0.79713289  0.79713289  0.20286711  1
  O  O13  1  0.20286711  0.20286711  0.79713289  1
loop_
_geom_bond_atom_site_label_1
_geom_bond_atom_site_label_2
_geom_bond_distance
_geom_bond_site_symmetry_2
Gd0 O0 2.205512 1_554
Gd0 O1 2.205512 1_555
Gd0 O7 2.513478 1_555
Gd0 O10 2.513478 1_555
Gd0 O12 2.513478 1_555
Gd0 O2 2.513478 1_655
Gd0 O11 2.513478 1_555
Gd0 O5 2.513478 1_565
Gd1 O1 2.205512 1_555
Gd1 O0 2.205512 1_545
Gd1 O8 2.513478 1_555
Gd1 O10 2.513478 1_555
Gd1 O3 2.513478 1_555
Gd1 O13 2.513478 1_555
Gd1 O5 2.513478 1_556
Gd1 O4 2.513478 1_655
Gd2 O0 2.205512 1_455
Gd2 O1 2.205512 1_555
Gd2 O9 2.513478 1_555
Gd2 O6 2.513478 1_555
Gd2 O11 2.513478 1_555
Gd2 O13 2.513478 1_555
Gd2 O4 2.513478 1_565
Gd2 O2 2.513478 1_556
Gd3 O0 2.205512 1_555
Gd3 O1 2.205512 1_555
Gd3 O9 2.513478 1_555
Gd3 O3 2.513478 1_555
Gd3 O12 2.513478 1_555
Gd3 O7 2.513478 1_556
Gd3 O6 2.513478 1_655
Gd3 O8 2.513478 1_565
O2 Ti1 1.967753 1_555
O2 Ti3 1.967753 1_555
O3 Ti2 1.967753 1_556
O3 Ti0 1.967753 1_655
O4 Ti0 1.967753 1_555
O4 Ti3 1.967753 1_555
O5 Ti2 1.967753 1_555
O5 Ti3 1.967753 1_555
O6 Ti1 1.967753 1_555
O6 Ti0 1.967753 1_555
O7 Ti1 1.967753 1_555
O7 Ti2 1.967753 1_555
O8 Ti0 1.967753 1_555
O8 Ti2 1.967753 1_555
O9 Ti1 1.967753 1_556
O9 Ti0 1.967753 1_565
O10 Ti3 1.967753 1_655
O10 Ti2 1.967753 1_555
O11 Ti3 1.967753 1_565
O11 Ti1 1.967753 1_555
O12 Ti2 1.967753 1_565
O12 Ti1 1.967753 1_655
O13 Ti0 1.967753 1_555
O13 Ti3 1.967753 1_556
