# generated using pymatgen
data_KNiAs3F18
_symmetry_space_group_name_H-M   'P 1'
_cell_length_a   9.61982200
_cell_length_b   10.53156600
_cell_length_c   14.10472400
_cell_angle_alpha   90.00000000
_cell_angle_beta   90.00000000
_cell_angle_gamma   90.00000000
_symmetry_Int_Tables_number   1
_chemical_formula_structural   KNiAs3F18
_chemical_formula_sum   'K4 Ni4 As12 F72'
_cell_volume   1428.97484015
_cell_formula_units_Z   4
loop_
 _symmetry_equiv_pos_site_id
 _symmetry_equiv_pos_as_xyz
  1  'x, y, z'
loop_
 _atom_site_type_symbol
 _atom_site_label
 _atom_site_symmetry_multiplicity
 _atom_site_fract_x
 _atom_site_fract_y
 _atom_site_fract_z
 _atom_site_occupancy
  K  K0  1  0.97673900  0.57580600  0.25000000  1
  K  K1  1  0.02326100  0.42419400  0.75000000  1
  K  K2  1  0.52326100  0.07580600  0.25000000  1
  K  K3  1  0.47673900  0.92419400  0.75000000  1
  Ni  Ni0  1  0.50000000  0.50000000  0.00000000  1
  Ni  Ni1  1  0.00000000  0.00000000  0.00000000  1
  Ni  Ni2  1  0.50000000  0.50000000  0.50000000  1
  Ni  Ni3  1  0.00000000  0.00000000  0.50000000  1
  As  As0  1  0.80469000  0.29588100  0.04902200  1
  As  As1  1  0.19531000  0.70411900  0.54902200  1
  As  As2  1  0.30469000  0.20411900  0.54902200  1
  As  As3  1  0.30469000  0.20411900  0.95097800  1
  As  As4  1  0.19531000  0.70411900  0.95097800  1
  As  As5  1  0.69531000  0.79588100  0.45097800  1
  As  As6  1  0.89291500  0.02085000  0.75000000  1
  As  As7  1  0.69531000  0.79588100  0.04902200  1
  As  As8  1  0.10708500  0.97915000  0.25000000  1
  As  As9  1  0.60708500  0.52085000  0.75000000  1
  As  As10  1  0.80469000  0.29588100  0.45097800  1
  As  As11  1  0.39291500  0.47915000  0.25000000  1
  F  F0  1  0.78246400  0.56716000  0.75000000  1
  F  F1  1  0.56185000  0.67245800  0.45182200  1
  F  F2  1  0.11026300  0.97580100  0.37958000  1
  F  F3  1  0.29328500  0.78542700  0.03508100  1
  F  F4  1  0.90265600  0.37795800  0.36580300  1
  F  F5  1  0.93815000  0.17245800  0.45182200  1
  F  F6  1  0.82558200  0.92279900  0.44279200  1
  F  F7  1  0.88973700  0.02419900  0.62042000  1
  F  F8  1  0.89164300  0.37765900  0.95856700  1
  F  F9  1  0.21753600  0.43284000  0.25000000  1
  F  F10  1  0.39164300  0.12234100  0.04143300  1
  F  F11  1  0.82558200  0.92279900  0.05720800  1
  F  F12  1  0.84174900  0.86220800  0.75000000  1
  F  F13  1  0.55863300  0.68202500  0.75000000  1
  F  F14  1  0.43196500  0.47748600  0.75000000  1
  F  F15  1  0.59734400  0.87795800  0.13419700  1
  F  F16  1  0.88973700  0.02419900  0.87958000  1
  F  F17  1  0.71753600  0.06716000  0.75000000  1
  F  F18  1  0.89164300  0.37765900  0.54143300  1
  F  F19  1  0.20671500  0.28542700  0.46491900  1
  F  F20  1  0.93196500  0.02251400  0.25000000  1
  F  F21  1  0.71745900  0.21453800  0.35980200  1
  F  F22  1  0.71745900  0.21453800  0.14019800  1
  F  F23  1  0.67441800  0.42279900  0.44279200  1
  F  F24  1  0.10835700  0.62234100  0.04143300  1
  F  F25  1  0.65825100  0.36220800  0.75000000  1
  F  F26  1  0.06185000  0.82754200  0.54817800  1
  F  F27  1  0.43815000  0.32754200  0.95182200  1
  F  F28  1  0.29328500  0.78542700  0.46491900  1
  F  F29  1  0.38973700  0.47580100  0.37958000  1
  F  F30  1  0.39164300  0.12234100  0.45856700  1
  F  F31  1  0.38973700  0.47580100  0.12042000  1
  F  F32  1  0.09734400  0.62204200  0.86580300  1
  F  F33  1  0.70671500  0.21457300  0.53508100  1
  F  F34  1  0.94136700  0.18202500  0.75000000  1
  F  F35  1  0.59734400  0.87795800  0.36580300  1
  F  F36  1  0.17441800  0.07720100  0.55720800  1
  F  F37  1  0.56803500  0.52251400  0.25000000  1
  F  F38  1  0.05863300  0.81797500  0.25000000  1
  F  F39  1  0.60835700  0.87765900  0.95856700  1
  F  F40  1  0.56185000  0.67245800  0.04817800  1
  F  F41  1  0.93815000  0.17245800  0.04817800  1
  F  F42  1  0.28254100  0.78546200  0.64019800  1
  F  F43  1  0.61026300  0.52419900  0.62042000  1
  F  F44  1  0.40265600  0.12204200  0.86580300  1
  F  F45  1  0.21745900  0.28546200  0.64019800  1
  F  F46  1  0.32558200  0.57720100  0.94279200  1
  F  F47  1  0.79328500  0.71457300  0.53508100  1
  F  F48  1  0.79328500  0.71457300  0.96491900  1
  F  F49  1  0.28246400  0.93284000  0.25000000  1
  F  F50  1  0.32558200  0.57720100  0.55720800  1
  F  F51  1  0.21745900  0.28546200  0.85980200  1
  F  F52  1  0.40265600  0.12204200  0.63419700  1
  F  F53  1  0.61026300  0.52419900  0.87958000  1
  F  F54  1  0.28254100  0.78546200  0.85980200  1
  F  F55  1  0.90265600  0.37795800  0.13419700  1
  F  F56  1  0.20671500  0.28542700  0.03508100  1
  F  F57  1  0.60835700  0.87765900  0.54143300  1
  F  F58  1  0.34174900  0.63779200  0.25000000  1
  F  F59  1  0.17441800  0.07720100  0.94279200  1
  F  F60  1  0.44136700  0.31797500  0.25000000  1
  F  F61  1  0.70671500  0.21457300  0.96491900  1
  F  F62  1  0.09734400  0.62204200  0.63419700  1
  F  F63  1  0.78254100  0.71453800  0.35980200  1
  F  F64  1  0.06803500  0.97748600  0.75000000  1
  F  F65  1  0.11026300  0.97580100  0.12042000  1
  F  F66  1  0.67441800  0.42279900  0.05720800  1
  F  F67  1  0.78254100  0.71453800  0.14019800  1
  F  F68  1  0.43815000  0.32754200  0.54817800  1
  F  F69  1  0.10835700  0.62234100  0.45856700  1
  F  F70  1  0.15825100  0.13779200  0.25000000  1
  F  F71  1  0.06185000  0.82754200  0.95182200  1
loop_
_geom_bond_atom_site_label_1
_geom_bond_atom_site_label_2
_geom_bond_distance
_geom_bond_site_symmetry_2
As0 F61 1.740330 1_554
As0 F8 1.751917 1_554
As0 F55 1.754600 1_555
As0 F22 1.758373 1_555
As0 F41 1.827025 1_555
As0 F66 1.835877 1_555
As1 F28 1.740330 1_555
As1 F69 1.751917 1_555
As1 F62 1.754600 1_555
As1 F42 1.758373 1_555
As1 F26 1.827025 1_555
As1 F50 1.835877 1_555
As2 F19 1.740330 1_555
As2 F30 1.751917 1_555
As2 F52 1.754600 1_555
As2 F45 1.758373 1_555
As2 F68 1.827025 1_555
As2 F36 1.835877 1_555
As3 F56 1.740330 1_556
As3 F10 1.751917 1_556
As3 F44 1.754600 1_555
As3 F51 1.758373 1_555
As3 F27 1.827025 1_555
As3 F59 1.835877 1_555
As4 F3 1.740330 1_556
As4 F24 1.751917 1_556
As4 F32 1.754600 1_555
As4 F54 1.758373 1_555
As4 F71 1.827025 1_555
As4 F46 1.835877 1_555
As5 F47 1.740330 1_555
As5 F57 1.751917 1_555
As5 F35 1.754600 1_555
As5 F63 1.758373 1_555
As5 F1 1.827025 1_555
As5 F6 1.835877 1_555
As6 F12 1.741743 1_545
As6 F64 1.745429 1_645
As6 F17 1.756196 1_555
As6 F34 1.760256 1_555
As6 F7 1.828286 1_555
As6 F16 1.828286 1_555
As7 F48 1.740330 1_554
As7 F39 1.751917 1_554
As7 F15 1.754600 1_555
As7 F67 1.758373 1_555
As7 F40 1.827025 1_555
As7 F11 1.835877 1_555
As8 F70 1.741743 1_565
As8 F20 1.745429 1_465
As8 F49 1.756196 1_555
As8 F38 1.760256 1_555
As8 F2 1.828286 1_555
As8 F65 1.828286 1_555
As9 F25 1.741743 1_555
As9 F14 1.745429 1_555
As9 F0 1.756196 1_555
As9 F13 1.760256 1_555
As9 F43 1.828286 1_555
As9 F53 1.828286 1_555
As10 F33 1.740330 1_555
As10 F18 1.751917 1_555
As10 F4 1.754600 1_555
As10 F21 1.758373 1_555
As10 F5 1.827025 1_555
As10 F23 1.835877 1_555
As11 F58 1.741743 1_555
As11 F37 1.745429 1_555
As11 F9 1.756196 1_555
As11 F60 1.760256 1_555
As11 F29 1.828286 1_555
As11 F31 1.828286 1_555
F0 K1 2.762756 1_655
F1 Ni2 2.028436 1_555
F2 Ni3 2.018645 1_565
F4 K0 2.741784 1_555
F5 Ni3 2.028436 1_655
F6 Ni3 2.031597 1_665
F7 Ni3 2.018645 1_655
F8 K1 3.239964 1_655
F9 K0 2.762756 1_455
F10 K2 3.239964 1_555
F11 Ni1 2.031597 1_665
F13 K3 2.669321 1_555
F15 K2 2.741784 1_565
F16 Ni1 2.018645 1_656
F17 K3 2.762756 1_545
F18 K1 3.239964 1_655
F21 K2 2.832535 1_555
F22 K2 2.832535 1_555
F23 Ni2 2.031597 1_555
F24 K0 3.239964 1_455
F26 Ni3 2.028436 1_565
F27 Ni0 2.028436 1_556
F29 Ni2 2.018645 1_555
F30 K2 3.239964 1_555
F31 Ni0 2.018645 1_555
F32 K1 2.741784 1_555
F34 K1 2.669321 1_655
F35 K2 2.741784 1_565
F36 Ni3 2.031597 1_555
F38 K0 2.669321 1_455
F39 K3 3.239964 1_555
F40 Ni0 2.028436 1_555
F41 Ni1 2.028436 1_655
F42 K3 2.832535 1_555
F43 Ni2 2.018645 1_555
F44 K3 2.741784 1_545
F45 K1 2.832535 1_555
F46 Ni0 2.031597 1_556
F49 K2 2.762756 1_565
F50 Ni2 2.031597 1_555
F51 K1 2.832535 1_555
F52 K3 2.741784 1_545
F53 Ni0 2.018645 1_556
F54 K3 2.832535 1_555
F55 K0 2.741784 1_555
F57 K3 3.239964 1_555
F59 Ni1 2.031597 1_556
F60 K2 2.669321 1_555
F62 K1 2.741784 1_555
F63 K0 2.832535 1_555
F65 Ni1 2.018645 1_565
F66 Ni0 2.031597 1_555
F67 K0 2.832535 1_555
F68 Ni2 2.028436 1_555
F69 K0 3.239964 1_455
F71 Ni1 2.028436 1_566
