# generated using pymatgen
data_K3NpO2F5
_symmetry_space_group_name_H-M   'P 1'
_cell_length_a   11.32491988
_cell_length_b   11.32491988
_cell_length_c   11.32491988
_cell_angle_alpha   131.34671679
_cell_angle_beta   131.34671679
_cell_angle_gamma   71.26279455
_symmetry_Int_Tables_number   1
_chemical_formula_structural   K3NpO2F5
_chemical_formula_sum   'K12 Np4 O8 F20'
_cell_volume   801.31490335
_cell_formula_units_Z   4
loop_
 _symmetry_equiv_pos_site_id
 _symmetry_equiv_pos_as_xyz
  1  'x, y, z'
loop_
 _atom_site_type_symbol
 _atom_site_label
 _atom_site_symmetry_multiplicity
 _atom_site_fract_x
 _atom_site_fract_y
 _atom_site_fract_z
 _atom_site_occupancy
  K  K0  1  0.75000000  0.25000000  0.50000000  1
  K  K1  1  0.37500000  0.91675100  0.04175100  1
  K  K2  1  0.37500000  0.33324900  0.45824900  1
  K  K3  1  0.87500000  0.91675100  0.54175100  1
  K  K4  1  0.87500000  0.33324900  0.95824900  1
  K  K5  1  0.50000000  0.50000000  0.00000000  1
  K  K6  1  0.08324900  0.12500000  0.45824900  1
  K  K7  1  0.66675100  0.62500000  0.54175100  1
  K  K8  1  0.66675100  0.12500000  0.04175100  1
  K  K9  1  0.25000000  0.75000000  0.50000000  1
  K  K10  1  0.08324900  0.62500000  0.95824900  1
  K  K11  1  0.00000000  0.00000000  0.00000000  1
  Np  Np0  1  0.27205800  0.27205800  0.00000000  1
  Np  Np1  1  0.47794200  0.97794200  0.50000000  1
  Np  Np2  1  0.72794200  0.72794200  0.00000000  1
  Np  Np3  1  0.02205800  0.52205800  0.50000000  1
  O  O0  1  0.47666200  0.78078000  0.30411800  1
  O  O1  1  0.92254400  0.72666200  0.19588200  1
  O  O2  1  0.82745600  0.52333800  0.30411800  1
  O  O3  1  0.21922000  0.52333800  0.69588200  1
  O  O4  1  0.53078000  0.72666200  0.80411800  1
  O  O5  1  0.27333800  0.46922000  0.19588200  1
  O  O6  1  0.47666200  0.17254400  0.69588200  1
  O  O7  1  0.27333800  0.07745600  0.80411800  1
  F  F0  1  0.22382800  0.36979000  0.85403700  1
  F  F1  1  0.28993400  0.02070900  0.26922500  1
  F  F2  1  0.51575300  0.36979000  0.14596300  1
  F  F3  1  0.46006600  0.22929100  0.23077500  1
  F  F4  1  0.14640000  0.14640000  0.00000000  1
  F  F5  1  0.97929100  0.71006600  0.73077500  1
  F  F6  1  0.63021000  0.77617200  0.14596300  1
  F  F7  1  0.60360000  0.10360000  0.50000000  1
  F  F8  1  0.77070900  0.53993400  0.76922500  1
  F  F9  1  0.77070900  0.00148400  0.23077500  1
  F  F10  1  0.52617200  0.88021000  0.64596300  1
  F  F11  1  0.11979000  0.47382800  0.35403700  1
  F  F12  1  0.85360000  0.85360000  0.00000000  1
  F  F13  1  0.23424700  0.88021000  0.35403700  1
  F  F14  1  0.89640000  0.39640000  0.50000000  1
  F  F15  1  0.75148400  0.02070900  0.73077500  1
  F  F16  1  0.99851600  0.22929100  0.76922500  1
  F  F17  1  0.63021000  0.48424700  0.85403700  1
  F  F18  1  0.11979000  0.76575300  0.64596300  1
  F  F19  1  0.97929100  0.24851600  0.26922500  1
loop_
_geom_bond_atom_site_label_1
_geom_bond_atom_site_label_2
_geom_bond_distance
_geom_bond_site_symmetry_2
K1 O4 3.341798 1_554
K1 O3 3.341798 1_554
K2 O4 3.341798 1_555
K2 O3 3.341798 1_555
K3 O1 3.341798 1_555
K3 O2 3.341798 1_555
K4 O1 3.341798 1_556
K4 O2 3.341798 1_556
K5 O2 2.869864 1_555
K5 O3 2.869864 1_554
K5 O6 2.869864 1_554
K5 O0 2.869864 1_555
K6 O6 3.341798 1_555
K6 O7 3.341798 1_555
K7 O0 3.341798 1_555
K7 O5 3.341798 1_555
K8 O6 3.341798 1_554
K8 O7 3.341798 1_554
K9 O5 2.869864 1_555
K9 O1 2.869864 1_455
K9 O7 2.869864 1_565
K9 O4 2.869864 1_555
K10 O0 3.341798 1_556
K10 O5 3.341798 1_556
Np0 O7 1.827796 1_554
Np0 O5 1.827796 1_555
Np1 O0 1.827796 1_555
Np1 O6 1.827796 1_565
Np2 O4 1.827796 1_554
Np2 O1 1.827796 1_555
Np3 O2 1.827796 1_455
Np3 O3 1.827796 1_555
F0 Np0 2.256505 1_556
F0 K6 2.701928 1_555
F0 K10 2.701936 1_555
F0 K5 2.756934 1_556
F1 Np1 2.292633 1_545
F1 K11 2.540724 1_555
F1 K2 2.737460 1_555
F1 K1 2.737460 1_545
F2 Np0 2.256500 1_555
F2 K8 2.701930 1_555
F2 K7 2.701930 1_555
F2 K5 2.756944 1_555
F3 Np0 2.292633 1_555
F3 K0 2.540724 1_555
F3 K1 2.737460 1_545
F3 K2 2.737460 1_555
F4 Np0 2.313285 1_555
F4 K11 2.695132 1_555
F4 K4 3.061294 1_454
F4 K2 3.061294 1_555
F4 K1 3.061294 1_545
F4 K3 3.061294 1_444
F5 Np3 2.292633 1_655
F5 K11 2.540724 1_666
F5 K7 2.737460 1_555
F5 K10 2.737460 1_655
F6 Np2 2.256505 1_555
F6 K3 2.701928 1_555
F6 K1 2.701936 1_555
F6 K5 2.756934 1_555
F7 Np1 2.313285 1_545
F7 K0 2.695132 1_555
F7 K2 3.061294 1_555
F7 K4 3.061294 1_555
F7 K3 3.061294 1_545
F7 K1 3.061294 1_545
F8 Np2 2.292633 1_556
F8 K0 2.540724 1_555
F8 K10 2.737460 1_655
F8 K7 2.737460 1_555
F9 Np2 2.292633 1_545
F9 K0 2.540724 1_555
F9 K6 2.737460 1_655
F9 K8 2.737460 1_555
F10 Np1 2.256505 1_555
F10 K8 2.701928 1_566
F10 K7 2.701936 1_555
F10 K9 2.756934 1_555
F11 Np3 2.256505 1_555
F11 K4 2.701928 1_454
F11 K2 2.701936 1_555
F11 K9 2.756934 1_555
F12 Np2 2.313285 1_555
F12 K11 2.695132 1_665
F12 K10 3.061294 1_654
F12 K6 3.061294 1_665
F12 K7 3.061294 1_554
F12 K8 3.061294 1_565
F13 Np1 2.256500 1_555
F13 K6 2.701930 1_565
F13 K10 2.701930 1_554
F13 K9 2.756944 1_555
F14 Np3 2.313285 1_655
F14 K0 2.695132 1_555
F14 K6 3.061294 1_655
F14 K10 3.061294 1_655
F14 K7 3.061294 1_555
F14 K8 3.061294 1_555
F15 Np1 2.292633 1_545
F15 K11 2.540724 1_656
F15 K4 2.737460 1_555
F15 K3 2.737460 1_545
F16 Np0 2.292633 1_656
F16 K0 2.540724 1_555
F16 K3 2.737460 1_545
F16 K4 2.737460 1_555
F17 Np2 2.256500 1_556
F17 K2 2.701930 1_555
F17 K4 2.701930 1_555
F17 K5 2.756944 1_556
F18 Np3 2.256500 1_555
F18 K1 2.701930 1_556
F18 K3 2.701930 1_455
F18 K9 2.756944 1_555
F19 Np3 2.292633 1_655
F19 K11 2.540724 1_655
F19 K8 2.737460 1_555
F19 K6 2.737460 1_655
