# generated using pymatgen
data_Cs3Fe4(PO4)5
_symmetry_space_group_name_H-M   'P 1'
_cell_length_a   9.85138052
_cell_length_b   13.93912918
_cell_length_c   14.05898746
_cell_angle_alpha   90.00000000
_cell_angle_beta   90.00000000
_cell_angle_gamma   90.00000000
_symmetry_Int_Tables_number   1
_chemical_formula_structural   Cs3Fe4(PO4)5
_chemical_formula_sum   'Cs12 Fe16 P20 O80'
_cell_volume   1930.57545766
_cell_formula_units_Z   4
loop_
 _symmetry_equiv_pos_site_id
 _symmetry_equiv_pos_as_xyz
  1  'x, y, z'
loop_
 _atom_site_type_symbol
 _atom_site_label
 _atom_site_symmetry_multiplicity
 _atom_site_fract_x
 _atom_site_fract_y
 _atom_site_fract_z
 _atom_site_occupancy
  Cs  Cs0  1  0.18865289  0.61084936  0.62614908  1
  Cs  Cs1  1  0.31134711  0.88915064  0.62614908  1
  Cs  Cs2  1  0.68865289  0.38915064  0.87385092  1
  Cs  Cs3  1  0.81134711  0.11084936  0.87385092  1
  Cs  Cs4  1  0.81134711  0.38915064  0.37385092  1
  Cs  Cs5  1  0.68865289  0.11084936  0.37385092  1
  Cs  Cs6  1  0.31134711  0.61084936  0.12614908  1
  Cs  Cs7  1  0.18865289  0.88915064  0.12614908  1
  Cs  Cs8  1  0.25000000  0.25000000  0.76298760  1
  Cs  Cs9  1  0.75000000  0.75000000  0.73701240  1
  Cs  Cs10  1  0.75000000  0.75000000  0.23701240  1
  Cs  Cs11  1  0.25000000  0.25000000  0.26298760  1
  Fe  Fe0  1  0.12515389  0.95565299  0.84919762  1
  Fe  Fe1  1  0.37484611  0.54434701  0.84919762  1
  Fe  Fe2  1  0.62515389  0.04434701  0.65080238  1
  Fe  Fe3  1  0.87484611  0.45565299  0.65080238  1
  Fe  Fe4  1  0.87484611  0.04434701  0.15080238  1
  Fe  Fe5  1  0.62515389  0.45565299  0.15080238  1
  Fe  Fe6  1  0.37484611  0.95565299  0.34919762  1
  Fe  Fe7  1  0.12515389  0.54434701  0.34919762  1
  Fe  Fe8  1  0.46267060  0.16266752  0.00882267  1
  Fe  Fe9  1  0.03732940  0.33733248  0.00882267  1
  Fe  Fe10  1  0.96267060  0.83733248  0.49117733  1
  Fe  Fe11  1  0.53732940  0.66266752  0.49117733  1
  Fe  Fe12  1  0.53732940  0.83733248  0.99117733  1
  Fe  Fe13  1  0.96267060  0.66266752  0.99117733  1
  Fe  Fe14  1  0.03732940  0.16266752  0.50882267  1
  Fe  Fe15  1  0.46267060  0.33733248  0.50882267  1
  P  P0  1  0.36017939  0.12214077  0.52309524  1
  P  P1  1  0.13982061  0.37785923  0.52309524  1
  P  P2  1  0.86017939  0.87785923  0.97690476  1
  P  P3  1  0.63982061  0.62214077  0.97690476  1
  P  P4  1  0.63982061  0.87785923  0.47690476  1
  P  P5  1  0.86017939  0.62214077  0.47690476  1
  P  P6  1  0.13982061  0.12214077  0.02309524  1
  P  P7  1  0.36017939  0.37785923  0.02309524  1
  P  P8  1  0.44179251  0.01552130  0.84232117  1
  P  P9  1  0.05820749  0.48447870  0.84232117  1
  P  P10  1  0.94179251  0.98447870  0.65767883  1
  P  P11  1  0.55820749  0.51552130  0.65767883  1
  P  P12  1  0.55820749  0.98447870  0.15767883  1
  P  P13  1  0.94179251  0.51552130  0.15767883  1
  P  P14  1  0.05820749  0.01552130  0.34232117  1
  P  P15  1  0.44179251  0.48447870  0.34232117  1
  P  P16  1  0.25000000  0.75000000  0.89994342  1
  P  P17  1  0.75000000  0.25000000  0.60005658  1
  P  P18  1  0.75000000  0.25000000  0.10005658  1
  P  P19  1  0.25000000  0.75000000  0.39994342  1
  O  O0  1  0.37141132  0.03152792  0.46083652  1
  O  O1  1  0.12858868  0.46847208  0.46083652  1
  O  O2  1  0.87141132  0.96847208  0.03916348  1
  O  O3  1  0.62858868  0.53152792  0.03916348  1
  O  O4  1  0.62858868  0.96847208  0.53916348  1
  O  O5  1  0.87141132  0.53152792  0.53916348  1
  O  O6  1  0.12858868  0.03152792  0.96083652  1
  O  O7  1  0.37141132  0.46847208  0.96083652  1
  O  O8  1  0.21389838  0.13092412  0.56063486  1
  O  O9  1  0.28610162  0.36907588  0.56063486  1
  O  O10  1  0.71389838  0.86907588  0.93936514  1
  O  O11  1  0.78610162  0.63092412  0.93936514  1
  O  O12  1  0.78610162  0.86907588  0.43936514  1
  O  O13  1  0.71389838  0.63092412  0.43936514  1
  O  O14  1  0.28610162  0.13092412  0.06063486  1
  O  O15  1  0.21389838  0.36907588  0.06063486  1
  O  O16  1  0.39794845  0.20962791  0.46282700  1
  O  O17  1  0.10205155  0.29037209  0.46282700  1
  O  O18  1  0.89794845  0.79037209  0.03717300  1
  O  O19  1  0.60205155  0.70962791  0.03717300  1
  O  O20  1  0.60205155  0.79037209  0.53717300  1
  O  O21  1  0.89794845  0.70962791  0.53717300  1
  O  O22  1  0.10205155  0.20962791  0.96282700  1
  O  O23  1  0.39794845  0.29037209  0.96282700  1
  O  O24  1  0.45418709  0.11019464  0.60909664  1
  O  O25  1  0.04581291  0.38980536  0.60909664  1
  O  O26  1  0.95418709  0.88980536  0.89090336  1
  O  O27  1  0.54581291  0.61019464  0.89090336  1
  O  O28  1  0.54581291  0.88980536  0.39090336  1
  O  O29  1  0.95418709  0.61019464  0.39090336  1
  O  O30  1  0.04581291  0.11019464  0.10909664  1
  O  O31  1  0.45418709  0.38980536  0.10909664  1
  O  O32  1  0.45524091  0.94084828  0.91995853  1
  O  O33  1  0.04475909  0.55915172  0.91995853  1
  O  O34  1  0.95524091  0.05915172  0.58004147  1
  O  O35  1  0.54475909  0.44084828  0.58004147  1
  O  O36  1  0.54475909  0.05915172  0.08004147  1
  O  O37  1  0.95524091  0.44084828  0.08004147  1
  O  O38  1  0.04475909  0.94084828  0.41995853  1
  O  O39  1  0.45524091  0.55915172  0.41995853  1
  O  O40  1  0.48290195  0.11547251  0.88193828  1
  O  O41  1  0.01709805  0.38452749  0.88193828  1
  O  O42  1  0.98290195  0.88452749  0.61806172  1
  O  O43  1  0.51709805  0.61547251  0.61806172  1
  O  O44  1  0.51709805  0.88452749  0.11806172  1
  O  O45  1  0.98290195  0.61547251  0.11806172  1
  O  O46  1  0.01709805  0.11547251  0.38193828  1
  O  O47  1  0.48290195  0.38452749  0.38193828  1
  O  O48  1  0.53980107  0.99120821  0.76017919  1
  O  O49  1  0.96019893  0.50879179  0.76017919  1
  O  O50  1  0.03980107  0.00879179  0.73982081  1
  O  O51  1  0.46019893  0.49120821  0.73982081  1
  O  O52  1  0.46019893  0.00879179  0.23982081  1
  O  O53  1  0.03980107  0.49120821  0.23982081  1
  O  O54  1  0.96019893  0.99120821  0.26017919  1
  O  O55  1  0.53980107  0.50879179  0.26017919  1
  O  O56  1  0.29687223  0.02062119  0.80426183  1
  O  O57  1  0.20312777  0.47937881  0.80426183  1
  O  O58  1  0.79687223  0.97937881  0.69573817  1
  O  O59  1  0.70312777  0.52062119  0.69573817  1
  O  O60  1  0.70312777  0.97937881  0.19573817  1
  O  O61  1  0.79687223  0.52062119  0.19573817  1
  O  O62  1  0.20312777  0.02062119  0.30426183  1
  O  O63  1  0.29687223  0.47937881  0.30426183  1
  O  O64  1  0.21631626  0.83469248  0.83411269  1
  O  O65  1  0.28368374  0.66530752  0.83411269  1
  O  O66  1  0.71631626  0.16530752  0.66588731  1
  O  O67  1  0.78368374  0.33469248  0.66588731  1
  O  O68  1  0.78368374  0.16530752  0.16588731  1
  O  O69  1  0.71631626  0.33469248  0.16588731  1
  O  O70  1  0.28368374  0.83469248  0.33411269  1
  O  O71  1  0.21631626  0.66530752  0.33411269  1
  O  O72  1  0.13141906  0.73000678  0.96692338  1
  O  O73  1  0.36858094  0.76999322  0.96692338  1
  O  O74  1  0.63141906  0.26999322  0.53307662  1
  O  O75  1  0.86858094  0.23000678  0.53307662  1
  O  O76  1  0.86858094  0.26999322  0.03307662  1
  O  O77  1  0.63141906  0.23000678  0.03307662  1
  O  O78  1  0.36858094  0.73000678  0.46692338  1
  O  O79  1  0.13141906  0.76999322  0.46692338  1
loop_
_geom_bond_atom_site_label_1
_geom_bond_atom_site_label_2
_geom_bond_distance
_geom_bond_site_symmetry_2
Cs0 O57 3.106307 1_555
Cs0 O1 3.112939 1_555
Cs0 O65 3.162441 1_555
Cs0 O79 3.201562 1_555
Cs0 O43 3.238277 1_555
Cs0 O49 3.261841 1_455
Cs0 O78 3.303297 1_555
Cs0 O25 3.395756 1_555
Cs0 O21 3.414994 1_455
Cs0 O5 3.533463 1_455
Cs0 O51 3.534308 1_555
Cs0 O9 3.623206 1_555
Cs1 O56 3.106307 1_565
Cs1 O0 3.112939 1_565
Cs1 O64 3.162441 1_555
Cs1 O78 3.201562 1_555
Cs1 O42 3.238277 1_455
Cs1 O48 3.261841 1_555
Cs1 O79 3.303297 1_555
Cs1 O24 3.395756 1_565
Cs1 O20 3.414994 1_555
Cs1 O4 3.533463 1_555
Cs1 O50 3.534308 1_565
Cs1 O8 3.623206 1_565
Cs2 O59 3.106307 1_555
Cs2 O3 3.112939 1_556
Cs2 O67 3.162441 1_555
Cs2 O77 3.201562 1_556
Cs2 O41 3.238277 1_655
Cs2 O51 3.261841 1_555
Cs2 O76 3.303297 1_556
Cs2 O27 3.395756 1_555
Cs2 O23 3.414994 1_555
Cs2 O7 3.533463 1_555
Cs2 O49 3.534308 1_555
Cs2 O11 3.623206 1_555
Cs3 O58 3.106307 1_545
Cs3 O2 3.112939 1_546
Cs3 O66 3.162441 1_555
Cs3 O76 3.201562 1_556
Cs3 O40 3.238277 1_555
Cs3 O50 3.261841 1_655
Cs3 O77 3.303297 1_556
Cs3 O26 3.395756 1_545
Cs3 O22 3.414994 1_655
Cs3 O6 3.533463 1_655
Cs3 O48 3.534308 1_545
Cs3 O10 3.623206 1_545
Cs4 O61 3.106307 1_555
Cs4 O5 3.112939 1_555
Cs4 O69 3.162441 1_555
Cs4 O75 3.201562 1_555
Cs4 O47 3.238277 1_555
Cs4 O53 3.261841 1_655
Cs4 O74 3.303297 1_555
Cs4 O29 3.395756 1_555
Cs4 O17 3.414994 1_655
Cs4 O1 3.533463 1_655
Cs4 O55 3.534308 1_555
Cs4 O13 3.623206 1_555
Cs5 O60 3.106307 1_545
Cs5 O4 3.112939 1_545
Cs5 O68 3.162441 1_555
Cs5 O74 3.201562 1_555
Cs5 O46 3.238277 1_655
Cs5 O52 3.261841 1_555
Cs5 O75 3.303297 1_555
Cs5 O28 3.395756 1_545
Cs5 O16 3.414994 1_555
Cs5 O0 3.533463 1_555
Cs5 O54 3.534308 1_545
Cs5 O12 3.623206 1_545
Cs6 O63 3.106307 1_555
Cs6 O7 3.112939 1_554
Cs6 O71 3.162441 1_555
Cs6 O73 3.201562 1_554
Cs6 O45 3.238277 1_455
Cs6 O55 3.261841 1_555
Cs6 O72 3.303297 1_554
Cs6 O31 3.395756 1_555
Cs6 O19 3.414994 1_555
Cs6 O3 3.533463 1_555
Cs6 O53 3.534308 1_555
Cs6 O15 3.623206 1_555
Cs7 O62 3.106307 1_565
Cs7 O6 3.112939 1_564
Cs7 O70 3.162441 1_555
Cs7 O72 3.201562 1_554
Cs7 O44 3.238277 1_555
Cs7 O54 3.261841 1_455
Cs7 O73 3.303297 1_554
Cs7 O30 3.395756 1_565
Cs7 O18 3.414994 1_455
Cs7 O2 3.533463 1_455
Cs7 O52 3.534308 1_565
Cs7 O14 3.623206 1_565
Cs8 O22 3.214731 1_555
Cs8 O23 3.214731 1_555
Cs8 O57 3.282213 1_555
Cs8 O56 3.282213 1_555
Cs8 O8 3.312821 1_555
Cs8 O9 3.312821 1_555
Cs8 O41 3.402548 1_555
Cs8 O40 3.402548 1_555
Cs8 O25 3.539049 1_555
Cs8 O24 3.539049 1_555
Cs9 O21 3.214731 1_555
Cs9 O20 3.214731 1_555
Cs9 O58 3.282213 1_555
Cs9 O59 3.282213 1_555
Cs9 O10 3.312821 1_555
Cs9 O11 3.312821 1_555
Cs9 O42 3.402548 1_555
Cs9 O43 3.402548 1_555
Cs9 O26 3.539049 1_555
Cs9 O27 3.539049 1_555
Cs10 O18 3.214731 1_555
Cs10 O19 3.214731 1_555
Cs10 O60 3.282213 1_555
Cs10 O61 3.282213 1_555
Cs10 O12 3.312821 1_555
Cs10 O13 3.312821 1_555
Cs10 O44 3.402548 1_555
Cs10 O45 3.402548 1_555
Cs10 O29 3.539049 1_555
Cs10 O28 3.539049 1_555
Cs11 O17 3.214731 1_555
Cs11 O16 3.214731 1_555
Cs11 O63 3.282213 1_555
Cs11 O62 3.282213 1_555
Cs11 O14 3.312821 1_555
Cs11 O15 3.312821 1_555
Cs11 O46 3.402548 1_555
Cs11 O47 3.402548 1_555
Cs11 O31 3.539049 1_555
Cs11 O30 3.539049 1_555
Fe0 O6 1.892921 1_565
Fe0 O50 1.902701 1_565
Fe0 O64 1.922081 1_555
Fe0 O26 2.005739 1_455
Fe0 O56 2.020135 1_565
Fe1 O7 1.892921 1_555
Fe1 O51 1.902701 1_555
Fe1 O65 1.922081 1_555
Fe1 O27 2.005739 1_555
Fe1 O57 2.020135 1_555
Fe2 O4 1.892921 1_545
Fe2 O48 1.902701 1_545
Fe2 O66 1.922081 1_555
Fe2 O24 2.005739 1_555
Fe2 O58 2.020135 1_545
Fe3 O5 1.892921 1_555
Fe3 O49 1.902701 1_555
Fe3 O67 1.922081 1_555
Fe3 O25 2.005739 1_655
Fe3 O59 2.020135 1_555
Fe4 O2 1.892921 1_545
Fe4 O54 1.902701 1_545
Fe4 O68 1.922081 1_555
Fe4 O30 2.005739 1_655
Fe4 O60 2.020135 1_545
Fe5 O3 1.892921 1_555
Fe5 O55 1.902701 1_555
Fe5 O69 1.922081 1_555
Fe5 O31 2.005739 1_555
Fe5 O61 2.020135 1_555
Fe6 O0 1.892921 1_565
Fe6 O52 1.902701 1_565
Fe6 O70 1.922081 1_555
Fe6 O28 2.005739 1_555
Fe6 O62 2.020135 1_565
Fe7 O1 1.892921 1_555
Fe7 O53 1.902701 1_555
Fe7 O71 1.922081 1_555
Fe7 O29 2.005739 1_455
Fe7 O63 2.020135 1_555
Fe8 O40 1.911721 1_554
Fe8 O36 1.933525 1_555
Fe8 O14 1.937026 1_555
Fe8 O77 1.939311 1_555
Fe8 O23 1.998354 1_554
Fe9 O41 1.911721 1_554
Fe9 O37 1.933525 1_455
Fe9 O15 1.937026 1_555
Fe9 O76 1.939311 1_455
Fe9 O22 1.998354 1_554
Fe10 O42 1.911721 1_555
Fe10 O38 1.933525 1_655
Fe10 O12 1.937026 1_555
Fe10 O79 1.939311 1_655
Fe10 O21 1.998354 1_555
Fe11 O43 1.911721 1_555
Fe11 O39 1.933525 1_555
Fe11 O13 1.937026 1_555
Fe11 O78 1.939311 1_555
Fe11 O20 1.998354 1_555
Fe12 O44 1.911721 1_556
Fe12 O32 1.933525 1_555
Fe12 O10 1.937026 1_555
Fe12 O73 1.939311 1_555
Fe12 O19 1.998354 1_556
Fe13 O45 1.911721 1_556
Fe13 O33 1.933525 1_655
Fe13 O11 1.937026 1_555
Fe13 O72 1.939311 1_655
Fe13 O18 1.998354 1_556
Fe14 O46 1.911721 1_555
Fe14 O34 1.933525 1_455
Fe14 O8 1.937026 1_555
Fe14 O75 1.939311 1_455
Fe14 O17 1.998354 1_555
Fe15 O47 1.911721 1_555
Fe15 O35 1.933525 1_555
Fe15 O9 1.937026 1_555
Fe15 O74 1.939311 1_555
Fe15 O16 1.998354 1_555
O0 P0 1.540687 1_555
O1 P1 1.540687 1_555
O2 P2 1.540687 1_554
O3 P3 1.540687 1_554
O4 P4 1.540687 1_555
O5 P5 1.540687 1_555
O6 P6 1.540687 1_556
O7 P7 1.540687 1_556
O8 P0 1.539549 1_555
O9 P1 1.539549 1_555
O10 P2 1.539549 1_555
O11 P3 1.539549 1_555
O12 P4 1.539549 1_555
O13 P5 1.539549 1_555
O14 P6 1.539549 1_555
O15 P7 1.539549 1_555
O16 P0 1.530864 1_555
O17 P1 1.530864 1_555
O18 P2 1.530864 1_554
O19 P3 1.530864 1_554
O20 P4 1.530864 1_555
O21 P5 1.530864 1_555
O22 P6 1.530864 1_556
O23 P7 1.530864 1_556
O24 P0 1.532092 1_555
O25 P1 1.532092 1_555
O26 P2 1.532092 1_555
O27 P3 1.532092 1_555
O28 P4 1.532092 1_555
O29 P5 1.532092 1_555
O30 P6 1.532092 1_555
O31 P7 1.532092 1_555
O32 P8 1.514053 1_565
O33 P9 1.514053 1_555
O34 P10 1.514053 1_545
O35 P11 1.514053 1_555
O36 P12 1.514053 1_545
O37 P13 1.514053 1_555
O38 P14 1.514053 1_565
O39 P15 1.514053 1_555
O40 P8 1.554134 1_555
O41 P9 1.554134 1_555
O42 P10 1.554134 1_555
O43 P11 1.554134 1_555
O44 P12 1.554134 1_555
O45 P13 1.554134 1_555
O46 P14 1.554134 1_555
O47 P15 1.554134 1_555
O48 P8 1.542959 1_565
O49 P9 1.542959 1_655
O50 P10 1.542959 1_445
O51 P11 1.542959 1_555
O52 P12 1.542959 1_545
O53 P13 1.542959 1_455
O54 P14 1.542959 1_665
O55 P15 1.542959 1_555
O56 P8 1.526298 1_555
O57 P9 1.526298 1_555
O58 P10 1.526298 1_555
O59 P11 1.526298 1_555
O60 P12 1.526298 1_555
O61 P13 1.526298 1_555
O62 P14 1.526298 1_555
O63 P15 1.526298 1_555
O64 P16 1.536346 1_555
O65 P16 1.536346 1_555
O66 P17 1.536346 1_555
O67 P17 1.536346 1_555
O68 P18 1.536346 1_555
O69 P18 1.536346 1_555
O70 P19 1.536346 1_555
O71 P19 1.536346 1_555
O72 P16 1.526129 1_555
O73 P16 1.526129 1_555
O74 P17 1.526129 1_555
O75 P17 1.526129 1_555
O76 P18 1.526129 1_555
O77 P18 1.526129 1_555
O78 P19 1.526129 1_555
O79 P19 1.526129 1_555
