# generated using pymatgen
data_Y(SiOs)2
_symmetry_space_group_name_H-M   'P 1'
_cell_length_a   4.17430252
_cell_length_b   4.17430263
_cell_length_c   5.63334944
_cell_angle_alpha   111.74641750
_cell_angle_beta   111.74640828
_cell_angle_gamma   89.99999836
_symmetry_Int_Tables_number   1
_chemical_formula_structural   Y(SiOs)2
_chemical_formula_sum   'Y1 Si2 Os2'
_cell_volume   83.60677042
_cell_formula_units_Z   1
loop_
 _symmetry_equiv_pos_site_id
 _symmetry_equiv_pos_as_xyz
  1  'x, y, z'
loop_
 _atom_site_type_symbol
 _atom_site_label
 _atom_site_symmetry_multiplicity
 _atom_site_fract_x
 _atom_site_fract_y
 _atom_site_fract_z
 _atom_site_occupancy
  Y  Y0  1  0.00000000  0.00000000  0.00000000  1
  Si  Si0  1  0.36995838  0.36995838  0.73991775  1
  Si  Si1  1  0.63004162  0.63004162  0.26008225  1
  Os  Os0  1  0.75000000  0.25000000  0.50000000  1
  Os  Os1  1  0.25000000  0.75000000  0.50000000  1
loop_
_geom_bond_atom_site_label_1
_geom_bond_atom_site_label_2
_geom_bond_distance
_geom_bond_site_symmetry_2
Si0 Y0 3.204633 1_556
Si0 Y0 3.204635 1_566
Si0 Y0 3.204635 1_656
Si0 Y0 3.204638 1_666
Si1 Y0 3.204633 1_665
Si1 Y0 3.204635 1_655
Si1 Y0 3.204635 1_565
Si1 Y0 3.204638 1_555
Os0 Si1 2.383561 1_545
Os0 Si0 2.383561 1_655
Os0 Si0 2.383565 1_555
Os0 Si1 2.383565 1_555
Os0 Y0 3.179898 1_666
Os0 Y0 3.179899 1_555
Os0 Y0 3.179899 1_655
Os0 Y0 3.179899 1_656
Os1 Si0 2.383561 1_565
Os1 Si1 2.383561 1_455
Os1 Si1 2.383565 1_555
Os1 Si0 2.383565 1_555
Os1 Y0 3.179898 1_555
Os1 Y0 3.179899 1_666
Os1 Y0 3.179899 1_566
Os1 Y0 3.179899 1_565
