# generated using pymatgen
data_Yb2CdSb2
_symmetry_space_group_name_H-M   'P 1'
_cell_length_a   9.78222128
_cell_length_b   9.78222128
_cell_length_c   6.46534759
_cell_angle_alpha   90.00000000
_cell_angle_beta   90.00000000
_cell_angle_gamma   154.68059863
_symmetry_Int_Tables_number   1
_chemical_formula_structural   Yb2CdSb2
_chemical_formula_sum   'Yb4 Cd2 Sb4'
_cell_volume   264.58761649
_cell_formula_units_Z   2
loop_
 _symmetry_equiv_pos_site_id
 _symmetry_equiv_pos_as_xyz
  1  'x, y, z'
loop_
 _atom_site_type_symbol
 _atom_site_label
 _atom_site_symmetry_multiplicity
 _atom_site_fract_x
 _atom_site_fract_y
 _atom_site_fract_z
 _atom_site_occupancy
  Yb  Yb0  1  0.48522017  0.51477983  0.70673088  1
  Yb  Yb1  1  0.51477983  0.48522017  0.20673088  1
  Yb  Yb2  1  0.69965674  0.30034326  0.52277497  1
  Yb  Yb3  1  0.30034326  0.69965674  0.02277497  1
  Cd  Cd0  1  0.90621067  0.09378933  0.42173826  1
  Cd  Cd1  1  0.09378933  0.90621067  0.92173826  1
  Sb  Sb0  1  0.31241536  0.68758464  0.53225615  1
  Sb  Sb1  1  0.68758464  0.31241536  0.03225615  1
  Sb  Sb2  1  0.08697773  0.91302227  0.47400974  1
  Sb  Sb3  1  0.91302227  0.08697773  0.97400974  1
loop_
_geom_bond_atom_site_label_1
_geom_bond_atom_site_label_2
_geom_bond_distance
_geom_bond_site_symmetry_2
Yb0 Yb1 3.281550 1_556
Yb0 Yb1 3.281550 1_555
Cd0 Sb0 2.883128 1_655
Cd0 Sb0 2.883128 1_545
Cd0 Sb3 2.897639 1_554
Cd0 Yb0 3.204049 1_655
Cd0 Yb0 3.204049 1_545
Cd0 Yb1 3.289929 1_545
Cd0 Yb1 3.289929 1_655
Cd1 Sb1 2.883128 1_566
Cd1 Sb1 2.883128 1_456
Cd1 Sb2 2.897639 1_555
Cd1 Yb1 3.204049 1_566
Cd1 Yb1 3.204049 1_456
Cd1 Yb0 3.289929 1_455
Cd1 Yb0 3.289929 1_565
Sb0 Yb2 3.038567 1_565
Sb0 Yb2 3.038567 1_455
Sb0 Yb3 3.179736 1_556
Sb0 Yb3 3.302024 1_555
Sb0 Yb0 3.486185 1_555
Sb1 Yb3 3.038567 1_655
Sb1 Yb3 3.038567 1_545
Sb1 Yb2 3.179736 1_555
Sb1 Yb2 3.302024 1_554
Sb1 Yb1 3.486185 1_555
Sb2 Yb2 3.053194 1_565
Sb2 Yb2 3.053194 1_455
Sb2 Yb1 3.079237 1_565
Sb2 Yb1 3.079237 1_455
Sb2 Yb0 3.260846 1_455
Sb2 Yb0 3.260846 1_565
Sb3 Yb3 3.053194 1_656
Sb3 Yb3 3.053194 1_546
Sb3 Yb0 3.079237 1_655
Sb3 Yb0 3.079237 1_545
Sb3 Yb1 3.260846 1_546
Sb3 Yb1 3.260846 1_656
