# generated using pymatgen
data_Na2CaMg(PO4)2
_symmetry_space_group_name_H-M   'P 1'
_cell_length_a   5.23708100
_cell_length_b   9.23461400
_cell_length_c   13.53139794
_cell_angle_alpha   89.00266147
_cell_angle_beta   90.00000000
_cell_angle_gamma   90.00000000
_symmetry_Int_Tables_number   1
_chemical_formula_structural   Na2CaMg(PO4)2
_chemical_formula_sum   'Na8 Ca4 Mg4 P8 O32'
_cell_volume   654.31203089
_cell_formula_units_Z   4
loop_
 _symmetry_equiv_pos_site_id
 _symmetry_equiv_pos_as_xyz
  1  'x, y, z'
loop_
 _atom_site_type_symbol
 _atom_site_label
 _atom_site_symmetry_multiplicity
 _atom_site_fract_x
 _atom_site_fract_y
 _atom_site_fract_z
 _atom_site_occupancy
  Na  Na0  1  0.72163100  0.58163400  0.60246300  1
  Na  Na1  1  0.27836900  0.41836600  0.39753700  1
  Na  Na2  1  0.22163100  0.41836600  0.89753700  1
  Na  Na3  1  0.72250300  0.91566300  0.90976500  1
  Na  Na4  1  0.77836900  0.58163400  0.10246300  1
  Na  Na5  1  0.77749700  0.91566300  0.40976500  1
  Na  Na6  1  0.27749700  0.08433700  0.09023500  1
  Na  Na7  1  0.22250300  0.08433700  0.59023500  1
  Ca  Ca0  1  0.31876900  0.76437400  0.24912600  1
  Ca  Ca1  1  0.81876900  0.23562600  0.25087400  1
  Ca  Ca2  1  0.68123100  0.23562600  0.75087400  1
  Ca  Ca3  1  0.18123100  0.76437400  0.74912600  1
  Mg  Mg0  1  0.25455500  0.74675700  0.50179100  1
  Mg  Mg1  1  0.75455500  0.25324300  0.99820900  1
  Mg  Mg2  1  0.74544500  0.25324300  0.49820900  1
  Mg  Mg3  1  0.24544500  0.74675700  0.00179100  1
  P  P0  1  0.22733200  0.41337900  0.62995500  1
  P  P1  1  0.72952100  0.91885600  0.63439500  1
  P  P2  1  0.22952100  0.08114400  0.86560500  1
  P  P3  1  0.72733200  0.58662100  0.87004500  1
  P  P4  1  0.77047900  0.91885600  0.13439500  1
  P  P5  1  0.77266800  0.58662100  0.37004500  1
  P  P6  1  0.27266800  0.41337900  0.12995500  1
  P  P7  1  0.27047900  0.08114400  0.36560500  1
  O  O0  1  0.83278900  0.60042600  0.76452400  1
  O  O1  1  0.57906900  0.65826200  0.44148000  1
  O  O2  1  0.07906900  0.34173800  0.05852000  1
  O  O3  1  0.16721100  0.39957400  0.23547600  1
  O  O4  1  0.69129400  0.92214100  0.24352300  1
  O  O5  1  0.69224200  0.07689300  0.59425400  1
  O  O6  1  0.92093100  0.65826200  0.94148000  1
  O  O7  1  0.80775800  0.07689300  0.09425400  1
  O  O8  1  0.19224200  0.92310700  0.90574600  1
  O  O9  1  0.52232800  0.16805400  0.38053200  1
  O  O10  1  0.46264400  0.66498100  0.88051100  1
  O  O11  1  0.33278900  0.39957400  0.73547600  1
  O  O12  1  0.97767200  0.16805400  0.88053200  1
  O  O13  1  0.80870600  0.92214100  0.74352300  1
  O  O14  1  0.19569800  0.57608000  0.59985400  1
  O  O15  1  0.03735600  0.66498100  0.38051100  1
  O  O16  1  0.30430200  0.57608000  0.09985400  1
  O  O17  1  0.02232800  0.83194600  0.11946800  1
  O  O18  1  0.30870600  0.07785900  0.75647700  1
  O  O19  1  0.66721100  0.60042600  0.26452400  1
  O  O20  1  0.94904300  0.84686600  0.57470700  1
  O  O21  1  0.69569800  0.42392000  0.90014600  1
  O  O22  1  0.80430200  0.42392000  0.40014600  1
  O  O23  1  0.96264400  0.33501900  0.61948900  1
  O  O24  1  0.53735600  0.33501900  0.11948900  1
  O  O25  1  0.47767200  0.83194600  0.61946800  1
  O  O26  1  0.05095700  0.15313400  0.42529300  1
  O  O27  1  0.19129400  0.07785900  0.25647700  1
  O  O28  1  0.30775800  0.92310700  0.40574600  1
  O  O29  1  0.42093100  0.34173800  0.55852000  1
  O  O30  1  0.55095700  0.84686600  0.07470700  1
  O  O31  1  0.44904300  0.15313400  0.92529300  1
loop_
_geom_bond_atom_site_label_1
_geom_bond_atom_site_label_2
_geom_bond_distance
_geom_bond_site_symmetry_2
Na0 O0 2.278402 1_555
Na0 O1 2.397833 1_555
Na0 O14 2.483521 1_655
Na0 O23 2.610459 1_555
Na0 O25 2.654619 1_555
Na0 O20 2.743465 1_555
Na0 O14 2.755069 1_555
Na0 O29 2.790546 1_555
Na1 O3 2.278402 1_555
Na1 O29 2.397833 1_555
Na1 O22 2.483521 1_455
Na1 O15 2.610459 1_555
Na1 O9 2.654619 1_555
Na1 O26 2.743465 1_555
Na1 O22 2.755069 1_555
Na1 O1 2.790546 1_555
Na2 O11 2.278402 1_555
Na2 O2 2.397833 1_556
Na2 O21 2.483521 1_555
Na2 O10 2.610459 1_555
Na2 O12 2.654619 1_455
Na2 O31 2.743465 1_555
Na2 O21 2.755069 1_455
Na2 O6 2.790546 1_455
Na3 O13 2.294100 1_555
Na3 O8 2.461596 1_655
Na3 O30 2.478456 1_556
Na3 O6 2.622724 1_555
Na3 O31 2.630634 1_565
Na3 O12 2.709705 1_565
Na3 O10 2.720230 1_555
Na3 O8 2.778379 1_555
Na3 O7 2.962691 1_566
Na4 O19 2.278402 1_555
Na4 O6 2.397833 1_554
Na4 O16 2.483521 1_555
Na4 O24 2.610459 1_555
Na4 O17 2.654619 1_655
Na4 O30 2.743465 1_555
Na4 O16 2.755069 1_655
Na4 O2 2.790546 1_655
Na5 O4 2.294100 1_555
Na5 O28 2.461596 1_555
Na5 O20 2.478456 1_555
Na5 O1 2.622724 1_555
Na5 O26 2.630634 1_665
Na5 O9 2.709705 1_565
Na5 O15 2.720230 1_655
Na5 O28 2.778379 1_655
Na5 O5 2.962691 1_565
Na6 O27 2.294100 1_555
Na6 O7 2.461596 1_455
Na6 O31 2.478456 1_554
Na6 O2 2.622724 1_555
Na6 O30 2.630634 1_545
Na6 O17 2.709705 1_545
Na6 O24 2.720230 1_555
Na6 O7 2.778379 1_555
Na6 O8 2.962691 1_544
Na7 O18 2.294100 1_555
Na7 O5 2.461596 1_555
Na7 O26 2.478456 1_555
Na7 O29 2.622724 1_555
Na7 O20 2.630634 1_445
Na7 O25 2.709705 1_545
Na7 O23 2.720230 1_455
Na7 O5 2.778379 1_455
Na7 O28 2.962691 1_545
Ca0 O19 2.377936 1_555
Ca0 O17 2.416524 1_555
Ca0 O4 2.435301 1_555
Ca0 O15 2.473528 1_555
Ca0 O28 2.598371 1_555
Ca0 O16 2.689115 1_555
Ca0 O30 2.750741 1_555
Ca0 O27 2.974244 1_565
Ca0 O1 3.082926 1_555
Ca1 O3 2.377936 1_655
Ca1 O9 2.416524 1_555
Ca1 O27 2.435301 1_655
Ca1 O24 2.473528 1_555
Ca1 O7 2.598371 1_555
Ca1 O22 2.689115 1_555
Ca1 O26 2.750741 1_655
Ca1 O4 2.974244 1_545
Ca1 O2 3.082926 1_655
Ca2 O11 2.377936 1_555
Ca2 O12 2.416524 1_555
Ca2 O18 2.435301 1_555
Ca2 O23 2.473528 1_555
Ca2 O5 2.598371 1_555
Ca2 O21 2.689115 1_555
Ca2 O31 2.750741 1_555
Ca2 O13 2.974244 1_545
Ca2 O29 3.082926 1_555
Ca3 O0 2.377936 1_455
Ca3 O25 2.416524 1_555
Ca3 O13 2.435301 1_455
Ca3 O10 2.473528 1_555
Ca3 O8 2.598371 1_555
Ca3 O14 2.689115 1_555
Ca3 O20 2.750741 1_455
Ca3 O18 2.974244 1_565
Ca3 O6 3.082926 1_455
Mg0 O1 2.060434 1_555
Mg0 O14 2.065709 1_555
Mg0 O28 2.084482 1_555
Mg0 O20 2.102345 1_455
Mg0 O25 2.136203 1_555
Mg0 O15 2.144872 1_555
Mg1 O2 2.060434 1_656
Mg1 O21 2.065709 1_555
Mg1 O7 2.084482 1_556
Mg1 O31 2.102345 1_555
Mg1 O12 2.136203 1_555
Mg1 O24 2.144872 1_556
Mg2 O29 2.060434 1_555
Mg2 O22 2.065709 1_555
Mg2 O5 2.084482 1_555
Mg2 O26 2.102345 1_655
Mg2 O9 2.136203 1_555
Mg2 O23 2.144872 1_555
Mg3 O6 2.060434 1_454
Mg3 O16 2.065709 1_555
Mg3 O8 2.084482 1_554
Mg3 O30 2.102345 1_555
Mg3 O17 2.136203 1_555
Mg3 O10 2.144872 1_554
O0 P3 1.534172 1_555
O1 P5 1.556365 1_555
O2 P6 1.556365 1_555
O3 P6 1.534172 1_555
O4 P4 1.534589 1_555
O5 P1 1.560586 1_545
O6 P3 1.556365 1_555
O7 P4 1.560586 1_545
O8 P2 1.560586 1_565
O9 P7 1.558914 1_555
O10 P3 1.571237 1_555
O11 P0 1.534172 1_555
O12 P2 1.558914 1_655
O13 P1 1.534589 1_555
O14 P0 1.558683 1_555
O15 P5 1.571237 1_455
O16 P6 1.558683 1_555
O17 P4 1.558914 1_455
O18 P2 1.534589 1_555
O19 P5 1.534172 1_555
O20 P1 1.560344 1_555
O21 P3 1.558683 1_555
O22 P5 1.558683 1_555
O23 P0 1.571237 1_655
O24 P6 1.571237 1_555
O25 P1 1.558914 1_555
O26 P7 1.560344 1_555
O27 P7 1.534589 1_555
O28 P7 1.560586 1_565
O29 P0 1.556365 1_555
O30 P4 1.560344 1_555
O31 P2 1.560344 1_555
