# generated using pymatgen
data_NaPO3
_symmetry_space_group_name_H-M   'P 1'
_cell_length_a   5.95087608
_cell_length_b   7.59708067
_cell_length_c   13.07320692
_cell_angle_alpha   58.77843958
_cell_angle_beta   90.00000000
_cell_angle_gamma   90.00000000
_symmetry_Int_Tables_number   1
_chemical_formula_structural   NaPO3
_chemical_formula_sum   'Na8 P8 O24'
_cell_volume   505.43098701
_cell_formula_units_Z   8
loop_
 _symmetry_equiv_pos_site_id
 _symmetry_equiv_pos_as_xyz
  1  'x, y, z'
loop_
 _atom_site_type_symbol
 _atom_site_label
 _atom_site_symmetry_multiplicity
 _atom_site_fract_x
 _atom_site_fract_y
 _atom_site_fract_z
 _atom_site_occupancy
  Na  Na0  1  0.67185378  0.81246822  0.00095191  1
  Na  Na1  1  0.17185378  0.18753178  0.49904809  1
  Na  Na2  1  0.56955063  0.19546344  0.69677721  1
  Na  Na3  1  0.43044937  0.80453656  0.30322279  1
  Na  Na4  1  0.32814622  0.18753178  0.99904809  1
  Na  Na5  1  0.06955063  0.80453656  0.80322279  1
  Na  Na6  1  0.93044937  0.19546344  0.19677721  1
  Na  Na7  1  0.82814622  0.81246822  0.50095191  1
  P  P0  1  0.07599761  0.34114389  0.68916257  1
  P  P1  1  0.57599761  0.65885611  0.81083743  1
  P  P2  1  0.84455405  0.27684905  0.90463648  1
  P  P3  1  0.42400239  0.34114389  0.18916257  1
  P  P4  1  0.92400239  0.65885611  0.31083743  1
  P  P5  1  0.65544595  0.27684905  0.40463648  1
  P  P6  1  0.34455405  0.72315095  0.59536352  1
  P  P7  1  0.15544595  0.72315095  0.09536352  1
  O  O0  1  0.62711187  0.45409677  0.12165109  1
  O  O1  1  0.55401679  0.71493913  0.67451793  1
  O  O2  1  0.56308503  0.19006560  0.52634036  1
  O  O3  1  0.14447677  0.81990780  0.61521692  1
  O  O4  1  0.35025104  0.15355163  0.18974779  1
  O  O5  1  0.12711187  0.54590323  0.37834891  1
  O  O6  1  0.85552323  0.18009220  0.38478308  1
  O  O7  1  0.79791799  0.51835756  0.84939140  1
  O  O8  1  0.05401679  0.28506087  0.82548207  1
  O  O9  1  0.14974896  0.15355163  0.68974779  1
  O  O10  1  0.20208201  0.48164244  0.15060860  1
  O  O11  1  0.64974896  0.84644837  0.81025221  1
  O  O12  1  0.85025104  0.84644837  0.31025221  1
  O  O13  1  0.94598321  0.71493913  0.17451793  1
  O  O14  1  0.43691497  0.80993440  0.47365964  1
  O  O15  1  0.29791799  0.48164244  0.65060860  1
  O  O16  1  0.44598321  0.28506087  0.32548207  1
  O  O17  1  0.70208201  0.51835756  0.34939140  1
  O  O18  1  0.06308503  0.80993440  0.97365964  1
  O  O19  1  0.93691497  0.19006560  0.02634036  1
  O  O20  1  0.64447677  0.18009220  0.88478308  1
  O  O21  1  0.37288813  0.54590323  0.87834891  1
  O  O22  1  0.87288813  0.45409677  0.62165109  1
  O  O23  1  0.35552323  0.81990780  0.11521692  1
loop_
_geom_bond_atom_site_label_1
_geom_bond_atom_site_label_2
_geom_bond_distance
_geom_bond_site_symmetry_2
Na0 O0 2.349359 1_555
Na0 O18 2.356940 1_654
Na0 O11 2.373200 1_554
Na0 O20 2.394979 1_564
Na0 O23 2.421938 1_555
Na0 O13 2.572136 1_555
Na1 O5 2.349359 1_555
Na1 O2 2.356940 1_555
Na1 O9 2.373200 1_555
Na1 O3 2.394979 1_545
Na1 O6 2.421938 1_455
Na1 O16 2.572136 1_555
Na2 O2 2.250015 1_555
Na2 O11 2.319724 1_545
Na2 O20 2.440465 1_555
Na2 O22 2.466405 1_555
Na2 O15 2.518658 1_555
Na2 O9 2.526085 1_555
Na3 O14 2.250015 1_555
Na3 O4 2.319724 1_565
Na3 O23 2.440465 1_555
Na3 O5 2.466405 1_555
Na3 O17 2.518658 1_555
Na3 O12 2.526085 1_555
Na4 O21 2.349359 1_555
Na4 O19 2.356940 1_456
Na4 O4 2.373200 1_556
Na4 O23 2.394979 1_546
Na4 O20 2.421938 1_555
Na4 O8 2.572136 1_555
Na5 O18 2.250015 1_555
Na5 O9 2.319724 1_565
Na5 O3 2.440465 1_555
Na5 O21 2.466405 1_555
Na5 O7 2.518658 1_455
Na5 O11 2.526085 1_455
Na6 O19 2.250015 1_555
Na6 O12 2.319724 1_545
Na6 O6 2.440465 1_555
Na6 O0 2.466405 1_555
Na6 O10 2.518658 1_655
Na6 O4 2.526085 1_655
Na7 O22 2.349359 1_555
Na7 O14 2.356940 1_555
Na7 O12 2.373200 1_555
Na7 O6 2.394979 1_565
Na7 O3 2.421938 1_655
Na7 O1 2.572136 1_555
O0 P3 1.480228 1_555
O1 P6 1.600472 1_555
O1 P1 1.608561 1_555
O2 P5 1.476739 1_555
O3 P6 1.491003 1_555
O4 P3 1.487427 1_555
O5 P4 1.480228 1_455
O6 P5 1.491003 1_555
O7 P1 1.606129 1_555
O7 P2 1.609730 1_555
O8 P2 1.600472 1_455
O8 P0 1.608561 1_555
O9 P0 1.487427 1_555
O10 P3 1.606129 1_555
O10 P7 1.609730 1_555
O11 P1 1.487427 1_555
O12 P4 1.487427 1_555
O13 P7 1.600472 1_655
O13 P4 1.608561 1_555
O14 P6 1.476739 1_555
O15 P0 1.606129 1_555
O15 P6 1.609730 1_555
O16 P5 1.600472 1_555
O16 P3 1.608561 1_555
O17 P4 1.606129 1_555
O17 P5 1.609730 1_555
O18 P7 1.476739 1_556
O19 P2 1.476739 1_554
O20 P2 1.491003 1_555
O21 P1 1.480228 1_555
O22 P0 1.480228 1_655
O23 P7 1.491003 1_555
