# generated using pymatgen
data_H3CS
_symmetry_space_group_name_H-M   'P 1'
_cell_length_a   6.65319500
_cell_length_b   8.74644300
_cell_length_c   9.00590925
_cell_angle_alpha   85.85458805
_cell_angle_beta   90.00000000
_cell_angle_gamma   90.00000000
_symmetry_Int_Tables_number   1
_chemical_formula_structural   H3CS
_chemical_formula_sum   'H24 C8 S8'
_cell_volume   522.69891603
_cell_formula_units_Z   8
loop_
 _symmetry_equiv_pos_site_id
 _symmetry_equiv_pos_as_xyz
  1  'x, y, z'
loop_
 _atom_site_type_symbol
 _atom_site_label
 _atom_site_symmetry_multiplicity
 _atom_site_fract_x
 _atom_site_fract_y
 _atom_site_fract_z
 _atom_site_occupancy
  H  H0  1  0.16932900  0.89505400  0.58304600  1
  H  H1  1  0.72868200  0.09703400  0.97165900  1
  H  H2  1  0.86414100  0.14343800  0.80025300  1
  H  H3  1  0.59120200  0.35099400  0.60908200  1
  H  H4  1  0.06111400  0.73843000  0.49245200  1
  H  H5  1  0.27131800  0.90296600  0.02834100  1
  H  H6  1  0.63210600  0.45231500  0.88502000  1
  H  H7  1  0.33067100  0.39505400  0.58304600  1
  H  H8  1  0.13585900  0.85656200  0.19974700  1
  H  H9  1  0.83067100  0.10494600  0.41695400  1
  H  H10  1  0.63585900  0.64343800  0.80025300  1
  H  H11  1  0.77131800  0.59703400  0.97165900  1
  H  H12  1  0.43888600  0.23843000  0.49245200  1
  H  H13  1  0.22868200  0.40296600  0.02834100  1
  H  H14  1  0.86789400  0.95231500  0.88502000  1
  H  H15  1  0.90879800  0.85099400  0.60908200  1
  H  H16  1  0.66932900  0.60494600  0.41695400  1
  H  H17  1  0.36789400  0.54768500  0.11498000  1
  H  H18  1  0.09120200  0.14900600  0.39091800  1
  H  H19  1  0.56111400  0.76157000  0.50754800  1
  H  H20  1  0.40879800  0.64900600  0.39091800  1
  H  H21  1  0.36414100  0.35656200  0.19974700  1
  H  H22  1  0.93888600  0.26157000  0.50754800  1
  H  H23  1  0.13210600  0.04768500  0.11498000  1
  C  C0  1  0.05820000  0.80167200  0.59321600  1
  C  C1  1  0.72441500  0.55616200  0.86473400  1
  C  C2  1  0.44180000  0.30167200  0.59321600  1
  C  C3  1  0.94180000  0.19832800  0.40678400  1
  C  C4  1  0.55820000  0.69832800  0.40678400  1
  C  C5  1  0.22441500  0.94383800  0.13526600  1
  C  C6  1  0.27558500  0.44383800  0.13526600  1
  C  C7  1  0.77558500  0.05616200  0.86473400  1
  S  S0  1  0.55798600  0.99731500  0.76104500  1
  S  S1  1  0.36541000  0.17909800  0.75480600  1
  S  S2  1  0.94201400  0.49731500  0.76104500  1
  S  S3  1  0.05798600  0.50268500  0.23895500  1
  S  S4  1  0.86541000  0.32090200  0.24519400  1
  S  S5  1  0.63459000  0.82090200  0.24519400  1
  S  S6  1  0.13459000  0.67909800  0.75480600  1
  S  S7  1  0.44201400  0.00268500  0.23895500  1
loop_
_geom_bond_atom_site_label_1
_geom_bond_atom_site_label_2
_geom_bond_distance
_geom_bond_site_symmetry_2
C0 H4 1.096548 1_555
C0 H15 1.097026 1_455
C0 H0 1.100604 1_555
C0 S6 1.816565 1_555
C1 H11 1.096462 1_555
C1 H10 1.096804 1_555
C1 H6 1.100709 1_555
C1 S2 1.817232 1_555
C2 H12 1.096548 1_555
C2 H3 1.097026 1_555
C2 H7 1.100604 1_555
C2 S1 1.816565 1_555
C3 H22 1.096548 1_555
C3 H18 1.097026 1_655
C3 H9 1.100604 1_555
C3 S4 1.816565 1_555
C4 H19 1.096548 1_555
C4 H20 1.097026 1_555
C4 H16 1.100604 1_555
C4 S5 1.816565 1_555
C5 H5 1.096462 1_555
C5 H8 1.096804 1_555
C5 H23 1.100709 1_565
C5 S7 1.817232 1_565
C6 H13 1.096462 1_555
C6 H21 1.096804 1_555
C6 H17 1.100709 1_555
C6 S3 1.817232 1_555
C7 H1 1.096462 1_555
C7 H2 1.096804 1_555
C7 H14 1.100709 1_545
C7 S0 1.817232 1_545
S0 S1 2.039556 1_565
S2 S6 2.039556 1_655
S3 S4 2.039556 1_455
S5 S7 2.039556 1_565
