# generated using pymatgen
data_U3O8
_symmetry_space_group_name_H-M   'P 1'
_cell_length_a   6.73266366
_cell_length_b   6.73246209
_cell_length_c   8.27250896
_cell_angle_alpha   90.00000000
_cell_angle_beta   90.00000000
_cell_angle_gamma   116.71252378
_symmetry_Int_Tables_number   1
_chemical_formula_structural   U3O8
_chemical_formula_sum   'U6 O16'
_cell_volume   334.95183737
_cell_formula_units_Z   2
loop_
 _symmetry_equiv_pos_site_id
 _symmetry_equiv_pos_as_xyz
  1  'x, y, z'
loop_
 _atom_site_type_symbol
 _atom_site_label
 _atom_site_symmetry_multiplicity
 _atom_site_fract_x
 _atom_site_fract_y
 _atom_site_fract_z
 _atom_site_occupancy
  U  U0  1  0.31661562  0.67789362  0.25000000  1
  U  U1  1  0.00065352  0.00063769  0.25000000  1
  U  U2  1  0.32209466  0.68342004  0.75000000  1
  U  U3  1  0.68338438  0.32210638  0.75000000  1
  U  U4  1  0.67790534  0.31657996  0.25000000  1
  U  U5  1  0.99934648  0.99936231  0.75000000  1
  O  O0  1  0.31504677  0.68494812  0.00000892  1
  O  O1  1  0.52682430  0.52678308  0.75000000  1
  O  O2  1  0.00000000  0.00000000  0.50000000  1
  O  O3  1  0.02422834  0.32240622  0.25000000  1
  O  O4  1  0.97577166  0.67759378  0.75000000  1
  O  O5  1  0.32240393  0.02418572  0.25000000  1
  O  O6  1  0.68495323  0.31505188  0.50000892  1
  O  O7  1  0.05163888  0.32792766  0.75000000  1
  O  O8  1  0.67205502  0.94833053  0.25000000  1
  O  O9  1  0.32794498  0.05166947  0.75000000  1
  O  O10  1  0.68495323  0.31505188  -0.00000892  1
  O  O11  1  0.31504677  0.68494812  0.49999108  1
  O  O12  1  0.47317570  0.47321692  0.25000000  1
  O  O13  1  0.94836112  0.67207234  0.25000000  1
  O  O14  1  0.00000000  0.00000000  -0.00000000  1
  O  O15  1  0.67759607  0.97581428  0.75000000  1
loop_
_geom_bond_atom_site_label_1
_geom_bond_atom_site_label_2
_geom_bond_distance
_geom_bond_site_symmetry_2
O0 U0 2.068735 1_555
O0 U2 2.068877 1_554
O1 U3 2.077427 1_555
O1 U2 2.078173 1_555
O2 U5 2.068132 1_445
O2 U1 2.068132 1_555
O3 U1 2.099739 1_555
O3 U4 2.314309 1_455
O3 U0 2.316778 1_555
O4 U5 2.099739 1_555
O4 U2 2.314309 1_655
O4 U3 2.316778 1_555
O5 U1 2.099754 1_555
O5 U0 2.314142 1_545
O5 U4 2.316882 1_555
O6 U3 2.068735 1_555
O6 U4 2.068877 1_555
O7 U5 2.077734 1_445
O7 U2 2.264009 1_555
O7 U3 2.461965 1_455
O8 U1 2.077992 1_665
O8 U0 2.263751 1_555
O8 U4 2.461771 1_565
O9 U5 2.077992 1_445
O9 U3 2.263751 1_555
O9 U2 2.461771 1_545
O10 U3 2.068735 1_554
O10 U4 2.068877 1_555
O11 U0 2.068735 1_555
O11 U2 2.068877 1_555
O12 U0 2.077427 1_555
O12 U4 2.078173 1_555
O13 U1 2.077734 1_665
O13 U4 2.264009 1_555
O13 U0 2.461965 1_655
O14 U5 2.068132 1_444
O14 U1 2.068132 1_555
O15 U5 2.099754 1_555
O15 U3 2.314142 1_565
O15 U2 2.316882 1_555
