# generated using pymatgen
data_Dy9(SbO)5
_symmetry_space_group_name_H-M   'P 1'
_cell_length_a   9.87512700
_cell_length_b   9.87512700
_cell_length_c   8.87761000
_cell_angle_alpha   90.00000000
_cell_angle_beta   90.00000000
_cell_angle_gamma   90.00000000
_symmetry_Int_Tables_number   1
_chemical_formula_structural   Dy9(SbO)5
_chemical_formula_sum   'Dy18 Sb10 O10'
_cell_volume   865.72795506
_cell_formula_units_Z   2
loop_
 _symmetry_equiv_pos_site_id
 _symmetry_equiv_pos_as_xyz
  1  'x, y, z'
loop_
 _atom_site_type_symbol
 _atom_site_label
 _atom_site_symmetry_multiplicity
 _atom_site_fract_x
 _atom_site_fract_y
 _atom_site_fract_z
 _atom_site_occupancy
  Dy  Dy0  1  0.50000000  0.00000000  0.67231400  1
  Dy  Dy1  1  0.79455300  0.10462800  0.34173600  1
  Dy  Dy2  1  0.27408900  0.08260700  0.00179700  1
  Dy  Dy3  1  0.58260700  0.22591100  0.00179700  1
  Dy  Dy4  1  0.20544700  0.89537200  0.34173600  1
  Dy  Dy5  1  0.60462800  0.70544700  0.34173600  1
  Dy  Dy6  1  0.29455300  0.60462800  0.65826400  1
  Dy  Dy7  1  0.41739300  0.77408900  0.00179700  1
  Dy  Dy8  1  0.22591100  0.41739300  0.99820300  1
  Dy  Dy9  1  0.89537200  0.79455300  0.65826400  1
  Dy  Dy10  1  0.00000000  0.50000000  0.32768600  1
  Dy  Dy11  1  0.08260700  0.72591100  0.99820300  1
  Dy  Dy12  1  0.91739300  0.27408900  0.99820300  1
  Dy  Dy13  1  0.77408900  0.58260700  0.99820300  1
  Dy  Dy14  1  0.72591100  0.91739300  0.00179700  1
  Dy  Dy15  1  0.39537200  0.29455300  0.34173600  1
  Dy  Dy16  1  0.70544700  0.39537200  0.65826400  1
  Dy  Dy17  1  0.10462800  0.20544700  0.65826400  1
  Sb  Sb0  1  0.59552200  0.69543200  0.69823900  1
  Sb  Sb1  1  0.90447800  0.80456800  0.30176100  1
  Sb  Sb2  1  0.69543200  0.40447800  0.30176100  1
  Sb  Sb3  1  0.00000000  0.50000000  0.68146400  1
  Sb  Sb4  1  0.30456800  0.59552200  0.30176100  1
  Sb  Sb5  1  0.80456800  0.09552200  0.69823900  1
  Sb  Sb6  1  0.40447800  0.30456800  0.69823900  1
  Sb  Sb7  1  0.19543200  0.90447800  0.69823900  1
  Sb  Sb8  1  0.09552200  0.19543200  0.30176100  1
  Sb  Sb9  1  0.50000000  0.00000000  0.31853600  1
  O  O0  1  0.22491200  0.87991000  0.08683400  1
  O  O1  1  0.27508800  0.62009000  0.91316600  1
  O  O2  1  0.12009000  0.22491200  0.91316600  1
  O  O3  1  0.87991000  0.77508800  0.91316600  1
  O  O4  1  0.72491200  0.37991000  0.91316600  1
  O  O5  1  0.50000000  0.00000000  0.93618400  1
  O  O6  1  0.77508800  0.12009000  0.08683400  1
  O  O7  1  0.00000000  0.50000000  0.06381600  1
  O  O8  1  0.37991000  0.27508800  0.08683400  1
  O  O9  1  0.62009000  0.72491200  0.08683400  1
loop_
_geom_bond_atom_site_label_1
_geom_bond_atom_site_label_2
_geom_bond_distance
_geom_bond_site_symmetry_2
Dy0 O5 2.342535 1_555
Dy0 Sb9 3.140703 1_555
Dy0 Sb5 3.160493 1_555
Dy0 Sb6 3.160493 1_555
Dy0 Sb7 3.160493 1_545
Dy0 Sb0 3.160493 1_545
Dy1 O6 2.276197 1_555
Dy1 Sb9 3.093666 1_555
Dy1 Sb8 3.124650 1_655
Dy1 Sb2 3.138776 1_555
Dy1 Sb5 3.167716 1_555
Dy1 Sb1 3.175602 1_545
Dy2 O0 2.193715 1_545
Dy2 O2 2.215090 1_554
Dy2 O8 2.296709 1_555
Dy2 O5 2.445743 1_554
Dy2 Sb7 3.310575 1_544
Dy2 Sb8 3.382634 1_555
Dy3 O8 2.193715 1_555
Dy3 O4 2.215090 1_554
Dy3 O6 2.296709 1_555
Dy3 O5 2.445743 1_554
Dy3 Sb6 3.310575 1_554
Dy3 Sb2 3.382634 1_555
Dy4 O0 2.276197 1_555
Dy4 Sb9 3.093666 1_565
Dy4 Sb1 3.124650 1_455
Dy4 Sb4 3.138776 1_555
Dy4 Sb7 3.167716 1_555
Dy4 Sb8 3.175602 1_565
Dy5 O9 2.276197 1_555
Dy5 Sb9 3.093666 1_565
Dy5 Sb2 3.124650 1_555
Dy5 Sb1 3.138776 1_555
Dy5 Sb0 3.167716 1_555
Dy5 Sb4 3.175602 1_555
Dy6 O1 2.276197 1_555
Dy6 Sb3 3.093666 1_555
Dy6 Sb0 3.124650 1_555
Dy6 Sb7 3.138776 1_555
Dy6 Sb4 3.167716 1_555
Dy6 Sb6 3.175602 1_555
Dy7 O9 2.193715 1_555
Dy7 O1 2.215090 1_554
Dy7 O0 2.296709 1_555
Dy7 O5 2.445743 1_564
Dy7 Sb0 3.310575 1_554
Dy7 Sb4 3.382634 1_555
Dy8 O1 2.193715 1_555
Dy8 O8 2.215090 1_556
Dy8 O2 2.296709 1_555
Dy8 O7 2.445743 1_556
Dy8 Sb4 3.310575 1_556
Dy8 Sb6 3.382634 1_555
Dy9 O3 2.276197 1_555
Dy9 Sb3 3.093666 1_655
Dy9 Sb5 3.124650 1_565
Dy9 Sb0 3.138776 1_555
Dy9 Sb1 3.167716 1_555
Dy9 Sb7 3.175602 1_655
Dy10 O7 2.342535 1_555
Dy10 Sb3 3.140703 1_555
Dy10 Sb1 3.160493 1_455
Dy10 Sb4 3.160493 1_555
Dy10 Sb8 3.160493 1_555
Dy10 Sb2 3.160493 1_455
Dy11 O3 2.193715 1_455
Dy11 O0 2.215090 1_556
Dy11 O1 2.296709 1_555
Dy11 O7 2.445743 1_556
Dy11 Sb1 3.310575 1_456
Dy11 Sb7 3.382634 1_555
Dy12 O2 2.193715 1_655
Dy12 O6 2.215090 1_556
Dy12 O4 2.296709 1_555
Dy12 O7 2.445743 1_656
Dy12 Sb8 3.310575 1_656
Dy12 Sb5 3.382634 1_555
Dy13 O4 2.193715 1_555
Dy13 O9 2.215090 1_556
Dy13 O3 2.296709 1_555
Dy13 O7 2.445743 1_656
Dy13 Sb2 3.310575 1_556
Dy13 Sb0 3.382634 1_555
Dy14 O6 2.193715 1_565
Dy14 O3 2.215090 1_554
Dy14 O9 2.296709 1_555
Dy14 O5 2.445743 1_564
Dy14 Sb5 3.310575 1_564
Dy14 Sb1 3.382634 1_555
Dy15 O8 2.276197 1_555
Dy15 Sb9 3.093666 1_555
Dy15 Sb4 3.124650 1_555
Dy15 Sb8 3.138776 1_555
Dy15 Sb6 3.167716 1_555
Dy15 Sb2 3.175602 1_555
Dy16 O4 2.276197 1_555
Dy16 Sb3 3.093666 1_655
Dy16 Sb6 3.124650 1_555
Dy16 Sb5 3.138776 1_555
Dy16 Sb2 3.167716 1_555
Dy16 Sb0 3.175602 1_555
Dy17 O2 2.276197 1_555
Dy17 Sb3 3.093666 1_555
Dy17 Sb7 3.124650 1_545
Dy17 Sb6 3.138776 1_555
Dy17 Sb8 3.167716 1_555
Dy17 Sb5 3.175602 1_455
