# generated using pymatgen
data_Cr(B3H8)2
_symmetry_space_group_name_H-M   'P 1'
_cell_length_a   4.47519202
_cell_length_b   5.88429481
_cell_length_c   8.98925294
_cell_angle_alpha   105.93312332
_cell_angle_beta   92.45341279
_cell_angle_gamma   111.62065170
_symmetry_Int_Tables_number   1
_chemical_formula_structural   Cr(B3H8)2
_chemical_formula_sum   'Cr1 B6 H16'
_cell_volume   208.84660823
_cell_formula_units_Z   1
loop_
 _symmetry_equiv_pos_site_id
 _symmetry_equiv_pos_as_xyz
  1  'x, y, z'
loop_
 _atom_site_type_symbol
 _atom_site_label
 _atom_site_symmetry_multiplicity
 _atom_site_fract_x
 _atom_site_fract_y
 _atom_site_fract_z
 _atom_site_occupancy
  Cr  Cr0  1  0.00000000  0.50000000  0.50000000  1
  B  B0  1  0.31248200  0.61189700  0.30471500  1
  B  B1  1  0.68751800  0.38810300  0.69528500  1
  B  B2  1  0.11088200  0.33562700  0.13229600  1
  B  B3  1  0.26596700  0.30837600  0.31287700  1
  B  B4  1  0.88911800  0.66437300  0.86770400  1
  B  B5  1  0.73403300  0.69162400  0.68712300  1
  H  H0  1  0.25612500  0.30858900  0.02397700  1
  H  H1  1  0.41035600  0.23540400  0.66873400  1
  H  H2  1  0.51858400  0.28431000  0.34195000  1
  H  H3  1  0.14194900  0.71544000  0.38286600  1
  H  H4  1  0.87361800  0.87077500  0.81440700  1
  H  H5  1  0.48141600  0.71569000  0.65805000  1
  H  H6  1  0.85805100  0.28456000  0.61713400  1
  H  H7  1  0.20190300  0.60790200  0.17138200  1
  H  H8  1  0.17966900  0.73822800  0.89750500  1
  H  H9  1  0.74387500  0.69141100  0.97602300  1
  H  H10  1  0.82033100  0.26177200  0.10249500  1
  H  H11  1  0.07335700  0.21428300  0.39920000  1
  H  H12  1  0.92664300  0.78571700  0.60080000  1
  H  H13  1  0.12638200  0.12922500  0.18559300  1
  H  H14  1  0.79809700  0.39209800  0.82861800  1
  H  H15  1  0.58964400  0.76459600  0.33126600  1
loop_
_geom_bond_atom_site_label_1
_geom_bond_atom_site_label_2
_geom_bond_distance
_geom_bond_site_symmetry_2
Cr0 H6 1.820992 1_455
Cr0 H3 1.820992 1_555
Cr0 H11 1.830628 1_555
Cr0 H12 1.830628 1_455
Cr0 H5 2.236930 1_555
Cr0 H2 2.236930 1_455
B0 H15 1.199339 1_555
B0 H3 1.265200 1_555
B0 H7 1.267744 1_555
B1 H1 1.199339 1_555
B1 H6 1.265200 1_555
B1 H14 1.267744 1_555
B2 H10 1.200490 1_455
B2 H0 1.200518 1_555
B2 H7 1.433182 1_555
B2 H13 1.445040 1_555
B3 H2 1.216309 1_555
B3 H11 1.262196 1_555
B3 H13 1.265693 1_555
B4 H8 1.200490 1_655
B4 H9 1.200518 1_555
B4 H14 1.433182 1_555
B4 H4 1.445040 1_555
B5 H5 1.216309 1_555
B5 H12 1.262196 1_555
B5 H4 1.265693 1_555
