# generated using pymatgen
data_Nd13Cd58
_symmetry_space_group_name_H-M   'P 1'
_cell_length_a   15.81137707
_cell_length_b   15.81137747
_cell_length_c   15.47186350
_cell_angle_alpha   90.00000000
_cell_angle_beta   90.00000000
_cell_angle_gamma   119.99999914
_symmetry_Int_Tables_number   1
_chemical_formula_structural   Nd13Cd58
_chemical_formula_sum   'Nd26 Cd116'
_cell_volume   3349.75206468
_cell_formula_units_Z   2
loop_
 _symmetry_equiv_pos_site_id
 _symmetry_equiv_pos_as_xyz
  1  'x, y, z'
loop_
 _atom_site_type_symbol
 _atom_site_label
 _atom_site_symmetry_multiplicity
 _atom_site_fract_x
 _atom_site_fract_y
 _atom_site_fract_z
 _atom_site_occupancy
  Nd  Nd0  1  0.41059715  0.20529858  0.55211625  1
  Nd  Nd1  1  0.87160828  0.74321657  0.25000000  1
  Nd  Nd2  1  0.20529858  0.41059715  0.05211625  1
  Nd  Nd3  1  0.08703854  0.54351927  0.75000000  1
  Nd  Nd4  1  0.79470142  0.58940285  0.94788375  1
  Nd  Nd5  1  0.79470142  0.20529858  0.55211625  1
  Nd  Nd6  1  0.91296146  0.45648073  0.25000000  1
  Nd  Nd7  1  0.79470142  0.20529858  0.94788375  1
  Nd  Nd8  1  0.79470142  0.58940285  0.55211625  1
  Nd  Nd9  1  0.45648073  0.91296146  0.75000000  1
  Nd  Nd10  1  0.12839172  0.87160828  0.75000000  1
  Nd  Nd11  1  0.87160828  0.12839172  0.25000000  1
  Nd  Nd12  1  0.58940285  0.79470142  0.05211625  1
  Nd  Nd13  1  0.58940285  0.79470142  0.44788375  1
  Nd  Nd14  1  0.20529858  0.79470142  0.44788375  1
  Nd  Nd15  1  -0.00000000  0.00000000  -0.00000000  1
  Nd  Nd16  1  0.45648073  0.54351927  0.75000000  1
  Nd  Nd17  1  0.54351927  0.08703854  0.25000000  1
  Nd  Nd18  1  0.12839172  0.25678343  0.75000000  1
  Nd  Nd19  1  0.74321657  0.87160828  0.75000000  1
  Nd  Nd20  1  0.20529858  0.41059715  0.44788375  1
  Nd  Nd21  1  0.41059715  0.20529858  0.94788375  1
  Nd  Nd22  1  -0.00000000  0.00000000  0.50000000  1
  Nd  Nd23  1  0.25678343  0.12839172  0.25000000  1
  Nd  Nd24  1  0.20529858  0.79470142  0.05211625  1
  Nd  Nd25  1  0.54351927  0.45648073  0.25000000  1
  Cd  Cd0  1  0.90707452  0.09292548  0.65601179  1
  Cd  Cd1  1  1.00000000  0.19895338  -0.00000000  1
  Cd  Cd2  1  0.63487525  0.96447741  0.60213869  1
  Cd  Cd3  1  0.36512475  0.32960216  0.39786131  1
  Cd  Cd4  1  0.67039784  0.63487525  0.10213869  1
  Cd  Cd5  1  0.60050563  0.39949437  0.05119097  1
  Cd  Cd6  1  0.63487525  0.67039784  0.89786131  1
  Cd  Cd7  1  0.96447741  0.63487525  0.10213869  1
  Cd  Cd8  1  0.20101127  0.60050563  0.94880903  1
  Cd  Cd9  1  0.09292548  0.90707452  0.34398821  1
  Cd  Cd10  1  0.56133845  0.12267689  0.64570958  1
  Cd  Cd11  1  0.81414904  0.90707452  0.34398821  1
  Cd  Cd12  1  0.73253512  0.26746488  0.75000000  1
  Cd  Cd13  1  0.43866155  0.87732311  0.35429042  1
  Cd  Cd14  1  0.32960216  0.36512475  0.89786131  1
  Cd  Cd15  1  0.03552259  0.67039784  0.89786131  1
  Cd  Cd16  1  0.52974267  0.76487134  0.84207067  1
  Cd  Cd17  1  0.80104662  0.80104662  -0.00000000  1
  Cd  Cd18  1  0.36512475  0.03552259  0.39786131  1
  Cd  Cd19  1  1.00000000  0.19895338  0.50000000  1
  Cd  Cd20  1  0.91796389  0.64158683  0.75000000  1
  Cd  Cd21  1  0.19895338  0.19895338  0.50000000  1
  Cd  Cd22  1  0.67039784  0.03552259  0.10213869  1
  Cd  Cd23  1  0.60050563  0.39949437  0.44880903  1
  Cd  Cd24  1  0.76487134  0.52974267  0.34207067  1
  Cd  Cd25  1  0.76487134  0.52974267  0.15792933  1
  Cd  Cd26  1  0.96447741  0.32960216  0.10213869  1
  Cd  Cd27  1  0.66666700  0.33333300  0.59589692  1
  Cd  Cd28  1  0.27637707  0.91796389  0.25000000  1
  Cd  Cd29  1  0.47025733  0.23512866  0.34207067  1
  Cd  Cd30  1  0.03552259  0.36512475  0.60213869  1
  Cd  Cd31  1  0.33333300  0.66666700  0.75000000  1
  Cd  Cd32  1  0.72362293  0.08203611  0.75000000  1
  Cd  Cd33  1  0.03552259  0.36512475  0.89786131  1
  Cd  Cd34  1  0.80104662  0.00000000  0.50000000  1
  Cd  Cd35  1  0.60050563  0.20101127  0.44880903  1
  Cd  Cd36  1  0.67039784  0.03552259  0.39786131  1
  Cd  Cd37  1  0.35841317  0.08203611  0.75000000  1
  Cd  Cd38  1  0.91796389  0.27637707  0.75000000  1
  Cd  Cd39  1  0.00000000  0.80104662  -0.00000000  1
  Cd  Cd40  1  0.43866155  0.56133845  0.14570958  1
  Cd  Cd41  1  0.12267689  0.56133845  0.35429042  1
  Cd  Cd42  1  0.50000000  0.00000000  0.50000000  1
  Cd  Cd43  1  0.90707452  0.81414904  0.84398821  1
  Cd  Cd44  1  0.09292548  0.18585096  0.15601179  1
  Cd  Cd45  1  0.03552259  0.67039784  0.60213869  1
  Cd  Cd46  1  0.32960216  0.36512475  0.60213869  1
  Cd  Cd47  1  0.56133845  0.12267689  0.85429042  1
  Cd  Cd48  1  0.20101127  0.60050563  0.55119097  1
  Cd  Cd49  1  0.63487525  0.67039784  0.60213869  1
  Cd  Cd50  1  0.43866155  0.56133845  0.35429042  1
  Cd  Cd51  1  -0.00000000  0.00000000  0.25000000  1
  Cd  Cd52  1  0.60050563  0.20101127  0.05119097  1
  Cd  Cd53  1  0.79898873  0.39949437  0.44880903  1
  Cd  Cd54  1  0.73253512  0.46507023  0.75000000  1
  Cd  Cd55  1  0.39949437  0.79898873  0.94880903  1
  Cd  Cd56  1  0.66666700  0.33333300  0.90410308  1
  Cd  Cd57  1  0.23512866  0.47025733  0.84207067  1
  Cd  Cd58  1  0.76487134  0.23512866  0.15792933  1
  Cd  Cd59  1  0.27637707  0.35841317  0.25000000  1
  Cd  Cd60  1  0.39949437  0.60050563  0.55119097  1
  Cd  Cd61  1  0.36512475  0.03552259  0.10213869  1
  Cd  Cd62  1  0.76487134  0.23512866  0.34207067  1
  Cd  Cd63  1  0.81414904  0.90707452  0.15601179  1
  Cd  Cd64  1  0.32960216  0.96447741  0.89786131  1
  Cd  Cd65  1  0.87732311  0.43866155  0.85429042  1
  Cd  Cd66  1  0.90707452  0.81414904  0.65601179  1
  Cd  Cd67  1  0.12267689  0.56133845  0.14570958  1
  Cd  Cd68  1  0.96447741  0.32960216  0.39786131  1
  Cd  Cd69  1  0.64158683  0.72362293  0.25000000  1
  Cd  Cd70  1  0.56133845  0.43866155  0.85429042  1
  Cd  Cd71  1  0.47025733  0.23512866  0.15792933  1
  Cd  Cd72  1  0.80104662  0.80104662  0.50000000  1
  Cd  Cd73  1  -0.00000000  0.00000000  0.75000000  1
  Cd  Cd74  1  0.18585096  0.09292548  0.65601179  1
  Cd  Cd75  1  0.19895338  0.19895338  -0.00000000  1
  Cd  Cd76  1  0.19895338  0.00000000  0.50000000  1
  Cd  Cd77  1  0.08203611  0.35841317  0.25000000  1
  Cd  Cd78  1  0.67039784  0.63487525  0.39786131  1
  Cd  Cd79  1  0.52974267  0.76487134  0.65792933  1
  Cd  Cd80  1  0.79898873  0.39949437  0.05119097  1
  Cd  Cd81  1  0.36512475  0.32960216  0.10213869  1
  Cd  Cd82  1  0.23512866  0.76487134  0.84207067  1
  Cd  Cd83  1  0.66666700  0.33333300  0.25000000  1
  Cd  Cd84  1  0.43866155  0.87732311  0.14570958  1
  Cd  Cd85  1  0.50000000  0.50000000  -0.00000000  1
  Cd  Cd86  1  -0.00000000  0.50000000  0.50000000  1
  Cd  Cd87  1  0.23512866  0.76487134  0.65792933  1
  Cd  Cd88  1  0.33333300  0.66666700  0.40410308  1
  Cd  Cd89  1  0.19895338  0.00000000  -0.00000000  1
  Cd  Cd90  1  0.08203611  0.72362293  0.25000000  1
  Cd  Cd91  1  0.00000000  0.80104662  0.50000000  1
  Cd  Cd92  1  0.63487525  0.96447741  0.89786131  1
  Cd  Cd93  1  0.50000000  0.50000000  0.50000000  1
  Cd  Cd94  1  0.18585096  0.09292548  0.84398821  1
  Cd  Cd95  1  0.53492977  0.26746488  0.75000000  1
  Cd  Cd96  1  0.09292548  0.90707452  0.15601179  1
  Cd  Cd97  1  0.90707452  0.09292548  0.84398821  1
  Cd  Cd98  1  0.56133845  0.43866155  0.64570958  1
  Cd  Cd99  1  0.35841317  0.27637707  0.75000000  1
  Cd  Cd100  1  0.26746488  0.73253512  0.25000000  1
  Cd  Cd101  1  0.96447741  0.63487525  0.39786131  1
  Cd  Cd102  1  0.33333300  0.66666700  0.09589692  1
  Cd  Cd103  1  0.26746488  0.53492977  0.25000000  1
  Cd  Cd104  1  0.80104662  0.00000000  -0.00000000  1
  Cd  Cd105  1  0.64158683  0.91796389  0.25000000  1
  Cd  Cd106  1  0.50000000  0.00000000  -0.00000000  1
  Cd  Cd107  1  0.87732311  0.43866155  0.64570958  1
  Cd  Cd108  1  0.32960216  0.96447741  0.60213869  1
  Cd  Cd109  1  -0.00000000  0.50000000  -0.00000000  1
  Cd  Cd110  1  0.09292548  0.18585096  0.34398821  1
  Cd  Cd111  1  0.39949437  0.60050563  0.94880903  1
  Cd  Cd112  1  0.23512866  0.47025733  0.65792933  1
  Cd  Cd113  1  0.72362293  0.64158683  0.75000000  1
  Cd  Cd114  1  0.39949437  0.79898873  0.55119097  1
  Cd  Cd115  1  0.46507023  0.73253512  0.25000000  1
loop_
_geom_bond_atom_site_label_1
_geom_bond_atom_site_label_2
_geom_bond_distance
_geom_bond_site_symmetry_2
Cd0 Cd34 2.886604 1_555
Cd0 Cd19 2.886604 1_555
Cd0 Cd97 2.908346 1_555
Cd0 Cd73 2.931035 1_655
Cd0 Cd32 3.171507 1_555
Cd0 Cd38 3.171507 1_555
Cd0 Nd18 3.464988 1_655
Cd0 Nd19 3.464988 1_545
Cd0 Nd5 3.471987 1_555
Cd0 Nd22 3.507527 1_655
Cd1 Cd26 2.870583 1_555
Cd1 Cd33 2.870583 1_654
Cd1 Cd44 2.886604 1_655
Cd1 Cd97 2.886604 1_554
Cd1 Cd75 3.145727 1_655
Cd1 Nd15 3.145727 1_655
Cd1 Cd104 3.145727 1_555
Cd1 Nd7 3.394520 1_554
Cd1 Nd2 3.394520 1_655
Cd2 Cd32 2.837130 1_565
Cd2 Cd79 2.867519 1_555
Cd2 Cd34 2.870583 1_565
Cd2 Cd42 2.925464 1_565
Cd2 Cd36 3.306883 1_565
Cd2 Nd13 3.389511 1_555
Cd2 Nd9 3.399353 1_555
Cd2 Nd5 3.444038 1_565
Cd2 Nd19 3.583230 1_555
Cd3 Cd59 2.837130 1_555
Cd3 Cd93 2.925464 1_555
Cd3 Cd46 3.306883 1_555
Cd3 Cd50 3.312323 1_555
Cd3 Nd0 3.389510 1_555
Cd3 Nd25 3.399353 1_555
Cd3 Nd20 3.444038 1_555
Cd3 Nd23 3.583230 1_555
Cd4 Cd69 2.837130 1_555
Cd4 Cd85 2.925464 1_555
Cd4 Cd6 3.306883 1_554
Cd4 Cd40 3.312323 1_555
Cd4 Nd4 3.389510 1_554
Cd4 Nd25 3.399353 1_555
Cd4 Cd5 3.403055 1_555
Cd4 Nd12 3.444038 1_555
Cd4 Nd1 3.583230 1_555
Cd5 Cd85 2.864144 1_555
Cd5 Cd71 2.893154 1_555
Cd5 Cd56 2.908936 1_554
Cd5 Cd70 3.229739 1_554
Cd5 Cd81 3.403054 1_555
Cd5 Nd4 3.432081 1_554
Cd5 Nd21 3.432081 1_554
Cd5 Nd25 3.449206 1_555
Cd6 Cd85 2.925464 1_556
Cd6 Cd70 3.312323 1_555
Cd6 Nd12 3.389510 1_556
Cd6 Nd16 3.399353 1_555
Cd6 Nd4 3.444038 1_555
Cd6 Nd19 3.583230 1_555
Cd7 Cd90 2.837130 1_655
Cd7 Nd4 3.389511 1_554
Cd7 Nd6 3.399353 1_555
Cd7 Cd80 3.403055 1_555
Cd7 Nd24 3.444038 1_655
Cd7 Nd1 3.583230 1_555
Cd8 Cd82 2.893154 1_555
Cd8 Nd2 3.432081 1_556
Cd8 Nd24 3.432081 1_556
Cd8 Nd3 3.449207 1_555
Cd9 Cd91 2.886604 1_555
Cd9 Cd96 2.908346 1_555
Cd9 Cd90 3.171507 1_555
Cd9 Nd1 3.464988 1_455
Cd9 Nd23 3.464988 1_565
Cd9 Nd14 3.471987 1_555
Cd9 Nd22 3.507527 1_565
Cd10 Cd42 2.811426 1_555
Cd10 Cd27 2.985709 1_555
Cd10 Cd95 2.995789 1_555
Cd10 Cd12 2.995789 1_555
Cd10 Cd47 3.227134 1_555
Cd10 Cd35 3.229739 1_555
Cd10 Nd9 3.293925 1_545
Cd10 Cd2 3.312323 1_545
Cd10 Cd108 3.312323 1_545
Cd10 Cd32 3.354014 1_555
Cd10 Cd37 3.354014 1_555
Cd10 Nd5 3.549340 1_555
Cd10 Nd0 3.549341 1_555
Cd11 Cd34 2.886604 1_565
Cd11 Cd72 2.886604 1_555
Cd11 Cd63 2.908346 1_555
Cd11 Cd51 2.931035 1_665
Cd11 Cd69 3.171507 1_555
Cd11 Nd1 3.464988 1_555
Cd11 Nd11 3.464988 1_565
Cd11 Nd13 3.471987 1_555
Cd11 Nd22 3.507527 1_665
Cd12 Cd38 2.864028 1_555
Cd12 Cd32 2.864028 1_555
Cd12 Cd27 2.989759 1_555
Cd12 Cd56 2.989759 1_555
Cd12 Cd47 2.995789 1_555
Cd12 Cd65 2.995789 1_555
Cd12 Cd95 3.124413 1_555
Cd12 Cd54 3.124413 1_555
Cd12 Nd7 3.503150 1_555
Cd12 Nd5 3.503150 1_555
Cd13 Cd42 2.811426 1_565
Cd13 Cd88 2.985709 1_555
Cd13 Cd84 3.227134 1_555
Cd13 Nd17 3.293925 1_565
Cd13 Cd18 3.312323 1_565
Cd13 Cd36 3.312323 1_565
Cd13 Cd28 3.354014 1_555
Cd13 Nd14 3.549340 1_555
Cd13 Nd13 3.549341 1_555
Cd14 Cd99 2.837130 1_555
Cd14 Cd57 2.867519 1_555
Cd14 Cd75 2.870583 1_556
Cd14 Cd85 2.925464 1_556
Cd14 Cd81 3.306883 1_556
Cd14 Cd70 3.312323 1_555
Cd14 Nd2 3.389510 1_556
Cd14 Nd16 3.399353 1_555
Cd14 Nd21 3.444038 1_555
Cd14 Nd18 3.583230 1_555
Cd15 Cd20 2.837130 1_455
Cd15 Cd82 2.867519 1_555
Cd15 Cd39 2.870583 1_556
Cd15 Cd7 3.306883 1_456
Cd15 Cd65 3.312323 1_455
Cd15 Nd24 3.389511 1_556
Cd15 Nd3 3.399353 1_555
Cd15 Cd8 3.403055 1_555
Cd15 Nd4 3.444038 1_455
Cd15 Nd10 3.583230 1_555
Cd16 Cd79 2.849010 1_555
Cd16 Cd92 2.867519 1_555
Cd16 Cd6 2.867519 1_555
Cd16 Cd55 2.893154 1_555
Cd16 Cd31 3.043410 1_555
Cd16 Nd19 3.251736 1_555
Cd16 Nd12 3.350903 1_556
Cd16 Nd9 3.400888 1_555
Cd16 Nd16 3.400889 1_555
Cd17 Cd6 2.870583 1_554
Cd17 Cd4 2.870583 1_555
Cd17 Cd43 2.886604 1_554
Cd17 Cd63 2.886604 1_555
Cd17 Cd39 3.145727 1_655
Cd17 Nd15 3.145727 1_665
Cd17 Nd12 3.394520 1_555
Cd17 Nd4 3.394520 1_554
Cd18 Cd28 2.837130 1_545
Cd18 Cd29 2.867519 1_555
Cd18 Cd76 2.870583 1_555
Cd18 Cd42 2.925464 1_555
Cd18 Nd0 3.389511 1_555
Cd18 Nd17 3.399353 1_555
Cd18 Cd35 3.403055 1_555
Cd18 Nd14 3.444038 1_545
Cd18 Nd23 3.583230 1_555
Cd19 Cd68 2.870583 1_555
Cd19 Cd30 2.870583 1_655
Cd19 Cd21 3.145727 1_655
Cd19 Nd22 3.145727 1_655
Cd19 Cd34 3.145727 1_555
Cd19 Nd5 3.394520 1_555
Cd19 Nd20 3.394520 1_655
Cd20 Cd45 2.837130 1_655
Cd20 Cd54 2.864029 1_555
Cd20 Cd43 3.171507 1_555
Cd20 Cd66 3.171507 1_555
Cd20 Cd65 3.354014 1_555
Cd20 Nd10 3.492376 1_655
Cd20 Nd4 3.499242 1_555
Cd20 Nd8 3.499242 1_555
Cd20 Nd3 3.700816 1_655
Cd21 Cd3 2.870583 1_555
Cd21 Cd46 2.870583 1_555
Cd21 Cd74 2.886604 1_555
Cd21 Cd76 3.145727 1_555
Cd21 Nd22 3.145727 1_555
Cd21 Nd0 3.394520 1_555
Cd21 Nd20 3.394520 1_555
Cd22 Cd58 2.867519 1_555
Cd22 Cd92 3.306883 1_544
Cd22 Cd84 3.312323 1_545
Cd22 Nd7 3.389511 1_554
Cd22 Nd17 3.399353 1_555
Cd22 Cd52 3.403055 1_555
Cd22 Nd12 3.444038 1_545
Cd22 Nd11 3.583230 1_555
Cd23 Cd93 2.864144 1_555
Cd23 Cd24 2.893154 1_555
Cd23 Cd29 2.893154 1_555
Cd23 Cd27 2.908936 1_555
Cd23 Cd98 3.229739 1_555
Cd23 Cd3 3.403054 1_555
Cd23 Cd78 3.403055 1_555
Cd23 Nd8 3.432081 1_555
Cd23 Nd0 3.432081 1_555
Cd23 Nd25 3.449206 1_555
Cd24 Cd25 2.849010 1_555
Cd24 Cd78 2.867519 1_555
Cd24 Cd53 2.893154 1_555
Cd24 Cd83 3.043410 1_555
Cd24 Nd1 3.251736 1_555
Cd24 Nd8 3.350903 1_555
Cd24 Nd6 3.400888 1_555
Cd24 Nd25 3.400889 1_555
Cd25 Cd7 2.867519 1_555
Cd25 Cd4 2.867519 1_555
Cd25 Cd80 2.893154 1_555
Cd25 Cd5 2.893154 1_555
Cd25 Cd83 3.043410 1_555
Cd25 Nd1 3.251736 1_555
Cd25 Nd4 3.350903 1_554
Cd25 Nd6 3.400888 1_555
Cd25 Nd25 3.400889 1_555
Cd26 Cd77 2.837130 1_655
Cd26 Cd58 2.867519 1_555
Cd26 Cd33 3.306883 1_654
Cd26 Cd67 3.312323 1_655
Cd26 Nd7 3.389511 1_554
Cd26 Nd6 3.399353 1_555
Cd26 Cd80 3.403055 1_555
Cd26 Nd2 3.444038 1_655
Cd26 Nd11 3.583230 1_555
Cd27 Cd53 2.908927 1_555
Cd27 Cd35 2.908928 1_555
Cd27 Cd98 2.985722 1_555
Cd27 Cd95 2.989767 1_555
Cd27 Cd54 2.989767 1_555
Cd27 Nd5 3.571193 1_555
Cd27 Nd0 3.571207 1_555
Cd27 Nd8 3.571207 1_555
Cd28 Cd61 2.837130 1_565
Cd28 Cd90 3.072798 1_555
Cd28 Cd9 3.171507 1_555
Cd28 Cd96 3.171507 1_555
Cd28 Cd84 3.354014 1_555
Cd28 Nd23 3.492376 1_565
Cd28 Nd24 3.499242 1_555
Cd28 Nd14 3.499242 1_555
Cd28 Nd17 3.700816 1_565
Cd29 Cd71 2.849010 1_555
Cd29 Cd3 2.867519 1_555
Cd29 Cd35 2.893154 1_555
Cd29 Cd83 3.043410 1_555
Cd29 Nd23 3.251736 1_555
Cd29 Nd0 3.350903 1_555
Cd29 Nd17 3.400888 1_555
Cd29 Nd25 3.400889 1_555
Cd30 Cd38 2.837130 1_455
Cd30 Cd86 2.925464 1_555
Cd30 Cd68 3.306883 1_455
Cd30 Nd20 3.389511 1_555
Cd30 Nd3 3.399353 1_555
Cd30 Cd48 3.403055 1_555
Cd30 Nd5 3.444038 1_455
Cd30 Nd18 3.583230 1_555
Cd31 Cd82 3.043398 1_555
Cd31 Cd87 3.043398 1_555
Cd31 Cd79 3.043410 1_555
Cd31 Cd57 3.043410 1_555
Cd31 Nd3 3.372523 1_555
Cd31 Nd9 3.372524 1_555
Cd31 Nd16 3.372537 1_555
Cd32 Cd92 2.837130 1_545
Cd32 Cd38 3.072798 1_555
Cd32 Cd97 3.171507 1_555
Cd32 Cd47 3.354014 1_555
Cd32 Nd19 3.492376 1_545
Cd32 Nd7 3.499242 1_555
Cd32 Nd5 3.499242 1_555
Cd32 Nd9 3.700816 1_545
Cd33 Cd38 2.837130 1_455
Cd33 Cd57 2.867519 1_555
Cd33 Cd65 3.312323 1_455
Cd33 Nd2 3.389511 1_556
Cd33 Nd3 3.399353 1_555
Cd33 Cd8 3.403055 1_555
Cd33 Nd7 3.444038 1_455
Cd33 Nd18 3.583230 1_555
Cd34 Cd36 2.870583 1_555
Cd34 Nd22 3.145727 1_655
Cd34 Cd72 3.145727 1_545
Cd34 Nd13 3.394520 1_545
Cd34 Nd5 3.394520 1_555
Cd35 Cd42 2.864144 1_555
Cd35 Cd62 2.893154 1_555
Cd35 Cd36 3.403055 1_555
Cd35 Nd0 3.432081 1_555
Cd35 Nd5 3.432081 1_555
Cd35 Nd17 3.449207 1_555
Cd36 Cd62 2.867519 1_555
Cd36 Cd42 2.925464 1_555
Cd36 Nd5 3.389511 1_555
Cd36 Nd17 3.399353 1_555
Cd36 Nd13 3.444038 1_545
Cd36 Nd11 3.583230 1_555
Cd37 Cd64 2.837130 1_545
Cd37 Cd95 2.864029 1_555
Cd37 Cd99 3.072798 1_555
Cd37 Cd74 3.171507 1_555
Cd37 Cd94 3.171507 1_555
Cd37 Cd47 3.354014 1_555
Cd37 Nd10 3.492376 1_545
Cd37 Nd21 3.499242 1_555
Cd37 Nd0 3.499242 1_555
Cd37 Nd9 3.700816 1_545
Cd38 Cd97 3.171507 1_555
Cd38 Cd65 3.354014 1_555
Cd38 Nd18 3.492376 1_655
Cd38 Nd7 3.499242 1_555
Cd38 Nd5 3.499242 1_555
Cd38 Nd3 3.700816 1_655
Cd39 Cd7 2.870583 1_455
Cd39 Cd43 2.886604 1_454
Cd39 Cd96 2.886604 1_555
Cd39 Nd15 3.145727 1_565
Cd39 Cd89 3.145727 1_565
Cd39 Nd24 3.394520 1_555
Cd39 Nd4 3.394520 1_454
Cd40 Cd85 2.811426 1_555
Cd40 Cd50 3.227134 1_555
Cd40 Nd25 3.293925 1_555
Cd40 Cd81 3.312323 1_555
Cd40 Cd69 3.354014 1_555
Cd40 Cd59 3.354014 1_555
Cd40 Nd2 3.549340 1_555
Cd40 Nd12 3.549340 1_555
Cd41 Cd86 2.811425 1_555
Cd41 Cd88 2.985709 1_555
Cd41 Cd67 3.227134 1_555
Cd41 Cd48 3.229739 1_555
Cd41 Nd6 3.293925 1_455
Cd41 Cd68 3.312323 1_455
Cd41 Cd90 3.354014 1_555
Cd41 Cd77 3.354014 1_555
Cd41 Nd14 3.549340 1_555
Cd41 Nd20 3.549341 1_555
Cd43 Cd66 2.908346 1_555
Cd43 Cd73 2.931035 1_665
Cd43 Nd19 3.464988 1_555
Cd43 Nd10 3.464988 1_655
Cd43 Nd4 3.471987 1_555
Cd43 Nd15 3.507527 1_666
Cd44 Cd75 2.886604 1_555
Cd44 Cd51 2.931035 1_555
Cd44 Cd77 3.171507 1_555
Cd44 Cd59 3.171507 1_555
Cd44 Nd23 3.464988 1_555
Cd44 Nd11 3.464988 1_455
Cd44 Nd2 3.471987 1_555
Cd44 Nd15 3.507527 1_555
Cd45 Cd87 2.867519 1_555
Cd45 Cd91 2.870583 1_555
Cd45 Cd86 2.925464 1_555
Cd45 Nd14 3.389511 1_555
Cd45 Nd3 3.399353 1_555
Cd45 Cd48 3.403055 1_555
Cd45 Nd8 3.444038 1_455
Cd45 Nd10 3.583230 1_555
Cd46 Cd99 2.837130 1_555
Cd46 Cd93 2.925464 1_555
Cd46 Cd98 3.312323 1_555
Cd46 Nd20 3.389510 1_555
Cd46 Nd16 3.399353 1_555
Cd46 Cd60 3.403055 1_555
Cd46 Nd0 3.444038 1_555
Cd46 Nd18 3.583230 1_555
Cd47 Cd56 2.985709 1_555
Cd47 Cd95 2.995789 1_555
Cd47 Cd52 3.229739 1_556
Cd47 Nd9 3.293925 1_545
Cd47 Cd92 3.312323 1_545
Cd47 Cd64 3.312323 1_545
Cd47 Nd7 3.549340 1_555
Cd47 Nd21 3.549341 1_555
Cd48 Cd86 2.864144 1_555
Cd48 Cd87 2.893154 1_555
Cd48 Cd88 2.908927 1_555
Cd48 Nd20 3.432081 1_555
Cd48 Nd14 3.432081 1_555
Cd48 Nd3 3.449207 1_555
Cd49 Cd79 2.867519 1_555
Cd49 Cd72 2.870583 1_555
Cd49 Cd93 2.925464 1_555
Cd49 Cd78 3.306883 1_555
Cd49 Cd98 3.312323 1_555
Cd49 Nd13 3.389510 1_555
Cd49 Nd16 3.399353 1_555
Cd49 Cd60 3.403054 1_555
Cd49 Nd8 3.444038 1_555
Cd49 Nd19 3.583230 1_555
Cd50 Cd93 2.811426 1_555
Cd50 Cd88 2.985722 1_555
Cd50 Cd60 3.229739 1_555
Cd50 Nd25 3.293925 1_555
Cd50 Cd78 3.312323 1_555
Cd50 Cd69 3.354014 1_555
Cd50 Cd59 3.354014 1_555
Cd50 Nd20 3.549340 1_555
Cd50 Nd13 3.549340 1_555
Cd51 Cd96 2.931035 1_545
Cd51 Cd9 2.931035 1_545
Cd51 Cd63 2.931035 1_445
Cd51 Nd23 3.516149 1_555
Cd51 Nd1 3.516150 1_445
Cd51 Nd11 3.516150 1_455
Cd51 Nd22 3.867966 1_555
Cd51 Nd15 3.867966 1_555
Cd52 Cd71 2.893154 1_555
Cd52 Cd58 2.893154 1_555
Cd52 Cd56 2.908928 1_554
Cd52 Cd61 3.403055 1_555
Cd52 Nd21 3.432081 1_554
Cd52 Nd7 3.432081 1_554
Cd52 Nd17 3.449207 1_555
Cd53 Cd86 2.864144 1_655
Cd53 Cd62 2.893154 1_555
Cd53 Cd68 3.403055 1_555
Cd53 Nd8 3.432081 1_555
Cd53 Nd5 3.432081 1_555
Cd53 Nd6 3.449207 1_555
Cd54 Cd56 2.989767 1_555
Cd54 Cd65 2.995789 1_555
Cd54 Cd98 2.995789 1_555
Cd54 Cd70 2.995789 1_555
Cd54 Cd95 3.124413 1_555
Cd54 Nd4 3.503151 1_555
Cd54 Nd8 3.503151 1_555
Cd55 Cd82 2.893154 1_555
Cd55 Cd84 3.229739 1_556
Cd55 Cd92 3.403055 1_555
Cd55 Cd64 3.403055 1_555
Cd55 Nd12 3.432081 1_556
Cd55 Nd24 3.432081 1_556
Cd55 Nd9 3.449207 1_555
Cd56 Cd80 2.908927 1_556
Cd56 Cd65 2.985709 1_555
Cd56 Cd70 2.985722 1_555
Cd56 Cd95 2.989767 1_555
Cd56 Nd7 3.571193 1_555
Cd56 Nd21 3.571207 1_555
Cd56 Nd4 3.571207 1_555
Cd57 Cd8 2.893154 1_555
Cd57 Nd18 3.251736 1_555
Cd57 Nd2 3.350903 1_556
Cd57 Nd3 3.400888 1_555
Cd57 Nd16 3.400889 1_555
Cd58 Cd62 2.849010 1_555
Cd58 Cd80 2.893154 1_555
Cd58 Cd83 3.043398 1_555
Cd58 Nd11 3.251735 1_555
Cd58 Nd7 3.350903 1_554
Cd58 Nd17 3.400889 1_555
Cd58 Nd6 3.400889 1_555
Cd59 Cd81 2.837130 1_555
Cd59 Cd77 3.072798 1_555
Cd59 Nd23 3.492376 1_555
Cd59 Nd2 3.499242 1_555
Cd59 Nd20 3.499242 1_555
Cd59 Nd25 3.700815 1_555
Cd60 Cd93 2.864144 1_555
Cd60 Cd79 2.893154 1_555
Cd60 Cd88 2.908936 1_555
Cd60 Nd20 3.432081 1_555
Cd60 Nd13 3.432081 1_555
Cd60 Nd16 3.449206 1_555
Cd61 Cd71 2.867519 1_555
Cd61 Cd89 2.870583 1_555
Cd61 Cd64 3.306883 1_544
Cd61 Cd84 3.312323 1_545
Cd61 Nd21 3.389511 1_554
Cd61 Nd17 3.399353 1_555
Cd61 Nd24 3.444038 1_545
Cd61 Nd23 3.583230 1_555
Cd62 Cd68 2.867519 1_555
Cd62 Cd83 3.043398 1_555
Cd62 Nd11 3.251735 1_555
Cd62 Nd5 3.350903 1_555
Cd62 Nd17 3.400889 1_555
Cd62 Nd6 3.400889 1_555
Cd63 Cd69 3.171507 1_555
Cd63 Nd1 3.464988 1_555
Cd63 Nd11 3.464988 1_565
Cd63 Nd12 3.471987 1_555
Cd63 Nd15 3.507527 1_665
Cd64 Cd82 2.867519 1_555
Cd64 Cd89 2.870583 1_566
Cd64 Nd24 3.389511 1_556
Cd64 Nd9 3.399353 1_555
Cd64 Nd21 3.444038 1_565
Cd64 Nd10 3.583230 1_555
Cd65 Cd80 3.229739 1_556
Cd65 Nd3 3.293925 1_655
Cd65 Nd7 3.549340 1_555
Cd65 Nd4 3.549341 1_555
Cd66 Cd91 2.886604 1_655
Cd66 Cd72 2.886604 1_555
Cd66 Cd73 2.931035 1_665
Cd66 Nd19 3.464988 1_555
Cd66 Nd10 3.464988 1_655
Cd66 Nd8 3.471987 1_555
Cd66 Nd22 3.507527 1_665
Cd67 Cd8 3.229739 1_554
Cd67 Nd6 3.293925 1_455
Cd67 Cd7 3.312323 1_455
Cd67 Cd90 3.354014 1_555
Cd67 Cd77 3.354014 1_555
Cd67 Nd24 3.549340 1_555
Cd67 Nd2 3.549341 1_555
Cd68 Cd77 2.837130 1_655
Cd68 Cd86 2.925464 1_655
Cd68 Nd5 3.389511 1_555
Cd68 Nd6 3.399353 1_555
Cd68 Nd20 3.444038 1_655
Cd68 Nd11 3.583230 1_555
Cd69 Cd78 2.837130 1_555
Cd69 Nd1 3.492376 1_555
Cd69 Nd12 3.499242 1_555
Cd69 Nd13 3.499242 1_555
Cd69 Nd25 3.700816 1_555
Cd70 Cd85 2.811426 1_556
Cd70 Cd95 2.995789 1_555
Cd70 Cd98 3.227134 1_555
Cd70 Nd16 3.293925 1_555
Cd70 Cd99 3.354014 1_555
Cd70 Nd4 3.549340 1_555
Cd70 Nd21 3.549340 1_555
Cd71 Cd81 2.867519 1_555
Cd71 Cd83 3.043410 1_555
Cd71 Nd23 3.251736 1_555
Cd71 Nd21 3.350903 1_554
Cd71 Nd17 3.400888 1_555
Cd71 Nd25 3.400889 1_555
Cd72 Cd78 2.870583 1_555
Cd72 Cd91 3.145727 1_655
Cd72 Nd22 3.145727 1_665
Cd72 Nd13 3.394520 1_555
Cd72 Nd8 3.394520 1_555
Cd73 Cd97 2.931035 1_455
Cd73 Cd74 2.931035 1_555
Cd73 Cd94 2.931035 1_555
Cd73 Nd19 3.516149 1_445
Cd73 Nd18 3.516150 1_555
Cd73 Nd10 3.516150 1_545
Cd73 Nd22 3.867966 1_555
Cd73 Nd15 3.867966 1_556
Cd74 Cd76 2.886604 1_555
Cd74 Cd94 2.908346 1_555
Cd74 Cd99 3.171507 1_555
Cd74 Nd18 3.464988 1_555
Cd74 Nd10 3.464988 1_545
Cd74 Nd0 3.471987 1_555
Cd74 Nd22 3.507527 1_555
Cd75 Cd81 2.870583 1_555
Cd75 Cd94 2.886604 1_554
Cd75 Cd89 3.145727 1_555
Cd75 Nd15 3.145727 1_555
Cd75 Nd21 3.394520 1_554
Cd75 Nd2 3.394520 1_555
Cd76 Cd9 2.886604 1_545
Cd76 Nd22 3.145727 1_555
Cd76 Cd91 3.145727 1_545
Cd76 Nd0 3.394520 1_555
Cd76 Nd14 3.394520 1_545
Cd77 Nd11 3.492376 1_455
Cd77 Nd2 3.499242 1_555
Cd77 Nd20 3.499242 1_555
Cd77 Nd6 3.700816 1_455
Cd78 Cd93 2.925464 1_555
Cd78 Nd8 3.389510 1_555
Cd78 Nd25 3.399353 1_555
Cd78 Nd13 3.444038 1_555
Cd78 Nd1 3.583230 1_555
Cd79 Nd19 3.251736 1_555
Cd79 Nd13 3.350903 1_555
Cd79 Nd9 3.400888 1_555
Cd79 Nd16 3.400889 1_555
Cd80 Nd4 3.432081 1_554
Cd80 Nd7 3.432081 1_554
Cd80 Nd6 3.449207 1_555
Cd81 Cd85 2.925464 1_555
Cd81 Nd21 3.389510 1_554
Cd81 Nd25 3.399353 1_555
Cd81 Nd2 3.444038 1_555
Cd81 Nd23 3.583230 1_555
Cd82 Cd87 2.849010 1_555
Cd82 Nd10 3.251735 1_555
Cd82 Nd24 3.350903 1_556
Cd82 Nd9 3.400889 1_555
Cd82 Nd3 3.400889 1_555
Cd83 Nd6 3.372523 1_555
Cd83 Nd17 3.372524 1_555
Cd83 Nd25 3.372537 1_555
Cd84 Nd17 3.293925 1_565
Cd84 Nd24 3.549340 1_555
Cd84 Nd12 3.549341 1_555
Cd87 Nd10 3.251735 1_555
Cd87 Nd14 3.350903 1_555
Cd87 Nd9 3.400889 1_555
Cd87 Nd3 3.400889 1_555
Cd88 Nd14 3.571193 1_555
Cd88 Nd13 3.571207 1_555
Cd88 Nd20 3.571207 1_555
Cd89 Cd94 2.886604 1_554
Cd89 Cd96 2.886604 1_545
Cd89 Nd15 3.145727 1_555
Cd89 Nd21 3.394520 1_554
Cd89 Nd24 3.394520 1_545
Cd90 Cd96 3.171507 1_555
Cd90 Nd1 3.492376 1_455
Cd90 Nd24 3.499242 1_555
Cd90 Nd14 3.499242 1_555
Cd90 Nd6 3.700816 1_455
Cd91 Nd22 3.145727 1_565
Cd91 Nd14 3.394520 1_555
Cd91 Nd8 3.394520 1_455
Cd92 Nd12 3.389511 1_556
Cd92 Nd9 3.399353 1_555
Cd92 Nd7 3.444038 1_565
Cd92 Nd19 3.583230 1_555
Cd93 Cd98 2.811426 1_555
Cd94 Cd99 3.171507 1_555
Cd94 Nd18 3.464988 1_555
Cd94 Nd10 3.464988 1_545
Cd94 Nd21 3.471987 1_555
Cd94 Nd15 3.507527 1_556
Cd95 Cd99 2.864029 1_555
Cd95 Cd98 2.995789 1_555
Cd95 Nd21 3.503151 1_555
Cd95 Nd0 3.503151 1_555
Cd96 Nd1 3.464988 1_455
Cd96 Nd23 3.464988 1_565
Cd96 Nd24 3.471987 1_555
Cd96 Nd15 3.507527 1_565
Cd97 Nd18 3.464988 1_655
Cd97 Nd19 3.464988 1_545
Cd97 Nd7 3.471987 1_555
Cd97 Nd15 3.507527 1_656
Cd98 Nd16 3.293925 1_555
Cd98 Cd99 3.354014 1_555
Cd98 Nd8 3.549340 1_555
Cd98 Nd0 3.549340 1_555
Cd99 Nd18 3.492376 1_555
Cd99 Nd21 3.499242 1_555
Cd99 Nd0 3.499242 1_555
Cd99 Nd16 3.700816 1_555
Cd100 Cd90 2.864028 1_555
Cd100 Cd28 2.864028 1_555
Cd100 Cd102 2.989759 1_555
Cd100 Cd88 2.989759 1_555
Cd100 Cd13 2.995789 1_555
Cd100 Cd84 2.995789 1_555
Cd100 Cd41 2.995789 1_555
Cd100 Cd67 2.995789 1_555
Cd100 Cd115 3.124413 1_555
Cd100 Cd103 3.124413 1_555
Cd100 Nd24 3.503150 1_555
Cd100 Nd14 3.503150 1_555
Cd101 Cd90 2.837130 1_655
Cd101 Cd24 2.867519 1_555
Cd101 Cd91 2.870583 1_655
Cd101 Cd86 2.925464 1_655
Cd101 Cd45 3.306883 1_655
Cd101 Cd41 3.312323 1_655
Cd101 Nd8 3.389511 1_555
Cd101 Nd6 3.399353 1_555
Cd101 Cd53 3.403055 1_555
Cd101 Nd14 3.444038 1_655
Cd101 Nd1 3.583230 1_555
Cd102 Cd8 2.908927 1_554
Cd102 Cd55 2.908928 1_554
Cd102 Cd111 2.908936 1_554
Cd102 Cd67 2.985709 1_555
Cd102 Cd84 2.985709 1_555
Cd102 Cd40 2.985722 1_555
Cd102 Cd115 2.989767 1_555
Cd102 Cd103 2.989767 1_555
Cd102 Nd24 3.571193 1_555
Cd102 Nd12 3.571207 1_555
Cd102 Nd2 3.571207 1_555
Cd103 Cd77 2.864029 1_555
Cd103 Cd59 2.864029 1_555
Cd103 Cd88 2.989767 1_555
Cd103 Cd41 2.995789 1_555
Cd103 Cd67 2.995789 1_555
Cd103 Cd40 2.995789 1_555
Cd103 Cd50 2.995789 1_555
Cd103 Cd115 3.124413 1_555
Cd103 Nd2 3.503151 1_555
Cd103 Nd20 3.503151 1_555
Cd104 Cd22 2.870583 1_555
Cd104 Cd92 2.870583 1_544
Cd104 Cd63 2.886604 1_545
Cd104 Cd97 2.886604 1_554
Cd104 Nd15 3.145727 1_655
Cd104 Cd17 3.145727 1_545
Cd104 Nd12 3.394520 1_545
Cd104 Nd7 3.394520 1_554
Cd105 Cd36 2.837130 1_565
Cd105 Cd22 2.837130 1_565
Cd105 Cd115 2.864029 1_555
Cd105 Cd69 3.072798 1_555
Cd105 Cd63 3.171507 1_555
Cd105 Cd11 3.171507 1_555
Cd105 Cd13 3.354014 1_555
Cd105 Cd84 3.354014 1_555
Cd105 Nd11 3.492376 1_565
Cd105 Nd12 3.499242 1_555
Cd105 Nd13 3.499242 1_555
Cd105 Nd17 3.700816 1_565
Cd106 Cd84 2.811426 1_545
Cd106 Cd47 2.811426 1_554
Cd106 Cd55 2.864144 1_544
Cd106 Cd52 2.864144 1_555
Cd106 Cd61 2.925464 1_555
Cd106 Cd92 2.925464 1_544
Cd106 Cd64 2.925464 1_544
Cd106 Cd22 2.925464 1_555
Cd107 Cd86 2.811425 1_655
Cd107 Cd27 2.985709 1_555
Cd107 Cd54 2.995789 1_555
Cd107 Cd12 2.995789 1_555
Cd107 Cd65 3.227134 1_555
Cd107 Cd53 3.229739 1_555
Cd107 Nd3 3.293925 1_655
Cd107 Cd30 3.312323 1_655
Cd107 Cd45 3.312323 1_655
Cd107 Cd38 3.354014 1_555
Cd107 Cd20 3.354014 1_555
Cd107 Nd5 3.549340 1_555
Cd107 Nd8 3.549341 1_555
Cd108 Cd37 2.837130 1_565
Cd108 Cd87 2.867519 1_555
Cd108 Cd76 2.870583 1_565
Cd108 Cd42 2.925464 1_565
Cd108 Cd18 3.306883 1_565
Cd108 Nd14 3.389511 1_555
Cd108 Nd9 3.399353 1_555
Cd108 Cd114 3.403055 1_555
Cd108 Nd0 3.444038 1_565
Cd108 Nd10 3.583230 1_555
Cd109 Cd65 2.811425 1_454
Cd109 Cd67 2.811425 1_555
Cd109 Cd80 2.864144 1_455
Cd109 Cd8 2.864144 1_554
Cd109 Cd33 2.925464 1_554
Cd109 Cd7 2.925464 1_455
Cd109 Cd26 2.925464 1_455
Cd109 Cd15 2.925464 1_554
Cd110 Cd19 2.886604 1_455
Cd110 Cd21 2.886604 1_555
Cd110 Cd44 2.908346 1_555
Cd110 Cd51 2.931035 1_555
Cd110 Cd77 3.171507 1_555
Cd110 Cd59 3.171507 1_555
Cd110 Nd23 3.464988 1_555
Cd110 Nd11 3.464988 1_455
Cd110 Nd20 3.471987 1_555
Cd110 Nd22 3.507527 1_555
Cd111 Cd85 2.864144 1_556
Cd111 Cd57 2.893154 1_555
Cd111 Cd16 2.893154 1_555
Cd111 Cd40 3.229739 1_556
Cd111 Cd6 3.403054 1_555
Cd111 Cd14 3.403055 1_555
Cd111 Nd2 3.432081 1_556
Cd111 Nd12 3.432081 1_556
Cd111 Nd16 3.449206 1_555
Cd112 Cd57 2.849010 1_555
Cd112 Cd30 2.867519 1_555
Cd112 Cd46 2.867519 1_555
Cd112 Cd48 2.893154 1_555
Cd112 Cd60 2.893154 1_555
Cd112 Cd31 3.043410 1_555
Cd112 Nd18 3.251736 1_555
Cd112 Nd20 3.350903 1_555
Cd112 Nd3 3.400888 1_555
Cd112 Nd16 3.400889 1_555
Cd113 Cd6 2.837130 1_555
Cd113 Cd49 2.837130 1_555
Cd113 Cd54 2.864029 1_555
Cd113 Cd20 3.072798 1_555
Cd113 Cd43 3.171507 1_555
Cd113 Cd66 3.171507 1_555
Cd113 Cd98 3.354014 1_555
Cd113 Cd70 3.354014 1_555
Cd113 Nd19 3.492376 1_555
Cd113 Nd4 3.499242 1_555
Cd113 Nd8 3.499242 1_555
Cd113 Nd16 3.700815 1_555
Cd114 Cd42 2.864144 1_565
Cd114 Cd79 2.893154 1_555
Cd114 Cd87 2.893154 1_555
Cd114 Cd88 2.908928 1_555
Cd114 Cd13 3.229739 1_555
Cd114 Cd2 3.403055 1_555
Cd114 Nd13 3.432081 1_555
Cd114 Nd14 3.432081 1_555
Cd114 Nd9 3.449207 1_555
Cd115 Cd69 2.864029 1_555
Cd115 Cd88 2.989767 1_555
Cd115 Cd13 2.995789 1_555
Cd115 Cd84 2.995789 1_555
Cd115 Cd50 2.995789 1_555
Cd115 Cd40 2.995789 1_555
Cd115 Nd12 3.503151 1_555
Cd115 Nd13 3.503151 1_555
