# generated using pymatgen
data_HgI2
_symmetry_space_group_name_H-M   'P 1'
_cell_length_a   8.99120940
_cell_length_b   8.99120940
_cell_length_c   12.70644701
_cell_angle_alpha   90.00000000
_cell_angle_beta   90.00000000
_cell_angle_gamma   90.00000000
_symmetry_Int_Tables_number   1
_chemical_formula_structural   HgI2
_chemical_formula_sum   'Hg8 I16'
_cell_volume   1027.21263842
_cell_formula_units_Z   8
loop_
 _symmetry_equiv_pos_site_id
 _symmetry_equiv_pos_as_xyz
  1  'x, y, z'
loop_
 _atom_site_type_symbol
 _atom_site_label
 _atom_site_symmetry_multiplicity
 _atom_site_fract_x
 _atom_site_fract_y
 _atom_site_fract_z
 _atom_site_occupancy
  Hg  Hg0  1  0.00118827  0.75000000  0.12531158  1
  Hg  Hg1  1  0.25000000  0.99881173  0.37468842  1
  Hg  Hg2  1  0.50118827  0.25000000  0.87468842  1
  Hg  Hg3  1  0.25000000  0.50118827  0.37468842  1
  Hg  Hg4  1  0.49881173  0.75000000  0.12531158  1
  Hg  Hg5  1  0.75000000  0.00118827  0.62531158  1
  Hg  Hg6  1  0.75000000  0.49881173  0.62531158  1
  Hg  Hg7  1  0.99881173  0.25000000  0.87468842  1
  I  I0  1  0.75000000  0.25000000  0.01167470  1
  I  I1  1  0.25000000  0.25000000  0.51121045  1
  I  I2  1  0.98898606  0.01101394  0.25000000  1
  I  I3  1  0.48898606  0.51101394  0.75000000  1
  I  I4  1  0.75000000  0.25000000  0.48832530  1
  I  I5  1  0.01101394  0.51101394  0.75000000  1
  I  I6  1  0.01101394  0.98898606  0.75000000  1
  I  I7  1  0.25000000  0.25000000  0.01121045  1
  I  I8  1  0.25000000  0.75000000  0.51167470  1
  I  I9  1  0.48898606  0.98898606  0.75000000  1
  I  I10  1  0.25000000  0.75000000  0.98832530  1
  I  I11  1  0.75000000  0.75000000  0.48878955  1
  I  I12  1  0.98898606  0.48898606  0.25000000  1
  I  I13  1  0.51101394  0.01101394  0.25000000  1
  I  I14  1  0.51101394  0.48898606  0.25000000  1
  I  I15  1  0.75000000  0.75000000  0.98878955  1
loop_
_geom_bond_atom_site_label_1
_geom_bond_atom_site_label_2
_geom_bond_distance
_geom_bond_site_symmetry_2
Hg0 I2 2.833691 1_465
Hg0 I12 2.833691 1_455
Hg0 I10 2.834505 1_554
Hg0 I15 2.847803 1_454
Hg1 I13 2.833691 1_565
Hg1 I2 2.833691 1_465
Hg1 I8 2.834505 1_555
Hg1 I1 2.847803 1_565
Hg2 I3 2.833691 1_555
Hg2 I9 2.833691 1_545
Hg2 I0 2.834505 1_556
Hg2 I7 2.847803 1_556
Hg3 I14 2.833691 1_555
Hg3 I12 2.833691 1_455
Hg3 I8 2.834505 1_555
Hg3 I1 2.847803 1_555
Hg4 I14 2.833691 1_555
Hg4 I13 2.833691 1_565
Hg4 I10 2.834505 1_554
Hg4 I15 2.847803 1_554
Hg5 I6 2.833691 1_645
Hg5 I9 2.833691 1_545
Hg5 I4 2.834505 1_555
Hg5 I11 2.847803 1_545
Hg6 I5 2.833691 1_655
Hg6 I3 2.833691 1_555
Hg6 I4 2.834505 1_555
Hg6 I11 2.847803 1_555
Hg7 I5 2.833691 1_655
Hg7 I6 2.833691 1_645
Hg7 I0 2.834505 1_556
Hg7 I7 2.847803 1_656
