# generated using pymatgen
data_Zr4Cd(PO4)6
_symmetry_space_group_name_H-M   'P 1'
_cell_length_a   9.00431101
_cell_length_b   9.00431101
_cell_length_c   9.00431119
_cell_angle_alpha   59.16020894
_cell_angle_beta   59.16020894
_cell_angle_gamma   59.16020562
_symmetry_Int_Tables_number   1
_chemical_formula_structural   Zr4Cd(PO4)6
_chemical_formula_sum   'Zr4 Cd1 P6 O24'
_cell_volume   506.34248317
_cell_formula_units_Z   1
loop_
 _symmetry_equiv_pos_site_id
 _symmetry_equiv_pos_as_xyz
  1  'x, y, z'
loop_
 _atom_site_type_symbol
 _atom_site_label
 _atom_site_symmetry_multiplicity
 _atom_site_fract_x
 _atom_site_fract_y
 _atom_site_fract_z
 _atom_site_occupancy
  Zr  Zr0  1  0.13586591  0.13586591  0.13586591  1
  Zr  Zr1  1  0.86413409  0.86413409  0.86413409  1
  Zr  Zr2  1  0.64799357  0.64799357  0.64799357  1
  Zr  Zr3  1  0.35200643  0.35200643  0.35200643  1
  Cd  Cd0  1  0.50000000  0.50000000  0.50000000  1
  P  P0  1  0.95277599  0.52900119  0.25737968  1
  P  P1  1  0.52900119  0.25737968  0.95277599  1
  P  P2  1  0.25737968  0.95277599  0.52900119  1
  P  P3  1  0.04722401  0.47099881  0.74262032  1
  P  P4  1  0.47099881  0.74262032  0.04722401  1
  P  P5  1  0.74262032  0.04722401  0.47099881  1
  O  O0  1  0.98999002  0.36864645  0.21455719  1
  O  O1  1  0.36864645  0.21455719  0.98999002  1
  O  O2  1  0.21455719  0.98999002  0.36864645  1
  O  O3  1  0.01000998  0.63135355  0.78544281  1
  O  O4  1  0.63135355  0.78544281  0.01000998  1
  O  O5  1  0.78544281  0.01000998  0.63135355  1
  O  O6  1  0.51038218  0.68537775  0.89318987  1
  O  O7  1  0.68537775  0.89318987  0.51038218  1
  O  O8  1  0.89318987  0.51038218  0.68537775  1
  O  O9  1  0.48961782  0.31462225  0.10681013  1
  O  O10  1  0.31462225  0.10681013  0.48961782  1
  O  O11  1  0.10681013  0.48961782  0.31462225  1
  O  O12  1  0.06172537  0.29308218  0.90495517  1
  O  O13  1  0.29308218  0.90495517  0.06172537  1
  O  O14  1  0.90495517  0.06172537  0.29308218  1
  O  O15  1  0.93827463  0.70691782  0.09504483  1
  O  O16  1  0.70691782  0.09504483  0.93827463  1
  O  O17  1  0.09504483  0.93827463  0.70691782  1
  O  O18  1  0.55376342  0.41957256  0.76835846  1
  O  O19  1  0.41957256  0.76835846  0.55376342  1
  O  O20  1  0.76835846  0.55376342  0.41957256  1
  O  O21  1  0.44623658  0.58042744  0.23164154  1
  O  O22  1  0.58042744  0.23164154  0.44623658  1
  O  O23  1  0.23164154  0.44623658  0.58042744  1
loop_
_geom_bond_atom_site_label_1
_geom_bond_atom_site_label_2
_geom_bond_distance
_geom_bond_site_symmetry_2
Cd0 O19 2.375596 1_555
Cd0 O22 2.375596 1_555
Cd0 O23 2.375596 1_555
Cd0 O20 2.375596 1_555
Cd0 O21 2.375596 1_555
Cd0 O18 2.375596 1_555
O0 P0 1.512630 1_555
O0 Zr0 2.089600 1_655
O1 P1 1.512630 1_555
O1 Zr0 2.089600 1_556
O2 P2 1.512630 1_555
O2 Zr0 2.089600 1_565
O3 P3 1.512630 1_555
O3 Zr1 2.089600 1_455
O4 P4 1.512630 1_555
O4 Zr1 2.089600 1_554
O5 P5 1.512630 1_555
O5 Zr1 2.089600 1_545
O6 P4 1.535053 1_556
O6 Zr2 2.013115 1_555
O7 P5 1.535053 1_565
O7 Zr2 2.013115 1_555
O8 P3 1.535053 1_655
O8 Zr2 2.013115 1_555
O9 P1 1.535053 1_554
O9 Zr3 2.013115 1_555
O10 P2 1.535053 1_545
O10 Zr3 2.013115 1_555
O11 P0 1.535053 1_455
O11 Zr3 2.013115 1_555
O12 P3 1.516722 1_555
O12 Zr0 2.051616 1_556
O13 P4 1.516722 1_555
O13 Zr0 2.051616 1_565
O14 P5 1.516722 1_555
O14 Zr0 2.051616 1_655
O15 P0 1.516722 1_555
O15 Zr1 2.051616 1_554
O16 P1 1.516722 1_555
O16 Zr1 2.051616 1_545
O17 P2 1.516722 1_555
O17 Zr1 2.051616 1_455
O18 P1 1.551722 1_555
O18 Zr2 2.164668 1_555
O19 P2 1.551721 1_555
O19 Zr2 2.164668 1_555
O20 P0 1.551722 1_555
O20 Zr2 2.164668 1_555
O21 P4 1.551722 1_555
O21 Zr3 2.164668 1_555
O22 P5 1.551721 1_555
O22 Zr3 2.164668 1_555
O23 P3 1.551722 1_555
O23 Zr3 2.164668 1_555
