# generated using pymatgen
data_La11Mn12O36
_symmetry_space_group_name_H-M   'P 1'
_cell_length_a   11.11552735
_cell_length_b   7.89438273
_cell_length_c   23.59215598
_cell_angle_alpha   90.00000000
_cell_angle_beta   90.00000000
_cell_angle_gamma   45.04226937
_symmetry_Int_Tables_number   1
_chemical_formula_structural   La11Mn12O36
_chemical_formula_sum   'La22 Mn24 O72'
_cell_volume   1464.94406331
_cell_formula_units_Z   2
loop_
 _symmetry_equiv_pos_site_id
 _symmetry_equiv_pos_as_xyz
  1  'x, y, z'
loop_
 _atom_site_type_symbol
 _atom_site_label
 _atom_site_symmetry_multiplicity
 _atom_site_fract_x
 _atom_site_fract_y
 _atom_site_fract_z
 _atom_site_occupancy
  La  La0  1  0.25924056  0.00393671  0.41719918  1
  La  La1  1  0.25924056  0.00393671  0.74946782  1
  La  La2  1  0.23617510  0.50391765  0.24899213  1
  La  La3  1  0.23617510  0.50391765  0.91767487  1
  La  La4  1  0.23165379  0.50960122  0.58333300  1
  La  La5  1  0.26147300  0.49400913  0.08333300  1
  La  La6  1  0.25739494  0.49922293  0.41901309  1
  La  La7  1  0.25739494  0.49922293  0.74765391  1
  La  La8  1  0.25328468  0.98436968  0.58333300  1
  La  La9  1  0.24409878  0.99101851  0.24591673  1
  La  La10  1  0.24409878  0.99101851  0.92075027  1
  La  La11  1  0.74671532  0.01563032  0.08333300  1
  La  La12  1  0.75590122  0.00898149  0.42075027  1
  La  La13  1  0.75590122  0.00898149  0.74591673  1
  La  La14  1  0.73852700  0.50599087  0.58333300  1
  La  La15  1  0.74260506  0.50077707  0.24765391  1
  La  La16  1  0.74260506  0.50077707  0.91901309  1
  La  La17  1  0.76382490  0.49608235  0.74899213  1
  La  La18  1  0.76834621  0.49039878  0.08333300  1
  La  La19  1  0.76382490  0.49608235  0.41767487  1
  La  La20  1  0.74075944  0.99606329  0.24946782  1
  La  La21  1  0.74075944  0.99606329  0.91719918  1
  Mn  Mn0  1  -0.00004498  0.00057321  0.00122018  1
  Mn  Mn1  1  -0.00004498  0.00057321  0.16544682  1
  Mn  Mn2  1  0.00000000  0.00000000  0.33333300  1
  Mn  Mn3  1  1.00004498  0.99942679  0.50122018  1
  Mn  Mn4  1  1.00004498  0.99942679  0.66544682  1
  Mn  Mn5  1  0.00000000  0.00000000  0.83333300  1
  Mn  Mn6  1  0.49667805  0.00052030  0.00130930  1
  Mn  Mn7  1  0.49667805  0.00052030  0.16535770  1
  Mn  Mn8  1  0.50000000  0.00000000  0.33333300  1
  Mn  Mn9  1  0.50332195  0.99947970  0.50130930  1
  Mn  Mn10  1  0.50332195  0.99947970  0.66535770  1
  Mn  Mn11  1  0.50000000  0.00000000  0.83333300  1
  Mn  Mn12  1  0.50315434  0.49454306  0.50141269  1
  Mn  Mn13  1  0.50000000  0.50000000  0.83333300  1
  Mn  Mn14  1  0.49684566  0.50545694  0.16525431  1
  Mn  Mn15  1  0.50315434  0.49454306  0.66525431  1
  Mn  Mn16  1  0.49684566  0.50545694  0.00141269  1
  Mn  Mn17  1  0.50000000  0.50000000  0.33333300  1
  Mn  Mn18  1  0.00255326  0.49592946  0.16570978  1
  Mn  Mn19  1  0.99744674  0.50407054  0.50095722  1
  Mn  Mn20  1  0.00000000  0.50000000  0.83333300  1
  Mn  Mn21  1  0.00255326  0.49592946  0.00095722  1
  Mn  Mn22  1  0.00000000  0.50000000  0.33333300  1
  Mn  Mn23  1  0.99744674  0.50407054  0.66570978  1
  O  O0  1  0.99547967  0.25504793  0.00565543  1
  O  O1  1  0.99547967  0.25504793  0.16101057  1
  O  O2  1  0.02322694  0.22827043  0.34630598  1
  O  O3  1  0.02279966  0.22799273  0.48626670  1
  O  O4  1  0.02279966  0.22799273  0.68040030  1
  O  O5  1  0.02322694  0.22827043  0.82036102  1
  O  O6  1  0.04380958  0.42467312  0.58333300  1
  O  O7  1  0.04293945  0.42603115  0.91562244  1
  O  O8  1  0.04293945  0.42603115  0.25104456  1
  O  O9  1  0.25001971  0.27519290  0.34759938  1
  O  O10  1  0.24959294  0.29092530  0.15964477  1
  O  O11  1  0.24959294  0.29092530  0.00702123  1
  O  O12  1  0.25118750  0.26306857  0.48593549  1
  O  O13  1  0.25001971  0.27519290  0.81906762  1
  O  O14  1  0.25118750  0.26306857  0.68073151  1
  O  O15  1  0.01909432  0.92622776  0.08333300  1
  O  O16  1  0.03138889  0.93312524  0.41601268  1
  O  O17  1  0.03138889  0.93312524  0.75065432  1
  O  O18  1  0.46872095  0.07100675  0.25129154  1
  O  O19  1  0.44786161  0.07184951  0.58333300  1
  O  O20  1  0.46872095  0.07100675  0.91537546  1
  O  O21  1  0.24864483  0.72821645  0.18120305  1
  O  O22  1  0.24955822  0.72851841  0.31920500  1
  O  O23  1  0.25121663  0.73139040  0.51251485  1
  O  O24  1  0.24955822  0.72851841  0.84746200  1
  O  O25  1  0.25121663  0.73139040  0.65415115  1
  O  O26  1  0.24864483  0.72821645  0.98546395  1
  O  O27  1  0.52645895  0.22357125  0.34686187  1
  O  O28  1  0.52068920  0.22867083  0.15761040  1
  O  O29  1  0.52068920  0.22867083  0.00905560  1
  O  O30  1  0.52645895  0.22357125  0.81980513  1
  O  O31  1  0.50863419  0.24149041  0.68257880  1
  O  O32  1  0.50863419  0.24149041  0.48408820  1
  O  O33  1  0.45768612  0.57252553  0.75157234  1
  O  O34  1  0.47259326  0.53011707  0.08333300  1
  O  O35  1  0.45768612  0.57252553  0.41509466  1
  O  O36  1  0.52740674  0.46988293  0.58333300  1
  O  O37  1  0.54231388  0.42747447  0.25157234  1
  O  O38  1  0.54231388  0.42747447  0.91509466  1
  O  O39  1  0.47931080  0.77132917  0.65761040  1
  O  O40  1  0.49136581  0.75850959  0.18257880  1
  O  O41  1  0.47354105  0.77642875  0.31980513  1
  O  O42  1  0.47931080  0.77132917  0.50905560  1
  O  O43  1  0.47354105  0.77642875  0.84686187  1
  O  O44  1  0.49136581  0.75850959  0.98408820  1
  O  O45  1  0.75135517  0.27178355  0.48546395  1
  O  O46  1  0.75044178  0.27148159  0.34746200  1
  O  O47  1  0.75135517  0.27178355  0.68120305  1
  O  O48  1  0.74878337  0.26860960  0.15415115  1
  O  O49  1  0.74878337  0.26860960  0.01251485  1
  O  O50  1  0.75044178  0.27148159  0.81920500  1
  O  O51  1  0.53127905  0.92899325  0.41537546  1
  O  O52  1  0.55213839  0.92815049  0.08333300  1
  O  O53  1  0.53127905  0.92899325  0.75129154  1
  O  O54  1  0.96861111  0.06687476  0.25065432  1
  O  O55  1  0.98090568  0.07377224  0.58333300  1
  O  O56  1  0.96861111  0.06687476  0.91601268  1
  O  O57  1  0.75040706  0.70907470  0.50702123  1
  O  O58  1  0.74998029  0.72480710  0.84759938  1
  O  O59  1  0.74881250  0.73693143  0.18073151  1
  O  O60  1  0.74998029  0.72480710  0.31906762  1
  O  O61  1  0.75040706  0.70907470  0.65964477  1
  O  O62  1  0.74881250  0.73693143  0.98593549  1
  O  O63  1  0.95619042  0.57532688  0.08333300  1
  O  O64  1  0.95706055  0.57396885  0.41562244  1
  O  O65  1  0.95706055  0.57396885  0.75104456  1
  O  O66  1  0.97720034  0.77200727  0.18040030  1
  O  O67  1  0.97677306  0.77172957  0.32036102  1
  O  O68  1  0.00452033  0.74495207  0.50565543  1
  O  O69  1  0.97677306  0.77172957  0.84630598  1
  O  O70  1  0.00452033  0.74495207  0.66101057  1
  O  O71  1  0.97720034  0.77200727  0.98626670  1
loop_
_geom_bond_atom_site_label_1
_geom_bond_atom_site_label_2
_geom_bond_distance
_geom_bond_site_symmetry_2
La0 O35 2.418832 1_545
La0 O3 2.474191 1_555
La0 O2 2.500081 1_555
La0 O12 2.561987 1_555
La0 O51 2.639580 1_545
La0 O9 2.642372 1_555
La0 O42 2.775656 1_545
La0 O41 2.851953 1_545
La0 O16 2.954417 1_545
La0 O23 3.156758 1_545
La0 O64 3.189620 1_455
La0 O22 3.227153 1_545
La1 O33 2.418832 1_545
La1 O4 2.474191 1_555
La1 O5 2.500081 1_555
La1 O14 2.561987 1_555
La1 O53 2.639580 1_545
La1 O13 2.642372 1_555
La1 O39 2.775675 1_545
La1 O43 2.851953 1_545
La1 O17 2.954417 1_545
La1 O25 3.156775 1_545
La1 O65 3.189620 1_455
La1 O24 3.227153 1_545
La2 O18 2.424945 1_555
La2 O21 2.461536 1_555
La2 O22 2.506513 1_555
La2 O66 2.602855 1_455
La2 O8 2.619216 1_555
La2 O10 2.634071 1_555
La2 O67 2.646509 1_455
La2 O9 2.881542 1_555
La2 O37 3.007583 1_555
La2 O28 3.108027 1_555
La2 O54 3.149468 1_465
La2 O27 3.247935 1_555
La3 O20 2.424945 1_555
La3 O26 2.461536 1_555
La3 O24 2.506513 1_555
La3 O71 2.602855 1_455
La3 O7 2.619216 1_555
La3 O11 2.634052 1_556
La3 O69 2.646509 1_455
La3 O13 2.881542 1_555
La3 O38 3.007583 1_555
La3 O29 3.108011 1_556
La3 O56 3.149468 1_465
La3 O30 3.247935 1_555
La4 O19 2.445711 1_555
La4 O23 2.538179 1_555
La4 O25 2.538179 1_555
La4 O68 2.560393 1_555
La4 O70 2.560393 1_555
La4 O6 2.605283 1_555
La5 O15 2.431053 1_555
La5 O11 2.475527 1_555
La5 O10 2.475527 1_555
La5 O34 2.556096 1_555
La5 O29 2.689122 1_555
La5 O28 2.689122 1_555
La5 O26 2.897842 1_554
La5 O21 2.897861 1_555
La5 O63 2.974672 1_455
La5 O52 3.161927 1_545
La5 O71 3.200817 1_454
La5 O66 3.200833 1_455
La6 O16 2.426676 1_555
La6 O12 2.480903 1_555
La6 O9 2.485567 1_555
La6 O32 2.503202 1_555
La6 O35 2.668455 1_555
La6 O27 2.716699 1_555
La6 O23 2.837622 1_555
La6 O68 2.852476 1_555
La6 O22 2.933589 1_555
La6 O64 2.952211 1_455
La7 O17 2.426676 1_555
La7 O14 2.480903 1_555
La7 O13 2.485567 1_555
La7 O31 2.503202 1_555
La7 O33 2.668455 1_555
La7 O30 2.716699 1_555
La7 O25 2.837640 1_555
La7 O70 2.852493 1_555
La7 O24 2.933589 1_555
La7 O65 2.952211 1_455
La8 O6 2.462970 1_565
La8 O42 2.498046 1_555
La8 O39 2.498046 1_555
La8 O55 2.577787 1_465
La8 O23 2.616350 1_555
La8 O25 2.616350 1_555
La8 O19 2.695462 1_565
La8 O36 2.879527 1_555
La8 O3 2.922936 1_565
La8 O4 2.922954 1_565
La8 O12 3.169971 1_565
La8 O14 3.169988 1_565
La9 O8 2.440564 1_565
La9 O40 2.454980 1_555
La9 O41 2.511446 1_555
La9 O21 2.547457 1_555
La9 O22 2.666428 1_555
La9 O54 2.675201 1_465
La9 O1 2.802502 1_465
La9 O2 2.940517 1_565
La9 O18 2.979401 1_565
La9 O10 3.155329 1_565
La9 O37 3.155601 1_555
La9 O9 3.316704 1_565
La10 O7 2.440564 1_565
La10 O44 2.454980 1_555
La10 O43 2.511446 1_555
La10 O26 2.547457 1_555
La10 O24 2.666428 1_555
La10 O56 2.675201 1_465
La10 O0 2.802485 1_466
La10 O5 2.940517 1_565
La10 O20 2.979401 1_565
La10 O11 3.155314 1_566
La10 O38 3.155601 1_555
La10 O13 3.316704 1_565
La11 O63 2.462970 1_545
La11 O28 2.498046 1_555
La11 O29 2.498046 1_555
La11 O15 2.577787 1_645
La11 O48 2.616350 1_555
La11 O49 2.616350 1_555
La11 O52 2.695462 1_545
La11 O34 2.879527 1_555
La11 O71 2.922936 1_544
La11 O66 2.922954 1_545
La11 O62 3.169971 1_544
La11 O59 3.169988 1_545
La12 O64 2.440564 1_545
La12 O32 2.454980 1_555
La12 O27 2.511446 1_555
La12 O45 2.547457 1_555
La12 O46 2.666428 1_555
La12 O16 2.675201 1_645
La12 O68 2.802485 1_645
La12 O67 2.940517 1_545
La12 O51 2.979401 1_545
La12 O57 3.155314 1_545
La12 O35 3.155601 1_555
La12 O60 3.316704 1_545
La13 O65 2.440564 1_545
La13 O31 2.454980 1_555
La13 O30 2.511446 1_555
La13 O47 2.547457 1_555
La13 O50 2.666428 1_555
La13 O17 2.675201 1_645
La13 O70 2.802502 1_645
La13 O69 2.940517 1_545
La13 O53 2.979401 1_545
La13 O61 3.155329 1_545
La13 O33 3.155601 1_555
La13 O58 3.316704 1_545
La14 O55 2.431053 1_555
La14 O57 2.475527 1_555
La14 O61 2.475527 1_555
La14 O36 2.556096 1_555
La14 O42 2.689122 1_555
La14 O39 2.689122 1_555
La14 O45 2.897842 1_555
La14 O47 2.897861 1_555
La14 O6 2.974672 1_655
La14 O19 3.161927 1_565
La14 O3 3.200817 1_655
La14 O4 3.200833 1_655
La15 O54 2.426676 1_555
La15 O59 2.480903 1_555
La15 O60 2.485567 1_555
La15 O40 2.503202 1_555
La15 O37 2.668455 1_555
La15 O41 2.716699 1_555
La15 O48 2.837640 1_555
La15 O1 2.852493 1_555
La15 O46 2.933589 1_555
La15 O8 2.952211 1_655
La16 O56 2.426676 1_555
La16 O62 2.480903 1_555
La16 O58 2.485567 1_555
La16 O44 2.503202 1_555
La16 O38 2.668455 1_555
La16 O43 2.716699 1_555
La16 O49 2.837622 1_556
La16 O0 2.852476 1_556
La16 O50 2.933589 1_555
La16 O7 2.952211 1_655
La17 O53 2.424945 1_555
La17 O47 2.461536 1_555
La17 O50 2.506513 1_555
La17 O4 2.602855 1_655
La17 O65 2.619216 1_555
La17 O61 2.634071 1_555
La17 O5 2.646509 1_655
La17 O58 2.881542 1_555
La17 O33 3.007583 1_555
La17 O39 3.108027 1_555
La17 O17 3.149468 1_645
La17 O43 3.247935 1_555
La18 O52 2.445711 1_555
La18 O48 2.538179 1_555
La18 O49 2.538179 1_555
La18 O1 2.560393 1_555
La18 O0 2.560393 1_555
La18 O63 2.605283 1_555
La19 O51 2.424945 1_555
La19 O45 2.461536 1_555
La19 O46 2.506513 1_555
La19 O3 2.602855 1_655
La19 O64 2.619216 1_555
La19 O57 2.634052 1_555
La19 O2 2.646509 1_655
La19 O60 2.881542 1_555
La19 O35 3.007583 1_555
La19 O42 3.108011 1_555
La19 O16 3.149468 1_645
La19 O41 3.247935 1_555
La20 O37 2.418832 1_565
La20 O66 2.474191 1_555
La20 O67 2.500081 1_555
La20 O59 2.561987 1_555
La20 O18 2.639580 1_565
La20 O60 2.642372 1_555
La20 O28 2.775675 1_565
La20 O27 2.851953 1_565
La20 O54 2.954417 1_565
La20 O48 3.156775 1_565
La20 O8 3.189620 1_655
La20 O46 3.227153 1_565
La21 O38 2.418832 1_565
La21 O71 2.474191 1_555
La21 O69 2.500081 1_555
La21 O62 2.561987 1_555
La21 O20 2.639580 1_565
La21 O58 2.642372 1_555
La21 O29 2.775656 1_566
La21 O30 2.851953 1_565
La21 O56 2.954417 1_565
La21 O49 3.156758 1_566
La21 O7 3.189620 1_655
La21 O50 3.227153 1_565
Mn0 O0 1.976856 1_455
Mn0 O15 1.991504 1_545
Mn0 O49 1.998661 1_455
Mn0 O26 2.000825 1_544
Mn0 O71 2.022175 1_444
Mn0 O56 2.044177 1_454
Mn1 O1 1.976857 1_455
Mn1 O15 1.991527 1_545
Mn1 O48 1.998664 1_455
Mn1 O21 2.000825 1_545
Mn1 O66 2.022175 1_445
Mn1 O54 2.044177 1_455
Mn2 O54 1.986168 1_455
Mn2 O16 1.986191 1_545
Mn2 O22 1.999442 1_545
Mn2 O46 1.999446 1_455
Mn2 O67 2.016233 1_445
Mn2 O2 2.016237 1_555
Mn3 O68 1.976856 1_655
Mn3 O55 1.991504 1_565
Mn3 O23 1.998661 1_655
Mn3 O45 2.000825 1_565
Mn3 O3 2.022175 1_665
Mn3 O16 2.044177 1_655
Mn4 O70 1.976857 1_655
Mn4 O55 1.991527 1_565
Mn4 O25 1.998664 1_655
Mn4 O47 2.000825 1_565
Mn4 O4 2.022175 1_665
Mn4 O17 2.044177 1_655
Mn5 O17 1.986168 1_545
Mn5 O56 1.986191 1_455
Mn5 O50 1.999442 1_455
Mn5 O24 1.999446 1_545
Mn5 O5 2.016233 1_555
Mn5 O69 2.016237 1_445
Mn6 O11 1.979689 1_555
Mn6 O52 1.988314 1_545
Mn6 O44 1.994513 1_544
Mn6 O29 2.006974 1_555
Mn6 O62 2.018606 1_544
Mn6 O20 2.066893 1_554
Mn7 O10 1.979691 1_555
Mn7 O52 1.988337 1_545
Mn7 O40 1.994513 1_545
Mn7 O28 2.006976 1_555
Mn7 O59 2.018606 1_545
Mn7 O18 2.066893 1_555
Mn8 O18 1.976355 1_555
Mn8 O51 1.976378 1_545
Mn8 O60 2.005786 1_545
Mn8 O9 2.005790 1_555
Mn8 O41 2.009224 1_545
Mn8 O27 2.009228 1_555
Mn9 O57 1.979689 1_555
Mn9 O19 1.988314 1_565
Mn9 O32 1.994513 1_565
Mn9 O42 2.006974 1_555
Mn9 O12 2.018606 1_565
Mn9 O51 2.066893 1_555
Mn10 O61 1.979691 1_555
Mn10 O19 1.988337 1_565
Mn10 O31 1.994513 1_565
Mn10 O39 2.006976 1_555
Mn10 O14 2.018606 1_565
Mn10 O53 2.066893 1_555
Mn11 O53 1.976355 1_545
Mn11 O20 1.976378 1_555
Mn11 O13 2.005786 1_555
Mn11 O58 2.005790 1_545
Mn11 O30 2.009224 1_555
Mn11 O43 2.009228 1_545
Mn12 O36 1.942073 1_555
Mn12 O45 1.997330 1_555
Mn12 O32 1.997396 1_555
Mn12 O23 2.001860 1_555
Mn12 O42 2.014656 1_555
Mn12 O35 2.083693 1_555
Mn13 O33 1.972097 1_555
Mn13 O38 1.972121 1_555
Mn13 O50 2.004526 1_555
Mn13 O24 2.004530 1_555
Mn13 O30 2.010851 1_555
Mn13 O43 2.010855 1_555
Mn14 O34 1.942096 1_555
Mn14 O21 1.997330 1_555
Mn14 O40 1.997396 1_555
Mn14 O48 2.001863 1_555
Mn14 O28 2.014658 1_555
Mn14 O37 2.083693 1_555
Mn15 O36 1.942096 1_555
Mn15 O47 1.997330 1_555
Mn15 O31 1.997396 1_555
Mn15 O25 2.001863 1_555
Mn15 O39 2.014658 1_555
Mn15 O33 2.083693 1_555
Mn16 O34 1.942073 1_555
Mn16 O26 1.997330 1_554
Mn16 O44 1.997396 1_554
Mn16 O49 2.001860 1_555
Mn16 O29 2.014656 1_555
Mn16 O38 2.083693 1_554
Mn17 O37 1.972097 1_555
Mn17 O35 1.972121 1_555
Mn17 O22 2.004526 1_555
Mn17 O46 2.004530 1_555
Mn17 O41 2.010851 1_555
Mn17 O27 2.010855 1_555
Mn18 O1 1.961094 1_455
Mn18 O10 1.974801 1_555
Mn18 O63 1.994733 1_455
Mn18 O66 2.020305 1_455
Mn18 O59 2.029071 1_455
Mn18 O8 2.051598 1_555
Mn19 O68 1.961093 1_655
Mn19 O57 1.974799 1_555
Mn19 O6 1.994710 1_655
Mn19 O3 2.020305 1_655
Mn19 O12 2.029071 1_655
Mn19 O64 2.051598 1_555
Mn20 O65 1.985904 1_455
Mn20 O7 1.985927 1_555
Mn20 O5 1.994811 1_555
Mn20 O69 1.994815 1_455
Mn20 O13 2.004088 1_555
Mn20 O58 2.004092 1_455
Mn21 O0 1.961093 1_455
Mn21 O11 1.974799 1_555
Mn21 O63 1.994710 1_455
Mn21 O71 2.020305 1_454
Mn21 O62 2.029071 1_454
Mn21 O7 2.051598 1_554
Mn22 O8 1.985904 1_555
Mn22 O64 1.985927 1_455
Mn22 O67 1.994811 1_455
Mn22 O2 1.994815 1_555
Mn22 O60 2.004088 1_455
Mn22 O9 2.004092 1_555
Mn23 O70 1.961094 1_655
Mn23 O61 1.974801 1_555
Mn23 O6 1.994733 1_655
Mn23 O4 2.020305 1_655
Mn23 O14 2.029071 1_655
Mn23 O65 2.051598 1_555
