# generated using pymatgen
data_NaMg4(PO4)3
_symmetry_space_group_name_H-M   'P 1'
_cell_length_a   6.39378700
_cell_length_b   9.92278800
_cell_length_c   15.52961300
_cell_angle_alpha   90.00000000
_cell_angle_beta   90.00000000
_cell_angle_gamma   90.00000000
_symmetry_Int_Tables_number   1
_chemical_formula_structural   NaMg4(PO4)3
_chemical_formula_sum   'Na4 Mg16 P12 O48'
_cell_volume   985.26376312
_cell_formula_units_Z   4
loop_
 _symmetry_equiv_pos_site_id
 _symmetry_equiv_pos_as_xyz
  1  'x, y, z'
loop_
 _atom_site_type_symbol
 _atom_site_label
 _atom_site_symmetry_multiplicity
 _atom_site_fract_x
 _atom_site_fract_y
 _atom_site_fract_z
 _atom_site_occupancy
  Na  Na0  1  0.25000000  0.74954200  0.71338900  1
  Na  Na1  1  0.75000000  0.75045800  0.21338900  1
  Na  Na2  1  0.75000000  0.25045800  0.28661100  1
  Na  Na3  1  0.25000000  0.24954200  0.78661100  1
  Mg  Mg0  1  0.00070700  0.74711800  0.44505800  1
  Mg  Mg1  1  0.99929300  0.75288200  0.94505800  1
  Mg  Mg2  1  0.49929300  0.24711800  0.05494200  1
  Mg  Mg3  1  0.25000000  0.54516400  0.12997800  1
  Mg  Mg4  1  0.75000000  0.56632100  0.62836700  1
  Mg  Mg5  1  0.25000000  0.93367900  0.12836700  1
  Mg  Mg6  1  0.25000000  0.04516400  0.37002200  1
  Mg  Mg7  1  0.49929300  0.74711800  0.44505800  1
  Mg  Mg8  1  0.50070700  0.75288200  0.94505800  1
  Mg  Mg9  1  0.50070700  0.25288200  0.55494200  1
  Mg  Mg10  1  0.75000000  0.45483600  0.87002200  1
  Mg  Mg11  1  0.75000000  0.06632100  0.87163300  1
  Mg  Mg12  1  0.75000000  0.95483600  0.62997800  1
  Mg  Mg13  1  0.25000000  0.43367900  0.37163300  1
  Mg  Mg14  1  0.99929300  0.25288200  0.55494200  1
  Mg  Mg15  1  0.00070700  0.24711800  0.05494200  1
  P  P0  1  0.75000000  0.29486600  0.72738700  1
  P  P1  1  0.25000000  0.20513400  0.22738700  1
  P  P2  1  0.75000000  0.95611200  0.05636500  1
  P  P3  1  0.75000000  0.79486600  0.77261300  1
  P  P4  1  0.25000000  0.97088000  0.56150100  1
  P  P5  1  0.25000000  0.47088000  0.93849900  1
  P  P6  1  0.25000000  0.54388800  0.55636500  1
  P  P7  1  0.25000000  0.70513400  0.27261300  1
  P  P8  1  0.25000000  0.04388800  0.94363500  1
  P  P9  1  0.75000000  0.45611200  0.44363500  1
  P  P10  1  0.75000000  0.02912000  0.43849900  1
  P  P11  1  0.75000000  0.52912000  0.06150100  1
  O  O0  1  0.94498900  0.56256800  0.11303600  1
  O  O1  1  0.94977000  0.74352400  0.81884200  1
  O  O2  1  0.25000000  0.88668200  0.95466900  1
  O  O3  1  0.75000000  0.39514300  0.53873900  1
  O  O4  1  0.94977000  0.24352400  0.68115800  1
  O  O5  1  0.75000000  0.75247800  0.67680700  1
  O  O6  1  0.55417500  0.90425000  0.10147800  1
  O  O7  1  0.75000000  0.11331800  0.04533100  1
  O  O8  1  0.25000000  0.88544700  0.47404500  1
  O  O9  1  0.25000000  0.38668200  0.54533100  1
  O  O10  1  0.75000000  0.25247800  0.82319300  1
  O  O11  1  0.25000000  0.10485700  0.03873900  1
  O  O12  1  0.94498900  0.06256800  0.38696400  1
  O  O13  1  0.25000000  0.62339900  0.96832300  1
  O  O14  1  0.44977000  0.75647600  0.31884200  1
  O  O15  1  0.55023000  0.24352400  0.68115800  1
  O  O16  1  0.94582500  0.90425000  0.10147800  1
  O  O17  1  0.94582500  0.40425000  0.39852200  1
  O  O18  1  0.25000000  0.54737500  0.26617400  1
  O  O19  1  0.44582500  0.09575000  0.89852200  1
  O  O20  1  0.55417500  0.40425000  0.39852200  1
  O  O21  1  0.05023000  0.25647600  0.18115800  1
  O  O22  1  0.75000000  0.37660100  0.03167700  1
  O  O23  1  0.05417500  0.59575000  0.60147800  1
  O  O24  1  0.75000000  0.87660100  0.46832300  1
  O  O25  1  0.44977000  0.25647600  0.18115800  1
  O  O26  1  0.44498900  0.43743200  0.88696400  1
  O  O27  1  0.25000000  0.24752200  0.32319300  1
  O  O28  1  0.25000000  0.38544700  0.02595500  1
  O  O29  1  0.25000000  0.74752200  0.17680700  1
  O  O30  1  0.05023000  0.75647600  0.31884200  1
  O  O31  1  0.05501100  0.93743200  0.61303600  1
  O  O32  1  0.44498900  0.93743200  0.61303600  1
  O  O33  1  0.25000000  0.04737500  0.23382600  1
  O  O34  1  0.44582500  0.59575000  0.60147800  1
  O  O35  1  0.05501100  0.43743200  0.88696400  1
  O  O36  1  0.75000000  0.61455300  0.97404500  1
  O  O37  1  0.75000000  0.95262500  0.76617400  1
  O  O38  1  0.55023000  0.74352400  0.81884200  1
  O  O39  1  0.75000000  0.61331800  0.45466900  1
  O  O40  1  0.75000000  0.45262500  0.73382600  1
  O  O41  1  0.25000000  0.12339900  0.53167700  1
  O  O42  1  0.05417500  0.09575000  0.89852200  1
  O  O43  1  0.55501100  0.06256800  0.38696400  1
  O  O44  1  0.75000000  0.11455300  0.52595500  1
  O  O45  1  0.55501100  0.56256800  0.11303600  1
  O  O46  1  0.75000000  0.89514300  0.96126100  1
  O  O47  1  0.25000000  0.60485700  0.46126100  1
loop_
_geom_bond_atom_site_label_1
_geom_bond_atom_site_label_2
_geom_bond_distance
_geom_bond_site_symmetry_2
Na0 O1 2.523952 1_455
Na0 O38 2.523952 1_555
Na0 O34 2.629999 1_555
Na0 O23 2.629999 1_555
Na0 O32 2.731119 1_555
Na0 O31 2.731119 1_555
Na1 O14 2.523952 1_555
Na1 O30 2.523952 1_655
Na1 O16 2.629999 1_555
Na1 O6 2.629999 1_555
Na1 O0 2.731119 1_555
Na1 O45 2.731119 1_555
Na2 O25 2.523952 1_555
Na2 O21 2.523952 1_655
Na2 O17 2.629999 1_555
Na2 O20 2.629999 1_555
Na2 O12 2.731119 1_555
Na2 O43 2.731119 1_555
Na3 O4 2.523952 1_455
Na3 O15 2.523952 1_555
Na3 O19 2.629999 1_555
Na3 O42 2.629999 1_555
Na3 O26 2.731119 1_555
Na3 O35 2.731119 1_555
Mg0 O30 1.987667 1_555
Mg0 O24 2.085865 1_455
Mg0 O39 2.086740 1_455
Mg0 O47 2.143969 1_555
Mg0 O8 2.151116 1_555
Mg1 O1 1.987667 1_555
Mg1 O13 2.085865 1_655
Mg1 O2 2.086740 1_655
Mg1 O46 2.143969 1_555
Mg1 O36 2.151116 1_555
Mg2 O25 1.987667 1_555
Mg2 O22 2.085865 1_555
Mg2 O7 2.086740 1_555
Mg2 O11 2.143969 1_555
Mg2 O28 2.151116 1_555
Mg3 O45 1.975407 1_555
Mg3 O0 1.975407 1_455
Mg3 O18 2.115185 1_555
Mg3 O29 2.135593 1_555
Mg3 O28 2.263039 1_555
Mg3 O13 2.627730 1_554
Mg4 O40 1.988712 1_555
Mg4 O5 1.994498 1_555
Mg4 O23 2.010475 1_655
Mg4 O34 2.010475 1_555
Mg4 O3 2.196012 1_555
Mg5 O33 1.988712 1_565
Mg5 O29 1.994498 1_555
Mg5 O6 2.010475 1_555
Mg5 O16 2.010475 1_455
Mg5 O11 2.196012 1_565
Mg6 O43 1.975407 1_555
Mg6 O12 1.975407 1_455
Mg6 O33 2.115185 1_555
Mg6 O27 2.135593 1_555
Mg6 O8 2.263039 1_545
Mg6 O41 2.627730 1_555
Mg7 O14 1.987667 1_555
Mg7 O24 2.085865 1_555
Mg7 O39 2.086740 1_555
Mg7 O47 2.143969 1_555
Mg7 O8 2.151116 1_555
Mg8 O38 1.987667 1_555
Mg8 O13 2.085865 1_555
Mg8 O2 2.086740 1_555
Mg8 O46 2.143969 1_555
Mg8 O36 2.151116 1_555
Mg9 O15 1.987667 1_555
Mg9 O41 2.085865 1_555
Mg9 O9 2.086740 1_555
Mg9 O3 2.143969 1_555
Mg9 O44 2.151116 1_555
Mg10 O35 1.975407 1_655
Mg10 O26 1.975407 1_555
Mg10 O40 2.115185 1_555
Mg10 O10 2.135593 1_555
Mg10 O36 2.263039 1_555
Mg10 O22 2.627730 1_556
Mg11 O37 1.988712 1_545
Mg11 O10 1.994498 1_555
Mg11 O42 2.010475 1_655
Mg11 O19 2.010475 1_555
Mg11 O46 2.196012 1_545
Mg12 O31 1.975407 1_655
Mg12 O32 1.975407 1_555
Mg12 O37 2.115185 1_555
Mg12 O5 2.135593 1_555
Mg12 O44 2.263039 1_565
Mg12 O24 2.627730 1_555
Mg13 O18 1.988712 1_555
Mg13 O27 1.994498 1_555
Mg13 O20 2.010475 1_555
Mg13 O17 2.010475 1_455
Mg13 O47 2.196012 1_555
Mg14 O4 1.987667 1_555
Mg14 O41 2.085865 1_655
Mg14 O9 2.086740 1_655
Mg14 O3 2.143969 1_555
Mg14 O44 2.151116 1_555
Mg15 O21 1.987667 1_555
Mg15 O22 2.085865 1_455
Mg15 O7 2.086740 1_455
Mg15 O11 2.143969 1_555
Mg15 O28 2.151116 1_555
O0 P11 1.518213 1_555
O1 P3 1.551262 1_555
O2 P8 1.569305 1_565
O3 P9 1.596033 1_555
O4 P0 1.551262 1_555
O5 P3 1.546140 1_555
O6 P2 1.524242 1_555
O7 P2 1.569305 1_545
O8 P4 1.601014 1_555
O9 P6 1.569305 1_555
O10 P0 1.546140 1_555
O11 P8 1.596033 1_554
O12 P10 1.518213 1_555
O13 P5 1.582698 1_555
O14 P7 1.551262 1_555
O15 P0 1.551262 1_555
O16 P2 1.524242 1_555
O17 P9 1.524242 1_555
O18 P7 1.568600 1_555
O19 P8 1.524242 1_555
O20 P9 1.524242 1_555
O21 P1 1.551262 1_555
O22 P11 1.582698 1_555
O23 P6 1.524242 1_555
O24 P10 1.582698 1_565
O25 P1 1.551262 1_555
O26 P5 1.518213 1_555
O27 P1 1.546140 1_555
O28 P5 1.601014 1_554
O29 P7 1.546140 1_555
O30 P7 1.551262 1_555
O31 P4 1.518213 1_555
O32 P4 1.518213 1_555
O33 P1 1.568600 1_555
O34 P6 1.524242 1_555
O35 P5 1.518213 1_555
O36 P11 1.601014 1_556
O37 P3 1.568600 1_555
O38 P3 1.551262 1_555
O39 P9 1.569305 1_555
O40 P0 1.568600 1_555
O41 P4 1.582698 1_545
O42 P8 1.524242 1_555
O43 P10 1.518213 1_555
O44 P10 1.601014 1_555
O45 P11 1.518213 1_555
O46 P2 1.596033 1_556
O47 P6 1.596033 1_555
