# generated using pymatgen
data_Rb6O
_symmetry_space_group_name_H-M   'P 1'
_cell_length_a   8.52163403
_cell_length_b   8.52163310
_cell_length_c   30.67707631
_cell_angle_alpha   90.00000000
_cell_angle_beta   90.00000000
_cell_angle_gamma   120.00000687
_symmetry_Int_Tables_number   1
_chemical_formula_structural   Rb6O
_chemical_formula_sum   'Rb24 O4'
_cell_volume   1929.25786331
_cell_formula_units_Z   4
loop_
 _symmetry_equiv_pos_site_id
 _symmetry_equiv_pos_as_xyz
  1  'x, y, z'
loop_
 _atom_site_type_symbol
 _atom_site_label
 _atom_site_symmetry_multiplicity
 _atom_site_fract_x
 _atom_site_fract_y
 _atom_site_fract_z
 _atom_site_occupancy
  Rb  Rb0  1  0.31707709  0.38981385  0.13972106  1
  Rb  Rb1  1  0.92726324  0.31707709  0.63972106  1
  Rb  Rb2  1  0.38981385  0.07273676  0.63972106  1
  Rb  Rb3  1  0.61018615  0.92726324  0.13972106  1
  Rb  Rb4  1  0.07273676  0.68292291  0.13972106  1
  Rb  Rb5  1  0.68292291  0.61018615  0.63972106  1
  Rb  Rb6  1  0.68292291  0.61018615  0.86027894  1
  Rb  Rb7  1  0.07273676  0.68292291  0.36027894  1
  Rb  Rb8  1  0.61018615  0.92726324  0.36027894  1
  Rb  Rb9  1  0.38981385  0.07273676  0.86027894  1
  Rb  Rb10  1  0.92726324  0.31707709  0.86027894  1
  Rb  Rb11  1  0.31707709  0.38981385  0.36027894  1
  Rb  Rb12  1  0.08667846  0.43230331  0.25000000  1
  Rb  Rb13  1  0.65437615  0.08667846  0.75000000  1
  Rb  Rb14  1  0.43230331  0.34562385  0.75000000  1
  Rb  Rb15  1  0.56769669  0.65437615  0.25000000  1
  Rb  Rb16  1  0.34562385  0.91332154  0.25000000  1
  Rb  Rb17  1  0.91332154  0.56769669  0.75000000  1
  Rb  Rb18  1  -0.00000000  0.00000000  0.00000000  1
  Rb  Rb19  1  -0.00000000  0.00000000  0.50000000  1
  Rb  Rb20  1  0.33333300  0.66666700  0.98356561  1
  Rb  Rb21  1  0.66666700  0.33333300  0.48356561  1
  Rb  Rb22  1  0.66666700  0.33333300  0.01643439  1
  Rb  Rb23  1  0.33333300  0.66666700  0.51643439  1
  O  O0  1  0.33333300  0.66666700  0.18697291  1
  O  O1  1  0.66666700  0.33333300  0.68697291  1
  O  O2  1  0.66666700  0.33333300  0.81302709  1
  O  O3  1  0.33333300  0.66666700  0.31302709  1
loop_
_geom_bond_atom_site_label_1
_geom_bond_atom_site_label_2
_geom_bond_distance
_geom_bond_site_symmetry_2
Rb0 Rb22 4.984426 1_555
Rb1 Rb23 4.984423 1_655
Rb2 Rb23 4.984420 1_545
Rb10 Rb20 4.984423 1_655
Rb11 Rb21 4.984426 1_555
Rb18 Rb22 4.945726 1_455
Rb18 Rb20 4.945726 1_544
Rb18 Rb22 4.945733 1_445
Rb18 Rb20 4.945733 1_554
Rb18 Rb22 4.945733 1_555
Rb18 Rb20 4.945733 1_444
Rb19 Rb21 4.945726 1_455
Rb19 Rb23 4.945726 1_545
Rb19 Rb23 4.945733 1_555
Rb19 Rb21 4.945733 1_445
Rb19 Rb21 4.945733 1_555
Rb19 Rb23 4.945733 1_445
Rb20 Rb9 4.984420 1_565
Rb20 Rb6 4.984426 1_555
Rb20 Rb22 5.022224 1_566
Rb20 Rb22 5.022224 1_456
Rb20 Rb22 5.022239 1_556
Rb21 Rb8 4.984420 1_545
Rb21 Rb7 4.984423 1_655
Rb21 Rb23 5.022224 1_545
Rb21 Rb23 5.022224 1_655
Rb21 Rb23 5.022239 1_555
Rb22 Rb3 4.984420 1_545
Rb22 Rb4 4.984423 1_655
Rb23 Rb5 4.984426 1_555
O0 Rb4 2.712848 1_555
O0 Rb3 2.712851 1_555
O0 Rb0 2.712855 1_555
O0 Rb12 2.819073 1_555
O0 Rb16 2.819073 1_555
O0 Rb15 2.819073 1_555
O1 Rb1 2.712848 1_555
O1 Rb2 2.712851 1_555
O1 Rb5 2.712855 1_555
O1 Rb17 2.819073 1_555
O1 Rb13 2.819073 1_555
O1 Rb14 2.819073 1_555
O2 Rb10 2.712848 1_555
O2 Rb9 2.712851 1_555
O2 Rb6 2.712855 1_555
O2 Rb17 2.819073 1_555
O2 Rb13 2.819073 1_555
O2 Rb14 2.819073 1_555
O3 Rb7 2.712848 1_555
O3 Rb8 2.712851 1_555
O3 Rb11 2.712855 1_555
O3 Rb12 2.819073 1_555
O3 Rb16 2.819073 1_555
O3 Rb15 2.819073 1_555
