# generated using pymatgen
data_KCeH2S2O9
_symmetry_space_group_name_H-M   'P 1'
_cell_length_a   8.76965600
_cell_length_b   10.20701600
_cell_length_c   10.52291400
_cell_angle_alpha   61.34246020
_cell_angle_beta   90.00000000
_cell_angle_gamma   90.00000000
_symmetry_Int_Tables_number   1
_chemical_formula_structural   KCeH2S2O9
_chemical_formula_sum   'K4 Ce4 H8 S8 O36'
_cell_volume   826.54288494
_cell_formula_units_Z   4
loop_
 _symmetry_equiv_pos_site_id
 _symmetry_equiv_pos_as_xyz
  1  'x, y, z'
loop_
 _atom_site_type_symbol
 _atom_site_label
 _atom_site_symmetry_multiplicity
 _atom_site_fract_x
 _atom_site_fract_y
 _atom_site_fract_z
 _atom_site_occupancy
  K  K0  1  0.31312400  0.28423400  0.19580400  1
  K  K1  1  0.81312400  0.71576600  0.30419600  1
  K  K2  1  0.68687600  0.71576600  0.80419600  1
  K  K3  1  0.18687600  0.28423400  0.69580400  1
  Ce  Ce0  1  0.66071700  0.23548400  0.53294700  1
  Ce  Ce1  1  0.16071700  0.76451600  0.96705300  1
  Ce  Ce2  1  0.33928300  0.76451600  0.46705300  1
  Ce  Ce3  1  0.83928300  0.23548400  0.03294700  1
  H  H0  1  0.98447800  0.22333200  0.43108100  1
  H  H1  1  0.48447800  0.77666800  0.06891900  1
  H  H2  1  0.01552200  0.77666800  0.56891900  1
  H  H3  1  0.51552200  0.22333200  0.93108100  1
  H  H4  1  0.01585100  0.10145100  0.59179000  1
  H  H5  1  0.51585100  0.89854900  0.90821000  1
  H  H6  1  0.98414900  0.89854900  0.40821000  1
  H  H7  1  0.48414900  0.10145100  0.09179000  1
  S  S0  1  0.31621600  0.98188600  0.61035600  1
  S  S1  1  0.81621600  0.01811400  0.88964400  1
  S  S2  1  0.68378400  0.01811400  0.38964400  1
  S  S3  1  0.18378400  0.98188600  0.11035600  1
  S  S4  1  0.87008100  0.45188300  0.17585100  1
  S  S5  1  0.37008100  0.54811700  0.32414900  1
  S  S6  1  0.12991900  0.54811700  0.82414900  1
  S  S7  1  0.62991900  0.45188300  0.67585100  1
  O  O0  1  0.96136400  0.19614700  0.53236400  1
  O  O1  1  0.46136400  0.80385300  0.96763600  1
  O  O2  1  0.03863600  0.80385300  0.46763600  1
  O  O3  1  0.53863600  0.19614700  0.03236400  1
  O  O4  1  0.39070900  0.83218000  0.66710500  1
  O  O5  1  0.89070900  0.16782000  0.83289500  1
  O  O6  1  0.60929100  0.16782000  0.33289500  1
  O  O7  1  0.10929100  0.83218000  0.16710500  1
  O  O8  1  0.75924000  0.45327500  0.06682000  1
  O  O9  1  0.25924000  0.54672500  0.43318000  1
  O  O10  1  0.24076000  0.54672500  0.93318000  1
  O  O11  1  0.74076000  0.45327500  0.56682000  1
  O  O12  1  0.97553800  0.32314400  0.21125900  1
  O  O13  1  0.47553800  0.67685600  0.28874100  1
  O  O14  1  0.02446200  0.67685600  0.78874100  1
  O  O15  1  0.52446200  0.32314400  0.71125900  1
  O  O16  1  0.95293200  0.59624000  0.11439500  1
  O  O17  1  0.45293200  0.40376000  0.38560500  1
  O  O18  1  0.04706800  0.40376000  0.88560500  1
  O  O19  1  0.54706800  0.59624000  0.61439500  1
  O  O20  1  0.79003300  0.43200300  0.30826800  1
  O  O21  1  0.29003300  0.56799700  0.19173200  1
  O  O22  1  0.20996700  0.56799700  0.69173200  1
  O  O23  1  0.70996700  0.43200300  0.80826800  1
  O  O24  1  0.18533800  0.97069900  0.70687500  1
  O  O25  1  0.68533800  0.02930100  0.79312500  1
  O  O26  1  0.81466200  0.02930100  0.29312500  1
  O  O27  1  0.31466200  0.97069900  0.20687500  1
  O  O28  1  0.26047100  0.02411500  0.46245400  1
  O  O29  1  0.76047100  0.97588500  0.03754600  1
  O  O30  1  0.73952900  0.97588500  0.53754600  1
  O  O31  1  0.23952900  0.02411500  0.96245400  1
  O  O32  1  0.42330100  0.09423300  0.61019300  1
  O  O33  1  0.92330100  0.90576700  0.88980700  1
  O  O34  1  0.57669900  0.90576700  0.38980700  1
  O  O35  1  0.07669900  0.09423300  0.11019300  1
loop_
_geom_bond_atom_site_label_1
_geom_bond_atom_site_label_2
_geom_bond_distance
_geom_bond_site_symmetry_2
K0 O28 2.826694 1_555
K0 O10 2.848968 1_554
K0 O21 2.883190 1_555
K0 O6 2.931681 1_555
K0 O12 3.001794 1_455
K0 O3 3.026655 1_555
K0 O17 3.052510 1_555
K0 O27 3.146077 1_545
K0 O35 3.247647 1_555
K1 O29 2.826694 1_555
K1 O11 2.848968 1_555
K1 O20 2.883190 1_555
K1 O7 2.931681 1_655
K1 O13 3.001794 1_555
K1 O2 3.026655 1_655
K1 O16 3.052510 1_555
K1 O26 3.146077 1_565
K1 O34 3.247647 1_555
K2 O30 2.826694 1_555
K2 O8 2.848968 1_556
K2 O23 2.883190 1_555
K2 O4 2.931681 1_555
K2 O14 3.001794 1_655
K2 O1 3.026655 1_555
K2 O19 3.052510 1_555
K2 O25 3.146077 1_565
K2 O33 3.247647 1_555
K3 O31 2.826694 1_555
K3 O9 2.848968 1_555
K3 O22 2.883190 1_555
K3 O5 2.931681 1_455
K3 O15 3.001794 1_555
K3 O0 3.026655 1_455
K3 O18 3.052510 1_555
K3 O24 3.146077 1_545
K3 O32 3.247647 1_555
Ce0 O32 2.439320 1_555
Ce0 O17 2.473909 1_555
Ce0 O11 2.514259 1_555
Ce0 O20 2.520064 1_555
Ce0 O25 2.538681 1_555
Ce0 O6 2.550777 1_555
Ce0 O0 2.667418 1_555
Ce0 O15 2.712821 1_555
Ce0 O30 2.716269 1_545
Ce1 O33 2.439320 1_455
Ce1 O16 2.473909 1_456
Ce1 O10 2.514259 1_555
Ce1 O21 2.520064 1_556
Ce1 O24 2.538681 1_555
Ce1 O7 2.550777 1_556
Ce1 O1 2.667418 1_555
Ce1 O14 2.712821 1_555
Ce1 O31 2.716269 1_565
Ce2 O34 2.439320 1_555
Ce2 O19 2.473909 1_555
Ce2 O9 2.514259 1_555
Ce2 O22 2.520064 1_555
Ce2 O27 2.538681 1_555
Ce2 O4 2.550777 1_555
Ce2 O2 2.667418 1_555
Ce2 O13 2.712821 1_555
Ce2 O28 2.716269 1_565
Ce3 O35 2.439320 1_655
Ce3 O18 2.473909 1_654
Ce3 O8 2.514259 1_555
Ce3 O23 2.520064 1_554
Ce3 O26 2.538681 1_555
Ce3 O5 2.550777 1_554
Ce3 O3 2.667418 1_555
Ce3 O12 2.712821 1_555
Ce3 O29 2.716269 1_545
H0 O0 0.985060 1_555
H1 O1 0.985060 1_554
H2 O2 0.985060 1_555
H3 O3 0.985060 1_556
H4 O0 0.986853 1_455
H4 K3 2.981076 1_555
H5 O1 0.986853 1_555
H5 K2 2.981076 1_555
H6 O2 0.986853 1_655
H6 K1 2.981076 1_555
H7 O3 0.986853 1_555
H7 K0 2.981076 1_555
O4 S0 1.497698 1_555
O5 S1 1.497698 1_555
O6 S2 1.497698 1_555
O7 S3 1.497698 1_555
O8 S4 1.498591 1_555
O9 S5 1.498591 1_555
O10 S6 1.498591 1_555
O11 S7 1.498591 1_555
O12 S4 1.500407 1_555
O13 S5 1.500407 1_555
O14 S6 1.500407 1_555
O15 S7 1.500407 1_555
O16 S4 1.484333 1_555
O17 S5 1.484333 1_555
O18 S6 1.484333 1_555
O19 S7 1.484333 1_555
O20 S4 1.484714 1_555
O21 S5 1.484714 1_555
O22 S6 1.484714 1_555
O23 S7 1.484714 1_555
O24 S0 1.500237 1_555
O25 S1 1.500237 1_555
O26 S2 1.500237 1_555
O27 S3 1.500237 1_555
O28 S0 1.484452 1_545
O29 S1 1.484452 1_564
O30 S2 1.484452 1_565
O31 S3 1.484452 1_546
O32 S0 1.481556 1_545
O33 S1 1.481556 1_565
O34 S2 1.481556 1_565
O35 S3 1.481556 1_545
