# generated using pymatgen
data_SeCl4
_symmetry_space_group_name_H-M   'P 1'
_cell_length_a   9.78856228
_cell_length_b   9.78856277
_cell_length_c   14.60228419
_cell_angle_alpha   94.85107781
_cell_angle_beta   105.44325748
_cell_angle_gamma   118.46437959
_symmetry_Int_Tables_number   1
_chemical_formula_structural   SeCl4
_chemical_formula_sum   'Se8 Cl32'
_cell_volume   1148.07002006
_cell_formula_units_Z   8
loop_
 _symmetry_equiv_pos_site_id
 _symmetry_equiv_pos_as_xyz
  1  'x, y, z'
loop_
 _atom_site_type_symbol
 _atom_site_label
 _atom_site_symmetry_multiplicity
 _atom_site_fract_x
 _atom_site_fract_y
 _atom_site_fract_z
 _atom_site_occupancy
  Se  Se0  1  0.65200111  0.11164560  0.81626165  1
  Se  Se1  1  0.79538596  0.83574147  0.68373835  1
  Se  Se2  1  0.34799889  0.88835440  0.18373835  1
  Se  Se3  1  0.20461404  0.16425853  0.31626165  1
  Se  Se4  1  0.15151071  0.26807114  0.88792994  1
  Se  Se5  1  0.88014220  0.26358077  0.61207006  1
  Se  Se6  1  0.84848929  0.73192886  0.11207006  1
  Se  Se7  1  0.11985780  0.73641923  0.38792994  1
  Cl  Cl0  1  0.71525823  0.21547949  0.97185719  1
  Cl  Cl1  1  0.74362031  0.74340004  0.52814281  1
  Cl  Cl2  1  0.28474177  0.78452051  0.02814281  1
  Cl  Cl3  1  0.25637969  0.25659996  0.47185719  1
  Cl  Cl4  1  0.50976649  0.22149079  0.75545919  1
  Cl  Cl5  1  0.96603060  0.75430730  0.74454081  1
  Cl  Cl6  1  0.49023351  0.77850921  0.24454081  1
  Cl  Cl7  1  0.03396940  0.24569270  0.25545919  1
  Cl  Cl8  1  0.43509622  0.87932614  0.80730662  1
  Cl  Cl9  1  0.57201752  0.62778660  0.69269338  1
  Cl  Cl10  1  0.56490378  0.12067386  0.19269338  1
  Cl  Cl11  1  0.42798248  0.37221340  0.30730662  1
  Cl  Cl12  1  0.93500639  0.37401391  0.81142577  1
  Cl  Cl13  1  0.06258814  0.12357862  0.68857423  1
  Cl  Cl14  1  0.06499361  0.62598609  0.18857423  1
  Cl  Cl15  1  0.93741186  0.87642138  0.31142577  1
  Cl  Cl16  1  0.85987302  0.99098213  0.87070539  1
  Cl  Cl17  1  0.62027775  0.98916763  0.62929461  1
  Cl  Cl18  1  0.14012698  0.00901787  0.12929461  1
  Cl  Cl19  1  0.37972225  0.01083237  0.37070539  1
  Cl  Cl20  1  0.35833388  0.48667394  0.87504211  1
  Cl  Cl21  1  0.11163082  0.48329077  0.62495789  1
  Cl  Cl22  1  0.64166612  0.51332606  0.12495789  1
  Cl  Cl23  1  0.88836918  0.51670923  0.37504211  1
  Cl  Cl24  1  0.28977230  0.14843597  0.93142882  1
  Cl  Cl25  1  0.71700714  0.35834448  0.56857118  1
  Cl  Cl26  1  0.71022770  0.85156403  0.06857118  1
  Cl  Cl27  1  0.28299286  0.64165552  0.43142882  1
  Cl  Cl28  1  0.17641287  0.36541080  0.03555371  1
  Cl  Cl29  1  0.82985808  0.14086015  0.46444629  1
  Cl  Cl30  1  0.82358713  0.63458920  0.96444629  1
  Cl  Cl31  1  0.17014192  0.85913985  0.53555371  1
loop_
_geom_bond_atom_site_label_1
_geom_bond_atom_site_label_2
_geom_bond_distance
_geom_bond_site_symmetry_2
Cl0 Se0 2.199758 1_555
Cl1 Se1 2.199755 1_555
Cl2 Se2 2.199758 1_555
Cl3 Se3 2.199755 1_555
Cl4 Se0 2.193842 1_555
Cl5 Se1 2.193832 1_555
Cl6 Se2 2.193842 1_555
Cl7 Se3 2.193832 1_555
Cl8 Se0 2.212654 1_565
Cl9 Se1 2.212699 1_555
Cl10 Se2 2.212654 1_545
Cl11 Se3 2.212699 1_555
Cl12 Se0 2.761869 1_555
Cl12 Se4 2.800844 1_655
Cl12 Se5 2.830715 1_555
Cl13 Se1 2.761837 1_445
Cl13 Se5 2.800852 1_455
Cl13 Se4 2.830717 1_555
Cl14 Se2 2.761869 1_555
Cl14 Se6 2.800844 1_455
Cl14 Se7 2.830715 1_555
Cl15 Se3 2.761837 1_665
Cl15 Se7 2.800852 1_655
Cl15 Se6 2.830717 1_555
Cl16 Se1 2.761785 1_555
Cl16 Se4 2.773228 1_665
Cl16 Se0 2.784880 1_565
Cl17 Se0 2.761789 1_565
Cl17 Se5 2.773228 1_565
Cl17 Se1 2.784871 1_555
Cl18 Se3 2.761785 1_555
Cl18 Se6 2.773228 1_445
Cl18 Se2 2.784880 1_545
Cl19 Se2 2.761789 1_545
Cl19 Se7 2.773228 1_545
Cl19 Se3 2.784871 1_555
Cl20 Se4 2.203271 1_555
Cl21 Se5 2.203255 1_455
Cl22 Se6 2.203271 1_555
Cl23 Se7 2.203255 1_655
Cl24 Se4 2.187513 1_555
Cl25 Se5 2.187529 1_555
Cl26 Se6 2.187513 1_555
Cl27 Se7 2.187529 1_555
Cl28 Se4 2.182993 1_554
Cl29 Se5 2.182990 1_555
Cl30 Se6 2.182993 1_556
Cl31 Se7 2.182990 1_555
