# generated using pymatgen
data_CsNiF3
_symmetry_space_group_name_H-M   'P 1'
_cell_length_a   6.20089440
_cell_length_b   6.20089966
_cell_length_c   5.19003829
_cell_angle_alpha   90.00000000
_cell_angle_beta   90.00000000
_cell_angle_gamma   120.00002676
_symmetry_Int_Tables_number   1
_chemical_formula_structural   CsNiF3
_chemical_formula_sum   'Cs2 Ni2 F6'
_cell_volume   172.82641269
_cell_formula_units_Z   2
loop_
 _symmetry_equiv_pos_site_id
 _symmetry_equiv_pos_as_xyz
  1  'x, y, z'
loop_
 _atom_site_type_symbol
 _atom_site_label
 _atom_site_symmetry_multiplicity
 _atom_site_fract_x
 _atom_site_fract_y
 _atom_site_fract_z
 _atom_site_occupancy
  Cs  Cs0  1  0.33333300  0.66666700  0.75000000  1
  Cs  Cs1  1  0.66666700  0.33333300  0.25000000  1
  Ni  Ni0  1  0.00000000  0.00000000  -0.00000000  1
  Ni  Ni1  1  0.00000000  -0.00000000  0.50000000  1
  F  F0  1  0.71361730  0.85680865  0.25000000  1
  F  F1  1  0.85680765  0.71361730  0.75000000  1
  F  F2  1  0.14319235  0.28638270  0.25000000  1
  F  F3  1  0.85680765  0.14319135  0.75000000  1
  F  F4  1  0.28638270  0.14319135  0.75000000  1
  F  F5  1  0.14319235  0.85680865  0.25000000  1
loop_
_geom_bond_atom_site_label_1
_geom_bond_atom_site_label_2
_geom_bond_distance
_geom_bond_site_symmetry_2
Cs0 F1 3.110679 1_555
Cs0 F3 3.110679 1_565
Cs0 F4 3.110681 1_565
Cs0 F1 3.110685 1_455
Cs0 F3 3.110685 1_455
Cs0 F4 3.110688 1_555
Cs0 F5 3.302207 1_555
Cs0 F5 3.302207 1_556
Cs0 F0 3.302213 1_556
Cs0 F0 3.302213 1_555
Cs0 F2 3.302214 1_555
Cs0 F2 3.302214 1_556
Cs1 F2 3.110679 1_555
Cs1 F5 3.110679 1_545
Cs1 F0 3.110681 1_545
Cs1 F2 3.110685 1_655
Cs1 F5 3.110685 1_655
Cs1 F0 3.110688 1_555
Cs1 F3 3.302207 1_555
Cs1 F3 3.302207 1_554
Cs1 F4 3.302213 1_554
Cs1 F4 3.302213 1_555
Cs1 F1 3.302214 1_555
Cs1 F1 3.302214 1_554
F0 Ni0 2.012140 1_665
F0 Ni1 2.012140 1_665
F1 Ni0 2.012141 1_666
F1 Ni1 2.012141 1_665
F2 Ni0 2.012141 1_555
F2 Ni1 2.012141 1_555
F3 Ni0 2.012145 1_656
F3 Ni1 2.012145 1_655
F4 Ni0 2.012140 1_556
F4 Ni1 2.012140 1_555
F5 Ni0 2.012145 1_565
F5 Ni1 2.012145 1_565
