# generated using pymatgen
data_La3(GaNi2)2
_symmetry_space_group_name_H-M   'P 1'
_cell_length_a   4.21188912
_cell_length_b   5.53669049
_cell_length_c   8.24184933
_cell_angle_alpha   98.25846031
_cell_angle_beta   90.00000000
_cell_angle_gamma   112.35607813
_symmetry_Int_Tables_number   1
_chemical_formula_structural   La3(GaNi2)2
_chemical_formula_sum   'La3 Ga2 Ni4'
_cell_volume   175.59625036
_cell_formula_units_Z   1
loop_
 _symmetry_equiv_pos_site_id
 _symmetry_equiv_pos_as_xyz
  1  'x, y, z'
loop_
 _atom_site_type_symbol
 _atom_site_label
 _atom_site_symmetry_multiplicity
 _atom_site_fract_x
 _atom_site_fract_y
 _atom_site_fract_z
 _atom_site_occupancy
  La  La0  1  0.62322952  0.24645803  0.37990206  1
  La  La1  1  -0.00000000  -0.00000000  0.00000000  1
  La  La2  1  0.37677048  0.75354197  0.62009794  1
  Ga  Ga0  1  0.67761620  0.35523041  0.78873633  1
  Ga  Ga1  1  0.32238380  0.64476959  0.21126367  1
  Ni  Ni0  1  0.25711923  0.51423646  0.91316897  1
  Ni  Ni1  1  0.91475949  0.82951997  0.36039060  1
  Ni  Ni2  1  0.08524051  0.17048003  0.63960940  1
  Ni  Ni3  1  0.74288077  0.48576354  0.08683103  1
loop_
_geom_bond_atom_site_label_1
_geom_bond_atom_site_label_2
_geom_bond_distance
_geom_bond_site_symmetry_2
La0 Ni3 2.873207 1_555
La0 Ni1 2.985332 1_545
La0 Ni1 2.985338 1_445
La0 Ni1 3.014757 1_555
La0 Ni2 3.070283 1_655
La0 Ni2 3.070283 1_555
La0 La2 3.441176 1_545
La0 La2 3.674150 1_655
La0 La2 3.674155 1_555
La0 La1 3.821515 1_655
La0 La1 3.821518 1_555
La1 Ni3 2.833916 1_445
La1 Ni0 2.833916 1_554
La1 Ni1 3.223361 1_445
La1 Ni2 3.223361 1_554
La1 Ni3 3.252879 1_555
La1 Ni0 3.252879 1_444
La1 Ni0 3.252884 1_544
La1 Ni3 3.252884 1_455
La1 La2 3.821515 1_544
La1 La2 3.821518 1_444
La2 Ni0 2.873207 1_555
La2 Ni2 2.985332 1_565
La2 Ni2 2.985338 1_665
La2 Ni2 3.014757 1_555
La2 Ni1 3.070283 1_455
La2 Ni1 3.070283 1_555
Ga0 Ni0 2.426996 1_555
Ga0 Ni0 2.426996 1_655
Ga0 Ni3 2.443928 1_556
Ga0 Ni2 2.545470 1_655
Ga0 Ni2 2.545474 1_555
Ga0 La2 3.177108 1_545
Ga0 La0 3.328832 1_555
Ga0 La2 3.377452 1_655
Ga0 La2 3.377459 1_555
Ga1 Ni3 2.426996 1_555
Ga1 Ni3 2.426996 1_455
Ga1 Ni0 2.443928 1_554
Ga1 Ni1 2.545470 1_455
Ga1 Ni1 2.545474 1_555
Ga1 La0 3.177108 1_565
Ga1 La2 3.328832 1_555
Ga1 La0 3.377452 1_455
Ga1 La0 3.377459 1_555
Ni0 Ni3 2.563134 1_556
Ni0 Ni3 2.563148 1_456
Ni0 Ni2 2.636095 1_555
Ni1 Ni3 2.636095 1_555
Ni1 Ni2 2.663836 1_665
