# generated using pymatgen
data_Yb3CoSn6
_symmetry_space_group_name_H-M   'P 1'
_cell_length_a   8.34828725
_cell_length_b   8.34828725
_cell_length_c   13.27333700
_cell_angle_alpha   90.00000000
_cell_angle_beta   90.00000000
_cell_angle_gamma   147.07138218
_symmetry_Int_Tables_number   1
_chemical_formula_structural   Yb3CoSn6
_chemical_formula_sum   'Yb6 Co2 Sn12'
_cell_volume   502.86260951
_cell_formula_units_Z   2
loop_
 _symmetry_equiv_pos_site_id
 _symmetry_equiv_pos_as_xyz
  1  'x, y, z'
loop_
 _atom_site_type_symbol
 _atom_site_label
 _atom_site_symmetry_multiplicity
 _atom_site_fract_x
 _atom_site_fract_y
 _atom_site_fract_z
 _atom_site_occupancy
  Yb  Yb0  1  0.90181300  0.09818700  0.09767400  1
  Yb  Yb1  1  0.09818700  0.90181300  0.59767400  1
  Yb  Yb2  1  0.90191700  0.09808300  0.75000000  1
  Yb  Yb3  1  0.09818700  0.90181300  0.90232600  1
  Yb  Yb4  1  0.09808300  0.90191700  0.25000000  1
  Yb  Yb5  1  0.90181300  0.09818700  0.40232600  1
  Co  Co0  1  0.29488700  0.70511300  0.25000000  1
  Co  Co1  1  0.70511300  0.29488700  0.75000000  1
  Sn  Sn0  1  0.75520700  0.24479300  0.57065400  1
  Sn  Sn1  1  0.42667900  0.57332100  0.57685900  1
  Sn  Sn2  1  0.57332100  0.42667900  0.42314100  1
  Sn  Sn3  1  0.73132800  0.26867200  0.25000000  1
  Sn  Sn4  1  0.26867200  0.73132800  0.75000000  1
  Sn  Sn5  1  0.24479300  0.75520700  0.07065400  1
  Sn  Sn6  1  0.24479300  0.75520700  0.42934600  1
  Sn  Sn7  1  0.57332100  0.42667900  0.07685900  1
  Sn  Sn8  1  0.45374400  0.54625600  0.25000000  1
  Sn  Sn9  1  0.54625600  0.45374400  0.75000000  1
  Sn  Sn10  1  0.75520700  0.24479300  0.92934600  1
  Sn  Sn11  1  0.42667900  0.57332100  0.92314100  1
loop_
_geom_bond_atom_site_label_1
_geom_bond_atom_site_label_2
_geom_bond_distance
_geom_bond_site_symmetry_2
Co0 Sn5 2.512020 1_555
Co0 Sn6 2.512020 1_555
Co0 Sn8 2.543611 1_555
Co0 Sn3 2.575643 1_565
Co0 Sn3 2.575643 1_455
Co0 Yb4 3.151217 1_555
Co0 Yb5 3.552106 1_565
Co0 Yb5 3.552106 1_455
Co0 Yb0 3.552106 1_565
Co0 Yb0 3.552106 1_455
Co1 Sn0 2.512020 1_555
Co1 Sn10 2.512020 1_555
Co1 Sn9 2.543611 1_555
Co1 Sn4 2.575643 1_545
Co1 Sn4 2.575643 1_655
Co1 Yb2 3.151217 1_555
Co1 Yb3 3.552106 1_545
Co1 Yb3 3.552106 1_655
Co1 Yb1 3.552106 1_545
Co1 Yb1 3.552106 1_655
Sn0 Sn6 3.023905 1_655
Sn0 Sn6 3.023905 1_545
Sn0 Yb5 3.240756 1_555
Sn0 Yb2 3.344430 1_555
Sn0 Yb1 3.471027 1_655
Sn0 Yb1 3.471027 1_545
Sn1 Sn9 2.991231 1_555
Sn1 Yb2 3.322191 1_455
Sn1 Yb2 3.322191 1_565
Sn1 Yb5 3.335197 1_565
Sn1 Yb5 3.335197 1_455
Sn1 Yb1 3.635388 1_545
Sn1 Yb1 3.635388 1_655
Sn2 Sn8 2.991231 1_555
Sn2 Yb4 3.322191 1_545
Sn2 Yb4 3.322191 1_655
Sn2 Yb1 3.335197 1_545
Sn2 Yb1 3.335197 1_655
Sn2 Yb5 3.635388 1_455
Sn2 Yb5 3.635388 1_565
Sn3 Yb4 3.185921 1_545
Sn3 Yb4 3.185921 1_655
Sn3 Yb0 3.397024 1_555
Sn3 Yb5 3.397024 1_555
Sn4 Yb2 3.185921 1_455
Sn4 Yb2 3.185921 1_565
Sn4 Yb1 3.397024 1_555
Sn4 Yb3 3.397024 1_555
Sn5 Yb3 3.240756 1_554
Sn5 Yb4 3.344430 1_555
Sn5 Yb0 3.471027 1_455
Sn5 Yb0 3.471027 1_565
Sn6 Yb1 3.240756 1_555
Sn6 Yb4 3.344430 1_555
Sn6 Yb5 3.471027 1_455
Sn6 Yb5 3.471027 1_565
Sn7 Sn8 2.991231 1_555
Sn7 Yb4 3.322191 1_545
Sn7 Yb4 3.322191 1_655
Sn7 Yb3 3.335197 1_654
Sn7 Yb3 3.335197 1_544
Sn7 Yb0 3.635388 1_565
Sn7 Yb0 3.635388 1_455
Sn8 Yb0 3.221430 1_455
Sn8 Yb5 3.221430 1_455
Sn8 Yb0 3.221430 1_565
Sn8 Yb5 3.221430 1_565
Sn8 Yb4 3.307511 1_655
Sn8 Yb4 3.307511 1_545
Sn9 Yb3 3.221430 1_545
Sn9 Yb3 3.221430 1_655
Sn9 Yb1 3.221430 1_545
Sn9 Yb1 3.221430 1_655
Sn9 Yb2 3.307511 1_455
Sn9 Yb2 3.307511 1_565
Sn10 Sn5 3.023905 1_656
Sn10 Sn5 3.023905 1_546
Sn10 Yb0 3.240756 1_556
Sn10 Yb2 3.344430 1_555
Sn10 Yb3 3.471027 1_655
Sn10 Yb3 3.471027 1_545
Sn11 Sn9 2.991231 1_555
Sn11 Yb2 3.322191 1_455
Sn11 Yb2 3.322191 1_565
Sn11 Yb0 3.335197 1_566
Sn11 Yb0 3.335197 1_456
Sn11 Yb3 3.635388 1_655
Sn11 Yb3 3.635388 1_545
