# generated using pymatgen
data_CuAsPbO4
_symmetry_space_group_name_H-M   'P 1'
_cell_length_a   4.94053800
_cell_length_b   5.93944518
_cell_length_c   8.11102464
_cell_angle_alpha   78.38046384
_cell_angle_beta   75.35588946
_cell_angle_gamma   84.33663671
_symmetry_Int_Tables_number   1
_chemical_formula_structural   CuAsPbO4
_chemical_formula_sum   'Cu2 As2 Pb2 O8'
_cell_volume   225.27269511
_cell_formula_units_Z   2
loop_
 _symmetry_equiv_pos_site_id
 _symmetry_equiv_pos_as_xyz
  1  'x, y, z'
loop_
 _atom_site_type_symbol
 _atom_site_label
 _atom_site_symmetry_multiplicity
 _atom_site_fract_x
 _atom_site_fract_y
 _atom_site_fract_z
 _atom_site_occupancy
  Cu  Cu0  1  0.37324800  0.80845600  0.99439600  1
  Cu  Cu1  1  0.62675200  0.19154400  0.00560400  1
  As  As0  1  0.57644800  0.79912400  0.31245900  1
  As  As1  1  0.42355200  0.20087600  0.68754100  1
  Pb  Pb0  1  0.06324900  0.28966100  0.32321300  1
  Pb  Pb1  1  0.93675100  0.71033900  0.67678700  1
  O  O0  1  0.76885300  0.03316800  0.18943400  1
  O  O1  1  0.23114700  0.96683200  0.81056600  1
  O  O2  1  0.22459700  0.37432700  0.56231400  1
  O  O3  1  0.49353000  0.36928600  0.82387000  1
  O  O4  1  0.72904700  0.09284500  0.56524600  1
  O  O5  1  0.27095300  0.90715500  0.43475400  1
  O  O6  1  0.77540300  0.62567300  0.43768600  1
  O  O7  1  0.50647000  0.63071400  0.17613000  1
loop_
_geom_bond_atom_site_label_1
_geom_bond_atom_site_label_2
_geom_bond_distance
_geom_bond_site_symmetry_2
Cu0 O1 1.853354 1_555
Cu0 O7 1.856633 1_556
Cu1 O0 1.853354 1_555
Cu1 O3 1.856633 1_554
As0 O6 1.715409 1_555
As0 O5 1.726822 1_555
As0 O7 1.746389 1_555
As0 O0 1.747601 1_565
As1 O2 1.715409 1_555
As1 O4 1.726822 1_555
As1 O3 1.746389 1_555
As1 O1 1.747601 1_545
O0 Pb0 2.741339 1_655
O1 Pb1 2.741339 1_455
O2 Pb0 2.429621 1_555
O2 Pb1 2.527066 1_455
O4 Pb0 2.400883 1_655
O4 Pb1 2.492843 1_545
O5 Pb1 2.400883 1_455
O5 Pb0 2.492843 1_565
O6 Pb1 2.429621 1_555
O6 Pb0 2.527066 1_655
