# generated using pymatgen
data_Sm3BWO9
_symmetry_space_group_name_H-M   'P 1'
_cell_length_a   8.70907372
_cell_length_b   8.70907372
_cell_length_c   5.52149100
_cell_angle_alpha   90.00000000
_cell_angle_beta   90.00000000
_cell_angle_gamma   119.99999785
_symmetry_Int_Tables_number   1
_chemical_formula_structural   Sm3BWO9
_chemical_formula_sum   'Sm6 B2 W2 O18'
_cell_volume   362.68612621
_cell_formula_units_Z   2
loop_
 _symmetry_equiv_pos_site_id
 _symmetry_equiv_pos_as_xyz
  1  'x, y, z'
loop_
 _atom_site_type_symbol
 _atom_site_label
 _atom_site_symmetry_multiplicity
 _atom_site_fract_x
 _atom_site_fract_y
 _atom_site_fract_z
 _atom_site_occupancy
  Sm  Sm0  1  0.64391500  0.91960800  0.70480900  1
  Sm  Sm1  1  0.91960800  0.27569200  0.20480900  1
  Sm  Sm2  1  0.08039200  0.72430800  0.70480900  1
  Sm  Sm3  1  0.72430800  0.64391500  0.20480900  1
  Sm  Sm4  1  0.35608500  0.08039200  0.20480900  1
  Sm  Sm5  1  0.27569200  0.35608500  0.70480900  1
  B  B0  1  0.00000000  0.00000000  0.37060400  1
  B  B1  1  0.00000000  0.00000000  0.87060400  1
  W  W0  1  0.66666700  0.33333300  0.74841900  1
  W  W1  1  0.33333300  0.66666700  0.24841900  1
  O  O0  1  0.51823000  0.38471300  0.97527800  1
  O  O1  1  0.86648400  0.48177000  0.97527800  1
  O  O2  1  0.53519900  0.73906000  0.04303700  1
  O  O3  1  0.38471300  0.86648400  0.47527800  1
  O  O4  1  0.17758900  0.05020500  0.86200100  1
  O  O5  1  0.94979500  0.12738300  0.86200100  1
  O  O6  1  0.12738300  0.17758900  0.36200100  1
  O  O7  1  0.82241100  0.94979500  0.36200100  1
  O  O8  1  0.46480100  0.26094000  0.54303700  1
  O  O9  1  0.20386100  0.46480100  0.04303700  1
  O  O10  1  0.05020500  0.87261700  0.36200100  1
  O  O11  1  0.87261700  0.82241100  0.86200100  1
  O  O12  1  0.26094000  0.79613900  0.04303700  1
  O  O13  1  0.79613900  0.53519900  0.54303700  1
  O  O14  1  0.13351600  0.51823000  0.47527800  1
  O  O15  1  0.48177000  0.61528700  0.47527800  1
  O  O16  1  0.61528700  0.13351600  0.97527800  1
  O  O17  1  0.73906000  0.20386100  0.54303700  1
loop_
_geom_bond_atom_site_label_1
_geom_bond_atom_site_label_2
_geom_bond_distance
_geom_bond_site_symmetry_2
B0 O10 1.381754 1_545
B0 O6 1.381760 1_555
B0 O7 1.381762 1_445
B1 O5 1.381754 1_455
B1 O11 1.381760 1_445
B1 O4 1.381762 1_555
O0 W0 2.004721 1_555
O0 Sm3 2.423164 1_556
O0 Sm5 2.495491 1_555
O0 Sm4 2.623362 1_556
O1 W0 2.004721 1_555
O1 Sm1 2.423164 1_556
O1 Sm2 2.495485 1_655
O1 Sm3 2.623362 1_556
O2 W1 1.914645 1_555
O2 Sm0 2.316848 1_554
O2 Sm3 2.358320 1_555
O3 W1 2.004721 1_555
O3 Sm0 2.423164 1_555
O3 Sm4 2.495477 1_565
O3 Sm2 2.623362 1_555
O4 Sm4 2.379021 1_556
O4 Sm5 2.510735 1_555
O4 Sm2 2.668898 1_545
O5 Sm1 2.379021 1_556
O5 Sm0 2.510732 1_545
O5 Sm5 2.668901 1_655
O6 Sm5 2.379021 1_555
O6 Sm1 2.510719 1_455
O6 Sm4 2.668913 1_555
O7 Sm0 2.379021 1_555
O7 Sm3 2.510735 1_555
O7 Sm1 2.668898 1_565
O8 W0 1.914645 1_555
O8 Sm4 2.316848 1_555
O8 Sm5 2.358320 1_555
O9 W1 1.914644 1_555
O9 Sm5 2.316844 1_554
O9 Sm1 2.358314 1_455
O10 Sm2 2.379021 1_555
O10 Sm4 2.510732 1_565
O10 Sm3 2.668901 1_455
O11 Sm3 2.379021 1_556
O11 Sm2 2.510719 1_655
O11 Sm0 2.668913 1_555
O12 W1 1.914639 1_555
O12 Sm2 2.316848 1_554
O12 Sm4 2.358312 1_565
O13 W0 1.914644 1_555
O13 Sm3 2.316844 1_555
O13 Sm2 2.358314 1_655
O14 W1 2.004721 1_555
O14 Sm2 2.423164 1_555
O14 Sm1 2.495485 1_455
O14 Sm5 2.623362 1_555
O15 W1 2.004721 1_555
O15 Sm5 2.423164 1_555
O15 Sm3 2.495491 1_555
O15 Sm0 2.623362 1_555
O16 W0 2.004721 1_555
O16 Sm4 2.423164 1_556
O16 Sm0 2.495477 1_545
O16 Sm1 2.623362 1_556
O17 W0 1.914639 1_555
O17 Sm1 2.316848 1_555
O17 Sm0 2.358312 1_545
