# generated using pymatgen
data_RbV2CrO7
_symmetry_space_group_name_H-M   'P 1'
_cell_length_a   4.95567100
_cell_length_b   6.98556965
_cell_length_c   8.67038623
_cell_angle_alpha   101.24543251
_cell_angle_beta   90.00000000
_cell_angle_gamma   90.00000000
_symmetry_Int_Tables_number   1
_chemical_formula_structural   RbV2CrO7
_chemical_formula_sum   'Rb2 V4 Cr2 O14'
_cell_volume   294.39034482
_cell_formula_units_Z   2
loop_
 _symmetry_equiv_pos_site_id
 _symmetry_equiv_pos_as_xyz
  1  'x, y, z'
loop_
 _atom_site_type_symbol
 _atom_site_label
 _atom_site_symmetry_multiplicity
 _atom_site_fract_x
 _atom_site_fract_y
 _atom_site_fract_z
 _atom_site_occupancy
  Rb  Rb0  1  0.61044700  0.75000000  0.50000000  1
  Rb  Rb1  1  0.38955300  0.25000000  0.50000000  1
  V  V0  1  0.00338700  0.12496600  0.83321000  1
  V  V1  1  0.99661300  0.87503400  0.16679000  1
  V  V2  1  0.99661300  0.62496600  0.83321000  1
  V  V3  1  0.00338700  0.37503400  0.16679000  1
  Cr  Cr0  1  0.50000000  0.50000000  0.00000000  1
  Cr  Cr1  1  0.50000000  0.00000000  0.00000000  1
  O  O0  1  0.71655800  0.25000000  0.00000000  1
  O  O1  1  0.28344200  0.75000000  0.00000000  1
  O  O2  1  0.67823300  0.97840600  0.20100900  1
  O  O3  1  0.67823300  0.52159400  0.79899100  1
  O  O4  1  0.32176700  0.02159400  0.79899100  1
  O  O5  1  0.32176700  0.47840600  0.20100900  1
  O  O6  1  0.84172100  0.61139600  0.11069800  1
  O  O7  1  0.15827900  0.11139600  0.11069800  1
  O  O8  1  0.84172100  0.88860400  0.88930200  1
  O  O9  1  0.15827900  0.38860400  0.88930200  1
  O  O10  1  0.87680700  0.37977300  0.34270200  1
  O  O11  1  0.12319300  0.62022700  0.65729800  1
  O  O12  1  0.87680700  0.12022700  0.65729800  1
  O  O13  1  0.12319300  0.87977300  0.34270200  1
loop_
_geom_bond_atom_site_label_1
_geom_bond_atom_site_label_2
_geom_bond_distance
_geom_bond_site_symmetry_2
Cr0 O3 1.985671 1_554
Cr0 O5 1.985671 1_555
Cr0 O9 2.025646 1_554
Cr0 O6 2.025646 1_555
Cr0 O0 2.049786 1_555
Cr0 O1 2.049786 1_555
Cr1 O2 1.985671 1_545
Cr1 O4 1.985671 1_554
Cr1 O7 2.025646 1_555
Cr1 O8 2.025646 1_544
Cr1 O1 2.049786 1_545
Cr1 O0 2.049786 1_555
O0 V0 2.093326 1_654
O0 V3 2.093326 1_655
O1 V2 2.093326 1_454
O1 V1 2.093326 1_455
O2 V1 1.736468 1_555
O2 Rb1 3.232373 1_565
O2 Rb0 3.315451 1_555
O3 V2 1.736468 1_555
O3 Rb1 3.232373 1_555
O3 Rb0 3.315451 1_555
O4 V0 1.736468 1_555
O4 Rb0 3.232373 1_545
O4 Rb1 3.315451 1_555
O5 V3 1.736468 1_555
O5 Rb0 3.232373 1_555
O5 Rb1 3.315451 1_555
O6 V1 1.966751 1_555
O6 V3 1.979340 1_655
O7 V3 1.966751 1_555
O7 V1 1.979340 1_445
O8 V2 1.966751 1_555
O8 V0 1.979340 1_665
O9 V0 1.966751 1_555
O9 V2 1.979340 1_455
O10 V3 1.643534 1_655
O10 Rb0 2.985866 1_555
O10 Rb1 2.999117 1_555
O10 Rb1 3.101734 1_655
O11 V2 1.643534 1_455
O11 Rb1 2.985866 1_555
O11 Rb0 2.999117 1_555
O11 Rb0 3.101734 1_455
O12 V0 1.643534 1_655
O12 Rb0 2.985866 1_545
O12 Rb1 2.999117 1_555
O12 Rb1 3.101734 1_655
O13 V1 1.643534 1_455
O13 Rb1 2.985866 1_565
O13 Rb0 2.999117 1_555
O13 Rb0 3.101734 1_455
