# generated using pymatgen
data_Ag2H12C6N3Cl
_symmetry_space_group_name_H-M   'P 1'
_cell_length_a   9.04354100
_cell_length_b   9.05157700
_cell_length_c   13.67222500
_cell_angle_alpha   90.00000000
_cell_angle_beta   90.00000000
_cell_angle_gamma   90.00000000
_symmetry_Int_Tables_number   1
_chemical_formula_structural   Ag2H12C6N3Cl
_chemical_formula_sum   'Ag8 H48 C24 N12 Cl4'
_cell_volume   1119.18520119
_cell_formula_units_Z   4
loop_
 _symmetry_equiv_pos_site_id
 _symmetry_equiv_pos_as_xyz
  1  'x, y, z'
loop_
 _atom_site_type_symbol
 _atom_site_label
 _atom_site_symmetry_multiplicity
 _atom_site_fract_x
 _atom_site_fract_y
 _atom_site_fract_z
 _atom_site_occupancy
  Ag  Ag0  1  0.05337800  0.86120600  0.63952000  1
  Ag  Ag1  1  0.42812000  0.41128800  0.24488800  1
  Ag  Ag2  1  0.07188000  0.91128800  0.24488800  1
  Ag  Ag3  1  0.92812000  0.08871200  0.74488800  1
  Ag  Ag4  1  0.94662200  0.13879400  0.13952000  1
  Ag  Ag5  1  0.44662200  0.36120600  0.63952000  1
  Ag  Ag6  1  0.55337800  0.63879400  0.13952000  1
  Ag  Ag7  1  0.57188000  0.58871200  0.74488800  1
  H  H0  1  0.98781200  0.23963600  0.39059800  1
  H  H1  1  0.92909600  0.46875600  0.60746500  1
  H  H2  1  0.01218800  0.76036400  0.89059800  1
  H  H3  1  0.63684100  0.89714100  0.95865000  1
  H  H4  1  0.59676100  0.13809700  0.54019500  1
  H  H5  1  0.76411600  0.49503500  0.53621200  1
  H  H6  1  0.48781200  0.26036400  0.89059800  1
  H  H7  1  0.16488500  0.43401600  0.52604800  1
  H  H8  1  0.68744200  0.76979400  0.44984200  1
  H  H9  1  0.09676100  0.36190300  0.04019500  1
  H  H10  1  0.04910300  0.53276700  0.79951400  1
  H  H11  1  0.58315200  0.13736700  0.36369700  1
  H  H12  1  0.86315900  0.39714100  0.95865000  1
  H  H13  1  0.77678200  0.49500200  0.35980000  1
  H  H14  1  0.97742400  0.24129900  0.52137700  1
  H  H15  1  0.45089700  0.03276700  0.79951400  1
  H  H16  1  0.73588400  0.99503500  0.53621200  1
  H  H17  1  0.23588400  0.50496500  0.03621200  1
  H  H18  1  0.42909600  0.03124400  0.10746500  1
  H  H19  1  0.67419200  0.06737000  0.89521400  1
  H  H20  1  0.90323900  0.63809700  0.54019500  1
  H  H21  1  0.95089700  0.46723300  0.29951400  1
  H  H22  1  0.32580800  0.93263000  0.39521400  1
  H  H23  1  0.08315200  0.36263300  0.86369700  1
  H  H24  1  0.40323900  0.86190300  0.04019500  1
  H  H25  1  0.22321800  0.50499800  0.85980000  1
  H  H26  1  0.26411600  0.00496500  0.03621200  1
  H  H27  1  0.33511500  0.93401600  0.52604800  1
  H  H28  1  0.02257600  0.75870100  0.02137700  1
  H  H29  1  0.41684800  0.86263300  0.86369700  1
  H  H30  1  0.66488500  0.06598400  0.02604800  1
  H  H31  1  0.36315900  0.10285900  0.45865000  1
  H  H32  1  0.82580800  0.56737000  0.89521400  1
  H  H33  1  0.07090400  0.53124400  0.10746500  1
  H  H34  1  0.31255800  0.23020600  0.94984200  1
  H  H35  1  0.91684800  0.63736700  0.36369700  1
  H  H36  1  0.27678200  0.00499800  0.85980000  1
  H  H37  1  0.13684100  0.60285900  0.45865000  1
  H  H38  1  0.83511500  0.56598400  0.02604800  1
  H  H39  1  0.17419200  0.43263000  0.39521400  1
  H  H40  1  0.72321800  0.99500200  0.35980000  1
  H  H41  1  0.51218800  0.73963600  0.39059800  1
  H  H42  1  0.52257600  0.74129900  0.52137700  1
  H  H43  1  0.57090400  0.96875600  0.60746500  1
  H  H44  1  0.54910300  0.96723300  0.29951400  1
  H  H45  1  0.81255800  0.26979400  0.44984200  1
  H  H46  1  0.18744200  0.73020600  0.94984200  1
  H  H47  1  0.47742400  0.25870100  0.02137700  1
  C  C0  1  0.06792600  0.71182100  0.95393600  1
  C  C1  1  0.38280100  0.98130400  0.04125900  1
  C  C2  1  0.39564600  0.98179000  0.86226600  1
  C  C3  1  0.12086100  0.48286100  0.45888100  1
  C  C4  1  0.34223100  0.63971600  0.23278500  1
  C  C5  1  0.60435400  0.01821000  0.36226600  1
  C  C6  1  0.43207400  0.21182100  0.95393600  1
  C  C7  1  0.61719900  0.01869600  0.54125900  1
  C  C8  1  0.87043500  0.81229900  0.19514300  1
  C  C9  1  0.93207400  0.28817900  0.45393600  1
  C  C10  1  0.88280100  0.51869600  0.54125900  1
  C  C11  1  0.84223100  0.86028400  0.73278500  1
  C  C12  1  0.87913900  0.51713900  0.95888100  1
  C  C13  1  0.62956500  0.31229900  0.19514300  1
  C  C14  1  0.10435400  0.48179000  0.86226600  1
  C  C15  1  0.37043500  0.68770100  0.69514300  1
  C  C16  1  0.62086100  0.01713900  0.95888100  1
  C  C17  1  0.12956500  0.18770100  0.69514300  1
  C  C18  1  0.56792600  0.78817900  0.45393600  1
  C  C19  1  0.11719900  0.48130400  0.04125900  1
  C  C20  1  0.37913900  0.98286100  0.45888100  1
  C  C21  1  0.65776900  0.36028400  0.73278500  1
  C  C22  1  0.15776900  0.13971600  0.23278500  1
  C  C23  1  0.89564600  0.51821000  0.36226600  1
  N  N0  1  0.23816600  0.24034600  0.24626500  1
  N  N1  1  0.25803900  0.74183100  0.67118500  1
  N  N2  1  0.76183400  0.75965400  0.74626500  1
  N  N3  1  0.45799200  0.04812900  0.95405000  1
  N  N4  1  0.73816600  0.25965400  0.74626500  1
  N  N5  1  0.75803900  0.75816900  0.17118500  1
  N  N6  1  0.04200800  0.54812900  0.95405000  1
  N  N7  1  0.54200800  0.95187100  0.45405000  1
  N  N8  1  0.26183400  0.74034600  0.24626500  1
  N  N9  1  0.74196100  0.25816900  0.17118500  1
  N  N10  1  0.95799200  0.45187100  0.45405000  1
  N  N11  1  0.24196100  0.24183100  0.67118500  1
  Cl  Cl0  1  0.50384900  0.39853100  0.45643800  1
  Cl  Cl1  1  0.00384900  0.10146900  0.95643800  1
  Cl  Cl2  1  0.99615100  0.89853100  0.45643800  1
  Cl  Cl3  1  0.49615100  0.60146900  0.95643800  1
loop_
_geom_bond_atom_site_label_1
_geom_bond_atom_site_label_2
_geom_bond_distance
_geom_bond_site_symmetry_2
Ag0 N1 2.186472 1_555
Ag0 C11 2.296150 1_455
Ag0 Cl2 2.578311 1_455
Ag1 C13 2.141090 1_555
Ag1 C4 2.214908 1_555
Ag1 N0 2.312035 1_555
Ag1 Cl0 2.974577 1_555
Ag2 C8 2.141090 1_455
Ag2 C22 2.214908 1_565
Ag2 N8 2.312035 1_555
Ag2 Cl2 2.974577 1_455
Ag3 C17 2.141090 1_655
Ag3 C11 2.214908 1_545
Ag3 N4 2.312035 1_555
Ag3 Cl1 2.974577 1_655
Ag4 N9 2.186472 1_555
Ag4 C22 2.296150 1_655
Ag4 Cl1 2.578311 1_654
Ag5 N11 2.186472 1_555
Ag5 C21 2.296150 1_555
Ag5 Cl0 2.578311 1_555
Ag6 N5 2.186472 1_555
Ag6 C4 2.296150 1_555
Ag6 Cl3 2.578311 1_554
Ag7 C15 2.141090 1_555
Ag7 C21 2.214908 1_555
Ag7 N2 2.312035 1_555
Ag7 Cl3 2.974577 1_555
C0 H2 1.094101 1_555
C0 H28 1.094749 1_556
C0 H46 1.095015 1_555
C0 N6 1.500097 1_555
C1 H18 1.094979 1_565
C1 H24 1.096555 1_555
C1 H26 1.096665 1_565
C1 N3 1.499979 1_564
C2 H15 1.094838 1_565
C2 H29 1.095644 1_555
C2 H36 1.095804 1_565
C2 N3 1.501074 1_565
C3 H39 1.094101 1_555
C3 H7 1.094212 1_555
C3 H37 1.095747 1_555
C3 N10 1.500839 1_455
C4 N8 1.179945 1_555
C5 H44 1.094838 1_545
C5 H11 1.095644 1_555
C5 H40 1.095804 1_545
C5 N7 1.501074 1_545
C6 H6 1.094101 1_555
C6 H47 1.094749 1_556
C6 H34 1.095015 1_555
C6 N3 1.500097 1_555
C7 H43 1.094979 1_545
C7 H4 1.096555 1_555
C7 H16 1.096665 1_545
C7 N7 1.499979 1_545
C8 N5 1.174966 1_555
C9 H0 1.094101 1_555
C9 H14 1.094749 1_555
C9 H45 1.095015 1_555
C9 N10 1.500097 1_555
C10 H1 1.094979 1_555
C10 H20 1.096555 1_555
C10 H5 1.096665 1_555
C10 N10 1.499979 1_555
C11 N2 1.179945 1_555
C12 H32 1.094101 1_555
C12 H38 1.094212 1_556
C12 H12 1.095747 1_555
C12 N6 1.500839 1_655
C13 N9 1.174966 1_555
C14 H10 1.094838 1_555
C14 H23 1.095644 1_555
C14 H25 1.095804 1_555
C14 N6 1.501074 1_555
C15 N1 1.174966 1_555
C16 H19 1.094101 1_555
C16 H30 1.094212 1_556
C16 H3 1.095747 1_545
C16 N3 1.500839 1_555
C17 N11 1.174966 1_555
C18 H41 1.094101 1_555
C18 H42 1.094749 1_555
C18 H8 1.095015 1_555
C18 N7 1.500097 1_555
C19 H33 1.094979 1_555
C19 H9 1.096555 1_555
C19 H17 1.096665 1_555
C19 N6 1.499979 1_554
C20 H22 1.094101 1_555
C20 H27 1.094212 1_555
C20 H31 1.095747 1_565
C20 N7 1.500839 1_555
C21 N4 1.179945 1_555
C22 N0 1.179945 1_555
C23 H21 1.094838 1_555
C23 H35 1.095644 1_555
C23 H13 1.095804 1_555
C23 N10 1.501074 1_555
