# generated using pymatgen
data_LiCo(PO3)3
_symmetry_space_group_name_H-M   'P 1'
_cell_length_a   6.54121666
_cell_length_b   7.34373378
_cell_length_c   6.87567889
_cell_angle_alpha   102.14885361
_cell_angle_beta   89.41303951
_cell_angle_gamma   87.34951028
_symmetry_Int_Tables_number   1
_chemical_formula_structural   LiCo(PO3)3
_chemical_formula_sum   'Li2 Co2 P6 O18'
_cell_volume   322.47670343
_cell_formula_units_Z   2
loop_
 _symmetry_equiv_pos_site_id
 _symmetry_equiv_pos_as_xyz
  1  'x, y, z'
loop_
 _atom_site_type_symbol
 _atom_site_label
 _atom_site_symmetry_multiplicity
 _atom_site_fract_x
 _atom_site_fract_y
 _atom_site_fract_z
 _atom_site_occupancy
  Li  Li0  1  0.14405600  0.16938800  0.42212200  1
  Li  Li1  1  0.85509300  0.83001900  0.57876300  1
  Co  Co0  1  0.84944500  0.85809900  0.08853300  1
  Co  Co1  1  0.15217900  0.14003200  0.91059900  1
  P  P0  1  0.13987600  0.55224400  0.77910700  1
  P  P1  1  0.86063200  0.44783800  0.22136700  1
  P  P2  1  0.65169000  0.20169800  0.44478400  1
  P  P3  1  0.34737100  0.79910500  0.55483800  1
  P  P4  1  0.66075100  0.21510800  0.88733100  1
  P  P5  1  0.33993500  0.78467200  0.11268900  1
  O  O0  1  0.55054100  0.82188500  0.05611300  1
  O  O1  1  0.44990700  0.17757600  0.94383500  1
  O  O2  1  0.43789200  0.16075800  0.39169300  1
  O  O3  1  0.56069200  0.84110600  0.60908200  1
  O  O4  1  0.94943900  0.68076900  0.80942100  1
  O  O5  1  0.05076300  0.31941800  0.19090800  1
  O  O6  1  0.67352200  0.27616400  0.68045300  1
  O  O7  1  0.32725200  0.72323800  0.31940500  1
  O  O8  1  0.88307900  0.65569200  0.27683300  1
  O  O9  1  0.11746700  0.34443500  0.72345400  1
  O  O10  1  0.16731300  0.93049000  0.10218600  1
  O  O11  1  0.83292400  0.06892100  0.89825200  1
  O  O12  1  0.17368300  0.94456200  0.62517500  1
  O  O13  1  0.82456100  0.05599600  0.37251600  1
  O  O14  1  0.71188300  0.39652500  0.38661500  1
  O  O15  1  0.28769100  0.60446900  0.61381400  1
  O  O16  1  0.72441900  0.41014600  0.02430800  1
  O  O17  1  0.27594400  0.58964600  0.97580500  1
loop_
_geom_bond_atom_site_label_1
_geom_bond_atom_site_label_2
_geom_bond_distance
_geom_bond_site_symmetry_2
Li0 O2 1.927942 1_555
Li0 O5 2.192845 1_555
Li0 O9 2.196880 1_555
Li0 O13 2.287661 1_455
Li0 O12 2.378846 1_545
Li0 O10 2.506822 1_545
Li1 O3 1.930982 1_555
Li1 O4 2.187807 1_555
Li1 O8 2.198642 1_555
Li1 O12 2.283657 1_655
Li1 O13 2.402193 1_565
Li1 O11 2.504468 1_565
Co0 O0 1.993809 1_555
Co0 O4 2.156432 1_554
Co0 O10 2.167928 1_655
Co0 O8 2.172483 1_555
Co0 O13 2.174478 1_565
Co0 O11 2.227180 1_564
Co1 O1 1.988283 1_555
Co1 O5 2.171262 1_556
Co1 O12 2.172940 1_545
Co1 O11 2.174125 1_455
Co1 O9 2.178984 1_555
Co1 O10 2.225940 1_546
O0 P5 1.480683 1_555
O1 P4 1.482660 1_555
O2 P2 1.477361 1_555
O3 P3 1.477623 1_555
O4 P0 1.513004 1_655
O5 P1 1.510986 1_455
O6 P4 1.581391 1_555
O6 P2 1.607509 1_555
O7 P5 1.581612 1_555
O7 P3 1.606132 1_555
O8 P1 1.507922 1_555
O9 P0 1.507620 1_555
O10 P5 1.532749 1_555
O11 P4 1.533095 1_555
O12 P3 1.524724 1_555
O13 P2 1.524229 1_555
O14 P1 1.603475 1_555
O14 P2 1.628431 1_555
O15 P0 1.602763 1_555
O15 P3 1.628559 1_555
O16 P1 1.611204 1_555
O16 P4 1.614737 1_554
O17 P0 1.608610 1_555
O17 P5 1.615059 1_556
