# generated using pymatgen
data_Dy2TiO5
_symmetry_space_group_name_H-M   'P 1'
_cell_length_a   7.25505300
_cell_length_b   7.49984704
_cell_length_c   17.73038783
_cell_angle_alpha   91.74202209
_cell_angle_beta   89.79641496
_cell_angle_gamma   118.85743339
_symmetry_Int_Tables_number   1
_chemical_formula_structural   Dy2TiO5
_chemical_formula_sum   'Dy16 Ti8 O40'
_cell_volume   844.48501242
_cell_formula_units_Z   8
loop_
 _symmetry_equiv_pos_site_id
 _symmetry_equiv_pos_as_xyz
  1  'x, y, z'
loop_
 _atom_site_type_symbol
 _atom_site_label
 _atom_site_symmetry_multiplicity
 _atom_site_fract_x
 _atom_site_fract_y
 _atom_site_fract_z
 _atom_site_occupancy
  Dy  Dy0  1  0.98470900  0.46776300  0.00102900  1
  Dy  Dy1  1  0.33746100  0.69422200  0.65629900  1
  Dy  Dy2  1  0.15370500  0.81866800  0.82734600  1
  Dy  Dy3  1  0.53866800  0.54887400  0.00000500  1
  Dy  Dy4  1  0.30553500  0.16284000  0.66922600  1
  Dy  Dy5  1  0.61134000  0.28905700  0.84478300  1
  Dy  Dy6  1  0.48484700  0.00870000  0.49486800  1
  Dy  Dy7  1  0.67497800  0.84357500  0.84157700  1
  Dy  Dy8  1  0.48577700  0.49123900  0.47943300  1
  Dy  Dy9  1  0.84055600  0.20499100  0.68207000  1
  Dy  Dy10  1  0.00498500  0.02061500  0.49541100  1
  Dy  Dy11  1  0.81018300  0.62012000  0.17202600  1
  Dy  Dy12  1  0.00670700  0.53128600  0.49837000  1
  Dy  Dy13  1  0.31656100  0.14337500  0.14942200  1
  Dy  Dy14  1  0.14530500  0.80735400  0.32735700  1
  Dy  Dy15  1  0.30454100  0.62344900  0.17461900  1
  Ti  Ti0  1  0.98819700  0.98315500  0.99737800  1
  Ti  Ti1  1  0.48328200  0.97374500  0.00401000  1
  Ti  Ti2  1  0.16836700  0.34419100  0.83631200  1
  Ti  Ti3  1  0.82667100  0.65161700  0.66263900  1
  Ti  Ti4  1  0.65518500  0.31432000  0.33577900  1
  Ti  Ti5  1  0.83484400  0.16474900  0.16880000  1
  Ti  Ti6  1  0.66195900  0.82977700  0.32557300  1
  Ti  Ti7  1  0.14444200  0.31829600  0.33540800  1
  O  O0  1  0.46358900  0.51337300  0.87188100  1
  O  O1  1  0.09909300  0.24069900  0.95047200  1
  O  O2  1  0.27434800  0.14826300  0.80366700  1
  O  O3  1  0.69048000  0.89748300  0.97617200  1
  O  O4  1  0.45566500  0.95571300  0.88147600  1
  O  O5  1  0.69095400  0.33462300  0.45030200  1
  O  O6  1  0.67259000  0.40717900  0.71777500  1
  O  O7  1  0.51571400  0.02683300  0.63185000  1
  O  O8  1  0.11333300  0.81612100  0.70244100  1
  O  O9  1  0.64671800  0.30971700  0.96699600  1
  O  O10  1  0.66691400  0.76561100  0.71335600  1
  O  O11  1  0.67239700  0.84274400  0.43462100  1
  O  O12  1  0.06199200  0.52026500  0.87402800  1
  O  O13  1  0.84450500  0.16265800  0.80577800  1
  O  O14  1  0.98384900  0.48693900  0.61883500  1
  O  O15  1  0.77426600  0.65802200  0.56188100  1
  O  O16  1  0.97659500  0.08856300  0.09645200  1
  O  O17  1  0.99611300  0.04035200  0.34197200  1
  O  O18  1  0.77269800  0.65408900  0.30385000  1
  O  O19  1  0.92939500  0.82377600  0.89797700  1
  O  O20  1  0.20985800  0.41915100  0.73368600  1
  O  O21  1  0.12491800  0.33123400  0.45029900  1
  O  O22  1  0.99284200  0.07036700  0.61664300  1
  O  O23  1  0.97313000  0.44853500  0.12889300  1
  O  O24  1  0.16339300  0.83854800  0.20287900  1
  O  O25  1  0.96984200  0.45388100  0.33918800  1
  O  O26  1  0.34993400  0.20592100  0.54268500  1
  O  O27  1  0.41549000  0.34750500  0.35602100  1
  O  O28  1  0.15423900  0.84273100  0.45297900  1
  O  O29  1  0.12468700  0.28852200  0.22403100  1
  O  O30  1  0.32228200  0.69448200  0.03354800  1
  O  O31  1  0.35660000  0.67838000  0.53799000  1
  O  O32  1  0.52183800  0.03616800  0.34722000  1
  O  O33  1  0.59325800  0.08055400  0.09867400  1
  O  O34  1  0.36810100  0.65519600  0.30310900  1
  O  O35  1  0.25977600  0.02946900  0.02580500  1
  O  O36  1  0.69864300  0.90665700  0.21633000  1
  O  O37  1  0.47975400  0.47570100  0.12255100  1
  O  O38  1  0.86685800  0.69404100  0.04425700  1
  O  O39  1  0.65121400  0.28728900  0.22502100  1
loop_
_geom_bond_atom_site_label_1
_geom_bond_atom_site_label_2
_geom_bond_distance
_geom_bond_site_symmetry_2
Dy0 O9 2.223403 1_554
Dy0 O30 2.269915 1_655
Dy0 O23 2.274715 1_555
Dy0 O12 2.317703 1_654
Dy0 O38 2.348476 1_555
Dy0 O1 2.378706 1_654
Dy1 O31 2.105302 1_555
Dy1 O7 2.242959 1_565
Dy1 O20 2.305472 1_555
Dy1 O8 2.351427 1_555
Dy1 O14 2.353559 1_455
Dy1 O10 2.402522 1_555
Dy2 O19 2.064197 1_455
Dy2 O4 2.135029 1_555
Dy2 O12 2.192639 1_555
Dy2 O8 2.233228 1_555
Dy2 O2 2.241598 1_565
Dy3 O38 2.220214 1_555
Dy3 O37 2.245962 1_555
Dy3 O0 2.315208 1_554
Dy3 O9 2.337588 1_554
Dy3 O3 2.347678 1_554
Dy3 O30 2.370553 1_555
Dy4 O22 2.225710 1_455
Dy4 O26 2.276064 1_555
Dy4 O7 2.293015 1_555
Dy4 O8 2.374922 1_545
Dy4 O2 2.394424 1_555
Dy4 O6 2.529932 1_555
Dy4 O20 2.575276 1_555
Dy5 O9 2.174954 1_555
Dy5 O2 2.257841 1_555
Dy5 O4 2.305895 1_545
Dy5 O13 2.395466 1_555
Dy5 O6 2.405727 1_555
Dy5 O0 2.428595 1_555
Dy5 O12 2.906937 1_655
Dy6 O28 2.220074 1_545
Dy6 O26 2.275961 1_555
Dy6 O5 2.327271 1_555
Dy6 O31 2.339379 1_545
Dy6 O7 2.433481 1_555
Dy6 O11 2.466828 1_545
Dy6 O32 2.634780 1_555
Dy7 O19 2.171579 1_555
Dy7 O13 2.210914 1_565
Dy7 O4 2.233150 1_555
Dy7 O0 2.276530 1_555
Dy7 O10 2.323964 1_555
Dy7 O3 2.402181 1_555
Dy8 O26 2.215928 1_555
Dy8 O31 2.258388 1_555
Dy8 O15 2.337889 1_555
Dy8 O21 2.345296 1_555
Dy8 O5 2.346844 1_555
Dy8 O27 2.354562 1_555
Dy8 O11 2.467499 1_555
Dy9 O22 2.140618 1_555
Dy9 O14 2.196161 1_555
Dy9 O13 2.228037 1_555
Dy9 O7 2.243969 1_555
Dy9 O6 2.430019 1_555
Dy9 O20 2.523909 1_655
Dy9 O10 2.975345 1_545
Dy10 O22 2.179202 1_455
Dy10 O28 2.201370 1_545
Dy10 O21 2.230608 1_555
Dy10 O26 2.341787 1_555
Dy10 O11 2.363807 1_445
Dy10 O15 2.715315 1_445
Dy10 O17 2.731717 1_455
Dy11 O23 2.245141 1_555
Dy11 O37 2.267251 1_555
Dy11 O24 2.335155 1_655
Dy11 O38 2.336265 1_555
Dy11 O18 2.372330 1_555
Dy11 O39 2.408311 1_555
Dy11 O36 2.731574 1_555
Dy12 O14 2.165083 1_455
Dy12 O5 2.196726 1_455
Dy12 O21 2.207296 1_555
Dy12 O28 2.223549 1_555
Dy12 O31 2.327411 1_555
Dy12 O15 2.546369 1_455
Dy12 O25 2.851338 1_455
Dy13 O24 2.243156 1_545
Dy13 O37 2.249572 1_555
Dy13 O35 2.292654 1_555
Dy13 O33 2.436348 1_555
Dy13 O16 2.479680 1_455
Dy13 O29 2.496966 1_555
Dy13 O39 2.502420 1_555
Dy14 O24 2.223217 1_555
Dy14 O28 2.232505 1_555
Dy14 O25 2.338102 1_455
Dy14 O18 2.404623 1_455
Dy14 O34 2.417758 1_555
Dy14 O32 2.444689 1_565
Dy14 O17 2.467492 1_465
Dy15 O37 2.232743 1_555
Dy15 O23 2.250320 1_455
Dy15 O34 2.308231 1_555
Dy15 O24 2.333231 1_555
Dy15 O29 2.396183 1_555
Dy15 O30 2.563032 1_555
Dy15 O36 2.700187 1_555
O0 Ti2 1.983151 1_555
O1 Ti0 1.913813 1_445
O1 Ti2 2.159576 1_555
O2 Ti2 2.030066 1_555
O3 Ti1 1.907337 1_556
O3 Ti0 1.967503 1_555
O4 Ti1 2.176601 1_556
O5 Ti4 2.039709 1_555
O6 Ti3 1.920715 1_555
O8 Ti3 1.956080 1_455
O9 Ti1 2.323100 1_546
O10 Ti3 1.945576 1_555
O11 Ti6 1.932866 1_555
O12 Ti2 1.926903 1_555
O13 Ti2 2.131635 1_655
O14 Ti3 2.173427 1_555
O15 Ti3 1.834677 1_555
O16 Ti5 1.882245 1_555
O16 Ti0 1.922631 1_544
O17 Ti7 1.834515 1_655
O17 Ti6 2.176545 1_545
O18 Ti6 1.875837 1_555
O18 Ti4 2.351165 1_555
O19 Ti0 2.025325 1_555
O20 Ti2 1.900673 1_555
O21 Ti7 2.044089 1_555
O23 Ti5 2.015554 1_555
O25 Ti7 1.970210 1_655
O25 Ti4 2.000332 1_555
O27 Ti4 1.903360 1_555
O27 Ti7 1.906038 1_555
O29 Ti7 1.978479 1_555
O29 Ti5 2.077909 1_455
O30 Ti1 1.930333 1_555
O32 Ti4 1.845306 1_555
O32 Ti6 2.248727 1_545
O33 Ti1 1.845604 1_545
O33 Ti5 1.978925 1_555
O34 Ti6 1.923039 1_555
O34 Ti7 2.338589 1_555
O35 Ti0 1.895429 1_444
O35 Ti1 1.895593 1_545
O36 Ti5 1.918425 1_565
O36 Ti6 2.017687 1_555
O38 Ti0 2.104584 1_554
O39 Ti4 1.966959 1_555
O39 Ti5 2.174823 1_555
