# generated using pymatgen
data_Na2TeSe3
_symmetry_space_group_name_H-M   'P 1'
_cell_length_a   11.27234863
_cell_length_b   11.27234863
_cell_length_c   12.03301866
_cell_angle_alpha   60.01966403
_cell_angle_beta   60.01966403
_cell_angle_gamma   30.91205055
_symmetry_Int_Tables_number   1
_chemical_formula_structural   Na2TeSe3
_chemical_formula_sum   'Na8 Te4 Se12'
_cell_volume   671.66315474
_cell_formula_units_Z   4
loop_
 _symmetry_equiv_pos_site_id
 _symmetry_equiv_pos_as_xyz
  1  'x, y, z'
loop_
 _atom_site_type_symbol
 _atom_site_label
 _atom_site_symmetry_multiplicity
 _atom_site_fract_x
 _atom_site_fract_y
 _atom_site_fract_z
 _atom_site_occupancy
  Na  Na0  1  0.25774924  0.23929388  0.12437543  1
  Na  Na1  1  0.53884127  0.60576415  0.80830315  1
  Na  Na2  1  0.23929388  0.25774924  0.62437543  1
  Na  Na3  1  0.76070612  0.74225076  0.37562457  1
  Na  Na4  1  0.39423585  0.46115873  0.69169685  1
  Na  Na5  1  0.74225076  0.76070612  0.87562457  1
  Na  Na6  1  0.60576415  0.53884127  0.30830315  1
  Na  Na7  1  0.46115873  0.39423585  0.19169685  1
  Te  Te0  1  0.05597883  0.15934911  0.99086116  1
  Te  Te1  1  0.94402117  0.84065089  0.00913884  1
  Te  Te2  1  0.84065089  0.94402117  0.50913884  1
  Te  Te3  1  0.15934911  0.05597883  0.49086116  1
  Se  Se0  1  0.25013937  0.23297266  0.38150521  1
  Se  Se1  1  0.62635324  0.55303623  0.04176120  1
  Se  Se2  1  0.74986063  0.76702734  0.61849479  1
  Se  Se3  1  0.37364676  0.44696377  0.95823880  1
  Se  Se4  1  0.94657854  0.88028987  0.19572374  1
  Se  Se5  1  0.23297266  0.25013937  0.88150521  1
  Se  Se6  1  0.55303623  0.62635324  0.54176120  1
  Se  Se7  1  0.44696377  0.37364676  0.45823880  1
  Se  Se8  1  0.88028987  0.94657854  0.69572374  1
  Se  Se9  1  0.76702734  0.74986063  0.11849479  1
  Se  Se10  1  0.05342146  0.11971013  0.80427626  1
  Se  Se11  1  0.11971013  0.05342146  0.30427626  1
loop_
_geom_bond_atom_site_label_1
_geom_bond_atom_site_label_2
_geom_bond_distance
_geom_bond_site_symmetry_2
Na0 Se5 3.005629 1_554
Na0 Se9 3.006135 1_545
Na0 Se9 3.013862 1_455
Na0 Se0 3.018355 1_555
Na0 Se3 3.023864 1_554
Na0 Se11 3.031866 1_555
Na1 Se3 3.010196 1_555
Na1 Se10 3.015925 1_565
Na1 Se10 3.019718 1_655
Na1 Se6 3.028723 1_555
Na1 Se1 3.051683 1_556
Na1 Se2 3.466951 1_555
Na2 Se0 3.005629 1_555
Na2 Se2 3.006135 1_455
Na2 Se2 3.013862 1_545
Na2 Se5 3.018355 1_555
Na2 Se7 3.023864 1_555
Na2 Se10 3.031866 1_555
Na3 Se2 3.005629 1_555
Na3 Se0 3.006135 1_655
Na3 Se0 3.013862 1_565
Na3 Se9 3.018355 1_555
Na3 Se6 3.023864 1_555
Na3 Se4 3.031866 1_555
Na4 Se6 3.010196 1_555
Na4 Se8 3.015925 1_455
Na4 Se8 3.019718 1_545
Na4 Se3 3.028723 1_555
Na4 Se7 3.051683 1_555
Na4 Se5 3.466951 1_555
Na5 Se9 3.005629 1_556
Na5 Se5 3.006135 1_565
Na5 Se5 3.013862 1_655
Na5 Se2 3.018355 1_555
Na5 Se1 3.023864 1_556
Na5 Se8 3.031866 1_555
Na6 Se7 3.010196 1_555
Na6 Se11 3.015925 1_655
Na6 Se11 3.019718 1_565
Na6 Se1 3.028723 1_555
Na6 Se6 3.051683 1_555
Na6 Se9 3.466951 1_555
Na7 Se1 3.010196 1_555
Na7 Se4 3.015925 1_545
Na7 Se4 3.019718 1_455
Na7 Se7 3.028723 1_555
Na7 Se3 3.051683 1_554
Na7 Se0 3.466951 1_555
Se0 Te3 2.508676 1_555
Se1 Te0 2.529182 1_654
Se2 Te2 2.508676 1_555
Se3 Te1 2.529182 1_456
Se4 Te1 2.516089 1_555
Se5 Te0 2.508676 1_555
Se6 Te3 2.529182 1_565
Se7 Te2 2.529182 1_545
Se8 Te2 2.516089 1_555
Se9 Te1 2.508676 1_555
Se10 Te0 2.516089 1_555
Se11 Te3 2.516089 1_555
