# generated using pymatgen
data_CaEu2(CuO3)2
_symmetry_space_group_name_H-M   'P 1'
_cell_length_a   8.29224793
_cell_length_b   8.29224793
_cell_length_c   6.30627233
_cell_angle_alpha   75.44598398
_cell_angle_beta   75.44598398
_cell_angle_gamma   44.22145048
_symmetry_Int_Tables_number   1
_chemical_formula_structural   CaEu2(CuO3)2
_chemical_formula_sum   'Ca2 Eu4 Cu4 O12'
_cell_volume   291.08918979
_cell_formula_units_Z   2
loop_
 _symmetry_equiv_pos_site_id
 _symmetry_equiv_pos_as_xyz
  1  'x, y, z'
loop_
 _atom_site_type_symbol
 _atom_site_label
 _atom_site_symmetry_multiplicity
 _atom_site_fract_x
 _atom_site_fract_y
 _atom_site_fract_z
 _atom_site_occupancy
  Ca  Ca0  1  0.94786500  0.05213500  0.75000000  1
  Ca  Ca1  1  0.05213500  0.94786500  0.25000000  1
  Eu  Eu0  1  0.38487400  0.00933800  0.77972600  1
  Eu  Eu1  1  0.61512600  0.99066200  0.22027400  1
  Eu  Eu2  1  0.99066200  0.61512600  0.72027400  1
  Eu  Eu3  1  0.00933800  0.38487400  0.27972600  1
  Cu  Cu0  1  0.32223300  0.51200000  0.99892300  1
  Cu  Cu1  1  0.67776700  0.48800000  0.00107700  1
  Cu  Cu2  1  0.51200000  0.32223300  0.49892300  1
  Cu  Cu3  1  0.48800000  0.67776700  0.50107700  1
  O  O0  1  0.29328300  0.30490600  0.48589500  1
  O  O1  1  0.64780200  0.27360100  0.02405000  1
  O  O2  1  0.70671700  0.69509400  0.51410500  1
  O  O3  1  0.23093500  0.00672500  0.47547000  1
  O  O4  1  0.76906500  0.99327500  0.52453000  1
  O  O5  1  0.99327500  0.76906500  0.02453000  1
  O  O6  1  0.35219800  0.72639900  0.97595000  1
  O  O7  1  0.72639900  0.35219800  0.47595000  1
  O  O8  1  0.00672500  0.23093500  0.97547000  1
  O  O9  1  0.27360100  0.64780200  0.52405000  1
  O  O10  1  0.69509400  0.70671700  0.01410500  1
  O  O11  1  0.30490600  0.29328300  0.98589500  1
loop_
_geom_bond_atom_site_label_1
_geom_bond_atom_site_label_2
_geom_bond_distance
_geom_bond_site_symmetry_2
Ca0 O1 2.331305 1_556
Ca0 O7 2.331305 1_555
Ca0 O5 2.380589 1_546
Ca0 O3 2.380589 1_655
Ca0 O4 2.627498 1_545
Ca0 O8 2.627498 1_655
Ca0 O9 2.837967 1_645
Ca0 O6 2.837967 1_645
Ca1 O6 2.331305 1_554
Ca1 O9 2.331305 1_555
Ca1 O4 2.380589 1_455
Ca1 O8 2.380589 1_564
Ca1 O5 2.627498 1_455
Ca1 O3 2.627498 1_565
Ca1 O7 2.837967 1_465
Ca1 O1 2.837967 1_465
Eu0 O8 2.380957 1_555
Eu0 O0 2.402948 1_555
Eu0 O10 2.427681 1_546
Eu0 O6 2.528409 1_545
Eu0 O11 2.557615 1_555
Eu0 O3 2.569612 1_555
Eu0 O2 2.588018 1_545
Eu1 O5 2.380957 1_555
Eu1 O2 2.402948 1_555
Eu1 O11 2.427681 1_564
Eu1 O1 2.528409 1_565
Eu1 O10 2.557615 1_555
Eu1 O4 2.569612 1_555
Eu1 O0 2.588018 1_565
Eu2 O4 2.380957 1_555
Eu2 O10 2.402948 1_556
Eu2 O0 2.427681 1_655
Eu2 O9 2.528409 1_655
Eu2 O2 2.557615 1_555
Eu2 O5 2.569612 1_556
Eu2 O11 2.588018 1_655
Eu3 O3 2.380957 1_555
Eu3 O11 2.402948 1_554
Eu3 O2 2.427681 1_455
Eu3 O7 2.528409 1_455
Eu3 O0 2.557615 1_555
Eu3 O8 2.569612 1_554
Eu3 O10 2.588018 1_455
Cu0 O5 1.904808 1_456
Cu0 O1 1.905154 1_556
Cu0 O6 1.931089 1_555
Cu0 O11 1.941921 1_555
Cu1 O8 1.904808 1_654
Cu1 O6 1.905154 1_554
Cu1 O1 1.931089 1_555
Cu1 O10 1.941921 1_555
Cu2 O4 1.904808 1_545
Cu2 O9 1.905154 1_555
Cu2 O7 1.931089 1_555
Cu2 O0 1.941921 1_555
Cu3 O3 1.904808 1_565
Cu3 O7 1.905154 1_555
Cu3 O9 1.931089 1_555
Cu3 O2 1.941921 1_555
