# generated using pymatgen
data_YCuPbS3
_symmetry_space_group_name_H-M   'P 1'
_cell_length_a   3.92605000
_cell_length_b   10.28004500
_cell_length_c   13.03333000
_cell_angle_alpha   90.00000000
_cell_angle_beta   90.00000000
_cell_angle_gamma   90.00000000
_symmetry_Int_Tables_number   1
_chemical_formula_structural   YCuPbS3
_chemical_formula_sum   'Y4 Cu4 Pb4 S12'
_cell_volume   526.02481656
_cell_formula_units_Z   4
loop_
 _symmetry_equiv_pos_site_id
 _symmetry_equiv_pos_as_xyz
  1  'x, y, z'
loop_
 _atom_site_type_symbol
 _atom_site_label
 _atom_site_symmetry_multiplicity
 _atom_site_fract_x
 _atom_site_fract_y
 _atom_site_fract_z
 _atom_site_occupancy
  Y  Y0  1  0.75000000  0.00632900  0.25029800  1
  Y  Y1  1  0.25000000  0.99367100  0.74970200  1
  Y  Y2  1  0.75000000  0.50632900  0.24970200  1
  Y  Y3  1  0.25000000  0.49367100  0.75029800  1
  Cu  Cu0  1  0.75000000  0.74367300  0.71729400  1
  Cu  Cu1  1  0.25000000  0.25632700  0.28270600  1
  Cu  Cu2  1  0.75000000  0.24367300  0.78270600  1
  Cu  Cu3  1  0.25000000  0.75632700  0.21729400  1
  Pb  Pb0  1  0.75000000  0.75521900  0.00209000  1
  Pb  Pb1  1  0.25000000  0.24478100  0.99791000  1
  Pb  Pb2  1  0.75000000  0.25521900  0.49791000  1
  Pb  Pb3  1  0.25000000  0.74478100  0.50209000  1
  S  S0  1  0.75000000  0.25616800  0.17532700  1
  S  S1  1  0.25000000  0.74383200  0.82467300  1
  S  S2  1  0.75000000  0.75616800  0.32467300  1
  S  S3  1  0.25000000  0.24383200  0.67532700  1
  S  S4  1  0.75000000  0.06129000  0.88811900  1
  S  S5  1  0.25000000  0.93871000  0.11188100  1
  S  S6  1  0.75000000  0.56129000  0.61188100  1
  S  S7  1  0.25000000  0.43871000  0.38811900  1
  S  S8  1  0.75000000  0.42549500  0.88820700  1
  S  S9  1  0.25000000  0.57450500  0.11179300  1
  S  S10  1  0.75000000  0.92549500  0.61179300  1
  S  S11  1  0.25000000  0.07450500  0.38820700  1
loop_
_geom_bond_atom_site_label_1
_geom_bond_atom_site_label_2
_geom_bond_distance
_geom_bond_site_symmetry_2
Cu0 S10 2.320428 1_555
Cu0 S6 2.324397 1_555
Cu0 S1 2.410827 1_555
Cu0 S1 2.410827 1_655
Cu1 S11 2.320428 1_555
Cu1 S7 2.324397 1_555
Cu1 S0 2.410827 1_555
Cu1 S0 2.410827 1_455
Cu2 S8 2.320428 1_555
Cu2 S4 2.324397 1_555
Cu2 S3 2.410827 1_655
Cu2 S3 2.410827 1_555
Cu3 S9 2.320428 1_555
Cu3 S5 2.324397 1_555
Cu3 S2 2.410827 1_555
Cu3 S2 2.410827 1_455
Pb0 S1 3.035467 1_654
Pb0 S1 3.035467 1_554
Pb0 S9 3.057615 1_555
Pb0 S9 3.057615 1_655
Pb0 S5 3.075577 1_555
Pb0 S5 3.075577 1_655
Pb1 S0 3.035467 1_456
Pb1 S0 3.035467 1_556
Pb1 S8 3.057615 1_455
Pb1 S8 3.057615 1_555
Pb1 S4 3.075577 1_555
Pb1 S4 3.075577 1_455
Pb2 S3 3.035467 1_655
Pb2 S3 3.035467 1_555
Pb2 S11 3.057615 1_555
Pb2 S11 3.057615 1_655
Pb2 S7 3.075577 1_555
Pb2 S7 3.075577 1_655
Pb3 S2 3.035467 1_455
Pb3 S2 3.035467 1_555
Pb3 S10 3.057615 1_555
Pb3 S10 3.057615 1_455
Pb3 S6 3.075577 1_455
Pb3 S6 3.075577 1_555
S0 Y0 2.747948 1_555
S0 Y2 2.748293 1_555
S1 Y1 2.747948 1_555
S1 Y3 2.748293 1_555
S2 Y2 2.747948 1_555
S2 Y0 2.748293 1_565
S3 Y3 2.747948 1_555
S3 Y1 2.748293 1_545
S4 Y1 2.755215 1_645
S4 Y1 2.755215 1_545
S5 Y0 2.755215 1_565
S5 Y0 2.755215 1_465
S6 Y3 2.755215 1_555
S6 Y3 2.755215 1_655
S7 Y2 2.755215 1_455
S7 Y2 2.755215 1_555
S8 Y3 2.752337 1_555
S8 Y3 2.752337 1_655
S9 Y2 2.752337 1_455
S9 Y2 2.752337 1_555
S10 Y1 2.752337 1_555
S10 Y1 2.752337 1_655
S11 Y0 2.752337 1_555
S11 Y0 2.752337 1_455
