# generated using pymatgen
data_UAl2Pd5
_symmetry_space_group_name_H-M   'P 1'
_cell_length_a   8.01108535
_cell_length_b   8.01108535
_cell_length_c   8.01108535
_cell_angle_alpha   149.65678017
_cell_angle_beta   149.65678017
_cell_angle_gamma   43.44544648
_symmetry_Int_Tables_number   1
_chemical_formula_structural   UAl2Pd5
_chemical_formula_sum   'U1 Al2 Pd5'
_cell_volume   130.85401683
_cell_formula_units_Z   1
loop_
 _symmetry_equiv_pos_site_id
 _symmetry_equiv_pos_as_xyz
  1  'x, y, z'
loop_
 _atom_site_type_symbol
 _atom_site_label
 _atom_site_symmetry_multiplicity
 _atom_site_fract_x
 _atom_site_fract_y
 _atom_site_fract_z
 _atom_site_occupancy
  U  U0  1  0.00000000  0.00000000  0.00000000  1
  Al  Al0  1  0.25441700  0.25441700  0.00000000  1
  Al  Al1  1  0.74558300  0.74558300  0.00000000  1
  Pd  Pd0  1  0.35622400  0.85622400  0.50000000  1
  Pd  Pd1  1  0.14377600  0.64377600  0.50000000  1
  Pd  Pd2  1  0.85622400  0.35622400  0.50000000  1
  Pd  Pd3  1  0.64377600  0.14377600  0.50000000  1
  Pd  Pd4  1  0.50000000  0.50000000  0.00000000  1
loop_
_geom_bond_atom_site_label_1
_geom_bond_atom_site_label_2
_geom_bond_distance
_geom_bond_site_symmetry_2
Al0 Pd0 2.586875 1_555
Al0 Pd2 2.586875 1_454
Al0 Pd0 2.586875 1_544
Al0 Pd2 2.586875 1_555
Al0 Pd3 2.666028 1_555
Al0 Pd1 2.666028 1_555
Al0 Pd3 2.666028 1_454
Al0 Pd1 2.666028 1_544
Al1 Pd3 2.586875 1_554
Al1 Pd1 2.586875 1_554
Al1 Pd1 2.586875 1_655
Al1 Pd3 2.586875 1_565
Al1 Pd2 2.666028 1_554
Al1 Pd0 2.666028 1_554
Al1 Pd2 2.666028 1_565
Al1 Pd0 2.666028 1_655
Pd0 Pd2 2.965025 1_566
Pd0 Pd2 2.965025 1_555
Pd0 Pd2 2.965025 1_454
Pd0 Pd2 2.965025 1_465
Pd0 Pd4 2.995889 1_566
Pd0 U0 2.995889 1_565
Pd0 Pd4 2.995889 1_555
Pd0 U0 2.995889 1_666
Pd1 Pd3 2.965025 1_465
Pd1 Pd3 2.965025 1_454
Pd1 Pd3 2.965025 1_566
Pd1 Pd3 2.965025 1_555
Pd1 U0 2.995889 1_566
Pd1 U0 2.995889 1_555
Pd1 Pd4 2.995889 1_556
Pd1 Pd4 2.995889 1_455
Pd2 U0 2.995889 1_655
Pd2 U0 2.995889 1_666
Pd2 Pd4 2.995889 1_555
Pd2 Pd4 2.995889 1_656
Pd3 U0 2.995889 1_555
Pd3 U0 2.995889 1_656
Pd3 Pd4 2.995889 1_556
Pd3 Pd4 2.995889 1_545
Pd4 U0 2.965025 1_655
Pd4 U0 2.965025 1_565
Pd4 U0 2.965025 1_554
Pd4 U0 2.965025 1_666
