# generated using pymatgen
data_Ba3Lu2Zn5O11
_symmetry_space_group_name_H-M   'P 1'
_cell_length_a   9.62934055
_cell_length_b   9.62934055
_cell_length_c   9.62934055
_cell_angle_alpha   60.00000000
_cell_angle_beta   60.00000000
_cell_angle_gamma   60.00000000
_symmetry_Int_Tables_number   1
_chemical_formula_structural   Ba3Lu2Zn5O11
_chemical_formula_sum   'Ba6 Lu4 Zn10 O22'
_cell_volume   631.35647739
_cell_formula_units_Z   2
loop_
 _symmetry_equiv_pos_site_id
 _symmetry_equiv_pos_as_xyz
  1  'x, y, z'
loop_
 _atom_site_type_symbol
 _atom_site_label
 _atom_site_symmetry_multiplicity
 _atom_site_fract_x
 _atom_site_fract_y
 _atom_site_fract_z
 _atom_site_occupancy
  Ba  Ba0  1  0.54360000  0.54360000  0.95640000  1
  Ba  Ba1  1  0.95640000  0.54360000  0.95640000  1
  Ba  Ba2  1  0.54360000  0.95640000  0.54360000  1
  Ba  Ba3  1  0.95640000  0.95640000  0.54360000  1
  Ba  Ba4  1  0.54360000  0.95640000  0.95640000  1
  Ba  Ba5  1  0.95640000  0.54360000  0.54360000  1
  Lu  Lu0  1  0.74314100  0.08562000  0.08562000  1
  Lu  Lu1  1  0.08562000  0.74314100  0.08562000  1
  Lu  Lu2  1  0.08562000  0.08562000  0.08562000  1
  Lu  Lu3  1  0.08562000  0.08562000  0.74314100  1
  Zn  Zn0  1  0.66754400  0.33245600  0.66754400  1
  Zn  Zn1  1  0.99901200  0.33366300  0.33366300  1
  Zn  Zn2  1  0.66754400  0.66754400  0.33245600  1
  Zn  Zn3  1  0.33366300  0.33366300  0.99901200  1
  Zn  Zn4  1  0.33245600  0.66754400  0.66754400  1
  Zn  Zn5  1  0.33366300  0.33366300  0.33366300  1
  Zn  Zn6  1  0.33245600  0.33245600  0.66754400  1
  Zn  Zn7  1  0.33366300  0.99901200  0.33366300  1
  Zn  Zn8  1  0.33245600  0.66754400  0.33245600  1
  Zn  Zn9  1  0.66754400  0.33245600  0.33245600  1
  O  O0  1  0.58354100  0.24809600  0.24809600  1
  O  O1  1  0.58354100  0.24809600  0.92026700  1
  O  O2  1  0.23742900  0.92085700  0.92085700  1
  O  O3  1  0.22425500  0.59191500  0.59191500  1
  O  O4  1  0.92026700  0.24809600  0.58354100  1
  O  O5  1  0.58354100  0.92026700  0.24809600  1
  O  O6  1  0.59191500  0.59191500  0.22425500  1
  O  O7  1  0.24809600  0.24809600  0.58354100  1
  O  O8  1  0.24809600  0.58354100  0.24809600  1
  O  O9  1  0.24809600  0.92026700  0.24809600  1
  O  O10  1  0.59191500  0.22425500  0.59191500  1
  O  O11  1  0.25000000  0.25000000  0.25000000  1
  O  O12  1  0.92085700  0.92085700  0.92085700  1
  O  O13  1  0.24809600  0.24809600  0.92026700  1
  O  O14  1  0.92085700  0.92085700  0.23742900  1
  O  O15  1  0.92085700  0.23742900  0.92085700  1
  O  O16  1  0.92026700  0.58354100  0.24809600  1
  O  O17  1  0.24809600  0.58354100  0.92026700  1
  O  O18  1  0.59191500  0.59191500  0.59191500  1
  O  O19  1  0.24809600  0.92026700  0.58354100  1
  O  O20  1  0.75000000  0.75000000  0.75000000  1
  O  O21  1  0.92026700  0.24809600  0.24809600  1
loop_
_geom_bond_atom_site_label_1
_geom_bond_atom_site_label_2
_geom_bond_distance
_geom_bond_site_symmetry_2
Ba0 O20 2.810744 1_555
Ba0 O17 2.850919 1_555
Ba0 O1 2.850919 1_555
Ba0 O8 2.850919 1_556
Ba0 O0 2.850919 1_556
Ba0 O6 3.114792 1_556
Ba0 O18 3.114792 1_555
Ba0 O15 3.325889 1_555
Ba0 O2 3.325889 1_555
Ba1 O20 2.810744 1_555
Ba1 O13 2.850919 1_655
Ba1 O16 2.850919 1_556
Ba1 O21 2.850919 1_556
Ba1 O17 2.850919 1_655
Ba1 O6 3.114792 1_556
Ba1 O3 3.114792 1_655
Ba1 O15 3.325889 1_555
Ba1 O12 3.325889 1_555
Ba2 O20 2.810744 1_555
Ba2 O19 2.850919 1_555
Ba2 O7 2.850919 1_565
Ba2 O5 2.850919 1_555
Ba2 O0 2.850919 1_565
Ba2 O10 3.114792 1_565
Ba2 O18 3.114792 1_555
Ba2 O14 3.325889 1_555
Ba2 O2 3.325889 1_555
Ba3 O20 2.810744 1_555
Ba3 O21 2.850919 1_565
Ba3 O19 2.850919 1_655
Ba3 O9 2.850919 1_655
Ba3 O4 2.850919 1_565
Ba3 O3 3.114792 1_655
Ba3 O10 3.114792 1_565
Ba3 O14 3.325889 1_555
Ba3 O12 3.325889 1_555
Ba4 O20 2.810744 1_555
Ba4 O13 2.850919 1_565
Ba4 O9 2.850919 1_556
Ba4 O5 2.850919 1_556
Ba4 O1 2.850919 1_565
Ba4 O10 3.114792 1_565
Ba4 O6 3.114792 1_556
Ba4 O2 3.325889 1_555
Ba4 O12 3.325889 1_555
Ba5 O20 2.810744 1_555
Ba5 O4 2.850919 1_555
Ba5 O7 2.850919 1_655
Ba5 O16 2.850919 1_555
Ba5 O8 2.850919 1_655
Ba5 O18 3.114792 1_555
Ba5 O3 3.114792 1_655
Ba5 O15 3.325889 1_555
Ba5 O14 3.325889 1_555
Lu0 O0 2.212762 1_555
Lu0 O5 2.212769 1_545
Lu0 O1 2.212769 1_554
Lu0 O14 2.247191 1_545
Lu0 O15 2.247191 1_554
Lu0 O12 2.247197 1_544
Lu1 O8 2.212762 1_555
Lu1 O17 2.212769 1_554
Lu1 O16 2.212769 1_455
Lu1 O14 2.247191 1_455
Lu1 O2 2.247191 1_554
Lu1 O12 2.247197 1_454
Lu2 O13 2.212762 1_554
Lu2 O21 2.212762 1_455
Lu2 O9 2.212762 1_545
Lu2 O15 2.247198 1_454
Lu2 O2 2.247198 1_544
Lu2 O14 2.247198 1_445
Lu3 O7 2.212762 1_555
Lu3 O19 2.212769 1_545
Lu3 O4 2.212769 1_455
Lu3 O15 2.247191 1_455
Lu3 O2 2.247191 1_545
Lu3 O12 2.247197 1_445
O0 Zn5 1.964988 1_555
O0 Zn9 1.986991 1_555
O1 Zn3 1.964988 1_555
O1 Zn0 1.986991 1_555
O3 Zn8 2.047972 1_555
O3 Zn6 2.047972 1_555
O3 Zn4 2.047972 1_555
O4 Zn1 1.964988 1_555
O4 Zn0 1.986991 1_555
O5 Zn7 1.964988 1_555
O5 Zn2 1.986991 1_555
O6 Zn8 2.047972 1_555
O6 Zn9 2.047972 1_555
O6 Zn2 2.047972 1_555
O7 Zn5 1.964988 1_555
O7 Zn6 1.986991 1_555
O8 Zn5 1.964988 1_555
O8 Zn8 1.986991 1_555
O9 Zn7 1.964996 1_555
O9 Zn8 1.986991 1_555
O10 Zn9 2.047972 1_555
O10 Zn6 2.047972 1_555
O10 Zn0 2.047972 1_555
O11 Zn1 1.973349 1_455
O11 Zn3 1.973349 1_554
O11 Zn7 1.973349 1_545
O11 Zn5 1.973357 1_555
O13 Zn3 1.964996 1_555
O13 Zn6 1.986991 1_555
O16 Zn1 1.964988 1_555
O16 Zn2 1.986991 1_555
O17 Zn3 1.964988 1_555
O17 Zn4 1.986991 1_555
O18 Zn2 2.047972 1_555
O18 Zn0 2.047972 1_555
O18 Zn4 2.047972 1_555
O19 Zn7 1.964988 1_555
O19 Zn4 1.986991 1_555
O21 Zn1 1.964996 1_555
O21 Zn9 1.986991 1_555
