# generated using pymatgen
data_Cs4CO4
_symmetry_space_group_name_H-M   'P 1'
_cell_length_a   6.25491932
_cell_length_b   6.25491932
_cell_length_c   6.25491967
_cell_angle_alpha   88.89035081
_cell_angle_beta   88.89035081
_cell_angle_gamma   88.89035116
_symmetry_Int_Tables_number   1
_chemical_formula_structural   Cs4CO4
_chemical_formula_sum   'Cs4 C1 O4'
_cell_volume   244.58164856
_cell_formula_units_Z   1
loop_
 _symmetry_equiv_pos_site_id
 _symmetry_equiv_pos_as_xyz
  1  'x, y, z'
loop_
 _atom_site_type_symbol
 _atom_site_label
 _atom_site_symmetry_multiplicity
 _atom_site_fract_x
 _atom_site_fract_y
 _atom_site_fract_z
 _atom_site_occupancy
  Cs  Cs0  1  0.86981400  0.43541900  0.92652800  1
  Cs  Cs1  1  0.92652800  0.86981400  0.43541900  1
  Cs  Cs2  1  0.43541900  0.92652800  0.86981400  1
  Cs  Cs3  1  0.43919700  0.43919700  0.43919700  1
  C  C0  1  0.17415900  0.17415900  0.17415900  1
  O  O0  1  0.29563900  0.31743100  0.03829000  1
  O  O1  1  0.03829000  0.29563900  0.31743100  1
  O  O2  1  0.31743100  0.03829000  0.29563900  1
  O  O3  1  0.04291400  0.04291400  0.04291400  1
loop_
_geom_bond_atom_site_label_1
_geom_bond_atom_site_label_2
_geom_bond_distance
_geom_bond_site_symmetry_2
Cs0 O3 2.754643 1_656
Cs0 O1 2.799034 1_656
Cs0 O0 2.846678 1_656
Cs0 O0 3.730558 1_556
Cs1 O3 2.754644 1_665
Cs1 O2 2.799034 1_665
Cs1 O1 2.846678 1_665
Cs1 O1 3.730558 1_655
Cs2 O3 2.754643 1_566
Cs2 O0 2.799034 1_566
Cs2 O2 2.846679 1_566
Cs2 O2 3.730558 1_565
Cs3 O1 2.803985 1_555
Cs3 O2 2.803985 1_555
Cs3 O0 2.803985 1_555
C0 O0 1.440337 1_555
C0 O2 1.440337 1_555
C0 O1 1.440337 1_555
C0 O3 1.449162 1_555
