# generated using pymatgen
data_KLi4NbO5
_symmetry_space_group_name_H-M   'P 1'
_cell_length_a   5.86811400
_cell_length_b   5.98982476
_cell_length_c   8.33581330
_cell_angle_alpha   88.40455033
_cell_angle_beta   100.96041168
_cell_angle_gamma   119.15100882
_symmetry_Int_Tables_number   1
_chemical_formula_structural   KLi4NbO5
_chemical_formula_sum   'K2 Li8 Nb2 O10'
_cell_volume   250.49866956
_cell_formula_units_Z   2
loop_
 _symmetry_equiv_pos_site_id
 _symmetry_equiv_pos_as_xyz
  1  'x, y, z'
loop_
 _atom_site_type_symbol
 _atom_site_label
 _atom_site_symmetry_multiplicity
 _atom_site_fract_x
 _atom_site_fract_y
 _atom_site_fract_z
 _atom_site_occupancy
  K  K0  1  0.61507400  0.76235300  0.41629800  1
  K  K1  1  0.38492600  0.23764700  0.58370200  1
  Li  Li0  1  0.34025700  0.00060600  0.88010100  1
  Li  Li1  1  0.65974300  0.99939400  0.11989900  1
  Li  Li2  1  0.59741200  0.39142600  0.08677000  1
  Li  Li3  1  0.88305900  0.33217000  0.38835800  1
  Li  Li4  1  0.09098500  0.39586200  0.10485500  1
  Li  Li5  1  0.40258800  0.60857400  0.91323000  1
  Li  Li6  1  0.11694100  0.66783000  0.61164200  1
  Li  Li7  1  0.90901500  0.60413800  0.89514500  1
  Nb  Nb0  1  0.14248800  0.93738900  0.19830700  1
  Nb  Nb1  1  0.85751200  0.06261100  0.80169300  1
  O  O0  1  0.78000100  0.76455900  0.03202500  1
  O  O1  1  0.51895500  0.18281200  0.27699100  1
  O  O2  1  0.21999900  0.23544100  0.96797500  1
  O  O3  1  0.26001800  0.75600000  0.05244200  1
  O  O4  1  0.48104500  0.81718800  0.72300900  1
  O  O5  1  0.92846100  0.29409100  0.63458600  1
  O  O6  1  0.02182500  0.15954400  0.28043800  1
  O  O7  1  0.73998200  0.24400000  0.94755800  1
  O  O8  1  0.07153900  0.70590900  0.36541400  1
  O  O9  1  0.97817500  0.84045600  0.71956200  1
loop_
_geom_bond_atom_site_label_1
_geom_bond_atom_site_label_2
_geom_bond_distance
_geom_bond_site_symmetry_2
K0 Li1 2.806684 1_555
K0 O6 2.825852 1_665
K0 O9 2.862845 1_555
K0 O4 2.885510 1_555
K0 O8 2.965018 1_655
K0 O8 2.985009 1_555
K0 O1 2.996884 1_565
K0 O5 3.190801 1_565
K1 Li0 2.806684 1_555
K1 O9 2.825852 1_445
K1 O6 2.862845 1_555
K1 O1 2.885510 1_555
K1 O5 2.965018 1_455
K1 O5 2.985009 1_555
K1 O4 2.996884 1_545
K1 O8 3.190801 1_545
Li0 O3 1.974870 1_546
Li0 O7 2.038672 1_555
Li0 O9 2.056732 1_445
Li0 O2 2.057699 1_555
Li0 O4 2.231608 1_545
Li1 O7 1.974870 1_564
Li1 O3 2.038672 1_555
Li1 O6 2.056732 1_665
Li1 O0 2.057699 1_555
Li1 O1 2.231608 1_565
Li2 O1 1.973435 1_555
Li2 O2 1.990004 1_554
Li2 O7 1.993069 1_554
Li2 O0 2.036578 1_555
Li3 O1 1.912340 1_555
Li3 O6 1.921496 1_655
Li3 O8 1.978830 1_655
Li3 O5 2.039852 1_555
Li4 O3 1.963638 1_555
Li4 O6 1.965047 1_555
Li4 O2 1.973983 1_554
Li4 O7 2.000820 1_454
Li5 O4 1.973435 1_555
Li5 O0 1.990004 1_556
Li5 O3 1.993069 1_556
Li5 O2 2.036578 1_555
Li6 O4 1.912340 1_555
Li6 O9 1.921496 1_455
Li6 O5 1.978830 1_455
Li6 O8 2.039852 1_555
Li7 O7 1.963638 1_555
Li7 O9 1.965047 1_555
Li7 O0 1.973983 1_556
Li7 O3 2.000820 1_656
Nb0 O8 1.893874 1_555
Nb0 O1 1.952032 1_565
Nb0 O6 1.973255 1_565
Nb0 O3 2.063249 1_555
Nb0 O0 2.081112 1_455
Nb0 O2 2.535870 1_564
Nb1 O5 1.893874 1_555
Nb1 O4 1.952032 1_545
Nb1 O9 1.973255 1_545
Nb1 O7 2.063249 1_555
Nb1 O2 2.081112 1_655
Nb1 O0 2.535870 1_546
