# generated using pymatgen
data_Fe2TeO5
_symmetry_space_group_name_H-M   'P 1'
_cell_length_a   5.04208700
_cell_length_b   7.77699200
_cell_length_c   10.95442865
_cell_angle_alpha   77.00578269
_cell_angle_beta   90.00000000
_cell_angle_gamma   90.00000000
_symmetry_Int_Tables_number   1
_chemical_formula_structural   Fe2TeO5
_chemical_formula_sum   'Fe8 Te4 O20'
_cell_volume   418.54847895
_cell_formula_units_Z   4
loop_
 _symmetry_equiv_pos_site_id
 _symmetry_equiv_pos_as_xyz
  1  'x, y, z'
loop_
 _atom_site_type_symbol
 _atom_site_label
 _atom_site_symmetry_multiplicity
 _atom_site_fract_x
 _atom_site_fract_y
 _atom_site_fract_z
 _atom_site_occupancy
  Fe  Fe0  1  0.04758100  0.18507400  0.90801100  1
  Fe  Fe1  1  0.95241900  0.81492600  0.09198900  1
  Fe  Fe2  1  0.54758100  0.81492600  0.59198900  1
  Fe  Fe3  1  0.42839500  0.03024900  0.13109900  1
  Fe  Fe4  1  0.57160500  0.96975100  0.86890100  1
  Fe  Fe5  1  0.07160500  0.03024900  0.63109900  1
  Fe  Fe6  1  0.45241900  0.18507400  0.40801100  1
  Fe  Fe7  1  0.92839500  0.96975100  0.36890100  1
  Te  Te0  1  0.06089700  0.64375500  0.83325900  1
  Te  Te1  1  0.93910300  0.35624500  0.16674100  1
  Te  Te2  1  0.56089700  0.35624500  0.66674100  1
  Te  Te3  1  0.43910300  0.64375500  0.33325900  1
  O  O0  1  0.87333100  0.10042100  0.76714900  1
  O  O1  1  0.70255600  0.74140100  0.43435300  1
  O  O2  1  0.25005600  0.94897100  0.48450600  1
  O  O3  1  0.20255600  0.25859900  0.06564700  1
  O  O4  1  0.87996200  0.42382200  0.83964000  1
  O  O5  1  0.37996200  0.57617800  0.66036000  1
  O  O6  1  0.75005600  0.05102900  0.01549400  1
  O  O7  1  0.12003800  0.57617800  0.16036000  1
  O  O8  1  0.12666900  0.89957900  0.23285100  1
  O  O9  1  0.60108800  0.76901500  0.18249600  1
  O  O10  1  0.24994400  0.94897100  0.98450600  1
  O  O11  1  0.79744400  0.74140100  0.93435300  1
  O  O12  1  0.89891200  0.76901500  0.68249600  1
  O  O13  1  0.10108800  0.23098500  0.31750400  1
  O  O14  1  0.62003800  0.42382200  0.33964000  1
  O  O15  1  0.37333100  0.89957900  0.73285100  1
  O  O16  1  0.29744400  0.25859900  0.56564700  1
  O  O17  1  0.74994400  0.05102900  0.51549400  1
  O  O18  1  0.39891200  0.23098500  0.81750400  1
  O  O19  1  0.62666900  0.10042100  0.26714900  1
loop_
_geom_bond_atom_site_label_1
_geom_bond_atom_site_label_2
_geom_bond_distance
_geom_bond_site_symmetry_2
Fe0 O0 2.010774 1_455
Fe0 O18 2.022195 1_555
Fe0 O4 2.024188 1_455
Fe0 O6 2.042427 1_456
Fe0 O3 2.088890 1_556
Fe0 O10 2.103056 1_545
Fe1 O8 2.010774 1_655
Fe1 O9 2.022195 1_555
Fe1 O7 2.024188 1_655
Fe1 O10 2.042427 1_654
Fe1 O11 2.088890 1_554
Fe1 O6 2.103056 1_565
Fe2 O15 2.010774 1_555
Fe2 O12 2.022195 1_555
Fe2 O5 2.024188 1_555
Fe2 O2 2.042427 1_555
Fe2 O1 2.088890 1_555
Fe2 O17 2.103056 1_565
Fe3 O19 1.970824 1_555
Fe3 O8 2.019942 1_545
Fe3 O6 2.041615 1_555
Fe3 O10 2.060177 1_544
Fe3 O3 2.095673 1_555
Fe3 O9 2.165234 1_545
Fe4 O15 1.970824 1_555
Fe4 O0 2.019942 1_565
Fe4 O10 2.041615 1_555
Fe4 O6 2.060177 1_566
Fe4 O11 2.095673 1_555
Fe4 O18 2.165234 1_565
Fe5 O0 1.970824 1_455
Fe5 O15 2.019942 1_545
Fe5 O17 2.041615 1_455
Fe5 O2 2.060177 1_545
Fe5 O16 2.095673 1_555
Fe5 O12 2.165234 1_445
Fe6 O19 2.010774 1_555
Fe6 O13 2.022195 1_555
Fe6 O14 2.024188 1_555
Fe6 O17 2.042427 1_555
Fe6 O16 2.088890 1_555
Fe6 O2 2.103056 1_545
Fe7 O8 1.970824 1_655
Fe7 O19 2.019942 1_565
Fe7 O2 2.041615 1_655
Fe7 O17 2.060177 1_565
Fe7 O1 2.095673 1_555
Fe7 O13 2.165234 1_665
O0 Te2 2.581785 1_555
O1 Te3 1.986399 1_555
O3 Te1 1.986399 1_455
O4 Te0 1.925856 1_655
O4 Te2 2.626631 1_555
O5 Te2 1.925856 1_555
O5 Te0 2.626631 1_555
O7 Te1 1.925856 1_455
O7 Te3 2.626631 1_555
O8 Te3 2.581785 1_555
O9 Te3 1.902645 1_555
O11 Te0 1.986399 1_655
O12 Te0 1.902645 1_655
O13 Te1 1.902645 1_455
O14 Te3 1.925856 1_555
O14 Te1 2.626631 1_555
O15 Te0 2.581785 1_555
O16 Te2 1.986399 1_555
O18 Te2 1.902645 1_555
O19 Te1 2.581785 1_555
