# generated using pymatgen
data_Ba17Ho16Zn8Pt4O57
_symmetry_space_group_name_H-M   'P 1'
_cell_length_a   16.57439271
_cell_length_b   16.57439271
_cell_length_c   16.57439271
_cell_angle_alpha   91.72740531
_cell_angle_beta   91.72740531
_cell_angle_gamma   160.00313173
_symmetry_Int_Tables_number   1
_chemical_formula_structural   Ba17Ho16Zn8Pt4O57
_chemical_formula_sum   'Ba17 Ho16 Zn8 Pt4 O57'
_cell_volume   1533.39091071
_cell_formula_units_Z   1
loop_
 _symmetry_equiv_pos_site_id
 _symmetry_equiv_pos_as_xyz
  1  'x, y, z'
loop_
 _atom_site_type_symbol
 _atom_site_label
 _atom_site_symmetry_multiplicity
 _atom_site_fract_x
 _atom_site_fract_y
 _atom_site_fract_z
 _atom_site_occupancy
  Ba  Ba0  1  0.72360400  0.88810600  0.61171000  1
  Ba  Ba1  1  0.55822200  0.93228600  0.49050800  1
  Ba  Ba2  1  0.64946600  0.34212800  0.99159400  1
  Ba  Ba3  1  0.18908300  0.26775700  0.45684000  1
  Ba  Ba4  1  0.26775700  0.81091700  0.07867300  1
  Ba  Ba5  1  0.06771400  0.55822200  0.62593600  1
  Ba  Ba6  1  0.11189400  0.72360400  0.83549700  1
  Ba  Ba7  1  0.65787200  0.64946600  0.30733800  1
  Ba  Ba8  1  0.88810600  0.27639600  0.16450300  1
  Ba  Ba9  1  0.34212800  0.35053400  0.69266200  1
  Ba  Ba10  1  0.73224300  0.18908300  0.92132700  1
  Ba  Ba11  1  0.44177800  0.06771400  0.50949200  1
  Ba  Ba12  1  0.81091700  0.73224300  0.54316000  1
  Ba  Ba13  1  0.35053400  0.65787200  0.00840600  1
  Ba  Ba14  1  0.93228600  0.44177800  0.37406400  1
  Ba  Ba15  1  0.00000000  0.00000000  0.00000000  1
  Ba  Ba16  1  0.27639600  0.11189400  0.38829000  1
  Ho  Ho0  1  0.50624500  0.25072100  0.75696600  1
  Ho  Ho1  1  0.05222800  0.17184700  0.22407500  1
  Ho  Ho2  1  0.95039300  0.67409500  0.62448800  1
  Ho  Ho3  1  0.94777200  0.82815300  0.77592500  1
  Ho  Ho4  1  0.48854600  0.59954000  0.08808600  1
  Ho  Ho5  1  0.67409500  0.04960700  0.72370200  1
  Ho  Ho6  1  0.40046000  0.48854600  0.88900600  1
  Ho  Ho7  1  0.25072100  0.49375500  0.74447600  1
  Ho  Ho8  1  0.04960700  0.32590500  0.37551200  1
  Ho  Ho9  1  0.17184700  0.94777200  0.11961900  1
  Ho  Ho10  1  0.59954000  0.51145400  0.11099400  1
  Ho  Ho11  1  0.51145400  0.40046000  0.91191400  1
  Ho  Ho12  1  0.49375500  0.74927900  0.24303400  1
  Ho  Ho13  1  0.74927900  0.50624500  0.25552400  1
  Ho  Ho14  1  0.32590500  0.95039300  0.27629800  1
  Ho  Ho15  1  0.82815300  0.05222800  0.88038100  1
  Zn  Zn0  1  0.37941800  0.21224900  0.59166700  1
  Zn  Zn1  1  0.78775100  0.37941800  0.16717000  1
  Zn  Zn2  1  0.07561000  0.86667700  0.94228700  1
  Zn  Zn3  1  0.86667700  0.92439000  0.79106600  1
  Zn  Zn4  1  0.62058200  0.78775100  0.40833300  1
  Zn  Zn5  1  0.13332300  0.07561000  0.20893400  1
  Zn  Zn6  1  0.92439000  0.13332300  0.05771300  1
  Zn  Zn7  1  0.21224900  0.62058200  0.83283000  1
  Pt  Pt0  1  0.41726100  0.85567700  0.27293800  1
  Pt  Pt1  1  0.58273900  0.14432300  0.72706200  1
  Pt  Pt2  1  0.14432300  0.41726100  0.56158300  1
  Pt  Pt3  1  0.85567700  0.58273900  0.43841700  1
  O  O0  1  0.76058900  0.29899300  0.05958200  1
  O  O1  1  0.60762000  0.23137800  0.83899800  1
  O  O2  1  0.76355300  0.40922300  0.68938500  1
  O  O3  1  0.28016200  0.92583200  0.68938500  1
  O  O4  1  0.07382100  0.22204400  0.79705700  1
  O  O5  1  0.05478900  0.43521200  0.49000100  1
  O  O6  1  0.23137800  0.39238000  0.62375800  1
  O  O7  1  0.88808300  0.36691000  0.76735500  1
  O  O8  1  0.39238000  0.76862200  0.16100200  1
  O  O9  1  0.00061000  0.31935600  0.82394800  1
  O  O10  1  0.15927400  0.15753400  0.31680800  1
  O  O11  1  0.76862200  0.60762000  0.37624200  1
  O  O12  1  0.71983800  0.07416800  0.31061500  1
  O  O13  1  0.16134000  0.31621900  0.97547000  1
  O  O14  1  0.92617900  0.77795600  0.20294300  1
  O  O15  1  0.81413000  0.83866000  0.15487900  1
  O  O16  1  0.29899300  0.23941100  0.53840400  1
  O  O17  1  0.22204400  0.42498700  0.14822300  1
  O  O18  1  0.68378100  0.65925100  0.84512100  1
  O  O19  1  0.70100700  0.76058900  0.46159600  1
  O  O20  1  0.84072600  0.84246600  0.68319200  1
  O  O21  1  0.83866000  0.68378100  0.02453000  1
  O  O22  1  0.56478800  0.05478900  0.61957800  1
  O  O23  1  0.15753400  0.84072600  0.99826000  1
  O  O24  1  0.59077700  0.28016200  0.35433000  1
  O  O25  1  0.23644700  0.59077700  0.31061500  1
  O  O26  1  0.49540700  0.17666100  0.17605200  1
  O  O27  1  0.07416800  0.76355300  0.35433000  1
  O  O28  1  0.65925100  0.81413000  0.97547000  1
  O  O29  1  0.31935600  0.49540700  0.31874600  1
  O  O30  1  0.59955500  0.12072900  0.23264500  1
  O  O31  1  0.99939000  0.68064400  0.17605200  1
  O  O32  1  0.31621900  0.34074900  0.15487900  1
  O  O33  1  0.57501300  0.72323600  0.79705700  1
  O  O34  1  0.68064400  0.50459300  0.68125400  1
  O  O35  1  0.43521200  0.94521100  0.38042200  1
  O  O36  1  0.50459300  0.82333900  0.82394800  1
  O  O37  1  0.82333900  0.99939000  0.31874600  1
  O  O38  1  0.77795600  0.57501300  0.85177700  1
  O  O39  1  0.87927100  0.11191700  0.47882600  1
  O  O40  1  0.50000000  0.50000000  0.00000000  1
  O  O41  1  0.40044500  0.87927100  0.76735500  1
  O  O42  1  0.12072900  0.88808300  0.52117400  1
  O  O43  1  0.34074900  0.18587000  0.02453000  1
  O  O44  1  0.11191700  0.63309000  0.23264500  1
  O  O45  1  0.23941100  0.70100700  0.94041800  1
  O  O46  1  0.42498700  0.27676400  0.20294300  1
  O  O47  1  0.63309000  0.40044500  0.52117400  1
  O  O48  1  0.18587000  0.16134000  0.84512100  1
  O  O49  1  0.36691000  0.59955500  0.47882600  1
  O  O50  1  0.17666100  0.00061000  0.68125400  1
  O  O51  1  0.84246600  0.15927400  0.00174000  1
  O  O52  1  0.40922300  0.71983800  0.64567000  1
  O  O53  1  0.72323600  0.92617900  0.14822300  1
  O  O54  1  0.94521100  0.56478800  0.50999900  1
  O  O55  1  0.92583200  0.23644700  0.64567000  1
  O  O56  1  0.27676400  0.07382100  0.85177700  1
loop_
_geom_bond_atom_site_label_1
_geom_bond_atom_site_label_2
_geom_bond_distance
_geom_bond_site_symmetry_2
Ba0 O49 2.848803 1_555
Ba0 O39 2.848811 1_565
Ba0 O52 2.864496 1_555
Ba0 O55 2.864496 1_565
Ba0 O6 2.884944 1_555
Ba0 O6 2.884944 1_665
Ba0 O20 2.901634 1_555
Ba0 O19 2.989430 1_555
Ba1 O39 2.745646 1_565
Ba1 O49 2.745658 1_555
Ba1 O22 2.831899 1_565
Ba1 O35 2.855173 1_555
Ba1 O5 2.879550 1_555
Ba1 O5 2.879550 1_665
Ba1 O55 3.114002 1_565
Ba1 O52 3.114002 1_555
Ba1 O25 3.265088 1_555
Ba1 O12 3.265088 1_565
Ba2 O1 2.732929 1_555
Ba2 O0 2.751612 1_556
Ba2 O23 2.883869 1_655
Ba2 O23 2.883869 1_545
Ba2 O21 2.921441 1_556
Ba2 O43 2.921441 1_556
Ba2 O38 3.192512 1_555
Ba2 O56 3.192512 1_555
Ba2 O31 3.347121 1_556
Ba2 O26 3.347124 1_556
Ba3 O16 2.620152 1_555
Ba3 O10 2.635763 1_555
Ba3 O19 2.895533 1_445
Ba3 O19 2.895533 1_555
Ba3 O49 2.900724 1_555
Ba3 O39 2.900736 1_455
Ba3 O6 3.037925 1_555
Ba3 O29 3.105567 1_555
Ba3 O37 3.105567 1_445
Ba4 O45 2.620138 1_554
Ba4 O23 2.635755 1_554
Ba4 O0 2.895528 1_565
Ba4 O0 2.895534 1_455
Ba4 O30 2.900736 1_565
Ba4 O44 2.900740 1_555
Ba4 O8 3.037933 1_555
Ba4 O26 3.105581 1_565
Ba4 O31 3.105587 1_455
Ba5 O41 2.745658 1_555
Ba5 O7 2.745659 1_455
Ba5 O54 2.831886 1_455
Ba5 O5 2.855162 1_555
Ba5 O22 2.879547 1_565
Ba5 O22 2.879553 1_455
Ba5 O3 3.114002 1_555
Ba5 O2 3.114002 1_455
Ba5 O52 3.265088 1_555
Ba5 O55 3.265088 1_455
Ba6 O7 2.848787 1_455
Ba6 O41 2.848795 1_555
Ba6 O3 2.864481 1_555
Ba6 O2 2.864484 1_455
Ba6 O1 2.884942 1_565
Ba6 O1 2.884948 1_455
Ba6 O23 2.901649 1_555
Ba6 O45 2.989439 1_555
Ba7 O11 2.732929 1_555
Ba7 O19 2.751612 1_555
Ba7 O10 2.883869 1_665
Ba7 O10 2.883869 1_555
Ba7 O32 2.921441 1_555
Ba7 O15 2.921441 1_555
Ba7 O46 3.192512 1_555
Ba7 O14 3.192512 1_555
Ba7 O29 3.347108 1_555
Ba7 O37 3.347108 1_555
Ba8 O44 2.848787 1_655
Ba8 O30 2.848795 1_555
Ba8 O12 2.864481 1_555
Ba8 O25 2.864484 1_655
Ba8 O8 2.884942 1_545
Ba8 O8 2.884948 1_655
Ba8 O51 2.901649 1_555
Ba8 O0 2.989439 1_555
Ba9 O6 2.732929 1_555
Ba9 O16 2.751612 1_555
Ba9 O20 2.883869 1_555
Ba9 O20 2.883869 1_445
Ba9 O48 2.921441 1_555
Ba9 O18 2.921441 1_555
Ba9 O4 3.192512 1_555
Ba9 O33 3.192512 1_555
Ba9 O50 3.347108 1_555
Ba9 O34 3.347108 1_555
Ba10 O0 2.620138 1_556
Ba10 O51 2.635755 1_556
Ba10 O45 2.895528 1_545
Ba10 O45 2.895534 1_655
Ba10 O41 2.900736 1_545
Ba10 O7 2.900740 1_555
Ba10 O1 3.037933 1_555
Ba10 O36 3.105581 1_545
Ba10 O9 3.105587 1_655
Ba11 O42 2.745646 1_545
Ba11 O47 2.745658 1_555
Ba11 O35 2.831899 1_545
Ba11 O22 2.855173 1_555
Ba11 O54 2.879550 1_555
Ba11 O54 2.879550 1_445
Ba11 O24 3.114002 1_555
Ba11 O27 3.114002 1_545
Ba11 O2 3.265088 1_555
Ba11 O3 3.265088 1_545
Ba12 O19 2.620152 1_555
Ba12 O20 2.635763 1_555
Ba12 O16 2.895533 1_665
Ba12 O16 2.895533 1_555
Ba12 O47 2.900724 1_555
Ba12 O42 2.900736 1_655
Ba12 O11 3.037925 1_555
Ba12 O50 3.105567 1_665
Ba12 O34 3.105567 1_555
Ba13 O8 2.732929 1_555
Ba13 O45 2.751612 1_554
Ba13 O51 2.883869 1_455
Ba13 O51 2.883869 1_565
Ba13 O28 2.921441 1_554
Ba13 O13 2.921441 1_554
Ba13 O17 3.192512 1_555
Ba13 O53 3.192512 1_555
Ba13 O9 3.347121 1_554
Ba13 O36 3.347124 1_554
Ba14 O30 2.745658 1_555
Ba14 O44 2.745659 1_655
Ba14 O5 2.831886 1_655
Ba14 O54 2.855162 1_555
Ba14 O35 2.879547 1_545
Ba14 O35 2.879553 1_655
Ba14 O12 3.114002 1_555
Ba14 O25 3.114002 1_655
Ba14 O27 3.265088 1_655
Ba14 O24 3.265088 1_555
Ba15 O40 2.877667 1_555
Ba15 O40 2.877667 1_445
Ba15 O43 2.939196 1_555
Ba15 O32 2.939196 1_555
Ba15 O13 2.939196 1_554
Ba15 O15 2.939196 1_445
Ba15 O48 2.939196 1_554
Ba15 O21 2.939196 1_445
Ba15 O18 2.939196 1_444
Ba15 O28 2.939196 1_444
Ba16 O47 2.848803 1_555
Ba16 O42 2.848811 1_545
Ba16 O24 2.864496 1_555
Ba16 O27 2.864496 1_545
Ba16 O11 2.884944 1_445
Ba16 O11 2.884944 1_555
Ba16 O10 2.901634 1_555
Ba16 O16 2.989430 1_555
Ho0 O56 2.282916 1_555
Ho0 O38 2.282916 1_555
Ho0 O34 2.305075 1_555
Ho0 O50 2.305075 1_555
Ho0 O1 2.382332 1_555
Ho0 O2 2.398515 1_555
Ho0 O3 2.398515 1_545
Ho1 O29 2.296466 1_555
Ho1 O37 2.296466 1_445
Ho1 O53 2.333041 1_445
Ho1 O17 2.333041 1_555
Ho1 O15 2.402561 1_445
Ho1 O32 2.402561 1_555
Ho1 O10 2.493013 1_555
Ho2 O3 2.225860 1_655
Ho2 O2 2.225860 1_555
Ho2 O42 2.306649 1_655
Ho2 O47 2.306656 1_555
Ho2 O50 2.360805 1_665
Ho2 O34 2.360805 1_555
Ho2 O54 2.526048 1_555
Ho3 O34 2.296466 1_555
Ho3 O50 2.296466 1_665
Ho3 O38 2.333041 1_555
Ho3 O56 2.333041 1_665
Ho3 O18 2.402561 1_555
Ho3 O48 2.402561 1_665
Ho3 O20 2.493013 1_555
Ho4 O15 2.287670 1_555
Ho4 O32 2.287670 1_555
Ho4 O53 2.301351 1_555
Ho4 O17 2.301351 1_555
Ho4 O40 2.312918 1_555
Ho4 O13 2.438247 1_554
Ho4 O28 2.438247 1_554
Ho5 O55 2.225860 1_555
Ho5 O52 2.225860 1_545
Ho5 O41 2.306656 1_545
Ho5 O7 2.306666 1_555
Ho5 O36 2.360792 1_545
Ho5 O9 2.360795 1_655
Ho5 O22 2.526037 1_555
Ho6 O13 2.287670 1_555
Ho6 O28 2.287670 1_555
Ho6 O33 2.301351 1_555
Ho6 O4 2.301351 1_555
Ho6 O40 2.312918 1_556
Ho6 O48 2.438247 1_555
Ho6 O18 2.438247 1_555
Ho7 O33 2.282916 1_555
Ho7 O4 2.282916 1_555
Ho7 O9 2.305064 1_555
Ho7 O36 2.305067 1_555
Ho7 O6 2.382332 1_555
Ho7 O52 2.398515 1_555
Ho7 O55 2.398515 1_455
Ho8 O25 2.225860 1_555
Ho8 O12 2.225860 1_455
Ho8 O39 2.306649 1_455
Ho8 O49 2.306656 1_555
Ho8 O37 2.360805 1_445
Ho8 O29 2.360805 1_555
Ho8 O5 2.526048 1_555
Ho9 O26 2.296470 1_565
Ho9 O31 2.296474 1_455
Ho9 O46 2.333041 1_565
Ho9 O14 2.333041 1_455
Ho9 O21 2.402561 1_455
Ho9 O43 2.402561 1_565
Ho9 O23 2.493013 1_554
Ho10 O43 2.287670 1_555
Ho10 O21 2.287670 1_555
Ho10 O46 2.301351 1_555
Ho10 O14 2.301351 1_555
Ho10 O40 2.312918 1_555
Ho10 O32 2.438247 1_555
Ho10 O15 2.438247 1_555
Ho11 O18 2.287670 1_555
Ho11 O48 2.287670 1_555
Ho11 O38 2.301351 1_555
Ho11 O56 2.301351 1_555
Ho11 O40 2.312918 1_556
Ho11 O43 2.438247 1_556
Ho11 O21 2.438247 1_556
Ho12 O17 2.282916 1_555
Ho12 O53 2.282916 1_555
Ho12 O37 2.305075 1_555
Ho12 O29 2.305075 1_555
Ho12 O8 2.382332 1_555
Ho12 O25 2.398515 1_555
Ho12 O12 2.398515 1_565
Ho13 O46 2.282916 1_555
Ho13 O14 2.282916 1_555
Ho13 O31 2.305064 1_555
Ho13 O26 2.305067 1_555
Ho13 O11 2.382332 1_555
Ho13 O24 2.398515 1_555
Ho13 O27 2.398515 1_655
Ho14 O24 2.225860 1_565
Ho14 O27 2.225860 1_555
Ho14 O30 2.306656 1_565
Ho14 O44 2.306666 1_555
Ho14 O26 2.360792 1_565
Ho14 O31 2.360795 1_455
Ho14 O35 2.526037 1_555
Ho15 O36 2.296470 1_545
Ho15 O9 2.296474 1_655
Ho15 O33 2.333041 1_545
Ho15 O4 2.333041 1_655
Ho15 O28 2.402561 1_545
Ho15 O13 2.402561 1_655
Ho15 O51 2.493013 1_556
O0 Zn1 1.959545 1_555
O1 Pt1 2.090020 1_555
O2 Pt1 2.048653 1_555
O3 Pt1 2.048653 1_565
O4 Zn3 2.062170 1_445
O5 Pt2 2.107901 1_555
O6 Pt2 2.090028 1_555
O7 Pt1 2.055820 1_555
O7 Zn7 2.154079 1_655
O8 Pt0 2.090020 1_555
O9 Zn7 2.064629 1_555
O10 Zn5 1.983710 1_555
O11 Pt3 2.090028 1_555
O12 Pt0 2.048653 1_545
O13 Zn6 2.160589 1_456
O14 Zn5 2.062170 1_665
O15 Zn5 2.160594 1_665
O16 Zn0 1.959530 1_555
O17 Zn6 2.062171 1_455
O18 Zn3 2.160598 1_555
O19 Zn4 1.959530 1_555
O20 Zn3 1.983710 1_555
O21 Zn2 2.160589 1_654
O22 Pt1 2.107897 1_555
O23 Zn2 1.983724 1_555
O24 Pt3 2.048662 1_555
O25 Pt0 2.048653 1_555
O26 Zn1 2.064629 1_555
O27 Pt3 2.048665 1_455
O28 Zn6 2.160589 1_566
O29 Zn4 2.064629 1_555
O30 Pt0 2.055832 1_545
O30 Zn1 2.154065 1_555
O31 Zn1 2.064629 1_555
O32 Zn5 2.160598 1_555
O33 Zn3 2.062174 1_555
O34 Zn0 2.064629 1_555
O35 Pt0 2.107897 1_555
O36 Zn7 2.064629 1_555
O37 Zn4 2.064629 1_555
O38 Zn2 2.062171 1_655
O39 Pt2 2.055816 1_655
O39 Zn4 2.154085 1_545
O41 Pt1 2.055832 1_565
O41 Zn7 2.154065 1_555
O42 Pt3 2.055816 1_455
O42 Zn0 2.154085 1_565
O43 Zn2 2.160589 1_544
O44 Pt0 2.055820 1_555
O44 Zn1 2.154079 1_455
O45 Zn7 1.959545 1_555
O46 Zn5 2.062174 1_555
O47 Pt3 2.055820 1_555
O47 Zn0 2.154075 1_555
O48 Zn3 2.160594 1_445
O49 Pt2 2.055820 1_555
O49 Zn4 2.154075 1_555
O50 Zn0 2.064629 1_555
O51 Zn6 1.983724 1_555
O52 Pt2 2.048662 1_555
O53 Zn6 2.062171 1_565
O54 Pt3 2.107901 1_555
O55 Pt2 2.048665 1_655
O56 Zn2 2.062171 1_545
