# generated using pymatgen
data_Ca2IrO4
_symmetry_space_group_name_H-M   'P 1'
_cell_length_a   9.59654186
_cell_length_b   9.59654186
_cell_length_c   3.26339400
_cell_angle_alpha   90.00000000
_cell_angle_beta   90.00000000
_cell_angle_gamma   119.99999904
_symmetry_Int_Tables_number   1
_chemical_formula_structural   Ca2IrO4
_chemical_formula_sum   'Ca6 Ir3 O12'
_cell_volume   260.27333130
_cell_formula_units_Z   3
loop_
 _symmetry_equiv_pos_site_id
 _symmetry_equiv_pos_as_xyz
  1  'x, y, z'
loop_
 _atom_site_type_symbol
 _atom_site_label
 _atom_site_symmetry_multiplicity
 _atom_site_fract_x
 _atom_site_fract_y
 _atom_site_fract_z
 _atom_site_occupancy
  Ca  Ca0  1  0.00000000  0.00000000  0.00000000  1
  Ca  Ca1  1  0.33333300  0.66666700  0.50000000  1
  Ca  Ca2  1  0.66666700  0.33333300  0.50000000  1
  Ca  Ca3  1  0.68174100  0.00000000  0.50000000  1
  Ca  Ca4  1  0.31825900  0.31825900  0.50000000  1
  Ca  Ca5  1  0.00000000  0.68174100  0.50000000  1
  Ir  Ir0  1  0.31879200  0.00000000  0.00000000  1
  Ir  Ir1  1  0.68120800  0.68120800  0.00000000  1
  Ir  Ir2  1  0.00000000  0.31879200  0.00000000  1
  O  O0  1  0.18025000  0.00000000  0.50000000  1
  O  O1  1  0.81975000  0.81975000  0.50000000  1
  O  O2  1  0.00000000  0.18025000  0.50000000  1
  O  O3  1  0.44279300  0.00000000  0.50000000  1
  O  O4  1  0.55720700  0.55720700  0.50000000  1
  O  O5  1  0.00000000  0.44279300  0.50000000  1
  O  O6  1  0.44449200  0.24572000  0.00000000  1
  O  O7  1  0.80122800  0.55550800  0.00000000  1
  O  O8  1  0.75428000  0.19877200  0.00000000  1
  O  O9  1  0.19877200  0.75428000  0.00000000  1
  O  O10  1  0.55550800  0.80122800  0.00000000  1
  O  O11  1  0.24572000  0.44449200  0.00000000  1
loop_
_geom_bond_atom_site_label_1
_geom_bond_atom_site_label_2
_geom_bond_distance
_geom_bond_site_symmetry_2
Ca0 O0 2.377932 1_555
Ca0 O0 2.377932 1_554
Ca0 O2 2.377932 1_555
Ca0 O2 2.377932 1_554
Ca0 O1 2.377932 1_444
Ca0 O1 2.377932 1_445
Ca1 O9 2.474384 1_555
Ca1 O9 2.474384 1_556
Ca1 O10 2.474390 1_556
Ca1 O10 2.474390 1_555
Ca1 O11 2.474391 1_556
Ca1 O11 2.474391 1_555
Ca1 O3 2.824152 1_565
Ca1 O5 2.824154 1_555
Ca1 O4 2.824161 1_555
Ca2 O8 2.474384 1_556
Ca2 O8 2.474384 1_555
Ca2 O7 2.474390 1_555
Ca2 O7 2.474390 1_556
Ca2 O6 2.474391 1_555
Ca2 O6 2.474391 1_556
Ca2 O5 2.824152 1_655
Ca2 O3 2.824154 1_555
Ca2 O4 2.824161 1_555
Ca3 O3 2.293074 1_555
Ca3 O8 2.336193 1_556
Ca3 O8 2.336193 1_555
Ca3 O10 2.336193 1_545
Ca3 O10 2.336193 1_546
Ca3 O1 2.652757 1_545
Ca3 O2 2.652757 1_655
Ca4 O4 2.293075 1_555
Ca4 O11 2.336193 1_556
Ca4 O11 2.336193 1_555
Ca4 O6 2.336193 1_555
Ca4 O6 2.336193 1_556
Ca4 O0 2.652757 1_555
Ca4 O2 2.652757 1_555
Ca5 O5 2.293074 1_555
Ca5 O9 2.336193 1_556
Ca5 O9 2.336193 1_555
Ca5 O7 2.336193 1_455
Ca5 O7 2.336193 1_456
Ca5 O1 2.652757 1_455
Ca5 O0 2.652757 1_565
Ir0 O3 2.019527 1_555
Ir0 O3 2.019527 1_554
Ir0 O9 2.042324 1_545
Ir0 O6 2.042324 1_555
Ir0 O0 2.104773 1_555
Ir0 O0 2.104773 1_554
Ir1 O4 2.019527 1_554
Ir1 O4 2.019527 1_555
Ir1 O7 2.042324 1_555
Ir1 O10 2.042324 1_555
Ir1 O1 2.104773 1_554
Ir1 O1 2.104773 1_555
Ir2 O5 2.019527 1_555
Ir2 O5 2.019527 1_554
Ir2 O8 2.042324 1_455
Ir2 O11 2.042324 1_555
Ir2 O2 2.104773 1_554
Ir2 O2 2.104773 1_555
