# generated using pymatgen
data_Er3Si3O10F
_symmetry_space_group_name_H-M   'P 1'
_cell_length_a   11.17757500
_cell_length_b   7.34051600
_cell_length_c   11.94379494
_cell_angle_alpha   59.76165608
_cell_angle_beta   90.00000000
_cell_angle_gamma   90.00000000
_symmetry_Int_Tables_number   1
_chemical_formula_structural   Er3Si3O10F
_chemical_formula_sum   'Er12 Si12 O40 F4'
_cell_volume   846.64058707
_cell_formula_units_Z   4
loop_
 _symmetry_equiv_pos_site_id
 _symmetry_equiv_pos_as_xyz
  1  'x, y, z'
loop_
 _atom_site_type_symbol
 _atom_site_label
 _atom_site_symmetry_multiplicity
 _atom_site_fract_x
 _atom_site_fract_y
 _atom_site_fract_z
 _atom_site_occupancy
  Er  Er0  1  0.40174900  0.80492700  0.49698300  1
  Er  Er1  1  0.90174900  0.19507300  0.00301700  1
  Er  Er2  1  0.59825100  0.19507300  0.50301700  1
  Er  Er3  1  0.09825100  0.80492700  0.99698300  1
  Er  Er4  1  0.27070900  0.59522200  0.81099500  1
  Er  Er5  1  0.77070900  0.40477800  0.68900500  1
  Er  Er6  1  0.72929100  0.40477800  0.18900500  1
  Er  Er7  1  0.22929100  0.59522200  0.31099500  1
  Er  Er8  1  0.03138000  0.74478200  0.51781000  1
  Er  Er9  1  0.53138000  0.25521800  0.98219000  1
  Er  Er10  1  0.96862000  0.25521800  0.48219000  1
  Er  Er11  1  0.46862000  0.74478200  0.01781000  1
  Si  Si0  1  0.08594900  0.28446400  0.74076900  1
  Si  Si1  1  0.58594900  0.71553600  0.75923100  1
  Si  Si2  1  0.91405100  0.71553600  0.25923100  1
  Si  Si3  1  0.41405100  0.28446400  0.24076900  1
  Si  Si4  1  0.24439800  0.12210700  0.10979600  1
  Si  Si5  1  0.74439800  0.87789300  0.39020400  1
  Si  Si6  1  0.75560200  0.87789300  0.89020400  1
  Si  Si7  1  0.25560200  0.12210700  0.60979600  1
  Si  Si8  1  0.03651400  0.28586400  0.20854700  1
  Si  Si9  1  0.53651400  0.71413600  0.29145300  1
  Si  Si10  1  0.96348600  0.71413600  0.79145300  1
  Si  Si11  1  0.46348600  0.28586400  0.70854700  1
  O  O0  1  0.02555800  0.64999000  0.36325100  1
  O  O1  1  0.52555800  0.35001000  0.13674900  1
  O  O2  1  0.97444200  0.35001000  0.63674900  1
  O  O3  1  0.47444200  0.64999000  0.86325100  1
  O  O4  1  0.05035000  0.14809800  0.89324300  1
  O  O5  1  0.55035000  0.85190200  0.60675700  1
  O  O6  1  0.94965000  0.85190200  0.10675700  1
  O  O7  1  0.44965000  0.14809800  0.39324300  1
  O  O8  1  0.14302300  0.51479900  0.69674600  1
  O  O9  1  0.64302300  0.48520100  0.80325400  1
  O  O10  1  0.85697700  0.48520100  0.30325400  1
  O  O11  1  0.35697700  0.51479900  0.19674600  1
  O  O12  1  0.32190000  0.11350400  0.23118000  1
  O  O13  1  0.82190000  0.88649600  0.26882000  1
  O  O14  1  0.67810000  0.88649600  0.76882000  1
  O  O15  1  0.17810000  0.11350400  0.73118000  1
  O  O16  1  0.31929600  0.28765800  0.98120300  1
  O  O17  1  0.81929600  0.71234200  0.51879700  1
  O  O18  1  0.68070400  0.71234200  0.01879700  1
  O  O19  1  0.18070400  0.28765800  0.48120300  1
  O  O20  1  0.22638800  0.89386200  0.12019800  1
  O  O21  1  0.72638800  0.10613800  0.37980200  1
  O  O22  1  0.77361200  0.10613800  0.87980200  1
  O  O23  1  0.27361200  0.89386200  0.62019800  1
  O  O24  1  0.10712300  0.19531100  0.12236500  1
  O  O25  1  0.60712300  0.80468900  0.37763500  1
  O  O26  1  0.89287700  0.80468900  0.87763500  1
  O  O27  1  0.39287700  0.19531100  0.62236500  1
  O  O28  1  0.39493000  0.49554300  0.69125100  1
  O  O29  1  0.89493000  0.50445700  0.80874900  1
  O  O30  1  0.60507000  0.50445700  0.30874900  1
  O  O31  1  0.10507000  0.49554300  0.19125100  1
  O  O32  1  0.02117600  0.10316800  0.36278500  1
  O  O33  1  0.52117600  0.89683200  0.13721500  1
  O  O34  1  0.97882400  0.89683200  0.63721500  1
  O  O35  1  0.47882400  0.10316800  0.86278500  1
  O  O36  1  0.40929600  0.65499000  0.37132200  1
  O  O37  1  0.90929600  0.34501000  0.12867800  1
  O  O38  1  0.59070400  0.34501000  0.62867800  1
  O  O39  1  0.09070400  0.65499000  0.87132200  1
  F  F0  1  0.21479500  0.75664600  0.44015300  1
  F  F1  1  0.71479500  0.24335400  0.05984700  1
  F  F2  1  0.78520500  0.24335400  0.55984700  1
  F  F3  1  0.28520500  0.75664600  0.94015300  1
loop_
_geom_bond_atom_site_label_1
_geom_bond_atom_site_label_2
_geom_bond_distance
_geom_bond_site_symmetry_2
Er0 O7 2.241394 1_565
Er0 O5 2.247711 1_555
Er0 O36 2.266020 1_555
Er0 F0 2.279349 1_555
Er0 O28 2.289060 1_555
Er0 O23 2.368750 1_555
Er1 O6 2.241394 1_545
Er1 O4 2.247711 1_654
Er1 O37 2.266020 1_555
Er1 F1 2.279349 1_555
Er1 O29 2.289060 1_554
Er1 O22 2.368750 1_554
Er2 O5 2.241394 1_545
Er2 O7 2.247711 1_555
Er2 O38 2.266020 1_555
Er2 F2 2.279349 1_555
Er2 O30 2.289060 1_555
Er2 O21 2.368750 1_555
Er3 O4 2.241394 1_565
Er3 O6 2.247711 1_456
Er3 O39 2.266020 1_555
Er3 F3 2.279349 1_555
Er3 O31 2.289060 1_556
Er3 O20 2.368750 1_556
Er4 O16 2.214074 1_555
Er4 O23 2.228951 1_555
Er4 O8 2.249194 1_555
Er4 O39 2.253501 1_555
Er4 O28 2.358548 1_555
Er4 F3 2.377211 1_555
Er4 O3 2.447390 1_555
Er5 O17 2.214074 1_555
Er5 O22 2.228951 1_555
Er5 O9 2.249194 1_555
Er5 O38 2.253501 1_555
Er5 O29 2.358548 1_555
Er5 F2 2.377211 1_555
Er5 O2 2.447390 1_555
Er6 O18 2.214074 1_555
Er6 O21 2.228951 1_555
Er6 O10 2.249194 1_555
Er6 O37 2.253501 1_555
Er6 O30 2.358548 1_555
Er6 F1 2.377211 1_555
Er6 O1 2.447390 1_555
Er7 O19 2.214074 1_555
Er7 O20 2.228951 1_555
Er7 O11 2.249194 1_555
Er7 O36 2.253501 1_555
Er7 O31 2.358548 1_555
Er7 F0 2.377211 1_555
Er7 O0 2.447390 1_555
Er8 F0 2.233735 1_555
Er8 O0 2.278145 1_555
Er8 O34 2.286471 1_455
Er8 O8 2.311025 1_555
Er8 O32 2.335824 1_565
Er8 O17 2.381950 1_455
Er8 O2 2.583464 1_455
Er9 F1 2.233735 1_556
Er9 O1 2.278145 1_556
Er9 O35 2.286471 1_555
Er9 O9 2.311025 1_555
Er9 O33 2.335824 1_546
Er9 O16 2.381950 1_555
Er9 O3 2.583464 1_555
Er10 F2 2.233735 1_555
Er10 O2 2.278145 1_555
Er10 O32 2.286471 1_655
Er10 O10 2.311025 1_555
Er10 O34 2.335824 1_545
Er10 O19 2.381950 1_655
Er10 O0 2.583464 1_655
Er11 F3 2.233735 1_554
Er11 O3 2.278145 1_554
Er11 O33 2.286471 1_555
Er11 O11 2.311025 1_555
Er11 O35 2.335824 1_564
Er11 O18 2.381950 1_555
Er11 O1 2.583464 1_555
O0 Si2 1.651190 1_455
O1 Si3 1.651190 1_555
O2 Si0 1.651190 1_655
O3 Si1 1.651190 1_555
O4 Si0 1.625037 1_555
O5 Si1 1.625037 1_555
O6 Si2 1.625037 1_555
O7 Si3 1.625037 1_555
O8 Si0 1.626888 1_555
O9 Si1 1.626888 1_555
O10 Si2 1.626888 1_555
O11 Si3 1.626888 1_555
O12 Si4 1.662559 1_555
O12 Si3 1.671433 1_555
O13 Si5 1.662559 1_555
O13 Si2 1.671433 1_555
O14 Si6 1.662559 1_555
O14 Si1 1.671433 1_555
O15 Si7 1.662559 1_555
O15 Si0 1.671433 1_555
O16 Si4 1.629943 1_556
O17 Si5 1.629943 1_555
O18 Si6 1.629943 1_554
O19 Si7 1.629943 1_555
O20 Si4 1.628924 1_565
O21 Si5 1.628924 1_545
O22 Si6 1.628924 1_545
O23 Si7 1.628924 1_565
O24 Si4 1.657385 1_555
O24 Si8 1.677320 1_555
O25 Si5 1.657385 1_555
O25 Si9 1.677320 1_555
O26 Si6 1.657385 1_555
O26 Si10 1.677320 1_555
O27 Si7 1.657385 1_555
O27 Si11 1.677320 1_555
O28 Si11 1.636649 1_555
O29 Si10 1.636649 1_555
O30 Si9 1.636649 1_555
O31 Si8 1.636649 1_555
O32 Si8 1.653253 1_555
O33 Si9 1.653253 1_555
O34 Si10 1.653253 1_555
O35 Si11 1.653253 1_555
O36 Si9 1.644203 1_555
O37 Si8 1.644203 1_655
O38 Si11 1.644203 1_555
O39 Si10 1.644203 1_455
