# generated using pymatgen
data_Np3As4
_symmetry_space_group_name_H-M   'P 1'
_cell_length_a   7.43731165
_cell_length_b   7.43731154
_cell_length_c   7.43731289
_cell_angle_alpha   109.47122139
_cell_angle_beta   109.47122109
_cell_angle_gamma   109.47122053
_symmetry_Int_Tables_number   1
_chemical_formula_structural   Np3As4
_chemical_formula_sum   'Np6 As8'
_cell_volume   316.68399171
_cell_formula_units_Z   2
loop_
 _symmetry_equiv_pos_site_id
 _symmetry_equiv_pos_as_xyz
  1  'x, y, z'
loop_
 _atom_site_type_symbol
 _atom_site_label
 _atom_site_symmetry_multiplicity
 _atom_site_fract_x
 _atom_site_fract_y
 _atom_site_fract_z
 _atom_site_occupancy
  Np  Np0  1  0.12500000  0.75000000  0.87500000  1
  Np  Np1  1  0.62500000  0.37500000  0.25000000  1
  Np  Np2  1  0.37500000  0.25000000  0.62500000  1
  Np  Np3  1  0.75000000  0.87500000  0.12500000  1
  Np  Np4  1  0.25000000  0.62500000  0.37500000  1
  Np  Np5  1  0.87500000  0.12500000  0.75000000  1
  As  As0  1  0.65706649  0.65706649  0.65706649  1
  As  As1  1  0.00000000  0.84293351  0.50000000  1
  As  As2  1  0.84293351  0.50000000  0.00000000  1
  As  As3  1  0.00000000  0.34293351  0.50000000  1
  As  As4  1  0.50000000  -0.00000000  0.84293351  1
  As  As5  1  0.50000000  -0.00000000  0.34293351  1
  As  As6  1  0.34293351  0.50000000  0.00000000  1
  As  As7  1  0.15706649  0.15706649  0.15706649  1
loop_
_geom_bond_atom_site_label_1
_geom_bond_atom_site_label_2
_geom_bond_distance
_geom_bond_site_symmetry_2
As0 Np2 2.928208 1_555
As0 Np4 2.928208 1_555
As0 Np1 2.928208 1_555
As0 Np5 3.017519 1_565
As0 Np0 3.017519 1_655
As0 Np3 3.017519 1_556
As1 Np2 2.928207 1_565
As1 Np5 2.928208 1_465
As1 Np3 2.928208 1_455
As1 Np1 3.017519 1_455
As1 Np4 3.017519 1_555
As1 Np0 3.017519 1_555
As2 Np5 2.928208 1_554
As2 Np0 2.928208 1_654
As2 Np4 2.928208 1_655
As2 Np3 3.017519 1_555
As2 Np2 3.017519 1_554
As2 Np1 3.017519 1_555
As3 Np1 2.928208 1_455
As3 Np4 2.928208 1_555
As3 Np0 2.928208 1_555
As3 Np2 3.017519 1_555
As3 Np3 3.017519 1_445
As3 Np5 3.017519 1_455
As4 Np0 2.928208 1_545
As4 Np3 2.928208 1_546
As4 Np1 2.928208 1_556
As4 Np5 3.017519 1_555
As4 Np2 3.017519 1_555
As4 Np4 3.017519 1_545
As5 Np4 2.928208 1_545
As5 Np2 2.928208 1_555
As5 Np5 2.928208 1_555
As5 Np1 3.017519 1_555
As5 Np3 3.017519 1_545
As5 Np0 3.017519 1_544
As6 Np3 2.928207 1_555
As6 Np1 2.928208 1_555
As6 Np2 2.928208 1_554
As6 Np5 3.017519 1_454
As6 Np0 3.017519 1_554
As6 Np4 3.017519 1_555
As7 Np3 2.928208 1_445
As7 Np0 2.928208 1_544
As7 Np5 2.928208 1_454
As7 Np4 3.017519 1_555
As7 Np1 3.017519 1_555
As7 Np2 3.017519 1_555
