# generated using pymatgen
data_Cs2CdI4
_symmetry_space_group_name_H-M   'P 1'
_cell_length_a   8.61154854
_cell_length_b   11.00576206
_cell_length_c   15.10859914
_cell_angle_alpha   90.00000000
_cell_angle_beta   90.00000000
_cell_angle_gamma   90.00000000
_symmetry_Int_Tables_number   1
_chemical_formula_structural   Cs2CdI4
_chemical_formula_sum   'Cs8 Cd4 I16'
_cell_volume   1431.94247613
_cell_formula_units_Z   4
loop_
 _symmetry_equiv_pos_site_id
 _symmetry_equiv_pos_as_xyz
  1  'x, y, z'
loop_
 _atom_site_type_symbol
 _atom_site_label
 _atom_site_symmetry_multiplicity
 _atom_site_fract_x
 _atom_site_fract_y
 _atom_site_fract_z
 _atom_site_occupancy
  Cs  Cs0  1  0.25000000  0.47829320  0.16907560  1
  Cs  Cs1  1  0.25000000  0.61516371  0.57653128  1
  Cs  Cs2  1  0.75000000  0.38483629  0.42346872  1
  Cs  Cs3  1  0.25000000  0.11516371  0.92346872  1
  Cs  Cs4  1  0.25000000  0.97829320  0.33092440  1
  Cs  Cs5  1  0.75000000  0.52170680  0.83092440  1
  Cs  Cs6  1  0.75000000  0.88483629  0.07653128  1
  Cs  Cs7  1  0.75000000  0.02170680  0.66907560  1
  Cd  Cd0  1  0.25000000  0.72363034  0.92469073  1
  Cd  Cd1  1  0.25000000  0.22363034  0.57530927  1
  Cd  Cd2  1  0.75000000  0.27636966  0.07530927  1
  Cd  Cd3  1  0.75000000  0.77636966  0.42469073  1
  I  I0  1  0.01162795  0.17155678  0.15427675  1
  I  I1  1  0.51162795  0.32844322  0.65427675  1
  I  I2  1  0.75000000  0.18312073  0.90189035  1
  I  I3  1  0.25000000  0.47162018  0.90825979  1
  I  I4  1  0.48837205  0.67155678  0.34572325  1
  I  I5  1  0.25000000  0.81687927  0.09810965  1
  I  I6  1  0.51162795  0.82844322  0.84572325  1
  I  I7  1  0.75000000  0.68312073  0.59810965  1
  I  I8  1  0.75000000  0.02837982  0.40825979  1
  I  I9  1  0.75000000  0.52837982  0.09174021  1
  I  I10  1  0.48837205  0.17155678  0.15427675  1
  I  I11  1  0.98837205  0.32844322  0.65427675  1
  I  I12  1  0.25000000  0.31687927  0.40189035  1
  I  I13  1  0.98837205  0.82844322  0.84572325  1
  I  I14  1  0.25000000  0.97162018  0.59174021  1
  I  I15  1  0.01162795  0.67155678  0.34572325  1
loop_
_geom_bond_atom_site_label_1
_geom_bond_atom_site_label_2
_geom_bond_distance
_geom_bond_site_symmetry_2
Cs0 I5 3.877582 1_555
Cs0 I12 3.940651 1_555
Cs0 I3 3.941246 1_554
Cs0 I0 3.957306 1_555
Cs0 I10 3.957306 1_555
Cs0 I15 3.982587 1_555
Cs0 I4 3.982587 1_555
Cs0 I9 4.495418 1_455
Cs0 I9 4.495418 1_555
Cs1 I14 3.929799 1_555
Cs1 I1 4.051360 1_555
Cs1 I11 4.051360 1_455
Cs1 I4 4.093832 1_555
Cs1 I15 4.093832 1_555
Cs1 I12 4.211792 1_555
Cs1 I7 4.382392 1_555
Cs1 I7 4.382392 1_455
Cs2 I8 3.929799 1_555
Cs2 I4 4.051360 1_555
Cs2 I15 4.051360 1_655
Cs2 I11 4.093832 1_555
Cs2 I1 4.093832 1_555
Cs2 I7 4.211792 1_555
Cs2 I12 4.382392 1_655
Cs2 I12 4.382392 1_555
Cs3 I3 3.929799 1_555
Cs3 I13 4.051360 1_445
Cs3 I6 4.051360 1_545
Cs3 I10 4.093832 1_556
Cs3 I0 4.093832 1_556
Cs3 I5 4.211792 1_546
Cs3 I2 4.382392 1_455
Cs3 I2 4.382392 1_555
Cs4 I12 3.877582 1_565
Cs4 I5 3.940651 1_555
Cs4 I14 3.941246 1_555
Cs4 I4 3.957306 1_555
Cs4 I15 3.957306 1_555
Cs4 I10 3.982587 1_565
Cs4 I0 3.982587 1_565
Cs4 I8 4.495418 1_465
Cs4 I8 4.495418 1_565
Cs5 I2 3.877582 1_555
Cs5 I7 3.940651 1_555
Cs5 I9 3.941246 1_556
Cs5 I6 3.957306 1_555
Cs5 I13 3.957306 1_555
Cs5 I1 3.982587 1_555
Cs5 I11 3.982587 1_555
Cs5 I3 4.495418 1_555
Cs5 I3 4.495418 1_655
Cs6 I9 3.929799 1_555
Cs6 I0 4.051360 1_665
Cs6 I10 4.051360 1_565
Cs6 I6 4.093832 1_554
Cs6 I13 4.093832 1_554
Cs6 I2 4.211792 1_564
Cs6 I5 4.382392 1_555
Cs6 I5 4.382392 1_655
Cs7 I7 3.877582 1_545
Cs7 I2 3.940651 1_555
Cs7 I8 3.941246 1_555
Cs7 I1 3.957306 1_555
Cs7 I11 3.957306 1_555
Cs7 I6 3.982587 1_545
Cs7 I13 3.982587 1_545
Cs7 I14 4.495418 1_545
Cs7 I14 4.495418 1_645
Cd0 I3 2.784651 1_555
Cd0 I13 2.798255 1_455
Cd0 I6 2.798255 1_555
Cd0 I5 2.813939 1_556
Cd1 I14 2.784651 1_545
Cd1 I11 2.798255 1_455
Cd1 I1 2.798255 1_555
Cd1 I12 2.813939 1_555
Cd2 I9 2.784651 1_555
Cd2 I10 2.798255 1_555
Cd2 I0 2.798255 1_655
Cd2 I2 2.813939 1_554
Cd3 I8 2.784651 1_565
Cd3 I4 2.798255 1_555
Cd3 I15 2.798255 1_655
Cd3 I7 2.813939 1_555
