# generated using pymatgen
data_SiO2
_symmetry_space_group_name_H-M   'P 1'
_cell_length_a   11.22230900
_cell_length_b   11.22230900
_cell_length_c   4.96642900
_cell_angle_alpha   90.00000000
_cell_angle_beta   90.00000000
_cell_angle_gamma   90.00000000
_symmetry_Int_Tables_number   1
_chemical_formula_structural   SiO2
_chemical_formula_sum   'Si16 O32'
_cell_volume   625.47315736
_cell_formula_units_Z   16
loop_
 _symmetry_equiv_pos_site_id
 _symmetry_equiv_pos_as_xyz
  1  'x, y, z'
loop_
 _atom_site_type_symbol
 _atom_site_label
 _atom_site_symmetry_multiplicity
 _atom_site_fract_x
 _atom_site_fract_y
 _atom_site_fract_z
 _atom_site_occupancy
  Si  Si0  1  0.10998600  0.20427300  0.21844000  1
  Si  Si1  1  0.39001400  0.70427300  0.71844000  1
  Si  Si2  1  0.79572700  0.10998600  0.21844000  1
  Si  Si3  1  0.20427300  0.89001400  0.21844000  1
  Si  Si4  1  0.60998600  0.29572700  0.71844000  1
  Si  Si5  1  0.29572700  0.60998600  0.28156000  1
  Si  Si6  1  0.89001400  0.20427300  0.78156000  1
  Si  Si7  1  0.60998600  0.70427300  0.28156000  1
  Si  Si8  1  0.70427300  0.60998600  0.71844000  1
  Si  Si9  1  0.10998600  0.79572700  0.78156000  1
  Si  Si10  1  0.29572700  0.39001400  0.71844000  1
  Si  Si11  1  0.39001400  0.29572700  0.28156000  1
  Si  Si12  1  0.70427300  0.39001400  0.28156000  1
  Si  Si13  1  0.79572700  0.89001400  0.78156000  1
  Si  Si14  1  0.20427300  0.10998600  0.78156000  1
  Si  Si15  1  0.89001400  0.79572700  0.21844000  1
  O  O0  1  0.10236400  0.10236400  0.00000000  1
  O  O1  1  0.25000000  0.75000000  0.75000000  1
  O  O2  1  0.89763600  0.89763600  0.00000000  1
  O  O3  1  0.60236400  0.60236400  0.50000000  1
  O  O4  1  0.25000000  0.25000000  0.75000000  1
  O  O5  1  0.79438000  0.50000000  0.50000000  1
  O  O6  1  0.75000000  0.75000000  0.75000000  1
  O  O7  1  0.75000000  0.25000000  0.75000000  1
  O  O8  1  0.50000000  0.20562000  0.50000000  1
  O  O9  1  0.61686300  0.61686300  0.00000000  1
  O  O10  1  0.70562000  0.00000000  0.00000000  1
  O  O11  1  0.20562000  0.50000000  0.50000000  1
  O  O12  1  0.11686300  0.11686300  0.50000000  1
  O  O13  1  0.29438000  0.00000000  0.00000000  1
  O  O14  1  0.10236400  0.89763600  0.00000000  1
  O  O15  1  0.38313700  0.61686300  0.00000000  1
  O  O16  1  0.89763600  0.10236400  0.00000000  1
  O  O17  1  0.39763600  0.39763600  0.50000000  1
  O  O18  1  0.25000000  0.75000000  0.25000000  1
  O  O19  1  0.88313700  0.88313700  0.50000000  1
  O  O20  1  0.00000000  0.70562000  0.00000000  1
  O  O21  1  0.75000000  0.25000000  0.25000000  1
  O  O22  1  0.61686300  0.38313700  0.00000000  1
  O  O23  1  0.39763600  0.60236400  0.50000000  1
  O  O24  1  0.75000000  0.75000000  0.25000000  1
  O  O25  1  0.38313700  0.38313700  0.00000000  1
  O  O26  1  0.11686300  0.88313700  0.50000000  1
  O  O27  1  0.50000000  0.79438000  0.50000000  1
  O  O28  1  0.00000000  0.29438000  0.00000000  1
  O  O29  1  0.88313700  0.11686300  0.50000000  1
  O  O30  1  0.60236400  0.39763600  0.50000000  1
  O  O31  1  0.25000000  0.25000000  0.25000000  1
loop_
_geom_bond_atom_site_label_1
_geom_bond_atom_site_label_2
_geom_bond_distance
_geom_bond_site_symmetry_2
O0 Si14 1.578670 1_554
O0 Si0 1.578670 1_555
O1 Si9 1.660369 1_555
O1 Si1 1.660369 1_555
O2 Si15 1.578670 1_555
O2 Si13 1.578670 1_554
O3 Si7 1.578670 1_555
O3 Si8 1.578670 1_555
O4 Si14 1.660369 1_555
O4 Si10 1.660369 1_555
O5 Si12 1.929499 1_555
O5 Si8 1.929499 1_555
O6 Si13 1.660369 1_555
O6 Si8 1.660369 1_555
O7 Si6 1.660369 1_555
O7 Si4 1.660369 1_555
O8 Si11 1.929499 1_555
O8 Si4 1.929499 1_555
O9 Si7 1.709848 1_555
O9 Si8 1.709848 1_554
O10 Si13 1.929499 1_544
O10 Si2 1.929499 1_555
O11 Si10 1.929499 1_555
O11 Si5 1.929499 1_555
O12 Si14 1.709848 1_555
O12 Si0 1.709848 1_555
O13 Si14 1.929499 1_554
O13 Si3 1.929499 1_545
O14 Si3 1.578670 1_555
O14 Si9 1.578670 1_554
O15 Si5 1.709848 1_555
O15 Si1 1.709848 1_554
O16 Si6 1.578670 1_554
O16 Si2 1.578670 1_555
O17 Si10 1.578670 1_555
O17 Si11 1.578670 1_555
O18 Si3 1.660369 1_555
O18 Si5 1.660369 1_555
O19 Si13 1.709848 1_555
O19 Si15 1.709848 1_555
O20 Si9 1.929499 1_554
O20 Si15 1.929499 1_455
O21 Si2 1.660369 1_555
O21 Si12 1.660369 1_555
O22 Si12 1.709848 1_555
O22 Si4 1.709848 1_554
O23 Si5 1.578670 1_555
O23 Si1 1.578670 1_555
O24 Si15 1.660369 1_555
O24 Si7 1.660369 1_555
O25 Si11 1.709848 1_555
O25 Si10 1.709848 1_554
O26 Si9 1.709848 1_555
O26 Si3 1.709848 1_555
O27 Si1 1.929499 1_555
O27 Si7 1.929499 1_555
O28 Si0 1.929499 1_555
O28 Si6 1.929499 1_454
O29 Si2 1.709848 1_555
O29 Si6 1.709848 1_555
O30 Si4 1.578670 1_555
O30 Si12 1.578670 1_555
O31 Si0 1.660369 1_555
O31 Si11 1.660369 1_555
