# generated using pymatgen
data_Ba4W(N2Cl)2
_symmetry_space_group_name_H-M   'P 1'
_cell_length_a   6.21460092
_cell_length_b   8.53370175
_cell_length_c   10.86498739
_cell_angle_alpha   81.07761331
_cell_angle_beta   90.00000000
_cell_angle_gamma   90.00000000
_symmetry_Int_Tables_number   1
_chemical_formula_structural   Ba4W(N2Cl)2
_chemical_formula_sum   'Ba8 W2 N8 Cl4'
_cell_volume   569.23635368
_cell_formula_units_Z   2
loop_
 _symmetry_equiv_pos_site_id
 _symmetry_equiv_pos_as_xyz
  1  'x, y, z'
loop_
 _atom_site_type_symbol
 _atom_site_label
 _atom_site_symmetry_multiplicity
 _atom_site_fract_x
 _atom_site_fract_y
 _atom_site_fract_z
 _atom_site_occupancy
  Ba  Ba0  1  0.75000000  0.28640442  0.29341446  1
  Ba  Ba1  1  0.75000000  0.00303513  0.62773476  1
  Ba  Ba2  1  0.75000000  0.44539383  0.62235298  1
  Ba  Ba3  1  0.75000000  0.81441423  0.08982056  1
  Ba  Ba4  1  0.25000000  0.99696487  0.37226524  1
  Ba  Ba5  1  0.25000000  0.55460617  0.37764702  1
  Ba  Ba6  1  0.25000000  0.18558577  0.91017944  1
  Ba  Ba7  1  0.25000000  0.71359558  0.70658554  1
  W  W0  1  0.75000000  0.77123597  0.39935950  1
  W  W1  1  0.25000000  0.22876403  0.60064050  1
  N  N0  1  0.25000000  0.03658413  0.70943597  1
  N  N1  1  0.00432454  0.24558233  0.49842936  1
  N  N2  1  0.50432454  0.75441767  0.50157064  1
  N  N3  1  0.99567546  0.75441767  0.50157064  1
  N  N4  1  0.75000000  0.61046466  0.29959397  1
  N  N5  1  0.75000000  0.96341587  0.29056403  1
  N  N6  1  0.49567546  0.24558233  0.49842936  1
  N  N7  1  0.25000000  0.38953534  0.70040603  1
  Cl  Cl0  1  0.25000000  0.32543865  0.16614632  1
  Cl  Cl1  1  0.75000000  0.67456135  0.83385368  1
  Cl  Cl2  1  0.25000000  0.84157104  0.09986644  1
  Cl  Cl3  1  0.75000000  0.15842896  0.90013356  1
loop_
_geom_bond_atom_site_label_1
_geom_bond_atom_site_label_2
_geom_bond_distance
_geom_bond_site_symmetry_2
Ba0 N6 2.709318 1_555
Ba0 N1 2.709318 1_655
Ba0 N5 2.761261 1_545
Ba0 N4 2.776639 1_555
Ba0 Cl0 3.396387 1_555
Ba0 Cl0 3.396387 1_655
Ba1 N6 2.802495 1_555
Ba1 N1 2.802495 1_655
Ba1 N2 3.100562 1_545
Ba1 N3 3.100562 1_545
Ba1 N0 3.256393 1_655
Ba1 N0 3.256393 1_555
Ba1 Cl1 3.305358 1_545
Ba1 Cl3 3.425668 1_555
Ba2 N6 2.816125 1_555
Ba2 N1 2.816125 1_655
Ba2 N3 3.151837 1_555
Ba2 N2 3.151837 1_555
Ba2 N7 3.236715 1_555
Ba2 N7 3.236715 1_655
Ba2 Cl1 3.240238 1_555
Ba2 Cl3 3.579552 1_555
Ba3 N4 2.644497 1_555
Ba3 N5 2.689638 1_555
Ba3 Cl2 3.119100 1_555
Ba3 Cl2 3.119100 1_655
Ba3 Cl1 3.191913 1_554
Ba3 Cl3 3.314992 1_564
Ba4 N3 2.802495 1_455
Ba4 N2 2.802495 1_555
Ba4 N1 3.100562 1_565
Ba4 N6 3.100562 1_565
Ba4 N5 3.256393 1_455
Ba4 N5 3.256393 1_555
Ba4 Cl0 3.305358 1_565
Ba4 Cl2 3.425668 1_555
Ba5 N3 2.816125 1_455
Ba5 N2 2.816125 1_555
Ba5 N1 3.151837 1_555
Ba5 N6 3.151837 1_555
Ba5 N4 3.236715 1_455
Ba5 N4 3.236715 1_555
Ba5 Cl0 3.240238 1_555
Ba5 Cl2 3.579552 1_555
Ba6 N7 2.644497 1_555
Ba6 N0 2.689638 1_555
Ba6 Cl3 3.119100 1_455
Ba6 Cl3 3.119100 1_555
Ba6 Cl0 3.191913 1_556
Ba6 Cl2 3.314992 1_546
Ba7 N3 2.709318 1_455
Ba7 N2 2.709318 1_555
Ba7 N0 2.761261 1_565
Ba7 N7 2.776639 1_555
Ba7 Cl1 3.396387 1_455
Ba7 Cl1 3.396387 1_555
N0 W1 1.866964 1_555
N1 W1 1.880282 1_555
N2 W0 1.880282 1_555
N3 W0 1.880282 1_555
N4 W0 1.875785 1_555
N5 W0 1.866964 1_555
N6 W1 1.880282 1_555
N7 W1 1.875785 1_555
