# generated using pymatgen
data_Mg(B6C)2
_symmetry_space_group_name_H-M   'P 1'
_cell_length_a   6.89707829
_cell_length_b   6.89717503
_cell_length_c   6.89715590
_cell_angle_alpha   132.05778963
_cell_angle_beta   109.93815117
_cell_angle_gamma   89.37635392
_symmetry_Int_Tables_number   1
_chemical_formula_structural   Mg(B6C)2
_chemical_formula_sum   'Mg2 B24 C4'
_cell_volume   217.59510080
_cell_formula_units_Z   2
loop_
 _symmetry_equiv_pos_site_id
 _symmetry_equiv_pos_as_xyz
  1  'x, y, z'
loop_
 _atom_site_type_symbol
 _atom_site_label
 _atom_site_symmetry_multiplicity
 _atom_site_fract_x
 _atom_site_fract_y
 _atom_site_fract_z
 _atom_site_occupancy
  Mg  Mg0  1  0.38722140  0.74999837  0.63722263  1
  Mg  Mg1  1  0.61277850  0.25000173  0.36277736  1
  B  B0  1  0.63692200  0.84532134  0.31232132  1
  B  B1  1  0.22494831  0.40633614  0.81861242  1
  B  B2  1  0.77549101  0.77448774  0.67804061  1
  B  B3  1  0.03300215  0.82459967  0.68768197  1
  B  B4  1  0.36307799  0.67539897  0.20840102  1
  B  B5  1  0.96699777  0.17540027  0.31231806  1
  B  B6  1  0.40355668  0.40254891  0.67804266  1
  B  B7  1  0.77505163  0.59366379  0.18138759  1
  B  B8  1  0.36307794  0.15467866  0.68767871  1
  B  B9  1  0.35364008  0.33292360  0.02070969  1
  B  B10  1  0.59644328  0.59745102  0.32195735  1
  B  B11  1  0.81221028  0.83293084  0.97928713  1
  B  B12  1  0.96699626  0.65467990  0.79159867  1
  B  B13  1  0.08772250  0.90633851  0.18138724  1
  B  B14  1  0.59644526  0.27448722  0.99899151  1
  B  B15  1  0.63692195  0.32460094  0.79159898  1
  B  B16  1  0.40355469  0.72551268  0.00100847  1
  B  B17  1  0.77548890  0.09744870  0.00100007  1
  B  B18  1  0.22451103  0.90255118  0.99899992  1
  B  B19  1  0.91227743  0.09366143  0.81861277  1
  B  B20  1  0.64635989  0.66707633  0.97929032  1
  B  B21  1  0.22450892  0.22551217  0.32195937  1
  B  B22  1  0.18778966  0.16706906  0.02071287  1
  B  B23  1  0.03300367  0.34532002  0.20840133  1
  C  C0  1  0.96719164  0.33812706  0.62906963  1
  C  C1  1  0.20905299  0.83812464  0.37092855  1
  C  C2  1  0.79094693  0.16187527  0.62907144  1
  C  C3  1  0.03280828  0.66187286  0.37093036  1
loop_
_geom_bond_atom_site_label_1
_geom_bond_atom_site_label_2
_geom_bond_distance
_geom_bond_site_symmetry_2
B0 C2 1.656938 1_565
B0 B20 1.763128 1_554
B0 B16 1.782877 1_555
B0 B10 1.783363 1_555
B1 C0 1.643169 1_455
B1 B9 1.754752 1_556
B1 B16 1.799470 1_556
B1 B6 1.799477 1_555
B2 B3 1.783352 1_655
B2 Mg0 2.590567 1_555
B2 Mg1 2.638053 1_555
B3 C3 1.656953 1_555
B4 C1 1.656927 1_555
B4 B9 1.763163 1_555
B5 C0 1.656952 1_555
B6 B8 1.783362 1_555
B6 Mg0 2.590599 1_555
B6 Mg1 2.638044 1_555
B7 C3 1.643168 1_655
B8 C1 1.656939 1_545
B8 B9 1.763128 1_556
B10 B2 1.730412 1_555
B10 B9 1.750679 1_555
B10 B4 1.782869 1_555
B10 B7 1.799477 1_555
B10 B14 1.809999 1_554
B10 Mg1 2.590598 1_555
B10 Mg0 2.638044 1_555
B11 B20 1.626522 1_555
B11 B17 1.750675 1_566
B11 B2 1.750689 1_555
B11 B13 1.754750 1_656
B11 B5 1.763132 1_566
B11 B12 1.763147 1_555
B12 C0 1.656937 1_555
B12 B2 1.782879 1_555
B12 B18 1.783378 1_655
B13 C1 1.643171 1_555
B13 B18 1.799462 1_554
B13 B21 1.799464 1_565
B14 B17 1.730401 1_556
B14 B9 1.750665 1_556
B14 B8 1.782877 1_555
B14 B15 1.783353 1_555
B14 B7 1.799470 1_556
B14 Mg1 2.590608 1_556
B14 Mg0 2.638072 1_545
B15 C2 1.656927 1_555
B15 B20 1.763163 1_555
B15 B6 1.782869 1_555
B16 B18 1.730401 1_554
B16 B20 1.750665 1_554
B16 B4 1.783353 1_555
B16 B6 1.809998 1_554
B16 Mg0 2.590609 1_554
B16 Mg1 2.638073 1_565
B17 B5 1.782898 1_555
B17 B23 1.783378 1_655
B17 B19 1.799462 1_554
B17 B2 1.809973 1_544
B17 Mg0 2.590562 1_544
B17 Mg1 2.638046 1_555
B18 B22 1.750675 1_566
B18 B3 1.782898 1_555
B18 B21 1.809973 1_566
B18 Mg1 2.590563 1_566
B18 Mg0 2.638046 1_555
B19 C2 1.643171 1_555
B19 B22 1.754750 1_656
B19 B2 1.799465 1_545
B20 B6 1.750679 1_555
B20 B7 1.754752 1_556
B21 B6 1.730412 1_555
B21 B22 1.750689 1_555
B21 B23 1.782879 1_555
B21 B5 1.783352 1_455
B21 Mg1 2.590567 1_555
B21 Mg0 2.638054 1_555
B22 B9 1.626523 1_555
B22 B3 1.763132 1_544
B22 B23 1.763147 1_555
B23 C3 1.656937 1_555
C0 C2 1.728467 1_555
C0 Mg1 2.278749 1_555
C1 C3 1.728467 1_555
C1 Mg0 2.278812 1_555
C2 Mg1 2.278814 1_555
C3 Mg0 2.278748 1_555
