# generated using pymatgen
data_Sr2UNiO6
_symmetry_space_group_name_H-M   'P 1'
_cell_length_a   5.83560500
_cell_length_b   5.83833500
_cell_length_c   10.04655976
_cell_angle_alpha   54.87159407
_cell_angle_beta   90.00000000
_cell_angle_gamma   90.00000000
_symmetry_Int_Tables_number   1
_chemical_formula_structural   Sr2UNiO6
_chemical_formula_sum   'Sr4 U2 Ni2 O12'
_cell_volume   279.94560310
_cell_formula_units_Z   2
loop_
 _symmetry_equiv_pos_site_id
 _symmetry_equiv_pos_as_xyz
  1  'x, y, z'
loop_
 _atom_site_type_symbol
 _atom_site_label
 _atom_site_symmetry_multiplicity
 _atom_site_fract_x
 _atom_site_fract_y
 _atom_site_fract_z
 _atom_site_occupancy
  Sr  Sr0  1  0.47318900  0.73858900  0.75249000  1
  Sr  Sr1  1  0.02681100  0.73858900  0.25249000  1
  Sr  Sr2  1  0.52681100  0.26141100  0.24751000  1
  Sr  Sr3  1  0.97318900  0.26141100  0.74751000  1
  U  U0  1  0.50000000  0.00000000  0.00000000  1
  U  U1  1  0.00000000  0.00000000  0.50000000  1
  Ni  Ni0  1  0.00000000  0.50000000  0.00000000  1
  Ni  Ni1  1  0.50000000  0.50000000  0.50000000  1
  O  O0  1  0.48547800  0.82787200  0.24806100  1
  O  O1  1  0.77847600  0.31497300  0.46103400  1
  O  O2  1  0.72461200  0.73695000  0.54145600  1
  O  O3  1  0.77538800  0.73695000  0.04145600  1
  O  O4  1  0.27847600  0.68502700  0.03896600  1
  O  O5  1  0.72152400  0.31497300  0.96103400  1
  O  O6  1  0.51452200  0.17212800  0.75193900  1
  O  O7  1  0.01452200  0.82787200  0.74806100  1
  O  O8  1  0.27538800  0.26305000  0.45854400  1
  O  O9  1  0.22152400  0.68502700  0.53896600  1
  O  O10  1  0.22461200  0.26305000  0.95854400  1
  O  O11  1  0.98547800  0.17212800  0.25193900  1
loop_
_geom_bond_atom_site_label_1
_geom_bond_atom_site_label_2
_geom_bond_distance
_geom_bond_site_symmetry_2
Ni0 O4 2.108965 1_555
Ni0 O5 2.108965 1_454
Ni0 O10 2.113851 1_554
Ni0 O3 2.113851 1_455
Ni0 O11 2.121821 1_455
Ni0 O7 2.121821 1_554
Ni1 O9 2.108965 1_555
Ni1 O1 2.108965 1_555
Ni1 O2 2.113851 1_555
Ni1 O8 2.113851 1_555
Ni1 O6 2.121821 1_555
Ni1 O0 2.121821 1_555
O0 U0 2.084645 1_565
O0 Sr2 2.539446 1_565
O0 Sr1 2.722350 1_555
O0 Sr1 3.197862 1_655
O1 U1 2.092259 1_655
O1 Sr1 2.577460 1_655
O1 Sr2 2.761962 1_555
O1 Sr3 2.938806 1_555
O2 U1 2.092508 1_665
O2 Sr0 2.582873 1_555
O2 Sr3 2.735612 1_555
O2 Sr2 3.003814 1_565
O3 U0 2.092508 1_565
O3 Sr1 2.582873 1_655
O3 Sr2 2.735612 1_555
O3 Sr3 3.003814 1_564
O4 U0 2.092259 1_565
O4 Sr2 2.577460 1_555
O4 Sr1 2.761962 1_555
O4 Sr0 2.938806 1_554
O5 U0 2.092259 1_556
O5 Sr0 2.577460 1_555
O5 Sr3 2.761962 1_555
O5 Sr2 2.938806 1_556
O6 U0 2.084645 1_556
O6 Sr0 2.539446 1_545
O6 Sr3 2.722350 1_555
O6 Sr3 3.197862 1_455
O7 U1 2.084645 1_565
O7 Sr3 2.539446 1_465
O7 Sr0 2.722350 1_555
O7 Sr0 3.197862 1_455
O8 U1 2.092508 1_555
O8 Sr2 2.582873 1_555
O8 Sr1 2.735612 1_555
O8 Sr0 3.003814 1_545
O9 U1 2.092259 1_565
O9 Sr3 2.577460 1_455
O9 Sr0 2.761962 1_555
O9 Sr1 2.938806 1_555
O10 U0 2.092508 1_556
O10 Sr3 2.582873 1_455
O10 Sr0 2.735612 1_555
O10 Sr1 3.003814 1_546
O11 U1 2.084645 1_655
O11 Sr1 2.539446 1_645
O11 Sr2 2.722350 1_555
O11 Sr2 3.197862 1_655
