# generated using pymatgen
data_KCaAl2F9
_symmetry_space_group_name_H-M   'P 1'
_cell_length_a   7.24723471
_cell_length_b   7.24723471
_cell_length_c   23.00917700
_cell_angle_alpha   90.00000000
_cell_angle_beta   90.00000000
_cell_angle_gamma   119.80701838
_symmetry_Int_Tables_number   1
_chemical_formula_structural   KCaAl2F9
_chemical_formula_sum   'K6 Ca6 Al12 F54'
_cell_volume   1048.61876113
_cell_formula_units_Z   6
loop_
 _symmetry_equiv_pos_site_id
 _symmetry_equiv_pos_as_xyz
  1  'x, y, z'
loop_
 _atom_site_type_symbol
 _atom_site_label
 _atom_site_symmetry_multiplicity
 _atom_site_fract_x
 _atom_site_fract_y
 _atom_site_fract_z
 _atom_site_occupancy
  K  K0  1  0.01045900  0.98954100  0.25000000  1
  K  K1  1  0.96417000  0.00704400  0.08348200  1
  K  K2  1  0.98954100  0.01045900  0.75000000  1
  K  K3  1  0.00704400  0.96417000  0.91651800  1
  K  K4  1  0.99295600  0.03583000  0.41651800  1
  K  K5  1  0.03583000  0.99295600  0.58348200  1
  Ca  Ca0  1  0.50083500  0.98827500  0.83347600  1
  Ca  Ca1  1  0.51532400  0.51532400  0.50000000  1
  Ca  Ca2  1  0.98827500  0.50083500  0.16652400  1
  Ca  Ca3  1  0.48467600  0.48467600  0.00000000  1
  Ca  Ca4  1  0.01172500  0.49916500  0.66652400  1
  Ca  Ca5  1  0.49916500  0.01172500  0.33347600  1
  Al  Al0  1  0.00167900  0.48451900  0.83626900  1
  Al  Al1  1  0.52061800  0.01759600  0.50322600  1
  Al  Al2  1  0.98240400  0.47938200  0.99677400  1
  Al  Al3  1  0.48451900  0.00167900  0.16373100  1
  Al  Al4  1  0.49685700  0.51255900  0.33011300  1
  Al  Al5  1  0.99832100  0.51548100  0.33626900  1
  Al  Al6  1  0.47938200  0.98240400  0.00322600  1
  Al  Al7  1  0.01759600  0.52061800  0.49677400  1
  Al  Al8  1  0.48744100  0.50314300  0.16988700  1
  Al  Al9  1  0.51255900  0.49685700  0.66988700  1
  Al  Al10  1  0.50314300  0.48744100  0.83011300  1
  Al  Al11  1  0.51548100  0.99832100  0.66373100  1
  F  F0  1  0.45977100  0.52084900  0.09319800  1
  F  F1  1  0.22652400  0.33487400  0.66544700  1
  F  F2  1  0.79757900  0.66011100  0.67792200  1
  F  F3  1  0.52084900  0.45977100  0.90680200  1
  F  F4  1  0.24773200  0.71304500  0.01135500  1
  F  F5  1  0.41500000  0.96631500  0.92684200  1
  F  F6  1  0.48592800  0.51407200  0.75000000  1
  F  F7  1  0.88633200  0.67211600  0.48260000  1
  F  F8  1  0.47915100  0.54022900  0.40680200  1
  F  F9  1  0.20242100  0.33988900  0.17792200  1
  F  F10  1  0.79558000  0.13070800  0.64701000  1
  F  F11  1  0.54022900  0.47915100  0.59319800  1
  F  F12  1  0.75226800  0.28695500  0.51135500  1
  F  F13  1  0.64108400  0.85949700  0.99280000  1
  F  F14  1  0.27007900  0.52050000  0.84421700  1
  F  F15  1  0.00550500  0.46071800  0.41647400  1
  F  F16  1  0.72992100  0.47950000  0.34421700  1
  F  F17  1  0.58500000  0.03368500  0.42684200  1
  F  F18  1  0.23279200  0.87349600  0.67620700  1
  F  F19  1  0.51407200  0.48592800  0.25000000  1
  F  F20  1  0.52050000  0.27007900  0.15578300  1
  F  F21  1  0.67211600  0.88633200  0.51740000  1
  F  F22  1  0.12650400  0.76720800  0.82379300  1
  F  F23  1  0.98839100  0.57353000  0.26028400  1
  F  F24  1  0.73787100  0.45465500  0.82171600  1
  F  F25  1  0.86929200  0.20442000  0.85299000  1
  F  F26  1  0.47950000  0.72992100  0.65578300  1
  F  F27  1  0.66011100  0.79757900  0.32207800  1
  F  F28  1  0.77347600  0.66512600  0.16544700  1
  F  F29  1  0.87349600  0.23279200  0.32379300  1
  F  F30  1  0.54534500  0.26212900  0.67828400  1
  F  F31  1  0.28695500  0.75226800  0.48864500  1
  F  F32  1  0.71304500  0.24773200  0.98864500  1
  F  F33  1  0.13070800  0.79558000  0.35299000  1
  F  F34  1  0.96631500  0.41500000  0.07315800  1
  F  F35  1  0.99449500  0.53928200  0.91647400  1
  F  F36  1  0.32788400  0.11366800  0.01740000  1
  F  F37  1  0.46071800  0.00550500  0.58352600  1
  F  F38  1  0.03368500  0.58500000  0.57315800  1
  F  F39  1  0.01160900  0.42647000  0.76028400  1
  F  F40  1  0.76720800  0.12650400  0.17620700  1
  F  F41  1  0.66512600  0.77347600  0.83455300  1
  F  F42  1  0.35891600  0.14050300  0.49280000  1
  F  F43  1  0.33487400  0.22652400  0.33455300  1
  F  F44  1  0.85949700  0.64108400  0.00720000  1
  F  F45  1  0.45465500  0.73787100  0.17828400  1
  F  F46  1  0.33988900  0.20242100  0.82207800  1
  F  F47  1  0.11366800  0.32788400  0.98260000  1
  F  F48  1  0.14050300  0.35891600  0.50720000  1
  F  F49  1  0.20442000  0.86929200  0.14701000  1
  F  F50  1  0.42647000  0.01160900  0.23971600  1
  F  F51  1  0.57353000  0.98839100  0.73971600  1
  F  F52  1  0.53928200  0.99449500  0.08352600  1
  F  F53  1  0.26212900  0.54534500  0.32171600  1
loop_
_geom_bond_atom_site_label_1
_geom_bond_atom_site_label_2
_geom_bond_distance
_geom_bond_site_symmetry_2
Ca0 F5 2.220125 1_555
Ca0 F51 2.220639 1_555
Ca0 F25 2.372211 1_565
Ca0 F46 2.374355 1_565
Ca0 F22 2.378047 1_555
Ca0 F41 2.384167 1_555
Ca1 F11 2.178723 1_555
Ca1 F8 2.178723 1_555
Ca1 F48 2.372782 1_555
Ca1 F42 2.372782 1_555
Ca1 F21 2.375624 1_555
Ca1 F7 2.375624 1_555
Ca2 F34 2.220125 1_555
Ca2 F23 2.220639 1_555
Ca2 F49 2.372211 1_655
Ca2 F9 2.374355 1_655
Ca2 F40 2.378047 1_555
Ca2 F28 2.384167 1_555
Ca3 F0 2.178723 1_555
Ca3 F3 2.178723 1_554
Ca3 F13 2.372782 1_554
Ca3 F44 2.372782 1_555
Ca3 F36 2.375624 1_555
Ca3 F47 2.375624 1_554
Ca4 F38 2.220125 1_555
Ca4 F39 2.220639 1_555
Ca4 F10 2.372211 1_455
Ca4 F2 2.374355 1_455
Ca4 F18 2.378047 1_555
Ca4 F1 2.384167 1_555
Ca5 F17 2.220125 1_555
Ca5 F50 2.220639 1_555
Ca5 F33 2.372211 1_545
Ca5 F27 2.374355 1_545
Ca5 F29 2.378047 1_555
Ca5 F43 2.384167 1_555
Al0 F25 1.803602 1_455
Al0 F22 1.804295 1_555
Al0 F39 1.808037 1_555
Al0 F14 1.838700 1_555
Al0 F24 1.844688 1_455
Al0 F35 1.893794 1_455
Al1 F21 1.804213 1_545
Al1 F42 1.806112 1_555
Al1 F17 1.807246 1_555
Al1 F12 1.845548 1_555
Al1 F31 1.854855 1_545
Al1 F37 1.889993 1_555
Al2 F47 1.804213 1_655
Al2 F44 1.806112 1_556
Al2 F34 1.807246 1_556
Al2 F32 1.845548 1_555
Al2 F4 1.854855 1_656
Al2 F35 1.889993 1_555
Al3 F49 1.803602 1_545
Al3 F40 1.804295 1_555
Al3 F50 1.808037 1_555
Al3 F20 1.838700 1_555
Al3 F45 1.844688 1_545
Al3 F52 1.893794 1_545
Al4 F8 1.787708 1_555
Al4 F43 1.807324 1_555
Al4 F27 1.808619 1_555
Al4 F53 1.841051 1_555
Al4 F16 1.848780 1_555
Al4 F19 1.864037 1_555
Al5 F33 1.803602 1_655
Al5 F29 1.804295 1_555
Al5 F23 1.808037 1_555
Al5 F16 1.838700 1_555
Al5 F53 1.844688 1_655
Al5 F15 1.893794 1_655
Al6 F36 1.804213 1_565
Al6 F13 1.806112 1_554
Al6 F5 1.807246 1_554
Al6 F4 1.845548 1_555
Al6 F32 1.854855 1_564
Al6 F52 1.889993 1_555
Al7 F7 1.804213 1_455
Al7 F48 1.806112 1_555
Al7 F38 1.807246 1_555
Al7 F31 1.845548 1_555
Al7 F12 1.854855 1_455
Al7 F15 1.889993 1_555
Al8 F0 1.787708 1_555
Al8 F28 1.807324 1_555
Al8 F9 1.808619 1_555
Al8 F45 1.841051 1_555
Al8 F20 1.848780 1_555
Al8 F19 1.864037 1_555
Al9 F11 1.787708 1_555
Al9 F1 1.807324 1_555
Al9 F2 1.808619 1_555
Al9 F30 1.841051 1_555
Al9 F26 1.848780 1_555
Al9 F6 1.864037 1_555
Al10 F3 1.787708 1_555
Al10 F41 1.807324 1_555
Al10 F46 1.808619 1_555
Al10 F24 1.841051 1_555
Al10 F14 1.848780 1_555
Al10 F6 1.864037 1_555
Al11 F10 1.803602 1_565
Al11 F18 1.804295 1_555
Al11 F51 1.808037 1_555
Al11 F26 1.838700 1_555
Al11 F30 1.844688 1_565
Al11 F37 1.893794 1_565
F1 K5 2.863995 1_545
F1 K2 2.871933 1_455
F2 K2 2.760616 1_565
F2 K5 3.062879 1_655
F5 K3 2.958409 1_555
F7 K4 2.798594 1_565
F7 K5 3.076350 1_655
F9 K0 2.760616 1_545
F9 K1 3.062879 1_455
F10 K5 2.809442 1_645
F10 K2 3.093350 1_555
F13 K1 2.913823 1_566
F13 K3 2.947899 1_655
F15 K4 3.035082 1_455
F17 K4 2.958409 1_555
F18 K5 2.927048 1_555
F18 K2 2.952224 1_465
F21 K5 2.798594 1_655
F21 K4 3.076350 1_565
F22 K3 2.927048 1_555
F22 K2 2.952224 1_465
F23 K0 2.948220 1_655
F25 K3 2.809442 1_645
F25 K2 3.093350 1_555
F27 K0 2.760616 1_655
F27 K4 3.062879 1_565
F28 K1 2.863995 1_565
F28 K0 2.871933 1_655
F29 K4 2.927048 1_555
F29 K0 2.952224 1_645
F33 K4 2.809442 1_465
F33 K0 3.093350 1_555
F34 K1 2.958409 1_555
F35 K3 3.035082 1_655
F36 K1 2.798594 1_455
F36 K3 3.076350 1_544
F37 K5 3.035082 1_545
F38 K5 2.958409 1_555
F39 K2 2.948220 1_455
F40 K1 2.927048 1_555
F40 K0 2.952224 1_645
F41 K3 2.863995 1_655
F41 K2 2.871933 1_565
F42 K5 2.913823 1_545
F42 K4 2.947899 1_455
F43 K4 2.863995 1_455
F43 K0 2.871933 1_545
F44 K3 2.913823 1_654
F44 K1 2.947899 1_565
F46 K2 2.760616 1_455
F46 K3 3.062879 1_545
F47 K3 2.798594 1_545
F47 K1 3.076350 1_456
F48 K4 2.913823 1_455
F48 K5 2.947899 1_545
F49 K1 2.809442 1_465
F49 K0 3.093350 1_555
F50 K0 2.948220 1_545
F51 K2 2.948220 1_565
F52 K1 3.035082 1_565
