# generated using pymatgen
data_TaIr
_symmetry_space_group_name_H-M   'P 1'
_cell_length_a   2.86185079
_cell_length_b   4.83237205
_cell_length_c   13.80566086
_cell_angle_alpha   90.00000000
_cell_angle_beta   90.00000000
_cell_angle_gamma   90.00000000
_symmetry_Int_Tables_number   1
_chemical_formula_structural   TaIr
_chemical_formula_sum   'Ta6 Ir6'
_cell_volume   190.92577023
_cell_formula_units_Z   6
loop_
 _symmetry_equiv_pos_site_id
 _symmetry_equiv_pos_as_xyz
  1  'x, y, z'
loop_
 _atom_site_type_symbol
 _atom_site_label
 _atom_site_symmetry_multiplicity
 _atom_site_fract_x
 _atom_site_fract_y
 _atom_site_fract_z
 _atom_site_occupancy
  Ta  Ta0  1  0.00000000  0.94653637  0.75000000  1
  Ta  Ta1  1  0.00000000  0.32494131  0.91438692  1
  Ta  Ta2  1  0.00000000  0.67505869  0.41438692  1
  Ta  Ta3  1  0.00000000  0.67505869  0.08561308  1
  Ta  Ta4  1  -0.00000000  0.05346363  0.25000000  1
  Ta  Ta5  1  0.00000000  0.32494131  0.58561308  1
  Ir  Ir0  1  0.50000000  0.45757498  0.75000000  1
  Ir  Ir1  1  0.50000000  0.54242502  0.25000000  1
  Ir  Ir2  1  0.50000000  0.82362304  0.91796704  1
  Ir  Ir3  1  0.50000000  0.82362304  0.58203296  1
  Ir  Ir4  1  0.50000000  0.17637696  0.08203296  1
  Ir  Ir5  1  0.50000000  0.17637696  0.41796704  1
loop_
_geom_bond_atom_site_label_1
_geom_bond_atom_site_label_2
_geom_bond_distance
_geom_bond_site_symmetry_2
Ir0 Ta5 2.758413 1_555
Ir0 Ta1 2.758413 1_655
Ir0 Ta5 2.758413 1_655
Ir0 Ta1 2.758413 1_555
Ir0 Ta0 2.762350 1_555
Ir0 Ta0 2.762350 1_655
Ir0 Ta0 2.854141 1_545
Ir0 Ta0 2.854141 1_645
Ir1 Ta2 2.758413 1_555
Ir1 Ta2 2.758413 1_655
Ir1 Ta3 2.758413 1_555
Ir1 Ta3 2.758413 1_655
Ir1 Ta4 2.762350 1_555
Ir1 Ta4 2.762350 1_655
Ir1 Ta4 2.854141 1_565
Ir1 Ta4 2.854141 1_665
Ir2 Ta0 2.788838 1_555
Ir2 Ta0 2.788838 1_655
Ir2 Ta1 2.803070 1_555
Ir2 Ta1 2.803070 1_655
Ir2 Ta1 2.814031 1_565
Ir2 Ta1 2.814031 1_665
Ir2 Ta3 2.814196 1_556
Ir2 Ta3 2.814196 1_656
Ir3 Ta0 2.788838 1_555
Ir3 Ta0 2.788838 1_655
Ir3 Ta5 2.803070 1_655
Ir3 Ta5 2.803070 1_555
Ir3 Ta5 2.814031 1_565
Ir3 Ta5 2.814031 1_665
Ir3 Ta2 2.814196 1_555
Ir3 Ta2 2.814196 1_655
Ir4 Ta4 2.788838 1_555
Ir4 Ta4 2.788838 1_655
Ir4 Ta3 2.803070 1_555
Ir4 Ta3 2.803070 1_655
Ir4 Ta3 2.814031 1_545
Ir4 Ta3 2.814031 1_645
Ir4 Ta1 2.814196 1_654
Ir4 Ta1 2.814196 1_554
Ir5 Ta4 2.788838 1_555
Ir5 Ta4 2.788838 1_655
Ir5 Ta2 2.803070 1_555
Ir5 Ta2 2.803070 1_655
Ir5 Ta2 2.814031 1_545
Ir5 Ta2 2.814031 1_645
Ir5 Ta5 2.814196 1_555
Ir5 Ta5 2.814196 1_655
