# generated using pymatgen
data_Yb8Cl17
_symmetry_space_group_name_H-M   'P 1'
_cell_length_a   27.41236682
_cell_length_b   27.41236682
_cell_length_c   6.88010426
_cell_angle_alpha   83.82744712
_cell_angle_beta   83.82744712
_cell_angle_gamma   13.76036011
_symmetry_Int_Tables_number   1
_chemical_formula_structural   Yb8Cl17
_chemical_formula_sum   'Yb16 Cl34'
_cell_volume   1222.50373209
_cell_formula_units_Z   2
loop_
 _symmetry_equiv_pos_site_id
 _symmetry_equiv_pos_as_xyz
  1  'x, y, z'
loop_
 _atom_site_type_symbol
 _atom_site_label
 _atom_site_symmetry_multiplicity
 _atom_site_fract_x
 _atom_site_fract_y
 _atom_site_fract_z
 _atom_site_occupancy
  Yb  Yb0  1  0.99109900  0.43960700  0.36250400  1
  Yb  Yb1  1  0.25294000  0.80816500  0.42885200  1
  Yb  Yb2  1  0.68475700  0.13151600  0.03860100  1
  Yb  Yb3  1  0.62335200  0.07031600  0.68735200  1
  Yb  Yb4  1  0.74706000  0.19183500  0.57114800  1
  Yb  Yb5  1  0.80816500  0.25294000  0.92885200  1
  Yb  Yb6  1  0.56039300  0.00890100  0.13749600  1
  Yb  Yb7  1  0.00890100  0.56039300  0.63749600  1
  Yb  Yb8  1  0.92968400  0.37664800  0.81264800  1
  Yb  Yb9  1  0.31524300  0.86848400  0.96139900  1
  Yb  Yb10  1  0.37664800  0.92968400  0.31264800  1
  Yb  Yb11  1  0.19183500  0.74706000  0.07114800  1
  Yb  Yb12  1  0.07031600  0.62335200  0.18735200  1
  Yb  Yb13  1  0.43960700  0.99109900  0.86250400  1
  Yb  Yb14  1  0.86848400  0.31524300  0.46139900  1
  Yb  Yb15  1  0.13151600  0.68475700  0.53860100  1
  Cl  Cl0  1  0.67344600  0.48636800  0.81753200  1
  Cl  Cl1  1  0.57916200  0.36932500  0.92309800  1
  Cl  Cl2  1  0.93372900  0.82265100  0.86016800  1
  Cl  Cl3  1  0.99612900  0.88241300  0.80419900  1
  Cl  Cl4  1  0.88241300  0.99612900  0.30419900  1
  Cl  Cl5  1  0.76573900  0.86715200  0.42664600  1
  Cl  Cl6  1  0.22610500  0.26364200  0.61094600  1
  Cl  Cl7  1  0.86715200  0.76573900  0.92664600  1
  Cl  Cl8  1  0.42083800  0.63067500  0.07690200  1
  Cl  Cl9  1  0.71948400  0.55576400  0.49118400  1
  Cl  Cl10  1  0.24263200  0.36537400  0.30736100  1
  Cl  Cl11  1  0.32655400  0.51363200  0.18246800  1
  Cl  Cl12  1  0.75736800  0.63462600  0.69263900  1
  Cl  Cl13  1  0.00387100  0.11758700  0.19580100  1
  Cl  Cl14  1  0.26364200  0.22610500  0.11094600  1
  Cl  Cl15  1  0.63067500  0.42083800  0.57690200  1
  Cl  Cl16  1  0.11758700  0.00387100  0.69580100  1
  Cl  Cl17  1  0.55576400  0.71948400  0.99118400  1
  Cl  Cl18  1  0.36537400  0.24263200  0.80736100  1
  Cl  Cl19  1  0.05830200  0.94169800  0.75000000  1
  Cl  Cl20  1  0.63462600  0.75736800  0.19263900  1
  Cl  Cl21  1  0.48636800  0.67344600  0.31753200  1
  Cl  Cl22  1  0.44423600  0.28051600  0.00881600  1
  Cl  Cl23  1  0.13284800  0.23426100  0.07335400  1
  Cl  Cl24  1  0.51363200  0.32655400  0.68246800  1
  Cl  Cl25  1  0.77389500  0.73635800  0.38905400  1
  Cl  Cl26  1  0.36932500  0.57916200  0.42309800  1
  Cl  Cl27  1  0.73635800  0.77389500  0.88905400  1
  Cl  Cl28  1  0.82265100  0.93372900  0.36016800  1
  Cl  Cl29  1  0.23426100  0.13284800  0.57335400  1
  Cl  Cl30  1  0.94169800  0.05830200  0.25000000  1
  Cl  Cl31  1  0.28051600  0.44423600  0.50881600  1
  Cl  Cl32  1  0.06627100  0.17734900  0.13983200  1
  Cl  Cl33  1  0.17734900  0.06627100  0.63983200  1
loop_
_geom_bond_atom_site_label_1
_geom_bond_atom_site_label_2
_geom_bond_distance
_geom_bond_site_symmetry_2
Cl0 Yb9 2.730005 1_555
Cl0 Yb14 2.743641 1_555
Cl0 Yb5 2.969677 1_555
Cl1 Yb4 2.711990 1_555
Cl1 Yb11 2.712910 1_556
Cl1 Yb5 3.272281 1_555
Cl2 Yb2 2.820108 1_566
Cl2 Yb15 2.825882 1_655
Cl2 Yb3 2.850296 1_565
Cl2 Yb12 2.892148 1_656
Cl3 Yb11 2.811825 1_656
Cl3 Yb4 2.839332 1_565
Cl3 Yb15 2.842157 1_655
Cl3 Yb2 2.875435 1_566
Cl4 Yb4 2.811825 1_565
Cl4 Yb11 2.839332 1_655
Cl4 Yb2 2.842157 1_565
Cl4 Yb15 2.875435 1_655
Cl5 Yb7 2.795941 1_655
Cl5 Yb3 2.807740 1_565
Cl5 Yb12 2.845929 1_655
Cl5 Yb6 2.999706 1_565
Cl6 Yb13 2.742699 1_545
Cl6 Yb7 2.766611 1_555
Cl6 Yb0 2.814204 1_455
Cl7 Yb6 2.795941 1_566
Cl7 Yb12 2.807740 1_656
Cl7 Yb3 2.845929 1_565
Cl7 Yb7 2.999706 1_655
Cl8 Yb1 2.711990 1_555
Cl8 Yb5 2.712910 1_554
Cl8 Yb11 3.272281 1_555
Cl9 Yb10 2.745775 1_555
Cl9 Yb8 2.765314 1_555
Cl9 Yb14 2.827098 1_555
Cl10 Yb6 2.764882 1_555
Cl10 Yb12 2.774220 1_555
Cl10 Yb7 2.780828 1_555
Cl11 Yb2 2.730005 1_555
Cl11 Yb15 2.743641 1_555
Cl11 Yb11 2.969677 1_555
Cl12 Yb13 2.764882 1_555
Cl12 Yb8 2.774220 1_555
Cl12 Yb0 2.780828 1_555
Cl13 Yb5 2.811825 1_454
Cl13 Yb1 2.839332 1_545
Cl13 Yb14 2.842157 1_455
Cl13 Yb9 2.875435 1_544
Cl14 Yb0 2.742699 1_455
Cl14 Yb6 2.766611 1_555
Cl14 Yb13 2.814204 1_544
Cl15 Yb5 2.711990 1_555
Cl15 Yb1 2.712910 1_555
Cl15 Yb4 3.272281 1_555
Cl16 Yb1 2.811825 1_545
Cl16 Yb5 2.839332 1_455
Cl16 Yb9 2.842157 1_545
Cl16 Yb14 2.875435 1_455
Cl17 Yb8 2.745775 1_555
Cl17 Yb10 2.765314 1_556
Cl17 Yb9 2.827098 1_555
Cl18 Yb7 2.764882 1_555
Cl18 Yb3 2.774220 1_555
Cl18 Yb6 2.780828 1_556
Cl19 Yb1 2.830715 1_555
Cl19 Yb11 2.830715 1_556
Cl19 Yb5 2.849784 1_465
Cl19 Yb4 2.849784 1_465
Cl20 Yb0 2.764882 1_555
Cl20 Yb10 2.774220 1_555
Cl20 Yb13 2.780828 1_554
Cl21 Yb14 2.730005 1_555
Cl21 Yb9 2.743641 1_554
Cl21 Yb1 2.969677 1_555
Cl22 Yb12 2.745775 1_555
Cl22 Yb3 2.765314 1_554
Cl22 Yb2 2.827098 1_555
Cl23 Yb13 2.795941 1_544
Cl23 Yb8 2.807740 1_454
Cl23 Yb10 2.845929 1_545
Cl23 Yb0 2.999706 1_455
Cl24 Yb15 2.730005 1_555
Cl24 Yb2 2.743641 1_556
Cl24 Yb4 2.969677 1_555
Cl25 Yb6 2.742699 1_565
Cl25 Yb0 2.766611 1_555
Cl25 Yb7 2.814204 1_655
Cl26 Yb11 2.711990 1_555
Cl26 Yb4 2.712910 1_555
Cl26 Yb1 3.272281 1_555
Cl27 Yb7 2.742699 1_655
Cl27 Yb13 2.766611 1_555
Cl27 Yb6 2.814204 1_566
Cl28 Yb15 2.820108 1_655
Cl28 Yb2 2.825882 1_565
Cl28 Yb12 2.850296 1_655
Cl28 Yb3 2.892148 1_565
Cl29 Yb0 2.795941 1_455
Cl29 Yb10 2.807740 1_545
Cl29 Yb8 2.845929 1_455
Cl29 Yb13 2.999706 1_545
Cl30 Yb5 2.830715 1_554
Cl30 Yb4 2.830715 1_555
Cl30 Yb1 2.849784 1_645
Cl30 Yb11 2.849784 1_645
Cl31 Yb3 2.745775 1_555
Cl31 Yb12 2.765314 1_555
Cl31 Yb15 2.827098 1_555
Cl32 Yb9 2.820108 1_544
Cl32 Yb14 2.825882 1_455
Cl32 Yb10 2.850296 1_545
Cl32 Yb8 2.892148 1_454
Cl33 Yb14 2.820108 1_455
Cl33 Yb9 2.825882 1_545
Cl33 Yb8 2.850296 1_455
Cl33 Yb10 2.892148 1_545
