# generated using pymatgen
data_Pr7BP2O17
_symmetry_space_group_name_H-M   'P 1'
_cell_length_a   17.75551424
_cell_length_b   6.94152634
_cell_length_c   13.49517515
_cell_angle_alpha   66.39098609
_cell_angle_beta   90.00000000
_cell_angle_gamma   90.00000000
_symmetry_Int_Tables_number   1
_chemical_formula_structural   Pr7BP2O17
_chemical_formula_sum   'Pr28 B4 P8 O68'
_cell_volume   1524.06790451
_cell_formula_units_Z   4
loop_
 _symmetry_equiv_pos_site_id
 _symmetry_equiv_pos_as_xyz
  1  'x, y, z'
loop_
 _atom_site_type_symbol
 _atom_site_label
 _atom_site_symmetry_multiplicity
 _atom_site_fract_x
 _atom_site_fract_y
 _atom_site_fract_z
 _atom_site_occupancy
  Pr  Pr0  1  0.27443040  0.79748564  0.17862696  1
  Pr  Pr1  1  0.77443040  0.20251436  0.32137304  1
  Pr  Pr2  1  0.48302466  0.79957542  0.21132299  1
  Pr  Pr3  1  0.77765028  0.71434614  0.59685551  1
  Pr  Pr4  1  0.10499042  0.30779214  0.69775393  1
  Pr  Pr5  1  0.60499042  0.69220786  0.80224607  1
  Pr  Pr6  1  0.86725469  0.21934611  0.57093495  1
  Pr  Pr7  1  0.72234972  0.71434614  0.09685551  1
  Pr  Pr8  1  0.72556960  0.20251436  0.82137304  1
  Pr  Pr9  1  0.89500958  0.69220786  0.30224607  1
  Pr  Pr10  1  0.36725469  0.78065389  0.92906505  1
  Pr  Pr11  1  0.63274531  0.21934611  0.07093495  1
  Pr  Pr12  1  0.44463838  0.28138674  0.49235174  1
  Pr  Pr13  1  0.55536162  0.71861326  0.50764826  1
  Pr  Pr14  1  0.98302466  0.20042458  0.28867701  1
  Pr  Pr15  1  0.15385053  0.81298400  0.92736603  1
  Pr  Pr16  1  0.34614947  0.81298400  0.42736603  1
  Pr  Pr17  1  0.22556960  0.79748564  0.67862696  1
  Pr  Pr18  1  0.05536162  0.28138674  0.99235174  1
  Pr  Pr19  1  0.27765028  0.28565386  0.90314449  1
  Pr  Pr20  1  0.94463838  0.71861326  0.00764826  1
  Pr  Pr21  1  0.84614947  0.18701600  0.07263397  1
  Pr  Pr22  1  0.01697534  0.79957542  0.71132299  1
  Pr  Pr23  1  0.65385053  0.18701600  0.57263397  1
  Pr  Pr24  1  0.22234972  0.28565386  0.40314449  1
  Pr  Pr25  1  0.51697534  0.20042458  0.78867701  1
  Pr  Pr26  1  0.13274531  0.78065389  0.42906505  1
  Pr  Pr27  1  0.39500958  0.30779214  0.19775393  1
  B  B0  1  0.06749387  0.24830596  0.50106304  1
  B  B1  1  0.43250613  0.24830596  0.00106304  1
  B  B2  1  0.93250613  0.75169404  0.49893696  1
  B  B3  1  0.56749387  0.75169404  0.99893696  1
  P  P0  1  0.69761504  0.71047095  0.33740063  1
  P  P1  1  0.19761504  0.28952905  0.16259937  1
  P  P2  1  0.43855883  0.77893321  0.68249353  1
  P  P3  1  0.93855983  0.22106679  0.81750647  1
  P  P4  1  0.56144117  0.22106679  0.31750647  1
  P  P5  1  0.80238496  0.71047095  0.83740063  1
  P  P6  1  0.30238496  0.28952905  0.66259937  1
  P  P7  1  0.06144117  0.77893321  0.18249353  1
  O  O0  1  0.01293980  0.19426361  0.58065423  1
  O  O1  1  0.75418657  0.36630734  0.12492444  1
  O  O2  1  0.54172236  0.36554876  0.59728011  1
  O  O3  1  0.74581343  0.36630734  0.62492444  1
  O  O4  1  0.24331399  0.42257328  0.69267116  1
  O  O5  1  0.36432957  0.43216843  0.59193963  1
  O  O6  1  0.89105410  0.31888852  0.37572215  1
  O  O7  1  0.76688946  0.09024537  0.50930598  1
  O  O8  1  0.37986582  0.40121086  0.99911505  1
  O  O9  1  0.50506466  0.40568749  0.27575732  1
  O  O10  1  0.74331399  0.57742672  0.80732884  1
  O  O11  1  0.16729815  0.13070372  0.27093539  1
  O  O12  1  0.51293980  0.80573639  0.91934577  1
  O  O13  1  0.25418657  0.63369266  0.37507556  1
  O  O14  1  0.25668601  0.42257328  0.19267116  1
  O  O15  1  0.86432957  0.56783157  0.90806037  1
  O  O16  1  0.86769892  0.04832356  0.26003833  1
  O  O17  1  0.08020797  0.15516561  0.43034919  1
  O  O18  1  0.98706020  0.80573639  0.41934577  1
  O  O19  1  0.73450652  0.82580077  0.40125082  1
  O  O20  1  0.13230108  0.95167644  0.73996167  1
  O  O21  1  0.99493534  0.40568749  0.77575732  1
  O  O22  1  0.12013418  0.40121086  0.49911505  1
  O  O23  1  0.26549348  0.17419923  0.59874918  1
  O  O24  1  0.95827764  0.36554876  0.09728011  1
  O  O25  1  0.39105410  0.68111148  0.12427785  1
  O  O26  1  0.14466113  0.20289182  0.88036682  1
  O  O27  1  0.35533887  0.20289182  0.38036682  1
  O  O28  1  0.23450652  0.17419923  0.09874918  1
  O  O29  1  0.41979203  0.15516561  0.93034919  1
  O  O30  1  0.13716437  0.71484329  0.23739149  1
  O  O31  1  0.48706020  0.19426361  0.08065423  1
  O  O32  1  0.87986582  0.59878914  0.50088495  1
  O  O33  1  0.52787843  0.03388639  0.29962165  1
  O  O34  1  0.13567043  0.43216843  0.09193963  1
  O  O35  1  0.00506466  0.59431251  0.22424268  1
  O  O36  1  0.86283563  0.28515671  0.76260851  1
  O  O37  1  0.47212157  0.96611361  0.70037835  1
  O  O38  1  0.02787843  0.96611361  0.20037835  1
  O  O39  1  0.36769892  0.95167644  0.23996167  1
  O  O40  1  0.97212157  0.03388639  0.79962165  1
  O  O41  1  0.63716437  0.28515671  0.26260851  1
  O  O42  1  0.43495422  0.85449936  0.55785929  1
  O  O43  1  0.64466113  0.79710818  0.61963318  1
  O  O44  1  0.58020797  0.84483439  0.06965081  1
  O  O45  1  0.33270185  0.13070372  0.77093539  1
  O  O46  1  0.85533887  0.79710818  0.11963318  1
  O  O47  1  0.73311054  0.09024537  0.00930598  1
  O  O48  1  0.91979203  0.84483439  0.56965081  1
  O  O49  1  0.93495422  0.14550064  0.94214071  1
  O  O50  1  0.75668601  0.57742672  0.30732884  1
  O  O51  1  0.62013418  0.59878914  0.00088495  1
  O  O52  1  0.49493534  0.59431251  0.72424268  1
  O  O53  1  0.06504578  0.85449936  0.05785929  1
  O  O54  1  0.76549348  0.82580077  0.90125082  1
  O  O55  1  0.66729815  0.86929628  0.22906461  1
  O  O56  1  0.10894590  0.68111148  0.62427785  1
  O  O57  1  0.60894590  0.31888852  0.87572215  1
  O  O58  1  0.63567043  0.56783157  0.40806037  1
  O  O59  1  0.23311054  0.90975463  0.49069402  1
  O  O60  1  0.63230108  0.04832356  0.76003833  1
  O  O61  1  0.04172236  0.63445124  0.90271989  1
  O  O62  1  0.26688946  0.90975463  0.99069402  1
  O  O63  1  0.45827764  0.63445124  0.40271989  1
  O  O64  1  0.24581343  0.63369266  0.87507556  1
  O  O65  1  0.83270185  0.86929628  0.72906461  1
  O  O66  1  0.36283563  0.71484329  0.73739149  1
  O  O67  1  0.56504578  0.14550064  0.44214071  1
loop_
_geom_bond_atom_site_label_1
_geom_bond_atom_site_label_2
_geom_bond_distance
_geom_bond_site_symmetry_2
B0 O17 1.368886 1_555
B0 O0 1.382000 1_555
B0 O22 1.406584 1_555
B1 O29 1.368886 1_554
B1 O31 1.382000 1_555
B1 O8 1.406584 1_554
B2 O48 1.368886 1_555
B2 O18 1.382000 1_555
B2 O32 1.406584 1_555
B3 O44 1.368886 1_556
B3 O12 1.382000 1_555
B3 O51 1.406584 1_556
O0 Pr6 2.592357 1_455
O0 Pr22 2.598290 1_545
O0 Pr4 2.605211 1_555
O1 Pr21 2.327347 1_555
O1 Pr7 2.359382 1_555
O1 Pr1 2.456810 1_555
O1 Pr11 2.610805 1_555
O2 Pr13 2.270178 1_555
O2 Pr25 2.409778 1_555
O2 Pr23 2.437269 1_555
O2 Pr12 2.445499 1_555
O3 Pr23 2.327347 1_555
O3 Pr3 2.359382 1_555
O3 Pr8 2.456810 1_555
O3 Pr6 2.610805 1_555
O4 P6 1.554947 1_555
O4 Pr17 2.552043 1_555
O4 Pr4 2.574435 1_555
O4 Pr19 2.679627 1_555
O5 P6 1.530714 1_555
O5 Pr12 2.462048 1_555
O5 Pr16 2.705928 1_555
O6 Pr14 2.344456 1_555
O6 Pr9 2.375994 1_555
O6 Pr1 2.439866 1_555
O6 Pr6 2.477535 1_555
O7 Pr6 2.295095 1_555
O7 Pr1 2.339736 1_555
O7 Pr23 2.381123 1_555
O7 Pr3 2.402416 1_545
O8 Pr10 2.426293 1_555
O8 Pr27 2.507271 1_556
O8 Pr19 2.539050 1_555
O9 P4 1.543841 1_555
O9 Pr27 2.441580 1_555
O9 Pr2 2.545715 1_555
O9 Pr12 2.901600 1_555
O10 P5 1.554947 1_555
O10 Pr8 2.552043 1_555
O10 Pr5 2.574435 1_555
O10 Pr3 2.679627 1_555
O11 P1 1.533510 1_555
O11 Pr26 2.584806 1_545
O11 Pr24 2.613961 1_555
O12 Pr10 2.592357 1_555
O12 Pr25 2.598290 1_565
O12 Pr5 2.605211 1_555
O13 Pr16 2.327347 1_555
O13 Pr24 2.359382 1_555
O13 Pr0 2.456810 1_555
O13 Pr26 2.610805 1_555
O14 P1 1.554947 1_555
O14 Pr0 2.552043 1_555
O14 Pr27 2.574435 1_555
O14 Pr24 2.679627 1_555
O15 P5 1.530714 1_555
O15 Pr20 2.462048 1_556
O15 Pr21 2.705928 1_556
O16 Pr1 2.298426 1_555
O16 Pr21 2.349282 1_555
O16 Pr9 2.354247 1_545
O16 Pr14 2.404974 1_555
O17 Pr14 2.500080 1_455
O17 Pr24 2.656772 1_555
O17 Pr26 2.768556 1_545
O18 Pr26 2.592357 1_655
O18 Pr14 2.598290 1_565
O18 Pr9 2.605211 1_555
O19 P0 1.537848 1_555
O19 Pr1 2.498940 1_565
O19 Pr3 2.552973 1_555
O20 Pr17 2.298426 1_555
O20 Pr15 2.349282 1_555
O20 Pr4 2.354247 1_565
O20 Pr22 2.404974 1_555
O21 P3 1.543830 1_555
O21 Pr4 2.441580 1_655
O21 Pr22 2.545715 1_655
O21 Pr18 2.901600 1_655
O22 Pr26 2.426293 1_555
O22 Pr4 2.507271 1_555
O22 Pr24 2.539050 1_555
O23 P6 1.537848 1_555
O23 Pr17 2.498940 1_545
O23 Pr24 2.552973 1_555
O24 Pr20 2.270178 1_555
O24 Pr14 2.409778 1_555
O24 Pr21 2.437269 1_555
O24 Pr18 2.445499 1_654
O25 Pr2 2.344456 1_555
O25 Pr27 2.375994 1_555
O25 Pr0 2.439866 1_555
O25 Pr10 2.477535 1_554
O26 Pr4 2.379546 1_555
O26 Pr18 2.398822 1_555
O26 Pr19 2.478240 1_555
O26 Pr15 2.525733 1_545
O27 Pr27 2.379546 1_555
O27 Pr12 2.398822 1_555
O27 Pr24 2.478240 1_555
O27 Pr16 2.525733 1_545
O28 P1 1.537848 1_555
O28 Pr0 2.498940 1_545
O28 Pr19 2.552973 1_554
O29 Pr25 2.500080 1_555
O29 Pr19 2.656772 1_555
O29 Pr10 2.768556 1_545
O30 P7 1.513434 1_555
O30 Pr0 2.556108 1_555
O30 Pr26 2.802176 1_555
O31 Pr11 2.592357 1_555
O31 Pr2 2.598290 1_545
O31 Pr27 2.605211 1_555
O32 Pr6 2.426293 1_555
O32 Pr9 2.507271 1_555
O32 Pr3 2.539050 1_555
O33 P4 1.533883 1_555
O33 Pr2 2.500402 1_545
O33 Pr13 2.826247 1_545
O34 P1 1.530714 1_555
O34 Pr18 2.462048 1_554
O34 Pr15 2.705928 1_554
O35 P7 1.543841 1_555
O35 Pr9 2.441580 1_455
O35 Pr14 2.545715 1_455
O35 Pr20 2.901600 1_455
O36 P3 1.513449 1_555
O36 Pr8 2.556108 1_555
O36 Pr6 2.802176 1_555
O37 P2 1.533883 1_555
O37 Pr25 2.500402 1_565
O37 Pr12 2.826247 1_565
O38 P7 1.533883 1_555
O38 Pr14 2.500402 1_465
O38 Pr18 2.826247 1_564
O39 Pr0 2.298426 1_555
O39 Pr16 2.349282 1_555
O39 Pr27 2.354247 1_565
O39 Pr2 2.404974 1_555
O40 P3 1.533876 1_555
O40 Pr22 2.500402 1_645
O40 Pr20 2.826247 1_546
O41 P4 1.513434 1_555
O41 Pr1 2.556108 1_555
O41 Pr11 2.802176 1_555
O42 P2 1.549695 1_555
O42 Pr16 2.465154 1_555
O42 Pr13 2.536028 1_555
O42 Pr12 2.737454 1_565
O43 Pr5 2.379546 1_555
O43 Pr13 2.398822 1_555
O43 Pr3 2.478240 1_555
O43 Pr23 2.525733 1_565
O44 Pr2 2.500080 1_555
O44 Pr7 2.656772 1_555
O44 Pr11 2.768556 1_565
O45 P6 1.533510 1_555
O45 Pr10 2.584806 1_545
O45 Pr19 2.613961 1_555
O46 Pr9 2.379546 1_555
O46 Pr20 2.398822 1_555
O46 Pr7 2.478240 1_555
O46 Pr21 2.525733 1_565
O47 Pr11 2.295095 1_555
O47 Pr8 2.339736 1_554
O47 Pr21 2.381123 1_555
O47 Pr7 2.402416 1_545
O48 Pr22 2.500080 1_655
O48 Pr3 2.656772 1_555
O48 Pr6 2.768556 1_565
O49 P3 1.549696 1_555
O49 Pr21 2.465154 1_556
O49 Pr18 2.536028 1_655
O49 Pr20 2.737454 1_546
O50 P0 1.554947 1_555
O50 Pr1 2.552043 1_555
O50 Pr9 2.574435 1_555
O50 Pr7 2.679627 1_555
O51 Pr11 2.426293 1_555
O51 Pr5 2.507271 1_554
O51 Pr7 2.539050 1_555
O52 P2 1.543841 1_555
O52 Pr5 2.441580 1_555
O52 Pr25 2.545715 1_555
O52 Pr13 2.901600 1_555
O53 P7 1.549695 1_555
O53 Pr15 2.465154 1_554
O53 Pr20 2.536028 1_455
O53 Pr18 2.737454 1_564
O54 P5 1.537848 1_555
O54 Pr8 2.498940 1_565
O54 Pr7 2.552973 1_556
O55 P0 1.533510 1_555
O55 Pr11 2.584806 1_565
O55 Pr7 2.613961 1_555
O56 Pr22 2.344456 1_555
O56 Pr4 2.375994 1_555
O56 Pr17 2.439866 1_555
O56 Pr26 2.477535 1_555
O57 Pr25 2.344456 1_555
O57 Pr5 2.375994 1_555
O57 Pr8 2.439866 1_555
O57 Pr11 2.477535 1_556
O58 P0 1.530714 1_555
O58 Pr13 2.462048 1_555
O58 Pr23 2.705928 1_555
O59 Pr26 2.295095 1_555
O59 Pr17 2.339736 1_555
O59 Pr16 2.381123 1_555
O59 Pr24 2.402416 1_565
O60 Pr8 2.298426 1_555
O60 Pr23 2.349282 1_555
O60 Pr5 2.354247 1_545
O60 Pr25 2.404974 1_555
O61 Pr18 2.270178 1_555
O61 Pr22 2.409778 1_555
O61 Pr15 2.437269 1_555
O61 Pr20 2.445499 1_456
O62 Pr10 2.295095 1_555
O62 Pr0 2.339736 1_556
O62 Pr15 2.381123 1_555
O62 Pr19 2.402416 1_565
O63 Pr12 2.270178 1_555
O63 Pr2 2.409778 1_555
O63 Pr16 2.437269 1_555
O63 Pr13 2.445499 1_555
O64 Pr15 2.327347 1_555
O64 Pr19 2.359382 1_555
O64 Pr17 2.456810 1_555
O64 Pr10 2.610805 1_555
O65 P5 1.533510 1_555
O65 Pr6 2.584806 1_565
O65 Pr3 2.613961 1_555
O66 P2 1.513434 1_555
O66 Pr17 2.556108 1_555
O66 Pr10 2.802176 1_555
O67 P4 1.549695 1_555
O67 Pr23 2.465154 1_555
O67 Pr12 2.536028 1_555
O67 Pr13 2.737454 1_545
