# generated using pymatgen
data_NdGaGe2O7
_symmetry_space_group_name_H-M   'P 1'
_cell_length_a   6.67054000
_cell_length_b   7.33698100
_cell_length_c   13.03691186
_cell_angle_alpha   62.43166297
_cell_angle_beta   90.00000000
_cell_angle_gamma   90.00000000
_symmetry_Int_Tables_number   1
_chemical_formula_structural   NdGaGe2O7
_chemical_formula_sum   'Nd4 Ga4 Ge8 O28'
_cell_volume   565.60338676
_cell_formula_units_Z   4
loop_
 _symmetry_equiv_pos_site_id
 _symmetry_equiv_pos_as_xyz
  1  'x, y, z'
loop_
 _atom_site_type_symbol
 _atom_site_label
 _atom_site_symmetry_multiplicity
 _atom_site_fract_x
 _atom_site_fract_y
 _atom_site_fract_z
 _atom_site_occupancy
  Nd  Nd0  1  0.35405800  0.23890700  0.02479500  1
  Nd  Nd1  1  0.85405800  0.76109300  0.47520500  1
  Nd  Nd2  1  0.14594200  0.23890700  0.52479500  1
  Nd  Nd3  1  0.64594200  0.76109300  0.97520500  1
  Ga  Ga0  1  0.60130100  0.78575300  0.23194300  1
  Ga  Ga1  1  0.10130100  0.21424700  0.26805700  1
  Ga  Ga2  1  0.39869900  0.21424700  0.76805700  1
  Ga  Ga3  1  0.89869900  0.78575300  0.73194300  1
  Ge  Ge0  1  0.65810100  0.21383500  0.54411700  1
  Ge  Ge1  1  0.08927300  0.70120900  0.21976000  1
  Ge  Ge2  1  0.84189900  0.21383500  0.04411700  1
  Ge  Ge3  1  0.15810100  0.78616500  0.95588300  1
  Ge  Ge4  1  0.34189900  0.78616500  0.45588300  1
  Ge  Ge5  1  0.91072700  0.29879100  0.78024000  1
  Ge  Ge6  1  0.58927300  0.29879100  0.28024000  1
  Ge  Ge7  1  0.41072700  0.70120900  0.71976000  1
  O  O0  1  0.17407200  0.59124100  0.48058400  1
  O  O1  1  0.62482700  0.56772600  0.19387200  1
  O  O2  1  0.94851300  0.79194100  0.87200300  1
  O  O3  1  0.10914800  0.21925300  0.72059500  1
  O  O4  1  0.89085200  0.78074700  0.27940500  1
  O  O5  1  0.05148700  0.20805900  0.12799700  1
  O  O6  1  0.81278600  0.15294800  0.31458300  1
  O  O7  1  0.68721400  0.15294800  0.81458300  1
  O  O8  1  0.82592800  0.40875900  0.51941600  1
  O  O9  1  0.33763500  0.99122500  0.92065000  1
  O  O10  1  0.44851300  0.20805900  0.62799700  1
  O  O11  1  0.60914800  0.78074700  0.77940500  1
  O  O12  1  0.16236500  0.99122500  0.42065000  1
  O  O13  1  0.87517300  0.56772600  0.69387200  1
  O  O14  1  0.37517300  0.43227400  0.80612800  1
  O  O15  1  0.12482700  0.43227400  0.30612800  1
  O  O16  1  0.18721400  0.84705200  0.68541700  1
  O  O17  1  0.50163200  0.25136400  0.42345200  1
  O  O18  1  0.83763500  0.00877500  0.57935000  1
  O  O19  1  0.66236500  0.00877500  0.07935000  1
  O  O20  1  0.49836800  0.74863600  0.57654800  1
  O  O21  1  0.67407200  0.40875900  0.01941600  1
  O  O22  1  0.00163200  0.74863600  0.07654800  1
  O  O23  1  0.39085200  0.21925300  0.22059500  1
  O  O24  1  0.55148700  0.79194100  0.37200300  1
  O  O25  1  0.32592800  0.59124100  0.98058400  1
  O  O26  1  0.31278600  0.84705200  0.18541700  1
  O  O27  1  0.99836800  0.25136400  0.92345200  1
loop_
_geom_bond_atom_site_label_1
_geom_bond_atom_site_label_2
_geom_bond_distance
_geom_bond_site_symmetry_2
Nd0 O5 2.377634 1_555
Nd0 O25 2.381357 1_554
Nd0 O21 2.456388 1_555
Nd0 O23 2.501245 1_555
Nd0 O14 2.532940 1_554
Nd0 O19 2.544549 1_555
Nd0 O26 2.674693 1_545
Nd0 O27 2.696589 1_454
Nd0 O9 2.727923 1_544
Nd1 O24 2.377634 1_555
Nd1 O8 2.381357 1_555
Nd1 O0 2.456388 1_655
Nd1 O4 2.501245 1_555
Nd1 O13 2.532940 1_555
Nd1 O12 2.544549 1_655
Nd1 O6 2.674693 1_565
Nd1 O20 2.696589 1_555
Nd1 O18 2.727923 1_565
Nd2 O10 2.377634 1_555
Nd2 O0 2.381357 1_555
Nd2 O8 2.456388 1_455
Nd2 O3 2.501245 1_555
Nd2 O15 2.532940 1_555
Nd2 O18 2.544549 1_455
Nd2 O16 2.674693 1_545
Nd2 O17 2.696589 1_555
Nd2 O12 2.727923 1_545
Nd3 O2 2.377634 1_555
Nd3 O21 2.381357 1_556
Nd3 O25 2.456388 1_555
Nd3 O11 2.501245 1_555
Nd3 O1 2.532940 1_556
Nd3 O9 2.544549 1_555
Nd3 O7 2.674693 1_565
Nd3 O22 2.696589 1_656
Nd3 O19 2.727923 1_566
Ga0 O24 1.877046 1_555
Ga0 O1 1.888062 1_555
Ga0 O19 1.946245 1_565
Ga0 O26 2.005386 1_555
Ga0 O4 2.023294 1_555
Ga1 O5 1.877046 1_555
Ga1 O15 1.888062 1_555
Ga1 O12 1.946245 1_545
Ga1 O6 2.005386 1_455
Ga1 O23 2.023294 1_555
Ga2 O10 1.877046 1_555
Ga2 O14 1.888062 1_555
Ga2 O9 1.946245 1_545
Ga2 O7 2.005386 1_555
Ga2 O3 2.023294 1_555
Ga3 O2 1.877046 1_555
Ga3 O13 1.888062 1_555
Ga3 O18 1.946245 1_565
Ga3 O16 2.005386 1_655
Ga3 O11 2.023294 1_555
Ge0 O8 1.725116 1_555
Ge0 O10 1.763323 1_555
Ge0 O17 1.799696 1_555
Ge0 O18 1.808072 1_555
Ge1 O4 1.765521 1_455
Ge1 O26 1.767753 1_555
Ge1 O15 1.777920 1_555
Ge1 O22 1.829578 1_555
Ge2 O21 1.725116 1_555
Ge2 O5 1.763323 1_655
Ge2 O27 1.799696 1_554
Ge2 O19 1.808072 1_555
Ge3 O25 1.725116 1_555
Ge3 O2 1.763323 1_455
Ge3 O22 1.799696 1_556
Ge3 O9 1.808072 1_555
Ge4 O0 1.725116 1_555
Ge4 O24 1.763323 1_555
Ge4 O20 1.799696 1_555
Ge4 O12 1.808072 1_555
Ge5 O3 1.765521 1_655
Ge5 O7 1.767753 1_555
Ge5 O13 1.777920 1_555
Ge5 O27 1.829578 1_555
Ge6 O23 1.765521 1_555
Ge6 O6 1.767753 1_555
Ge6 O1 1.777920 1_555
Ge6 O17 1.829578 1_555
Ge7 O11 1.765521 1_555
Ge7 O16 1.767753 1_555
Ge7 O14 1.777920 1_555
Ge7 O20 1.829578 1_555
