# generated using pymatgen
data_Ho7FeI12
_symmetry_space_group_name_H-M   'P 1'
_cell_length_a   9.63303313
_cell_length_b   9.63303336
_cell_length_c   9.63303323
_cell_angle_alpha   107.05682541
_cell_angle_beta   107.05682423
_cell_angle_gamma   107.05683085
_symmetry_Int_Tables_number   1
_chemical_formula_structural   Ho7FeI12
_chemical_formula_sum   'Ho7 Fe1 I12'
_cell_volume   743.29184282
_cell_formula_units_Z   1
loop_
 _symmetry_equiv_pos_site_id
 _symmetry_equiv_pos_as_xyz
  1  'x, y, z'
loop_
 _atom_site_type_symbol
 _atom_site_label
 _atom_site_symmetry_multiplicity
 _atom_site_fract_x
 _atom_site_fract_y
 _atom_site_fract_z
 _atom_site_occupancy
  Ho  Ho0  1  0.78761855  0.52042128  0.59023077  1
  Ho  Ho1  1  0.40976923  0.21238145  0.47957872  1
  Ho  Ho2  1  0.47957872  0.40976923  0.21238145  1
  Ho  Ho3  1  0.59023077  0.78761855  0.52042128  1
  Ho  Ho4  1  0.00000000  0.00000000  0.00000000  1
  Ho  Ho5  1  0.52042128  0.59023077  0.78761855  1
  Ho  Ho6  1  0.21238145  0.47957872  0.40976923  1
  Fe  Fe0  1  0.50000000  0.50000000  0.50000000  1
  I  I0  1  0.65911643  0.96409113  0.88624847  1
  I  I1  1  0.72789480  0.17803406  0.57255863  1
  I  I2  1  0.88624847  0.65911643  0.96409113  1
  I  I3  1  0.27210520  0.82196594  0.42744137  1
  I  I4  1  0.17803406  0.57255863  0.72789480  1
  I  I5  1  0.03590887  0.11375153  0.34088357  1
  I  I6  1  0.57255863  0.72789480  0.17803406  1
  I  I7  1  0.11375153  0.34088357  0.03590887  1
  I  I8  1  0.82196594  0.42744137  0.27210520  1
  I  I9  1  0.42744137  0.27210520  0.82196594  1
  I  I10  1  0.96409113  0.88624847  0.65911643  1
  I  I11  1  0.34088357  0.03590887  0.11375153  1
loop_
_geom_bond_atom_site_label_1
_geom_bond_atom_site_label_2
_geom_bond_distance
_geom_bond_site_symmetry_2
Ho0 I8 3.075942 1_555
Ho0 I1 3.120619 1_555
Ho0 I2 3.175401 1_555
Ho0 I10 3.193896 1_555
Ho0 I4 3.424981 1_655
Ho1 I1 3.075942 1_555
Ho1 I9 3.120619 1_555
Ho1 I5 3.175401 1_555
Ho1 I11 3.193897 1_555
Ho1 I3 3.424981 1_545
Ho2 I6 3.075942 1_555
Ho2 I8 3.120619 1_555
Ho2 I11 3.175401 1_555
Ho2 I7 3.193896 1_555
Ho2 I9 3.424981 1_554
Ho3 I3 3.075942 1_555
Ho3 I6 3.120619 1_555
Ho3 I10 3.175401 1_555
Ho3 I0 3.193897 1_555
Ho3 I1 3.424981 1_565
Ho4 I2 3.017243 1_444
Ho4 I7 3.017243 1_555
Ho4 I11 3.017243 1_555
Ho4 I0 3.017243 1_444
Ho4 I5 3.017243 1_555
Ho4 I10 3.017243 1_444
Ho5 I9 3.075942 1_555
Ho5 I4 3.120619 1_555
Ho5 I0 3.175401 1_555
Ho5 I2 3.193896 1_555
Ho5 I6 3.424981 1_556
Ho6 I4 3.075942 1_555
Ho6 I3 3.120619 1_555
Ho6 I7 3.175401 1_555
Ho6 I5 3.193896 1_555
Ho6 I8 3.424981 1_455
Fe0 Ho1 2.576398 1_555
Fe0 Ho3 2.576398 1_555
Fe0 Ho6 2.576398 1_555
Fe0 Ho0 2.576398 1_555
Fe0 Ho5 2.576398 1_555
Fe0 Ho2 2.576398 1_555
