# generated using pymatgen
data_Sm3Si2S8Br
_symmetry_space_group_name_H-M   'P 1'
_cell_length_a   8.71406821
_cell_length_b   8.71406821
_cell_length_c   10.85587008
_cell_angle_alpha   82.45494462
_cell_angle_beta   82.45494462
_cell_angle_gamma   51.88202524
_symmetry_Int_Tables_number   1
_chemical_formula_structural   Sm3Si2S8Br
_chemical_formula_sum   'Sm6 Si4 S16 Br2'
_cell_volume   641.59156253
_cell_formula_units_Z   2
loop_
 _symmetry_equiv_pos_site_id
 _symmetry_equiv_pos_as_xyz
  1  'x, y, z'
loop_
 _atom_site_type_symbol
 _atom_site_label
 _atom_site_symmetry_multiplicity
 _atom_site_fract_x
 _atom_site_fract_y
 _atom_site_fract_z
 _atom_site_occupancy
  Sm  Sm0  1  0.67885162  0.92543313  0.68296246  1
  Sm  Sm1  1  0.38164523  0.61835477  0.75000000  1
  Sm  Sm2  1  0.61835477  0.38164523  0.25000000  1
  Sm  Sm3  1  0.32114838  0.07456687  0.31703754  1
  Sm  Sm4  1  0.92543313  0.67885162  0.18296246  1
  Sm  Sm5  1  0.07456687  0.32114838  0.81703754  1
  Si  Si0  1  0.69412546  0.62367980  0.47280527  1
  Si  Si1  1  0.37632020  0.30587454  0.02719473  1
  Si  Si2  1  0.62367980  0.69412546  0.97280527  1
  Si  Si3  1  0.30587454  0.37632020  0.52719473  1
  S  S0  1  0.59505854  0.27134939  0.54232814  1
  S  S1  1  0.25817134  0.44878279  0.33568072  1
  S  S2  1  0.28523213  0.14742999  0.58603695  1
  S  S3  1  0.14742999  0.28523213  0.08603695  1
  S  S4  1  0.39268058  0.89554077  0.85688459  1
  S  S5  1  0.85257001  0.71476787  0.91396305  1
  S  S6  1  0.44878279  0.25817134  0.83568072  1
  S  S7  1  0.89554077  0.39268058  0.35688459  1
  S  S8  1  0.55121721  0.74182866  0.16431928  1
  S  S9  1  0.72865061  0.40494146  0.95767186  1
  S  S10  1  0.74182866  0.55121721  0.66431928  1
  S  S11  1  0.71476787  0.85257001  0.41396305  1
  S  S12  1  0.10445923  0.60731942  0.64311541  1
  S  S13  1  0.40494146  0.72865061  0.45767186  1
  S  S14  1  0.27134939  0.59505854  0.04232814  1
  S  S15  1  0.60731942  0.10445923  0.14311541  1
  Br  Br0  1  0.99188692  0.00811308  0.75000000  1
  Br  Br1  1  0.00811308  0.99188692  0.25000000  1
loop_
_geom_bond_atom_site_label_1
_geom_bond_atom_site_label_2
_geom_bond_distance
_geom_bond_site_symmetry_2
S0 Si3 2.106524 1_555
S0 Sm0 2.883948 1_545
S0 Sm2 3.210394 1_555
S0 Sm1 3.381029 1_555
S1 Si3 2.110005 1_555
S1 Sm2 2.857955 1_555
S1 Sm4 2.896212 1_455
S1 Sm3 2.985079 1_555
S2 Si3 2.120580 1_555
S2 Sm5 2.882248 1_555
S2 Sm0 2.972533 1_545
S2 Sm3 3.005057 1_555
S3 Si1 2.120580 1_555
S3 Sm3 2.882248 1_555
S3 Sm4 2.972533 1_455
S3 Sm5 3.005057 1_554
S4 Si2 2.107027 1_555
S4 Sm1 2.870874 1_555
S4 Sm5 2.971117 1_565
S4 Sm0 3.047559 1_555
S5 Si2 2.120580 1_555
S5 Sm0 2.882248 1_555
S5 Sm5 2.972533 1_655
S5 Sm4 3.005057 1_556
S6 Si1 2.110005 1_556
S6 Sm1 2.857955 1_555
S6 Sm0 2.896212 1_545
S6 Sm5 2.985079 1_555
S7 Si0 2.107027 1_555
S7 Sm2 2.870874 1_555
S7 Sm3 2.971117 1_655
S7 Sm4 3.047559 1_555
S8 Si2 2.110005 1_554
S8 Sm2 2.857955 1_555
S8 Sm3 2.896212 1_565
S8 Sm4 2.985079 1_555
S9 Si2 2.106524 1_555
S9 Sm5 2.883948 1_655
S9 Sm2 3.210394 1_556
S9 Sm1 3.381029 1_555
S10 Si0 2.110005 1_555
S10 Sm1 2.857955 1_555
S10 Sm5 2.896212 1_655
S10 Sm0 2.985079 1_555
S11 Si0 2.120580 1_555
S11 Sm4 2.882248 1_555
S11 Sm3 2.972533 1_565
S11 Sm0 3.005057 1_555
S12 Si3 2.107027 1_555
S12 Sm1 2.870874 1_555
S12 Sm0 2.971117 1_455
S12 Sm5 3.047559 1_555
S13 Si0 2.106524 1_555
S13 Sm3 2.883948 1_565
S13 Sm1 3.210394 1_555
S13 Sm2 3.381029 1_555
S14 Si1 2.106524 1_555
S14 Sm4 2.883948 1_455
S14 Sm1 3.210394 1_554
S14 Sm2 3.381029 1_555
S15 Si1 2.107027 1_555
S15 Sm2 2.870874 1_555
S15 Sm4 2.971117 1_545
S15 Sm3 3.047559 1_555
Br0 Sm1 2.971463 1_645
Br0 Sm0 3.402207 1_545
Br0 Sm5 3.402207 1_655
Br1 Sm2 2.971463 1_465
Br1 Sm3 3.402207 1_565
Br1 Sm4 3.402207 1_455
