# generated using pymatgen
data_Sr2UFeO6
_symmetry_space_group_name_H-M   'P 1'
_cell_length_a   5.97978500
_cell_length_b   5.89904700
_cell_length_c   10.07134178
_cell_angle_alpha   54.39386641
_cell_angle_beta   90.00000000
_cell_angle_gamma   90.00000000
_symmetry_Int_Tables_number   1
_chemical_formula_structural   Sr2UFeO6
_chemical_formula_sum   'Sr4 U2 Fe2 O12'
_cell_volume   288.84565499
_cell_formula_units_Z   2
loop_
 _symmetry_equiv_pos_site_id
 _symmetry_equiv_pos_as_xyz
  1  'x, y, z'
loop_
 _atom_site_type_symbol
 _atom_site_label
 _atom_site_symmetry_multiplicity
 _atom_site_fract_x
 _atom_site_fract_y
 _atom_site_fract_z
 _atom_site_occupancy
  Sr  Sr0  1  0.45856400  0.26049200  0.24874100  1
  Sr  Sr1  1  0.04143600  0.26049200  0.74874100  1
  Sr  Sr2  1  0.54143600  0.73950800  0.75125900  1
  Sr  Sr3  1  0.95856400  0.73950800  0.25125900  1
  U  U0  1  0.50000000  0.00000000  0.00000000  1
  U  U1  1  0.00000000  0.00000000  0.50000000  1
  Fe  Fe0  1  0.00000000  0.50000000  0.00000000  1
  Fe  Fe1  1  0.50000000  0.50000000  0.50000000  1
  O  O0  1  0.79708500  0.67675000  0.54313700  1
  O  O1  1  0.22046400  0.75280800  0.04483700  1
  O  O2  1  0.77953600  0.24719200  0.95516300  1
  O  O3  1  0.29708500  0.32325000  0.95686300  1
  O  O4  1  0.70291500  0.67675000  0.04313700  1
  O  O5  1  0.27953600  0.75280800  0.54483700  1
  O  O6  1  0.47676500  0.16724800  0.74869400  1
  O  O7  1  0.97676500  0.83275200  0.75130600  1
  O  O8  1  0.20291500  0.32325000  0.45686300  1
  O  O9  1  0.72046400  0.24719200  0.45516300  1
  O  O10  1  0.02323500  0.16724800  0.24869400  1
  O  O11  1  0.52323500  0.83275200  0.25130600  1
loop_
_geom_bond_atom_site_label_1
_geom_bond_atom_site_label_2
_geom_bond_distance
_geom_bond_site_symmetry_2
Fe0 O10 2.102601 1_555
Fe0 O7 2.102601 1_454
Fe0 O1 2.224886 1_555
Fe0 O2 2.224886 1_454
Fe0 O3 2.226949 1_554
Fe0 O4 2.226949 1_455
Fe1 O6 2.102601 1_555
Fe1 O11 2.102601 1_555
Fe1 O9 2.224886 1_555
Fe1 O5 2.224886 1_555
Fe1 O0 2.226949 1_555
Fe1 O8 2.226949 1_555
O0 U1 2.081478 1_665
O0 Sr1 2.555728 1_655
O0 Sr2 2.787676 1_555
O0 Sr3 2.905772 1_555
O1 U0 2.087496 1_565
O1 Sr3 2.567281 1_455
O1 Sr0 2.781028 1_555
O1 Sr1 2.934062 1_564
O2 U0 2.087496 1_556
O2 Sr1 2.567281 1_655
O2 Sr2 2.781028 1_555
O2 Sr3 2.934062 1_546
O3 U0 2.081478 1_556
O3 Sr2 2.555728 1_555
O3 Sr1 2.787676 1_555
O3 Sr0 2.905772 1_556
O4 U0 2.081478 1_565
O4 Sr0 2.555728 1_555
O4 Sr3 2.787676 1_555
O4 Sr2 2.905772 1_554
O5 U1 2.087496 1_565
O5 Sr2 2.567281 1_555
O5 Sr1 2.781028 1_555
O5 Sr0 2.934062 1_565
O6 U0 2.119184 1_556
O6 Sr2 2.537942 1_545
O6 Sr1 2.660709 1_555
O7 U1 2.119184 1_665
O7 Sr1 2.537942 1_665
O7 Sr2 2.660709 1_555
O8 U1 2.081478 1_555
O8 Sr3 2.555728 1_455
O8 Sr0 2.787676 1_555
O8 Sr1 2.905772 1_555
O9 U1 2.087496 1_655
O9 Sr0 2.567281 1_555
O9 Sr3 2.781028 1_555
O9 Sr2 2.934062 1_545
O10 U1 2.119184 1_555
O10 Sr3 2.537942 1_445
O10 Sr0 2.660709 1_555
O11 U0 2.119184 1_565
O11 Sr0 2.537942 1_565
O11 Sr3 2.660709 1_555
