# generated using pymatgen
data_Ba2Mn2Si2O9
_symmetry_space_group_name_H-M   'P 1'
_cell_length_a   8.72292100
_cell_length_b   10.92765300
_cell_length_c   18.60846000
_cell_angle_alpha   90.00000000
_cell_angle_beta   90.00000000
_cell_angle_gamma   90.00000000
_symmetry_Int_Tables_number   1
_chemical_formula_structural   Ba2Mn2Si2O9
_chemical_formula_sum   'Ba16 Mn16 Si16 O72'
_cell_volume   1773.77801744
_cell_formula_units_Z   8
loop_
 _symmetry_equiv_pos_site_id
 _symmetry_equiv_pos_as_xyz
  1  'x, y, z'
loop_
 _atom_site_type_symbol
 _atom_site_label
 _atom_site_symmetry_multiplicity
 _atom_site_fract_x
 _atom_site_fract_y
 _atom_site_fract_z
 _atom_site_occupancy
  Ba  Ba0  1  0.26242700  0.49470700  0.00593600  1
  Ba  Ba1  1  0.26242700  0.00529300  0.50593600  1
  Ba  Ba2  1  0.76242700  0.49470700  0.49406400  1
  Ba  Ba3  1  0.24422200  0.29187000  0.24092300  1
  Ba  Ba4  1  0.73757300  0.50529300  0.99406400  1
  Ba  Ba5  1  0.74422200  0.29187000  0.25907700  1
  Ba  Ba6  1  0.24422200  0.20813000  0.74092300  1
  Ba  Ba7  1  0.75577800  0.70813000  0.75907700  1
  Ba  Ba8  1  0.75577800  0.79187000  0.25907700  1
  Ba  Ba9  1  0.25577800  0.70813000  0.74092300  1
  Ba  Ba10  1  0.23757300  0.50529300  0.50593600  1
  Ba  Ba11  1  0.76242700  0.00529300  0.99406400  1
  Ba  Ba12  1  0.25577800  0.79187000  0.24092300  1
  Ba  Ba13  1  0.73757300  0.99470700  0.49406400  1
  Ba  Ba14  1  0.74422200  0.20813000  0.75907700  1
  Ba  Ba15  1  0.23757300  0.99470700  0.00593600  1
  Mn  Mn0  1  0.46807700  0.46210100  0.65513500  1
  Mn  Mn1  1  0.03192300  0.53789900  0.15513500  1
  Mn  Mn2  1  0.96807700  0.46210100  0.84486500  1
  Mn  Mn3  1  0.53192300  0.96210100  0.84486500  1
  Mn  Mn4  1  0.03192300  0.96210100  0.65513500  1
  Mn  Mn5  1  0.46041000  0.76462900  0.41771300  1
  Mn  Mn6  1  0.03959000  0.26462900  0.41771300  1
  Mn  Mn7  1  0.46041000  0.73537100  0.91771300  1
  Mn  Mn8  1  0.03959000  0.23537100  0.91771300  1
  Mn  Mn9  1  0.53959000  0.23537100  0.58228700  1
  Mn  Mn10  1  0.96041000  0.73537100  0.58228700  1
  Mn  Mn11  1  0.96807700  0.03789900  0.34486500  1
  Mn  Mn12  1  0.46807700  0.03789900  0.15513500  1
  Mn  Mn13  1  0.53959000  0.26462900  0.08228700  1
  Mn  Mn14  1  0.96041000  0.76462900  0.08228700  1
  Mn  Mn15  1  0.53192300  0.53789900  0.34486500  1
  Si  Si0  1  0.04649800  0.76261300  0.40896600  1
  Si  Si1  1  0.04723000  0.03169100  0.17081500  1
  Si  Si2  1  0.95350200  0.26261300  0.09103400  1
  Si  Si3  1  0.95277000  0.96830900  0.82918500  1
  Si  Si4  1  0.45277000  0.96830900  0.67081500  1
  Si  Si5  1  0.95350200  0.23738700  0.59103400  1
  Si  Si6  1  0.04723000  0.46830900  0.67081500  1
  Si  Si7  1  0.45277000  0.53169100  0.17081500  1
  Si  Si8  1  0.54723000  0.46830900  0.82918500  1
  Si  Si9  1  0.45350200  0.26261300  0.40896600  1
  Si  Si10  1  0.54723000  0.03169100  0.32918500  1
  Si  Si11  1  0.04649800  0.73738700  0.90896600  1
  Si  Si12  1  0.45350200  0.23738700  0.90896600  1
  Si  Si13  1  0.54649800  0.76261300  0.09103400  1
  Si  Si14  1  0.95277000  0.53169100  0.32918500  1
  Si  Si15  1  0.54649800  0.73738700  0.59103400  1
  O  O0  1  0.98302800  0.79566100  0.67883500  1
  O  O1  1  0.55484700  0.84002400  0.65938300  1
  O  O2  1  0.27919100  0.31314700  0.41558500  1
  O  O3  1  0.27242900  0.93026000  0.66734100  1
  O  O4  1  0.50250300  0.53152100  0.75177200  1
  O  O5  1  0.00250300  0.96847900  0.24822800  1
  O  O6  1  0.42459700  0.86967600  0.11650900  1
  O  O7  1  0.49749700  0.46847900  0.24822800  1
  O  O8  1  0.92459700  0.86967600  0.38349100  1
  O  O9  1  0.01697200  0.20433900  0.32116500  1
  O  O10  1  0.00820600  0.93688800  0.10522600  1
  O  O11  1  0.22757100  0.06974000  0.16734100  1
  O  O12  1  0.50250300  0.96847900  0.25177200  1
  O  O13  1  0.92459700  0.63032400  0.88349100  1
  O  O14  1  0.44515300  0.15997600  0.34061700  1
  O  O15  1  0.00858700  0.40343400  0.94009600  1
  O  O16  1  0.22757100  0.43026000  0.66734100  1
  O  O17  1  0.00250300  0.53152100  0.74822800  1
  O  O18  1  0.99749700  0.03152100  0.75177200  1
  O  O19  1  0.49179400  0.06311200  0.60522600  1
  O  O20  1  0.99141300  0.59656600  0.05990400  1
  O  O21  1  0.94515300  0.34002400  0.65938300  1
  O  O22  1  0.49141300  0.90343400  0.94009600  1
  O  O23  1  0.72757100  0.43026000  0.83265900  1
  O  O24  1  0.50858700  0.09656600  0.05990400  1
  O  O25  1  0.00858700  0.09656600  0.44009600  1
  O  O26  1  0.49749700  0.03152100  0.74822800  1
  O  O27  1  0.72757100  0.06974000  0.33265900  1
  O  O28  1  0.98302800  0.70433900  0.17883500  1
  O  O29  1  0.57540300  0.36967600  0.38349100  1
  O  O30  1  0.50820600  0.93688800  0.39477400  1
  O  O31  1  0.01697200  0.29566100  0.82116500  1
  O  O32  1  0.48727300  0.68633700  0.02007100  1
  O  O33  1  0.07540300  0.36967600  0.11650900  1
  O  O34  1  0.42459700  0.63032400  0.61650900  1
  O  O35  1  0.57540300  0.13032400  0.88349100  1
  O  O36  1  0.99141300  0.90343400  0.55990400  1
  O  O37  1  0.51272700  0.31366300  0.97992900  1
  O  O38  1  0.50820600  0.56311200  0.89477400  1
  O  O39  1  0.00820600  0.56311200  0.60522600  1
  O  O40  1  0.01272700  0.18633700  0.02007100  1
  O  O41  1  0.77919100  0.18685300  0.58441500  1
  O  O42  1  0.98727300  0.81366300  0.97992900  1
  O  O43  1  0.99179400  0.43688800  0.39477400  1
  O  O44  1  0.51697200  0.20433900  0.17883500  1
  O  O45  1  0.01272700  0.31366300  0.52007100  1
  O  O46  1  0.22080900  0.81314700  0.41558500  1
  O  O47  1  0.99749700  0.46847900  0.25177200  1
  O  O48  1  0.48302800  0.70433900  0.32116500  1
  O  O49  1  0.27242900  0.56974000  0.16734100  1
  O  O50  1  0.07540300  0.13032400  0.61650900  1
  O  O51  1  0.48302800  0.79566100  0.82116500  1
  O  O52  1  0.55484700  0.65997600  0.15938300  1
  O  O53  1  0.51697200  0.29566100  0.67883500  1
  O  O54  1  0.05484700  0.84002400  0.84061700  1
  O  O55  1  0.72080900  0.68685300  0.58441500  1
  O  O56  1  0.22080900  0.68685300  0.91558500  1
  O  O57  1  0.49179400  0.43688800  0.10522600  1
  O  O58  1  0.48727300  0.81366300  0.52007100  1
  O  O59  1  0.72080900  0.81314700  0.08441500  1
  O  O60  1  0.99179400  0.06311200  0.89477400  1
  O  O61  1  0.98727300  0.68633700  0.47992900  1
  O  O62  1  0.27919100  0.18685300  0.91558500  1
  O  O63  1  0.77242900  0.93026000  0.83265900  1
  O  O64  1  0.77242900  0.56974000  0.33265900  1
  O  O65  1  0.77919100  0.31314700  0.08441500  1
  O  O66  1  0.94515300  0.15997600  0.15938300  1
  O  O67  1  0.49141300  0.59656600  0.44009600  1
  O  O68  1  0.44515300  0.34002400  0.84061700  1
  O  O69  1  0.05484700  0.65997600  0.34061700  1
  O  O70  1  0.50858700  0.40343400  0.55990400  1
  O  O71  1  0.51272700  0.18633700  0.47992900  1
loop_
_geom_bond_atom_site_label_1
_geom_bond_atom_site_label_2
_geom_bond_distance
_geom_bond_site_symmetry_2
Ba0 O56 2.714277 1_554
Ba0 O15 2.720050 1_554
Ba0 O57 2.795703 1_555
Ba0 O20 2.799311 1_455
Ba0 O32 2.881154 1_555
Ba0 O33 2.960051 1_555
Ba0 O37 2.985837 1_554
Ba0 O38 3.071487 1_554
Ba0 O49 3.114628 1_555
Ba1 O46 2.714277 1_545
Ba1 O25 2.720050 1_555
Ba1 O19 2.795703 1_555
Ba1 O36 2.799311 1_445
Ba1 O58 2.881154 1_545
Ba1 O50 2.960051 1_555
Ba1 O71 2.985837 1_555
Ba1 O30 3.071487 1_545
Ba1 O3 3.114628 1_545
Ba2 O55 2.714277 1_555
Ba2 O70 2.720050 1_555
Ba2 O43 2.795703 1_555
Ba2 O67 2.799311 1_555
Ba2 O61 2.881154 1_555
Ba2 O29 2.960051 1_555
Ba2 O45 2.985837 1_655
Ba2 O39 3.071487 1_655
Ba2 O64 3.114628 1_555
Ba3 O9 2.659689 1_555
Ba3 O11 2.790701 1_555
Ba3 O44 2.812517 1_555
Ba3 O33 2.872520 1_555
Ba3 O47 2.897785 1_455
Ba3 O14 2.931021 1_555
Ba3 O7 2.936677 1_555
Ba4 O65 2.714277 1_556
Ba4 O20 2.720050 1_556
Ba4 O38 2.795703 1_555
Ba4 O15 2.799311 1_655
Ba4 O37 2.881154 1_555
Ba4 O13 2.960051 1_555
Ba4 O32 2.985837 1_556
Ba4 O57 3.071487 1_556
Ba4 O23 3.114628 1_555
Ba5 O44 2.659689 1_555
Ba5 O27 2.790701 1_555
Ba5 O9 2.812517 1_655
Ba5 O29 2.872520 1_555
Ba5 O7 2.897785 1_555
Ba5 O66 2.931021 1_555
Ba5 O47 2.936677 1_555
Ba6 O31 2.659689 1_555
Ba6 O16 2.790701 1_555
Ba6 O53 2.812517 1_555
Ba6 O50 2.872520 1_555
Ba6 O18 2.897785 1_455
Ba6 O68 2.931021 1_555
Ba6 O26 2.936677 1_555
Ba7 O0 2.659689 1_555
Ba7 O63 2.790701 1_555
Ba7 O51 2.812517 1_555
Ba7 O13 2.872520 1_555
Ba7 O17 2.897785 1_655
Ba7 O1 2.931021 1_555
Ba7 O4 2.936677 1_555
Ba8 O28 2.659689 1_555
Ba8 O64 2.790701 1_555
Ba8 O48 2.812517 1_555
Ba8 O8 2.872520 1_555
Ba8 O5 2.897785 1_655
Ba8 O52 2.931021 1_555
Ba8 O12 2.936677 1_555
Ba9 O51 2.659689 1_555
Ba9 O3 2.790701 1_555
Ba9 O0 2.812517 1_455
Ba9 O34 2.872520 1_555
Ba9 O4 2.897785 1_555
Ba9 O54 2.931021 1_555
Ba9 O17 2.936677 1_555
Ba10 O2 2.714277 1_555
Ba10 O67 2.720050 1_555
Ba10 O39 2.795703 1_555
Ba10 O70 2.799311 1_555
Ba10 O45 2.881154 1_555
Ba10 O34 2.960051 1_555
Ba10 O61 2.985837 1_455
Ba10 O43 3.071487 1_455
Ba10 O16 3.114628 1_555
Ba11 O59 2.714277 1_546
Ba11 O24 2.720050 1_556
Ba11 O60 2.795703 1_555
Ba11 O22 2.799311 1_545
Ba11 O42 2.881154 1_545
Ba11 O35 2.960051 1_555
Ba11 O40 2.985837 1_656
Ba11 O10 3.071487 1_646
Ba11 O63 3.114628 1_545
Ba12 O48 2.659689 1_555
Ba12 O49 2.790701 1_555
Ba12 O28 2.812517 1_455
Ba12 O6 2.872520 1_555
Ba12 O12 2.897785 1_555
Ba12 O69 2.931021 1_555
Ba12 O5 2.936677 1_555
Ba13 O41 2.714277 1_565
Ba13 O36 2.720050 1_555
Ba13 O30 2.795703 1_555
Ba13 O25 2.799311 1_665
Ba13 O71 2.881154 1_565
Ba13 O8 2.960051 1_555
Ba13 O58 2.985837 1_555
Ba13 O19 3.071487 1_565
Ba13 O27 3.114628 1_565
Ba14 O53 2.659689 1_555
Ba14 O23 2.790701 1_555
Ba14 O31 2.812517 1_655
Ba14 O35 2.872520 1_555
Ba14 O26 2.897785 1_555
Ba14 O21 2.931021 1_555
Ba14 O18 2.936677 1_555
Ba15 O62 2.714277 1_564
Ba15 O22 2.720050 1_554
Ba15 O10 2.795703 1_555
Ba15 O24 2.799311 1_565
Ba15 O40 2.881154 1_565
Ba15 O6 2.960051 1_555
Ba15 O42 2.985837 1_454
Ba15 O60 3.071487 1_464
Ba15 O11 3.114628 1_565
Mn0 O70 1.917345 1_555
Mn0 O53 1.919488 1_555
Mn0 O4 1.974692 1_555
Mn0 O34 2.009916 1_555
Mn0 O16 2.138669 1_555
Mn1 O20 1.917345 1_455
Mn1 O28 1.919488 1_455
Mn1 O47 1.974692 1_455
Mn1 O33 2.009916 1_555
Mn1 O49 2.138669 1_555
Mn2 O15 1.917345 1_655
Mn2 O31 1.919488 1_655
Mn2 O17 1.974692 1_655
Mn2 O13 2.009916 1_555
Mn2 O23 2.138669 1_555
Mn3 O22 1.917345 1_555
Mn3 O51 1.919488 1_555
Mn3 O26 1.974692 1_565
Mn3 O35 2.009916 1_565
Mn3 O63 2.138669 1_555
Mn4 O36 1.917345 1_455
Mn4 O0 1.919488 1_455
Mn4 O18 1.974692 1_465
Mn4 O50 2.009916 1_565
Mn4 O3 2.138669 1_555
Mn5 O67 1.902492 1_555
Mn5 O48 1.923743 1_555
Mn5 O30 1.974693 1_555
Mn5 O58 1.992484 1_555
Mn5 O46 2.156584 1_555
Mn6 O25 1.902492 1_555
Mn6 O9 1.923743 1_555
Mn6 O43 1.974693 1_455
Mn6 O45 1.992484 1_555
Mn6 O2 2.156584 1_555
Mn7 O22 1.902492 1_555
Mn7 O51 1.923743 1_555
Mn7 O38 1.974693 1_555
Mn7 O32 1.992484 1_556
Mn7 O56 2.156584 1_555
Mn8 O15 1.902492 1_555
Mn8 O31 1.923743 1_555
Mn8 O60 1.974693 1_455
Mn8 O40 1.992484 1_556
Mn8 O62 2.156584 1_555
Mn9 O70 1.902492 1_555
Mn9 O53 1.923743 1_555
Mn9 O19 1.974693 1_555
Mn9 O71 1.992484 1_555
Mn9 O41 2.156584 1_555
Mn10 O36 1.902492 1_555
Mn10 O0 1.923743 1_555
Mn10 O39 1.974693 1_655
Mn10 O61 1.992484 1_555
Mn10 O55 2.156584 1_555
Mn11 O25 1.917345 1_655
Mn11 O9 1.919488 1_655
Mn11 O5 1.974692 1_645
Mn11 O8 2.009916 1_545
Mn11 O27 2.138669 1_555
Mn12 O24 1.917345 1_555
Mn12 O44 1.919488 1_555
Mn12 O12 1.974692 1_545
Mn12 O6 2.009916 1_545
Mn12 O11 2.138669 1_555
Mn13 O24 1.902492 1_555
Mn13 O44 1.923743 1_555
Mn13 O57 1.974693 1_555
Mn13 O37 1.992484 1_554
Mn13 O65 2.156584 1_555
Mn14 O20 1.902492 1_555
Mn14 O28 1.923743 1_555
Mn14 O10 1.974693 1_655
Mn14 O42 1.992484 1_554
Mn14 O59 2.156584 1_555
Mn15 O67 1.917345 1_555
Mn15 O48 1.919488 1_555
Mn15 O7 1.974692 1_555
Mn15 O29 2.009916 1_555
Mn15 O64 2.138669 1_555
O1 Si4 1.674299 1_555
O1 Si15 1.697322 1_555
O2 Si9 1.622356 1_555
O3 Si4 1.628405 1_555
O4 Si8 1.644540 1_555
O5 Si1 1.644540 1_565
O6 Si13 1.650508 1_555
O7 Si7 1.644540 1_555
O8 Si0 1.650508 1_655
O10 Si1 1.636693 1_565
O11 Si1 1.628405 1_555
O12 Si10 1.644540 1_565
O13 Si11 1.650508 1_655
O14 Si10 1.674299 1_555
O14 Si9 1.697322 1_555
O16 Si6 1.628405 1_555
O17 Si6 1.644540 1_555
O18 Si3 1.644540 1_545
O19 Si4 1.636693 1_545
O21 Si6 1.674299 1_655
O21 Si5 1.697322 1_555
O23 Si8 1.628405 1_555
O26 Si4 1.644540 1_545
O27 Si10 1.628405 1_555
O29 Si9 1.650508 1_555
O30 Si10 1.636693 1_565
O32 Si13 1.644809 1_555
O33 Si2 1.650508 1_455
O34 Si15 1.650508 1_555
O35 Si12 1.650508 1_555
O37 Si12 1.644809 1_555
O38 Si8 1.636693 1_555
O39 Si6 1.636693 1_555
O40 Si2 1.644809 1_455
O41 Si5 1.622356 1_555
O42 Si11 1.644809 1_655
O43 Si14 1.636693 1_555
O45 Si5 1.644809 1_455
O46 Si0 1.622356 1_555
O47 Si14 1.644540 1_555
O49 Si7 1.628405 1_555
O50 Si5 1.650508 1_455
O52 Si7 1.674299 1_555
O52 Si13 1.697322 1_555
O54 Si3 1.674299 1_455
O54 Si11 1.697322 1_555
O55 Si15 1.622356 1_555
O56 Si11 1.622356 1_555
O57 Si7 1.636693 1_555
O58 Si15 1.644809 1_555
O59 Si13 1.622356 1_555
O60 Si3 1.636693 1_545
O61 Si0 1.644809 1_655
O62 Si12 1.622356 1_555
O63 Si3 1.628405 1_555
O64 Si14 1.628405 1_555
O65 Si2 1.622356 1_555
O66 Si1 1.674299 1_655
O66 Si2 1.697322 1_555
O68 Si8 1.674299 1_555
O68 Si12 1.697322 1_555
O69 Si14 1.674299 1_455
O69 Si0 1.697322 1_555
O71 Si9 1.644809 1_555
