# generated using pymatgen
data_RbMnPO4
_symmetry_space_group_name_H-M   'P 1'
_cell_length_a   5.52424900
_cell_length_b   9.09806546
_cell_length_c   9.35984198
_cell_angle_alpha   90.34994139
_cell_angle_beta   89.99754828
_cell_angle_gamma   89.99905234
_symmetry_Int_Tables_number   1
_chemical_formula_structural   RbMnPO4
_chemical_formula_sum   'Rb4 Mn4 P4 O16'
_cell_volume   470.41668696
_cell_formula_units_Z   4
loop_
 _symmetry_equiv_pos_site_id
 _symmetry_equiv_pos_as_xyz
  1  'x, y, z'
loop_
 _atom_site_type_symbol
 _atom_site_label
 _atom_site_symmetry_multiplicity
 _atom_site_fract_x
 _atom_site_fract_y
 _atom_site_fract_z
 _atom_site_occupancy
  Rb  Rb0  1  0.87924700  0.99354700  0.80036000  1
  Rb  Rb1  1  0.37923900  0.00645000  0.19968300  1
  Rb  Rb2  1  0.41042800  0.51141400  0.31040200  1
  Rb  Rb3  1  0.91039100  0.48853200  0.68960900  1
  Mn  Mn0  1  0.41129200  0.67348500  0.90729300  1
  Mn  Mn1  1  0.35786300  0.15958300  0.56805400  1
  Mn  Mn2  1  0.91105600  0.32651400  0.09258600  1
  Mn  Mn3  1  0.85797300  0.84042000  0.43191800  1
  P  P0  1  0.40127700  0.79291900  0.57308000  1
  P  P1  1  0.90126200  0.20708200  0.42688800  1
  P  P2  1  0.40911700  0.29797500  0.90044300  1
  P  P3  1  0.90912700  0.70203800  0.09958100  1
  O  O0  1  0.18253700  0.73488800  0.07173300  1
  O  O1  1  0.68253300  0.26509600  0.92827100  1
  O  O2  1  0.81101700  0.81121400  0.21401800  1
  O  O3  1  0.31105800  0.18881500  0.78599400  1
  O  O4  1  0.67958700  0.26353400  0.51221600  1
  O  O5  1  0.17960300  0.73645600  0.48776500  1
  O  O6  1  0.62295200  0.69094400  0.54518000  1
  O  O7  1  0.12292200  0.30904400  0.45485600  1
  O  O8  1  0.37753200  0.45804500  0.84614900  1
  O  O9  1  0.87753800  0.54199300  0.15395400  1
  O  O10  1  0.83693200  0.19461400  0.26586200  1
  O  O11  1  0.33684200  0.80542300  0.73409500  1
  O  O12  1  0.76611200  0.72418500  0.95749000  1
  O  O13  1  0.26617500  0.27578100  0.04254400  1
  O  O14  1  0.98989500  0.05310900  0.48308900  1
  O  O15  1  0.48989500  0.94689900  0.51688900  1
loop_
_geom_bond_atom_site_label_1
_geom_bond_atom_site_label_2
_geom_bond_distance
_geom_bond_site_symmetry_2
Mn0 O8 2.047088 1_555
Mn0 O11 2.064427 1_555
Mn0 O0 2.065735 1_556
Mn0 O12 2.067130 1_555
Mn1 O3 2.071724 1_555
Mn1 O4 2.081429 1_555
Mn1 O15 2.119956 1_545
Mn1 O7 2.161892 1_555
Mn1 O14 2.386144 1_455
Mn2 O9 2.047870 1_555
Mn2 O1 2.064209 1_554
Mn2 O10 2.064423 1_555
Mn2 O13 2.068383 1_655
Mn3 O2 2.071454 1_555
Mn3 O5 2.081072 1_655
Mn3 O14 2.119837 1_565
Mn3 O6 2.162512 1_555
Mn3 O15 2.386614 1_555
O0 P3 1.561877 1_455
O0 Rb1 2.946753 1_565
O0 Rb2 3.280958 1_555
O1 P2 1.561940 1_555
O1 Rb0 2.946464 1_545
O1 Rb3 3.280580 1_555
O2 P3 1.553895 1_555
O2 Rb1 2.977474 1_565
O3 P2 1.553825 1_555
O3 Rb0 2.977845 1_445
O4 P1 1.547948 1_555
O4 Rb3 2.920899 1_555
O4 Rb2 3.304121 1_555
O5 P0 1.547981 1_555
O5 Rb2 2.920979 1_555
O5 Rb3 3.304650 1_455
O6 P0 1.557418 1_555
O6 Rb3 2.787590 1_555
O6 Rb2 2.971810 1_555
O7 P1 1.557429 1_455
O7 Rb2 2.787631 1_555
O7 Rb3 2.971349 1_455
O8 P2 1.555192 1_555
O8 Rb3 2.981358 1_455
O8 Rb3 3.300513 1_555
O9 P3 1.555228 1_555
O9 Rb2 2.980766 1_555
O9 Rb2 3.300460 1_655
O10 P1 1.552000 1_555
O10 Rb1 3.113610 1_555
O11 P0 1.552024 1_555
O11 Rb0 3.113039 1_455
O12 P3 1.561058 1_556
O12 Rb0 2.933155 1_555
O12 Rb3 3.384187 1_555
O13 P2 1.560937 1_554
O13 Rb1 2.932887 1_555
O13 Rb2 3.383947 1_555
O14 P1 1.577291 1_555
O14 Rb0 3.083075 1_545
O15 P0 1.577291 1_555
O15 Rb1 3.082526 1_565
