# generated using pymatgen
data_LiAl(SiO3)2
_symmetry_space_group_name_H-M   'P 1'
_cell_length_a   8.53678500
_cell_length_b   5.19215900
_cell_length_c   9.18356279
_cell_angle_alpha   77.36872496
_cell_angle_beta   90.00000000
_cell_angle_gamma   90.00000000
_symmetry_Int_Tables_number   1
_chemical_formula_structural   LiAl(SiO3)2
_chemical_formula_sum   'Li4 Al4 Si8 O24'
_cell_volume   397.20366482
_cell_formula_units_Z   4
loop_
 _symmetry_equiv_pos_site_id
 _symmetry_equiv_pos_as_xyz
  1  'x, y, z'
loop_
 _atom_site_type_symbol
 _atom_site_label
 _atom_site_symmetry_multiplicity
 _atom_site_fract_x
 _atom_site_fract_y
 _atom_site_fract_z
 _atom_site_occupancy
  Li  Li0  1  0.01494900  0.97243100  0.25491000  1
  Li  Li1  1  0.51494900  0.52756900  0.74509000  1
  Li  Li2  1  0.98505100  0.02756900  0.74509000  1
  Li  Li3  1  0.48505100  0.47243100  0.25491000  1
  Al  Al0  1  0.65231900  0.97252700  0.25032100  1
  Al  Al1  1  0.15231900  0.52747300  0.74967900  1
  Al  Al2  1  0.34768100  0.02747300  0.74967900  1
  Al  Al3  1  0.84768100  0.47252700  0.25032100  1
  Si  Si0  1  0.34255100  0.22912800  0.04595100  1
  Si  Si1  1  0.84255100  0.27087200  0.95404900  1
  Si  Si2  1  0.65744900  0.77087200  0.95404900  1
  Si  Si3  1  0.15744900  0.72912800  0.04595100  1
  Si  Si4  1  0.84086600  0.68095100  0.54969600  1
  Si  Si5  1  0.34086600  0.81904900  0.45030400  1
  Si  Si6  1  0.15913400  0.31904900  0.45030400  1
  Si  Si7  1  0.65913400  0.18095100  0.54969600  1
  O  O0  1  0.32973600  0.30192000  0.86094600  1
  O  O1  1  0.82973600  0.19808000  0.13905400  1
  O  O2  1  0.67026400  0.69808000  0.13905400  1
  O  O3  1  0.17026400  0.80192000  0.86094600  1
  O  O4  1  0.51296500  0.16958800  0.11861100  1
  O  O5  1  0.01296500  0.33041200  0.88138900  1
  O  O6  1  0.48703500  0.83041200  0.88138900  1
  O  O7  1  0.98703500  0.66958800  0.11861100  1
  O  O8  1  0.28259200  0.48841000  0.10723800  1
  O  O9  1  0.78259200  0.01159000  0.89276200  1
  O  O10  1  0.71740800  0.51159000  0.89276200  1
  O  O11  1  0.21740800  0.98841000  0.10723800  1
  O  O12  1  0.82885900  0.74692100  0.36418300  1
  O  O13  1  0.32885900  0.75307900  0.63581700  1
  O  O14  1  0.17114100  0.25307900  0.63581700  1
  O  O15  1  0.67114100  0.24692100  0.36418300  1
  O  O16  1  0.00587200  0.72787700  0.62438800  1
  O  O17  1  0.50587200  0.77212300  0.37561200  1
  O  O18  1  0.99412800  0.27212300  0.37561200  1
  O  O19  1  0.49412800  0.22787700  0.62438800  1
  O  O20  1  0.71064900  0.87002700  0.60801300  1
  O  O21  1  0.21064900  0.62997300  0.39198700  1
  O  O22  1  0.28935100  0.12997300  0.39198700  1
  O  O23  1  0.78935100  0.37002700  0.60801300  1
loop_
_geom_bond_atom_site_label_1
_geom_bond_atom_site_label_2
_geom_bond_distance
_geom_bond_site_symmetry_2
Li0 O12 2.094709 1_455
Li0 O18 2.106171 1_465
Li0 O1 2.111744 1_465
Li0 O11 2.187241 1_555
Li0 O7 2.226394 1_455
Li0 O21 2.560949 1_555
Li1 O13 2.094709 1_555
Li1 O19 2.106171 1_555
Li1 O0 2.111744 1_555
Li1 O10 2.187241 1_555
Li1 O6 2.226394 1_555
Li1 O20 2.560949 1_555
Li2 O14 2.094709 1_655
Li2 O16 2.106171 1_645
Li2 O3 2.111744 1_645
Li2 O9 2.187241 1_555
Li2 O5 2.226394 1_655
Li2 O23 2.560949 1_555
Li3 O15 2.094709 1_555
Li3 O17 2.106171 1_555
Li3 O2 2.111744 1_555
Li3 O8 2.187241 1_555
Li3 O4 2.226394 1_555
Li3 O22 2.560949 1_555
Al0 O4 1.839538 1_565
Al0 O17 1.856332 1_555
Al0 O2 1.932605 1_555
Al0 O15 1.949494 1_565
Al0 O1 2.046016 1_565
Al0 O12 2.049669 1_555
Al1 O5 1.839538 1_555
Al1 O16 1.856332 1_555
Al1 O3 1.932605 1_555
Al1 O14 1.949494 1_555
Al1 O0 2.046016 1_555
Al1 O13 2.049669 1_555
Al2 O6 1.839538 1_545
Al2 O19 1.856332 1_555
Al2 O0 1.932605 1_555
Al2 O13 1.949494 1_545
Al2 O3 2.046016 1_545
Al2 O14 2.049669 1_555
Al3 O7 1.839538 1_555
Al3 O18 1.856332 1_555
Al3 O1 1.932605 1_555
Al3 O12 1.949494 1_555
Al3 O2 2.046016 1_555
Al3 O15 2.049669 1_555
O0 Si0 1.661503 1_556
O1 Si1 1.661503 1_554
O2 Si2 1.661503 1_554
O3 Si3 1.661503 1_556
O4 Si0 1.602191 1_555
O5 Si1 1.602191 1_455
O6 Si2 1.602191 1_555
O7 Si3 1.602191 1_655
O8 Si3 1.646980 1_555
O8 Si0 1.650002 1_555
O9 Si2 1.646980 1_545
O9 Si1 1.650002 1_555
O10 Si1 1.646980 1_555
O10 Si2 1.650002 1_555
O11 Si0 1.646980 1_565
O11 Si3 1.650002 1_555
O12 Si4 1.665865 1_555
O13 Si5 1.665865 1_555
O14 Si6 1.665865 1_555
O15 Si7 1.665865 1_555
O16 Si4 1.608472 1_455
O17 Si5 1.608472 1_555
O18 Si6 1.608472 1_655
O19 Si7 1.608472 1_555
O20 Si7 1.645683 1_565
O20 Si4 1.648107 1_555
O21 Si6 1.645683 1_555
O21 Si5 1.648107 1_555
O22 Si5 1.645683 1_545
O22 Si6 1.648107 1_555
O23 Si4 1.645683 1_555
O23 Si7 1.648107 1_555
