# generated using pymatgen
data_Li4Ga3Si3BrO12
_symmetry_space_group_name_H-M   'P 1'
_cell_length_a   8.55439049
_cell_length_b   8.55439049
_cell_length_c   8.55439049
_cell_angle_alpha   90.00000000
_cell_angle_beta   90.00000000
_cell_angle_gamma   90.00000000
_symmetry_Int_Tables_number   1
_chemical_formula_structural   Li4Ga3Si3BrO12
_chemical_formula_sum   'Li8 Ga6 Si6 Br2 O24'
_cell_volume   625.98973691
_cell_formula_units_Z   2
loop_
 _symmetry_equiv_pos_site_id
 _symmetry_equiv_pos_as_xyz
  1  'x, y, z'
loop_
 _atom_site_type_symbol
 _atom_site_label
 _atom_site_symmetry_multiplicity
 _atom_site_fract_x
 _atom_site_fract_y
 _atom_site_fract_z
 _atom_site_occupancy
  Li  Li0  1  0.32129103  0.32129103  0.67870897  1
  Li  Li1  1  0.17870897  0.82129103  0.82129103  1
  Li  Li2  1  0.32129103  0.67870897  0.32129103  1
  Li  Li3  1  0.82129103  0.17870897  0.82129103  1
  Li  Li4  1  0.17870897  0.17870897  0.17870897  1
  Li  Li5  1  0.67870897  0.67870897  0.67870897  1
  Li  Li6  1  0.67870897  0.32129103  0.32129103  1
  Li  Li7  1  0.82129103  0.82129103  0.17870897  1
  Ga  Ga0  1  -0.00000000  0.75000000  0.50000000  1
  Ga  Ga1  1  0.25000000  0.50000000  -0.00000000  1
  Ga  Ga2  1  0.50000000  -0.00000000  0.75000000  1
  Ga  Ga3  1  0.50000000  -0.00000000  0.25000000  1
  Ga  Ga4  1  -0.00000000  0.25000000  0.50000000  1
  Ga  Ga5  1  0.75000000  0.50000000  -0.00000000  1
  Si  Si0  1  -0.00000000  0.50000000  0.25000000  1
  Si  Si1  1  0.50000000  0.75000000  -0.00000000  1
  Si  Si2  1  0.50000000  0.25000000  -0.00000000  1
  Si  Si3  1  -0.00000000  0.50000000  0.75000000  1
  Si  Si4  1  0.75000000  -0.00000000  0.50000000  1
  Si  Si5  1  0.25000000  -0.00000000  0.50000000  1
  Br  Br0  1  -0.00000000  -0.00000000  -0.00000000  1
  Br  Br1  1  0.50000000  0.50000000  0.50000000  1
  O  O0  1  0.90258995  0.62705596  0.64643713  1
  O  O1  1  0.40258995  0.85356287  0.87294404  1
  O  O2  1  0.09741005  0.37294404  0.64643713  1
  O  O3  1  0.85356287  0.87294404  0.40258995  1
  O  O4  1  0.40258995  0.14643713  0.12705596  1
  O  O5  1  0.64643713  0.09741005  0.37294404  1
  O  O6  1  0.37294404  0.35356287  0.90258995  1
  O  O7  1  0.35356287  0.90258995  0.37294404  1
  O  O8  1  0.59741005  0.85356287  0.12705596  1
  O  O9  1  0.14643713  0.12705596  0.40258995  1
  O  O10  1  0.59741005  0.14643713  0.87294404  1
  O  O11  1  0.87294404  0.59741005  0.14643713  1
  O  O12  1  0.14643713  0.87294404  0.59741005  1
  O  O13  1  0.37294404  0.64643713  0.09741005  1
  O  O14  1  0.12705596  0.59741005  0.85356287  1
  O  O15  1  0.62705596  0.64643713  0.90258995  1
  O  O16  1  0.12705596  0.40258995  0.14643713  1
  O  O17  1  0.35356287  0.09741005  0.62705596  1
  O  O18  1  0.09741005  0.62705596  0.35356287  1
  O  O19  1  0.87294404  0.40258995  0.85356287  1
  O  O20  1  0.62705596  0.35356287  0.09741005  1
  O  O21  1  0.64643713  0.90258995  0.62705596  1
  O  O22  1  0.90258995  0.37294404  0.35356287  1
  O  O23  1  0.85356287  0.12705596  0.59741005  1
loop_
_geom_bond_atom_site_label_1
_geom_bond_atom_site_label_2
_geom_bond_distance
_geom_bond_site_symmetry_2
Li0 O6 1.984770 1_555
Li0 O2 1.984770 1_555
Li0 O17 1.984770 1_555
Li1 O12 1.984770 1_555
Li1 O1 1.984770 1_555
Li1 O14 1.984770 1_555
Li2 O13 1.984770 1_555
Li2 O18 1.984770 1_555
Li2 O7 1.984770 1_555
Li3 O19 1.984770 1_555
Li3 O23 1.984770 1_555
Li3 O10 1.984770 1_555
Li4 O9 1.984770 1_555
Li4 O16 1.984770 1_555
Li4 O4 1.984770 1_555
Li5 O15 1.984770 1_555
Li5 O21 1.984770 1_555
Li5 O0 1.984770 1_555
Li6 O20 1.984770 1_555
Li6 O5 1.984770 1_555
Li6 O22 1.984770 1_555
Li7 O3 1.984770 1_555
Li7 O11 1.984770 1_555
Li7 O8 1.984770 1_555
Ga0 O12 1.835665 1_555
Ga0 O18 1.835665 1_555
Ga0 O3 1.835665 1_455
Ga0 O0 1.835665 1_455
Ga1 O6 1.835665 1_554
Ga1 O13 1.835665 1_555
Ga1 O16 1.835665 1_555
Ga1 O14 1.835665 1_554
Ga2 O10 1.835665 1_555
Ga2 O21 1.835665 1_545
Ga2 O17 1.835665 1_555
Ga2 O1 1.835665 1_545
Ga3 O5 1.835665 1_555
Ga3 O7 1.835665 1_545
Ga3 O4 1.835665 1_555
Ga3 O8 1.835665 1_545
Ga4 O2 1.835665 1_555
Ga4 O22 1.835665 1_455
Ga4 O9 1.835665 1_555
Ga4 O23 1.835665 1_455
Ga5 O11 1.835665 1_555
Ga5 O15 1.835665 1_554
Ga5 O19 1.835665 1_554
Ga5 O20 1.835665 1_555
Br0 Li7 2.647866 1_445
Br0 Li1 2.647866 1_544
Br0 Li3 2.647866 1_454
Br0 Li4 2.647866 1_555
Br1 Li5 2.647866 1_555
Br1 Li6 2.647866 1_555
Br1 Li2 2.647866 1_555
Br1 Li0 2.647866 1_555
O0 Si3 1.631114 1_655
O1 Si1 1.631114 1_556
O2 Si3 1.631114 1_555
O3 Si4 1.631114 1_565
O4 Si2 1.631114 1_555
O5 Si4 1.631114 1_555
O6 Si2 1.631114 1_556
O7 Si5 1.631114 1_565
O8 Si1 1.631114 1_555
O9 Si5 1.631114 1_555
O10 Si2 1.631114 1_556
O11 Si0 1.631114 1_655
O12 Si5 1.631114 1_565
O13 Si1 1.631114 1_555
O14 Si3 1.631114 1_555
O15 Si1 1.631114 1_556
O16 Si0 1.631114 1_555
O17 Si5 1.631114 1_555
O18 Si0 1.631114 1_555
O19 Si3 1.631114 1_655
O20 Si2 1.631114 1_555
O21 Si4 1.631114 1_565
O22 Si0 1.631114 1_655
O23 Si4 1.631114 1_555
