# generated using pymatgen
data_Lu11Te4
_symmetry_space_group_name_H-M   'P 1'
_cell_length_a   3.91724365
_cell_length_b   15.22697212
_cell_length_c   20.95600386
_cell_angle_alpha   102.72614208
_cell_angle_beta   90.00000000
_cell_angle_gamma   97.39034477
_symmetry_Int_Tables_number   1
_chemical_formula_structural   Lu11Te4
_chemical_formula_sum   'Lu33 Te12'
_cell_volume   1208.62433447
_cell_formula_units_Z   3
loop_
 _symmetry_equiv_pos_site_id
 _symmetry_equiv_pos_as_xyz
  1  'x, y, z'
loop_
 _atom_site_type_symbol
 _atom_site_label
 _atom_site_symmetry_multiplicity
 _atom_site_fract_x
 _atom_site_fract_y
 _atom_site_fract_z
 _atom_site_occupancy
  Lu  Lu0  1  0.25511092  0.51022184  0.07291783  1
  Lu  Lu1  1  0.96780510  0.93561120  0.16362965  1
  Lu  Lu2  1  0.03219490  0.06438880  0.83637035  1
  Lu  Lu3  1  0.82718978  0.65437857  0.43500249  1
  Lu  Lu4  1  0.42621582  0.85243164  0.03746543  1
  Lu  Lu5  1  0.28531640  0.57063279  0.54341113  1
  Lu  Lu6  1  0.60571339  0.21142679  0.77966331  1
  Lu  Lu7  1  0.24243574  0.48486947  0.34647787  1
  Lu  Lu8  1  0.43910483  0.87820966  0.41325727  1
  Lu  Lu9  1  0.46331797  0.92663493  0.69062457  1
  Lu  Lu10  1  0.57378418  0.14756836  0.96253457  1
  Lu  Lu11  1  0.12601092  0.25202185  0.09207143  1
  Lu  Lu12  1  0.86898091  0.73795981  0.63082246  1
  Lu  Lu13  1  0.39428661  0.78857321  0.22033669  1
  Lu  Lu14  1  0.87398908  0.74797815  0.90792857  1
  Lu  Lu15  1  0.17281022  0.34562143  0.56499751  1
  Lu  Lu16  1  0.56089517  0.12179034  0.58674273  1
  Lu  Lu17  1  0.74488908  0.48977816  0.92708217  1
  Lu  Lu18  1  0.03148431  0.06296863  0.44480722  1
  Lu  Lu19  1  0.79647084  0.59294168  0.21864499  1
  Lu  Lu20  1  0.71468360  0.42936721  0.45658887  1
  Lu  Lu21  1  0.13101909  0.26204019  0.36917754  1
  Lu  Lu22  1  0.00000000  0.00000000  -0.00000000  1
  Lu  Lu23  1  0.20352916  0.40705832  0.78135501  1
  Lu  Lu24  1  0.53668203  0.07336507  0.30937543  1
  Lu  Lu25  1  0.34065362  0.68130725  0.74420516  1
  Lu  Lu26  1  0.65934638  0.31869275  0.25579484  1
  Lu  Lu27  1  0.45722884  0.91445767  0.88285256  1
  Lu  Lu28  1  0.84927215  0.69854430  0.09641444  1
  Lu  Lu29  1  0.15072785  0.30145570  0.90358556  1
  Lu  Lu30  1  0.54277116  0.08554233  0.11714744  1
  Lu  Lu31  1  0.96851569  0.93703137  0.55519278  1
  Lu  Lu32  1  0.75756426  0.51513053  0.65352213  1
  Te  Te0  1  0.21576836  0.43153571  0.19422600  1
  Te  Te1  1  0.04159275  0.08318450  0.69015717  1
  Te  Te2  1  0.38798663  0.77597326  0.52793366  1
  Te  Te3  1  0.78423164  0.56846429  0.80577400  1
  Te  Te4  1  0.91992067  0.83984334  0.77485961  1
  Te  Te5  1  0.61201337  0.22402674  0.47206634  1
  Te  Te6  1  0.95840725  0.91681550  0.30984283  1
  Te  Te7  1  0.34184752  0.68369504  0.32839048  1
  Te  Te8  1  0.08007933  0.16015666  0.22514039  1
  Te  Te9  1  0.32194478  0.64388956  0.98004740  1
  Te  Te10  1  0.67805522  0.35611044  0.01995260  1
  Te  Te11  1  0.65815248  0.31630496  0.67160952  1
loop_
_geom_bond_atom_site_label_1
_geom_bond_atom_site_label_2
_geom_bond_distance
_geom_bond_site_symmetry_2
Lu0 Te0 3.035822 1_555
Lu0 Te10 3.055530 1_455
Lu0 Te10 3.055530 1_555
Lu0 Te9 3.099520 1_554
Lu1 Te6 3.139313 1_555
Lu1 Te8 3.349166 1_665
Lu2 Te1 3.139313 1_555
Lu2 Te4 3.349166 1_445
Lu3 Te2 3.067830 1_655
Lu3 Te2 3.067832 1_555
Lu3 Te7 3.076208 1_655
Lu3 Te7 3.076210 1_555
Lu4 Te9 3.111453 1_554
Lu5 Te2 3.188510 1_555
Lu6 Te11 3.037886 1_555
Lu6 Te1 3.080711 1_555
Lu6 Te1 3.080713 1_655
Lu7 Te7 3.108606 1_555
Lu7 Te0 3.112376 1_555
Lu8 Te6 3.071462 1_555
Lu8 Te6 3.071465 1_455
Lu8 Te7 3.077282 1_555
Lu8 Te2 3.131584 1_555
Lu9 Te1 3.071637 1_665
Lu9 Te1 3.071637 1_565
Lu9 Te4 3.114113 1_555
Lu9 Te4 3.114120 1_455
Lu9 Te2 3.654256 1_555
Lu10 Te10 3.111453 1_556
Lu10 Lu22 3.193032 1_556
Lu10 Lu22 3.193032 1_656
Lu11 Te0 3.058239 1_555
Lu11 Te10 3.105829 1_555
Lu11 Te10 3.105829 1_455
Lu11 Te8 3.379232 1_555
Lu12 Te2 3.060144 1_655
Lu12 Te2 3.060149 1_555
Lu12 Te4 3.068357 1_555
Lu13 Te7 3.037886 1_555
Lu13 Te6 3.080711 1_555
Lu13 Te6 3.080713 1_455
Lu14 Te3 3.058239 1_555
Lu14 Te9 3.105829 1_555
Lu14 Te9 3.105829 1_655
Lu14 Te4 3.379232 1_555
Lu15 Te5 3.067830 1_455
Lu15 Te5 3.067832 1_555
Lu15 Te11 3.076208 1_455
Lu15 Te11 3.076210 1_555
Lu16 Te1 3.071462 1_555
Lu16 Te1 3.071465 1_655
Lu16 Te11 3.077282 1_555
Lu16 Te5 3.131584 1_555
Lu17 Te3 3.035822 1_555
Lu17 Te9 3.055530 1_655
Lu17 Te9 3.055530 1_555
Lu17 Te10 3.099520 1_556
Lu18 Te5 3.075741 1_555
Lu18 Te5 3.075741 1_455
Lu18 Te6 3.177572 1_445
Lu19 Te0 3.079677 1_555
Lu19 Te0 3.079680 1_655
Lu19 Te7 3.098907 1_655
Lu19 Te7 3.098907 1_555
Lu20 Te5 3.188510 1_555
Lu21 Te5 3.060144 1_455
Lu21 Te5 3.060149 1_555
Lu21 Te8 3.068357 1_555
Lu22 Lu27 3.181613 1_444
Lu22 Lu30 3.181613 1_555
Lu22 Lu30 3.181613 1_455
Lu22 Lu27 3.181613 1_544
Lu22 Lu4 3.193032 1_445
Lu22 Lu4 3.193032 1_545
Lu23 Te3 3.079677 1_555
Lu23 Te3 3.079680 1_455
Lu23 Te11 3.098907 1_455
Lu23 Te11 3.098907 1_555
Lu24 Te6 3.071637 1_445
Lu24 Te6 3.071637 1_545
Lu24 Te8 3.114113 1_555
Lu24 Te8 3.114120 1_655
Lu24 Te5 3.654256 1_555
Lu25 Te4 3.049052 1_555
Lu25 Te4 3.049057 1_455
Lu25 Te3 3.062877 1_555
Lu25 Te3 3.062879 1_455
Lu26 Te8 3.049052 1_555
Lu26 Te8 3.049057 1_655
Lu26 Te0 3.062877 1_555
Lu26 Te0 3.062879 1_655
Lu27 Te4 3.015701 1_555
Lu27 Te4 3.015706 1_455
Lu28 Te9 3.093527 1_554
Lu28 Te9 3.093527 1_654
Lu29 Te10 3.093527 1_556
Lu29 Te10 3.093527 1_456
Lu30 Te8 3.015701 1_555
Lu30 Te8 3.015706 1_655
Lu31 Te2 3.075741 1_555
Lu31 Te2 3.075741 1_655
Lu31 Te1 3.177572 1_665
Lu32 Te11 3.108606 1_555
Lu32 Te3 3.112376 1_555
