# generated using pymatgen
data_NaV2Bi3O10
_symmetry_space_group_name_H-M   'P 1'
_cell_length_a   5.66659900
_cell_length_b   7.11509966
_cell_length_c   7.22332352
_cell_angle_alpha   111.17295216
_cell_angle_beta   85.45152237
_cell_angle_gamma   111.33984400
_symmetry_Int_Tables_number   1
_chemical_formula_structural   NaV2Bi3O10
_chemical_formula_sum   'Na1 V2 Bi3 O10'
_cell_volume   252.49757505
_cell_formula_units_Z   1
loop_
 _symmetry_equiv_pos_site_id
 _symmetry_equiv_pos_as_xyz
  1  'x, y, z'
loop_
 _atom_site_type_symbol
 _atom_site_label
 _atom_site_symmetry_multiplicity
 _atom_site_fract_x
 _atom_site_fract_y
 _atom_site_fract_z
 _atom_site_occupancy
  Na  Na0  1  0.08869900  0.95578400  0.47582700  1
  V  V0  1  0.74246300  0.31578200  0.38195600  1
  V  V1  1  0.32641600  0.60497800  0.07222800  1
  Bi  Bi0  1  0.97644300  0.97014000  0.97584800  1
  Bi  Bi1  1  0.43521200  0.66175300  0.59484800  1
  Bi  Bi2  1  0.61126600  0.23495000  0.84325500  1
  O  O0  1  0.58805800  0.66772200  0.92479100  1
  O  O1  1  0.77535600  0.58056700  0.41796000  1
  O  O2  1  0.08469600  0.64537600  0.98619700  1
  O  O3  1  0.27693300  0.93614200  0.75399700  1
  O  O4  1  0.01509300  0.30120600  0.45079500  1
  O  O5  1  0.25342300  0.32485000  0.01517900  1
  O  O6  1  0.66792400  0.15273700  0.12507500  1
  O  O7  1  0.39063200  0.74752400  0.32791300  1
  O  O8  1  0.50160300  0.23771800  0.53780400  1
  O  O9  1  0.78238300  0.97117200  0.72322700  1
loop_
_geom_bond_atom_site_label_1
_geom_bond_atom_site_label_2
_geom_bond_distance
_geom_bond_site_symmetry_2
Na0 O9 2.392369 1_455
Na0 O8 2.408394 1_565
Na0 O3 2.417823 1_555
Na0 O1 2.513244 1_455
Na0 O7 2.583816 1_555
Na0 O4 2.706668 1_565
Bi0 O9 2.207461 1_555
Bi0 O3 2.261168 1_655
Bi0 O5 2.362950 1_666
Bi0 O0 2.391345 1_555
Bi0 O6 2.499752 1_566
Bi0 O2 2.623933 1_655
Bi1 O7 2.278925 1_555
Bi1 O9 2.288970 1_555
Bi1 O3 2.329613 1_555
Bi1 O1 2.359640 1_555
Bi1 O0 2.580604 1_555
Bi1 O4 2.711272 1_555
Bi2 O3 2.190227 1_545
Bi2 O9 2.286926 1_545
Bi2 O8 2.347845 1_555
Bi2 O6 2.385320 1_556
Bi2 O5 2.456405 1_556
O0 V1 1.772836 1_556
O1 V0 1.746399 1_555
O2 V1 1.701626 1_556
O4 V0 1.708911 1_455
O5 V1 1.774041 1_555
O6 V0 1.783239 1_555
O7 V1 1.748417 1_555
O8 V0 1.759228 1_555
