# generated using pymatgen
data_TlPd3
_symmetry_space_group_name_H-M   'P 1'
_cell_length_a   4.18072193
_cell_length_b   4.18072140
_cell_length_c   4.81144587
_cell_angle_alpha   115.75066576
_cell_angle_beta   115.75068531
_cell_angle_gamma   89.99999998
_symmetry_Int_Tables_number   1
_chemical_formula_structural   TlPd3
_chemical_formula_sum   'Tl1 Pd3'
_cell_volume   66.35084523
_cell_formula_units_Z   1
loop_
 _symmetry_equiv_pos_site_id
 _symmetry_equiv_pos_as_xyz
  1  'x, y, z'
loop_
 _atom_site_type_symbol
 _atom_site_label
 _atom_site_symmetry_multiplicity
 _atom_site_fract_x
 _atom_site_fract_y
 _atom_site_fract_z
 _atom_site_occupancy
  Tl  Tl0  1  0.00000000  -0.00000000  0.00000000  1
  Pd  Pd0  1  0.50000000  0.50000000  0.00000000  1
  Pd  Pd1  1  0.25000000  0.75000000  0.50000000  1
  Pd  Pd2  1  0.75000000  0.25000000  0.50000000  1
loop_
_geom_bond_atom_site_label_1
_geom_bond_atom_site_label_2
_geom_bond_distance
_geom_bond_site_symmetry_2
Pd0 Pd2 2.823527 1_555
Pd0 Pd1 2.823527 1_554
Pd0 Pd1 2.823527 1_655
Pd0 Pd2 2.823527 1_454
Pd0 Pd1 2.823527 1_544
Pd0 Pd2 2.823527 1_565
Pd0 Pd2 2.823528 1_554
Pd0 Pd1 2.823528 1_555
Pd0 Tl0 2.956217 1_565
Pd0 Tl0 2.956217 1_655
Pd0 Tl0 2.956217 1_555
Pd0 Tl0 2.956217 1_665
Pd1 Tl0 2.823527 1_565
Pd1 Tl0 2.823527 1_666
Pd1 Tl0 2.823527 1_555
Pd1 Tl0 2.823528 1_566
Pd2 Tl0 2.823527 1_656
Pd2 Tl0 2.823527 1_555
Pd2 Tl0 2.823527 1_666
Pd2 Tl0 2.823528 1_655
