# generated using pymatgen
data_K2Cu3Ge5O14
_symmetry_space_group_name_H-M   'P 1'
_cell_length_a   6.35390800
_cell_length_b   7.28245595
_cell_length_c   7.97645737
_cell_angle_alpha   80.93016464
_cell_angle_beta   70.90255885
_cell_angle_gamma   79.37315749
_symmetry_Int_Tables_number   1
_chemical_formula_structural   K2Cu3Ge5O14
_chemical_formula_sum   'K2 Cu3 Ge5 O14'
_cell_volume   340.90556694
_cell_formula_units_Z   1
loop_
 _symmetry_equiv_pos_site_id
 _symmetry_equiv_pos_as_xyz
  1  'x, y, z'
loop_
 _atom_site_type_symbol
 _atom_site_label
 _atom_site_symmetry_multiplicity
 _atom_site_fract_x
 _atom_site_fract_y
 _atom_site_fract_z
 _atom_site_occupancy
  K  K0  1  0.72249200  0.48595500  0.16083900  1
  K  K1  1  0.27750800  0.51404500  0.83916100  1
  Cu  Cu0  1  0.34423900  0.02812600  0.67071300  1
  Cu  Cu1  1  0.00000000  0.00000000  0.00000000  1
  Cu  Cu2  1  0.65576100  0.97187400  0.32928700  1
  Ge  Ge0  1  0.17173100  0.73054500  0.30407600  1
  Ge  Ge1  1  0.82826900  0.26945500  0.69592400  1
  Ge  Ge2  1  0.78950900  0.73777200  0.68541600  1
  Ge  Ge3  1  0.21049100  0.26222800  0.31458400  1
  Ge  Ge4  1  0.50000000  0.00000000  0.00000000  1
  O  O0  1  0.92104700  0.27626700  0.45551100  1
  O  O1  1  0.42566800  0.82612400  0.21884700  1
  O  O2  1  0.26723000  0.49811300  0.23670100  1
  O  O3  1  0.23178300  0.17714900  0.11471500  1
  O  O4  1  0.60037000  0.83807100  0.56522400  1
  O  O5  1  0.05564800  0.18284000  0.78144700  1
  O  O6  1  0.39963000  0.16192900  0.43477600  1
  O  O7  1  0.07895300  0.72373300  0.54448900  1
  O  O8  1  0.94435200  0.81716000  0.21855300  1
  O  O9  1  0.76821700  0.82285100  0.88528500  1
  O  O10  1  0.57433200  0.17387600  0.78115300  1
  O  O11  1  0.73277000  0.50188700  0.76329900  1
  O  O12  1  0.68431000  0.10191700  0.09361200  1
  O  O13  1  0.31569000  0.89808300  0.90638800  1
loop_
_geom_bond_atom_site_label_1
_geom_bond_atom_site_label_2
_geom_bond_distance
_geom_bond_site_symmetry_2
K0 O2 2.742029 1_555
K0 O1 2.824019 1_555
K0 O12 2.996056 1_555
K0 O9 3.013239 1_554
K0 O0 3.089704 1_555
K0 O11 3.134329 1_554
K0 O8 3.169472 1_555
K1 O11 2.742029 1_555
K1 O10 2.824019 1_555
K1 O13 2.996056 1_555
K1 O3 3.013239 1_556
K1 O7 3.089704 1_555
K1 O2 3.134329 1_556
K1 O5 3.169472 1_555
Cu0 O6 1.931316 1_555
Cu0 O13 1.934570 1_545
Cu0 O5 1.975841 1_555
Cu0 O4 1.978013 1_545
Cu0 O10 2.397896 1_555
Cu1 O12 1.943575 1_455
Cu1 O13 1.943575 1_544
Cu1 O8 1.993860 1_445
Cu1 O5 1.993860 1_554
Cu1 O3 2.573944 1_555
Cu1 O9 2.573944 1_444
Cu2 O4 1.931316 1_555
Cu2 O12 1.934570 1_565
Cu2 O8 1.975841 1_555
Cu2 O6 1.978013 1_565
Cu2 O1 2.397896 1_555
Ge0 O1 1.759909 1_555
Ge0 O8 1.767385 1_455
Ge0 O2 1.793532 1_555
Ge0 O7 1.807875 1_555
Ge1 O10 1.759909 1_555
Ge1 O5 1.767385 1_655
Ge1 O11 1.793532 1_555
Ge1 O0 1.807875 1_555
Ge2 O9 1.755899 1_555
Ge2 O4 1.762461 1_555
Ge2 O11 1.792267 1_555
Ge2 O7 1.808443 1_655
Ge3 O3 1.755899 1_555
Ge3 O6 1.762461 1_555
Ge3 O2 1.792267 1_555
Ge3 O0 1.808443 1_455
Ge4 O13 1.883445 1_544
Ge4 O12 1.883445 1_555
Ge4 O1 1.964141 1_545
Ge4 O10 1.964141 1_554
Ge4 O9 1.986664 1_544
Ge4 O3 1.986664 1_555
