# generated using pymatgen
data_Na2Li3CoO4
_symmetry_space_group_name_H-M   'P 1'
_cell_length_a   6.60238500
_cell_length_b   8.04808600
_cell_length_c   8.24274700
_cell_angle_alpha   90.00000000
_cell_angle_beta   90.00000000
_cell_angle_gamma   90.00000000
_symmetry_Int_Tables_number   1
_chemical_formula_structural   Na2Li3CoO4
_chemical_formula_sum   'Na8 Li12 Co4 O16'
_cell_volume   437.99123937
_cell_formula_units_Z   4
loop_
 _symmetry_equiv_pos_site_id
 _symmetry_equiv_pos_as_xyz
  1  'x, y, z'
loop_
 _atom_site_type_symbol
 _atom_site_label
 _atom_site_symmetry_multiplicity
 _atom_site_fract_x
 _atom_site_fract_y
 _atom_site_fract_z
 _atom_site_occupancy
  Na  Na0  1  0.00000000  0.25931100  0.74886500  1
  Na  Na1  1  0.00000000  0.74068900  0.25113500  1
  Na  Na2  1  0.50000000  0.75931100  0.75113500  1
  Na  Na3  1  0.50000000  0.24068900  0.24886500  1
  Na  Na4  1  0.74418700  0.50000000  0.00000000  1
  Na  Na5  1  0.75581300  0.00000000  0.50000000  1
  Na  Na6  1  0.25581300  0.50000000  0.00000000  1
  Na  Na7  1  0.24418700  0.00000000  0.50000000  1
  Li  Li0  1  0.75473900  0.48575100  0.35041000  1
  Li  Li1  1  0.75473900  0.51424900  0.64959000  1
  Li  Li2  1  0.74526100  0.98575100  0.14959000  1
  Li  Li3  1  0.74526100  0.01424900  0.85041000  1
  Li  Li4  1  0.24526100  0.51424900  0.64959000  1
  Li  Li5  1  0.24526100  0.48575100  0.35041000  1
  Li  Li6  1  0.25473900  0.01424900  0.85041000  1
  Li  Li7  1  0.25473900  0.98575100  0.14959000  1
  Li  Li8  1  0.00000000  0.26402800  0.40711300  1
  Li  Li9  1  0.00000000  0.73597200  0.59288700  1
  Li  Li10  1  0.50000000  0.76402800  0.09288700  1
  Li  Li11  1  0.50000000  0.23597200  0.90711300  1
  Co  Co0  1  0.00000000  0.77550300  0.88237400  1
  Co  Co1  1  0.00000000  0.22449700  0.11762600  1
  Co  Co2  1  0.50000000  0.27550300  0.61762600  1
  Co  Co3  1  0.50000000  0.72449700  0.38237400  1
  O  O0  1  0.00000000  0.56217800  0.77942500  1
  O  O1  1  0.00000000  0.43782200  0.22057500  1
  O  O2  1  0.50000000  0.06217800  0.72057500  1
  O  O3  1  0.50000000  0.93782200  0.27942500  1
  O  O4  1  0.75283300  0.80343300  0.98466900  1
  O  O5  1  0.75283300  0.19656700  0.01533100  1
  O  O6  1  0.74716700  0.30343300  0.51533100  1
  O  O7  1  0.74716700  0.69656700  0.48466900  1
  O  O8  1  0.24716700  0.19656700  0.01533100  1
  O  O9  1  0.24716700  0.80343300  0.98466900  1
  O  O10  1  0.25283300  0.69656700  0.48466900  1
  O  O11  1  0.25283300  0.30343300  0.51533100  1
  O  O12  1  0.00000000  0.95396900  0.72556200  1
  O  O13  1  0.00000000  0.04603100  0.27443800  1
  O  O14  1  0.50000000  0.45396900  0.77443800  1
  O  O15  1  0.50000000  0.54603100  0.22556200  1
loop_
_geom_bond_atom_site_label_1
_geom_bond_atom_site_label_2
_geom_bond_distance
_geom_bond_site_symmetry_2
Na0 O0 2.450481 1_555
Na0 O12 2.464914 1_545
Na0 O6 2.572574 1_455
Na0 O11 2.572574 1_555
Na0 O8 2.782497 1_556
Na0 O5 2.782497 1_456
Na1 O1 2.450481 1_555
Na1 O13 2.464914 1_565
Na1 O7 2.572574 1_455
Na1 O10 2.572574 1_555
Na1 O9 2.782497 1_554
Na1 O4 2.782497 1_454
Na2 O2 2.450481 1_565
Na2 O14 2.464914 1_555
Na2 O9 2.572574 1_555
Na2 O4 2.572574 1_555
Na2 O10 2.782497 1_555
Na2 O7 2.782497 1_555
Na3 O3 2.450481 1_545
Na3 O15 2.464914 1_555
Na3 O8 2.572574 1_555
Na3 O5 2.572574 1_555
Na3 O6 2.782497 1_555
Na3 O11 2.782497 1_555
Na4 O4 2.445989 1_554
Na4 O5 2.445989 1_555
Na4 O14 2.488633 1_554
Na4 O15 2.488633 1_555
Na4 O0 2.531541 1_654
Na4 O1 2.531541 1_655
Na5 O7 2.445989 1_545
Na5 O6 2.445989 1_555
Na5 O13 2.488633 1_655
Na5 O12 2.488633 1_645
Na5 O2 2.531541 1_555
Na5 O3 2.531541 1_545
Na6 O9 2.445989 1_554
Na6 O8 2.445989 1_555
Na6 O14 2.488633 1_554
Na6 O15 2.488633 1_555
Na6 O1 2.531541 1_555
Na6 O0 2.531541 1_554
Na7 O10 2.445989 1_545
Na7 O11 2.445989 1_555
Na7 O13 2.488633 1_555
Na7 O12 2.488633 1_545
Na7 O2 2.531541 1_555
Na7 O3 2.531541 1_545
Li0 O1 1.978957 1_655
Li0 O6 2.000868 1_555
Li0 O7 2.026296 1_555
Li0 O15 2.030548 1_555
Li1 O0 1.978957 1_655
Li1 O7 2.000868 1_555
Li1 O6 2.026296 1_555
Li1 O14 2.030548 1_555
Li2 O3 1.978957 1_555
Li2 O4 2.000868 1_554
Li2 O5 2.026296 1_565
Li2 O13 2.030548 1_665
Li3 O2 1.978957 1_555
Li3 O5 2.000868 1_556
Li3 O4 2.026296 1_545
Li3 O12 2.030548 1_645
Li4 O0 1.978957 1_555
Li4 O10 2.000868 1_555
Li4 O11 2.026296 1_555
Li4 O14 2.030548 1_555
Li5 O1 1.978957 1_555
Li5 O11 2.000868 1_555
Li5 O10 2.026296 1_555
Li5 O15 2.030548 1_555
Li6 O2 1.978957 1_555
Li6 O8 2.000868 1_556
Li6 O9 2.026296 1_545
Li6 O12 2.030548 1_545
Li7 O3 1.978957 1_555
Li7 O9 2.000868 1_554
Li7 O8 2.026296 1_565
Li7 O13 2.030548 1_565
Li8 O6 1.919070 1_455
Li8 O11 1.919070 1_555
Li8 O13 2.067390 1_555
Li8 O1 2.078595 1_555
Li9 O10 1.919070 1_555
Li9 O7 1.919070 1_455
Li9 O12 2.067390 1_555
Li9 O0 2.078595 1_555
Li10 O9 1.919070 1_554
Li10 O4 1.919070 1_554
Li10 O15 2.067390 1_555
Li10 O3 2.078595 1_555
Li11 O8 1.919070 1_556
Li11 O5 1.919070 1_556
Li11 O14 2.067390 1_555
Li11 O2 2.078595 1_555
Co0 O4 1.850559 1_455
Co0 O9 1.850559 1_555
Co0 O0 1.915122 1_555
Co0 O12 1.932279 1_555
Co1 O8 1.850559 1_555
Co1 O5 1.850559 1_455
Co1 O1 1.915122 1_555
Co1 O13 1.932279 1_555
Co2 O6 1.850559 1_555
Co2 O11 1.850559 1_555
Co2 O2 1.915122 1_555
Co2 O14 1.932279 1_555
Co3 O10 1.850559 1_555
Co3 O7 1.850559 1_555
Co3 O3 1.915122 1_555
Co3 O15 1.932279 1_555
