# generated using pymatgen
data_YbSbPt
_symmetry_space_group_name_H-M   'P 1'
_cell_length_a   4.68862425
_cell_length_b   4.68862425
_cell_length_c   4.68862425
_cell_angle_alpha   60.00000000
_cell_angle_beta   60.00000000
_cell_angle_gamma   60.00000000
_symmetry_Int_Tables_number   1
_chemical_formula_structural   YbSbPt
_chemical_formula_sum   'Yb1 Sb1 Pt1'
_cell_volume   72.88216915
_cell_formula_units_Z   1
loop_
 _symmetry_equiv_pos_site_id
 _symmetry_equiv_pos_as_xyz
  1  'x, y, z'
loop_
 _atom_site_type_symbol
 _atom_site_label
 _atom_site_symmetry_multiplicity
 _atom_site_fract_x
 _atom_site_fract_y
 _atom_site_fract_z
 _atom_site_occupancy
  Yb  Yb0  1  0.50000000  0.50000000  0.50000000  1
  Sb  Sb0  1  0.00000000  0.00000000  0.00000000  1
  Pt  Pt0  1  0.25000000  0.25000000  0.25000000  1
loop_
_geom_bond_atom_site_label_1
_geom_bond_atom_site_label_2
_geom_bond_distance
_geom_bond_site_symmetry_2
Sb0 Yb0 3.315358 1_544
Sb0 Yb0 3.315358 1_455
Sb0 Yb0 3.315358 1_454
Sb0 Yb0 3.315358 1_545
Sb0 Yb0 3.315358 1_554
Sb0 Yb0 3.315358 1_445
Pt0 Yb0 2.871184 1_455
Pt0 Sb0 2.871184 1_556
Pt0 Yb0 2.871184 1_545
Pt0 Yb0 2.871184 1_555
Pt0 Sb0 2.871184 1_565
Pt0 Sb0 2.871184 1_555
Pt0 Yb0 2.871184 1_554
Pt0 Sb0 2.871184 1_655
