# generated using pymatgen
data_ZnS
_symmetry_space_group_name_H-M   'P 1'
_cell_length_a   3.80878728
_cell_length_b   3.80878728
_cell_length_c   87.11078676
_cell_angle_alpha   90.00000000
_cell_angle_beta   90.00000000
_cell_angle_gamma   119.99998959
_symmetry_Int_Tables_number   1
_chemical_formula_structural   ZnS
_chemical_formula_sum   'Zn28 S28'
_cell_volume   1094.39991285
_cell_formula_units_Z   28
loop_
 _symmetry_equiv_pos_site_id
 _symmetry_equiv_pos_as_xyz
  1  'x, y, z'
loop_
 _atom_site_type_symbol
 _atom_site_label
 _atom_site_symmetry_multiplicity
 _atom_site_fract_x
 _atom_site_fract_y
 _atom_site_fract_z
 _atom_site_occupancy
  Zn  Zn0  1  0.00000000  -0.00000000  0.07142576  1
  Zn  Zn1  1  0.33333300  0.66666700  0.32142790  1
  Zn  Zn2  1  0.33333300  0.66666700  0.21429680  1
  Zn  Zn3  1  0.66666700  0.33333300  0.14286344  1
  Zn  Zn4  1  0.66666700  0.33333300  0.35714384  1
  Zn  Zn5  1  0.00000000  -0.00000000  0.39286574  1
  Zn  Zn6  1  0.66666700  0.33333300  0.46429231  1
  Zn  Zn7  1  -0.00000000  -0.00000000  0.82142129  1
  Zn  Zn8  1  0.33333300  0.66666700  0.64285942  1
  Zn  Zn9  1  0.66666700  0.33333300  0.57143180  1
  Zn  Zn10  1  0.66666700  0.33333300  0.78570871  1
  Zn  Zn11  1  0.33333300  0.66666700  0.53571956  1
  Zn  Zn12  1  0.66666700  0.33333300  0.85715597  1
  Zn  Zn13  1  0.33333300  0.66666700  0.89286216  1
  Zn  Zn14  1  -0.00000000  0.00000000  0.28571786  1
  Zn  Zn15  1  0.00000000  0.00000000  0.60714450  1
  Zn  Zn16  1  0.66666700  0.33333300  0.67857137  1
  Zn  Zn17  1  -0.00000000  0.00000000  0.71429456  1
  Zn  Zn18  1  0.33333300  0.66666700  0.10714483  1
  Zn  Zn19  1  -0.00000000  0.00000000  0.92857249  1
  Zn  Zn20  1  0.66666700  0.33333300  0.03572759  1
  Zn  Zn21  1  0.00000000  -0.00000000  0.17857434  1
  Zn  Zn22  1  0.33333300  0.66666700  0.99999939  1
  Zn  Zn23  1  0.00000000  -0.00000000  0.49999862  1
  Zn  Zn24  1  0.66666700  0.33333300  0.96428569  1
  Zn  Zn25  1  0.33333300  0.66666700  0.42857329  1
  Zn  Zn26  1  0.66666700  0.33333300  0.25000429  1
  Zn  Zn27  1  0.33333300  0.66666700  0.74999666  1
  S  S0  1  -0.00000000  0.00000000  0.20535532  1
  S  S1  1  0.33333300  0.66666700  0.34820960  1
  S  S2  1  0.66666700  0.33333300  0.81247220  1
  S  S3  1  0.66666700  0.33333300  0.99104451  1
  S  S4  1  0.33333300  0.66666700  0.45535498  1
  S  S5  1  0.33333300  0.66666700  0.02680453  1
  S  S6  1  0.00000000  0.00000000  0.63392513  1
  S  S7  1  0.00000000  0.00000000  0.84822800  1
  S  S8  1  0.33333300  0.66666700  0.91964201  1
  S  S9  1  0.00000000  0.00000000  0.41964822  1
  S  S10  1  0.00000000  0.00000000  0.09820889  1
  S  S11  1  0.33333300  0.66666700  0.13392577  1
  S  S12  1  0.00000000  0.00000000  0.31249747  1
  S  S13  1  0.66666700  0.33333300  0.88392639  1
  S  S14  1  0.00000000  0.00000000  0.52677879  1
  S  S15  1  0.66666700  0.33333300  0.38392879  1
  S  S16  1  0.33333300  0.66666700  0.66963597  1
  S  S17  1  0.33333300  0.66666700  0.77678412  1
  S  S18  1  0.66666700  0.33333300  0.59820990  1
  S  S19  1  0.33333300  0.66666700  0.24107333  1
  S  S20  1  -0.00000000  0.00000000  0.74107127  1
  S  S21  1  0.00000000  0.00000000  0.95535281  1
  S  S22  1  0.66666700  0.33333300  0.70535421  1
  S  S23  1  0.66666700  0.33333300  0.27678726  1
  S  S24  1  0.66666700  0.33333300  0.06249789  1
  S  S25  1  0.66666700  0.33333300  0.49106895  1
  S  S26  1  0.33333300  0.66666700  0.56249701  1
  S  S27  1  0.66666700  0.33333300  0.16963851  1
loop_
_geom_bond_atom_site_label_1
_geom_bond_atom_site_label_2
_geom_bond_distance
_geom_bond_site_symmetry_2
S0 Zn2 2.332873 1_545
S0 Zn2 2.332876 1_445
S0 Zn2 2.332876 1_555
S0 Zn21 2.332912 1_555
S1 Zn4 2.332662 1_455
S1 Zn4 2.332662 1_565
S1 Zn4 2.332668 1_555
S1 Zn1 2.332975 1_555
S2 Zn10 2.331389 1_555
S2 Zn7 2.333094 1_655
S2 Zn7 2.333097 1_555
S2 Zn7 2.333097 1_665
S3 Zn24 2.330982 1_555
S3 Zn22 2.333263 1_545
S3 Zn22 2.333263 1_655
S3 Zn22 2.333269 1_555
S4 Zn6 2.332752 1_455
S4 Zn6 2.332752 1_565
S4 Zn6 2.332758 1_555
S4 Zn25 2.332974 1_555
S5 Zn20 2.332338 1_455
S5 Zn20 2.332338 1_565
S5 Zn20 2.332343 1_555
S5 Zn22 2.335017 1_554
S6 Zn8 2.332663 1_545
S6 Zn8 2.332667 1_555
S6 Zn8 2.332667 1_445
S6 Zn15 2.332882 1_555
S7 Zn12 2.332480 1_455
S7 Zn12 2.332483 1_445
S7 Zn12 2.332483 1_555
S7 Zn7 2.335154 1_555
S8 Zn19 2.332553 1_565
S8 Zn19 2.332556 1_555
S8 Zn19 2.332556 1_665
S8 Zn13 2.332814 1_555
S9 Zn25 2.332396 1_545
S9 Zn25 2.332399 1_555
S9 Zn25 2.332399 1_445
S9 Zn5 2.333043 1_555
S10 Zn18 2.332711 1_545
S10 Zn18 2.332715 1_445
S10 Zn18 2.332715 1_555
S10 Zn0 2.333100 1_555
S11 Zn3 2.332762 1_455
S11 Zn3 2.332762 1_565
S11 Zn3 2.332768 1_555
S11 Zn18 2.332909 1_555
S12 Zn1 2.332551 1_545
S12 Zn1 2.332555 1_445
S12 Zn1 2.332555 1_555
S12 Zn14 2.332793 1_555
S13 Zn12 2.331992 1_555
S13 Zn13 2.332707 1_655
S13 Zn13 2.332707 1_545
S13 Zn13 2.332713 1_555
S14 Zn23 2.332842 1_555
S14 Zn11 2.332852 1_545
S14 Zn11 2.332855 1_555
S14 Zn11 2.332855 1_445
S15 Zn5 2.332741 1_655
S15 Zn5 2.332744 1_555
S15 Zn5 2.332744 1_665
S15 Zn4 2.333258 1_555
S16 Zn8 2.332526 1_555
S16 Zn16 2.332696 1_455
S16 Zn16 2.332696 1_565
S16 Zn16 2.332702 1_555
S17 Zn10 2.332382 1_455
S17 Zn10 2.332382 1_565
S17 Zn10 2.332388 1_555
S17 Zn27 2.333477 1_555
S18 Zn9 2.332661 1_555
S18 Zn15 2.332672 1_655
S18 Zn15 2.332676 1_555
S18 Zn15 2.332676 1_665
S19 Zn2 2.332525 1_555
S19 Zn26 2.332567 1_455
S19 Zn26 2.332567 1_565
S19 Zn26 2.332573 1_555
S20 Zn27 2.332405 1_545
S20 Zn27 2.332408 1_555
S20 Zn27 2.332408 1_445
S20 Zn17 2.332540 1_555
S21 Zn24 2.332623 1_455
S21 Zn24 2.332626 1_445
S21 Zn24 2.332626 1_555
S21 Zn19 2.332855 1_555
S22 Zn17 2.332840 1_655
S22 Zn17 2.332843 1_665
S22 Zn17 2.332843 1_555
S22 Zn16 2.333074 1_555
S23 Zn14 2.332556 1_655
S23 Zn14 2.332560 1_555
S23 Zn14 2.332560 1_665
S23 Zn26 2.333086 1_555
S24 Zn20 2.331982 1_555
S24 Zn0 2.332477 1_655
S24 Zn0 2.332480 1_665
S24 Zn0 2.332480 1_555
S25 Zn23 2.332529 1_655
S25 Zn23 2.332533 1_665
S25 Zn23 2.332533 1_555
S25 Zn6 2.332534 1_555
S26 Zn11 2.332605 1_555
S26 Zn9 2.332678 1_455
S26 Zn9 2.332678 1_565
S26 Zn9 2.332684 1_555
S27 Zn3 2.332397 1_555
S27 Zn21 2.332708 1_655
S27 Zn21 2.332712 1_665
S27 Zn21 2.332712 1_555
