# generated using pymatgen
data_Li2Hg(PO3)4
_symmetry_space_group_name_H-M   'P 1'
_cell_length_a   10.28657400
_cell_length_b   9.58965100
_cell_length_c   9.71719717
_cell_angle_alpha   88.38935336
_cell_angle_beta   90.00000000
_cell_angle_gamma   90.00000000
_symmetry_Int_Tables_number   1
_chemical_formula_structural   Li2Hg(PO3)4
_chemical_formula_sum   'Li8 Hg4 P16 O48'
_cell_volume   958.17084536
_cell_formula_units_Z   4
loop_
 _symmetry_equiv_pos_site_id
 _symmetry_equiv_pos_as_xyz
  1  'x, y, z'
loop_
 _atom_site_type_symbol
 _atom_site_label
 _atom_site_symmetry_multiplicity
 _atom_site_fract_x
 _atom_site_fract_y
 _atom_site_fract_z
 _atom_site_occupancy
  Li  Li0  1  0.81781000  0.89126200  0.00235900  1
  Li  Li1  1  0.68205500  0.60631400  0.50027000  1
  Li  Li2  1  0.31781000  0.10873800  0.49764100  1
  Li  Li3  1  0.81794500  0.60631400  0.00027000  1
  Li  Li4  1  0.18219000  0.10873800  0.99764100  1
  Li  Li5  1  0.18205500  0.39368600  0.99973000  1
  Li  Li6  1  0.68219000  0.89126200  0.50235900  1
  Li  Li7  1  0.31794500  0.39368600  0.49973000  1
  Hg  Hg0  1  0.80615400  0.25158200  0.98885300  1
  Hg  Hg1  1  0.69384600  0.25158200  0.48885300  1
  Hg  Hg2  1  0.19384600  0.74841800  0.01114700  1
  Hg  Hg3  1  0.30615400  0.74841800  0.51114700  1
  P  P0  1  0.10519400  0.96545800  0.29285700  1
  P  P1  1  0.60002600  0.49331300  0.20318300  1
  P  P2  1  0.89997400  0.49331300  0.70318300  1
  P  P3  1  0.60519400  0.03454200  0.20714300  1
  P  P4  1  0.03590400  0.76208600  0.72941300  1
  P  P5  1  0.09768300  0.26675400  0.70037600  1
  P  P6  1  0.53590400  0.23791400  0.77058700  1
  P  P7  1  0.96409600  0.23791400  0.27058700  1
  P  P8  1  0.90231700  0.73324600  0.29962400  1
  P  P9  1  0.10002600  0.50668700  0.29681700  1
  P  P10  1  0.40231700  0.26675400  0.20037600  1
  P  P11  1  0.39480600  0.96545800  0.79285700  1
  P  P12  1  0.39997400  0.50668700  0.79681700  1
  P  P13  1  0.59768300  0.73324600  0.79962400  1
  P  P14  1  0.89480600  0.03454200  0.70714300  1
  P  P15  1  0.46409600  0.76208600  0.22941300  1
  O  O0  1  0.88161900  0.03316000  0.86098500  1
  O  O1  1  0.61838100  0.03316000  0.36098500  1
  O  O2  1  0.01747600  0.75808600  0.88497700  1
  O  O3  1  0.06264400  0.34572700  0.33679200  1
  O  O4  1  0.03182600  0.41526900  0.65694500  1
  O  O5  1  0.96817400  0.58473100  0.34305500  1
  O  O6  1  0.98252400  0.24191400  0.11502300  1
  O  O7  1  0.46817400  0.41526900  0.15694500  1
  O  O8  1  0.38193500  0.25545300  0.35326200  1
  O  O9  1  0.79093800  0.46186200  0.60587800  1
  O  O10  1  0.61707800  0.47642800  0.35646800  1
  O  O11  1  0.88193500  0.74454700  0.14673800  1
  O  O12  1  0.48664000  0.09471800  0.83804900  1
  O  O13  1  0.11707800  0.52357200  0.14353200  1
  O  O14  1  0.78947700  0.75151800  0.39502700  1
  O  O15  1  0.38292200  0.52357200  0.64353200  1
  O  O16  1  0.21052300  0.24848200  0.60497300  1
  O  O17  1  0.38161900  0.96684000  0.63901500  1
  O  O18  1  0.01336000  0.09471800  0.33804900  1
  O  O19  1  0.22331200  0.96755700  0.38415100  1
  O  O20  1  0.98103700  0.16409200  0.65255700  1
  O  O21  1  0.28947700  0.24848200  0.10497300  1
  O  O22  1  0.67237700  0.26413500  0.81710200  1
  O  O23  1  0.27668800  0.96755700  0.88415100  1
  O  O24  1  0.11838100  0.96684000  0.13901500  1
  O  O25  1  0.51336000  0.90528200  0.16195100  1
  O  O26  1  0.82762300  0.26413500  0.31710200  1
  O  O27  1  0.11806500  0.25545300  0.85326200  1
  O  O28  1  0.17237700  0.73586500  0.68289800  1
  O  O29  1  0.72331200  0.03244300  0.11584900  1
  O  O30  1  0.77668800  0.03244300  0.61584900  1
  O  O31  1  0.29093800  0.53813800  0.89412200  1
  O  O32  1  0.71052300  0.75151800  0.89502700  1
  O  O33  1  0.93735600  0.65427300  0.66320800  1
  O  O34  1  0.01896300  0.83590800  0.34744300  1
  O  O35  1  0.53182600  0.58473100  0.84305500  1
  O  O36  1  0.61806500  0.74454700  0.64673800  1
  O  O37  1  0.70906200  0.46186200  0.10587800  1
  O  O38  1  0.56264400  0.65427300  0.16320800  1
  O  O39  1  0.48103700  0.83590800  0.84744300  1
  O  O40  1  0.51747600  0.24191400  0.61502300  1
  O  O41  1  0.51896300  0.16409200  0.15255700  1
  O  O42  1  0.20906200  0.53813800  0.39412200  1
  O  O43  1  0.88292200  0.47642800  0.85646800  1
  O  O44  1  0.48252400  0.75808600  0.38497700  1
  O  O45  1  0.43735600  0.34572700  0.83679200  1
  O  O46  1  0.98664000  0.90528200  0.66195100  1
  O  O47  1  0.32762300  0.73586500  0.18289800  1
loop_
_geom_bond_atom_site_label_1
_geom_bond_atom_site_label_2
_geom_bond_distance
_geom_bond_site_symmetry_2
Li0 O0 2.016087 1_564
Li0 O29 2.019404 1_565
Li0 O32 2.044547 1_554
Li0 O11 2.066866 1_555
Li1 O10 2.012114 1_555
Li1 O14 2.031198 1_555
Li1 O9 2.036315 1_555
Li1 O36 2.078998 1_555
Li2 O17 2.016087 1_545
Li2 O19 2.019404 1_545
Li2 O16 2.044547 1_555
Li2 O8 2.066866 1_555
Li3 O43 2.012114 1_554
Li3 O32 2.031198 1_554
Li3 O37 2.036315 1_555
Li3 O11 2.078998 1_555
Li4 O24 2.016087 1_546
Li4 O23 2.019404 1_545
Li4 O21 2.044547 1_556
Li4 O27 2.066866 1_555
Li5 O13 2.012114 1_556
Li5 O21 2.031198 1_556
Li5 O31 2.036315 1_555
Li5 O27 2.078998 1_555
Li6 O1 2.016087 1_565
Li6 O30 2.019404 1_565
Li6 O14 2.044547 1_555
Li6 O36 2.066866 1_555
Li7 O15 2.012114 1_555
Li7 O16 2.031198 1_555
Li7 O42 2.036315 1_555
Li7 O8 2.078998 1_555
Hg0 O22 2.163844 1_555
Hg0 O6 2.190161 1_556
Hg0 O37 2.546731 1_556
Hg0 O29 2.553316 1_556
Hg0 O0 2.584583 1_555
Hg0 O43 2.602249 1_555
Hg1 O26 2.163844 1_555
Hg1 O40 2.190161 1_555
Hg1 O9 2.546731 1_555
Hg1 O30 2.553316 1_555
Hg1 O1 2.584583 1_555
Hg1 O10 2.602249 1_555
Hg2 O47 2.163844 1_555
Hg2 O2 2.190161 1_554
Hg2 O31 2.546731 1_554
Hg2 O23 2.553316 1_554
Hg2 O24 2.584583 1_555
Hg2 O13 2.602249 1_555
Hg3 O28 2.163844 1_555
Hg3 O44 2.190161 1_555
Hg3 O42 2.546731 1_555
Hg3 O19 2.553316 1_555
Hg3 O17 2.584583 1_555
Hg3 O15 2.602249 1_555
O0 P14 1.500742 1_555
O1 P3 1.500742 1_555
O2 P4 1.522898 1_555
O3 P7 1.596188 1_455
O3 P9 1.627144 1_555
O4 P2 1.618785 1_455
O4 P5 1.622225 1_555
O5 P9 1.618785 1_655
O5 P8 1.622225 1_555
O6 P7 1.522898 1_555
O7 P1 1.618785 1_555
O7 P10 1.622225 1_555
O8 P10 1.501242 1_555
O9 P2 1.503007 1_555
O10 P1 1.504008 1_555
O11 P8 1.501242 1_555
O12 P6 1.587958 1_555
O12 P11 1.628596 1_545
O13 P9 1.504008 1_555
O14 P8 1.498855 1_555
O15 P12 1.504008 1_555
O16 P5 1.498855 1_555
O17 P11 1.500742 1_555
O18 P7 1.587958 1_455
O18 P0 1.628596 1_545
O19 P0 1.504889 1_555
O20 P14 1.604531 1_555
O20 P5 1.628063 1_655
O21 P10 1.498855 1_555
O22 P6 1.498226 1_555
O23 P11 1.504889 1_555
O24 P0 1.500742 1_555
O25 P15 1.587958 1_555
O25 P3 1.628596 1_565
O26 P7 1.498226 1_555
O27 P5 1.501242 1_555
O28 P4 1.498226 1_555
O29 P3 1.504889 1_555
O30 P14 1.504889 1_555
O31 P12 1.503007 1_555
O32 P13 1.498855 1_555
O33 P4 1.596188 1_655
O33 P2 1.627144 1_555
O34 P0 1.604531 1_555
O34 P8 1.628063 1_455
O35 P12 1.618785 1_555
O35 P13 1.622225 1_555
O36 P13 1.501242 1_555
O37 P1 1.503007 1_555
O38 P15 1.596188 1_555
O38 P1 1.627144 1_555
O39 P11 1.604531 1_555
O39 P13 1.628063 1_555
O40 P6 1.522898 1_555
O41 P3 1.604531 1_555
O41 P10 1.628063 1_555
O42 P9 1.503007 1_555
O43 P2 1.504008 1_555
O44 P15 1.522898 1_555
O45 P6 1.596188 1_555
O45 P12 1.627144 1_555
O46 P4 1.587958 1_655
O46 P14 1.628596 1_565
O47 P15 1.498226 1_555
