# generated using pymatgen
data_Mg5Tl2
_symmetry_space_group_name_H-M   'P 1'
_cell_length_a   6.21373688
_cell_length_b   7.33319438
_cell_length_c   8.50369881
_cell_angle_alpha   115.58746567
_cell_angle_beta   111.35359473
_cell_angle_gamma   89.96736088
_symmetry_Int_Tables_number   1
_chemical_formula_structural   Mg5Tl2
_chemical_formula_sum   'Mg10 Tl4'
_cell_volume   319.77794914
_cell_formula_units_Z   2
loop_
 _symmetry_equiv_pos_site_id
 _symmetry_equiv_pos_as_xyz
  1  'x, y, z'
loop_
 _atom_site_type_symbol
 _atom_site_label
 _atom_site_symmetry_multiplicity
 _atom_site_fract_x
 _atom_site_fract_y
 _atom_site_fract_z
 _atom_site_occupancy
  Mg  Mg0  1  0.41074470  0.07532053  0.82471541  1
  Mg  Mg1  1  0.48385514  0.73317284  0.46636823  1
  Mg  Mg2  1  0.25070193  0.50103036  0.00196217  1
  Mg  Mg3  1  0.08889926  0.24993322  0.17600263  1
  Mg  Mg4  1  0.58925530  0.92467947  0.17528459  1
  Mg  Mg5  1  0.51614486  0.26682716  0.53363177  1
  Mg  Mg6  1  0.01900742  0.26708537  0.53733862  1
  Mg  Mg7  1  0.98099258  0.73291463  0.46266138  1
  Mg  Mg8  1  0.91110074  0.75006678  0.82399737  1
  Mg  Mg9  1  0.74929807  0.49896964  0.99803783  1
  Tl  Tl0  1  0.62272989  0.35367052  0.24415462  1
  Tl  Tl1  1  0.87790089  0.11004570  0.75668067  1
  Tl  Tl2  1  0.12209911  0.88995430  0.24331933  1
  Tl  Tl3  1  0.37727011  0.64632948  0.75584538  1
loop_
_geom_bond_atom_site_label_1
_geom_bond_atom_site_label_2
_geom_bond_distance
_geom_bond_site_symmetry_2
Mg0 Tl3 2.933156 1_545
Mg0 Tl0 2.986028 1_556
Mg0 Mg2 3.167039 1_556
Mg0 Mg9 3.169180 1_555
Mg0 Tl1 3.176991 1_455
Mg0 Tl1 3.190116 1_555
Mg0 Mg1 3.192205 1_545
Mg0 Mg7 3.202722 1_445
Mg1 Tl0 2.950018 1_555
Mg1 Tl2 2.957712 1_555
Mg1 Tl1 3.072465 1_565
Mg1 Tl3 3.073379 1_555
Mg1 Mg7 3.100689 1_555
Mg1 Mg7 3.113310 1_455
Mg1 Mg8 3.179199 1_555
Mg1 Mg2 3.259142 1_555
Mg1 Mg3 3.565996 1_555
Mg2 Tl2 3.020068 1_555
Mg2 Tl0 3.034085 1_555
Mg2 Tl3 3.043013 1_554
Mg2 Tl1 3.043111 1_454
Mg2 Mg9 3.103571 1_454
Mg2 Mg9 3.110410 1_554
Mg2 Mg3 3.167238 1_555
Mg2 Mg4 3.169180 1_555
Mg2 Mg8 3.183634 1_454
Mg2 Mg6 3.260663 1_554
Mg3 Tl2 2.925307 1_545
Mg3 Tl1 2.987217 1_454
Mg3 Mg5 3.179199 1_555
Mg3 Mg9 3.183634 1_454
Mg3 Tl0 3.184289 1_555
Mg3 Tl0 3.185025 1_455
Mg3 Mg6 3.206831 1_555
Mg3 Mg8 3.425780 1_444
Mg3 Mg7 3.558943 1_455
Mg4 Tl0 2.933156 1_565
Mg4 Tl3 2.986028 1_554
Mg4 Mg9 3.167039 1_554
Mg4 Tl2 3.176991 1_655
Mg4 Tl2 3.190116 1_555
Mg4 Mg5 3.192205 1_565
Mg4 Mg6 3.202722 1_665
Mg5 Tl3 2.950018 1_555
Mg5 Tl1 2.957712 1_555
Mg5 Tl2 3.072465 1_545
Mg5 Tl0 3.073379 1_555
Mg5 Mg6 3.100689 1_555
Mg5 Mg6 3.113310 1_655
Mg5 Mg9 3.259142 1_555
Mg5 Mg8 3.565996 1_555
Mg6 Tl1 2.936244 1_455
Mg6 Tl3 2.945130 1_555
Mg6 Tl2 3.082478 1_545
Mg6 Tl0 3.094680 1_455
Mg6 Mg8 3.558943 1_455
Mg7 Tl2 2.936244 1_655
Mg7 Tl0 2.945130 1_555
Mg7 Tl1 3.082478 1_565
Mg7 Tl3 3.094680 1_655
Mg7 Mg8 3.206831 1_555
Mg7 Mg9 3.260663 1_554
Mg8 Tl1 2.925307 1_565
Mg8 Tl2 2.987217 1_656
Mg8 Mg9 3.167238 1_555
Mg8 Tl3 3.184289 1_555
Mg8 Tl3 3.185025 1_655
Mg9 Tl1 3.020068 1_555
Mg9 Tl3 3.034085 1_555
Mg9 Tl0 3.043013 1_556
Mg9 Tl2 3.043111 1_656
