# generated using pymatgen
data_ZnS
_symmetry_space_group_name_H-M   'P 1'
_cell_length_a   3.80979322
_cell_length_b   3.80979259
_cell_length_c   62.26826173
_cell_angle_alpha   90.00000000
_cell_angle_beta   90.00000000
_cell_angle_gamma   120.00000550
_symmetry_Int_Tables_number   1
_chemical_formula_structural   ZnS
_chemical_formula_sum   'Zn20 S20'
_cell_volume   782.70856595
_cell_formula_units_Z   20
loop_
 _symmetry_equiv_pos_site_id
 _symmetry_equiv_pos_as_xyz
  1  'x, y, z'
loop_
 _atom_site_type_symbol
 _atom_site_label
 _atom_site_symmetry_multiplicity
 _atom_site_fract_x
 _atom_site_fract_y
 _atom_site_fract_z
 _atom_site_occupancy
  Zn  Zn0  1  0.33333300  0.66666700  0.94989930  1
  Zn  Zn1  1  0.00000000  -0.00000000  0.14997072  1
  Zn  Zn2  1  0.66666700  0.33333300  0.39991932  1
  Zn  Zn3  1  0.66666700  0.33333300  0.89995323  1
  Zn  Zn4  1  0.00000000  -0.00000000  0.84997687  1
  Zn  Zn5  1  0.66666700  0.33333300  0.69999812  1
  Zn  Zn6  1  0.66666700  0.33333300  0.10000650  1
  Zn  Zn7  1  0.66666700  0.33333300  0.55006219  1
  Zn  Zn8  1  0.00000000  -0.00000000  0.65002010  1
  Zn  Zn9  1  0.33333300  0.66666700  0.05000332  1
  Zn  Zn10  1  0.00000000  0.00000000  0.99991087  1
  Zn  Zn11  1  0.00000000  0.00000000  0.44994662  1
  Zn  Zn12  1  0.33333300  0.66666700  0.19999308  1
  Zn  Zn13  1  0.33333300  0.66666700  0.30008760  1
  Zn  Zn14  1  0.33333300  0.66666700  0.49995231  1
  Zn  Zn15  1  0.00000000  -0.00000000  0.34992353  1
  Zn  Zn16  1  0.66666700  0.33333300  0.25006912  1
  Zn  Zn17  1  0.33333300  0.66666700  0.60011413  1
  Zn  Zn18  1  0.66666700  0.33333300  0.80006003  1
  Zn  Zn19  1  0.33333300  0.66666700  0.75006476  1
  S  S0  1  0.66666700  0.33333300  0.58761112  1
  S  S1  1  0.66666700  0.33333300  0.13750032  1
  S  S2  1  0.33333300  0.66666700  0.63757603  1
  S  S3  1  0.66666700  0.33333300  0.83750558  1
  S  S4  1  0.33333300  0.66666700  0.33753771  1
  S  S5  1  0.33333300  0.66666700  0.98736224  1
  S  S6  1  0.33333300  0.66666700  0.08752244  1
  S  S7  1  0.33333300  0.66666700  0.23749748  1
  S  S8  1  0.66666700  0.33333300  0.73750012  1
  S  S9  1  0.66666700  0.33333300  0.93742993  1
  S  S10  1  0.00000000  -0.00000000  0.88751224  1
  S  S11  1  0.66666700  0.33333300  0.43747702  1
  S  S12  1  0.66666700  0.33333300  0.28760195  1
  S  S13  1  0.00000000  -0.00000000  0.48744654  1
  S  S14  1  0.33333300  0.66666700  0.78759220  1
  S  S15  1  0.00000000  -0.00000000  0.38738618  1
  S  S16  1  -0.00000000  0.00000000  0.03747976  1
  S  S17  1  0.00000000  -0.00000000  0.18751316  1
  S  S18  1  0.33333300  0.66666700  0.53748470  1
  S  S19  1  -0.00000000  0.00000000  0.68752756  1
loop_
_geom_bond_atom_site_label_1
_geom_bond_atom_site_label_2
_geom_bond_distance
_geom_bond_site_symmetry_2
S0 Zn17 2.333300 1_545
S0 Zn17 2.333300 1_655
S0 Zn17 2.333307 1_555
S0 Zn7 2.338107 1_555
S1 Zn1 2.332624 1_655
S1 Zn1 2.332626 1_665
S1 Zn1 2.332627 1_555
S1 Zn6 2.334675 1_555
S2 Zn8 2.332078 1_565
S2 Zn8 2.332081 1_555
S2 Zn8 2.332081 1_665
S2 Zn17 2.332687 1_555
S3 Zn18 2.331669 1_555
S3 Zn4 2.332642 1_655
S3 Zn4 2.332645 1_665
S3 Zn4 2.332645 1_555
S4 Zn15 2.330876 1_565
S4 Zn15 2.330878 1_555
S4 Zn15 2.330879 1_665
S4 Zn13 2.331953 1_555
S5 Zn0 2.332752 1_555
S5 Zn10 2.334250 1_565
S5 Zn10 2.334252 1_555
S5 Zn10 2.334253 1_665
S6 Zn6 2.332906 1_565
S6 Zn6 2.332907 1_455
S6 Zn6 2.332913 1_555
S6 Zn9 2.336250 1_555
S7 Zn16 2.334729 1_565
S7 Zn16 2.334730 1_455
S7 Zn16 2.334736 1_555
S7 Zn12 2.335334 1_555
S8 Zn19 2.334583 1_545
S8 Zn19 2.334584 1_655
S8 Zn19 2.334590 1_555
S8 Zn5 2.335184 1_555
S9 Zn0 2.332602 1_545
S9 Zn0 2.332602 1_655
S9 Zn0 2.332608 1_555
S9 Zn3 2.333609 1_555
S10 Zn3 2.332015 1_455
S10 Zn3 2.332017 1_445
S10 Zn3 2.332018 1_555
S10 Zn4 2.337262 1_555
S11 Zn11 2.332607 1_655
S11 Zn11 2.332610 1_665
S11 Zn11 2.332610 1_555
S11 Zn2 2.338653 1_555
S12 Zn13 2.332939 1_545
S12 Zn13 2.332940 1_655
S12 Zn13 2.332946 1_555
S12 Zn16 2.337104 1_555
S13 Zn14 2.333358 1_545
S13 Zn14 2.333360 1_555
S13 Zn14 2.333361 1_445
S13 Zn11 2.335055 1_555
S14 Zn18 2.332570 1_565
S14 Zn18 2.332570 1_455
S14 Zn18 2.332576 1_555
S14 Zn19 2.336768 1_555
S15 Zn15 2.332734 1_555
S15 Zn2 2.333927 1_455
S15 Zn2 2.333930 1_445
S15 Zn2 2.333930 1_555
S16 Zn9 2.333728 1_545
S16 Zn9 2.333730 1_555
S16 Zn9 2.333731 1_445
S16 Zn10 2.339349 1_554
S17 Zn12 2.332821 1_545
S17 Zn12 2.332824 1_555
S17 Zn12 2.332824 1_445
S17 Zn1 2.337702 1_555
S18 Zn7 2.334851 1_565
S18 Zn7 2.334852 1_455
S18 Zn7 2.334858 1_555
S18 Zn14 2.337077 1_555
S19 Zn5 2.332627 1_455
S19 Zn5 2.332630 1_445
S19 Zn5 2.332630 1_555
S19 Zn8 2.335524 1_555
