# generated using pymatgen
data_La2Si4CN6
_symmetry_space_group_name_H-M   'P 1'
_cell_length_a   5.24970400
_cell_length_b   11.60697300
_cell_length_c   13.53468500
_cell_angle_alpha   90.00000000
_cell_angle_beta   90.00000000
_cell_angle_gamma   90.00000000
_symmetry_Int_Tables_number   1
_chemical_formula_structural   La2Si4CN6
_chemical_formula_sum   'La8 Si16 C4 N24'
_cell_volume   824.71129700
_cell_formula_units_Z   4
loop_
 _symmetry_equiv_pos_site_id
 _symmetry_equiv_pos_as_xyz
  1  'x, y, z'
loop_
 _atom_site_type_symbol
 _atom_site_label
 _atom_site_symmetry_multiplicity
 _atom_site_fract_x
 _atom_site_fract_y
 _atom_site_fract_z
 _atom_site_occupancy
  La  La0  1  0.25000000  0.91484000  0.86148900  1
  La  La1  1  0.75000000  0.07630600  0.58701100  1
  La  La2  1  0.25000000  0.42369400  0.08701100  1
  La  La3  1  0.75000000  0.57630600  0.91298900  1
  La  La4  1  0.25000000  0.41484000  0.63851100  1
  La  La5  1  0.25000000  0.92369400  0.41298900  1
  La  La6  1  0.75000000  0.58516000  0.36148900  1
  La  La7  1  0.75000000  0.08516000  0.13851100  1
  Si  Si0  1  0.25000000  0.16464400  0.99972600  1
  Si  Si1  1  0.25000000  0.66464400  0.50027400  1
  Si  Si2  1  0.00641600  0.30013900  0.31676300  1
  Si  Si3  1  0.75000000  0.47383000  0.70058100  1
  Si  Si4  1  0.99358400  0.19986100  0.81676300  1
  Si  Si5  1  0.25000000  0.52617000  0.29941900  1
  Si  Si6  1  0.99358400  0.69986100  0.68323700  1
  Si  Si7  1  0.75000000  0.83535600  0.00027400  1
  Si  Si8  1  0.49358400  0.80013900  0.18323700  1
  Si  Si9  1  0.75000000  0.97383000  0.79941900  1
  Si  Si10  1  0.50641600  0.19986100  0.81676300  1
  Si  Si11  1  0.75000000  0.33535600  0.49972600  1
  Si  Si12  1  0.25000000  0.02617000  0.20058100  1
  Si  Si13  1  0.00641600  0.80013900  0.18323700  1
  Si  Si14  1  0.49358400  0.30013900  0.31676300  1
  Si  Si15  1  0.50641600  0.69986100  0.68323700  1
  C  C0  1  0.25000000  0.19630500  0.52919400  1
  C  C1  1  0.75000000  0.30369500  0.02919400  1
  C  C2  1  0.25000000  0.69630500  0.97080600  1
  C  C3  1  0.75000000  0.80369500  0.47080600  1
  N  N0  1  0.75000000  0.21351900  0.28503600  1
  N  N1  1  0.50051300  0.06291300  0.76989500  1
  N  N2  1  0.99948700  0.56291300  0.73010500  1
  N  N3  1  0.49948700  0.43708700  0.26989500  1
  N  N4  1  0.75000000  0.71351900  0.21496400  1
  N  N5  1  0.98129200  0.24412100  0.04139600  1
  N  N6  1  0.49948700  0.93708700  0.23010500  1
  N  N7  1  0.99948700  0.06291300  0.76989500  1
  N  N8  1  0.00051300  0.43708700  0.26989500  1
  N  N9  1  0.51870800  0.74412100  0.45860400  1
  N  N10  1  0.01870800  0.25587900  0.54139600  1
  N  N11  1  0.51870800  0.24412100  0.04139600  1
  N  N12  1  0.25000000  0.78648100  0.71496400  1
  N  N13  1  0.25000000  0.28648100  0.78503600  1
  N  N14  1  0.25000000  0.08304400  0.51944800  1
  N  N15  1  0.01870800  0.75587900  0.95860400  1
  N  N16  1  0.98129200  0.74412100  0.45860400  1
  N  N17  1  0.75000000  0.91695600  0.48055200  1
  N  N18  1  0.50051300  0.56291300  0.73010500  1
  N  N19  1  0.48129200  0.25587900  0.54139600  1
  N  N20  1  0.48129200  0.75587900  0.95860400  1
  N  N21  1  0.25000000  0.58304400  0.98055200  1
  N  N22  1  0.75000000  0.41695600  0.01944800  1
  N  N23  1  0.00051300  0.93708700  0.23010500  1
loop_
_geom_bond_atom_site_label_1
_geom_bond_atom_site_label_2
_geom_bond_distance
_geom_bond_site_symmetry_2
La0 N12 2.480452 1_555
La0 N1 2.494041 1_565
La0 N7 2.494041 1_465
La0 N15 2.570263 1_555
La0 N20 2.570263 1_555
La1 N17 2.344584 1_545
La1 N19 2.591402 1_555
La1 N10 2.591402 1_655
La1 N14 2.780678 1_655
La1 N14 2.780678 1_555
La1 N1 2.804739 1_555
La1 N7 2.804739 1_555
La2 N21 2.344584 1_554
La2 N5 2.591402 1_455
La2 N11 2.591402 1_555
La2 N22 2.780678 1_455
La2 N22 2.780678 1_555
La2 N8 2.804739 1_555
La2 N3 2.804739 1_555
La3 N22 2.344584 1_556
La3 N20 2.591402 1_555
La3 N15 2.591402 1_655
La3 N21 2.780678 1_655
La3 N21 2.780678 1_555
La3 N2 2.804739 1_555
La3 N18 2.804739 1_555
La4 N13 2.480452 1_555
La4 N2 2.494041 1_455
La4 N18 2.494041 1_555
La4 N10 2.570263 1_555
La4 N19 2.570263 1_555
La5 N14 2.344584 1_565
La5 N16 2.591402 1_455
La5 N9 2.591402 1_555
La5 N17 2.780678 1_455
La5 N17 2.780678 1_555
La5 N6 2.804739 1_555
La5 N23 2.804739 1_555
La6 N4 2.480452 1_555
La6 N8 2.494041 1_655
La6 N3 2.494041 1_555
La6 N16 2.570263 1_555
La6 N9 2.570263 1_555
La7 N0 2.480452 1_555
La7 N23 2.494041 1_645
La7 N6 2.494041 1_545
La7 N5 2.570263 1_555
La7 N11 2.570263 1_555
C0 N14 1.321219 1_555
C0 N10 1.407028 1_555
C0 N19 1.407028 1_555
C1 N22 1.321219 1_555
C1 N5 1.407028 1_555
C1 N11 1.407028 1_555
C2 N21 1.321219 1_555
C2 N20 1.407028 1_555
C2 N15 1.407028 1_555
C3 N17 1.321219 1_555
C3 N16 1.407028 1_555
C3 N9 1.407028 1_555
N0 Si14 1.734135 1_555
N0 Si2 1.734135 1_655
N1 Si10 1.711732 1_555
N1 Si9 1.715868 1_545
N2 Si6 1.711732 1_555
N2 Si3 1.715868 1_555
N3 Si14 1.711732 1_555
N3 Si5 1.715868 1_555
N4 Si13 1.734135 1_655
N4 Si8 1.734135 1_555
N5 Si0 1.777348 1_654
N6 Si8 1.711732 1_555
N6 Si12 1.715868 1_565
N7 Si4 1.711732 1_555
N7 Si9 1.715868 1_545
N8 Si2 1.711732 1_555
N8 Si5 1.715868 1_555
N9 Si1 1.777348 1_555
N10 Si11 1.777348 1_455
N11 Si0 1.777348 1_554
N12 Si6 1.734135 1_455
N12 Si15 1.734135 1_555
N13 Si4 1.734135 1_455
N13 Si10 1.734135 1_555
N15 Si7 1.777348 1_456
N16 Si1 1.777348 1_655
N18 Si15 1.711732 1_555
N18 Si3 1.715868 1_555
N19 Si11 1.777348 1_555
N20 Si7 1.777348 1_556
N23 Si13 1.711732 1_555
N23 Si12 1.715868 1_565
