# generated using pymatgen
data_Ba2Zn2ClF7
_symmetry_space_group_name_H-M   'P 1'
_cell_length_a   5.89018000
_cell_length_b   7.83134500
_cell_length_c   9.05903040
_cell_angle_alpha   73.18988380
_cell_angle_beta   90.00000000
_cell_angle_gamma   90.00000000
_symmetry_Int_Tables_number   1
_chemical_formula_structural   Ba2Zn2ClF7
_chemical_formula_sum   'Ba4 Zn4 Cl2 F14'
_cell_volume   400.01878510
_cell_formula_units_Z   2
loop_
 _symmetry_equiv_pos_site_id
 _symmetry_equiv_pos_as_xyz
  1  'x, y, z'
loop_
 _atom_site_type_symbol
 _atom_site_label
 _atom_site_symmetry_multiplicity
 _atom_site_fract_x
 _atom_site_fract_y
 _atom_site_fract_z
 _atom_site_occupancy
  Ba  Ba0  1  0.75000000  0.33247300  0.41262600  1
  Ba  Ba1  1  0.25000000  0.69620900  0.07438000  1
  Ba  Ba2  1  0.75000000  0.30379100  0.92562000  1
  Ba  Ba3  1  0.25000000  0.66752700  0.58737400  1
  Zn  Zn0  1  0.25000000  0.18235100  0.17458200  1
  Zn  Zn1  1  0.75000000  0.82728900  0.26609500  1
  Zn  Zn2  1  0.75000000  0.81764900  0.82541800  1
  Zn  Zn3  1  0.25000000  0.17271100  0.73390500  1
  Cl  Cl0  1  0.25000000  0.11791900  0.47027000  1
  Cl  Cl1  1  0.75000000  0.88208100  0.52973000  1
  F  F0  1  0.99862000  0.00506900  0.17169700  1
  F  F1  1  0.49792700  0.36158400  0.65450900  1
  F  F2  1  0.25000000  0.25394200  0.93374200  1
  F  F3  1  0.50138000  0.00506900  0.17169700  1
  F  F4  1  0.75000000  0.74605800  0.06625800  1
  F  F5  1  0.00138000  0.99493100  0.82830300  1
  F  F6  1  0.00207300  0.36158400  0.65450900  1
  F  F7  1  0.49322100  0.37050300  0.16074800  1
  F  F8  1  0.50207300  0.63841600  0.34549100  1
  F  F9  1  0.99792700  0.63841600  0.34549100  1
  F  F10  1  0.50677900  0.62949700  0.83925200  1
  F  F11  1  0.00677900  0.37050300  0.16074800  1
  F  F12  1  0.99322100  0.62949700  0.83925200  1
  F  F13  1  0.49862000  0.99493100  0.82830300  1
loop_
_geom_bond_atom_site_label_1
_geom_bond_atom_site_label_2
_geom_bond_distance
_geom_bond_site_symmetry_2
Ba0 F7 2.681360 1_555
Ba0 F11 2.681360 1_655
Ba0 F6 2.710513 1_655
Ba0 F1 2.710513 1_555
Ba0 F8 2.720328 1_555
Ba0 F9 2.720328 1_555
Ba0 Cl0 3.355886 1_555
Ba0 Cl0 3.355886 1_655
Ba0 Cl1 3.376700 1_545
Ba1 F12 2.782305 1_454
Ba1 F10 2.782305 1_554
Ba1 F8 2.792553 1_555
Ba1 F9 2.792553 1_455
Ba1 F11 2.831322 1_555
Ba1 F7 2.831322 1_555
Ba1 F4 2.968965 1_555
Ba1 F4 2.968965 1_455
Ba1 F5 3.093594 1_554
Ba1 F13 3.093594 1_554
Ba1 F0 3.170731 1_465
Ba1 F3 3.170731 1_565
Ba2 F7 2.782305 1_556
Ba2 F11 2.782305 1_656
Ba2 F1 2.792553 1_555
Ba2 F6 2.792553 1_655
Ba2 F12 2.831322 1_555
Ba2 F10 2.831322 1_555
Ba2 F2 2.968965 1_555
Ba2 F2 2.968965 1_655
Ba2 F3 3.093594 1_556
Ba2 F0 3.093594 1_556
Ba2 F13 3.170731 1_545
Ba2 F5 3.170731 1_645
Ba3 F12 2.681360 1_455
Ba3 F10 2.681360 1_555
Ba3 F8 2.710513 1_555
Ba3 F9 2.710513 1_455
Ba3 F6 2.720328 1_555
Ba3 F1 2.720328 1_555
Ba3 Cl1 3.355886 1_555
Ba3 Cl1 3.355886 1_455
Ba3 Cl0 3.376700 1_565
Cl0 Zn3 2.545729 1_555
Cl0 Zn0 2.578368 1_555
Cl1 Zn1 2.545729 1_555
Cl1 Zn2 2.578368 1_555
F0 Zn1 2.031143 1_545
F0 Zn0 2.035092 1_655
F1 Zn3 2.054844 1_555
F2 Zn3 2.085206 1_555
F2 Zn0 2.089730 1_556
F3 Zn1 2.031143 1_545
F3 Zn0 2.035092 1_555
F4 Zn1 2.085206 1_555
F4 Zn2 2.089730 1_554
F5 Zn3 2.031143 1_565
F5 Zn2 2.035092 1_455
F6 Zn3 2.054844 1_555
F7 Zn0 2.032840 1_555
F8 Zn1 2.054844 1_555
F9 Zn1 2.054844 1_555
F10 Zn2 2.032840 1_555
F11 Zn0 2.032840 1_555
F12 Zn2 2.032840 1_555
F13 Zn3 2.031143 1_565
F13 Zn2 2.035092 1_555
