# generated using pymatgen
data_Eu(TmSe2)2
_symmetry_space_group_name_H-M   'P 1'
_cell_length_a   4.06400014
_cell_length_b   12.38262514
_cell_length_c   14.66176903
_cell_angle_alpha   90.00000000
_cell_angle_beta   90.00000000
_cell_angle_gamma   90.00000000
_symmetry_Int_Tables_number   1
_chemical_formula_structural   Eu(TmSe2)2
_chemical_formula_sum   'Eu4 Tm8 Se16'
_cell_volume   737.82406071
_cell_formula_units_Z   4
loop_
 _symmetry_equiv_pos_site_id
 _symmetry_equiv_pos_as_xyz
  1  'x, y, z'
loop_
 _atom_site_type_symbol
 _atom_site_label
 _atom_site_symmetry_multiplicity
 _atom_site_fract_x
 _atom_site_fract_y
 _atom_site_fract_z
 _atom_site_occupancy
  Eu  Eu0  1  0.75000000  0.74112511  0.83458145  1
  Eu  Eu1  1  0.25000000  0.25887489  0.16541855  1
  Eu  Eu2  1  0.75000000  0.24112511  0.66541855  1
  Eu  Eu3  1  0.25000000  0.75887489  0.33458145  1
  Tm  Tm0  1  0.75000000  0.08414732  0.40280026  1
  Tm  Tm1  1  0.25000000  0.91585268  0.59719974  1
  Tm  Tm2  1  0.75000000  0.58414732  0.09719974  1
  Tm  Tm3  1  0.25000000  0.41585268  0.90280026  1
  Tm  Tm4  1  0.75000000  0.06175827  0.88848912  1
  Tm  Tm5  1  0.25000000  0.93824173  0.11151088  1
  Tm  Tm6  1  0.75000000  0.56175827  0.61151088  1
  Tm  Tm7  1  0.25000000  0.43824173  0.38848912  1
  Se  Se0  1  0.75000000  0.29501505  0.32622480  1
  Se  Se1  1  0.25000000  0.70498495  0.67377520  1
  Se  Se2  1  0.75000000  0.79501505  0.17377520  1
  Se  Se3  1  0.25000000  0.20498495  0.82622480  1
  Se  Se4  1  0.75000000  0.36992496  0.03208521  1
  Se  Se5  1  0.25000000  0.63007504  0.96791479  1
  Se  Se6  1  0.75000000  0.86992496  0.46791479  1
  Se  Se7  1  0.25000000  0.13007504  0.53208521  1
  Se  Se8  1  0.75000000  0.97229928  0.71496383  1
  Se  Se9  1  0.25000000  0.02770072  0.28503617  1
  Se  Se10  1  0.75000000  0.47229928  0.78503617  1
  Se  Se11  1  0.25000000  0.52770072  0.21496383  1
  Se  Se12  1  0.75000000  0.09208639  0.07760175  1
  Se  Se13  1  0.25000000  0.90791361  0.92239825  1
  Se  Se14  1  0.75000000  0.59208639  0.42239825  1
  Se  Se15  1  0.25000000  0.40791361  0.57760175  1
loop_
_geom_bond_atom_site_label_1
_geom_bond_atom_site_label_2
_geom_bond_distance
_geom_bond_site_symmetry_2
Eu0 Se5 3.137124 1_555
Eu0 Se5 3.137124 1_655
Eu0 Se1 3.144528 1_555
Eu0 Se1 3.144528 1_655
Eu0 Se13 3.170519 1_655
Eu0 Se13 3.170519 1_555
Eu0 Se8 3.357080 1_555
Eu0 Se10 3.407109 1_555
Eu1 Se4 3.137124 1_455
Eu1 Se4 3.137124 1_555
Eu1 Se0 3.144528 1_455
Eu1 Se0 3.144528 1_555
Eu1 Se12 3.170519 1_455
Eu1 Se12 3.170519 1_555
Eu1 Se9 3.357080 1_555
Eu1 Se11 3.407109 1_555
Eu2 Se7 3.137124 1_655
Eu2 Se7 3.137124 1_555
Eu2 Se3 3.144528 1_655
Eu2 Se3 3.144528 1_555
Eu2 Se15 3.170519 1_655
Eu2 Se15 3.170519 1_555
Eu2 Se10 3.357080 1_555
Eu2 Se8 3.407109 1_545
Eu3 Se6 3.137124 1_455
Eu3 Se6 3.137124 1_555
Eu3 Se2 3.144528 1_455
Eu3 Se2 3.144528 1_555
Eu3 Se14 3.170519 1_455
Eu3 Se14 3.170519 1_555
Eu3 Se11 3.357080 1_555
Eu3 Se9 3.407109 1_565
Se0 Tm0 2.842244 1_555
Se0 Tm7 2.847420 1_655
Se0 Tm7 2.847420 1_555
Se1 Tm1 2.842244 1_555
Se1 Tm6 2.847420 1_555
Se1 Tm6 2.847420 1_455
Se2 Tm2 2.842244 1_555
Se2 Tm5 2.847420 1_555
Se2 Tm5 2.847420 1_655
Se3 Tm3 2.842244 1_555
Se3 Tm4 2.847420 1_555
Se3 Tm4 2.847420 1_455
Se4 Tm2 2.819205 1_555
Se4 Tm3 2.836467 1_654
Se4 Tm3 2.836467 1_554
Se5 Tm3 2.819205 1_555
Se5 Tm2 2.836467 1_556
Se5 Tm2 2.836467 1_456
Se6 Tm0 2.819205 1_565
Se6 Tm1 2.836467 1_555
Se6 Tm1 2.836467 1_655
Se7 Tm1 2.819205 1_545
Se7 Tm0 2.836467 1_555
Se7 Tm0 2.836467 1_455
Se8 Tm1 2.756595 1_555
Se8 Tm1 2.756595 1_655
Se8 Tm4 2.774882 1_565
Se9 Tm0 2.756595 1_555
Se9 Tm0 2.756595 1_455
Se9 Tm5 2.774882 1_545
Se10 Tm3 2.756595 1_555
Se10 Tm3 2.756595 1_655
Se10 Tm6 2.774882 1_555
Se11 Tm2 2.756595 1_455
Se11 Tm2 2.756595 1_555
Se11 Tm7 2.774882 1_555
Se12 Tm4 2.798042 1_554
Se12 Tm5 2.829351 1_545
Se12 Tm5 2.829351 1_645
Se13 Tm5 2.798042 1_556
Se13 Tm4 2.829351 1_565
Se13 Tm4 2.829351 1_465
Se14 Tm6 2.798042 1_555
Se14 Tm7 2.829351 1_655
Se14 Tm7 2.829351 1_555
Se15 Tm7 2.798042 1_555
Se15 Tm6 2.829351 1_455
Se15 Tm6 2.829351 1_555
