# generated using pymatgen
data_Mg41Al67
_symmetry_space_group_name_H-M   'P 1'
_cell_length_a   12.64750100
_cell_length_b   12.64750100
_cell_length_c   12.64750100
_cell_angle_alpha   90.00000000
_cell_angle_beta   90.00000000
_cell_angle_gamma   90.00000000
_symmetry_Int_Tables_number   1
_chemical_formula_structural   Mg41Al67
_chemical_formula_sum   'Mg41 Al67'
_cell_volume   2023.08517330
_cell_formula_units_Z   1
loop_
 _symmetry_equiv_pos_site_id
 _symmetry_equiv_pos_as_xyz
  1  'x, y, z'
loop_
 _atom_site_type_symbol
 _atom_site_label
 _atom_site_symmetry_multiplicity
 _atom_site_fract_x
 _atom_site_fract_y
 _atom_site_fract_z
 _atom_site_occupancy
  Mg  Mg0  1  0.66099900  0.33900100  0.16666300  1
  Mg  Mg1  1  0.66099900  0.83333700  0.33900100  1
  Mg  Mg2  1  0.16666300  0.66099900  0.66099900  1
  Mg  Mg3  1  0.33900100  0.83333700  0.66099900  1
  Mg  Mg4  1  0.00000000  0.82349300  0.00000000  1
  Mg  Mg5  1  0.83333700  0.66099900  0.66099900  1
  Mg  Mg6  1  0.16666300  0.33900100  0.33900100  1
  Mg  Mg7  1  0.66099900  0.16666300  0.33900100  1
  Mg  Mg8  1  0.83120500  0.16879500  0.16879500  1
  Mg  Mg9  1  0.83333700  0.66099900  0.33900100  1
  Mg  Mg10  1  0.00000000  0.00000000  0.17650700  1
  Mg  Mg11  1  0.66099900  0.66099900  0.16666300  1
  Mg  Mg12  1  0.33900100  0.66099900  0.83333700  1
  Mg  Mg13  1  0.16879500  0.16879500  0.83120500  1
  Mg  Mg14  1  0.66099900  0.33900100  0.83333700  1
  Mg  Mg15  1  0.00000000  0.50000000  0.00000000  1
  Mg  Mg16  1  0.66099900  0.16666300  0.66099900  1
  Mg  Mg17  1  0.16666300  0.66099900  0.33900100  1
  Mg  Mg18  1  0.83120500  0.16879500  0.83120500  1
  Mg  Mg19  1  0.16666300  0.33900100  0.66099900  1
  Mg  Mg20  1  0.16879500  0.16879500  0.16879500  1
  Mg  Mg21  1  0.66099900  0.66099900  0.83333700  1
  Mg  Mg22  1  0.66099900  0.83333700  0.66099900  1
  Mg  Mg23  1  0.83120500  0.83120500  0.16879500  1
  Mg  Mg24  1  0.17650700  0.00000000  0.00000000  1
  Mg  Mg25  1  0.33900100  0.16666300  0.66099900  1
  Mg  Mg26  1  0.83333700  0.33900100  0.66099900  1
  Mg  Mg27  1  0.00000000  0.00000000  0.50000000  1
  Mg  Mg28  1  0.16879500  0.83120500  0.16879500  1
  Mg  Mg29  1  0.33900100  0.66099900  0.16666300  1
  Mg  Mg30  1  0.00000000  0.17650700  0.00000000  1
  Mg  Mg31  1  0.16879500  0.83120500  0.83120500  1
  Mg  Mg32  1  0.82349300  0.00000000  0.00000000  1
  Mg  Mg33  1  0.33900100  0.33900100  0.83333700  1
  Mg  Mg34  1  0.33900100  0.33900100  0.16666300  1
  Mg  Mg35  1  0.33900100  0.16666300  0.33900100  1
  Mg  Mg36  1  0.50000000  0.00000000  0.00000000  1
  Mg  Mg37  1  0.83333700  0.33900100  0.33900100  1
  Mg  Mg38  1  0.33900100  0.83333700  0.33900100  1
  Mg  Mg39  1  0.00000000  0.00000000  0.82349300  1
  Mg  Mg40  1  0.83120500  0.83120500  0.83120500  1
  Al  Al0  1  0.50000000  0.33876200  0.33876200  1
  Al  Al1  1  0.83346300  0.16653700  0.50000000  1
  Al  Al2  1  0.33876200  0.50000000  0.66123800  1
  Al  Al3  1  0.66842300  0.00000000  0.50000000  1
  Al  Al4  1  0.66254100  0.00000000  0.82900100  1
  Al  Al5  1  0.82900100  0.00000000  0.66254100  1
  Al  Al6  1  0.50000000  0.00000000  0.33157700  1
  Al  Al7  1  0.33745900  0.82900100  0.00000000  1
  Al  Al8  1  0.00000000  0.66842300  0.50000000  1
  Al  Al9  1  0.33157700  0.00000000  0.50000000  1
  Al  Al10  1  0.66254100  0.00000000  0.17099900  1
  Al  Al11  1  0.50000000  0.83346300  0.16653700  1
  Al  Al12  1  0.66842300  0.50000000  0.00000000  1
  Al  Al13  1  0.17099900  0.66254100  0.00000000  1
  Al  Al14  1  0.83346300  0.50000000  0.16653700  1
  Al  Al15  1  0.17301800  0.50000000  0.50000000  1
  Al  Al16  1  0.17099900  0.33745900  0.00000000  1
  Al  Al17  1  0.50000000  0.50000000  0.17301800  1
  Al  Al18  1  0.50000000  0.83346300  0.83346300  1
  Al  Al19  1  0.50000000  0.00000000  0.66842300  1
  Al  Al20  1  0.33876200  0.33876200  0.50000000  1
  Al  Al21  1  0.50000000  0.16653700  0.16653700  1
  Al  Al22  1  0.50000000  0.66123800  0.33876200  1
  Al  Al23  1  0.33745900  0.00000000  0.17099900  1
  Al  Al24  1  0.17099900  0.00000000  0.66254100  1
  Al  Al25  1  0.82900100  0.00000000  0.33745900  1
  Al  Al26  1  0.16653700  0.50000000  0.16653700  1
  Al  Al27  1  0.00000000  0.17099900  0.66254100  1
  Al  Al28  1  0.33745900  0.00000000  0.82900100  1
  Al  Al29  1  0.00000000  0.82900100  0.33745900  1
  Al  Al30  1  0.16653700  0.16653700  0.50000000  1
  Al  Al31  1  0.50000000  0.50000000  0.50000000  1
  Al  Al32  1  0.50000000  0.33157700  0.00000000  1
  Al  Al33  1  0.50000000  0.66123800  0.66123800  1
  Al  Al34  1  0.66123800  0.33876200  0.50000000  1
  Al  Al35  1  0.17099900  0.00000000  0.33745900  1
  Al  Al36  1  0.66123800  0.50000000  0.66123800  1
  Al  Al37  1  0.50000000  0.66842300  0.00000000  1
  Al  Al38  1  0.00000000  0.33745900  0.82900100  1
  Al  Al39  1  0.00000000  0.66254100  0.82900100  1
  Al  Al40  1  0.50000000  0.17301800  0.50000000  1
  Al  Al41  1  0.50000000  0.82698200  0.50000000  1
  Al  Al42  1  0.83346300  0.83346300  0.50000000  1
  Al  Al43  1  0.00000000  0.17099900  0.33745900  1
  Al  Al44  1  0.16653700  0.83346300  0.50000000  1
  Al  Al45  1  0.00000000  0.33745900  0.17099900  1
  Al  Al46  1  0.00000000  0.66254100  0.17099900  1
  Al  Al47  1  0.00000000  0.82900100  0.66254100  1
  Al  Al48  1  0.33876200  0.66123800  0.50000000  1
  Al  Al49  1  0.66254100  0.17099900  0.00000000  1
  Al  Al50  1  0.82900100  0.66254100  0.00000000  1
  Al  Al51  1  0.33157700  0.50000000  0.00000000  1
  Al  Al52  1  0.33745900  0.17099900  0.00000000  1
  Al  Al53  1  0.66254100  0.82900100  0.00000000  1
  Al  Al54  1  0.83346300  0.50000000  0.83346300  1
  Al  Al55  1  0.82698200  0.50000000  0.50000000  1
  Al  Al56  1  0.00000000  0.50000000  0.33157700  1
  Al  Al57  1  0.50000000  0.16653700  0.83346300  1
  Al  Al58  1  0.50000000  0.33876200  0.66123800  1
  Al  Al59  1  0.33876200  0.50000000  0.33876200  1
  Al  Al60  1  0.00000000  0.33157700  0.50000000  1
  Al  Al61  1  0.82900100  0.33745900  0.00000000  1
  Al  Al62  1  0.16653700  0.50000000  0.83346300  1
  Al  Al63  1  0.66123800  0.50000000  0.33876200  1
  Al  Al64  1  0.66123800  0.66123800  0.50000000  1
  Al  Al65  1  0.50000000  0.50000000  0.82698200  1
  Al  Al66  1  0.00000000  0.50000000  0.66842300  1
loop_
_geom_bond_atom_site_label_1
_geom_bond_atom_site_label_2
_geom_bond_distance
_geom_bond_site_symmetry_2
Mg0 Mg8 3.044469 1_555
Mg0 Mg37 3.082484 1_555
Mg0 Mg7 3.082484 1_555
Mg1 Mg23 3.044469 1_555
Mg1 Mg9 3.082484 1_555
Mg1 Mg11 3.082484 1_555
Mg2 Mg31 3.044469 1_555
Mg2 Mg3 3.082484 1_555
Mg3 Mg31 3.044469 1_555
Mg4 Mg40 3.020688 1_454
Mg7 Mg8 3.044469 1_555
Mg10 Mg20 3.020688 1_555
Mg10 Mg28 3.020688 1_545
Mg10 Mg8 3.020688 1_455
Mg10 Mg23 3.020688 1_445
Mg10 Mg30 3.157051 1_555
Mg10 Mg24 3.157051 1_555
Mg10 Mg4 3.157051 1_545
Mg10 Mg32 3.157051 1_455
Mg11 Mg23 3.044469 1_555
Mg11 Mg9 3.082484 1_555
Mg12 Mg31 3.044469 1_555
Mg12 Mg3 3.082484 1_555
Mg12 Mg2 3.082484 1_555
Mg13 Mg39 3.020688 1_555
Mg13 Mg30 3.020688 1_556
Mg13 Mg24 3.020688 1_556
Mg13 Mg19 3.044469 1_555
Mg13 Mg25 3.044469 1_555
Mg13 Mg33 3.044469 1_555
Mg14 Mg18 3.044469 1_555
Mg14 Mg26 3.082484 1_555
Mg14 Mg16 3.082484 1_555
Mg16 Mg18 3.044469 1_555
Mg16 Mg26 3.082484 1_555
Mg17 Mg28 3.044469 1_555
Mg17 Mg38 3.082484 1_555
Mg17 Mg29 3.082484 1_555
Mg18 Mg39 3.020688 1_655
Mg18 Mg30 3.020688 1_656
Mg18 Mg32 3.020688 1_556
Mg18 Mg26 3.044469 1_555
Mg19 Mg25 3.082484 1_555
Mg19 Mg33 3.082484 1_555
Mg20 Mg24 3.020688 1_555
Mg20 Mg30 3.020688 1_555
Mg20 Mg6 3.044469 1_555
Mg20 Mg34 3.044469 1_555
Mg20 Mg35 3.044469 1_555
Mg21 Mg40 3.044469 1_555
Mg21 Mg5 3.082484 1_555
Mg21 Mg22 3.082484 1_555
Mg22 Mg40 3.044469 1_555
Mg22 Mg5 3.082484 1_555
Mg23 Mg4 3.020688 1_655
Mg23 Mg32 3.020688 1_565
Mg23 Mg9 3.044469 1_555
Mg24 Mg28 3.020688 1_545
Mg24 Mg31 3.020688 1_544
Mg24 Mg30 3.157051 1_555
Mg24 Mg39 3.157051 1_554
Mg24 Mg4 3.157051 1_545
Mg25 Mg33 3.082484 1_555
Mg28 Mg4 3.020688 1_555
Mg28 Mg29 3.044469 1_555
Mg28 Mg38 3.044469 1_555
Mg29 Mg38 3.082484 1_555
Mg30 Mg8 3.020688 1_455
Mg30 Mg39 3.157051 1_554
Mg30 Mg32 3.157051 1_455
Mg31 Mg39 3.020688 1_565
Mg31 Mg4 3.020688 1_556
Mg32 Mg8 3.020688 1_555
Mg32 Mg40 3.020688 1_544
Mg32 Mg4 3.157051 1_645
Mg32 Mg39 3.157051 1_654
Mg34 Mg6 3.082484 1_555
Mg34 Mg35 3.082484 1_555
Mg35 Mg6 3.082484 1_555
Mg37 Mg8 3.044469 1_555
Mg37 Mg7 3.082484 1_555
Mg39 Mg40 3.020688 1_445
Mg39 Mg4 3.157051 1_546
Mg40 Mg5 3.044469 1_555
Al0 Al34 2.883946 1_555
Al0 Al63 2.883946 1_555
Al0 Al20 2.883946 1_555
Al0 Al31 2.883946 1_555
Al0 Al59 2.883946 1_555
Al0 Al40 2.924521 1_555
Al0 Al17 2.924521 1_555
Al0 Mg34 2.980595 1_555
Al0 Mg0 2.980595 1_555
Al0 Mg35 2.980595 1_555
Al0 Mg7 2.980595 1_555
Al0 Al21 3.080462 1_555
Al1 Al5 2.943747 1_555
Al1 Al27 2.943747 1_655
Al1 Al25 2.943747 1_555
Al1 Al43 2.943747 1_655
Al1 Al3 2.965368 1_555
Al1 Al60 2.965368 1_655
Al1 Mg27 2.978725 1_655
Al1 Mg7 2.983967 1_555
Al1 Mg16 2.983967 1_555
Al1 Mg26 2.983967 1_555
Al1 Mg37 2.983967 1_555
Al1 Al34 3.080462 1_555
Al2 Al33 2.883946 1_555
Al2 Al20 2.883946 1_555
Al2 Al58 2.883946 1_555
Al2 Al48 2.883946 1_555
Al2 Al31 2.883946 1_555
Al2 Al65 2.924521 1_555
Al2 Mg2 2.980595 1_555
Al2 Mg12 2.980595 1_555
Al2 Mg19 2.980595 1_555
Al2 Mg33 2.980595 1_555
Al2 Al62 3.080462 1_555
Al3 Al5 2.889750 1_555
Al3 Mg16 2.932267 1_555
Al3 Mg22 2.932267 1_545
Al3 Mg7 2.932267 1_555
Al3 Mg1 2.932267 1_545
Al3 Al42 2.965368 1_545
Al3 Al6 3.012459 1_555
Al3 Al41 3.053829 1_545
Al3 Al40 3.053829 1_555
Al4 Al57 2.943747 1_555
Al4 Mg32 2.970042 1_556
Al4 Al5 2.977348 1_555
Al4 Mg36 2.983852 1_556
Al4 Mg22 2.993041 1_545
Al4 Mg16 2.993041 1_555
Al4 Mg18 3.018070 1_555
Al4 Mg40 3.018070 1_545
Al4 Al49 3.058534 1_556
Al4 Al53 3.058534 1_546
Al5 Mg39 2.970042 1_655
Al5 Mg27 2.983852 1_655
Al5 Mg22 2.993041 1_545
Al5 Mg16 2.993041 1_555
Al5 Mg40 3.018070 1_545
Al5 Mg18 3.018070 1_555
Al6 Mg35 2.932267 1_555
Al6 Mg38 2.932267 1_545
Al6 Mg1 2.932267 1_545
Al6 Mg7 2.932267 1_555
Al6 Al9 3.012459 1_555
Al7 Mg24 2.970042 1_565
Al7 Mg36 2.983852 1_565
Al7 Mg29 2.993041 1_555
Al7 Mg12 2.993041 1_554
Al7 Mg28 3.018070 1_555
Al7 Mg31 3.018070 1_554
Al8 Mg2 2.932267 1_555
Al8 Mg9 2.932267 1_455
Al8 Mg17 2.932267 1_555
Al8 Mg5 2.932267 1_455
Al9 Mg3 2.932267 1_545
Al9 Mg25 2.932267 1_555
Al9 Mg35 2.932267 1_555
Al9 Mg38 2.932267 1_545
Al10 Al6 2.889750 1_555
Al10 Al21 2.943747 1_555
Al10 Al11 2.943747 1_545
Al10 Mg32 2.970042 1_555
Al10 Al25 2.977348 1_555
Al10 Mg36 2.983852 1_555
Al10 Mg7 2.993041 1_555
Al10 Mg1 2.993041 1_545
Al10 Mg8 3.018070 1_555
Al10 Mg23 3.018070 1_545
Al10 Al49 3.058534 1_555
Al10 Al53 3.058534 1_545
Al11 Al53 2.943747 1_555
Al11 Al7 2.943747 1_555
Al11 Al23 2.943747 1_565
Al11 Al37 2.965368 1_555
Al11 Al6 2.965368 1_565
Al11 Mg36 2.978725 1_565
Al11 Mg29 2.983967 1_555
Al11 Mg11 2.983967 1_555
Al11 Mg38 2.983967 1_555
Al11 Mg1 2.983967 1_555
Al11 Al22 3.080462 1_555
Al12 Al50 2.889750 1_555
Al12 Al61 2.889750 1_555
Al12 Mg11 2.932267 1_555
Al12 Mg0 2.932267 1_555
Al12 Mg14 2.932267 1_554
Al12 Mg21 2.932267 1_554
Al12 Al14 2.965368 1_555
Al12 Al54 2.965368 1_554
Al12 Al32 3.012459 1_555
Al12 Al37 3.012459 1_555
Al12 Al65 3.053829 1_554
Al12 Al17 3.053829 1_555
Al13 Al51 2.889750 1_555
Al13 Al26 2.943747 1_555
Al13 Al62 2.943747 1_554
Al13 Mg4 2.970042 1_555
Al13 Al7 2.977348 1_555
Al13 Mg15 2.983852 1_555
Al13 Mg29 2.993041 1_555
Al13 Mg12 2.993041 1_554
Al13 Mg31 3.018070 1_554
Al13 Mg28 3.018070 1_555
Al13 Al46 3.058534 1_555
Al13 Al39 3.058534 1_554
Al14 Al50 2.943747 1_555
Al14 Al46 2.943747 1_655
Al14 Al61 2.943747 1_555
Al14 Al45 2.943747 1_655
Al14 Al56 2.965368 1_655
Al14 Mg15 2.978725 1_655
Al14 Mg11 2.983967 1_555
Al14 Mg0 2.983967 1_555
Al14 Mg37 2.983967 1_555
Al14 Mg9 2.983967 1_555
Al14 Al63 3.080462 1_555
Al15 Mg17 2.880793 1_555
Al15 Mg2 2.880793 1_555
Al15 Mg19 2.880793 1_555
Al15 Mg6 2.880793 1_555
Al15 Al48 2.924521 1_555
Al15 Al59 2.924521 1_555
Al15 Al2 2.924521 1_555
Al15 Al20 2.924521 1_555
Al15 Al60 3.053829 1_555
Al15 Al66 3.053829 1_555
Al15 Al8 3.053829 1_555
Al15 Al56 3.053829 1_555
Al16 Al51 2.889750 1_555
Al16 Al26 2.943747 1_555
Al16 Al62 2.943747 1_554
Al16 Mg30 2.970042 1_555
Al16 Al52 2.977348 1_555
Al16 Mg15 2.983852 1_555
Al16 Mg34 2.993041 1_555
Al16 Mg33 2.993041 1_554
Al16 Mg20 3.018070 1_555
Al16 Mg13 3.018070 1_554
Al16 Al45 3.058534 1_555
Al16 Al38 3.058534 1_554
Al17 Mg29 2.880793 1_555
Al17 Mg11 2.880793 1_555
Al17 Mg34 2.880793 1_555
Al17 Mg0 2.880793 1_555
Al17 Al22 2.924521 1_555
Al17 Al59 2.924521 1_555
Al17 Al63 2.924521 1_555
Al17 Al51 3.053829 1_555
Al17 Al32 3.053829 1_555
Al17 Al37 3.053829 1_555
Al18 Al53 2.943747 1_556
Al18 Al4 2.943747 1_565
Al18 Al7 2.943747 1_556
Al18 Al28 2.943747 1_565
Al18 Al19 2.965368 1_565
Al18 Al37 2.965368 1_556
Al18 Mg36 2.978725 1_566
Al18 Mg3 2.983967 1_555
Al18 Mg12 2.983967 1_555
Al18 Mg21 2.983967 1_555
Al18 Mg22 2.983967 1_555
Al18 Al33 3.080462 1_555
Al19 Al4 2.889750 1_555
Al19 Al28 2.889750 1_555
Al19 Mg3 2.932267 1_545
Al19 Mg16 2.932267 1_555
Al19 Mg25 2.932267 1_555
Al19 Mg22 2.932267 1_545
Al19 Al57 2.965368 1_555
Al19 Al9 3.012459 1_555
Al19 Al3 3.012459 1_555
Al19 Al41 3.053829 1_545
Al19 Al40 3.053829 1_555
Al20 Al58 2.883946 1_555
Al20 Al31 2.883946 1_555
Al20 Al59 2.883946 1_555
Al20 Al40 2.924521 1_555
Al20 Mg6 2.980595 1_555
Al20 Mg19 2.980595 1_555
Al20 Mg35 2.980595 1_555
Al20 Mg25 2.980595 1_555
Al20 Al30 3.080462 1_555
Al21 Al49 2.943747 1_555
Al21 Al52 2.943747 1_555
Al21 Al23 2.943747 1_555
Al21 Al32 2.965368 1_555
Al21 Al6 2.965368 1_555
Al21 Mg36 2.978725 1_555
Al21 Mg35 2.983967 1_555
Al21 Mg7 2.983967 1_555
Al21 Mg34 2.983967 1_555
Al21 Mg0 2.983967 1_555
Al22 Al63 2.883946 1_555
Al22 Al64 2.883946 1_555
Al22 Al48 2.883946 1_555
Al22 Al31 2.883946 1_555
Al22 Al59 2.883946 1_555
Al22 Al41 2.924521 1_555
Al22 Mg1 2.980595 1_555
Al22 Mg38 2.980595 1_555
Al22 Mg29 2.980595 1_555
Al22 Mg11 2.980595 1_555
Al23 Al6 2.889750 1_555
Al23 Mg24 2.970042 1_555
Al23 Al35 2.977348 1_555
Al23 Mg36 2.983852 1_555
Al23 Mg38 2.993041 1_545
Al23 Mg35 2.993041 1_555
Al23 Mg20 3.018070 1_555
Al23 Mg28 3.018070 1_545
Al23 Al52 3.058534 1_555
Al23 Al7 3.058534 1_545
Al24 Al9 2.889750 1_555
Al24 Al30 2.943747 1_555
Al24 Al44 2.943747 1_545
Al24 Mg39 2.970042 1_555
Al24 Al28 2.977348 1_555
Al24 Mg27 2.983852 1_555
Al24 Mg3 2.993041 1_545
Al24 Mg25 2.993041 1_555
Al24 Mg13 3.018070 1_555
Al24 Mg31 3.018070 1_545
Al24 Al27 3.058534 1_555
Al24 Al47 3.058534 1_545
Al25 Al3 2.889750 1_555
Al25 Al42 2.943747 1_545
Al25 Mg10 2.970042 1_655
Al25 Mg27 2.983852 1_655
Al25 Mg7 2.993041 1_555
Al25 Mg1 2.993041 1_545
Al25 Mg8 3.018070 1_555
Al25 Mg23 3.018070 1_545
Al25 Al43 3.058534 1_655
Al25 Al29 3.058534 1_645
Al26 Al46 2.943747 1_555
Al26 Al45 2.943747 1_555
Al26 Al51 2.965368 1_555
Al26 Al56 2.965368 1_555
Al26 Mg15 2.978725 1_555
Al26 Mg6 2.983967 1_555
Al26 Mg17 2.983967 1_555
Al26 Mg29 2.983967 1_555
Al26 Mg34 2.983967 1_555
Al26 Al59 3.080462 1_555
Al27 Al60 2.889750 1_555
Al27 Al30 2.943747 1_555
Al27 Mg39 2.970042 1_555
Al27 Al38 2.977348 1_555
Al27 Mg27 2.983852 1_555
Al27 Mg19 2.993041 1_555
Al27 Mg26 2.993041 1_455
Al27 Mg18 3.018070 1_455
Al27 Mg13 3.018070 1_555
Al27 Al5 3.058534 1_455
Al28 Al57 2.943747 1_555
Al28 Mg24 2.970042 1_556
Al28 Mg36 2.983852 1_556
Al28 Mg3 2.993041 1_545
Al28 Mg25 2.993041 1_555
Al28 Mg13 3.018070 1_555
Al28 Mg31 3.018070 1_545
Al28 Al52 3.058534 1_556
Al28 Al7 3.058534 1_546
Al29 Al8 2.889750 1_555
Al29 Al44 2.943747 1_555
Al29 Al42 2.943747 1_455
Al29 Mg10 2.970042 1_565
Al29 Al46 2.977348 1_555
Al29 Mg27 2.983852 1_565
Al29 Mg9 2.993041 1_455
Al29 Mg17 2.993041 1_555
Al29 Mg28 3.018070 1_555
Al29 Mg23 3.018070 1_455
Al29 Al35 3.058534 1_565
Al30 Al43 2.943747 1_555
Al30 Al35 2.943747 1_555
Al30 Al9 2.965368 1_555
Al30 Al60 2.965368 1_555
Al30 Mg27 2.978725 1_555
Al30 Mg6 2.983967 1_555
Al30 Mg25 2.983967 1_555
Al30 Mg35 2.983967 1_555
Al30 Mg19 2.983967 1_555
Al31 Al34 2.883946 1_555
Al31 Al63 2.883946 1_555
Al31 Al64 2.883946 1_555
Al31 Al33 2.883946 1_555
Al31 Al58 2.883946 1_555
Al31 Al36 2.883946 1_555
Al31 Al48 2.883946 1_555
Al31 Al59 2.883946 1_555
Al32 Al49 2.889750 1_555
Al32 Al52 2.889750 1_555
Al32 Mg34 2.932267 1_555
Al32 Mg33 2.932267 1_554
Al32 Mg0 2.932267 1_555
Al32 Mg14 2.932267 1_554
Al32 Al57 2.965368 1_554
Al32 Al51 3.012459 1_555
Al32 Al65 3.053829 1_554
Al33 Al64 2.883946 1_555
Al33 Al36 2.883946 1_555
Al33 Al48 2.883946 1_555
Al33 Al41 2.924521 1_555
Al33 Al65 2.924521 1_555
Al33 Mg21 2.980595 1_555
Al33 Mg12 2.980595 1_555
Al33 Mg3 2.980595 1_555
Al33 Mg22 2.980595 1_555
Al34 Al63 2.883946 1_555
Al34 Al58 2.883946 1_555
Al34 Al36 2.883946 1_555
Al34 Al55 2.924521 1_555
Al34 Al40 2.924521 1_555
Al34 Mg37 2.980595 1_555
Al34 Mg16 2.980595 1_555
Al34 Mg26 2.980595 1_555
Al34 Mg7 2.980595 1_555
Al35 Al9 2.889750 1_555
Al35 Al44 2.943747 1_545
Al35 Mg10 2.970042 1_555
Al35 Mg27 2.983852 1_555
Al35 Mg38 2.993041 1_545
Al35 Mg35 2.993041 1_555
Al35 Mg20 3.018070 1_555
Al35 Mg28 3.018070 1_545
Al35 Al43 3.058534 1_555
Al36 Al64 2.883946 1_555
Al36 Al58 2.883946 1_555
Al36 Al55 2.924521 1_555
Al36 Al65 2.924521 1_555
Al36 Mg14 2.980595 1_555
Al36 Mg21 2.980595 1_555
Al36 Mg5 2.980595 1_555
Al36 Mg26 2.980595 1_555
Al36 Al54 3.080462 1_555
Al37 Al53 2.889750 1_555
Al37 Al7 2.889750 1_555
Al37 Mg11 2.932267 1_555
Al37 Mg21 2.932267 1_554
Al37 Mg29 2.932267 1_555
Al37 Mg12 2.932267 1_554
Al37 Al51 3.012459 1_555
Al37 Al65 3.053829 1_554
Al38 Al66 2.889750 1_555
Al38 Al62 2.943747 1_555
Al38 Al54 2.943747 1_455
Al38 Mg30 2.970042 1_556
Al38 Mg15 2.983852 1_556
Al38 Mg26 2.993041 1_455
Al38 Mg19 2.993041 1_555
Al38 Mg13 3.018070 1_555
Al38 Mg18 3.018070 1_455
Al38 Al61 3.058534 1_456
Al39 Al66 2.889750 1_555
Al39 Al62 2.943747 1_555
Al39 Al54 2.943747 1_455
Al39 Mg4 2.970042 1_556
Al39 Al47 2.977348 1_555
Al39 Mg15 2.983852 1_556
Al39 Mg5 2.993041 1_455
Al39 Mg2 2.993041 1_555
Al39 Mg31 3.018070 1_555
Al39 Mg40 3.018070 1_455
Al39 Al50 3.058534 1_456
Al40 Mg16 2.880793 1_555
Al40 Mg7 2.880793 1_555
Al40 Mg35 2.880793 1_555
Al40 Mg25 2.880793 1_555
Al40 Al58 2.924521 1_555
Al40 Al9 3.053829 1_555
Al40 Al6 3.053829 1_555
Al41 Mg38 2.880793 1_555
Al41 Mg1 2.880793 1_555
Al41 Mg3 2.880793 1_555
Al41 Mg22 2.880793 1_555
Al41 Al64 2.924521 1_555
Al41 Al48 2.924521 1_555
Al41 Al9 3.053829 1_565
Al41 Al6 3.053829 1_565
Al42 Al5 2.943747 1_565
Al42 Al47 2.943747 1_655
Al42 Al8 2.965368 1_655
Al42 Mg27 2.978725 1_665
Al42 Mg1 2.983967 1_555
Al42 Mg5 2.983967 1_555
Al42 Mg9 2.983967 1_555
Al42 Mg22 2.983967 1_555
Al42 Al64 3.080462 1_555
Al43 Al60 2.889750 1_555
Al43 Mg10 2.970042 1_555
Al43 Al45 2.977348 1_555
Al43 Mg27 2.983852 1_555
Al43 Mg6 2.993041 1_555
Al43 Mg37 2.993041 1_455
Al43 Mg20 3.018070 1_555
Al43 Mg8 3.018070 1_455
Al44 Al47 2.943747 1_555
Al44 Al8 2.965368 1_555
Al44 Al9 2.965368 1_565
Al44 Mg27 2.978725 1_565
Al44 Mg17 2.983967 1_555
Al44 Mg2 2.983967 1_555
Al44 Mg3 2.983967 1_555
Al44 Mg38 2.983967 1_555
Al44 Al48 3.080462 1_555
Al45 Al56 2.889750 1_555
Al45 Mg30 2.970042 1_555
Al45 Mg15 2.983852 1_555
Al45 Mg37 2.993041 1_455
Al45 Mg6 2.993041 1_555
Al45 Mg20 3.018070 1_555
Al45 Mg8 3.018070 1_455
Al45 Al61 3.058534 1_455
Al46 Al56 2.889750 1_555
Al46 Mg4 2.970042 1_555
Al46 Mg15 2.983852 1_555
Al46 Mg17 2.993041 1_555
Al46 Mg9 2.993041 1_455
Al46 Mg28 3.018070 1_555
Al46 Mg23 3.018070 1_455
Al46 Al50 3.058534 1_455
Al47 Al8 2.889750 1_555
Al47 Mg39 2.970042 1_565
Al47 Mg27 2.983852 1_565
Al47 Mg5 2.993041 1_455
Al47 Mg2 2.993041 1_555
Al47 Mg31 3.018070 1_555
Al47 Mg40 3.018070 1_455
Al47 Al5 3.058534 1_465
Al48 Al59 2.883946 1_555
Al48 Mg2 2.980595 1_555
Al48 Mg38 2.980595 1_555
Al48 Mg3 2.980595 1_555
Al48 Mg17 2.980595 1_555
Al49 Al57 2.943747 1_554
Al49 Mg32 2.970042 1_555
Al49 Al61 2.977348 1_555
Al49 Mg36 2.983852 1_555
Al49 Mg0 2.993041 1_555
Al49 Mg14 2.993041 1_554
Al49 Mg8 3.018070 1_555
Al49 Mg18 3.018070 1_554
Al50 Al54 2.943747 1_554
Al50 Mg4 2.970042 1_655
Al50 Al53 2.977348 1_555
Al50 Mg15 2.983852 1_655
Al50 Mg21 2.993041 1_554
Al50 Mg11 2.993041 1_555
Al50 Mg23 3.018070 1_555
Al50 Mg40 3.018070 1_554
Al51 Mg34 2.932267 1_555
Al51 Mg33 2.932267 1_554
Al51 Mg29 2.932267 1_555
Al51 Mg12 2.932267 1_554
Al51 Al62 2.965368 1_554
Al51 Al65 3.053829 1_554
Al52 Al57 2.943747 1_554
Al52 Mg24 2.970042 1_555
Al52 Mg36 2.983852 1_555
Al52 Mg33 2.993041 1_554
Al52 Mg34 2.993041 1_555
Al52 Mg20 3.018070 1_555
Al52 Mg13 3.018070 1_554
Al53 Mg32 2.970042 1_565
Al53 Mg36 2.983852 1_565
Al53 Mg21 2.993041 1_554
Al53 Mg11 2.993041 1_555
Al53 Mg23 3.018070 1_555
Al53 Mg40 3.018070 1_554
Al54 Al61 2.943747 1_556
Al54 Al66 2.965368 1_655
Al54 Mg15 2.978725 1_656
Al54 Mg14 2.983967 1_555
Al54 Mg5 2.983967 1_555
Al54 Mg21 2.983967 1_555
Al54 Mg26 2.983967 1_555
Al55 Mg26 2.880793 1_555
Al55 Mg37 2.880793 1_555
Al55 Mg5 2.880793 1_555
Al55 Mg9 2.880793 1_555
Al55 Al63 2.924521 1_555
Al55 Al64 2.924521 1_555
Al55 Al56 3.053829 1_655
Al55 Al66 3.053829 1_655
Al55 Al60 3.053829 1_655
Al55 Al8 3.053829 1_655
Al56 Mg9 2.932267 1_455
Al56 Mg6 2.932267 1_555
Al56 Mg17 2.932267 1_555
Al56 Mg37 2.932267 1_455
Al56 Al8 3.012459 1_555
Al56 Al60 3.012459 1_555
Al57 Mg36 2.978725 1_556
Al57 Mg16 2.983967 1_555
Al57 Mg25 2.983967 1_555
Al57 Mg33 2.983967 1_555
Al57 Mg14 2.983967 1_555
Al57 Al58 3.080462 1_555
Al58 Al65 2.924521 1_555
Al58 Mg14 2.980595 1_555
Al58 Mg16 2.980595 1_555
Al58 Mg25 2.980595 1_555
Al58 Mg33 2.980595 1_555
Al59 Mg34 2.980595 1_555
Al59 Mg6 2.980595 1_555
Al59 Mg29 2.980595 1_555
Al59 Mg17 2.980595 1_555
Al60 Mg6 2.932267 1_555
Al60 Mg19 2.932267 1_555
Al60 Mg26 2.932267 1_455
Al60 Mg37 2.932267 1_455
Al60 Al66 3.012459 1_555
Al61 Mg30 2.970042 1_655
Al61 Mg15 2.983852 1_655
Al61 Mg0 2.993041 1_555
Al61 Mg14 2.993041 1_554
Al61 Mg8 3.018070 1_555
Al61 Mg18 3.018070 1_554
Al62 Al66 2.965368 1_555
Al62 Mg15 2.978725 1_556
Al62 Mg2 2.983967 1_555
Al62 Mg19 2.983967 1_555
Al62 Mg33 2.983967 1_555
Al62 Mg12 2.983967 1_555
Al63 Al64 2.883946 1_555
Al63 Mg37 2.980595 1_555
Al63 Mg0 2.980595 1_555
Al63 Mg9 2.980595 1_555
Al63 Mg11 2.980595 1_555
Al64 Mg1 2.980595 1_555
Al64 Mg5 2.980595 1_555
Al64 Mg9 2.980595 1_555
Al64 Mg22 2.980595 1_555
Al65 Mg33 2.880793 1_555
Al65 Mg14 2.880793 1_555
Al65 Mg12 2.880793 1_555
Al65 Mg21 2.880793 1_555
Al66 Mg2 2.932267 1_555
Al66 Mg19 2.932267 1_555
Al66 Mg26 2.932267 1_455
Al66 Mg5 2.932267 1_455
Al66 Al8 3.012459 1_555
