# generated using pymatgen
data_Na4UC3O11
_symmetry_space_group_name_H-M   'P 1'
_cell_length_a   9.42685200
_cell_length_b   9.43660820
_cell_length_c   13.21495495
_cell_angle_alpha   90.22810492
_cell_angle_beta   90.42495229
_cell_angle_gamma   119.94250523
_symmetry_Int_Tables_number   1
_chemical_formula_structural   Na4UC3O11
_chemical_formula_sum   'Na16 U4 C12 O44'
_cell_volume   1018.59427878
_cell_formula_units_Z   4
loop_
 _symmetry_equiv_pos_site_id
 _symmetry_equiv_pos_as_xyz
  1  'x, y, z'
loop_
 _atom_site_type_symbol
 _atom_site_label
 _atom_site_symmetry_multiplicity
 _atom_site_fract_x
 _atom_site_fract_y
 _atom_site_fract_z
 _atom_site_occupancy
  Na  Na0  1  0.87028000  0.56225000  0.13308300  1
  Na  Na1  1  0.56528900  0.87048800  0.38045700  1
  Na  Na2  1  0.99774500  0.00046900  0.74990100  1
  Na  Na3  1  0.43588700  0.30691400  0.11996700  1
  Na  Na4  1  0.30918200  0.87309300  0.87789900  1
  Na  Na5  1  0.69133400  0.56366400  0.62506300  1
  Na  Na6  1  0.00000000  0.00000000  0.00000000  1
  Na  Na7  1  0.12972000  0.43775000  0.86691700  1
  Na  Na8  1  0.30866600  0.43633600  0.37493700  1
  Na  Na9  1  0.00225500  0.99953100  0.25009900  1
  Na  Na10  1  0.56411300  0.69308600  0.88003300  1
  Na  Na11  1  0.69081800  0.12690700  0.12210100  1
  Na  Na12  1  0.87112900  0.30778000  0.63144400  1
  Na  Na13  1  0.43471100  0.12951200  0.61954300  1
  Na  Na14  1  0.00000000  0.00000000  0.50000000  1
  Na  Na15  1  0.12887100  0.69222000  0.36855600  1
  U  U0  1  0.33276800  0.66809000  0.63007100  1
  U  U1  1  0.33404400  0.66569400  0.13100100  1
  U  U2  1  0.66595600  0.33430600  0.86899900  1
  U  U3  1  0.66723200  0.33191000  0.36992900  1
  C  C0  1  0.66911700  0.92453700  0.61841200  1
  C  C1  1  0.07557200  0.74730200  0.62961500  1
  C  C2  1  0.25289600  0.92221800  0.13164000  1
  C  C3  1  0.32904000  0.25404800  0.87623700  1
  C  C4  1  0.33088300  0.07546300  0.38158800  1
  C  C5  1  0.07725200  0.32957800  0.13218400  1
  C  C6  1  0.92442800  0.25269800  0.37038500  1
  C  C7  1  0.74785100  0.66908900  0.36330900  1
  C  C8  1  0.92274800  0.67042200  0.86781600  1
  C  C9  1  0.25214900  0.33091100  0.63669100  1
  C  C10  1  0.74710400  0.07778200  0.86836000  1
  C  C11  1  0.67096000  0.74595200  0.12376300  1
  O  O0  1  0.45100300  0.40540700  0.88090400  1
  O  O1  1  0.03561900  0.21521000  0.37823700  1
  O  O2  1  0.32689200  0.66032400  0.99007700  1
  O  O3  1  0.85376100  0.23174500  0.84941800  1
  O  O4  1  0.34307300  0.67231700  0.27205000  1
  O  O5  1  0.31835700  0.65549000  0.48946300  1
  O  O6  1  0.18045700  0.21630800  0.88375800  1
  O  O7  1  0.54899700  0.59459300  0.11909600  1
  O  O8  1  0.68164300  0.34451000  0.51053700  1
  O  O9  1  0.34797100  0.68090000  0.77105300  1
  O  O10  1  0.54675300  0.95343400  0.61340300  1
  O  O11  1  0.78523300  0.96681600  0.87291000  1
  O  O12  1  0.76726000  0.62360700  0.85198900  1
  O  O13  1  0.59875000  0.54862400  0.37876700  1
  O  O14  1  0.18210500  0.96413100  0.38536900  1
  O  O15  1  0.40125000  0.45137600  0.62123300  1
  O  O16  1  0.76805700  0.14320400  0.36090000  1
  O  O17  1  0.37749500  0.23148800  0.37302800  1
  O  O18  1  0.04849000  0.45142300  0.12326000  1
  O  O19  1  0.14625800  0.37952600  0.65688100  1
  O  O20  1  0.96438100  0.78479000  0.62176300  1
  O  O21  1  0.62394700  0.85477300  0.13568300  1
  O  O22  1  0.40203000  0.94983800  0.11678600  1
  O  O23  1  0.21297700  0.18173900  0.63154900  1
  O  O24  1  0.96624100  0.18088000  0.12531400  1
  O  O25  1  0.67310800  0.33967600  0.00992300  1
  O  O26  1  0.65202900  0.31910000  0.22894700  1
  O  O27  1  0.81954300  0.78369200  0.11624200  1
  O  O28  1  0.23194300  0.85679600  0.63910000  1
  O  O29  1  0.59797000  0.05016200  0.88321400  1
  O  O30  1  0.14623900  0.76825500  0.15058200  1
  O  O31  1  0.62250500  0.76851200  0.62697200  1
  O  O32  1  0.03375900  0.81912000  0.87468600  1
  O  O33  1  0.78702300  0.81826100  0.36845100  1
  O  O34  1  0.95374900  0.40403900  0.37186200  1
  O  O35  1  0.85374200  0.62047400  0.34311900  1
  O  O36  1  0.65692700  0.32768300  0.72795000  1
  O  O37  1  0.04625100  0.59596100  0.62813800  1
  O  O38  1  0.37605300  0.14522700  0.86431700  1
  O  O39  1  0.95151000  0.54857700  0.87674000  1
  O  O40  1  0.23274000  0.37639300  0.14801100  1
  O  O41  1  0.81789500  0.03586900  0.61463100  1
  O  O42  1  0.45324700  0.04656600  0.38659700  1
  O  O43  1  0.21476700  0.03318400  0.12709000  1
loop_
_geom_bond_atom_site_label_1
_geom_bond_atom_site_label_2
_geom_bond_distance
_geom_bond_site_symmetry_2
Na0 O30 2.353535 1_655
Na0 O27 2.375884 1_555
Na0 O18 2.385148 1_655
Na0 O26 2.540055 1_555
Na0 O25 2.558504 1_555
Na0 O35 2.847809 1_555
Na1 O16 2.333551 1_565
Na1 O42 2.373838 1_565
Na1 O33 2.381157 1_555
Na1 O4 2.441556 1_555
Na1 O5 2.639772 1_555
Na2 O23 2.468322 1_655
Na2 O11 2.484735 1_545
Na2 O32 2.521371 1_645
Na2 O20 2.536595 1_545
Na2 O6 2.582301 1_655
Na2 O41 2.589727 1_555
Na3 O40 2.344478 1_555
Na3 O7 2.370144 1_555
Na3 O43 2.378242 1_555
Na3 O26 2.441336 1_555
Na3 O25 2.563750 1_555
Na4 O38 2.326727 1_565
Na4 O29 2.379802 1_565
Na4 O32 2.383372 1_555
Na4 O9 2.462919 1_555
Na4 O2 2.571273 1_555
Na5 O31 2.326010 1_555
Na5 O20 2.371106 1_555
Na5 O15 2.389189 1_555
Na5 O36 2.494469 1_555
Na5 O8 2.521951 1_555
Na6 O6 2.453062 1_554
Na6 O27 2.453062 1_445
Na6 O24 2.506937 1_455
Na6 O32 2.506937 1_544
Na6 O43 2.515978 1_555
Na6 O11 2.515978 1_444
Na7 O3 2.353535 1_455
Na7 O6 2.375884 1_555
Na7 O39 2.385148 1_455
Na7 O9 2.540055 1_555
Na7 O2 2.558504 1_555
Na7 O19 2.847809 1_555
Na8 O17 2.326010 1_555
Na8 O1 2.371106 1_555
Na8 O13 2.389189 1_555
Na8 O4 2.494469 1_555
Na8 O5 2.521951 1_555
Na9 O33 2.468322 1_455
Na9 O43 2.484735 1_565
Na9 O24 2.521371 1_465
Na9 O1 2.536595 1_565
Na9 O27 2.582301 1_455
Na9 O14 2.589727 1_555
Na10 O12 2.344478 1_555
Na10 O0 2.370144 1_555
Na10 O11 2.378242 1_555
Na10 O9 2.441336 1_555
Na10 O2 2.563750 1_555
Na11 O21 2.326727 1_545
Na11 O22 2.379802 1_545
Na11 O24 2.383372 1_555
Na11 O26 2.462919 1_555
Na11 O25 2.571273 1_555
Na12 O19 2.351697 1_655
Na12 O41 2.365063 1_555
Na12 O37 2.375509 1_655
Na12 O36 2.480721 1_555
Na12 O8 2.538479 1_555
Na12 O3 2.957226 1_555
Na13 O28 2.333551 1_545
Na13 O10 2.373838 1_545
Na13 O23 2.381157 1_555
Na13 O36 2.441556 1_555
Na13 O8 2.639772 1_555
Na14 O41 2.443531 1_455
Na14 O14 2.443531 1_545
Na14 O20 2.485879 1_445
Na14 O1 2.485879 1_555
Na14 O23 2.545868 1_555
Na14 O33 2.545868 1_445
Na15 O35 2.351697 1_455
Na15 O14 2.365063 1_555
Na15 O34 2.375509 1_455
Na15 O4 2.480721 1_555
Na15 O5 2.538479 1_555
Na15 O30 2.957226 1_555
C0 O41 1.266423 1_565
C0 O10 1.312377 1_555
C0 O31 1.315260 1_555
C1 O20 1.266268 1_455
C1 O37 1.312257 1_555
C1 O28 1.316064 1_555
C2 O43 1.266975 1_565
C2 O22 1.312110 1_555
C2 O30 1.316370 1_555
C3 O6 1.266085 1_555
C3 O0 1.313275 1_555
C3 O38 1.315224 1_555
C4 O14 1.266423 1_545
C4 O42 1.312377 1_555
C4 O17 1.315260 1_555
C5 O24 1.266512 1_455
C5 O18 1.311978 1_555
C5 O40 1.317450 1_555
C6 O1 1.266268 1_655
C6 O34 1.312257 1_555
C6 O16 1.316064 1_555
C7 O33 1.265896 1_555
C7 O13 1.311739 1_555
C7 O35 1.318413 1_555
C8 O32 1.266512 1_655
C8 O39 1.311978 1_555
C8 O12 1.317450 1_555
C9 O23 1.265896 1_555
C9 O15 1.311739 1_555
C9 O19 1.318413 1_555
C10 O11 1.266975 1_545
C10 O29 1.312110 1_555
C10 O3 1.316370 1_555
C11 O27 1.266085 1_555
C11 O7 1.313275 1_555
C11 O21 1.315224 1_555
O0 U2 2.437629 1_555
O2 U1 1.862597 1_556
O3 U2 2.419354 1_555
O4 U1 1.864643 1_555
O5 U0 1.861076 1_555
O7 U1 2.437629 1_555
O8 U3 1.861076 1_555
O9 U0 1.866316 1_555
O10 U0 2.440743 1_555
O12 U2 2.412678 1_555
O13 U3 2.435108 1_555
O15 U0 2.435108 1_555
O16 U3 2.403798 1_555
O17 U3 2.403728 1_555
O18 U1 2.430204 1_555
O19 U0 2.422691 1_555
O21 U1 2.405191 1_555
O22 U1 2.434342 1_555
O25 U2 1.862597 1_554
O26 U3 1.866316 1_555
O28 U0 2.403798 1_555
O29 U2 2.434342 1_555
O30 U1 2.419354 1_555
O31 U0 2.403728 1_555
O34 U3 2.433662 1_555
O35 U3 2.422691 1_555
O36 U2 1.864643 1_555
O37 U0 2.433662 1_555
O38 U2 2.405191 1_555
O39 U2 2.430204 1_555
O40 U1 2.412678 1_555
O42 U3 2.440743 1_555
