# generated using pymatgen
data_LiHo3Ge2(O4F)2
_symmetry_space_group_name_H-M   'P 1'
_cell_length_a   9.22109990
_cell_length_b   9.22109990
_cell_length_c   11.68939787
_cell_angle_alpha   51.29963546
_cell_angle_beta   51.29963546
_cell_angle_gamma   32.17644558
_symmetry_Int_Tables_number   1
_chemical_formula_structural   LiHo3Ge2(O4F)2
_chemical_formula_sum   'Li2 Ho6 Ge4 O16 F4'
_cell_volume   401.89963406
_cell_formula_units_Z   2
loop_
 _symmetry_equiv_pos_site_id
 _symmetry_equiv_pos_as_xyz
  1  'x, y, z'
loop_
 _atom_site_type_symbol
 _atom_site_label
 _atom_site_symmetry_multiplicity
 _atom_site_fract_x
 _atom_site_fract_y
 _atom_site_fract_z
 _atom_site_occupancy
  Li  Li0  1  0.50000000  0.00000000  0.50000000  1
  Li  Li1  1  0.00000000  0.50000000  0.00000000  1
  Ho  Ho0  1  0.08365800  0.67197900  0.15116500  1
  Ho  Ho1  1  0.32802100  0.91634200  0.34883500  1
  Ho  Ho2  1  0.91634200  0.32802100  0.84883500  1
  Ho  Ho3  1  0.78975900  0.21024100  0.25000000  1
  Ho  Ho4  1  0.21024100  0.78975900  0.75000000  1
  Ho  Ho5  1  0.67197900  0.08365800  0.65116500  1
  Ge  Ge0  1  0.61959800  0.09117000  0.98942600  1
  Ge  Ge1  1  0.90883000  0.38040200  0.51057400  1
  Ge  Ge2  1  0.09117000  0.61959800  0.48942600  1
  Ge  Ge3  1  0.38040200  0.90883000  0.01057400  1
  O  O0  1  0.13171800  0.32382700  0.32920900  1
  O  O1  1  0.86828200  0.67617300  0.67079100  1
  O  O2  1  0.91379800  0.77599100  0.36596700  1
  O  O3  1  0.89309500  0.04165000  0.92839700  1
  O  O4  1  0.10690500  0.95835000  0.07160300  1
  O  O5  1  0.95835000  0.10690500  0.57160300  1
  O  O6  1  0.28920900  0.44753300  0.97607200  1
  O  O7  1  0.71079100  0.55246700  0.02392800  1
  O  O8  1  0.55246700  0.71079100  0.52392800  1
  O  O9  1  0.44753300  0.28920900  0.47607200  1
  O  O10  1  0.08620200  0.22400900  0.63403300  1
  O  O11  1  0.77599100  0.91379800  0.86596700  1
  O  O12  1  0.32382700  0.13171800  0.82920900  1
  O  O13  1  0.22400900  0.08620200  0.13403300  1
  O  O14  1  0.67617300  0.86828200  0.17079100  1
  O  O15  1  0.04165000  0.89309500  0.42839700  1
  F  F0  1  0.51742400  0.34018800  0.17116300  1
  F  F1  1  0.34018800  0.51742400  0.67116300  1
  F  F2  1  0.65981200  0.48257600  0.32883700  1
  F  F3  1  0.48257600  0.65981200  0.82883700  1
loop_
_geom_bond_atom_site_label_1
_geom_bond_atom_site_label_2
_geom_bond_distance
_geom_bond_site_symmetry_2
Li0 O9 2.115795 1_555
Li0 O8 2.115795 1_545
Li0 O10 2.123619 1_555
Li0 O2 2.123619 1_545
Li1 O7 2.115795 1_455
Li1 O6 2.115795 1_554
Li1 O11 2.123619 1_454
Li1 O13 2.123619 1_555
Ho0 O0 2.285617 1_555
Ho0 O2 2.286543 1_455
Ho0 O14 2.318474 1_455
Ho0 O4 2.349856 1_555
Ho0 O6 2.422890 1_554
Ho0 O3 2.443468 1_464
Ho1 O14 2.285617 1_555
Ho1 O13 2.286543 1_565
Ho1 O0 2.318474 1_565
Ho1 O15 2.349856 1_555
Ho1 O8 2.422890 1_555
Ho1 O5 2.443468 1_465
Ho2 O1 2.285617 1_555
Ho2 O10 2.286543 1_655
Ho2 O12 2.318474 1_655
Ho2 O3 2.349856 1_555
Ho2 O7 2.422890 1_556
Ho2 O4 2.443468 1_646
Ho3 O4 2.286519 1_645
Ho3 O15 2.286519 1_645
Ho3 O7 2.358024 1_555
Ho3 O9 2.358024 1_555
Ho3 O2 2.564740 1_545
Ho3 O13 2.564740 1_655
Ho4 O3 2.286519 1_465
Ho4 O5 2.286519 1_465
Ho4 O6 2.358024 1_555
Ho4 O8 2.358024 1_555
Ho4 O11 2.564740 1_455
Ho4 O10 2.564740 1_565
Ho5 O12 2.285617 1_555
Ho5 O11 2.286543 1_545
Ho5 O1 2.318474 1_545
Ho5 O5 2.349856 1_555
Ho5 O9 2.422890 1_555
Ho5 O15 2.443468 1_645
Ge0 O14 1.763559 1_546
Ge0 O6 1.763564 1_555
Ge0 O11 1.787114 1_545
Ge0 O3 1.812661 1_555
Ge1 O0 1.763559 1_655
Ge1 O8 1.763564 1_555
Ge1 O10 1.787114 1_655
Ge1 O5 1.812661 1_555
Ge2 O1 1.763559 1_455
Ge2 O9 1.763564 1_555
Ge2 O2 1.787114 1_455
Ge2 O15 1.812661 1_555
Ge3 O12 1.763559 1_564
Ge3 O7 1.763564 1_555
Ge3 O13 1.787114 1_565
Ge3 O4 1.812661 1_555
F0 Ho0 2.229961 1_555
F0 Ho3 2.238428 1_555
F1 Ho5 2.229961 1_555
F1 Ho4 2.238428 1_555
F2 Ho1 2.229961 1_555
F2 Ho3 2.238428 1_555
F3 Ho2 2.229961 1_555
F3 Ho4 2.238428 1_555
