# generated using pymatgen
data_WO3
_symmetry_space_group_name_H-M   'P 1'
_cell_length_a   3.88495200
_cell_length_b   7.68868600
_cell_length_c   7.74975500
_cell_angle_alpha   90.00000000
_cell_angle_beta   90.00000000
_cell_angle_gamma   90.00000000
_symmetry_Int_Tables_number   1
_chemical_formula_structural   WO3
_chemical_formula_sum   'W4 O12'
_cell_volume   231.48654622
_cell_formula_units_Z   4
loop_
 _symmetry_equiv_pos_site_id
 _symmetry_equiv_pos_as_xyz
  1  'x, y, z'
loop_
 _atom_site_type_symbol
 _atom_site_label
 _atom_site_symmetry_multiplicity
 _atom_site_fract_x
 _atom_site_fract_y
 _atom_site_fract_z
 _atom_site_occupancy
  W  W0  1  0.97036100  0.75000000  0.01630800  1
  W  W1  1  0.02963900  0.75000000  0.51630800  1
  W  W2  1  0.97036100  0.25000000  0.48369200  1
  W  W3  1  0.02963900  0.25000000  0.98369200  1
  O  O0  1  0.99839400  0.25000000  0.24404400  1
  O  O1  1  0.50648800  0.25000000  0.99345300  1
  O  O2  1  0.00000000  0.50000000  0.00000000  1
  O  O3  1  0.00160600  0.25000000  0.74404400  1
  O  O4  1  0.50648800  0.75000000  0.50654700  1
  O  O5  1  0.00000000  0.00000000  0.00000000  1
  O  O6  1  0.00160600  0.75000000  0.75595600  1
  O  O7  1  0.49351200  0.75000000  0.00654700  1
  O  O8  1  0.99839400  0.75000000  0.25595600  1
  O  O9  1  0.00000000  0.50000000  0.50000000  1
  O  O10  1  0.49351200  0.25000000  0.49345300  1
  O  O11  1  0.00000000  0.00000000  0.50000000  1
loop_
_geom_bond_atom_site_label_1
_geom_bond_atom_site_label_2
_geom_bond_distance
_geom_bond_site_symmetry_2
O0 W2 1.860404 1_555
O0 W3 2.021312 1_654
O1 W3 1.854079 1_555
O1 W3 2.033824 1_655
O2 W0 1.929760 1_455
O2 W3 1.929760 1_554
O3 W3 1.860404 1_555
O3 W2 2.021312 1_455
O4 W1 1.854079 1_555
O4 W1 2.033824 1_655
O5 W0 1.929760 1_445
O5 W3 1.929760 1_554
O6 W1 1.860404 1_555
O6 W0 2.021312 1_456
O7 W0 1.854079 1_555
O7 W0 2.033824 1_455
O8 W0 1.860404 1_555
O8 W1 2.021312 1_655
O9 W1 1.929760 1_555
O9 W2 1.929760 1_455
O10 W2 1.854079 1_555
O10 W2 2.033824 1_455
O11 W1 1.929760 1_545
O11 W2 1.929760 1_455
