# generated using pymatgen
data_La4Ti5(Si2O11)2
_symmetry_space_group_name_H-M   'P 1'
_cell_length_a   7.44965827
_cell_length_b   7.44965827
_cell_length_c   11.21155477
_cell_angle_alpha   80.21317051
_cell_angle_beta   80.21317051
_cell_angle_gamma   45.05302042
_symmetry_Int_Tables_number   1
_chemical_formula_structural   La4Ti5(Si2O11)2
_chemical_formula_sum   'La4 Ti5 Si4 O22'
_cell_volume   432.85660355
_cell_formula_units_Z   1
loop_
 _symmetry_equiv_pos_site_id
 _symmetry_equiv_pos_as_xyz
  1  'x, y, z'
loop_
 _atom_site_type_symbol
 _atom_site_label
 _atom_site_symmetry_multiplicity
 _atom_site_fract_x
 _atom_site_fract_y
 _atom_site_fract_z
 _atom_site_occupancy
  La  La0  1  0.56915500  0.56915500  0.25220600  1
  La  La1  1  0.85809500  0.85809500  0.25778700  1
  La  La2  1  0.14190500  0.14190500  0.74221300  1
  La  La3  1  0.43084500  0.43084500  0.74779400  1
  Ti  Ti0  1  0.00000000  0.00000000  0.50000000  1
  Ti  Ti1  1  0.50000000  0.50000000  0.00000000  1
  Ti  Ti2  1  0.00000000  0.00000000  0.00000000  1
  Ti  Ti3  1  0.50000000  0.00000000  0.00000000  1
  Ti  Ti4  1  0.00000000  0.50000000  0.00000000  1
  Si  Si0  1  0.36142300  0.36142300  0.45647000  1
  Si  Si1  1  0.79573000  0.79573000  0.72952500  1
  Si  Si2  1  0.63857700  0.63857700  0.54353000  1
  Si  Si3  1  0.20427000  0.20427000  0.27047500  1
  O  O0  1  0.68875200  0.68875200  0.40257500  1
  O  O1  1  0.90834000  0.90834000  0.65654400  1
  O  O2  1  0.01197200  0.53963200  0.81385000  1
  O  O3  1  0.71621700  0.71621700  0.63912800  1
  O  O4  1  0.22953900  0.72831400  0.13255700  1
  O  O5  1  0.28378300  0.28378300  0.36087200  1
  O  O6  1  0.19554800  0.66412600  0.41305600  1
  O  O7  1  0.85021500  0.85021500  0.01755600  1
  O  O8  1  0.77046100  0.27168600  0.86744300  1
  O  O9  1  0.14978500  0.14978500  0.98244400  1
  O  O10  1  0.46036800  0.98802800  0.18615000  1
  O  O11  1  0.53963200  0.01197200  0.81385000  1
  O  O12  1  0.64372300  0.64372300  0.02195900  1
  O  O13  1  0.27168600  0.77046100  0.86744300  1
  O  O14  1  0.72831400  0.22953900  0.13255700  1
  O  O15  1  0.66412600  0.19554800  0.41305600  1
  O  O16  1  0.09166000  0.09166000  0.34345600  1
  O  O17  1  0.35627700  0.35627700  0.97804100  1
  O  O18  1  0.31124800  0.31124800  0.59742500  1
  O  O19  1  0.33587400  0.80445200  0.58694400  1
  O  O20  1  0.98802800  0.46036800  0.18615000  1
  O  O21  1  0.80445200  0.33587400  0.58694400  1
loop_
_geom_bond_atom_site_label_1
_geom_bond_atom_site_label_2
_geom_bond_distance
_geom_bond_site_symmetry_2
La0 O14 2.445609 1_555
La0 O4 2.445609 1_555
La0 O0 2.563712 1_555
La0 O12 2.596521 1_555
La0 O10 2.605347 1_555
La0 O20 2.605347 1_555
La0 O15 2.728434 1_555
La0 O6 2.728434 1_555
La0 O16 3.066719 1_655
La0 O16 3.066719 1_565
La1 O4 2.433873 1_655
La1 O14 2.433873 1_565
La1 O0 2.583473 1_555
La1 O20 2.617918 1_555
La1 O10 2.617918 1_555
La1 O15 2.634056 1_565
La1 O6 2.634056 1_655
La1 O7 2.715413 1_555
La2 O13 2.433873 1_545
La2 O8 2.433873 1_455
La2 O18 2.583473 1_555
La2 O2 2.617918 1_555
La2 O11 2.617918 1_555
La2 O21 2.634056 1_455
La2 O19 2.634056 1_545
La2 O9 2.715413 1_555
La3 O8 2.445609 1_555
La3 O13 2.445609 1_555
La3 O18 2.563712 1_555
La3 O17 2.596521 1_555
La3 O11 2.605347 1_555
La3 O2 2.605347 1_555
La3 O19 2.728434 1_555
La3 O21 2.728434 1_555
La3 O1 3.066719 1_545
La3 O1 3.066719 1_455
O0 Si2 1.603941 1_555
O1 Si1 1.613896 1_555
O1 Ti0 1.963883 1_665
O2 Si1 1.640401 1_455
O2 Ti4 2.053111 1_556
O3 Si1 1.622604 1_555
O3 Si2 1.646817 1_555
O4 Ti1 2.039756 1_555
O4 Ti2 2.044642 1_565
O5 Si3 1.622604 1_555
O5 Si0 1.646817 1_555
O6 Si0 1.656274 1_555
O6 Ti0 2.128246 1_565
O7 Ti3 2.019227 1_565
O7 Ti4 2.019227 1_655
O7 Ti2 2.034420 1_665
O8 Ti1 2.039756 1_556
O8 Ti2 2.044642 1_656
O9 Ti4 2.019227 1_556
O9 Ti3 2.019227 1_556
O9 Ti2 2.034420 1_556
O10 Si3 1.640401 1_565
O10 Ti3 2.053111 1_565
O11 Si1 1.640401 1_545
O11 Ti3 2.053111 1_556
O12 Ti4 2.025782 1_655
O12 Ti3 2.025782 1_565
O12 Ti1 2.037718 1_555
O13 Ti1 2.039756 1_556
O13 Ti2 2.044642 1_566
O14 Ti1 2.039756 1_555
O14 Ti2 2.044642 1_655
O15 Si0 1.656274 1_555
O15 Ti0 2.128246 1_655
O16 Si3 1.613896 1_555
O16 Ti0 1.963883 1_555
O17 Ti4 2.025782 1_556
O17 Ti3 2.025782 1_556
O17 Ti1 2.037718 1_556
O18 Si0 1.603941 1_555
O19 Si2 1.656274 1_555
O19 Ti0 2.128246 1_565
O20 Si3 1.640401 1_655
O20 Ti4 2.053111 1_655
O21 Si2 1.656274 1_555
O21 Ti0 2.128246 1_655
