# generated using pymatgen
data_CsPS3
_symmetry_space_group_name_H-M   'P 1'
_cell_length_a   7.24529251
_cell_length_b   7.53068020
_cell_length_c   7.53068007
_cell_angle_alpha   74.19901481
_cell_angle_beta   61.24588756
_cell_angle_gamma   61.24588460
_symmetry_Int_Tables_number   1
_chemical_formula_structural   CsPS3
_chemical_formula_sum   'Cs2 P2 S6'
_cell_volume   315.35757467
_cell_formula_units_Z   2
loop_
 _symmetry_equiv_pos_site_id
 _symmetry_equiv_pos_as_xyz
  1  'x, y, z'
loop_
 _atom_site_type_symbol
 _atom_site_label
 _atom_site_symmetry_multiplicity
 _atom_site_fract_x
 _atom_site_fract_y
 _atom_site_fract_z
 _atom_site_occupancy
  Cs  Cs0  1  0.00000000  0.73776552  0.26223448  1
  Cs  Cs1  1  -0.00000000  0.26223448  0.73776552  1
  P  P0  1  0.34481764  0.65518236  0.65518236  1
  P  P1  1  0.65518236  0.34481764  0.34481764  1
  S  S0  1  0.50000000  0.32908421  0.67091579  1
  S  S1  1  0.50000000  0.67091579  0.32908421  1
  S  S2  1  0.47267590  0.76050651  0.76050651  1
  S  S3  1  -0.00631008  0.23949349  0.23949349  1
  S  S4  1  0.52732410  0.23949349  0.23949349  1
  S  S5  1  0.00631008  0.76050651  0.76050651  1
loop_
_geom_bond_atom_site_label_1
_geom_bond_atom_site_label_2
_geom_bond_distance
_geom_bond_site_symmetry_2
Cs0 S1 3.673203 1_555
Cs0 S1 3.673203 1_455
Cs0 S4 3.714336 1_465
Cs0 S2 3.714337 1_554
Cs0 S5 3.714340 1_554
Cs0 S3 3.714340 1_565
Cs0 S5 3.825431 1_555
Cs0 S3 3.825431 1_555
Cs0 S4 3.825434 1_555
Cs0 S2 3.825434 1_455
Cs1 S0 3.673203 1_455
Cs1 S0 3.673203 1_555
Cs1 S2 3.714336 1_545
Cs1 S4 3.714337 1_456
Cs1 S3 3.714340 1_556
Cs1 S5 3.714340 1_545
Cs1 S3 3.825431 1_555
Cs1 S5 3.825431 1_555
Cs1 S2 3.825434 1_455
Cs1 S4 3.825434 1_555
P0 S2 1.967948 1_555
P0 S5 1.967954 1_555
P0 S0 2.149907 1_555
P0 S1 2.149907 1_555
P1 S4 1.967948 1_555
P1 S3 1.967954 1_655
P1 S1 2.149907 1_555
P1 S0 2.149907 1_555
