# generated using pymatgen
data_RbTiBr3
_symmetry_space_group_name_H-M   'P 1'
_cell_length_a   7.50289394
_cell_length_b   7.51667931
_cell_length_c   6.45790276
_cell_angle_alpha   89.80906724
_cell_angle_beta   90.01490505
_cell_angle_gamma   119.93394191
_symmetry_Int_Tables_number   1
_chemical_formula_structural   RbTiBr3
_chemical_formula_sum   'Rb2 Ti2 Br6'
_cell_volume   315.61866845
_cell_formula_units_Z   2
loop_
 _symmetry_equiv_pos_site_id
 _symmetry_equiv_pos_as_xyz
  1  'x, y, z'
loop_
 _atom_site_type_symbol
 _atom_site_label
 _atom_site_symmetry_multiplicity
 _atom_site_fract_x
 _atom_site_fract_y
 _atom_site_fract_z
 _atom_site_occupancy
  Rb  Rb0  1  0.66658916  0.33329929  0.25005908  1
  Rb  Rb1  1  0.33341055  0.66668884  0.74993357  1
  Ti  Ti0  1  0.00000681  0.00000410  0.00003448  1
  Ti  Ti1  1  -0.00000157  0.99999524  0.49996232  1
  Br  Br0  1  0.66998556  0.83665054  0.24653990  1
  Br  Br1  1  0.83398941  0.16390983  0.75316772  1
  Br  Br2  1  0.16606527  0.83610507  0.24685210  1
  Br  Br3  1  0.32992597  0.16334390  0.75344124  1
  Br  Br4  1  0.16554432  0.33091765  0.24813327  1
  Br  Br5  1  0.83448753  0.66908555  0.75187832  1
loop_
_geom_bond_atom_site_label_1
_geom_bond_atom_site_label_2
_geom_bond_distance
_geom_bond_site_symmetry_2
Br0 Ti0 2.669781 1_665
Br0 Ti1 2.700735 1_655
Br0 Rb0 3.746075 1_565
Br0 Rb0 3.770871 1_555
Br0 Rb1 3.885568 1_554
Br0 Rb1 3.915891 1_555
Br1 Ti0 2.669921 1_656
Br1 Ti1 2.699870 1_645
Br1 Rb1 3.750516 1_545
Br1 Rb1 3.767019 1_655
Br1 Rb0 3.888554 1_556
Br1 Rb0 3.914221 1_555
Br2 Ti0 2.669912 1_565
Br2 Ti1 2.699669 1_555
Br2 Rb0 3.750207 1_565
Br2 Rb0 3.767324 1_455
Br2 Rb1 3.888598 1_554
Br2 Rb1 3.913973 1_555
Br3 Ti0 2.669584 1_556
Br3 Ti1 2.700515 1_545
Br3 Rb1 3.746455 1_545
Br3 Rb1 3.770497 1_555
Br3 Rb0 3.885951 1_556
Br3 Rb0 3.916148 1_555
Br4 Ti0 2.690539 1_555
Br4 Ti1 2.695475 1_545
Br4 Rb0 3.750403 1_555
Br4 Rb0 3.752597 1_455
Br4 Rb1 3.883686 1_554
Br4 Rb1 3.916322 1_555
Br5 Ti0 2.690787 1_666
Br5 Ti1 2.695746 1_655
Br5 Rb1 3.750588 1_555
Br5 Rb1 3.752413 1_655
Br5 Rb0 3.883640 1_556
Br5 Rb0 3.916479 1_555
