# generated using pymatgen
data_As3Pb5ClO9
_symmetry_space_group_name_H-M   'P 1'
_cell_length_a   10.59666468
_cell_length_b   10.59666468
_cell_length_c   7.10499800
_cell_angle_alpha   90.00000000
_cell_angle_beta   90.00000000
_cell_angle_gamma   120.00000422
_symmetry_Int_Tables_number   1
_chemical_formula_structural   As3Pb5ClO9
_chemical_formula_sum   'As6 Pb10 Cl2 O18'
_cell_volume   690.92826019
_cell_formula_units_Z   2
loop_
 _symmetry_equiv_pos_site_id
 _symmetry_equiv_pos_as_xyz
  1  'x, y, z'
loop_
 _atom_site_type_symbol
 _atom_site_label
 _atom_site_symmetry_multiplicity
 _atom_site_fract_x
 _atom_site_fract_y
 _atom_site_fract_z
 _atom_site_occupancy
  As  As0  1  0.41468900  0.39967400  0.25000000  1
  As  As1  1  0.01501600  0.41468900  0.75000000  1
  As  As2  1  0.39967400  0.98498400  0.75000000  1
  As  As3  1  0.60032600  0.01501600  0.25000000  1
  As  As4  1  0.98498400  0.58531100  0.25000000  1
  As  As5  1  0.58531100  0.60032600  0.75000000  1
  Pb  Pb0  1  0.33333300  0.66666700  0.98839400  1
  Pb  Pb1  1  0.66666700  0.33333300  0.48839400  1
  Pb  Pb2  1  0.66666700  0.33333300  0.01160600  1
  Pb  Pb3  1  0.33333300  0.66666700  0.51160600  1
  Pb  Pb4  1  0.26768600  0.04226400  0.25000000  1
  Pb  Pb5  1  0.22542300  0.26768600  0.75000000  1
  Pb  Pb6  1  0.04226400  0.77457700  0.75000000  1
  Pb  Pb7  1  0.95773600  0.22542300  0.25000000  1
  Pb  Pb8  1  0.77457700  0.73231400  0.25000000  1
  Pb  Pb9  1  0.73231400  0.95773600  0.75000000  1
  Cl  Cl0  1  0.00000000  0.00000000  0.00000000  1
  Cl  Cl1  1  0.00000000  0.00000000  0.50000000  1
  O  O0  1  0.61259200  0.46327600  0.25000000  1
  O  O1  1  0.14931500  0.61259200  0.75000000  1
  O  O2  1  0.46327600  0.85068500  0.75000000  1
  O  O3  1  0.53672400  0.14931500  0.25000000  1
  O  O4  1  0.85068500  0.38740800  0.25000000  1
  O  O5  1  0.38740800  0.53672400  0.75000000  1
  O  O6  1  0.37035000  0.27605000  0.05789600  1
  O  O7  1  0.09430000  0.37035000  0.55789600  1
  O  O8  1  0.27605000  0.90570000  0.55789600  1
  O  O9  1  0.72395000  0.09430000  0.05789600  1
  O  O10  1  0.90570000  0.62965000  0.05789600  1
  O  O11  1  0.62965000  0.72395000  0.55789600  1
  O  O12  1  0.62965000  0.72395000  0.94210400  1
  O  O13  1  0.90570000  0.62965000  0.44210400  1
  O  O14  1  0.72395000  0.09430000  0.44210400  1
  O  O15  1  0.27605000  0.90570000  0.94210400  1
  O  O16  1  0.09430000  0.37035000  0.94210400  1
  O  O17  1  0.37035000  0.27605000  0.44210400  1
loop_
_geom_bond_atom_site_label_1
_geom_bond_atom_site_label_2
_geom_bond_distance
_geom_bond_site_symmetry_2
As0 O17 1.784463 1_555
As0 O6 1.784463 1_555
As0 O0 1.854379 1_555
As1 O16 1.784457 1_555
As1 O7 1.784457 1_555
As1 O1 1.854375 1_555
As2 O8 1.784462 1_555
As2 O15 1.784462 1_555
As2 O2 1.854359 1_555
As3 O9 1.784462 1_555
As3 O14 1.784462 1_555
As3 O3 1.854359 1_555
As4 O13 1.784457 1_555
As4 O10 1.784457 1_555
As4 O4 1.854375 1_555
As5 O12 1.784463 1_555
As5 O11 1.784463 1_555
As5 O5 1.854379 1_555
Cl0 Pb4 3.182991 1_555
Cl0 Pb9 3.182991 1_444
Cl0 Pb5 3.182995 1_554
Cl0 Pb8 3.182995 1_445
Cl0 Pb7 3.183000 1_455
Cl0 Pb6 3.183000 1_544
Cl1 Pb4 3.182991 1_555
Cl1 Pb9 3.182991 1_445
Cl1 Pb5 3.182995 1_555
Cl1 Pb8 3.182995 1_445
Cl1 Pb7 3.183000 1_455
Cl1 Pb6 3.183000 1_545
O0 Pb2 2.425348 1_555
O0 Pb1 2.425348 1_555
O0 Pb8 2.486052 1_555
O1 Pb0 2.425348 1_555
O1 Pb3 2.425348 1_555
O1 Pb6 2.486035 1_555
O2 Pb0 2.425348 1_555
O2 Pb3 2.425348 1_555
O2 Pb9 2.486055 1_555
O3 Pb2 2.425348 1_555
O3 Pb1 2.425348 1_555
O3 Pb4 2.486055 1_555
O4 Pb2 2.425348 1_555
O4 Pb1 2.425348 1_555
O4 Pb7 2.486035 1_555
O5 Pb0 2.425348 1_555
O5 Pb3 2.425348 1_555
O5 Pb5 2.486052 1_555
O6 Pb4 2.547280 1_555
O6 Pb5 2.648744 1_554
O7 Pb5 2.547288 1_555
O7 Pb7 2.648746 1_455
O8 Pb6 2.547281 1_555
O8 Pb4 2.648750 1_565
O9 Pb7 2.547281 1_555
O9 Pb9 2.648750 1_544
O10 Pb8 2.547288 1_555
O10 Pb6 2.648746 1_654
O11 Pb9 2.547280 1_555
O11 Pb8 2.648744 1_555
O12 Pb9 2.547280 1_555
O12 Pb8 2.648744 1_556
O13 Pb8 2.547288 1_555
O13 Pb6 2.648746 1_655
O14 Pb7 2.547281 1_555
O14 Pb9 2.648750 1_545
O15 Pb6 2.547281 1_555
O15 Pb4 2.648750 1_566
O16 Pb5 2.547288 1_555
O16 Pb7 2.648746 1_456
O17 Pb4 2.547280 1_555
O17 Pb5 2.648744 1_555
