# generated using pymatgen
data_BaZr(BO3)2
_symmetry_space_group_name_H-M   'P 1'
_cell_length_a   11.95031483
_cell_length_b   11.95031483
_cell_length_c   11.95031481
_cell_angle_alpha   25.24661982
_cell_angle_beta   25.24661982
_cell_angle_gamma   25.24662069
_symmetry_Int_Tables_number   1
_chemical_formula_structural   BaZr(BO3)2
_chemical_formula_sum   'Ba2 Zr2 B4 O12'
_cell_volume   273.21452339
_cell_formula_units_Z   2
loop_
 _symmetry_equiv_pos_site_id
 _symmetry_equiv_pos_as_xyz
  1  'x, y, z'
loop_
 _atom_site_type_symbol
 _atom_site_label
 _atom_site_symmetry_multiplicity
 _atom_site_fract_x
 _atom_site_fract_y
 _atom_site_fract_z
 _atom_site_occupancy
  Ba  Ba0  1  0.75000000  0.75000000  0.75000000  1
  Ba  Ba1  1  0.25000000  0.25000000  0.25000000  1
  Zr  Zr0  1  0.00000000  0.00000000  0.00000000  1
  Zr  Zr1  1  0.50000000  0.50000000  0.50000000  1
  B  B0  1  0.63111100  0.63111100  0.63111100  1
  B  B1  1  0.86888900  0.86888900  0.86888900  1
  B  B2  1  0.36888900  0.36888900  0.36888900  1
  B  B3  1  0.13111100  0.13111100  0.13111100  1
  O  O0  1  0.33672400  0.83207400  0.22192400  1
  O  O1  1  0.33207400  0.83672400  0.72192400  1
  O  O2  1  0.16327600  0.27807600  0.66792600  1
  O  O3  1  0.72192400  0.33207400  0.83672400  1
  O  O4  1  0.66327600  0.16792600  0.77807600  1
  O  O5  1  0.27807600  0.66792600  0.16327600  1
  O  O6  1  0.66792600  0.16327600  0.27807600  1
  O  O7  1  0.83207400  0.22192400  0.33672400  1
  O  O8  1  0.16792600  0.77807600  0.66327600  1
  O  O9  1  0.77807600  0.66327600  0.16792600  1
  O  O10  1  0.22192400  0.33672400  0.83207400  1
  O  O11  1  0.83672400  0.72192400  0.33207400  1
loop_
_geom_bond_atom_site_label_1
_geom_bond_atom_site_label_2
_geom_bond_distance
_geom_bond_site_symmetry_2
Ba0 O7 2.831555 1_565
Ba0 O5 2.831555 1_556
Ba0 O6 2.831555 1_565
Ba0 O0 2.831555 1_556
Ba0 O2 2.831555 1_655
Ba0 O10 2.831555 1_655
Ba1 O3 2.831555 1_554
Ba1 O8 2.831555 1_545
Ba1 O4 2.831555 1_554
Ba1 O1 2.831555 1_545
Ba1 O11 2.831555 1_455
Ba1 O9 2.831555 1_455
B0 O11 1.381998 1_555
B0 O3 1.381998 1_555
B0 O1 1.381998 1_555
B1 O9 1.381998 1_556
B1 O8 1.381998 1_655
B1 O4 1.381998 1_565
B2 O2 1.381998 1_555
B2 O5 1.381998 1_555
B2 O6 1.381998 1_555
B3 O10 1.381998 1_554
B3 O7 1.381998 1_455
B3 O0 1.381998 1_545
O0 Zr1 2.113109 1_555
O1 Zr0 2.113109 1_566
O2 Zr0 2.113109 1_556
O3 Zr0 2.113109 1_656
O4 Zr1 2.113109 1_555
O5 Zr0 2.113109 1_565
O6 Zr0 2.113109 1_655
O7 Zr1 2.113109 1_555
O8 Zr1 2.113109 1_555
O9 Zr1 2.113109 1_555
O10 Zr1 2.113109 1_555
O11 Zr0 2.113109 1_665
