# generated using pymatgen
data_NbTlCl4O
_symmetry_space_group_name_H-M   'P 1'
_cell_length_a   8.08540700
_cell_length_b   13.05887300
_cell_length_c   15.33044700
_cell_angle_alpha   90.00000000
_cell_angle_beta   90.00000000
_cell_angle_gamma   90.00000000
_symmetry_Int_Tables_number   1
_chemical_formula_structural   NbTlCl4O
_chemical_formula_sum   'Nb8 Tl8 Cl32 O8'
_cell_volume   1618.68522462
_cell_formula_units_Z   8
loop_
 _symmetry_equiv_pos_site_id
 _symmetry_equiv_pos_as_xyz
  1  'x, y, z'
loop_
 _atom_site_type_symbol
 _atom_site_label
 _atom_site_symmetry_multiplicity
 _atom_site_fract_x
 _atom_site_fract_y
 _atom_site_fract_z
 _atom_site_occupancy
  Nb  Nb0  1  0.69101600  0.75380400  0.59174200  1
  Nb  Nb1  1  0.80898400  0.75380400  0.09174200  1
  Nb  Nb2  1  0.69101600  0.25380400  0.90825800  1
  Nb  Nb3  1  0.30898400  0.24619600  0.40825800  1
  Nb  Nb4  1  0.30898400  0.74619600  0.09174200  1
  Nb  Nb5  1  0.80898400  0.25380400  0.40825800  1
  Nb  Nb6  1  0.19101600  0.24619600  0.90825800  1
  Nb  Nb7  1  0.19101600  0.74619600  0.59174200  1
  Tl  Tl0  1  0.01088500  0.39543300  0.15508700  1
  Tl  Tl1  1  0.48911500  0.89543300  0.84491300  1
  Tl  Tl2  1  0.51088500  0.60456700  0.34491300  1
  Tl  Tl3  1  0.01088500  0.89543300  0.34491300  1
  Tl  Tl4  1  0.51088500  0.10456700  0.15508700  1
  Tl  Tl5  1  0.48911500  0.39543300  0.65508700  1
  Tl  Tl6  1  0.98911500  0.10456700  0.65508700  1
  Tl  Tl7  1  0.98911500  0.60456700  0.84491300  1
  Cl  Cl0  1  0.14940000  0.18676000  0.05560300  1
  Cl  Cl1  1  0.14476300  0.07590500  0.85329400  1
  Cl  Cl2  1  0.85523700  0.42409500  0.35329400  1
  Cl  Cl3  1  0.14940000  0.68676000  0.44439700  1
  Cl  Cl4  1  0.85060000  0.31324000  0.55560300  1
  Cl  Cl5  1  0.64940000  0.31324000  0.05560300  1
  Cl  Cl6  1  0.67138000  0.57961200  0.53851000  1
  Cl  Cl7  1  0.15456800  0.31274800  0.76134600  1
  Cl  Cl8  1  0.82862000  0.07961200  0.46149000  1
  Cl  Cl9  1  0.15456800  0.81274800  0.73865400  1
  Cl  Cl10  1  0.67138000  0.07961200  0.96149000  1
  Cl  Cl11  1  0.34543200  0.31274800  0.26134600  1
  Cl  Cl12  1  0.35060000  0.18676000  0.55560300  1
  Cl  Cl13  1  0.14476300  0.57590500  0.64670600  1
  Cl  Cl14  1  0.84543200  0.18725200  0.26134600  1
  Cl  Cl15  1  0.35523700  0.57590500  0.14670600  1
  Cl  Cl16  1  0.35523700  0.07590500  0.35329400  1
  Cl  Cl17  1  0.65456800  0.68725200  0.73865400  1
  Cl  Cl18  1  0.65456800  0.18725200  0.76134600  1
  Cl  Cl19  1  0.17138000  0.92038800  0.53851000  1
  Cl  Cl20  1  0.85060000  0.81324000  0.94439700  1
  Cl  Cl21  1  0.32862000  0.42038800  0.46149000  1
  Cl  Cl22  1  0.17138000  0.42038800  0.96149000  1
  Cl  Cl23  1  0.84543200  0.68725200  0.23865400  1
  Cl  Cl24  1  0.85523700  0.92409500  0.14670600  1
  Cl  Cl25  1  0.64476300  0.42409500  0.85329400  1
  Cl  Cl26  1  0.32862000  0.92038800  0.03851000  1
  Cl  Cl27  1  0.35060000  0.68676000  0.94439700  1
  Cl  Cl28  1  0.64476300  0.92409500  0.64670600  1
  Cl  Cl29  1  0.82862000  0.57961200  0.03851000  1
  Cl  Cl30  1  0.34543200  0.81274800  0.23865400  1
  Cl  Cl31  1  0.64940000  0.81324000  0.44439700  1
  O  O0  1  0.58847800  0.25722500  0.40805900  1
  O  O1  1  0.91152200  0.75722400  0.59194100  1
  O  O2  1  0.41152200  0.24277500  0.90805900  1
  O  O3  1  0.08847800  0.24277500  0.40805900  1
  O  O4  1  0.58847800  0.75722400  0.09194100  1
  O  O5  1  0.41152200  0.74277600  0.59194100  1
  O  O6  1  0.91152200  0.25722500  0.90805900  1
  O  O7  1  0.08847800  0.74277600  0.09194100  1
loop_
_geom_bond_atom_site_label_1
_geom_bond_atom_site_label_2
_geom_bond_distance
_geom_bond_site_symmetry_2
Nb0 O1 1.783443 1_555
Nb0 O5 2.264409 1_555
Nb1 O4 1.783443 1_555
Nb1 O7 2.264409 1_655
Nb2 O6 1.783443 1_555
Nb2 O2 2.264410 1_555
Nb3 O3 1.783443 1_555
Nb3 O0 2.264410 1_555
Nb4 O7 1.783443 1_555
Nb4 O4 2.264409 1_555
Nb5 O0 1.783443 1_555
Nb5 O3 2.264410 1_655
Nb6 O2 1.783443 1_555
Nb6 O6 2.264410 1_455
Nb7 O5 1.783443 1_555
Nb7 O1 2.264409 1_455
Cl0 Nb6 2.412079 1_554
Cl1 Nb6 2.407321 1_555
Cl2 Nb5 2.407321 1_555
Cl3 Nb7 2.412079 1_555
Cl4 Nb5 2.412079 1_555
Cl5 Nb2 2.412079 1_554
Cl6 Nb0 2.421915 1_555
Cl7 Nb6 2.432015 1_555
Cl8 Nb5 2.421915 1_555
Cl9 Nb7 2.432015 1_555
Cl10 Nb2 2.421915 1_555
Cl11 Nb3 2.432015 1_555
Cl12 Nb3 2.412079 1_555
Cl13 Nb7 2.407321 1_555
Cl14 Nb5 2.432015 1_555
Cl15 Nb4 2.407321 1_555
Cl16 Nb3 2.407321 1_555
Cl17 Nb0 2.432015 1_555
Cl18 Nb2 2.432015 1_555
Cl19 Nb7 2.421915 1_555
Cl20 Nb1 2.412079 1_556
Cl21 Nb3 2.421915 1_555
Cl22 Nb6 2.421915 1_555
Cl23 Nb1 2.432015 1_555
Cl24 Nb1 2.407321 1_555
Cl25 Nb2 2.407321 1_555
Cl26 Nb4 2.421915 1_555
Cl27 Nb4 2.412079 1_556
Cl28 Nb0 2.407321 1_555
Cl29 Nb1 2.421915 1_555
Cl30 Nb4 2.432015 1_555
Cl31 Nb0 2.412079 1_555
