# generated using pymatgen
data_CsAsSe2
_symmetry_space_group_name_H-M   'P 1'
_cell_length_a   15.13347183
_cell_length_b   7.24838513
_cell_length_c   11.36143929
_cell_angle_alpha   65.27317844
_cell_angle_beta   90.00000000
_cell_angle_gamma   90.00000000
_symmetry_Int_Tables_number   1
_chemical_formula_structural   CsAsSe2
_chemical_formula_sum   'Cs8 As8 Se16'
_cell_volume   1132.00529756
_cell_formula_units_Z   8
loop_
 _symmetry_equiv_pos_site_id
 _symmetry_equiv_pos_as_xyz
  1  'x, y, z'
loop_
 _atom_site_type_symbol
 _atom_site_label
 _atom_site_symmetry_multiplicity
 _atom_site_fract_x
 _atom_site_fract_y
 _atom_site_fract_z
 _atom_site_occupancy
  Cs  Cs0  1  0.10475684  0.79063708  0.43481908  1
  Cs  Cs1  1  0.29687781  0.31450493  0.54151500  1
  Cs  Cs2  1  0.20312219  0.31450493  0.04151500  1
  Cs  Cs3  1  0.39524316  0.79063708  0.93481908  1
  Cs  Cs4  1  0.60475684  0.20936292  0.06518092  1
  Cs  Cs5  1  0.89524316  0.20936292  0.56518092  1
  Cs  Cs6  1  0.79687781  0.68549507  0.95848500  1
  Cs  Cs7  1  0.70312219  0.68549507  0.45848500  1
  As  As0  1  0.51173402  0.45653660  0.33137219  1
  As  As1  1  0.93658444  0.08451073  0.15757008  1
  As  As2  1  0.48826598  0.54346340  0.66862781  1
  As  As3  1  0.06341556  0.91548927  0.84242992  1
  As  As4  1  0.01173402  0.54346340  0.16862781  1
  As  As5  1  0.98826598  0.45653660  0.83137219  1
  As  As6  1  0.56341556  0.08451073  0.65757008  1
  As  As7  1  0.43658444  0.91548927  0.34242992  1
  Se  Se0  1  0.90856033  0.65947560  0.65013962  1
  Se  Se1  1  0.59143967  0.65947560  0.15013962  1
  Se  Se2  1  0.90173159  0.72205607  0.24748200  1
  Se  Se3  1  0.82144245  0.17521438  0.25716471  1
  Se  Se4  1  0.17855755  0.82478562  0.74283529  1
  Se  Se5  1  0.67855755  0.17521438  0.75716471  1
  Se  Se6  1  0.40856033  0.34052440  0.84986038  1
  Se  Se7  1  0.12173623  0.80808108  0.06363453  1
  Se  Se8  1  0.32144245  0.82478562  0.24283529  1
  Se  Se9  1  0.37826377  0.80808108  0.56363453  1
  Se  Se10  1  0.87826377  0.19191892  0.93636547  1
  Se  Se11  1  0.62173623  0.19191892  0.43636547  1
  Se  Se12  1  0.09826841  0.27794393  0.75251800  1
  Se  Se13  1  0.40173159  0.27794393  0.25251800  1
  Se  Se14  1  0.09143967  0.34052440  0.34986038  1
  Se  Se15  1  0.59826841  0.72205607  0.74748200  1
loop_
_geom_bond_atom_site_label_1
_geom_bond_atom_site_label_2
_geom_bond_distance
_geom_bond_site_symmetry_2
Cs0 Se14 3.693278 1_565
Cs0 Se0 3.709250 1_455
Cs0 Se14 3.775105 1_555
Cs0 Se4 3.778869 1_555
Cs0 Se2 3.886198 1_455
Cs0 Se8 3.888505 1_555
Cs0 Se12 3.953062 1_555
Cs0 Se7 4.173802 1_555
Cs1 Se13 3.754593 1_555
Cs1 Se14 3.754894 1_555
Cs1 Se4 3.774357 1_545
Cs1 Se9 3.779262 1_545
Cs1 Se12 3.784139 1_555
Cs1 Se8 3.851466 1_555
Cs1 Se9 3.889952 1_555
Cs1 Se6 3.964548 1_555
Cs2 Se12 3.754593 1_554
Cs2 Se6 3.754894 1_554
Cs2 Se8 3.774357 1_545
Cs2 Se7 3.779262 1_545
Cs2 Se13 3.784139 1_555
Cs2 Se4 3.851466 1_554
Cs2 Se7 3.889952 1_555
Cs2 Se14 3.964548 1_555
Cs3 Se6 3.693278 1_565
Cs3 Se1 3.709250 1_556
Cs3 Se6 3.775105 1_555
Cs3 Se8 3.778869 1_556
Cs3 Se15 3.886198 1_555
Cs3 Se4 3.888505 1_555
Cs3 Se13 3.953062 1_556
Cs3 Se9 4.173802 1_555
Cs4 Se1 3.693278 1_545
Cs4 Se6 3.709250 1_554
Cs4 Se1 3.775105 1_555
Cs4 Se5 3.778869 1_554
Cs4 Se13 3.886198 1_555
Cs4 Se3 3.888505 1_555
Cs4 Se15 3.953062 1_554
Cs4 Se11 4.173802 1_555
Cs5 Se0 3.693278 1_545
Cs5 Se14 3.709250 1_655
Cs5 Se0 3.775105 1_555
Cs5 Se3 3.778869 1_555
Cs5 Se12 3.886198 1_655
Cs5 Se5 3.888505 1_555
Cs5 Se2 3.953062 1_555
Cs5 Se10 4.173802 1_555
Cs6 Se2 3.754593 1_556
Cs6 Se1 3.754894 1_556
Cs6 Se5 3.774357 1_565
Cs6 Se10 3.779262 1_565
Cs6 Se15 3.784139 1_555
Cs6 Se3 3.851466 1_556
Cs6 Se10 3.889952 1_555
Cs6 Se0 3.964548 1_555
Cs7 Se15 3.754593 1_555
Cs7 Se0 3.754894 1_555
Cs7 Se3 3.774357 1_565
Cs7 Se11 3.779262 1_565
Cs7 Se2 3.784139 1_555
Cs7 Se5 3.851466 1_555
Cs7 Se11 3.889952 1_555
Cs7 Se1 3.964548 1_555
As0 Se1 2.307513 1_555
As0 Se11 2.441116 1_555
As0 Se13 2.493972 1_555
As0 Cs7 3.903062 1_555
As0 Cs1 3.908483 1_555
As1 Se3 2.317604 1_555
As1 Se2 2.445149 1_545
As1 Se10 2.462601 1_554
As1 Cs0 3.914520 1_645
As2 Se6 2.307513 1_555
As2 Se9 2.441116 1_555
As2 Se15 2.493972 1_555
As2 Cs1 3.903062 1_555
As2 Cs7 3.908483 1_555
As3 Se4 2.317604 1_555
As3 Se12 2.445149 1_565
As3 Se7 2.462601 1_556
As3 Cs5 3.914520 1_465
As4 Se14 2.307513 1_555
As4 Se7 2.441116 1_555
As4 Se2 2.493972 1_455
As4 Cs2 3.903062 1_555
As4 Cs6 3.908483 1_454
As5 Se0 2.307513 1_555
As5 Se10 2.441116 1_555
As5 Se12 2.493972 1_655
As5 Cs6 3.903062 1_555
As5 Cs2 3.908483 1_656
As6 Se5 2.317604 1_555
As6 Se15 2.445149 1_545
As6 Se11 2.462601 1_555
As6 Cs3 3.914520 1_545
As7 Se8 2.317604 1_555
As7 Se13 2.445149 1_565
As7 Se9 2.462601 1_555
As7 Cs4 3.914520 1_565
