# generated using pymatgen
data_Zn3(BO3)2
_symmetry_space_group_name_H-M   'P 1'
_cell_length_a   6.45085200
_cell_length_b   8.41302609
_cell_length_c   10.12843016
_cell_angle_alpha   89.74809478
_cell_angle_beta   89.72441613
_cell_angle_gamma   72.28262815
_symmetry_Int_Tables_number   1
_chemical_formula_structural   Zn3(BO3)2
_chemical_formula_sum   'Zn12 B8 O24'
_cell_volume   523.60155803
_cell_formula_units_Z   4
loop_
 _symmetry_equiv_pos_site_id
 _symmetry_equiv_pos_as_xyz
  1  'x, y, z'
loop_
 _atom_site_type_symbol
 _atom_site_label
 _atom_site_symmetry_multiplicity
 _atom_site_fract_x
 _atom_site_fract_y
 _atom_site_fract_z
 _atom_site_occupancy
  Zn  Zn0  1  0.39406400  0.93252700  0.84317100  1
  Zn  Zn1  1  0.02135800  0.27858700  0.33918600  1
  Zn  Zn2  1  0.93897900  0.71705600  0.17931500  1
  Zn  Zn3  1  0.51668500  0.29006800  0.41774000  1
  Zn  Zn4  1  0.25028700  0.59815200  0.92278500  1
  Zn  Zn5  1  0.97864200  0.72141300  0.66081400  1
  Zn  Zn6  1  0.06102100  0.28294400  0.82068500  1
  Zn  Zn7  1  0.72430200  0.10493800  0.67672100  1
  Zn  Zn8  1  0.60593600  0.06747300  0.15682900  1
  Zn  Zn9  1  0.48331500  0.70993200  0.58226000  1
  Zn  Zn10  1  0.74971300  0.40184800  0.07721500  1
  Zn  Zn11  1  0.27569800  0.89506200  0.32327900  1
  B  B0  1  0.16325800  0.06618300  0.58756800  1
  B  B1  1  0.16316100  0.10121700  0.08367000  1
  B  B2  1  0.83674200  0.93381700  0.41243200  1
  B  B3  1  0.83683900  0.89878300  0.91633000  1
  B  B4  1  0.68152100  0.58665700  0.82451200  1
  B  B5  1  0.31847900  0.41334300  0.17548800  1
  B  B6  1  0.34271800  0.42330600  0.67420100  1
  B  B7  1  0.65728200  0.57669400  0.32579900  1
  O  O0  1  0.72336300  0.59374500  0.19757700  1
  O  O1  1  0.33177200  0.99378800  0.15619700  1
  O  O2  1  0.52393200  0.71416900  0.39112900  1
  O  O3  1  0.27195200  0.57755800  0.61157400  1
  O  O4  1  0.19627300  0.55147600  0.10611000  1
  O  O5  1  0.27663700  0.40625500  0.80242300  1
  O  O6  1  0.68175700  0.06332300  0.34984400  1
  O  O7  1  0.47606800  0.28583100  0.60887100  1
  O  O8  1  0.80372700  0.44852400  0.89389000  1
  O  O9  1  0.26049400  0.38217600  0.30302600  1
  O  O10  1  0.66822800  0.00621200  0.84380300  1
  O  O11  1  0.00243200  0.82325500  0.33916400  1
  O  O12  1  0.49416300  0.68989800  0.88336900  1
  O  O13  1  0.72804800  0.42244200  0.38842600  1
  O  O14  1  0.82660800  0.90368700  0.05284100  1
  O  O15  1  0.99273900  0.21475600  0.14840500  1
  O  O16  1  0.31824300  0.93667700  0.65015600  1
  O  O17  1  0.82953600  0.91455100  0.54846200  1
  O  O18  1  0.17339200  0.09631300  0.94715900  1
  O  O19  1  0.00726100  0.78524400  0.85159500  1
  O  O20  1  0.73950600  0.61782400  0.69697400  1
  O  O21  1  0.17046400  0.08544900  0.45153800  1
  O  O22  1  0.99756800  0.17674500  0.66083600  1
  O  O23  1  0.50583700  0.31010200  0.11663100  1
loop_
_geom_bond_atom_site_label_1
_geom_bond_atom_site_label_2
_geom_bond_distance
_geom_bond_site_symmetry_2
B0 O16 1.387638 1_545
B0 O21 1.388773 1_555
B0 O22 1.397014 1_455
B1 O15 1.382152 1_455
B1 O18 1.384097 1_554
B1 O1 1.393934 1_545
B2 O6 1.387638 1_565
B2 O17 1.388773 1_555
B2 O11 1.397014 1_655
B3 O19 1.382152 1_655
B3 O14 1.384097 1_556
B3 O10 1.393934 1_565
B4 O8 1.380690 1_555
B4 O12 1.388967 1_555
B4 O20 1.389022 1_555
B5 O4 1.380690 1_555
B5 O23 1.388967 1_555
B5 O9 1.389022 1_555
B6 O7 1.382461 1_555
B6 O5 1.385329 1_555
B6 O3 1.389179 1_555
B7 O2 1.382461 1_555
B7 O0 1.385329 1_555
B7 O13 1.389179 1_555
O0 Zn2 1.979685 1_555
O0 Zn10 1.992418 1_555
O1 Zn11 1.961922 1_555
O1 Zn8 2.044430 1_565
O2 Zn9 1.953884 1_555
O2 Zn11 1.967404 1_555
O3 Zn5 1.973820 1_455
O3 Zn9 2.026044 1_555
O4 Zn4 1.947804 1_554
O4 Zn2 1.958341 1_455
O5 Zn6 1.979685 1_555
O5 Zn4 1.992418 1_555
O6 Zn3 2.003481 1_555
O6 Zn8 2.015053 1_555
O7 Zn3 1.953884 1_555
O7 Zn7 1.967404 1_555
O8 Zn10 1.947804 1_556
O8 Zn6 1.958341 1_655
O9 Zn3 1.978074 1_555
O9 Zn1 2.020735 1_555
O10 Zn7 1.961922 1_555
O10 Zn0 2.044430 1_545
O11 Zn2 1.956711 1_455
O11 Zn11 2.035406 1_555
O12 Zn0 1.985543 1_555
O12 Zn4 1.990089 1_555
O13 Zn1 1.973820 1_655
O13 Zn3 2.026044 1_555
O14 Zn8 1.959311 1_565
O14 Zn2 1.982473 1_555
O15 Zn10 1.988509 1_555
O15 Zn1 2.032042 1_655
O16 Zn9 2.003481 1_555
O16 Zn0 2.015053 1_555
O17 Zn5 1.975688 1_555
O17 Zn7 2.015429 1_565
O18 Zn0 1.959311 1_545
O18 Zn6 1.982473 1_555
O19 Zn4 1.988509 1_555
O19 Zn5 2.032042 1_455
O20 Zn9 1.978074 1_555
O20 Zn5 2.020735 1_555
O21 Zn1 1.975688 1_555
O21 Zn11 2.015429 1_545
O22 Zn6 1.956711 1_655
O22 Zn7 2.035406 1_555
O23 Zn8 1.985543 1_555
O23 Zn10 1.990089 1_555
