# generated using pymatgen
data_Na4Ga3Si3B(HO3)4
_symmetry_space_group_name_H-M   'P 1'
_cell_length_a   9.04077800
_cell_length_b   9.04077800
_cell_length_c   9.04077800
_cell_angle_alpha   90.00000000
_cell_angle_beta   90.00000000
_cell_angle_gamma   90.00000000
_symmetry_Int_Tables_number   1
_chemical_formula_structural   Na4Ga3Si3B(HO3)4
_chemical_formula_sum   'Na8 Ga6 Si6 B2 H8 O24'
_cell_volume   738.95401863
_cell_formula_units_Z   2
loop_
 _symmetry_equiv_pos_site_id
 _symmetry_equiv_pos_as_xyz
  1  'x, y, z'
loop_
 _atom_site_type_symbol
 _atom_site_label
 _atom_site_symmetry_multiplicity
 _atom_site_fract_x
 _atom_site_fract_y
 _atom_site_fract_z
 _atom_site_occupancy
  Na  Na0  1  0.82788100  0.82788100  0.17211900  1
  Na  Na1  1  0.82788100  0.17211900  0.82788100  1
  Na  Na2  1  0.17211900  0.82788100  0.82788100  1
  Na  Na3  1  0.17211900  0.17211900  0.17211900  1
  Na  Na4  1  0.32788100  0.32788100  0.67211900  1
  Na  Na5  1  0.32788100  0.67211900  0.32788100  1
  Na  Na6  1  0.67211900  0.32788100  0.32788100  1
  Na  Na7  1  0.67211900  0.67211900  0.67211900  1
  Ga  Ga0  1  0.75000000  0.00000000  0.50000000  1
  Ga  Ga1  1  0.00000000  0.50000000  0.75000000  1
  Ga  Ga2  1  0.25000000  0.00000000  0.50000000  1
  Ga  Ga3  1  0.50000000  0.25000000  0.00000000  1
  Ga  Ga4  1  0.50000000  0.75000000  0.00000000  1
  Ga  Ga5  1  0.00000000  0.50000000  0.25000000  1
  Si  Si0  1  0.75000000  0.50000000  0.00000000  1
  Si  Si1  1  0.00000000  0.75000000  0.50000000  1
  Si  Si2  1  0.25000000  0.50000000  0.00000000  1
  Si  Si3  1  0.50000000  0.00000000  0.25000000  1
  Si  Si4  1  0.50000000  0.00000000  0.75000000  1
  Si  Si5  1  0.00000000  0.25000000  0.50000000  1
  B  B0  1  0.00000000  0.00000000  0.00000000  1
  B  B1  1  0.50000000  0.50000000  0.50000000  1
  H  H0  1  0.57851300  0.57851300  0.42148700  1
  H  H1  1  0.57851300  0.42148700  0.57851300  1
  H  H2  1  0.07851300  0.07851300  0.92148700  1
  H  H3  1  0.07851300  0.92148700  0.07851300  1
  H  H4  1  0.42148700  0.57851300  0.57851300  1
  H  H5  1  0.42148700  0.42148700  0.42148700  1
  H  H6  1  0.92148700  0.92148700  0.92148700  1
  H  H7  1  0.92148700  0.07851300  0.07851300  1
  O  O0  1  0.57360300  0.86601800  0.15120300  1
  O  O1  1  0.57360300  0.13398200  0.84879700  1
  O  O2  1  0.84879700  0.57360300  0.13398200  1
  O  O3  1  0.84879700  0.42639700  0.86601800  1
  O  O4  1  0.86601800  0.15120300  0.57360300  1
  O  O5  1  0.86601800  0.84879700  0.42639700  1
  O  O6  1  0.07360300  0.34879700  0.63398200  1
  O  O7  1  0.07360300  0.65120300  0.36601800  1
  O  O8  1  0.13398200  0.84879700  0.57360300  1
  O  O9  1  0.13398200  0.15120300  0.42639700  1
  O  O10  1  0.15120300  0.57360300  0.86601800  1
  O  O11  1  0.15120300  0.42639700  0.13398200  1
  O  O12  1  0.34879700  0.36601800  0.92639700  1
  O  O13  1  0.34879700  0.63398200  0.07360300  1
  O  O14  1  0.36601800  0.07360300  0.65120300  1
  O  O15  1  0.36601800  0.92639700  0.34879700  1
  O  O16  1  0.42639700  0.86601800  0.84879700  1
  O  O17  1  0.42639700  0.13398200  0.15120300  1
  O  O18  1  0.63398200  0.07360300  0.34879700  1
  O  O19  1  0.63398200  0.92639700  0.65120300  1
  O  O20  1  0.65120300  0.36601800  0.07360300  1
  O  O21  1  0.65120300  0.63398200  0.92639700  1
  O  O22  1  0.92639700  0.34879700  0.36601800  1
  O  O23  1  0.92639700  0.65120300  0.63398200  1
loop_
_geom_bond_atom_site_label_1
_geom_bond_atom_site_label_2
_geom_bond_distance
_geom_bond_site_symmetry_2
Na0 O5 2.332262 1_555
Na0 O2 2.332262 1_555
Na0 O0 2.332262 1_555
Na1 O3 2.332262 1_555
Na1 O1 2.332262 1_555
Na1 O4 2.332262 1_555
Na2 O16 2.332262 1_555
Na2 O8 2.332262 1_555
Na2 O10 2.332262 1_555
Na3 O11 2.332262 1_555
Na3 O9 2.332262 1_555
Na3 O17 2.332262 1_555
Na4 O12 2.332262 1_555
Na4 O14 2.332262 1_555
Na4 O6 2.332262 1_555
Na5 O15 2.332262 1_555
Na5 O7 2.332262 1_555
Na5 O13 2.332262 1_555
Na6 O22 2.332262 1_555
Na6 O20 2.332262 1_555
Na6 O18 2.332262 1_555
Na7 O21 2.332262 1_555
Na7 O19 2.332262 1_555
Na7 O23 2.332262 1_555
Ga0 O4 1.847063 1_555
Ga0 O19 1.847063 1_545
Ga0 O5 1.847063 1_545
Ga0 O18 1.847063 1_555
Ga1 O10 1.847063 1_555
Ga1 O23 1.847063 1_455
Ga1 O3 1.847063 1_455
Ga1 O6 1.847063 1_555
Ga2 O14 1.847063 1_555
Ga2 O9 1.847063 1_555
Ga2 O8 1.847063 1_545
Ga2 O15 1.847063 1_545
Ga3 O20 1.847063 1_555
Ga3 O17 1.847063 1_555
Ga3 O1 1.847063 1_554
Ga3 O12 1.847063 1_554
Ga4 O0 1.847063 1_555
Ga4 O21 1.847063 1_554
Ga4 O16 1.847063 1_554
Ga4 O13 1.847063 1_555
Ga5 O7 1.847063 1_555
Ga5 O11 1.847063 1_555
Ga5 O2 1.847063 1_455
Ga5 O22 1.847063 1_455
B0 H2 1.229442 1_554
B0 H7 1.229442 1_455
B0 H3 1.229442 1_545
B0 H6 1.229442 1_444
B1 H1 1.229442 1_555
B1 H0 1.229442 1_555
B1 H4 1.229442 1_555
B1 H5 1.229442 1_555
O0 Si3 1.645556 1_565
O1 Si4 1.645556 1_555
O2 Si0 1.645556 1_555
O3 Si0 1.645556 1_556
O4 Si5 1.645556 1_655
O5 Si1 1.645556 1_655
O6 Si5 1.645556 1_555
O7 Si1 1.645556 1_555
O8 Si1 1.645556 1_555
O9 Si5 1.645556 1_555
O10 Si2 1.645556 1_556
O11 Si2 1.645556 1_555
O12 Si2 1.645556 1_556
O13 Si2 1.645556 1_555
O14 Si4 1.645556 1_555
O15 Si3 1.645556 1_565
O16 Si4 1.645556 1_565
O17 Si3 1.645556 1_555
O18 Si3 1.645556 1_555
O19 Si4 1.645556 1_565
O20 Si0 1.645556 1_555
O21 Si0 1.645556 1_556
O22 Si5 1.645556 1_655
O23 Si1 1.645556 1_655
