# generated using pymatgen
data_Ba19Na29Li13
_symmetry_space_group_name_H-M   'P 1'
_cell_length_a   19.32568890
_cell_length_b   19.32568895
_cell_length_c   19.32568860
_cell_angle_alpha   60.00000061
_cell_angle_beta   60.00000051
_cell_angle_gamma   59.99999944
_symmetry_Int_Tables_number   1
_chemical_formula_structural   Ba19Na29Li13
_chemical_formula_sum   'Ba38 Na58 Li26'
_cell_volume   5103.75655571
_cell_formula_units_Z   2
loop_
 _symmetry_equiv_pos_site_id
 _symmetry_equiv_pos_as_xyz
  1  'x, y, z'
loop_
 _atom_site_type_symbol
 _atom_site_label
 _atom_site_symmetry_multiplicity
 _atom_site_fract_x
 _atom_site_fract_y
 _atom_site_fract_z
 _atom_site_occupancy
  Ba  Ba0  1  0.04240362  0.64117076  0.27402201  1
  Ba  Ba1  1  0.27402201  0.64117076  0.04240362  1
  Ba  Ba2  1  0.65572725  0.65572725  0.03281824  1
  Ba  Ba3  1  0.49681702  0.49681702  0.12693688  1
  Ba  Ba4  1  0.04240362  0.04240362  0.27402201  1
  Ba  Ba5  1  0.90696522  0.27910435  0.90696522  1
  Ba  Ba6  1  0.90696522  0.90696522  0.90696522  1
  Ba  Ba7  1  0.49681702  0.12693688  0.49681702  1
  Ba  Ba8  1  0.04240362  0.27402201  0.04240362  1
  Ba  Ba9  1  0.40540360  0.40540360  0.78378920  1
  Ba  Ba10  1  0.04240362  0.27402201  0.64117076  1
  Ba  Ba11  1  0.90696522  0.90696522  0.27910435  1
  Ba  Ba12  1  0.27910435  0.90696522  0.90696522  1
  Ba  Ba13  1  0.12693688  0.87942907  0.49681702  1
  Ba  Ba14  1  0.49681702  0.49681702  0.87942907  1
  Ba  Ba15  1  0.12693688  0.49681702  0.87942907  1
  Ba  Ba16  1  0.64117076  0.04240362  0.27402201  1
  Ba  Ba17  1  0.87942907  0.49681702  0.49681702  1
  Ba  Ba18  1  0.87942907  0.49681702  0.12693688  1
  Ba  Ba19  1  0.75000000  0.75000000  0.75000000  1
  Ba  Ba20  1  0.65572725  0.03281824  0.65572725  1
  Ba  Ba21  1  0.78378920  0.40540360  0.40540360  1
  Ba  Ba22  1  0.49681702  0.12693688  0.87942907  1
  Ba  Ba23  1  0.49681702  0.87942907  0.49681702  1
  Ba  Ba24  1  0.40540360  0.40540360  0.40540360  1
  Ba  Ba25  1  0.27402201  0.04240362  0.04240362  1
  Ba  Ba26  1  0.04240362  0.64117076  0.04240362  1
  Ba  Ba27  1  0.27402201  0.04240362  0.64117076  1
  Ba  Ba28  1  0.40540360  0.78378920  0.40540360  1
  Ba  Ba29  1  0.65572725  0.65572725  0.65572725  1
  Ba  Ba30  1  0.12693688  0.49681702  0.49681702  1
  Ba  Ba31  1  0.03281824  0.65572725  0.65572725  1
  Ba  Ba32  1  0.64117076  0.04240362  0.04240362  1
  Ba  Ba33  1  0.87942907  0.12693688  0.49681702  1
  Ba  Ba34  1  0.49681702  0.87942907  0.12693688  1
  Ba  Ba35  1  0.50000000  0.50000000  0.50000000  1
  Ba  Ba36  1  0.64117076  0.27402201  0.04240362  1
  Ba  Ba37  1  0.04240362  0.04240362  0.64117076  1
  Na  Na0  1  0.51195032  0.69880224  0.89462372  1
  Na  Na1  1  0.26765771  0.26765771  0.83204519  1
  Na  Na2  1  0.63263939  0.26765771  0.26765771  1
  Na  Na3  1  0.04931570  0.85205290  0.04931570  1
  Na  Na4  1  0.08176281  0.76290972  0.76290972  1
  Na  Na5  1  0.76290972  0.08176281  0.39241774  1
  Na  Na6  1  0.04931570  0.04931570  0.85205290  1
  Na  Na7  1  0.83204519  0.26765771  0.63263939  1
  Na  Na8  1  0.69880224  0.89462372  0.89462372  1
  Na  Na9  1  0.45496268  0.26689866  0.63906933  1
  Na  Na10  1  0.26765771  0.63263939  0.83204519  1
  Na  Na11  1  0.63906933  0.26689866  0.45496268  1
  Na  Na12  1  0.26765771  0.63263939  0.26765771  1
  Na  Na13  1  0.63906933  0.45496268  0.63906933  1
  Na  Na14  1  0.63263939  0.83204519  0.26765771  1
  Na  Na15  1  0.45496268  0.63906933  0.63906933  1
  Na  Na16  1  0.08176281  0.39241774  0.76290972  1
  Na  Na17  1  0.51195032  0.89462372  0.69880224  1
  Na  Na18  1  0.63906933  0.63906933  0.45496268  1
  Na  Na19  1  0.89462372  0.69880224  0.89462372  1
  Na  Na20  1  0.76290972  0.76290972  0.08176281  1
  Na  Na21  1  0.63906933  0.63906933  0.26689866  1
  Na  Na22  1  0.63906933  0.45496268  0.26689866  1
  Na  Na23  1  0.39241774  0.76290972  0.08176281  1
  Na  Na24  1  0.04931570  0.04931570  0.04931570  1
  Na  Na25  1  0.84086408  0.15913592  0.84086408  1
  Na  Na26  1  0.84086408  0.15913592  0.15913592  1
  Na  Na27  1  0.63263939  0.26765771  0.83204519  1
  Na  Na28  1  0.26765771  0.83204519  0.63263939  1
  Na  Na29  1  0.39241774  0.76290972  0.76290972  1
  Na  Na30  1  0.63906933  0.26689866  0.63906933  1
  Na  Na31  1  0.84086408  0.84086408  0.15913592  1
  Na  Na32  1  0.89462372  0.89462372  0.51195032  1
  Na  Na33  1  0.51195032  0.89462372  0.89462372  1
  Na  Na34  1  0.76290972  0.39241774  0.76290972  1
  Na  Na35  1  0.85205290  0.04931570  0.04931570  1
  Na  Na36  1  0.76290972  0.08176281  0.76290972  1
  Na  Na37  1  0.15913592  0.15913592  0.84086408  1
  Na  Na38  1  0.08176281  0.76290972  0.39241774  1
  Na  Na39  1  0.83204519  0.63263939  0.26765771  1
  Na  Na40  1  0.89462372  0.51195032  0.69880224  1
  Na  Na41  1  0.76290972  0.39241774  0.08176281  1
  Na  Na42  1  0.69880224  0.89462372  0.51195032  1
  Na  Na43  1  0.83204519  0.26765771  0.26765771  1
  Na  Na44  1  0.39241774  0.08176281  0.76290972  1
  Na  Na45  1  0.26765771  0.26765771  0.63263939  1
  Na  Na46  1  0.69880224  0.51195032  0.89462372  1
  Na  Na47  1  0.26765771  0.83204519  0.26765771  1
  Na  Na48  1  0.45496268  0.63906933  0.26689866  1
  Na  Na49  1  0.26689866  0.63906933  0.63906933  1
  Na  Na50  1  0.89462372  0.51195032  0.89462372  1
  Na  Na51  1  0.89462372  0.89462372  0.69880224  1
  Na  Na52  1  0.15913592  0.84086408  0.15913592  1
  Na  Na53  1  0.89462372  0.69880224  0.51195032  1
  Na  Na54  1  0.15913592  0.84086408  0.84086408  1
  Na  Na55  1  0.26689866  0.63906933  0.45496268  1
  Na  Na56  1  0.26689866  0.45496268  0.63906933  1
  Na  Na57  1  0.76290972  0.76290972  0.39241774  1
  Li  Li0  1  0.18162311  0.18162311  0.18162311  1
  Li  Li1  1  0.18162311  0.18162311  0.45513068  1
  Li  Li2  1  0.99409405  0.45626003  0.27482296  1
  Li  Li3  1  0.38747155  0.38747155  0.11252845  1
  Li  Li4  1  0.45513068  0.18162311  0.18162311  1
  Li  Li5  1  0.28939649  0.28939649  0.13181052  1
  Li  Li6  1  0.11252845  0.38747155  0.38747155  1
  Li  Li7  1  0.27482296  0.27482296  0.99409405  1
  Li  Li8  1  0.45626003  0.27482296  0.99409405  1
  Li  Li9  1  0.27482296  0.99409405  0.45626003  1
  Li  Li10  1  0.18162311  0.45513068  0.18162311  1
  Li  Li11  1  0.27482296  0.45626003  0.27482296  1
  Li  Li12  1  0.27482296  0.27482296  0.45626003  1
  Li  Li13  1  0.45626003  0.27482296  0.27482296  1
  Li  Li14  1  0.27482296  0.99409405  0.27482296  1
  Li  Li15  1  0.13181052  0.28939649  0.28939649  1
  Li  Li16  1  0.28939649  0.13181052  0.28939649  1
  Li  Li17  1  0.45626003  0.99409405  0.27482296  1
  Li  Li18  1  0.38747155  0.11252845  0.38747155  1
  Li  Li19  1  0.28939649  0.28939649  0.28939649  1
  Li  Li20  1  0.27482296  0.45626003  0.99409405  1
  Li  Li21  1  0.11252845  0.38747155  0.11252845  1
  Li  Li22  1  0.99409405  0.27482296  0.45626003  1
  Li  Li23  1  0.38747155  0.11252845  0.11252845  1
  Li  Li24  1  0.99409405  0.27482296  0.27482296  1
  Li  Li25  1  0.11252845  0.11252845  0.38747155  1
loop_
_geom_bond_atom_site_label_1
_geom_bond_atom_site_label_2
_geom_bond_distance
_geom_bond_site_symmetry_2
Ba0 Li10 3.911068 1_555
Ba0 Li6 4.032292 1_555
Ba0 Li11 4.111996 1_555
Ba0 Li2 4.111996 1_455
Ba0 Na3 4.213261 1_555
Ba0 Na12 4.214227 1_555
Ba0 Na39 4.214227 1_455
Ba0 Na53 4.398644 1_455
Ba0 Ba30 4.410793 1_555
Ba0 Ba17 4.410794 1_455
Ba0 Ba26 4.476185 1_555
Ba0 Ba1 4.476185 1_555
Ba0 Na52 4.476742 1_555
Ba0 Na31 4.476742 1_455
Ba0 Ba11 4.477551 1_455
Ba0 Na38 4.501349 1_555
Ba0 Na57 4.501349 1_455
Ba1 Li10 3.911068 1_555
Ba1 Li3 4.032292 1_555
Ba1 Li11 4.111996 1_555
Ba1 Li20 4.111996 1_554
Ba1 Na3 4.213261 1_555
Ba1 Na12 4.214227 1_555
Ba1 Na10 4.214227 1_554
Ba1 Na0 4.398644 1_554
Ba1 Ba3 4.410793 1_555
Ba1 Ba14 4.410794 1_554
Ba1 Ba26 4.476185 1_555
Ba1 Na52 4.476742 1_555
Ba1 Na54 4.476742 1_554
Ba1 Ba12 4.477551 1_554
Ba1 Na23 4.501349 1_555
Ba1 Na29 4.501349 1_554
Ba2 Na23 4.205361 1_555
Ba2 Na20 4.205361 1_555
Ba2 Na41 4.205361 1_555
Ba2 Na48 4.226432 1_555
Ba2 Na22 4.226432 1_555
Ba2 Na21 4.226432 1_555
Ba2 Na0 4.293099 1_554
Ba2 Na46 4.293099 1_554
Ba2 Na50 4.293099 1_554
Ba2 Na33 4.293099 1_554
Ba2 Na19 4.293099 1_554
Ba2 Na8 4.293099 1_554
Ba2 Ba34 4.520017 1_555
Ba2 Ba3 4.520017 1_555
Ba3 Li3 3.827652 1_555
Ba3 Li11 4.006169 1_555
Ba3 Li13 4.006169 1_555
Ba3 Na12 4.167572 1_555
Ba3 Na2 4.167572 1_555
Ba3 Na46 4.216973 1_554
Ba3 Na0 4.216973 1_554
Ba3 Na41 4.263100 1_555
Ba3 Na23 4.263100 1_555
Ba3 Na22 4.307280 1_555
Ba3 Na48 4.307280 1_555
Ba3 Ba36 4.410793 1_555
Ba4 Li0 3.911068 1_555
Ba4 Li25 4.032292 1_555
Ba4 Li14 4.111996 1_545
Ba4 Li24 4.111996 1_455
Ba4 Na24 4.213261 1_555
Ba4 Na47 4.214227 1_545
Ba4 Na43 4.214227 1_455
Ba4 Na32 4.398645 1_445
Ba4 Ba8 4.476185 1_555
Ba4 Na26 4.476742 1_455
Ba4 Na52 4.476742 1_545
Ba4 Na5 4.501349 1_455
Ba4 Na38 4.501349 1_545
Ba5 Na41 3.981704 1_556
Ba5 Na16 3.981704 1_655
Ba5 Na34 3.981704 1_555
Ba5 Na37 4.024229 1_655
Ba5 Na26 4.024229 1_556
Ba5 Na25 4.024229 1_555
Ba5 Na24 4.241659 1_656
Ba5 Na6 4.241659 1_655
Ba5 Na35 4.241659 1_556
Ba5 Na50 4.274729 1_555
Ba5 Na46 4.274729 1_555
Ba5 Na40 4.274729 1_555
Ba5 Ba8 4.477551 1_656
Ba6 Na4 3.981704 1_655
Ba6 Na36 3.981704 1_565
Ba6 Na20 3.981704 1_556
Ba6 Na31 4.024229 1_556
Ba6 Na54 4.024229 1_655
Ba6 Na25 4.024229 1_565
Ba6 Na3 4.241658 1_656
Ba6 Na35 4.241658 1_566
Ba6 Na6 4.241659 1_665
Ba6 Na51 4.274729 1_555
Ba6 Na8 4.274729 1_555
Ba6 Na19 4.274729 1_555
Ba7 Li18 3.827652 1_555
Ba7 Li13 4.006169 1_555
Ba7 Li12 4.006169 1_555
Ba7 Na45 4.167572 1_555
Ba7 Na2 4.167572 1_555
Ba7 Na42 4.216973 1_545
Ba7 Na17 4.216973 1_545
Ba7 Na44 4.263100 1_555
Ba7 Na5 4.263100 1_555
Ba7 Na9 4.307280 1_555
Ba7 Na11 4.307280 1_555
Ba8 Li0 3.911068 1_555
Ba8 Li21 4.032292 1_555
Ba8 Li24 4.111996 1_455
Ba8 Li7 4.111996 1_554
Ba8 Na24 4.213261 1_555
Ba8 Na43 4.214227 1_455
Ba8 Na1 4.214227 1_554
Ba8 Na50 4.398645 1_454
Ba8 Na37 4.476742 1_554
Ba8 Na26 4.476742 1_455
Ba8 Na16 4.501349 1_554
Ba8 Na41 4.501349 1_455
Ba9 Li20 3.887229 1_555
Ba9 Li8 3.887229 1_555
Ba9 Li7 3.887229 1_555
Ba9 Na27 4.142929 1_555
Ba9 Na10 4.142929 1_555
Ba9 Na1 4.142929 1_555
Ba9 Na56 4.260059 1_555
Ba9 Na9 4.260059 1_555
Ba9 Na30 4.260059 1_555
Ba9 Na49 4.260059 1_555
Ba9 Na13 4.260060 1_555
Ba9 Na15 4.260060 1_555
Ba10 Li1 3.911068 1_555
Ba10 Li6 4.032292 1_555
Ba10 Li12 4.111996 1_555
Ba10 Li22 4.111996 1_455
Ba10 Na6 4.213261 1_555
Ba10 Na45 4.214227 1_555
Ba10 Na7 4.214227 1_455
Ba10 Na40 4.398644 1_455
Ba10 Ba30 4.410794 1_555
Ba10 Ba17 4.410794 1_455
Ba10 Ba27 4.476185 1_555
Ba10 Ba37 4.476185 1_555
Ba10 Na37 4.476742 1_555
Ba10 Na25 4.476742 1_455
Ba10 Ba5 4.477551 1_455
Ba10 Na16 4.501349 1_555
Ba10 Na34 4.501349 1_455
Ba11 Na38 3.981704 1_655
Ba11 Na5 3.981704 1_565
Ba11 Na57 3.981704 1_555
Ba11 Na52 4.024229 1_655
Ba11 Na26 4.024229 1_565
Ba11 Na31 4.024229 1_555
Ba11 Na3 4.241659 1_655
Ba11 Na24 4.241659 1_665
Ba11 Na35 4.241659 1_565
Ba11 Na32 4.274729 1_555
Ba11 Na42 4.274729 1_555
Ba11 Na53 4.274729 1_555
Ba11 Ba16 4.477551 1_565
Ba11 Ba4 4.477551 1_665
Ba12 Na23 3.981704 1_556
Ba12 Na44 3.981704 1_565
Ba12 Na29 3.981704 1_555
Ba12 Na52 4.024229 1_556
Ba12 Na37 4.024229 1_565
Ba12 Na54 4.024229 1_555
Ba12 Na24 4.241659 1_566
Ba12 Na6 4.241659 1_565
Ba12 Na3 4.241659 1_556
Ba12 Na33 4.274729 1_555
Ba12 Na0 4.274729 1_555
Ba12 Na17 4.274729 1_555
Ba12 Ba25 4.477551 1_566
Ba12 Ba27 4.477551 1_565
Ba13 Li25 3.827652 1_565
Ba13 Li14 4.006169 1_555
Ba13 Li9 4.006169 1_555
Ba13 Na47 4.167572 1_555
Ba13 Na28 4.167572 1_555
Ba13 Na32 4.216973 1_455
Ba13 Na51 4.216973 1_455
Ba13 Na38 4.263100 1_555
Ba13 Na4 4.263100 1_555
Ba13 Na55 4.307280 1_555
Ba13 Na49 4.307280 1_555
Ba13 Ba28 4.394279 1_555
Ba13 Ba4 4.410793 1_565
Ba13 Ba37 4.410794 1_565
Ba13 Ba31 4.520017 1_555
Ba13 Ba33 4.783259 1_465
Ba14 Li3 3.827652 1_556
Ba14 Li20 4.006169 1_555
Ba14 Li8 4.006169 1_555
Ba14 Na10 4.167572 1_555
Ba14 Na27 4.167572 1_555
Ba14 Na46 4.216973 1_555
Ba14 Na0 4.216973 1_555
Ba14 Na34 4.263100 1_555
Ba14 Na29 4.263100 1_555
Ba14 Na13 4.307280 1_555
Ba14 Na15 4.307280 1_555
Ba14 Ba9 4.394279 1_555
Ba14 Ba36 4.410794 1_556
Ba14 Ba29 4.520017 1_555
Ba14 Ba3 4.783259 1_556
Ba15 Li21 3.827652 1_556
Ba15 Li7 4.006169 1_555
Ba15 Li20 4.006169 1_555
Ba15 Na1 4.167572 1_555
Ba15 Na10 4.167573 1_555
Ba15 Na50 4.216973 1_455
Ba15 Na19 4.216973 1_455
Ba15 Na16 4.263100 1_555
Ba15 Na4 4.263100 1_555
Ba15 Na56 4.307280 1_555
Ba15 Na49 4.307280 1_555
Ba15 Ba9 4.394279 1_555
Ba15 Ba8 4.410794 1_556
Ba15 Ba26 4.410794 1_556
Ba15 Ba31 4.520017 1_555
Ba15 Ba18 4.783259 1_456
Ba16 Li4 3.911068 1_555
Ba16 Li18 4.032292 1_555
Ba16 Li13 4.111996 1_555
Ba16 Li17 4.111996 1_545
Ba16 Na35 4.213261 1_555
Ba16 Na2 4.214227 1_555
Ba16 Na14 4.214227 1_545
Ba16 Na42 4.398644 1_545
Ba16 Ba7 4.410793 1_555
Ba16 Ba23 4.410794 1_545
Ba16 Ba32 4.476185 1_555
Ba16 Ba36 4.476185 1_555
Ba16 Na26 4.476742 1_555
Ba16 Na31 4.476742 1_545
Ba16 Na5 4.501349 1_555
Ba16 Na57 4.501349 1_545
Ba17 Li6 3.827652 1_655
Ba17 Li2 4.006169 1_555
Ba17 Li22 4.006169 1_555
Ba17 Na39 4.167572 1_555
Ba17 Na7 4.167572 1_555
Ba17 Na40 4.216973 1_555
Ba17 Na53 4.216973 1_555
Ba17 Na57 4.263100 1_555
Ba17 Na34 4.263100 1_555
Ba17 Na18 4.307280 1_555
Ba17 Na13 4.307280 1_555
Ba17 Ba21 4.394279 1_555
Ba17 Ba29 4.520017 1_555
Ba17 Ba30 4.783259 1_655
Ba18 Li21 3.827652 1_655
Ba18 Li24 4.006169 1_555
Ba18 Li2 4.006169 1_555
Ba18 Na43 4.167572 1_555
Ba18 Na39 4.167572 1_555
Ba18 Na50 4.216972 1_554
Ba18 Na19 4.216973 1_554
Ba18 Na20 4.263100 1_555
Ba18 Na41 4.263100 1_555
Ba18 Na22 4.307280 1_555
Ba18 Na21 4.307280 1_555
Ba18 Ba21 4.394279 1_555
Ba18 Ba8 4.410793 1_655
Ba18 Ba26 4.410794 1_655
Ba18 Ba2 4.520017 1_555
Ba19 Na53 4.345507 1_555
Ba19 Na19 4.345507 1_555
Ba19 Na42 4.345507 1_555
Ba19 Na8 4.345507 1_555
Ba19 Na17 4.345507 1_555
Ba19 Na33 4.345507 1_555
Ba19 Na40 4.345507 1_555
Ba19 Na50 4.345507 1_555
Ba19 Na0 4.345507 1_555
Ba19 Na51 4.345507 1_555
Ba19 Na32 4.345507 1_555
Ba19 Na46 4.345507 1_555
Ba19 Ba2 4.462690 1_556
Ba19 Ba31 4.462691 1_655
Ba19 Ba20 4.462691 1_565
Ba19 Ba29 4.462691 1_555
Ba20 Na5 4.205361 1_555
Ba20 Na36 4.205361 1_555
Ba20 Na44 4.205361 1_555
Ba20 Na9 4.226432 1_555
Ba20 Na11 4.226432 1_555
Ba20 Na30 4.226432 1_555
Ba20 Na42 4.293099 1_545
Ba20 Na17 4.293099 1_545
Ba20 Na32 4.293099 1_545
Ba20 Na8 4.293099 1_545
Ba20 Na33 4.293099 1_545
Ba20 Na51 4.293099 1_545
Ba20 Ba7 4.520017 1_555
Ba20 Ba22 4.520017 1_555
Ba20 Ba33 4.520017 1_555
Ba21 Li24 3.887229 1_555
Ba21 Li22 3.887229 1_555
Ba21 Li2 3.887229 1_555
Ba21 Na43 4.142929 1_555
Ba21 Na7 4.142929 1_555
Ba21 Na39 4.142929 1_555
Ba21 Na22 4.260059 1_555
Ba21 Na13 4.260059 1_555
Ba21 Na18 4.260059 1_555
Ba21 Na21 4.260059 1_555
Ba21 Na11 4.260060 1_555
Ba21 Na30 4.260060 1_555
Ba21 Ba33 4.394279 1_555
Ba21 Ba35 4.478012 1_555
Ba22 Li23 3.827652 1_556
Ba22 Li7 4.006169 1_555
Ba22 Li8 4.006169 1_555
Ba22 Na1 4.167572 1_555
Ba22 Na27 4.167573 1_555
Ba22 Na33 4.216973 1_545
Ba22 Na8 4.216973 1_545
Ba22 Na44 4.263100 1_555
Ba22 Na36 4.263100 1_555
Ba22 Na9 4.307280 1_555
Ba22 Na30 4.307280 1_555
Ba22 Ba9 4.394279 1_555
Ba22 Ba25 4.410794 1_556
Ba22 Ba32 4.410794 1_556
Ba22 Ba34 4.783259 1_546
Ba23 Li18 3.827652 1_565
Ba23 Li17 4.006169 1_555
Ba23 Li9 4.006169 1_555
Ba23 Na14 4.167572 1_555
Ba23 Na28 4.167572 1_555
Ba23 Na17 4.216973 1_555
Ba23 Na42 4.216973 1_555
Ba23 Na57 4.263100 1_555
Ba23 Na29 4.263100 1_555
Ba23 Na18 4.307280 1_555
Ba23 Na15 4.307280 1_555
Ba23 Ba28 4.394279 1_555
Ba23 Ba27 4.410794 1_565
Ba23 Ba29 4.520017 1_555
Ba23 Ba7 4.783259 1_565
Ba24 Li11 3.887229 1_555
Ba24 Li13 3.887229 1_555
Ba24 Li12 3.887229 1_555
Ba24 Na2 4.142929 1_555
Ba24 Na12 4.142929 1_555
Ba24 Na45 4.142929 1_555
Ba24 Na56 4.260059 1_555
Ba24 Na9 4.260059 1_555
Ba24 Na11 4.260059 1_555
Ba24 Na55 4.260059 1_555
Ba24 Na22 4.260060 1_555
Ba24 Na48 4.260060 1_555
Ba24 Ba3 4.394279 1_555
Ba24 Ba30 4.394279 1_555
Ba24 Ba7 4.394279 1_555
Ba24 Ba35 4.478012 1_555
Ba25 Li0 3.911068 1_555
Ba25 Li23 4.032292 1_555
Ba25 Li14 4.111996 1_545
Ba25 Li7 4.111996 1_554
Ba25 Na24 4.213261 1_555
Ba25 Na47 4.214227 1_545
Ba25 Na1 4.214227 1_554
Ba25 Na33 4.398645 1_544
Ba25 Ba34 4.410793 1_545
Ba25 Ba8 4.476185 1_555
Ba25 Ba4 4.476185 1_555
Ba25 Na37 4.476742 1_554
Ba25 Na52 4.476742 1_545
Ba25 Na44 4.501349 1_554
Ba25 Na23 4.501349 1_545
Ba26 Li10 3.911068 1_555
Ba26 Li21 4.032292 1_555
Ba26 Li20 4.111996 1_554
Ba26 Li2 4.111996 1_455
Ba26 Na3 4.213261 1_555
Ba26 Na39 4.214227 1_455
Ba26 Na10 4.214227 1_554
Ba26 Na19 4.398645 1_454
Ba26 Na31 4.476742 1_455
Ba26 Na54 4.476742 1_554
Ba26 Ba6 4.477551 1_454
Ba26 Na4 4.501349 1_554
Ba26 Na20 4.501349 1_455
Ba27 Li1 3.911068 1_555
Ba27 Li18 4.032292 1_555
Ba27 Li12 4.111996 1_555
Ba27 Li9 4.111996 1_545
Ba27 Na6 4.213261 1_555
Ba27 Na45 4.214227 1_555
Ba27 Na28 4.214227 1_545
Ba27 Na17 4.398644 1_545
Ba27 Ba7 4.410794 1_555
Ba27 Ba37 4.476185 1_555
Ba27 Na37 4.476742 1_555
Ba27 Na54 4.476742 1_545
Ba27 Na44 4.501349 1_555
Ba27 Na29 4.501349 1_545
Ba28 Li14 3.887229 1_555
Ba28 Li9 3.887229 1_555
Ba28 Li17 3.887230 1_555
Ba28 Na47 4.142929 1_555
Ba28 Na28 4.142929 1_555
Ba28 Na14 4.142929 1_555
Ba28 Na48 4.260059 1_555
Ba28 Na15 4.260059 1_555
Ba28 Na21 4.260059 1_555
Ba28 Na18 4.260059 1_555
Ba28 Na55 4.260060 1_555
Ba28 Na49 4.260060 1_555
Ba28 Ba34 4.394279 1_555
Ba28 Ba35 4.478012 1_555
Ba29 Na29 4.205361 1_555
Ba29 Na57 4.205361 1_555
Ba29 Na34 4.205361 1_555
Ba29 Na18 4.226432 1_555
Ba29 Na15 4.226432 1_555
Ba29 Na13 4.226432 1_555
Ba29 Na0 4.293099 1_555
Ba29 Na46 4.293099 1_555
Ba29 Na40 4.293099 1_555
Ba29 Na17 4.293099 1_555
Ba29 Na53 4.293099 1_555
Ba29 Na42 4.293099 1_555
Ba30 Li6 3.827652 1_555
Ba30 Li11 4.006169 1_555
Ba30 Li12 4.006169 1_555
Ba30 Na45 4.167572 1_555
Ba30 Na12 4.167572 1_555
Ba30 Na53 4.216973 1_455
Ba30 Na40 4.216973 1_455
Ba30 Na16 4.263100 1_555
Ba30 Na38 4.263100 1_555
Ba30 Na56 4.307280 1_555
Ba30 Na55 4.307280 1_555
Ba30 Ba31 4.520017 1_555
Ba31 Na38 4.205361 1_555
Ba31 Na4 4.205361 1_555
Ba31 Na16 4.205361 1_555
Ba31 Na56 4.226432 1_555
Ba31 Na55 4.226432 1_555
Ba31 Na49 4.226432 1_555
Ba31 Na53 4.293099 1_455
Ba31 Na40 4.293099 1_455
Ba31 Na32 4.293099 1_455
Ba31 Na19 4.293099 1_455
Ba31 Na50 4.293099 1_455
Ba31 Na51 4.293099 1_455
Ba32 Li4 3.911068 1_555
Ba32 Li23 4.032292 1_555
Ba32 Li8 4.111996 1_554
Ba32 Li17 4.111996 1_545
Ba32 Na35 4.213261 1_555
Ba32 Na14 4.214227 1_545
Ba32 Na27 4.214227 1_554
Ba32 Na8 4.398645 1_544
Ba32 Ba34 4.410794 1_545
Ba32 Ba36 4.476185 1_555
Ba32 Na31 4.476742 1_545
Ba32 Na25 4.476742 1_554
Ba32 Ba6 4.477551 1_544
Ba32 Na36 4.501349 1_554
Ba32 Na20 4.501349 1_545
Ba33 Li25 3.827652 1_655
Ba33 Li24 4.006169 1_555
Ba33 Li22 4.006169 1_555
Ba33 Na43 4.167572 1_555
Ba33 Na7 4.167572 1_555
Ba33 Na32 4.216973 1_545
Ba33 Na51 4.216973 1_545
Ba33 Na5 4.263100 1_555
Ba33 Na36 4.263100 1_555
Ba33 Na11 4.307280 1_555
Ba33 Na30 4.307280 1_555
Ba33 Ba4 4.410793 1_655
Ba33 Ba37 4.410794 1_655
Ba34 Li23 3.827652 1_565
Ba34 Li14 4.006169 1_555
Ba34 Li17 4.006169 1_555
Ba34 Na47 4.167572 1_555
Ba34 Na14 4.167572 1_555
Ba34 Na33 4.216972 1_554
Ba34 Na8 4.216973 1_554
Ba34 Na20 4.263100 1_555
Ba34 Na23 4.263100 1_555
Ba34 Na48 4.307280 1_555
Ba34 Na21 4.307280 1_555
Ba35 Na13 4.212937 1_555
Ba35 Na22 4.212937 1_555
Ba35 Na48 4.212937 1_555
Ba35 Na15 4.212937 1_555
Ba35 Na49 4.212937 1_555
Ba35 Na55 4.212937 1_555
Ba35 Na11 4.212937 1_555
Ba35 Na30 4.212937 1_555
Ba35 Na21 4.212937 1_555
Ba35 Na18 4.212937 1_555
Ba35 Na56 4.212937 1_555
Ba35 Na9 4.212937 1_555
Ba35 Ba9 4.478012 1_555
Ba36 Li4 3.911068 1_555
Ba36 Li3 4.032292 1_555
Ba36 Li13 4.111996 1_555
Ba36 Li8 4.111996 1_554
Ba36 Na35 4.213261 1_555
Ba36 Na2 4.214227 1_555
Ba36 Na27 4.214227 1_554
Ba36 Na46 4.398645 1_554
Ba36 Na26 4.476742 1_555
Ba36 Na25 4.476742 1_554
Ba36 Ba5 4.477551 1_554
Ba36 Na41 4.501349 1_555
Ba36 Na34 4.501349 1_554
Ba37 Li1 3.911068 1_555
Ba37 Li25 4.032292 1_555
Ba37 Li9 4.111996 1_545
Ba37 Li22 4.111996 1_455
Ba37 Na6 4.213261 1_555
Ba37 Na28 4.214227 1_545
Ba37 Na7 4.214227 1_455
Ba37 Na51 4.398645 1_445
Ba37 Na25 4.476742 1_455
Ba37 Na54 4.476742 1_545
Ba37 Ba6 4.477551 1_445
Ba37 Na36 4.501349 1_455
Ba37 Na4 4.501349 1_545
Na0 Na46 3.611042 1_555
Na0 Na23 3.635270 1_556
Na0 Na29 3.635270 1_555
Na0 Na33 3.784385 1_555
Na0 Na17 3.784385 1_555
Na1 Na37 3.536898 1_555
Na1 Na16 3.663532 1_555
Na1 Na44 3.663532 1_555
Na1 Na9 3.676068 1_555
Na1 Na56 3.676068 1_555
Na1 Na45 3.853654 1_555
Na2 Na26 3.536898 1_555
Na2 Na5 3.663532 1_555
Na2 Na41 3.663532 1_555
Na2 Na22 3.676068 1_555
Na2 Na43 3.853654 1_555
Na3 Na54 3.555565 1_554
Na3 Na52 3.555565 1_555
Na3 Na31 3.555565 1_455
Na3 Na35 3.812239 1_465
Na3 Na6 3.812240 1_564
Na4 Na49 3.585945 1_555
Na4 Na51 3.635270 1_455
Na4 Na54 3.681043 1_555
Na10 Na54 3.536898 1_555
Na10 Na29 3.663532 1_555
Na10 Na4 3.663532 1_555
Na10 Na49 3.676068 1_555
Na10 Na15 3.676068 1_555
Na10 Na28 3.853654 1_555
Na11 Na30 3.557988 1_555
Na11 Na9 3.557988 1_555
Na11 Na5 3.585945 1_555
Na11 Na22 3.634467 1_555
Na11 Na2 3.676068 1_555
Na11 Na43 3.676068 1_555
Na12 Na52 3.536898 1_555
Na12 Na38 3.663532 1_555
Na12 Na23 3.663532 1_555
Na12 Na55 3.676068 1_555
Na12 Na48 3.676068 1_555
Na12 Na47 3.853654 1_555
Na13 Na15 3.557988 1_555
Na13 Na18 3.557988 1_555
Na13 Na34 3.585945 1_555
Na13 Na30 3.634467 1_555
Na13 Na7 3.676068 1_555
Na13 Na27 3.676068 1_555
Na14 Na31 3.536898 1_555
Na14 Na57 3.663532 1_555
Na14 Na20 3.663532 1_555
Na14 Na21 3.676068 1_555
Na14 Na18 3.676068 1_555
Na14 Na39 3.853654 1_555
Na15 Na18 3.557988 1_555
Na15 Na29 3.585945 1_555
Na15 Na49 3.634467 1_555
Na15 Na28 3.676068 1_555
Na16 Na56 3.585945 1_555
Na16 Na40 3.635270 1_455
Na16 Na50 3.635270 1_455
Na16 Na45 3.663532 1_555
Na16 Na37 3.681043 1_555
Na17 Na42 3.611042 1_555
Na17 Na44 3.635270 1_565
Na17 Na29 3.635270 1_555
Na17 Na33 3.784385 1_555
Na18 Na57 3.585945 1_555
Na18 Na21 3.634467 1_555
Na18 Na39 3.676068 1_555
Na19 Na50 3.611042 1_555
Na19 Na20 3.635270 1_556
Na19 Na4 3.635270 1_655
Na19 Na8 3.784385 1_555
Na19 Na51 3.784385 1_555
Na20 Na21 3.585945 1_555
Na20 Na8 3.635270 1_554
Na20 Na39 3.663532 1_555
Na20 Na31 3.681043 1_555
Na21 Na48 3.557988 1_555
Na21 Na22 3.557988 1_555
Na21 Na39 3.676068 1_555
Na22 Na48 3.557988 1_555
Na22 Na41 3.585945 1_555
Na22 Na43 3.676068 1_555
Na23 Na48 3.585945 1_555
Na23 Na33 3.635270 1_554
Na23 Na47 3.663532 1_555
Na23 Na52 3.681043 1_555
Na24 Na26 3.555565 1_455
Na24 Na52 3.555565 1_545
Na24 Na37 3.555565 1_554
Na24 Na6 3.812239 1_554
Na24 Na35 3.812240 1_455
Na24 Na3 3.812240 1_545
Na25 Na7 3.536898 1_555
Na25 Na27 3.536898 1_555
Na25 Na35 3.555565 1_556
Na25 Na6 3.555565 1_655
Na25 Na34 3.681043 1_555
Na25 Na36 3.681043 1_555
Na26 Na43 3.536898 1_555
Na26 Na35 3.555565 1_555
Na26 Na5 3.681043 1_555
Na26 Na41 3.681043 1_555
Na27 Na34 3.663532 1_555
Na27 Na36 3.663532 1_555
Na27 Na30 3.676068 1_555
Na27 Na7 3.853654 1_555
Na28 Na54 3.536898 1_555
Na28 Na29 3.663532 1_555
Na28 Na4 3.663532 1_555
Na28 Na49 3.676068 1_555
Na29 Na54 3.681043 1_555
Na30 Na9 3.557988 1_555
Na30 Na36 3.585945 1_555
Na30 Na7 3.676068 1_555
Na31 Na39 3.536898 1_555
Na31 Na35 3.555565 1_565
Na31 Na57 3.681043 1_555
Na32 Na51 3.611042 1_555
Na32 Na38 3.635270 1_655
Na32 Na5 3.635270 1_565
Na32 Na42 3.784385 1_555
Na32 Na53 3.784385 1_555
Na33 Na8 3.611042 1_555
Na33 Na44 3.635270 1_565
Na34 Na46 3.635270 1_555
Na34 Na40 3.635270 1_555
Na34 Na7 3.663532 1_555
Na35 Na6 3.812240 1_654
Na36 Na51 3.635270 1_545
Na36 Na8 3.635270 1_545
Na36 Na7 3.663532 1_555
Na37 Na45 3.536898 1_555
Na37 Na6 3.555565 1_555
Na37 Na44 3.681043 1_555
Na38 Na55 3.585945 1_555
Na38 Na53 3.635270 1_455
Na38 Na47 3.663532 1_555
Na38 Na52 3.681043 1_555
Na39 Na57 3.663532 1_555
Na40 Na53 3.611042 1_555
Na40 Na50 3.784385 1_555
Na40 Na46 3.784385 1_555
Na41 Na46 3.635270 1_554
Na41 Na50 3.635270 1_554
Na41 Na43 3.663532 1_555
Na42 Na5 3.635270 1_565
Na42 Na57 3.635270 1_555
Na42 Na53 3.784385 1_555
Na43 Na5 3.663532 1_555
Na44 Na9 3.585945 1_555
Na44 Na45 3.663532 1_555
Na45 Na9 3.676068 1_555
Na45 Na56 3.676068 1_555
Na46 Na50 3.784385 1_555
Na47 Na52 3.536898 1_555
Na47 Na48 3.676068 1_555
Na47 Na55 3.676068 1_555
Na48 Na55 3.634467 1_555
Na49 Na55 3.557988 1_555
Na49 Na56 3.557988 1_555
Na51 Na8 3.784385 1_555
Na53 Na57 3.635270 1_555
Na54 Na6 3.555565 1_565
Na55 Na56 3.557988 1_555
Na56 Na9 3.634467 1_555
Li0 Li24 3.132337 1_455
Li0 Li14 3.132337 1_545
Li0 Li7 3.132337 1_554
Li0 Li16 3.151312 1_555
Li0 Li15 3.151312 1_555
Li0 Li5 3.151312 1_555
Li0 Li25 3.248196 1_555
Li0 Li23 3.248196 1_555
Li0 Li21 3.248196 1_555
Li1 Li12 3.132337 1_555
Li1 Li22 3.132337 1_455
Li1 Li9 3.132337 1_545
Li1 Li19 3.151312 1_555
Li1 Li16 3.151312 1_555
Li1 Li15 3.151312 1_555
Li1 Li18 3.248196 1_555
Li1 Li6 3.248196 1_555
Li1 Li25 3.248196 1_555
Li2 Na39 3.276038 1_555
Li2 Li21 3.285020 1_655
Li2 Li6 3.285020 1_655
Li3 Li5 3.082782 1_555
Li3 Li4 3.248196 1_555
Li3 Li8 3.285020 1_554
Li4 Li8 3.132337 1_554
Li4 Li5 3.151312 1_555
Li5 Li7 2.969939 1_554
Li5 Li8 2.969939 1_554
Li7 Na1 3.276038 1_555
Li8 Na27 3.276038 1_555
Li9 Na28 3.276038 1_555
Li10 Li11 3.132337 1_555
Li10 Li20 3.132337 1_554
Li10 Li2 3.132337 1_455
Li10 Li19 3.151312 1_555
Li10 Li5 3.151312 1_555
Li10 Li15 3.151312 1_555
Li10 Li6 3.248196 1_555
Li10 Li3 3.248196 1_555
Li10 Li21 3.248196 1_555
Li11 Li19 2.969939 1_555
Li11 Na12 3.276038 1_555
Li11 Li3 3.285020 1_555
Li11 Li6 3.285020 1_555
Li12 Li19 2.969939 1_555
Li12 Na45 3.276038 1_555
Li12 Li6 3.285020 1_555
Li12 Li18 3.285020 1_555
Li13 Li19 2.969939 1_555
Li13 Li4 3.132337 1_555
Li13 Na2 3.276038 1_555
Li13 Li3 3.285020 1_555
Li13 Li18 3.285020 1_555
Li14 Li16 2.969939 1_565
Li14 Na47 3.276038 1_555
Li14 Li25 3.285020 1_565
Li14 Li23 3.285020 1_565
Li15 Li24 2.969939 1_455
Li15 Li2 2.969939 1_455
Li15 Li22 2.969939 1_455
Li15 Li16 3.045457 1_555
Li15 Li5 3.045457 1_555
Li15 Li19 3.045457 1_555
Li15 Li21 3.082782 1_555
Li15 Li25 3.082782 1_555
Li15 Li6 3.082782 1_555
Li16 Li17 2.969939 1_545
Li16 Li9 2.969939 1_545
Li16 Li5 3.045457 1_555
Li16 Li19 3.045457 1_555
Li16 Li23 3.082782 1_555
Li16 Li25 3.082782 1_555
Li16 Li18 3.082782 1_555
Li16 Li4 3.151312 1_555
Li17 Li4 3.132337 1_565
Li17 Na14 3.276038 1_555
Li17 Li23 3.285020 1_565
Li17 Li18 3.285020 1_565
Li18 Li19 3.082782 1_555
Li18 Li4 3.248196 1_555
Li18 Li9 3.285020 1_545
Li19 Li5 3.045457 1_555
Li19 Li6 3.082782 1_555
Li19 Li3 3.082782 1_555
Li19 Li4 3.151312 1_555
Li20 Li5 2.969939 1_556
Li20 Na10 3.276038 1_555
Li20 Li3 3.285020 1_556
Li20 Li21 3.285020 1_556
Li21 Li5 3.082782 1_555
Li21 Li7 3.285020 1_554
Li21 Li24 3.285020 1_455
Li22 Na7 3.276038 1_555
Li22 Li25 3.285020 1_655
Li22 Li6 3.285020 1_655
Li23 Li5 3.082782 1_555
Li23 Li4 3.248196 1_555
Li23 Li7 3.285020 1_554
Li23 Li8 3.285020 1_554
Li24 Na43 3.276038 1_555
Li24 Li25 3.285020 1_655
Li25 Li9 3.285020 1_545
