# generated using pymatgen
data_BaMo2(PO4)4
_symmetry_space_group_name_H-M   'P 1'
_cell_length_a   7.92847001
_cell_length_b   8.02347137
_cell_length_c   12.31612281
_cell_angle_alpha   50.96488423
_cell_angle_beta   90.00000000
_cell_angle_gamma   90.00000000
_symmetry_Int_Tables_number   1
_chemical_formula_structural   BaMo2(PO4)4
_chemical_formula_sum   'Ba2 Mo4 P8 O32'
_cell_volume   608.57291850
_cell_formula_units_Z   2
loop_
 _symmetry_equiv_pos_site_id
 _symmetry_equiv_pos_as_xyz
  1  'x, y, z'
loop_
 _atom_site_type_symbol
 _atom_site_label
 _atom_site_symmetry_multiplicity
 _atom_site_fract_x
 _atom_site_fract_y
 _atom_site_fract_z
 _atom_site_occupancy
  Ba  Ba0  1  0.50000000  -0.00000000  0.50000000  1
  Ba  Ba1  1  -0.00000000  -0.00000000  0.00000000  1
  Mo  Mo0  1  0.77663768  0.61561951  0.83844185  1
  Mo  Mo1  1  0.22336232  0.38438049  0.16155815  1
  Mo  Mo2  1  0.72336232  0.61561951  0.33844185  1
  Mo  Mo3  1  0.27663768  0.38438049  0.66155815  1
  P  P0  1  0.89786376  0.03672993  0.28871113  1
  P  P1  1  0.39786376  0.96327007  0.21128887  1
  P  P2  1  0.60213624  0.03672993  0.78871113  1
  P  P3  1  0.09158583  0.34598143  0.43279861  1
  P  P4  1  0.59158583  0.65401857  0.06720139  1
  P  P5  1  0.10213624  0.96327007  0.71128887  1
  P  P6  1  0.90841417  0.65401857  0.56720139  1
  P  P7  1  0.40841417  0.34598143  0.93279861  1
  O  O0  1  0.24790707  0.88535495  0.67981299  1
  O  O1  1  0.00071755  0.13852245  0.56404923  1
  O  O2  1  0.19481514  0.28004554  0.36031653  1
  O  O3  1  0.49928245  0.13852245  0.06404923  1
  O  O4  1  0.12352900  0.61849417  0.07972738  1
  O  O5  1  0.75209293  0.11464505  0.32018701  1
  O  O6  1  0.69481514  0.71995446  0.13968347  1
  O  O7  1  0.74790707  0.11464505  0.82018701  1
  O  O8  1  0.97085330  0.79487049  0.81050839  1
  O  O9  1  0.37647100  0.61849417  0.57972738  1
  O  O10  1  0.62352900  0.38150583  0.42027262  1
  O  O11  1  0.87647100  0.38150583  0.92027262  1
  O  O12  1  0.85647891  0.91222491  0.23592079  1
  O  O13  1  0.80518486  0.71995446  0.63968347  1
  O  O14  1  0.71151582  0.57537063  0.01203173  1
  O  O15  1  0.47085330  0.20512951  0.68949161  1
  O  O16  1  0.14352109  0.08777509  0.76407921  1
  O  O17  1  0.64352109  0.91222491  0.73592079  1
  O  O18  1  0.95591831  0.50473705  0.33687900  1
  O  O19  1  0.25209293  0.88535495  0.17981299  1
  O  O20  1  0.02914670  0.20512951  0.18949161  1
  O  O21  1  0.04408169  0.49526295  0.66312100  1
  O  O22  1  0.78848418  0.57537063  0.51203173  1
  O  O23  1  0.21151582  0.42462937  0.48796827  1
  O  O24  1  0.50071755  0.86147755  0.93595077  1
  O  O25  1  -0.00071755  0.86147755  0.43595077  1
  O  O26  1  0.35647891  0.08777509  0.26407921  1
  O  O27  1  0.54408169  0.50473705  0.83687900  1
  O  O28  1  0.52914670  0.79487049  0.31050839  1
  O  O29  1  0.30518486  0.28004554  0.86031653  1
  O  O30  1  0.45591831  0.49526295  0.16312100  1
  O  O31  1  0.28848418  0.42462937  0.98796827  1
loop_
_geom_bond_atom_site_label_1
_geom_bond_atom_site_label_2
_geom_bond_distance
_geom_bond_site_symmetry_2
Ba0 O0 2.679459 1_545
Ba0 O5 2.679459 1_555
Ba0 O9 2.739924 1_545
Ba0 O10 2.739924 1_555
Ba0 O26 2.766940 1_555
Ba0 O17 2.766940 1_545
Ba0 O2 2.999009 1_555
Ba0 O13 2.999009 1_545
Ba1 O7 2.679459 1_454
Ba1 O19 2.679459 1_545
Ba1 O4 2.739924 1_545
Ba1 O11 2.739924 1_454
Ba1 O16 2.766940 1_554
Ba1 O12 2.766940 1_445
Ba1 O6 2.999009 1_445
Ba1 O29 2.999009 1_554
Mo0 O11 1.669156 1_555
Mo0 O8 1.983600 1_555
Mo0 O14 2.017937 1_556
Mo0 O13 2.040388 1_555
Mo0 O27 2.052580 1_555
Mo0 O17 2.141668 1_555
Mo1 O4 1.669156 1_555
Mo1 O20 1.983600 1_555
Mo1 O31 2.017937 1_554
Mo1 O2 2.040388 1_555
Mo1 O30 2.052580 1_555
Mo1 O26 2.141668 1_555
Mo2 O10 1.669156 1_555
Mo2 O28 1.983600 1_555
Mo2 O22 2.017937 1_555
Mo2 O6 2.040388 1_555
Mo2 O18 2.052580 1_555
Mo2 O12 2.141668 1_555
Mo3 O9 1.669156 1_555
Mo3 O15 1.983600 1_555
Mo3 O23 2.017937 1_555
Mo3 O29 2.040388 1_555
Mo3 O21 2.052580 1_555
Mo3 O16 2.141668 1_555
O0 P5 1.477188 1_555
O1 P3 1.585429 1_555
O1 P5 1.643297 1_545
O2 P3 1.530201 1_555
O3 P7 1.585429 1_554
O3 P1 1.643297 1_545
O5 P0 1.477188 1_555
O6 P4 1.530201 1_555
O7 P2 1.477188 1_555
O8 P5 1.524003 1_655
O12 P0 1.531801 1_565
O13 P6 1.530201 1_555
O14 P4 1.517926 1_555
O15 P2 1.524003 1_555
O16 P5 1.531801 1_545
O17 P2 1.531801 1_565
O18 P3 1.509861 1_655
O19 P1 1.477188 1_555
O20 P0 1.524003 1_455
O21 P6 1.509861 1_455
O22 P6 1.517926 1_555
O23 P3 1.517926 1_555
O24 P4 1.585429 1_556
O24 P2 1.643297 1_565
O25 P6 1.585429 1_455
O25 P0 1.643297 1_465
O26 P1 1.531801 1_545
O27 P7 1.509861 1_555
O28 P1 1.524003 1_555
O29 P7 1.530201 1_555
O30 P4 1.509861 1_555
O31 P7 1.517926 1_555
