# generated using pymatgen
data_Sr7Zr(Si2O7)3
_symmetry_space_group_name_H-M   'P 1'
_cell_length_a   8.51788771
_cell_length_b   8.51788771
_cell_length_c   8.51788847
_cell_angle_alpha   106.06693828
_cell_angle_beta   106.06693828
_cell_angle_gamma   106.06694081
_symmetry_Int_Tables_number   1
_chemical_formula_structural   Sr7Zr(Si2O7)3
_chemical_formula_sum   'Sr7 Zr1 Si6 O21'
_cell_volume   527.23703164
_cell_formula_units_Z   1
loop_
 _symmetry_equiv_pos_site_id
 _symmetry_equiv_pos_as_xyz
  1  'x, y, z'
loop_
 _atom_site_type_symbol
 _atom_site_label
 _atom_site_symmetry_multiplicity
 _atom_site_fract_x
 _atom_site_fract_y
 _atom_site_fract_z
 _atom_site_occupancy
  Sr  Sr0  1  0.15176400  0.62844100  0.75051500  1
  Sr  Sr1  1  0.24948500  0.84823600  0.37155900  1
  Sr  Sr2  1  0.50000000  0.50000000  0.50000000  1
  Sr  Sr3  1  0.84823600  0.37155900  0.24948500  1
  Sr  Sr4  1  0.75051500  0.15176400  0.62844100  1
  Sr  Sr5  1  0.37155900  0.24948500  0.84823600  1
  Sr  Sr6  1  0.62844100  0.75051500  0.15176400  1
  Zr  Zr0  1  0.00000000  0.00000000  0.00000000  1
  Si  Si0  1  0.54200200  0.92696600  0.81711600  1
  Si  Si1  1  0.81711600  0.54200200  0.92696600  1
  Si  Si2  1  0.07303400  0.18288400  0.45799800  1
  Si  Si3  1  0.18288400  0.45799800  0.07303400  1
  Si  Si4  1  0.92696600  0.81711600  0.54200200  1
  Si  Si5  1  0.45799800  0.07303400  0.18288400  1
  O  O0  1  0.71479000  0.74509500  0.45536200  1
  O  O1  1  0.45816700  0.01222700  0.68138800  1
  O  O2  1  0.24218200  0.98322500  0.12481100  1
  O  O3  1  0.98322500  0.12481100  0.24218200  1
  O  O4  1  0.45536200  0.71479000  0.74509500  1
  O  O5  1  0.68138800  0.45816700  0.01222700  1
  O  O6  1  0.54463800  0.28521000  0.25490500  1
  O  O7  1  0.74509500  0.45536200  0.71479000  1
  O  O8  1  0.98777300  0.31861200  0.54183300  1
  O  O9  1  0.75781800  0.01677500  0.87518900  1
  O  O10  1  0.01222700  0.68138800  0.45816700  1
  O  O11  1  0.28521000  0.25490500  0.54463800  1
  O  O12  1  0.01677500  0.87518900  0.75781800  1
  O  O13  1  0.87518900  0.75781800  0.01677500  1
  O  O14  1  0.50000000  0.00000000  0.00000000  1
  O  O15  1  0.31861200  0.54183300  0.98777300  1
  O  O16  1  0.00000000  0.00000000  0.50000000  1
  O  O17  1  0.54183300  0.98777300  0.31861200  1
  O  O18  1  0.25490500  0.54463800  0.28521000  1
  O  O19  1  0.00000000  0.50000000  0.00000000  1
  O  O20  1  0.12481100  0.24218200  0.98322500  1
loop_
_geom_bond_atom_site_label_1
_geom_bond_atom_site_label_2
_geom_bond_distance
_geom_bond_site_symmetry_2
O0 Si4 1.607705 1_555
O0 Sr6 2.502526 1_555
O0 Sr2 2.561353 1_555
O1 Si0 1.633647 1_545
O1 Sr1 2.462546 1_545
O1 Sr5 2.542435 1_555
O1 Sr4 2.664053 1_555
O2 Si5 1.648647 1_565
O2 Zr0 2.106997 1_565
O2 Sr1 2.654863 1_555
O3 Si2 1.648647 1_655
O3 Zr0 2.106997 1_655
O3 Sr3 2.654863 1_555
O4 Si0 1.607705 1_555
O4 Sr0 2.502526 1_555
O4 Sr2 2.561353 1_555
O5 Si1 1.633647 1_554
O5 Sr5 2.462546 1_554
O5 Sr3 2.542435 1_555
O5 Sr6 2.664053 1_555
O6 Si5 1.607705 1_555
O6 Sr3 2.502526 1_555
O6 Sr2 2.561353 1_555
O7 Si1 1.607705 1_555
O7 Sr4 2.502526 1_555
O7 Sr2 2.561353 1_555
O8 Si2 1.633647 1_655
O8 Sr0 2.462546 1_655
O8 Sr4 2.542435 1_555
O8 Sr3 2.664053 1_555
O9 Si0 1.648647 1_545
O9 Zr0 2.106997 1_656
O9 Sr4 2.654863 1_555
O10 Si4 1.633647 1_455
O10 Sr3 2.462546 1_455
O10 Sr1 2.542435 1_555
O10 Sr0 2.664053 1_555
O11 Si2 1.607705 1_555
O11 Sr5 2.502526 1_555
O11 Sr2 2.561353 1_555
O12 Si4 1.648647 1_455
O12 Zr0 2.106997 1_566
O12 Sr0 2.654863 1_555
O13 Si1 1.648647 1_554
O13 Zr0 2.106997 1_665
O13 Sr6 2.654863 1_555
O14 Si0 1.684331 1_544
O14 Si5 1.684331 1_555
O15 Si3 1.633647 1_556
O15 Sr6 2.462546 1_556
O15 Sr0 2.542435 1_555
O15 Sr5 2.664053 1_555
O16 Si4 1.684331 1_445
O16 Si2 1.684331 1_555
O17 Si5 1.633647 1_565
O17 Sr4 2.462546 1_565
O17 Sr6 2.542435 1_555
O17 Sr1 2.664053 1_555
O18 Si3 1.607705 1_555
O18 Sr1 2.502526 1_555
O18 Sr2 2.561353 1_555
O19 Si1 1.684331 1_454
O19 Si3 1.684331 1_555
O20 Si3 1.648647 1_556
O20 Zr0 2.106997 1_556
O20 Sr5 2.654863 1_555
