# generated using pymatgen
data_Zr2Al3C4
_symmetry_space_group_name_H-M   'P 1'
_cell_length_a   3.24019459
_cell_length_b   3.24019459
_cell_length_c   26.90283100
_cell_angle_alpha   90.00000000
_cell_angle_beta   90.00000000
_cell_angle_gamma   120.00001207
_symmetry_Int_Tables_number   1
_chemical_formula_structural   Zr2Al3C4
_chemical_formula_sum   'Zr4 Al6 C8'
_cell_volume   244.60805130
_cell_formula_units_Z   2
loop_
 _symmetry_equiv_pos_site_id
 _symmetry_equiv_pos_as_xyz
  1  'x, y, z'
loop_
 _atom_site_type_symbol
 _atom_site_label
 _atom_site_symmetry_multiplicity
 _atom_site_fract_x
 _atom_site_fract_y
 _atom_site_fract_z
 _atom_site_occupancy
  Zr  Zr0  1  0.33333300  0.66666700  0.21210600  1
  Zr  Zr1  1  0.66666700  0.33333300  0.31238100  1
  Zr  Zr2  1  0.33333300  0.66666700  0.81238100  1
  Zr  Zr3  1  0.66666700  0.33333300  0.71210600  1
  Al  Al0  1  0.00000000  0.00000000  0.90277700  1
  Al  Al1  1  0.00000000  0.00000000  0.12314100  1
  Al  Al2  1  0.66666700  0.33333300  0.98737600  1
  Al  Al3  1  0.00000000  0.00000000  0.40277700  1
  Al  Al4  1  0.00000000  0.00000000  0.62314100  1
  Al  Al5  1  0.33333300  0.66666700  0.48737600  1
  C  C0  1  0.66666700  0.33333300  0.52188000  1
  C  C1  1  0.33333300  0.66666700  0.66068900  1
  C  C2  1  0.33333300  0.66666700  0.02188000  1
  C  C3  1  0.00000000  0.00000000  0.26623800  1
  C  C4  1  0.33333300  0.66666700  0.07061400  1
  C  C5  1  0.66666700  0.33333300  0.16068900  1
  C  C6  1  0.00000000  0.00000000  0.76623800  1
  C  C7  1  0.66666700  0.33333300  0.57061400  1
loop_
_geom_bond_atom_site_label_1
_geom_bond_atom_site_label_2
_geom_bond_distance
_geom_bond_site_symmetry_2
Al0 Al2 2.946112 1_455
Al0 Al2 2.946113 1_445
Al0 Al2 2.946113 1_555
Al0 Zr2 3.068190 1_545
Al0 Zr2 3.068192 1_555
Al0 Zr2 3.068192 1_445
Al1 C5 2.126032 1_455
Al1 C5 2.126034 1_445
Al1 C5 2.126034 1_555
Al1 C4 2.344469 1_545
Al1 C4 2.344471 1_555
Al1 C4 2.344471 1_445
Al2 C2 2.088365 1_546
Al2 C2 2.088365 1_656
Al2 C2 2.088371 1_556
Al3 Al5 2.946112 1_545
Al3 Al5 2.946113 1_445
Al3 Al5 2.946113 1_555
Al3 Zr1 3.068190 1_455
Al3 Zr1 3.068192 1_445
Al3 Zr1 3.068192 1_555
Al4 C1 2.126032 1_545
Al4 C1 2.126034 1_445
Al4 C1 2.126034 1_555
Al4 C7 2.344469 1_455
Al4 C7 2.344471 1_445
Al4 C7 2.344471 1_555
Al5 C0 2.088365 1_565
Al5 C0 2.088365 1_455
Al5 C0 2.088371 1_555
C0 C7 1.311083 1_555
C1 Zr3 2.326592 1_455
C1 Zr3 2.326592 1_565
C1 Zr3 2.326596 1_555
C2 C4 1.311083 1_555
C3 Zr1 2.245135 1_455
C3 Zr1 2.245137 1_445
C3 Zr1 2.245137 1_555
C3 Zr0 2.370746 1_545
C3 Zr0 2.370748 1_445
C3 Zr0 2.370748 1_555
C5 Zr0 2.326592 1_545
C5 Zr0 2.326592 1_655
C5 Zr0 2.326596 1_555
C6 Zr2 2.245135 1_545
C6 Zr2 2.245137 1_555
C6 Zr2 2.245137 1_445
C6 Zr3 2.370746 1_455
C6 Zr3 2.370748 1_445
C6 Zr3 2.370748 1_555
