# generated using pymatgen
data_LaCo2
_symmetry_space_group_name_H-M   'P 1'
_cell_length_a   5.08987570
_cell_length_b   5.08991223
_cell_length_c   5.08986761
_cell_angle_alpha   60.00087086
_cell_angle_beta   60.00066006
_cell_angle_gamma   60.00096502
_symmetry_Int_Tables_number   1
_chemical_formula_structural   LaCo2
_chemical_formula_sum   'La2 Co4'
_cell_volume   93.24319580
_cell_formula_units_Z   2
loop_
 _symmetry_equiv_pos_site_id
 _symmetry_equiv_pos_as_xyz
  1  'x, y, z'
loop_
 _atom_site_type_symbol
 _atom_site_label
 _atom_site_symmetry_multiplicity
 _atom_site_fract_x
 _atom_site_fract_y
 _atom_site_fract_z
 _atom_site_occupancy
  La  La0  1  0.24998981  0.25000400  0.25000482  1
  La  La1  1  0.00001019  0.99999600  0.99999518  1
  Co  Co0  1  0.62500000  0.62500000  0.12500000  1
  Co  Co1  1  0.62500000  0.12500000  0.62500000  1
  Co  Co2  1  0.12500000  0.62500000  0.62500000  1
  Co  Co3  1  0.62500000  0.62500000  0.62500000  1
loop_
_geom_bond_atom_site_label_1
_geom_bond_atom_site_label_2
_geom_bond_distance
_geom_bond_site_symmetry_2
La0 La1 3.116874 1_544
La0 La1 3.116883 1_545
La0 La1 3.116927 1_554
La0 La1 3.117016 1_644
Co0 Co3 2.544934 1_555
Co0 Co3 2.544934 1_554
Co0 Co2 2.544961 1_654
Co0 Co2 2.544961 1_555
Co0 Co1 2.544978 1_564
Co0 Co1 2.544978 1_555
Co0 La1 2.984198 1_554
Co0 La0 2.984198 1_655
Co0 La0 2.984224 1_555
Co0 La1 2.984224 1_654
Co0 La1 2.984276 1_644
Co0 La0 2.984276 1_565
Co1 Co3 2.544956 1_555
Co1 Co3 2.544956 1_545
Co1 Co2 2.544984 1_555
Co1 Co2 2.544984 1_645
Co1 La1 2.984186 1_545
Co1 La0 2.984186 1_655
Co1 La1 2.984213 1_645
Co1 La0 2.984213 1_555
Co1 La0 2.984249 1_556
Co1 La1 2.984249 1_644
Co2 Co3 2.544938 1_455
Co2 Co3 2.544938 1_555
Co2 La0 2.984191 1_555
Co2 La1 2.984191 1_555
Co2 La1 2.984225 1_554
Co2 La0 2.984225 1_556
Co2 La1 2.984240 1_545
Co2 La0 2.984240 1_565
Co3 La1 2.984201 1_555
Co3 La0 2.984201 1_655
Co3 La1 2.984261 1_654
Co3 La0 2.984261 1_556
Co3 La0 2.984277 1_565
Co3 La1 2.984277 1_645
