# generated using pymatgen
data_Sr2IN
_symmetry_space_group_name_H-M   'P 1'
_cell_length_a   8.09445137
_cell_length_b   8.09445137
_cell_length_c   8.09445181
_cell_angle_alpha   28.77178068
_cell_angle_beta   28.77178068
_cell_angle_gamma   28.77178636
_symmetry_Int_Tables_number   1
_chemical_formula_structural   Sr2IN
_chemical_formula_sum   'Sr2 I1 N1'
_cell_volume   108.63883361
_cell_formula_units_Z   1
loop_
 _symmetry_equiv_pos_site_id
 _symmetry_equiv_pos_as_xyz
  1  'x, y, z'
loop_
 _atom_site_type_symbol
 _atom_site_label
 _atom_site_symmetry_multiplicity
 _atom_site_fract_x
 _atom_site_fract_y
 _atom_site_fract_z
 _atom_site_occupancy
  Sr  Sr0  1  0.22328063  0.22328063  0.22328063  1
  Sr  Sr1  1  0.77671937  0.77671937  0.77671937  1
  I  I0  1  -0.00000000  -0.00000000  0.00000000  1
  N  N0  1  0.50000000  0.50000000  0.50000000  1
loop_
_geom_bond_atom_site_label_1
_geom_bond_atom_site_label_2
_geom_bond_distance
_geom_bond_site_symmetry_2
I0 Sr1 3.456406 1_454
I0 Sr0 3.456406 1_545
I0 Sr0 3.456406 1_455
I0 Sr1 3.456406 1_544
I0 Sr0 3.456407 1_554
I0 Sr1 3.456407 1_445
N0 Sr1 2.669650 1_554
N0 Sr0 2.669650 1_556
N0 Sr1 2.669650 1_455
N0 Sr0 2.669650 1_655
N0 Sr1 2.669650 1_545
N0 Sr0 2.669650 1_565
