# generated using pymatgen
data_KBa3Ca4V7Cu3O28
_symmetry_space_group_name_H-M   'P 1'
_cell_length_a   11.42723405
_cell_length_b   11.42723405
_cell_length_c   12.45572300
_cell_angle_alpha   90.00000000
_cell_angle_beta   90.00000000
_cell_angle_gamma   120.00000031
_symmetry_Int_Tables_number   1
_chemical_formula_structural   KBa3Ca4V7Cu3O28
_chemical_formula_sum   'K2 Ba6 Ca8 V14 Cu6 O56'
_cell_volume   1408.58097160
_cell_formula_units_Z   2
loop_
 _symmetry_equiv_pos_site_id
 _symmetry_equiv_pos_as_xyz
  1  'x, y, z'
loop_
 _atom_site_type_symbol
 _atom_site_label
 _atom_site_symmetry_multiplicity
 _atom_site_fract_x
 _atom_site_fract_y
 _atom_site_fract_z
 _atom_site_occupancy
  K  K0  1  0.33333300  0.66666700  0.43426300  1
  K  K1  1  0.66666700  0.33333300  0.93426300  1
  Ba  Ba0  1  0.14107200  0.85892800  0.24968000  1
  Ba  Ba1  1  0.14107200  0.28214400  0.24968000  1
  Ba  Ba2  1  0.85892800  0.14107200  0.74968000  1
  Ba  Ba3  1  0.85892800  0.71785600  0.74968000  1
  Ba  Ba4  1  0.28214400  0.14107200  0.74968000  1
  Ba  Ba5  1  0.71785600  0.85892800  0.24968000  1
  Ca  Ca0  1  0.00000000  0.00000000  0.99714700  1
  Ca  Ca1  1  0.54108600  0.45891400  0.53426600  1
  Ca  Ca2  1  0.08217300  0.54108600  0.03426600  1
  Ca  Ca3  1  0.45891400  0.91782700  0.03426600  1
  Ca  Ca4  1  0.54108600  0.08217300  0.53426600  1
  Ca  Ca5  1  0.45891400  0.54108600  0.03426600  1
  Ca  Ca6  1  0.91782700  0.45891400  0.53426600  1
  Ca  Ca7  1  0.00000000  0.00000000  0.49714700  1
  V  V0  1  0.17779900  0.35559900  0.58644600  1
  V  V1  1  0.17556700  0.35113400  0.90905000  1
  V  V2  1  0.82220100  0.17779900  0.08644600  1
  V  V3  1  0.64886600  0.82443300  0.90905000  1
  V  V4  1  0.17779900  0.82220100  0.58644600  1
  V  V5  1  0.35559900  0.17779900  0.08644600  1
  V  V6  1  0.82220100  0.64440100  0.08644600  1
  V  V7  1  0.82443300  0.64886600  0.40905000  1
  V  V8  1  0.64440100  0.82220100  0.58644600  1
  V  V9  1  0.82443300  0.17556700  0.40905000  1
  V  V10  1  0.35113400  0.17556700  0.40905000  1
  V  V11  1  0.33333300  0.66666700  0.17960100  1
  V  V12  1  0.66666700  0.33333300  0.67960100  1
  V  V13  1  0.17556700  0.82443300  0.90905000  1
  Cu  Cu0  1  0.08421100  0.54210600  0.75196700  1
  Cu  Cu1  1  0.54210600  0.45789400  0.25196700  1
  Cu  Cu2  1  0.45789400  0.91578900  0.75196700  1
  Cu  Cu3  1  0.91578900  0.45789400  0.25196700  1
  Cu  Cu4  1  0.45789400  0.54210600  0.75196700  1
  Cu  Cu5  1  0.54210600  0.08421100  0.25196700  1
  O  O0  1  0.19371000  0.38742100  0.45233800  1
  O  O1  1  0.57621100  0.91979500  0.63935800  1
  O  O2  1  0.66666700  0.33333300  0.53858400  1
  O  O3  1  0.33333300  0.66666700  0.03858400  1
  O  O4  1  0.18186300  0.09093100  0.37245100  1
  O  O5  1  0.58302200  0.41697800  0.72092300  1
  O  O6  1  0.90906900  0.81813700  0.37245100  1
  O  O7  1  0.65641600  0.57621100  0.13935800  1
  O  O8  1  0.16604300  0.58302200  0.22092300  1
  O  O9  1  0.65641600  0.08020500  0.13935800  1
  O  O10  1  0.57621100  0.65641600  0.63935800  1
  O  O11  1  0.37795000  0.18897500  0.54532300  1
  O  O12  1  0.83395700  0.41697800  0.72092300  1
  O  O13  1  0.08020500  0.42378900  0.63935800  1
  O  O14  1  0.90906900  0.09093100  0.37245100  1
  O  O15  1  0.41697800  0.58302200  0.22092300  1
  O  O16  1  0.81102500  0.62205000  0.54532300  1
  O  O17  1  0.18897500  0.81102500  0.04532300  1
  O  O18  1  0.38742100  0.19371000  0.95233800  1
  O  O19  1  0.80629000  0.19371000  0.95233800  1
  O  O20  1  0.42378900  0.08020500  0.13935800  1
  O  O21  1  0.18390500  0.09195300  0.11596200  1
  O  O22  1  0.42378900  0.34358400  0.13935800  1
  O  O23  1  0.09093100  0.90906900  0.87245100  1
  O  O24  1  0.09093100  0.18186300  0.87245100  1
  O  O25  1  0.62205000  0.81102500  0.04532300  1
  O  O26  1  0.08216100  0.65619400  0.86415600  1
  O  O27  1  0.65619400  0.57403200  0.36415600  1
  O  O28  1  0.42596800  0.34380600  0.36415600  1
  O  O29  1  0.91979500  0.34358400  0.13935800  1
  O  O30  1  0.57403200  0.65619400  0.86415600  1
  O  O31  1  0.08216100  0.42596800  0.86415600  1
  O  O32  1  0.91979500  0.57621100  0.13935800  1
  O  O33  1  0.34358400  0.42378900  0.63935800  1
  O  O34  1  0.65619400  0.08216100  0.36415600  1
  O  O35  1  0.90804700  0.81609500  0.11596200  1
  O  O36  1  0.81813700  0.90906900  0.87245100  1
  O  O37  1  0.34380600  0.91783900  0.86415600  1
  O  O38  1  0.18897500  0.37795000  0.04532300  1
  O  O39  1  0.57403200  0.91783900  0.86415600  1
  O  O40  1  0.81609500  0.90804700  0.61596200  1
  O  O41  1  0.91783900  0.57403200  0.36415600  1
  O  O42  1  0.09195300  0.18390500  0.61596200  1
  O  O43  1  0.34358400  0.91979500  0.63935800  1
  O  O44  1  0.91783900  0.34380600  0.36415600  1
  O  O45  1  0.58302200  0.16604300  0.72092300  1
  O  O46  1  0.61257900  0.80629000  0.45233800  1
  O  O47  1  0.42596800  0.08216100  0.36415600  1
  O  O48  1  0.19371000  0.80629000  0.45233800  1
  O  O49  1  0.41697800  0.83395700  0.22092300  1
  O  O50  1  0.81102500  0.18897500  0.54532300  1
  O  O51  1  0.08020500  0.65641600  0.63935800  1
  O  O52  1  0.09195300  0.90804700  0.61596200  1
  O  O53  1  0.34380600  0.42596800  0.86415600  1
  O  O54  1  0.90804700  0.09195300  0.11596200  1
  O  O55  1  0.80629000  0.61257900  0.95233800  1
loop_
_geom_bond_atom_site_label_1
_geom_bond_atom_site_label_2
_geom_bond_distance
_geom_bond_site_symmetry_2
K0 O0 2.772651 1_555
K0 O46 2.772651 1_555
K0 O48 2.772651 1_555
K0 O49 3.130831 1_555
K0 O8 3.130831 1_555
K0 O15 3.130831 1_555
K1 O18 2.772651 1_555
K1 O55 2.772651 1_555
K1 O19 2.772651 1_555
K1 O45 3.130831 1_555
K1 O12 3.130831 1_555
K1 O5 3.130831 1_555
Ba0 O17 2.716260 1_555
Ba0 O48 2.730802 1_555
Ba0 O6 2.889388 1_455
Ba0 O4 2.889388 1_565
Ba0 O21 2.966641 1_565
Ba0 O35 2.966641 1_455
Ba0 O20 3.248110 1_565
Ba0 O32 3.248110 1_455
Ba0 O47 3.291566 1_565
Ba0 O41 3.291566 1_455
Ba0 O8 3.324124 1_555
Ba0 O49 3.324124 1_555
Ba1 O38 2.716260 1_555
Ba1 O0 2.730806 1_555
Ba1 O14 2.889392 1_455
Ba1 O4 2.889398 1_555
Ba1 O21 2.966632 1_555
Ba1 O54 2.966638 1_455
Ba1 O22 3.248110 1_555
Ba1 O29 3.248110 1_455
Ba1 O44 3.291560 1_455
Ba1 O28 3.291570 1_555
Ba1 O15 3.324131 1_555
Ba1 O8 3.324135 1_555
Ba2 O50 2.716260 1_555
Ba2 O19 2.730802 1_555
Ba2 O36 2.889388 1_545
Ba2 O24 2.889388 1_655
Ba2 O42 2.966641 1_655
Ba2 O40 2.966641 1_545
Ba2 O13 3.248110 1_655
Ba2 O1 3.248110 1_545
Ba2 O31 3.291566 1_655
Ba2 O39 3.291566 1_545
Ba2 O45 3.324124 1_555
Ba2 O12 3.324124 1_555
Ba3 O16 2.716260 1_555
Ba3 O55 2.730806 1_555
Ba3 O23 2.889392 1_655
Ba3 O36 2.889398 1_555
Ba3 O40 2.966632 1_555
Ba3 O52 2.966638 1_655
Ba3 O10 3.248110 1_555
Ba3 O51 3.248110 1_655
Ba3 O26 3.291560 1_655
Ba3 O30 3.291570 1_555
Ba3 O5 3.324131 1_555
Ba3 O12 3.324135 1_555
Ba4 O11 2.716260 1_555
Ba4 O18 2.730806 1_555
Ba4 O23 2.889392 1_545
Ba4 O24 2.889398 1_555
Ba4 O42 2.966632 1_555
Ba4 O52 2.966638 1_545
Ba4 O33 3.248110 1_555
Ba4 O43 3.248110 1_545
Ba4 O37 3.291560 1_545
Ba4 O53 3.291570 1_555
Ba4 O5 3.324131 1_555
Ba4 O45 3.324135 1_555
Ba5 O25 2.716260 1_555
Ba5 O46 2.730806 1_555
Ba5 O14 2.889392 1_565
Ba5 O6 2.889398 1_555
Ba5 O35 2.966632 1_555
Ba5 O54 2.966638 1_565
Ba5 O7 3.248110 1_555
Ba5 O9 3.248110 1_565
Ba5 O34 3.291560 1_565
Ba5 O27 3.291570 1_555
Ba5 O15 3.324131 1_555
Ba5 O49 3.324135 1_555
Ca0 O35 2.345739 1_446
Ca0 O21 2.345739 1_556
Ca0 O54 2.345746 1_456
Ca0 O23 2.377286 1_545
Ca0 O24 2.377293 1_555
Ca0 O36 2.377293 1_445
Ca1 O10 2.462175 1_555
Ca1 O33 2.462175 1_555
Ca1 O5 2.468667 1_555
Ca1 O2 2.486150 1_555
Ca1 O28 2.493960 1_555
Ca1 O27 2.493960 1_555
Ca1 O11 2.694233 1_555
Ca1 O16 2.694233 1_555
Ca2 O29 2.462178 1_455
Ca2 O32 2.462185 1_455
Ca2 O8 2.468660 1_555
Ca2 O3 2.486130 1_555
Ca2 O31 2.493953 1_554
Ca2 O26 2.493966 1_554
Ca2 O38 2.694224 1_555
Ca2 O17 2.694235 1_555
Ca3 O9 2.462178 1_565
Ca3 O20 2.462185 1_565
Ca3 O49 2.468660 1_555
Ca3 O3 2.486130 1_555
Ca3 O39 2.493953 1_554
Ca3 O37 2.493966 1_554
Ca3 O25 2.694224 1_555
Ca3 O17 2.694235 1_555
Ca4 O43 2.462178 1_545
Ca4 O1 2.462185 1_545
Ca4 O45 2.468660 1_555
Ca4 O2 2.486130 1_555
Ca4 O47 2.493953 1_555
Ca4 O34 2.493966 1_555
Ca4 O11 2.694224 1_555
Ca4 O50 2.694235 1_555
Ca5 O22 2.462175 1_555
Ca5 O7 2.462175 1_555
Ca5 O15 2.468667 1_555
Ca5 O3 2.486150 1_555
Ca5 O53 2.493960 1_554
Ca5 O30 2.493960 1_554
Ca5 O38 2.694233 1_555
Ca5 O25 2.694233 1_555
Ca6 O51 2.462178 1_655
Ca6 O13 2.462185 1_655
Ca6 O12 2.468660 1_555
Ca6 O2 2.486130 1_555
Ca6 O41 2.493953 1_555
Ca6 O44 2.493966 1_555
Ca6 O16 2.694224 1_555
Ca6 O50 2.694235 1_555
Ca7 O40 2.345739 1_445
Ca7 O42 2.345739 1_555
Ca7 O52 2.345746 1_545
Ca7 O14 2.377286 1_455
Ca7 O6 2.377293 1_445
Ca7 O4 2.377293 1_555
Cu0 O31 1.919235 1_555
Cu0 O26 1.919235 1_555
Cu0 O51 1.932753 1_555
Cu0 O13 1.932761 1_555
Cu0 O12 2.506587 1_455
Cu1 O28 1.919235 1_555
Cu1 O27 1.919235 1_555
Cu1 O22 1.932757 1_555
Cu1 O7 1.932757 1_555
Cu1 O15 2.506607 1_555
Cu2 O39 1.919235 1_555
Cu2 O37 1.919235 1_555
Cu2 O43 1.932753 1_555
Cu2 O1 1.932761 1_555
Cu2 O45 2.506587 1_565
Cu3 O41 1.919235 1_555
Cu3 O44 1.919235 1_555
Cu3 O29 1.932753 1_555
Cu3 O32 1.932761 1_555
Cu3 O8 2.506587 1_655
Cu4 O53 1.919235 1_555
Cu4 O30 1.919235 1_555
Cu4 O33 1.932757 1_555
Cu4 O10 1.932757 1_555
Cu4 O5 2.506607 1_555
Cu5 O47 1.919235 1_555
Cu5 O34 1.919235 1_555
Cu5 O9 1.932753 1_555
Cu5 O20 1.932761 1_555
Cu5 O49 2.506587 1_545
O0 V0 1.699838 1_555
O1 V8 1.776033 1_555
O2 V12 1.756469 1_555
O3 V11 1.756469 1_555
O4 V10 1.736073 1_555
O5 V12 1.733710 1_555
O6 V7 1.736073 1_555
O7 V6 1.776043 1_555
O8 V11 1.733710 1_555
O9 V2 1.776042 1_555
O10 V8 1.776043 1_555
O11 V10 1.717999 1_555
O12 V12 1.733710 1_555
O13 V0 1.776033 1_555
O14 V9 1.736083 1_555
O15 V11 1.733710 1_555
O16 V7 1.717999 1_555
O17 V13 1.717999 1_554
O18 V5 1.699838 1_556
O19 V2 1.699838 1_556
O20 V5 1.776033 1_555
O21 V5 1.738450 1_555
O22 V5 1.776043 1_555
O23 V13 1.736083 1_555
O24 V1 1.736073 1_555
O25 V3 1.717999 1_554
O26 V13 1.759538 1_555
O27 V7 1.759538 1_555
O28 V10 1.759538 1_555
O29 V2 1.776042 1_555
O30 V3 1.759538 1_555
O31 V1 1.759547 1_555
O32 V6 1.776033 1_555
O33 V0 1.776043 1_555
O34 V9 1.759538 1_555
O35 V6 1.738450 1_555
O36 V3 1.736073 1_555
O37 V13 1.759538 1_555
O38 V1 1.717999 1_554
O39 V3 1.759547 1_555
O40 V8 1.738450 1_555
O41 V7 1.759547 1_555
O42 V0 1.738450 1_555
O43 V4 1.776042 1_555
O44 V9 1.759538 1_555
O45 V12 1.733710 1_555
O46 V8 1.699838 1_555
O47 V10 1.759547 1_555
O48 V4 1.699838 1_555
O49 V11 1.733710 1_555
O50 V9 1.717999 1_555
O51 V4 1.776042 1_555
O52 V4 1.738430 1_555
O53 V1 1.759538 1_555
O54 V2 1.738430 1_555
O55 V6 1.699838 1_556
