# generated using pymatgen
data_Mn3Si(O2F)2
_symmetry_space_group_name_H-M   'P 1'
_cell_length_a   4.92629400
_cell_length_b   9.32330300
_cell_length_c   10.96064100
_cell_angle_alpha   90.00000000
_cell_angle_beta   90.00000000
_cell_angle_gamma   90.00000000
_symmetry_Int_Tables_number   1
_chemical_formula_structural   Mn3Si(O2F)2
_chemical_formula_sum   'Mn12 Si4 O16 F8'
_cell_volume   503.41491536
_cell_formula_units_Z   4
loop_
 _symmetry_equiv_pos_site_id
 _symmetry_equiv_pos_as_xyz
  1  'x, y, z'
loop_
 _atom_site_type_symbol
 _atom_site_label
 _atom_site_symmetry_multiplicity
 _atom_site_fract_x
 _atom_site_fract_y
 _atom_site_fract_z
 _atom_site_occupancy
  Mn  Mn0  1  0.99348900  0.75000000  0.91187700  1
  Mn  Mn1  1  0.98550500  0.42994200  0.36246600  1
  Mn  Mn2  1  0.48550500  0.92994200  0.13753400  1
  Mn  Mn3  1  0.98550500  0.07005800  0.36246600  1
  Mn  Mn4  1  0.01449500  0.92994200  0.63753400  1
  Mn  Mn5  1  0.00651100  0.25000000  0.08812300  1
  Mn  Mn6  1  0.51449500  0.42994200  0.86246600  1
  Mn  Mn7  1  0.48550500  0.57005800  0.13753400  1
  Mn  Mn8  1  0.01449500  0.57005800  0.63753400  1
  Mn  Mn9  1  0.50651100  0.75000000  0.41187700  1
  Mn  Mn10  1  0.51449500  0.07005800  0.86246600  1
  Mn  Mn11  1  0.49348900  0.25000000  0.58812300  1
  Si  Si0  1  0.42141600  0.25000000  0.27880400  1
  Si  Si1  1  0.57858400  0.75000000  0.72119600  1
  Si  Si2  1  0.07858400  0.25000000  0.77880400  1
  Si  Si3  1  0.92141600  0.75000000  0.22119600  1
  O  O0  1  0.24660100  0.75000000  0.72299200  1
  O  O1  1  0.75339900  0.25000000  0.27700800  1
  O  O2  1  0.21537100  0.25000000  0.91720900  1
  O  O3  1  0.22096700  0.11013200  0.70941500  1
  O  O4  1  0.27903300  0.38986800  0.20941500  1
  O  O5  1  0.28462900  0.25000000  0.41720900  1
  O  O6  1  0.22096700  0.38986800  0.70941500  1
  O  O7  1  0.77903300  0.88986800  0.29058500  1
  O  O8  1  0.72096700  0.88986800  0.79058500  1
  O  O9  1  0.71537100  0.75000000  0.58279100  1
  O  O10  1  0.72096700  0.61013200  0.79058500  1
  O  O11  1  0.74660100  0.25000000  0.77700800  1
  O  O12  1  0.25339900  0.75000000  0.22299200  1
  O  O13  1  0.27903300  0.11013200  0.20941500  1
  O  O14  1  0.78462900  0.75000000  0.08279100  1
  O  O15  1  0.77903300  0.61013200  0.29058500  1
  F  F0  1  0.76842800  0.41717100  0.53220600  1
  F  F1  1  0.26842800  0.58282900  0.96779400  1
  F  F2  1  0.26842800  0.91717100  0.96779400  1
  F  F3  1  0.73157200  0.41717100  0.03220600  1
  F  F4  1  0.76842800  0.08282900  0.53220600  1
  F  F5  1  0.23157200  0.58282900  0.46779400  1
  F  F6  1  0.23157200  0.91717100  0.46779400  1
  F  F7  1  0.73157200  0.08282900  0.03220600  1
loop_
_geom_bond_atom_site_label_1
_geom_bond_atom_site_label_2
_geom_bond_distance
_geom_bond_site_symmetry_2
Mn0 O14 2.137288 1_556
Mn0 O10 2.295708 1_555
Mn0 O8 2.295708 1_555
Mn0 O0 2.416798 1_655
Mn1 O15 2.116032 1_555
Mn1 O1 2.235911 1_555
Mn1 O4 2.246031 1_655
Mn1 O5 2.312133 1_655
Mn2 O13 2.116032 1_565
Mn2 O12 2.235911 1_555
Mn2 O7 2.246031 1_555
Mn2 O14 2.312133 1_555
Mn3 O7 2.116032 1_545
Mn3 O1 2.235911 1_555
Mn3 O13 2.246031 1_655
Mn3 O5 2.312133 1_655
Mn4 O3 2.116032 1_565
Mn4 O0 2.235911 1_555
Mn4 O8 2.246031 1_455
Mn4 O9 2.312133 1_455
Mn5 O2 2.137288 1_554
Mn5 O13 2.295708 1_555
Mn5 O4 2.295708 1_555
Mn5 O1 2.416798 1_455
Mn6 O10 2.116032 1_555
Mn6 O11 2.235911 1_555
Mn6 O6 2.246031 1_555
Mn6 O2 2.312133 1_555
Mn7 O4 2.116032 1_555
Mn7 O12 2.235911 1_555
Mn7 O15 2.246031 1_555
Mn7 O14 2.312133 1_555
Mn8 O6 2.116032 1_555
Mn8 O0 2.235911 1_555
Mn8 O10 2.246031 1_455
Mn8 O9 2.312133 1_455
Mn9 O9 2.137288 1_555
Mn9 O15 2.295708 1_555
Mn9 O7 2.295708 1_555
Mn9 O12 2.416798 1_555
Mn10 O8 2.116032 1_545
Mn10 O11 2.235911 1_555
Mn10 O3 2.246031 1_555
Mn10 O2 2.312133 1_555
Mn11 O5 2.137288 1_555
Mn11 O6 2.295708 1_555
Mn11 O3 2.295708 1_555
Mn11 O11 2.416798 1_555
O0 Si1 1.635564 1_555
O1 Si0 1.635564 1_555
O2 Si2 1.659937 1_555
O3 Si2 1.664609 1_555
O4 Si0 1.664609 1_555
O5 Si0 1.659937 1_555
O6 Si2 1.664609 1_555
O7 Si3 1.664609 1_555
O8 Si1 1.664609 1_555
O9 Si1 1.659937 1_555
O10 Si1 1.664609 1_555
O11 Si2 1.635564 1_655
O12 Si3 1.635564 1_455
O13 Si0 1.664609 1_555
O14 Si3 1.659937 1_555
O15 Si3 1.664609 1_555
F0 Mn1 2.149202 1_555
F0 Mn11 2.153904 1_555
F0 Mn8 2.198638 1_655
F1 Mn7 2.149202 1_556
F1 Mn0 2.153904 1_455
F1 Mn6 2.198638 1_555
F2 Mn2 2.149202 1_556
F2 Mn0 2.153904 1_455
F2 Mn10 2.198638 1_565
F3 Mn6 2.149202 1_554
F3 Mn5 2.153904 1_655
F3 Mn7 2.198638 1_555
F4 Mn3 2.149202 1_555
F4 Mn11 2.153904 1_555
F4 Mn4 2.198638 1_645
F5 Mn8 2.149202 1_555
F5 Mn9 2.153904 1_555
F5 Mn1 2.198638 1_455
F6 Mn4 2.149202 1_555
F6 Mn9 2.153904 1_555
F6 Mn3 2.198638 1_465
F7 Mn10 2.149202 1_554
F7 Mn5 2.153904 1_655
F7 Mn2 2.198638 1_545
