# generated using pymatgen
data_ScTa(PbO3)2
_symmetry_space_group_name_H-M   'P 1'
_cell_length_a   5.80570871
_cell_length_b   5.80570871
_cell_length_c   5.80570871
_cell_angle_alpha   60.00000000
_cell_angle_beta   60.00000000
_cell_angle_gamma   60.00000000
_symmetry_Int_Tables_number   1
_chemical_formula_structural   ScTa(PbO3)2
_chemical_formula_sum   'Sc1 Ta1 Pb2 O6'
_cell_volume   138.37280004
_cell_formula_units_Z   1
loop_
 _symmetry_equiv_pos_site_id
 _symmetry_equiv_pos_as_xyz
  1  'x, y, z'
loop_
 _atom_site_type_symbol
 _atom_site_label
 _atom_site_symmetry_multiplicity
 _atom_site_fract_x
 _atom_site_fract_y
 _atom_site_fract_z
 _atom_site_occupancy
  Sc  Sc0  1  0.00000000  0.00000000  0.00000000  1
  Ta  Ta0  1  0.50000000  0.50000000  0.50000000  1
  Pb  Pb0  1  0.25000000  0.25000000  0.25000000  1
  Pb  Pb1  1  0.75000000  0.75000000  0.75000000  1
  O  O0  1  0.25618000  0.25618000  0.74382000  1
  O  O1  1  0.74382000  0.74382000  0.25618000  1
  O  O2  1  0.74382000  0.25618000  0.74382000  1
  O  O3  1  0.25618000  0.74382000  0.25618000  1
  O  O4  1  0.25618000  0.74382000  0.74382000  1
  O  O5  1  0.74382000  0.25618000  0.25618000  1
loop_
_geom_bond_atom_site_label_1
_geom_bond_atom_site_label_2
_geom_bond_distance
_geom_bond_site_symmetry_2
O0 Ta0 2.001887 1_555
O0 Sc0 2.103369 1_556
O1 Ta0 2.001887 1_555
O1 Sc0 2.103369 1_665
O2 Ta0 2.001887 1_555
O2 Sc0 2.103369 1_656
O3 Ta0 2.001887 1_555
O3 Sc0 2.103369 1_565
O4 Ta0 2.001887 1_555
O4 Sc0 2.103369 1_566
O5 Ta0 2.001887 1_555
O5 Sc0 2.103369 1_655
