# generated using pymatgen
data_Rb2TeBr6
_symmetry_space_group_name_H-M   'P 1'
_cell_length_a   7.64416085
_cell_length_b   7.64416016
_cell_length_c   7.70366363
_cell_angle_alpha   119.74482698
_cell_angle_beta   119.74482151
_cell_angle_gamma   89.99999989
_symmetry_Int_Tables_number   1
_chemical_formula_structural   Rb2TeBr6
_chemical_formula_sum   'Rb2 Te1 Br6'
_cell_volume   320.74355042
_cell_formula_units_Z   1
loop_
 _symmetry_equiv_pos_site_id
 _symmetry_equiv_pos_as_xyz
  1  'x, y, z'
loop_
 _atom_site_type_symbol
 _atom_site_label
 _atom_site_symmetry_multiplicity
 _atom_site_fract_x
 _atom_site_fract_y
 _atom_site_fract_z
 _atom_site_occupancy
  Rb  Rb0  1  0.25000000  0.75000000  0.50000000  1
  Rb  Rb1  1  0.75000000  0.25000000  0.50000000  1
  Te  Te0  1  0.00000000  -0.00000000  -0.00000000  1
  Br  Br0  1  0.27319705  0.77354016  -0.00000000  1
  Br  Br1  1  0.75243818  0.75243818  0.50487635  1
  Br  Br2  1  0.77354016  0.72680295  -0.00000000  1
  Br  Br3  1  0.22645984  0.27319705  0.00000000  1
  Br  Br4  1  0.24756182  0.24756182  0.49512365  1
  Br  Br5  1  0.72680295  0.22645984  0.00000000  1
loop_
_geom_bond_atom_site_label_1
_geom_bond_atom_site_label_2
_geom_bond_distance
_geom_bond_site_symmetry_2
Br0 Te0 2.712554 1_565
Br0 Rb1 3.678984 1_565
Br0 Rb0 3.678985 1_554
Br0 Rb1 4.033104 1_454
Br0 Rb0 4.033105 1_555
Br1 Te0 2.717766 1_666
Br1 Rb1 3.822174 1_565
Br1 Rb1 3.822174 1_555
Br1 Rb0 3.822174 1_655
Br1 Rb0 3.822174 1_555
Br2 Te0 2.712554 1_665
Br2 Rb1 3.678984 1_554
Br2 Rb0 3.678985 1_655
Br2 Rb1 4.033104 1_565
Br2 Rb0 4.033105 1_554
Br3 Te0 2.712554 1_555
Br3 Rb0 3.678984 1_555
Br3 Rb1 3.678985 1_454
Br3 Rb0 4.033104 1_544
Br3 Rb1 4.033105 1_555
Br4 Te0 2.717766 1_555
Br4 Rb0 3.822174 1_545
Br4 Rb0 3.822174 1_555
Br4 Rb1 3.822174 1_455
Br4 Rb1 3.822174 1_555
Br5 Te0 2.712554 1_655
Br5 Rb0 3.678984 1_544
Br5 Rb1 3.678985 1_555
Br5 Rb0 4.033104 1_655
Br5 Rb1 4.033105 1_554
