# generated using pymatgen
data_LiLa4AuO8
_symmetry_space_group_name_H-M   'P 1'
_cell_length_a   6.89964695
_cell_length_b   6.89964695
_cell_length_c   5.78796900
_cell_angle_alpha   90.00000000
_cell_angle_beta   90.00000000
_cell_angle_gamma   130.40518276
_symmetry_Int_Tables_number   1
_chemical_formula_structural   LiLa4AuO8
_chemical_formula_sum   'Li1 La4 Au1 O8'
_cell_volume   209.81583019
_cell_formula_units_Z   1
loop_
 _symmetry_equiv_pos_site_id
 _symmetry_equiv_pos_as_xyz
  1  'x, y, z'
loop_
 _atom_site_type_symbol
 _atom_site_label
 _atom_site_symmetry_multiplicity
 _atom_site_fract_x
 _atom_site_fract_y
 _atom_site_fract_z
 _atom_site_occupancy
  Li  Li0  1  0.50000000  0.50000000  0.00000000  1
  La  La0  1  0.65031700  0.34968300  0.50000000  1
  La  La1  1  0.14964400  0.85035600  0.00000000  1
  La  La2  1  0.85035600  0.14964400  0.00000000  1
  La  La3  1  0.34968300  0.65031700  0.50000000  1
  Au  Au0  1  0.00000000  0.00000000  0.50000000  1
  O  O0  1  0.00000000  0.50000000  0.24921400  1
  O  O1  1  0.50000000  0.00000000  0.75078600  1
  O  O2  1  0.00000000  0.50000000  0.75078600  1
  O  O3  1  0.24906500  0.24906500  0.74905000  1
  O  O4  1  0.50000000  0.00000000  0.24921400  1
  O  O5  1  0.24906500  0.24906500  0.25095000  1
  O  O6  1  0.75093500  0.75093500  0.25095000  1
  O  O7  1  0.75093500  0.75093500  0.74905000  1
loop_
_geom_bond_atom_site_label_1
_geom_bond_atom_site_label_2
_geom_bond_distance
_geom_bond_site_symmetry_2
Li0 O5 2.054001 1_555
Li0 O6 2.054001 1_555
Li0 O3 2.054001 1_554
Li0 O7 2.054001 1_554
La0 O2 2.399956 1_655
La0 O0 2.399956 1_655
La0 O1 2.399956 1_555
La0 O4 2.399956 1_555
La0 O7 2.780798 1_555
La0 O6 2.780798 1_555
La0 O3 2.780798 1_555
La0 O5 2.780798 1_555
La1 O1 2.398871 1_564
La1 O4 2.398871 1_565
La1 O0 2.398871 1_555
La1 O2 2.398871 1_554
La1 O6 2.775187 1_455
La1 O7 2.775187 1_454
La1 O3 2.775187 1_564
La1 O5 2.775187 1_565
La2 O0 2.398871 1_655
La2 O2 2.398871 1_654
La2 O4 2.398871 1_555
La2 O1 2.398871 1_554
La2 O6 2.775187 1_545
La2 O7 2.775187 1_544
La2 O3 2.775187 1_654
La2 O5 2.775187 1_655
La3 O2 2.399956 1_555
La3 O1 2.399956 1_565
La3 O0 2.399956 1_555
La3 O4 2.399956 1_565
La3 O7 2.780798 1_555
La3 O6 2.780798 1_555
La3 O3 2.780798 1_555
La3 O5 2.780798 1_555
Au0 O5 2.038572 1_555
Au0 O7 2.038572 1_445
Au0 O6 2.038572 1_445
Au0 O3 2.038572 1_555
