# generated using pymatgen
data_KNaSi2O5
_symmetry_space_group_name_H-M   'P 1'
_cell_length_a   13.76190000
_cell_length_b   4.91333500
_cell_length_c   7.58399421
_cell_angle_alpha   88.74363702
_cell_angle_beta   90.00000000
_cell_angle_gamma   90.00000000
_symmetry_Int_Tables_number   1
_chemical_formula_structural   KNaSi2O5
_chemical_formula_sum   'K4 Na4 Si8 O20'
_cell_volume   512.68232915
_cell_formula_units_Z   4
loop_
 _symmetry_equiv_pos_site_id
 _symmetry_equiv_pos_as_xyz
  1  'x, y, z'
loop_
 _atom_site_type_symbol
 _atom_site_label
 _atom_site_symmetry_multiplicity
 _atom_site_fract_x
 _atom_site_fract_y
 _atom_site_fract_z
 _atom_site_occupancy
  K  K0  1  0.20062200  0.80059900  0.28796500  1
  K  K1  1  0.79937800  0.19940100  0.71203500  1
  K  K2  1  0.70062200  0.19940100  0.21203500  1
  K  K3  1  0.29937800  0.80059900  0.78796500  1
  Na  Na0  1  0.59400100  0.72342300  0.97180800  1
  Na  Na1  1  0.40599900  0.27657700  0.02819200  1
  Na  Na2  1  0.90599900  0.72342300  0.47180800  1
  Na  Na3  1  0.09400100  0.27657700  0.52819200  1
  Si  Si0  1  0.95139700  0.19797500  0.21576100  1
  Si  Si1  1  0.54860300  0.19797500  0.71576100  1
  Si  Si2  1  0.04860300  0.80202500  0.78423900  1
  Si  Si3  1  0.63029500  0.70426000  0.51472600  1
  Si  Si4  1  0.86970500  0.70426000  0.01472600  1
  Si  Si5  1  0.45139700  0.80202500  0.28423900  1
  Si  Si6  1  0.36970500  0.29574000  0.48527400  1
  Si  Si7  1  0.13029500  0.29574000  0.98527400  1
  O  O0  1  0.42994500  0.12526400  0.33268900  1
  O  O1  1  0.75892800  0.78113800  0.99150700  1
  O  O2  1  0.92701000  0.25107400  0.41716400  1
  O  O3  1  0.57005500  0.87473600  0.66731100  1
  O  O4  1  0.11466700  0.62255000  0.92874100  1
  O  O5  1  0.07005500  0.12526400  0.83268900  1
  O  O6  1  0.56927500  0.74817000  0.32434200  1
  O  O7  1  0.57299000  0.25107400  0.91716400  1
  O  O8  1  0.24107200  0.21886200  0.00849300  1
  O  O9  1  0.42701000  0.74892600  0.08283600  1
  O  O10  1  0.06927500  0.25183000  0.17565800  1
  O  O11  1  0.38533300  0.62255000  0.42874100  1
  O  O12  1  0.88533300  0.37745000  0.07125900  1
  O  O13  1  0.25892800  0.21886200  0.50849300  1
  O  O14  1  0.61466700  0.37745000  0.57125900  1
  O  O15  1  0.07299000  0.74892600  0.58283600  1
  O  O16  1  0.74107200  0.78113800  0.49150700  1
  O  O17  1  0.43072500  0.25183000  0.67565800  1
  O  O18  1  0.92994500  0.87473600  0.16731100  1
  O  O19  1  0.93072500  0.74817000  0.82434200  1
loop_
_geom_bond_atom_site_label_1
_geom_bond_atom_site_label_2
_geom_bond_distance
_geom_bond_site_symmetry_2
K0 O13 2.795544 1_565
K0 O15 2.850569 1_555
K0 O11 2.885453 1_555
K0 O10 2.970743 1_565
K0 O8 2.972290 1_565
K0 O4 3.113065 1_554
K1 O16 2.795544 1_545
K1 O2 2.850569 1_555
K1 O14 2.885453 1_555
K1 O19 2.970743 1_545
K1 O1 2.972290 1_545
K1 O12 3.113065 1_556
K2 O1 2.795544 1_544
K2 O7 2.850569 1_554
K2 O12 2.885453 1_555
K2 O6 2.970743 1_545
K2 O16 2.972290 1_545
K2 O14 3.113065 1_555
K3 O8 2.795544 1_566
K3 O9 2.850569 1_556
K3 O4 2.885453 1_555
K3 O17 2.970743 1_565
K3 O13 2.972290 1_565
K3 O11 3.113065 1_555
Na0 O1 2.292634 1_555
Na0 O7 2.384047 1_555
Na0 O3 2.432882 1_555
Na0 O9 2.451668 1_556
Na0 O7 2.632381 1_565
Na0 O6 2.700565 1_556
Na1 O8 2.292634 1_555
Na1 O9 2.384047 1_555
Na1 O0 2.432882 1_555
Na1 O7 2.451668 1_554
Na1 O9 2.632381 1_545
Na1 O17 2.700565 1_554
Na2 O16 2.292634 1_555
Na2 O2 2.384047 1_555
Na2 O18 2.432882 1_555
Na2 O15 2.451668 1_655
Na2 O2 2.632381 1_565
Na2 O19 2.700565 1_555
Na3 O13 2.292634 1_555
Na3 O15 2.384047 1_555
Na3 O5 2.432882 1_555
Na3 O2 2.451668 1_455
Na3 O15 2.632381 1_545
Na3 O10 2.700565 1_555
O0 Si5 1.664356 1_545
O0 Si6 1.664475 1_555
O1 Si4 1.579518 1_556
O2 Si0 1.590989 1_555
O3 Si1 1.664356 1_565
O3 Si3 1.664475 1_555
O4 Si2 1.662172 1_555
O4 Si7 1.666808 1_555
O5 Si2 1.664356 1_545
O5 Si7 1.664475 1_555
O6 Si5 1.670510 1_555
O6 Si3 1.680128 1_555
O7 Si1 1.590989 1_555
O8 Si7 1.579518 1_554
O9 Si5 1.590989 1_555
O10 Si0 1.670510 1_455
O10 Si7 1.680128 1_554
O11 Si5 1.662172 1_555
O11 Si6 1.666808 1_555
O12 Si0 1.662172 1_555
O12 Si4 1.666808 1_555
O13 Si6 1.579518 1_555
O14 Si1 1.662172 1_555
O14 Si3 1.666808 1_555
O15 Si2 1.590989 1_555
O16 Si3 1.579518 1_555
O17 Si1 1.670510 1_555
O17 Si6 1.680128 1_555
O18 Si0 1.664356 1_565
O18 Si4 1.664475 1_555
O19 Si2 1.670510 1_655
O19 Si4 1.680128 1_556
