# generated using pymatgen
data_Ba3LaRu2O9
_symmetry_space_group_name_H-M   'P 1'
_cell_length_a   5.97883049
_cell_length_b   5.97883026
_cell_length_c   14.88167431
_cell_angle_alpha   89.99996337
_cell_angle_beta   90.00002472
_cell_angle_gamma   120.00001280
_symmetry_Int_Tables_number   1
_chemical_formula_structural   Ba3LaRu2O9
_chemical_formula_sum   'Ba6 La2 Ru4 O18'
_cell_volume   460.69641856
_cell_formula_units_Z   2
loop_
 _symmetry_equiv_pos_site_id
 _symmetry_equiv_pos_as_xyz
  1  'x, y, z'
loop_
 _atom_site_type_symbol
 _atom_site_label
 _atom_site_symmetry_multiplicity
 _atom_site_fract_x
 _atom_site_fract_y
 _atom_site_fract_z
 _atom_site_occupancy
  Ba  Ba0  1  0.66666654  0.33333258  0.39515995  1
  Ba  Ba1  1  0.33333254  0.66666646  0.60476779  1
  Ba  Ba2  1  0.66666652  0.33333239  0.10493905  1
  Ba  Ba3  1  0.00000040  0.00000017  0.25000645  1
  Ba  Ba4  1  0.33333227  0.66666629  0.89512859  1
  Ba  Ba5  1  0.00000082  0.00000103  0.74999283  1
  La  La0  1  0.99999957  0.99999918  0.49999958  1
  La  La1  1  0.99999860  0.99999848  -0.00000772  1
  Ru  Ru0  1  0.33333405  0.66667048  0.16797191  1
  Ru  Ru1  1  0.66666695  0.33333160  0.83206207  1
  Ru  Ru2  1  0.66666872  0.33333679  0.66792710  1
  Ru  Ru3  1  0.33333167  0.66666624  0.33208243  1
  O  O0  1  0.49143202  0.98286323  0.25000502  1
  O  O1  1  0.35941176  0.17970565  0.59487224  1
  O  O2  1  0.64063045  0.82031510  0.09493680  1
  O  O3  1  0.17968464  0.35936888  0.09493637  1
  O  O4  1  0.17968513  0.82031494  0.09493664  1
  O  O5  1  0.50857823  0.01715678  0.74998067  1
  O  O6  1  0.82029459  0.17970552  0.59487234  1
  O  O7  1  0.82032376  0.64064795  0.90505584  1
  O  O8  1  0.82029440  0.64058770  0.59487239  1
  O  O9  1  0.82032329  0.17967559  0.90505566  1
  O  O10  1  0.17971348  0.35942705  0.40513958  1
  O  O11  1  0.01713691  0.50856770  0.25000509  1
  O  O12  1  0.64057230  0.82028644  0.40513989  1
  O  O13  1  0.49143239  0.50856788  0.25000508  1
  O  O14  1  0.35935142  0.17967565  0.90505571  1
  O  O15  1  0.50857927  0.49142300  0.74998035  1
  O  O16  1  0.98284372  0.49142313  0.74998073  1
  O  O17  1  0.17971359  0.82028610  0.40513957  1
loop_
_geom_bond_atom_site_label_1
_geom_bond_atom_site_label_2
_geom_bond_distance
_geom_bond_site_symmetry_2
Ba0 O13 2.821214 1_555
Ba0 O0 2.821216 1_545
Ba0 O11 2.821218 1_655
Ba0 O12 2.996144 1_545
Ba0 O17 2.996147 1_545
Ba0 O10 2.996148 1_655
Ba0 O17 2.996151 1_655
Ba0 O10 2.996152 1_555
Ba0 O12 2.996156 1_555
Ba0 O1 3.371067 1_555
Ba0 O6 3.371068 1_555
Ba0 O8 3.371071 1_555
Ba1 O15 2.821941 1_555
Ba1 O16 2.821941 1_455
Ba1 O5 2.821946 1_565
Ba1 O8 2.996077 1_455
Ba1 O6 2.996080 1_455
Ba1 O1 2.996082 1_565
Ba1 O6 2.996087 1_565
Ba1 O1 2.996087 1_555
Ba1 O8 2.996092 1_555
Ba1 O12 3.369923 1_555
Ba1 O17 3.369924 1_555
Ba1 O10 3.369927 1_555
Ba2 O0 2.820200 1_545
Ba2 O13 2.820204 1_555
Ba2 O11 2.820206 1_655
Ba2 O2 2.996149 1_545
Ba2 O4 2.996149 1_545
Ba2 O3 2.996153 1_655
Ba2 O3 2.996154 1_555
Ba2 O4 2.996156 1_655
Ba2 O2 2.996157 1_555
Ba2 O9 3.373457 1_554
Ba2 O7 3.373458 1_554
Ba2 O14 3.373459 1_554
Ba3 O2 2.964432 1_445
Ba3 O3 2.964433 1_555
Ba3 O4 2.964436 1_545
Ba3 O17 2.965353 1_545
Ba3 O10 2.965354 1_555
Ba3 O12 2.965361 1_445
Ba3 O11 2.990727 1_555
Ba3 O13 2.990730 1_555
Ba3 O0 2.990731 1_445
Ba3 O13 2.990732 1_445
Ba3 O0 2.990732 1_545
Ba3 O11 2.990736 1_545
Ba4 O16 2.821199 1_455
Ba4 O5 2.821205 1_565
Ba4 O15 2.821210 1_555
Ba4 O7 2.996090 1_455
Ba4 O9 2.996092 1_455
Ba4 O14 2.996093 1_565
Ba4 O9 2.996094 1_565
Ba4 O14 2.996095 1_555
Ba4 O7 2.996098 1_555
Ba4 O3 3.372423 1_556
Ba4 O4 3.372425 1_556
Ba4 O2 3.372432 1_556
Ba5 O14 2.964291 1_555
Ba5 O9 2.964297 1_455
Ba5 O7 2.964300 1_445
Ba5 O6 2.965153 1_455
Ba5 O1 2.965156 1_555
Ba5 O8 2.965163 1_445
Ba5 O16 2.990731 1_445
Ba5 O5 2.990732 1_555
Ba5 O15 2.990733 1_445
Ba5 O15 2.990735 1_555
Ba5 O5 2.990738 1_455
Ba5 O16 2.990739 1_455
La0 O12 2.335876 1_555
La0 O17 2.335880 1_655
La0 O10 2.335881 1_665
La0 O8 2.335929 1_555
La0 O6 2.335929 1_565
La0 O1 2.335931 1_665
La1 O7 2.336251 1_554
La1 O9 2.336259 1_564
La1 O14 2.336261 1_664
La1 O2 2.336396 1_555
La1 O3 2.336402 1_665
La1 O4 2.336402 1_655
O0 Ru0 2.042233 1_555
O0 Ru3 2.042644 1_555
O1 Ru2 1.926911 1_555
O2 Ru0 1.926914 1_555
O3 Ru0 1.926940 1_555
O4 Ru0 1.926902 1_555
O5 Ru2 2.042361 1_555
O5 Ru1 2.042589 1_555
O6 Ru2 1.926912 1_555
O7 Ru1 1.926653 1_555
O8 Ru2 1.926883 1_555
O9 Ru1 1.926633 1_555
O10 Ru3 1.926854 1_555
O11 Ru0 2.042252 1_555
O11 Ru3 2.042635 1_555
O12 Ru3 1.926863 1_555
O13 Ru0 2.042267 1_555
O13 Ru3 2.042654 1_555
O14 Ru1 1.926648 1_555
O15 Ru2 2.042342 1_555
O15 Ru1 2.042608 1_555
O16 Ru2 2.042342 1_555
O16 Ru1 2.042596 1_555
O17 Ru3 1.926850 1_555
