# generated using pymatgen
data_Nb7S2I19
_symmetry_space_group_name_H-M   'P 1'
_cell_length_a   13.16024882
_cell_length_b   16.21341645
_cell_length_c   22.70485800
_cell_angle_alpha   90.00000000
_cell_angle_beta   90.00000000
_cell_angle_gamma   93.53081658
_symmetry_Int_Tables_number   1
_chemical_formula_structural   Nb7S2I19
_chemical_formula_sum   'Nb28 S8 I76'
_cell_volume   4835.39854659
_cell_formula_units_Z   4
loop_
 _symmetry_equiv_pos_site_id
 _symmetry_equiv_pos_as_xyz
  1  'x, y, z'
loop_
 _atom_site_type_symbol
 _atom_site_label
 _atom_site_symmetry_multiplicity
 _atom_site_fract_x
 _atom_site_fract_y
 _atom_site_fract_z
 _atom_site_occupancy
  Nb  Nb0  1  0.62748260  0.23360694  0.91036184  1
  Nb  Nb1  1  0.65505166  0.21821551  0.50425849  1
  Nb  Nb2  1  0.75362658  0.69771852  0.88690023  1
  Nb  Nb3  1  0.24637342  0.80228148  0.38690023  1
  Nb  Nb4  1  0.24637342  0.30228148  0.11309977  1
  Nb  Nb5  1  0.37251740  0.76639306  0.08963816  1
  Nb  Nb6  1  0.13130712  0.28342573  0.00856375  1
  Nb  Nb7  1  0.37251740  0.26639306  0.41036184  1
  Nb  Nb8  1  0.65505166  0.71821551  0.99574151  1
  Nb  Nb9  1  0.84115280  0.73396238  0.58525992  1
  Nb  Nb10  1  0.84115280  0.23396238  0.91474008  1
  Nb  Nb11  1  0.25880880  0.92499431  0.79014976  1
  Nb  Nb12  1  0.13130712  0.78342573  0.49143625  1
  Nb  Nb13  1  0.73887209  0.20792448  0.80665297  1
  Nb  Nb14  1  0.26112791  0.79207552  0.19334703  1
  Nb  Nb15  1  0.26112791  0.29207552  0.30665297  1
  Nb  Nb16  1  0.73887209  0.70792448  0.69334703  1
  Nb  Nb17  1  0.15884720  0.26603762  0.41474008  1
  Nb  Nb18  1  0.74119120  0.07500569  0.20985024  1
  Nb  Nb19  1  0.86869288  0.21657427  0.50856375  1
  Nb  Nb20  1  0.86869288  0.71657427  0.99143625  1
  Nb  Nb21  1  0.25880880  0.42499431  0.70985024  1
  Nb  Nb22  1  0.75362658  0.19771852  0.61309977  1
  Nb  Nb23  1  0.34494834  0.78178449  0.49574151  1
  Nb  Nb24  1  0.15884720  0.76603762  0.08525992  1
  Nb  Nb25  1  0.62748260  0.73360694  0.58963816  1
  Nb  Nb26  1  0.74119120  0.57500569  0.29014976  1
  Nb  Nb27  1  0.34494834  0.28178449  0.00425849  1
  S  S0  1  0.76828223  0.82207502  0.94743719  1
  S  S1  1  0.25514848  0.16383924  0.36341003  1
  S  S2  1  0.23171777  0.17792498  0.05256281  1
  S  S3  1  0.76828223  0.32207502  0.55256281  1
  S  S4  1  0.23171777  0.67792498  0.44743719  1
  S  S5  1  0.74485152  0.83616076  0.63658997  1
  S  S6  1  0.74485152  0.33616076  0.86341003  1
  S  S7  1  0.25514848  0.66383924  0.13658997  1
  I  I0  1  0.26538313  0.41974232  0.21324650  1
  I  I1  1  0.23560510  0.26095694  0.71223181  1
  I  I2  1  0.19319746  0.49718217  0.61257175  1
  I  I3  1  0.48939288  0.62648898  0.06335656  1
  I  I4  1  0.45592470  0.64143430  0.52776743  1
  I  I5  1  0.75793341  0.31818313  0.70680806  1
  I  I6  1  0.19319746  0.99718217  0.88742825  1
  I  I7  1  0.02576138  0.12485625  0.44511967  1
  I  I8  1  0.51060712  0.87351102  0.56335656  1
  I  I9  1  0.97423862  0.37514375  0.94511967  1
  I  I10  1  0.26538313  0.91974232  0.28675350  1
  I  I11  1  0.25273982  0.93424724  0.47200085  1
  I  I12  1  0.02576138  0.62485625  0.05488033  1
  I  I13  1  0.52264668  0.20040941  0.80282033  1
  I  I14  1  0.96714180  0.68040712  0.88397085  1
  I  I15  1  0.95350124  0.19702901  0.81228165  1
  I  I16  1  0.54407530  0.35856570  0.47223257  1
  I  I17  1  0.72893938  0.74646946  0.47920003  1
  I  I18  1  0.46244866  0.81287894  0.39229037  1
  I  I19  1  0.55141870  0.57815956  0.33861102  1
  I  I20  1  0.46244866  0.31287894  0.10770963  1
  I  I21  1  0.72326322  0.08117833  0.89478598  1
  I  I22  1  0.24206659  0.18181687  0.20680806  1
  I  I23  1  0.27106062  0.25353054  0.52079997  1
  I  I24  1  0.07460622  0.44242777  0.76178130  1
  I  I25  1  0.76439490  0.23904306  0.21223181  1
  I  I26  1  0.03285820  0.81959288  0.38397085  1
  I  I27  1  0.53755134  0.18712106  0.60770963  1
  I  I28  1  0.25273982  0.43424724  0.02799915  1
  I  I29  1  0.92539378  0.05757223  0.26178130  1
  I  I30  1  0.99219160  0.64437632  0.51652807  1
  I  I31  1  0.72893938  0.24646946  0.02079997  1
  I  I32  1  0.47735332  0.79959059  0.19717967  1
  I  I33  1  0.44858130  0.92184044  0.83861102  1
  I  I34  1  0.80680254  0.50281783  0.38742825  1
  I  I35  1  0.54407530  0.85856570  0.02776743  1
  I  I36  1  0.65371197  0.49566671  0.19700917  1
  I  I37  1  0.52264668  0.70040941  0.69717967  1
  I  I38  1  0.03285820  0.31959288  0.11602915  1
  I  I39  1  0.51060712  0.37351102  0.93664344  1
  I  I40  1  0.95350124  0.69702901  0.68771835  1
  I  I41  1  0.23560510  0.76095694  0.78776819  1
  I  I42  1  0.45592470  0.14143430  0.97223257  1
  I  I43  1  0.97423862  0.87514375  0.55488033  1
  I  I44  1  0.92539378  0.55757223  0.23821870  1
  I  I45  1  0.48939288  0.12648898  0.43664344  1
  I  I46  1  0.23095094  0.77413963  0.60171593  1
  I  I47  1  0.34628803  0.00433329  0.69700917  1
  I  I48  1  0.76439490  0.73904306  0.28776819  1
  I  I49  1  0.96714180  0.18040712  0.61602915  1
  I  I50  1  0.00780840  0.35562368  0.48347193  1
  I  I51  1  0.07460622  0.94242777  0.73821870  1
  I  I52  1  0.73461687  0.08025768  0.71324650  1
  I  I53  1  0.76904906  0.22586037  0.39828407  1
  I  I54  1  0.00780840  0.85562368  0.01652807  1
  I  I55  1  0.23095094  0.27413963  0.89828407  1
  I  I56  1  0.04649876  0.80297099  0.18771835  1
  I  I57  1  0.74726018  0.56575276  0.97200085  1
  I  I58  1  0.27673678  0.41882167  0.39478598  1
  I  I59  1  0.27106062  0.75353054  0.97920003  1
  I  I60  1  0.24206659  0.68181687  0.29319194  1
  I  I61  1  0.80680254  0.00281783  0.11257175  1
  I  I62  1  0.73461687  0.58025768  0.78675350  1
  I  I63  1  0.99219160  0.14437632  0.98347193  1
  I  I64  1  0.44858130  0.42184044  0.66138898  1
  I  I65  1  0.76904906  0.72586037  0.10171593  1
  I  I66  1  0.53755134  0.68712106  0.89229037  1
  I  I67  1  0.47735332  0.29959059  0.30282033  1
  I  I68  1  0.55141870  0.07815956  0.16138898  1
  I  I69  1  0.34628803  0.50433329  0.80299083  1
  I  I70  1  0.72326322  0.58117833  0.60521402  1
  I  I71  1  0.74726018  0.06575276  0.52799915  1
  I  I72  1  0.04649876  0.30297099  0.31228165  1
  I  I73  1  0.27673678  0.91882167  0.10521402  1
  I  I74  1  0.65371197  0.99566671  0.30299083  1
  I  I75  1  0.75793341  0.81818313  0.79319194  1
loop_
_geom_bond_atom_site_label_1
_geom_bond_atom_site_label_2
_geom_bond_distance
_geom_bond_site_symmetry_2
Nb0 S6 2.443486 1_555
Nb1 S3 2.439237 1_555
Nb2 S0 2.437979 1_555
Nb3 S4 2.437979 1_555
Nb4 S2 2.437979 1_555
Nb5 S7 2.443486 1_555
Nb6 S2 2.438949 1_555
Nb7 S1 2.443486 1_555
Nb8 S0 2.439237 1_555
Nb9 S5 2.443089 1_555
Nb10 S6 2.443089 1_555
Nb12 S4 2.438949 1_555
Nb13 S6 2.443265 1_555
Nb14 S7 2.443265 1_555
Nb15 S1 2.443265 1_555
Nb16 S5 2.443265 1_555
Nb17 S1 2.443089 1_555
Nb19 S3 2.438949 1_555
Nb20 S0 2.438949 1_555
Nb22 S3 2.437979 1_555
Nb23 S4 2.439237 1_555
Nb24 S7 2.443089 1_555
Nb25 S5 2.443486 1_555
Nb27 S2 2.439237 1_555
I0 Nb15 2.961607 1_555
I0 Nb4 2.966656 1_555
I1 Nb21 2.658880 1_555
I2 Nb21 2.668002 1_555
I3 Nb5 2.880431 1_555
I3 Nb8 2.986989 1_554
I4 Nb23 2.872147 1_555
I4 Nb25 2.981363 1_555
I5 Nb22 2.886376 1_555
I5 Nb13 2.888353 1_555
I6 Nb11 2.668002 1_555
I7 Nb17 2.879095 1_555
I7 Nb19 2.989600 1_455
I8 Nb25 2.880431 1_555
I8 Nb23 2.986989 1_555
I9 Nb10 2.879095 1_555
I9 Nb6 2.989600 1_656
I10 Nb14 2.961607 1_555
I10 Nb3 2.966656 1_555
I11 Nb23 2.871075 1_555
I11 Nb12 2.871744 1_555
I11 Nb3 2.880327 1_555
I12 Nb24 2.879095 1_555
I12 Nb20 2.989600 1_454
I13 Nb0 2.839664 1_555
I13 Nb13 2.842013 1_555
I14 Nb20 2.840701 1_555
I14 Nb2 2.841823 1_555
I15 Nb10 2.839962 1_555
I15 Nb13 2.843802 1_555
I16 Nb1 2.872147 1_555
I16 Nb7 2.981363 1_555
I17 Nb9 2.838598 1_555
I17 Nb25 2.842430 1_555
I18 Nb23 2.840133 1_555
I18 Nb3 2.840845 1_555
I19 Nb26 2.732451 1_555
I20 Nb27 2.840133 1_555
I20 Nb4 2.840845 1_555
I21 Nb0 2.864503 1_555
I21 Nb13 2.866595 1_555
I21 Nb10 2.876662 1_555
I22 Nb4 2.886376 1_555
I22 Nb15 2.888353 1_555
I23 Nb17 2.838598 1_555
I23 Nb7 2.842430 1_555
I24 Nb21 2.725995 1_555
I25 Nb18 2.658880 1_555
I26 Nb12 2.840701 1_555
I26 Nb3 2.841823 1_555
I27 Nb1 2.840133 1_555
I27 Nb22 2.840845 1_555
I28 Nb27 2.871075 1_555
I28 Nb6 2.871744 1_555
I28 Nb4 2.880327 1_555
I29 Nb18 2.725995 1_555
I30 Nb12 2.872387 1_655
I30 Nb9 2.975172 1_555
I31 Nb10 2.838598 1_554
I31 Nb0 2.842430 1_554
I32 Nb5 2.839664 1_555
I32 Nb14 2.842013 1_555
I33 Nb11 2.732451 1_555
I34 Nb26 2.668002 1_555
I35 Nb8 2.872147 1_554
I35 Nb5 2.981363 1_555
I36 Nb26 2.696261 1_555
I37 Nb25 2.839664 1_555
I37 Nb16 2.842013 1_555
I38 Nb6 2.840701 1_555
I38 Nb4 2.841823 1_555
I39 Nb0 2.880431 1_555
I39 Nb27 2.986989 1_556
I40 Nb9 2.839962 1_555
I40 Nb16 2.843802 1_555
I41 Nb11 2.658880 1_555
I42 Nb27 2.872147 1_556
I42 Nb0 2.981363 1_555
I43 Nb9 2.879095 1_555
I43 Nb12 2.989600 1_655
I44 Nb26 2.725995 1_555
I45 Nb7 2.880431 1_555
I45 Nb1 2.986989 1_555
I46 Nb23 2.834192 1_555
I46 Nb12 2.834789 1_555
I47 Nb11 2.696261 1_545
I48 Nb26 2.658880 1_555
I49 Nb19 2.840701 1_555
I49 Nb22 2.841823 1_555
I50 Nb19 2.872387 1_455
I50 Nb17 2.975172 1_555
I51 Nb11 2.725995 1_555
I52 Nb13 2.961607 1_555
I52 Nb22 2.966656 1_555
I53 Nb1 2.834192 1_555
I53 Nb19 2.834789 1_555
I54 Nb20 2.872387 1_454
I54 Nb24 2.975172 1_555
I55 Nb27 2.834192 1_556
I55 Nb6 2.834789 1_556
I56 Nb24 2.839962 1_555
I56 Nb14 2.843802 1_555
I57 Nb8 2.871075 1_555
I57 Nb20 2.871744 1_555
I57 Nb2 2.880327 1_555
I58 Nb7 2.864503 1_555
I58 Nb15 2.866595 1_555
I58 Nb17 2.876662 1_555
I59 Nb24 2.838598 1_556
I59 Nb5 2.842430 1_556
I60 Nb3 2.886376 1_555
I60 Nb14 2.888353 1_555
I61 Nb18 2.668002 1_555
I62 Nb16 2.961607 1_555
I62 Nb2 2.966656 1_555
I63 Nb6 2.872387 1_656
I63 Nb10 2.975172 1_555
I64 Nb21 2.732451 1_555
I65 Nb8 2.834192 1_554
I65 Nb20 2.834789 1_554
I66 Nb8 2.840133 1_555
I66 Nb2 2.840845 1_555
I67 Nb7 2.839664 1_555
I67 Nb15 2.842013 1_555
I68 Nb18 2.732451 1_555
I69 Nb21 2.696261 1_555
I70 Nb25 2.864503 1_555
I70 Nb16 2.866595 1_555
I70 Nb9 2.876662 1_555
I71 Nb1 2.871075 1_555
I71 Nb19 2.871744 1_555
I71 Nb22 2.880327 1_555
I72 Nb17 2.839962 1_555
I72 Nb15 2.843802 1_555
I73 Nb5 2.864503 1_555
I73 Nb14 2.866595 1_555
I73 Nb24 2.876662 1_555
I74 Nb18 2.696261 1_565
I75 Nb2 2.886376 1_555
I75 Nb16 2.888353 1_555
