# generated using pymatgen
data_KNiAsO4
_symmetry_space_group_name_H-M   'P 1'
_cell_length_a   5.06114958
_cell_length_b   10.08576889
_cell_length_c   8.76624213
_cell_angle_alpha   106.84186898
_cell_angle_beta   89.99986664
_cell_angle_gamma   90.00086485
_symmetry_Int_Tables_number   1
_chemical_formula_structural   KNiAsO4
_chemical_formula_sum   'K4 Ni4 As4 O16'
_cell_volume   428.28474704
_cell_formula_units_Z   4
loop_
 _symmetry_equiv_pos_site_id
 _symmetry_equiv_pos_as_xyz
  1  'x, y, z'
loop_
 _atom_site_type_symbol
 _atom_site_label
 _atom_site_symmetry_multiplicity
 _atom_site_fract_x
 _atom_site_fract_y
 _atom_site_fract_z
 _atom_site_occupancy
  K  K0  1  0.50000000  0.13294700  0.21098100  1
  K  K1  1  0.00000000  0.13294700  0.71098200  1
  K  K2  1  0.50000000  0.86705300  0.78901800  1
  K  K3  1  0.00000000  0.86705300  0.28901900  1
  Ni  Ni0  1  0.49999900  0.49555800  0.66518500  1
  Ni  Ni1  1  0.00000100  0.50444200  0.83481500  1
  Ni  Ni2  1  0.99999900  0.49556100  0.16518600  1
  Ni  Ni3  1  0.50000100  0.50443900  0.33481400  1
  As  As0  1  0.50001000  0.68115700  0.06039200  1
  As  As1  1  0.00000900  0.68115700  0.56039500  1
  As  As2  1  0.49999100  0.31884300  0.93960500  1
  As  As3  1  0.99999000  0.31884300  0.43960800  1
  O  O0  1  0.50000200  0.14269000  0.88089800  1
  O  O1  1  0.00000200  0.14268900  0.38089600  1
  O  O2  1  0.49999800  0.85731100  0.11910400  1
  O  O3  1  0.99999800  0.85731000  0.61910200  1
  O  O4  1  0.34039900  0.62516400  0.87651000  1
  O  O5  1  0.84040100  0.62516300  0.37650800  1
  O  O6  1  0.33198800  0.62516400  0.20412600  1
  O  O7  1  0.83198700  0.62516400  0.70412400  1
  O  O8  1  0.17238400  0.37483000  0.95547200  1
  O  O9  1  0.67238600  0.37483100  0.45547200  1
  O  O10  1  0.65959900  0.37483700  0.12349200  1
  O  O11  1  0.15960100  0.37483600  0.62349000  1
  O  O12  1  0.82761400  0.62516900  0.04452800  1
  O  O13  1  0.32761600  0.62517000  0.54452800  1
  O  O14  1  0.66801300  0.37483600  0.79587600  1
  O  O15  1  0.16801200  0.37483600  0.29587400  1
loop_
_geom_bond_atom_site_label_1
_geom_bond_atom_site_label_2
_geom_bond_distance
_geom_bond_site_symmetry_2
K0 O2 2.660761 1_545
K0 O9 2.876890 1_555
K0 O10 2.876928 1_555
K0 O15 2.876965 1_555
K0 O1 2.923569 1_555
K0 O0 2.923571 1_554
K0 O1 2.923590 1_655
K1 O3 2.660771 1_445
K1 O8 2.876877 1_555
K1 O11 2.876935 1_555
K1 O14 2.876962 1_455
K1 O0 2.923572 1_455
K1 O0 2.923593 1_555
K1 O1 2.923594 1_555
K2 O0 2.660771 1_565
K2 O13 2.876877 1_555
K2 O4 2.876935 1_555
K2 O7 2.876962 1_555
K2 O3 2.923572 1_555
K2 O3 2.923593 1_455
K2 O2 2.923594 1_556
K3 O1 2.660761 1_565
K3 O12 2.876890 1_455
K3 O5 2.876928 1_455
K3 O6 2.876965 1_555
K3 O2 2.923569 1_555
K3 O3 2.923571 1_455
K3 O2 2.923590 1_455
Ni0 O11 2.079952 1_555
Ni0 O9 2.080008 1_555
Ni0 O14 2.080019 1_555
Ni0 O7 2.095189 1_555
Ni0 O4 2.095197 1_555
Ni0 O13 2.095243 1_555
Ni1 O4 2.079952 1_555
Ni1 O12 2.080008 1_456
Ni1 O7 2.080019 1_455
Ni1 O14 2.095189 1_455
Ni1 O11 2.095197 1_555
Ni1 O8 2.095243 1_555
Ni2 O10 2.079971 1_555
Ni2 O15 2.080020 1_655
Ni2 O8 2.080023 1_654
Ni2 O5 2.095159 1_555
Ni2 O6 2.095175 1_655
Ni2 O12 2.095222 1_555
Ni3 O5 2.079971 1_555
Ni3 O6 2.080020 1_555
Ni3 O13 2.080023 1_555
Ni3 O10 2.095159 1_555
Ni3 O15 2.095175 1_555
Ni3 O9 2.095222 1_555
As0 O2 1.700445 1_555
As0 O12 1.744095 1_555
As0 O6 1.744133 1_555
As0 O4 1.744242 1_554
As1 O3 1.700435 1_455
As1 O7 1.744098 1_455
As1 O13 1.744106 1_555
As1 O5 1.744271 1_455
As2 O0 1.700435 1_555
As2 O14 1.744098 1_555
As2 O8 1.744106 1_555
As2 O10 1.744271 1_556
As3 O1 1.700445 1_655
As3 O9 1.744095 1_555
As3 O15 1.744133 1_655
As3 O11 1.744242 1_655
