# generated using pymatgen
data_Cr3B7ClO13
_symmetry_space_group_name_H-M   'P 1'
_cell_length_a   8.66643200
_cell_length_b   8.68615200
_cell_length_c   12.27319700
_cell_angle_alpha   90.00000000
_cell_angle_beta   90.00000000
_cell_angle_gamma   90.00000000
_symmetry_Int_Tables_number   1
_chemical_formula_structural   Cr3B7ClO13
_chemical_formula_sum   'Cr12 B28 Cl4 O52'
_cell_volume   923.90105671
_cell_formula_units_Z   4
loop_
 _symmetry_equiv_pos_site_id
 _symmetry_equiv_pos_as_xyz
  1  'x, y, z'
loop_
 _atom_site_type_symbol
 _atom_site_label
 _atom_site_symmetry_multiplicity
 _atom_site_fract_x
 _atom_site_fract_y
 _atom_site_fract_z
 _atom_site_occupancy
  Cr  Cr0  1  0.49666500  0.99721100  0.99769100  1
  Cr  Cr1  1  0.99770800  0.00188500  0.49838700  1
  Cr  Cr2  1  0.75040700  0.24894700  0.25561300  1
  Cr  Cr3  1  0.00229200  0.99811500  0.99838700  1
  Cr  Cr4  1  0.50333500  0.00278900  0.49769100  1
  Cr  Cr5  1  0.99770800  0.49811500  0.99838700  1
  Cr  Cr6  1  0.49666500  0.50278900  0.49769100  1
  Cr  Cr7  1  0.00229200  0.50188500  0.49838700  1
  Cr  Cr8  1  0.24959300  0.75105300  0.75561300  1
  Cr  Cr9  1  0.75040700  0.25105300  0.75561300  1
  Cr  Cr10  1  0.50333500  0.49721100  0.99769100  1
  Cr  Cr11  1  0.24959300  0.74894700  0.25561300  1
  B  B0  1  0.49963600  0.49958700  0.24792600  1
  B  B1  1  0.74966700  0.74968000  0.49837800  1
  B  B2  1  0.08955900  0.25078800  0.66841700  1
  B  B3  1  0.99952900  0.00098900  0.74835500  1
  B  B4  1  0.58753800  0.74962000  0.16747400  1
  B  B5  1  0.25033300  0.24968000  0.49837800  1
  B  B6  1  0.99952900  0.49901100  0.24835500  1
  B  B7  1  0.50036400  0.99958700  0.24792600  1
  B  B8  1  0.91044100  0.75078800  0.66841700  1
  B  B9  1  0.58753800  0.75038000  0.66747400  1
  B  B10  1  0.25033300  0.25032000  0.99837800  1
  B  B11  1  0.74964600  0.59011100  0.32842000  1
  B  B12  1  0.49963600  0.00041300  0.74792600  1
  B  B13  1  0.00047100  0.99901100  0.24835500  1
  B  B14  1  0.74966700  0.75032000  0.99837800  1
  B  B15  1  0.25035400  0.40988900  0.82842000  1
  B  B16  1  0.24967300  0.09246300  0.82752500  1
  B  B17  1  0.75032700  0.59246300  0.82752500  1
  B  B18  1  0.91044100  0.74921200  0.16841700  1
  B  B19  1  0.25035400  0.09011100  0.32842000  1
  B  B20  1  0.75032700  0.90753700  0.32752500  1
  B  B21  1  0.41246200  0.24962000  0.16747400  1
  B  B22  1  0.50036400  0.50041300  0.74792600  1
  B  B23  1  0.08955900  0.24921200  0.16841700  1
  B  B24  1  0.41246200  0.25038000  0.66747400  1
  B  B25  1  0.24967300  0.40753700  0.32752500  1
  B  B26  1  0.74964600  0.90988900  0.82842000  1
  B  B27  1  0.00047100  0.50098900  0.74835500  1
  Cl  Cl0  1  0.25017300  0.75521900  0.99180600  1
  Cl  Cl1  1  0.74982700  0.24478100  0.49180600  1
  Cl  Cl2  1  0.74982700  0.25521900  0.99180600  1
  Cl  Cl3  1  0.25017300  0.74478100  0.49180600  1
  O  O0  1  0.04885500  0.09138200  0.65265100  1
  O  O1  1  0.16637000  0.52595900  0.76884800  1
  O  O2  1  0.54888000  0.90990900  0.65214200  1
  O  O3  1  0.86533500  0.82561500  0.56847100  1
  O  O4  1  0.82497400  0.63336200  0.42876400  1
  O  O5  1  0.08977000  0.05126600  0.84386400  1
  O  O6  1  0.45112000  0.09009100  0.15214200  1
  O  O7  1  0.95114500  0.90861800  0.15265100  1
  O  O8  1  0.45112000  0.40990900  0.65214200  1
  O  O9  1  0.97423800  0.33558700  0.72804300  1
  O  O10  1  0.52665900  0.33404100  0.22783900  1
  O  O11  1  0.91023000  0.55126600  0.84386400  1
  O  O12  1  0.58951500  0.55021600  0.34359100  1
  O  O13  1  0.17502600  0.13336200  0.42876400  1
  O  O14  1  0.32553500  0.36486900  0.42791600  1
  O  O15  1  0.33371400  0.52405500  0.26805900  1
  O  O16  1  0.33371400  0.97594500  0.76805900  1
  O  O17  1  0.24956100  0.25042400  0.74880600  1
  O  O18  1  0.66628600  0.47594500  0.76805900  1
  O  O19  1  0.95114500  0.59138200  0.65265100  1
  O  O20  1  0.32553500  0.13513100  0.92791600  1
  O  O21  1  0.75043900  0.75042400  0.74880600  1
  O  O22  1  0.16637000  0.97404100  0.26884800  1
  O  O23  1  0.02576200  0.66441300  0.22804300  1
  O  O24  1  0.82497400  0.86663800  0.92876400  1
  O  O25  1  0.75043900  0.74957600  0.24880600  1
  O  O26  1  0.66628600  0.02405500  0.26805900  1
  O  O27  1  0.52665900  0.16595900  0.72783900  1
  O  O28  1  0.04885500  0.40861800  0.15265100  1
  O  O29  1  0.08977000  0.44873400  0.34386400  1
  O  O30  1  0.97423800  0.16441300  0.22804300  1
  O  O31  1  0.47334100  0.83404100  0.22783900  1
  O  O32  1  0.67446500  0.86486900  0.42791600  1
  O  O33  1  0.63309300  0.67471600  0.56831400  1
  O  O34  1  0.83363000  0.02595900  0.76884800  1
  O  O35  1  0.13466500  0.32561500  0.56847100  1
  O  O36  1  0.86533500  0.67438500  0.06847100  1
  O  O37  1  0.47334100  0.66595900  0.72783900  1
  O  O38  1  0.41048500  0.05021600  0.34359100  1
  O  O39  1  0.13466500  0.17438500  0.06847100  1
  O  O40  1  0.63309300  0.82528400  0.06831400  1
  O  O41  1  0.17502600  0.36663800  0.92876400  1
  O  O42  1  0.36690700  0.17471600  0.56831400  1
  O  O43  1  0.67446500  0.63513100  0.92791600  1
  O  O44  1  0.58951500  0.94978400  0.84359100  1
  O  O45  1  0.36690700  0.32528400  0.06831400  1
  O  O46  1  0.54888000  0.59009100  0.15214200  1
  O  O47  1  0.02576200  0.83558700  0.72804300  1
  O  O48  1  0.91023000  0.94873400  0.34386400  1
  O  O49  1  0.24956100  0.24957600  0.24880600  1
  O  O50  1  0.41048500  0.44978400  0.84359100  1
  O  O51  1  0.83363000  0.47404100  0.26884800  1
loop_
_geom_bond_atom_site_label_1
_geom_bond_atom_site_label_2
_geom_bond_distance
_geom_bond_site_symmetry_2
Cr0 O20 2.089998 1_565
Cr0 O40 2.092707 1_556
Cr0 O44 2.096242 1_555
Cr0 O6 2.097619 1_566
Cr1 O48 2.093938 1_545
Cr1 O0 2.094144 1_655
Cr1 O13 2.096637 1_655
Cr1 O3 2.097672 1_545
Cr2 O51 2.090309 1_555
Cr2 O26 2.090638 1_555
Cr2 O30 2.101557 1_555
Cr2 O10 2.103003 1_555
Cr3 O5 2.093938 1_565
Cr3 O7 2.094144 1_456
Cr3 O24 2.096637 1_455
Cr3 O39 2.097672 1_566
Cr4 O32 2.089998 1_545
Cr4 O42 2.092707 1_555
Cr4 O38 2.096242 1_555
Cr4 O2 2.097619 1_545
Cr5 O11 2.093938 1_555
Cr5 O28 2.094144 1_656
Cr5 O41 2.096637 1_655
Cr5 O36 2.097672 1_556
Cr6 O14 2.089998 1_555
Cr6 O33 2.092707 1_555
Cr6 O12 2.096242 1_555
Cr6 O8 2.097619 1_555
Cr7 O29 2.093938 1_555
Cr7 O19 2.094144 1_455
Cr7 O4 2.096637 1_455
Cr7 O35 2.097672 1_555
Cr8 O1 2.090309 1_555
Cr8 O16 2.090638 1_555
Cr8 O47 2.101557 1_555
Cr8 O37 2.103003 1_555
Cr9 O34 2.090309 1_555
Cr9 O18 2.090638 1_555
Cr9 O9 2.101557 1_555
Cr9 O27 2.103003 1_555
Cr10 O43 2.089998 1_555
Cr10 O45 2.092707 1_556
Cr10 O50 2.096242 1_555
Cr10 O46 2.097619 1_556
Cr11 O22 2.090309 1_555
Cr11 O15 2.090638 1_555
Cr11 O23 2.101557 1_555
Cr11 O31 2.103003 1_555
B0 O15 1.474426 1_555
B0 O12 1.476035 1_555
B0 O46 1.477198 1_555
B0 O10 1.477615 1_555
B1 O32 1.474355 1_555
B1 O4 1.475377 1_555
B1 O3 1.476472 1_555
B1 O33 1.476958 1_555
B2 O9 1.441153 1_455
B2 O0 1.441897 1_555
B2 O35 1.442201 1_555
B2 O17 1.701833 1_555
B3 O5 1.475264 1_655
B3 O34 1.475613 1_555
B3 O47 1.475791 1_645
B3 O0 1.476109 1_655
B4 O31 1.437386 1_555
B4 O46 1.437984 1_555
B4 O40 1.438378 1_555
B4 O25 1.729019 1_555
B5 O14 1.474355 1_555
B5 O13 1.475377 1_555
B5 O35 1.476472 1_555
B5 O42 1.476958 1_555
B6 O29 1.475264 1_655
B6 O51 1.475613 1_555
B6 O23 1.475791 1_655
B6 O28 1.476109 1_655
B7 O26 1.474426 1_565
B7 O38 1.476035 1_565
B7 O6 1.477198 1_565
B7 O31 1.477615 1_555
B8 O47 1.441153 1_655
B8 O19 1.441897 1_555
B8 O3 1.442201 1_555
B8 O21 1.701833 1_555
B9 O37 1.437386 1_555
B9 O2 1.437984 1_555
B9 O33 1.438378 1_555
B9 O21 1.729019 1_555
B10 O20 1.474355 1_555
B10 O41 1.475377 1_555
B10 O39 1.476472 1_556
B10 O45 1.476958 1_556
B11 O12 1.442444 1_555
B11 O51 1.442494 1_555
B11 O4 1.443612 1_555
B11 O25 1.695114 1_555
B12 O16 1.474426 1_545
B12 O44 1.476035 1_545
B12 O2 1.477198 1_545
B12 O27 1.477615 1_555
B13 O48 1.475264 1_455
B13 O22 1.475613 1_555
B13 O30 1.475791 1_465
B13 O7 1.476109 1_455
B14 O43 1.474355 1_555
B14 O24 1.475377 1_555
B14 O36 1.476472 1_556
B14 O40 1.476958 1_556
B15 O50 1.442444 1_555
B15 O1 1.442494 1_555
B15 O41 1.443612 1_555
B15 O17 1.695114 1_555
B16 O16 1.444807 1_545
B16 O20 1.444894 1_555
B16 O5 1.445225 1_555
B16 O17 1.678094 1_555
B17 O18 1.444807 1_555
B17 O43 1.444894 1_555
B17 O11 1.445225 1_555
B17 O21 1.678094 1_555
B18 O23 1.441153 1_655
B18 O7 1.441897 1_555
B18 O36 1.442201 1_555
B18 O25 1.701833 1_555
B19 O38 1.442444 1_555
B19 O22 1.442494 1_545
B19 O13 1.443612 1_555
B19 O49 1.695114 1_555
B20 O26 1.444807 1_565
B20 O32 1.444894 1_555
B20 O48 1.445225 1_555
B20 O25 1.678094 1_555
B21 O10 1.437386 1_555
B21 O6 1.437984 1_555
B21 O45 1.438378 1_555
B21 O49 1.729019 1_555
B22 O18 1.474426 1_555
B22 O50 1.476035 1_555
B22 O8 1.477198 1_555
B22 O37 1.477615 1_555
B23 O30 1.441153 1_455
B23 O28 1.441897 1_555
B23 O39 1.442201 1_555
B23 O49 1.701833 1_555
B24 O27 1.437386 1_555
B24 O8 1.437984 1_555
B24 O42 1.438378 1_555
B24 O17 1.729019 1_555
B25 O15 1.444807 1_555
B25 O14 1.444894 1_555
B25 O29 1.445225 1_555
B25 O49 1.678094 1_555
B26 O44 1.442444 1_555
B26 O34 1.442494 1_565
B26 O24 1.443612 1_555
B26 O21 1.695114 1_555
B27 O11 1.475264 1_455
B27 O1 1.475613 1_555
B27 O9 1.475791 1_455
B27 O19 1.476109 1_455
Cl0 Cr8 2.899073 1_555
Cl0 Cr0 2.997818 1_555
Cl0 Cr3 3.012120 1_555
Cl1 Cr2 2.899073 1_555
Cl1 Cr4 2.997818 1_555
Cl1 Cr1 3.012120 1_555
Cl2 Cr9 2.899073 1_555
Cl2 Cr10 2.997818 1_555
Cl2 Cr5 3.012120 1_555
Cl3 Cr11 2.899073 1_555
Cl3 Cr6 2.997818 1_555
Cl3 Cr7 3.012120 1_555
