# generated using pymatgen
data_Sr3MoN4
_symmetry_space_group_name_H-M   'P 1'
_cell_length_a   10.32093579
_cell_length_b   10.32093579
_cell_length_c   9.90886718
_cell_angle_alpha   83.12235285
_cell_angle_beta   83.12235285
_cell_angle_gamma   60.01020590
_symmetry_Int_Tables_number   1
_chemical_formula_structural   Sr3MoN4
_chemical_formula_sum   'Sr18 Mo6 N24'
_cell_volume   905.40932951
_cell_formula_units_Z   6
loop_
 _symmetry_equiv_pos_site_id
 _symmetry_equiv_pos_as_xyz
  1  'x, y, z'
loop_
 _atom_site_type_symbol
 _atom_site_label
 _atom_site_symmetry_multiplicity
 _atom_site_fract_x
 _atom_site_fract_y
 _atom_site_fract_z
 _atom_site_occupancy
  Sr  Sr0  1  0.72029076  0.65082454  0.70153495  1
  Sr  Sr1  1  0.68310526  0.36113402  0.91230173  1
  Sr  Sr2  1  0.38793816  0.91951858  0.90001382  1
  Sr  Sr3  1  0.27970924  0.34917546  0.29846505  1
  Sr  Sr4  1  0.34917546  0.27970924  0.79846505  1
  Sr  Sr5  1  0.63886598  0.31689474  0.58769827  1
  Sr  Sr6  1  0.65082454  0.72029076  0.20153495  1
  Sr  Sr7  1  0.61206184  0.08048142  0.09998618  1
  Sr  Sr8  1  0.95016294  0.69497141  0.95436013  1
  Sr  Sr9  1  0.98663278  0.01336722  0.25000000  1
  Sr  Sr10  1  0.31689474  0.63886598  0.08769827  1
  Sr  Sr11  1  0.01336722  0.98663278  0.75000000  1
  Sr  Sr12  1  0.69497141  0.95016294  0.45436013  1
  Sr  Sr13  1  0.36113402  0.68310526  0.41230173  1
  Sr  Sr14  1  0.04983706  0.30502859  0.04563987  1
  Sr  Sr15  1  0.91951858  0.38793816  0.40001382  1
  Sr  Sr16  1  0.08048142  0.61206184  0.59998618  1
  Sr  Sr17  1  0.30502859  0.04983706  0.54563987  1
  Mo  Mo0  1  0.02745722  0.32401105  0.71189998  1
  Mo  Mo1  1  0.32401105  0.02745722  0.21189998  1
  Mo  Mo2  1  0.66551205  0.33448795  0.25000000  1
  Mo  Mo3  1  0.33448795  0.66551205  0.75000000  1
  Mo  Mo4  1  0.97254278  0.67598895  0.28810002  1
  Mo  Mo5  1  0.67598895  0.97254278  0.78810002  1
  N  N0  1  0.15569703  0.64877304  0.33607303  1
  N  N1  1  0.01310409  0.51800582  0.18385845  1
  N  N2  1  0.17162425  0.72663393  0.87701959  1
  N  N3  1  0.85543082  0.66543848  0.44278770  1
  N  N4  1  0.82837575  0.27336607  0.12298041  1
  N  N5  1  0.98689591  0.48199418  0.81614155  1
  N  N6  1  0.85742312  0.86334448  0.69177856  1
  N  N7  1  0.36846082  0.50211386  0.65620946  1
  N  N8  1  0.51800582  0.01310409  0.68385845  1
  N  N9  1  0.50211386  0.36846082  0.15620946  1
  N  N10  1  0.35122696  0.84430297  0.16392697  1
  N  N11  1  0.27336607  0.82837575  0.62298041  1
  N  N12  1  0.49788614  0.63153918  0.84379054  1
  N  N13  1  0.14456918  0.33456152  0.55721230  1
  N  N14  1  0.64877304  0.15569703  0.83607303  1
  N  N15  1  0.14257688  0.13665552  0.30822144  1
  N  N16  1  0.66543848  0.85543082  0.94278770  1
  N  N17  1  0.63153918  0.49788614  0.34379054  1
  N  N18  1  0.86334448  0.85742312  0.19177856  1
  N  N19  1  0.48199418  0.98689591  0.31614155  1
  N  N20  1  0.13665552  0.14257688  0.80822144  1
  N  N21  1  0.33456152  0.14456918  0.05721230  1
  N  N22  1  0.84430297  0.35122696  0.66392697  1
  N  N23  1  0.72663393  0.17162425  0.37701959  1
loop_
_geom_bond_atom_site_label_1
_geom_bond_atom_site_label_2
_geom_bond_distance
_geom_bond_site_symmetry_2
Mo0 N20 1.845929 1_555
Mo0 N13 1.862827 1_555
Mo0 N5 1.875694 1_455
Mo0 N22 1.878990 1_455
Mo1 N15 1.845929 1_555
Mo1 N21 1.862827 1_555
Mo1 N19 1.875694 1_545
Mo1 N10 1.878990 1_545
Mo2 N4 1.852281 1_555
Mo2 N23 1.852281 1_555
Mo2 N17 1.880654 1_555
Mo2 N9 1.880654 1_555
Mo3 N11 1.852281 1_555
Mo3 N2 1.852281 1_555
Mo3 N12 1.880654 1_555
Mo3 N7 1.880654 1_555
Mo4 N18 1.845929 1_555
Mo4 N3 1.862827 1_555
Mo4 N1 1.875694 1_655
Mo4 N0 1.878990 1_655
Mo5 N6 1.845929 1_555
Mo5 N16 1.862827 1_555
Mo5 N8 1.875694 1_565
Mo5 N14 1.878990 1_565
N0 Sr13 2.527949 1_555
N0 Sr16 2.674954 1_555
N0 Sr3 2.746562 1_555
N0 Sr10 2.782988 1_555
N1 Sr14 2.571930 1_555
N1 Sr8 2.665002 1_454
N1 Sr3 2.716352 1_555
N1 Sr15 2.726666 1_455
N2 Sr8 2.487100 1_455
N2 Sr10 2.523003 1_556
N2 Sr11 2.598962 1_555
N3 Sr12 2.561521 1_555
N3 Sr15 2.673903 1_555
N3 Sr16 2.739832 1_655
N3 Sr0 2.793369 1_555
N3 Sr6 3.191293 1_555
N4 Sr14 2.487100 1_655
N4 Sr1 2.523003 1_554
N4 Sr9 2.598962 1_555
N5 Sr8 2.571930 1_555
N5 Sr14 2.665002 1_656
N5 Sr0 2.716352 1_555
N5 Sr16 2.726666 1_655
N6 Sr16 2.635919 1_655
N6 Sr11 2.643476 1_655
N6 Sr12 2.843672 1_555
N6 Sr8 2.925160 1_555
N6 Sr0 3.137424 1_555
N7 Sr5 2.535273 1_555
N7 Sr4 2.628719 1_555
N7 Sr16 2.702882 1_555
N7 Sr13 2.856152 1_555
N8 Sr17 2.571930 1_555
N8 Sr12 2.665002 1_545
N8 Sr4 2.716352 1_555
N8 Sr2 2.726666 1_545
N9 Sr10 2.535273 1_555
N9 Sr3 2.628719 1_555
N9 Sr7 2.702882 1_555
N9 Sr1 2.856152 1_554
N10 Sr10 2.527949 1_555
N10 Sr2 2.674954 1_554
N10 Sr6 2.746562 1_555
N10 Sr13 2.782988 1_555
N11 Sr17 2.487100 1_565
N11 Sr13 2.523003 1_555
N11 Sr11 2.598962 1_555
N12 Sr1 2.535273 1_555
N12 Sr0 2.628719 1_555
N12 Sr2 2.702882 1_555
N12 Sr10 2.856152 1_556
N13 Sr17 2.561521 1_555
N13 Sr16 2.673903 1_555
N13 Sr15 2.739832 1_455
N13 Sr3 2.793369 1_555
N13 Sr4 3.191293 1_555
N14 Sr1 2.527949 1_555
N14 Sr7 2.674954 1_556
N14 Sr4 2.746562 1_555
N14 Sr5 2.782988 1_555
N15 Sr15 2.635919 1_455
N15 Sr9 2.643476 1_455
N15 Sr17 2.843672 1_555
N15 Sr14 2.925160 1_555
N15 Sr3 3.137424 1_555
N16 Sr8 2.561521 1_555
N16 Sr2 2.673903 1_555
N16 Sr7 2.739832 1_566
N16 Sr6 2.793369 1_556
N16 Sr0 3.191293 1_555
N17 Sr13 2.535273 1_555
N17 Sr6 2.628719 1_555
N17 Sr15 2.702882 1_555
N17 Sr5 2.856152 1_555
N18 Sr7 2.635919 1_565
N18 Sr9 2.643476 1_565
N18 Sr8 2.843672 1_554
N18 Sr12 2.925160 1_555
N18 Sr6 3.137424 1_555
N19 Sr12 2.571930 1_555
N19 Sr17 2.665002 1_565
N19 Sr6 2.716352 1_555
N19 Sr7 2.726666 1_565
N20 Sr2 2.635919 1_545
N20 Sr11 2.643476 1_545
N20 Sr14 2.843672 1_556
N20 Sr17 2.925160 1_555
N20 Sr4 3.137424 1_555
N21 Sr14 2.561521 1_555
N21 Sr7 2.673903 1_555
N21 Sr2 2.739832 1_544
N21 Sr4 2.793369 1_554
N21 Sr3 3.191293 1_555
N22 Sr5 2.527949 1_555
N22 Sr15 2.674954 1_555
N22 Sr0 2.746562 1_555
N22 Sr1 2.782988 1_555
N23 Sr12 2.487100 1_545
N23 Sr5 2.523003 1_555
N23 Sr9 2.598962 1_555
