# generated using pymatgen
data_Ce2MgSi2
_symmetry_space_group_name_H-M   'P 1'
_cell_length_a   4.34389520
_cell_length_b   7.38450604
_cell_length_c   7.38450604
_cell_angle_alpha   90.00122110
_cell_angle_beta   90.00000000
_cell_angle_gamma   90.00000000
_symmetry_Int_Tables_number   1
_chemical_formula_structural   Ce2MgSi2
_chemical_formula_sum   'Ce4 Mg2 Si4'
_cell_volume   236.87664268
_cell_formula_units_Z   2
loop_
 _symmetry_equiv_pos_site_id
 _symmetry_equiv_pos_as_xyz
  1  'x, y, z'
loop_
 _atom_site_type_symbol
 _atom_site_label
 _atom_site_symmetry_multiplicity
 _atom_site_fract_x
 _atom_site_fract_y
 _atom_site_fract_z
 _atom_site_occupancy
  Ce  Ce0  1  0.50000000  0.17988700  0.67988700  1
  Ce  Ce1  1  0.50000000  0.32009355  0.17990645  1
  Ce  Ce2  1  0.50000000  0.67990645  0.82009355  1
  Ce  Ce3  1  0.50000000  0.82011300  0.32011300  1
  Mg  Mg0  1  0.00000000  0.00000000  -0.00000000  1
  Mg  Mg1  1  0.00000000  0.50000000  0.50000000  1
  Si  Si0  1  0.00000000  0.38544176  0.88544176  1
  Si  Si1  1  0.00000000  0.11455921  0.38544079  1
  Si  Si2  1  0.00000000  0.88544079  0.61455921  1
  Si  Si3  1  0.00000000  0.61455824  0.11455824  1
loop_
_geom_bond_atom_site_label_1
_geom_bond_atom_site_label_2
_geom_bond_distance
_geom_bond_site_symmetry_2
Ce0 Si0 3.053755 1_555
Ce0 Si0 3.053755 1_655
Ce0 Si2 3.110914 1_645
Ce0 Si1 3.110914 1_555
Ce0 Si1 3.110914 1_655
Ce0 Si2 3.110914 1_545
Ce1 Si1 3.053638 1_555
Ce1 Si1 3.053638 1_655
Ce1 Si0 3.111047 1_654
Ce1 Si3 3.111047 1_555
Ce1 Si3 3.111047 1_655
Ce1 Si0 3.111047 1_554
Ce2 Si2 3.053638 1_655
Ce2 Si2 3.053638 1_555
Ce2 Si0 3.111047 1_555
Ce2 Si0 3.111047 1_655
Ce2 Si3 3.111047 1_656
Ce2 Si3 3.111047 1_556
Ce3 Si3 3.053755 1_655
Ce3 Si3 3.053755 1_555
Ce3 Si1 3.110914 1_565
Ce3 Si1 3.110914 1_665
Ce3 Si2 3.110914 1_655
Ce3 Si2 3.110914 1_555
Mg0 Si1 2.969329 1_555
Mg0 Si2 2.969329 1_544
Mg0 Si0 2.969369 1_554
Mg0 Si3 2.969369 1_545
Mg1 Si1 2.969329 1_555
Mg1 Si2 2.969329 1_555
Mg1 Si0 2.969369 1_555
Mg1 Si3 2.969369 1_555
Si0 Si3 2.392699 1_556
Si1 Si2 2.392771 1_545
