# generated using pymatgen
data_Na3H5(CO2)4
_symmetry_space_group_name_H-M   'P 1'
_cell_length_a   3.57252200
_cell_length_b   8.55516824
_cell_length_c   8.68436014
_cell_angle_alpha   113.65656979
_cell_angle_beta   86.83743995
_cell_angle_gamma   100.31212992
_symmetry_Int_Tables_number   1
_chemical_formula_structural   Na3H5(CO2)4
_chemical_formula_sum   'Na3 H5 C4 O8'
_cell_volume   239.15228611
_cell_formula_units_Z   1
loop_
 _symmetry_equiv_pos_site_id
 _symmetry_equiv_pos_as_xyz
  1  'x, y, z'
loop_
 _atom_site_type_symbol
 _atom_site_label
 _atom_site_symmetry_multiplicity
 _atom_site_fract_x
 _atom_site_fract_y
 _atom_site_fract_z
 _atom_site_occupancy
  Na  Na0  1  0.28430700  0.53688600  0.83276300  1
  Na  Na1  1  0.00000000  0.00000000  0.00000000  1
  Na  Na2  1  0.71569300  0.46311400  0.16723700  1
  H  H0  1  0.91760200  0.16100300  0.38355500  1
  H  H1  1  0.43706900  0.86235800  0.34378600  1
  H  H2  1  0.08239800  0.83899700  0.61644500  1
  H  H3  1  0.56293100  0.13764200  0.65621400  1
  H  H4  1  0.50000000  0.50000000  0.50000000  1
  C  C0  1  0.88886200  0.72599800  0.62428300  1
  C  C1  1  0.61111400  0.19396600  0.79568000  1
  C  C2  1  0.11113800  0.27400200  0.37571700  1
  C  C3  1  0.38888600  0.80603400  0.20432000  1
  O  O0  1  0.13750800  0.29392700  0.24019400  1
  O  O1  1  0.86249200  0.70607300  0.75980600  1
  O  O2  1  0.71098100  0.35734800  0.86563900  1
  O  O3  1  0.44025300  0.91019600  0.13234500  1
  O  O4  1  0.28901900  0.64265200  0.13436100  1
  O  O5  1  0.70508900  0.62374900  0.48606700  1
  O  O6  1  0.55974700  0.08980400  0.86765500  1
  O  O7  1  0.29491100  0.37625100  0.51393300  1
loop_
_geom_bond_atom_site_label_1
_geom_bond_atom_site_label_2
_geom_bond_distance
_geom_bond_site_symmetry_2
Na0 O4 2.403469 1_556
Na0 O2 2.407697 1_455
Na0 O2 2.449983 1_555
Na0 O1 2.506837 1_555
Na0 O1 2.527756 1_455
Na0 O7 2.551454 1_555
Na1 O3 2.392839 1_545
Na1 O6 2.392839 1_454
Na1 O6 2.411442 1_554
Na1 O3 2.411442 1_445
Na1 O0 2.525284 1_555
Na1 O1 2.525284 1_444
Na2 O2 2.403469 1_554
Na2 O4 2.407697 1_655
Na2 O4 2.449983 1_555
Na2 O0 2.506837 1_555
Na2 O0 2.527756 1_655
Na2 O5 2.551454 1_555
H4 O7 1.219675 1_555
H4 O5 1.219675 1_555
C0 H2 1.107047 1_655
C0 O1 1.251445 1_555
C0 O5 1.294494 1_555
C1 H3 1.119693 1_555
C1 O6 1.262643 1_555
C1 O2 1.270441 1_555
C2 H0 1.107047 1_455
C2 O0 1.251445 1_555
C2 O7 1.294494 1_555
C3 H1 1.119693 1_555
C3 O3 1.262643 1_555
C3 O4 1.270441 1_555
