# generated using pymatgen
data_Cs3Ga2F9
_symmetry_space_group_name_H-M   'P 1'
_cell_length_a   11.11359783
_cell_length_b   11.11359783
_cell_length_c   15.21529900
_cell_angle_alpha   90.00000000
_cell_angle_beta   90.00000000
_cell_angle_gamma   119.99999899
_symmetry_Int_Tables_number   1
_chemical_formula_structural   Cs3Ga2F9
_chemical_formula_sum   'Cs18 Ga12 F54'
_cell_volume   1627.49806558
_cell_formula_units_Z   6
loop_
 _symmetry_equiv_pos_site_id
 _symmetry_equiv_pos_as_xyz
  1  'x, y, z'
loop_
 _atom_site_type_symbol
 _atom_site_label
 _atom_site_symmetry_multiplicity
 _atom_site_fract_x
 _atom_site_fract_y
 _atom_site_fract_z
 _atom_site_occupancy
  Cs  Cs0  1  0.68026700  0.68026700  0.18200100  1
  Cs  Cs1  1  0.65539500  0.65539500  0.49947800  1
  Cs  Cs2  1  0.00000000  0.68026700  0.68200100  1
  Cs  Cs3  1  0.31973300  0.00000000  0.18200100  1
  Cs  Cs4  1  0.00000000  0.66283100  0.35202400  1
  Cs  Cs5  1  0.31973300  0.31973300  0.68200100  1
  Cs  Cs6  1  0.34460500  0.00000000  0.49947800  1
  Cs  Cs7  1  0.65539500  0.00000000  0.99947800  1
  Cs  Cs8  1  0.00000000  0.34460500  0.49947800  1
  Cs  Cs9  1  0.66283100  0.00000000  0.35202400  1
  Cs  Cs10  1  0.33716900  0.00000000  0.85202400  1
  Cs  Cs11  1  0.66283100  0.66283100  0.85202400  1
  Cs  Cs12  1  0.68026700  0.00000000  0.68200100  1
  Cs  Cs13  1  0.00000000  0.31973300  0.18200100  1
  Cs  Cs14  1  0.00000000  0.33716900  0.85202400  1
  Cs  Cs15  1  0.34460500  0.34460500  0.99947800  1
  Cs  Cs16  1  0.33716900  0.33716900  0.35202400  1
  Cs  Cs17  1  0.00000000  0.65539500  0.99947800  1
  Ga  Ga0  1  0.00000000  0.00000000  0.40698000  1
  Ga  Ga1  1  0.66666700  0.33333300  0.27408400  1
  Ga  Ga2  1  0.00000000  0.00000000  0.90698000  1
  Ga  Ga3  1  0.33333300  0.66666700  0.27408400  1
  Ga  Ga4  1  0.33333300  0.66666700  0.58412000  1
  Ga  Ga5  1  0.33333300  0.66666700  0.08412000  1
  Ga  Ga6  1  0.66666700  0.33333300  0.58412000  1
  Ga  Ga7  1  0.66666700  0.33333300  0.77408400  1
  Ga  Ga8  1  0.33333300  0.66666700  0.77408400  1
  Ga  Ga9  1  0.00000000  0.00000000  0.09694900  1
  Ga  Ga10  1  0.66666700  0.33333300  0.08412000  1
  Ga  Ga11  1  0.00000000  0.00000000  0.59694900  1
  F  F0  1  0.18625100  0.51745500  0.33065000  1
  F  F1  1  0.20110600  0.66361600  0.17945500  1
  F  F2  1  0.51643000  0.32961900  0.52793800  1
  F  F3  1  0.18681100  0.67038100  0.52793800  1
  F  F4  1  0.85116600  0.85116600  0.35185600  1
  F  F5  1  0.79889400  0.33638400  0.67945500  1
  F  F6  1  0.14873300  0.14873300  0.15231000  1
  F  F7  1  0.79889400  0.46251000  0.17945500  1
  F  F8  1  0.48254500  0.66879600  0.33065000  1
  F  F9  1  0.00000000  0.85116600  0.85185600  1
  F  F10  1  0.81374900  0.33120400  0.33065000  1
  F  F11  1  0.33120400  0.51745500  0.83065000  1
  F  F12  1  0.66361600  0.20110600  0.17945500  1
  F  F13  1  0.66361600  0.46251000  0.67945500  1
  F  F14  1  0.51745500  0.33120400  0.83065000  1
  F  F15  1  0.85116600  0.00000000  0.85185600  1
  F  F16  1  0.18625100  0.66879600  0.83065000  1
  F  F17  1  0.32961900  0.81318900  0.02793800  1
  F  F18  1  0.46251000  0.79889400  0.17945500  1
  F  F19  1  0.53749000  0.20110600  0.67945500  1
  F  F20  1  0.00000000  0.14873300  0.65231000  1
  F  F21  1  0.33638400  0.79889400  0.67945500  1
  F  F22  1  0.00000000  0.14883400  0.35185600  1
  F  F23  1  0.85126700  0.85126700  0.65231000  1
  F  F24  1  0.53749000  0.33638400  0.17945500  1
  F  F25  1  0.13084900  0.13084900  0.50176500  1
  F  F26  1  0.66879600  0.48254500  0.33065000  1
  F  F27  1  0.32961900  0.51643000  0.52793800  1
  F  F28  1  0.85126700  0.00000000  0.15231000  1
  F  F29  1  0.48357000  0.81318900  0.52793800  1
  F  F30  1  0.67038100  0.48357000  0.02793800  1
  F  F31  1  0.00000000  0.86915100  0.50176500  1
  F  F32  1  0.14873300  0.00000000  0.65231000  1
  F  F33  1  0.33120400  0.81374900  0.33065000  1
  F  F34  1  0.18681100  0.51643000  0.02793800  1
  F  F35  1  0.00000000  0.85126700  0.15231000  1
  F  F36  1  0.48357000  0.67038100  0.02793800  1
  F  F37  1  0.86915100  0.00000000  0.50176500  1
  F  F38  1  0.14883400  0.14883400  0.85185600  1
  F  F39  1  0.46251000  0.66361600  0.67945500  1
  F  F40  1  0.86915100  0.86915100  0.00176500  1
  F  F41  1  0.51745500  0.18625100  0.33065000  1
  F  F42  1  0.67038100  0.18681100  0.52793800  1
  F  F43  1  0.51643000  0.18681100  0.02793800  1
  F  F44  1  0.33638400  0.53749000  0.17945500  1
  F  F45  1  0.48254500  0.81374900  0.83065000  1
  F  F46  1  0.00000000  0.13084900  0.00176500  1
  F  F47  1  0.20110600  0.53749000  0.67945500  1
  F  F48  1  0.81318900  0.48357000  0.52793800  1
  F  F49  1  0.13084900  0.00000000  0.00176500  1
  F  F50  1  0.66879600  0.18625100  0.83065000  1
  F  F51  1  0.14883400  0.00000000  0.35185600  1
  F  F52  1  0.81374900  0.48254500  0.83065000  1
  F  F53  1  0.81318900  0.32961900  0.02793800  1
loop_
_geom_bond_atom_site_label_1
_geom_bond_atom_site_label_2
_geom_bond_distance
_geom_bond_site_symmetry_2
Cs0 F8 3.111296 1_555
Cs0 F26 3.111296 1_555
Cs0 F35 3.112764 1_655
Cs0 F28 3.112764 1_565
Cs0 F36 3.169450 1_555
Cs0 F30 3.169450 1_555
Cs0 F4 3.207249 1_555
Cs0 F7 3.284336 1_555
Cs0 F18 3.284336 1_555
Cs0 F24 3.325815 1_555
Cs0 F44 3.325815 1_555
Cs0 F40 3.453551 1_555
Cs1 F4 3.127104 1_555
Cs1 F27 3.176390 1_555
Cs1 F2 3.176390 1_555
Cs1 F23 3.185288 1_555
Cs1 F29 3.202836 1_555
Cs1 F48 3.202836 1_555
Cs1 F26 3.255309 1_555
Cs1 F8 3.255309 1_555
Cs1 F37 3.348729 1_565
Cs1 F31 3.348729 1_655
Cs1 F13 3.506890 1_555
Cs1 F39 3.506890 1_555
Cs2 F16 3.111296 1_555
Cs2 F52 3.111296 1_455
Cs2 F23 3.112764 1_455
Cs2 F32 3.112764 1_565
Cs2 F3 3.169450 1_555
Cs2 F48 3.169450 1_455
Cs2 F9 3.207249 1_555
Cs2 F21 3.284336 1_555
Cs2 F13 3.284336 1_455
Cs2 F47 3.325815 1_555
Cs2 F5 3.325815 1_455
Cs2 F31 3.453551 1_555
Cs3 F33 3.111296 1_545
Cs3 F41 3.111296 1_555
Cs3 F6 3.112764 1_555
Cs3 F35 3.112764 1_545
Cs3 F17 3.169450 1_545
Cs3 F43 3.169450 1_555
Cs3 F51 3.207249 1_555
Cs3 F1 3.284336 1_545
Cs3 F24 3.284336 1_555
Cs3 F18 3.325815 1_545
Cs3 F12 3.325815 1_555
Cs3 F49 3.453551 1_555
Cs4 F33 3.208424 1_555
Cs4 F26 3.208424 1_455
Cs4 F0 3.216352 1_555
Cs4 F10 3.216352 1_455
Cs4 F31 3.232422 1_555
Cs4 F4 3.252552 1_455
Cs4 F51 3.252552 1_565
Cs4 F3 3.362634 1_555
Cs4 F48 3.362634 1_455
Cs4 F1 3.445300 1_555
Cs4 F7 3.445300 1_455
Cs4 F35 3.690451 1_555
Cs5 F11 3.111296 1_555
Cs5 F14 3.111296 1_555
Cs5 F32 3.112764 1_555
Cs5 F20 3.112764 1_555
Cs5 F2 3.169450 1_555
Cs5 F27 3.169450 1_555
Cs5 F38 3.207249 1_555
Cs5 F47 3.284336 1_555
Cs5 F19 3.284336 1_555
Cs5 F13 3.325815 1_555
Cs5 F39 3.325815 1_555
Cs5 F25 3.453551 1_555
Cs6 F51 3.127104 1_555
Cs6 F29 3.176390 1_545
Cs6 F42 3.176390 1_555
Cs6 F32 3.185288 1_555
Cs6 F3 3.202836 1_545
Cs6 F2 3.202836 1_555
Cs6 F33 3.255309 1_545
Cs6 F41 3.255309 1_555
Cs6 F25 3.348729 1_555
Cs6 F31 3.348729 1_545
Cs6 F21 3.506890 1_545
Cs6 F19 3.506890 1_555
Cs7 F15 3.127104 1_555
Cs7 F43 3.176390 1_556
Cs7 F17 3.176390 1_546
Cs7 F28 3.185288 1_556
Cs7 F53 3.202836 1_556
Cs7 F36 3.202836 1_546
Cs7 F50 3.255309 1_555
Cs7 F45 3.255309 1_545
Cs7 F40 3.348729 1_546
Cs7 F46 3.348729 1_656
Cs7 F12 3.506890 1_556
Cs7 F18 3.506890 1_546
Cs8 F22 3.127104 1_555
Cs8 F48 3.176390 1_455
Cs8 F3 3.176390 1_555
Cs8 F20 3.185288 1_555
Cs8 F42 3.202836 1_455
Cs8 F27 3.202836 1_555
Cs8 F10 3.255309 1_455
Cs8 F0 3.255309 1_555
Cs8 F25 3.348729 1_555
Cs8 F37 3.348729 1_455
Cs8 F5 3.506890 1_455
Cs8 F47 3.506890 1_555
Cs9 F10 3.208424 1_555
Cs9 F8 3.208424 1_545
Cs9 F41 3.216352 1_555
Cs9 F33 3.216352 1_545
Cs9 F37 3.232422 1_555
Cs9 F4 3.252552 1_545
Cs9 F22 3.252552 1_655
Cs9 F42 3.362634 1_555
Cs9 F29 3.362634 1_545
Cs9 F12 3.445300 1_555
Cs9 F18 3.445300 1_545
Cs9 F28 3.690451 1_555
Cs10 F16 3.208424 1_545
Cs10 F14 3.208424 1_555
Cs10 F45 3.216352 1_545
Cs10 F50 3.216352 1_555
Cs10 F49 3.232422 1_556
Cs10 F38 3.252552 1_555
Cs10 F9 3.252552 1_545
Cs10 F17 3.362634 1_546
Cs10 F43 3.362634 1_556
Cs10 F21 3.445300 1_545
Cs10 F19 3.445300 1_555
Cs10 F32 3.690451 1_555
Cs11 F52 3.208424 1_555
Cs11 F45 3.208424 1_555
Cs11 F11 3.216352 1_555
Cs11 F14 3.216352 1_555
Cs11 F40 3.232422 1_556
Cs11 F9 3.252552 1_655
Cs11 F15 3.252552 1_565
Cs11 F36 3.362634 1_556
Cs11 F30 3.362634 1_556
Cs11 F13 3.445300 1_555
Cs11 F39 3.445300 1_555
Cs11 F23 3.690451 1_555
Cs12 F50 3.111296 1_555
Cs12 F45 3.111296 1_545
Cs12 F23 3.112764 1_545
Cs12 F20 3.112764 1_655
Cs12 F42 3.169450 1_555
Cs12 F29 3.169450 1_545
Cs12 F15 3.207249 1_555
Cs12 F5 3.284336 1_555
Cs12 F39 3.284336 1_545
Cs12 F19 3.325815 1_555
Cs12 F21 3.325815 1_545
Cs12 F37 3.453551 1_555
Cs13 F10 3.111296 1_455
Cs13 F0 3.111296 1_555
Cs13 F6 3.112764 1_555
Cs13 F28 3.112764 1_455
Cs13 F53 3.169450 1_455
Cs13 F34 3.169450 1_555
Cs13 F22 3.207249 1_555
Cs13 F12 3.284336 1_455
Cs13 F44 3.284336 1_555
Cs13 F7 3.325815 1_455
Cs13 F1 3.325815 1_555
Cs13 F46 3.453551 1_555
Cs14 F50 3.208424 1_455
Cs14 F11 3.208424 1_555
Cs14 F52 3.216352 1_455
Cs14 F16 3.216352 1_555
Cs14 F46 3.232422 1_556
Cs14 F38 3.252552 1_555
Cs14 F15 3.252552 1_455
Cs14 F53 3.362634 1_456
Cs14 F34 3.362634 1_556
Cs14 F5 3.445300 1_455
Cs14 F47 3.445300 1_555
Cs14 F20 3.690451 1_555
Cs15 F38 3.127104 1_555
Cs15 F36 3.176390 1_556
Cs15 F30 3.176390 1_556
Cs15 F6 3.185288 1_556
Cs15 F34 3.202836 1_556
Cs15 F43 3.202836 1_556
Cs15 F14 3.255309 1_555
Cs15 F11 3.255309 1_555
Cs15 F46 3.348729 1_556
Cs15 F49 3.348729 1_556
Cs15 F24 3.506890 1_556
Cs15 F44 3.506890 1_556
Cs16 F0 3.208424 1_555
Cs16 F41 3.208424 1_555
Cs16 F8 3.216352 1_555
Cs16 F26 3.216352 1_555
Cs16 F25 3.232422 1_555
Cs16 F22 3.252552 1_555
Cs16 F51 3.252552 1_555
Cs16 F2 3.362634 1_555
Cs16 F27 3.362634 1_555
Cs16 F44 3.445300 1_555
Cs16 F24 3.445300 1_555
Cs16 F6 3.690451 1_555
Cs17 F9 3.127104 1_555
Cs17 F34 3.176390 1_556
Cs17 F53 3.176390 1_456
Cs17 F35 3.185288 1_556
Cs17 F17 3.202836 1_556
Cs17 F30 3.202836 1_456
Cs17 F16 3.255309 1_555
Cs17 F52 3.255309 1_455
Cs17 F40 3.348729 1_456
Cs17 F49 3.348729 1_566
Cs17 F1 3.506890 1_556
Cs17 F7 3.506890 1_456
F0 Ga3 1.857944 1_555
F1 Ga3 2.045447 1_555
F1 Ga5 2.053022 1_555
F2 Ga6 1.857774 1_555
F3 Ga4 1.857764 1_555
F4 Ga0 1.854575 1_665
F5 Ga7 2.045447 1_555
F5 Ga6 2.053022 1_555
F6 Ga9 1.855209 1_555
F7 Ga1 2.045451 1_555
F7 Ga10 2.053026 1_555
F8 Ga3 1.857949 1_555
F9 Ga2 1.854575 1_565
F10 Ga1 1.857939 1_555
F11 Ga8 1.857949 1_555
F12 Ga1 2.045447 1_555
F12 Ga10 2.053022 1_555
F13 Ga7 2.045455 1_555
F13 Ga6 2.053030 1_555
F14 Ga7 1.857949 1_555
F15 Ga2 1.854575 1_655
F16 Ga8 1.857939 1_555
F17 Ga5 1.857764 1_555
F18 Ga3 2.045451 1_555
F18 Ga5 2.053026 1_555
F19 Ga7 2.045451 1_555
F19 Ga6 2.053026 1_555
F20 Ga11 1.855209 1_555
F21 Ga8 2.045447 1_555
F21 Ga4 2.053022 1_555
F22 Ga0 1.854575 1_555
F23 Ga11 1.855209 1_665
F24 Ga1 2.045455 1_555
F24 Ga10 2.053030 1_555
F25 Ga0 2.048071 1_555
F25 Ga11 2.052351 1_555
F26 Ga1 1.857949 1_555
F27 Ga4 1.857774 1_555
F28 Ga9 1.855209 1_655
F29 Ga4 1.857769 1_555
F30 Ga10 1.857774 1_555
F31 Ga0 2.048071 1_565
F31 Ga11 2.052351 1_565
F32 Ga11 1.855209 1_555
F33 Ga3 1.857939 1_555
F34 Ga5 1.857769 1_555
F35 Ga9 1.855209 1_565
F36 Ga5 1.857774 1_555
F37 Ga0 2.048071 1_655
F37 Ga11 2.052351 1_655
F38 Ga2 1.854575 1_555
F39 Ga8 2.045455 1_555
F39 Ga4 2.053030 1_555
F40 Ga2 2.048071 1_664
F40 Ga9 2.052351 1_665
F41 Ga1 1.857944 1_555
F42 Ga6 1.857764 1_555
F43 Ga10 1.857769 1_555
F44 Ga3 2.045455 1_555
F44 Ga5 2.053030 1_555
F45 Ga8 1.857944 1_555
F46 Ga2 2.048071 1_554
F46 Ga9 2.052351 1_555
F47 Ga8 2.045451 1_555
F47 Ga4 2.053026 1_555
F48 Ga6 1.857769 1_555
F49 Ga2 2.048071 1_554
F49 Ga9 2.052351 1_555
F50 Ga7 1.857939 1_555
F51 Ga0 1.854575 1_555
F52 Ga7 1.857944 1_555
F53 Ga10 1.857764 1_555
