# generated using pymatgen
data_CdSeO3
_symmetry_space_group_name_H-M   'P 1'
_cell_length_a   12.93395545
_cell_length_b   5.76007937
_cell_length_c   8.66201062
_cell_angle_alpha   78.55157905
_cell_angle_beta   90.00000000
_cell_angle_gamma   90.00000000
_symmetry_Int_Tables_number   1
_chemical_formula_structural   CdSeO3
_chemical_formula_sum   'Cd8 Se8 O24'
_cell_volume   632.48554756
_cell_formula_units_Z   8
loop_
 _symmetry_equiv_pos_site_id
 _symmetry_equiv_pos_as_xyz
  1  'x, y, z'
loop_
 _atom_site_type_symbol
 _atom_site_label
 _atom_site_symmetry_multiplicity
 _atom_site_fract_x
 _atom_site_fract_y
 _atom_site_fract_z
 _atom_site_occupancy
  Cd  Cd0  1  0.75508514  0.62183718  0.85147715  1
  Cd  Cd1  1  0.57698617  0.18355808  0.11146421  1
  Cd  Cd2  1  0.25508514  0.37816282  0.64852285  1
  Cd  Cd3  1  0.07698617  0.81644192  0.38853579  1
  Cd  Cd4  1  0.24491486  0.37816282  0.14852285  1
  Cd  Cd5  1  0.92301383  0.18355808  0.61146421  1
  Cd  Cd6  1  0.74491486  0.62183718  0.35147715  1
  Cd  Cd7  1  0.42301383  0.81644192  0.88853579  1
  Se  Se0  1  0.97462871  0.41681826  0.23249089  1
  Se  Se1  1  0.33150470  0.97232285  0.48084942  1
  Se  Se2  1  0.52537129  0.41681826  0.73249089  1
  Se  Se3  1  0.83150470  0.02767715  0.01915058  1
  Se  Se4  1  0.16849530  0.97232285  0.98084942  1
  Se  Se5  1  0.47462871  0.58318174  0.26750911  1
  Se  Se6  1  0.02537129  0.58318174  0.76750911  1
  Se  Se7  1  0.66849530  0.02767715  0.51915058  1
  O  O0  1  0.35004521  0.03234298  0.66415818  1
  O  O1  1  0.23725702  0.75855227  0.50480691  1
  O  O2  1  0.98097443  0.15880193  0.36684940  1
  O  O3  1  0.85004521  0.96765702  0.83584182  1
  O  O4  1  0.51902557  0.15880193  0.86684940  1
  O  O5  1  0.40455162  0.53840378  0.72529706  1
  O  O6  1  0.01902557  0.84119807  0.63315060  1
  O  O7  1  0.57831292  0.59753972  0.84750129  1
  O  O8  1  0.48097443  0.84119807  0.13315060  1
  O  O9  1  0.76203337  0.77422476  0.08559088  1
  O  O10  1  0.73796663  0.77422476  0.58559088  1
  O  O11  1  0.73725702  0.24144773  0.99519309  1
  O  O12  1  0.76274298  0.24144773  0.49519309  1
  O  O13  1  0.92168708  0.59753972  0.34750129  1
  O  O14  1  0.59544838  0.46159622  0.27470294  1
  O  O15  1  0.09544838  0.53840378  0.22529706  1
  O  O16  1  0.90455162  0.46159622  0.77470294  1
  O  O17  1  0.42168708  0.40246028  0.15249871  1
  O  O18  1  0.23796663  0.22577524  0.91440912  1
  O  O19  1  0.26274298  0.75855227  0.00480691  1
  O  O20  1  0.14995479  0.03234298  0.16415818  1
  O  O21  1  0.64995479  0.96765702  0.33584182  1
  O  O22  1  0.26203337  0.22577524  0.41440912  1
  O  O23  1  0.07831292  0.40246028  0.65249871  1
loop_
_geom_bond_atom_site_label_1
_geom_bond_atom_site_label_2
_geom_bond_distance
_geom_bond_site_symmetry_2
Cd0 O7 2.291320 1_555
Cd0 O16 2.296754 1_555
Cd0 O11 2.306706 1_555
Cd0 O10 2.306793 1_555
Cd0 O3 2.321123 1_555
Cd0 O9 2.365908 1_556
Cd1 O4 2.278556 1_554
Cd1 O21 2.292424 1_545
Cd1 O11 2.299842 1_554
Cd1 O8 2.306338 1_545
Cd1 O14 2.349503 1_555
Cd1 O17 2.434893 1_555
Cd2 O23 2.291320 1_555
Cd2 O5 2.296754 1_555
Cd2 O1 2.306706 1_555
Cd2 O18 2.306793 1_555
Cd2 O0 2.321123 1_555
Cd2 O22 2.365908 1_555
Cd3 O6 2.278556 1_555
Cd3 O20 2.292424 1_565
Cd3 O1 2.299842 1_555
Cd3 O2 2.306338 1_465
Cd3 O15 2.349503 1_555
Cd3 O13 2.434893 1_455
Cd4 O17 2.291320 1_555
Cd4 O15 2.296754 1_555
Cd4 O19 2.306706 1_555
Cd4 O22 2.306793 1_555
Cd4 O20 2.321123 1_555
Cd4 O18 2.365908 1_554
Cd5 O2 2.278556 1_555
Cd5 O3 2.292424 1_545
Cd5 O12 2.299842 1_555
Cd5 O6 2.306338 1_645
Cd5 O16 2.349503 1_555
Cd5 O23 2.434893 1_655
Cd6 O13 2.291320 1_555
Cd6 O14 2.296754 1_555
Cd6 O12 2.306706 1_555
Cd6 O9 2.306793 1_555
Cd6 O21 2.321123 1_555
Cd6 O10 2.365908 1_555
Cd7 O8 2.278556 1_556
Cd7 O0 2.292424 1_565
Cd7 O19 2.299842 1_556
Cd7 O4 2.306338 1_565
Cd7 O5 2.349503 1_555
Cd7 O7 2.434893 1_555
O0 Se1 1.707666 1_545
O1 Se1 1.715740 1_555
O2 Se0 1.698044 1_555
O3 Se3 1.707666 1_566
O4 Se2 1.698044 1_555
O5 Se2 1.708507 1_555
O6 Se6 1.698044 1_555
O7 Se2 1.719484 1_555
O8 Se5 1.698044 1_555
O9 Se3 1.713586 1_565
O10 Se7 1.713586 1_565
O11 Se3 1.715740 1_556
O12 Se7 1.715740 1_555
O13 Se0 1.719484 1_555
O14 Se5 1.708507 1_555
O15 Se0 1.708507 1_455
O16 Se6 1.708507 1_655
O17 Se5 1.719484 1_555
O18 Se4 1.713586 1_545
O19 Se4 1.715740 1_554
O20 Se4 1.707666 1_544
O21 Se7 1.707666 1_565
O22 Se1 1.713586 1_545
O23 Se6 1.719484 1_555
