# generated using pymatgen
data_Ce3(AgSn)4
_symmetry_space_group_name_H-M   'P 1'
_cell_length_a   4.73578174
_cell_length_b   7.42279581
_cell_length_c   8.95305330
_cell_angle_alpha   114.48634501
_cell_angle_beta   105.36549720
_cell_angle_gamma   89.98794431
_symmetry_Int_Tables_number   1
_chemical_formula_structural   Ce3(AgSn)4
_chemical_formula_sum   'Ce3 Ag4 Sn4'
_cell_volume   274.01694931
_cell_formula_units_Z   1
loop_
 _symmetry_equiv_pos_site_id
 _symmetry_equiv_pos_as_xyz
  1  'x, y, z'
loop_
 _atom_site_type_symbol
 _atom_site_label
 _atom_site_symmetry_multiplicity
 _atom_site_fract_x
 _atom_site_fract_y
 _atom_site_fract_z
 _atom_site_occupancy
  Ce  Ce0  1  0.00000000  0.50000000  0.00000000  1
  Ce  Ce1  1  0.12965745  0.12973830  0.25936174  1
  Ce  Ce2  1  0.87034255  0.87026170  0.74063826  1
  Ag  Ag0  1  0.33071933  0.52474734  0.66168817  1
  Ag  Ag1  1  0.66928067  0.47525266  0.33831183  1
  Ag  Ag2  1  0.66929759  0.86323145  0.33855219  1
  Ag  Ag3  1  0.33070241  0.13676855  0.66144781  1
  Sn  Sn0  1  0.21558798  0.71527389  0.43071326  1
  Sn  Sn1  1  0.78441202  0.28472611  0.56928674  1
  Sn  Sn2  1  0.49991307  0.19450879  0.99987456  1
  Sn  Sn3  1  0.50008693  0.80549121  0.00012544  1
loop_
_geom_bond_atom_site_label_1
_geom_bond_atom_site_label_2
_geom_bond_distance
_geom_bond_site_symmetry_2
Ce0 Sn3 3.277805 1_455
Ce0 Sn2 3.277805 1_554
Ce0 Sn3 3.278659 1_555
Ce0 Sn2 3.278659 1_454
Ce0 Sn1 3.357426 1_454
Ce0 Sn0 3.357426 1_555
Ce1 Sn1 3.381320 1_555
Ce1 Sn1 3.384290 1_455
Ce1 Sn3 3.431350 1_445
Ce1 Sn2 3.431649 1_454
Ce1 Sn3 3.432554 1_545
Ce1 Sn2 3.433376 1_554
Ce2 Sn0 3.381320 1_555
Ce2 Sn0 3.384290 1_655
Ce2 Sn2 3.431350 1_665
Ce2 Sn3 3.431649 1_656
Ce2 Sn2 3.432554 1_565
Ce2 Sn3 3.433376 1_556
Ag0 Sn3 2.765074 1_556
Ag0 Sn1 2.862445 1_555
Ag0 Sn1 2.863221 1_455
Ag0 Ag3 2.878996 1_555
Ag0 Sn0 2.898302 1_555
Ag0 Ce2 3.338007 1_455
Ag0 Ce2 3.339269 1_555
Ag0 Ce1 3.450659 1_555
Ag1 Sn2 2.765074 1_554
Ag1 Sn0 2.862445 1_555
Ag1 Sn0 2.863221 1_655
Ag1 Ag2 2.878996 1_555
Ag1 Sn1 2.898302 1_555
Ag1 Ce1 3.338007 1_655
Ag1 Ce1 3.339269 1_555
Ag1 Ce2 3.450659 1_555
Ag2 Sn3 2.764664 1_555
Ag2 Sn0 2.862784 1_555
Ag2 Sn0 2.863367 1_655
Ag2 Sn1 2.898184 1_565
Ag2 Ce1 3.338792 1_565
Ag2 Ce1 3.339580 1_665
Ag2 Ce2 3.449115 1_555
Ag3 Sn2 2.764664 1_555
Ag3 Sn1 2.862784 1_555
Ag3 Sn1 2.863367 1_455
Ag3 Sn0 2.898184 1_545
Ag3 Ce2 3.338792 1_545
Ag3 Ce2 3.339580 1_445
Ag3 Ce1 3.449115 1_555
Sn2 Sn3 2.888530 1_546
