# generated using pymatgen
data_Sc3(Si2Ni)2
_symmetry_space_group_name_H-M   'P 1'
_cell_length_a   3.97098458
_cell_length_b   11.65998385
_cell_length_c   11.91002058
_cell_angle_alpha   90.00000000
_cell_angle_beta   90.00000000
_cell_angle_gamma   90.00000000
_symmetry_Int_Tables_number   1
_chemical_formula_structural   Sc3(Si2Ni)2
_chemical_formula_sum   'Sc12 Si16 Ni8'
_cell_volume   551.45320030
_cell_formula_units_Z   4
loop_
 _symmetry_equiv_pos_site_id
 _symmetry_equiv_pos_as_xyz
  1  'x, y, z'
loop_
 _atom_site_type_symbol
 _atom_site_label
 _atom_site_symmetry_multiplicity
 _atom_site_fract_x
 _atom_site_fract_y
 _atom_site_fract_z
 _atom_site_occupancy
  Sc  Sc0  1  0.75000000  0.98054366  0.81353814  1
  Sc  Sc1  1  0.25000000  0.01945634  0.18646186  1
  Sc  Sc2  1  0.75000000  0.48054366  0.68646186  1
  Sc  Sc3  1  0.25000000  0.51945634  0.31353814  1
  Sc  Sc4  1  0.75000000  0.75299681  0.65034182  1
  Sc  Sc5  1  0.25000000  0.24700319  0.34965818  1
  Sc  Sc6  1  0.75000000  0.25299681  0.84965818  1
  Sc  Sc7  1  0.25000000  0.74700319  0.15034182  1
  Sc  Sc8  1  0.75000000  0.69530388  0.92027500  1
  Sc  Sc9  1  0.25000000  0.30469612  0.07972500  1
  Sc  Sc10  1  0.75000000  0.19530388  0.57972500  1
  Sc  Sc11  1  0.25000000  0.80469612  0.42027500  1
  Si  Si0  1  0.75000000  0.94301139  0.53285447  1
  Si  Si1  1  0.25000000  0.05698861  0.46714553  1
  Si  Si2  1  0.75000000  0.44301139  0.96714553  1
  Si  Si3  1  0.25000000  0.55698861  0.03285447  1
  Si  Si4  1  0.75000000  0.89253657  0.06317286  1
  Si  Si5  1  0.25000000  0.10746343  0.93682714  1
  Si  Si6  1  0.75000000  0.39253657  0.43682714  1
  Si  Si7  1  0.25000000  0.60746343  0.56317286  1
  Si  Si8  1  0.75000000  0.87725318  0.26594908  1
  Si  Si9  1  0.25000000  0.12274682  0.73405092  1
  Si  Si10  1  0.75000000  0.37725318  0.23405092  1
  Si  Si11  1  0.25000000  0.62274682  0.76594908  1
  Si  Si12  1  0.75000000  0.67322986  0.29799345  1
  Si  Si13  1  0.25000000  0.32677014  0.70200655  1
  Si  Si14  1  0.75000000  0.17322986  0.20200655  1
  Si  Si15  1  0.25000000  0.82677014  0.79799345  1
  Ni  Ni0  1  0.75000000  0.54908155  0.13440931  1
  Ni  Ni1  1  0.25000000  0.45091845  0.86559069  1
  Ni  Ni2  1  0.75000000  0.04908155  0.36559069  1
  Ni  Ni3  1  0.25000000  0.95091845  0.63440931  1
  Ni  Ni4  1  0.75000000  0.58987466  0.47275722  1
  Ni  Ni5  1  0.25000000  0.41012534  0.52724278  1
  Ni  Ni6  1  0.75000000  0.08987466  0.02724278  1
  Ni  Ni7  1  0.25000000  0.91012534  0.97275722  1
loop_
_geom_bond_atom_site_label_1
_geom_bond_atom_site_label_2
_geom_bond_distance
_geom_bond_site_symmetry_2
Sc0 Si15 2.681659 1_555
Sc0 Si15 2.681659 1_655
Sc0 Si9 2.754571 1_565
Sc0 Si9 2.754571 1_665
Sc0 Si5 2.878950 1_565
Sc0 Si5 2.878950 1_665
Sc0 Si4 3.145259 1_556
Sc1 Si14 2.681659 1_555
Sc1 Si14 2.681659 1_455
Sc1 Si8 2.754571 1_445
Sc1 Si8 2.754571 1_545
Sc1 Si4 2.878950 1_545
Sc1 Si4 2.878950 1_445
Sc1 Si5 3.145259 1_554
Sc2 Si13 2.681659 1_655
Sc2 Si13 2.681659 1_555
Sc2 Si11 2.754571 1_655
Sc2 Si11 2.754571 1_555
Sc2 Si7 2.878950 1_655
Sc2 Si7 2.878950 1_555
Sc2 Si6 3.145259 1_555
Sc3 Si12 2.681659 1_455
Sc3 Si12 2.681659 1_555
Sc3 Si10 2.754571 1_455
Sc3 Si10 2.754571 1_555
Sc3 Si6 2.878950 1_455
Sc3 Si6 2.878950 1_555
Sc3 Si7 3.145259 1_555
Sc4 Si0 2.620441 1_555
Sc4 Si15 2.788289 1_555
Sc4 Si15 2.788289 1_655
Sc4 Si7 2.810611 1_655
Sc4 Si7 2.810611 1_555
Sc4 Si11 2.853854 1_655
Sc4 Si11 2.853854 1_555
Sc5 Si1 2.620441 1_555
Sc5 Si14 2.788289 1_455
Sc5 Si14 2.788289 1_555
Sc5 Si6 2.810611 1_455
Sc5 Si6 2.810611 1_555
Sc5 Si10 2.853854 1_455
Sc5 Si10 2.853854 1_555
Sc6 Si2 2.620441 1_555
Sc6 Si13 2.788289 1_655
Sc6 Si13 2.788289 1_555
Sc6 Si5 2.810611 1_655
Sc6 Si5 2.810611 1_555
Sc6 Si9 2.853854 1_555
Sc6 Si9 2.853854 1_655
Sc7 Si3 2.620441 1_555
Sc7 Si12 2.788289 1_455
Sc7 Si12 2.788289 1_555
Sc7 Si4 2.810611 1_555
Sc7 Si4 2.810611 1_455
Sc7 Si8 2.853854 1_455
Sc7 Si8 2.853854 1_555
Sc8 Si11 2.834829 1_655
Sc8 Si11 2.834829 1_555
Sc8 Si4 2.860992 1_556
Sc8 Si3 2.888073 1_656
Sc8 Si3 2.888073 1_556
Sc8 Si15 2.900513 1_555
Sc8 Si15 2.900513 1_655
Sc8 Si2 2.994223 1_555
Sc9 Si10 2.834829 1_455
Sc9 Si10 2.834829 1_555
Sc9 Si5 2.860992 1_554
Sc9 Si2 2.888073 1_454
Sc9 Si2 2.888073 1_554
Sc9 Si14 2.900513 1_455
Sc9 Si14 2.900513 1_555
Sc9 Si3 2.994223 1_555
Sc10 Si9 2.834829 1_555
Sc10 Si9 2.834829 1_655
Sc10 Si6 2.860992 1_555
Sc10 Si1 2.888073 1_555
Sc10 Si1 2.888073 1_655
Sc10 Si13 2.900513 1_555
Sc10 Si13 2.900513 1_655
Sc10 Si0 2.994223 1_545
Sc11 Si8 2.834829 1_455
Sc11 Si8 2.834829 1_555
Sc11 Si7 2.860992 1_555
Sc11 Si0 2.888073 1_455
Sc11 Si0 2.888073 1_555
Sc11 Si12 2.900513 1_455
Sc11 Si12 2.900513 1_555
Sc11 Si1 2.994223 1_565
Si0 Si1 2.514121 1_565
Si0 Si1 2.514121 1_665
Si2 Si3 2.514121 1_656
Si2 Si3 2.514121 1_556
Si4 Si8 2.421635 1_555
Si5 Si9 2.421635 1_555
Si10 Si14 2.409328 1_555
Si10 Si6 2.421635 1_555
Si11 Si15 2.409328 1_555
Si11 Si7 2.421635 1_555
Si12 Si8 2.409328 1_555
Si13 Si9 2.409328 1_555
Ni0 Si3 2.326718 1_555
Ni0 Si3 2.326718 1_655
Ni0 Si10 2.328608 1_555
Ni0 Si2 2.344811 1_554
Ni0 Si12 2.427197 1_555
Ni0 Sc3 2.934794 1_555
Ni0 Sc3 2.934794 1_655
Ni0 Sc7 3.050239 1_555
Ni0 Sc7 3.050239 1_655
Ni0 Sc8 3.067753 1_554
Ni1 Si2 2.326718 1_555
Ni1 Si2 2.326718 1_455
Ni1 Si11 2.328608 1_555
Ni1 Si3 2.344811 1_556
Ni1 Si13 2.427197 1_555
Ni1 Sc2 2.934794 1_455
Ni1 Sc2 2.934794 1_555
Ni1 Sc6 3.050239 1_455
Ni1 Sc6 3.050239 1_555
Ni1 Sc9 3.067753 1_556
Ni2 Si1 2.326718 1_655
Ni2 Si1 2.326718 1_555
Ni2 Si8 2.328608 1_545
Ni2 Si0 2.344811 1_545
Ni2 Si14 2.427197 1_555
Ni2 Sc1 2.934794 1_555
Ni2 Sc1 2.934794 1_655
Ni2 Sc5 3.050239 1_655
Ni2 Sc5 3.050239 1_555
Ni2 Sc10 3.067753 1_555
Ni3 Si0 2.326718 1_555
Ni3 Si0 2.326718 1_455
Ni3 Si9 2.328608 1_565
Ni3 Si1 2.344811 1_565
Ni3 Si15 2.427197 1_555
Ni3 Sc0 2.934794 1_455
Ni3 Sc0 2.934794 1_555
Ni3 Sc4 3.050239 1_555
Ni3 Sc4 3.050239 1_455
Ni3 Sc11 3.067753 1_555
Ni4 Si7 2.268006 1_655
Ni4 Si7 2.268006 1_555
Ni4 Si12 2.297177 1_555
Ni4 Si6 2.340413 1_555
Ni4 Sc4 2.844466 1_555
Ni4 Sc2 2.846627 1_555
Ni4 Sc3 2.865713 1_555
Ni4 Sc3 2.865713 1_655
Ni4 Sc11 3.256836 1_555
Ni4 Sc11 3.256836 1_655
Ni5 Si6 2.268006 1_555
Ni5 Si6 2.268006 1_455
Ni5 Si13 2.297177 1_555
Ni5 Si7 2.340413 1_555
Ni5 Sc5 2.844466 1_555
Ni5 Sc3 2.846627 1_555
Ni5 Sc2 2.865713 1_455
Ni5 Sc2 2.865713 1_555
Ni5 Sc10 3.256836 1_555
Ni5 Sc10 3.256836 1_455
Ni6 Si5 2.268006 1_554
Ni6 Si5 2.268006 1_654
Ni6 Si14 2.297177 1_555
Ni6 Si4 2.340413 1_545
Ni6 Sc6 2.844466 1_554
Ni6 Sc0 2.846627 1_544
Ni6 Sc1 2.865713 1_555
Ni6 Sc1 2.865713 1_655
Ni6 Sc9 3.256836 1_655
Ni6 Sc9 3.256836 1_555
Ni7 Si4 2.268006 1_556
Ni7 Si4 2.268006 1_456
Ni7 Si15 2.297177 1_555
Ni7 Si5 2.340413 1_565
Ni7 Sc7 2.844466 1_556
Ni7 Sc1 2.846627 1_566
Ni7 Sc0 2.865713 1_555
Ni7 Sc0 2.865713 1_455
Ni7 Sc8 3.256836 1_455
Ni7 Sc8 3.256836 1_555
