# generated using pymatgen
data_Na3NbAs2O9
_symmetry_space_group_name_H-M   'P 1'
_cell_length_a   9.53268500
_cell_length_b   10.48993200
_cell_length_c   12.44635957
_cell_angle_alpha   58.94259932
_cell_angle_beta   90.00000000
_cell_angle_gamma   90.00000000
_symmetry_Int_Tables_number   1
_chemical_formula_structural   Na3NbAs2O9
_chemical_formula_sum   'Na12 Nb4 As8 O36'
_cell_volume   1066.18883170
_cell_formula_units_Z   4
loop_
 _symmetry_equiv_pos_site_id
 _symmetry_equiv_pos_as_xyz
  1  'x, y, z'
loop_
 _atom_site_type_symbol
 _atom_site_label
 _atom_site_symmetry_multiplicity
 _atom_site_fract_x
 _atom_site_fract_y
 _atom_site_fract_z
 _atom_site_occupancy
  Na  Na0  1  0.93637400  0.20026300  0.14810700  1
  Na  Na1  1  0.27823400  0.47110900  0.85497600  1
  Na  Na2  1  0.22176600  0.47110900  0.35497600  1
  Na  Na3  1  0.72176600  0.52889100  0.14502400  1
  Na  Na4  1  0.43637400  0.79973700  0.35189300  1
  Na  Na5  1  0.77823400  0.52889100  0.64502400  1
  Na  Na6  1  0.13318000  0.13597500  0.84776800  1
  Na  Na7  1  0.86682000  0.86402500  0.15223200  1
  Na  Na8  1  0.63318000  0.86402500  0.65223200  1
  Na  Na9  1  0.06362600  0.79973700  0.85189300  1
  Na  Na10  1  0.56362600  0.20026300  0.64810700  1
  Na  Na11  1  0.36682000  0.13597500  0.34776800  1
  Nb  Nb0  1  0.39351000  0.73245600  0.96914700  1
  Nb  Nb1  1  0.89351000  0.26754400  0.53085300  1
  Nb  Nb2  1  0.60649000  0.26754400  0.03085300  1
  Nb  Nb3  1  0.10649000  0.73245600  0.46914700  1
  As  As0  1  0.82899700  0.88204300  0.38886000  1
  As  As1  1  0.28242600  0.82795800  0.61077700  1
  As  As2  1  0.17100300  0.11795700  0.61114000  1
  As  As3  1  0.21757400  0.82795800  0.11077700  1
  As  As4  1  0.67100300  0.88204300  0.88886000  1
  As  As5  1  0.71757400  0.17204200  0.38922300  1
  As  As6  1  0.78242600  0.17204200  0.88922300  1
  As  As7  1  0.32899700  0.11795700  0.11114000  1
  O  O0  1  0.42507900  0.30339500  0.41435100  1
  O  O1  1  0.51977500  0.55401900  0.01652300  1
  O  O2  1  0.59921200  0.76919900  0.04007500  1
  O  O3  1  0.92507900  0.69660500  0.08564900  1
  O  O4  1  0.07492100  0.30339500  0.91435100  1
  O  O5  1  0.41516100  0.16377900  0.51999900  1
  O  O6  1  0.40078800  0.23080100  0.95992500  1
  O  O7  1  0.57492100  0.69660500  0.58564900  1
  O  O8  1  0.25227100  0.90567700  0.94462800  1
  O  O9  1  0.08483900  0.16377900  0.01999900  1
  O  O10  1  0.18022300  0.66417700  0.64806400  1
  O  O11  1  0.48022500  0.44598100  0.98347700  1
  O  O12  1  0.58483900  0.83622100  0.48000100  1
  O  O13  1  0.27041200  0.66128400  0.90112300  1
  O  O14  1  0.35592700  0.92642900  0.14422700  1
  O  O15  1  0.24772900  0.90567700  0.44462800  1
  O  O16  1  0.91516100  0.83622100  0.98000100  1
  O  O17  1  0.72958800  0.33871600  0.09887700  1
  O  O18  1  0.81977700  0.33582300  0.35193600  1
  O  O19  1  0.64407300  0.07357100  0.85577300  1
  O  O20  1  0.74772900  0.09432300  0.05537200  1
  O  O21  1  0.90078800  0.76919900  0.54007500  1
  O  O22  1  0.09921200  0.23080100  0.45992500  1
  O  O23  1  0.31977700  0.66417700  0.14806400  1
  O  O24  1  0.68022300  0.33582300  0.85193600  1
  O  O25  1  0.49778100  0.11765200  0.18716300  1
  O  O26  1  0.50221900  0.88234800  0.81283700  1
  O  O27  1  0.98022500  0.55401900  0.51652300  1
  O  O28  1  0.75227100  0.09432300  0.55537200  1
  O  O29  1  0.22958800  0.66128400  0.40112300  1
  O  O30  1  0.00221900  0.11765200  0.68716300  1
  O  O31  1  0.14407300  0.92642900  0.64422700  1
  O  O32  1  0.85592700  0.07357100  0.35577300  1
  O  O33  1  0.99778100  0.88234800  0.31283700  1
  O  O34  1  0.77041200  0.33871600  0.59887700  1
  O  O35  1  0.01977500  0.44598100  0.48347700  1
loop_
_geom_bond_atom_site_label_1
_geom_bond_atom_site_label_2
_geom_bond_distance
_geom_bond_site_symmetry_2
Na0 O9 2.306827 1_655
Na0 O17 2.335022 1_555
Na0 O32 2.343220 1_555
Na0 O20 2.669180 1_555
Na1 O13 2.344655 1_555
Na1 O11 2.429011 1_555
Na1 O6 2.455228 1_555
Na1 O4 2.460920 1_555
Na1 O10 2.495060 1_555
Na2 O29 2.344655 1_555
Na2 O35 2.429011 1_555
Na2 O22 2.455228 1_555
Na2 O0 2.460920 1_555
Na2 O23 2.495060 1_555
Na3 O17 2.344655 1_555
Na3 O1 2.429011 1_555
Na3 O2 2.455228 1_555
Na3 O3 2.460920 1_555
Na3 O18 2.495060 1_555
Na4 O12 2.306827 1_555
Na4 O29 2.335022 1_555
Na4 O14 2.343220 1_555
Na4 O15 2.669180 1_555
Na5 O34 2.344655 1_555
Na5 O27 2.429011 1_555
Na5 O21 2.455228 1_555
Na5 O7 2.460920 1_555
Na5 O24 2.495060 1_555
Na6 O9 2.353243 1_556
Na6 O8 2.360789 1_545
Na6 O4 2.362458 1_555
Na6 O30 2.446976 1_555
Na7 O16 2.353243 1_554
Na7 O20 2.360789 1_565
Na7 O3 2.362458 1_555
Na7 O33 2.446976 1_555
Na8 O12 2.353243 1_555
Na8 O28 2.360789 1_565
Na8 O7 2.362458 1_555
Na8 O26 2.446976 1_555
Na9 O16 2.306827 1_455
Na9 O13 2.335022 1_555
Na9 O31 2.343220 1_555
Na9 O8 2.669180 1_555
Na10 O5 2.306827 1_555
Na10 O34 2.335022 1_555
Na10 O19 2.343220 1_555
Na10 O28 2.669180 1_555
Na11 O5 2.353243 1_555
Na11 O15 2.360789 1_545
Na11 O0 2.362458 1_555
Na11 O25 2.446976 1_555
Nb0 O13 1.817528 1_555
Nb0 O1 2.039915 1_556
Nb0 O26 2.043251 1_555
Nb0 O23 2.078528 1_556
Nb0 O8 2.153022 1_555
Nb0 O2 2.263638 1_556
Nb1 O34 1.817528 1_555
Nb1 O35 2.039915 1_655
Nb1 O30 2.043251 1_655
Nb1 O18 2.078528 1_555
Nb1 O28 2.153022 1_555
Nb1 O22 2.263638 1_655
Nb2 O17 1.817528 1_555
Nb2 O11 2.039915 1_554
Nb2 O25 2.043251 1_555
Nb2 O24 2.078528 1_554
Nb2 O20 2.153022 1_555
Nb2 O6 2.263638 1_554
Nb3 O29 1.817528 1_555
Nb3 O27 2.039915 1_455
Nb3 O33 2.043251 1_455
Nb3 O10 2.078528 1_555
Nb3 O15 2.153022 1_555
Nb3 O21 2.263638 1_455
As0 O21 1.764391 1_555
As0 O32 1.848879 1_565
As0 O33 1.865735 1_555
As0 O12 2.524366 1_555
As1 O10 1.814829 1_555
As1 O15 1.819600 1_555
As1 O31 1.850265 1_555
As2 O22 1.764391 1_555
As2 O31 1.848879 1_545
As2 O30 1.865735 1_555
As2 O5 2.524366 1_555
As3 O23 1.814829 1_555
As3 O8 1.819600 1_554
As3 O14 1.850265 1_555
As4 O2 1.764391 1_556
As4 O19 1.848879 1_565
As4 O26 1.865735 1_555
As4 O16 2.524366 1_555
As5 O18 1.814829 1_555
As5 O28 1.819600 1_555
As5 O32 1.850265 1_555
As6 O24 1.814829 1_555
As6 O20 1.819600 1_556
As6 O19 1.850265 1_555
As7 O6 1.764391 1_554
As7 O14 1.848879 1_545
As7 O25 1.865735 1_555
As7 O9 2.524366 1_555
O0 O5 1.376918 1_555
O1 O11 1.441062 1_554
O4 O9 1.376918 1_556
O12 O7 1.376918 1_555
O16 O3 1.376918 1_556
O27 O35 1.441062 1_655
