# generated using pymatgen
data_Dy2Te4O11
_symmetry_space_group_name_H-M   'P 1'
_cell_length_a   6.68998975
_cell_length_b   6.68998975
_cell_length_c   16.07277118
_cell_angle_alpha   75.47388694
_cell_angle_beta   75.47388694
_cell_angle_gamma   44.93249133
_symmetry_Int_Tables_number   1
_chemical_formula_structural   Dy2Te4O11
_chemical_formula_sum   'Dy4 Te8 O22'
_cell_volume   488.98710442
_cell_formula_units_Z   2
loop_
 _symmetry_equiv_pos_site_id
 _symmetry_equiv_pos_as_xyz
  1  'x, y, z'
loop_
 _atom_site_type_symbol
 _atom_site_label
 _atom_site_symmetry_multiplicity
 _atom_site_fract_x
 _atom_site_fract_y
 _atom_site_fract_z
 _atom_site_occupancy
  Dy  Dy0  1  0.37004101  0.86744426  0.46353273  1
  Dy  Dy1  1  0.86744426  0.37004101  0.96353273  1
  Dy  Dy2  1  0.13255574  0.62995899  0.03646727  1
  Dy  Dy3  1  0.62995899  0.13255574  0.53646727  1
  Te  Te0  1  0.59867655  0.15765810  0.19912454  1
  Te  Te1  1  0.15765810  0.59867655  0.69912454  1
  Te  Te2  1  0.84234190  0.40132345  0.30087546  1
  Te  Te3  1  0.59072892  0.15354704  0.87348189  1
  Te  Te4  1  0.40132345  0.84234190  0.80087546  1
  Te  Te5  1  0.40927108  0.84645296  0.12651811  1
  Te  Te6  1  0.84645296  0.40927108  0.62651811  1
  Te  Te7  1  0.15354704  0.59072892  0.37348189  1
  O  O0  1  0.20349316  0.09094118  0.33269300  1
  O  O1  1  0.44213578  0.60605514  0.90397190  1
  O  O2  1  0.18881685  0.31676836  0.62706836  1
  O  O3  1  0.82008886  0.03903508  0.95495656  1
  O  O4  1  0.55786422  0.39394486  0.09602810  1
  O  O5  1  0.03903508  0.82008886  0.45495656  1
  O  O6  1  0.75180734  0.66395597  0.05346761  1
  O  O7  1  0.31676836  0.18881685  0.12706836  1
  O  O8  1  0.66395597  0.75180734  0.55346761  1
  O  O9  1  0.24819266  0.33604403  0.94653239  1
  O  O10  1  0.85021827  0.14978173  0.25000000  1
  O  O11  1  0.33604403  0.24819266  0.44653239  1
  O  O12  1  0.39394486  0.55786422  0.59602810  1
  O  O13  1  0.60605514  0.44213578  0.40397190  1
  O  O14  1  0.79650684  0.90905882  0.66730700  1
  O  O15  1  0.14978173  0.85021827  0.75000000  1
  O  O16  1  0.68323164  0.81118315  0.87293164  1
  O  O17  1  0.17991114  0.96096492  0.04504344  1
  O  O18  1  0.09094118  0.20349316  0.83269300  1
  O  O19  1  0.90905882  0.79650684  0.16730700  1
  O  O20  1  0.81118315  0.68323164  0.37293164  1
  O  O21  1  0.96096492  0.17991114  0.54504344  1
loop_
_geom_bond_atom_site_label_1
_geom_bond_atom_site_label_2
_geom_bond_distance
_geom_bond_site_symmetry_2
Dy0 O21 2.247441 1_465
Dy0 O0 2.266887 1_565
Dy0 O8 2.294631 1_555
Dy0 O11 2.340170 1_565
Dy0 O13 2.398435 1_555
Dy0 O20 2.438006 1_555
Dy0 O5 2.488249 1_555
Dy0 O12 2.517822 1_555
Dy1 O17 2.247441 1_646
Dy1 O18 2.266887 1_655
Dy1 O6 2.294631 1_556
Dy1 O9 2.340170 1_655
Dy1 O1 2.398435 1_555
Dy1 O16 2.438006 1_555
Dy1 O3 2.488249 1_555
Dy1 O4 2.517822 1_556
Dy2 O3 2.247441 1_464
Dy2 O19 2.266887 1_455
Dy2 O9 2.294631 1_554
Dy2 O6 2.340170 1_455
Dy2 O4 2.398435 1_555
Dy2 O7 2.438006 1_555
Dy2 O17 2.488249 1_555
Dy2 O1 2.517822 1_554
Dy3 O5 2.247441 1_645
Dy3 O14 2.266887 1_545
Dy3 O11 2.294631 1_555
Dy3 O8 2.340170 1_545
Dy3 O12 2.398435 1_555
Dy3 O2 2.438006 1_555
Dy3 O21 2.488249 1_555
Dy3 O13 2.517822 1_555
O0 Te2 1.842418 1_455
O1 Te4 1.902894 1_555
O1 Te3 2.575204 1_555
O2 Te6 1.905143 1_455
O2 Te1 2.315073 1_555
O3 Te3 1.869904 1_555
O4 Te0 1.902894 1_555
O4 Te5 2.575204 1_555
O5 Te7 1.869904 1_555
O6 Te5 1.878434 1_555
O7 Te5 1.905143 1_545
O7 Te0 2.315073 1_555
O8 Te6 1.878434 1_555
O9 Te3 1.878434 1_555
O10 Te2 2.011567 1_555
O10 Te0 2.011567 1_555
O11 Te7 1.878434 1_555
O12 Te1 1.902894 1_555
O12 Te6 2.575204 1_555
O13 Te2 1.902894 1_555
O13 Te7 2.575204 1_555
O14 Te1 1.842418 1_655
O15 Te4 2.011567 1_555
O15 Te1 2.011567 1_555
O16 Te3 1.905143 1_565
O16 Te4 2.315073 1_555
O17 Te5 1.869904 1_555
O18 Te4 1.842418 1_545
O19 Te0 1.842418 1_565
O20 Te7 1.905143 1_655
O20 Te2 2.315073 1_555
O21 Te6 1.869904 1_555
