# generated using pymatgen
data_LaBi2IO4
_symmetry_space_group_name_H-M   'P 1'
_cell_length_a   4.03742300
_cell_length_b   4.03742300
_cell_length_c   9.79025900
_cell_angle_alpha   90.00000000
_cell_angle_beta   90.00000000
_cell_angle_gamma   90.00000000
_symmetry_Int_Tables_number   1
_chemical_formula_structural   LaBi2IO4
_chemical_formula_sum   'La1 Bi2 I1 O4'
_cell_volume   159.58890197
_cell_formula_units_Z   1
loop_
 _symmetry_equiv_pos_site_id
 _symmetry_equiv_pos_as_xyz
  1  'x, y, z'
loop_
 _atom_site_type_symbol
 _atom_site_label
 _atom_site_symmetry_multiplicity
 _atom_site_fract_x
 _atom_site_fract_y
 _atom_site_fract_z
 _atom_site_occupancy
  La  La0  1  0.00000000  0.00000000  0.00000000  1
  Bi  Bi0  1  0.50000000  0.50000000  0.73726800  1
  Bi  Bi1  1  0.50000000  0.50000000  0.26273200  1
  I  I0  1  0.00000000  0.00000000  0.50000000  1
  O  O0  1  0.00000000  0.50000000  0.15377600  1
  O  O1  1  0.00000000  0.50000000  0.84622400  1
  O  O2  1  0.50000000  0.00000000  0.84622400  1
  O  O3  1  0.50000000  0.00000000  0.15377600  1
loop_
_geom_bond_atom_site_label_1
_geom_bond_atom_site_label_2
_geom_bond_distance
_geom_bond_site_symmetry_2
La0 O1 2.518283 1_544
La0 O2 2.518283 1_454
La0 O2 2.518283 1_554
La0 O3 2.518283 1_555
La0 O3 2.518283 1_455
La0 O0 2.518283 1_555
La0 O1 2.518283 1_554
La0 O0 2.518283 1_545
Bi0 O1 2.283213 1_655
Bi0 O2 2.283213 1_555
Bi0 O2 2.283213 1_565
Bi0 O1 2.283213 1_555
Bi1 O3 2.283213 1_565
Bi1 O0 2.283213 1_655
Bi1 O3 2.283213 1_555
Bi1 O0 2.283213 1_555
