# generated using pymatgen
data_MgCo
_symmetry_space_group_name_H-M   'P 1'
_cell_length_a   8.02826129
_cell_length_b   8.02826129
_cell_length_c   8.02826129
_cell_angle_alpha   60.00000000
_cell_angle_beta   60.00000000
_cell_angle_gamma   60.00000000
_symmetry_Int_Tables_number   1
_chemical_formula_structural   MgCo
_chemical_formula_sum   'Mg12 Co12'
_cell_volume   365.88912242
_cell_formula_units_Z   12
loop_
 _symmetry_equiv_pos_site_id
 _symmetry_equiv_pos_as_xyz
  1  'x, y, z'
loop_
 _atom_site_type_symbol
 _atom_site_label
 _atom_site_symmetry_multiplicity
 _atom_site_fract_x
 _atom_site_fract_y
 _atom_site_fract_z
 _atom_site_occupancy
  Mg  Mg0  1  0.54873400  0.54873400  0.95126600  1
  Mg  Mg1  1  0.95126600  0.54873400  0.95126600  1
  Mg  Mg2  1  0.95126600  0.54873400  0.54873400  1
  Mg  Mg3  1  0.29873400  0.70126600  0.70126600  1
  Mg  Mg4  1  0.70126600  0.70126600  0.29873400  1
  Mg  Mg5  1  0.29873400  0.70126600  0.29873400  1
  Mg  Mg6  1  0.95126600  0.95126600  0.54873400  1
  Mg  Mg7  1  0.54873400  0.95126600  0.54873400  1
  Mg  Mg8  1  0.54873400  0.95126600  0.95126600  1
  Mg  Mg9  1  0.29873400  0.29873400  0.70126600  1
  Mg  Mg10  1  0.70126600  0.29873400  0.29873400  1
  Mg  Mg11  1  0.70126600  0.29873400  0.70126600  1
  Co  Co0  1  0.12500000  0.62500000  0.12500000  1
  Co  Co1  1  0.92254300  0.92254300  0.92254300  1
  Co  Co2  1  0.92254300  0.92254300  0.23237000  1
  Co  Co3  1  0.23237000  0.92254300  0.92254300  1
  Co  Co4  1  0.32745700  0.01763000  0.32745700  1
  Co  Co5  1  0.62500000  0.12500000  0.12500000  1
  Co  Co6  1  0.12500000  0.12500000  0.62500000  1
  Co  Co7  1  0.12500000  0.12500000  0.12500000  1
  Co  Co8  1  0.92254300  0.23237000  0.92254300  1
  Co  Co9  1  0.32745700  0.32745700  0.32745700  1
  Co  Co10  1  0.01763000  0.32745700  0.32745700  1
  Co  Co11  1  0.32745700  0.32745700  0.01763000  1
loop_
_geom_bond_atom_site_label_1
_geom_bond_atom_site_label_2
_geom_bond_distance
_geom_bond_site_symmetry_2
Co0 Co3 2.422071 1_554
Co0 Co10 2.422071 1_555
Co0 Co2 2.422071 1_455
Co0 Co11 2.422071 1_555
Co0 Co1 2.422075 1_454
Co0 Co9 2.422075 1_555
Co0 Mg5 2.814097 1_555
Co0 Mg3 2.814097 1_554
Co0 Mg0 2.814097 1_554
Co0 Mg4 2.814097 1_455
Co0 Mg1 2.814097 1_454
Co0 Mg2 2.814097 1_455
Co1 Co6 2.422075 1_665
Co1 Co5 2.422075 1_566
Co1 Co8 2.487372 1_565
Co1 Co3 2.487372 1_655
Co1 Co2 2.487372 1_556
Co1 Mg1 2.789568 1_555
Co1 Mg6 2.789568 1_555
Co1 Mg8 2.789568 1_555
Co1 Mg3 2.803293 1_655
Co1 Mg11 2.803293 1_565
Co1 Mg4 2.803293 1_556
Co2 Co5 2.422071 1_565
Co2 Co7 2.422077 1_665
Co2 Co8 2.487372 1_564
Co2 Co3 2.487372 1_654
Co2 Mg7 2.789571 1_555
Co2 Mg2 2.789571 1_555
Co2 Mg6 2.789576 1_555
Co2 Mg4 2.803290 1_555
Co2 Mg5 2.803297 1_655
Co2 Mg10 2.803297 1_565
Co3 Co6 2.422071 1_565
Co3 Co7 2.422077 1_566
Co3 Co8 2.487372 1_465
Co3 Mg0 2.789571 1_555
Co3 Mg7 2.789571 1_555
Co3 Mg8 2.789576 1_555
Co3 Mg3 2.803290 1_555
Co3 Mg9 2.803297 1_565
Co3 Mg5 2.803297 1_556
Co4 Co5 2.422071 1_555
Co4 Co6 2.422071 1_555
Co4 Co7 2.422077 1_555
Co4 Co9 2.487372 1_555
Co4 Mg4 2.789571 1_545
Co4 Mg3 2.789571 1_545
Co4 Mg5 2.789576 1_545
Co4 Mg7 2.803290 1_545
Co4 Mg8 2.803297 1_544
Co4 Mg6 2.803297 1_445
Co5 Co8 2.422071 1_554
Co5 Co9 2.422075 1_555
Co5 Mg10 2.814097 1_555
Co5 Mg11 2.814097 1_554
Co5 Mg7 2.814097 1_545
Co5 Mg8 2.814097 1_544
Co5 Mg4 2.814097 1_545
Co5 Mg0 2.814097 1_554
Co6 Co8 2.422071 1_455
Co6 Co9 2.422075 1_555
Co6 Mg9 2.814097 1_555
Co6 Mg7 2.814097 1_545
Co6 Mg11 2.814097 1_455
Co6 Mg3 2.814097 1_545
Co6 Mg2 2.814097 1_455
Co6 Mg6 2.814097 1_445
Co7 Co8 2.422077 1_454
Co7 Mg8 2.814097 1_544
Co7 Mg5 2.814097 1_545
Co7 Mg10 2.814097 1_455
Co7 Mg1 2.814097 1_454
Co7 Mg9 2.814097 1_554
Co7 Mg6 2.814097 1_445
Co8 Mg0 2.789571 1_555
Co8 Mg2 2.789571 1_555
Co8 Mg1 2.789576 1_555
Co8 Mg11 2.803290 1_555
Co8 Mg10 2.803297 1_556
Co8 Mg9 2.803297 1_655
Co9 Mg10 2.789568 1_555
Co9 Mg5 2.789568 1_555
Co9 Mg9 2.789568 1_555
Co9 Mg2 2.803293 1_455
Co9 Mg0 2.803293 1_554
Co9 Mg7 2.803293 1_545
Co10 Co6 2.422071 1_555
Co10 Co7 2.422077 1_555
Co10 Co9 2.487372 1_555
Co10 Co4 2.487372 1_555
Co10 Co11 2.487372 1_555
Co10 Mg4 2.789571 1_455
Co10 Mg11 2.789571 1_455
Co10 Mg10 2.789576 1_455
Co10 Mg2 2.803290 1_455
Co10 Mg1 2.803297 1_454
Co10 Mg6 2.803297 1_445
Co11 Co5 2.422071 1_555
Co11 Co7 2.422077 1_555
Co11 Co9 2.487372 1_555
Co11 Co4 2.487372 1_555
Co11 Mg11 2.789571 1_554
Co11 Mg3 2.789571 1_554
Co11 Mg9 2.789576 1_554
Co11 Mg0 2.803290 1_554
Co11 Mg1 2.803297 1_454
Co11 Mg8 2.803297 1_544
