# generated using pymatgen
data_NdH18C3S3(O2F)9
_symmetry_space_group_name_H-M   'P 1'
_cell_length_a   14.08254276
_cell_length_b   14.08254276
_cell_length_c   7.37334700
_cell_angle_alpha   90.00000000
_cell_angle_beta   90.00000000
_cell_angle_gamma   120.00000357
_symmetry_Int_Tables_number   1
_chemical_formula_structural   NdH18C3S3(O2F)9
_chemical_formula_sum   'Nd2 H36 C6 S6 O36 F18'
_cell_volume   1266.36076391
_cell_formula_units_Z   2
loop_
 _symmetry_equiv_pos_site_id
 _symmetry_equiv_pos_as_xyz
  1  'x, y, z'
loop_
 _atom_site_type_symbol
 _atom_site_label
 _atom_site_symmetry_multiplicity
 _atom_site_fract_x
 _atom_site_fract_y
 _atom_site_fract_z
 _atom_site_occupancy
  Nd  Nd0  1  0.33333300  0.66666700  0.75000000  1
  Nd  Nd1  1  0.66666700  0.33333300  0.25000000  1
  H  H0  1  0.36450600  0.87074200  0.53612300  1
  H  H1  1  0.49376400  0.36450600  0.03612300  1
  H  H2  1  0.87074200  0.50623600  0.03612300  1
  H  H3  1  0.12925800  0.49376400  0.53612300  1
  H  H4  1  0.50623600  0.63549400  0.53612300  1
  H  H5  1  0.63549400  0.12925800  0.03612300  1
  H  H6  1  0.63549400  0.12925800  0.46387700  1
  H  H7  1  0.50623600  0.63549400  0.96387700  1
  H  H8  1  0.12925800  0.49376400  0.96387700  1
  H  H9  1  0.87074200  0.50623600  0.46387700  1
  H  H10  1  0.49376400  0.36450600  0.46387700  1
  H  H11  1  0.36450600  0.87074200  0.96387700  1
  H  H12  1  0.27685600  0.77025200  0.42257300  1
  H  H13  1  0.50660400  0.27685600  0.92257300  1
  H  H14  1  0.77025200  0.49339600  0.92257300  1
  H  H15  1  0.22974800  0.50660400  0.42257300  1
  H  H16  1  0.49339600  0.72314400  0.42257300  1
  H  H17  1  0.72314400  0.22974800  0.92257300  1
  H  H18  1  0.72314400  0.22974800  0.57742700  1
  H  H19  1  0.49339600  0.72314400  0.07742700  1
  H  H20  1  0.22974800  0.50660400  0.07742700  1
  H  H21  1  0.77025200  0.49339600  0.57742700  1
  H  H22  1  0.50660400  0.27685600  0.57742700  1
  H  H23  1  0.27685600  0.77025200  0.07742700  1
  H  H24  1  0.09948400  0.64607300  0.64251600  1
  H  H25  1  0.45341200  0.09948400  0.14251600  1
  H  H26  1  0.64607300  0.54658800  0.14251600  1
  H  H27  1  0.35392700  0.45341200  0.64251600  1
  H  H28  1  0.54658800  0.90051600  0.64251600  1
  H  H29  1  0.90051600  0.35392700  0.14251600  1
  H  H30  1  0.90051600  0.35392700  0.35748400  1
  H  H31  1  0.54658800  0.90051600  0.85748400  1
  H  H32  1  0.35392700  0.45341200  0.85748400  1
  H  H33  1  0.64607300  0.54658800  0.35748400  1
  H  H34  1  0.45341200  0.09948400  0.35748400  1
  H  H35  1  0.09948400  0.64607300  0.85748400  1
  C  C0  1  0.77695300  0.77144200  0.75000000  1
  C  C1  1  0.00551100  0.77695300  0.25000000  1
  C  C2  1  0.77144200  0.99448900  0.25000000  1
  C  C3  1  0.22855800  0.00551100  0.75000000  1
  C  C4  1  0.99448900  0.22304700  0.75000000  1
  C  C5  1  0.22304700  0.22855800  0.25000000  1
  S  S0  1  0.67931300  0.62013700  0.75000000  1
  S  S1  1  0.05917600  0.67931300  0.25000000  1
  S  S2  1  0.62013700  0.94082400  0.25000000  1
  S  S3  1  0.37986300  0.05917600  0.75000000  1
  S  S4  1  0.94082400  0.32068700  0.75000000  1
  S  S5  1  0.32068700  0.37986300  0.25000000  1
  O  O0  1  0.33794900  0.79301000  0.50882900  1
  O  O1  1  0.54493900  0.33794900  0.00882900  1
  O  O2  1  0.79301000  0.45506100  0.00882900  1
  O  O3  1  0.20699000  0.54493900  0.50882900  1
  O  O4  1  0.45506100  0.66205100  0.50882900  1
  O  O5  1  0.66205100  0.20699000  0.00882900  1
  O  O6  1  0.66205100  0.20699000  0.49117100  1
  O  O7  1  0.45506100  0.66205100  0.99117100  1
  O  O8  1  0.20699000  0.54493900  0.99117100  1
  O  O9  1  0.79301000  0.45506100  0.49117100  1
  O  O10  1  0.54493900  0.33794900  0.49117100  1
  O  O11  1  0.33794900  0.79301000  0.99117100  1
  O  O12  1  0.14384500  0.65370300  0.75000000  1
  O  O13  1  0.49014200  0.14384500  0.25000000  1
  O  O14  1  0.65370300  0.50985800  0.25000000  1
  O  O15  1  0.34629700  0.49014200  0.75000000  1
  O  O16  1  0.50985800  0.85615500  0.75000000  1
  O  O17  1  0.85615500  0.34629700  0.25000000  1
  O  O18  1  0.61641800  0.60077200  0.58229600  1
  O  O19  1  0.01564700  0.61641800  0.08229600  1
  O  O20  1  0.60077200  0.98435300  0.08229600  1
  O  O21  1  0.39922800  0.01564700  0.58229600  1
  O  O22  1  0.98435300  0.38358200  0.58229600  1
  O  O23  1  0.38358200  0.39922800  0.08229600  1
  O  O24  1  0.38358200  0.39922800  0.41770400  1
  O  O25  1  0.98435300  0.38358200  0.91770400  1
  O  O26  1  0.39922800  0.01564700  0.91770400  1
  O  O27  1  0.60077200  0.98435300  0.41770400  1
  O  O28  1  0.01564700  0.61641800  0.41770400  1
  O  O29  1  0.61641800  0.60077200  0.91770400  1
  O  O30  1  0.75063800  0.57189400  0.75000000  1
  O  O31  1  0.17874400  0.75063800  0.25000000  1
  O  O32  1  0.57189400  0.82125600  0.25000000  1
  O  O33  1  0.42810600  0.17874400  0.75000000  1
  O  O34  1  0.82125600  0.24936200  0.75000000  1
  O  O35  1  0.24936200  0.42810600  0.25000000  1
  F  F0  1  0.71951600  0.82501800  0.75000000  1
  F  F1  1  0.89449800  0.71951600  0.25000000  1
  F  F2  1  0.82501800  0.10550200  0.25000000  1
  F  F3  1  0.17498200  0.89449800  0.75000000  1
  F  F4  1  0.10550200  0.28048400  0.75000000  1
  F  F5  1  0.28048400  0.17498200  0.25000000  1
  F  F6  1  0.84120800  0.80079700  0.60102800  1
  F  F7  1  0.04041000  0.84120800  0.10102800  1
  F  F8  1  0.80079700  0.95959000  0.10102800  1
  F  F9  1  0.19920300  0.04041000  0.60102800  1
  F  F10  1  0.95959000  0.15879200  0.60102800  1
  F  F11  1  0.15879200  0.19920300  0.10102800  1
  F  F12  1  0.15879200  0.19920300  0.39897200  1
  F  F13  1  0.95959000  0.15879200  0.89897200  1
  F  F14  1  0.19920300  0.04041000  0.89897200  1
  F  F15  1  0.80079700  0.95959000  0.39897200  1
  F  F16  1  0.04041000  0.84120800  0.39897200  1
  F  F17  1  0.84120800  0.80079700  0.89897200  1
loop_
_geom_bond_atom_site_label_1
_geom_bond_atom_site_label_2
_geom_bond_distance
_geom_bond_site_symmetry_2
Nd0 O11 2.493262 1_555
Nd0 O0 2.493262 1_555
Nd0 O8 2.493267 1_555
Nd0 O3 2.493267 1_555
Nd0 O7 2.493272 1_555
Nd0 O4 2.493272 1_555
Nd0 O12 2.582035 1_555
Nd0 O16 2.582041 1_555
Nd0 O15 2.582049 1_555
Nd1 O6 2.493262 1_555
Nd1 O5 2.493262 1_555
Nd1 O9 2.493267 1_555
Nd1 O2 2.493267 1_555
Nd1 O10 2.493272 1_555
Nd1 O1 2.493272 1_555
Nd1 O17 2.582035 1_555
Nd1 O13 2.582041 1_555
Nd1 O14 2.582049 1_555
H0 O0 0.984513 1_555
H1 O1 0.984513 1_555
H2 O2 0.984513 1_555
H3 O3 0.984513 1_555
H4 O4 0.984513 1_555
H5 O5 0.984513 1_555
H6 O6 0.984513 1_555
H7 O7 0.984513 1_555
H8 O8 0.984513 1_555
H9 O9 0.984513 1_555
H10 O10 0.984513 1_555
H11 O11 0.984513 1_555
H12 O0 0.985731 1_555
H13 O1 0.985731 1_556
H14 O2 0.985731 1_556
H15 O3 0.985731 1_555
H16 O4 0.985731 1_555
H17 O5 0.985731 1_556
H18 O6 0.985731 1_555
H19 O7 0.985731 1_554
H20 O8 0.985731 1_554
H21 O9 0.985731 1_555
H22 O10 0.985731 1_555
H23 O11 0.985731 1_554
H24 O12 0.981210 1_555
H25 O13 0.981207 1_555
H26 O14 0.981202 1_555
H27 O15 0.981202 1_555
H28 O16 0.981207 1_555
H29 O17 0.981210 1_555
H30 O17 0.981210 1_555
H31 O16 0.981207 1_555
H32 O15 0.981202 1_555
H33 O14 0.981202 1_555
H34 O13 0.981207 1_555
H35 O12 0.981210 1_555
C0 F17 1.349872 1_555
C0 F6 1.349872 1_555
C0 F0 1.354170 1_555
C1 F16 1.349871 1_555
C1 F7 1.349871 1_555
C1 F1 1.354170 1_455
C2 F15 1.349864 1_555
C2 F8 1.349864 1_555
C2 F2 1.354170 1_565
C3 F14 1.349864 1_555
C3 F9 1.349864 1_555
C3 F3 1.354170 1_545
C4 F13 1.349871 1_555
C4 F10 1.349871 1_555
C4 F4 1.354170 1_655
C5 F12 1.349872 1_555
C5 F11 1.349872 1_555
C5 F5 1.354170 1_555
O18 S0 1.465046 1_555
O19 S1 1.465044 1_555
O20 S2 1.465039 1_555
O21 S3 1.465039 1_555
O22 S4 1.465044 1_555
O23 S5 1.465046 1_555
O24 S5 1.465046 1_555
O25 S4 1.465044 1_555
O26 S3 1.465039 1_555
O27 S2 1.465039 1_555
O28 S1 1.465044 1_555
O29 S0 1.465046 1_555
O30 S0 1.467261 1_555
O31 S1 1.467261 1_555
O32 S2 1.467261 1_555
O33 S3 1.467261 1_555
O34 S4 1.467261 1_555
O35 S5 1.467261 1_555
