# generated using pymatgen
data_Ba5Sr2Nd8(CuO5)5
_symmetry_space_group_name_H-M   'P 1'
_cell_length_a   5.84597000
_cell_length_b   6.79262700
_cell_length_c   33.95873100
_cell_angle_alpha   90.00000000
_cell_angle_beta   90.00000000
_cell_angle_gamma   90.00000000
_symmetry_Int_Tables_number   1
_chemical_formula_structural   Ba5Sr2Nd8(CuO5)5
_chemical_formula_sum   'Ba10 Sr4 Nd16 Cu10 O50'
_cell_volume   1348.48401345
_cell_formula_units_Z   2
loop_
 _symmetry_equiv_pos_site_id
 _symmetry_equiv_pos_as_xyz
  1  'x, y, z'
loop_
 _atom_site_type_symbol
 _atom_site_label
 _atom_site_symmetry_multiplicity
 _atom_site_fract_x
 _atom_site_fract_y
 _atom_site_fract_z
 _atom_site_occupancy
  Ba  Ba0  1  0.50000000  0.50310800  0.80142700  1
  Ba  Ba1  1  0.50000000  0.50000000  0.00000000  1
  Ba  Ba2  1  0.50000000  0.49689200  0.19857300  1
  Ba  Ba3  1  0.50000000  0.50219200  0.39981500  1
  Ba  Ba4  1  0.50000000  0.49780800  0.60018500  1
  Ba  Ba5  1  0.50000000  0.00310800  0.69857300  1
  Ba  Ba6  1  0.50000000  0.00219200  0.10018500  1
  Ba  Ba7  1  0.50000000  0.99689200  0.30142700  1
  Ba  Ba8  1  0.50000000  0.99780800  0.89981500  1
  Ba  Ba9  1  0.50000000  0.00000000  0.50000000  1
  Sr  Sr0  1  0.00000000  0.67381900  0.86566400  1
  Sr  Sr1  1  0.00000000  0.32618100  0.13433600  1
  Sr  Sr2  1  0.00000000  0.82618100  0.36566400  1
  Sr  Sr3  1  0.00000000  0.17381900  0.63433600  1
  Nd  Nd0  1  0.00000000  0.32589500  0.73437300  1
  Nd  Nd1  1  0.00000000  0.17634400  0.83550100  1
  Nd  Nd2  1  0.00000000  0.82589500  0.76562700  1
  Nd  Nd3  1  0.00000000  0.32923600  0.93458000  1
  Nd  Nd4  1  0.00000000  0.17380700  0.03512500  1
  Nd  Nd5  1  0.00000000  0.82619300  0.96487500  1
  Nd  Nd6  1  0.00000000  0.67076400  0.06542000  1
  Nd  Nd7  1  0.00000000  0.82365600  0.16449900  1
  Nd  Nd8  1  0.00000000  0.32365600  0.33550100  1
  Nd  Nd9  1  0.00000000  0.67410500  0.26562700  1
  Nd  Nd10  1  0.00000000  0.17076400  0.43458000  1
  Nd  Nd11  1  0.00000000  0.32619300  0.53512500  1
  Nd  Nd12  1  0.00000000  0.67380700  0.46487500  1
  Nd  Nd13  1  0.00000000  0.82923600  0.56542000  1
  Nd  Nd14  1  0.00000000  0.67634400  0.66449900  1
  Nd  Nd15  1  0.00000000  0.17410500  0.23437300  1
  Cu  Cu0  1  0.50000000  0.00445700  0.79882400  1
  Cu  Cu1  1  0.50000000  0.50445700  0.70117600  1
  Cu  Cu2  1  0.50000000  0.00000000  0.00000000  1
  Cu  Cu3  1  0.50000000  0.49573700  0.90096500  1
  Cu  Cu4  1  0.50000000  0.99554300  0.20117600  1
  Cu  Cu5  1  0.50000000  0.49554300  0.29882400  1
  Cu  Cu6  1  0.50000000  0.00426300  0.40096500  1
  Cu  Cu7  1  0.50000000  0.50426300  0.09903500  1
  Cu  Cu8  1  0.50000000  0.50000000  0.50000000  1
  Cu  Cu9  1  0.50000000  0.99573700  0.59903500  1
  O  O0  1  0.00000000  0.99204400  0.70227200  1
  O  O1  1  0.00000000  0.00847600  0.90125100  1
  O  O2  1  0.00000000  0.99152400  0.09874900  1
  O  O3  1  0.00000000  0.50000000  0.00000000  1
  O  O4  1  0.00000000  0.50795600  0.20227200  1
  O  O5  1  0.00000000  0.00795600  0.29772800  1
  O  O6  1  0.00000000  0.00000000  0.50000000  1
  O  O7  1  0.00000000  0.49152400  0.40125100  1
  O  O8  1  0.00000000  0.50847600  0.59874900  1
  O  O9  1  0.26337200  0.87130600  0.82545000  1
  O  O10  1  0.26241300  0.63873400  0.72798200  1
  O  O11  1  0.25782100  0.86255200  0.02701200  1
  O  O12  1  0.26241300  0.86126600  0.22798200  1
  O  O13  1  0.26470700  0.64591200  0.12672200  1
  O  O14  1  0.26470700  0.85408800  0.62672200  1
  O  O15  1  0.26470700  0.35408800  0.87327800  1
  O  O16  1  0.26347600  0.63189400  0.92935500  1
  O  O17  1  0.26347600  0.86810600  0.42935500  1
  O  O18  1  0.26337200  0.62869400  0.32545000  1
  O  O19  1  0.26347600  0.36810600  0.07064500  1
  O  O20  1  0.25782100  0.63744800  0.52701200  1
  O  O21  1  0.25782100  0.13744800  0.97298800  1
  O  O22  1  0.26241300  0.36126600  0.27201800  1
  O  O23  1  0.26241300  0.13873400  0.77201800  1
  O  O24  1  0.25782100  0.36255200  0.47298800  1
  O  O25  1  0.26337200  0.12869400  0.17455000  1
  O  O26  1  0.26470700  0.14591200  0.37327800  1
  O  O27  1  0.26337200  0.37130600  0.67455000  1
  O  O28  1  0.26347600  0.13189400  0.57064500  1
  O  O29  1  0.73529300  0.35408800  0.87327800  1
  O  O30  1  0.73662800  0.87130600  0.82545000  1
  O  O31  1  0.73758700  0.13873400  0.77201800  1
  O  O32  1  0.73652400  0.36810600  0.07064500  1
  O  O33  1  0.73758700  0.36126600  0.27201800  1
  O  O34  1  0.73758700  0.63873400  0.72798200  1
  O  O35  1  0.73652400  0.63189400  0.92935500  1
  O  O36  1  0.74217900  0.86255200  0.02701200  1
  O  O37  1  0.73758700  0.86126600  0.22798200  1
  O  O38  1  0.73652400  0.86810600  0.42935500  1
  O  O39  1  0.74217900  0.13744800  0.97298800  1
  O  O40  1  0.73662800  0.12869400  0.17455000  1
  O  O41  1  0.73529300  0.14591200  0.37327800  1
  O  O42  1  0.74217900  0.36255200  0.47298800  1
  O  O43  1  0.73662800  0.37130600  0.67455000  1
  O  O44  1  0.73529300  0.64591200  0.12672200  1
  O  O45  1  0.73662800  0.62869400  0.32545000  1
  O  O46  1  0.73529300  0.85408800  0.62672200  1
  O  O47  1  0.73652400  0.13189400  0.57064500  1
  O  O48  1  0.74217900  0.63744800  0.52701200  1
  O  O49  1  0.00000000  0.49204400  0.79772800  1
loop_
_geom_bond_atom_site_label_1
_geom_bond_atom_site_label_2
_geom_bond_distance
_geom_bond_site_symmetry_2
Ba0 O49 2.926648 1_555
Ba0 O49 2.926648 1_655
Ba0 O30 2.972246 1_555
Ba0 O9 2.972246 1_555
Ba0 O29 2.978274 1_555
Ba0 O15 2.978274 1_555
Ba0 O34 2.999727 1_555
Ba0 O10 2.999727 1_555
Ba0 O23 3.008722 1_555
Ba0 O31 3.008722 1_555
Ba1 O19 2.910294 1_555
Ba1 O32 2.910294 1_555
Ba1 O35 2.910294 1_554
Ba1 O16 2.910294 1_554
Ba1 O3 2.922985 1_655
Ba1 O3 2.922985 1_555
Ba1 O36 2.985068 1_555
Ba1 O11 2.985068 1_555
Ba1 O39 2.985068 1_554
Ba1 O21 2.985068 1_554
Ba2 O4 2.926648 1_555
Ba2 O4 2.926648 1_655
Ba2 O25 2.972246 1_555
Ba2 O40 2.972246 1_555
Ba2 O44 2.978274 1_555
Ba2 O13 2.978274 1_555
Ba2 O22 2.999727 1_555
Ba2 O33 2.999727 1_555
Ba2 O37 3.008722 1_555
Ba2 O12 3.008722 1_555
Ba3 O7 2.924290 1_555
Ba3 O7 2.924290 1_655
Ba3 O41 2.925904 1_555
Ba3 O26 2.925904 1_555
Ba3 O45 3.004877 1_555
Ba3 O18 3.004877 1_555
Ba3 O42 3.013079 1_555
Ba3 O24 3.013079 1_555
Ba3 O17 3.015954 1_555
Ba3 O38 3.015954 1_555
Ba4 O8 2.924290 1_655
Ba4 O8 2.924290 1_555
Ba4 O46 2.925904 1_555
Ba4 O14 2.925904 1_555
Ba4 O27 3.004877 1_555
Ba4 O43 3.004877 1_555
Ba4 O48 3.013079 1_555
Ba4 O20 3.013079 1_555
Ba4 O47 3.015954 1_555
Ba4 O28 3.015954 1_555
Ba5 O0 2.926648 1_645
Ba5 O0 2.926648 1_545
Ba5 O27 2.972246 1_555
Ba5 O43 2.972246 1_555
Ba5 O46 2.978274 1_545
Ba5 O14 2.978274 1_545
Ba5 O31 2.999727 1_555
Ba5 O23 2.999727 1_555
Ba5 O10 3.008722 1_545
Ba5 O34 3.008722 1_545
Ba6 O2 2.924290 1_545
Ba6 O2 2.924290 1_645
Ba6 O44 2.925904 1_545
Ba6 O13 2.925904 1_545
Ba6 O40 3.004877 1_555
Ba6 O25 3.004877 1_555
Ba6 O36 3.013079 1_545
Ba6 O11 3.013079 1_545
Ba6 O32 3.015954 1_555
Ba6 O19 3.015954 1_555
Ba7 O5 2.926648 1_565
Ba7 O5 2.926648 1_665
Ba7 O18 2.972246 1_555
Ba7 O45 2.972246 1_555
Ba7 O41 2.978274 1_565
Ba7 O26 2.978274 1_565
Ba7 O37 2.999727 1_555
Ba7 O12 2.999727 1_555
Ba7 O33 3.008722 1_565
Ba7 O22 3.008722 1_565
Ba8 O1 2.924290 1_665
Ba8 O1 2.924290 1_565
Ba8 O29 2.925904 1_565
Ba8 O15 2.925904 1_565
Ba8 O30 3.004877 1_555
Ba8 O9 3.004877 1_555
Ba8 O39 3.013079 1_565
Ba8 O21 3.013079 1_565
Ba8 O35 3.015954 1_555
Ba8 O16 3.015954 1_555
Ba9 O28 2.910294 1_555
Ba9 O47 2.910294 1_555
Ba9 O17 2.910294 1_545
Ba9 O38 2.910294 1_545
Ba9 O6 2.922985 1_555
Ba9 O6 2.922985 1_655
Ba9 O48 2.985068 1_545
Ba9 O20 2.985068 1_545
Ba9 O42 2.985068 1_555
Ba9 O24 2.985068 1_555
Nd0 O31 2.367240 1_455
Nd0 O23 2.367240 1_555
Nd0 O49 2.429500 1_555
Nd0 O0 2.516131 1_545
Nd0 O27 2.567637 1_555
Nd0 O43 2.567637 1_455
Nd0 O10 2.629840 1_555
Nd0 O34 2.629840 1_455
Nd1 O15 2.344798 1_555
Nd1 O29 2.344798 1_455
Nd1 O49 2.498793 1_555
Nd1 O1 2.507098 1_555
Nd1 O9 2.603899 1_545
Nd1 O30 2.603899 1_445
Nd1 O31 2.658211 1_455
Nd1 O23 2.658211 1_555
Nd2 O34 2.367240 1_455
Nd2 O10 2.367240 1_555
Nd2 O0 2.429500 1_555
Nd2 O49 2.516131 1_555
Nd2 O9 2.567637 1_555
Nd2 O30 2.567637 1_455
Nd2 O31 2.629840 1_465
Nd2 O23 2.629840 1_565
Nd3 O21 2.381176 1_555
Nd3 O39 2.381176 1_455
Nd3 O1 2.455235 1_555
Nd3 O3 2.506166 1_556
Nd3 O16 2.574959 1_555
Nd3 O35 2.574959 1_455
Nd3 O15 2.599383 1_555
Nd3 O29 2.599383 1_455
Nd4 O19 2.359929 1_555
Nd4 O32 2.359929 1_455
Nd4 O2 2.490229 1_545
Nd4 O3 2.516373 1_555
Nd4 O21 2.604839 1_554
Nd4 O39 2.604839 1_454
Nd4 O11 2.611054 1_545
Nd4 O36 2.611054 1_445
Nd5 O16 2.359929 1_555
Nd5 O35 2.359929 1_455
Nd5 O1 2.490229 1_565
Nd5 O3 2.516373 1_556
Nd5 O11 2.604839 1_556
Nd5 O36 2.604839 1_456
Nd5 O21 2.611054 1_565
Nd5 O39 2.611054 1_465
Nd6 O11 2.381176 1_555
Nd6 O36 2.381176 1_455
Nd6 O2 2.455235 1_555
Nd6 O3 2.506166 1_555
Nd6 O32 2.574959 1_455
Nd6 O19 2.574959 1_555
Nd6 O13 2.599383 1_555
Nd6 O44 2.599383 1_455
Nd7 O13 2.344798 1_555
Nd7 O44 2.344798 1_455
Nd7 O4 2.498793 1_555
Nd7 O2 2.507098 1_555
Nd7 O25 2.603899 1_565
Nd7 O40 2.603899 1_465
Nd7 O12 2.658211 1_555
Nd7 O37 2.658211 1_455
Nd8 O26 2.344798 1_555
Nd8 O41 2.344798 1_455
Nd8 O5 2.498793 1_555
Nd8 O7 2.507098 1_555
Nd8 O45 2.603899 1_455
Nd8 O18 2.603899 1_555
Nd8 O33 2.658211 1_455
Nd8 O22 2.658211 1_555
Nd9 O37 2.367240 1_455
Nd9 O12 2.367240 1_555
Nd9 O4 2.429500 1_555
Nd9 O5 2.516131 1_565
Nd9 O18 2.567637 1_555
Nd9 O45 2.567637 1_455
Nd9 O22 2.629840 1_555
Nd9 O33 2.629840 1_455
Nd10 O24 2.381176 1_555
Nd10 O42 2.381176 1_455
Nd10 O7 2.455235 1_555
Nd10 O6 2.506166 1_555
Nd10 O17 2.574959 1_545
Nd10 O38 2.574959 1_445
Nd10 O26 2.599383 1_555
Nd10 O41 2.599383 1_455
Nd11 O28 2.359929 1_555
Nd11 O47 2.359929 1_455
Nd11 O8 2.490229 1_555
Nd11 O6 2.516373 1_555
Nd11 O24 2.604839 1_555
Nd11 O42 2.604839 1_455
Nd11 O20 2.611054 1_555
Nd11 O48 2.611054 1_455
Nd12 O17 2.359929 1_555
Nd12 O38 2.359929 1_455
Nd12 O7 2.490229 1_555
Nd12 O6 2.516373 1_565
Nd12 O20 2.604839 1_555
Nd12 O48 2.604839 1_455
Nd12 O24 2.611054 1_555
Nd12 O42 2.611054 1_455
Nd13 O20 2.381176 1_555
Nd13 O48 2.381176 1_455
Nd13 O8 2.455235 1_555
Nd13 O6 2.506166 1_565
Nd13 O28 2.574959 1_565
Nd13 O47 2.574959 1_465
Nd13 O14 2.599383 1_555
Nd13 O46 2.599383 1_455
Nd14 O14 2.344798 1_555
Nd14 O46 2.344798 1_455
Nd14 O0 2.498793 1_555
Nd14 O8 2.507098 1_555
Nd14 O43 2.603899 1_455
Nd14 O27 2.603899 1_555
Nd14 O10 2.658211 1_555
Nd14 O34 2.658211 1_455
Nd15 O22 2.367240 1_555
Nd15 O33 2.367240 1_455
Nd15 O5 2.429500 1_555
Nd15 O4 2.516131 1_555
Nd15 O40 2.567637 1_455
Nd15 O25 2.567637 1_555
Nd15 O12 2.629840 1_545
Nd15 O37 2.629840 1_445
Cu0 O30 1.883918 1_545
Cu0 O9 1.883918 1_545
Cu0 O31 1.894643 1_555
Cu0 O23 1.894643 1_555
Cu1 O43 1.883918 1_555
Cu1 O27 1.883918 1_555
Cu1 O34 1.894643 1_555
Cu1 O10 1.894643 1_555
Cu2 O36 1.928083 1_545
Cu2 O11 1.928083 1_545
Cu2 O39 1.928083 1_554
Cu2 O21 1.928083 1_554
Cu3 O35 1.922689 1_555
Cu3 O16 1.922689 1_555
Cu3 O29 1.924011 1_555
Cu3 O15 1.924011 1_555
Cu4 O40 1.883918 1_565
Cu4 O25 1.883918 1_565
Cu4 O37 1.894643 1_555
Cu4 O12 1.894643 1_555
Cu5 O45 1.883918 1_555
Cu5 O18 1.883918 1_555
Cu5 O33 1.894643 1_555
Cu5 O22 1.894643 1_555
Cu6 O38 1.922689 1_545
Cu6 O17 1.922689 1_545
Cu6 O41 1.924011 1_555
Cu6 O26 1.924011 1_555
Cu7 O19 1.922689 1_555
Cu7 O32 1.922689 1_555
Cu7 O44 1.924011 1_555
Cu7 O13 1.924011 1_555
Cu8 O48 1.928083 1_555
Cu8 O20 1.928083 1_555
Cu8 O42 1.928083 1_555
Cu8 O24 1.928083 1_555
Cu9 O28 1.922689 1_565
Cu9 O47 1.922689 1_565
Cu9 O46 1.924011 1_555
Cu9 O14 1.924011 1_555
O0 Sr3 2.616658 1_565
O1 Sr0 2.574468 1_545
O2 Sr1 2.574468 1_565
O4 Sr1 2.616658 1_555
O5 Sr2 2.616658 1_545
O7 Sr2 2.574468 1_555
O8 Sr3 2.574468 1_555
O9 Sr0 2.456619 1_555
O13 Sr1 2.679233 1_555
O14 Sr3 2.679233 1_565
O15 Sr0 2.679233 1_555
O16 Sr0 2.670492 1_555
O17 Sr2 2.670492 1_555
O18 Sr2 2.456619 1_555
O19 Sr1 2.670492 1_555
O25 Sr1 2.456619 1_555
O26 Sr2 2.679233 1_545
O27 Sr3 2.456619 1_555
O28 Sr3 2.670492 1_555
O29 Sr0 2.679233 1_655
O30 Sr0 2.456619 1_655
O32 Sr1 2.670492 1_655
O35 Sr0 2.670492 1_655
O38 Sr2 2.670492 1_655
O40 Sr1 2.456619 1_655
O41 Sr2 2.679233 1_645
O43 Sr3 2.456619 1_655
O44 Sr1 2.679233 1_655
O45 Sr2 2.456619 1_655
O46 Sr3 2.679233 1_665
O47 Sr3 2.670492 1_655
O49 Sr0 2.616658 1_555
