# generated using pymatgen
data_Mn8Zn14Ga27
_symmetry_space_group_name_H-M   'P 1'
_cell_length_a   9.22444350
_cell_length_b   9.22444350
_cell_length_c   9.22444392
_cell_angle_alpha   94.76591509
_cell_angle_beta   94.76591509
_cell_angle_gamma   94.76592444
_symmetry_Int_Tables_number   1
_chemical_formula_structural   Mn8Zn14Ga27
_chemical_formula_sum   'Mn8 Zn14 Ga27'
_cell_volume   776.28614595
_cell_formula_units_Z   1
loop_
 _symmetry_equiv_pos_site_id
 _symmetry_equiv_pos_as_xyz
  1  'x, y, z'
loop_
 _atom_site_type_symbol
 _atom_site_label
 _atom_site_symmetry_multiplicity
 _atom_site_fract_x
 _atom_site_fract_y
 _atom_site_fract_z
 _atom_site_occupancy
  Mn  Mn0  1  0.71937100  0.09570400  0.38618300  1
  Mn  Mn1  1  0.18552000  0.18552000  0.18552000  1
  Mn  Mn2  1  0.61381700  0.28062900  0.90429600  1
  Mn  Mn3  1  0.28062900  0.90429600  0.61381700  1
  Mn  Mn4  1  0.90429600  0.61381700  0.28062900  1
  Mn  Mn5  1  0.38618300  0.71937100  0.09570400  1
  Mn  Mn6  1  0.09570400  0.38618300  0.71937100  1
  Mn  Mn7  1  0.81448000  0.81448000  0.81448000  1
  Zn  Zn0  1  0.46338700  0.23075700  0.34028600  1
  Zn  Zn1  1  0.37477300  0.73458000  0.38711500  1
  Zn  Zn2  1  0.50000000  0.50000000  0.50000000  1
  Zn  Zn3  1  0.76924300  0.65971400  0.53661300  1
  Zn  Zn4  1  0.26542000  0.61288500  0.62522700  1
  Zn  Zn5  1  0.23075700  0.34028600  0.46338700  1
  Zn  Zn6  1  0.53661300  0.76924300  0.65971400  1
  Zn  Zn7  1  0.73458000  0.38711500  0.37477300  1
  Zn  Zn8  1  0.62522700  0.26542000  0.61288500  1
  Zn  Zn9  1  0.34028600  0.46338700  0.23075700  1
  Zn  Zn10  1  0.65971400  0.53661300  0.76924300  1
  Zn  Zn11  1  0.61288500  0.62522700  0.26542000  1
  Zn  Zn12  1  0.38711500  0.37477300  0.73458000  1
  Zn  Zn13  1  0.00000000  0.00000000  0.00000000  1
  Ga  Ga0  1  0.44657100  0.08608300  0.77390100  1
  Ga  Ga1  1  0.22164200  0.04372300  0.39917000  1
  Ga  Ga2  1  0.26836300  0.94732700  0.12016800  1
  Ga  Ga3  1  0.32796700  0.82328200  0.85772300  1
  Ga  Ga4  1  0.82328200  0.85772300  0.32796700  1
  Ga  Ga5  1  0.87983200  0.73163700  0.05267300  1
  Ga  Ga6  1  0.85772300  0.32796700  0.82328200  1
  Ga  Ga7  1  0.39917000  0.22164200  0.04372300  1
  Ga  Ga8  1  0.17671800  0.14227700  0.67203300  1
  Ga  Ga9  1  0.05267300  0.87983200  0.73163700  1
  Ga  Ga10  1  0.12016800  0.26836300  0.94732700  1
  Ga  Ga11  1  0.22609900  0.55342900  0.91391700  1
  Ga  Ga12  1  0.77835800  0.95627700  0.60083000  1
  Ga  Ga13  1  0.95627700  0.60083000  0.77835800  1
  Ga  Ga14  1  0.91391700  0.22609900  0.55342900  1
  Ga  Ga15  1  0.55342900  0.91391700  0.22609900  1
  Ga  Ga16  1  0.50000000  0.00000000  0.50000000  1
  Ga  Ga17  1  0.94732700  0.12016800  0.26836300  1
  Ga  Ga18  1  0.73163700  0.05267300  0.87983200  1
  Ga  Ga19  1  0.77390100  0.44657100  0.08608300  1
  Ga  Ga20  1  0.60083000  0.77835800  0.95627700  1
  Ga  Ga21  1  0.67203300  0.17671800  0.14227700  1
  Ga  Ga22  1  0.04372300  0.39917000  0.22164200  1
  Ga  Ga23  1  0.14227700  0.67203300  0.17671800  1
  Ga  Ga24  1  0.08608300  0.77390100  0.44657100  1
  Ga  Ga25  1  0.50000000  0.50000000  0.00000000  1
  Ga  Ga26  1  0.00000000  0.50000000  0.50000000  1
loop_
_geom_bond_atom_site_label_1
_geom_bond_atom_site_label_2
_geom_bond_distance
_geom_bond_site_symmetry_2
Mn0 Zn7 2.691369 1_555
Mn0 Zn8 2.749883 1_555
Mn0 Zn0 2.778014 1_555
Mn1 Zn13 2.706639 1_555
Mn1 Zn9 2.810214 1_555
Mn1 Zn0 2.810214 1_555
Mn1 Zn5 2.810215 1_555
Mn2 Zn8 2.691369 1_555
Mn2 Zn12 2.749883 1_555
Mn2 Zn10 2.778014 1_555
Mn3 Zn4 2.691369 1_555
Mn3 Zn1 2.749883 1_555
Mn3 Zn6 2.778014 1_555
Mn4 Zn11 2.691369 1_555
Mn4 Zn7 2.749883 1_555
Mn4 Zn3 2.778014 1_555
Mn5 Zn1 2.691369 1_555
Mn5 Zn11 2.749883 1_555
Mn5 Zn9 2.778014 1_555
Mn6 Zn12 2.691369 1_555
Mn6 Zn4 2.749883 1_555
Mn6 Zn5 2.778014 1_555
Mn7 Zn13 2.706639 1_666
Mn7 Zn10 2.810214 1_555
Mn7 Zn6 2.810214 1_555
Mn7 Zn3 2.810215 1_555
Zn0 Zn5 2.736712 1_555
Zn0 Zn9 2.736712 1_555
Zn0 Zn2 2.760953 1_555
Zn0 Zn7 2.762509 1_555
Zn0 Zn8 2.795944 1_555
Zn1 Zn9 2.762509 1_555
Zn1 Zn2 2.773249 1_555
Zn1 Zn4 2.773409 1_555
Zn1 Zn11 2.773409 1_555
Zn1 Zn6 2.795944 1_555
Zn2 Zn5 2.760953 1_555
Zn2 Zn3 2.760953 1_555
Zn2 Zn6 2.760953 1_555
Zn2 Zn9 2.760953 1_555
Zn2 Zn4 2.773249 1_555
Zn2 Zn7 2.773249 1_555
Zn2 Zn8 2.773249 1_555
Zn3 Zn6 2.736712 1_555
Zn3 Zn7 2.795944 1_555
Zn4 Zn6 2.762509 1_555
Zn4 Zn5 2.795944 1_555
Zn5 Zn9 2.736712 1_555
Zn7 Zn8 2.773409 1_555
Zn10 Zn3 2.736712 1_555
Zn10 Zn6 2.736712 1_555
Zn10 Zn2 2.760953 1_555
Zn10 Zn8 2.762509 1_555
Zn10 Zn12 2.795943 1_555
Zn11 Zn3 2.762509 1_555
Zn11 Zn2 2.773249 1_555
Zn11 Zn7 2.773409 1_555
Zn11 Zn9 2.795943 1_555
Zn12 Zn5 2.762509 1_555
Zn12 Zn2 2.773249 1_555
Zn12 Zn8 2.773409 1_555
Zn12 Zn4 2.773409 1_555
Ga0 Mn2 2.433161 1_555
Ga0 Mn3 2.474274 1_545
Ga0 Ga16 2.682470 1_555
Ga0 Ga8 2.693453 1_555
Ga0 Ga3 2.771795 1_545
Ga0 Ga7 2.775655 1_556
Ga0 Ga18 2.778886 1_555
Ga0 Zn12 2.809643 1_555
Ga0 Zn8 2.832074 1_555
Ga1 Mn1 2.469333 1_555
Ga1 Mn3 2.496204 1_545
Ga1 Ga8 2.681273 1_555
Ga1 Ga16 2.731007 1_555
Ga1 Ga2 2.732717 1_545
Ga1 Zn5 2.743329 1_555
Ga1 Ga24 2.775654 1_545
Ga1 Zn0 2.821713 1_555
Ga1 Ga17 2.878657 1_455
Ga2 Mn1 2.431156 1_565
Ga2 Mn5 2.448551 1_555
Ga2 Ga3 2.708839 1_554
Ga2 Zn13 2.725123 1_565
Ga2 Ga23 2.811356 1_555
Ga2 Ga7 2.878657 1_565
Ga3 Mn3 2.445721 1_555
Ga3 Mn5 2.503103 1_556
Ga3 Zn4 2.759663 1_555
Ga3 Zn6 2.807348 1_555
Ga3 Ga9 2.811356 1_555
Ga4 Mn4 2.445721 1_555
Ga4 Mn0 2.503103 1_565
Ga4 Zn11 2.759663 1_555
Ga4 Zn3 2.807348 1_555
Ga4 Ga5 2.811356 1_555
Ga5 Mn7 2.431156 1_554
Ga5 Mn4 2.448551 1_555
Ga5 Zn13 2.725123 1_665
Ga6 Mn2 2.445721 1_555
Ga6 Mn6 2.503103 1_655
Ga6 Zn8 2.759663 1_555
Ga6 Zn10 2.807348 1_555
Ga7 Mn1 2.469333 1_555
Ga7 Mn2 2.496204 1_554
Ga7 Zn0 2.743329 1_555
Ga7 Zn9 2.821713 1_555
Ga8 Mn6 2.445721 1_555
Ga8 Mn3 2.503103 1_545
Ga8 Ga9 2.708838 1_545
Ga8 Zn12 2.759663 1_555
Ga8 Zn5 2.807348 1_555
Ga9 Mn7 2.431156 1_455
Ga9 Mn3 2.448551 1_555
Ga9 Zn13 2.725123 1_566
Ga10 Mn1 2.431156 1_556
Ga10 Mn6 2.448551 1_555
Ga10 Ga6 2.708839 1_455
Ga10 Zn13 2.725123 1_556
Ga10 Ga7 2.732717 1_556
Ga10 Ga11 2.778886 1_555
Ga10 Ga8 2.811356 1_555
Ga10 Ga22 2.878657 1_556
Ga11 Mn6 2.433161 1_555
Ga11 Mn5 2.474274 1_556
Ga11 Ga25 2.682470 1_556
Ga11 Ga3 2.693452 1_555
Ga11 Ga23 2.771796 1_556
Ga11 Ga13 2.775655 1_455
Ga11 Zn4 2.809643 1_555
Ga11 Zn12 2.832074 1_555
Ga12 Mn7 2.469333 1_555
Ga12 Mn0 2.496204 1_565
Ga12 Ga4 2.681273 1_555
Ga12 Ga16 2.731007 1_565
Ga12 Ga18 2.732717 1_565
Ga12 Zn3 2.743329 1_555
Ga12 Ga14 2.775654 1_565
Ga12 Zn6 2.821713 1_555
Ga12 Ga9 2.878657 1_655
Ga13 Mn7 2.469333 1_555
Ga13 Mn6 2.496204 1_655
Ga13 Ga6 2.681273 1_555
Ga13 Ga26 2.731007 1_655
Ga13 Ga9 2.732717 1_655
Ga13 Zn10 2.743329 1_555
Ga13 Zn3 2.821713 1_555
Ga13 Ga5 2.878657 1_556
Ga14 Mn0 2.433161 1_555
Ga14 Mn6 2.474274 1_655
Ga14 Ga26 2.682470 1_655
Ga14 Ga6 2.693453 1_555
Ga14 Ga8 2.771796 1_655
Ga14 Ga17 2.778887 1_555
Ga14 Zn8 2.809643 1_555
Ga14 Zn7 2.832074 1_555
Ga15 Mn5 2.433161 1_555
Ga15 Mn0 2.474274 1_565
Ga15 Ga16 2.682470 1_565
Ga15 Ga4 2.693453 1_555
Ga15 Ga21 2.771795 1_565
Ga15 Ga20 2.775655 1_554
Ga15 Ga2 2.778886 1_555
Ga15 Zn11 2.809643 1_555
Ga15 Zn1 2.832074 1_555
Ga16 Mn0 2.487309 1_555
Ga16 Mn3 2.487309 1_545
Ga16 Zn8 2.705479 1_555
Ga16 Zn1 2.705479 1_545
Ga16 Zn0 2.715409 1_555
Ga16 Zn6 2.715409 1_545
Ga17 Mn1 2.431156 1_655
Ga17 Mn0 2.448551 1_555
Ga17 Ga4 2.708838 1_545
Ga17 Zn13 2.725123 1_655
Ga17 Ga22 2.732717 1_655
Ga17 Ga21 2.811356 1_555
Ga18 Mn7 2.431156 1_545
Ga18 Mn2 2.448551 1_555
Ga18 Ga21 2.708839 1_556
Ga18 Zn13 2.725123 1_656
Ga18 Ga6 2.811356 1_555
Ga18 Ga20 2.878657 1_545
Ga19 Mn4 2.433161 1_555
Ga19 Mn2 2.474274 1_554
Ga19 Ga25 2.682470 1_555
Ga19 Ga21 2.693452 1_555
Ga19 Ga6 2.771796 1_554
Ga19 Ga22 2.775655 1_655
Ga19 Ga5 2.778886 1_555
Ga19 Zn7 2.809643 1_555
Ga19 Zn11 2.832074 1_555
Ga20 Mn7 2.469333 1_555
Ga20 Mn5 2.496204 1_556
Ga20 Ga3 2.681273 1_555
Ga20 Ga25 2.731006 1_556
Ga20 Ga5 2.732717 1_556
Ga20 Zn6 2.743329 1_555
Ga20 Zn10 2.821713 1_555
Ga21 Mn0 2.445721 1_555
Ga21 Mn2 2.503103 1_554
Ga21 Ga7 2.681273 1_555
Ga21 Zn7 2.759663 1_555
Ga21 Zn0 2.807348 1_555
Ga22 Mn1 2.469333 1_555
Ga22 Mn4 2.496204 1_455
Ga22 Ga23 2.681273 1_555
Ga22 Ga26 2.731007 1_555
Ga22 Zn9 2.743329 1_555
Ga22 Zn5 2.821713 1_555
Ga23 Mn5 2.445721 1_555
Ga23 Mn4 2.503103 1_455
Ga23 Ga24 2.693453 1_555
Ga23 Ga5 2.708839 1_455
Ga23 Zn1 2.759663 1_555
Ga23 Zn9 2.807348 1_555
Ga24 Mn3 2.433161 1_555
Ga24 Mn4 2.474274 1_455
Ga24 Ga26 2.682470 1_555
Ga24 Ga4 2.771796 1_455
Ga24 Ga9 2.778887 1_555
Ga24 Zn1 2.809643 1_555
Ga24 Zn4 2.832074 1_555
Ga25 Mn5 2.487310 1_555
Ga25 Mn2 2.487310 1_554
Ga25 Zn11 2.705479 1_555
Ga25 Zn12 2.705479 1_554
Ga25 Zn10 2.715409 1_554
Ga25 Zn9 2.715409 1_555
Ga25 Ga7 2.731006 1_555
Ga26 Mn6 2.487310 1_555
Ga26 Mn4 2.487310 1_455
Ga26 Zn4 2.705479 1_555
Ga26 Zn7 2.705479 1_455
Ga26 Zn5 2.715409 1_555
Ga26 Zn3 2.715409 1_455
