# generated using pymatgen
data_CaNdMn2O6
_symmetry_space_group_name_H-M   'P 1'
_cell_length_a   16.32884401
_cell_length_b   7.71327657
_cell_length_c   7.67441800
_cell_angle_alpha   90.00000000
_cell_angle_beta   90.00000000
_cell_angle_gamma   45.29545690
_symmetry_Int_Tables_number   1
_chemical_formula_structural   CaNdMn2O6
_chemical_formula_sum   'Ca6 Nd6 Mn12 O36'
_cell_volume   686.99379097
_cell_formula_units_Z   6
loop_
 _symmetry_equiv_pos_site_id
 _symmetry_equiv_pos_as_xyz
  1  'x, y, z'
loop_
 _atom_site_type_symbol
 _atom_site_label
 _atom_site_symmetry_multiplicity
 _atom_site_fract_x
 _atom_site_fract_y
 _atom_site_fract_z
 _atom_site_occupancy
  Ca  Ca0  1  0.01419400  0.45328200  0.25000000  1
  Ca  Ca1  1  0.32215800  0.54175400  0.75000000  1
  Ca  Ca2  1  0.64377500  0.05199000  0.75000000  1
  Ca  Ca3  1  0.35178400  0.95330100  0.25000000  1
  Ca  Ca4  1  0.67415500  0.46353700  0.25000000  1
  Ca  Ca5  1  0.98855000  0.03521600  0.75000000  1
  Nd  Nd0  1  0.32132100  0.02815400  0.75000000  1
  Nd  Nd1  1  0.00720200  0.97517500  0.25000000  1
  Nd  Nd2  1  0.34227900  0.46770900  0.25000000  1
  Nd  Nd3  1  0.66043900  0.53121700  0.75000000  1
  Nd  Nd4  1  0.68513000  0.96153100  0.25000000  1
  Nd  Nd5  1  0.98818600  0.53708200  0.75000000  1
  Mn  Mn0  1  0.16676100  0.99988000  0.49891400  1
  Mn  Mn1  1  0.16676100  0.99988000  0.00108600  1
  Mn  Mn2  1  0.16654500  0.49983400  0.49990000  1
  Mn  Mn3  1  0.16654500  0.49983400  0.00010000  1
  Mn  Mn4  1  0.50032700  0.00020000  0.00069600  1
  Mn  Mn5  1  0.50032700  0.00020000  0.49930400  1
  Mn  Mn6  1  0.50004200  0.49989500  0.99978900  1
  Mn  Mn7  1  0.50004200  0.49989500  0.50021100  1
  Mn  Mn8  1  0.83243200  0.00166200  0.99780800  1
  Mn  Mn9  1  0.83243200  0.00166200  0.50219200  1
  Mn  Mn10  1  0.83419600  0.49853500  0.49941700  1
  Mn  Mn11  1  0.83419600  0.49853500  0.00058300  1
  O  O0  1  0.18778300  0.00737700  0.25000000  1
  O  O1  1  0.14685400  0.28049500  0.54052000  1
  O  O2  1  0.14685400  0.28049500  0.95948000  1
  O  O3  1  0.99949800  0.78520700  0.54098200  1
  O  O4  1  0.99949800  0.78520700  0.95901800  1
  O  O5  1  0.13388800  0.52346200  0.25000000  1
  O  O6  1  0.19884400  0.47870900  0.75000000  1
  O  O7  1  0.33346700  0.21304200  0.04118200  1
  O  O8  1  0.33346700  0.21304200  0.45881800  1
  O  O9  1  0.18440900  0.72248900  0.04012500  1
  O  O10  1  0.18440900  0.72248900  0.45987500  1
  O  O11  1  0.14881800  0.98976100  0.75000000  1
  O  O12  1  0.51932100  0.01682700  0.25000000  1
  O  O13  1  0.47334400  0.28942800  0.53459000  1
  O  O14  1  0.47334400  0.28942800  0.96541000  1
  O  O15  1  0.33342400  0.78013500  0.96976000  1
  O  O16  1  0.33342400  0.78013500  0.53024000  1
  O  O17  1  0.47921100  0.50070100  0.25000000  1
  O  O18  1  0.52117100  0.50215900  0.75000000  1
  O  O19  1  0.66614300  0.21743200  0.02913800  1
  O  O20  1  0.66614300  0.21743200  0.47086200  1
  O  O21  1  0.52555000  0.71293400  0.03304000  1
  O  O22  1  0.52555000  0.71293400  0.46696000  1
  O  O23  1  0.48367700  0.98187900  0.75000000  1
  O  O24  1  0.84503100  0.01961600  0.25000000  1
  O  O25  1  0.81405400  0.27873200  0.53345900  1
  O  O26  1  0.81405400  0.27873200  0.96654100  1
  O  O27  1  0.66722600  0.78782500  0.53798800  1
  O  O28  1  0.66722600  0.78782500  0.96201200  1
  O  O29  1  0.80523800  0.50880600  0.25000000  1
  O  O30  1  0.86046800  0.48038100  0.75000000  1
  O  O31  1  0.00042400  0.22064700  0.03585100  1
  O  O32  1  0.00042400  0.22064700  0.46414900  1
  O  O33  1  0.85882300  0.71167800  0.03862900  1
  O  O34  1  0.85882300  0.71167800  0.46137100  1
  O  O35  1  0.81034100  0.99027500  0.75000000  1
loop_
_geom_bond_atom_site_label_1
_geom_bond_atom_site_label_2
_geom_bond_distance
_geom_bond_site_symmetry_2
Ca0 O5 2.366736 1_555
Ca0 O34 2.434389 1_455
Ca0 O33 2.434389 1_455
Ca0 O0 2.479511 1_555
Ca0 O31 2.557141 1_555
Ca0 O32 2.557141 1_555
Ca0 O2 2.716223 1_554
Ca0 O1 2.716223 1_555
Ca1 O6 2.380872 1_555
Ca1 O13 2.419813 1_555
Ca1 O14 2.419813 1_555
Ca1 O11 2.488342 1_555
Ca1 O16 2.595172 1_555
Ca1 O15 2.595172 1_555
Ca1 O9 2.747476 1_556
Ca1 O10 2.747476 1_555
Ca2 O35 2.408848 1_545
Ca2 O28 2.418260 1_545
Ca2 O27 2.418260 1_545
Ca2 O18 2.506921 1_555
Ca2 O13 2.580920 1_555
Ca2 O14 2.580920 1_555
Ca2 O19 2.647015 1_556
Ca2 O20 2.647015 1_555
Ca3 O0 2.402892 1_565
Ca3 O8 2.414213 1_565
Ca3 O7 2.414213 1_565
Ca3 O17 2.509409 1_555
Ca3 O21 2.619054 1_555
Ca3 O22 2.619054 1_555
Ca3 O15 2.657574 1_554
Ca3 O16 2.657574 1_555
Ca4 O29 2.398931 1_555
Ca4 O21 2.407023 1_555
Ca4 O22 2.407023 1_555
Ca4 O24 2.463373 1_555
Ca4 O20 2.615903 1_555
Ca4 O19 2.615903 1_555
Ca4 O26 2.720544 1_554
Ca4 O25 2.720544 1_555
Ca5 O11 2.383419 1_645
Ca5 O4 2.416349 1_545
Ca5 O3 2.416349 1_545
Ca5 O30 2.461880 1_555
Ca5 O25 2.622732 1_555
Ca5 O26 2.622732 1_555
Ca5 O32 2.699249 1_655
Ca5 O31 2.699249 1_656
Nd0 O23 2.413372 1_545
Nd0 O16 2.451785 1_545
Nd0 O15 2.451785 1_545
Nd0 O6 2.509740 1_555
Nd0 O1 2.586045 1_555
Nd0 O2 2.586045 1_555
Nd0 O7 2.732155 1_556
Nd0 O8 2.732155 1_555
Nd0 O18 2.912496 1_545
Nd0 O11 3.032405 1_545
Nd0 O21 3.216130 1_546
Nd0 O22 3.216130 1_545
Nd1 O24 2.419231 1_465
Nd1 O31 2.450174 1_565
Nd1 O32 2.450174 1_565
Nd1 O5 2.505703 1_555
Nd1 O10 2.613680 1_555
Nd1 O9 2.613680 1_555
Nd1 O3 2.721948 1_455
Nd1 O4 2.721948 1_454
Nd1 O29 2.952998 1_465
Nd1 O25 3.126045 1_465
Nd1 O26 3.126045 1_464
Nd1 O0 3.128389 1_565
Nd2 O17 2.421717 1_555
Nd2 O9 2.444214 1_555
Nd2 O10 2.444214 1_555
Nd2 O12 2.511447 1_555
Nd2 O8 2.616312 1_555
Nd2 O7 2.616312 1_555
Nd2 O14 2.664740 1_554
Nd2 O13 2.664740 1_555
Nd3 O18 2.436964 1_555
Nd3 O25 2.444078 1_555
Nd3 O26 2.444078 1_555
Nd3 O23 2.509665 1_555
Nd3 O27 2.624086 1_555
Nd3 O28 2.624086 1_555
Nd3 O21 2.681575 1_556
Nd3 O22 2.681575 1_555
Nd4 O12 2.426449 1_565
Nd4 O20 2.450339 1_565
Nd4 O19 2.450339 1_565
Nd4 O29 2.530836 1_555
Nd4 O33 2.588339 1_555
Nd4 O34 2.588339 1_555
Nd4 O27 2.704895 1_555
Nd4 O28 2.704895 1_554
Nd5 O30 2.413245 1_555
Nd5 O1 2.449473 1_655
Nd5 O2 2.449473 1_655
Nd5 O35 2.524019 1_555
Nd5 O4 2.601429 1_555
Nd5 O3 2.601429 1_555
Nd5 O34 2.679532 1_555
Nd5 O33 2.679532 1_556
Mn0 O0 1.948906 1_565
Mn0 O11 1.958877 1_555
Mn0 O32 1.959842 1_565
Mn0 O16 1.961424 1_555
Mn0 O10 1.970586 1_555
Mn0 O1 1.975512 1_565
Mn1 O0 1.948906 1_565
Mn1 O11 1.958877 1_554
Mn1 O31 1.959842 1_565
Mn1 O15 1.961424 1_554
Mn1 O9 1.970586 1_555
Mn1 O2 1.975512 1_564
Mn2 O1 1.956564 1_555
Mn2 O10 1.957986 1_555
Mn2 O5 1.964419 1_555
Mn2 O6 1.966670 1_555
Mn2 O3 1.984347 1_455
Mn2 O8 1.984730 1_555
Mn3 O2 1.956564 1_554
Mn3 O9 1.957986 1_555
Mn3 O5 1.964419 1_555
Mn3 O6 1.966670 1_554
Mn3 O4 1.984347 1_454
Mn3 O7 1.984730 1_555
Mn4 O12 1.956829 1_555
Mn4 O23 1.962016 1_544
Mn4 O21 1.963905 1_545
Mn4 O14 1.965061 1_554
Mn4 O28 1.979346 1_544
Mn4 O7 1.980458 1_555
Mn5 O12 1.956829 1_555
Mn5 O23 1.962016 1_545
Mn5 O22 1.963905 1_545
Mn5 O13 1.965061 1_555
Mn5 O27 1.979346 1_545
Mn5 O8 1.980458 1_555
Mn6 O17 1.949365 1_556
Mn6 O18 1.950038 1_555
Mn6 O19 1.959619 1_556
Mn6 O15 1.963080 1_555
Mn6 O14 1.972496 1_555
Mn6 O21 1.975280 1_556
Mn7 O17 1.949365 1_555
Mn7 O18 1.950038 1_555
Mn7 O20 1.959619 1_555
Mn7 O16 1.963080 1_555
Mn7 O13 1.972496 1_555
Mn7 O22 1.975280 1_555
Mn8 O35 1.949149 1_545
Mn8 O26 1.952592 1_555
Mn8 O19 1.960278 1_556
Mn8 O24 1.961495 1_556
Mn8 O4 1.977420 1_545
Mn8 O33 1.982601 1_546
Mn9 O35 1.949149 1_545
Mn9 O25 1.952592 1_555
Mn9 O20 1.960278 1_555
Mn9 O24 1.961495 1_555
Mn9 O3 1.977420 1_545
Mn9 O34 1.982601 1_545
Mn10 O30 1.953806 1_555
Mn10 O25 1.958396 1_555
Mn10 O29 1.959861 1_555
Mn10 O32 1.962082 1_655
Mn10 O34 1.969752 1_555
Mn10 O27 1.985174 1_555
Mn11 O30 1.953806 1_554
Mn11 O26 1.958396 1_554
Mn11 O29 1.959861 1_555
Mn11 O31 1.962082 1_655
Mn11 O33 1.969752 1_555
Mn11 O28 1.985174 1_554
