# generated using pymatgen
data_Pr3BWO9
_symmetry_space_group_name_H-M   'P 1'
_cell_length_a   8.84978644
_cell_length_b   8.84978644
_cell_length_c   5.63099900
_cell_angle_alpha   90.00000000
_cell_angle_beta   90.00000000
_cell_angle_gamma   120.00000328
_symmetry_Int_Tables_number   1
_chemical_formula_structural   Pr3BWO9
_chemical_formula_sum   'Pr6 B2 W2 O18'
_cell_volume   381.92813183
_cell_formula_units_Z   2
loop_
 _symmetry_equiv_pos_site_id
 _symmetry_equiv_pos_as_xyz
  1  'x, y, z'
loop_
 _atom_site_type_symbol
 _atom_site_label
 _atom_site_symmetry_multiplicity
 _atom_site_fract_x
 _atom_site_fract_y
 _atom_site_fract_z
 _atom_site_occupancy
  Pr  Pr0  1  0.72467800  0.64284100  0.20157800  1
  Pr  Pr1  1  0.27532200  0.35715900  0.70157800  1
  Pr  Pr2  1  0.64284100  0.91816300  0.70157800  1
  Pr  Pr3  1  0.91816300  0.27532200  0.20157800  1
  Pr  Pr4  1  0.35715900  0.08183700  0.20157800  1
  Pr  Pr5  1  0.08183700  0.72467800  0.70157800  1
  B  B0  1  0.00000000  0.00000000  0.86458500  1
  B  B1  1  0.00000000  0.00000000  0.36458500  1
  W  W0  1  0.66666700  0.33333300  0.74435800  1
  W  W1  1  0.33333300  0.66666700  0.24435800  1
  O  O0  1  0.87249700  0.82563400  0.85673700  1
  O  O1  1  0.04686300  0.87249700  0.35673700  1
  O  O2  1  0.17436600  0.04686300  0.85673700  1
  O  O3  1  0.46838700  0.26417000  0.54148200  1
  O  O4  1  0.86306600  0.48003900  0.96695500  1
  O  O5  1  0.73583000  0.20421700  0.54148200  1
  O  O6  1  0.12750300  0.17436600  0.35673700  1
  O  O7  1  0.20421700  0.46838700  0.04148200  1
  O  O8  1  0.48003900  0.61697400  0.46695500  1
  O  O9  1  0.79578300  0.53161300  0.54148200  1
  O  O10  1  0.61697400  0.13693400  0.96695500  1
  O  O11  1  0.38302600  0.86306600  0.46695500  1
  O  O12  1  0.82563400  0.95313700  0.35673700  1
  O  O13  1  0.51996100  0.38302600  0.96695500  1
  O  O14  1  0.95313700  0.12750300  0.85673700  1
  O  O15  1  0.26417000  0.79578300  0.04148200  1
  O  O16  1  0.53161300  0.73583000  0.04148200  1
  O  O17  1  0.13693400  0.51996100  0.46695500  1
loop_
_geom_bond_atom_site_label_1
_geom_bond_atom_site_label_2
_geom_bond_distance
_geom_bond_site_symmetry_2
B0 O0 1.383889 1_445
B0 O2 1.383889 1_555
B0 O14 1.383889 1_455
B1 O6 1.383889 1_555
B1 O12 1.383889 1_445
B1 O1 1.383889 1_545
O0 Pr0 2.445930 1_556
O0 Pr5 2.578558 1_655
O0 Pr2 2.688647 1_555
O1 Pr5 2.445931 1_555
O1 Pr4 2.578558 1_565
O1 Pr0 2.688647 1_455
O2 Pr4 2.445931 1_556
O2 Pr1 2.578558 1_555
O2 Pr5 2.688647 1_545
O3 W0 1.919575 1_555
O3 Pr4 2.376491 1_555
O3 Pr1 2.411479 1_555
O4 W0 2.005271 1_555
O4 Pr3 2.479690 1_556
O4 Pr5 2.545008 1_655
O4 Pr0 2.661893 1_556
O5 W0 1.919568 1_555
O5 Pr3 2.376491 1_555
O5 Pr2 2.411479 1_545
O6 Pr1 2.445930 1_555
O6 Pr3 2.578558 1_455
O6 Pr4 2.688647 1_555
O7 W1 1.919573 1_555
O7 Pr1 2.376491 1_554
O7 Pr3 2.411479 1_455
O8 W1 2.005271 1_555
O8 Pr1 2.479695 1_555
O8 Pr0 2.545011 1_555
O8 Pr2 2.661887 1_555
O9 W0 1.919573 1_555
O9 Pr0 2.376491 1_555
O9 Pr5 2.411479 1_655
O10 W0 2.005271 1_555
O10 Pr4 2.479697 1_556
O10 Pr2 2.545003 1_545
O10 Pr3 2.661886 1_556
O11 W1 2.005271 1_555
O11 Pr2 2.479697 1_555
O11 Pr4 2.545003 1_565
O11 Pr5 2.661886 1_555
O12 Pr2 2.445931 1_555
O12 Pr0 2.578558 1_555
O12 Pr3 2.688647 1_565
O13 W0 2.005271 1_555
O13 Pr0 2.479695 1_556
O13 Pr1 2.545011 1_555
O13 Pr4 2.661887 1_556
O14 Pr3 2.445931 1_556
O14 Pr2 2.578558 1_545
O14 Pr1 2.688647 1_655
O15 W1 1.919568 1_555
O15 Pr5 2.376491 1_554
O15 Pr4 2.411479 1_565
O16 W1 1.919575 1_555
O16 Pr2 2.376491 1_554
O16 Pr0 2.411479 1_555
O17 W1 2.005271 1_555
O17 Pr5 2.479690 1_555
O17 Pr3 2.545008 1_455
O17 Pr1 2.661893 1_555
