# generated using pymatgen
data_LiSn(PO3)3
_symmetry_space_group_name_H-M   'P 1'
_cell_length_a   6.86279900
_cell_length_b   7.33378103
_cell_length_c   7.52146214
_cell_angle_alpha   83.71420030
_cell_angle_beta   79.22812967
_cell_angle_gamma   82.47719873
_symmetry_Int_Tables_number   1
_chemical_formula_structural   LiSn(PO3)3
_chemical_formula_sum   'Li2 Sn2 P6 O18'
_cell_volume   367.27832025
_cell_formula_units_Z   2
loop_
 _symmetry_equiv_pos_site_id
 _symmetry_equiv_pos_as_xyz
  1  'x, y, z'
loop_
 _atom_site_type_symbol
 _atom_site_label
 _atom_site_symmetry_multiplicity
 _atom_site_fract_x
 _atom_site_fract_y
 _atom_site_fract_z
 _atom_site_occupancy
  Li  Li0  1  0.44764200  0.82652100  0.82351600  1
  Li  Li1  1  0.55235800  0.17347900  0.17648400  1
  Sn  Sn0  1  0.94873400  0.76630300  0.85385200  1
  Sn  Sn1  1  0.05126600  0.23369700  0.14614800  1
  P  P0  1  0.76928100  0.83965500  0.44184500  1
  P  P1  1  0.15243700  0.71983100  0.22445500  1
  P  P2  1  0.58684200  0.61437400  0.21712300  1
  P  P3  1  0.41315800  0.38562600  0.78287700  1
  P  P4  1  0.84756300  0.28016900  0.77554500  1
  P  P5  1  0.23071900  0.16034500  0.55815500  1
  O  O0  1  0.26906500  0.98997500  0.67940500  1
  O  O1  1  0.71191200  0.83986100  0.64604600  1
  O  O2  1  0.17587100  0.88789900  0.09046600  1
  O  O3  1  0.63332100  0.74844100  0.04956900  1
  O  O4  1  0.00895700  0.77180700  0.41317100  1
  O  O5  1  0.67884000  0.66719200  0.38443100  1
  O  O6  1  0.35199200  0.65402300  0.30419200  1
  O  O7  1  0.36035100  0.58731500  0.79827400  1
  O  O8  1  0.92718000  0.43724100  0.84339600  1
  O  O9  1  0.07282000  0.56275900  0.15660400  1
  O  O10  1  0.63964900  0.41268500  0.20172600  1
  O  O11  1  0.64800800  0.34597700  0.69580800  1
  O  O12  1  0.32116000  0.33280800  0.61556900  1
  O  O13  1  0.99104300  0.22819300  0.58682900  1
  O  O14  1  0.36667900  0.25155900  0.95043100  1
  O  O15  1  0.82412900  0.11210100  0.90953400  1
  O  O16  1  0.28808800  0.16013900  0.35395400  1
  O  O17  1  0.73093500  0.01002500  0.32059500  1
loop_
_geom_bond_atom_site_label_1
_geom_bond_atom_site_label_2
_geom_bond_distance
_geom_bond_site_symmetry_2
Li0 O7 1.965466 1_555
Li0 O0 1.985236 1_555
Li0 O1 2.047816 1_555
Li0 O3 2.290881 1_556
Li0 O2 2.508185 1_556
Li1 O10 1.965466 1_555
Li1 O17 1.985236 1_555
Li1 O16 2.047816 1_555
Li1 O14 2.290881 1_554
Li1 O15 2.508185 1_554
O0 P5 1.488689 1_565
O1 P0 1.512709 1_555
O1 Sn0 2.431219 1_555
O2 P1 1.509987 1_555
O2 Sn1 2.620851 1_565
O3 P2 1.522242 1_555
O3 Sn0 2.389698 1_554
O4 P1 1.620923 1_555
O4 P0 1.635916 1_455
O5 P0 1.611461 1_555
O5 P2 1.612451 1_555
O6 P1 1.593338 1_555
O6 P2 1.623434 1_555
O7 P3 1.487977 1_555
O8 P4 1.511194 1_555
O8 Sn0 2.447715 1_555
O9 P1 1.511194 1_555
O9 Sn1 2.447715 1_555
O10 P2 1.487977 1_555
O11 P4 1.593338 1_555
O11 P3 1.623434 1_555
O12 P5 1.611461 1_555
O12 P3 1.612451 1_555
O13 P4 1.620923 1_555
O13 P5 1.635916 1_655
O14 P3 1.522242 1_555
O14 Sn1 2.389698 1_556
O15 P4 1.509987 1_555
O15 Sn0 2.620851 1_545
O16 P5 1.512709 1_555
O16 Sn1 2.431219 1_555
O17 P0 1.488689 1_545
