# generated using pymatgen
data_Cs3CuTeS9
_symmetry_space_group_name_H-M   'P 1'
_cell_length_a   12.86587999
_cell_length_b   12.86587999
_cell_length_c   12.32958400
_cell_angle_alpha   90.00000000
_cell_angle_beta   90.00000000
_cell_angle_gamma   116.47800522
_symmetry_Int_Tables_number   1
_chemical_formula_structural   Cs3CuTeS9
_chemical_formula_sum   'Cs12 Cu4 Te4 S36'
_cell_volume   1826.84492022
_cell_formula_units_Z   4
loop_
 _symmetry_equiv_pos_site_id
 _symmetry_equiv_pos_as_xyz
  1  'x, y, z'
loop_
 _atom_site_type_symbol
 _atom_site_label
 _atom_site_symmetry_multiplicity
 _atom_site_fract_x
 _atom_site_fract_y
 _atom_site_fract_z
 _atom_site_occupancy
  Cs  Cs0  1  0.44654100  0.14586800  0.17622700  1
  Cs  Cs1  1  0.46375500  0.46375500  0.66595500  1
  Cs  Cs2  1  0.14586800  0.44654100  0.17622700  1
  Cs  Cs3  1  0.94654100  0.64586800  0.32377300  1
  Cs  Cs4  1  0.55345900  0.85413200  0.82377300  1
  Cs  Cs5  1  0.05345900  0.35413200  0.67622700  1
  Cs  Cs6  1  0.96375500  0.96375500  0.83404500  1
  Cs  Cs7  1  0.53624500  0.53624500  0.33404500  1
  Cs  Cs8  1  0.85413200  0.55345900  0.82377300  1
  Cs  Cs9  1  0.64586800  0.94654100  0.32377300  1
  Cs  Cs10  1  0.03624500  0.03624500  0.16595500  1
  Cs  Cs11  1  0.35413200  0.05345900  0.67622700  1
  Cu  Cu0  1  0.43182700  0.56817300  0.00000000  1
  Cu  Cu1  1  0.93182700  0.06817300  0.50000000  1
  Cu  Cu2  1  0.56817300  0.43182700  0.00000000  1
  Cu  Cu3  1  0.06817300  0.93182700  0.50000000  1
  Te  Te0  1  0.26869700  0.26869700  0.92517700  1
  Te  Te1  1  0.23130300  0.23130300  0.42517700  1
  Te  Te2  1  0.76869700  0.76869700  0.57482300  1
  Te  Te3  1  0.73130300  0.73130300  0.07482300  1
  S  S0  1  0.16798300  0.57566700  0.90266800  1
  S  S1  1  0.25262500  0.42034700  0.45567200  1
  S  S2  1  0.31705400  0.56483200  0.85626100  1
  S  S3  1  0.57965300  0.74737500  0.54432800  1
  S  S4  1  0.93516800  0.18294600  0.35626100  1
  S  S5  1  0.07566700  0.66798300  0.59733200  1
  S  S6  1  0.75262500  0.92034700  0.04432800  1
  S  S7  1  0.70320400  0.24876100  0.58089500  1
  S  S8  1  0.42433300  0.83201700  0.09733200  1
  S  S9  1  0.42034700  0.25262500  0.45567200  1
  S  S10  1  0.24737500  0.07965300  0.95567200  1
  S  S11  1  0.25123900  0.79679600  0.08089500  1
  S  S12  1  0.29679600  0.75123900  0.41910500  1
  S  S13  1  0.75123900  0.29679600  0.41910500  1
  S  S14  1  0.92034700  0.75262500  0.04432800  1
  S  S15  1  0.74876100  0.20320400  0.91910500  1
  S  S16  1  0.24876100  0.70320400  0.58089500  1
  S  S17  1  0.43516800  0.68294600  0.14373900  1
  S  S18  1  0.61788200  0.61788200  0.91931100  1
  S  S19  1  0.92433300  0.33201700  0.40266800  1
  S  S20  1  0.88211800  0.88211800  0.41931100  1
  S  S21  1  0.57566700  0.16798300  0.90266800  1
  S  S22  1  0.33201700  0.92433300  0.40266800  1
  S  S23  1  0.06483200  0.81705400  0.64373900  1
  S  S24  1  0.07965300  0.24737500  0.95567200  1
  S  S25  1  0.11788200  0.11788200  0.58068900  1
  S  S26  1  0.18294600  0.93516800  0.35626100  1
  S  S27  1  0.74737500  0.57965300  0.54432800  1
  S  S28  1  0.81705400  0.06483200  0.64373900  1
  S  S29  1  0.56483200  0.31705400  0.85626100  1
  S  S30  1  0.38211800  0.38211800  0.08068900  1
  S  S31  1  0.66798300  0.07566700  0.59733200  1
  S  S32  1  0.83201700  0.42433300  0.09733200  1
  S  S33  1  0.79679600  0.25123900  0.08089500  1
  S  S34  1  0.68294600  0.43516800  0.14373900  1
  S  S35  1  0.20320400  0.74876100  0.91910500  1
loop_
_geom_bond_atom_site_label_1
_geom_bond_atom_site_label_2
_geom_bond_distance
_geom_bond_site_symmetry_2
Cs0 S10 3.569338 1_554
Cs0 S34 3.629123 1_555
Cs0 S30 3.682397 1_555
Cs0 S21 3.714253 1_554
Cs0 S9 3.779413 1_555
Cs0 S22 3.787463 1_545
Cs0 S26 3.947084 1_545
Cs0 S8 4.037853 1_545
Cs1 S3 3.596626 1_555
Cs1 S27 3.596626 1_555
Cs1 S2 3.598311 1_555
Cs1 S29 3.598311 1_555
Cs1 S9 3.613852 1_555
Cs1 S1 3.613852 1_555
Cs1 S18 3.757126 1_555
Cs1 Te0 4.146702 1_555
Cs2 S24 3.569338 1_554
Cs2 S17 3.629123 1_555
Cs2 S30 3.682397 1_555
Cs2 S0 3.714253 1_554
Cs2 S1 3.779413 1_555
Cs2 S19 3.787463 1_455
Cs2 S4 3.947084 1_455
Cs2 S32 4.037853 1_455
Cs3 S27 3.569338 1_555
Cs3 S26 3.629123 1_655
Cs3 S20 3.682397 1_555
Cs3 S5 3.714253 1_655
Cs3 S14 3.779413 1_555
Cs3 S32 3.787463 1_555
Cs3 S34 3.947084 1_555
Cs3 S19 4.037853 1_555
Cs4 S6 3.569338 1_556
Cs4 S2 3.629123 1_555
Cs4 S18 3.682397 1_555
Cs4 S8 3.714253 1_556
Cs4 S3 3.779413 1_555
Cs4 S31 3.787463 1_565
Cs4 S28 3.947084 1_565
Cs4 S21 4.037853 1_565
Cs5 S1 3.569338 1_555
Cs5 S28 3.629123 1_455
Cs5 S25 3.682397 1_555
Cs5 S19 3.714253 1_455
Cs5 S24 3.779413 1_555
Cs5 S0 3.787463 1_555
Cs5 S2 3.947084 1_555
Cs5 S5 4.037853 1_555
Cs6 S24 3.596626 1_665
Cs6 S10 3.596626 1_665
Cs6 S23 3.598311 1_655
Cs6 S28 3.598311 1_565
Cs6 S14 3.613852 1_556
Cs6 S6 3.613852 1_556
Cs6 S25 3.757126 1_665
Cs6 Te2 4.146702 1_555
Cs7 S1 3.596626 1_555
Cs7 S9 3.596626 1_555
Cs7 S17 3.598311 1_555
Cs7 S34 3.598311 1_555
Cs7 S3 3.613852 1_555
Cs7 S27 3.613852 1_555
Cs7 S30 3.757126 1_555
Cs7 Te3 4.146702 1_555
Cs8 S14 3.569338 1_556
Cs8 S29 3.629123 1_555
Cs8 S18 3.682397 1_555
Cs8 S32 3.714253 1_556
Cs8 S27 3.779413 1_555
Cs8 S5 3.787463 1_655
Cs8 S23 3.947084 1_655
Cs8 S0 4.037853 1_655
Cs9 S3 3.569338 1_555
Cs9 S4 3.629123 1_565
Cs9 S20 3.682397 1_555
Cs9 S31 3.714253 1_565
Cs9 S6 3.779413 1_555
Cs9 S8 3.787463 1_555
Cs9 S17 3.947084 1_555
Cs9 S22 4.037853 1_555
Cs10 S14 3.596626 1_445
Cs10 S6 3.596626 1_445
Cs10 S26 3.598311 1_545
Cs10 S4 3.598311 1_455
Cs10 S10 3.613852 1_554
Cs10 S24 3.613852 1_554
Cs10 S20 3.757126 1_445
Cs10 Te1 4.146702 1_555
Cs11 S9 3.569338 1_555
Cs11 S23 3.629123 1_545
Cs11 S25 3.682397 1_555
Cs11 S22 3.714253 1_545
Cs11 S10 3.779413 1_555
Cs11 S21 3.787463 1_555
Cs11 S29 3.947084 1_555
Cs11 S31 4.037853 1_555
Cu0 S2 2.294908 1_554
Cu0 S17 2.294908 1_555
Cu0 S30 2.400776 1_555
Cu0 S18 2.400776 1_554
Cu1 S28 2.294908 1_555
Cu1 S4 2.294908 1_555
Cu1 S20 2.400776 1_545
Cu1 S25 2.400776 1_655
Cu2 S29 2.294908 1_554
Cu2 S34 2.294908 1_555
Cu2 S18 2.400776 1_554
Cu2 S30 2.400776 1_555
Cu3 S23 2.294908 1_555
Cu3 S26 2.294908 1_555
Cu3 S20 2.400776 1_455
Cu3 S25 2.400776 1_565
S0 S2 2.064869 1_555
S0 S35 2.075113 1_555
S1 Te1 2.353155 1_555
S3 Te2 2.353155 1_555
S6 Te3 2.353155 1_555
S9 Te1 2.353155 1_555
S10 Te0 2.353155 1_555
S11 S8 2.075113 1_555
S11 S35 2.098223 1_554
S12 S22 2.075113 1_555
S12 S16 2.098223 1_555
S13 S19 2.075113 1_555
S13 S7 2.098223 1_555
S14 Te3 2.353155 1_555
S15 S21 2.075113 1_555
S15 S33 2.098223 1_556
S16 S5 2.075113 1_555
S17 S8 2.064869 1_555
S18 Te3 2.456921 1_556
S19 S4 2.064869 1_555
S20 Te2 2.456921 1_555
S21 S29 2.064869 1_555
S22 S26 2.064869 1_555
S23 S5 2.064869 1_555
S24 Te0 2.353155 1_555
S25 Te1 2.456921 1_555
S27 Te2 2.353155 1_555
S28 S31 2.064869 1_555
S30 Te0 2.456921 1_554
S31 S7 2.075113 1_555
S32 S34 2.064869 1_555
S32 S33 2.075113 1_555
